# Generated by pormake.
# Topology cha, (4)-cn, num edge types: 1
# Building blocks:
#     Node 0, Type 0, BuildingBlock: QUQFOY_clean_sbu_1, # of connection points: 4
#     Node 1, Type 0, BuildingBlock: QUQFOY_clean_sbu_1, # of connection points: 4
#     Node 2, Type 0, BuildingBlock: QUQFOY_clean_sbu_1, # of connection points: 4
#     Node 3, Type 0, BuildingBlock: QUQFOY_clean_sbu_1, # of connection points: 4
#     Node 4, Type 0, BuildingBlock: QUQFOY_clean_sbu_1, # of connection points: 4
#     Node 5, Type 0, BuildingBlock: QUQFOY_clean_sbu_1, # of connection points: 4
#     Node 6, Type 0, BuildingBlock: QUQFOY_clean_sbu_1, # of connection points: 4
#     Node 7, Type 0, BuildingBlock: QUQFOY_clean_sbu_1, # of connection points: 4
#     Node 8, Type 0, BuildingBlock: QUQFOY_clean_sbu_1, # of connection points: 4
#     Node 9, Type 0, BuildingBlock: QUQFOY_clean_sbu_1, # of connection points: 4
#     Node 10, Type 0, BuildingBlock: QUQFOY_clean_sbu_1, # of connection points: 4
#     Node 11, Type 0, BuildingBlock: QUQFOY_clean_sbu_1, # of connection points: 4
#     Node 12, Type 0, BuildingBlock: QUQFOY_clean_sbu_1, # of connection points: 4
#     Node 13, Type 0, BuildingBlock: QUQFOY_clean_sbu_1, # of connection points: 4
#     Node 14, Type 0, BuildingBlock: QUQFOY_clean_sbu_1, # of connection points: 4
#     Node 15, Type 0, BuildingBlock: QUQFOY_clean_sbu_1, # of connection points: 4
#     Node 16, Type 0, BuildingBlock: QUQFOY_clean_sbu_1, # of connection points: 4
#     Node 17, Type 0, BuildingBlock: QUQFOY_clean_sbu_1, # of connection points: 4
#     Node 18, Type 0, BuildingBlock: QUQFOY_clean_sbu_1, # of connection points: 4
#     Node 19, Type 0, BuildingBlock: QUQFOY_clean_sbu_1, # of connection points: 4
#     Node 20, Type 0, BuildingBlock: QUQFOY_clean_sbu_1, # of connection points: 4
#     Node 21, Type 0, BuildingBlock: QUQFOY_clean_sbu_1, # of connection points: 4
#     Node 22, Type 0, BuildingBlock: QUQFOY_clean_sbu_1, # of connection points: 4
#     Node 23, Type 0, BuildingBlock: QUQFOY_clean_sbu_1, # of connection points: 4
#     Node 24, Type 0, BuildingBlock: QUQFOY_clean_sbu_1, # of connection points: 4
#     Node 25, Type 0, BuildingBlock: QUQFOY_clean_sbu_1, # of connection points: 4
#     Node 26, Type 0, BuildingBlock: QUQFOY_clean_sbu_1, # of connection points: 4
#     Node 27, Type 0, BuildingBlock: QUQFOY_clean_sbu_1, # of connection points: 4
#     Node 28, Type 0, BuildingBlock: QUQFOY_clean_sbu_1, # of connection points: 4
#     Node 29, Type 0, BuildingBlock: QUQFOY_clean_sbu_1, # of connection points: 4
#     Node 30, Type 0, BuildingBlock: QUQFOY_clean_sbu_1, # of connection points: 4
#     Node 31, Type 0, BuildingBlock: QUQFOY_clean_sbu_1, # of connection points: 4
#     Node 32, Type 0, BuildingBlock: QUQFOY_clean_sbu_1, # of connection points: 4
#     Node 33, Type 0, BuildingBlock: QUQFOY_clean_sbu_1, # of connection points: 4
#     Node 34, Type 0, BuildingBlock: QUQFOY_clean_sbu_1, # of connection points: 4
#     Node 35, Type 0, BuildingBlock: QUQFOY_clean_sbu_1, # of connection points: 4
#     Edge 36, Type (0, 0), BuildingBlock: UVAHIK_clean_linker_0, # of connection points: 2
#     Edge 37, Type (0, 0), BuildingBlock: UVAHIK_clean_linker_0, # of connection points: 2
#     Edge 38, Type (0, 0), BuildingBlock: UVAHIK_clean_linker_0, # of connection points: 2
#     Edge 39, Type (0, 0), BuildingBlock: UVAHIK_clean_linker_0, # of connection points: 2
#     Edge 40, Type (0, 0), BuildingBlock: UVAHIK_clean_linker_0, # of connection points: 2
#     Edge 41, Type (0, 0), BuildingBlock: UVAHIK_clean_linker_0, # of connection points: 2
#     Edge 42, Type (0, 0), BuildingBlock: UVAHIK_clean_linker_0, # of connection points: 2
#     Edge 43, Type (0, 0), BuildingBlock: UVAHIK_clean_linker_0, # of connection points: 2
#     Edge 44, Type (0, 0), BuildingBlock: UVAHIK_clean_linker_0, # of connection points: 2
#     Edge 45, Type (0, 0), BuildingBlock: UVAHIK_clean_linker_0, # of connection points: 2
#     Edge 46, Type (0, 0), BuildingBlock: UVAHIK_clean_linker_0, # of connection points: 2
#     Edge 47, Type (0, 0), BuildingBlock: UVAHIK_clean_linker_0, # of connection points: 2
#     Edge 48, Type (0, 0), BuildingBlock: UVAHIK_clean_linker_0, # of connection points: 2
#     Edge 49, Type (0, 0), BuildingBlock: UVAHIK_clean_linker_0, # of connection points: 2
#     Edge 50, Type (0, 0), BuildingBlock: UVAHIK_clean_linker_0, # of connection points: 2
#     Edge 51, Type (0, 0), BuildingBlock: UVAHIK_clean_linker_0, # of connection points: 2
#     Edge 52, Type (0, 0), BuildingBlock: UVAHIK_clean_linker_0, # of connection points: 2
#     Edge 53, Type (0, 0), BuildingBlock: UVAHIK_clean_linker_0, # of connection points: 2
#     Edge 54, Type (0, 0), BuildingBlock: UVAHIK_clean_linker_0, # of connection points: 2
#     Edge 55, Type (0, 0), BuildingBlock: UVAHIK_clean_linker_0, # of connection points: 2
#     Edge 56, Type (0, 0), BuildingBlock: UVAHIK_clean_linker_0, # of connection points: 2
#     Edge 57, Type (0, 0), BuildingBlock: UVAHIK_clean_linker_0, # of connection points: 2
#     Edge 58, Type (0, 0), BuildingBlock: UVAHIK_clean_linker_0, # of connection points: 2
#     Edge 59, Type (0, 0), BuildingBlock: UVAHIK_clean_linker_0, # of connection points: 2
#     Edge 60, Type (0, 0), BuildingBlock: UVAHIK_clean_linker_0, # of connection points: 2
#     Edge 61, Type (0, 0), BuildingBlock: UVAHIK_clean_linker_0, # of connection points: 2
#     Edge 62, Type (0, 0), BuildingBlock: UVAHIK_clean_linker_0, # of connection points: 2
#     Edge 63, Type (0, 0), BuildingBlock: UVAHIK_clean_linker_0, # of connection points: 2
#     Edge 64, Type (0, 0), BuildingBlock: UVAHIK_clean_linker_0, # of connection points: 2
#     Edge 65, Type (0, 0), BuildingBlock: UVAHIK_clean_linker_0, # of connection points: 2
#     Edge 66, Type (0, 0), BuildingBlock: UVAHIK_clean_linker_0, # of connection points: 2
#     Edge 67, Type (0, 0), BuildingBlock: UVAHIK_clean_linker_0, # of connection points: 2
#     Edge 68, Type (0, 0), BuildingBlock: UVAHIK_clean_linker_0, # of connection points: 2
#     Edge 69, Type (0, 0), BuildingBlock: UVAHIK_clean_linker_0, # of connection points: 2
#     Edge 70, Type (0, 0), BuildingBlock: UVAHIK_clean_linker_0, # of connection points: 2
#     Edge 71, Type (0, 0), BuildingBlock: UVAHIK_clean_linker_0, # of connection points: 2
#     Edge 72, Type (0, 0), BuildingBlock: UVAHIK_clean_linker_0, # of connection points: 2
#     Edge 73, Type (0, 0), BuildingBlock: UVAHIK_clean_linker_0, # of connection points: 2
#     Edge 74, Type (0, 0), BuildingBlock: UVAHIK_clean_linker_0, # of connection points: 2
#     Edge 75, Type (0, 0), BuildingBlock: UVAHIK_clean_linker_0, # of connection points: 2
#     Edge 76, Type (0, 0), BuildingBlock: UVAHIK_clean_linker_0, # of connection points: 2
#     Edge 77, Type (0, 0), BuildingBlock: UVAHIK_clean_linker_0, # of connection points: 2
#     Edge 78, Type (0, 0), BuildingBlock: UVAHIK_clean_linker_0, # of connection points: 2
#     Edge 79, Type (0, 0), BuildingBlock: UVAHIK_clean_linker_0, # of connection points: 2
#     Edge 80, Type (0, 0), BuildingBlock: UVAHIK_clean_linker_0, # of connection points: 2
#     Edge 81, Type (0, 0), BuildingBlock: UVAHIK_clean_linker_0, # of connection points: 2
#     Edge 82, Type (0, 0), BuildingBlock: UVAHIK_clean_linker_0, # of connection points: 2
#     Edge 83, Type (0, 0), BuildingBlock: UVAHIK_clean_linker_0, # of connection points: 2
#     Edge 84, Type (0, 0), BuildingBlock: UVAHIK_clean_linker_0, # of connection points: 2
#     Edge 85, Type (0, 0), BuildingBlock: UVAHIK_clean_linker_0, # of connection points: 2
#     Edge 86, Type (0, 0), BuildingBlock: UVAHIK_clean_linker_0, # of connection points: 2
#     Edge 87, Type (0, 0), BuildingBlock: UVAHIK_clean_linker_0, # of connection points: 2
#     Edge 88, Type (0, 0), BuildingBlock: UVAHIK_clean_linker_0, # of connection points: 2
#     Edge 89, Type (0, 0), BuildingBlock: UVAHIK_clean_linker_0, # of connection points: 2
#     Edge 90, Type (0, 0), BuildingBlock: UVAHIK_clean_linker_0, # of connection points: 2
#     Edge 91, Type (0, 0), BuildingBlock: UVAHIK_clean_linker_0, # of connection points: 2
#     Edge 92, Type (0, 0), BuildingBlock: UVAHIK_clean_linker_0, # of connection points: 2
#     Edge 93, Type (0, 0), BuildingBlock: UVAHIK_clean_linker_0, # of connection points: 2
#     Edge 94, Type (0, 0), BuildingBlock: UVAHIK_clean_linker_0, # of connection points: 2
#     Edge 95, Type (0, 0), BuildingBlock: UVAHIK_clean_linker_0, # of connection points: 2
#     Edge 96, Type (0, 0), BuildingBlock: UVAHIK_clean_linker_0, # of connection points: 2
#     Edge 97, Type (0, 0), BuildingBlock: UVAHIK_clean_linker_0, # of connection points: 2
#     Edge 98, Type (0, 0), BuildingBlock: UVAHIK_clean_linker_0, # of connection points: 2
#     Edge 99, Type (0, 0), BuildingBlock: UVAHIK_clean_linker_0, # of connection points: 2
#     Edge 100, Type (0, 0), BuildingBlock: UVAHIK_clean_linker_0, # of connection points: 2
#     Edge 101, Type (0, 0), BuildingBlock: UVAHIK_clean_linker_0, # of connection points: 2
#     Edge 102, Type (0, 0), BuildingBlock: UVAHIK_clean_linker_0, # of connection points: 2
#     Edge 103, Type (0, 0), BuildingBlock: UVAHIK_clean_linker_0, # of connection points: 2
#     Edge 104, Type (0, 0), BuildingBlock: UVAHIK_clean_linker_0, # of connection points: 2
#     Edge 105, Type (0, 0), BuildingBlock: UVAHIK_clean_linker_0, # of connection points: 2
#     Edge 106, Type (0, 0), BuildingBlock: UVAHIK_clean_linker_0, # of connection points: 2
#     Edge 107, Type (0, 0), BuildingBlock: UVAHIK_clean_linker_0, # of connection points: 2
# Relax obj value: 0.043
# Max RMSD: 0.076
# Mean RMSD: 0.076
data_MOF--net-cha--node1-QUQFOY_clean_sbu_1--edge1-UVAHIK_clean_linker_0
_symmetry_space_group_name_H-M    P1
_symmetry_Int_Tables_number       1
_symmetry_cell_setting            triclinic
loop_
_symmetry_equiv_pos_as_xyz
'x, y, z'
_cell_length_a     80.367538
_cell_length_b     80.373463
_cell_length_c     108.50835
_cell_angle_alpha  89.992082
_cell_angle_beta   90.008152
_cell_angle_gamma 120.00084
loop_
_atom_site_label
_atom_site_type_symbol
_atom_site_fract_x
_atom_site_fract_y
_atom_site_fract_z
_atom_type_partial_charge
O0 O 0.03338 0.28353 0.07026 0.0
Cd1 Cd 0.03158 0.27043 0.087 0.0
Cd2 Cd 0.01263 0.28981 0.0927 0.0
O3 O 0.0201 0.30093 0.07512 0.0
O4 O 0.04784 0.2586 0.08403 0.0
O5 O 0.05521 0.28127 0.09792 0.0
C6 C 0.05957 0.26981 0.09229 0.0
C7 C 0.01984 0.30918 0.1101 0.0
C8 C 0.02823 0.29559 0.06728 0.0
C9 C 0.98976 0.2469 0.09413 0.0
O10 O 0.9894 0.26252 0.09437 0.0
O11 O 0.00539 0.24706 0.09196 0.0
O12 O 0.00646 0.30693 0.10254 0.0
O13 O 0.02977 0.30102 0.10746 0.0
O14 O 0.77591 0.78305 0.0709 0.0
Cd15 Cd 0.78909 0.79364 0.08772 0.0
Cd16 Cd 0.77024 0.75502 0.09298 0.0
O17 O 0.75912 0.7522 0.07546 0.0
O18 O 0.80037 0.82192 0.08584 0.0
O19 O 0.77785 0.80496 0.09953 0.0
C20 C 0.78915 0.82139 0.09449 0.0
C21 C 0.75055 0.7405 0.11 0.0
C22 C 0.76407 0.76584 0.06779 0.0
C23 C 0.81321 0.77562 0.0941 0.0
O24 O 0.79774 0.75951 0.09439 0.0
O25 O 0.81274 0.79098 0.09212 0.0
O26 O 0.75342 0.73054 0.10184 0.0
O27 O 0.75834 0.75881 0.10825 0.0
O28 O 0.27589 0.02316 0.071 0.0
Cd29 Cd 0.26457 0.02481 0.08777 0.0
Cd30 Cd 0.30353 0.04579 0.09321 0.0
O31 O 0.30682 0.03833 0.07553 0.0
O32 O 0.23648 0.00728 0.08549 0.0
O33 O 0.25338 0.00193 0.09933 0.0
C34 C 0.23702 0.99657 0.09411 0.0
C35 C 0.32013 0.04278 0.10994 0.0
C36 C 0.29325 0.02933 0.06785 0.0
C37 C 0.28102 0.06647 0.09466 0.0
O38 O 0.29737 0.06765 0.09502 0.0
O39 O 0.26602 0.05049 0.09239 0.0
O40 O 0.3287 0.05595 0.10172 0.0
O41 O 0.3021 0.03053 0.10833 0.0
O42 O 0.28469 0.0354 0.9344 0.0
Cd43 Cd 0.27205 0.03457 0.91763 0.0
Cd44 Cd 0.28966 0.01303 0.91219 0.0
O45 O 0.30011 0.01986 0.92998 0.0
O46 O 0.26115 0.05157 0.92088 0.0
O47 O 0.28352 0.05843 0.90685 0.0
C48 C 0.2724 0.06315 0.91258 0.0
C49 C 0.30931 0.01625 0.89547 0.0
C50 C 0.29557 0.0289 0.93763 0.0
C51 C 0.24655 0.99311 0.91029 0.0
O52 O 0.26154 0.99158 0.91013 0.0
O53 O 0.24779 0.0092 0.91258 0.0
O54 O 0.30451 0.00283 0.90354 0.0
O55 O 0.30375 0.02863 0.89726 0.0
O56 O 0.02606 0.28094 0.93429 0.0
Cd57 Cd 0.02777 0.26968 0.91751 0.0
Cd58 Cd 0.04775 0.30819 0.91208 0.0
O59 O 0.04029 0.31178 0.92967 0.0
O60 O 0.01126 0.2416 0.9204 0.0
O61 O 0.0042 0.25713 0.9065 0.0
C62 C 0.99968 0.24123 0.91208 0.0
C63 C 0.04102 0.32082 0.89473 0.0
C64 C 0.03169 0.29821 0.9374 0.0
C65 C 0.06966 0.28723 0.91053 0.0
O66 O 0.07055 0.30346 0.9104 0.0
O67 O 0.05377 0.27199 0.9126 0.0
O68 O 0.05445 0.33169 0.90234 0.0
O69 O 0.03076 0.30272 0.8973 0.0
O70 O 0.77991 0.77639 0.93492 0.0
Cd71 Cd 0.79219 0.78932 0.91831 0.0
Cd72 Cd 0.75331 0.77143 0.91235 0.0
O73 O 0.74911 0.76071 0.93007 0.0
O74 O 0.82 0.80013 0.92187 0.0
O75 O 0.80481 0.77796 0.90767 0.0
C76 C 0.82049 0.78892 0.91359 0.0
C77 C 0.73769 0.75191 0.89543 0.0
C78 C 0.76246 0.76529 0.93791 0.0
C79 C 0.77613 0.81459 0.91069 0.0
O80 O 0.75973 0.79948 0.91035 0.0
O81 O 0.79104 0.81354 0.91316 0.0
O82 O 0.72866 0.75651 0.9033 0.0
O83 O 0.75559 0.75763 0.89752 0.0
O84 O 0.02681 0.77568 0.93472 0.0
Cd85 Cd 0.02741 0.78874 0.91817 0.0
Cd86 Cd 0.04884 0.77137 0.91212 0.0
O87 O 0.04263 0.7607 0.92988 0.0
O88 O 0.01038 0.79945 0.92188 0.0
O89 O 0.00341 0.77748 0.90754 0.0
C90 C 0.99869 0.78836 0.91356 0.0
C91 C 0.04405 0.7516 0.89518 0.0
C92 C 0.03354 0.7649 0.93771 0.0
C93 C 0.06871 0.81445 0.91048 0.0
O94 O 0.07026 0.79949 0.90998 0.0
O95 O 0.05269 0.81313 0.91312 0.0
O96 O 0.05806 0.75626 0.90277 0.0
O97 O 0.03209 0.75751 0.89755 0.0
O98 O 0.2857 0.28109 0.93393 0.0
Cd99 Cd 0.27295 0.27005 0.91707 0.0
Cd100 Cd 0.29153 0.30881 0.91183 0.0
O101 O 0.30241 0.31197 0.92946 0.0
O102 O 0.26123 0.24196 0.91996 0.0
O103 O 0.28398 0.25742 0.90614 0.0
C104 C 0.2725 0.24154 0.91171 0.0
C105 C 0.31133 0.32285 0.8948 0.0
C106 C 0.29735 0.29831 0.93712 0.0
C107 C 0.24862 0.28765 0.91014 0.0
O108 O 0.26392 0.30392 0.91012 0.0
O109 O 0.24932 0.27242 0.91212 0.0
O110 O 0.30836 0.33303 0.90273 0.0
O111 O 0.30359 0.3046 0.8968 0.0
O112 O 0.78226 0.03596 0.93328 0.0
Cd113 Cd 0.79276 0.03462 0.91616 0.0
Cd114 Cd 0.75358 0.01354 0.91192 0.0
O115 O 0.75108 0.02118 0.92971 0.0
O116 O 0.8209 0.05091 0.91894 0.0
O117 O 0.80534 0.05859 0.90546 0.0
C118 C 0.82128 0.06283 0.91089 0.0
C119 C 0.73891 0.01895 0.8951 0.0
C120 C 0.76521 0.03006 0.93701 0.0
C121 C 0.77551 0.99267 0.90937 0.0
O122 O 0.75906 0.99126 0.9099 0.0
O123 O 0.79064 0.00884 0.91096 0.0
O124 O 0.72904 0.00578 0.90312 0.0
O125 O 0.75717 0.02973 0.89695 0.0
O126 O 0.77593 0.02227 0.07223 0.0
Cd127 Cd 0.78809 0.02507 0.08942 0.0
Cd128 Cd 0.76832 0.04431 0.09331 0.0
O129 O 0.75807 0.03555 0.07563 0.0
O130 O 0.80028 0.00884 0.08784 0.0
O131 O 0.77682 0.00218 0.10099 0.0
C132 C 0.78872 0.99765 0.09618 0.0
C133 C 0.74824 0.03883 0.11015 0.0
C134 C 0.76397 0.02711 0.06844 0.0
C135 C 0.81119 0.06738 0.09542 0.0
O136 O 0.79555 0.06769 0.09494 0.0
O137 O 0.81115 0.05164 0.09408 0.0
O138 O 0.7508 0.05139 0.10184 0.0
O139 O 0.75645 0.02866 0.10858 0.0
O140 O 0.0362 0.78107 0.07067 0.0
Cd141 Cd 0.03362 0.79183 0.08743 0.0
Cd142 Cd 0.01364 0.75343 0.09267 0.0
O143 O 0.0218 0.7502 0.07519 0.0
O144 O 0.05061 0.82006 0.08539 0.0
O145 O 0.05622 0.80331 0.09922 0.0
C146 C 0.06132 0.81966 0.09407 0.0
C147 C 0.02003 0.74072 0.11013 0.0
C148 C 0.03068 0.76383 0.06754 0.0
C149 C 0.99147 0.77415 0.09372 0.0
O150 O 0.99064 0.75795 0.09402 0.0
O151 O 0.00739 0.7894 0.09176 0.0
O152 O 0.00685 0.72986 0.10238 0.0
O153 O 0.03021 0.75885 0.10767 0.0
O154 O 0.27992 0.28502 0.07008 0.0
Cd155 Cd 0.26755 0.27176 0.0866 0.0
Cd156 Cd 0.3067 0.28925 0.09252 0.0
O157 O 0.31075 0.30016 0.07486 0.0
O158 O 0.23974 0.26081 0.08296 0.0
O159 O 0.25463 0.28271 0.09735 0.0
C160 C 0.23902 0.27172 0.09136 0.0
C161 C 0.32293 0.30863 0.10939 0.0
C162 C 0.2974 0.29595 0.06707 0.0
C163 C 0.28338 0.24609 0.09397 0.0
O164 O 0.29989 0.26105 0.09439 0.0
O165 O 0.26861 0.24742 0.09152 0.0
O166 O 0.33161 0.30385 0.10136 0.0
O167 O 0.30503 0.30316 0.1075 0.0
O168 O 0.70393 0.6173 0.4033 0.0
Cd169 Cd 0.70199 0.60397 0.41997 0.0
Cd170 Cd 0.68238 0.62297 0.42581 0.0
O171 O 0.68953 0.6337 0.40811 0.0
O172 O 0.71912 0.59296 0.41761 0.0
O173 O 0.72485 0.61523 0.43153 0.0
C174 C 0.72997 0.6041 0.42623 0.0
C175 C 0.68719 0.64288 0.44269 0.0
C176 C 0.69815 0.62888 0.4003 0.0
C177 C 0.66031 0.57979 0.42708 0.0
O178 O 0.65985 0.59533 0.42771 0.0
O179 O 0.67592 0.58013 0.42454 0.0
O180 O 0.67367 0.63882 0.43481 0.0
O181 O 0.69869 0.6363 0.44066 0.0
O182 O 0.44358 0.11618 0.40412 0.0
Cd183 Cd 0.45642 0.1268 0.42102 0.0
Cd184 Cd 0.43685 0.08818 0.42645 0.0
O185 O 0.42623 0.0854 0.40877 0.0
O186 O 0.46799 0.15509 0.41902 0.0
O187 O 0.44513 0.13839 0.43257 0.0
C188 C 0.45665 0.15474 0.42752 0.0
C189 C 0.41679 0.07349 0.44332 0.0
C190 C 0.43162 0.099 0.40101 0.0
C191 C 0.47986 0.10831 0.42789 0.0
O192 O 0.46419 0.09237 0.42818 0.0
O193 O 0.47978 0.12382 0.42573 0.0
O194 O 0.41978 0.06361 0.43516 0.0
O195 O 0.42462 0.09182 0.44163 0.0
O196 O 0.94568 0.3576 0.40524 0.0
Cd197 Cd 0.93524 0.35951 0.42227 0.0
Cd198 Cd 0.97424 0.37989 0.42653 0.0
O199 O 0.97684 0.37193 0.40886 0.0
O200 O 0.90705 0.34349 0.41953 0.0
O201 O 0.92241 0.33575 0.43314 0.0
C202 C 0.90653 0.33162 0.42769 0.0
C203 C 0.98729 0.37333 0.44373 0.0
C204 C 0.96269 0.36312 0.40157 0.0
C205 C 0.95321 0.40166 0.42874 0.0
O206 O 0.96949 0.40268 0.42829 0.0
O207 O 0.93788 0.38562 0.42724 0.0
O208 O 0.99801 0.3866 0.43598 0.0
O209 O 0.96912 0.36311 0.44137 0.0
O210 O 0.95207 0.36905 0.26641 0.0
Cd211 Cd 0.94006 0.36686 0.24923 0.0
Cd212 Cd 0.95962 0.34728 0.24528 0.0
O213 O 0.96981 0.35566 0.26299 0.0
O214 O 0.9275 0.38259 0.25162 0.0
O215 O 0.95102 0.39055 0.23831 0.0
C216 C 0.939 0.39453 0.24355 0.0
C217 C 0.97977 0.35311 0.22845 0.0
C218 C 0.96392 0.36407 0.2702 0.0
C219 C 0.91678 0.32467 0.24286 0.0
O220 O 0.93229 0.32412 0.24347 0.0
O221 O 0.91701 0.3405 0.24422 0.0
O222 O 0.97707 0.34029 0.23659 0.0
O223 O 0.97163 0.36331 0.23017 0.0
O224 O 0.69363 0.61389 0.26724 0.0
Cd225 Cd 0.69501 0.60248 0.25044 0.0
Cd226 Cd 0.71524 0.64106 0.24498 0.0
O227 O 0.70806 0.64474 0.26263 0.0
O228 O 0.67861 0.57446 0.25359 0.0
O229 O 0.67119 0.58967 0.23966 0.0
C230 C 0.66682 0.57389 0.24535 0.0
C231 C 0.70856 0.65396 0.22774 0.0
C232 C 0.69945 0.63119 0.27036 0.0
C233 C 0.73679 0.61973 0.24324 0.0
O234 O 0.73785 0.63604 0.24313 0.0
O235 O 0.72085 0.60459 0.24538 0.0
O236 O 0.72211 0.66468 0.23532 0.0
O237 O 0.69817 0.63586 0.23026 0.0
O238 O 0.45042 0.10928 0.26804 0.0
Cd239 Cd 0.46217 0.12269 0.25144 0.0
Cd240 Cd 0.4233 0.1042 0.24545 0.0
O241 O 0.41962 0.09336 0.26313 0.0
O242 O 0.49024 0.13344 0.25403 0.0
O243 O 0.47387 0.1115 0.2399 0.0
C244 C 0.49005 0.12247 0.24533 0.0
C245 C 0.40676 0.0848 0.22863 0.0
C246 C 0.43299 0.09794 0.27098 0.0
C247 C 0.44537 0.14751 0.24446 0.0
O248 O 0.42923 0.13214 0.24374 0.0
O249 O 0.46047 0.14686 0.247 0.0
O250 O 0.39817 0.08932 0.23688 0.0
O251 O 0.42476 0.09048 0.23027 0.0
O252 O 0.69277 0.11031 0.26758 0.0
Cd253 Cd 0.69502 0.12325 0.25071 0.0
Cd254 Cd 0.71368 0.10359 0.24526 0.0
O255 O 0.70595 0.09275 0.2629 0.0
O256 O 0.67836 0.13487 0.25278 0.0
O257 O 0.67208 0.112 0.23922 0.0
C258 C 0.66728 0.12351 0.24432 0.0
C259 C 0.70682 0.08403 0.22797 0.0
C260 C 0.69784 0.09822 0.27066 0.0
C261 C 0.73694 0.14649 0.24381 0.0
O262 O 0.73709 0.13076 0.24357 0.0
O263 O 0.7214 0.14653 0.24594 0.0
O264 O 0.71998 0.08629 0.23571 0.0
O265 O 0.69686 0.09225 0.23036 0.0
O266 O 0.95189 0.61248 0.26731 0.0
Cd267 Cd 0.9393 0.60137 0.25041 0.0
Cd268 Cd 0.95794 0.64024 0.2451 0.0
O269 O 0.96852 0.64336 0.2628 0.0
O270 O 0.9276 0.57325 0.25324 0.0
O271 O 0.95048 0.58885 0.23952 0.0
C272 C 0.93894 0.57291 0.245 0.0
C273 C 0.97792 0.65483 0.22821 0.0
C274 C 0.96341 0.62973 0.2705 0.0
C275 C 0.91502 0.61893 0.24326 0.0
O276 O 0.93032 0.6352 0.24322 0.0
O277 O 0.9157 0.60371 0.24533 0.0
O278 O 0.97466 0.66472 0.23622 0.0
O279 O 0.97041 0.63658 0.23007 0.0
O280 O 0.44807 0.36842 0.26861 0.0
Cd281 Cd 0.46013 0.36715 0.25205 0.0
Cd282 Cd 0.42127 0.34645 0.24609 0.0
O283 O 0.41728 0.35341 0.26374 0.0
O284 O 0.48802 0.3841 0.25535 0.0
O285 O 0.47269 0.39071 0.24104 0.0
C286 C 0.48847 0.39551 0.24687 0.0
C287 C 0.40541 0.34995 0.22914 0.0
C288 C 0.43064 0.36225 0.27157 0.0
C289 C 0.44368 0.32562 0.24491 0.0
O290 O 0.42741 0.32458 0.24434 0.0
O291 O 0.45869 0.34149 0.24738 0.0
O292 O 0.39647 0.33658 0.23719 0.0
O293 O 0.42337 0.36211 0.23105 0.0
O294 O 0.44354 0.35692 0.40447 0.0
Cd295 Cd 0.45673 0.35924 0.42125 0.0
Cd296 Cd 0.43773 0.37888 0.42679 0.0
O297 O 0.42678 0.37096 0.40918 0.0
O298 O 0.46808 0.34235 0.4191 0.0
O299 O 0.44559 0.33646 0.43288 0.0
C300 C 0.4569 0.33147 0.4277 0.0
C301 C 0.41784 0.37375 0.44371 0.0
C302 C 0.43175 0.36239 0.40143 0.0
C303 C 0.48077 0.40123 0.42793 0.0
O304 O 0.46526 0.40179 0.42838 0.0
O305 O 0.48037 0.3855 0.42572 0.0
O306 O 0.42095 0.38668 0.43557 0.0
O307 O 0.4255 0.36311 0.442 0.0
O308 O 0.70177 0.11388 0.40396 0.0
Cd309 Cd 0.69997 0.12486 0.42082 0.0
Cd310 Cd 0.6804 0.08608 0.42622 0.0
O311 O 0.688 0.08305 0.40853 0.0
O312 O 0.71628 0.15302 0.41809 0.0
O313 O 0.72352 0.13742 0.43185 0.0
C314 C 0.72791 0.15337 0.42638 0.0
C315 C 0.68602 0.0717 0.44314 0.0
C316 C 0.69634 0.09668 0.40081 0.0
C317 C 0.65808 0.10674 0.42786 0.0
O318 O 0.65751 0.09065 0.42802 0.0
O319 O 0.67381 0.12213 0.42574 0.0
O320 O 0.67295 0.06168 0.43512 0.0
O321 O 0.69655 0.08998 0.44128 0.0
O322 O 0.94562 0.61704 0.40384 0.0
Cd323 Cd 0.93476 0.60426 0.42072 0.0
Cd324 Cd 0.97348 0.62303 0.42608 0.0
O325 O 0.97648 0.63369 0.40839 0.0
O326 O 0.90654 0.59288 0.41847 0.0
O327 O 0.92305 0.61563 0.43211 0.0
C328 C 0.90678 0.60422 0.42693 0.0
C329 C 0.98805 0.64305 0.44297 0.0
C330 C 0.96287 0.62865 0.40069 0.0
C331 C 0.95251 0.58008 0.42767 0.0
O332 O 0.96869 0.59548 0.42786 0.0
O333 O 0.93723 0.58064 0.42555 0.0
O334 O 0.99796 0.63987 0.43494 0.0
O335 O 0.96977 0.6354 0.44115 0.0
O336 O 0.36816 0.94964 0.73628 0.0
Cd337 Cd 0.3676 0.9367 0.75288 0.0
Cd338 Cd 0.34643 0.95451 0.75894 0.0
O339 O 0.3529 0.96516 0.7412 0.0
O340 O 0.38458 0.92587 0.74932 0.0
O341 O 0.39157 0.94802 0.76353 0.0
C342 C 0.39625 0.93701 0.75763 0.0
C343 C 0.34992 0.97403 0.77581 0.0
C344 C 0.3617 0.96066 0.73332 0.0
C345 C 0.3263 0.91134 0.76059 0.0
O346 O 0.32495 0.92641 0.761 0.0
O347 O 0.34226 0.91245 0.75803 0.0
O348 O 0.33636 0.96927 0.76785 0.0
O349 O 0.36228 0.9685 0.77383 0.0
O350 O 0.11045 0.44718 0.73754 0.0
Cd351 Cd 0.12289 0.45799 0.75451 0.0
Cd352 Cd 0.10433 0.41928 0.75957 0.0
O353 O 0.09379 0.41625 0.74187 0.0
O354 O 0.13448 0.48611 0.75185 0.0
O355 O 0.11151 0.47024 0.76546 0.0
C356 C 0.123 0.48626 0.76005 0.0
C357 C 0.08425 0.40514 0.77646 0.0
C358 C 0.09893 0.42998 0.73425 0.0
C359 C 0.1472 0.44042 0.76152 0.0
O360 O 0.1319 0.42414 0.76146 0.0
O361 O 0.14651 0.45566 0.75955 0.0
O362 O 0.08735 0.395 0.76856 0.0
O363 O 0.09203 0.4234 0.7745 0.0
O364 O 0.61042 0.68796 0.7378 0.0
Cd365 Cd 0.60027 0.69025 0.75485 0.0
Cd366 Cd 0.63952 0.71095 0.75889 0.0
O367 O 0.64165 0.70256 0.74125 0.0
O368 O 0.572 0.67337 0.75288 0.0
O369 O 0.58881 0.66731 0.76638 0.0
C370 C 0.57243 0.66238 0.76135 0.0
C371 C 0.6557 0.70752 0.77565 0.0
C372 C 0.62741 0.69351 0.73405 0.0
C373 C 0.61785 0.73234 0.76093 0.0
O374 O 0.63412 0.73333 0.76054 0.0
O375 O 0.60253 0.7163 0.75947 0.0
O376 O 0.66465 0.72037 0.76729 0.0
O377 O 0.63753 0.69577 0.77412 0.0
O378 O 0.61811 0.70209 0.59907 0.0
Cd379 Cd 0.60589 0.70089 0.5821 0.0
Cd380 Cd 0.62407 0.67969 0.57762 0.0
O381 O 0.63406 0.68684 0.59547 0.0
O382 O 0.59413 0.71719 0.58521 0.0
O383 O 0.61703 0.72492 0.57147 0.0
C384 C 0.60545 0.72912 0.57709 0.0
C385 C 0.64438 0.68442 0.56102 0.0
C386 C 0.62906 0.69592 0.60277 0.0
C387 C 0.58108 0.65912 0.5751 0.0
O388 O 0.59617 0.65779 0.57539 0.0
O389 O 0.58207 0.67521 0.57695 0.0
O390 O 0.63989 0.67074 0.56885 0.0
O391 O 0.638 0.69612 0.56296 0.0
O392 O 0.35642 0.94385 0.60021 0.0
Cd393 Cd 0.35906 0.93332 0.58338 0.0
Cd394 Cd 0.37804 0.97175 0.57807 0.0
O395 O 0.36984 0.97465 0.59562 0.0
O396 O 0.34226 0.90501 0.58522 0.0
O397 O 0.3365 0.9219 0.57159 0.0
C398 C 0.33149 0.90548 0.5766 0.0
C399 C 0.37192 0.98499 0.56074 0.0
C400 C 0.36149 0.961 0.60332 0.0
C401 C 0.40116 0.95191 0.57696 0.0
O402 O 0.40139 0.96783 0.57664 0.0
O403 O 0.38553 0.93636 0.57897 0.0
O404 O 0.38487 0.99562 0.56867 0.0
O405 O 0.36175 0.96678 0.56295 0.0
O406 O 0.11483 0.44441 0.60083 0.0
Cd407 Cd 0.12553 0.4571 0.5839 0.0
Cd408 Cd 0.08679 0.43729 0.57866 0.0
O409 O 0.08403 0.4267 0.59633 0.0
O410 O 0.15374 0.46935 0.58657 0.0
O411 O 0.13829 0.44623 0.57297 0.0
C412 C 0.15422 0.45801 0.57838 0.0
C413 C 0.0728 0.41719 0.56174 0.0
C414 C 0.09773 0.43233 0.60402 0.0
C415 C 0.1067 0.4802 0.57687 0.0
O416 O 0.09075 0.46453 0.57687 0.0
O417 O 0.12229 0.48018 0.57885 0.0
O418 O 0.06255 0.41992 0.56975 0.0
O419 O 0.09112 0.42534 0.5636 0.0
O420 O 0.3591 0.4436 0.60065 0.0
Cd421 Cd 0.3604 0.45655 0.58393 0.0
Cd422 Cd 0.38051 0.43802 0.57816 0.0
O423 O 0.37343 0.42716 0.59582 0.0
O424 O 0.34404 0.46822 0.58711 0.0
O425 O 0.33658 0.44564 0.57314 0.0
C426 C 0.33227 0.45709 0.57883 0.0
C427 C 0.37416 0.41839 0.56097 0.0
C428 C 0.36493 0.43207 0.60365 0.0
C429 C 0.40213 0.48095 0.57653 0.0
O430 O 0.40309 0.46565 0.57628 0.0
O431 O 0.38627 0.48023 0.57883 0.0
O432 O 0.38767 0.42138 0.56862 0.0
O433 O 0.36361 0.42596 0.56339 0.0
O434 O 0.61813 0.94654 0.60102 0.0
Cd435 Cd 0.60494 0.93547 0.58426 0.0
Cd436 Cd 0.62406 0.97393 0.5788 0.0
O437 O 0.63527 0.97732 0.59635 0.0
O438 O 0.5932 0.90733 0.58701 0.0
O439 O 0.61576 0.92293 0.5731 0.0
C440 C 0.60435 0.90699 0.57863 0.0
C441 C 0.64329 0.98652 0.56137 0.0
C442 C 0.63009 0.96374 0.60409 0.0
C443 C 0.58111 0.95361 0.57751 0.0
O444 O 0.59666 0.96966 0.57728 0.0
O445 O 0.58142 0.93819 0.57955 0.0
O446 O 0.64099 0.99744 0.56908 0.0
O447 O 0.63527 0.96839 0.56388 0.0
O448 O 0.11733 0.70485 0.5992 0.0
Cd449 Cd 0.12671 0.70189 0.58204 0.0
Cd450 Cd 0.08791 0.68292 0.57817 0.0
O451 O 0.08623 0.69184 0.59576 0.0
O452 O 0.15514 0.71806 0.58361 0.0
O453 O 0.13838 0.72469 0.57041 0.0
C454 C 0.1548 0.72921 0.57522 0.0
C455 C 0.07497 0.68937 0.56086 0.0
C456 C 0.10057 0.70022 0.60296 0.0
C457 C 0.10731 0.65953 0.57619 0.0
O458 O 0.0914 0.65931 0.57671 0.0
O459 O 0.12306 0.67525 0.57743 0.0
O460 O 0.06412 0.67671 0.56888 0.0
O461 O 0.09323 0.69914 0.56302 0.0
O462 O 0.10961 0.69141 0.73804 0.0
Cd463 Cd 0.12168 0.69233 0.75503 0.0
Cd464 Cd 0.10433 0.7142 0.75953 0.0
O465 O 0.09437 0.70737 0.74164 0.0
O466 O 0.13293 0.67559 0.75194 0.0
O467 O 0.11015 0.66833 0.76571 0.0
C468 C 0.12152 0.66383 0.76011 0.0
C469 C 0.08416 0.70949 0.7762 0.0
C470 C 0.09904 0.69802 0.73434 0.0
C471 C 0.14724 0.73396 0.76211 0.0
O472 O 0.13239 0.7357 0.76186 0.0
O473 O 0.14585 0.71771 0.76017 0.0
O474 O 0.08877 0.72332 0.76846 0.0
O475 O 0.0903 0.69764 0.77411 0.0
O476 O 0.37003 0.44751 0.73691 0.0
Cd477 Cd 0.36798 0.45824 0.75382 0.0
Cd478 Cd 0.34805 0.41983 0.75899 0.0
O479 O 0.35569 0.4166 0.74136 0.0
O480 O 0.38506 0.48647 0.75181 0.0
O481 O 0.39084 0.46953 0.76539 0.0
C482 C 0.39593 0.48594 0.76034 0.0
C483 C 0.35467 0.40705 0.77631 0.0
C484 C 0.36436 0.43027 0.7337 0.0
C485 C 0.32602 0.44065 0.76058 0.0
O486 O 0.32516 0.42443 0.76069 0.0
O487 O 0.34192 0.4559 0.75856 0.0
O488 O 0.34136 0.39623 0.76862 0.0
O489 O 0.36491 0.42518 0.77382 0.0
O490 O 0.61485 0.95011 0.73702 0.0
Cd491 Cd 0.60318 0.93702 0.7537 0.0
Cd492 Cd 0.64172 0.95512 0.75935 0.0
O493 O 0.64566 0.96629 0.74176 0.0
O494 O 0.57521 0.92557 0.75041 0.0
O495 O 0.5903 0.94793 0.76451 0.0
C496 C 0.57459 0.93668 0.75871 0.0
C497 C 0.65423 0.97438 0.77676 0.0
C498 C 0.6322 0.96157 0.73398 0.0
C499 C 0.6202 0.91222 0.7608 0.0
O500 O 0.63655 0.92742 0.76103 0.0
O501 O 0.60513 0.91315 0.75864 0.0
O502 O 0.66513 0.9717 0.76925 0.0
O503 O 0.63619 0.9667 0.77407 0.0
C504 C 0.09235 0.28407 0.10208 0.0
C505 C 0.07785 0.27001 0.09458 0.0
C506 C 0.11026 0.28513 0.10309 0.0
C507 C 0.14113 0.27217 0.08541 0.0
H508 H 0.169 0.27912 0.11592 0.0
C509 C 0.2041 0.25854 0.08739 0.0
C510 C 0.2209 0.27185 0.09358 0.0
C511 C 0.18721 0.25925 0.08856 0.0
C512 C 0.16148 0.27741 0.10732 0.0
H513 H 0.07047 0.24547 0.08279 0.0
H514 H 0.10141 0.24723 0.08462 0.0
H515 H 0.13821 0.27864 0.11621 0.0
H516 H 0.23292 0.29597 0.10623 0.0
H517 H 0.20317 0.29728 0.10821 0.0
H518 H 0.16411 0.27086 0.07648 0.0
C519 C 0.09916 0.25768 0.08953 0.0
C520 C 0.14387 0.27713 0.10749 0.0
C521 C 0.08136 0.25661 0.08854 0.0
C522 C 0.22021 0.28554 0.10132 0.0
C523 C 0.20319 0.28626 0.10248 0.0
C524 C 0.15862 0.27248 0.08524 0.0
C525 C 0.11397 0.27219 0.09658 0.0
C526 C 0.13333 0.27407 0.09655 0.0
C527 C 0.18661 0.27333 0.0959 0.0
C528 C 0.16881 0.27467 0.09621 0.0
H529 H 0.09006 0.29459 0.10686 0.0
H530 H 0.12142 0.29647 0.10859 0.0
H531 H 0.13362 0.27031 0.07677 0.0
H532 H 0.20403 0.24766 0.08147 0.0
H533 H 0.17458 0.24879 0.08359 0.0
C534 C 0.80362 0.97689 0.09526 0.0
C535 C 0.78888 0.97989 0.09965 0.0
C536 C 0.80335 0.95971 0.09765 0.0
C537 C 0.77044 0.90884 0.10419 0.0
H538 H 0.81798 0.90862 0.10986 0.0
C539 C 0.77441 0.83848 0.10551 0.0
C540 C 0.78911 0.83913 0.09813 0.0
C541 C 0.77398 0.85535 0.10815 0.0
C542 C 0.80457 0.90843 0.10828 0.0
H543 H 0.76246 0.96731 0.11021 0.0
H544 H 0.76197 0.93707 0.11438 0.0
H545 H 0.81795 0.93893 0.11026 0.0
H546 H 0.81513 0.85804 0.08802 0.0
H547 H 0.8144 0.88723 0.09261 0.0
H548 H 0.7572 0.87833 0.10186 0.0
C549 C 0.7737 0.94809 0.10905 0.0
C550 C 0.80456 0.92579 0.10851 0.0
C551 C 0.77403 0.96543 0.10673 0.0
C552 C 0.80359 0.857 0.09372 0.0
C553 C 0.80325 0.87379 0.09644 0.0
C554 C 0.77045 0.89141 0.10398 0.0
C555 C 0.78831 0.945 0.10445 0.0
C556 C 0.78762 0.92628 0.1061 0.0
C557 C 0.78837 0.87318 0.10358 0.0
C558 C 0.78765 0.89111 0.10566 0.0
H559 H 0.81527 0.98771 0.08978 0.0
H560 H 0.81468 0.95772 0.0938 0.0
H561 H 0.75718 0.90873 0.10222 0.0
H562 H 0.76304 0.82491 0.10903 0.0
H563 H 0.76238 0.85444 0.11372 0.0
C564 C 0.0932 0.83696 0.10504 0.0
C565 C 0.07908 0.83747 0.09765 0.0
C566 C 0.11048 0.85389 0.10759 0.0
C567 C 0.1328 0.90697 0.10736 0.0
H568 H 0.18053 0.90741 0.10114 0.0
C569 C 0.2015 0.97506 0.09306 0.0
C570 C 0.21935 0.9786 0.09759 0.0
C571 C 0.18476 0.95784 0.09568 0.0
C572 C 0.16737 0.90748 0.10315 0.0
H573 H 0.07182 0.85619 0.08745 0.0
H574 H 0.1017 0.88548 0.0919 0.0
H575 H 0.15018 0.8769 0.10117 0.0
H576 H 0.23362 0.96691 0.1086 0.0
H577 H 0.20417 0.93653 0.11313 0.0
H578 H 0.14983 0.93754 0.10893 0.0
C579 C 0.09948 0.87212 0.09579 0.0
C580 C 0.14998 0.88999 0.10317 0.0
C581 C 0.08238 0.85527 0.09316 0.0
C582 C 0.22006 0.9646 0.10499 0.0
C583 C 0.20324 0.94719 0.10753 0.0
C584 C 0.15013 0.92439 0.10734 0.0
C585 C 0.11383 0.87165 0.10294 0.0
C586 C 0.13246 0.88964 0.10489 0.0
C587 C 0.18542 0.94362 0.10286 0.0
C588 C 0.16754 0.92491 0.10485 0.0
H589 H 0.09108 0.82345 0.10862 0.0
H590 H 0.12125 0.8531 0.11317 0.0
H591 H 0.11958 0.90713 0.10897 0.0
H592 H 0.20042 0.98553 0.08734 0.0
H593 H 0.17134 0.95545 0.09177 0.0
C594 C 0.25939 0.08512 0.91613 0.0
C595 C 0.27282 0.08151 0.91022 0.0
C596 C 0.26041 0.10286 0.91493 0.0
C597 C 0.27974 0.1471 0.89646 0.0
H598 H 0.27227 0.16763 0.92699 0.0
C599 C 0.2869 0.22311 0.90196 0.0
C600 C 0.27268 0.22348 0.90934 0.0
C601 C 0.28788 0.20622 0.9009 0.0
C602 C 0.27425 0.16205 0.91836 0.0
H603 H 0.29744 0.09351 0.89798 0.0
H604 H 0.29927 0.12481 0.8959 0.0
H605 H 0.27241 0.13748 0.92723 0.0
H606 H 0.24778 0.20615 0.92082 0.0
H607 H 0.24942 0.17694 0.9189 0.0
H608 H 0.28146 0.17186 0.88763 0.0
C609 C 0.28793 0.11376 0.90146 0.0
C610 C 0.27433 0.14476 0.9185 0.0
C611 C 0.28691 0.09588 0.90267 0.0
C612 C 0.25905 0.20647 0.91518 0.0
C613 C 0.26004 0.18971 0.91414 0.0
C614 C 0.27968 0.16453 0.89632 0.0
C615 C 0.27492 0.11754 0.90781 0.0
C616 C 0.27661 0.13683 0.90753 0.0
C617 C 0.27471 0.18948 0.90724 0.0
C618 C 0.27648 0.17194 0.90725 0.0
H619 H 0.2482 0.07432 0.9219 0.0
H620 H 0.24988 0.10515 0.9197 0.0
H621 H 0.28154 0.14133 0.88787 0.0
H622 H 0.29759 0.23599 0.89733 0.0
H623 H 0.29933 0.20645 0.89551 0.0
C624 C 0.96696 0.22292 0.90218 0.0
C625 C 0.98147 0.22319 0.90959 0.0
C626 C 0.94914 0.206 0.90094 0.0
C627 C 0.91854 0.16107 0.9178 0.0
H628 H 0.89081 0.14176 0.88706 0.0
C629 C 0.8564 0.08428 0.91428 0.0
C630 C 0.83935 0.0811 0.90858 0.0
C631 C 0.8732 0.102 0.91327 0.0
C632 C 0.89831 0.14712 0.89572 0.0
H633 H 0.98896 0.20571 0.92097 0.0
H634 H 0.95823 0.17644 0.91872 0.0
H635 H 0.92139 0.1723 0.88729 0.0
H636 H 0.8268 0.09382 0.8969 0.0
H637 H 0.85643 0.12507 0.89515 0.0
H638 H 0.89577 0.13604 0.92626 0.0
C639 C 0.96037 0.1893 0.91408 0.0
C640 C 0.91579 0.16457 0.89585 0.0
C641 C 0.97806 0.20609 0.91531 0.0
C642 C 0.83971 0.09586 0.90141 0.0
C643 C 0.85665 0.11371 0.90039 0.0
C644 C 0.90121 0.14374 0.91766 0.0
C645 C 0.94554 0.18913 0.90712 0.0
C646 C 0.92628 0.1715 0.90687 0.0
C647 C 0.87345 0.11707 0.90657 0.0
C648 C 0.89108 0.13633 0.9066 0.0
H649 H 0.96917 0.23587 0.89764 0.0
H650 H 0.93798 0.20631 0.89552 0.0
H651 H 0.92599 0.16625 0.9265 0.0
H652 H 0.85672 0.07319 0.91976 0.0
H653 H 0.88601 0.10399 0.91791 0.0
C654 C 0.8551 0.80101 0.91803 0.0
C655 C 0.8384 0.78832 0.91151 0.0
C656 C 0.87172 0.79976 0.91703 0.0
C657 C 0.89741 0.78178 0.89821 0.0
H658 H 0.92331 0.78587 0.92918 0.0
C659 C 0.96606 0.77433 0.90357 0.0
C660 C 0.98021 0.78784 0.91151 0.0
C661 C 0.94811 0.7732 0.90255 0.0
C662 C 0.91633 0.78483 0.92044 0.0
H663 H 0.8263 0.76477 0.89843 0.0
H664 H 0.8556 0.76257 0.89668 0.0
H665 H 0.89313 0.786 0.92917 0.0
H666 H 0.98688 0.81126 0.92418 0.0
H667 H 0.95591 0.80937 0.92234 0.0
H668 H 0.92094 0.78083 0.88951 0.0
C669 C 0.8557 0.77349 0.90257 0.0
C670 C 0.89904 0.7849 0.92044 0.0
C671 C 0.83893 0.77473 0.90359 0.0
C672 C 0.97627 0.80055 0.91807 0.0
C673 C 0.95845 0.7994 0.91708 0.0
C674 C 0.91484 0.78171 0.89822 0.0
C675 C 0.87213 0.78576 0.90949 0.0
C676 C 0.88959 0.78384 0.90932 0.0
C677 C 0.94401 0.7855 0.90951 0.0
C678 C 0.92469 0.7837 0.90933 0.0
H679 H 0.8553 0.81179 0.92412 0.0
H680 H 0.88427 0.8097 0.92227 0.0
H681 H 0.89044 0.78094 0.88951 0.0
H682 H 0.96868 0.76436 0.89837 0.0
H683 H 0.93725 0.76234 0.89664 0.0
C684 C 0.75133 0.58992 0.42487 0.0
C685 C 0.74787 0.60418 0.42961 0.0
C686 C 0.7685 0.59024 0.42739 0.0
C687 C 0.81891 0.6228 0.43513 0.0
H688 H 0.81889 0.57507 0.44047 0.0
C689 C 0.88923 0.61881 0.43758 0.0
C690 C 0.8889 0.60425 0.43021 0.0
C691 C 0.87225 0.6192 0.43989 0.0
C692 C 0.81916 0.58853 0.43898 0.0
H693 H 0.75969 0.62987 0.44088 0.0
H694 H 0.78996 0.6305 0.44524 0.0
H695 H 0.78856 0.57506 0.44032 0.0
H696 H 0.87043 0.57845 0.41977 0.0
H697 H 0.84108 0.57913 0.42378 0.0
H698 H 0.84952 0.63613 0.43341 0.0
C699 C 0.77928 0.61908 0.43955 0.0
C700 C 0.80178 0.58852 0.4389 0.0
C701 C 0.76193 0.61866 0.43711 0.0
C702 C 0.87123 0.58988 0.42548 0.0
C703 C 0.85433 0.59018 0.42786 0.0
C704 C 0.83635 0.6228 0.43521 0.0
C705 C 0.78276 0.60488 0.43467 0.0
C706 C 0.8014 0.60554 0.43661 0.0
C707 C 0.85462 0.6049 0.43501 0.0
C708 C 0.8366 0.60555 0.43677 0.0
H709 H 0.74083 0.57855 0.41906 0.0
H710 H 0.77082 0.57926 0.42332 0.0
H711 H 0.81909 0.63612 0.43327 0.0
H712 H 0.90264 0.6301 0.44134 0.0
H713 H 0.87292 0.63068 0.44548 0.0
C714 C 0.44232 0.29947 0.43852 0.0
C715 C 0.45692 0.31364 0.43114 0.0
C716 C 0.44193 0.28213 0.44094 0.0
C717 C 0.47253 0.25963 0.44032 0.0
H718 H 0.42496 0.21203 0.4344 0.0
C719 C 0.47118 0.19035 0.42641 0.0
C720 C 0.4567 0.1726 0.43097 0.0
C721 C 0.47093 0.20723 0.42893 0.0
C722 C 0.43828 0.22516 0.43633 0.0
H723 H 0.48279 0.32091 0.4208 0.0
H724 H 0.48211 0.29092 0.42501 0.0
H725 H 0.42501 0.24247 0.43445 0.0
H726 H 0.4307 0.15871 0.44195 0.0
H727 H 0.4302 0.1884 0.44634 0.0
H728 H 0.48593 0.24246 0.44182 0.0
C729 C 0.47103 0.29315 0.42901 0.0
C730 C 0.43831 0.2426 0.43635 0.0
C731 C 0.47133 0.31032 0.42651 0.0
C732 C 0.44208 0.17218 0.43832 0.0
C733 C 0.44174 0.18914 0.44078 0.0
C734 C 0.4725 0.24224 0.44029 0.0
C735 C 0.45625 0.27876 0.43615 0.0
C736 C 0.45555 0.26008 0.43798 0.0
C737 C 0.45613 0.20685 0.43605 0.0
C738 C 0.4555 0.22486 0.43793 0.0
H739 H 0.431 0.30161 0.44219 0.0
H740 H 0.4304 0.27134 0.44652 0.0
H741 H 0.48598 0.27281 0.44186 0.0
H742 H 0.48266 0.19122 0.42071 0.0
H743 H 0.48207 0.22055 0.42498 0.0
C744 C 0.8713 0.31053 0.42446 0.0
C745 C 0.88834 0.3135 0.43007 0.0
C746 C 0.85439 0.2929 0.42549 0.0
C747 C 0.82917 0.24756 0.44289 0.0
H748 H 0.80113 0.22891 0.41218 0.0
C749 C 0.76065 0.17174 0.43624 0.0
C750 C 0.74605 0.17146 0.42893 0.0
C751 C 0.77842 0.18871 0.43751 0.0
C752 C 0.80867 0.23396 0.42087 0.0
H753 H 0.90075 0.30049 0.44161 0.0
H754 H 0.87096 0.26941 0.44337 0.0
H755 H 0.83136 0.2591 0.41245 0.0
H756 H 0.7383 0.18899 0.41779 0.0
H757 H 0.76893 0.21836 0.42012 0.0
H758 H 0.80619 0.22224 0.45126 0.0
C759 C 0.87081 0.28086 0.43821 0.0
C760 C 0.82602 0.25128 0.42102 0.0
C761 C 0.88786 0.29863 0.43718 0.0
C762 C 0.74929 0.18861 0.42337 0.0
C763 C 0.76692 0.20546 0.42464 0.0
C764 C 0.81169 0.23011 0.44273 0.0
C765 C 0.85402 0.2777 0.43211 0.0
C766 C 0.83629 0.25851 0.43206 0.0
C767 C 0.78186 0.20564 0.43148 0.0
C768 C 0.80107 0.22335 0.43175 0.0
H769 H 0.87107 0.32172 0.41903 0.0
H770 H 0.8416 0.29108 0.42092 0.0
H771 H 0.83678 0.25276 0.45153 0.0
H772 H 0.75857 0.15875 0.44065 0.0
H773 H 0.78966 0.18841 0.44284 0.0
C774 C 0.95349 0.4276 0.23417 0.0
C775 C 0.9389 0.41261 0.24109 0.0
C776 C 0.95422 0.44536 0.23314 0.0
C777 C 0.9386 0.47466 0.25021 0.0
H778 H 0.94865 0.50427 0.22014 0.0
C779 C 0.92502 0.53766 0.24797 0.0
C780 C 0.93902 0.55483 0.24248 0.0
C781 C 0.92575 0.52079 0.24668 0.0
C782 C 0.94605 0.49624 0.22863 0.0
H783 H 0.91305 0.40418 0.25178 0.0
H784 H 0.91424 0.43483 0.2499 0.0
H785 H 0.9486 0.47369 0.21978 0.0
H786 H 0.9644 0.56757 0.2309 0.0
H787 H 0.96576 0.53788 0.2287 0.0
H788 H 0.93601 0.49694 0.2591 0.0
C789 C 0.92535 0.43309 0.24548 0.0
C790 C 0.94601 0.47876 0.22842 0.0
C791 C 0.92463 0.41546 0.24649 0.0
C792 C 0.95341 0.55456 0.23525 0.0
C793 C 0.95417 0.53757 0.23397 0.0
C794 C 0.93866 0.49202 0.25042 0.0
C795 C 0.94039 0.44841 0.23906 0.0
C796 C 0.94189 0.46761 0.23918 0.0
C797 C 0.94056 0.5206 0.23991 0.0
C798 C 0.94198 0.50285 0.2396 0.0
H799 H 0.96469 0.42583 0.22989 0.0
H800 H 0.96598 0.45691 0.22813 0.0
H801 H 0.93589 0.46668 0.25873 0.0
H802 H 0.91359 0.53726 0.25349 0.0
H803 H 0.91478 0.50787 0.25114 0.0
C804 C 0.64517 0.53891 0.24913 0.0
C805 C 0.64856 0.55579 0.24311 0.0
C806 C 0.62744 0.52212 0.24815 0.0
C807 C 0.58272 0.49657 0.23027 0.0
H808 H 0.56281 0.46999 0.2613 0.0
C809 C 0.50682 0.42803 0.23672 0.0
C810 C 0.50646 0.41379 0.24445 0.0
C811 C 0.52371 0.44587 0.23545 0.0
C812 C 0.56821 0.47713 0.25253 0.0
H813 H 0.63617 0.56805 0.23087 0.0
H814 H 0.6049 0.53845 0.22918 0.0
H815 H 0.59307 0.50017 0.26097 0.0
H816 H 0.52376 0.40677 0.25638 0.0
H817 H 0.55296 0.43753 0.25407 0.0
H818 H 0.55773 0.47321 0.22186 0.0
C819 C 0.61612 0.53834 0.23465 0.0
C820 C 0.58556 0.49444 0.25235 0.0
C821 C 0.63398 0.55527 0.23564 0.0
C822 C 0.52344 0.41747 0.25047 0.0
C823 C 0.54019 0.43518 0.24921 0.0
C824 C 0.56525 0.47911 0.23045 0.0
C825 C 0.61255 0.52173 0.24115 0.0
C826 C 0.59326 0.50416 0.2412 0.0
C827 C 0.54045 0.44975 0.24191 0.0
C828 C 0.55805 0.46902 0.24158 0.0
H829 H 0.65612 0.53871 0.25485 0.0
H830 H 0.62529 0.50944 0.25305 0.0
H831 H 0.58831 0.50376 0.22154 0.0
H832 H 0.49396 0.42559 0.23194 0.0
H833 H 0.52348 0.45683 0.22977 0.0
C834 C 0.52558 0.13669 0.2468 0.0
C835 C 0.50791 0.12246 0.24197 0.0
C836 C 0.54249 0.13651 0.24423 0.0
C837 C 0.56068 0.10437 0.2362 0.0
H838 H 0.60815 0.15234 0.2309 0.0
C839 C 0.63518 0.10889 0.23363 0.0
C840 C 0.64938 0.12348 0.24099 0.0
C841 C 0.61777 0.10842 0.23132 0.0
C842 C 0.59502 0.13882 0.23238 0.0
H843 H 0.49417 0.09695 0.23053 0.0
H844 H 0.52392 0.09655 0.2261 0.0
H845 H 0.5777 0.15208 0.23119 0.0
H846 H 0.65665 0.14928 0.25141 0.0
H847 H 0.62654 0.14846 0.24742 0.0
H848 H 0.57815 0.09124 0.2378 0.0
C849 C 0.52457 0.10785 0.23188 0.0
C850 C 0.57758 0.13867 0.23254 0.0
C851 C 0.50758 0.10813 0.23437 0.0
C852 C 0.64603 0.13782 0.24571 0.0
C853 C 0.62879 0.13744 0.24334 0.0
C854 C 0.57819 0.10452 0.23606 0.0
C855 C 0.5422 0.12204 0.23682 0.0
C856 C 0.56026 0.12156 0.23481 0.0
C857 C 0.61436 0.12266 0.23622 0.0
C858 C 0.5956 0.12186 0.23451 0.0
H859 H 0.52637 0.14795 0.25268 0.0
H860 H 0.55576 0.14748 0.24834 0.0
H861 H 0.54759 0.09097 0.23804 0.0
H862 H 0.63733 0.09762 0.22988 0.0
H863 H 0.60696 0.0969 0.22575 0.0
C864 C 0.42891 0.95116 0.7676 0.0
C865 C 0.41464 0.9374 0.75984 0.0
C866 C 0.44677 0.95212 0.76876 0.0
C867 C 0.47804 0.93909 0.75147 0.0
H868 H 0.50446 0.94499 0.78247 0.0
C869 C 0.53969 0.92362 0.75471 0.0
C870 C 0.55651 0.93691 0.76089 0.0
C871 C 0.52294 0.92464 0.75566 0.0
C872 C 0.49733 0.94356 0.77374 0.0
H873 H 0.40764 0.91334 0.74767 0.0
H874 H 0.43843 0.91492 0.74977 0.0
H875 H 0.47398 0.94515 0.78219 0.0
H876 H 0.56868 0.96126 0.77336 0.0
H877 H 0.53914 0.96306 0.77501 0.0
H878 H 0.50108 0.93731 0.74298 0.0
C879 C 0.43607 0.92523 0.75477 0.0
C880 C 0.47992 0.94366 0.77358 0.0
C881 C 0.41835 0.92427 0.75362 0.0
C882 C 0.55595 0.95083 0.76847 0.0
C883 C 0.53906 0.95184 0.76944 0.0
C884 C 0.49532 0.93897 0.75163 0.0
C885 C 0.45064 0.93938 0.76214 0.0
C886 C 0.46989 0.94098 0.76245 0.0
C887 C 0.52251 0.939 0.7628 0.0
C888 C 0.50497 0.94078 0.76278 0.0
H889 H 0.42646 0.96146 0.77253 0.0
H890 H 0.45773 0.96319 0.77451 0.0
H891 H 0.47096 0.93752 0.7427 0.0
H892 H 0.53952 0.91258 0.7489 0.0
H893 H 0.51031 0.91426 0.75066 0.0
C894 C 0.13626 0.52137 0.75688 0.0
C895 C 0.1226 0.50419 0.76254 0.0
C896 C 0.13509 0.53801 0.75802 0.0
C897 C 0.1147 0.56249 0.77585 0.0
H898 H 0.12248 0.59016 0.74514 0.0
C899 C 0.10698 0.63092 0.76977 0.0
C900 C 0.12122 0.64551 0.76242 0.0
C901 C 0.10607 0.61308 0.7709 0.0
C902 C 0.12041 0.5827 0.75382 0.0
H903 H 0.09744 0.49124 0.77432 0.0
H904 H 0.09536 0.52058 0.7763 0.0
H905 H 0.12288 0.56015 0.74522 0.0
H906 H 0.14622 0.65314 0.75102 0.0
H907 H 0.14473 0.62238 0.75307 0.0
H908 H 0.11242 0.58538 0.78442 0.0
C909 C 0.10699 0.52104 0.77098 0.0
C910 C 0.12064 0.56549 0.75386 0.0
C911 C 0.10816 0.50426 0.76983 0.0
C912 C 0.13491 0.64217 0.75664 0.0
C913 C 0.13401 0.62447 0.75776 0.0
C914 C 0.11449 0.57985 0.7758 0.0
C915 C 0.1202 0.53796 0.76483 0.0
C916 C 0.11824 0.55539 0.7649 0.0
C917 C 0.11935 0.60957 0.76466 0.0
C918 C 0.11779 0.59034 0.76481 0.0
H919 H 0.14771 0.52192 0.75131 0.0
H920 H 0.14575 0.55093 0.7534 0.0
H921 H 0.11279 0.555 0.78449 0.0
H922 H 0.09624 0.63309 0.77436 0.0
H923 H 0.09461 0.60186 0.77629 0.0
C924 C 0.41721 0.52152 0.75941 0.0
C925 C 0.4138 0.50367 0.76387 0.0
C926 C 0.43437 0.5383 0.76206 0.0
C927 C 0.48482 0.55595 0.76951 0.0
H928 H 0.48483 0.60349 0.77564 0.0
C929 C 0.55513 0.63022 0.77198 0.0
C930 C 0.55463 0.6445 0.76477 0.0
C931 C 0.53821 0.61284 0.77437 0.0
C932 C 0.48508 0.59034 0.77394 0.0
H933 H 0.42569 0.48948 0.77476 0.0
H934 H 0.45596 0.51901 0.77934 0.0
H935 H 0.45451 0.57316 0.77539 0.0
H936 H 0.53592 0.65194 0.75471 0.0
H937 H 0.50666 0.62189 0.75885 0.0
H938 H 0.5154 0.57329 0.76765 0.0
C939 C 0.44523 0.5199 0.77378 0.0
C940 C 0.46772 0.57297 0.7738 0.0
C941 C 0.42789 0.50303 0.77121 0.0
C942 C 0.53684 0.64126 0.76029 0.0
C943 C 0.52001 0.62405 0.76275 0.0
C944 C 0.50225 0.57339 0.76965 0.0
C945 C 0.44867 0.53771 0.76918 0.0
C946 C 0.46732 0.55564 0.77121 0.0
C947 C 0.52047 0.60955 0.76971 0.0
C948 C 0.5025 0.59083 0.77148 0.0
H949 H 0.40667 0.52255 0.75373 0.0
H950 H 0.43666 0.55172 0.7582 0.0
H951 H 0.48498 0.54286 0.76743 0.0
H952 H 0.56863 0.6323 0.77555 0.0
H953 H 0.539 0.60196 0.77981 0.0
C954 C 0.59166 0.75041 0.58072 0.0
C955 C 0.60549 0.74734 0.57488 0.0
C956 C 0.59239 0.76805 0.57975 0.0
C957 C 0.61182 0.81306 0.56208 0.0
H958 H 0.60327 0.83213 0.59288 0.0
C959 C 0.61868 0.88871 0.5686 0.0
C960 C 0.60447 0.88895 0.57605 0.0
C961 C 0.61961 0.87182 0.56732 0.0
C962 C 0.60552 0.82695 0.58417 0.0
H963 H 0.63054 0.76018 0.563 0.0
H964 H 0.63185 0.79129 0.56133 0.0
H965 H 0.60354 0.80206 0.59264 0.0
H966 H 0.57952 0.8714 0.58745 0.0
H967 H 0.58104 0.84217 0.58512 0.0
H968 H 0.61367 0.83813 0.55364 0.0
C969 C 0.62042 0.7799 0.56664 0.0
C970 C 0.60569 0.80971 0.58404 0.0
C971 C 0.61969 0.76213 0.56762 0.0
C972 C 0.5908 0.87182 0.58175 0.0
C973 C 0.59172 0.85505 0.58048 0.0
C974 C 0.61165 0.83044 0.56221 0.0
C975 C 0.607 0.78315 0.57294 0.0
C976 C 0.60842 0.80232 0.57297 0.0
C977 C 0.60638 0.85492 0.5735 0.0
C978 C 0.60808 0.83734 0.57324 0.0
H979 H 0.58039 0.73928 0.58627 0.0
H980 H 0.58158 0.76993 0.58448 0.0
H981 H 0.61396 0.80772 0.55341 0.0
H982 H 0.62941 0.90169 0.56407 0.0
H983 H 0.63107 0.87216 0.56188 0.0
C984 C 0.17237 0.76134 0.56458 0.0
C985 C 0.17273 0.74692 0.57172 0.0
C986 C 0.18939 0.77865 0.56222 0.0
C987 C 0.24255 0.80092 0.56278 0.0
H988 H 0.24267 0.84843 0.56927 0.0
C989 C 0.31041 0.86985 0.57739 0.0
C990 C 0.31375 0.88769 0.57296 0.0
C991 C 0.2933 0.85302 0.5747 0.0
C992 C 0.24284 0.83533 0.56719 0.0
H993 H 0.19128 0.73912 0.58164 0.0
H994 H 0.2207 0.76906 0.57756 0.0
H995 H 0.21224 0.81803 0.56897 0.0
H996 H 0.30181 0.90182 0.56205 0.0
H997 H 0.27165 0.87223 0.5574 0.0
H998 H 0.27314 0.81807 0.56142 0.0
C999 C 0.2074 0.76707 0.57369 0.0
C1000 C 0.2254 0.81791 0.56701 0.0
C1001 C 0.19047 0.74992 0.57611 0.0
C1002 C 0.29967 0.88828 0.56558 0.0
C1003 C 0.28238 0.87137 0.56297 0.0
C1004 C 0.25993 0.81828 0.56297 0.0
C1005 C 0.20708 0.78174 0.56684 0.0
C1006 C 0.22512 0.80045 0.56517 0.0
C1007 C 0.27899 0.85357 0.56756 0.0
C1008 C 0.26034 0.83562 0.56553 0.0
H1009 H 0.15891 0.75946 0.56108 0.0
H1010 H 0.18869 0.78964 0.55685 0.0
H1011 H 0.2428 0.78777 0.56108 0.0
H1012 H 0.32094 0.86886 0.5831 0.0
H1013 H 0.29105 0.83961 0.57855 0.0
C1014 C 0.31107 0.47106 0.5822 0.0
C1015 C 0.31414 0.45715 0.57648 0.0
C1016 C 0.29351 0.47047 0.58103 0.0
C1017 C 0.2487 0.45087 0.56299 0.0
H1018 H 0.22938 0.46041 0.59335 0.0
C1019 C 0.17278 0.44366 0.56879 0.0
C1020 C 0.17238 0.45806 0.57594 0.0
C1021 C 0.18978 0.44289 0.56769 0.0
C1022 C 0.23463 0.45788 0.58476 0.0
H1023 H 0.30137 0.43207 0.56463 0.0
H1024 H 0.2704 0.43095 0.56265 0.0
H1025 H 0.25944 0.46013 0.59352 0.0
H1026 H 0.18975 0.4835 0.58698 0.0
H1027 H 0.21918 0.48224 0.58498 0.0
H1028 H 0.22365 0.44867 0.55427 0.0
C1029 C 0.28172 0.44237 0.568 0.0
C1030 C 0.25188 0.45773 0.58486 0.0
C1031 C 0.29942 0.44298 0.56916 0.0
C1032 C 0.18946 0.47208 0.58151 0.0
C1033 C 0.20634 0.47131 0.58042 0.0
C1034 C 0.2313 0.45101 0.56289 0.0
C1035 C 0.27847 0.45589 0.57416 0.0
C1036 C 0.25935 0.45461 0.57395 0.0
C1037 C 0.20662 0.45646 0.57376 0.0
C1038 C 0.2243 0.45491 0.57375 0.0
H1039 H 0.32215 0.48232 0.58779 0.0
H1040 H 0.29165 0.48138 0.58565 0.0
H1041 H 0.25409 0.44844 0.55443 0.0
H1042 H 0.15984 0.43266 0.56437 0.0
H1043 H 0.18956 0.43127 0.5625 0.0
C1044 C 0.01299 0.32993 0.12394 0.0
C1045 C 0.02247 0.31947 0.12189 0.0
C1046 C 0.01319 0.33746 0.13559 0.0
C1047 C 0.01577 0.32694 0.1679 0.0
H1048 H 0.01876 0.37595 0.17379 0.0
C1049 C 0.00205 0.3462 0.21629 0.0
C1050 C 0.99049 0.3547 0.217 0.0
C1051 C 0.00997 0.34516 0.20505 0.0
C1052 C 0.01776 0.36215 0.1723 0.0
H1053 H 0.04035 0.30948 0.13033 0.0
H1054 H 0.04057 0.32252 0.15073 0.0
H1055 H 0.02551 0.36834 0.15324 0.0
H1056 H 0.97882 0.36954 0.20659 0.0
H1057 H 0.99211 0.36723 0.1869 0.0
H1058 H 0.00713 0.32022 0.18668 0.0
C1059 C 0.03293 0.32483 0.1433 0.0
C1060 C 0.02171 0.35785 0.16054 0.0
C1061 C 0.0329 0.31746 0.1316 0.0
C1062 C 0.98775 0.36297 0.20635 0.0
C1063 C 0.99546 0.3617 0.19505 0.0
C1064 C 0.01164 0.33114 0.17961 0.0
C1065 C 0.02272 0.33453 0.14548 0.0
C1066 C 0.02053 0.34009 0.15818 0.0
C1067 C 0.00626 0.35233 0.19419 0.0
C1068 C 0.01233 0.34871 0.18195 0.0
H1069 H 0.00486 0.33178 0.11664 0.0
H1070 H 0.00506 0.34473 0.13698 0.0
H1071 H 0.01439 0.31299 0.16634 0.0
H1072 H 0.00459 0.33987 0.22438 0.0
H1073 H 0.01863 0.3383 0.20484 0.0
C1074 C 0.74266 0.7421 0.13216 0.0
C1075 C 0.73991 0.73124 0.12144 0.0
C1076 C 0.73489 0.73297 0.14341 0.0
C1077 C 0.71819 0.68587 0.15855 0.0
H1078 H 0.70439 0.709 0.18507 0.0
C1079 C 0.69573 0.64991 0.20621 0.0
C1080 C 0.70624 0.66204 0.21603 0.0
C1081 C 0.69599 0.65759 0.19458 0.0
C1082 C 0.70816 0.70236 0.17773 0.0
H1083 H 0.72575 0.70241 0.11389 0.0
H1084 H 0.71158 0.68655 0.13334 0.0
H1085 H 0.71153 0.72377 0.16464 0.0
H1086 H 0.72429 0.69177 0.22155 0.0
H1087 H 0.72457 0.70512 0.20132 0.0
H1088 H 0.71497 0.66458 0.17166 0.0
C1089 C 0.72031 0.70206 0.13322 0.0
C1090 C 0.71235 0.71086 0.16603 0.0
C1091 C 0.72831 0.71117 0.12204 0.0
C1092 C 0.71609 0.68203 0.21416 0.0
C1093 C 0.71617 0.6897 0.20259 0.0
C1094 C 0.71381 0.67729 0.17018 0.0
C1095 C 0.72399 0.71278 0.14415 0.0
C1096 C 0.71775 0.70291 0.15633 0.0
C1097 C 0.70657 0.67754 0.19259 0.0
C1098 C 0.70906 0.6856 0.17996 0.0
H1099 H 0.75162 0.7576 0.132 0.0
H1100 H 0.73823 0.74174 0.15162 0.0
H1101 H 0.72267 0.6795 0.15144 0.0
H1102 H 0.688 0.63445 0.20735 0.0
H1103 H 0.6883 0.64788 0.18706 0.0
C1104 C 0.32147 0.02848 0.13031 0.0
C1105 C 0.33033 0.04301 0.12137 0.0
C1106 C 0.33031 0.03024 0.14176 0.0
C1107 C 0.3602 0.06723 0.16322 0.0
H1108 H 0.37009 0.0301 0.17959 0.0
C1109 C 0.37854 0.07301 0.21453 0.0
C1110 C 0.39664 0.07509 0.21711 0.0
C1111 C 0.37001 0.06656 0.20301 0.0
C1112 C 0.36737 0.04053 0.17509 0.0
H1113 H 0.3558 0.07032 0.11725 0.0
H1114 H 0.37088 0.0735 0.13725 0.0
H1115 H 0.35646 0.02352 0.15862 0.0
H1116 H 0.41941 0.07089 0.20985 0.0
H1117 H 0.40414 0.05914 0.18967 0.0
H1118 H 0.37063 0.08406 0.17966 0.0
C1119 C 0.35718 0.06075 0.13538 0.0
C1120 C 0.35954 0.03676 0.16317 0.0
C1121 C 0.34854 0.05888 0.12392 0.0
C1122 C 0.40548 0.06948 0.20813 0.0
C1123 C 0.39675 0.06271 0.19662 0.0
C1124 C 0.3676 0.07079 0.17516 0.0
C1125 C 0.34798 0.04668 0.14449 0.0
C1126 C 0.35604 0.05017 0.15712 0.0
C1127 C 0.37921 0.06175 0.19386 0.0
C1128 C 0.3713 0.05753 0.1812 0.0
H1129 H 0.30746 0.01607 0.12862 0.0
H1130 H 0.32292 0.01924 0.14868 0.0
H1131 H 0.3575 0.07773 0.15879 0.0
H1132 H 0.37129 0.07716 0.22122 0.0
H1133 H 0.35642 0.06582 0.20111 0.0
C1134 C 0.32144 1.00024 0.88127 0.0
C1135 C 0.31918 0.01611 0.88396 0.0
C1136 C 0.32793 0.99838 0.86971 0.0
C1137 C 0.3534 0.02235 0.84163 0.0
H1138 H 0.31653 0.97501 0.82545 0.0
C1139 C 0.36484 0.98957 0.79609 0.0
C1140 C 0.34997 0.98383 0.78739 0.0
C1141 C 0.36334 0.99639 0.8077 0.0
C1142 C 0.32695 0.98828 0.82986 0.0
H1143 H 0.32317 0.04311 0.87687 0.0
H1144 H 0.33497 0.03997 0.85663 0.0
H1145 H 0.31055 0.98138 0.84651 0.0
H1146 H 0.32234 0.98163 0.78385 0.0
H1147 H 0.31964 0.99308 0.80412 0.0
H1148 H 0.36995 0.02897 0.82492 0.0
C1149 C 0.33151 0.02894 0.86352 0.0
C1150 C 0.32359 0.99187 0.84191 0.0
C1151 C 0.32472 0.03069 0.87507 0.0
C1152 C 0.33404 0.98587 0.79033 0.0
C1153 C 0.33244 0.99238 0.80194 0.0
C1154 C 0.35697 0.01855 0.8296 0.0
C1155 C 0.3326 0.01247 0.86063 0.0
C1156 C 0.33671 0.00894 0.8479 0.0
C1157 C 0.34685 0.99729 0.81082 0.0
C1158 C 0.34366 0.00154 0.82359 0.0
H1159 H 0.31736 0.98876 0.88789 0.0
H1160 H 0.32878 0.98562 0.86772 0.0
H1161 H 0.36372 0.03559 0.8461 0.0
H1162 H 0.3773 0.98819 0.79409 0.0
H1163 H 0.3746 1.00004 0.81443 0.0
C1164 C 0.06169 0.3761 0.78861 0.0
C1165 C 0.07338 0.39615 0.78788 0.0
C1166 C 0.05352 0.36723 0.79983 0.0
C1167 C 0.04531 0.37672 0.83243 0.0
H1168 H 0.04773 0.33047 0.83867 0.0
C1169 C 0.04857 0.34868 0.88094 0.0
C1170 C 0.03872 0.32872 0.88294 0.0
C1171 C 0.04872 0.35616 0.86929 0.0
C1172 C 0.04663 0.34317 0.83702 0.0
H1173 H 0.08504 0.42272 0.7982 0.0
H1174 H 0.07135 0.40728 0.81787 0.0
H1175 H 0.05564 0.345 0.81835 0.0
H1176 H 0.02053 0.30099 0.8744 0.0
H1177 H 0.02095 0.3141 0.85399 0.0
H1178 H 0.03719 0.37523 0.85142 0.0
C1179 C 0.06808 0.39835 0.80975 0.0
C1180 C 0.05113 0.35153 0.82533 0.0
C1181 C 0.07602 0.40724 0.79847 0.0
C1182 C 0.02826 0.31644 0.87317 0.0
C1183 C 0.02859 0.32392 0.86147 0.0
C1184 C 0.041 0.36844 0.8442 0.0
C1185 C 0.05712 0.37818 0.81064 0.0
C1186 C 0.05075 0.36855 0.82288 0.0
C1187 C 0.03919 0.34384 0.85934 0.0
C1188 C 0.04182 0.35169 0.84664 0.0
H1189 H 0.05922 0.36718 0.78056 0.0
H1190 H 0.04474 0.35173 0.80005 0.0
H1191 H 0.04455 0.38962 0.83087 0.0
H1192 H 0.05672 0.35853 0.88829 0.0
H1193 H 0.05713 0.37156 0.86793 0.0
C1194 C 0.68415 0.72322 0.78962 0.0
C1195 C 0.66567 0.70771 0.78718 0.0
C1196 C 0.69254 0.7253 0.8012 0.0
C1197 C 0.69321 0.70219 0.82987 0.0
H1198 H 0.70515 0.75063 0.84507 0.0
C1199 C 0.73739 0.73606 0.87535 0.0
C1200 C 0.72817 0.74203 0.88382 0.0
C1201 C 0.72926 0.72905 0.86373 0.0
C1202 C 0.7019 0.73707 0.84092 0.0
H1203 H 0.64207 0.68153 0.79472 0.0
H1204 H 0.65706 0.68504 0.81498 0.0
H1205 H 0.69291 0.74374 0.82398 0.0
H1206 H 0.70281 0.74452 0.88692 0.0
H1207 H 0.68901 0.73277 0.86661 0.0
H1208 H 0.70261 0.69578 0.84688 0.0
C1209 C 0.66487 0.69561 0.8079 0.0
C1210 C 0.69501 0.73317 0.82887 0.0
C1211 C 0.6563 0.69366 0.79633 0.0
C1212 C 0.71032 0.74008 0.88063 0.0
C1213 C 0.70241 0.7334 0.869 0.0
C1214 C 0.70054 0.70629 0.84191 0.0
C1215 C 0.68279 0.71178 0.81053 0.0
C1216 C 0.69051 0.71569 0.82324 0.0
C1217 C 0.71199 0.72821 0.86036 0.0
C1218 C 0.70475 0.7237 0.84755 0.0
H1219 H 0.69181 0.73429 0.78279 0.0
H1220 H 0.70643 0.73782 0.80299 0.0
H1221 H 0.68985 0.68862 0.82569 0.0
H1222 H 0.75114 0.73736 0.87755 0.0
H1223 H 0.73693 0.72518 0.85717 0.0
C1224 C 0.05799 0.73815 0.88032 0.0
C1225 C 0.04278 0.7411 0.88367 0.0
C1226 C 0.05811 0.7303 0.86887 0.0
C1227 C 0.05347 0.70777 0.84572 0.0
H1228 H 0.03582 0.72509 0.81794 0.0
C1229 C 0.06761 0.69299 0.79588 0.0
C1230 C 0.07356 0.7084 0.78762 0.0
C1231 C 0.05961 0.69324 0.8073 0.0
C1232 C 0.04092 0.72018 0.82557 0.0
H1233 H 0.01525 0.73721 0.87787 0.0
H1234 H 0.01511 0.72286 0.85799 0.0
H1235 H 0.03039 0.73245 0.83873 0.0
H1236 H 0.07518 0.73588 0.78472 0.0
H1237 H 0.06196 0.73667 0.80462 0.0
H1238 H 0.06528 0.69678 0.83257 0.0
C1239 C 0.02725 0.72712 0.86408 0.0
C1240 C 0.03751 0.72414 0.83756 0.0
C1241 C 0.02724 0.73522 0.87552 0.0
C1242 C 0.07069 0.72371 0.79084 0.0
C1243 C 0.06293 0.72409 0.80227 0.0
C1244 C 0.05713 0.70406 0.83373 0.0
C1245 C 0.0429 0.72493 0.86049 0.0
C1246 C 0.04418 0.71843 0.84781 0.0
C1247 C 0.05758 0.70903 0.81078 0.0
C1248 C 0.05134 0.71064 0.82348 0.0
H1249 H 0.07025 0.7426 0.88635 0.0
H1250 H 0.0706 0.72922 0.86643 0.0
H1251 H 0.05843 0.70272 0.85336 0.0
H1252 H 0.06953 0.68092 0.79365 0.0
H1253 H 0.05532 0.6812 0.81349 0.0
C1254 C 0.34692 0.3791 0.79008 0.0
C1255 C 0.35684 0.39907 0.78811 0.0
C1256 C 0.34662 0.37156 0.80174 0.0
C1257 C 0.34852 0.38449 0.83402 0.0
H1258 H 0.35048 0.338 0.84024 0.0
C1259 C 0.33368 0.35182 0.88251 0.0
C1260 C 0.32203 0.33177 0.88332 0.0
C1261 C 0.34173 0.3606 0.87126 0.0
C1262 C 0.34975 0.35091 0.83866 0.0
H1263 H 0.37502 0.42675 0.79671 0.0
H1264 H 0.37435 0.41355 0.81712 0.0
H1265 H 0.35788 0.35235 0.81968 0.0
H1266 H 0.31029 0.30512 0.87307 0.0
H1267 H 0.32376 0.32043 0.85332 0.0
H1268 H 0.3395 0.38273 0.85269 0.0
C1269 C 0.36676 0.40376 0.80962 0.0
C1270 C 0.35408 0.35917 0.82688 0.0
C1271 C 0.36723 0.4113 0.79792 0.0
C1272 C 0.31928 0.32061 0.87274 0.0
C1273 C 0.3271 0.32942 0.86142 0.0
C1274 C 0.34399 0.37616 0.84572 0.0
C1275 C 0.35608 0.38383 0.81172 0.0
C1276 C 0.35332 0.37595 0.82442 0.0
C1277 C 0.33804 0.34959 0.86046 0.0
C1278 C 0.34435 0.35914 0.84819 0.0
H1279 H 0.33881 0.36929 0.7827 0.0
H1280 H 0.33815 0.35617 0.80307 0.0
H1281 H 0.34745 0.39722 0.83236 0.0
H1282 H 0.33623 0.36079 0.89054 0.0
H1283 H 0.3505 0.37611 0.87098 0.0
C1284 C 0.74065 0.02879 0.87301 0.0
C1285 C 0.72968 0.02035 0.88365 0.0
C1286 C 0.73163 0.02735 0.8617 0.0
C1287 C 0.68494 0.99631 0.84622 0.0
H1288 H 0.70804 0.03349 0.81983 0.0
C1289 C 0.6497 0.98277 0.79829 0.0
C1290 C 0.66205 0.98462 0.78856 0.0
C1291 C 0.65713 0.99009 0.80998 0.0
C1292 C 0.70141 0.023 0.82713 0.0
H1293 H 0.70074 0.00503 0.89099 0.0
H1294 H 0.68505 0.00322 0.87145 0.0
H1295 H 0.72242 0.04122 0.84037 0.0
H1296 H 0.6919 0.99661 0.78325 0.0
H1297 H 0.70483 0.00955 0.80358 0.0
H1298 H 0.66403 0.97808 0.83297 0.0
C1299 C 0.70058 0.01031 0.87167 0.0
C1300 C 0.70969 0.02738 0.8389 0.0
C1301 C 0.70958 0.01149 0.88292 0.0
C1302 C 0.682 0.99488 0.79057 0.0
C1303 C 0.68943 0.0024 0.8022 0.0
C1304 C 0.67657 0.99205 0.83452 0.0
C1305 C 0.71144 0.01766 0.86082 0.0
C1306 C 0.70175 0.01394 0.84856 0.0
C1307 C 0.67706 0.99964 0.81211 0.0
C1308 C 0.68488 0.0052 0.8248 0.0
H1309 H 0.75617 0.03562 0.87327 0.0
H1310 H 0.74052 0.03303 0.85357 0.0
H1311 H 0.67859 0.98538 0.85329 0.0
H1312 H 0.63426 0.97493 0.79704 0.0
H1313 H 0.64726 0.9879 0.81743 0.0
C1314 C 0.72604 0.04602 0.12217 0.0
C1315 C 0.7376 0.0375 0.12158 0.0
C1316 C 0.71816 0.04728 0.13338 0.0
C1317 C 0.71032 0.03077 0.16623 0.0
H1318 H 0.71342 0.07991 0.17178 0.0
C1319 C 0.71408 0.06329 0.21439 0.0
C1320 C 0.70449 0.0737 0.21622 0.0
C1321 C 0.71418 0.05574 0.2028 0.0
C1322 C 0.71213 0.06598 0.17033 0.0
H1323 H 0.7493 0.02287 0.13219 0.0
H1324 H 0.73607 0.02555 0.15181 0.0
H1325 H 0.72092 0.07248 0.15156 0.0
H1326 H 0.68673 0.08356 0.20746 0.0
H1327 H 0.68703 0.07047 0.18717 0.0
H1328 H 0.70237 0.02479 0.18528 0.0
C1329 C 0.73271 0.03094 0.14359 0.0
C1330 C 0.7164 0.06166 0.1587 0.0
C1331 C 0.74038 0.02945 0.13233 0.0
C1332 C 0.69426 0.07563 0.20635 0.0
C1333 C 0.69452 0.06823 0.19471 0.0
C1334 C 0.70622 0.03519 0.17792 0.0
C1335 C 0.72189 0.04031 0.14432 0.0
C1336 C 0.71577 0.04409 0.1565 0.0
C1337 C 0.70484 0.05858 0.19275 0.0
C1338 C 0.7073 0.05294 0.18013 0.0
H1339 H 0.72347 0.05219 0.11402 0.0
H1340 H 0.7095 0.05414 0.13349 0.0
H1341 H 0.70937 0.01698 0.16486 0.0
H1342 H 0.72207 0.06151 0.22181 0.0
H1343 H 0.72238 0.04851 0.20157 0.0
C1344 C 0.01249 0.71274 0.12382 0.0
C1345 C 0.02217 0.73273 0.12194 0.0
C1346 C 0.01231 0.70514 0.13544 0.0
C1347 C 0.01408 0.71754 0.16782 0.0
H1348 H 0.01717 0.67155 0.17361 0.0
C1349 C 0.99995 0.68416 0.2161 0.0
C1350 C 0.98861 0.66407 0.21678 0.0
C1351 C 0.00788 0.69321 0.20488 0.0
C1352 C 0.01611 0.68432 0.17215 0.0
H1353 H 0.03998 0.76038 0.13065 0.0
H1354 H 0.03949 0.74707 0.151 0.0
H1355 H 0.02422 0.68618 0.15314 0.0
H1356 H 0.97732 0.63763 0.20634 0.0
H1357 H 0.99059 0.65338 0.18668 0.0
H1358 H 0.00509 0.71533 0.18653 0.0
C1359 C 0.03202 0.73731 0.14347 0.0
C1360 C 0.02025 0.69274 0.16043 0.0
C1361 C 0.03238 0.74493 0.1318 0.0
C1362 C 0.98608 0.65315 0.20611 0.0
C1363 C 0.99378 0.66222 0.19483 0.0
C1364 C 0.00975 0.70903 0.17947 0.0
C1365 C 0.02163 0.71735 0.14546 0.0
C1366 C 0.01908 0.70933 0.15811 0.0
C1367 C 0.00438 0.68241 0.19401 0.0
C1368 C 0.01051 0.69218 0.18179 0.0
H1369 H 0.00453 0.70295 0.1164 0.0
H1370 H 0.00406 0.68971 0.1367 0.0
H1371 H 0.01271 0.73012 0.16627 0.0
H1372 H 0.00232 0.69297 0.22419 0.0
H1373 H 0.01639 0.70874 0.20471 0.0
C1374 C 0.32382 0.3242 0.1297 0.0
C1375 C 0.33283 0.31845 0.12093 0.0
C1376 C 0.33229 0.33105 0.14127 0.0
C1377 C 0.36087 0.32295 0.1632 0.0
H1378 H 0.37108 0.36997 0.17969 0.0
C1379 C 0.37754 0.33425 0.21472 0.0
C1380 C 0.3957 0.34999 0.21754 0.0
C1381 C 0.3694 0.33258 0.2031 0.0
C1382 C 0.36826 0.35681 0.17515 0.0
H1383 H 0.35823 0.31628 0.11721 0.0
H1384 H 0.37266 0.32779 0.13741 0.0
H1385 H 0.35825 0.36352 0.15851 0.0
H1386 H 0.41899 0.37694 0.21062 0.0
H1387 H 0.40442 0.37413 0.19028 0.0
H1388 H 0.3704 0.31594 0.1798 0.0
C1389 C 0.35913 0.32707 0.13532 0.0
C1390 C 0.3609 0.35311 0.16311 0.0
C1391 C 0.35085 0.32052 0.12375 0.0
C1392 C 0.405 0.36463 0.20872 0.0
C1393 C 0.39668 0.36307 0.19711 0.0
C1394 C 0.36781 0.32643 0.17525 0.0
C1395 C 0.34973 0.33198 0.14428 0.0
C1396 C 0.3573 0.33619 0.15703 0.0
C1397 C 0.37908 0.34673 0.1941 0.0
C1398 C 0.37161 0.34339 0.18134 0.0
H1399 H 0.30995 0.3228 0.1278 0.0
H1400 H 0.32475 0.33469 0.14807 0.0
H1401 H 0.35808 0.30974 0.15873 0.0
H1402 H 0.36993 0.32273 0.22129 0.0
H1403 H 0.35575 0.31991 0.20102 0.0
C1404 C 0.66131 0.70102 0.54145 0.0
C1405 C 0.65515 0.68554 0.54968 0.0
C1406 C 0.6696 0.70084 0.53013 0.0
C1407 C 0.68867 0.67392 0.51218 0.0
H1408 H 0.67236 0.69201 0.48412 0.0
C1409 C 0.67325 0.65672 0.45723 0.0
C1410 C 0.68832 0.65341 0.45415 0.0
C1411 C 0.6729 0.66455 0.46865 0.0
C1412 C 0.67698 0.68677 0.49184 0.0
H1413 H 0.65337 0.658 0.55263 0.0
H1414 H 0.66705 0.65733 0.53289 0.0
H1415 H 0.66488 0.69775 0.50479 0.0
H1416 H 0.71542 0.65668 0.46039 0.0
H1417 H 0.7152 0.67104 0.48019 0.0
H1418 H 0.69943 0.66163 0.49922 0.0
C1419 C 0.66607 0.66992 0.53519 0.0
C1420 C 0.67296 0.69037 0.50376 0.0
C1421 C 0.65804 0.67022 0.54654 0.0
C1422 C 0.70353 0.65895 0.46253 0.0
C1423 C 0.70331 0.66704 0.47392 0.0
C1424 C 0.69241 0.67005 0.50026 0.0
C1425 C 0.67169 0.68506 0.52672 0.0
C1426 C 0.67831 0.68356 0.51411 0.0
C1427 C 0.68776 0.66956 0.47725 0.0
C1428 C 0.68617 0.67598 0.4899 0.0
H1429 H 0.65938 0.71309 0.54364 0.0
H1430 H 0.67408 0.71295 0.52397 0.0
H1431 H 0.69346 0.66885 0.5199 0.0
H1432 H 0.66123 0.65254 0.45103 0.0
H1433 H 0.66048 0.66586 0.47088 0.0
C1434 C 0.39448 0.04404 0.45524 0.0
C1435 C 0.40602 0.06413 0.45471 0.0
C1436 C 0.3864 0.03483 0.46639 0.0
C1437 C 0.37793 0.04325 0.49916 0.0
H1438 H 0.38058 0.99696 0.50471 0.0
C1439 C 0.37991 0.01338 0.54733 0.0
C1440 C 0.37009 0.99334 0.54899 0.0
C1441 C 0.38048 0.02132 0.53577 0.0
C1442 C 0.37941 0.00968 0.50326 0.0
H1443 H 0.41752 0.0904 0.46535 0.0
H1444 H 0.40397 0.07436 0.4849 0.0
H1445 H 0.38872 0.01221 0.4846 0.0
H1446 H 0.35241 0.96595 0.53993 0.0
H1447 H 0.35354 0.97986 0.51969 0.0
H1448 H 0.36946 0.04103 0.51812 0.0
C1449 C 0.40075 0.06566 0.47667 0.0
C1450 C 0.38405 0.01845 0.49168 0.0
C1451 C 0.40861 0.07489 0.46546 0.0
C1452 C 0.36011 0.98144 0.53896 0.0
C1453 C 0.36085 0.98939 0.52735 0.0
C1454 C 0.37347 0.03455 0.51081 0.0
C1455 C 0.38993 0.04546 0.47735 0.0
C1456 C 0.38356 0.03547 0.48948 0.0
C1457 C 0.3714 0.0094 0.52558 0.0
C1458 C 0.37435 0.01777 0.513 0.0
H1459 H 0.39204 0.03536 0.44708 0.0
H1460 H 0.37773 0.01931 0.46645 0.0
H1461 H 0.37708 0.05615 0.49779 0.0
H1462 H 0.38772 0.02295 0.55488 0.0
H1463 H 0.38884 0.03677 0.53468 0.0
C1464 C 0.98338 0.36072 0.4653 0.0
C1465 C 0.99546 0.3712 0.45546 0.0
C1466 C 0.99108 0.36119 0.47695 0.0
C1467 C 0.03599 0.3742 0.49394 0.0
H1468 H 0.01238 0.38819 0.52003 0.0
C1469 C 0.07492 0.40927 0.53965 0.0
C1470 C 0.06385 0.40635 0.5503 0.0
C1471 C 0.06601 0.40135 0.52837 0.0
C1472 C 0.01897 0.38387 0.51298 0.0
H1473 H 0.02516 0.38942 0.44993 0.0
H1474 H 0.03856 0.39011 0.47021 0.0
H1475 H 0.99765 0.38022 0.49977 0.0
H1476 H 0.03493 0.3917 0.5577 0.0
H1477 H 0.01946 0.37727 0.53821 0.0
H1478 H 0.05744 0.37802 0.50715 0.0
C1479 C 0.02315 0.38155 0.46894 0.0
C1480 C 0.0105 0.37933 0.50132 0.0
C1481 C 0.01545 0.38123 0.45733 0.0
C1482 C 0.04383 0.39439 0.54961 0.0
C1483 C 0.03495 0.38625 0.5384 0.0
C1484 C 0.04439 0.37856 0.50568 0.0
C1485 C 0.01102 0.37198 0.47896 0.0
C1486 C 0.01906 0.37474 0.49162 0.0
C1487 C 0.04585 0.39013 0.52753 0.0
C1488 C 0.03615 0.38375 0.51531 0.0
H1489 H 0.96792 0.35284 0.46416 0.0
H1490 H 0.98139 0.35351 0.48448 0.0
H1491 H 0.04283 0.37056 0.48666 0.0
H1492 H 0.09038 0.4185 0.53989 0.0
H1493 H 0.0749 0.40484 0.52022 0.0
C1494 C 0.36166 0.40952 0.53937 0.0
C1495 C 0.37206 0.40798 0.54929 0.0
C1496 C 0.36214 0.40212 0.52778 0.0
C1497 C 0.37473 0.36963 0.51119 0.0
H1498 H 0.38951 0.40696 0.48485 0.0
C1499 C 0.4097 0.36428 0.46586 0.0
C1500 C 0.40709 0.3724 0.45509 0.0
C1501 C 0.40183 0.36567 0.47706 0.0
C1502 C 0.38496 0.39611 0.49197 0.0
H1503 H 0.39015 0.39645 0.55502 0.0
H1504 H 0.3908 0.38339 0.53487 0.0
H1505 H 0.38151 0.41417 0.50497 0.0
H1506 H 0.39307 0.38712 0.4474 0.0
H1507 H 0.3787 0.38885 0.46675 0.0
H1508 H 0.37831 0.35159 0.49821 0.0
C1509 C 0.38233 0.39035 0.53602 0.0
C1510 C 0.38041 0.40031 0.50355 0.0
C1511 C 0.38203 0.39793 0.54756 0.0
C1512 C 0.39552 0.38091 0.45559 0.0
C1513 C 0.38741 0.38204 0.46672 0.0
C1514 C 0.37909 0.36531 0.49955 0.0
C1515 C 0.37283 0.39282 0.52593 0.0
C1516 C 0.37555 0.38727 0.51335 0.0
C1517 C 0.39095 0.375 0.4777 0.0
C1518 C 0.38458 0.37865 0.48982 0.0
H1519 H 0.35384 0.41718 0.54041 0.0
H1520 H 0.35453 0.40408 0.52019 0.0
H1521 H 0.37088 0.35923 0.51856 0.0
H1522 H 0.41863 0.35771 0.46577 0.0
H1523 H 0.40506 0.36023 0.4853 0.0
C1524 C 0.66373 0.01441 0.54763 0.0
C1525 C 0.65343 0.99444 0.54956 0.0
C1526 C 0.67108 0.02195 0.53599 0.0
C1527 C 0.66023 0.00931 0.50365 0.0
H1528 H 0.70912 0.05545 0.4977 0.0
C1529 C 0.679 0.04248 0.45529 0.0
C1530 C 0.68759 0.06256 0.45459 0.0
C1531 C 0.67802 0.03351 0.46652 0.0
C1532 C 0.69535 0.04264 0.4992 0.0
H1533 H 0.64355 0.96673 0.54091 0.0
H1534 H 0.65628 0.97993 0.52053 0.0
H1535 H 0.70176 0.04091 0.5182 0.0
H1536 H 0.70262 0.08906 0.46498 0.0
H1537 H 0.70039 0.07344 0.48466 0.0
H1538 H 0.65329 0.01137 0.48495 0.0
C1539 C 0.6586 0.98973 0.52804 0.0
C1540 C 0.69119 0.03427 0.51094 0.0
C1541 C 0.65141 0.98218 0.53973 0.0
C1542 C 0.69598 0.07355 0.46523 0.0
C1543 C 0.69475 0.06456 0.47652 0.0
C1544 C 0.66428 0.01775 0.49197 0.0
C1545 C 0.66814 0.00968 0.52599 0.0
C1546 C 0.6735 0.01762 0.51332 0.0
C1547 C 0.68531 0.04437 0.47737 0.0
C1548 C 0.68181 0.03466 0.4896 0.0
H1549 H 0.66558 0.02425 0.55503 0.0
H1550 H 0.67824 0.03737 0.53469 0.0
H1551 H 0.64633 0.99668 0.50523 0.0
H1552 H 0.67258 0.03363 0.44722 0.0
H1553 H 0.67111 0.01799 0.46672 0.0
C1554 C 0.98641 0.6516 0.46499 0.0
C1555 C 0.99731 0.65387 0.45436 0.0
C1556 C 0.99549 0.65957 0.47623 0.0
C1557 C 0.04234 0.67605 0.49168 0.0
H1558 H 0.01974 0.69171 0.51751 0.0
C1559 C 0.07885 0.70085 0.53899 0.0
C1560 C 0.0668 0.6912 0.54903 0.0
C1561 C 0.07106 0.69996 0.52731 0.0
C1562 C 0.02622 0.6874 0.51037 0.0
H1563 H 0.02621 0.6674 0.44695 0.0
H1564 H 0.04201 0.68191 0.46634 0.0
H1565 H 0.00491 0.68372 0.4971 0.0
H1566 H 0.0371 0.67406 0.55485 0.0
H1567 H 0.02355 0.67266 0.53452 0.0
H1568 H 0.06354 0.67959 0.50496 0.0
C1569 C 0.02647 0.67339 0.46618 0.0
C1570 C 0.01769 0.68274 0.49868 0.0
C1571 C 0.01741 0.6652 0.45502 0.0
C1572 C 0.04679 0.68161 0.5473 0.0
C1573 C 0.039 0.68088 0.53565 0.0
C1574 C 0.05095 0.68089 0.5033 0.0
C1575 C 0.01569 0.6702 0.47703 0.0
C1576 C 0.02549 0.67673 0.48922 0.0
C1577 C 0.05106 0.68958 0.52546 0.0
C1578 C 0.04285 0.68636 0.51283 0.0
H1579 H 0.97089 0.64286 0.46478 0.0
H1580 H 0.98667 0.65661 0.48437 0.0
H1581 H 0.04858 0.6711 0.48477 0.0
H1582 H 0.09433 0.70837 0.54002 0.0
H1583 H 0.08071 0.70699 0.51965 0.0
C1584 C 0.01946 0.30981 0.04954 0.0
C1585 C 0.03057 0.30226 0.05433 0.0
C1586 C 0.01998 0.31379 0.03694 0.0
C1587 C 0.01315 0.30447 0.00934 0.0
H1588 H 0.06024 0.32728 0.99023 0.0
C1589 C 0.01675 0.28758 0.95823 0.0
C1590 C 0.02939 0.30246 0.95037 0.0
C1591 C 0.01609 0.29095 0.9708 0.0
C1592 C 0.04697 0.32114 0.99544 0.0
H1593 H 0.05171 0.29397 0.04978 0.0
H1594 H 0.05278 0.30113 0.02789 0.0
H1595 H 0.06184 0.32797 0.01273 0.0
H1596 H 0.05076 0.33275 0.94947 0.0
H1597 H 0.04977 0.33857 0.97153 0.0
H1598 H 0.99827 0.297 0.99205 0.0
C1599 C 0.04362 0.30392 0.03384 0.0
C1600 C 0.0479 0.3214 0.00831 0.0
C1601 C 0.04291 0.2997 0.04638 0.0
C1602 C 0.04085 0.32099 0.95528 0.0
C1603 C 0.04037 0.3243 0.96791 0.0
C1604 C 0.01222 0.30403 0.99647 0.0
C1605 C 0.03185 0.3106 0.02893 0.0
C1606 C 0.03099 0.31271 0.01539 0.0
C1607 C 0.0282 0.30923 0.97582 0.0
C1608 C 0.02912 0.312 0.98939 0.0
H1609 H 0.00978 0.31191 0.05543 0.0
H1610 H 0.01085 0.31904 0.03341 0.0
H1611 H 0.99987 0.29753 0.01455 0.0
H1612 H 0.00768 0.27316 0.95474 0.0
H1613 H 0.00669 0.279 0.97667 0.0
C1614 C 0.73937 0.75277 0.95569 0.0
C1615 C 0.75781 0.75894 0.95089 0.0
C1616 C 0.73582 0.74924 0.96833 0.0
C1617 C 0.73914 0.75941 0.99582 0.0
H1618 H 0.76082 0.73442 0.01532 0.0
C1619 C 0.76034 0.77665 0.04684 0.0
C1620 C 0.75732 0.76164 0.05485 0.0
C1621 C 0.7561 0.77315 0.0343 0.0
C1622 C 0.75441 0.74119 0.01001 0.0
H1623 H 0.78665 0.76518 0.95547 0.0
H1624 H 0.78038 0.75881 0.97741 0.0
H1625 H 0.76139 0.73295 0.99285 0.0
H1626 H 0.74674 0.731 0.05601 0.0
H1627 H 0.73952 0.72495 0.03403 0.0
H1628 H 0.73278 0.76823 0.01298 0.0
C1629 C 0.76869 0.75676 0.97145 0.0
C1630 C 0.75488 0.74048 0.99715 0.0
C1631 C 0.77231 0.76053 0.95888 0.0
C1632 C 0.74924 0.74289 0.0501 0.0
C1633 C 0.7452 0.73943 0.03751 0.0
C1634 C 0.73883 0.76028 0.00868 0.0
C1635 C 0.75054 0.7515 0.97636 0.0
C1636 C 0.74763 0.74993 0.98992 0.0
C1637 C 0.74891 0.75459 0.02945 0.0
C1638 C 0.74684 0.75153 0.01591 0.0
H1639 H 0.72791 0.75144 0.94979 0.0
H1640 H 0.72166 0.74508 0.97186 0.0
H1641 H 0.73356 0.76695 0.99049 0.0
H1642 H 0.76648 0.79125 0.0502 0.0
H1643 H 0.75929 0.78517 0.02831 0.0
C1644 C 0.30775 0.0185 0.9557 0.0
C1645 C 0.30164 0.03069 0.95069 0.0
C1646 C 0.311 0.01855 0.96838 0.0
C1647 C 0.30046 0.01176 0.99579 0.0
H1648 H 0.32454 0.05848 0.01526 0.0
C1649 C 0.28275 0.01499 0.04683 0.0
C1650 C 0.29761 0.02719 0.05486 0.0
C1651 C 0.28631 0.0145 0.03427 0.0
C1652 C 0.31802 0.0453 0.00996 0.0
H1653 H 0.29516 0.05322 0.95499 0.0
H1654 H 0.301 0.05342 0.97702 0.0
H1655 H 0.32627 0.06049 0.99279 0.0
H1656 H 0.32807 0.04795 0.05604 0.0
H1657 H 0.33424 0.04719 0.03403 0.0
H1658 H 0.2917 0.99658 0.01295 0.0
C1659 C 0.30325 0.0438 0.97117 0.0
C1660 C 0.31887 0.04646 0.9971 0.0
C1661 C 0.29979 0.04359 0.95855 0.0
C1662 C 0.31629 0.03838 0.05011 0.0
C1663 C 0.31982 0.03804 0.0375 0.0
C1664 C 0.29946 0.0106 0.00865 0.0
C1665 C 0.30847 0.03098 0.97628 0.0
C1666 C 0.30977 0.02972 0.98987 0.0
C1667 C 0.30479 0.02632 0.02942 0.0
C1668 C 0.3079 0.02737 0.01587 0.0
H1669 H 0.30928 0.00837 0.9499 0.0
H1670 H 0.31515 0.00862 0.97206 0.0
H1671 H 0.29318 0.99861 0.99048 0.0
H1672 H 0.2682 0.00614 0.05018 0.0
H1673 H 0.27439 0.00546 0.02828 0.0
C1674 C 0.04414 0.75236 0.95548 0.0
C1675 C 0.03179 0.75841 0.95067 0.0
C1676 C 0.04401 0.74861 0.9681 0.0
C1677 C 0.0503 0.75808 0.99569 0.0
H1678 H 0.0033 0.7328 0.01485 0.0
C1679 C 0.04562 0.7747 0.04671 0.0
C1680 C 0.03338 0.75967 0.05462 0.0
C1681 C 0.04655 0.7713 0.03418 0.0
C1682 C 0.01657 0.73964 0.00964 0.0
H1683 H 0.00891 0.76425 0.95521 0.0
H1684 H 0.00856 0.75755 0.9771 0.0
H1685 H 0.00165 0.73167 0.99237 0.0
H1686 H 0.01307 0.72908 0.05564 0.0
H1687 H 0.01459 0.72319 0.03366 0.0
H1688 H 0.06519 0.76661 0.01296 0.0
C1689 C 0.01837 0.75573 0.97117 0.0
C1690 C 0.01561 0.73913 0.99677 0.0
C1691 C 0.01867 0.7597 0.95862 0.0
C1692 C 0.02265 0.74098 0.04979 0.0
C1693 C 0.02343 0.73761 0.0372 0.0
C1694 C 0.05126 0.75874 0.00857 0.0
C1695 C 0.03132 0.75055 0.9761 0.0
C1696 C 0.03243 0.74872 0.98966 0.0
C1697 C 0.03514 0.75281 0.02923 0.0
C1698 C 0.03438 0.74989 0.01567 0.0
H1699 H 0.05444 0.75126 0.9496 0.0
H1700 H 0.05405 0.74452 0.97164 0.0
H1701 H 0.06351 0.76572 0.99047 0.0
H1702 H 0.05413 0.78925 0.05013 0.0
H1703 H 0.05557 0.78335 0.02826 0.0
C1704 C 0.32057 0.30903 0.04935 0.0
C1705 C 0.30207 0.30257 0.05413 0.0
C1706 C 0.32421 0.31291 0.03675 0.0
C1707 C 0.32141 0.30365 0.00916 0.0
H1708 H 0.29908 0.3283 0.98995 0.0
C1709 C 0.30105 0.28734 0.958 0.0
C1710 C 0.30381 0.3024 0.95012 0.0
C1711 C 0.30506 0.29063 0.97057 0.0
C1712 C 0.30567 0.32164 0.99519 0.0
H1713 H 0.27317 0.29614 0.04955 0.0
H1714 H 0.27956 0.30307 0.02767 0.0
H1715 H 0.29822 0.32916 0.01244 0.0
H1716 H 0.31365 0.3329 0.94921 0.0
H1717 H 0.32048 0.33858 0.97127 0.0
H1718 H 0.32828 0.29557 0.9919 0.0
C1719 C 0.29125 0.3051 0.03362 0.0
C1720 C 0.30503 0.32199 0.00806 0.0
C1721 C 0.28757 0.30101 0.04616 0.0
C1722 C 0.31138 0.32099 0.95503 0.0
C1723 C 0.31518 0.32423 0.96766 0.0
C1724 C 0.3219 0.30314 0.99629 0.0
C1725 C 0.30949 0.31068 0.02872 0.0
C1726 C 0.31252 0.31264 0.01518 0.0
C1727 C 0.31176 0.30901 0.9756 0.0
C1728 C 0.31366 0.31177 0.98917 0.0
H1729 H 0.33206 0.31036 0.05524 0.0
H1730 H 0.33843 0.31732 0.03323 0.0
H1731 H 0.32718 0.29619 0.01439 0.0
H1732 H 0.29531 0.27286 0.95452 0.0
H1733 H 0.30209 0.27856 0.97646 0.0
C1734 C 0.77763 0.04434 0.95776 0.0
C1735 C 0.762 0.03213 0.95024 0.0
C1736 C 0.7755 0.04428 0.97052 0.0
C1737 C 0.77113 0.02923 0.99634 0.0
H1738 H 0.72721 0.02497 0.01398 0.0
C1739 C 0.76276 0.01274 0.0478 0.0
C1740 C 0.75847 0.02441 0.05524 0.0
C1741 C 0.76045 0.01237 0.03505 0.0
C1742 C 0.73958 0.02621 0.00917 0.0
H1743 H 0.73157 0.0111 0.95018 0.0
H1744 H 0.72792 0.01082 0.97257 0.0
H1745 H 0.72898 0.02873 0.9915 0.0
H1746 H 0.74724 0.04397 0.05515 0.0
H1747 H 0.74345 0.04354 0.03277 0.0
H1748 H 0.78198 0.02707 0.01385 0.0
C1749 C 0.74179 0.02054 0.96855 0.0
C1750 C 0.74053 0.02823 0.99631 0.0
C1751 C 0.7439 0.02067 0.95572 0.0
C1752 C 0.75069 0.03484 0.04968 0.0
C1753 C 0.74848 0.03456 0.03685 0.0
C1754 C 0.77017 0.02717 0.00911 0.0
C1755 C 0.75774 0.03191 0.97611 0.0
C1756 C 0.7564 0.02988 0.98976 0.0
C1757 C 0.75392 0.02379 0.02937 0.0
C1758 C 0.75439 0.02559 0.01571 0.0
H1759 H 0.79172 0.05355 0.95383 0.0
H1760 H 0.78796 0.05358 0.97606 0.0
H1761 H 0.78341 0.03012 0.9916 0.0
H1762 H 0.76852 0.00432 0.0518 0.0
H1763 H 0.76431 0.00354 0.02958 0.0
C1764 C 0.68481 0.62061 0.29128 0.0
C1765 C 0.69736 0.63547 0.28337 0.0
C1766 C 0.68437 0.62399 0.30386 0.0
C1767 C 0.71568 0.65425 0.32837 0.0
H1768 H 0.66889 0.63046 0.34779 0.0
C1769 C 0.6889 0.64281 0.38264 0.0
C1770 C 0.70029 0.63552 0.38736 0.0
C1771 C 0.68921 0.64674 0.37005 0.0
C1772 C 0.68208 0.63745 0.3425 0.0
H1773 H 0.71877 0.66574 0.28241 0.0
H1774 H 0.71813 0.67158 0.3045 0.0
H1775 H 0.66692 0.62992 0.3253 0.0
H1776 H 0.72168 0.62765 0.38266 0.0
H1777 H 0.72236 0.63469 0.36078 0.0
H1778 H 0.73084 0.66118 0.34556 0.0
C1779 C 0.70865 0.65732 0.3009 0.0
C1780 C 0.68095 0.637 0.32963 0.0
C1781 C 0.70893 0.65399 0.28825 0.0
C1782 C 0.71268 0.63317 0.37932 0.0
C1783 C 0.71316 0.63733 0.36679 0.0
C1784 C 0.71681 0.65454 0.34123 0.0
C1785 C 0.69659 0.64226 0.30886 0.0
C1786 C 0.69773 0.64503 0.32243 0.0
C1787 C 0.70112 0.64374 0.36196 0.0
C1788 C 0.70003 0.64578 0.34843 0.0
H1789 H 0.67566 0.60619 0.2878 0.0
H1790 H 0.67505 0.61205 0.30977 0.0
H1791 H 0.72886 0.66044 0.32307 0.0
H1792 H 0.67918 0.64476 0.38859 0.0
H1793 H 0.67988 0.6518 0.36659 0.0
C1794 C 0.41756 0.07604 0.38326 0.0
C1795 C 0.42531 0.09477 0.38799 0.0
C1796 C 0.41404 0.07259 0.37062 0.0
C1797 C 0.40832 0.0932 0.34151 0.0
H1798 H 0.43193 0.06642 0.32628 0.0
C1799 C 0.44282 0.09346 0.29204 0.0
C1800 C 0.42829 0.09152 0.28395 0.0
C1801 C 0.43911 0.08981 0.30462 0.0
C1802 C 0.42514 0.07379 0.33041 0.0
H1803 H 0.43445 0.12434 0.38325 0.0
H1804 H 0.42811 0.11826 0.36127 0.0
H1805 H 0.43078 0.06799 0.34874 0.0
H1806 H 0.39824 0.08346 0.28267 0.0
H1807 H 0.39185 0.07729 0.30474 0.0
H1808 H 0.40329 0.09957 0.32318 0.0
C1809 C 0.4248 0.10627 0.36731 0.0
C1810 C 0.42434 0.07457 0.34326 0.0
C1811 C 0.42853 0.10976 0.37991 0.0
C1812 C 0.40974 0.08507 0.28866 0.0
C1813 C 0.4061 0.08165 0.30129 0.0
C1814 C 0.40894 0.09225 0.32866 0.0
C1815 C 0.41794 0.08774 0.36249 0.0
C1816 C 0.41635 0.08469 0.34894 0.0
C1817 C 0.42085 0.08432 0.30943 0.0
C1818 C 0.41779 0.08295 0.32298 0.0
H1819 H 0.41493 0.06418 0.38923 0.0
H1820 H 0.40861 0.05814 0.36716 0.0
H1821 H 0.40196 0.10098 0.34564 0.0
H1822 H 0.45725 0.09835 0.28872 0.0
H1823 H 0.45082 0.09215 0.31067 0.0
C1824 C 0.95016 0.34824 0.38097 0.0
C1825 C 0.96583 0.36062 0.38841 0.0
C1826 C 0.95224 0.3479 0.36823 0.0
C1827 C 0.9871 0.36315 0.34241 0.0
H1828 H 0.94579 0.36434 0.32471 0.0
C1829 C 0.96525 0.37854 0.29081 0.0
C1830 C 0.96935 0.36669 0.28341 0.0
C1831 C 0.96752 0.37892 0.30356 0.0
C1832 C 0.95756 0.36422 0.32949 0.0
H1833 H 0.99631 0.38149 0.38835 0.0
H1834 H 0.99989 0.38109 0.36598 0.0
H1835 H 0.94437 0.36164 0.34697 0.0
H1836 H 0.98019 0.34681 0.28356 0.0
H1837 H 0.98392 0.34727 0.30596 0.0
H1838 H 1.00038 0.36606 0.32475 0.0
C1839 C 0.98601 0.37155 0.37005 0.0
C1840 C 0.9566 0.36236 0.34227 0.0
C1841 C 0.98394 0.37181 0.38287 0.0
C1842 C 0.97689 0.35608 0.28901 0.0
C1843 C 0.97907 0.35638 0.30184 0.0
C1844 C 0.98804 0.36496 0.32953 0.0
C1845 C 0.97001 0.36003 0.36257 0.0
C1846 C 0.97129 0.36174 0.3489 0.0
C1847 C 0.97381 0.36734 0.30928 0.0
C1848 C 0.9733 0.36561 0.32294 0.0
H1849 H 0.93606 0.33922 0.38495 0.0
H1850 H 0.93974 0.3385 0.36276 0.0
H1851 H 0.99863 0.36266 0.34726 0.0
H1852 H 0.95968 0.38711 0.28678 0.0
H1853 H 0.96381 0.38789 0.309 0.0
C1854 C 0.7109 0.10748 0.37989 0.0
C1855 C 0.69847 0.09252 0.38779 0.0
C1856 C 0.71134 0.10417 0.36728 0.0
C1857 C 0.68009 0.07402 0.34276 0.0
H1858 H 0.72687 0.09738 0.32333 0.0
C1859 C 0.70667 0.08425 0.2885 0.0
C1860 C 0.69558 0.09178 0.28366 0.0
C1861 C 0.70634 0.08056 0.30114 0.0
C1862 C 0.71368 0.09053 0.32863 0.0
H1863 H 0.67723 0.06219 0.3887 0.0
H1864 H 0.67782 0.0565 0.36658 0.0
H1865 H 0.72885 0.09813 0.34583 0.0
H1866 H 0.67465 0.10037 0.28819 0.0
H1867 H 0.67388 0.09369 0.31015 0.0
H1868 H 0.66494 0.06705 0.32556 0.0
C1869 C 0.68724 0.07076 0.3702 0.0
C1870 C 0.71482 0.09109 0.34149 0.0
C1871 C 0.68699 0.07401 0.38286 0.0
C1872 C 0.68342 0.09463 0.29162 0.0
C1873 C 0.68289 0.0907 0.3042 0.0
C1874 C 0.67896 0.07365 0.32989 0.0
C1875 C 0.69919 0.08589 0.36226 0.0
C1876 C 0.69804 0.08316 0.34869 0.0
C1877 C 0.69467 0.08405 0.30914 0.0
C1878 C 0.69575 0.08223 0.3227 0.0
H1879 H 0.71997 0.12189 0.38339 0.0
H1880 H 0.72058 0.11616 0.36139 0.0
H1881 H 0.66691 0.06792 0.34806 0.0
H1882 H 0.71622 0.08193 0.28262 0.0
H1883 H 0.71546 0.07532 0.30469 0.0
C1884 C 0.9522 0.63239 0.3797 0.0
C1885 C 0.96711 0.63502 0.38768 0.0
C1886 C 0.95564 0.63625 0.36712 0.0
C1887 C 0.96884 0.65304 0.3414 0.0
H1888 H 0.99409 0.6283 0.32559 0.0
C1889 C 0.97657 0.65244 0.28844 0.0
C1890 C 0.9696 0.63392 0.28354 0.0
C1891 C 0.98001 0.65572 0.30111 0.0
C1892 C 0.98714 0.63541 0.32989 0.0
H1893 H 0.99752 0.64447 0.38874 0.0
H1894 H 0.00346 0.651 0.36667 0.0
H1895 H 0.99278 0.6291 0.34808 0.0
H1896 H 0.96179 0.60458 0.28799 0.0
H1897 H 0.96801 0.61036 0.30999 0.0
H1898 H 0.96263 0.65877 0.3232 0.0
C1899 C 0.98911 0.64594 0.37021 0.0
C1900 C 0.98653 0.636 0.34275 0.0
C1901 C 0.98572 0.6423 0.38285 0.0
C1902 C 0.96708 0.619 0.29147 0.0
C1903 C 0.97075 0.62233 0.30408 0.0
C1904 C 0.96964 0.65263 0.32854 0.0
C1905 C 0.97403 0.64265 0.36219 0.0
C1906 C 0.97695 0.64441 0.34864 0.0
C1907 C 0.97683 0.64061 0.30908 0.0
C1908 C 0.97838 0.64338 0.32264 0.0
H1909 H 0.93771 0.62685 0.38313 0.0
H1910 H 0.94368 0.63341 0.36116 0.0
H1911 H 0.96149 0.65973 0.34569 0.0
H1912 H 0.97863 0.66423 0.28259 0.0
H1913 H 0.98482 0.66998 0.3047 0.0
C1914 C 0.41729 0.37106 0.38379 0.0
C1915 C 0.42509 0.3601 0.38848 0.0
C1916 C 0.41337 0.3707 0.37119 0.0
C1917 C 0.42277 0.37834 0.3437 0.0
H1918 H 0.4013 0.33186 0.32403 0.0
C1919 C 0.44057 0.37691 0.29253 0.0
C1920 C 0.42601 0.36412 0.28453 0.0
C1921 C 0.43695 0.3771 0.30509 0.0
C1922 C 0.40706 0.34495 0.32939 0.0
H1923 H 0.43386 0.33939 0.38374 0.0
H1924 H 0.42685 0.33866 0.36184 0.0
H1925 H 0.40042 0.3296 0.3465 0.0
H1926 H 0.39599 0.34201 0.2834 0.0
H1927 H 0.38974 0.3422 0.30546 0.0
H1928 H 0.43001 0.39371 0.32659 0.0
C1929 C 0.42381 0.34754 0.36787 0.0
C1930 C 0.4067 0.34365 0.34225 0.0
C1931 C 0.42794 0.34806 0.38042 0.0
C1932 C 0.40751 0.35205 0.28931 0.0
C1933 C 0.40395 0.35207 0.30195 0.0
C1934 C 0.42329 0.37963 0.33084 0.0
C1935 C 0.4169 0.35919 0.36307 0.0
C1936 C 0.41492 0.36035 0.34954 0.0
C1937 C 0.41874 0.36437 0.30999 0.0
C1938 C 0.41581 0.36297 0.32355 0.0
H1939 H 0.41494 0.38049 0.38975 0.0
H1940 H 0.40792 0.37972 0.36775 0.0
H1941 H 0.42934 0.39147 0.34905 0.0
H1942 H 0.45495 0.38644 0.28913 0.0
H1943 H 0.44869 0.38662 0.31107 0.0
C1944 C 0.35095 0.97317 0.71562 0.0
C1945 C 0.36326 0.96699 0.72033 0.0
C1946 C 0.3508 0.97671 0.70299 0.0
C1947 C 0.34368 0.9667 0.67549 0.0
H1948 H 0.39017 0.99175 0.65583 0.0
C1949 C 0.34708 0.95001 0.62427 0.0
C1950 C 0.35901 0.9651 0.6163 0.0
C1951 C 0.34648 0.95336 0.63685 0.0
C1952 C 0.37704 0.98497 0.66119 0.0
H1953 H 0.38576 0.96069 0.7156 0.0
H1954 H 0.38564 0.96708 0.69368 0.0
H1955 H 0.39243 0.99298 0.6783 0.0
H1956 H 0.37911 0.99573 0.61523 0.0
H1957 H 0.37819 0.00154 0.63729 0.0
H1958 H 0.32833 0.95811 0.65838 0.0
C1959 C 0.37608 0.96914 0.6997 0.0
C1960 C 0.37835 0.98554 0.67405 0.0
C1961 C 0.37606 0.96536 0.71227 0.0
C1962 C 0.36975 0.98379 0.62112 0.0
C1963 C 0.36932 0.98711 0.63375 0.0
C1964 C 0.34238 0.96597 0.66263 0.0
C1965 C 0.36316 0.97443 0.69488 0.0
C1966 C 0.36171 0.97607 0.68133 0.0
C1967 C 0.35793 0.97186 0.64178 0.0
C1968 C 0.35907 0.97475 0.65534 0.0
H1969 H 0.34089 0.97453 0.72158 0.0
H1970 H 0.34079 0.9809 0.69953 0.0
H1971 H 0.33061 0.95915 0.68086 0.0
H1972 H 0.33858 0.93545 0.62086 0.0
H1973 H 0.33769 0.94128 0.64281 0.0
C1974 C 0.09515 0.44102 0.71341 0.0
C1975 C 0.09271 0.42599 0.72121 0.0
C1976 C 0.09137 0.43786 0.70081 0.0
C1977 C 0.09234 0.408 0.67603 0.0
H1978 H 0.06859 0.43142 0.65698 0.0
C1979 C 0.0752 0.41841 0.62199 0.0
C1980 C 0.09377 0.42599 0.61704 0.0
C1981 C 0.07204 0.41472 0.63464 0.0
C1982 C 0.07502 0.42455 0.66217 0.0
H1983 H 0.08374 0.39568 0.72194 0.0
H1984 H 0.07737 0.39024 0.69982 0.0
H1985 H 0.06762 0.43198 0.67949 0.0
H1986 H 0.12337 0.43466 0.62137 0.0
H1987 H 0.1178 0.42798 0.64335 0.0
H1988 H 0.10034 0.4012 0.65871 0.0
C1989 C 0.0822 0.40445 0.70352 0.0
C1990 C 0.07459 0.42501 0.67504 0.0
C1991 C 0.08574 0.40755 0.71618 0.0
C1992 C 0.10891 0.4289 0.6249 0.0
C1993 C 0.1057 0.42496 0.63748 0.0
C1994 C 0.09295 0.40774 0.66316 0.0
C1995 C 0.08526 0.41965 0.69568 0.0
C1996 C 0.08356 0.41706 0.6821 0.0
C1997 C 0.08733 0.41823 0.64253 0.0
C1998 C 0.08461 0.41633 0.6561 0.0
H1999 H 0.10045 0.45538 0.71699 0.0
H2000 H 0.09404 0.4499 0.69499 0.0
H2001 H 0.0995 0.40189 0.68122 0.0
H2002 H 0.06324 0.41604 0.61619 0.0
H2003 H 0.05772 0.40942 0.63828 0.0
C2004 C 0.64862 0.70168 0.71536 0.0
C2005 C 0.63045 0.69085 0.7209 0.0
C2006 C 0.65066 0.70133 0.70255 0.0
C2007 C 0.62155 0.6931 0.6748 0.0
H2008 H 0.66462 0.69528 0.65723 0.0
C2009 C 0.64111 0.68656 0.62145 0.0
C2010 C 0.63446 0.69803 0.61598 0.0
C2011 C 0.64322 0.68651 0.63427 0.0
C2012 C 0.65249 0.69461 0.66203 0.0
H2013 H 0.60051 0.66996 0.71743 0.0
H2014 H 0.60415 0.66912 0.69523 0.0
H2015 H 0.66272 0.69169 0.67974 0.0
H2016 H 0.62633 0.71957 0.61959 0.0
H2017 H 0.63029 0.71969 0.6418 0.0
H2018 H 0.61113 0.69578 0.65726 0.0
C2019 C 0.61672 0.67829 0.70072 0.0
C2020 C 0.65146 0.69268 0.6749 0.0
C2021 C 0.61466 0.67871 0.71346 0.0
C2022 C 0.63119 0.71034 0.62351 0.0
C2023 C 0.63338 0.71035 0.63626 0.0
C2024 C 0.62261 0.6951 0.66203 0.0
C2025 C 0.63459 0.69009 0.69506 0.0
C2026 C 0.63591 0.69183 0.68141 0.0
C2027 C 0.63876 0.69796 0.64183 0.0
C2028 C 0.6381 0.69597 0.65547 0.0
H2029 H 0.66107 0.71117 0.72084 0.0
H2030 H 0.66461 0.71061 0.69848 0.0
H2031 H 0.60953 0.6928 0.67952 0.0
H2032 H 0.64377 0.67693 0.6159 0.0
H2033 H 0.64738 0.6768 0.6383 0.0
C2034 C 0.35521 0.40759 0.71577 0.0
C2035 C 0.36656 0.42613 0.72068 0.0
C2036 C 0.3555 0.40434 0.70312 0.0
C2037 C 0.38292 0.42498 0.67435 0.0
H2038 H 0.33292 0.4001 0.65855 0.0
C2039 C 0.35057 0.42789 0.62468 0.0
C2040 C 0.36299 0.4256 0.61663 0.0
C2041 C 0.35026 0.42391 0.63723 0.0
C2042 C 0.34698 0.40694 0.66284 0.0
H2043 H 0.3879 0.45555 0.71627 0.0
H2044 H 0.38854 0.44983 0.69428 0.0
H2045 H 0.33504 0.40097 0.68103 0.0
H2046 H 0.38431 0.41666 0.6154 0.0
H2047 H 0.38391 0.40992 0.63743 0.0
H2048 H 0.39485 0.43156 0.65616 0.0
C2049 C 0.37938 0.43781 0.70018 0.0
C2050 C 0.34819 0.40731 0.6757 0.0
C2051 C 0.37892 0.44111 0.71278 0.0
C2052 C 0.37457 0.41855 0.62135 0.0
C2053 C 0.37443 0.41479 0.63396 0.0
C2054 C 0.3817 0.42445 0.66148 0.0
C2055 C 0.36735 0.4195 0.69516 0.0
C2056 C 0.36618 0.41676 0.68159 0.0
C2057 C 0.36248 0.41774 0.64206 0.0
C2058 C 0.36371 0.41585 0.6556 0.0
H2059 H 0.34551 0.39574 0.72161 0.0
H2060 H 0.34617 0.39004 0.69951 0.0
H2061 H 0.39697 0.43225 0.67864 0.0
H2062 H 0.34142 0.43324 0.62134 0.0
H2063 H 0.34102 0.42649 0.64325 0.0
C2064 C 0.65512 0.97501 0.71615 0.0
C2065 C 0.63661 0.9682 0.72103 0.0
C2066 C 0.65854 0.9789 0.70353 0.0
C2067 C 0.65542 0.9695 0.67593 0.0
H2068 H 0.63236 0.99368 0.65697 0.0
C2069 C 0.63419 0.95289 0.6249 0.0
C2070 C 0.6368 0.9679 0.61703 0.0
C2071 C 0.6384 0.95623 0.63745 0.0
C2072 C 0.63915 0.98715 0.66213 0.0
H2073 H 0.60748 0.96116 0.71663 0.0
H2074 H 0.6135 0.96814 0.69472 0.0
H2075 H 0.63179 0.99453 0.67947 0.0
H2076 H 0.64656 0.99838 0.61611 0.0
H2077 H 0.65371 0.00416 0.63814 0.0
H2078 H 0.66217 0.96151 0.65859 0.0
C2079 C 0.62535 0.97043 0.7006 0.0
C2080 C 0.63868 0.9875 0.67501 0.0
C2081 C 0.62188 0.96631 0.71315 0.0
C2082 C 0.64441 0.98651 0.62192 0.0
C2083 C 0.6484 0.98981 0.63454 0.0
C2084 C 0.65572 0.96897 0.66305 0.0
C2085 C 0.6436 0.97635 0.6956 0.0
C2086 C 0.64644 0.97832 0.68204 0.0
C2087 C 0.64514 0.97463 0.64246 0.0
C2088 C 0.64722 0.97743 0.65602 0.0
H2089 H 0.66677 0.97659 0.72197 0.0
H2090 H 0.67278 0.98356 0.69993 0.0
H2091 H 0.6614 0.96218 0.6811 0.0
H2092 H 0.62841 0.93839 0.62143 0.0
H2093 H 0.63555 0.9442 0.64333 0.0
C2094 C 0.09646 0.68344 0.7136 0.0
C2095 C 0.09372 0.69611 0.72112 0.0
C2096 C 0.09437 0.68352 0.70085 0.0
C2097 C 0.10545 0.69846 0.67503 0.0
H2098 H 0.06649 0.70387 0.65734 0.0
C2099 C 0.11386 0.71466 0.62355 0.0
C2100 C 0.09782 0.70311 0.61613 0.0
C2101 C 0.11193 0.71519 0.6363 0.0
C2102 C 0.07742 0.70231 0.66217 0.0
H2103 H 0.08545 0.71799 0.72117 0.0
H2104 H 0.082 0.71829 0.69877 0.0
H2105 H 0.0645 0.70033 0.67985 0.0
H2106 H 0.06695 0.68398 0.61623 0.0
H2107 H 0.06363 0.68472 0.6386 0.0
H2108 H 0.11827 0.70012 0.65753 0.0
C2109 C 0.08567 0.70821 0.7028 0.0
C2110 C 0.07635 0.70041 0.67504 0.0
C2111 C 0.08769 0.70807 0.71563 0.0
C2112 C 0.0796 0.69301 0.62169 0.0
C2113 C 0.07768 0.69347 0.63451 0.0
C2114 C 0.10655 0.70042 0.66226 0.0
C2115 C 0.0896 0.69636 0.69525 0.0
C2116 C 0.09032 0.69834 0.6816 0.0
C2117 C 0.09395 0.70409 0.64198 0.0
C2118 C 0.09261 0.70241 0.65565 0.0
H2119 H 0.10084 0.67383 0.71753 0.0
H2120 H 0.09703 0.67387 0.69532 0.0
H2121 H 0.11663 0.69722 0.67979 0.0
H2122 H 0.12807 0.72285 0.61956 0.0
H2123 H 0.12468 0.7239 0.64177 0.0
C2124 C 0.84724 0.08588 0.09637 0.0
C2125 C 0.82962 0.08559 0.09702 0.0
C2126 C 0.86463 0.10324 0.09713 0.0
C2127 C 0.88479 0.15528 0.09233 0.0
H2128 H 0.92899 0.15965 0.10968 0.0
C2129 C 0.95428 0.22805 0.09804 0.0
C2130 C 0.97171 0.22838 0.09593 0.0
C2131 C 0.93706 0.21061 0.09905 0.0
C2132 C 0.91681 0.15861 0.10471 0.0
H2133 H 0.81651 0.10332 0.0994 0.0
H2134 H 0.84677 0.1335 0.10088 0.0
H2135 H 0.89865 0.1292 0.10996 0.0
H2136 H 0.9847 0.21055 0.09351 0.0
H2137 H 0.9546 0.18011 0.09519 0.0
H2138 H 0.90291 0.18458 0.08701 0.0
C2139 C 0.84716 0.12035 0.09955 0.0
C2140 C 0.89944 0.14117 0.10487 0.0
C2141 C 0.8298 0.10301 0.09877 0.0
C2142 C 0.97155 0.21083 0.09514 0.0
C2143 C 0.95431 0.19337 0.09616 0.0
C2144 C 0.90212 0.17269 0.09218 0.0
C2145 C 0.86479 0.12071 0.09858 0.0
C2146 C 0.88322 0.1393 0.09866 0.0
C2147 C 0.93683 0.19307 0.09798 0.0
C2148 C 0.91835 0.17457 0.09836 0.0
H2149 H 0.84764 0.07273 0.09501 0.0
H2150 H 0.87793 0.10302 0.09622 0.0
H2151 H 0.87271 0.15425 0.08724 0.0
H2152 H 0.95386 0.24127 0.09877 0.0
H2153 H 0.92389 0.21088 0.10064 0.0
C2154 C 0.97422 0.79293 0.09461 0.0
C2155 C 0.97369 0.7752 0.09531 0.0
C2156 C 0.95732 0.79381 0.09557 0.0
C2157 C 0.90673 0.76627 0.10608 0.0
H2158 H 0.89921 0.79876 0.08299 0.0
C2159 C 0.83266 0.75948 0.09755 0.0
C2160 C 0.83193 0.77641 0.09566 0.0
C2161 C 0.8503 0.76009 0.09845 0.0
C2162 C 0.90118 0.78983 0.08963 0.0
H2163 H 0.95494 0.7445 0.09776 0.0
H2164 H 0.92551 0.74603 0.09932 0.0
H2165 H 0.92938 0.79848 0.08289 0.0
H2166 H 0.84925 0.80734 0.09353 0.0
H2167 H 0.88001 0.80839 0.0952 0.0
H2168 H 0.87843 0.75746 0.11271 0.0
C2169 C 0.93902 0.75929 0.09817 0.0
C2170 C 0.91849 0.78966 0.08957 0.0
C2171 C 0.9559 0.75841 0.0972 0.0
C2172 C 0.84927 0.79401 0.09492 0.0
C2173 C 0.86692 0.79461 0.09582 0.0
C2174 C 0.88942 0.76644 0.10614 0.0
C2175 C 0.9395 0.77698 0.09726 0.0
C2176 C 0.92142 0.77777 0.09773 0.0
C2177 C 0.86765 0.77763 0.09749 0.0
C2178 C 0.88638 0.7781 0.09784 0.0
H2179 H 0.98767 0.80617 0.09321 0.0
H2180 H 0.95823 0.80769 0.095 0.0
H2181 H 0.90864 0.75717 0.11261 0.0
H2182 H 0.8196 0.74567 0.09814 0.0
H2183 H 0.85034 0.74671 0.09958 0.0
C2184 C 0.26184 0.08335 0.09548 0.0
C2185 C 0.2796 0.084 0.09652 0.0
C2186 C 0.26076 0.10012 0.09662 0.0
C2187 C 0.28757 0.15031 0.10804 0.0
H2188 H 0.25728 0.15915 0.08387 0.0
C2189 C 0.29779 0.22539 0.09852 0.0
C2190 C 0.28148 0.22697 0.09596 0.0
C2191 C 0.29625 0.20738 0.0998 0.0
C2192 C 0.26556 0.1568 0.09082 0.0
H2193 H 0.31009 0.10278 0.09982 0.0
H2194 H 0.30821 0.13195 0.10169 0.0
H2195 H 0.25687 0.12863 0.084 0.0
H2196 H 0.25065 0.21077 0.09303 0.0
H2197 H 0.24796 0.17931 0.09536 0.0
H2198 H 0.29651 0.17861 0.11472 0.0
C2199 C 0.29508 0.11846 0.10013 0.0
C2200 C 0.26533 0.13929 0.09089 0.0
C2201 C 0.29617 0.10173 0.09897 0.0
C2202 C 0.26352 0.21009 0.09495 0.0
C2203 C 0.26198 0.19205 0.09622 0.0
C2204 C 0.2878 0.16782 0.10797 0.0
C2205 C 0.2774 0.1179 0.09885 0.0
C2206 C 0.27654 0.13594 0.09939 0.0
C2207 C 0.27836 0.19048 0.09856 0.0
C2208 C 0.27701 0.17137 0.09925 0.0
H2209 H 0.24878 0.06993 0.09364 0.0
H2210 H 0.24689 0.09917 0.09574 0.0
H2211 H 0.29611 0.14806 0.11485 0.0
H2212 H 0.31186 0.23807 0.09934 0.0
H2213 H 0.30919 0.2067 0.10144 0.0
C2214 C 0.22607 0.95804 0.90554 0.0
C2215 C 0.22749 0.97582 0.90824 0.0
C2216 C 0.20813 0.94149 0.90425 0.0
C2217 C 0.15772 0.92101 0.91365 0.0
H2218 H 0.14898 0.88209 0.88935 0.0
C2219 C 0.08488 0.85046 0.90963 0.0
C2220 C 0.08591 0.83357 0.90841 0.0
C2221 C 0.10138 0.86849 0.90833 0.0
C2222 C 0.15123 0.89278 0.89623 0.0
H2223 H 0.21109 0.99019 0.9114 0.0
H2224 H 0.17974 0.96125 0.90909 0.0
H2225 H 0.17926 0.91251 0.8893 0.0
H2226 H 0.10505 0.82245 0.90461 0.0
H2227 H 0.13375 0.85381 0.90248 0.0
H2228 H 0.12985 0.90115 0.92074 0.0
C2229 C 0.19255 0.96013 0.9081 0.0
C2230 C 0.16857 0.91021 0.8962 0.0
C2231 C 0.21053 0.97672 0.90936 0.0
C2232 C 0.10372 0.83514 0.9056 0.0
C2233 C 0.12018 0.85315 0.90429 0.0
C2234 C 0.14037 0.90357 0.91369 0.0
C2235 C 0.19115 0.94229 0.90564 0.0
C2236 C 0.17213 0.92441 0.90503 0.0
C2237 C 0.11925 0.87004 0.90576 0.0
C2238 C 0.13704 0.88914 0.90509 0.0
H2239 H 0.23882 0.9568 0.90461 0.0
H2240 H 0.20757 0.92795 0.90251 0.0
H2241 H 0.16009 0.93155 0.92068 0.0
H2242 H 0.07139 0.84978 0.91174 0.0
H2243 H 0.10015 0.88124 0.90937 0.0
C2244 C 0.21261 0.26872 0.90888 0.0
C2245 C 0.22978 0.2865 0.90832 0.0
C2246 C 0.19482 0.26778 0.90782 0.0
C2247 C 0.17171 0.29533 0.89742 0.0
H2248 H 0.13183 0.2629 0.9206 0.0
C2249 C 0.10512 0.30294 0.9067 0.0
C2250 C 0.08738 0.28614 0.90868 0.0
C2251 C 0.12199 0.30207 0.90555 0.0
C2252 C 0.14269 0.27181 0.91393 0.0
H2253 H 0.24167 0.3172 0.90594 0.0
H2254 H 0.21068 0.31556 0.90421 0.0
H2255 H 0.16218 0.26299 0.92051 0.0
H2256 H 0.07343 0.25517 0.91073 0.0
H2257 H 0.10286 0.25367 0.90863 0.0
H2258 H 0.15228 0.30434 0.89096 0.0
C2259 C 0.21096 0.30231 0.90534 0.0
C2260 C 0.1601 0.27186 0.91388 0.0
C2261 C 0.22874 0.30326 0.90641 0.0
C2262 C 0.08686 0.26841 0.90926 0.0
C2263 C 0.10374 0.26755 0.90812 0.0
C2264 C 0.15429 0.29528 0.89747 0.0
C2265 C 0.19378 0.28458 0.90616 0.0
C2266 C 0.17489 0.28376 0.90571 0.0
C2267 C 0.12153 0.28439 0.90637 0.0
C2268 C 0.13964 0.28366 0.90581 0.0
H2269 H 0.21287 0.25551 0.91029 0.0
H2270 H 0.18186 0.25387 0.90833 0.0
H2271 H 0.18269 0.30444 0.89088 0.0
H2272 H 0.10607 0.31685 0.90621 0.0
H2273 H 0.13547 0.31534 0.90436 0.0
C2274 C 0.79551 0.85061 0.9094 0.0
C2275 C 0.77768 0.83354 0.90859 0.0
C2276 C 0.7967 0.86848 0.90802 0.0
C2277 C 0.76975 0.89168 0.89641 0.0
H2278 H 0.80111 0.93175 0.91978 0.0
C2279 C 0.76047 0.9573 0.90543 0.0
C2280 C 0.77704 0.97522 0.90742 0.0
C2281 C 0.76177 0.94066 0.90429 0.0
C2282 C 0.79251 0.92083 0.91306 0.0
H2283 H 0.74716 0.82192 0.90546 0.0
H2284 H 0.74921 0.85298 0.90322 0.0
H2285 H 0.8013 0.90152 0.92006 0.0
H2286 H 0.80805 0.98975 0.90947 0.0
H2287 H 0.81027 0.9607 0.90744 0.0
H2288 H 0.76067 0.91087 0.88959 0.0
C2289 C 0.76233 0.85259 0.90476 0.0
C2290 C 0.79263 0.9035 0.91321 0.0
C2291 C 0.76114 0.83476 0.90613 0.0
C2292 C 0.79498 0.97617 0.90798 0.0
C2293 C 0.79626 0.95952 0.90688 0.0
C2294 C 0.7696 0.909 0.89627 0.0
C2295 C 0.78009 0.86968 0.90579 0.0
C2296 C 0.78106 0.88862 0.905 0.0
C2297 C 0.77965 0.94155 0.90514 0.0
C2298 C 0.7808 0.92367 0.9047 0.0
H2299 H 0.80855 0.85021 0.91124 0.0
H2300 H 0.81064 0.88137 0.90872 0.0
H2301 H 0.76093 0.88065 0.88981 0.0
H2302 H 0.74642 0.95602 0.90495 0.0
H2303 H 0.74867 0.92702 0.9031 0.0
C2304 C 0.51687 0.41925 0.42803 0.0
C2305 C 0.49945 0.41919 0.42952 0.0
C2306 C 0.53444 0.43642 0.42882 0.0
C2307 C 0.55505 0.48876 0.42555 0.0
H2308 H 0.59982 0.49161 0.44115 0.0
C2309 C 0.62506 0.56079 0.43165 0.0
C2310 C 0.64233 0.56118 0.42884 0.0
C2311 C 0.60785 0.54335 0.4326 0.0
C2312 C 0.58748 0.49099 0.43667 0.0
H2313 H 0.48692 0.43709 0.43339 0.0
H2314 H 0.51751 0.46692 0.43489 0.0
H2315 H 0.56929 0.46133 0.44133 0.0
H2316 H 0.65508 0.54343 0.42511 0.0
H2317 H 0.62496 0.51296 0.42666 0.0
H2318 H 0.57317 0.51832 0.42081 0.0
C2319 C 0.51758 0.45375 0.4329 0.0
C2320 C 0.57 0.47365 0.43677 0.0
C2321 C 0.50003 0.43661 0.43211 0.0
C2322 C 0.64205 0.54366 0.42729 0.0
C2323 C 0.62479 0.52619 0.42824 0.0
C2324 C 0.57248 0.50606 0.42546 0.0
C2325 C 0.53499 0.45391 0.43111 0.0
C2326 C 0.55357 0.47234 0.43122 0.0
C2327 C 0.60746 0.52585 0.43074 0.0
C2328 C 0.58891 0.5074 0.43102 0.0
H2329 H 0.51695 0.4061 0.42602 0.0
H2330 H 0.54757 0.43606 0.42727 0.0
H2331 H 0.54279 0.48817 0.42097 0.0
H2332 H 0.62475 0.57399 0.43299 0.0
H2333 H 0.59481 0.54359 0.43475 0.0
C2334 C 0.62268 0.09047 0.43201 0.0
C2335 C 0.64013 0.10741 0.42964 0.0
C2336 C 0.60554 0.09084 0.43293 0.0
C2337 C 0.58557 0.12311 0.43763 0.0
H2338 H 0.54115 0.08246 0.42094 0.0
C2339 C 0.51595 0.12591 0.42846 0.0
C2340 C 0.49834 0.10866 0.42962 0.0
C2341 C 0.53334 0.12597 0.42937 0.0
C2342 C 0.55333 0.09378 0.4258 0.0
H2343 H 0.65325 0.13814 0.42668 0.0
H2344 H 0.62327 0.13873 0.42818 0.0
H2345 H 0.57128 0.08219 0.42096 0.0
H2346 H 0.48527 0.07804 0.43303 0.0
H2347 H 0.51555 0.07821 0.43474 0.0
H2348 H 0.56757 0.13477 0.44236 0.0
C2349 C 0.6229 0.12518 0.42944 0.0
C2350 C 0.57062 0.09362 0.42581 0.0
C2351 C 0.64008 0.12482 0.42852 0.0
C2352 C 0.49854 0.09157 0.432 0.0
C2353 C 0.51592 0.09164 0.43292 0.0
C2354 C 0.56824 0.12327 0.43762 0.0
C2355 C 0.60539 0.10815 0.4315 0.0
C2356 C 0.58696 0.10828 0.43172 0.0
C2357 C 0.53352 0.10879 0.43145 0.0
C2358 C 0.55192 0.10859 0.43169 0.0
H2359 H 0.62219 0.07682 0.43301 0.0
H2360 H 0.59235 0.07751 0.43474 0.0
H2361 H 0.59783 0.1345 0.44239 0.0
H2362 H 0.51632 0.13933 0.42661 0.0
H2363 H 0.54664 0.1394 0.42809 0.0
C2364 C 0.96894 0.43723 0.43213 0.0
C2365 C 0.95212 0.41938 0.43052 0.0
C2366 C 0.96803 0.45409 0.43312 0.0
C2367 C 0.93736 0.47429 0.42474 0.0
H2368 H 0.97033 0.51507 0.44723 0.0
C2369 C 0.93382 0.54407 0.42906 0.0
C2370 C 0.95153 0.56133 0.42954 0.0
C2371 C 0.93305 0.52637 0.43024 0.0
C2372 C 0.96114 0.50387 0.44083 0.0
H2373 H 0.92106 0.40525 0.42898 0.0
H2374 H 0.91949 0.43468 0.43078 0.0
H2375 H 0.97049 0.48479 0.44745 0.0
H2376 H 0.98228 0.57347 0.43184 0.0
H2377 H 0.98094 0.54265 0.43376 0.0
H2378 H 0.92822 0.49343 0.41798 0.0
C2379 C 0.93342 0.43564 0.43113 0.0
C2380 C 0.96122 0.48652 0.44097 0.0
C2381 C 0.93432 0.41876 0.43017 0.0
C2382 C 0.96839 0.56048 0.43145 0.0
C2383 C 0.96761 0.54279 0.43262 0.0
C2384 C 0.93729 0.49164 0.42459 0.0
C2385 C 0.95028 0.45352 0.4325 0.0
C2386 C 0.94946 0.47159 0.43284 0.0
C2387 C 0.94996 0.52551 0.43193 0.0
C2388 C 0.9493 0.50671 0.43256 0.0
H2389 H 0.9829 0.43826 0.43243 0.0
H2390 H 0.98131 0.46765 0.43402 0.0
H2391 H 0.92834 0.46319 0.41823 0.0
H2392 H 0.92054 0.54419 0.42766 0.0
H2393 H 0.91919 0.51334 0.42983 0.0
C2394 C 0.77244 0.16497 0.23995 0.0
C2395 C 0.75514 0.16489 0.24204 0.0
C2396 C 0.78979 0.18227 0.23895 0.0
C2397 C 0.81066 0.23434 0.23324 0.0
H2398 H 0.85447 0.2381 0.25077 0.0
C2399 C 0.88074 0.30658 0.24169 0.0
C2400 C 0.89825 0.30662 0.24111 0.0
C2401 C 0.86324 0.28934 0.24087 0.0
C2402 C 0.84247 0.23723 0.24567 0.0
H2403 H 0.74249 0.18303 0.24443 0.0
H2404 H 0.77282 0.21325 0.24277 0.0
H2405 H 0.82404 0.20799 0.25101 0.0
H2406 H 0.91104 0.28858 0.23879 0.0
H2407 H 0.88057 0.25863 0.23718 0.0
H2408 H 0.82914 0.26368 0.22798 0.0
C2409 C 0.77292 0.19989 0.2418 0.0
C2410 C 0.82501 0.21996 0.24581 0.0
C2411 C 0.75554 0.18256 0.24282 0.0
C2412 C 0.89784 0.28909 0.23936 0.0
C2413 C 0.88036 0.27188 0.23851 0.0
C2414 C 0.82818 0.25165 0.23309 0.0
C2415 C 0.79027 0.19994 0.24 0.0
C2416 C 0.80889 0.2183 0.23962 0.0
C2417 C 0.86285 0.27176 0.23943 0.0
C2418 C 0.84429 0.2533 0.23931 0.0
H2419 H 0.77267 0.15164 0.23923 0.0
H2420 H 0.80286 0.18181 0.23736 0.0
H2421 H 0.79857 0.23347 0.22826 0.0
H2422 H 0.88052 0.31981 0.24306 0.0
H2423 H 0.85003 0.28975 0.24172 0.0
C2424 C 0.89523 0.63455 0.23927 0.0
C2425 C 0.89621 0.61779 0.24132 0.0
C2426 C 0.87748 0.63365 0.2381 0.0
C2427 C 0.82661 0.60346 0.24662 0.0
H2428 H 0.81905 0.63588 0.22349 0.0
C2429 C 0.75368 0.60063 0.24192 0.0
C2430 C 0.75438 0.61845 0.24132 0.0
C2431 C 0.77046 0.59958 0.24077 0.0
C2432 C 0.82098 0.62683 0.23005 0.0
H2433 H 0.87922 0.58683 0.24343 0.0
H2434 H 0.84826 0.58526 0.24129 0.0
H2435 H 0.84934 0.63573 0.22348 0.0
H2436 H 0.77328 0.6491 0.23875 0.0
H2437 H 0.80249 0.64726 0.23685 0.0
H2438 H 0.79839 0.59477 0.25332 0.0
C2439 C 0.86125 0.59914 0.24075 0.0
C2440 C 0.83833 0.62674 0.23005 0.0
C2441 C 0.87901 0.60004 0.24191 0.0
C2442 C 0.77219 0.63513 0.23926 0.0
C2443 C 0.78895 0.63407 0.23809 0.0
C2444 C 0.80927 0.60354 0.24662 0.0
C2445 C 0.86028 0.61596 0.23895 0.0
C2446 C 0.84143 0.61521 0.23842 0.0
C2447 C 0.78831 0.61631 0.23896 0.0
C2448 C 0.80632 0.61538 0.23843 0.0
H2449 H 0.90818 0.64847 0.23877 0.0
H2450 H 0.87725 0.6469 0.23686 0.0
H2451 H 0.82862 0.59462 0.25331 0.0
H2452 H 0.7402 0.58748 0.24345 0.0
H2453 H 0.76944 0.58564 0.24132 0.0
C2454 C 0.42842 0.29051 0.24016 0.0
C2455 C 0.44493 0.30797 0.24319 0.0
C2456 C 0.42918 0.27357 0.23932 0.0
C2457 C 0.46225 0.25431 0.23605 0.0
H2458 H 0.42017 0.20904 0.25111 0.0
C2459 C 0.46357 0.18364 0.24475 0.0
C2460 C 0.44631 0.16628 0.24283 0.0
C2461 C 0.464 0.20124 0.244 0.0
C2462 C 0.43192 0.22147 0.24672 0.0
H2463 H 0.47535 0.32139 0.24735 0.0
H2464 H 0.47663 0.29172 0.24599 0.0
H2465 H 0.41986 0.23913 0.25118 0.0
H2466 H 0.41614 0.15389 0.23815 0.0
H2467 H 0.41698 0.18449 0.23672 0.0
H2468 H 0.47434 0.23654 0.23168 0.0
C2469 C 0.46312 0.2912 0.24417 0.0
C2470 C 0.43174 0.23874 0.24676 0.0
C2471 C 0.46236 0.30818 0.24501 0.0
C2472 C 0.42965 0.16696 0.23979 0.0
C2473 C 0.4301 0.18451 0.23903 0.0
C2474 C 0.46243 0.23698 0.23601 0.0
C2475 C 0.44646 0.27365 0.24149 0.0
C2476 C 0.44685 0.25535 0.24139 0.0
C2477 C 0.44719 0.20184 0.24131 0.0
C2478 C 0.44721 0.22034 0.2413 0.0
H2479 H 0.41477 0.28982 0.2386 0.0
H2480 H 0.41617 0.26037 0.23701 0.0
H2481 H 0.47403 0.26681 0.23174 0.0
H2482 H 0.47666 0.18364 0.24711 0.0
H2483 H 0.47737 0.21433 0.24589 0.0
C2484 C 0.29127 0.89108 0.7655 0.0
C2485 C 0.30897 0.89235 0.76275 0.0
C2486 C 0.27469 0.87321 0.76695 0.0
C2487 C 0.25387 0.82245 0.75818 0.0
H2488 H 0.21523 0.81478 0.78244 0.0
C2489 C 0.18322 0.74996 0.76324 0.0
C2490 C 0.16638 0.75115 0.76414 0.0
C2491 C 0.20129 0.76645 0.76438 0.0
C2492 C 0.22585 0.81673 0.77558 0.0
H2493 H 0.32315 0.87576 0.75966 0.0
H2494 H 0.29417 0.84454 0.76229 0.0
H2495 H 0.24576 0.84495 0.78213 0.0
H2496 H 0.15538 0.77056 0.76728 0.0
H2497 H 0.18684 0.79924 0.76919 0.0
H2498 H 0.23384 0.79435 0.7515 0.0
C2499 C 0.29312 0.85741 0.76317 0.0
C2500 C 0.24333 0.83402 0.77539 0.0
C2501 C 0.30975 0.87531 0.76173 0.0
C2502 C 0.16803 0.76911 0.76653 0.0
C2503 C 0.18608 0.78556 0.76771 0.0
C2504 C 0.23639 0.80515 0.75837 0.0
C2505 C 0.27537 0.85615 0.76571 0.0
C2506 C 0.25744 0.8372 0.76657 0.0
C2507 C 0.20293 0.78447 0.76651 0.0
C2508 C 0.22206 0.80221 0.76696 0.0
H2509 H 0.29012 0.90389 0.76635 0.0
H2510 H 0.26122 0.87278 0.76873 0.0
H2511 H 0.26431 0.82451 0.75115 0.0
H2512 H 0.18248 0.73635 0.76144 0.0
H2513 H 0.214 0.76511 0.76355 0.0
C2514 C 0.30883 0.45946 0.762 0.0
C2515 C 0.3083 0.44171 0.76245 0.0
C2516 C 0.29196 0.46032 0.76321 0.0
C2517 C 0.24145 0.43251 0.7739 0.0
H2518 H 0.23356 0.46516 0.75117 0.0
C2519 C 0.16704 0.42476 0.76521 0.0
C2520 C 0.16602 0.44155 0.76339 0.0
C2521 C 0.18481 0.42568 0.76625 0.0
C2522 C 0.23564 0.45619 0.75771 0.0
H2523 H 0.28959 0.41097 0.76475 0.0
H2524 H 0.2602 0.41248 0.76673 0.0
H2525 H 0.26387 0.46518 0.75091 0.0
H2526 H 0.18295 0.47256 0.76157 0.0
H2527 H 0.21394 0.47415 0.7635 0.0
H2528 H 0.21308 0.42332 0.78057 0.0
C2529 C 0.27369 0.42576 0.76559 0.0
C2530 C 0.25303 0.4562 0.75756 0.0
C2531 C 0.29055 0.42489 0.76437 0.0
C2532 C 0.18319 0.45933 0.76291 0.0
C2533 C 0.20098 0.46024 0.76395 0.0
C2534 C 0.22405 0.4325 0.77404 0.0
C2535 C 0.27417 0.44346 0.76491 0.0
C2536 C 0.25607 0.44422 0.76557 0.0
C2537 C 0.20199 0.44341 0.7655 0.0
C2538 C 0.22087 0.4442 0.76587 0.0
H2539 H 0.32227 0.47271 0.76059 0.0
H2540 H 0.29286 0.47421 0.76281 0.0
H2541 H 0.24345 0.42334 0.78032 0.0
H2542 H 0.15411 0.41081 0.76561 0.0
H2543 H 0.18508 0.41241 0.7673 0.0
C2544 C 0.63374 0.76786 0.76449 0.0
C2545 C 0.61685 0.75011 0.76272 0.0
C2546 C 0.63298 0.78478 0.7656 0.0
C2547 C 0.60288 0.80567 0.75737 0.0
H2548 H 0.63599 0.84577 0.78022 0.0
C2549 C 0.60087 0.87623 0.76206 0.0
C2550 C 0.61877 0.89327 0.76264 0.0
C2551 C 0.59967 0.85833 0.76318 0.0
C2552 C 0.62676 0.83476 0.77373 0.0
H2553 H 0.58585 0.73624 0.76097 0.0
H2554 H 0.58454 0.76581 0.76297 0.0
H2555 H 0.63556 0.8152 0.78023 0.0
H2556 H 0.64942 0.90479 0.76506 0.0
H2557 H 0.64733 0.87362 0.76687 0.0
H2558 H 0.5943 0.82531 0.75072 0.0
C2559 C 0.59839 0.76662 0.76337 0.0
C2560 C 0.62651 0.81725 0.77374 0.0
C2561 C 0.59914 0.74966 0.76229 0.0
C2562 C 0.63539 0.89198 0.76459 0.0
C2563 C 0.63418 0.87409 0.7657 0.0
C2564 C 0.60315 0.82319 0.75735 0.0
C2565 C 0.61532 0.78439 0.76494 0.0
C2566 C 0.61472 0.80257 0.76547 0.0
C2567 C 0.61633 0.85704 0.7649 0.0
C2568 C 0.61524 0.83802 0.76544 0.0
H2569 H 0.64764 0.76877 0.76486 0.0
H2570 H 0.64631 0.79825 0.76665 0.0
H2571 H 0.59384 0.79477 0.75076 0.0
H2572 H 0.58777 0.87668 0.76062 0.0
H2573 H 0.58568 0.84548 0.76268 0.0
C2574 C 0.5609 0.62375 0.57115 0.0
C2575 C 0.56214 0.64162 0.57315 0.0
C2576 C 0.54303 0.60703 0.57008 0.0
C2577 C 0.49242 0.58695 0.57901 0.0
H2578 H 0.484 0.5465 0.55604 0.0
C2579 C 0.41915 0.51695 0.57518 0.0
C2580 C 0.41974 0.49978 0.57452 0.0
C2581 C 0.43595 0.53473 0.57387 0.0
C2582 C 0.48617 0.55761 0.56256 0.0
H2583 H 0.5455 0.65595 0.57529 0.0
H2584 H 0.51431 0.62675 0.57335 0.0
H2585 H 0.5144 0.57681 0.55568 0.0
H2586 H 0.43846 0.48787 0.57173 0.0
H2587 H 0.46771 0.51882 0.56958 0.0
H2588 H 0.46435 0.56766 0.58603 0.0
C2589 C 0.52719 0.62567 0.57275 0.0
C2590 C 0.50358 0.57498 0.56235 0.0
C2591 C 0.54508 0.64242 0.57379 0.0
C2592 C 0.43746 0.5008 0.57228 0.0
C2593 C 0.45424 0.51856 0.57096 0.0
C2594 C 0.47502 0.56958 0.57922 0.0
C2595 C 0.52596 0.60776 0.57102 0.0
C2596 C 0.507 0.58977 0.57067 0.0
C2597 C 0.45372 0.53575 0.57185 0.0
C2598 C 0.47176 0.55462 0.57109 0.0
H2599 H 0.57373 0.62257 0.57061 0.0
H2600 H 0.5426 0.59344 0.5689 0.0
H2601 H 0.49469 0.59794 0.58566 0.0
H2602 H 0.40574 0.51671 0.57684 0.0
H2603 H 0.43502 0.5477 0.57444 0.0
C2604 C 0.41971 0.93438 0.57654 0.0
C2605 C 0.41935 0.95163 0.57542 0.0
C2606 C 0.43708 0.93435 0.57576 0.0
C2607 C 0.48922 0.96652 0.5797 0.0
H2608 H 0.49325 0.92607 0.56294 0.0
C2609 C 0.562 0.96997 0.5736 0.0
C2610 C 0.56249 0.95299 0.57584 0.0
C2611 C 0.54448 0.96961 0.57271 0.0
C2612 C 0.49231 0.93738 0.56775 0.0
H2613 H 0.43695 0.98231 0.57223 0.0
H2614 H 0.46711 0.9822 0.57075 0.0
H2615 H 0.4627 0.92577 0.56286 0.0
H2616 H 0.54487 0.92222 0.57863 0.0
H2617 H 0.5143 0.92165 0.57718 0.0
H2618 H 0.5187 0.97806 0.58469 0.0
C2619 C 0.45402 0.96874 0.57244 0.0
C2620 C 0.47481 0.9372 0.5677 0.0
C2621 C 0.43669 0.96877 0.57322 0.0
C2622 C 0.54503 0.93557 0.57689 0.0
C2623 C 0.52749 0.93522 0.576 0.0
C2624 C 0.50667 0.96669 0.57975 0.0
C2625 C 0.45446 0.95157 0.57384 0.0
C2626 C 0.47307 0.95178 0.57368 0.0
C2627 C 0.52702 0.95228 0.57404 0.0
C2628 C 0.50845 0.95213 0.57378 0.0
H2629 H 0.40663 0.92091 0.57825 0.0
H2630 H 0.43693 0.92091 0.57699 0.0
H2631 H 0.48828 0.97776 0.5846 0.0
H2632 H 0.57516 0.98363 0.57267 0.0
H2633 H 0.54463 0.98296 0.57099 0.0
C2634 C 0.12475 0.64095 0.57499 0.0
C2635 C 0.10742 0.64127 0.57458 0.0
C2636 C 0.12471 0.62356 0.57415 0.0
C2637 C 0.09297 0.57155 0.5791 0.0
H2638 H 0.13226 0.56715 0.56107 0.0
C2639 C 0.08979 0.49884 0.57319 0.0
C2640 C 0.107 0.49864 0.57504 0.0
C2641 C 0.08988 0.51622 0.57221 0.0
C2642 C 0.12128 0.5682 0.56623 0.0
H2643 H 0.0765 0.62356 0.57258 0.0
H2644 H 0.07648 0.59334 0.57096 0.0
H2645 H 0.13231 0.59757 0.56097 0.0
H2646 H 0.13789 0.51662 0.57702 0.0
H2647 H 0.13801 0.54694 0.5754 0.0
H2648 H 0.082 0.54228 0.58443 0.0
C2649 C 0.09008 0.60649 0.57216 0.0
C2650 C 0.12131 0.58562 0.56617 0.0
C2651 C 0.09011 0.62385 0.57302 0.0
C2652 C 0.12437 0.51624 0.57559 0.0
C2653 C 0.12445 0.53363 0.5746 0.0
C2654 C 0.09293 0.55415 0.57914 0.0
C2655 C 0.10735 0.60611 0.57286 0.0
C2656 C 0.10717 0.58751 0.57264 0.0
C2657 C 0.10718 0.53382 0.57305 0.0
C2658 C 0.10709 0.55227 0.57273 0.0
H2659 H 0.13835 0.65409 0.5762 0.0
H2660 H 0.13826 0.62377 0.57485 0.0
H2661 H 0.08209 0.57259 0.58437 0.0
H2662 H 0.07615 0.48557 0.57265 0.0
H2663 H 0.07635 0.51586 0.57082 0.0
loop_
_geom_bond_atom_site_label_1
_geom_bond_atom_site_label_2
_geom_bond_distance
_geom_bond_site_symmetry_2
_ccdc_geom_bond_type
O0 Cd1 2.223 . S
O0 C8 1.315 . S
Cd1 O0 2.223 . S
Cd1 O4 2.297 . S
Cd1 O5 2.439 . S
Cd1 O11 2.240 . S
Cd2 O3 2.240 . S
Cd2 O10 2.223 1_455 S
Cd2 O12 2.290 1_455 S
Cd2 O13 2.439 . S
O3 Cd2 2.240 . S
O3 C8 1.279 . S
O4 Cd1 2.297 . S
O4 C6 1.247 . S
O5 Cd1 2.439 . S
O5 C6 1.208 . S
C6 O4 1.247 . S
C6 O5 1.208 . S
C7 O12 1.236 1_455 S
C7 O13 1.208 . S
C8 O0 1.315 . S
C8 O3 1.279 . S
C9 O10 1.315 . S
C9 O11 1.279 1_655 S
O10 Cd2 2.223 1_655 S
O10 C9 1.315 . S
O11 Cd1 2.240 . S
O11 C9 1.279 1_455 S
O12 Cd2 2.290 1_655 S
O12 C7 1.236 1_655 S
O13 Cd2 2.439 . S
O13 C7 1.208 . S
O14 Cd15 2.223 . S
O14 C22 1.315 . S
Cd15 O14 2.223 . S
Cd15 O18 2.297 . S
Cd15 O19 2.439 . S
Cd15 O25 2.240 . S
Cd16 O17 2.240 . S
Cd16 O24 2.223 . S
Cd16 O26 2.297 . S
Cd16 O27 2.439 . S
O17 Cd16 2.240 . S
O17 C22 1.279 . S
O18 Cd15 2.297 . S
O18 C20 1.247 . S
O19 Cd15 2.439 . S
O19 C20 1.208 . S
C20 O18 1.247 . S
C20 O19 1.208 . S
C21 O26 1.247 . S
C21 O27 1.208 . S
C22 O14 1.315 . S
C22 O17 1.279 . S
C23 O24 1.315 . S
C23 O25 1.279 . S
O24 Cd16 2.223 . S
O24 C23 1.315 . S
O25 Cd15 2.240 . S
O25 C23 1.279 . S
O26 Cd16 2.297 . S
O26 C21 1.247 . S
O27 Cd16 2.439 . S
O27 C21 1.208 . S
O28 Cd29 2.223 . S
O28 C36 1.315 . S
Cd29 O28 2.223 . S
Cd29 O32 2.297 1_545 S
Cd29 O33 2.439 1_545 S
Cd29 O39 2.240 . S
Cd30 O31 2.240 . S
Cd30 O38 2.223 . S
Cd30 O40 2.297 . S
Cd30 O41 2.439 . S
O31 Cd30 2.240 . S
O31 C36 1.279 . S
O32 Cd29 2.297 1_565 S
O32 C34 1.247 . S
O33 Cd29 2.439 1_565 S
O33 C34 1.208 . S
C34 O32 1.247 . S
C34 O33 1.208 . S
C35 O40 1.247 . S
C35 O41 1.208 . S
C36 O28 1.315 . S
C36 O31 1.279 . S
C37 O38 1.315 . S
C37 O39 1.279 . S
O38 Cd30 2.223 . S
O38 C37 1.315 . S
O39 Cd29 2.240 . S
O39 C37 1.279 . S
O40 Cd30 2.297 . S
O40 C35 1.247 . S
O41 Cd30 2.439 . S
O41 C35 1.208 . S
O42 Cd43 2.223 . S
O42 C50 1.315 . S
Cd43 O42 2.223 . S
Cd43 O46 2.297 . S
Cd43 O47 2.439 . S
Cd43 O53 2.240 . S
Cd44 O45 2.240 . S
Cd44 O52 2.223 1_545 S
Cd44 O54 2.290 1_545 S
Cd44 O55 2.439 . S
O45 Cd44 2.240 . S
O45 C50 1.279 . S
O46 Cd43 2.297 . S
O46 C48 1.247 . S
O47 Cd43 2.439 . S
O47 C48 1.208 . S
C48 O46 1.247 . S
C48 O47 1.208 . S
C49 O54 1.236 1_545 S
C49 O55 1.208 . S
C50 O42 1.315 . S
C50 O45 1.279 . S
C51 O52 1.315 . S
C51 O53 1.279 1_565 S
O52 Cd44 2.223 1_565 S
O52 C51 1.315 . S
O53 Cd43 2.240 . S
O53 C51 1.279 1_545 S
O54 Cd44 2.290 1_565 S
O54 C49 1.236 1_565 S
O55 Cd44 2.439 . S
O55 C49 1.208 . S
O56 Cd57 2.223 . S
O56 C64 1.315 . S
Cd57 O56 2.223 . S
Cd57 O60 2.297 1_455 S
Cd57 O61 2.439 1_455 S
Cd57 O67 2.240 . S
Cd58 O59 2.240 . S
Cd58 O66 2.223 . S
Cd58 O68 2.297 . S
Cd58 O69 2.439 . S
O59 Cd58 2.240 . S
O59 C64 1.279 . S
O60 Cd57 2.297 1_655 S
O60 C62 1.247 . S
O61 Cd57 2.439 1_655 S
O61 C62 1.208 . S
C62 O60 1.247 . S
C62 O61 1.208 . S
C63 O68 1.247 . S
C63 O69 1.208 . S
C64 O56 1.315 . S
C64 O59 1.279 . S
C65 O66 1.315 . S
C65 O67 1.279 . S
O66 Cd58 2.223 . S
O66 C65 1.315 . S
O67 Cd57 2.240 . S
O67 C65 1.279 . S
O68 Cd58 2.297 . S
O68 C63 1.247 . S
O69 Cd58 2.439 . S
O69 C63 1.208 . S
O70 Cd71 2.223 . S
O70 C78 1.315 . S
Cd71 O70 2.223 . S
Cd71 O74 2.297 . S
Cd71 O75 2.439 . S
Cd71 O81 2.240 . S
Cd72 O73 2.240 . S
Cd72 O80 2.223 . S
Cd72 O82 2.297 . S
Cd72 O83 2.439 . S
O73 Cd72 2.240 . S
O73 C78 1.279 . S
O74 Cd71 2.297 . S
O74 C76 1.247 . S
O75 Cd71 2.439 . S
O75 C76 1.208 . S
C76 O74 1.247 . S
C76 O75 1.208 . S
C77 O82 1.247 . S
C77 O83 1.208 . S
C78 O70 1.315 . S
C78 O73 1.279 . S
C79 O80 1.315 . S
C79 O81 1.279 . S
O80 Cd72 2.223 . S
O80 C79 1.315 . S
O81 Cd71 2.240 . S
O81 C79 1.279 . S
O82 Cd72 2.297 . S
O82 C77 1.247 . S
O83 Cd72 2.439 . S
O83 C77 1.208 . S
O84 Cd85 2.223 . S
O84 C92 1.315 . S
Cd85 O84 2.223 . S
Cd85 O88 2.297 1_455 S
Cd85 O89 2.439 1_455 S
Cd85 O95 2.240 . S
Cd86 O87 2.240 . S
Cd86 O94 2.223 . S
Cd86 O96 2.297 . S
Cd86 O97 2.439 . S
O87 Cd86 2.240 . S
O87 C92 1.279 . S
O88 Cd85 2.297 1_655 S
O88 C90 1.247 . S
O89 Cd85 2.439 1_655 S
O89 C90 1.208 . S
C90 O88 1.247 . S
C90 O89 1.208 . S
C91 O96 1.247 . S
C91 O97 1.208 . S
C92 O84 1.315 . S
C92 O87 1.279 . S
C93 O94 1.315 . S
C93 O95 1.279 . S
O94 Cd86 2.223 . S
O94 C93 1.315 . S
O95 Cd85 2.240 . S
O95 C93 1.279 . S
O96 Cd86 2.297 . S
O96 C91 1.247 . S
O97 Cd86 2.439 . S
O97 C91 1.208 . S
O98 Cd99 2.223 . S
O98 C106 1.315 . S
Cd99 O98 2.223 . S
Cd99 O102 2.297 . S
Cd99 O103 2.439 . S
Cd99 O109 2.240 . S
Cd100 O101 2.240 . S
Cd100 O108 2.223 . S
Cd100 O110 2.297 . S
Cd100 O111 2.439 . S
O101 Cd100 2.240 . S
O101 C106 1.279 . S
O102 Cd99 2.297 . S
O102 C104 1.247 . S
O103 Cd99 2.439 . S
O103 C104 1.208 . S
C104 O102 1.247 . S
C104 O103 1.208 . S
C105 O110 1.247 . S
C105 O111 1.208 . S
C106 O98 1.315 . S
C106 O101 1.279 . S
C107 O108 1.315 . S
C107 O109 1.279 . S
O108 Cd100 2.223 . S
O108 C107 1.315 . S
O109 Cd99 2.240 . S
O109 C107 1.279 . S
O110 Cd100 2.297 . S
O110 C105 1.247 . S
O111 Cd100 2.439 . S
O111 C105 1.208 . S
O112 Cd113 2.223 . S
O112 C120 1.315 . S
Cd113 O112 2.223 . S
Cd113 O116 2.297 . S
Cd113 O117 2.439 . S
Cd113 O123 2.240 . S
Cd114 O115 2.240 . S
Cd114 O122 2.223 1_545 S
Cd114 O124 2.295 1_545 S
Cd114 O125 2.439 . S
O115 Cd114 2.240 . S
O115 C120 1.279 . S
O116 Cd113 2.297 . S
O116 C118 1.247 . S
O117 Cd113 2.439 . S
O117 C118 1.208 . S
C118 O116 1.247 . S
C118 O117 1.208 . S
C119 O124 1.241 1_545 S
C119 O125 1.208 . S
C120 O112 1.315 . S
C120 O115 1.279 . S
C121 O122 1.315 . S
C121 O123 1.279 1_565 S
O122 Cd114 2.223 1_565 S
O122 C121 1.315 . S
O123 Cd113 2.240 . S
O123 C121 1.279 1_545 S
O124 Cd114 2.295 1_565 S
O124 C119 1.241 1_565 S
O125 Cd114 2.439 . S
O125 C119 1.208 . S
O126 Cd127 2.223 . S
O126 C134 1.315 . S
Cd127 O126 2.223 . S
Cd127 O130 2.297 1_545 S
Cd127 O131 2.439 1_545 S
Cd127 O137 2.240 . S
Cd128 O129 2.240 . S
Cd128 O136 2.223 . S
Cd128 O138 2.297 . S
Cd128 O139 2.439 . S
O129 Cd128 2.240 . S
O129 C134 1.279 . S
O130 Cd127 2.297 1_565 S
O130 C132 1.247 . S
O131 Cd127 2.439 1_565 S
O131 C132 1.208 . S
C132 O130 1.247 . S
C132 O131 1.208 . S
C133 O138 1.247 . S
C133 O139 1.208 . S
C134 O126 1.315 . S
C134 O129 1.279 . S
C135 O136 1.315 . S
C135 O137 1.279 . S
O136 Cd128 2.223 . S
O136 C135 1.315 . S
O137 Cd127 2.240 . S
O137 C135 1.279 . S
O138 Cd128 2.297 . S
O138 C133 1.247 . S
O139 Cd128 2.439 . S
O139 C133 1.208 . S
O140 Cd141 2.223 . S
O140 C148 1.315 . S
Cd141 O140 2.223 . S
Cd141 O144 2.297 . S
Cd141 O145 2.439 . S
Cd141 O151 2.240 . S
Cd142 O143 2.240 . S
Cd142 O150 2.223 1_455 S
Cd142 O152 2.295 1_455 S
Cd142 O153 2.439 . S
O143 Cd142 2.240 . S
O143 C148 1.279 . S
O144 Cd141 2.297 . S
O144 C146 1.247 . S
O145 Cd141 2.439 . S
O145 C146 1.208 . S
C146 O144 1.247 . S
C146 O145 1.208 . S
C147 O152 1.241 1_455 S
C147 O153 1.208 . S
C148 O140 1.315 . S
C148 O143 1.279 . S
C149 O150 1.315 . S
C149 O151 1.279 1_655 S
O150 Cd142 2.223 1_655 S
O150 C149 1.315 . S
O151 Cd141 2.240 . S
O151 C149 1.279 1_455 S
O152 Cd142 2.295 1_655 S
O152 C147 1.241 1_655 S
O153 Cd142 2.439 . S
O153 C147 1.208 . S
O154 Cd155 2.223 . S
O154 C162 1.315 . S
Cd155 O154 2.223 . S
Cd155 O158 2.297 . S
Cd155 O159 2.439 . S
Cd155 O165 2.240 . S
Cd156 O157 2.240 . S
Cd156 O164 2.223 . S
Cd156 O166 2.297 . S
Cd156 O167 2.439 . S
O157 Cd156 2.240 . S
O157 C162 1.279 . S
O158 Cd155 2.297 . S
O158 C160 1.247 . S
O159 Cd155 2.439 . S
O159 C160 1.208 . S
C160 O158 1.247 . S
C160 O159 1.208 . S
C161 O166 1.247 . S
C161 O167 1.208 . S
C162 O154 1.315 . S
C162 O157 1.279 . S
C163 O164 1.315 . S
C163 O165 1.279 . S
O164 Cd156 2.223 . S
O164 C163 1.315 . S
O165 Cd155 2.240 . S
O165 C163 1.279 . S
O166 Cd156 2.297 . S
O166 C161 1.247 . S
O167 Cd156 2.439 . S
O167 C161 1.208 . S
O168 Cd169 2.223 . S
O168 C176 1.315 . S
Cd169 O168 2.223 . S
Cd169 O172 2.297 . S
Cd169 O173 2.439 . S
Cd169 O179 2.240 . S
Cd170 O171 2.240 . S
Cd170 O178 2.223 . S
Cd170 O180 2.297 . S
Cd170 O181 2.439 . S
O171 Cd170 2.240 . S
O171 C176 1.279 . S
O172 Cd169 2.297 . S
O172 C174 1.247 . S
O173 Cd169 2.439 . S
O173 C174 1.208 . S
C174 O172 1.247 . S
C174 O173 1.208 . S
C175 O180 1.247 . S
C175 O181 1.208 . S
C176 O168 1.315 . S
C176 O171 1.279 . S
C177 O178 1.315 . S
C177 O179 1.279 . S
O178 Cd170 2.223 . S
O178 C177 1.315 . S
O179 Cd169 2.240 . S
O179 C177 1.279 . S
O180 Cd170 2.297 . S
O180 C175 1.247 . S
O181 Cd170 2.439 . S
O181 C175 1.208 . S
O182 Cd183 2.223 . S
O182 C190 1.315 . S
Cd183 O182 2.223 . S
Cd183 O186 2.297 . S
Cd183 O187 2.439 . S
Cd183 O193 2.240 . S
Cd184 O185 2.240 . S
Cd184 O192 2.223 . S
Cd184 O194 2.297 . S
Cd184 O195 2.439 . S
O185 Cd184 2.240 . S
O185 C190 1.279 . S
O186 Cd183 2.297 . S
O186 C188 1.247 . S
O187 Cd183 2.439 . S
O187 C188 1.208 . S
C188 O186 1.247 . S
C188 O187 1.208 . S
C189 O194 1.247 . S
C189 O195 1.208 . S
C190 O182 1.315 . S
C190 O185 1.279 . S
C191 O192 1.315 . S
C191 O193 1.279 . S
O192 Cd184 2.223 . S
O192 C191 1.315 . S
O193 Cd183 2.240 . S
O193 C191 1.279 . S
O194 Cd184 2.297 . S
O194 C189 1.247 . S
O195 Cd184 2.439 . S
O195 C189 1.208 . S
O196 Cd197 2.223 . S
O196 C204 1.315 . S
Cd197 O196 2.223 . S
Cd197 O200 2.297 . S
Cd197 O201 2.439 . S
Cd197 O207 2.240 . S
Cd198 O199 2.240 . S
Cd198 O206 2.223 . S
Cd198 O208 2.297 . S
Cd198 O209 2.439 . S
O199 Cd198 2.240 . S
O199 C204 1.279 . S
O200 Cd197 2.297 . S
O200 C202 1.247 . S
O201 Cd197 2.439 . S
O201 C202 1.208 . S
C202 O200 1.247 . S
C202 O201 1.208 . S
C203 O208 1.247 . S
C203 O209 1.208 . S
C204 O196 1.315 . S
C204 O199 1.279 . S
C205 O206 1.315 . S
C205 O207 1.279 . S
O206 Cd198 2.223 . S
O206 C205 1.315 . S
O207 Cd197 2.240 . S
O207 C205 1.279 . S
O208 Cd198 2.297 . S
O208 C203 1.247 . S
O209 Cd198 2.439 . S
O209 C203 1.208 . S
O210 Cd211 2.223 . S
O210 C218 1.315 . S
Cd211 O210 2.223 . S
Cd211 O214 2.297 . S
Cd211 O215 2.439 . S
Cd211 O221 2.240 . S
Cd212 O213 2.240 . S
Cd212 O220 2.223 . S
Cd212 O222 2.297 . S
Cd212 O223 2.439 . S
O213 Cd212 2.240 . S
O213 C218 1.279 . S
O214 Cd211 2.297 . S
O214 C216 1.247 . S
O215 Cd211 2.439 . S
O215 C216 1.208 . S
C216 O214 1.247 . S
C216 O215 1.208 . S
C217 O222 1.247 . S
C217 O223 1.208 . S
C218 O210 1.315 . S
C218 O213 1.279 . S
C219 O220 1.315 . S
C219 O221 1.279 . S
O220 Cd212 2.223 . S
O220 C219 1.315 . S
O221 Cd211 2.240 . S
O221 C219 1.279 . S
O222 Cd212 2.297 . S
O222 C217 1.247 . S
O223 Cd212 2.439 . S
O223 C217 1.208 . S
O224 Cd225 2.223 . S
O224 C232 1.315 . S
Cd225 O224 2.223 . S
Cd225 O228 2.297 . S
Cd225 O229 2.439 . S
Cd225 O235 2.240 . S
Cd226 O227 2.240 . S
Cd226 O234 2.223 . S
Cd226 O236 2.297 . S
Cd226 O237 2.439 . S
O227 Cd226 2.240 . S
O227 C232 1.279 . S
O228 Cd225 2.297 . S
O228 C230 1.247 . S
O229 Cd225 2.439 . S
O229 C230 1.208 . S
C230 O228 1.247 . S
C230 O229 1.208 . S
C231 O236 1.247 . S
C231 O237 1.208 . S
C232 O224 1.315 . S
C232 O227 1.279 . S
C233 O234 1.315 . S
C233 O235 1.279 . S
O234 Cd226 2.223 . S
O234 C233 1.315 . S
O235 Cd225 2.240 . S
O235 C233 1.279 . S
O236 Cd226 2.297 . S
O236 C231 1.247 . S
O237 Cd226 2.439 . S
O237 C231 1.208 . S
O238 Cd239 2.223 . S
O238 C246 1.315 . S
Cd239 O238 2.223 . S
Cd239 O242 2.297 . S
Cd239 O243 2.439 . S
Cd239 O249 2.240 . S
Cd240 O241 2.240 . S
Cd240 O248 2.223 . S
Cd240 O250 2.297 . S
Cd240 O251 2.439 . S
O241 Cd240 2.240 . S
O241 C246 1.279 . S
O242 Cd239 2.297 . S
O242 C244 1.247 . S
O243 Cd239 2.439 . S
O243 C244 1.208 . S
C244 O242 1.247 . S
C244 O243 1.208 . S
C245 O250 1.247 . S
C245 O251 1.208 . S
C246 O238 1.315 . S
C246 O241 1.279 . S
C247 O248 1.315 . S
C247 O249 1.279 . S
O248 Cd240 2.223 . S
O248 C247 1.315 . S
O249 Cd239 2.240 . S
O249 C247 1.279 . S
O250 Cd240 2.297 . S
O250 C245 1.247 . S
O251 Cd240 2.439 . S
O251 C245 1.208 . S
O252 Cd253 2.223 . S
O252 C260 1.315 . S
Cd253 O252 2.223 . S
Cd253 O256 2.297 . S
Cd253 O257 2.439 . S
Cd253 O263 2.240 . S
Cd254 O255 2.240 . S
Cd254 O262 2.223 . S
Cd254 O264 2.297 . S
Cd254 O265 2.439 . S
O255 Cd254 2.240 . S
O255 C260 1.279 . S
O256 Cd253 2.297 . S
O256 C258 1.247 . S
O257 Cd253 2.439 . S
O257 C258 1.208 . S
C258 O256 1.247 . S
C258 O257 1.208 . S
C259 O264 1.247 . S
C259 O265 1.208 . S
C260 O252 1.315 . S
C260 O255 1.279 . S
C261 O262 1.315 . S
C261 O263 1.279 . S
O262 Cd254 2.223 . S
O262 C261 1.315 . S
O263 Cd253 2.240 . S
O263 C261 1.279 . S
O264 Cd254 2.297 . S
O264 C259 1.247 . S
O265 Cd254 2.439 . S
O265 C259 1.208 . S
O266 Cd267 2.223 . S
O266 C274 1.315 . S
Cd267 O266 2.223 . S
Cd267 O270 2.297 . S
Cd267 O271 2.439 . S
Cd267 O277 2.240 . S
Cd268 O269 2.240 . S
Cd268 O276 2.223 . S
Cd268 O278 2.297 . S
Cd268 O279 2.439 . S
O269 Cd268 2.240 . S
O269 C274 1.279 . S
O270 Cd267 2.297 . S
O270 C272 1.247 . S
O271 Cd267 2.439 . S
O271 C272 1.208 . S
C272 O270 1.247 . S
C272 O271 1.208 . S
C273 O278 1.247 . S
C273 O279 1.208 . S
C274 O266 1.315 . S
C274 O269 1.279 . S
C275 O276 1.315 . S
C275 O277 1.279 . S
O276 Cd268 2.223 . S
O276 C275 1.315 . S
O277 Cd267 2.240 . S
O277 C275 1.279 . S
O278 Cd268 2.297 . S
O278 C273 1.247 . S
O279 Cd268 2.439 . S
O279 C273 1.208 . S
O280 Cd281 2.223 . S
O280 C288 1.315 . S
Cd281 O280 2.223 . S
Cd281 O284 2.297 . S
Cd281 O285 2.439 . S
Cd281 O291 2.240 . S
Cd282 O283 2.240 . S
Cd282 O290 2.223 . S
Cd282 O292 2.297 . S
Cd282 O293 2.439 . S
O283 Cd282 2.240 . S
O283 C288 1.279 . S
O284 Cd281 2.297 . S
O284 C286 1.247 . S
O285 Cd281 2.439 . S
O285 C286 1.208 . S
C286 O284 1.247 . S
C286 O285 1.208 . S
C287 O292 1.247 . S
C287 O293 1.208 . S
C288 O280 1.315 . S
C288 O283 1.279 . S
C289 O290 1.315 . S
C289 O291 1.279 . S
O290 Cd282 2.223 . S
O290 C289 1.315 . S
O291 Cd281 2.240 . S
O291 C289 1.279 . S
O292 Cd282 2.297 . S
O292 C287 1.247 . S
O293 Cd282 2.439 . S
O293 C287 1.208 . S
O294 Cd295 2.223 . S
O294 C302 1.315 . S
Cd295 O294 2.223 . S
Cd295 O298 2.297 . S
Cd295 O299 2.439 . S
Cd295 O305 2.240 . S
Cd296 O297 2.240 . S
Cd296 O304 2.223 . S
Cd296 O306 2.297 . S
Cd296 O307 2.439 . S
O297 Cd296 2.240 . S
O297 C302 1.279 . S
O298 Cd295 2.297 . S
O298 C300 1.247 . S
O299 Cd295 2.439 . S
O299 C300 1.208 . S
C300 O298 1.247 . S
C300 O299 1.208 . S
C301 O306 1.247 . S
C301 O307 1.208 . S
C302 O294 1.315 . S
C302 O297 1.279 . S
C303 O304 1.315 . S
C303 O305 1.279 . S
O304 Cd296 2.223 . S
O304 C303 1.315 . S
O305 Cd295 2.240 . S
O305 C303 1.279 . S
O306 Cd296 2.297 . S
O306 C301 1.247 . S
O307 Cd296 2.439 . S
O307 C301 1.208 . S
O308 Cd309 2.223 . S
O308 C316 1.315 . S
Cd309 O308 2.223 . S
Cd309 O312 2.297 . S
Cd309 O313 2.439 . S
Cd309 O319 2.240 . S
Cd310 O311 2.240 . S
Cd310 O318 2.223 . S
Cd310 O320 2.297 . S
Cd310 O321 2.439 . S
O311 Cd310 2.240 . S
O311 C316 1.279 . S
O312 Cd309 2.297 . S
O312 C314 1.247 . S
O313 Cd309 2.439 . S
O313 C314 1.208 . S
C314 O312 1.247 . S
C314 O313 1.208 . S
C315 O320 1.247 . S
C315 O321 1.208 . S
C316 O308 1.315 . S
C316 O311 1.279 . S
C317 O318 1.315 . S
C317 O319 1.279 . S
O318 Cd310 2.223 . S
O318 C317 1.315 . S
O319 Cd309 2.240 . S
O319 C317 1.279 . S
O320 Cd310 2.297 . S
O320 C315 1.247 . S
O321 Cd310 2.439 . S
O321 C315 1.208 . S
O322 Cd323 2.223 . S
O322 C330 1.315 . S
Cd323 O322 2.223 . S
Cd323 O326 2.297 . S
Cd323 O327 2.439 . S
Cd323 O333 2.240 . S
Cd324 O325 2.240 . S
Cd324 O332 2.223 . S
Cd324 O334 2.297 . S
Cd324 O335 2.439 . S
O325 Cd324 2.240 . S
O325 C330 1.279 . S
O326 Cd323 2.297 . S
O326 C328 1.247 . S
O327 Cd323 2.439 . S
O327 C328 1.208 . S
C328 O326 1.247 . S
C328 O327 1.208 . S
C329 O334 1.247 . S
C329 O335 1.208 . S
C330 O322 1.315 . S
C330 O325 1.279 . S
C331 O332 1.315 . S
C331 O333 1.279 . S
O332 Cd324 2.223 . S
O332 C331 1.315 . S
O333 Cd323 2.240 . S
O333 C331 1.279 . S
O334 Cd324 2.297 . S
O334 C329 1.247 . S
O335 Cd324 2.439 . S
O335 C329 1.208 . S
O336 Cd337 2.223 . S
O336 C344 1.315 . S
Cd337 O336 2.223 . S
Cd337 O340 2.297 . S
Cd337 O341 2.439 . S
Cd337 O347 2.240 . S
Cd338 O339 2.240 . S
Cd338 O346 2.223 . S
Cd338 O348 2.297 . S
Cd338 O349 2.439 . S
O339 Cd338 2.240 . S
O339 C344 1.279 . S
O340 Cd337 2.297 . S
O340 C342 1.247 . S
O341 Cd337 2.439 . S
O341 C342 1.208 . S
C342 O340 1.247 . S
C342 O341 1.208 . S
C343 O348 1.247 . S
C343 O349 1.208 . S
C344 O336 1.315 . S
C344 O339 1.279 . S
C345 O346 1.315 . S
C345 O347 1.279 . S
O346 Cd338 2.223 . S
O346 C345 1.315 . S
O347 Cd337 2.240 . S
O347 C345 1.279 . S
O348 Cd338 2.297 . S
O348 C343 1.247 . S
O349 Cd338 2.439 . S
O349 C343 1.208 . S
O350 Cd351 2.223 . S
O350 C358 1.315 . S
Cd351 O350 2.223 . S
Cd351 O354 2.297 . S
Cd351 O355 2.439 . S
Cd351 O361 2.240 . S
Cd352 O353 2.240 . S
Cd352 O360 2.223 . S
Cd352 O362 2.297 . S
Cd352 O363 2.439 . S
O353 Cd352 2.240 . S
O353 C358 1.279 . S
O354 Cd351 2.297 . S
O354 C356 1.247 . S
O355 Cd351 2.439 . S
O355 C356 1.208 . S
C356 O354 1.247 . S
C356 O355 1.208 . S
C357 O362 1.247 . S
C357 O363 1.208 . S
C358 O350 1.315 . S
C358 O353 1.279 . S
C359 O360 1.315 . S
C359 O361 1.279 . S
O360 Cd352 2.223 . S
O360 C359 1.315 . S
O361 Cd351 2.240 . S
O361 C359 1.279 . S
O362 Cd352 2.297 . S
O362 C357 1.247 . S
O363 Cd352 2.439 . S
O363 C357 1.208 . S
O364 Cd365 2.223 . S
O364 C372 1.315 . S
Cd365 O364 2.223 . S
Cd365 O368 2.297 . S
Cd365 O369 2.439 . S
Cd365 O375 2.240 . S
Cd366 O367 2.240 . S
Cd366 O374 2.223 . S
Cd366 O376 2.297 . S
Cd366 O377 2.439 . S
O367 Cd366 2.240 . S
O367 C372 1.279 . S
O368 Cd365 2.297 . S
O368 C370 1.247 . S
O369 Cd365 2.439 . S
O369 C370 1.208 . S
C370 O368 1.247 . S
C370 O369 1.208 . S
C371 O376 1.247 . S
C371 O377 1.208 . S
C372 O364 1.315 . S
C372 O367 1.279 . S
C373 O374 1.315 . S
C373 O375 1.279 . S
O374 Cd366 2.223 . S
O374 C373 1.315 . S
O375 Cd365 2.240 . S
O375 C373 1.279 . S
O376 Cd366 2.297 . S
O376 C371 1.247 . S
O377 Cd366 2.439 . S
O377 C371 1.208 . S
O378 Cd379 2.223 . S
O378 C386 1.315 . S
Cd379 O378 2.223 . S
Cd379 O382 2.297 . S
Cd379 O383 2.439 . S
Cd379 O389 2.240 . S
Cd380 O381 2.240 . S
Cd380 O388 2.223 . S
Cd380 O390 2.297 . S
Cd380 O391 2.439 . S
O381 Cd380 2.240 . S
O381 C386 1.279 . S
O382 Cd379 2.297 . S
O382 C384 1.247 . S
O383 Cd379 2.439 . S
O383 C384 1.208 . S
C384 O382 1.247 . S
C384 O383 1.208 . S
C385 O390 1.247 . S
C385 O391 1.208 . S
C386 O378 1.315 . S
C386 O381 1.279 . S
C387 O388 1.315 . S
C387 O389 1.279 . S
O388 Cd380 2.223 . S
O388 C387 1.315 . S
O389 Cd379 2.240 . S
O389 C387 1.279 . S
O390 Cd380 2.297 . S
O390 C385 1.247 . S
O391 Cd380 2.439 . S
O391 C385 1.208 . S
O392 Cd393 2.223 . S
O392 C400 1.315 . S
Cd393 O392 2.223 . S
Cd393 O396 2.297 . S
Cd393 O397 2.439 . S
Cd393 O403 2.240 . S
Cd394 O395 2.240 . S
Cd394 O402 2.223 . S
Cd394 O404 2.297 . S
Cd394 O405 2.439 . S
O395 Cd394 2.240 . S
O395 C400 1.279 . S
O396 Cd393 2.297 . S
O396 C398 1.247 . S
O397 Cd393 2.439 . S
O397 C398 1.208 . S
C398 O396 1.247 . S
C398 O397 1.208 . S
C399 O404 1.247 . S
C399 O405 1.208 . S
C400 O392 1.315 . S
C400 O395 1.279 . S
C401 O402 1.315 . S
C401 O403 1.279 . S
O402 Cd394 2.223 . S
O402 C401 1.315 . S
O403 Cd393 2.240 . S
O403 C401 1.279 . S
O404 Cd394 2.297 . S
O404 C399 1.247 . S
O405 Cd394 2.439 . S
O405 C399 1.208 . S
O406 Cd407 2.223 . S
O406 C414 1.315 . S
Cd407 O406 2.223 . S
Cd407 O410 2.297 . S
Cd407 O411 2.439 . S
Cd407 O417 2.240 . S
Cd408 O409 2.240 . S
Cd408 O416 2.223 . S
Cd408 O418 2.297 . S
Cd408 O419 2.439 . S
O409 Cd408 2.240 . S
O409 C414 1.279 . S
O410 Cd407 2.297 . S
O410 C412 1.247 . S
O411 Cd407 2.439 . S
O411 C412 1.208 . S
C412 O410 1.247 . S
C412 O411 1.208 . S
C413 O418 1.247 . S
C413 O419 1.208 . S
C414 O406 1.315 . S
C414 O409 1.279 . S
C415 O416 1.315 . S
C415 O417 1.279 . S
O416 Cd408 2.223 . S
O416 C415 1.315 . S
O417 Cd407 2.240 . S
O417 C415 1.279 . S
O418 Cd408 2.297 . S
O418 C413 1.247 . S
O419 Cd408 2.439 . S
O419 C413 1.208 . S
O420 Cd421 2.223 . S
O420 C428 1.315 . S
Cd421 O420 2.223 . S
Cd421 O424 2.297 . S
Cd421 O425 2.439 . S
Cd421 O431 2.240 . S
Cd422 O423 2.240 . S
Cd422 O430 2.223 . S
Cd422 O432 2.297 . S
Cd422 O433 2.439 . S
O423 Cd422 2.240 . S
O423 C428 1.279 . S
O424 Cd421 2.297 . S
O424 C426 1.247 . S
O425 Cd421 2.439 . S
O425 C426 1.208 . S
C426 O424 1.247 . S
C426 O425 1.208 . S
C427 O432 1.247 . S
C427 O433 1.208 . S
C428 O420 1.315 . S
C428 O423 1.279 . S
C429 O430 1.315 . S
C429 O431 1.279 . S
O430 Cd422 2.223 . S
O430 C429 1.315 . S
O431 Cd421 2.240 . S
O431 C429 1.279 . S
O432 Cd422 2.297 . S
O432 C427 1.247 . S
O433 Cd422 2.439 . S
O433 C427 1.208 . S
O434 Cd435 2.223 . S
O434 C442 1.315 . S
Cd435 O434 2.223 . S
Cd435 O438 2.297 . S
Cd435 O439 2.439 . S
Cd435 O445 2.240 . S
Cd436 O437 2.240 . S
Cd436 O444 2.223 . S
Cd436 O446 2.297 . S
Cd436 O447 2.439 . S
O437 Cd436 2.240 . S
O437 C442 1.279 . S
O438 Cd435 2.297 . S
O438 C440 1.247 . S
O439 Cd435 2.439 . S
O439 C440 1.208 . S
C440 O438 1.247 . S
C440 O439 1.208 . S
C441 O446 1.247 . S
C441 O447 1.208 . S
C442 O434 1.315 . S
C442 O437 1.279 . S
C443 O444 1.315 . S
C443 O445 1.279 . S
O444 Cd436 2.223 . S
O444 C443 1.315 . S
O445 Cd435 2.240 . S
O445 C443 1.279 . S
O446 Cd436 2.297 . S
O446 C441 1.247 . S
O447 Cd436 2.439 . S
O447 C441 1.208 . S
O448 Cd449 2.223 . S
O448 C456 1.315 . S
Cd449 O448 2.223 . S
Cd449 O452 2.297 . S
Cd449 O453 2.439 . S
Cd449 O459 2.240 . S
Cd450 O451 2.240 . S
Cd450 O458 2.223 . S
Cd450 O460 2.297 . S
Cd450 O461 2.439 . S
O451 Cd450 2.240 . S
O451 C456 1.279 . S
O452 Cd449 2.297 . S
O452 C454 1.247 . S
O453 Cd449 2.439 . S
O453 C454 1.208 . S
C454 O452 1.247 . S
C454 O453 1.208 . S
C455 O460 1.247 . S
C455 O461 1.208 . S
C456 O448 1.315 . S
C456 O451 1.279 . S
C457 O458 1.315 . S
C457 O459 1.279 . S
O458 Cd450 2.223 . S
O458 C457 1.315 . S
O459 Cd449 2.240 . S
O459 C457 1.279 . S
O460 Cd450 2.297 . S
O460 C455 1.247 . S
O461 Cd450 2.439 . S
O461 C455 1.208 . S
O462 Cd463 2.223 . S
O462 C470 1.315 . S
Cd463 O462 2.223 . S
Cd463 O466 2.297 . S
Cd463 O467 2.439 . S
Cd463 O473 2.240 . S
Cd464 O465 2.240 . S
Cd464 O472 2.223 . S
Cd464 O474 2.297 . S
Cd464 O475 2.439 . S
O465 Cd464 2.240 . S
O465 C470 1.279 . S
O466 Cd463 2.297 . S
O466 C468 1.247 . S
O467 Cd463 2.439 . S
O467 C468 1.208 . S
C468 O466 1.247 . S
C468 O467 1.208 . S
C469 O474 1.247 . S
C469 O475 1.208 . S
C470 O462 1.315 . S
C470 O465 1.279 . S
C471 O472 1.315 . S
C471 O473 1.279 . S
O472 Cd464 2.223 . S
O472 C471 1.315 . S
O473 Cd463 2.240 . S
O473 C471 1.279 . S
O474 Cd464 2.297 . S
O474 C469 1.247 . S
O475 Cd464 2.439 . S
O475 C469 1.208 . S
O476 Cd477 2.223 . S
O476 C484 1.315 . S
Cd477 O476 2.223 . S
Cd477 O480 2.297 . S
Cd477 O481 2.439 . S
Cd477 O487 2.240 . S
Cd478 O479 2.240 . S
Cd478 O486 2.223 . S
Cd478 O488 2.297 . S
Cd478 O489 2.439 . S
O479 Cd478 2.240 . S
O479 C484 1.279 . S
O480 Cd477 2.297 . S
O480 C482 1.247 . S
O481 Cd477 2.439 . S
O481 C482 1.208 . S
C482 O480 1.247 . S
C482 O481 1.208 . S
C483 O488 1.247 . S
C483 O489 1.208 . S
C484 O476 1.315 . S
C484 O479 1.279 . S
C485 O486 1.315 . S
C485 O487 1.279 . S
O486 Cd478 2.223 . S
O486 C485 1.315 . S
O487 Cd477 2.240 . S
O487 C485 1.279 . S
O488 Cd478 2.297 . S
O488 C483 1.247 . S
O489 Cd478 2.439 . S
O489 C483 1.208 . S
O490 Cd491 2.223 . S
O490 C498 1.315 . S
Cd491 O490 2.223 . S
Cd491 O494 2.297 . S
Cd491 O495 2.439 . S
Cd491 O501 2.240 . S
Cd492 O493 2.240 . S
Cd492 O500 2.223 . S
Cd492 O502 2.297 . S
Cd492 O503 2.439 . S
O493 Cd492 2.240 . S
O493 C498 1.279 . S
O494 Cd491 2.297 . S
O494 C496 1.247 . S
O495 Cd491 2.439 . S
O495 C496 1.208 . S
C496 O494 1.247 . S
C496 O495 1.208 . S
C497 O502 1.247 . S
C497 O503 1.208 . S
C498 O490 1.315 . S
C498 O493 1.279 . S
C499 O500 1.315 . S
C499 O501 1.279 . S
O500 Cd492 2.223 . S
O500 C499 1.315 . S
O501 Cd491 2.240 . S
O501 C499 1.279 . S
O502 Cd492 2.297 . S
O502 C497 1.247 . S
O503 Cd492 2.439 . S
O503 C497 1.208 . S
C504 C505 1.349 . S
C504 C506 1.327 . S
C504 H529 0.950 . S
C505 C504 1.349 . S
C505 C521 1.349 . S
C506 C504 1.327 . S
C506 C525 1.429 . S
C506 H530 0.950 . S
C507 C524 1.574 . S
C507 C526 1.368 . S
C507 H531 0.949 . S
H508 C512 0.949 . S
C509 C510 1.349 . S
C509 C511 1.327 . S
C509 H532 0.950 . S
C510 C509 1.349 . S
C510 C522 1.349 . S
C511 C509 1.327 . S
C511 C527 1.429 . S
C511 H533 0.950 . S
C512 H508 0.949 . S
C512 C520 1.574 . S
C512 C528 1.368 . S
H513 C521 0.950 . S
H514 C519 0.950 . S
H515 C520 0.949 . S
H516 C522 0.950 . S
H517 C523 0.950 . S
H518 C524 0.949 . S
C519 H514 0.950 . S
C519 C521 1.327 . S
C519 C525 1.429 . S
C520 C512 1.574 . S
C520 H515 0.949 . S
C520 C526 1.368 . S
C521 C505 1.349 . S
C521 H513 0.950 . S
C521 C519 1.327 . S
C522 C510 1.349 . S
C522 H516 0.950 . S
C522 C523 1.327 . S
C523 H517 0.950 . S
C523 C522 1.327 . S
C523 C527 1.429 . S
C524 C507 1.574 . S
C524 H518 0.949 . S
C524 C528 1.368 . S
C525 C506 1.429 . S
C525 C519 1.429 . S
C525 C526 1.523 . S
C526 C507 1.368 . S
C526 C520 1.368 . S
C526 C525 1.523 . S
C527 C511 1.429 . S
C527 C523 1.429 . S
C527 C528 1.523 . S
C528 C512 1.368 . S
C528 C524 1.368 . S
C528 C527 1.523 . S
H529 C504 0.950 . S
H530 C506 0.950 . S
H531 C507 0.949 . S
H532 C509 0.950 . S
H533 C511 0.950 . S
C534 C535 1.349 . S
C534 C536 1.327 . S
C534 H559 0.950 . S
C535 C534 1.349 . S
C535 C551 1.349 . S
C536 C534 1.327 . S
C536 C555 1.429 . S
C536 H560 0.950 . S
C537 C554 1.574 . S
C537 C556 1.368 . S
C537 H561 0.949 . S
H538 C542 0.949 . S
C539 C540 1.349 . S
C539 C541 1.327 . S
C539 H562 0.950 . S
C540 C539 1.349 . S
C540 C552 1.349 . S
C541 C539 1.327 . S
C541 C557 1.429 . S
C541 H563 0.950 . S
C542 H538 0.949 . S
C542 C550 1.574 . S
C542 C558 1.368 . S
H543 C551 0.950 . S
H544 C549 0.950 . S
H545 C550 0.949 . S
H546 C552 0.950 . S
H547 C553 0.950 . S
H548 C554 0.949 . S
C549 H544 0.950 . S
C549 C551 1.327 . S
C549 C555 1.429 . S
C550 C542 1.574 . S
C550 H545 0.949 . S
C550 C556 1.368 . S
C551 C535 1.349 . S
C551 H543 0.950 . S
C551 C549 1.327 . S
C552 C540 1.349 . S
C552 H546 0.950 . S
C552 C553 1.327 . S
C553 H547 0.950 . S
C553 C552 1.327 . S
C553 C557 1.429 . S
C554 C537 1.574 . S
C554 H548 0.949 . S
C554 C558 1.368 . S
C555 C536 1.429 . S
C555 C549 1.429 . S
C555 C556 1.523 . S
C556 C537 1.368 . S
C556 C550 1.368 . S
C556 C555 1.523 . S
C557 C541 1.429 . S
C557 C553 1.429 . S
C557 C558 1.523 . S
C558 C542 1.368 . S
C558 C554 1.368 . S
C558 C557 1.523 . S
H559 C534 0.950 . S
H560 C536 0.950 . S
H561 C537 0.949 . S
H562 C539 0.950 . S
H563 C541 0.950 . S
C564 C565 1.349 . S
C564 C566 1.327 . S
C564 H589 0.950 . S
C565 C564 1.349 . S
C565 C581 1.349 . S
C566 C564 1.327 . S
C566 C585 1.429 . S
C566 H590 0.950 . S
C567 C584 1.574 . S
C567 C586 1.368 . S
C567 H591 0.949 . S
H568 C572 0.949 . S
C569 C570 1.349 . S
C569 C571 1.327 . S
C569 H592 0.950 . S
C570 C569 1.349 . S
C570 C582 1.349 . S
C571 C569 1.327 . S
C571 C587 1.429 . S
C571 H593 0.950 . S
C572 H568 0.949 . S
C572 C580 1.574 . S
C572 C588 1.368 . S
H573 C581 0.950 . S
H574 C579 0.950 . S
H575 C580 0.949 . S
H576 C582 0.950 . S
H577 C583 0.950 . S
H578 C584 0.949 . S
C579 H574 0.950 . S
C579 C581 1.327 . S
C579 C585 1.429 . S
C580 C572 1.574 . S
C580 H575 0.949 . S
C580 C586 1.368 . S
C581 C565 1.349 . S
C581 H573 0.950 . S
C581 C579 1.327 . S
C582 C570 1.349 . S
C582 H576 0.950 . S
C582 C583 1.327 . S
C583 H577 0.950 . S
C583 C582 1.327 . S
C583 C587 1.429 . S
C584 C567 1.574 . S
C584 H578 0.949 . S
C584 C588 1.368 . S
C585 C566 1.429 . S
C585 C579 1.429 . S
C585 C586 1.523 . S
C586 C567 1.368 . S
C586 C580 1.368 . S
C586 C585 1.523 . S
C587 C571 1.429 . S
C587 C583 1.429 . S
C587 C588 1.523 . S
C588 C572 1.368 . S
C588 C584 1.368 . S
C588 C587 1.523 . S
H589 C564 0.950 . S
H590 C566 0.950 . S
H591 C567 0.949 . S
H592 C569 0.950 . S
H593 C571 0.950 . S
C594 C595 1.349 . S
C594 C596 1.327 . S
C594 H619 0.950 . S
C595 C594 1.349 . S
C595 C611 1.349 . S
C596 C594 1.327 . S
C596 C615 1.429 . S
C596 H620 0.950 . S
C597 C614 1.574 . S
C597 C616 1.368 . S
C597 H621 0.949 . S
H598 C602 0.949 . S
C599 C600 1.349 . S
C599 C601 1.327 . S
C599 H622 0.950 . S
C600 C599 1.349 . S
C600 C612 1.349 . S
C601 C599 1.327 . S
C601 C617 1.429 . S
C601 H623 0.950 . S
C602 H598 0.949 . S
C602 C610 1.574 . S
C602 C618 1.368 . S
H603 C611 0.950 . S
H604 C609 0.950 . S
H605 C610 0.949 . S
H606 C612 0.950 . S
H607 C613 0.950 . S
H608 C614 0.949 . S
C609 H604 0.950 . S
C609 C611 1.327 . S
C609 C615 1.429 . S
C610 C602 1.574 . S
C610 H605 0.949 . S
C610 C616 1.368 . S
C611 C595 1.349 . S
C611 H603 0.950 . S
C611 C609 1.327 . S
C612 C600 1.349 . S
C612 H606 0.950 . S
C612 C613 1.327 . S
C613 H607 0.950 . S
C613 C612 1.327 . S
C613 C617 1.429 . S
C614 C597 1.574 . S
C614 H608 0.949 . S
C614 C618 1.368 . S
C615 C596 1.429 . S
C615 C609 1.429 . S
C615 C616 1.523 . S
C616 C597 1.368 . S
C616 C610 1.368 . S
C616 C615 1.523 . S
C617 C601 1.429 . S
C617 C613 1.429 . S
C617 C618 1.523 . S
C618 C602 1.368 . S
C618 C614 1.368 . S
C618 C617 1.523 . S
H619 C594 0.950 . S
H620 C596 0.950 . S
H621 C597 0.949 . S
H622 C599 0.950 . S
H623 C601 0.950 . S
C624 C625 1.349 . S
C624 C626 1.327 . S
C624 H649 0.950 . S
C625 C624 1.349 . S
C625 C641 1.349 . S
C626 C624 1.327 . S
C626 C645 1.429 . S
C626 H650 0.950 . S
C627 C644 1.574 . S
C627 C646 1.368 . S
C627 H651 0.949 . S
H628 C632 0.949 . S
C629 C630 1.349 . S
C629 C631 1.327 . S
C629 H652 0.950 . S
C630 C629 1.349 . S
C630 C642 1.349 . S
C631 C629 1.327 . S
C631 C647 1.429 . S
C631 H653 0.950 . S
C632 H628 0.949 . S
C632 C640 1.574 . S
C632 C648 1.368 . S
H633 C641 0.950 . S
H634 C639 0.950 . S
H635 C640 0.949 . S
H636 C642 0.950 . S
H637 C643 0.950 . S
H638 C644 0.949 . S
C639 H634 0.950 . S
C639 C641 1.327 . S
C639 C645 1.429 . S
C640 C632 1.574 . S
C640 H635 0.949 . S
C640 C646 1.368 . S
C641 C625 1.349 . S
C641 H633 0.950 . S
C641 C639 1.327 . S
C642 C630 1.349 . S
C642 H636 0.950 . S
C642 C643 1.327 . S
C643 H637 0.950 . S
C643 C642 1.327 . S
C643 C647 1.429 . S
C644 C627 1.574 . S
C644 H638 0.949 . S
C644 C648 1.368 . S
C645 C626 1.429 . S
C645 C639 1.429 . S
C645 C646 1.523 . S
C646 C627 1.368 . S
C646 C640 1.368 . S
C646 C645 1.523 . S
C647 C631 1.429 . S
C647 C643 1.429 . S
C647 C648 1.523 . S
C648 C632 1.368 . S
C648 C644 1.368 . S
C648 C647 1.523 . S
H649 C624 0.950 . S
H650 C626 0.950 . S
H651 C627 0.949 . S
H652 C629 0.950 . S
H653 C631 0.950 . S
C654 C655 1.349 . S
C654 C656 1.327 . S
C654 H679 0.950 . S
C655 C654 1.349 . S
C655 C671 1.349 . S
C656 C654 1.327 . S
C656 C675 1.429 . S
C656 H680 0.950 . S
C657 C674 1.574 . S
C657 C676 1.368 . S
C657 H681 0.949 . S
H658 C662 0.949 . S
C659 C660 1.349 . S
C659 C661 1.327 . S
C659 H682 0.950 . S
C660 C659 1.349 . S
C660 C672 1.349 . S
C661 C659 1.327 . S
C661 C677 1.429 . S
C661 H683 0.950 . S
C662 H658 0.949 . S
C662 C670 1.574 . S
C662 C678 1.368 . S
H663 C671 0.950 . S
H664 C669 0.950 . S
H665 C670 0.949 . S
H666 C672 0.950 . S
H667 C673 0.950 . S
H668 C674 0.949 . S
C669 H664 0.950 . S
C669 C671 1.327 . S
C669 C675 1.429 . S
C670 C662 1.574 . S
C670 H665 0.949 . S
C670 C676 1.368 . S
C671 C655 1.349 . S
C671 H663 0.950 . S
C671 C669 1.327 . S
C672 C660 1.349 . S
C672 H666 0.950 . S
C672 C673 1.327 . S
C673 H667 0.950 . S
C673 C672 1.327 . S
C673 C677 1.429 . S
C674 C657 1.574 . S
C674 H668 0.949 . S
C674 C678 1.368 . S
C675 C656 1.429 . S
C675 C669 1.429 . S
C675 C676 1.523 . S
C676 C657 1.368 . S
C676 C670 1.368 . S
C676 C675 1.523 . S
C677 C661 1.429 . S
C677 C673 1.429 . S
C677 C678 1.523 . S
C678 C662 1.368 . S
C678 C674 1.368 . S
C678 C677 1.523 . S
H679 C654 0.950 . S
H680 C656 0.950 . S
H681 C657 0.949 . S
H682 C659 0.950 . S
H683 C661 0.950 . S
C684 C685 1.349 . S
C684 C686 1.327 . S
C684 H709 0.950 . S
C685 C684 1.349 . S
C685 C701 1.349 . S
C686 C684 1.327 . S
C686 C705 1.429 . S
C686 H710 0.950 . S
C687 C704 1.574 . S
C687 C706 1.368 . S
C687 H711 0.949 . S
H688 C692 0.949 . S
C689 C690 1.349 . S
C689 C691 1.327 . S
C689 H712 0.950 . S
C690 C689 1.349 . S
C690 C702 1.349 . S
C691 C689 1.327 . S
C691 C707 1.429 . S
C691 H713 0.950 . S
C692 H688 0.949 . S
C692 C700 1.574 . S
C692 C708 1.368 . S
H693 C701 0.950 . S
H694 C699 0.950 . S
H695 C700 0.949 . S
H696 C702 0.950 . S
H697 C703 0.950 . S
H698 C704 0.949 . S
C699 H694 0.950 . S
C699 C701 1.327 . S
C699 C705 1.429 . S
C700 C692 1.574 . S
C700 H695 0.949 . S
C700 C706 1.368 . S
C701 C685 1.349 . S
C701 H693 0.950 . S
C701 C699 1.327 . S
C702 C690 1.349 . S
C702 H696 0.950 . S
C702 C703 1.327 . S
C703 H697 0.950 . S
C703 C702 1.327 . S
C703 C707 1.429 . S
C704 C687 1.574 . S
C704 H698 0.949 . S
C704 C708 1.368 . S
C705 C686 1.429 . S
C705 C699 1.429 . S
C705 C706 1.523 . S
C706 C687 1.368 . S
C706 C700 1.368 . S
C706 C705 1.523 . S
C707 C691 1.429 . S
C707 C703 1.429 . S
C707 C708 1.523 . S
C708 C692 1.368 . S
C708 C704 1.368 . S
C708 C707 1.523 . S
H709 C684 0.950 . S
H710 C686 0.950 . S
H711 C687 0.949 . S
H712 C689 0.950 . S
H713 C691 0.950 . S
C714 C715 1.349 . S
C714 C716 1.327 . S
C714 H739 0.950 . S
C715 C714 1.349 . S
C715 C731 1.349 . S
C716 C714 1.327 . S
C716 C735 1.429 . S
C716 H740 0.950 . S
C717 C734 1.574 . S
C717 C736 1.368 . S
C717 H741 0.949 . S
H718 C722 0.949 . S
C719 C720 1.349 . S
C719 C721 1.327 . S
C719 H742 0.950 . S
C720 C719 1.349 . S
C720 C732 1.349 . S
C721 C719 1.327 . S
C721 C737 1.429 . S
C721 H743 0.950 . S
C722 H718 0.949 . S
C722 C730 1.574 . S
C722 C738 1.368 . S
H723 C731 0.950 . S
H724 C729 0.950 . S
H725 C730 0.949 . S
H726 C732 0.950 . S
H727 C733 0.950 . S
H728 C734 0.949 . S
C729 H724 0.950 . S
C729 C731 1.327 . S
C729 C735 1.429 . S
C730 C722 1.574 . S
C730 H725 0.949 . S
C730 C736 1.368 . S
C731 C715 1.349 . S
C731 H723 0.950 . S
C731 C729 1.327 . S
C732 C720 1.349 . S
C732 H726 0.950 . S
C732 C733 1.327 . S
C733 H727 0.950 . S
C733 C732 1.327 . S
C733 C737 1.429 . S
C734 C717 1.574 . S
C734 H728 0.949 . S
C734 C738 1.368 . S
C735 C716 1.429 . S
C735 C729 1.429 . S
C735 C736 1.523 . S
C736 C717 1.368 . S
C736 C730 1.368 . S
C736 C735 1.523 . S
C737 C721 1.429 . S
C737 C733 1.429 . S
C737 C738 1.523 . S
C738 C722 1.368 . S
C738 C734 1.368 . S
C738 C737 1.523 . S
H739 C714 0.950 . S
H740 C716 0.950 . S
H741 C717 0.949 . S
H742 C719 0.950 . S
H743 C721 0.950 . S
C744 C745 1.349 . S
C744 C746 1.327 . S
C744 H769 0.950 . S
C745 C744 1.349 . S
C745 C761 1.349 . S
C746 C744 1.327 . S
C746 C765 1.429 . S
C746 H770 0.950 . S
C747 C764 1.574 . S
C747 C766 1.368 . S
C747 H771 0.949 . S
H748 C752 0.949 . S
C749 C750 1.349 . S
C749 C751 1.327 . S
C749 H772 0.950 . S
C750 C749 1.349 . S
C750 C762 1.349 . S
C751 C749 1.327 . S
C751 C767 1.429 . S
C751 H773 0.950 . S
C752 H748 0.949 . S
C752 C760 1.574 . S
C752 C768 1.368 . S
H753 C761 0.950 . S
H754 C759 0.950 . S
H755 C760 0.949 . S
H756 C762 0.950 . S
H757 C763 0.950 . S
H758 C764 0.949 . S
C759 H754 0.950 . S
C759 C761 1.327 . S
C759 C765 1.429 . S
C760 C752 1.574 . S
C760 H755 0.949 . S
C760 C766 1.368 . S
C761 C745 1.349 . S
C761 H753 0.950 . S
C761 C759 1.327 . S
C762 C750 1.349 . S
C762 H756 0.950 . S
C762 C763 1.327 . S
C763 H757 0.950 . S
C763 C762 1.327 . S
C763 C767 1.429 . S
C764 C747 1.574 . S
C764 H758 0.949 . S
C764 C768 1.368 . S
C765 C746 1.429 . S
C765 C759 1.429 . S
C765 C766 1.523 . S
C766 C747 1.368 . S
C766 C760 1.368 . S
C766 C765 1.523 . S
C767 C751 1.429 . S
C767 C763 1.429 . S
C767 C768 1.523 . S
C768 C752 1.368 . S
C768 C764 1.368 . S
C768 C767 1.523 . S
H769 C744 0.950 . S
H770 C746 0.950 . S
H771 C747 0.949 . S
H772 C749 0.950 . S
H773 C751 0.950 . S
C774 C775 1.349 . S
C774 C776 1.327 . S
C774 H799 0.950 . S
C775 C774 1.349 . S
C775 C791 1.349 . S
C776 C774 1.327 . S
C776 C795 1.429 . S
C776 H800 0.950 . S
C777 C794 1.574 . S
C777 C796 1.368 . S
C777 H801 0.949 . S
H778 C782 0.949 . S
C779 C780 1.349 . S
C779 C781 1.327 . S
C779 H802 0.950 . S
C780 C779 1.349 . S
C780 C792 1.349 . S
C781 C779 1.327 . S
C781 C797 1.429 . S
C781 H803 0.950 . S
C782 H778 0.949 . S
C782 C790 1.574 . S
C782 C798 1.368 . S
H783 C791 0.950 . S
H784 C789 0.950 . S
H785 C790 0.949 . S
H786 C792 0.950 . S
H787 C793 0.950 . S
H788 C794 0.949 . S
C789 H784 0.950 . S
C789 C791 1.327 . S
C789 C795 1.429 . S
C790 C782 1.574 . S
C790 H785 0.949 . S
C790 C796 1.368 . S
C791 C775 1.349 . S
C791 H783 0.950 . S
C791 C789 1.327 . S
C792 C780 1.349 . S
C792 H786 0.950 . S
C792 C793 1.327 . S
C793 H787 0.950 . S
C793 C792 1.327 . S
C793 C797 1.429 . S
C794 C777 1.574 . S
C794 H788 0.949 . S
C794 C798 1.368 . S
C795 C776 1.429 . S
C795 C789 1.429 . S
C795 C796 1.523 . S
C796 C777 1.368 . S
C796 C790 1.368 . S
C796 C795 1.523 . S
C797 C781 1.429 . S
C797 C793 1.429 . S
C797 C798 1.523 . S
C798 C782 1.368 . S
C798 C794 1.368 . S
C798 C797 1.523 . S
H799 C774 0.950 . S
H800 C776 0.950 . S
H801 C777 0.949 . S
H802 C779 0.950 . S
H803 C781 0.950 . S
C804 C805 1.349 . S
C804 C806 1.327 . S
C804 H829 0.950 . S
C805 C804 1.349 . S
C805 C821 1.349 . S
C806 C804 1.327 . S
C806 C825 1.429 . S
C806 H830 0.950 . S
C807 C824 1.574 . S
C807 C826 1.368 . S
C807 H831 0.949 . S
H808 C812 0.949 . S
C809 C810 1.349 . S
C809 C811 1.327 . S
C809 H832 0.950 . S
C810 C809 1.349 . S
C810 C822 1.349 . S
C811 C809 1.327 . S
C811 C827 1.429 . S
C811 H833 0.950 . S
C812 H808 0.949 . S
C812 C820 1.574 . S
C812 C828 1.368 . S
H813 C821 0.950 . S
H814 C819 0.950 . S
H815 C820 0.949 . S
H816 C822 0.950 . S
H817 C823 0.950 . S
H818 C824 0.949 . S
C819 H814 0.950 . S
C819 C821 1.327 . S
C819 C825 1.429 . S
C820 C812 1.574 . S
C820 H815 0.949 . S
C820 C826 1.368 . S
C821 C805 1.349 . S
C821 H813 0.950 . S
C821 C819 1.327 . S
C822 C810 1.349 . S
C822 H816 0.950 . S
C822 C823 1.327 . S
C823 H817 0.950 . S
C823 C822 1.327 . S
C823 C827 1.429 . S
C824 C807 1.574 . S
C824 H818 0.949 . S
C824 C828 1.368 . S
C825 C806 1.429 . S
C825 C819 1.429 . S
C825 C826 1.523 . S
C826 C807 1.368 . S
C826 C820 1.368 . S
C826 C825 1.523 . S
C827 C811 1.429 . S
C827 C823 1.429 . S
C827 C828 1.523 . S
C828 C812 1.368 . S
C828 C824 1.368 . S
C828 C827 1.523 . S
H829 C804 0.950 . S
H830 C806 0.950 . S
H831 C807 0.949 . S
H832 C809 0.950 . S
H833 C811 0.950 . S
C834 C835 1.349 . S
C834 C836 1.327 . S
C834 H859 0.950 . S
C835 C834 1.349 . S
C835 C851 1.349 . S
C836 C834 1.327 . S
C836 C855 1.429 . S
C836 H860 0.950 . S
C837 C854 1.574 . S
C837 C856 1.368 . S
C837 H861 0.949 . S
H838 C842 0.949 . S
C839 C840 1.349 . S
C839 C841 1.327 . S
C839 H862 0.950 . S
C840 C839 1.349 . S
C840 C852 1.349 . S
C841 C839 1.327 . S
C841 C857 1.429 . S
C841 H863 0.950 . S
C842 H838 0.949 . S
C842 C850 1.574 . S
C842 C858 1.368 . S
H843 C851 0.950 . S
H844 C849 0.950 . S
H845 C850 0.949 . S
H846 C852 0.950 . S
H847 C853 0.950 . S
H848 C854 0.949 . S
C849 H844 0.950 . S
C849 C851 1.327 . S
C849 C855 1.429 . S
C850 C842 1.574 . S
C850 H845 0.949 . S
C850 C856 1.368 . S
C851 C835 1.349 . S
C851 H843 0.950 . S
C851 C849 1.327 . S
C852 C840 1.349 . S
C852 H846 0.950 . S
C852 C853 1.327 . S
C853 H847 0.950 . S
C853 C852 1.327 . S
C853 C857 1.429 . S
C854 C837 1.574 . S
C854 H848 0.949 . S
C854 C858 1.368 . S
C855 C836 1.429 . S
C855 C849 1.429 . S
C855 C856 1.523 . S
C856 C837 1.368 . S
C856 C850 1.368 . S
C856 C855 1.523 . S
C857 C841 1.429 . S
C857 C853 1.429 . S
C857 C858 1.523 . S
C858 C842 1.368 . S
C858 C854 1.368 . S
C858 C857 1.523 . S
H859 C834 0.950 . S
H860 C836 0.950 . S
H861 C837 0.949 . S
H862 C839 0.950 . S
H863 C841 0.950 . S
C864 C865 1.349 . S
C864 C866 1.327 . S
C864 H889 0.950 . S
C865 C864 1.349 . S
C865 C881 1.349 . S
C866 C864 1.327 . S
C866 C885 1.429 . S
C866 H890 0.950 . S
C867 C884 1.574 . S
C867 C886 1.368 . S
C867 H891 0.949 . S
H868 C872 0.949 . S
C869 C870 1.349 . S
C869 C871 1.327 . S
C869 H892 0.950 . S
C870 C869 1.349 . S
C870 C882 1.349 . S
C871 C869 1.327 . S
C871 C887 1.429 . S
C871 H893 0.950 . S
C872 H868 0.949 . S
C872 C880 1.574 . S
C872 C888 1.368 . S
H873 C881 0.950 . S
H874 C879 0.950 . S
H875 C880 0.949 . S
H876 C882 0.950 . S
H877 C883 0.950 . S
H878 C884 0.949 . S
C879 H874 0.950 . S
C879 C881 1.327 . S
C879 C885 1.429 . S
C880 C872 1.574 . S
C880 H875 0.949 . S
C880 C886 1.368 . S
C881 C865 1.349 . S
C881 H873 0.950 . S
C881 C879 1.327 . S
C882 C870 1.349 . S
C882 H876 0.950 . S
C882 C883 1.327 . S
C883 H877 0.950 . S
C883 C882 1.327 . S
C883 C887 1.429 . S
C884 C867 1.574 . S
C884 H878 0.949 . S
C884 C888 1.368 . S
C885 C866 1.429 . S
C885 C879 1.429 . S
C885 C886 1.523 . S
C886 C867 1.368 . S
C886 C880 1.368 . S
C886 C885 1.523 . S
C887 C871 1.429 . S
C887 C883 1.429 . S
C887 C888 1.523 . S
C888 C872 1.368 . S
C888 C884 1.368 . S
C888 C887 1.523 . S
H889 C864 0.950 . S
H890 C866 0.950 . S
H891 C867 0.949 . S
H892 C869 0.950 . S
H893 C871 0.950 . S
C894 C895 1.349 . S
C894 C896 1.327 . S
C894 H919 0.950 . S
C895 C894 1.349 . S
C895 C911 1.349 . S
C896 C894 1.327 . S
C896 C915 1.429 . S
C896 H920 0.950 . S
C897 C914 1.574 . S
C897 C916 1.368 . S
C897 H921 0.949 . S
H898 C902 0.949 . S
C899 C900 1.349 . S
C899 C901 1.327 . S
C899 H922 0.950 . S
C900 C899 1.349 . S
C900 C912 1.349 . S
C901 C899 1.327 . S
C901 C917 1.429 . S
C901 H923 0.950 . S
C902 H898 0.949 . S
C902 C910 1.574 . S
C902 C918 1.368 . S
H903 C911 0.950 . S
H904 C909 0.950 . S
H905 C910 0.949 . S
H906 C912 0.950 . S
H907 C913 0.950 . S
H908 C914 0.949 . S
C909 H904 0.950 . S
C909 C911 1.327 . S
C909 C915 1.429 . S
C910 C902 1.574 . S
C910 H905 0.949 . S
C910 C916 1.368 . S
C911 C895 1.349 . S
C911 H903 0.950 . S
C911 C909 1.327 . S
C912 C900 1.349 . S
C912 H906 0.950 . S
C912 C913 1.327 . S
C913 H907 0.950 . S
C913 C912 1.327 . S
C913 C917 1.429 . S
C914 C897 1.574 . S
C914 H908 0.949 . S
C914 C918 1.368 . S
C915 C896 1.429 . S
C915 C909 1.429 . S
C915 C916 1.523 . S
C916 C897 1.368 . S
C916 C910 1.368 . S
C916 C915 1.523 . S
C917 C901 1.429 . S
C917 C913 1.429 . S
C917 C918 1.523 . S
C918 C902 1.368 . S
C918 C914 1.368 . S
C918 C917 1.523 . S
H919 C894 0.950 . S
H920 C896 0.950 . S
H921 C897 0.949 . S
H922 C899 0.950 . S
H923 C901 0.950 . S
C924 C925 1.349 . S
C924 C926 1.327 . S
C924 H949 0.950 . S
C925 C924 1.349 . S
C925 C941 1.349 . S
C926 C924 1.327 . S
C926 C945 1.429 . S
C926 H950 0.950 . S
C927 C944 1.574 . S
C927 C946 1.368 . S
C927 H951 0.949 . S
H928 C932 0.949 . S
C929 C930 1.349 . S
C929 C931 1.327 . S
C929 H952 0.950 . S
C930 C929 1.349 . S
C930 C942 1.349 . S
C931 C929 1.327 . S
C931 C947 1.429 . S
C931 H953 0.950 . S
C932 H928 0.949 . S
C932 C940 1.574 . S
C932 C948 1.368 . S
H933 C941 0.950 . S
H934 C939 0.950 . S
H935 C940 0.949 . S
H936 C942 0.950 . S
H937 C943 0.950 . S
H938 C944 0.949 . S
C939 H934 0.950 . S
C939 C941 1.327 . S
C939 C945 1.429 . S
C940 C932 1.574 . S
C940 H935 0.949 . S
C940 C946 1.368 . S
C941 C925 1.349 . S
C941 H933 0.950 . S
C941 C939 1.327 . S
C942 C930 1.349 . S
C942 H936 0.950 . S
C942 C943 1.327 . S
C943 H937 0.950 . S
C943 C942 1.327 . S
C943 C947 1.429 . S
C944 C927 1.574 . S
C944 H938 0.949 . S
C944 C948 1.368 . S
C945 C926 1.429 . S
C945 C939 1.429 . S
C945 C946 1.523 . S
C946 C927 1.368 . S
C946 C940 1.368 . S
C946 C945 1.523 . S
C947 C931 1.429 . S
C947 C943 1.429 . S
C947 C948 1.523 . S
C948 C932 1.368 . S
C948 C944 1.368 . S
C948 C947 1.523 . S
H949 C924 0.950 . S
H950 C926 0.950 . S
H951 C927 0.949 . S
H952 C929 0.950 . S
H953 C931 0.950 . S
C954 C955 1.349 . S
C954 C956 1.327 . S
C954 H979 0.950 . S
C955 C954 1.349 . S
C955 C971 1.349 . S
C956 C954 1.327 . S
C956 C975 1.429 . S
C956 H980 0.950 . S
C957 C974 1.574 . S
C957 C976 1.368 . S
C957 H981 0.949 . S
H958 C962 0.949 . S
C959 C960 1.349 . S
C959 C961 1.327 . S
C959 H982 0.950 . S
C960 C959 1.349 . S
C960 C972 1.349 . S
C961 C959 1.327 . S
C961 C977 1.429 . S
C961 H983 0.950 . S
C962 H958 0.949 . S
C962 C970 1.574 . S
C962 C978 1.368 . S
H963 C971 0.950 . S
H964 C969 0.950 . S
H965 C970 0.949 . S
H966 C972 0.950 . S
H967 C973 0.950 . S
H968 C974 0.949 . S
C969 H964 0.950 . S
C969 C971 1.327 . S
C969 C975 1.429 . S
C970 C962 1.574 . S
C970 H965 0.949 . S
C970 C976 1.368 . S
C971 C955 1.349 . S
C971 H963 0.950 . S
C971 C969 1.327 . S
C972 C960 1.349 . S
C972 H966 0.950 . S
C972 C973 1.327 . S
C973 H967 0.950 . S
C973 C972 1.327 . S
C973 C977 1.429 . S
C974 C957 1.574 . S
C974 H968 0.949 . S
C974 C978 1.368 . S
C975 C956 1.429 . S
C975 C969 1.429 . S
C975 C976 1.523 . S
C976 C957 1.368 . S
C976 C970 1.368 . S
C976 C975 1.523 . S
C977 C961 1.429 . S
C977 C973 1.429 . S
C977 C978 1.523 . S
C978 C962 1.368 . S
C978 C974 1.368 . S
C978 C977 1.523 . S
H979 C954 0.950 . S
H980 C956 0.950 . S
H981 C957 0.949 . S
H982 C959 0.950 . S
H983 C961 0.950 . S
C984 C985 1.349 . S
C984 C986 1.327 . S
C984 H1009 0.950 . S
C985 C984 1.349 . S
C985 C1001 1.349 . S
C986 C984 1.327 . S
C986 C1005 1.429 . S
C986 H1010 0.950 . S
C987 C1004 1.574 . S
C987 C1006 1.368 . S
C987 H1011 0.949 . S
H988 C992 0.949 . S
C989 C990 1.349 . S
C989 C991 1.327 . S
C989 H1012 0.950 . S
C990 C989 1.349 . S
C990 C1002 1.349 . S
C991 C989 1.327 . S
C991 C1007 1.429 . S
C991 H1013 0.950 . S
C992 H988 0.949 . S
C992 C1000 1.574 . S
C992 C1008 1.368 . S
H993 C1001 0.950 . S
H994 C999 0.950 . S
H995 C1000 0.949 . S
H996 C1002 0.950 . S
H997 C1003 0.950 . S
H998 C1004 0.949 . S
C999 H994 0.950 . S
C999 C1001 1.327 . S
C999 C1005 1.429 . S
C1000 C992 1.574 . S
C1000 H995 0.949 . S
C1000 C1006 1.368 . S
C1001 C985 1.349 . S
C1001 H993 0.950 . S
C1001 C999 1.327 . S
C1002 C990 1.349 . S
C1002 H996 0.950 . S
C1002 C1003 1.327 . S
C1003 H997 0.950 . S
C1003 C1002 1.327 . S
C1003 C1007 1.429 . S
C1004 C987 1.574 . S
C1004 H998 0.949 . S
C1004 C1008 1.368 . S
C1005 C986 1.429 . S
C1005 C999 1.429 . S
C1005 C1006 1.523 . S
C1006 C987 1.368 . S
C1006 C1000 1.368 . S
C1006 C1005 1.523 . S
C1007 C991 1.429 . S
C1007 C1003 1.429 . S
C1007 C1008 1.523 . S
C1008 C992 1.368 . S
C1008 C1004 1.368 . S
C1008 C1007 1.523 . S
H1009 C984 0.950 . S
H1010 C986 0.950 . S
H1011 C987 0.949 . S
H1012 C989 0.950 . S
H1013 C991 0.950 . S
C1014 C1015 1.349 . S
C1014 C1016 1.327 . S
C1014 H1039 0.950 . S
C1015 C1014 1.349 . S
C1015 C1031 1.349 . S
C1016 C1014 1.327 . S
C1016 C1035 1.429 . S
C1016 H1040 0.950 . S
C1017 C1034 1.574 . S
C1017 C1036 1.368 . S
C1017 H1041 0.949 . S
H1018 C1022 0.949 . S
C1019 C1020 1.349 . S
C1019 C1021 1.327 . S
C1019 H1042 0.950 . S
C1020 C1019 1.349 . S
C1020 C1032 1.349 . S
C1021 C1019 1.327 . S
C1021 C1037 1.429 . S
C1021 H1043 0.950 . S
C1022 H1018 0.949 . S
C1022 C1030 1.574 . S
C1022 C1038 1.368 . S
H1023 C1031 0.950 . S
H1024 C1029 0.950 . S
H1025 C1030 0.949 . S
H1026 C1032 0.950 . S
H1027 C1033 0.950 . S
H1028 C1034 0.949 . S
C1029 H1024 0.950 . S
C1029 C1031 1.327 . S
C1029 C1035 1.429 . S
C1030 C1022 1.574 . S
C1030 H1025 0.949 . S
C1030 C1036 1.368 . S
C1031 C1015 1.349 . S
C1031 H1023 0.950 . S
C1031 C1029 1.327 . S
C1032 C1020 1.349 . S
C1032 H1026 0.950 . S
C1032 C1033 1.327 . S
C1033 H1027 0.950 . S
C1033 C1032 1.327 . S
C1033 C1037 1.429 . S
C1034 C1017 1.574 . S
C1034 H1028 0.949 . S
C1034 C1038 1.368 . S
C1035 C1016 1.429 . S
C1035 C1029 1.429 . S
C1035 C1036 1.523 . S
C1036 C1017 1.368 . S
C1036 C1030 1.368 . S
C1036 C1035 1.523 . S
C1037 C1021 1.429 . S
C1037 C1033 1.429 . S
C1037 C1038 1.523 . S
C1038 C1022 1.368 . S
C1038 C1034 1.368 . S
C1038 C1037 1.523 . S
H1039 C1014 0.950 . S
H1040 C1016 0.950 . S
H1041 C1017 0.949 . S
H1042 C1019 0.950 . S
H1043 C1021 0.950 . S
C1044 C1045 1.349 . S
C1044 C1046 1.327 . S
C1044 H1069 0.950 . S
C1045 C1044 1.349 . S
C1045 C1061 1.364 . S
C1046 C1044 1.327 . S
C1046 C1065 1.429 . S
C1046 H1070 0.950 . S
C1047 C1064 1.574 . S
C1047 C1066 1.368 . S
C1047 H1071 0.949 . S
H1048 C1052 0.956 1_455 S
C1049 C1050 1.349 . S
C1049 C1051 1.327 . S
C1049 H1072 0.950 . S
C1050 C1049 1.349 . S
C1050 C1062 1.349 . S
C1051 C1049 1.327 . S
C1051 C1067 1.429 . S
C1051 H1073 0.950 . S
C1052 H1048 0.956 1_655 S
C1052 C1060 1.560 1_655 S
C1052 C1068 1.375 . S
H1053 C1061 0.963 1_655 S
H1054 C1059 0.950 . S
H1055 C1060 0.949 . S
H1056 C1062 0.950 . S
H1057 C1063 0.950 . S
H1058 C1064 0.949 . S
C1059 H1054 0.950 . S
C1059 C1061 1.304 1_655 S
C1059 C1065 1.429 1_655 S
C1060 C1052 1.560 1_455 S
C1060 H1055 0.949 . S
C1060 C1066 1.368 1_455 S
C1061 C1045 1.364 . S
C1061 H1053 0.963 1_455 S
C1061 C1059 1.304 1_455 S
C1062 C1050 1.349 . S
C1062 H1056 0.950 . S
C1062 C1063 1.327 . S
C1063 H1057 0.950 . S
C1063 C1062 1.327 . S
C1063 C1067 1.429 . S
C1064 C1047 1.574 . S
C1064 H1058 0.949 . S
C1064 C1068 1.368 . S
C1065 C1046 1.429 . S
C1065 C1059 1.429 1_455 S
C1065 C1066 1.523 1_455 S
C1066 C1047 1.368 . S
C1066 C1060 1.368 1_655 S
C1066 C1065 1.523 1_655 S
C1067 C1051 1.429 . S
C1067 C1063 1.429 . S
C1067 C1068 1.523 . S
C1068 C1052 1.375 . S
C1068 C1064 1.368 . S
C1068 C1067 1.523 . S
H1069 C1044 0.950 . S
H1070 C1046 0.950 . S
H1071 C1047 0.949 . S
H1072 C1049 0.950 . S
H1073 C1051 0.950 . S
C1074 C1075 1.349 . S
C1074 C1076 1.327 . S
C1074 H1099 0.950 . S
C1075 C1074 1.349 . S
C1075 C1091 1.349 . S
C1076 C1074 1.327 . S
C1076 C1095 1.429 . S
C1076 H1100 0.950 . S
C1077 C1094 1.574 . S
C1077 C1096 1.368 . S
C1077 H1101 0.949 . S
H1078 C1082 0.949 . S
C1079 C1080 1.349 . S
C1079 C1081 1.327 . S
C1079 H1102 0.950 . S
C1080 C1079 1.349 . S
C1080 C1092 1.349 . S
C1081 C1079 1.327 . S
C1081 C1097 1.429 . S
C1081 H1103 0.950 . S
C1082 H1078 0.949 . S
C1082 C1090 1.574 . S
C1082 C1098 1.368 . S
H1083 C1091 0.950 . S
H1084 C1089 0.950 . S
H1085 C1090 0.949 . S
H1086 C1092 0.950 . S
H1087 C1093 0.950 . S
H1088 C1094 0.949 . S
C1089 H1084 0.950 . S
C1089 C1091 1.327 . S
C1089 C1095 1.429 . S
C1090 C1082 1.574 . S
C1090 H1085 0.949 . S
C1090 C1096 1.368 . S
C1091 C1075 1.349 . S
C1091 H1083 0.950 . S
C1091 C1089 1.327 . S
C1092 C1080 1.349 . S
C1092 H1086 0.950 . S
C1092 C1093 1.327 . S
C1093 H1087 0.950 . S
C1093 C1092 1.327 . S
C1093 C1097 1.429 . S
C1094 C1077 1.574 . S
C1094 H1088 0.949 . S
C1094 C1098 1.368 . S
C1095 C1076 1.429 . S
C1095 C1089 1.429 . S
C1095 C1096 1.523 . S
C1096 C1077 1.368 . S
C1096 C1090 1.368 . S
C1096 C1095 1.523 . S
C1097 C1081 1.429 . S
C1097 C1093 1.429 . S
C1097 C1098 1.523 . S
C1098 C1082 1.368 . S
C1098 C1094 1.368 . S
C1098 C1097 1.523 . S
H1099 C1074 0.950 . S
H1100 C1076 0.950 . S
H1101 C1077 0.949 . S
H1102 C1079 0.950 . S
H1103 C1081 0.950 . S
C1104 C1105 1.349 . S
C1104 C1106 1.327 . S
C1104 H1129 0.950 . S
C1105 C1104 1.349 . S
C1105 C1121 1.349 . S
C1106 C1104 1.327 . S
C1106 C1125 1.429 . S
C1106 H1130 0.950 . S
C1107 C1124 1.574 . S
C1107 C1126 1.368 . S
C1107 H1131 0.949 . S
H1108 C1112 0.949 . S
C1109 C1110 1.349 . S
C1109 C1111 1.327 . S
C1109 H1132 0.950 . S
C1110 C1109 1.349 . S
C1110 C1122 1.349 . S
C1111 C1109 1.327 . S
C1111 C1127 1.429 . S
C1111 H1133 0.950 . S
C1112 H1108 0.949 . S
C1112 C1120 1.574 . S
C1112 C1128 1.368 . S
H1113 C1121 0.950 . S
H1114 C1119 0.950 . S
H1115 C1120 0.949 . S
H1116 C1122 0.950 . S
H1117 C1123 0.950 . S
H1118 C1124 0.949 . S
C1119 H1114 0.950 . S
C1119 C1121 1.327 . S
C1119 C1125 1.429 . S
C1120 C1112 1.574 . S
C1120 H1115 0.949 . S
C1120 C1126 1.368 . S
C1121 C1105 1.349 . S
C1121 H1113 0.950 . S
C1121 C1119 1.327 . S
C1122 C1110 1.349 . S
C1122 H1116 0.950 . S
C1122 C1123 1.327 . S
C1123 H1117 0.950 . S
C1123 C1122 1.327 . S
C1123 C1127 1.429 . S
C1124 C1107 1.574 . S
C1124 H1118 0.949 . S
C1124 C1128 1.368 . S
C1125 C1106 1.429 . S
C1125 C1119 1.429 . S
C1125 C1126 1.523 . S
C1126 C1107 1.368 . S
C1126 C1120 1.368 . S
C1126 C1125 1.523 . S
C1127 C1111 1.429 . S
C1127 C1123 1.429 . S
C1127 C1128 1.523 . S
C1128 C1112 1.368 . S
C1128 C1124 1.368 . S
C1128 C1127 1.523 . S
H1129 C1104 0.950 . S
H1130 C1106 0.950 . S
H1131 C1107 0.949 . S
H1132 C1109 0.950 . S
H1133 C1111 0.950 . S
C1134 C1135 1.349 1_565 S
C1134 C1136 1.327 . S
C1134 H1159 0.950 . S
C1135 C1134 1.349 1_545 S
C1135 C1151 1.349 . S
C1136 C1134 1.327 . S
C1136 C1155 1.429 1_565 S
C1136 H1160 0.950 . S
C1137 C1154 1.574 . S
C1137 C1156 1.368 1_545 S
C1137 H1161 0.949 . S
H1138 C1142 0.949 . S
C1139 C1140 1.349 . S
C1139 C1141 1.327 . S
C1139 H1162 0.953 . S
C1140 C1139 1.349 . S
C1140 C1152 1.349 . S
C1141 C1139 1.327 . S
C1141 C1157 1.429 . S
C1141 H1163 0.950 1_565 S
C1142 H1138 0.949 . S
C1142 C1150 1.574 . S
C1142 C1158 1.368 . S
H1143 C1151 0.950 . S
H1144 C1149 0.950 . S
H1145 C1150 0.949 . S
H1146 C1152 0.950 . S
H1147 C1153 0.950 . S
H1148 C1154 0.949 . S
C1149 H1144 0.950 . S
C1149 C1151 1.327 . S
C1149 C1155 1.429 . S
C1150 C1142 1.574 . S
C1150 H1145 0.949 . S
C1150 C1156 1.368 . S
C1151 C1135 1.349 . S
C1151 H1143 0.950 . S
C1151 C1149 1.327 . S
C1152 C1140 1.349 . S
C1152 H1146 0.950 . S
C1152 C1153 1.327 . S
C1153 H1147 0.950 . S
C1153 C1152 1.327 . S
C1153 C1157 1.429 . S
C1154 C1137 1.574 . S
C1154 H1148 0.949 . S
C1154 C1158 1.368 1_545 S
C1155 C1136 1.429 1_545 S
C1155 C1149 1.429 . S
C1155 C1156 1.523 1_545 S
C1156 C1137 1.368 1_565 S
C1156 C1150 1.368 . S
C1156 C1155 1.523 1_565 S
C1157 C1141 1.429 . S
C1157 C1153 1.429 . S
C1157 C1158 1.523 . S
C1158 C1142 1.368 . S
C1158 C1154 1.368 1_565 S
C1158 C1157 1.523 . S
H1159 C1134 0.950 . S
H1160 C1136 0.950 . S
H1161 C1137 0.949 . S
H1162 C1139 0.953 . S
H1163 C1141 0.950 1_545 S
C1164 C1165 1.349 . S
C1164 C1166 1.327 . S
C1164 H1189 0.950 . S
C1165 C1164 1.349 . S
C1165 C1181 1.349 . S
C1166 C1164 1.327 . S
C1166 C1185 1.429 . S
C1166 H1190 0.950 . S
C1167 C1184 1.574 . S
C1167 C1186 1.368 . S
C1167 H1191 0.949 . S
H1168 C1172 0.949 . S
C1169 C1170 1.349 . S
C1169 C1171 1.327 . S
C1169 H1192 0.950 . S
C1170 C1169 1.349 . S
C1170 C1182 1.349 . S
C1171 C1169 1.327 . S
C1171 C1187 1.429 . S
C1171 H1193 0.950 . S
C1172 H1168 0.949 . S
C1172 C1180 1.574 . S
C1172 C1188 1.368 . S
H1173 C1181 0.950 . S
H1174 C1179 0.950 . S
H1175 C1180 0.949 . S
H1176 C1182 0.950 . S
H1177 C1183 0.950 . S
H1178 C1184 0.949 . S
C1179 H1174 0.950 . S
C1179 C1181 1.327 . S
C1179 C1185 1.429 . S
C1180 C1172 1.574 . S
C1180 H1175 0.949 . S
C1180 C1186 1.368 . S
C1181 C1165 1.349 . S
C1181 H1173 0.950 . S
C1181 C1179 1.327 . S
C1182 C1170 1.349 . S
C1182 H1176 0.950 . S
C1182 C1183 1.327 . S
C1183 H1177 0.950 . S
C1183 C1182 1.327 . S
C1183 C1187 1.429 . S
C1184 C1167 1.574 . S
C1184 H1178 0.949 . S
C1184 C1188 1.368 . S
C1185 C1166 1.429 . S
C1185 C1179 1.429 . S
C1185 C1186 1.523 . S
C1186 C1167 1.368 . S
C1186 C1180 1.368 . S
C1186 C1185 1.523 . S
C1187 C1171 1.429 . S
C1187 C1183 1.429 . S
C1187 C1188 1.523 . S
C1188 C1172 1.368 . S
C1188 C1184 1.368 . S
C1188 C1187 1.523 . S
H1189 C1164 0.950 . S
H1190 C1166 0.950 . S
H1191 C1167 0.949 . S
H1192 C1169 0.950 . S
H1193 C1171 0.950 . S
C1194 C1195 1.349 . S
C1194 C1196 1.327 . S
C1194 H1219 0.950 . S
C1195 C1194 1.349 . S
C1195 C1211 1.349 . S
C1196 C1194 1.327 . S
C1196 C1215 1.429 . S
C1196 H1220 0.950 . S
C1197 C1214 1.574 . S
C1197 C1216 1.368 . S
C1197 H1221 0.949 . S
H1198 C1202 0.949 . S
C1199 C1200 1.349 . S
C1199 C1201 1.327 . S
C1199 H1222 0.950 . S
C1200 C1199 1.349 . S
C1200 C1212 1.349 . S
C1201 C1199 1.327 . S
C1201 C1217 1.429 . S
C1201 H1223 0.950 . S
C1202 H1198 0.949 . S
C1202 C1210 1.574 . S
C1202 C1218 1.368 . S
H1203 C1211 0.950 . S
H1204 C1209 0.950 . S
H1205 C1210 0.949 . S
H1206 C1212 0.950 . S
H1207 C1213 0.950 . S
H1208 C1214 0.949 . S
C1209 H1204 0.950 . S
C1209 C1211 1.327 . S
C1209 C1215 1.429 . S
C1210 C1202 1.574 . S
C1210 H1205 0.949 . S
C1210 C1216 1.368 . S
C1211 C1195 1.349 . S
C1211 H1203 0.950 . S
C1211 C1209 1.327 . S
C1212 C1200 1.349 . S
C1212 H1206 0.950 . S
C1212 C1213 1.327 . S
C1213 H1207 0.950 . S
C1213 C1212 1.327 . S
C1213 C1217 1.429 . S
C1214 C1197 1.574 . S
C1214 H1208 0.949 . S
C1214 C1218 1.368 . S
C1215 C1196 1.429 . S
C1215 C1209 1.429 . S
C1215 C1216 1.523 . S
C1216 C1197 1.368 . S
C1216 C1210 1.368 . S
C1216 C1215 1.523 . S
C1217 C1201 1.429 . S
C1217 C1213 1.429 . S
C1217 C1218 1.523 . S
C1218 C1202 1.368 . S
C1218 C1214 1.368 . S
C1218 C1217 1.523 . S
H1219 C1194 0.950 . S
H1220 C1196 0.950 . S
H1221 C1197 0.949 . S
H1222 C1199 0.950 . S
H1223 C1201 0.950 . S
C1224 C1225 1.349 . S
C1224 C1226 1.327 . S
C1224 H1249 0.950 . S
C1225 C1224 1.349 . S
C1225 C1241 1.349 . S
C1226 C1224 1.327 . S
C1226 C1245 1.429 . S
C1226 H1250 0.950 . S
C1227 C1244 1.574 . S
C1227 C1246 1.368 . S
C1227 H1251 0.949 . S
H1228 C1232 0.949 . S
C1229 C1230 1.349 . S
C1229 C1231 1.327 . S
C1229 H1252 0.950 . S
C1230 C1229 1.349 . S
C1230 C1242 1.349 . S
C1231 C1229 1.327 . S
C1231 C1247 1.429 . S
C1231 H1253 0.950 . S
C1232 H1228 0.949 . S
C1232 C1240 1.574 . S
C1232 C1248 1.368 . S
H1233 C1241 0.950 . S
H1234 C1239 0.950 . S
H1235 C1240 0.949 . S
H1236 C1242 0.950 . S
H1237 C1243 0.950 . S
H1238 C1244 0.949 . S
C1239 H1234 0.950 . S
C1239 C1241 1.327 . S
C1239 C1245 1.429 . S
C1240 C1232 1.574 . S
C1240 H1235 0.949 . S
C1240 C1246 1.368 . S
C1241 C1225 1.349 . S
C1241 H1233 0.950 . S
C1241 C1239 1.327 . S
C1242 C1230 1.349 . S
C1242 H1236 0.950 . S
C1242 C1243 1.327 . S
C1243 H1237 0.950 . S
C1243 C1242 1.327 . S
C1243 C1247 1.429 . S
C1244 C1227 1.574 . S
C1244 H1238 0.949 . S
C1244 C1248 1.368 . S
C1245 C1226 1.429 . S
C1245 C1239 1.429 . S
C1245 C1246 1.523 . S
C1246 C1227 1.368 . S
C1246 C1240 1.368 . S
C1246 C1245 1.523 . S
C1247 C1231 1.429 . S
C1247 C1243 1.429 . S
C1247 C1248 1.523 . S
C1248 C1232 1.368 . S
C1248 C1244 1.368 . S
C1248 C1247 1.523 . S
H1249 C1224 0.950 . S
H1250 C1226 0.950 . S
H1251 C1227 0.949 . S
H1252 C1229 0.950 . S
H1253 C1231 0.950 . S
C1254 C1255 1.349 . S
C1254 C1256 1.327 . S
C1254 H1279 0.950 . S
C1255 C1254 1.349 . S
C1255 C1271 1.349 . S
C1256 C1254 1.327 . S
C1256 C1275 1.429 . S
C1256 H1280 0.950 . S
C1257 C1274 1.574 . S
C1257 C1276 1.368 . S
C1257 H1281 0.949 . S
H1258 C1262 0.949 . S
C1259 C1260 1.349 . S
C1259 C1261 1.327 . S
C1259 H1282 0.950 . S
C1260 C1259 1.349 . S
C1260 C1272 1.349 . S
C1261 C1259 1.327 . S
C1261 C1277 1.429 . S
C1261 H1283 0.950 . S
C1262 H1258 0.949 . S
C1262 C1270 1.574 . S
C1262 C1278 1.368 . S
H1263 C1271 0.950 . S
H1264 C1269 0.950 . S
H1265 C1270 0.949 . S
H1266 C1272 0.950 . S
H1267 C1273 0.950 . S
H1268 C1274 0.949 . S
C1269 H1264 0.950 . S
C1269 C1271 1.327 . S
C1269 C1275 1.429 . S
C1270 C1262 1.574 . S
C1270 H1265 0.949 . S
C1270 C1276 1.368 . S
C1271 C1255 1.349 . S
C1271 H1263 0.950 . S
C1271 C1269 1.327 . S
C1272 C1260 1.349 . S
C1272 H1266 0.950 . S
C1272 C1273 1.327 . S
C1273 H1267 0.950 . S
C1273 C1272 1.327 . S
C1273 C1277 1.429 . S
C1274 C1257 1.574 . S
C1274 H1268 0.949 . S
C1274 C1278 1.368 . S
C1275 C1256 1.429 . S
C1275 C1269 1.429 . S
C1275 C1276 1.523 . S
C1276 C1257 1.368 . S
C1276 C1270 1.368 . S
C1276 C1275 1.523 . S
C1277 C1261 1.429 . S
C1277 C1273 1.429 . S
C1277 C1278 1.523 . S
C1278 C1262 1.368 . S
C1278 C1274 1.368 . S
C1278 C1277 1.523 . S
H1279 C1254 0.950 . S
H1280 C1256 0.950 . S
H1281 C1257 0.949 . S
H1282 C1259 0.950 . S
H1283 C1261 0.950 . S
C1284 C1285 1.349 . S
C1284 C1286 1.327 . S
C1284 H1309 0.950 . S
C1285 C1284 1.349 . S
C1285 C1301 1.349 1_545 S
C1286 C1284 1.327 . S
C1286 C1305 1.429 . S
C1286 H1310 0.950 . S
C1287 C1304 1.574 . S
C1287 C1306 1.368 . S
C1287 H1311 0.949 . S
H1288 C1292 0.949 . S
C1289 C1290 1.349 . S
C1289 C1291 1.327 . S
C1289 H1312 0.950 . S
C1290 C1289 1.349 . S
C1290 C1302 1.349 . S
C1291 C1289 1.327 . S
C1291 C1307 1.429 . S
C1291 H1313 0.950 . S
C1292 H1288 0.949 . S
C1292 C1300 1.574 . S
C1292 C1308 1.368 1_545 S
H1293 C1301 0.950 . S
H1294 C1299 0.950 . S
H1295 C1300 0.949 . S
H1296 C1302 0.910 1_545 S
H1297 C1303 0.950 1_545 S
H1298 C1304 0.949 . S
C1299 H1294 0.950 . S
C1299 C1301 1.327 . S
C1299 C1305 1.429 1_565 S
C1300 C1292 1.574 . S
C1300 H1295 0.949 . S
C1300 C1306 1.368 1_545 S
C1301 C1285 1.349 1_565 S
C1301 H1293 0.950 . S
C1301 C1299 1.327 . S
C1302 C1290 1.349 . S
C1302 H1296 0.910 1_565 S
C1302 C1303 1.327 . S
C1303 H1297 0.950 1_565 S
C1303 C1302 1.327 . S
C1303 C1307 1.429 . S
C1304 C1287 1.574 . S
C1304 H1298 0.949 . S
C1304 C1308 1.368 . S
C1305 C1286 1.429 . S
C1305 C1299 1.429 1_545 S
C1305 C1306 1.523 1_545 S
C1306 C1287 1.368 . S
C1306 C1300 1.368 1_565 S
C1306 C1305 1.523 1_565 S
C1307 C1291 1.429 . S
C1307 C1303 1.429 . S
C1307 C1308 1.523 . S
C1308 C1292 1.368 1_565 S
C1308 C1304 1.368 . S
C1308 C1307 1.523 . S
H1309 C1284 0.950 . S
H1310 C1286 0.950 . S
H1311 C1287 0.949 . S
H1312 C1289 0.950 . S
H1313 C1291 0.950 . S
C1314 C1315 1.349 . S
C1314 C1316 1.327 . S
C1314 H1339 0.950 . S
C1315 C1314 1.349 . S
C1315 C1331 1.349 . S
C1316 C1314 1.327 . S
C1316 C1335 1.429 . S
C1316 H1340 0.950 . S
C1317 C1334 1.574 . S
C1317 C1336 1.368 . S
C1317 H1341 0.949 . S
H1318 C1322 0.949 . S
C1319 C1320 1.349 . S
C1319 C1321 1.327 . S
C1319 H1342 0.950 . S
C1320 C1319 1.349 . S
C1320 C1332 1.349 . S
C1321 C1319 1.327 . S
C1321 C1337 1.429 . S
C1321 H1343 0.950 . S
C1322 H1318 0.949 . S
C1322 C1330 1.574 . S
C1322 C1338 1.368 . S
H1323 C1331 0.950 . S
H1324 C1329 0.950 . S
H1325 C1330 0.949 . S
H1326 C1332 0.950 . S
H1327 C1333 0.950 . S
H1328 C1334 0.949 . S
C1329 H1324 0.950 . S
C1329 C1331 1.327 . S
C1329 C1335 1.429 . S
C1330 C1322 1.574 . S
C1330 H1325 0.949 . S
C1330 C1336 1.368 . S
C1331 C1315 1.349 . S
C1331 H1323 0.950 . S
C1331 C1329 1.327 . S
C1332 C1320 1.349 . S
C1332 H1326 0.950 . S
C1332 C1333 1.327 . S
C1333 H1327 0.950 . S
C1333 C1332 1.327 . S
C1333 C1337 1.429 . S
C1334 C1317 1.574 . S
C1334 H1328 0.949 . S
C1334 C1338 1.368 . S
C1335 C1316 1.429 . S
C1335 C1329 1.429 . S
C1335 C1336 1.523 . S
C1336 C1317 1.368 . S
C1336 C1330 1.368 . S
C1336 C1335 1.523 . S
C1337 C1321 1.429 . S
C1337 C1333 1.429 . S
C1337 C1338 1.523 . S
C1338 C1322 1.368 . S
C1338 C1334 1.368 . S
C1338 C1337 1.523 . S
H1339 C1314 0.950 . S
H1340 C1316 0.950 . S
H1341 C1317 0.949 . S
H1342 C1319 0.950 . S
H1343 C1321 0.950 . S
C1344 C1345 1.349 . S
C1344 C1346 1.327 . S
C1344 H1369 0.950 . S
C1345 C1344 1.349 . S
C1345 C1361 1.346 . S
C1346 C1344 1.327 . S
C1346 C1365 1.429 . S
C1346 H1370 0.950 . S
C1347 C1364 1.574 . S
C1347 C1366 1.368 . S
C1347 H1371 0.949 . S
H1348 C1352 0.965 . S
C1349 C1350 1.349 . S
C1349 C1351 1.327 . S
C1349 H1372 0.950 . S
C1350 C1349 1.349 . S
C1350 C1362 1.349 . S
C1351 C1349 1.327 . S
C1351 C1367 1.429 . S
C1351 H1373 0.950 . S
C1352 H1348 0.965 . S
C1352 C1360 1.574 . S
C1352 C1368 1.350 1_455 S
H1353 C1361 0.953 1_655 S
H1354 C1359 0.950 . S
H1355 C1360 0.949 . S
H1356 C1362 0.950 . S
H1357 C1363 0.950 . S
H1358 C1364 0.949 . S
C1359 H1354 0.950 . S
C1359 C1361 1.327 1_655 S
C1359 C1365 1.429 1_655 S
C1360 C1352 1.574 . S
C1360 H1355 0.949 . S
C1360 C1366 1.368 1_455 S
C1361 C1345 1.346 . S
C1361 H1353 0.953 1_455 S
C1361 C1359 1.327 1_455 S
C1362 C1350 1.349 . S
C1362 H1356 0.950 . S
C1362 C1363 1.327 . S
C1363 H1357 0.950 . S
C1363 C1362 1.327 . S
C1363 C1367 1.429 . S
C1364 C1347 1.574 . S
C1364 H1358 0.949 . S
C1364 C1368 1.368 . S
C1365 C1346 1.429 . S
C1365 C1359 1.429 1_455 S
C1365 C1366 1.523 1_455 S
C1366 C1347 1.368 . S
C1366 C1360 1.368 1_655 S
C1366 C1365 1.523 1_655 S
C1367 C1351 1.429 . S
C1367 C1363 1.429 . S
C1367 C1368 1.523 . S
C1368 C1352 1.350 1_655 S
C1368 C1364 1.368 . S
C1368 C1367 1.523 . S
H1369 C1344 0.950 . S
H1370 C1346 0.950 . S
H1371 C1347 0.949 . S
H1372 C1349 0.950 . S
H1373 C1351 0.950 . S
C1374 C1375 1.349 . S
C1374 C1376 1.327 . S
C1374 H1399 0.950 . S
C1375 C1374 1.349 . S
C1375 C1391 1.349 . S
C1376 C1374 1.327 . S
C1376 C1395 1.429 . S
C1376 H1400 0.950 . S
C1377 C1394 1.574 . S
C1377 C1396 1.368 . S
C1377 H1401 0.949 . S
H1378 C1382 0.949 . S
C1379 C1380 1.349 . S
C1379 C1381 1.327 . S
C1379 H1402 0.950 . S
C1380 C1379 1.349 . S
C1380 C1392 1.349 . S
C1381 C1379 1.327 . S
C1381 C1397 1.429 . S
C1381 H1403 0.950 . S
C1382 H1378 0.949 . S
C1382 C1390 1.574 . S
C1382 C1398 1.368 . S
H1383 C1391 0.950 . S
H1384 C1389 0.950 . S
H1385 C1390 0.949 . S
H1386 C1392 0.950 . S
H1387 C1393 0.950 . S
H1388 C1394 0.949 . S
C1389 H1384 0.950 . S
C1389 C1391 1.327 . S
C1389 C1395 1.429 . S
C1390 C1382 1.574 . S
C1390 H1385 0.949 . S
C1390 C1396 1.368 . S
C1391 C1375 1.349 . S
C1391 H1383 0.950 . S
C1391 C1389 1.327 . S
C1392 C1380 1.349 . S
C1392 H1386 0.950 . S
C1392 C1393 1.327 . S
C1393 H1387 0.950 . S
C1393 C1392 1.327 . S
C1393 C1397 1.429 . S
C1394 C1377 1.574 . S
C1394 H1388 0.949 . S
C1394 C1398 1.368 . S
C1395 C1376 1.429 . S
C1395 C1389 1.429 . S
C1395 C1396 1.523 . S
C1396 C1377 1.368 . S
C1396 C1390 1.368 . S
C1396 C1395 1.523 . S
C1397 C1381 1.429 . S
C1397 C1393 1.429 . S
C1397 C1398 1.523 . S
C1398 C1382 1.368 . S
C1398 C1394 1.368 . S
C1398 C1397 1.523 . S
H1399 C1374 0.950 . S
H1400 C1376 0.950 . S
H1401 C1377 0.949 . S
H1402 C1379 0.950 . S
H1403 C1381 0.950 . S
C1404 C1405 1.349 . S
C1404 C1406 1.327 . S
C1404 H1429 0.950 . S
C1405 C1404 1.349 . S
C1405 C1421 1.349 . S
C1406 C1404 1.327 . S
C1406 C1425 1.429 . S
C1406 H1430 0.950 . S
C1407 C1424 1.574 . S
C1407 C1426 1.368 . S
C1407 H1431 0.949 . S
H1408 C1412 0.949 . S
C1409 C1410 1.349 . S
C1409 C1411 1.327 . S
C1409 H1432 0.950 . S
C1410 C1409 1.349 . S
C1410 C1422 1.349 . S
C1411 C1409 1.327 . S
C1411 C1427 1.429 . S
C1411 H1433 0.950 . S
C1412 H1408 0.949 . S
C1412 C1420 1.574 . S
C1412 C1428 1.368 . S
H1413 C1421 0.950 . S
H1414 C1419 0.950 . S
H1415 C1420 0.949 . S
H1416 C1422 0.950 . S
H1417 C1423 0.950 . S
H1418 C1424 0.949 . S
C1419 H1414 0.950 . S
C1419 C1421 1.327 . S
C1419 C1425 1.429 . S
C1420 C1412 1.574 . S
C1420 H1415 0.949 . S
C1420 C1426 1.368 . S
C1421 C1405 1.349 . S
C1421 H1413 0.950 . S
C1421 C1419 1.327 . S
C1422 C1410 1.349 . S
C1422 H1416 0.950 . S
C1422 C1423 1.327 . S
C1423 H1417 0.950 . S
C1423 C1422 1.327 . S
C1423 C1427 1.429 . S
C1424 C1407 1.574 . S
C1424 H1418 0.949 . S
C1424 C1428 1.368 . S
C1425 C1406 1.429 . S
C1425 C1419 1.429 . S
C1425 C1426 1.523 . S
C1426 C1407 1.368 . S
C1426 C1420 1.368 . S
C1426 C1425 1.523 . S
C1427 C1411 1.429 . S
C1427 C1423 1.429 . S
C1427 C1428 1.523 . S
C1428 C1412 1.368 . S
C1428 C1424 1.368 . S
C1428 C1427 1.523 . S
H1429 C1404 0.950 . S
H1430 C1406 0.950 . S
H1431 C1407 0.949 . S
H1432 C1409 0.950 . S
H1433 C1411 0.950 . S
C1434 C1435 1.349 . S
C1434 C1436 1.327 . S
C1434 H1459 0.950 . S
C1435 C1434 1.349 . S
C1435 C1451 1.349 . S
C1436 C1434 1.327 . S
C1436 C1455 1.429 . S
C1436 H1460 0.950 . S
C1437 C1454 1.574 . S
C1437 C1456 1.368 . S
C1437 H1461 0.949 . S
H1438 C1442 1.020 . S
C1439 C1440 1.349 1_545 S
C1439 C1441 1.327 . S
C1439 H1462 0.950 . S
C1440 C1439 1.349 1_565 S
C1440 C1452 1.349 . S
C1441 C1439 1.327 . S
C1441 C1457 1.429 . S
C1441 H1463 0.950 . S
C1442 H1438 1.020 . S
C1442 C1450 1.574 . S
C1442 C1458 1.368 . S
H1443 C1451 0.950 . S
H1444 C1449 0.950 . S
H1445 C1450 0.949 . S
H1446 C1452 0.950 . S
H1447 C1453 0.950 . S
H1448 C1454 0.949 . S
C1449 H1444 0.950 . S
C1449 C1451 1.327 . S
C1449 C1455 1.429 . S
C1450 C1442 1.574 . S
C1450 H1445 0.949 . S
C1450 C1456 1.368 . S
C1451 C1435 1.349 . S
C1451 H1443 0.950 . S
C1451 C1449 1.327 . S
C1452 C1440 1.349 . S
C1452 H1446 0.950 . S
C1452 C1453 1.327 . S
C1453 H1447 0.950 . S
C1453 C1452 1.327 . S
C1453 C1457 1.429 1_565 S
C1454 C1437 1.574 . S
C1454 H1448 0.949 . S
C1454 C1458 1.368 . S
C1455 C1436 1.429 . S
C1455 C1449 1.429 . S
C1455 C1456 1.523 . S
C1456 C1437 1.368 . S
C1456 C1450 1.368 . S
C1456 C1455 1.523 . S
C1457 C1441 1.429 . S
C1457 C1453 1.429 1_545 S
C1457 C1458 1.523 . S
C1458 C1442 1.368 . S
C1458 C1454 1.368 . S
C1458 C1457 1.523 . S
H1459 C1434 0.950 . S
H1460 C1436 0.950 . S
H1461 C1437 0.949 . S
H1462 C1439 0.950 . S
H1463 C1441 0.950 . S
C1464 C1465 1.349 . S
C1464 C1466 1.306 1_655 S
C1464 H1489 0.950 . S
C1465 C1464 1.349 . S
C1465 C1481 1.311 1_655 S
C1466 C1464 1.306 1_455 S
C1466 C1485 1.475 . S
C1466 H1490 0.945 . S
C1467 C1484 1.574 . S
C1467 C1486 1.368 . S
C1467 H1491 0.949 . S
H1468 C1472 0.949 . S
C1469 C1470 1.349 . S
C1469 C1471 1.327 . S
C1469 H1492 0.950 . S
C1470 C1469 1.349 . S
C1470 C1482 1.349 . S
C1471 C1469 1.327 . S
C1471 C1487 1.429 . S
C1471 H1493 0.950 . S
C1472 H1468 0.949 . S
C1472 C1480 1.574 . S
C1472 C1488 1.368 . S
H1473 C1481 0.957 . S
H1474 C1479 0.950 . S
H1475 C1480 0.949 . S
H1476 C1482 0.950 . S
H1477 C1483 0.950 . S
H1478 C1484 0.949 . S
C1479 H1474 0.950 . S
C1479 C1481 1.347 . S
C1479 C1485 1.429 . S
C1480 C1472 1.574 . S
C1480 H1475 0.949 . S
C1480 C1486 1.368 . S
C1481 C1465 1.311 1_455 S
C1481 H1473 0.957 . S
C1481 C1479 1.347 . S
C1482 C1470 1.349 . S
C1482 H1476 0.950 . S
C1482 C1483 1.327 . S
C1483 H1477 0.950 . S
C1483 C1482 1.327 . S
C1483 C1487 1.429 . S
C1484 C1467 1.574 . S
C1484 H1478 0.949 . S
C1484 C1488 1.368 . S
C1485 C1466 1.475 . S
C1485 C1479 1.429 . S
C1485 C1486 1.523 . S
C1486 C1467 1.368 . S
C1486 C1480 1.368 . S
C1486 C1485 1.523 . S
C1487 C1471 1.429 . S
C1487 C1483 1.429 . S
C1487 C1488 1.523 . S
C1488 C1472 1.368 . S
C1488 C1484 1.368 . S
C1488 C1487 1.523 . S
H1489 C1464 0.950 . S
H1490 C1466 0.945 . S
H1491 C1467 0.949 . S
H1492 C1469 0.950 . S
H1493 C1471 0.950 . S
C1494 C1495 1.349 . S
C1494 C1496 1.327 . S
C1494 H1519 0.950 . S
C1495 C1494 1.349 . S
C1495 C1511 1.349 . S
C1496 C1494 1.327 . S
C1496 C1515 1.429 . S
C1496 H1520 0.950 . S
C1497 C1514 1.574 . S
C1497 C1516 1.368 . S
C1497 H1521 0.949 . S
H1498 C1502 0.949 . S
C1499 C1500 1.349 . S
C1499 C1501 1.327 . S
C1499 H1522 0.950 . S
C1500 C1499 1.349 . S
C1500 C1512 1.349 . S
C1501 C1499 1.327 . S
C1501 C1517 1.429 . S
C1501 H1523 0.950 . S
C1502 H1498 0.949 . S
C1502 C1510 1.574 . S
C1502 C1518 1.368 . S
H1503 C1511 0.950 . S
H1504 C1509 0.950 . S
H1505 C1510 0.949 . S
H1506 C1512 0.950 . S
H1507 C1513 0.950 . S
H1508 C1514 0.949 . S
C1509 H1504 0.950 . S
C1509 C1511 1.327 . S
C1509 C1515 1.429 . S
C1510 C1502 1.574 . S
C1510 H1505 0.949 . S
C1510 C1516 1.368 . S
C1511 C1495 1.349 . S
C1511 H1503 0.950 . S
C1511 C1509 1.327 . S
C1512 C1500 1.349 . S
C1512 H1506 0.950 . S
C1512 C1513 1.327 . S
C1513 H1507 0.950 . S
C1513 C1512 1.327 . S
C1513 C1517 1.429 . S
C1514 C1497 1.574 . S
C1514 H1508 0.949 . S
C1514 C1518 1.368 . S
C1515 C1496 1.429 . S
C1515 C1509 1.429 . S
C1515 C1516 1.523 . S
C1516 C1497 1.368 . S
C1516 C1510 1.368 . S
C1516 C1515 1.523 . S
C1517 C1501 1.429 . S
C1517 C1513 1.429 . S
C1517 C1518 1.523 . S
C1518 C1502 1.368 . S
C1518 C1514 1.368 . S
C1518 C1517 1.523 . S
H1519 C1494 0.950 . S
H1520 C1496 0.950 . S
H1521 C1497 0.949 . S
H1522 C1499 0.950 . S
H1523 C1501 0.950 . S
C1524 C1525 1.349 1_545 S
C1524 C1526 1.327 . S
C1524 H1549 0.950 . S
C1525 C1524 1.349 1_565 S
C1525 C1541 1.349 . S
C1526 C1524 1.327 . S
C1526 C1545 1.429 . S
C1526 H1550 0.950 . S
C1527 C1544 1.574 . S
C1527 C1546 1.368 . S
C1527 H1551 0.949 1_545 S
H1528 C1532 0.949 . S
C1529 C1530 1.349 . S
C1529 C1531 1.327 . S
C1529 H1552 0.950 . S
C1530 C1529 1.349 . S
C1530 C1542 1.349 . S
C1531 C1529 1.327 . S
C1531 C1547 1.429 . S
C1531 H1553 0.950 . S
C1532 H1528 0.949 . S
C1532 C1540 1.574 . S
C1532 C1548 1.368 . S
H1533 C1541 0.950 . S
H1534 C1539 0.950 . S
H1535 C1540 0.949 . S
H1536 C1542 0.950 . S
H1537 C1543 0.950 . S
H1538 C1544 0.949 . S
C1539 H1534 0.950 . S
C1539 C1541 1.327 . S
C1539 C1545 1.429 1_565 S
C1540 C1532 1.574 . S
C1540 H1535 0.949 . S
C1540 C1546 1.368 . S
C1541 C1525 1.349 . S
C1541 H1533 0.950 . S
C1541 C1539 1.327 . S
C1542 C1530 1.349 . S
C1542 H1536 0.950 . S
C1542 C1543 1.327 . S
C1543 H1537 0.950 . S
C1543 C1542 1.327 . S
C1543 C1547 1.429 . S
C1544 C1527 1.574 . S
C1544 H1538 0.949 . S
C1544 C1548 1.368 . S
C1545 C1526 1.429 . S
C1545 C1539 1.429 1_545 S
C1545 C1546 1.523 . S
C1546 C1527 1.368 . S
C1546 C1540 1.368 . S
C1546 C1545 1.523 . S
C1547 C1531 1.429 . S
C1547 C1543 1.429 . S
C1547 C1548 1.523 . S
C1548 C1532 1.368 . S
C1548 C1544 1.368 . S
C1548 C1547 1.523 . S
H1549 C1524 0.950 . S
H1550 C1526 0.950 . S
H1551 C1527 0.949 1_565 S
H1552 C1529 0.950 . S
H1553 C1531 0.950 . S
C1554 C1555 1.349 . S
C1554 C1556 1.327 1_655 S
C1554 H1579 0.950 . S
C1555 C1554 1.349 . S
C1555 C1571 1.349 . S
C1556 C1554 1.327 1_455 S
C1556 C1575 1.429 . S
C1556 H1580 0.950 . S
C1557 C1574 1.574 . S
C1557 C1576 1.368 . S
C1557 H1581 0.949 . S
H1558 C1562 0.949 . S
C1559 C1560 1.349 . S
C1559 C1561 1.327 . S
C1559 H1582 0.950 . S
C1560 C1559 1.349 . S
C1560 C1572 1.349 . S
C1561 C1559 1.327 . S
C1561 C1577 1.429 . S
C1561 H1583 0.950 . S
C1562 H1558 0.949 . S
C1562 C1570 1.574 . S
C1562 C1578 1.368 . S
H1563 C1571 0.950 . S
H1564 C1569 0.950 . S
H1565 C1570 0.949 . S
H1566 C1572 0.950 . S
H1567 C1573 0.950 . S
H1568 C1574 0.949 . S
C1569 H1564 0.950 . S
C1569 C1571 1.327 1_455 S
C1569 C1575 1.429 . S
C1570 C1562 1.574 . S
C1570 H1565 0.949 . S
C1570 C1576 1.368 . S
C1571 C1555 1.349 . S
C1571 H1563 0.950 . S
C1571 C1569 1.327 1_655 S
C1572 C1560 1.349 . S
C1572 H1566 0.950 . S
C1572 C1573 1.327 . S
C1573 H1567 0.950 . S
C1573 C1572 1.327 . S
C1573 C1577 1.429 . S
C1574 C1557 1.574 . S
C1574 H1568 0.949 . S
C1574 C1578 1.368 . S
C1575 C1556 1.429 . S
C1575 C1569 1.429 . S
C1575 C1576 1.523 . S
C1576 C1557 1.368 . S
C1576 C1570 1.368 . S
C1576 C1575 1.523 . S
C1577 C1561 1.429 . S
C1577 C1573 1.429 . S
C1577 C1578 1.523 . S
C1578 C1562 1.368 . S
C1578 C1574 1.368 . S
C1578 C1577 1.523 . S
H1579 C1554 0.950 . S
H1580 C1556 0.950 . S
H1581 C1557 0.949 . S
H1582 C1559 0.950 . S
H1583 C1561 0.950 . S
C1584 C1585 1.349 . S
C1584 C1586 1.327 . S
C1584 H1609 0.950 . S
C1585 C1584 1.349 . S
C1585 C1601 1.349 . S
C1586 C1584 1.327 . S
C1586 C1605 1.429 . S
C1586 H1610 0.950 . S
C1587 C1604 1.574 1_554 S
C1587 C1606 1.368 . S
C1587 H1611 0.949 . S
H1588 C1592 0.949 . S
C1589 C1590 1.349 . S
C1589 C1591 1.327 . S
C1589 H1612 0.950 . S
C1590 C1589 1.349 . S
C1590 C1602 1.349 . S
C1591 C1589 1.327 . S
C1591 C1607 1.429 . S
C1591 H1613 0.950 . S
C1592 H1588 0.949 . S
C1592 C1600 1.574 1_556 S
C1592 C1608 1.368 . S
H1593 C1601 0.932 1_655 S
H1594 C1599 0.962 . S
H1595 C1600 0.949 . S
H1596 C1602 0.950 . S
H1597 C1603 0.950 . S
H1598 C1604 0.949 . S
C1599 H1594 0.962 . S
C1599 C1601 1.327 . S
C1599 C1605 1.429 . S
C1600 C1592 1.574 1_554 S
C1600 H1595 0.949 . S
C1600 C1606 1.368 . S
C1601 C1585 1.349 . S
C1601 H1593 0.932 1_455 S
C1601 C1599 1.327 . S
C1602 C1590 1.349 . S
C1602 H1596 0.950 . S
C1602 C1603 1.327 . S
C1603 H1597 0.950 . S
C1603 C1602 1.327 . S
C1603 C1607 1.429 . S
C1604 C1587 1.574 1_556 S
C1604 H1598 0.949 . S
C1604 C1608 1.368 . S
C1605 C1586 1.429 . S
C1605 C1599 1.429 . S
C1605 C1606 1.523 . S
C1606 C1587 1.368 . S
C1606 C1600 1.368 . S
C1606 C1605 1.523 . S
C1607 C1591 1.429 . S
C1607 C1603 1.429 . S
C1607 C1608 1.523 . S
C1608 C1592 1.368 . S
C1608 C1604 1.368 . S
C1608 C1607 1.523 . S
H1609 C1584 0.950 . S
H1610 C1586 0.950 . S
H1611 C1587 0.949 . S
H1612 C1589 0.950 . S
H1613 C1591 0.950 . S
C1614 C1615 1.349 . S
C1614 C1616 1.327 . S
C1614 H1639 0.950 . S
C1615 C1614 1.349 . S
C1615 C1631 1.349 . S
C1616 C1614 1.327 . S
C1616 C1635 1.429 . S
C1616 H1640 0.950 . S
C1617 C1634 1.574 1_556 S
C1617 C1636 1.368 . S
C1617 H1641 0.949 . S
H1618 C1622 0.949 . S
C1619 C1620 1.349 . S
C1619 C1621 1.327 . S
C1619 H1642 0.950 . S
C1620 C1619 1.349 . S
C1620 C1632 1.349 . S
C1621 C1619 1.327 . S
C1621 C1637 1.429 . S
C1621 H1643 0.950 . S
C1622 H1618 0.949 . S
C1622 C1630 1.574 1_554 S
C1622 C1638 1.368 . S
H1623 C1631 0.950 . S
H1624 C1629 0.950 . S
H1625 C1630 0.949 . S
H1626 C1632 0.950 . S
H1627 C1633 0.950 . S
H1628 C1634 0.949 . S
C1629 H1624 0.950 . S
C1629 C1631 1.327 . S
C1629 C1635 1.429 . S
C1630 C1622 1.574 1_556 S
C1630 H1625 0.949 . S
C1630 C1636 1.368 . S
C1631 C1615 1.349 . S
C1631 H1623 0.950 . S
C1631 C1629 1.327 . S
C1632 C1620 1.349 . S
C1632 H1626 0.950 . S
C1632 C1633 1.327 . S
C1633 H1627 0.950 . S
C1633 C1632 1.327 . S
C1633 C1637 1.429 . S
C1634 C1617 1.574 1_554 S
C1634 H1628 0.949 . S
C1634 C1638 1.368 . S
C1635 C1616 1.429 . S
C1635 C1629 1.429 . S
C1635 C1636 1.523 . S
C1636 C1617 1.368 . S
C1636 C1630 1.368 . S
C1636 C1635 1.523 . S
C1637 C1621 1.429 . S
C1637 C1633 1.429 . S
C1637 C1638 1.523 . S
C1638 C1622 1.368 . S
C1638 C1634 1.368 . S
C1638 C1637 1.523 . S
H1639 C1614 0.950 . S
H1640 C1616 0.950 . S
H1641 C1617 0.949 . S
H1642 C1619 0.950 . S
H1643 C1621 0.950 . S
C1644 C1645 1.349 . S
C1644 C1646 1.327 . S
C1644 H1669 0.950 . S
C1645 C1644 1.349 . S
C1645 C1661 1.349 . S
C1646 C1644 1.327 . S
C1646 C1665 1.429 . S
C1646 H1670 0.950 . S
C1647 C1664 1.574 1_556 S
C1647 C1666 1.368 . S
C1647 H1671 0.949 . S
H1648 C1652 0.949 . S
C1649 C1650 1.349 . S
C1649 C1651 1.327 . S
C1649 H1672 0.950 . S
C1650 C1649 1.349 . S
C1650 C1662 1.349 . S
C1651 C1649 1.327 . S
C1651 C1667 1.429 . S
C1651 H1673 0.950 . S
C1652 H1648 0.949 . S
C1652 C1660 1.574 1_554 S
C1652 C1668 1.368 . S
H1653 C1661 0.950 . S
H1654 C1659 0.950 . S
H1655 C1660 0.949 . S
H1656 C1662 0.950 . S
H1657 C1663 0.950 . S
H1658 C1664 0.949 . S
C1659 H1654 0.950 . S
C1659 C1661 1.327 . S
C1659 C1665 1.429 . S
C1660 C1652 1.574 1_556 S
C1660 H1655 0.949 . S
C1660 C1666 1.368 . S
C1661 C1645 1.349 . S
C1661 H1653 0.950 . S
C1661 C1659 1.327 . S
C1662 C1650 1.349 . S
C1662 H1656 0.950 . S
C1662 C1663 1.327 . S
C1663 H1657 0.950 . S
C1663 C1662 1.327 . S
C1663 C1667 1.429 . S
C1664 C1647 1.574 1_554 S
C1664 H1658 0.949 . S
C1664 C1668 1.368 . S
C1665 C1646 1.429 . S
C1665 C1659 1.429 . S
C1665 C1666 1.523 . S
C1666 C1647 1.368 . S
C1666 C1660 1.368 . S
C1666 C1665 1.523 . S
C1667 C1651 1.429 . S
C1667 C1663 1.429 . S
C1667 C1668 1.523 . S
C1668 C1652 1.368 . S
C1668 C1664 1.368 . S
C1668 C1667 1.523 . S
H1669 C1644 0.950 . S
H1670 C1646 0.950 . S
H1671 C1647 0.949 . S
H1672 C1649 0.950 . S
H1673 C1651 0.950 . S
C1674 C1675 1.349 . S
C1674 C1676 1.327 . S
C1674 H1699 0.950 . S
C1675 C1674 1.349 . S
C1675 C1691 1.349 . S
C1676 C1674 1.327 . S
C1676 C1695 1.429 . S
C1676 H1700 0.950 . S
C1677 C1694 1.574 1_556 S
C1677 C1696 1.368 . S
C1677 H1701 0.949 . S
H1678 C1682 0.949 . S
C1679 C1680 1.349 . S
C1679 C1681 1.327 . S
C1679 H1702 0.950 . S
C1680 C1679 1.349 . S
C1680 C1692 1.349 . S
C1681 C1679 1.327 . S
C1681 C1697 1.429 . S
C1681 H1703 0.950 . S
C1682 H1678 0.949 . S
C1682 C1690 1.574 1_554 S
C1682 C1698 1.368 . S
H1683 C1691 0.950 . S
H1684 C1689 0.950 . S
H1685 C1690 0.949 . S
H1686 C1692 0.950 . S
H1687 C1693 0.950 . S
H1688 C1694 0.949 . S
C1689 H1684 0.950 . S
C1689 C1691 1.327 . S
C1689 C1695 1.429 . S
C1690 C1682 1.574 1_556 S
C1690 H1685 0.949 . S
C1690 C1696 1.368 . S
C1691 C1675 1.349 . S
C1691 H1683 0.950 . S
C1691 C1689 1.327 . S
C1692 C1680 1.349 . S
C1692 H1686 0.950 . S
C1692 C1693 1.327 . S
C1693 H1687 0.950 . S
C1693 C1692 1.327 . S
C1693 C1697 1.429 . S
C1694 C1677 1.574 1_554 S
C1694 H1688 0.949 . S
C1694 C1698 1.368 . S
C1695 C1676 1.429 . S
C1695 C1689 1.429 . S
C1695 C1696 1.523 . S
C1696 C1677 1.368 . S
C1696 C1690 1.368 . S
C1696 C1695 1.523 . S
C1697 C1681 1.429 . S
C1697 C1693 1.429 . S
C1697 C1698 1.523 . S
C1698 C1682 1.368 . S
C1698 C1694 1.368 . S
C1698 C1697 1.523 . S
H1699 C1674 0.950 . S
H1700 C1676 0.950 . S
H1701 C1677 0.949 . S
H1702 C1679 0.950 . S
H1703 C1681 0.950 . S
C1704 C1705 1.349 . S
C1704 C1706 1.327 . S
C1704 H1729 0.950 . S
C1705 C1704 1.349 . S
C1705 C1721 1.349 . S
C1706 C1704 1.327 . S
C1706 C1725 1.429 . S
C1706 H1730 0.950 . S
C1707 C1724 1.574 1_554 S
C1707 C1726 1.368 . S
C1707 H1731 0.949 . S
H1708 C1712 0.949 . S
C1709 C1710 1.349 . S
C1709 C1711 1.327 . S
C1709 H1732 0.950 . S
C1710 C1709 1.349 . S
C1710 C1722 1.349 . S
C1711 C1709 1.327 . S
C1711 C1727 1.429 . S
C1711 H1733 0.950 . S
C1712 H1708 0.949 . S
C1712 C1720 1.574 1_556 S
C1712 C1728 1.368 . S
H1713 C1721 0.950 . S
H1714 C1719 0.950 . S
H1715 C1720 0.949 . S
H1716 C1722 0.950 . S
H1717 C1723 0.950 . S
H1718 C1724 0.949 . S
C1719 H1714 0.950 . S
C1719 C1721 1.327 . S
C1719 C1725 1.429 . S
C1720 C1712 1.574 1_554 S
C1720 H1715 0.949 . S
C1720 C1726 1.368 . S
C1721 C1705 1.349 . S
C1721 H1713 0.950 . S
C1721 C1719 1.327 . S
C1722 C1710 1.349 . S
C1722 H1716 0.950 . S
C1722 C1723 1.327 . S
C1723 H1717 0.950 . S
C1723 C1722 1.327 . S
C1723 C1727 1.429 . S
C1724 C1707 1.574 1_556 S
C1724 H1718 0.949 . S
C1724 C1728 1.368 . S
C1725 C1706 1.429 . S
C1725 C1719 1.429 . S
C1725 C1726 1.523 . S
C1726 C1707 1.368 . S
C1726 C1720 1.368 . S
C1726 C1725 1.523 . S
C1727 C1711 1.429 . S
C1727 C1723 1.429 . S
C1727 C1728 1.523 . S
C1728 C1712 1.368 . S
C1728 C1724 1.368 . S
C1728 C1727 1.523 . S
H1729 C1704 0.950 . S
H1730 C1706 0.950 . S
H1731 C1707 0.949 . S
H1732 C1709 0.950 . S
H1733 C1711 0.950 . S
C1734 C1735 1.349 . S
C1734 C1736 1.327 . S
C1734 H1759 0.950 . S
C1735 C1734 1.349 . S
C1735 C1751 1.349 . S
C1736 C1734 1.327 . S
C1736 C1755 1.429 . S
C1736 H1760 0.950 . S
C1737 C1754 1.574 1_556 S
C1737 C1756 1.368 . S
C1737 H1761 0.949 . S
H1738 C1742 0.949 . S
C1739 C1740 1.349 . S
C1739 C1741 1.327 . S
C1739 H1762 0.950 . S
C1740 C1739 1.349 . S
C1740 C1752 1.349 . S
C1741 C1739 1.327 . S
C1741 C1757 1.429 . S
C1741 H1763 0.950 . S
C1742 H1738 0.949 . S
C1742 C1750 1.574 1_554 S
C1742 C1758 1.368 . S
H1743 C1751 0.950 . S
H1744 C1749 0.950 . S
H1745 C1750 0.949 . S
H1746 C1752 0.950 . S
H1747 C1753 0.950 . S
H1748 C1754 0.949 . S
C1749 H1744 0.950 . S
C1749 C1751 1.327 . S
C1749 C1755 1.429 . S
C1750 C1742 1.574 1_556 S
C1750 H1745 0.949 . S
C1750 C1756 1.368 . S
C1751 C1735 1.349 . S
C1751 H1743 0.950 . S
C1751 C1749 1.327 . S
C1752 C1740 1.349 . S
C1752 H1746 0.950 . S
C1752 C1753 1.327 . S
C1753 H1747 0.950 . S
C1753 C1752 1.327 . S
C1753 C1757 1.429 . S
C1754 C1737 1.574 1_554 S
C1754 H1748 0.949 . S
C1754 C1758 1.368 . S
C1755 C1736 1.429 . S
C1755 C1749 1.429 . S
C1755 C1756 1.523 . S
C1756 C1737 1.368 . S
C1756 C1750 1.368 . S
C1756 C1755 1.523 . S
C1757 C1741 1.429 . S
C1757 C1753 1.429 . S
C1757 C1758 1.523 . S
C1758 C1742 1.368 . S
C1758 C1754 1.368 . S
C1758 C1757 1.523 . S
H1759 C1734 0.950 . S
H1760 C1736 0.950 . S
H1761 C1737 0.949 . S
H1762 C1739 0.950 . S
H1763 C1741 0.950 . S
C1764 C1765 1.349 . S
C1764 C1766 1.327 . S
C1764 H1789 0.950 . S
C1765 C1764 1.349 . S
C1765 C1781 1.349 . S
C1766 C1764 1.327 . S
C1766 C1785 1.429 . S
C1766 H1790 0.950 . S
C1767 C1784 1.574 . S
C1767 C1786 1.368 . S
C1767 H1791 0.949 . S
H1768 C1772 0.949 . S
C1769 C1770 1.349 . S
C1769 C1771 1.327 . S
C1769 H1792 0.950 . S
C1770 C1769 1.349 . S
C1770 C1782 1.349 . S
C1771 C1769 1.327 . S
C1771 C1787 1.429 . S
C1771 H1793 0.950 . S
C1772 H1768 0.949 . S
C1772 C1780 1.574 . S
C1772 C1788 1.368 . S
H1773 C1781 0.950 . S
H1774 C1779 0.950 . S
H1775 C1780 0.949 . S
H1776 C1782 0.950 . S
H1777 C1783 0.950 . S
H1778 C1784 0.949 . S
C1779 H1774 0.950 . S
C1779 C1781 1.327 . S
C1779 C1785 1.429 . S
C1780 C1772 1.574 . S
C1780 H1775 0.949 . S
C1780 C1786 1.368 . S
C1781 C1765 1.349 . S
C1781 H1773 0.950 . S
C1781 C1779 1.327 . S
C1782 C1770 1.349 . S
C1782 H1776 0.950 . S
C1782 C1783 1.327 . S
C1783 H1777 0.950 . S
C1783 C1782 1.327 . S
C1783 C1787 1.429 . S
C1784 C1767 1.574 . S
C1784 H1778 0.949 . S
C1784 C1788 1.368 . S
C1785 C1766 1.429 . S
C1785 C1779 1.429 . S
C1785 C1786 1.523 . S
C1786 C1767 1.368 . S
C1786 C1780 1.368 . S
C1786 C1785 1.523 . S
C1787 C1771 1.429 . S
C1787 C1783 1.429 . S
C1787 C1788 1.523 . S
C1788 C1772 1.368 . S
C1788 C1784 1.368 . S
C1788 C1787 1.523 . S
H1789 C1764 0.950 . S
H1790 C1766 0.950 . S
H1791 C1767 0.949 . S
H1792 C1769 0.950 . S
H1793 C1771 0.950 . S
C1794 C1795 1.349 . S
C1794 C1796 1.327 . S
C1794 H1819 0.950 . S
C1795 C1794 1.349 . S
C1795 C1811 1.349 . S
C1796 C1794 1.327 . S
C1796 C1815 1.429 . S
C1796 H1820 0.950 . S
C1797 C1814 1.574 . S
C1797 C1816 1.368 . S
C1797 H1821 0.949 . S
H1798 C1802 0.949 . S
C1799 C1800 1.349 . S
C1799 C1801 1.327 . S
C1799 H1822 0.950 . S
C1800 C1799 1.349 . S
C1800 C1812 1.349 . S
C1801 C1799 1.327 . S
C1801 C1817 1.429 . S
C1801 H1823 0.950 . S
C1802 H1798 0.949 . S
C1802 C1810 1.574 . S
C1802 C1818 1.368 . S
H1803 C1811 0.950 . S
H1804 C1809 0.950 . S
H1805 C1810 0.949 . S
H1806 C1812 0.950 . S
H1807 C1813 0.950 . S
H1808 C1814 0.949 . S
C1809 H1804 0.950 . S
C1809 C1811 1.327 . S
C1809 C1815 1.429 . S
C1810 C1802 1.574 . S
C1810 H1805 0.949 . S
C1810 C1816 1.368 . S
C1811 C1795 1.349 . S
C1811 H1803 0.950 . S
C1811 C1809 1.327 . S
C1812 C1800 1.349 . S
C1812 H1806 0.950 . S
C1812 C1813 1.327 . S
C1813 H1807 0.950 . S
C1813 C1812 1.327 . S
C1813 C1817 1.429 . S
C1814 C1797 1.574 . S
C1814 H1808 0.949 . S
C1814 C1818 1.368 . S
C1815 C1796 1.429 . S
C1815 C1809 1.429 . S
C1815 C1816 1.523 . S
C1816 C1797 1.368 . S
C1816 C1810 1.368 . S
C1816 C1815 1.523 . S
C1817 C1801 1.429 . S
C1817 C1813 1.429 . S
C1817 C1818 1.523 . S
C1818 C1802 1.368 . S
C1818 C1814 1.368 . S
C1818 C1817 1.523 . S
H1819 C1794 0.950 . S
H1820 C1796 0.950 . S
H1821 C1797 0.949 . S
H1822 C1799 0.950 . S
H1823 C1801 0.950 . S
C1824 C1825 1.349 . S
C1824 C1826 1.327 . S
C1824 H1849 0.950 . S
C1825 C1824 1.349 . S
C1825 C1841 1.349 . S
C1826 C1824 1.327 . S
C1826 C1845 1.429 . S
C1826 H1850 0.950 . S
C1827 C1844 1.574 . S
C1827 C1846 1.368 . S
C1827 H1851 0.949 . S
H1828 C1832 0.949 . S
C1829 C1830 1.349 . S
C1829 C1831 1.327 . S
C1829 H1852 0.950 . S
C1830 C1829 1.349 . S
C1830 C1842 1.349 . S
C1831 C1829 1.327 . S
C1831 C1847 1.429 . S
C1831 H1853 0.950 . S
C1832 H1828 0.949 . S
C1832 C1840 1.574 . S
C1832 C1848 1.368 . S
H1833 C1841 0.950 . S
H1834 C1839 0.950 . S
H1835 C1840 0.949 . S
H1836 C1842 0.950 . S
H1837 C1843 0.950 . S
H1838 C1844 0.949 . S
C1839 H1834 0.950 . S
C1839 C1841 1.327 . S
C1839 C1845 1.429 . S
C1840 C1832 1.574 . S
C1840 H1835 0.949 . S
C1840 C1846 1.368 . S
C1841 C1825 1.349 . S
C1841 H1833 0.950 . S
C1841 C1839 1.327 . S
C1842 C1830 1.349 . S
C1842 H1836 0.950 . S
C1842 C1843 1.327 . S
C1843 H1837 0.950 . S
C1843 C1842 1.327 . S
C1843 C1847 1.429 . S
C1844 C1827 1.574 . S
C1844 H1838 0.949 . S
C1844 C1848 1.368 . S
C1845 C1826 1.429 . S
C1845 C1839 1.429 . S
C1845 C1846 1.523 . S
C1846 C1827 1.368 . S
C1846 C1840 1.368 . S
C1846 C1845 1.523 . S
C1847 C1831 1.429 . S
C1847 C1843 1.429 . S
C1847 C1848 1.523 . S
C1848 C1832 1.368 . S
C1848 C1844 1.368 . S
C1848 C1847 1.523 . S
H1849 C1824 0.950 . S
H1850 C1826 0.950 . S
H1851 C1827 0.949 . S
H1852 C1829 0.950 . S
H1853 C1831 0.950 . S
C1854 C1855 1.349 . S
C1854 C1856 1.327 . S
C1854 H1879 0.950 . S
C1855 C1854 1.349 . S
C1855 C1871 1.349 . S
C1856 C1854 1.327 . S
C1856 C1875 1.429 . S
C1856 H1880 0.950 . S
C1857 C1874 1.574 . S
C1857 C1876 1.368 . S
C1857 H1881 0.949 . S
H1858 C1862 0.949 . S
C1859 C1860 1.349 . S
C1859 C1861 1.327 . S
C1859 H1882 0.950 . S
C1860 C1859 1.349 . S
C1860 C1872 1.349 . S
C1861 C1859 1.327 . S
C1861 C1877 1.429 . S
C1861 H1883 0.950 . S
C1862 H1858 0.949 . S
C1862 C1870 1.574 . S
C1862 C1878 1.368 . S
H1863 C1871 0.950 . S
H1864 C1869 0.950 . S
H1865 C1870 0.949 . S
H1866 C1872 0.950 . S
H1867 C1873 0.950 . S
H1868 C1874 0.949 . S
C1869 H1864 0.950 . S
C1869 C1871 1.327 . S
C1869 C1875 1.429 . S
C1870 C1862 1.574 . S
C1870 H1865 0.949 . S
C1870 C1876 1.368 . S
C1871 C1855 1.349 . S
C1871 H1863 0.950 . S
C1871 C1869 1.327 . S
C1872 C1860 1.349 . S
C1872 H1866 0.950 . S
C1872 C1873 1.327 . S
C1873 H1867 0.950 . S
C1873 C1872 1.327 . S
C1873 C1877 1.429 . S
C1874 C1857 1.574 . S
C1874 H1868 0.949 . S
C1874 C1878 1.368 . S
C1875 C1856 1.429 . S
C1875 C1869 1.429 . S
C1875 C1876 1.523 . S
C1876 C1857 1.368 . S
C1876 C1870 1.368 . S
C1876 C1875 1.523 . S
C1877 C1861 1.429 . S
C1877 C1873 1.429 . S
C1877 C1878 1.523 . S
C1878 C1862 1.368 . S
C1878 C1874 1.368 . S
C1878 C1877 1.523 . S
H1879 C1854 0.950 . S
H1880 C1856 0.950 . S
H1881 C1857 0.949 . S
H1882 C1859 0.950 . S
H1883 C1861 0.950 . S
C1884 C1885 1.349 . S
C1884 C1886 1.327 . S
C1884 H1909 0.950 . S
C1885 C1884 1.349 . S
C1885 C1901 1.349 . S
C1886 C1884 1.327 . S
C1886 C1905 1.429 . S
C1886 H1910 0.950 . S
C1887 C1904 1.574 . S
C1887 C1906 1.368 . S
C1887 H1911 0.949 . S
H1888 C1892 0.949 . S
C1889 C1890 1.349 . S
C1889 C1891 1.327 . S
C1889 H1912 0.950 . S
C1890 C1889 1.349 . S
C1890 C1902 1.349 . S
C1891 C1889 1.327 . S
C1891 C1907 1.429 . S
C1891 H1913 0.950 . S
C1892 H1888 0.949 . S
C1892 C1900 1.574 . S
C1892 C1908 1.368 . S
H1893 C1901 0.950 . S
H1894 C1899 0.950 . S
H1895 C1900 0.949 . S
H1896 C1902 0.950 . S
H1897 C1903 0.950 . S
H1898 C1904 0.949 . S
C1899 H1894 0.950 . S
C1899 C1901 1.327 . S
C1899 C1905 1.429 . S
C1900 C1892 1.574 . S
C1900 H1895 0.949 . S
C1900 C1906 1.368 . S
C1901 C1885 1.349 . S
C1901 H1893 0.950 . S
C1901 C1899 1.327 . S
C1902 C1890 1.349 . S
C1902 H1896 0.950 . S
C1902 C1903 1.327 . S
C1903 H1897 0.950 . S
C1903 C1902 1.327 . S
C1903 C1907 1.429 . S
C1904 C1887 1.574 . S
C1904 H1898 0.949 . S
C1904 C1908 1.368 . S
C1905 C1886 1.429 . S
C1905 C1899 1.429 . S
C1905 C1906 1.523 . S
C1906 C1887 1.368 . S
C1906 C1900 1.368 . S
C1906 C1905 1.523 . S
C1907 C1891 1.429 . S
C1907 C1903 1.429 . S
C1907 C1908 1.523 . S
C1908 C1892 1.368 . S
C1908 C1904 1.368 . S
C1908 C1907 1.523 . S
H1909 C1884 0.950 . S
H1910 C1886 0.950 . S
H1911 C1887 0.949 . S
H1912 C1889 0.950 . S
H1913 C1891 0.950 . S
C1914 C1915 1.349 . S
C1914 C1916 1.327 . S
C1914 H1939 0.950 . S
C1915 C1914 1.349 . S
C1915 C1931 1.349 . S
C1916 C1914 1.327 . S
C1916 C1935 1.429 . S
C1916 H1940 0.950 . S
C1917 C1934 1.574 . S
C1917 C1936 1.368 . S
C1917 H1941 0.949 . S
H1918 C1922 0.949 . S
C1919 C1920 1.349 . S
C1919 C1921 1.327 . S
C1919 H1942 0.950 . S
C1920 C1919 1.349 . S
C1920 C1932 1.349 . S
C1921 C1919 1.327 . S
C1921 C1937 1.429 . S
C1921 H1943 0.950 . S
C1922 H1918 0.949 . S
C1922 C1930 1.574 . S
C1922 C1938 1.368 . S
H1923 C1931 0.950 . S
H1924 C1929 0.950 . S
H1925 C1930 0.949 . S
H1926 C1932 0.950 . S
H1927 C1933 0.950 . S
H1928 C1934 0.949 . S
C1929 H1924 0.950 . S
C1929 C1931 1.327 . S
C1929 C1935 1.429 . S
C1930 C1922 1.574 . S
C1930 H1925 0.949 . S
C1930 C1936 1.368 . S
C1931 C1915 1.349 . S
C1931 H1923 0.950 . S
C1931 C1929 1.327 . S
C1932 C1920 1.349 . S
C1932 H1926 0.950 . S
C1932 C1933 1.327 . S
C1933 H1927 0.950 . S
C1933 C1932 1.327 . S
C1933 C1937 1.429 . S
C1934 C1917 1.574 . S
C1934 H1928 0.949 . S
C1934 C1938 1.368 . S
C1935 C1916 1.429 . S
C1935 C1929 1.429 . S
C1935 C1936 1.523 . S
C1936 C1917 1.368 . S
C1936 C1930 1.368 . S
C1936 C1935 1.523 . S
C1937 C1921 1.429 . S
C1937 C1933 1.429 . S
C1937 C1938 1.523 . S
C1938 C1922 1.368 . S
C1938 C1934 1.368 . S
C1938 C1937 1.523 . S
H1939 C1914 0.950 . S
H1940 C1916 0.950 . S
H1941 C1917 0.949 . S
H1942 C1919 0.950 . S
H1943 C1921 0.950 . S
C1944 C1945 1.349 . S
C1944 C1946 1.327 . S
C1944 H1969 0.950 . S
C1945 C1944 1.349 . S
C1945 C1961 1.349 . S
C1946 C1944 1.327 . S
C1946 C1965 1.429 . S
C1946 H1970 0.950 . S
C1947 C1964 1.574 . S
C1947 C1966 1.368 . S
C1947 H1971 0.949 . S
H1948 C1952 0.949 . S
C1949 C1950 1.349 . S
C1949 C1951 1.327 . S
C1949 H1972 0.950 . S
C1950 C1949 1.349 . S
C1950 C1962 1.349 . S
C1951 C1949 1.327 . S
C1951 C1967 1.429 . S
C1951 H1973 0.950 . S
C1952 H1948 0.949 . S
C1952 C1960 1.574 . S
C1952 C1968 1.368 . S
H1953 C1961 0.950 . S
H1954 C1959 0.950 . S
H1955 C1960 0.949 . S
H1956 C1962 0.950 . S
H1957 C1963 0.950 . S
H1958 C1964 0.949 . S
C1959 H1954 0.950 . S
C1959 C1961 1.327 . S
C1959 C1965 1.429 . S
C1960 C1952 1.574 . S
C1960 H1955 0.949 . S
C1960 C1966 1.368 . S
C1961 C1945 1.349 . S
C1961 H1953 0.950 . S
C1961 C1959 1.327 . S
C1962 C1950 1.349 . S
C1962 H1956 0.950 . S
C1962 C1963 1.327 . S
C1963 H1957 0.950 . S
C1963 C1962 1.327 . S
C1963 C1967 1.429 . S
C1964 C1947 1.574 . S
C1964 H1958 0.949 . S
C1964 C1968 1.368 . S
C1965 C1946 1.429 . S
C1965 C1959 1.429 . S
C1965 C1966 1.523 . S
C1966 C1947 1.368 . S
C1966 C1960 1.368 . S
C1966 C1965 1.523 . S
C1967 C1951 1.429 . S
C1967 C1963 1.429 . S
C1967 C1968 1.523 . S
C1968 C1952 1.368 . S
C1968 C1964 1.368 . S
C1968 C1967 1.523 . S
H1969 C1944 0.950 . S
H1970 C1946 0.950 . S
H1971 C1947 0.949 . S
H1972 C1949 0.950 . S
H1973 C1951 0.950 . S
C1974 C1975 1.349 . S
C1974 C1976 1.327 . S
C1974 H1999 0.950 . S
C1975 C1974 1.349 . S
C1975 C1991 1.349 . S
C1976 C1974 1.327 . S
C1976 C1995 1.429 . S
C1976 H2000 0.950 . S
C1977 C1994 1.574 . S
C1977 C1996 1.368 . S
C1977 H2001 0.949 . S
H1978 C1982 0.949 . S
C1979 C1980 1.349 . S
C1979 C1981 1.327 . S
C1979 H2002 0.950 . S
C1980 C1979 1.349 . S
C1980 C1992 1.349 . S
C1981 C1979 1.327 . S
C1981 C1997 1.429 . S
C1981 H2003 0.950 . S
C1982 H1978 0.949 . S
C1982 C1990 1.574 . S
C1982 C1998 1.368 . S
H1983 C1991 0.950 . S
H1984 C1989 0.950 . S
H1985 C1990 0.949 . S
H1986 C1992 0.950 . S
H1987 C1993 0.950 . S
H1988 C1994 0.949 . S
C1989 H1984 0.950 . S
C1989 C1991 1.327 . S
C1989 C1995 1.429 . S
C1990 C1982 1.574 . S
C1990 H1985 0.949 . S
C1990 C1996 1.368 . S
C1991 C1975 1.349 . S
C1991 H1983 0.950 . S
C1991 C1989 1.327 . S
C1992 C1980 1.349 . S
C1992 H1986 0.950 . S
C1992 C1993 1.327 . S
C1993 H1987 0.950 . S
C1993 C1992 1.327 . S
C1993 C1997 1.429 . S
C1994 C1977 1.574 . S
C1994 H1988 0.949 . S
C1994 C1998 1.368 . S
C1995 C1976 1.429 . S
C1995 C1989 1.429 . S
C1995 C1996 1.523 . S
C1996 C1977 1.368 . S
C1996 C1990 1.368 . S
C1996 C1995 1.523 . S
C1997 C1981 1.429 . S
C1997 C1993 1.429 . S
C1997 C1998 1.523 . S
C1998 C1982 1.368 . S
C1998 C1994 1.368 . S
C1998 C1997 1.523 . S
H1999 C1974 0.950 . S
H2000 C1976 0.950 . S
H2001 C1977 0.949 . S
H2002 C1979 0.950 . S
H2003 C1981 0.950 . S
C2004 C2005 1.349 . S
C2004 C2006 1.327 . S
C2004 H2029 0.950 . S
C2005 C2004 1.349 . S
C2005 C2021 1.349 . S
C2006 C2004 1.327 . S
C2006 C2025 1.429 . S
C2006 H2030 0.950 . S
C2007 C2024 1.574 . S
C2007 C2026 1.368 . S
C2007 H2031 0.949 . S
H2008 C2012 0.949 . S
C2009 C2010 1.349 . S
C2009 C2011 1.327 . S
C2009 H2032 0.950 . S
C2010 C2009 1.349 . S
C2010 C2022 1.349 . S
C2011 C2009 1.327 . S
C2011 C2027 1.429 . S
C2011 H2033 0.950 . S
C2012 H2008 0.949 . S
C2012 C2020 1.574 . S
C2012 C2028 1.368 . S
H2013 C2021 0.950 . S
H2014 C2019 0.950 . S
H2015 C2020 0.949 . S
H2016 C2022 0.950 . S
H2017 C2023 0.950 . S
H2018 C2024 0.949 . S
C2019 H2014 0.950 . S
C2019 C2021 1.327 . S
C2019 C2025 1.429 . S
C2020 C2012 1.574 . S
C2020 H2015 0.949 . S
C2020 C2026 1.368 . S
C2021 C2005 1.349 . S
C2021 H2013 0.950 . S
C2021 C2019 1.327 . S
C2022 C2010 1.349 . S
C2022 H2016 0.950 . S
C2022 C2023 1.327 . S
C2023 H2017 0.950 . S
C2023 C2022 1.327 . S
C2023 C2027 1.429 . S
C2024 C2007 1.574 . S
C2024 H2018 0.949 . S
C2024 C2028 1.368 . S
C2025 C2006 1.429 . S
C2025 C2019 1.429 . S
C2025 C2026 1.523 . S
C2026 C2007 1.368 . S
C2026 C2020 1.368 . S
C2026 C2025 1.523 . S
C2027 C2011 1.429 . S
C2027 C2023 1.429 . S
C2027 C2028 1.523 . S
C2028 C2012 1.368 . S
C2028 C2024 1.368 . S
C2028 C2027 1.523 . S
H2029 C2004 0.950 . S
H2030 C2006 0.950 . S
H2031 C2007 0.949 . S
H2032 C2009 0.950 . S
H2033 C2011 0.950 . S
C2034 C2035 1.349 . S
C2034 C2036 1.327 . S
C2034 H2059 0.950 . S
C2035 C2034 1.349 . S
C2035 C2051 1.349 . S
C2036 C2034 1.327 . S
C2036 C2055 1.429 . S
C2036 H2060 0.950 . S
C2037 C2054 1.574 . S
C2037 C2056 1.368 . S
C2037 H2061 0.949 . S
H2038 C2042 0.949 . S
C2039 C2040 1.349 . S
C2039 C2041 1.327 . S
C2039 H2062 0.950 . S
C2040 C2039 1.349 . S
C2040 C2052 1.349 . S
C2041 C2039 1.327 . S
C2041 C2057 1.429 . S
C2041 H2063 0.950 . S
C2042 H2038 0.949 . S
C2042 C2050 1.574 . S
C2042 C2058 1.368 . S
H2043 C2051 0.950 . S
H2044 C2049 0.950 . S
H2045 C2050 0.949 . S
H2046 C2052 0.950 . S
H2047 C2053 0.950 . S
H2048 C2054 0.949 . S
C2049 H2044 0.950 . S
C2049 C2051 1.327 . S
C2049 C2055 1.429 . S
C2050 C2042 1.574 . S
C2050 H2045 0.949 . S
C2050 C2056 1.368 . S
C2051 C2035 1.349 . S
C2051 H2043 0.950 . S
C2051 C2049 1.327 . S
C2052 C2040 1.349 . S
C2052 H2046 0.950 . S
C2052 C2053 1.327 . S
C2053 H2047 0.950 . S
C2053 C2052 1.327 . S
C2053 C2057 1.429 . S
C2054 C2037 1.574 . S
C2054 H2048 0.949 . S
C2054 C2058 1.368 . S
C2055 C2036 1.429 . S
C2055 C2049 1.429 . S
C2055 C2056 1.523 . S
C2056 C2037 1.368 . S
C2056 C2050 1.368 . S
C2056 C2055 1.523 . S
C2057 C2041 1.429 . S
C2057 C2053 1.429 . S
C2057 C2058 1.523 . S
C2058 C2042 1.368 . S
C2058 C2054 1.368 . S
C2058 C2057 1.523 . S
H2059 C2034 0.950 . S
H2060 C2036 0.950 . S
H2061 C2037 0.949 . S
H2062 C2039 0.950 . S
H2063 C2041 0.950 . S
C2064 C2065 1.349 . S
C2064 C2066 1.327 . S
C2064 H2089 0.950 . S
C2065 C2064 1.349 . S
C2065 C2081 1.349 . S
C2066 C2064 1.327 . S
C2066 C2085 1.429 . S
C2066 H2090 0.950 . S
C2067 C2084 1.574 . S
C2067 C2086 1.368 . S
C2067 H2091 0.949 . S
H2068 C2072 0.949 . S
C2069 C2070 1.349 . S
C2069 C2071 1.327 . S
C2069 H2092 0.950 . S
C2070 C2069 1.349 . S
C2070 C2082 1.349 . S
C2071 C2069 1.327 . S
C2071 C2087 1.429 . S
C2071 H2093 0.950 . S
C2072 H2068 0.949 . S
C2072 C2080 1.574 . S
C2072 C2088 1.368 . S
H2073 C2081 0.950 . S
H2074 C2079 0.950 . S
H2075 C2080 0.949 . S
H2076 C2082 0.950 . S
H2077 C2083 0.950 . S
H2078 C2084 0.949 . S
C2079 H2074 0.950 . S
C2079 C2081 1.327 . S
C2079 C2085 1.429 . S
C2080 C2072 1.574 . S
C2080 H2075 0.949 . S
C2080 C2086 1.368 . S
C2081 C2065 1.349 . S
C2081 H2073 0.950 . S
C2081 C2079 1.327 . S
C2082 C2070 1.349 . S
C2082 H2076 0.950 . S
C2082 C2083 1.327 . S
C2083 H2077 0.950 . S
C2083 C2082 1.327 . S
C2083 C2087 1.429 . S
C2084 C2067 1.574 . S
C2084 H2078 0.949 . S
C2084 C2088 1.368 . S
C2085 C2066 1.429 . S
C2085 C2079 1.429 . S
C2085 C2086 1.523 . S
C2086 C2067 1.368 . S
C2086 C2080 1.368 . S
C2086 C2085 1.523 . S
C2087 C2071 1.429 . S
C2087 C2083 1.429 . S
C2087 C2088 1.523 . S
C2088 C2072 1.368 . S
C2088 C2084 1.368 . S
C2088 C2087 1.523 . S
H2089 C2064 0.950 . S
H2090 C2066 0.950 . S
H2091 C2067 0.949 . S
H2092 C2069 0.950 . S
H2093 C2071 0.950 . S
C2094 C2095 1.349 . S
C2094 C2096 1.327 . S
C2094 H2119 0.950 . S
C2095 C2094 1.349 . S
C2095 C2111 1.349 . S
C2096 C2094 1.327 . S
C2096 C2115 1.429 . S
C2096 H2120 0.950 . S
C2097 C2114 1.574 . S
C2097 C2116 1.368 . S
C2097 H2121 0.949 . S
H2098 C2102 0.949 . S
C2099 C2100 1.349 . S
C2099 C2101 1.327 . S
C2099 H2122 0.950 . S
C2100 C2099 1.349 . S
C2100 C2112 1.349 . S
C2101 C2099 1.327 . S
C2101 C2117 1.429 . S
C2101 H2123 0.950 . S
C2102 H2098 0.949 . S
C2102 C2110 1.574 . S
C2102 C2118 1.368 . S
H2103 C2111 0.950 . S
H2104 C2109 0.950 . S
H2105 C2110 0.949 . S
H2106 C2112 0.950 . S
H2107 C2113 0.950 . S
H2108 C2114 0.949 . S
C2109 H2104 0.950 . S
C2109 C2111 1.327 . S
C2109 C2115 1.429 . S
C2110 C2102 1.574 . S
C2110 H2105 0.949 . S
C2110 C2116 1.368 . S
C2111 C2095 1.349 . S
C2111 H2103 0.950 . S
C2111 C2109 1.327 . S
C2112 C2100 1.349 . S
C2112 H2106 0.950 . S
C2112 C2113 1.327 . S
C2113 H2107 0.950 . S
C2113 C2112 1.327 . S
C2113 C2117 1.429 . S
C2114 C2097 1.574 . S
C2114 H2108 0.949 . S
C2114 C2118 1.368 . S
C2115 C2096 1.429 . S
C2115 C2109 1.429 . S
C2115 C2116 1.523 . S
C2116 C2097 1.368 . S
C2116 C2110 1.368 . S
C2116 C2115 1.523 . S
C2117 C2101 1.429 . S
C2117 C2113 1.429 . S
C2117 C2118 1.523 . S
C2118 C2102 1.368 . S
C2118 C2114 1.368 . S
C2118 C2117 1.523 . S
H2119 C2094 0.950 . S
H2120 C2096 0.950 . S
H2121 C2097 0.949 . S
H2122 C2099 0.950 . S
H2123 C2101 0.950 . S
C2124 C2125 1.349 . S
C2124 C2126 1.327 . S
C2124 H2149 0.950 . S
C2125 C2124 1.349 . S
C2125 C2141 1.349 . S
C2126 C2124 1.327 . S
C2126 C2145 1.429 . S
C2126 H2150 0.950 . S
C2127 C2144 1.574 . S
C2127 C2146 1.368 . S
C2127 H2151 0.949 . S
H2128 C2132 0.949 . S
C2129 C2130 1.349 . S
C2129 C2131 1.327 . S
C2129 H2152 0.950 . S
C2130 C2129 1.349 . S
C2130 C2142 1.349 . S
C2131 C2129 1.327 . S
C2131 C2147 1.429 . S
C2131 H2153 0.950 . S
C2132 H2128 0.949 . S
C2132 C2140 1.574 . S
C2132 C2148 1.368 . S
H2133 C2141 0.950 . S
H2134 C2139 0.950 . S
H2135 C2140 0.949 . S
H2136 C2142 0.950 . S
H2137 C2143 0.950 . S
H2138 C2144 0.949 . S
C2139 H2134 0.950 . S
C2139 C2141 1.327 . S
C2139 C2145 1.429 . S
C2140 C2132 1.574 . S
C2140 H2135 0.949 . S
C2140 C2146 1.368 . S
C2141 C2125 1.349 . S
C2141 H2133 0.950 . S
C2141 C2139 1.327 . S
C2142 C2130 1.349 . S
C2142 H2136 0.950 . S
C2142 C2143 1.327 . S
C2143 H2137 0.950 . S
C2143 C2142 1.327 . S
C2143 C2147 1.429 . S
C2144 C2127 1.574 . S
C2144 H2138 0.949 . S
C2144 C2148 1.368 . S
C2145 C2126 1.429 . S
C2145 C2139 1.429 . S
C2145 C2146 1.523 . S
C2146 C2127 1.368 . S
C2146 C2140 1.368 . S
C2146 C2145 1.523 . S
C2147 C2131 1.429 . S
C2147 C2143 1.429 . S
C2147 C2148 1.523 . S
C2148 C2132 1.368 . S
C2148 C2144 1.368 . S
C2148 C2147 1.523 . S
H2149 C2124 0.950 . S
H2150 C2126 0.950 . S
H2151 C2127 0.949 . S
H2152 C2129 0.950 . S
H2153 C2131 0.950 . S
C2154 C2155 1.349 . S
C2154 C2156 1.327 . S
C2154 H2179 0.950 . S
C2155 C2154 1.349 . S
C2155 C2171 1.349 . S
C2156 C2154 1.327 . S
C2156 C2175 1.429 . S
C2156 H2180 0.950 . S
C2157 C2174 1.574 . S
C2157 C2176 1.368 . S
C2157 H2181 0.949 . S
H2158 C2162 0.949 . S
C2159 C2160 1.349 . S
C2159 C2161 1.327 . S
C2159 H2182 0.950 . S
C2160 C2159 1.349 . S
C2160 C2172 1.349 . S
C2161 C2159 1.327 . S
C2161 C2177 1.429 . S
C2161 H2183 0.950 . S
C2162 H2158 0.949 . S
C2162 C2170 1.574 . S
C2162 C2178 1.368 . S
H2163 C2171 0.950 . S
H2164 C2169 0.950 . S
H2165 C2170 0.949 . S
H2166 C2172 0.950 . S
H2167 C2173 0.950 . S
H2168 C2174 0.949 . S
C2169 H2164 0.950 . S
C2169 C2171 1.327 . S
C2169 C2175 1.429 . S
C2170 C2162 1.574 . S
C2170 H2165 0.949 . S
C2170 C2176 1.368 . S
C2171 C2155 1.349 . S
C2171 H2163 0.950 . S
C2171 C2169 1.327 . S
C2172 C2160 1.349 . S
C2172 H2166 0.950 . S
C2172 C2173 1.327 . S
C2173 H2167 0.950 . S
C2173 C2172 1.327 . S
C2173 C2177 1.429 . S
C2174 C2157 1.574 . S
C2174 H2168 0.949 . S
C2174 C2178 1.368 . S
C2175 C2156 1.429 . S
C2175 C2169 1.429 . S
C2175 C2176 1.523 . S
C2176 C2157 1.368 . S
C2176 C2170 1.368 . S
C2176 C2175 1.523 . S
C2177 C2161 1.429 . S
C2177 C2173 1.429 . S
C2177 C2178 1.523 . S
C2178 C2162 1.368 . S
C2178 C2174 1.368 . S
C2178 C2177 1.523 . S
H2179 C2154 0.950 . S
H2180 C2156 0.950 . S
H2181 C2157 0.949 . S
H2182 C2159 0.950 . S
H2183 C2161 0.950 . S
C2184 C2185 1.349 . S
C2184 C2186 1.327 . S
C2184 H2209 0.950 . S
C2185 C2184 1.349 . S
C2185 C2201 1.349 . S
C2186 C2184 1.327 . S
C2186 C2205 1.429 . S
C2186 H2210 0.950 . S
C2187 C2204 1.574 . S
C2187 C2206 1.368 . S
C2187 H2211 0.949 . S
H2188 C2192 0.949 . S
C2189 C2190 1.349 . S
C2189 C2191 1.327 . S
C2189 H2212 0.950 . S
C2190 C2189 1.349 . S
C2190 C2202 1.349 . S
C2191 C2189 1.327 . S
C2191 C2207 1.429 . S
C2191 H2213 0.950 . S
C2192 H2188 0.949 . S
C2192 C2200 1.574 . S
C2192 C2208 1.368 . S
H2193 C2201 0.950 . S
H2194 C2199 0.950 . S
H2195 C2200 0.949 . S
H2196 C2202 0.950 . S
H2197 C2203 0.950 . S
H2198 C2204 0.949 . S
C2199 H2194 0.950 . S
C2199 C2201 1.327 . S
C2199 C2205 1.429 . S
C2200 C2192 1.574 . S
C2200 H2195 0.949 . S
C2200 C2206 1.368 . S
C2201 C2185 1.349 . S
C2201 H2193 0.950 . S
C2201 C2199 1.327 . S
C2202 C2190 1.349 . S
C2202 H2196 0.950 . S
C2202 C2203 1.327 . S
C2203 H2197 0.950 . S
C2203 C2202 1.327 . S
C2203 C2207 1.429 . S
C2204 C2187 1.574 . S
C2204 H2198 0.949 . S
C2204 C2208 1.368 . S
C2205 C2186 1.429 . S
C2205 C2199 1.429 . S
C2205 C2206 1.523 . S
C2206 C2187 1.368 . S
C2206 C2200 1.368 . S
C2206 C2205 1.523 . S
C2207 C2191 1.429 . S
C2207 C2203 1.429 . S
C2207 C2208 1.523 . S
C2208 C2192 1.368 . S
C2208 C2204 1.368 . S
C2208 C2207 1.523 . S
H2209 C2184 0.950 . S
H2210 C2186 0.950 . S
H2211 C2187 0.949 . S
H2212 C2189 0.950 . S
H2213 C2191 0.950 . S
C2214 C2215 1.349 . S
C2214 C2216 1.327 . S
C2214 H2239 0.950 . S
C2215 C2214 1.349 . S
C2215 C2231 1.349 . S
C2216 C2214 1.327 . S
C2216 C2235 1.429 . S
C2216 H2240 0.950 . S
C2217 C2234 1.574 . S
C2217 C2236 1.368 . S
C2217 H2241 0.949 . S
H2218 C2222 0.949 . S
C2219 C2220 1.349 . S
C2219 C2221 1.327 . S
C2219 H2242 0.950 . S
C2220 C2219 1.349 . S
C2220 C2232 1.349 . S
C2221 C2219 1.327 . S
C2221 C2237 1.429 . S
C2221 H2243 0.950 . S
C2222 H2218 0.949 . S
C2222 C2230 1.574 . S
C2222 C2238 1.368 . S
H2223 C2231 0.950 . S
H2224 C2229 0.950 . S
H2225 C2230 0.949 . S
H2226 C2232 0.950 . S
H2227 C2233 0.950 . S
H2228 C2234 0.949 . S
C2229 H2224 0.950 . S
C2229 C2231 1.327 . S
C2229 C2235 1.429 . S
C2230 C2222 1.574 . S
C2230 H2225 0.949 . S
C2230 C2236 1.368 . S
C2231 C2215 1.349 . S
C2231 H2223 0.950 . S
C2231 C2229 1.327 . S
C2232 C2220 1.349 . S
C2232 H2226 0.950 . S
C2232 C2233 1.327 . S
C2233 H2227 0.950 . S
C2233 C2232 1.327 . S
C2233 C2237 1.429 . S
C2234 C2217 1.574 . S
C2234 H2228 0.949 . S
C2234 C2238 1.368 . S
C2235 C2216 1.429 . S
C2235 C2229 1.429 . S
C2235 C2236 1.523 . S
C2236 C2217 1.368 . S
C2236 C2230 1.368 . S
C2236 C2235 1.523 . S
C2237 C2221 1.429 . S
C2237 C2233 1.429 . S
C2237 C2238 1.523 . S
C2238 C2222 1.368 . S
C2238 C2234 1.368 . S
C2238 C2237 1.523 . S
H2239 C2214 0.950 . S
H2240 C2216 0.950 . S
H2241 C2217 0.949 . S
H2242 C2219 0.950 . S
H2243 C2221 0.950 . S
C2244 C2245 1.349 . S
C2244 C2246 1.327 . S
C2244 H2269 0.950 . S
C2245 C2244 1.349 . S
C2245 C2261 1.349 . S
C2246 C2244 1.327 . S
C2246 C2265 1.429 . S
C2246 H2270 0.950 . S
C2247 C2264 1.574 . S
C2247 C2266 1.368 . S
C2247 H2271 0.949 . S
H2248 C2252 0.949 . S
C2249 C2250 1.349 . S
C2249 C2251 1.327 . S
C2249 H2272 0.950 . S
C2250 C2249 1.349 . S
C2250 C2262 1.349 . S
C2251 C2249 1.327 . S
C2251 C2267 1.429 . S
C2251 H2273 0.950 . S
C2252 H2248 0.949 . S
C2252 C2260 1.574 . S
C2252 C2268 1.368 . S
H2253 C2261 0.950 . S
H2254 C2259 0.950 . S
H2255 C2260 0.949 . S
H2256 C2262 0.950 . S
H2257 C2263 0.950 . S
H2258 C2264 0.949 . S
C2259 H2254 0.950 . S
C2259 C2261 1.327 . S
C2259 C2265 1.429 . S
C2260 C2252 1.574 . S
C2260 H2255 0.949 . S
C2260 C2266 1.368 . S
C2261 C2245 1.349 . S
C2261 H2253 0.950 . S
C2261 C2259 1.327 . S
C2262 C2250 1.349 . S
C2262 H2256 0.950 . S
C2262 C2263 1.327 . S
C2263 H2257 0.950 . S
C2263 C2262 1.327 . S
C2263 C2267 1.429 . S
C2264 C2247 1.574 . S
C2264 H2258 0.949 . S
C2264 C2268 1.368 . S
C2265 C2246 1.429 . S
C2265 C2259 1.429 . S
C2265 C2266 1.523 . S
C2266 C2247 1.368 . S
C2266 C2260 1.368 . S
C2266 C2265 1.523 . S
C2267 C2251 1.429 . S
C2267 C2263 1.429 . S
C2267 C2268 1.523 . S
C2268 C2252 1.368 . S
C2268 C2264 1.368 . S
C2268 C2267 1.523 . S
H2269 C2244 0.950 . S
H2270 C2246 0.950 . S
H2271 C2247 0.949 . S
H2272 C2249 0.950 . S
H2273 C2251 0.950 . S
C2274 C2275 1.349 . S
C2274 C2276 1.327 . S
C2274 H2299 0.950 . S
C2275 C2274 1.349 . S
C2275 C2291 1.349 . S
C2276 C2274 1.327 . S
C2276 C2295 1.429 . S
C2276 H2300 0.950 . S
C2277 C2294 1.574 . S
C2277 C2296 1.368 . S
C2277 H2301 0.949 . S
H2278 C2282 0.949 . S
C2279 C2280 1.349 . S
C2279 C2281 1.327 . S
C2279 H2302 0.950 . S
C2280 C2279 1.349 . S
C2280 C2292 1.349 . S
C2281 C2279 1.327 . S
C2281 C2297 1.429 . S
C2281 H2303 0.950 . S
C2282 H2278 0.949 . S
C2282 C2290 1.574 . S
C2282 C2298 1.368 . S
H2283 C2291 0.950 . S
H2284 C2289 0.950 . S
H2285 C2290 0.949 . S
H2286 C2292 0.950 . S
H2287 C2293 0.950 . S
H2288 C2294 0.949 . S
C2289 H2284 0.950 . S
C2289 C2291 1.327 . S
C2289 C2295 1.429 . S
C2290 C2282 1.574 . S
C2290 H2285 0.949 . S
C2290 C2296 1.368 . S
C2291 C2275 1.349 . S
C2291 H2283 0.950 . S
C2291 C2289 1.327 . S
C2292 C2280 1.349 . S
C2292 H2286 0.950 . S
C2292 C2293 1.327 . S
C2293 H2287 0.950 . S
C2293 C2292 1.327 . S
C2293 C2297 1.429 . S
C2294 C2277 1.574 . S
C2294 H2288 0.949 . S
C2294 C2298 1.368 . S
C2295 C2276 1.429 . S
C2295 C2289 1.429 . S
C2295 C2296 1.523 . S
C2296 C2277 1.368 . S
C2296 C2290 1.368 . S
C2296 C2295 1.523 . S
C2297 C2281 1.429 . S
C2297 C2293 1.429 . S
C2297 C2298 1.523 . S
C2298 C2282 1.368 . S
C2298 C2294 1.368 . S
C2298 C2297 1.523 . S
H2299 C2274 0.950 . S
H2300 C2276 0.950 . S
H2301 C2277 0.949 . S
H2302 C2279 0.950 . S
H2303 C2281 0.950 . S
C2304 C2305 1.349 . S
C2304 C2306 1.327 . S
C2304 H2329 0.950 . S
C2305 C2304 1.349 . S
C2305 C2321 1.349 . S
C2306 C2304 1.327 . S
C2306 C2325 1.429 . S
C2306 H2330 0.950 . S
C2307 C2324 1.574 . S
C2307 C2326 1.368 . S
C2307 H2331 0.949 . S
H2308 C2312 0.949 . S
C2309 C2310 1.349 . S
C2309 C2311 1.327 . S
C2309 H2332 0.950 . S
C2310 C2309 1.349 . S
C2310 C2322 1.349 . S
C2311 C2309 1.327 . S
C2311 C2327 1.429 . S
C2311 H2333 0.950 . S
C2312 H2308 0.949 . S
C2312 C2320 1.574 . S
C2312 C2328 1.368 . S
H2313 C2321 0.950 . S
H2314 C2319 0.950 . S
H2315 C2320 0.949 . S
H2316 C2322 0.950 . S
H2317 C2323 0.950 . S
H2318 C2324 0.949 . S
C2319 H2314 0.950 . S
C2319 C2321 1.327 . S
C2319 C2325 1.429 . S
C2320 C2312 1.574 . S
C2320 H2315 0.949 . S
C2320 C2326 1.368 . S
C2321 C2305 1.349 . S
C2321 H2313 0.950 . S
C2321 C2319 1.327 . S
C2322 C2310 1.349 . S
C2322 H2316 0.950 . S
C2322 C2323 1.327 . S
C2323 H2317 0.950 . S
C2323 C2322 1.327 . S
C2323 C2327 1.429 . S
C2324 C2307 1.574 . S
C2324 H2318 0.949 . S
C2324 C2328 1.368 . S
C2325 C2306 1.429 . S
C2325 C2319 1.429 . S
C2325 C2326 1.523 . S
C2326 C2307 1.368 . S
C2326 C2320 1.368 . S
C2326 C2325 1.523 . S
C2327 C2311 1.429 . S
C2327 C2323 1.429 . S
C2327 C2328 1.523 . S
C2328 C2312 1.368 . S
C2328 C2324 1.368 . S
C2328 C2327 1.523 . S
H2329 C2304 0.950 . S
H2330 C2306 0.950 . S
H2331 C2307 0.949 . S
H2332 C2309 0.950 . S
H2333 C2311 0.950 . S
C2334 C2335 1.349 . S
C2334 C2336 1.327 . S
C2334 H2359 0.950 . S
C2335 C2334 1.349 . S
C2335 C2351 1.349 . S
C2336 C2334 1.327 . S
C2336 C2355 1.429 . S
C2336 H2360 0.950 . S
C2337 C2354 1.574 . S
C2337 C2356 1.368 . S
C2337 H2361 0.949 . S
H2338 C2342 0.949 . S
C2339 C2340 1.349 . S
C2339 C2341 1.327 . S
C2339 H2362 0.950 . S
C2340 C2339 1.349 . S
C2340 C2352 1.349 . S
C2341 C2339 1.327 . S
C2341 C2357 1.429 . S
C2341 H2363 0.950 . S
C2342 H2338 0.949 . S
C2342 C2350 1.574 . S
C2342 C2358 1.368 . S
H2343 C2351 0.950 . S
H2344 C2349 0.950 . S
H2345 C2350 0.949 . S
H2346 C2352 0.950 . S
H2347 C2353 0.950 . S
H2348 C2354 0.949 . S
C2349 H2344 0.950 . S
C2349 C2351 1.327 . S
C2349 C2355 1.429 . S
C2350 C2342 1.574 . S
C2350 H2345 0.949 . S
C2350 C2356 1.368 . S
C2351 C2335 1.349 . S
C2351 H2343 0.950 . S
C2351 C2349 1.327 . S
C2352 C2340 1.349 . S
C2352 H2346 0.950 . S
C2352 C2353 1.327 . S
C2353 H2347 0.950 . S
C2353 C2352 1.327 . S
C2353 C2357 1.429 . S
C2354 C2337 1.574 . S
C2354 H2348 0.949 . S
C2354 C2358 1.368 . S
C2355 C2336 1.429 . S
C2355 C2349 1.429 . S
C2355 C2356 1.523 . S
C2356 C2337 1.368 . S
C2356 C2350 1.368 . S
C2356 C2355 1.523 . S
C2357 C2341 1.429 . S
C2357 C2353 1.429 . S
C2357 C2358 1.523 . S
C2358 C2342 1.368 . S
C2358 C2354 1.368 . S
C2358 C2357 1.523 . S
H2359 C2334 0.950 . S
H2360 C2336 0.950 . S
H2361 C2337 0.949 . S
H2362 C2339 0.950 . S
H2363 C2341 0.950 . S
C2364 C2365 1.349 . S
C2364 C2366 1.327 . S
C2364 H2389 0.950 . S
C2365 C2364 1.349 . S
C2365 C2381 1.349 . S
C2366 C2364 1.327 . S
C2366 C2385 1.429 . S
C2366 H2390 0.950 . S
C2367 C2384 1.574 . S
C2367 C2386 1.368 . S
C2367 H2391 0.949 . S
H2368 C2372 0.949 . S
C2369 C2370 1.349 . S
C2369 C2371 1.327 . S
C2369 H2392 0.950 . S
C2370 C2369 1.349 . S
C2370 C2382 1.349 . S
C2371 C2369 1.327 . S
C2371 C2387 1.429 . S
C2371 H2393 0.950 . S
C2372 H2368 0.949 . S
C2372 C2380 1.574 . S
C2372 C2388 1.368 . S
H2373 C2381 0.950 . S
H2374 C2379 0.950 . S
H2375 C2380 0.949 . S
H2376 C2382 0.950 . S
H2377 C2383 0.950 . S
H2378 C2384 0.949 . S
C2379 H2374 0.950 . S
C2379 C2381 1.327 . S
C2379 C2385 1.429 . S
C2380 C2372 1.574 . S
C2380 H2375 0.949 . S
C2380 C2386 1.368 . S
C2381 C2365 1.349 . S
C2381 H2373 0.950 . S
C2381 C2379 1.327 . S
C2382 C2370 1.349 . S
C2382 H2376 0.950 . S
C2382 C2383 1.327 . S
C2383 H2377 0.950 . S
C2383 C2382 1.327 . S
C2383 C2387 1.429 . S
C2384 C2367 1.574 . S
C2384 H2378 0.949 . S
C2384 C2388 1.368 . S
C2385 C2366 1.429 . S
C2385 C2379 1.429 . S
C2385 C2386 1.523 . S
C2386 C2367 1.368 . S
C2386 C2380 1.368 . S
C2386 C2385 1.523 . S
C2387 C2371 1.429 . S
C2387 C2383 1.429 . S
C2387 C2388 1.523 . S
C2388 C2372 1.368 . S
C2388 C2384 1.368 . S
C2388 C2387 1.523 . S
H2389 C2364 0.950 . S
H2390 C2366 0.950 . S
H2391 C2367 0.949 . S
H2392 C2369 0.950 . S
H2393 C2371 0.950 . S
C2394 C2395 1.349 . S
C2394 C2396 1.327 . S
C2394 H2419 0.950 . S
C2395 C2394 1.349 . S
C2395 C2411 1.349 . S
C2396 C2394 1.327 . S
C2396 C2415 1.429 . S
C2396 H2420 0.950 . S
C2397 C2414 1.574 . S
C2397 C2416 1.368 . S
C2397 H2421 0.949 . S
H2398 C2402 0.949 . S
C2399 C2400 1.349 . S
C2399 C2401 1.327 . S
C2399 H2422 0.950 . S
C2400 C2399 1.349 . S
C2400 C2412 1.349 . S
C2401 C2399 1.327 . S
C2401 C2417 1.429 . S
C2401 H2423 0.950 . S
C2402 H2398 0.949 . S
C2402 C2410 1.574 . S
C2402 C2418 1.368 . S
H2403 C2411 0.950 . S
H2404 C2409 0.950 . S
H2405 C2410 0.949 . S
H2406 C2412 0.950 . S
H2407 C2413 0.950 . S
H2408 C2414 0.949 . S
C2409 H2404 0.950 . S
C2409 C2411 1.327 . S
C2409 C2415 1.429 . S
C2410 C2402 1.574 . S
C2410 H2405 0.949 . S
C2410 C2416 1.368 . S
C2411 C2395 1.349 . S
C2411 H2403 0.950 . S
C2411 C2409 1.327 . S
C2412 C2400 1.349 . S
C2412 H2406 0.950 . S
C2412 C2413 1.327 . S
C2413 H2407 0.950 . S
C2413 C2412 1.327 . S
C2413 C2417 1.429 . S
C2414 C2397 1.574 . S
C2414 H2408 0.949 . S
C2414 C2418 1.368 . S
C2415 C2396 1.429 . S
C2415 C2409 1.429 . S
C2415 C2416 1.523 . S
C2416 C2397 1.368 . S
C2416 C2410 1.368 . S
C2416 C2415 1.523 . S
C2417 C2401 1.429 . S
C2417 C2413 1.429 . S
C2417 C2418 1.523 . S
C2418 C2402 1.368 . S
C2418 C2414 1.368 . S
C2418 C2417 1.523 . S
H2419 C2394 0.950 . S
H2420 C2396 0.950 . S
H2421 C2397 0.949 . S
H2422 C2399 0.950 . S
H2423 C2401 0.950 . S
C2424 C2425 1.349 . S
C2424 C2426 1.327 . S
C2424 H2449 0.950 . S
C2425 C2424 1.349 . S
C2425 C2441 1.349 . S
C2426 C2424 1.327 . S
C2426 C2445 1.429 . S
C2426 H2450 0.950 . S
C2427 C2444 1.574 . S
C2427 C2446 1.368 . S
C2427 H2451 0.949 . S
H2428 C2432 0.949 . S
C2429 C2430 1.349 . S
C2429 C2431 1.327 . S
C2429 H2452 0.950 . S
C2430 C2429 1.349 . S
C2430 C2442 1.349 . S
C2431 C2429 1.327 . S
C2431 C2447 1.429 . S
C2431 H2453 0.950 . S
C2432 H2428 0.949 . S
C2432 C2440 1.574 . S
C2432 C2448 1.368 . S
H2433 C2441 0.950 . S
H2434 C2439 0.950 . S
H2435 C2440 0.949 . S
H2436 C2442 0.950 . S
H2437 C2443 0.950 . S
H2438 C2444 0.949 . S
C2439 H2434 0.950 . S
C2439 C2441 1.327 . S
C2439 C2445 1.429 . S
C2440 C2432 1.574 . S
C2440 H2435 0.949 . S
C2440 C2446 1.368 . S
C2441 C2425 1.349 . S
C2441 H2433 0.950 . S
C2441 C2439 1.327 . S
C2442 C2430 1.349 . S
C2442 H2436 0.950 . S
C2442 C2443 1.327 . S
C2443 H2437 0.950 . S
C2443 C2442 1.327 . S
C2443 C2447 1.429 . S
C2444 C2427 1.574 . S
C2444 H2438 0.949 . S
C2444 C2448 1.368 . S
C2445 C2426 1.429 . S
C2445 C2439 1.429 . S
C2445 C2446 1.523 . S
C2446 C2427 1.368 . S
C2446 C2440 1.368 . S
C2446 C2445 1.523 . S
C2447 C2431 1.429 . S
C2447 C2443 1.429 . S
C2447 C2448 1.523 . S
C2448 C2432 1.368 . S
C2448 C2444 1.368 . S
C2448 C2447 1.523 . S
H2449 C2424 0.950 . S
H2450 C2426 0.950 . S
H2451 C2427 0.949 . S
H2452 C2429 0.950 . S
H2453 C2431 0.950 . S
C2454 C2455 1.349 . S
C2454 C2456 1.327 . S
C2454 H2479 0.950 . S
C2455 C2454 1.349 . S
C2455 C2471 1.349 . S
C2456 C2454 1.327 . S
C2456 C2475 1.429 . S
C2456 H2480 0.950 . S
C2457 C2474 1.574 . S
C2457 C2476 1.368 . S
C2457 H2481 0.949 . S
H2458 C2462 0.949 . S
C2459 C2460 1.349 . S
C2459 C2461 1.327 . S
C2459 H2482 0.950 . S
C2460 C2459 1.349 . S
C2460 C2472 1.349 . S
C2461 C2459 1.327 . S
C2461 C2477 1.429 . S
C2461 H2483 0.950 . S
C2462 H2458 0.949 . S
C2462 C2470 1.574 . S
C2462 C2478 1.368 . S
H2463 C2471 0.950 . S
H2464 C2469 0.950 . S
H2465 C2470 0.949 . S
H2466 C2472 0.950 . S
H2467 C2473 0.950 . S
H2468 C2474 0.949 . S
C2469 H2464 0.950 . S
C2469 C2471 1.327 . S
C2469 C2475 1.429 . S
C2470 C2462 1.574 . S
C2470 H2465 0.949 . S
C2470 C2476 1.368 . S
C2471 C2455 1.349 . S
C2471 H2463 0.950 . S
C2471 C2469 1.327 . S
C2472 C2460 1.349 . S
C2472 H2466 0.950 . S
C2472 C2473 1.327 . S
C2473 H2467 0.950 . S
C2473 C2472 1.327 . S
C2473 C2477 1.429 . S
C2474 C2457 1.574 . S
C2474 H2468 0.949 . S
C2474 C2478 1.368 . S
C2475 C2456 1.429 . S
C2475 C2469 1.429 . S
C2475 C2476 1.523 . S
C2476 C2457 1.368 . S
C2476 C2470 1.368 . S
C2476 C2475 1.523 . S
C2477 C2461 1.429 . S
C2477 C2473 1.429 . S
C2477 C2478 1.523 . S
C2478 C2462 1.368 . S
C2478 C2474 1.368 . S
C2478 C2477 1.523 . S
H2479 C2454 0.950 . S
H2480 C2456 0.950 . S
H2481 C2457 0.949 . S
H2482 C2459 0.950 . S
H2483 C2461 0.950 . S
C2484 C2485 1.349 . S
C2484 C2486 1.327 . S
C2484 H2509 0.950 . S
C2485 C2484 1.349 . S
C2485 C2501 1.349 . S
C2486 C2484 1.327 . S
C2486 C2505 1.429 . S
C2486 H2510 0.950 . S
C2487 C2504 1.574 . S
C2487 C2506 1.368 . S
C2487 H2511 0.949 . S
H2488 C2492 0.949 . S
C2489 C2490 1.349 . S
C2489 C2491 1.327 . S
C2489 H2512 0.950 . S
C2490 C2489 1.349 . S
C2490 C2502 1.349 . S
C2491 C2489 1.327 . S
C2491 C2507 1.429 . S
C2491 H2513 0.950 . S
C2492 H2488 0.949 . S
C2492 C2500 1.574 . S
C2492 C2508 1.368 . S
H2493 C2501 0.950 . S
H2494 C2499 0.950 . S
H2495 C2500 0.949 . S
H2496 C2502 0.950 . S
H2497 C2503 0.950 . S
H2498 C2504 0.949 . S
C2499 H2494 0.950 . S
C2499 C2501 1.327 . S
C2499 C2505 1.429 . S
C2500 C2492 1.574 . S
C2500 H2495 0.949 . S
C2500 C2506 1.368 . S
C2501 C2485 1.349 . S
C2501 H2493 0.950 . S
C2501 C2499 1.327 . S
C2502 C2490 1.349 . S
C2502 H2496 0.950 . S
C2502 C2503 1.327 . S
C2503 H2497 0.950 . S
C2503 C2502 1.327 . S
C2503 C2507 1.429 . S
C2504 C2487 1.574 . S
C2504 H2498 0.949 . S
C2504 C2508 1.368 . S
C2505 C2486 1.429 . S
C2505 C2499 1.429 . S
C2505 C2506 1.523 . S
C2506 C2487 1.368 . S
C2506 C2500 1.368 . S
C2506 C2505 1.523 . S
C2507 C2491 1.429 . S
C2507 C2503 1.429 . S
C2507 C2508 1.523 . S
C2508 C2492 1.368 . S
C2508 C2504 1.368 . S
C2508 C2507 1.523 . S
H2509 C2484 0.950 . S
H2510 C2486 0.950 . S
H2511 C2487 0.949 . S
H2512 C2489 0.950 . S
H2513 C2491 0.950 . S
C2514 C2515 1.349 . S
C2514 C2516 1.327 . S
C2514 H2539 0.950 . S
C2515 C2514 1.349 . S
C2515 C2531 1.349 . S
C2516 C2514 1.327 . S
C2516 C2535 1.429 . S
C2516 H2540 0.950 . S
C2517 C2534 1.574 . S
C2517 C2536 1.368 . S
C2517 H2541 0.949 . S
H2518 C2522 0.949 . S
C2519 C2520 1.349 . S
C2519 C2521 1.327 . S
C2519 H2542 0.950 . S
C2520 C2519 1.349 . S
C2520 C2532 1.349 . S
C2521 C2519 1.327 . S
C2521 C2537 1.429 . S
C2521 H2543 0.950 . S
C2522 H2518 0.949 . S
C2522 C2530 1.574 . S
C2522 C2538 1.368 . S
H2523 C2531 0.950 . S
H2524 C2529 0.950 . S
H2525 C2530 0.949 . S
H2526 C2532 0.950 . S
H2527 C2533 0.950 . S
H2528 C2534 0.949 . S
C2529 H2524 0.950 . S
C2529 C2531 1.327 . S
C2529 C2535 1.429 . S
C2530 C2522 1.574 . S
C2530 H2525 0.949 . S
C2530 C2536 1.368 . S
C2531 C2515 1.349 . S
C2531 H2523 0.950 . S
C2531 C2529 1.327 . S
C2532 C2520 1.349 . S
C2532 H2526 0.950 . S
C2532 C2533 1.327 . S
C2533 H2527 0.950 . S
C2533 C2532 1.327 . S
C2533 C2537 1.429 . S
C2534 C2517 1.574 . S
C2534 H2528 0.949 . S
C2534 C2538 1.368 . S
C2535 C2516 1.429 . S
C2535 C2529 1.429 . S
C2535 C2536 1.523 . S
C2536 C2517 1.368 . S
C2536 C2530 1.368 . S
C2536 C2535 1.523 . S
C2537 C2521 1.429 . S
C2537 C2533 1.429 . S
C2537 C2538 1.523 . S
C2538 C2522 1.368 . S
C2538 C2534 1.368 . S
C2538 C2537 1.523 . S
H2539 C2514 0.950 . S
H2540 C2516 0.950 . S
H2541 C2517 0.949 . S
H2542 C2519 0.950 . S
H2543 C2521 0.950 . S
C2544 C2545 1.349 . S
C2544 C2546 1.327 . S
C2544 H2569 0.950 . S
C2545 C2544 1.349 . S
C2545 C2561 1.349 . S
C2546 C2544 1.327 . S
C2546 C2565 1.429 . S
C2546 H2570 0.950 . S
C2547 C2564 1.574 . S
C2547 C2566 1.368 . S
C2547 H2571 0.949 . S
H2548 C2552 0.949 . S
C2549 C2550 1.349 . S
C2549 C2551 1.327 . S
C2549 H2572 0.950 . S
C2550 C2549 1.349 . S
C2550 C2562 1.349 . S
C2551 C2549 1.327 . S
C2551 C2567 1.429 . S
C2551 H2573 0.950 . S
C2552 H2548 0.949 . S
C2552 C2560 1.574 . S
C2552 C2568 1.368 . S
H2553 C2561 0.950 . S
H2554 C2559 0.950 . S
H2555 C2560 0.949 . S
H2556 C2562 0.950 . S
H2557 C2563 0.950 . S
H2558 C2564 0.949 . S
C2559 H2554 0.950 . S
C2559 C2561 1.327 . S
C2559 C2565 1.429 . S
C2560 C2552 1.574 . S
C2560 H2555 0.949 . S
C2560 C2566 1.368 . S
C2561 C2545 1.349 . S
C2561 H2553 0.950 . S
C2561 C2559 1.327 . S
C2562 C2550 1.349 . S
C2562 H2556 0.950 . S
C2562 C2563 1.327 . S
C2563 H2557 0.950 . S
C2563 C2562 1.327 . S
C2563 C2567 1.429 . S
C2564 C2547 1.574 . S
C2564 H2558 0.949 . S
C2564 C2568 1.368 . S
C2565 C2546 1.429 . S
C2565 C2559 1.429 . S
C2565 C2566 1.523 . S
C2566 C2547 1.368 . S
C2566 C2560 1.368 . S
C2566 C2565 1.523 . S
C2567 C2551 1.429 . S
C2567 C2563 1.429 . S
C2567 C2568 1.523 . S
C2568 C2552 1.368 . S
C2568 C2564 1.368 . S
C2568 C2567 1.523 . S
H2569 C2544 0.950 . S
H2570 C2546 0.950 . S
H2571 C2547 0.949 . S
H2572 C2549 0.950 . S
H2573 C2551 0.950 . S
C2574 C2575 1.349 . S
C2574 C2576 1.327 . S
C2574 H2599 0.950 . S
C2575 C2574 1.349 . S
C2575 C2591 1.349 . S
C2576 C2574 1.327 . S
C2576 C2595 1.429 . S
C2576 H2600 0.950 . S
C2577 C2594 1.574 . S
C2577 C2596 1.368 . S
C2577 H2601 0.949 . S
H2578 C2582 0.949 . S
C2579 C2580 1.349 . S
C2579 C2581 1.327 . S
C2579 H2602 0.950 . S
C2580 C2579 1.349 . S
C2580 C2592 1.349 . S
C2581 C2579 1.327 . S
C2581 C2597 1.429 . S
C2581 H2603 0.950 . S
C2582 H2578 0.949 . S
C2582 C2590 1.574 . S
C2582 C2598 1.368 . S
H2583 C2591 0.950 . S
H2584 C2589 0.950 . S
H2585 C2590 0.949 . S
H2586 C2592 0.950 . S
H2587 C2593 0.950 . S
H2588 C2594 0.949 . S
C2589 H2584 0.950 . S
C2589 C2591 1.327 . S
C2589 C2595 1.429 . S
C2590 C2582 1.574 . S
C2590 H2585 0.949 . S
C2590 C2596 1.368 . S
C2591 C2575 1.349 . S
C2591 H2583 0.950 . S
C2591 C2589 1.327 . S
C2592 C2580 1.349 . S
C2592 H2586 0.950 . S
C2592 C2593 1.327 . S
C2593 H2587 0.950 . S
C2593 C2592 1.327 . S
C2593 C2597 1.429 . S
C2594 C2577 1.574 . S
C2594 H2588 0.949 . S
C2594 C2598 1.368 . S
C2595 C2576 1.429 . S
C2595 C2589 1.429 . S
C2595 C2596 1.523 . S
C2596 C2577 1.368 . S
C2596 C2590 1.368 . S
C2596 C2595 1.523 . S
C2597 C2581 1.429 . S
C2597 C2593 1.429 . S
C2597 C2598 1.523 . S
C2598 C2582 1.368 . S
C2598 C2594 1.368 . S
C2598 C2597 1.523 . S
H2599 C2574 0.950 . S
H2600 C2576 0.950 . S
H2601 C2577 0.949 . S
H2602 C2579 0.950 . S
H2603 C2581 0.950 . S
C2604 C2605 1.349 . S
C2604 C2606 1.327 . S
C2604 H2629 0.950 . S
C2605 C2604 1.349 . S
C2605 C2621 1.349 . S
C2606 C2604 1.327 . S
C2606 C2625 1.429 . S
C2606 H2630 0.950 . S
C2607 C2624 1.574 . S
C2607 C2626 1.368 . S
C2607 H2631 0.949 . S
H2608 C2612 0.949 . S
C2609 C2610 1.349 . S
C2609 C2611 1.327 . S
C2609 H2632 0.950 . S
C2610 C2609 1.349 . S
C2610 C2622 1.349 . S
C2611 C2609 1.327 . S
C2611 C2627 1.429 . S
C2611 H2633 0.950 . S
C2612 H2608 0.949 . S
C2612 C2620 1.574 . S
C2612 C2628 1.368 . S
H2613 C2621 0.950 . S
H2614 C2619 0.950 . S
H2615 C2620 0.949 . S
H2616 C2622 0.950 . S
H2617 C2623 0.950 . S
H2618 C2624 0.949 . S
C2619 H2614 0.950 . S
C2619 C2621 1.327 . S
C2619 C2625 1.429 . S
C2620 C2612 1.574 . S
C2620 H2615 0.949 . S
C2620 C2626 1.368 . S
C2621 C2605 1.349 . S
C2621 H2613 0.950 . S
C2621 C2619 1.327 . S
C2622 C2610 1.349 . S
C2622 H2616 0.950 . S
C2622 C2623 1.327 . S
C2623 H2617 0.950 . S
C2623 C2622 1.327 . S
C2623 C2627 1.429 . S
C2624 C2607 1.574 . S
C2624 H2618 0.949 . S
C2624 C2628 1.368 . S
C2625 C2606 1.429 . S
C2625 C2619 1.429 . S
C2625 C2626 1.523 . S
C2626 C2607 1.368 . S
C2626 C2620 1.368 . S
C2626 C2625 1.523 . S
C2627 C2611 1.429 . S
C2627 C2623 1.429 . S
C2627 C2628 1.523 . S
C2628 C2612 1.368 . S
C2628 C2624 1.368 . S
C2628 C2627 1.523 . S
H2629 C2604 0.950 . S
H2630 C2606 0.950 . S
H2631 C2607 0.949 . S
H2632 C2609 0.950 . S
H2633 C2611 0.950 . S
C2634 C2635 1.349 . S
C2634 C2636 1.327 . S
C2634 H2659 0.950 . S
C2635 C2634 1.349 . S
C2635 C2651 1.349 . S
C2636 C2634 1.327 . S
C2636 C2655 1.429 . S
C2636 H2660 0.950 . S
C2637 C2654 1.574 . S
C2637 C2656 1.368 . S
C2637 H2661 0.949 . S
H2638 C2642 0.949 . S
C2639 C2640 1.349 . S
C2639 C2641 1.327 . S
C2639 H2662 0.950 . S
C2640 C2639 1.349 . S
C2640 C2652 1.349 . S
C2641 C2639 1.327 . S
C2641 C2657 1.429 . S
C2641 H2663 0.950 . S
C2642 H2638 0.949 . S
C2642 C2650 1.574 . S
C2642 C2658 1.368 . S
H2643 C2651 0.950 . S
H2644 C2649 0.950 . S
H2645 C2650 0.949 . S
H2646 C2652 0.950 . S
H2647 C2653 0.950 . S
H2648 C2654 0.949 . S
C2649 H2644 0.950 . S
C2649 C2651 1.327 . S
C2649 C2655 1.429 . S
C2650 C2642 1.574 . S
C2650 H2645 0.949 . S
C2650 C2656 1.368 . S
C2651 C2635 1.349 . S
C2651 H2643 0.950 . S
C2651 C2649 1.327 . S
C2652 C2640 1.349 . S
C2652 H2646 0.950 . S
C2652 C2653 1.327 . S
C2653 H2647 0.950 . S
C2653 C2652 1.327 . S
C2653 C2657 1.429 . S
C2654 C2637 1.574 . S
C2654 H2648 0.949 . S
C2654 C2658 1.368 . S
C2655 C2636 1.429 . S
C2655 C2649 1.429 . S
C2655 C2656 1.523 . S
C2656 C2637 1.368 . S
C2656 C2650 1.368 . S
C2656 C2655 1.523 . S
C2657 C2641 1.429 . S
C2657 C2653 1.429 . S
C2657 C2658 1.523 . S
C2658 C2642 1.368 . S
C2658 C2654 1.368 . S
C2658 C2657 1.523 . S
H2659 C2634 0.950 . S
H2660 C2636 0.950 . S
H2661 C2637 0.949 . S
H2662 C2639 0.950 . S
H2663 C2641 0.950 . S
C505 C6 1.438 . S
C510 C160 1.438 . S
C535 C132 1.438 . S
C540 C20 1.438 . S
C565 C146 1.438 . S
C570 C34 1.438 . S
C595 C48 1.438 . S
C600 C104 1.438 . S
C625 C62 1.438 . S
C630 C118 1.438 . S
C655 C76 1.438 . S
C660 C90 1.438 . S
C685 C174 1.438 . S
C690 C328 1.438 . S
C715 C300 1.438 . S
C720 C188 1.438 . S
C745 C202 1.438 . S
C750 C314 1.438 . S
C775 C216 1.438 . S
C780 C272 1.438 . S
C805 C230 1.438 . S
C810 C286 1.438 . S
C835 C244 1.438 . S
C840 C258 1.438 . S
C865 C342 1.438 . S
C870 C496 1.438 . S
C895 C356 1.438 . S
C900 C468 1.438 . S
C925 C482 1.438 . S
C930 C370 1.438 . S
C955 C384 1.438 . S
C960 C440 1.438 . S
C985 C454 1.438 . S
C990 C398 1.438 . S
C1015 C426 1.438 . S
C1020 C412 1.438 . S
C1045 C7 1.294 . S
C1050 C217 1.294 . S
C1075 C21 1.293 . S
C1080 C231 1.293 . S
C1105 C35 1.293 . S
C1110 C245 1.293 . S
C1135 C49 1.294 . S
C1140 C343 1.294 . S
C1165 C357 1.293 . S
C1170 C63 1.293 . S
C1195 C371 1.293 . S
C1200 C77 1.293 . S
C1225 C91 1.294 . S
C1230 C469 1.294 . S
C1255 C483 1.293 . S
C1260 C105 1.293 . S
C1285 C119 1.293 . S
C1290 C497 1.293 . S
C1315 C133 1.294 . S
C1320 C259 1.294 . S
C1345 C147 1.293 . S
C1350 C273 1.293 . S
C1375 C161 1.293 . S
C1380 C287 1.293 . S
C1405 C385 1.294 . S
C1410 C175 1.294 . S
C1435 C189 1.293 . S
C1440 C399 1.293 . S
C1465 C203 1.293 . S
C1470 C413 1.293 . S
C1495 C427 1.294 . S
C1500 C301 1.294 . S
C1525 C441 1.293 . S
C1530 C315 1.293 . S
C1555 C329 1.293 . S
C1560 C455 1.293 . S
C1585 C8 1.253 . S
C1590 C64 1.253 . S
C1615 C78 1.253 . S
C1620 C22 1.253 . S
C1645 C50 1.253 . S
C1650 C36 1.253 . S
C1675 C92 1.253 . S
C1680 C148 1.253 . S
C1705 C162 1.253 . S
C1710 C106 1.253 . S
C1735 C120 1.253 . S
C1740 C134 1.253 . S
C1765 C232 1.253 . S
C1770 C176 1.253 . S
C1795 C190 1.253 . S
C1800 C246 1.253 . S
C1825 C204 1.253 . S
C1830 C218 1.253 . S
C1855 C316 1.253 . S
C1860 C260 1.253 . S
C1885 C330 1.253 . S
C1890 C274 1.253 . S
C1915 C302 1.253 . S
C1920 C288 1.253 . S
C1945 C344 1.253 . S
C1950 C400 1.253 . S
C1975 C358 1.253 . S
C1980 C414 1.253 . S
C2005 C372 1.253 . S
C2010 C386 1.253 . S
C2035 C484 1.253 . S
C2040 C428 1.253 . S
C2065 C498 1.253 . S
C2070 C442 1.253 . S
C2095 C470 1.253 . S
C2100 C456 1.253 . S
C2125 C135 2.061 . S
C2130 C9 2.061 . S
C2155 C149 2.060 . S
C2160 C23 2.060 . S
C2185 C37 2.060 . S
C2190 C163 2.060 . S
C2215 C51 2.061 . S
C2220 C93 2.061 . S
C2245 C107 2.060 . S
C2250 C65 2.060 . S
C2275 C79 2.060 . S
C2280 C121 2.060 . S
C2305 C303 2.060 . S
C2310 C177 2.060 . S
C2335 C317 2.060 . S
C2340 C191 2.060 . S
C2365 C205 2.060 . S
C2370 C331 2.060 . S
C2395 C261 2.060 . S
C2400 C219 2.060 . S
C2425 C275 2.060 . S
C2430 C233 2.060 . S
C2455 C289 2.060 . S
C2460 C247 2.060 . S
C2485 C345 2.060 . S
C2490 C471 2.060 . S
C2515 C485 2.060 . S
C2520 C359 2.060 . S
C2545 C373 2.060 . S
C2550 C499 2.060 . S
C2575 C387 2.060 . S
C2580 C429 2.060 . S
C2605 C401 2.060 . S
C2610 C443 2.060 . S
C2635 C457 2.060 . S
C2640 C415 2.060 . S
