# Generated by pormake.
# Topology smu, (6)-cn, num edge types: 1
# Building blocks:
#     Node 0, Type 0, BuildingBlock: MIFKUJ_clean_sbu_0, # of connection points: 6
#     Node 1, Type 0, BuildingBlock: MIFKUJ_clean_sbu_0, # of connection points: 6
#     Node 2, Type 0, BuildingBlock: MIFKUJ_clean_sbu_0, # of connection points: 6
#     Node 3, Type 0, BuildingBlock: MIFKUJ_clean_sbu_0, # of connection points: 6
#     Node 4, Type 0, BuildingBlock: MIFKUJ_clean_sbu_0, # of connection points: 6
#     Node 5, Type 0, BuildingBlock: MIFKUJ_clean_sbu_0, # of connection points: 6
#     Edge 6, Type (0, 0), BuildingBlock: MIFKUJ_clean_linker_0, # of connection points: 2
#     Edge 7, Type (0, 0), BuildingBlock: MIFKUJ_clean_linker_0, # of connection points: 2
#     Edge 8, Type (0, 0), BuildingBlock: MIFKUJ_clean_linker_0, # of connection points: 2
#     Edge 9, Type (0, 0), BuildingBlock: MIFKUJ_clean_linker_0, # of connection points: 2
#     Edge 10, Type (0, 0), BuildingBlock: MIFKUJ_clean_linker_0, # of connection points: 2
#     Edge 11, Type (0, 0), BuildingBlock: MIFKUJ_clean_linker_0, # of connection points: 2
#     Edge 12, Type (0, 0), BuildingBlock: MIFKUJ_clean_linker_0, # of connection points: 2
#     Edge 13, Type (0, 0), BuildingBlock: MIFKUJ_clean_linker_0, # of connection points: 2
#     Edge 14, Type (0, 0), BuildingBlock: MIFKUJ_clean_linker_0, # of connection points: 2
#     Edge 15, Type (0, 0), BuildingBlock: MIFKUJ_clean_linker_0, # of connection points: 2
#     Edge 16, Type (0, 0), BuildingBlock: MIFKUJ_clean_linker_0, # of connection points: 2
#     Edge 17, Type (0, 0), BuildingBlock: MIFKUJ_clean_linker_0, # of connection points: 2
#     Edge 18, Type (0, 0), BuildingBlock: MIFKUJ_clean_linker_0, # of connection points: 2
#     Edge 19, Type (0, 0), BuildingBlock: MIFKUJ_clean_linker_0, # of connection points: 2
#     Edge 20, Type (0, 0), BuildingBlock: MIFKUJ_clean_linker_0, # of connection points: 2
#     Edge 21, Type (0, 0), BuildingBlock: MIFKUJ_clean_linker_0, # of connection points: 2
#     Edge 22, Type (0, 0), BuildingBlock: MIFKUJ_clean_linker_0, # of connection points: 2
#     Edge 23, Type (0, 0), BuildingBlock: MIFKUJ_clean_linker_0, # of connection points: 2
# Relax obj value: 0.224
# Max RMSD: 0.284
# Mean RMSD: 0.284
data_MOF--net-smu--node1-MIFKUJ_clean_sbu_0--edge1-MIFKUJ_clean_linker_0
_symmetry_space_group_name_H-M    P1
_symmetry_Int_Tables_number       1
_symmetry_cell_setting            triclinic
loop_
_symmetry_equiv_pos_as_xyz
'x, y, z'
_cell_length_a     42.227846
_cell_length_b     42.199769
_cell_length_c     36.00276
_cell_angle_alpha  89.961046
_cell_angle_beta   89.991861
_cell_angle_gamma 119.87992
loop_
_atom_site_label
_atom_site_type_symbol
_atom_site_fract_x
_atom_site_fract_y
_atom_site_fract_z
_atom_type_partial_charge
Zn0 Zn 0.28546 0.0288 0.24017 0.0
Zn1 Zn 0.37705 0.10781 0.24993 0.0
C2 C 0.24925 0.06691 0.25644 0.0
O3 O 0.23875 0.04231 0.28297 0.0
C4 C 0.44343 0.10688 0.22474 0.0
O5 O 0.42665 0.09457 0.19284 0.0
O6 O 0.24169 0.98051 0.22781 0.0
O7 O 0.32682 0.03401 0.20983 0.0
O8 O 0.35599 0.09267 0.19843 0.0
C9 C 0.2189 0.97745 0.20305 0.0
O10 O 0.22452 0.00646 0.18417 0.0
O11 O 0.27192 0.06815 0.23237 0.0
C12 C 0.40278 0.17404 0.2881 0.0
O13 O 0.4096 0.15527 0.31279 0.0
O14 O 0.38617 0.15828 0.25843 0.0
O15 O 0.35088 0.07726 0.29505 0.0
O16 O 0.29613 0.02765 0.29299 0.0
O17 O 0.42724 0.1132 0.25102 0.0
C18 C 0.33881 0.06002 0.18683 0.0
C19 C 0.32411 0.05031 0.31096 0.0
Zn20 Zn 0.78678 0.70984 0.23176 0.0
Zn21 Zn 0.72943 0.6147 0.23788 0.0
C22 C 0.85251 0.72213 0.26209 0.0
O23 O 0.84045 0.73553 0.28786 0.0
C24 C 0.65961 0.54918 0.23027 0.0
O25 O 0.65151 0.57052 0.21081 0.0
O26 O 0.80466 0.76351 0.22675 0.0
O27 O 0.75885 0.68917 0.1848 0.0
O28 O 0.72046 0.62961 0.18756 0.0
C29 C 0.78102 0.77326 0.22111 0.0
O30 O 0.74645 0.74802 0.21832 0.0
O31 O 0.83179 0.70545 0.23482 0.0
C32 C 0.78539 0.60644 0.27173 0.0
O33 O 0.76541 0.60332 0.30098 0.0
O34 O 0.77719 0.61497 0.24075 0.0
O35 O 0.72008 0.63763 0.28222 0.0
O36 O 0.75847 0.69713 0.27928 0.0
O37 O 0.69149 0.56206 0.24369 0.0
C38 C 0.73454 0.65973 0.17007 0.0
C39 C 0.73346 0.66944 0.2959 0.0
Zn40 Zn 0.95574 0.22852 0.25083 0.0
Zn41 Zn 0.8947 0.2741 0.25815 0.0
C42 C 0.92014 0.15455 0.26664 0.0
O43 O 0.94721 0.16814 0.2906 0.0
C44 C 0.91168 0.35023 0.26007 0.0
O45 O 0.94484 0.35753 0.25126 0.0
O46 O 0.00251 0.22634 0.24787 0.0
O47 O 0.95728 0.25849 0.20758 0.0
O48 O 0.92204 0.28375 0.20982 0.0
C49 C 0.00703 0.20952 0.22091 0.0
O50 O 0.98193 0.19554 0.19489 0.0
O51 O 0.91554 0.17635 0.24596 0.0
C52 C 0.82265 0.2286 0.28082 0.0
O53 O 0.83709 0.24962 0.31004 0.0
O54 O 0.8435 0.23156 0.25394 0.0
O55 O 0.91911 0.27207 0.30556 0.0
O56 O 0.95477 0.24738 0.30121 0.0
O57 O 0.88681 0.31717 0.26452 0.0
C58 C 0.94502 0.27767 0.19319 0.0
C59 C 0.94059 0.26257 0.32004 0.0
Zn60 Zn 0.09074 0.39092 0.75127 0.0
Zn61 Zn 0.05503 0.28544 0.74765 0.0
C62 C 0.16375 0.42357 0.77002 0.0
O63 O 0.14908 0.43108 0.79846 0.0
C64 C 0.99994 0.221 0.70959 0.0
O65 O 0.02878 0.22273 0.69371 0.0
O66 O 0.09457 0.44016 0.75632 0.0
O67 O 0.05925 0.36597 0.70777 0.0
O68 O 0.07743 0.32588 0.71036 0.0
C69 C 0.11024 0.46312 0.73029 0.0
O70 O 0.12053 0.45279 0.70039 0.0
O71 O 0.14277 0.40256 0.74475 0.0
C72 C 0.07079 0.23019 0.7701 0.0
O73 O 0.03795 0.21732 0.78425 0.0
O74 O 0.0855 0.26082 0.75334 0.0
O75 O 0.04941 0.30346 0.79799 0.0
O76 O 0.06906 0.36338 0.79844 0.0
O77 O 0.00432 0.24629 0.7318 0.0
C78 C 0.05744 0.33699 0.69562 0.0
C79 C 0.05473 0.33242 0.81456 0.0
Zn80 Zn 0.31044 0.92161 0.75586 0.0
Zn81 Zn 0.2272 0.92678 0.75317 0.0
C82 C 0.26177 0.84822 0.78193 0.0
O83 O 0.27717 0.86179 0.81415 0.0
C84 C 0.20654 0.97935 0.73777 0.0
O85 O 0.19892 0.96131 0.70625 0.0
O86 O 0.3575 0.92076 0.76199 0.0
O87 O 0.3126 0.94519 0.708 0.0
O88 O 0.25858 0.94221 0.70688 0.0
C89 C 0.37257 0.91621 0.73348 0.0
O90 O 0.35743 0.91296 0.70078 0.0
O91 O 0.27035 0.86926 0.75394 0.0
C92 C 0.15344 0.87694 0.76823 0.0
O93 O 0.16541 0.89014 0.80157 0.0
O94 O 0.17633 0.88644 0.74175 0.0
O95 O 0.24603 0.91578 0.80006 0.0
O96 O 0.3058 0.95002 0.79734 0.0
O97 O 0.22014 0.96985 0.76411 0.0
C98 C 0.28866 0.94976 0.69147 0.0
C99 C 0.27578 0.94087 0.81344 0.0
Zn100 Zn 0.61921 0.72514 0.73547 0.0
Zn101 Zn 0.71547 0.78419 0.73651 0.0
C102 C 0.62171 0.789 0.76619 0.0
O103 O 0.61683 0.77088 0.79733 0.0
C104 C 0.78855 0.80309 0.71059 0.0
O105 O 0.77649 0.8058 0.67779 0.0
O106 O 0.56444 0.69147 0.73579 0.0
O107 O 0.63806 0.71605 0.68794 0.0
O108 O 0.69699 0.7576 0.68786 0.0
C109 C 0.54809 0.66361 0.71489 0.0
O110 O 0.56724 0.65598 0.69152 0.0
O111 O 0.62653 0.77593 0.73631 0.0
C112 C 0.73912 0.85543 0.76176 0.0
O113 O 0.75243 0.84303 0.7873 0.0
O114 O 0.71853 0.8335 0.73684 0.0
O115 O 0.69542 0.75504 0.7835 0.0
O116 O 0.63681 0.71295 0.78193 0.0
O117 O 0.76767 0.79508 0.73865 0.0
C118 C 0.66894 0.73225 0.6719 0.0
C119 C 0.6674 0.72868 0.79845 0.0
H120 H 0.31977 0.01116 0.83363 0.0
H121 H 0.32494 0.03794 0.89502 0.0
H122 H 0.2393 0.93398 0.93575 0.0
H123 H 0.23254 0.90778 0.87354 0.0
H124 H 0.23484 0.98589 0.96964 0.0
H125 H 0.33177 0.96091 0.94442 0.0
H126 H 0.38329 0.96374 0.90933 0.0
H127 H 0.44342 0.08042 0.92177 0.0
H128 H 0.39201 0.07832 0.95653 0.0
H129 H 0.29119 0.99437 0.15605 0.0
H130 H 0.27636 0.98064 0.09055 0.0
H131 H 0.35005 0.09353 0.06257 0.0
H132 H 0.3653 0.10767 0.1284 0.0
H133 H 0.36029 0.04302 0.02153 0.0
H134 H 0.26105 0.06221 0.05687 0.0
H135 H 0.21001 0.0523 0.09771 0.0
H136 H 0.15404 0.9378 0.07179 0.0
H137 H 0.20497 0.94693 0.03115 0.0
C138 C 0.30176 0.99425 0.85565 0.0
C139 C 0.27624 0.95736 0.84935 0.0
C140 C 0.30473 0.0095 0.89063 0.0
C141 C 0.28325 0.98766 0.92019 0.0
C142 C 0.25629 0.95126 0.91337 0.0
C143 C 0.25256 0.93627 0.87799 0.0
C144 C 0.29106 0.00183 0.95863 0.0
C145 C 0.26223 0.99827 0.98102 0.0
C146 C 0.32687 0.01816 0.97344 0.0
C147 C 0.3579 0.0195 0.95269 0.0
C148 C 0.35588 0.9872 0.93945 0.0
C149 C 0.38507 0.98866 0.91965 0.0
C150 C 0.41656 0.02225 0.91323 0.0
C151 C 0.41898 0.05443 0.9267 0.0
C152 C 0.38984 0.05313 0.94646 0.0
C153 C 0.3042 0.01637 0.13604 0.0
C154 C 0.32951 0.05211 0.14729 0.0
C155 C 0.29545 0.0085 0.09869 0.0
C156 C 0.31181 0.0362 0.07199 0.0
C157 C 0.33702 0.07193 0.083 0.0
C158 C 0.34567 0.07991 0.12049 0.0
C159 C 0.30418 0.02708 0.03236 0.0
C160 C 0.33306 0.03136 0.00983 0.0
C161 C 0.26832 0.01053 0.01791 0.0
C162 C 0.23692 0.00526 0.04104 0.0
C163 C 0.23789 0.03491 0.05992 0.0
C164 C 0.20899 0.02942 0.08306 0.0
C165 C 0.17882 0.99444 0.08736 0.0
C166 C 0.17741 0.96489 0.06839 0.0
C167 C 0.20625 0.97022 0.04523 0.0
H168 H 0.15652 0.99023 0.10537 0.0
H169 H 0.43913 0.02333 0.8979 0.0
H170 H 0.72295 0.7727 0.62223 0.0
H171 H 0.72729 0.75806 0.55752 0.0
H172 H 0.62703 0.65537 0.56895 0.0
H173 H 0.62218 0.66993 0.63393 0.0
H174 H 0.68708 0.65216 0.53238 0.0
H175 H 0.62007 0.71631 0.52589 0.0
H176 H 0.60827 0.7668 0.53926 0.0
H177 H 0.70845 0.84246 0.48499 0.0
H178 H 0.72115 0.7925 0.47181 0.0
H179 H 0.6777 0.61783 0.33845 0.0
H180 H 0.66046 0.6252 0.40132 0.0
H181 H 0.74484 0.73865 0.40042 0.0
H182 H 0.7616 0.73184 0.33738 0.0
H183 H 0.68562 0.73188 0.43175 0.0
H184 H 0.75662 0.67186 0.44334 0.0
H185 H 0.77221 0.62373 0.43125 0.0
H186 H 0.66931 0.54307 0.47705 0.0
H187 H 0.65288 0.5907 0.48893 0.0
C188 C 0.70191 0.74687 0.61115 0.0
C189 C 0.6722 0.72247 0.63322 0.0
C190 C 0.70436 0.73866 0.57412 0.0
C191 C 0.67734 0.7058 0.55853 0.0
C192 C 0.64807 0.68091 0.58059 0.0
C193 C 0.64531 0.68934 0.61759 0.0
C194 C 0.67982 0.69785 0.51902 0.0
C195 C 0.68607 0.66908 0.51022 0.0
C196 C 0.67935 0.72059 0.49043 0.0
C197 C 0.67171 0.75069 0.49815 0.0
C198 C 0.63975 0.74377 0.51709 0.0
C199 C 0.63287 0.77228 0.52459 0.0
C200 C 0.65764 0.80783 0.51306 0.0
C201 C 0.6893 0.81492 0.49394 0.0
C202 C 0.69634 0.7865 0.48642 0.0
C203 C 0.6924 0.64443 0.35151 0.0
C204 C 0.7212 0.67419 0.33295 0.0
C205 C 0.68261 0.64854 0.38752 0.0
C206 C 0.70175 0.68233 0.4058 0.0
C207 C 0.72972 0.71231 0.38689 0.0
C208 C 0.73933 0.70832 0.35084 0.0
C209 C 0.69348 0.68645 0.44494 0.0
C210 C 0.68618 0.71458 0.45375 0.0
C211 C 0.69348 0.66341 0.4736 0.0
C212 C 0.70335 0.63476 0.46661 0.0
C213 C 0.7372 0.64381 0.45056 0.0
C214 C 0.7462 0.61663 0.44379 0.0
C215 C 0.72171 0.58035 0.45327 0.0
C216 C 0.68821 0.57118 0.46964 0.0
C217 C 0.67904 0.59825 0.47641 0.0
H218 H 0.72874 0.55934 0.44801 0.0
H219 H 0.65226 0.82987 0.51888 0.0
H220 H 0.00627 0.28816 0.15758 0.0
H221 H 0.0228 0.30513 0.09273 0.0
H222 H 0.9264 0.31434 0.07741 0.0
H223 H 0.90973 0.29772 0.14273 0.0
H224 H 0.93513 0.26952 0.02455 0.0
H225 H 0.0021 0.38914 0.07497 0.0
H226 H 0.04392 0.43701 0.11823 0.0
H227 H 0.13195 0.42084 0.08282 0.0
H228 H 0.09052 0.37244 0.03973 0.0
H229 H 0.05055 0.38505 0.85469 0.0
H230 H 0.02878 0.3808 0.91815 0.0
H231 H 0.01072 0.27099 0.92653 0.0
H232 H 0.03158 0.27459 0.86253 0.0
H233 H 0.05368 0.37234 0.98157 0.0
H234 H 0.93914 0.22041 0.98255 0.0
H235 H 0.89594 0.17415 0.93873 0.0
H236 H 0.89914 0.25891 0.87002 0.0
H237 H 0.94197 0.30565 0.91368 0.0
C238 C 0.98878 0.29422 0.14057 0.0
C239 C 0.95664 0.2915 0.15514 0.0
C240 C 0.99834 0.30403 0.10361 0.0
C241 C 0.97582 0.311 0.08049 0.0
C242 C 0.94408 0.30908 0.09501 0.0
C243 C 0.93473 0.29976 0.13226 0.0
C244 C 0.98462 0.31805 0.04065 0.0
C245 C 0.96086 0.29215 0.01498 0.0
C246 C 0.018 0.34784 0.02842 0.0
C247 C 0.0431 0.37695 0.05429 0.0
C248 C 0.0303 0.39556 0.07662 0.0
C249 C 0.05395 0.42284 0.10108 0.0
C250 C 0.09055 0.43192 0.10332 0.0
C251 C 0.10358 0.41377 0.08106 0.0
C252 C 0.08003 0.38643 0.05658 0.0
C253 C 0.04195 0.35994 0.86996 0.0
C254 C 0.04267 0.33007 0.85348 0.0
C255 C 0.02953 0.3576 0.90626 0.0
C256 C 0.01769 0.32545 0.92686 0.0
C257 C 0.01902 0.29581 0.91081 0.0
C258 C 0.03113 0.29798 0.87432 0.0
C259 C 0.00462 0.32324 0.9654 0.0
C260 C 0.02767 0.34996 0.99091 0.0
C261 C 0.97033 0.29446 0.97736 0.0
C262 C 0.94398 0.26654 0.95128 0.0
C263 C 0.93046 0.22917 0.95821 0.0
C264 C 0.90608 0.20286 0.93337 0.0
C265 C 0.89488 0.21359 0.90156 0.0
C266 C 0.90793 0.25064 0.89461 0.0
C267 C 0.93229 0.27706 0.91937 0.0
H268 H 0.87605 0.19318 0.88234 0.0
H269 H 0.10882 0.45306 0.12226 0.0
H270 H 0.26659 0.00992 0.3567 0.0
H271 H 0.26805 0.00209 0.42371 0.0
H272 H 0.3851 0.07193 0.4236 0.0
H273 H 0.38398 0.08039 0.35629 0.0
H274 H 0.35646 0.00167 0.46136 0.0
H275 H 0.34216 0.10728 0.45829 0.0
H276 H 0.31467 0.14392 0.43766 0.0
H277 H 0.21091 0.06332 0.48181 0.0
H278 H 0.23764 0.02588 0.5022 0.0
H279 H 0.35508 0.98789 0.65767 0.0
H280 H 0.36777 0.01358 0.59506 0.0
H281 H 0.2525 0.97158 0.57741 0.0
H282 H 0.23976 0.94714 0.64048 0.0
H283 H 0.28941 0.0372 0.54981 0.0
H284 H 0.29865 0.92775 0.54405 0.0
H285 H 0.32232 0.88707 0.56228 0.0
H286 H 0.43093 0.96999 0.5324 0.0
H287 H 0.40794 0.01135 0.51442 0.0
C288 C 0.29267 0.02364 0.37088 0.0
C289 C 0.3252 0.04567 0.35133 0.0
C290 C 0.2934 0.01931 0.40911 0.0
C291 C 0.32664 0.0367 0.42832 0.0
C292 C 0.35924 0.05851 0.40901 0.0
C293 C 0.3585 0.0633 0.37073 0.0
C294 C 0.32699 0.03069 0.46849 0.0
C295 C 0.34257 0.0101 0.481 0.0
C296 C 0.30801 0.04104 0.4935 0.0
C297 C 0.29188 0.06365 0.48156 0.0
C298 C 0.31341 0.09722 0.46335 0.0
C299 C 0.29798 0.11816 0.45174 0.0
C300 C 0.26106 0.10593 0.45836 0.0
C301 C 0.23951 0.07276 0.47669 0.0
C302 C 0.25481 0.05168 0.48833 0.0
C303 C 0.33245 0.98418 0.64043 0.0
C304 C 0.29639 0.9653 0.65379 0.0
C305 C 0.33975 0.99882 0.60469 0.0
C306 C 0.31102 0.99401 0.58145 0.0
C307 C 0.27506 0.97563 0.59495 0.0
C308 C 0.26781 0.96155 0.6309 0.0
C309 C 0.31811 0.00729 0.54272 0.0
C310 C 0.30392 0.02928 0.53044 0.0
C311 C 0.33784 0.99769 0.51773 0.0
C312 C 0.35165 0.97278 0.52832 0.0
C313 C 0.32762 0.93739 0.54162 0.0
C314 C 0.3409 0.91421 0.55187 0.0
C315 C 0.37812 0.92599 0.54862 0.0
C316 C 0.40212 0.96094 0.53498 0.0
C317 C 0.38898 0.98425 0.52474 0.0
H318 H 0.38836 0.908 0.55658 0.0
H319 H 0.24915 0.12218 0.44935 0.0
H320 H 0.61741 0.66716 0.83577 0.0
H321 H 0.6239 0.64682 0.89755 0.0
H322 H 0.73113 0.74182 0.90764 0.0
H323 H 0.72532 0.76177 0.8458 0.0
H324 H 0.73266 0.6839 0.93109 0.0
H325 H 0.6538 0.73501 0.9506 0.0
H326 H 0.59896 0.74047 0.94045 0.0
H327 H 0.53062 0.62902 0.97476 0.0
H328 H 0.5851 0.62277 0.98466 0.0
H329 H 0.76784 0.71601 0.12096 0.0
H330 H 0.75096 0.71814 0.05675 0.0
H331 H 0.6593 0.60885 0.0667 0.0
H332 H 0.67619 0.6062 0.13146 0.0
H333 H 0.64388 0.662 0.03193 0.0
H334 H 0.72614 0.61553 0.0206 0.0
H335 H 0.78265 0.61373 0.03297 0.0
H336 H 0.84637 0.72043 0.98481 0.0
H337 H 0.79027 0.72312 0.97264 0.0
C338 C 0.64238 0.6837 0.85116 0.0
C339 C 0.67084 0.71612 0.83585 0.0
C340 C 0.64599 0.67208 0.88651 0.0
C341 C 0.67788 0.69296 0.90736 0.0
C342 C 0.70633 0.72519 0.89202 0.0
C343 C 0.7029 0.73662 0.85665 0.0
C344 C 0.68199 0.68166 0.94527 0.0
C345 C 0.71329 0.67927 0.95313 0.0
C346 C 0.6562 0.67454 0.97383 0.0
C347 C 0.62347 0.67828 0.96791 0.0
C348 C 0.62706 0.71158 0.95568 0.0
C349 C 0.59605 0.71484 0.95003 0.0
C350 C 0.56132 0.68507 0.95683 0.0
C351 C 0.55754 0.65202 0.96942 0.0
C352 C 0.58846 0.64861 0.97506 0.0
C353 C 0.74402 0.69235 0.10968 0.0
C354 C 0.72341 0.66085 0.13134 0.0
C355 C 0.73452 0.69361 0.0729 0.0
C356 C 0.70413 0.66354 0.05701 0.0
C357 C 0.68295 0.63226 0.07858 0.0
C358 C 0.69269 0.63078 0.11545 0.0
C359 C 0.69499 0.66539 0.01774 0.0
C360 C 0.66281 0.66596 0.00964 0.0
C361 C 0.72015 0.67125 0.989 0.0
C362 C 0.75397 0.6696 0.99591 0.0
C363 C 0.75221 0.63873 0.01288 0.0
C364 C 0.78417 0.63753 0.01982 0.0
C365 C 0.81808 0.66697 0.00974 0.0
C366 C 0.82008 0.69764 0.9926 0.0
C367 C 0.7882 0.69899 0.98563 0.0
H368 H 0.84279 0.666 0.01515 0.0
H369 H 0.53734 0.68765 0.95245 0.0
H370 H 0.90974 0.28652 0.37192 0.0
H371 H 0.92135 0.29305 0.43879 0.0
H372 H 1.00001 0.25692 0.42612 0.0
H373 H 0.98823 0.24969 0.35954 0.0
H374 H 0.95576 0.22469 0.4852 0.0
H375 H 0.027 0.34751 0.43508 0.0
H376 H 0.03483 0.40119 0.4 0.0
H377 H 0.95939 0.41049 0.47292 0.0
H378 H 0.95079 0.35657 0.50818 0.0
H379 H 0.06638 0.29294 0.64615 0.0
H380 H 0.03749 0.27353 0.58526 0.0
H381 H 0.97052 0.32195 0.60867 0.0
H382 H 1.00034 0.34261 0.66888 0.0
H383 H 0.00175 0.34533 0.54569 0.0
H384 H 0.93393 0.22679 0.59956 0.0
H385 H 0.92378 0.17239 0.63454 0.0
H386 H 0.98948 0.15381 0.5562 0.0
H387 H 1.00018 0.20831 0.52072 0.0
C388 C 0.9296 0.28007 0.38333 0.0
C389 C 0.94821 0.26778 0.36033 0.0
C390 C 0.93616 0.28379 0.42154 0.0
C391 C 0.9617 0.27568 0.4373 0.0
C392 C 0.9801 0.2632 0.41449 0.0
C393 C 0.97346 0.2593 0.37638 0.0
C394 C 0.97006 0.2809 0.47746 0.0
C395 C 0.96606 0.2511 0.49848 0.0
C396 C 0.98237 0.31507 0.49488 0.0
C397 C 0.98798 0.34781 0.47402 0.0
C398 C 0.01192 0.36088 0.44349 0.0
C399 C 0.01652 0.39136 0.4236 0.0
C400 C 0.99753 0.40918 0.43415 0.0
C401 C 0.97403 0.39663 0.46474 0.0
C402 C 0.96932 0.36614 0.4847 0.0
C403 C 0.045 0.2988 0.63855 0.0
C404 C 0.03592 0.31968 0.66194 0.0
C405 C 0.02834 0.28754 0.60381 0.0
C406 C 0.00177 0.29627 0.59235 0.0
C407 C 0.99113 0.31515 0.61677 0.0
C408 C 0.00815 0.32689 0.65117 0.0
C409 C 0.9879 0.28916 0.55366 0.0
C410 C 0.99096 0.3187 0.53276 0.0
C411 C 0.97447 0.25467 0.53649 0.0
C412 C 0.96813 0.22185 0.55768 0.0
C413 C 0.9465 0.21131 0.58996 0.0
C414 C 0.94071 0.18048 0.60991 0.0
C415 C 0.9563 0.15985 0.59782 0.0
C416 C 0.97756 0.16991 0.56561 0.0
C417 C 0.98342 0.20073 0.54551 0.0
H418 H 0.95161 0.13584 0.61317 0.0
H419 H 1.00108 0.43274 0.41869 0.0
H420 H 0.48676 0.13674 0.28563 0.0
H421 H 0.55046 0.15302 0.29332 0.0
H422 H 0.55075 0.11264 0.18337 0.0
H423 H 0.48662 0.09593 0.17543 0.0
H424 H 0.58569 0.09191 0.23399 0.0
H425 H 0.58899 0.20179 0.19655 0.0
H426 H 0.57303 0.25057 0.19785 0.0
H427 H 0.61647 0.28014 0.30817 0.0
H428 H 0.63212 0.23105 0.30784 0.0
H429 H 0.78277 0.18764 0.22112 0.0
H430 H 0.71704 0.1615 0.21105 0.0
H431 H 0.70606 0.19658 0.32041 0.0
H432 H 0.77144 0.22265 0.33075 0.0
H433 H 0.67697 0.2199 0.2659 0.0
H434 H 0.67203 0.10788 0.30295 0.0
H435 H 0.68844 0.05945 0.29995 0.0
H436 H 0.64934 0.03526 0.18767 0.0
H437 H 0.63316 0.08393 0.18982 0.0
C438 C 0.50022 0.13112 0.26307 0.0
C439 C 0.48162 0.1152 0.2298 0.0
C440 C 0.53671 0.14059 0.26749 0.0
C441 C 0.55546 0.13447 0.23873 0.0
C442 C 0.53678 0.11768 0.20585 0.0
C443 C 0.50019 0.10826 0.20134 0.0
C444 C 0.59472 0.14625 0.24304 0.0
C445 C 0.60579 0.11999 0.24042 0.0
C446 C 0.62078 0.18283 0.2519 0.0
C447 C 0.61137 0.21241 0.25231 0.0
C448 C 0.59482 0.21843 0.22125 0.0
C449 C 0.58588 0.24618 0.22179 0.0
C450 C 0.5936 0.26834 0.25312 0.0
C451 C 0.61041 0.26288 0.28395 0.0
C452 C 0.61934 0.23509 0.2836 0.0
C453 C 0.76625 0.18916 0.2433 0.0
C454 C 0.78242 0.20748 0.27663 0.0
C455 C 0.72869 0.1742 0.23749 0.0
C456 C 0.70674 0.17729 0.26493 0.0
C457 C 0.72256 0.1941 0.2988 0.0
C458 C 0.75996 0.20886 0.30469 0.0
C459 C 0.66785 0.16544 0.25756 0.0
C460 C 0.65689 0.19181 0.25942 0.0
C461 C 0.64204 0.12908 0.24776 0.0
C462 C 0.65177 0.09983 0.24641 0.0
C463 C 0.66725 0.09247 0.27749 0.0
C464 C 0.67644 0.06493 0.27597 0.0
C465 C 0.67004 0.04437 0.2436 0.0
C466 C 0.65434 0.05125 0.2127 0.0
C467 C 0.64513 0.07879 0.21407 0.0
H468 H 0.67716 0.02304 0.24248 0.0
H469 H 0.58661 0.28977 0.25347 0.0
H470 H 0.66214 0.50365 0.28242 0.0
H471 H 0.61492 0.44134 0.29703 0.0
H472 H 0.54679 0.44575 0.21011 0.0
H473 H 0.59346 0.5088 0.19635 0.0
H474 H 0.50663 0.41438 0.26756 0.0
H475 H 0.59544 0.39869 0.20028 0.0
H476 H 0.65561 0.4064 0.18411 0.0
H477 H 0.66172 0.36413 0.29073 0.0
H478 H 0.60169 0.35648 0.30769 0.0
H479 H 0.39513 0.22104 0.24167 0.0
H480 H 0.43482 0.28723 0.23848 0.0
H481 H 0.49164 0.28412 0.33675 0.0
H482 H 0.45221 0.21788 0.34012 0.0
H483 H 0.53655 0.3149 0.27622 0.0
H484 H 0.44219 0.3263 0.33932 0.0
H485 H 0.37885 0.31301 0.3484 0.0
H486 H 0.38079 0.3593 0.24162 0.0
H487 H 0.44401 0.37245 0.23167 0.0
C488 C 0.63715 0.49132 0.26631 0.0
C489 C 0.63152 0.51104 0.23812 0.0
C490 C 0.61022 0.45563 0.27461 0.0
C491 C 0.57751 0.43863 0.25431 0.0
C492 C 0.57181 0.45831 0.22616 0.0
C493 C 0.59854 0.49426 0.21822 0.0
C494 C 0.54917 0.40044 0.26263 0.0
C495 C 0.51313 0.39257 0.26908 0.0
C496 C 0.55769 0.37202 0.26517 0.0
C497 C 0.59425 0.37745 0.25542 0.0
C498 C 0.60979 0.39143 0.22044 0.0
C499 C 0.64384 0.3957 0.2111 0.0
C500 C 0.66256 0.38592 0.23644 0.0
C501 C 0.64726 0.37183 0.27118 0.0
C502 C 0.61321 0.36749 0.28066 0.0
C503 C 0.41548 0.23452 0.26314 0.0
C504 C 0.42092 0.2142 0.29083 0.0
C505 C 0.43804 0.27237 0.26135 0.0
C506 C 0.4662 0.29043 0.2873 0.0
C507 C 0.47006 0.27054 0.31643 0.0
C508 C 0.44744 0.23273 0.31834 0.0
C509 C 0.49428 0.32902 0.28135 0.0
C510 C 0.53024 0.33687 0.27513 0.0
C511 C 0.48548 0.35712 0.27828 0.0
C512 C 0.44779 0.35014 0.28465 0.0
C513 C 0.42906 0.33349 0.31769 0.0
C514 C 0.39318 0.32601 0.32301 0.0
C515 C 0.37579 0.33525 0.29558 0.0
C516 C 0.39431 0.35218 0.26285 0.0
C517 C 0.43019 0.35971 0.25738 0.0
H518 H 0.34796 0.32931 0.29968 0.0
H519 H 0.68888 0.38917 0.22911 0.0
H520 H 0.95722 0.42373 0.24952 0.0
H521 H 0.94174 0.47232 0.25365 0.0
H522 H 0.83105 0.39278 0.28322 0.0
H523 H 0.8461 0.34408 0.27865 0.0
H524 H 0.83099 0.43752 0.23231 0.0
H525 H 0.89115 0.4498 0.34805 0.0
H526 H 0.94091 0.45694 0.38928 0.0
H527 H 0.01373 0.56046 0.33886 0.0
H528 H 0.96452 0.55367 0.2969 0.0
H529 H 0.8049 0.58099 0.33234 0.0
H530 H 0.83442 0.5438 0.3321 0.0
H531 H 0.85237 0.56066 0.21408 0.0
H532 H 0.82265 0.59771 0.21395 0.0
H533 H 0.89925 0.54789 0.31087 0.0
H534 H 0.82387 0.47688 0.17553 0.0
H535 H 0.76949 0.46663 0.14015 0.0
H536 H 0.71878 0.47381 0.24075 0.0
H537 H 0.77254 0.48342 0.27676 0.0
C538 C 0.92962 0.41659 0.25704 0.0
C539 C 0.9029 0.38 0.26373 0.0
C540 C 0.92085 0.44443 0.25952 0.0
C541 C 0.88528 0.43624 0.26896 0.0
C542 C 0.85864 0.39975 0.2758 0.0
C543 C 0.86735 0.37194 0.27328 0.0
C544 C 0.87545 0.46546 0.27093 0.0
C545 C 0.84607 0.46169 0.24938 0.0
C546 C 0.89465 0.49674 0.29371 0.0
C547 C 0.92425 0.50105 0.31906 0.0
C548 C 0.91785 0.47396 0.34555 0.0
C549 C 0.94594 0.47796 0.36908 0.0
C550 C 0.98049 0.50909 0.36662 0.0
C551 C 0.98697 0.53634 0.34069 0.0
C552 C 0.95899 0.53244 0.31704 0.0
C553 C 0.81591 0.57757 0.30645 0.0
C554 C 0.81075 0.59172 0.27302 0.0
C555 C 0.83291 0.55638 0.30641 0.0
C556 C 0.84492 0.5489 0.27297 0.0
C557 C 0.84279 0.56571 0.24012 0.0
C558 C 0.82584 0.58694 0.24012 0.0
C559 C 0.85534 0.52012 0.27173 0.0
C560 C 0.88459 0.52389 0.29349 0.0
C561 C 0.83539 0.48825 0.24998 0.0
C562 C 0.80244 0.48135 0.22872 0.0
C563 C 0.80104 0.47609 0.19009 0.0
C564 C 0.77033 0.4704 0.16994 0.0
C565 C 0.7408 0.46977 0.18817 0.0
C566 C 0.74176 0.47451 0.22664 0.0
C567 C 0.77233 0.48006 0.24692 0.0
H568 H 0.71715 0.46555 0.17249 0.0
H569 H 0.0022 0.51214 0.38487 0.0
H570 H 0.14074 0.51799 0.679 0.0
H571 H 0.16237 0.58287 0.68857 0.0
H572 H 0.12571 0.56116 0.80242 0.0
H573 H 0.10327 0.49601 0.79284 0.0
H574 H 0.11069 0.60968 0.77337 0.0
H575 H 0.21539 0.59495 0.77946 0.0
H576 H 0.25976 0.57658 0.75949 0.0
H577 H 0.2874 0.64658 0.6641 0.0
H578 H 0.24262 0.66483 0.68307 0.0
H579 H 0.23005 0.79562 0.83567 0.0
H580 H 0.19884 0.72916 0.82703 0.0
H581 H 0.21261 0.74422 0.70848 0.0
H582 H 0.24314 0.81043 0.71669 0.0
H583 H 0.23935 0.69944 0.74213 0.0
H584 H 0.13248 0.71301 0.73821 0.0
H585 H 0.09068 0.73302 0.76248 0.0
H586 H 0.07062 0.66638 0.85949 0.0
H587 H 0.1128 0.64642 0.83607 0.0
C588 C 0.13699 0.52694 0.706 0.0
C589 C 0.12047 0.50187 0.73522 0.0
C590 C 0.14956 0.56409 0.71149 0.0
C591 C 0.14629 0.57697 0.74642 0.0
C592 C 0.12866 0.55185 0.77529 0.0
C593 C 0.11586 0.51462 0.76976 0.0
C594 C 0.16181 0.61671 0.75292 0.0
C595 C 0.13895 0.62924 0.76695 0.0
C596 C 0.19866 0.64232 0.74429 0.0
C597 C 0.22524 0.63091 0.73247 0.0
C598 C 0.23059 0.60611 0.75398 0.0
C599 C 0.25589 0.59577 0.74288 0.0
C600 C 0.27627 0.6103 0.71045 0.0
C601 C 0.27148 0.63526 0.68914 0.0
C602 C 0.24613 0.64559 0.70004 0.0
C603 C 0.22592 0.78474 0.80775 0.0
C604 C 0.23915 0.80825 0.77688 0.0
C605 C 0.20809 0.74683 0.80287 0.0
C606 C 0.20361 0.73196 0.76713 0.0
C607 C 0.21591 0.75529 0.73626 0.0
C608 C 0.23319 0.79309 0.74104 0.0
C609 C 0.18809 0.6922 0.76196 0.0
C610 C 0.21108 0.67975 0.74841 0.0
C611 C 0.15164 0.66671 0.77155 0.0
C612 C 0.12612 0.67854 0.78557 0.0
C613 C 0.11944 0.70289 0.76489 0.0
C614 C 0.09561 0.71417 0.77845 0.0
C615 C 0.07808 0.70106 0.81255 0.0
C616 C 0.08426 0.67656 0.83311 0.0
C617 C 0.10811 0.66523 0.81969 0.0
H618 H 0.05964 0.70981 0.82301 0.0
H619 H 0.29584 0.6023 0.70185 0.0
H620 H 0.41374 0.91149 0.67767 0.0
H621 H 0.46535 0.90094 0.6833 0.0
H622 H 0.45723 0.90119 0.80274 0.0
H623 H 0.40587 0.91246 0.79737 0.0
H624 H 0.52756 0.93565 0.78152 0.0
H625 H 0.4208 0.8212 0.7559 0.0
H626 H 0.36508 0.77676 0.72278 0.0
H627 H 0.42809 0.79017 0.62442 0.0
H628 H 0.48416 0.83506 0.65683 0.0
H629 H 0.60064 0.81751 0.82303 0.0
H630 H 0.56954 0.85293 0.81686 0.0
H631 H 0.58905 0.86151 0.69875 0.0
H632 H 0.62026 0.8262 0.70457 0.0
H633 H 0.51601 0.82622 0.71779 0.0
H634 H 0.62525 0.93686 0.75025 0.0
H635 H 0.67895 0.97716 0.78836 0.0
H636 H 0.60895 0.96595 0.87993 0.0
H637 H 0.55483 0.92509 0.84261 0.0
C638 C 0.42305 0.90957 0.70517 0.0
C639 C 0.40545 0.91244 0.73708 0.0
C640 C 0.45254 0.90348 0.70833 0.0
C641 C 0.46477 0.8997 0.74343 0.0
C642 C 0.44819 0.90395 0.77538 0.0
C643 C 0.41876 0.91026 0.77225 0.0
C644 C 0.49362 0.88954 0.74665 0.0
C645 C 0.52498 0.91158 0.76784 0.0
C646 C 0.49038 0.85832 0.72847 0.0
C647 C 0.45661 0.83186 0.70865 0.0
C648 C 0.42272 0.81498 0.72708 0.0
C649 C 0.39109 0.78965 0.70847 0.0
C650 C 0.39302 0.78077 0.67147 0.0
C651 C 0.42662 0.79716 0.65304 0.0
C652 C 0.45833 0.82254 0.67152 0.0
C653 C 0.59936 0.82789 0.79588 0.0
C654 C 0.61221 0.81832 0.76417 0.0
C655 C 0.58166 0.84827 0.79244 0.0
C656 C 0.5767 0.85952 0.75729 0.0
C657 C 0.59246 0.85289 0.72609 0.0
C658 C 0.61029 0.83269 0.72951 0.0
C659 C 0.55021 0.8725 0.75232 0.0
C660 C 0.51897 0.85066 0.73101 0.0
C661 C 0.55334 0.90338 0.77104 0.0
C662 C 0.58595 0.92766 0.79367 0.0
C663 C 0.6213 0.94266 0.77863 0.0
C664 C 0.65183 0.96569 0.80008 0.0
C665 C 0.64736 0.97409 0.83654 0.0
C666 C 0.61236 0.95943 0.85167 0.0
C667 C 0.58175 0.93636 0.83037 0.0
H668 H 0.67097 0.99207 0.85306 0.0
H669 H 0.36852 0.76107 0.65714 0.0
H670 H 0.20415 0.41642 0.71423 0.0
H671 H 0.26977 0.45568 0.70279 0.0
H672 H 0.27911 0.5169 0.80205 0.0
H673 H 0.21399 0.47796 0.81379 0.0
H674 H 0.30967 0.56072 0.74075 0.0
H675 H 0.31208 0.46007 0.80139 0.0
H676 H 0.29466 0.39541 0.80995 0.0
H677 H 0.33646 0.39392 0.70163 0.0
H678 H 0.35368 0.45848 0.69222 0.0
H679 H 0.50109 0.66785 0.76434 0.0
H680 H 0.43545 0.62627 0.77035 0.0
H681 H 0.43857 0.56338 0.6774 0.0
H682 H 0.5044 0.60439 0.67173 0.0
H683 H 0.40059 0.51938 0.73123 0.0
H684 H 0.40135 0.62019 0.67076 0.0
H685 H 0.41621 0.68375 0.65935 0.0
H686 H 0.36633 0.68469 0.76294 0.0
H687 H 0.35176 0.62135 0.77536 0.0
C688 C 0.22031 0.43791 0.73389 0.0
C689 C 0.20384 0.44406 0.7649 0.0
C690 C 0.25776 0.46029 0.72731 0.0
C691 C 0.27922 0.48919 0.75158 0.0
C692 C 0.26298 0.49481 0.78295 0.0
C693 C 0.22575 0.47235 0.78969 0.0
C694 C 0.31832 0.51471 0.74368 0.0
C695 C 0.32972 0.55188 0.73902 0.0
C696 C 0.34404 0.50276 0.74027 0.0
C697 C 0.33379 0.46398 0.74594 0.0
C698 C 0.31725 0.44587 0.77926 0.0
C699 C 0.30748 0.40925 0.7843 0.0
C700 C 0.31434 0.39054 0.75631 0.0
C701 C 0.3311 0.40843 0.72326 0.0
C702 C 0.3409 0.44504 0.71807 0.0
C703 C 0.4878 0.6453 0.74502 0.0
C704 C 0.50802 0.63941 0.71758 0.0
C705 C 0.45019 0.62165 0.74836 0.0
C706 C 0.43194 0.59189 0.72406 0.0
C707 C 0.45203 0.58616 0.69645 0.0
C708 C 0.48967 0.60968 0.69321 0.0
C709 C 0.39227 0.5658 0.72861 0.0
C710 C 0.38066 0.52843 0.73264 0.0
C711 C 0.36624 0.57758 0.7311 0.0
C712 C 0.37589 0.6161 0.72422 0.0
C713 C 0.39397 0.63408 0.69136 0.0
C714 C 0.40226 0.67006 0.68466 0.0
C715 C 0.39235 0.68829 0.71047 0.0
C716 C 0.37412 0.67058 0.74304 0.0
C717 C 0.36587 0.63465 0.74993 0.0
H718 H 0.39874 0.71611 0.7052 0.0
H719 H 0.30676 0.36219 0.76026 0.0
H720 H 0.25495 0.11318 0.19952 0.0
H721 H 0.22026 0.1454 0.19267 0.0
H722 H 0.17018 0.10474 0.29957 0.0
H723 H 0.20433 0.07266 0.30657 0.0
H724 H 0.12016 0.08986 0.24673 0.0
H725 H 0.23101 0.19325 0.28888 0.0
H726 H 0.29693 0.23816 0.28825 0.0
H727 H 0.28664 0.27414 0.17966 0.0
H728 H 0.22071 0.22911 0.17942 0.0
H729 H 0.06549 0.23668 0.2684 0.0
H730 H 0.11292 0.21952 0.2719 0.0
H731 H 0.06605 0.149 0.17699 0.0
H732 H 0.0186 0.16591 0.17326 0.0
H733 H 0.16621 0.22169 0.2241 0.0
H734 H 0.06546 0.06714 0.19949 0.0
H735 H 1.00037 0.02158 0.20788 0.0
H736 H 0.99094 0.08843 0.29202 0.0
H737 H 0.05629 0.13373 0.2852 0.0
C738 C 0.23696 0.11161 0.22177 0.0
C739 C 0.23211 0.09006 0.25341 0.0
C740 C 0.21724 0.13009 0.21786 0.0
C741 C 0.19253 0.12732 0.24557 0.0
C742 C 0.18891 0.10706 0.27775 0.0
C743 C 0.2085 0.08872 0.28168 0.0
C744 C 0.16807 0.14279 0.24013 0.0
C745 C 0.13027 0.11868 0.24157 0.0
C746 C 0.18131 0.18045 0.23393 0.0
C747 C 0.22097 0.20749 0.23395 0.0
C748 C 0.24286 0.21048 0.2647 0.0
C749 C 0.28021 0.23603 0.26455 0.0
C750 C 0.29598 0.25889 0.23388 0.0
C751 C 0.27439 0.25636 0.20336 0.0
C752 C 0.23702 0.23085 0.20337 0.0
C753 C 0.06555 0.21789 0.24797 0.0
C754 C 0.03805 0.20241 0.22077 0.0
C755 C 0.09281 0.20829 0.24988 0.0
C756 C 0.09282 0.18277 0.2249 0.0
C757 C 0.06639 0.16856 0.1967 0.0
C758 C 0.03928 0.17828 0.19463 0.0
C759 C 0.11835 0.16858 0.2303 0.0
C760 C 0.15621 0.19285 0.22884 0.0
C761 C 0.10525 0.13104 0.23719 0.0
C762 C 0.06571 0.10418 0.24132 0.0
C763 C 0.04952 0.07213 0.2198 0.0
C764 C 0.01258 0.0463 0.22436 0.0
C765 C 0.99143 0.05229 0.25017 0.0
C766 C 0.00727 0.08399 0.27177 0.0
C767 C 0.0443 0.10972 0.26763 0.0
H768 H 0.96285 0.03224 0.25362 0.0
H769 H 0.3249 0.27862 0.23379 0.0
H770 H 0.90689 0.77362 0.30485 0.0
H771 H 0.97185 0.80517 0.29144 0.0
H772 H 0.95325 0.73041 0.20134 0.0
H773 H 0.88749 0.69953 0.21365 0.0
H774 H 0.02686 0.79614 0.28759 0.0
H775 H 0.00886 0.77719 0.12926 0.0
H776 H 0.96153 0.76215 0.08145 0.0
H777 H 0.91032 0.80685 0.15028 0.0
H778 H 0.95758 0.82252 0.19823 0.0
H779 H 0.20483 0.90914 0.22233 0.0
H780 H 0.14504 0.8537 0.22616 0.0
H781 H 0.0944 0.9129 0.18216 0.0
H782 H 0.15423 0.96776 0.17655 0.0
H783 H 0.05754 0.8466 0.15976 0.0
H784 H 0.10447 0.90379 0.27819 0.0
H785 H 0.14929 0.92825 0.32927 0.0
H786 H 0.13805 0.82235 0.34602 0.0
H787 H 0.09348 0.79739 0.29466 0.0
C788 C 0.91656 0.76331 0.28264 0.0
C789 C 0.89194 0.7346 0.25976 0.0
C790 C 0.95387 0.78138 0.27504 0.0
C791 C 0.96742 0.77081 0.24474 0.0
C792 C 0.94331 0.73968 0.22424 0.0
C793 C 0.90577 0.72192 0.23144 0.0
C794 C 0.00584 0.79488 0.23276 0.0
C795 C 0.03362 0.80674 0.25948 0.0
C796 C 0.01469 0.8094 0.19628 0.0
C797 C 0.98644 0.80053 0.16746 0.0
C798 C 0.98752 0.78385 0.13411 0.0
C799 C 0.96072 0.77523 0.10701 0.0
C800 C 0.93285 0.7834 0.11289 0.0
C801 C 0.93183 0.8004 0.14581 0.0
C802 C 0.95861 0.80914 0.17295 0.0
C803 C 0.18098 0.91005 0.21276 0.0
C804 C 0.18403 0.94284 0.1997 0.0
C805 C 0.14683 0.87841 0.21507 0.0
C806 C 0.11509 0.87936 0.20545 0.0
C807 C 0.11844 0.91147 0.18994 0.0
C808 C 0.15267 0.94289 0.18684 0.0
C809 C 0.07834 0.84845 0.21483 0.0
C810 C 0.05095 0.83526 0.18759 0.0
C811 C 0.06945 0.834 0.25133 0.0
C812 C 0.09603 0.84885 0.28233 0.0
C813 C 0.11175 0.88579 0.29263 0.0
C814 C 0.13707 0.89974 0.32163 0.0
C815 C 0.1466 0.87689 0.3408 0.0
C816 C 0.13071 0.84003 0.33108 0.0
C817 C 0.10542 0.82597 0.30204 0.0
H818 H 0.16621 0.88774 0.36324 0.0
H819 H 0.9121 0.77664 0.09191 0.0
H820 H 0.94039 0.10506 0.28574 0.0
H821 H 0.90954 0.04011 0.27061 0.0
H822 H 0.82245 0.04863 0.21791 0.0
H823 H 0.85382 0.11443 0.2321 0.0
H824 H 0.8076 0.98468 0.2769 0.0
H825 H 0.86168 0.04178 0.16116 0.0
H826 H 0.91111 0.08623 0.12096 0.0
H827 H 0.97728 0.03896 0.14966 0.0
H828 H 0.92868 0.99491 0.19117 0.0
H829 H 0.73703 0.80289 0.21056 0.0
H830 H 0.75469 0.86755 0.21143 0.0
H831 H 0.86703 0.89676 0.22928 0.0
H832 H 0.84973 0.83223 0.22796 0.0
H833 H 0.86181 0.94241 0.18008 0.0
H834 H 0.81321 0.89242 0.30122 0.0
H835 H 0.76657 0.8497 0.34511 0.0
H836 H 0.69179 0.88389 0.30733 0.0
H837 H 0.73788 0.92648 0.26283 0.0
C838 C 0.91454 0.09317 0.27119 0.0
C839 C 0.89949 0.11479 0.26006 0.0
C840 C 0.89711 0.05613 0.26242 0.0
C841 C 0.86407 0.03992 0.24288 0.0
C842 C 0.84811 0.06094 0.23286 0.0
C843 C 0.866 0.09836 0.24095 0.0
C844 C 0.84702 0.00098 0.23277 0.0
C845 C 0.81869 0.97528 0.25511 0.0
C846 C 0.86238 0.98913 0.20494 0.0
C847 C 0.89172 0.01545 0.1799 0.0
C848 C 0.88701 0.04125 0.1595 0.0
C849 C 0.91487 0.06634 0.1364 0.0
C850 C 0.94745 0.06561 0.13304 0.0
C851 C 0.95214 0.03965 0.1526 0.0
C852 C 0.92444 0.01464 0.17594 0.0
C853 C 0.76555 0.82307 0.21442 0.0
C854 C 0.79195 0.81241 0.2195 0.0
C855 C 0.77555 0.86 0.21497 0.0
C856 C 0.81209 0.8869 0.22084 0.0
C857 C 0.83867 0.87642 0.22471 0.0
C858 C 0.82871 0.83951 0.22412 0.0
C859 C 0.82258 0.92589 0.22457 0.0
C860 C 0.84997 0.95165 0.20125 0.0
C861 C 0.8065 0.93784 0.25165 0.0
C862 C 0.7788 0.91227 0.27838 0.0
C863 C 0.78671 0.89059 0.30205 0.0
C864 C 0.7604 0.86645 0.32708 0.0
C865 C 0.7262 0.864 0.32892 0.0
C866 C 0.71827 0.88576 0.30581 0.0
C867 C 0.74447 0.90991 0.28069 0.0
H868 H 0.70587 0.84531 0.34833 0.0
H869 H 0.96897 0.08502 0.1151 0.0
H870 H 0.14344 0.25228 0.76156 0.0
H871 H 0.17155 0.2136 0.76019 0.0
H872 H 0.0655 0.11797 0.77582 0.0
H873 H 0.03781 0.15658 0.77918 0.0
H874 H 0.10997 0.10819 0.81329 0.0
H875 H 0.1108 0.14684 0.68781 0.0
H876 H 0.12474 0.19092 0.6368 0.0
H877 H 0.23955 0.23726 0.65751 0.0
H878 H 0.22625 0.1937 0.70896 0.0
H879 H 0.17745 0.00496 0.68643 0.0
H880 H 0.15887 0.05064 0.69492 0.0
H881 H 0.19874 0.06812 0.80767 0.0
H882 H 0.21613 0.02117 0.79976 0.0
H883 H 0.19059 0.11921 0.70796 0.0
H884 H 0.14824 0.08846 0.86225 0.0
H885 H 0.12485 0.03639 0.90586 0.0
H886 H 0.07645 0.96137 0.81507 0.0
H887 H 0.0991 0.01307 0.77113 0.0
C888 C 0.12626 0.22302 0.76497 0.0
C889 C 0.08844 0.20745 0.77044 0.0
C890 C 0.14229 0.20088 0.76398 0.0
C891 C 0.12063 0.16267 0.76731 0.0
C892 C 0.08293 0.1473 0.77334 0.0
C893 C 0.06707 0.16944 0.77515 0.0
C894 C 0.13674 0.1384 0.76368 0.0
C895 C 0.12776 0.11083 0.79032 0.0
C896 C 0.15943 0.14111 0.73339 0.0
C897 C 0.16752 0.16731 0.70248 0.0
C898 C 0.13901 0.16661 0.68164 0.0
C899 C 0.14679 0.19147 0.65263 0.0
C900 C 0.183 0.21695 0.64399 0.0
C901 C 0.21151 0.21756 0.66428 0.0
C902 C 0.20387 0.19278 0.69336 0.0
C903 C 0.18228 0.01847 0.71309 0.0
C904 C 0.19782 0.00904 0.74258 0.0
C905 C 0.17183 0.04482 0.71783 0.0
C906 C 0.17691 0.06258 0.75208 0.0
C907 C 0.19379 0.05427 0.78119 0.0
C908 C 0.20392 0.02756 0.77658 0.0
C909 C 0.16351 0.08891 0.75733 0.0
C910 C 0.17313 0.11692 0.73112 0.0
C911 C 0.14006 0.08558 0.78703 0.0
C912 C 0.1258 0.05452 0.81343 0.0
C913 C 0.13252 0.06084 0.85168 0.0
C914 C 0.11939 0.03142 0.87643 0.0
C915 C 0.09932 0.99559 0.86323 0.0
C916 C 0.09215 0.98911 0.82526 0.0
C917 C 0.10516 0.01844 0.80044 0.0
H918 H 0.08924 0.97286 0.88243 0.0
H919 H 0.18898 0.23617 0.62152 0.0
H920 H 0.11949 0.85971 0.70043 0.0
H921 H 0.05531 0.8397 0.6879 0.0
H922 H 0.03367 0.83257 0.80558 0.0
H923 H 0.09765 0.85227 0.8184 0.0
H924 H 0.97652 0.77755 0.76657 0.0
H925 H 0.05389 0.90812 0.76028 0.0
H926 H 0.10586 0.96565 0.73764 0.0
H927 H 0.06248 0.94122 0.62692 0.0
H928 H 0.01079 0.88284 0.64869 0.0
H929 H 0.82234 0.8016 0.7748 0.0
H930 H 0.88269 0.80783 0.78166 0.0
H931 H 0.89861 0.82055 0.66305 0.0
H932 H 0.8384 0.81495 0.65596 0.0
H933 H 0.95807 0.86972 0.69914 0.0
H934 H 0.87862 0.74005 0.70645 0.0
H935 H 0.82657 0.68285 0.72988 0.0
H936 H 0.87294 0.70643 0.83939 0.0
H937 H 0.92505 0.76405 0.81673 0.0
C938 C 0.10092 0.85306 0.72366 0.0
C939 C 0.11377 0.85805 0.76044 0.0
C940 C 0.06429 0.84178 0.71643 0.0
C941 C 0.03994 0.83532 0.74583 0.0
C942 C 0.05207 0.83758 0.7825 0.0
C943 C 0.08869 0.84896 0.78976 0.0
C944 C 0.00287 0.82955 0.73859 0.0
C945 C 0.97243 0.79774 0.75201 0.0
C946 C 0.9976 0.85574 0.71913 0.0
C947 C 0.02868 0.89088 0.70604 0.0
C948 C 0.05562 0.9148 0.73103 0.0
C949 C 0.08501 0.94762 0.71836 0.0
C950 C 0.08743 0.95715 0.68087 0.0
C951 C 0.06056 0.93379 0.65595 0.0
C952 C 0.03127 0.90078 0.66842 0.0
C953 C 0.83864 0.80572 0.75012 0.0
C954 C 0.8255 0.80769 0.71479 0.0
C955 C 0.87307 0.80905 0.75409 0.0
C956 C 0.89493 0.81404 0.72281 0.0
C957 C 0.88212 0.81653 0.68756 0.0
C958 C 0.8477 0.81332 0.68356 0.0
C959 C 0.93155 0.81764 0.72705 0.0
C960 C 0.96201 0.84922 0.71326 0.0
C961 C 0.93679 0.79129 0.74627 0.0
C962 C 0.9056 0.75652 0.75993 0.0
C963 C 0.8776 0.73317 0.73558 0.0
C964 C 0.8481 0.70065 0.74872 0.0
C965 C 0.84641 0.69105 0.78611 0.0
C966 C 0.87427 0.71391 0.81044 0.0
C967 C 0.90382 0.74648 0.79745 0.0
H968 H 0.82354 0.66586 0.79623 0.0
H969 H 0.11004 0.98265 0.67108 0.0
H970 H 0.98589 0.15469 0.68327 0.0
H971 H 0.9288 0.09685 0.68683 0.0
H972 H 0.87547 0.15172 0.73482 0.0
H973 H 0.93304 0.20995 0.73185 0.0
H974 H 0.86076 0.09545 0.7747 0.0
H975 H 0.84619 0.10873 0.64683 0.0
H976 H 0.86152 0.1218 0.5804 0.0
H977 H 0.89096 0.03808 0.5758 0.0
H978 H 0.87541 0.02423 0.64212 0.0
H979 H 0.71816 0.89157 0.71274 0.0
H980 H 0.74881 0.95764 0.70154 0.0
H981 H 0.82483 0.97491 0.78989 0.0
H982 H 0.79375 0.90968 0.80203 0.0
H983 H 0.81316 0.99973 0.67726 0.0
H984 H 0.86183 0.05732 0.82769 0.0
H985 H 0.83726 0.04372 0.89141 0.0
H986 H 0.7279 0.9886 0.84857 0.0
H987 H 0.75168 0.00276 0.78459 0.0
C988 C 0.9619 0.15468 0.69393 0.0
C989 C 0.96405 0.18699 0.70725 0.0
C990 C 0.92908 0.12149 0.69574 0.0
C991 C 0.89755 0.11982 0.71072 0.0
C992 C 0.89934 0.15227 0.72303 0.0
C993 C 0.93227 0.18554 0.72131 0.0
C994 C 0.8643 0.08365 0.71714 0.0
C995 C 0.85004 0.07461 0.7533 0.0
C996 C 0.84926 0.05671 0.68903 0.0
C997 C 0.85979 0.06557 0.64947 0.0
C998 C 0.85608 0.09321 0.63168 0.0
C999 C 0.86454 0.10057 0.59399 0.0
C1000 C 0.87718 0.08076 0.57389 0.0
C1001 C 0.88114 0.05338 0.59139 0.0
C1002 C 0.8723 0.04562 0.62898 0.0
C1003 C 0.7409 0.9096 0.73029 0.0
C1004 C 0.75357 0.89531 0.75819 0.0
C1005 C 0.7585 0.94735 0.72378 0.0
C1006 C 0.78908 0.97147 0.74498 0.0
C1007 C 0.80086 0.95719 0.77363 0.0
C1008 C 0.7831 0.91966 0.78042 0.0
C1009 C 0.81098 0.01101 0.73531 0.0
C1010 C 0.8232 0.02068 0.69855 0.0
C1011 C 0.82321 0.03877 0.76268 0.0
C1012 C 0.80862 0.03097 0.80122 0.0
C1013 C 0.83252 0.04264 0.83181 0.0
C1014 C 0.81872 0.03482 0.86801 0.0
C1015 C 0.78103 0.01533 0.87403 0.0
C1016 C 0.75706 0.00376 0.84386 0.0
C1017 C 0.7707 0.01168 0.80762 0.0
H1018 H 0.7704 0.00919 0.90207 0.0
H1019 H 0.88399 0.08671 0.54478 0.0
loop_
_geom_bond_atom_site_label_1
_geom_bond_atom_site_label_2
_geom_bond_distance
_geom_bond_site_symmetry_2
_ccdc_geom_bond_type
Zn0 O6 1.969 . S
Zn0 O7 1.965 . S
Zn0 O11 2.024 . S
Zn0 O16 1.969 . S
Zn1 O8 1.969 . S
Zn1 O14 1.969 . S
Zn1 O15 1.965 . S
Zn1 O17 2.024 . S
C2 O3 1.229 . S
C2 O11 1.058 . S
O3 C2 1.229 . S
C4 O5 1.229 . S
C4 O17 1.058 . S
O5 C4 1.229 . S
O6 Zn0 1.969 . S
O6 C9 1.267 1_545 S
O7 Zn0 1.965 . S
O7 C18 1.260 . S
O8 Zn1 1.969 . S
O8 C18 1.258 . S
C9 O6 1.267 1_565 S
C9 O10 1.228 1_565 S
O10 C9 1.228 1_545 S
O11 Zn0 2.024 . S
O11 C2 1.058 . S
C12 O13 1.228 . S
C12 O14 1.267 . S
O13 C12 1.228 . S
O14 Zn1 1.969 . S
O14 C12 1.267 . S
O15 Zn1 1.965 . S
O15 C19 1.260 . S
O16 Zn0 1.969 . S
O16 C19 1.258 . S
O17 Zn1 2.024 . S
O17 C4 1.058 . S
C18 O7 1.260 . S
C18 O8 1.258 . S
C19 O15 1.260 . S
C19 O16 1.258 . S
Zn20 O26 1.969 . S
Zn20 O27 1.965 . S
Zn20 O31 2.024 . S
Zn20 O36 1.969 . S
Zn21 O28 1.969 . S
Zn21 O34 1.969 . S
Zn21 O35 1.965 . S
Zn21 O37 2.024 . S
C22 O23 1.229 . S
C22 O31 1.058 . S
O23 C22 1.229 . S
C24 O25 1.229 . S
C24 O37 1.058 . S
O25 C24 1.229 . S
O26 Zn20 1.969 . S
O26 C29 1.267 . S
O27 Zn20 1.965 . S
O27 C38 1.260 . S
O28 Zn21 1.969 . S
O28 C38 1.258 . S
C29 O26 1.267 . S
C29 O30 1.228 . S
O30 C29 1.228 . S
O31 Zn20 2.024 . S
O31 C22 1.058 . S
C32 O33 1.228 . S
C32 O34 1.267 . S
O33 C32 1.228 . S
O34 Zn21 1.969 . S
O34 C32 1.267 . S
O35 Zn21 1.965 . S
O35 C39 1.260 . S
O36 Zn20 1.969 . S
O36 C39 1.258 . S
O37 Zn21 2.024 . S
O37 C24 1.058 . S
C38 O27 1.260 . S
C38 O28 1.258 . S
C39 O35 1.260 . S
C39 O36 1.258 . S
Zn40 O46 1.969 . S
Zn40 O47 1.965 . S
Zn40 O51 2.024 . S
Zn40 O56 1.969 . S
Zn41 O48 1.969 . S
Zn41 O54 1.969 . S
Zn41 O55 1.965 . S
Zn41 O57 2.024 . S
C42 O43 1.229 . S
C42 O51 1.058 . S
O43 C42 1.229 . S
C44 O45 1.229 . S
C44 O57 1.058 . S
O45 C44 1.229 . S
O46 Zn40 1.969 . S
O46 C49 1.267 1_655 S
O47 Zn40 1.965 . S
O47 C58 1.260 . S
O48 Zn41 1.969 . S
O48 C58 1.258 . S
C49 O46 1.267 1_455 S
C49 O50 1.228 1_455 S
O50 C49 1.228 1_655 S
O51 Zn40 2.024 . S
O51 C42 1.058 . S
C52 O53 1.228 . S
C52 O54 1.267 . S
O53 C52 1.228 . S
O54 Zn41 1.969 . S
O54 C52 1.267 . S
O55 Zn41 1.965 . S
O55 C59 1.260 . S
O56 Zn40 1.969 . S
O56 C59 1.258 . S
O57 Zn41 2.024 . S
O57 C44 1.058 . S
C58 O47 1.260 . S
C58 O48 1.258 . S
C59 O55 1.260 . S
C59 O56 1.258 . S
Zn60 O66 1.969 . S
Zn60 O67 1.965 . S
Zn60 O71 2.024 . S
Zn60 O76 1.969 . S
Zn61 O68 1.969 . S
Zn61 O74 1.969 . S
Zn61 O75 1.965 . S
Zn61 O77 2.024 . S
C62 O63 1.229 . S
C62 O71 1.058 . S
O63 C62 1.229 . S
C64 O65 1.229 . S
C64 O77 1.058 . S
O65 C64 1.229 . S
O66 Zn60 1.969 . S
O66 C69 1.267 . S
O67 Zn60 1.965 . S
O67 C78 1.260 . S
O68 Zn61 1.969 . S
O68 C78 1.258 . S
C69 O66 1.267 . S
C69 O70 1.228 . S
O70 C69 1.228 . S
O71 Zn60 2.024 . S
O71 C62 1.058 . S
C72 O73 1.228 . S
C72 O74 1.267 . S
O73 C72 1.228 . S
O74 Zn61 1.969 . S
O74 C72 1.267 . S
O75 Zn61 1.965 . S
O75 C79 1.260 . S
O76 Zn60 1.969 . S
O76 C79 1.258 . S
O77 Zn61 2.024 . S
O77 C64 1.058 . S
C78 O67 1.260 . S
C78 O68 1.258 . S
C79 O75 1.260 . S
C79 O76 1.258 . S
Zn80 O86 1.969 . S
Zn80 O87 1.965 . S
Zn80 O91 2.024 . S
Zn80 O96 1.969 . S
Zn81 O88 1.969 . S
Zn81 O94 1.969 . S
Zn81 O95 1.965 . S
Zn81 O97 2.024 . S
C82 O83 1.229 . S
C82 O91 1.058 . S
O83 C82 1.229 . S
C84 O85 1.229 . S
C84 O97 1.058 . S
O85 C84 1.229 . S
O86 Zn80 1.969 . S
O86 C89 1.267 . S
O87 Zn80 1.965 . S
O87 C98 1.260 . S
O88 Zn81 1.969 . S
O88 C98 1.258 . S
C89 O86 1.267 . S
C89 O90 1.228 . S
O90 C89 1.228 . S
O91 Zn80 2.024 . S
O91 C82 1.058 . S
C92 O93 1.228 . S
C92 O94 1.267 . S
O93 C92 1.228 . S
O94 Zn81 1.969 . S
O94 C92 1.267 . S
O95 Zn81 1.965 . S
O95 C99 1.260 . S
O96 Zn80 1.969 . S
O96 C99 1.258 . S
O97 Zn81 2.024 . S
O97 C84 1.058 . S
C98 O87 1.260 . S
C98 O88 1.258 . S
C99 O95 1.260 . S
C99 O96 1.258 . S
Zn100 O106 1.969 . S
Zn100 O107 1.965 . S
Zn100 O111 2.024 . S
Zn100 O116 1.969 . S
Zn101 O108 1.969 . S
Zn101 O114 1.969 . S
Zn101 O115 1.965 . S
Zn101 O117 2.024 . S
C102 O103 1.229 . S
C102 O111 1.058 . S
O103 C102 1.229 . S
C104 O105 1.229 . S
C104 O117 1.058 . S
O105 C104 1.229 . S
O106 Zn100 1.969 . S
O106 C109 1.267 . S
O107 Zn100 1.965 . S
O107 C118 1.260 . S
O108 Zn101 1.969 . S
O108 C118 1.258 . S
C109 O106 1.267 . S
C109 O110 1.228 . S
O110 C109 1.228 . S
O111 Zn100 2.024 . S
O111 C102 1.058 . S
C112 O113 1.228 . S
C112 O114 1.267 . S
O113 C112 1.228 . S
O114 Zn101 1.969 . S
O114 C112 1.267 . S
O115 Zn101 1.965 . S
O115 C119 1.260 . S
O116 Zn100 1.969 . S
O116 C119 1.258 . S
O117 Zn101 2.024 . S
O117 C104 1.058 . S
C118 O107 1.260 . S
C118 O108 1.258 . S
C119 O115 1.260 . S
C119 O116 1.258 . S
H120 C138 0.951 . S
H121 C140 0.958 . S
H122 C142 0.950 . S
H123 C143 0.950 . S
H124 C145 0.950 . S
H125 C148 0.950 . S
H126 C149 0.950 . S
H127 C151 0.950 . S
H128 C152 0.950 . S
H129 C153 0.951 . S
H130 C155 0.951 1_565 S
H131 C157 0.950 . S
H132 C158 0.950 . S
H133 C160 0.950 . S
H134 C163 0.950 . S
H135 C164 0.950 . S
H136 C166 0.950 . S
H137 C167 0.950 . S
C138 H120 0.951 . S
C138 C139 1.366 . S
C138 C140 1.388 . S
C139 C138 1.366 . S
C139 C143 1.385 . S
C140 H121 0.958 . S
C140 C138 1.388 . S
C140 C141 1.366 . S
C141 C140 1.366 . S
C141 C142 1.414 . S
C141 C144 1.499 . S
C142 H122 0.950 . S
C142 C141 1.414 . S
C142 C143 1.374 . S
C143 H123 0.950 . S
C143 C139 1.385 . S
C143 C142 1.374 . S
C144 C141 1.499 . S
C144 C145 1.373 . S
C144 C146 1.389 1_565 S
C145 H124 0.950 . S
C145 C144 1.373 . S
C145 C161 1.377 1_556 S
C146 C144 1.389 1_545 S
C146 C147 1.524 . S
C146 C160 1.377 1_556 S
C147 C146 1.524 . S
C147 C148 1.397 1_545 S
C147 C152 1.363 . S
C148 H125 0.950 . S
C148 C147 1.397 1_565 S
C148 C149 1.334 . S
C149 H126 0.950 . S
C149 C148 1.334 . S
C149 C150 1.287 1_565 S
C150 C149 1.287 1_545 S
C150 C151 1.524 . S
C150 H169 0.913 . S
C151 H127 0.950 . S
C151 C150 1.524 . S
C151 C152 1.415 . S
C152 H128 0.950 . S
C152 C147 1.363 . S
C152 C151 1.415 . S
C153 H129 0.951 . S
C153 C154 1.366 . S
C153 C155 1.388 . S
C154 C153 1.366 . S
C154 C158 1.385 . S
C155 H130 0.951 1_545 S
C155 C153 1.388 . S
C155 C156 1.366 . S
C156 C155 1.366 . S
C156 C157 1.414 . S
C156 C159 1.499 . S
C157 H131 0.950 . S
C157 C156 1.414 . S
C157 C158 1.374 . S
C158 H132 0.950 . S
C158 C154 1.385 . S
C158 C157 1.374 . S
C159 C156 1.499 . S
C159 C160 1.373 . S
C159 C161 1.389 1_545 S
C160 H133 0.950 . S
C160 C146 1.377 1_554 S
C160 C159 1.373 . S
C161 C145 1.377 1_554 S
C161 C159 1.389 1_565 S
C161 C162 1.524 . S
C162 C161 1.524 . S
C162 C163 1.397 1_565 S
C162 C167 1.363 . S
C163 H134 0.950 . S
C163 C162 1.397 1_545 S
C163 C164 1.334 . S
C164 H135 0.950 . S
C164 C163 1.334 . S
C164 C165 1.287 1_545 S
C165 C164 1.287 1_565 S
C165 C166 1.524 . S
C165 H168 0.999 . S
C166 H136 0.950 . S
C166 C165 1.524 . S
C166 C167 1.415 . S
C167 H137 0.950 . S
C167 C162 1.363 . S
C167 C166 1.415 . S
H168 C165 0.999 . S
H169 C150 0.913 . S
H170 C188 0.951 . S
H171 C190 0.951 . S
H172 C192 0.950 . S
H173 C193 0.950 . S
H174 C195 0.950 . S
H175 C198 0.950 . S
H176 C199 0.950 . S
H177 C201 0.950 . S
H178 C202 0.950 . S
H179 C203 0.951 . S
H180 C205 0.951 . S
H181 C207 0.950 . S
H182 C208 0.950 . S
H183 C210 0.950 . S
H184 C213 0.950 . S
H185 C214 0.950 . S
H186 C216 0.950 . S
H187 C217 0.950 . S
C188 H170 0.951 . S
C188 C189 1.366 . S
C188 C190 1.388 . S
C189 C188 1.366 . S
C189 C193 1.385 . S
C190 H171 0.951 . S
C190 C188 1.388 . S
C190 C191 1.366 . S
C191 C190 1.366 . S
C191 C192 1.414 . S
C191 C194 1.499 . S
C192 H172 0.950 . S
C192 C191 1.414 . S
C192 C193 1.374 . S
C193 H173 0.950 . S
C193 C189 1.385 . S
C193 C192 1.374 . S
C194 C191 1.499 . S
C194 C195 1.373 . S
C194 C196 1.389 . S
C195 H174 0.950 . S
C195 C194 1.373 . S
C195 C211 1.377 . S
C196 C194 1.389 . S
C196 C197 1.524 . S
C196 C210 1.377 . S
C197 C196 1.524 . S
C197 C198 1.397 . S
C197 C202 1.363 . S
C198 H175 0.950 . S
C198 C197 1.397 . S
C198 C199 1.334 . S
C199 H176 0.950 . S
C199 C198 1.334 . S
C199 C200 1.287 . S
C200 C199 1.287 . S
C200 C201 1.524 . S
C200 H219 0.913 . S
C201 H177 0.950 . S
C201 C200 1.524 . S
C201 C202 1.415 . S
C202 H178 0.950 . S
C202 C197 1.363 . S
C202 C201 1.415 . S
C203 H179 0.951 . S
C203 C204 1.366 . S
C203 C205 1.388 . S
C204 C203 1.366 . S
C204 C208 1.385 . S
C205 H180 0.951 . S
C205 C203 1.388 . S
C205 C206 1.366 . S
C206 C205 1.366 . S
C206 C207 1.414 . S
C206 C209 1.499 . S
C207 H181 0.950 . S
C207 C206 1.414 . S
C207 C208 1.374 . S
C208 H182 0.950 . S
C208 C204 1.385 . S
C208 C207 1.374 . S
C209 C206 1.499 . S
C209 C210 1.373 . S
C209 C211 1.389 . S
C210 H183 0.950 . S
C210 C196 1.377 . S
C210 C209 1.373 . S
C211 C195 1.377 . S
C211 C209 1.389 . S
C211 C212 1.524 . S
C212 C211 1.524 . S
C212 C213 1.397 . S
C212 C217 1.363 . S
C213 H184 0.950 . S
C213 C212 1.397 . S
C213 C214 1.334 . S
C214 H185 0.950 . S
C214 C213 1.334 . S
C214 C215 1.287 . S
C215 C214 1.287 . S
C215 C216 1.524 . S
C215 H218 0.999 . S
C216 H186 0.950 . S
C216 C215 1.524 . S
C216 C217 1.415 . S
C217 H187 0.950 . S
C217 C212 1.363 . S
C217 C216 1.415 . S
H218 C215 0.999 . S
H219 C200 0.913 . S
H220 C238 0.951 . S
H221 C240 0.951 1_455 S
H222 C242 0.950 . S
H223 C243 0.950 . S
H224 C245 0.950 . S
H225 C248 0.930 1_655 S
H226 C249 0.950 . S
H227 C251 0.950 . S
H228 C252 0.950 . S
H229 C253 0.951 . S
H230 C255 0.951 . S
H231 C257 0.950 . S
H232 C258 0.950 . S
H233 C260 0.950 . S
H234 C263 0.950 1_455 S
H235 C264 0.950 . S
H236 C266 0.950 . S
H237 C267 0.950 . S
C238 H220 0.951 . S
C238 C239 1.366 . S
C238 C240 1.388 . S
C239 C238 1.366 . S
C239 C243 1.385 . S
C240 H221 0.951 1_655 S
C240 C238 1.388 . S
C240 C241 1.366 . S
C241 C240 1.366 . S
C241 C242 1.414 . S
C241 C244 1.499 . S
C242 H222 0.950 . S
C242 C241 1.414 . S
C242 C243 1.374 . S
C243 H223 0.950 . S
C243 C239 1.385 . S
C243 C242 1.374 . S
C244 C241 1.499 . S
C244 C245 1.373 . S
C244 C246 1.389 1_655 S
C245 H224 0.950 . S
C245 C244 1.373 . S
C245 C261 1.377 1_554 S
C246 C244 1.389 1_455 S
C246 C247 1.524 . S
C246 C260 1.377 1_554 S
C247 C246 1.524 . S
C247 C248 1.397 . S
C247 C252 1.363 . S
C248 H225 0.930 1_455 S
C248 C247 1.397 . S
C248 C249 1.334 . S
C249 H226 0.950 . S
C249 C248 1.334 . S
C249 C250 1.287 . S
C250 C249 1.287 . S
C250 C251 1.524 . S
C250 H269 0.913 . S
C251 H227 0.950 . S
C251 C250 1.524 . S
C251 C252 1.415 . S
C252 H228 0.950 . S
C252 C247 1.363 . S
C252 C251 1.415 . S
C253 H229 0.951 . S
C253 C254 1.366 . S
C253 C255 1.388 . S
C254 C253 1.366 . S
C254 C258 1.385 . S
C255 H230 0.951 . S
C255 C253 1.388 . S
C255 C256 1.366 . S
C256 C255 1.366 . S
C256 C257 1.414 . S
C256 C259 1.499 . S
C257 H231 0.950 . S
C257 C256 1.414 . S
C257 C258 1.374 . S
C258 H232 0.950 . S
C258 C254 1.385 . S
C258 C257 1.374 . S
C259 C256 1.499 . S
C259 C260 1.373 . S
C259 C261 1.389 1_455 S
C260 H233 0.950 . S
C260 C246 1.377 1_556 S
C260 C259 1.373 . S
C261 C245 1.377 1_556 S
C261 C259 1.389 1_655 S
C261 C262 1.524 . S
C262 C261 1.524 . S
C262 C263 1.397 . S
C262 C267 1.363 . S
C263 H234 0.950 1_655 S
C263 C262 1.397 . S
C263 C264 1.334 . S
C264 H235 0.950 . S
C264 C263 1.334 . S
C264 C265 1.287 . S
C265 C264 1.287 . S
C265 C266 1.524 . S
C265 H268 0.999 . S
C266 H236 0.950 . S
C266 C265 1.524 . S
C266 C267 1.415 . S
C267 H237 0.950 . S
C267 C262 1.363 . S
C267 C266 1.415 . S
H268 C265 0.999 . S
H269 C250 0.913 . S
H270 C288 0.951 . S
H271 C290 0.951 . S
H272 C292 0.950 . S
H273 C293 0.950 . S
H274 C295 0.950 . S
H275 C298 0.950 . S
H276 C299 0.950 . S
H277 C301 0.950 . S
H278 C302 0.950 1_565 S
H279 C303 0.951 . S
H280 C305 0.951 . S
H281 C307 0.950 . S
H282 C308 0.950 . S
H283 C310 0.940 . S
H284 C313 0.950 . S
H285 C314 0.950 . S
H286 C316 0.950 . S
H287 C317 0.950 1_545 S
C288 H270 0.951 . S
C288 C289 1.366 . S
C288 C290 1.388 . S
C289 C288 1.366 . S
C289 C293 1.385 . S
C290 H271 0.951 . S
C290 C288 1.388 . S
C290 C291 1.366 . S
C291 C290 1.366 . S
C291 C292 1.414 . S
C291 C294 1.499 . S
C292 H272 0.950 . S
C292 C291 1.414 . S
C292 C293 1.374 . S
C293 H273 0.950 . S
C293 C289 1.385 . S
C293 C292 1.374 . S
C294 C291 1.499 . S
C294 C295 1.373 . S
C294 C296 1.389 . S
C295 H274 0.950 . S
C295 C294 1.373 . S
C295 C311 1.377 1_545 S
C296 C294 1.389 . S
C296 C297 1.524 . S
C296 C310 1.359 1_545 S
C297 C296 1.524 . S
C297 C298 1.397 . S
C297 C302 1.363 . S
C298 H275 0.950 . S
C298 C297 1.397 . S
C298 C299 1.334 . S
C299 H276 0.950 . S
C299 C298 1.334 . S
C299 C300 1.287 . S
C300 C299 1.287 . S
C300 C301 1.524 . S
C300 H319 0.913 . S
C301 H277 0.950 . S
C301 C300 1.524 . S
C301 C302 1.415 . S
C302 H278 0.950 1_545 S
C302 C297 1.363 . S
C302 C301 1.415 . S
C303 H279 0.951 . S
C303 C304 1.366 . S
C303 C305 1.388 . S
C304 C303 1.366 . S
C304 C308 1.385 . S
C305 H280 0.951 . S
C305 C303 1.388 . S
C305 C306 1.366 . S
C306 C305 1.366 . S
C306 C307 1.414 . S
C306 C309 1.499 . S
C307 H281 0.950 . S
C307 C306 1.414 . S
C307 C308 1.374 . S
C308 H282 0.950 . S
C308 C304 1.385 . S
C308 C307 1.374 . S
C309 C306 1.499 . S
C309 C310 1.402 . S
C309 C311 1.389 . S
C310 H283 0.940 . S
C310 C296 1.359 1_565 S
C310 C309 1.402 . S
C311 C295 1.377 1_565 S
C311 C309 1.389 . S
C311 C312 1.524 . S
C312 C311 1.524 . S
C312 C313 1.397 . S
C312 C317 1.363 . S
C313 H284 0.950 . S
C313 C312 1.397 . S
C313 C314 1.334 . S
C314 H285 0.950 . S
C314 C313 1.334 . S
C314 C315 1.287 . S
C315 C314 1.287 . S
C315 C316 1.524 . S
C315 H318 0.999 . S
C316 H286 0.950 . S
C316 C315 1.524 . S
C316 C317 1.415 . S
C317 H287 0.950 1_565 S
C317 C312 1.363 . S
C317 C316 1.415 . S
H318 C315 0.999 . S
H319 C300 0.913 . S
H320 C338 0.951 . S
H321 C340 0.951 . S
H322 C342 0.950 . S
H323 C343 0.950 . S
H324 C345 0.950 . S
H325 C348 0.950 . S
H326 C349 0.950 . S
H327 C351 0.950 . S
H328 C352 0.950 . S
H329 C353 0.951 . S
H330 C355 0.951 . S
H331 C357 0.950 . S
H332 C358 0.950 . S
H333 C360 0.950 . S
H334 C363 0.950 . S
H335 C364 0.950 . S
H336 C366 0.950 . S
H337 C367 0.950 . S
C338 H320 0.951 . S
C338 C339 1.366 . S
C338 C340 1.388 . S
C339 C338 1.366 . S
C339 C343 1.385 . S
C340 H321 0.951 . S
C340 C338 1.388 . S
C340 C341 1.366 . S
C341 C340 1.366 . S
C341 C342 1.414 . S
C341 C344 1.499 . S
C342 H322 0.950 . S
C342 C341 1.414 . S
C342 C343 1.374 . S
C343 H323 0.950 . S
C343 C339 1.385 . S
C343 C342 1.374 . S
C344 C341 1.499 . S
C344 C345 1.373 . S
C344 C346 1.400 . S
C345 H324 0.950 . S
C345 C344 1.373 . S
C345 C361 1.366 1_556 S
C346 C344 1.400 . S
C346 C347 1.524 1_556 S
C346 C360 1.366 1_556 S
C347 C346 1.524 1_554 S
C347 C348 1.397 1_554 S
C347 C352 1.363 . S
C348 H325 0.950 . S
C348 C347 1.397 1_556 S
C348 C349 1.334 . S
C349 H326 0.950 . S
C349 C348 1.334 . S
C349 C350 1.287 1_556 S
C350 C349 1.287 1_554 S
C350 C351 1.524 . S
C350 H369 0.913 . S
C351 H327 0.950 . S
C351 C350 1.524 . S
C351 C352 1.415 . S
C352 H328 0.950 . S
C352 C347 1.363 . S
C352 C351 1.415 . S
C353 H329 0.951 . S
C353 C354 1.366 . S
C353 C355 1.388 . S
C354 C353 1.366 . S
C354 C358 1.385 . S
C355 H330 0.951 . S
C355 C353 1.388 . S
C355 C356 1.366 . S
C356 C355 1.366 . S
C356 C357 1.414 . S
C356 C359 1.499 . S
C357 H331 0.950 . S
C357 C356 1.414 . S
C357 C358 1.374 . S
C358 H332 0.950 . S
C358 C354 1.385 . S
C358 C357 1.374 . S
C359 C356 1.499 . S
C359 C360 1.373 . S
C359 C361 1.400 . S
C360 H333 0.950 . S
C360 C346 1.366 1_554 S
C360 C359 1.373 . S
C361 C345 1.366 1_554 S
C361 C359 1.400 . S
C361 C362 1.524 1_554 S
C362 C361 1.524 1_556 S
C362 C363 1.397 1_556 S
C362 C367 1.363 . S
C363 H334 0.950 . S
C363 C362 1.397 1_554 S
C363 C364 1.334 . S
C364 H335 0.950 . S
C364 C363 1.334 . S
C364 C365 1.287 1_554 S
C365 C364 1.287 1_556 S
C365 C366 1.524 . S
C365 H368 0.999 . S
C366 H336 0.950 . S
C366 C365 1.524 . S
C366 C367 1.415 . S
C367 H337 0.950 . S
C367 C362 1.363 . S
C367 C366 1.415 . S
H368 C365 0.999 . S
H369 C350 0.913 . S
H370 C388 0.951 . S
H371 C390 0.951 . S
H372 C392 0.950 . S
H373 C393 0.950 . S
H374 C395 0.950 . S
H375 C398 0.950 . S
H376 C399 0.950 . S
H377 C401 0.950 1_655 S
H378 C402 0.950 . S
H379 C403 0.951 . S
H380 C405 0.951 . S
H381 C407 0.950 . S
H382 C408 0.950 . S
H383 C410 0.950 . S
H384 C413 0.950 . S
H385 C414 0.950 . S
H386 C416 0.950 . S
H387 C417 0.950 1_455 S
C388 H370 0.951 . S
C388 C389 1.366 . S
C388 C390 1.388 . S
C389 C388 1.366 . S
C389 C393 1.385 . S
C390 H371 0.951 . S
C390 C388 1.388 . S
C390 C391 1.366 . S
C391 C390 1.366 . S
C391 C392 1.414 . S
C391 C394 1.499 . S
C392 H372 0.950 . S
C392 C391 1.414 . S
C392 C393 1.374 . S
C393 H373 0.950 . S
C393 C389 1.385 . S
C393 C392 1.374 . S
C394 C391 1.499 . S
C394 C395 1.373 . S
C394 C396 1.389 . S
C395 H374 0.950 . S
C395 C394 1.373 . S
C395 C411 1.377 . S
C396 C394 1.389 . S
C396 C397 1.524 1_655 S
C396 C410 1.377 1_655 S
C397 C396 1.524 1_455 S
C397 C398 1.397 . S
C397 C402 1.363 1_455 S
C398 H375 0.950 . S
C398 C397 1.397 . S
C398 C399 1.334 . S
C399 H376 0.950 . S
C399 C398 1.334 . S
C399 C400 1.287 . S
C400 C399 1.287 . S
C400 C401 1.524 . S
C400 H419 0.913 . S
C401 H377 0.950 1_455 S
C401 C400 1.524 . S
C401 C402 1.415 1_455 S
C402 H378 0.950 . S
C402 C397 1.363 1_655 S
C402 C401 1.415 1_655 S
C403 H379 0.951 . S
C403 C404 1.366 . S
C403 C405 1.388 . S
C404 C403 1.366 . S
C404 C408 1.385 . S
C405 H380 0.951 . S
C405 C403 1.388 . S
C405 C406 1.366 . S
C406 C405 1.366 . S
C406 C407 1.414 . S
C406 C409 1.499 . S
C407 H381 0.950 . S
C407 C406 1.414 . S
C407 C408 1.374 . S
C408 H382 0.950 . S
C408 C404 1.385 . S
C408 C407 1.374 . S
C409 C406 1.499 . S
C409 C410 1.373 . S
C409 C411 1.389 1_455 S
C410 H383 0.950 . S
C410 C396 1.377 1_455 S
C410 C409 1.373 . S
C411 C395 1.377 . S
C411 C409 1.389 1_655 S
C411 C412 1.524 . S
C412 C411 1.524 . S
C412 C413 1.397 . S
C412 C417 1.363 . S
C413 H384 0.950 . S
C413 C412 1.397 . S
C413 C414 1.334 . S
C414 H385 0.950 . S
C414 C413 1.334 . S
C414 C415 1.287 . S
C415 C414 1.287 . S
C415 C416 1.524 . S
C415 H418 0.999 . S
C416 H386 0.950 . S
C416 C415 1.524 . S
C416 C417 1.415 . S
C417 H387 0.950 1_655 S
C417 C412 1.363 . S
C417 C416 1.415 . S
H418 C415 0.999 . S
H419 C400 0.913 . S
H420 C438 0.951 . S
H421 C440 0.951 . S
H422 C442 0.950 . S
H423 C443 0.950 . S
H424 C445 0.950 . S
H425 C448 0.950 . S
H426 C449 0.950 . S
H427 C451 0.950 . S
H428 C452 0.950 . S
H429 C453 0.951 . S
H430 C455 0.951 . S
H431 C457 0.950 . S
H432 C458 0.950 . S
H433 C460 0.950 . S
H434 C463 0.950 . S
H435 C464 0.950 . S
H436 C466 0.950 . S
H437 C467 0.950 . S
C438 H420 0.951 . S
C438 C439 1.366 . S
C438 C440 1.388 . S
C439 C438 1.366 . S
C439 C443 1.385 . S
C440 H421 0.951 . S
C440 C438 1.388 . S
C440 C441 1.366 . S
C441 C440 1.366 . S
C441 C442 1.414 . S
C441 C444 1.499 . S
C442 H422 0.950 . S
C442 C441 1.414 . S
C442 C443 1.374 . S
C443 H423 0.950 . S
C443 C439 1.385 . S
C443 C442 1.374 . S
C444 C441 1.499 . S
C444 C445 1.373 . S
C444 C446 1.389 . S
C445 H424 0.950 . S
C445 C444 1.373 . S
C445 C461 1.377 . S
C446 C444 1.389 . S
C446 C447 1.524 . S
C446 C460 1.377 . S
C447 C446 1.524 . S
C447 C448 1.397 . S
C447 C452 1.363 . S
C448 H425 0.950 . S
C448 C447 1.397 . S
C448 C449 1.334 . S
C449 H426 0.950 . S
C449 C448 1.334 . S
C449 C450 1.287 . S
C450 C449 1.287 . S
C450 C451 1.524 . S
C450 H469 0.913 . S
C451 H427 0.950 . S
C451 C450 1.524 . S
C451 C452 1.415 . S
C452 H428 0.950 . S
C452 C447 1.363 . S
C452 C451 1.415 . S
C453 H429 0.951 . S
C453 C454 1.366 . S
C453 C455 1.388 . S
C454 C453 1.366 . S
C454 C458 1.385 . S
C455 H430 0.951 . S
C455 C453 1.388 . S
C455 C456 1.366 . S
C456 C455 1.366 . S
C456 C457 1.414 . S
C456 C459 1.499 . S
C457 H431 0.950 . S
C457 C456 1.414 . S
C457 C458 1.374 . S
C458 H432 0.950 . S
C458 C454 1.385 . S
C458 C457 1.374 . S
C459 C456 1.499 . S
C459 C460 1.373 . S
C459 C461 1.389 . S
C460 H433 0.950 . S
C460 C446 1.377 . S
C460 C459 1.373 . S
C461 C445 1.377 . S
C461 C459 1.389 . S
C461 C462 1.524 . S
C462 C461 1.524 . S
C462 C463 1.397 . S
C462 C467 1.363 . S
C463 H434 0.950 . S
C463 C462 1.397 . S
C463 C464 1.334 . S
C464 H435 0.950 . S
C464 C463 1.334 . S
C464 C465 1.287 . S
C465 C464 1.287 . S
C465 C466 1.524 . S
C465 H468 0.999 . S
C466 H436 0.950 . S
C466 C465 1.524 . S
C466 C467 1.415 . S
C467 H437 0.950 . S
C467 C462 1.363 . S
C467 C466 1.415 . S
H468 C465 0.999 . S
H469 C450 0.913 . S
H470 C488 0.951 . S
H471 C490 0.951 . S
H472 C492 0.950 . S
H473 C493 0.950 . S
H474 C495 0.950 . S
H475 C498 0.950 . S
H476 C499 0.950 . S
H477 C501 0.950 . S
H478 C502 0.950 . S
H479 C503 0.951 . S
H480 C505 0.951 . S
H481 C507 0.950 . S
H482 C508 0.950 . S
H483 C510 0.950 . S
H484 C513 0.950 . S
H485 C514 0.950 . S
H486 C516 0.950 . S
H487 C517 0.950 . S
C488 H470 0.951 . S
C488 C489 1.366 . S
C488 C490 1.388 . S
C489 C488 1.366 . S
C489 C493 1.385 . S
C490 H471 0.951 . S
C490 C488 1.388 . S
C490 C491 1.366 . S
C491 C490 1.366 . S
C491 C492 1.414 . S
C491 C494 1.499 . S
C492 H472 0.950 . S
C492 C491 1.414 . S
C492 C493 1.374 . S
C493 H473 0.950 . S
C493 C489 1.385 . S
C493 C492 1.374 . S
C494 C491 1.499 . S
C494 C495 1.373 . S
C494 C496 1.389 . S
C495 H474 0.950 . S
C495 C494 1.373 . S
C495 C511 1.377 . S
C496 C494 1.389 . S
C496 C497 1.524 . S
C496 C510 1.377 . S
C497 C496 1.524 . S
C497 C498 1.397 . S
C497 C502 1.363 . S
C498 H475 0.950 . S
C498 C497 1.397 . S
C498 C499 1.334 . S
C499 H476 0.950 . S
C499 C498 1.334 . S
C499 C500 1.287 . S
C500 C499 1.287 . S
C500 C501 1.524 . S
C500 H519 0.913 . S
C501 H477 0.950 . S
C501 C500 1.524 . S
C501 C502 1.415 . S
C502 H478 0.950 . S
C502 C497 1.363 . S
C502 C501 1.415 . S
C503 H479 0.951 . S
C503 C504 1.366 . S
C503 C505 1.388 . S
C504 C503 1.366 . S
C504 C508 1.385 . S
C505 H480 0.951 . S
C505 C503 1.388 . S
C505 C506 1.366 . S
C506 C505 1.366 . S
C506 C507 1.414 . S
C506 C509 1.499 . S
C507 H481 0.950 . S
C507 C506 1.414 . S
C507 C508 1.374 . S
C508 H482 0.950 . S
C508 C504 1.385 . S
C508 C507 1.374 . S
C509 C506 1.499 . S
C509 C510 1.373 . S
C509 C511 1.389 . S
C510 H483 0.950 . S
C510 C496 1.377 . S
C510 C509 1.373 . S
C511 C495 1.377 . S
C511 C509 1.389 . S
C511 C512 1.524 . S
C512 C511 1.524 . S
C512 C513 1.397 . S
C512 C517 1.363 . S
C513 H484 0.950 . S
C513 C512 1.397 . S
C513 C514 1.334 . S
C514 H485 0.950 . S
C514 C513 1.334 . S
C514 C515 1.287 . S
C515 C514 1.287 . S
C515 C516 1.524 . S
C515 H518 0.999 . S
C516 H486 0.950 . S
C516 C515 1.524 . S
C516 C517 1.415 . S
C517 H487 0.950 . S
C517 C512 1.363 . S
C517 C516 1.415 . S
H518 C515 0.999 . S
H519 C500 0.913 . S
H520 C538 0.951 . S
H521 C540 0.951 . S
H522 C542 0.950 . S
H523 C543 0.950 . S
H524 C545 0.950 . S
H525 C548 0.950 . S
H526 C549 0.950 . S
H527 C551 0.950 . S
H528 C552 0.950 . S
H529 C553 0.951 . S
H530 C555 0.951 . S
H531 C557 0.950 . S
H532 C558 0.950 . S
H533 C560 0.950 . S
H534 C563 0.950 . S
H535 C564 0.950 . S
H536 C566 0.950 . S
H537 C567 0.950 . S
C538 H520 0.951 . S
C538 C539 1.366 . S
C538 C540 1.388 . S
C539 C538 1.366 . S
C539 C543 1.385 . S
C540 H521 0.951 . S
C540 C538 1.388 . S
C540 C541 1.366 . S
C541 C540 1.366 . S
C541 C542 1.414 . S
C541 C544 1.499 . S
C542 H522 0.950 . S
C542 C541 1.414 . S
C542 C543 1.374 . S
C543 H523 0.950 . S
C543 C539 1.385 . S
C543 C542 1.374 . S
C544 C541 1.499 . S
C544 C545 1.373 . S
C544 C546 1.389 . S
C545 H524 0.950 . S
C545 C544 1.373 . S
C545 C561 1.377 . S
C546 C544 1.389 . S
C546 C547 1.524 . S
C546 C560 1.377 . S
C547 C546 1.524 . S
C547 C548 1.397 . S
C547 C552 1.363 . S
C548 H525 0.950 . S
C548 C547 1.397 . S
C548 C549 1.334 . S
C549 H526 0.950 . S
C549 C548 1.334 . S
C549 C550 1.287 . S
C550 C549 1.287 . S
C550 C551 1.524 . S
C550 H569 0.913 . S
C551 H527 0.950 . S
C551 C550 1.524 . S
C551 C552 1.415 . S
C552 H528 0.950 . S
C552 C547 1.363 . S
C552 C551 1.415 . S
C553 H529 0.951 . S
C553 C554 1.366 . S
C553 C555 1.388 . S
C554 C553 1.366 . S
C554 C558 1.385 . S
C555 H530 0.951 . S
C555 C553 1.388 . S
C555 C556 1.366 . S
C556 C555 1.366 . S
C556 C557 1.414 . S
C556 C559 1.499 . S
C557 H531 0.950 . S
C557 C556 1.414 . S
C557 C558 1.374 . S
C558 H532 0.950 . S
C558 C554 1.385 . S
C558 C557 1.374 . S
C559 C556 1.499 . S
C559 C560 1.373 . S
C559 C561 1.389 . S
C560 H533 0.950 . S
C560 C546 1.377 . S
C560 C559 1.373 . S
C561 C545 1.377 . S
C561 C559 1.389 . S
C561 C562 1.524 . S
C562 C561 1.524 . S
C562 C563 1.397 . S
C562 C567 1.363 . S
C563 H534 0.950 . S
C563 C562 1.397 . S
C563 C564 1.334 . S
C564 H535 0.950 . S
C564 C563 1.334 . S
C564 C565 1.287 . S
C565 C564 1.287 . S
C565 C566 1.524 . S
C565 H568 0.999 . S
C566 H536 0.950 . S
C566 C565 1.524 . S
C566 C567 1.415 . S
C567 H537 0.950 . S
C567 C562 1.363 . S
C567 C566 1.415 . S
H568 C565 0.999 . S
H569 C550 0.913 . S
H570 C588 0.951 . S
H571 C590 0.951 . S
H572 C592 0.950 . S
H573 C593 0.950 . S
H574 C595 0.950 . S
H575 C598 0.950 . S
H576 C599 0.950 . S
H577 C601 0.950 . S
H578 C602 0.950 . S
H579 C603 0.951 . S
H580 C605 0.951 . S
H581 C607 0.950 . S
H582 C608 0.950 . S
H583 C610 0.950 . S
H584 C613 0.950 . S
H585 C614 0.950 . S
H586 C616 0.950 . S
H587 C617 0.950 . S
C588 H570 0.951 . S
C588 C589 1.366 . S
C588 C590 1.388 . S
C589 C588 1.366 . S
C589 C593 1.385 . S
C590 H571 0.951 . S
C590 C588 1.388 . S
C590 C591 1.366 . S
C591 C590 1.366 . S
C591 C592 1.414 . S
C591 C594 1.499 . S
C592 H572 0.950 . S
C592 C591 1.414 . S
C592 C593 1.374 . S
C593 H573 0.950 . S
C593 C589 1.385 . S
C593 C592 1.374 . S
C594 C591 1.499 . S
C594 C595 1.373 . S
C594 C596 1.389 . S
C595 H574 0.950 . S
C595 C594 1.373 . S
C595 C611 1.377 . S
C596 C594 1.389 . S
C596 C597 1.524 . S
C596 C610 1.377 . S
C597 C596 1.524 . S
C597 C598 1.397 . S
C597 C602 1.363 . S
C598 H575 0.950 . S
C598 C597 1.397 . S
C598 C599 1.334 . S
C599 H576 0.950 . S
C599 C598 1.334 . S
C599 C600 1.287 . S
C600 C599 1.287 . S
C600 C601 1.524 . S
C600 H619 0.913 . S
C601 H577 0.950 . S
C601 C600 1.524 . S
C601 C602 1.415 . S
C602 H578 0.950 . S
C602 C597 1.363 . S
C602 C601 1.415 . S
C603 H579 0.951 . S
C603 C604 1.366 . S
C603 C605 1.388 . S
C604 C603 1.366 . S
C604 C608 1.385 . S
C605 H580 0.951 . S
C605 C603 1.388 . S
C605 C606 1.366 . S
C606 C605 1.366 . S
C606 C607 1.414 . S
C606 C609 1.499 . S
C607 H581 0.950 . S
C607 C606 1.414 . S
C607 C608 1.374 . S
C608 H582 0.950 . S
C608 C604 1.385 . S
C608 C607 1.374 . S
C609 C606 1.499 . S
C609 C610 1.373 . S
C609 C611 1.389 . S
C610 H583 0.950 . S
C610 C596 1.377 . S
C610 C609 1.373 . S
C611 C595 1.377 . S
C611 C609 1.389 . S
C611 C612 1.524 . S
C612 C611 1.524 . S
C612 C613 1.397 . S
C612 C617 1.363 . S
C613 H584 0.950 . S
C613 C612 1.397 . S
C613 C614 1.334 . S
C614 H585 0.950 . S
C614 C613 1.334 . S
C614 C615 1.287 . S
C615 C614 1.287 . S
C615 C616 1.524 . S
C615 H618 0.999 . S
C616 H586 0.950 . S
C616 C615 1.524 . S
C616 C617 1.415 . S
C617 H587 0.950 . S
C617 C612 1.363 . S
C617 C616 1.415 . S
H618 C615 0.999 . S
H619 C600 0.913 . S
H620 C638 0.951 . S
H621 C640 0.951 . S
H622 C642 0.950 . S
H623 C643 0.950 . S
H624 C645 0.950 . S
H625 C648 0.950 . S
H626 C649 0.950 . S
H627 C651 0.950 . S
H628 C652 0.950 . S
H629 C653 0.951 . S
H630 C655 0.951 . S
H631 C657 0.950 . S
H632 C658 0.950 . S
H633 C660 0.950 . S
H634 C663 0.950 . S
H635 C664 0.950 . S
H636 C666 0.950 . S
H637 C667 0.950 . S
C638 H620 0.951 . S
C638 C639 1.366 . S
C638 C640 1.388 . S
C639 C638 1.366 . S
C639 C643 1.385 . S
C640 H621 0.951 . S
C640 C638 1.388 . S
C640 C641 1.366 . S
C641 C640 1.366 . S
C641 C642 1.414 . S
C641 C644 1.499 . S
C642 H622 0.950 . S
C642 C641 1.414 . S
C642 C643 1.374 . S
C643 H623 0.950 . S
C643 C639 1.385 . S
C643 C642 1.374 . S
C644 C641 1.499 . S
C644 C645 1.373 . S
C644 C646 1.389 . S
C645 H624 0.950 . S
C645 C644 1.373 . S
C645 C661 1.377 . S
C646 C644 1.389 . S
C646 C647 1.524 . S
C646 C660 1.377 . S
C647 C646 1.524 . S
C647 C648 1.397 . S
C647 C652 1.363 . S
C648 H625 0.950 . S
C648 C647 1.397 . S
C648 C649 1.334 . S
C649 H626 0.950 . S
C649 C648 1.334 . S
C649 C650 1.287 . S
C650 C649 1.287 . S
C650 C651 1.524 . S
C650 H669 0.913 . S
C651 H627 0.950 . S
C651 C650 1.524 . S
C651 C652 1.415 . S
C652 H628 0.950 . S
C652 C647 1.363 . S
C652 C651 1.415 . S
C653 H629 0.951 . S
C653 C654 1.366 . S
C653 C655 1.388 . S
C654 C653 1.366 . S
C654 C658 1.385 . S
C655 H630 0.951 . S
C655 C653 1.388 . S
C655 C656 1.366 . S
C656 C655 1.366 . S
C656 C657 1.414 . S
C656 C659 1.499 . S
C657 H631 0.950 . S
C657 C656 1.414 . S
C657 C658 1.374 . S
C658 H632 0.950 . S
C658 C654 1.385 . S
C658 C657 1.374 . S
C659 C656 1.499 . S
C659 C660 1.373 . S
C659 C661 1.389 . S
C660 H633 0.950 . S
C660 C646 1.377 . S
C660 C659 1.373 . S
C661 C645 1.377 . S
C661 C659 1.389 . S
C661 C662 1.524 . S
C662 C661 1.524 . S
C662 C663 1.397 . S
C662 C667 1.363 . S
C663 H634 0.950 . S
C663 C662 1.397 . S
C663 C664 1.334 . S
C664 H635 0.950 . S
C664 C663 1.334 . S
C664 C665 1.287 . S
C665 C664 1.287 . S
C665 C666 1.524 . S
C665 H668 0.999 . S
C666 H636 0.950 . S
C666 C665 1.524 . S
C666 C667 1.415 . S
C667 H637 0.950 . S
C667 C662 1.363 . S
C667 C666 1.415 . S
H668 C665 0.999 . S
H669 C650 0.913 . S
H670 C688 0.951 . S
H671 C690 0.951 . S
H672 C692 0.950 . S
H673 C693 0.950 . S
H674 C695 0.950 . S
H675 C698 0.950 . S
H676 C699 0.950 . S
H677 C701 0.950 . S
H678 C702 0.950 . S
H679 C703 0.951 . S
H680 C705 0.951 . S
H681 C707 0.950 . S
H682 C708 0.950 . S
H683 C710 0.950 . S
H684 C713 0.950 . S
H685 C714 0.950 . S
H686 C716 0.950 . S
H687 C717 0.950 . S
C688 H670 0.951 . S
C688 C689 1.366 . S
C688 C690 1.388 . S
C689 C688 1.366 . S
C689 C693 1.385 . S
C690 H671 0.951 . S
C690 C688 1.388 . S
C690 C691 1.366 . S
C691 C690 1.366 . S
C691 C692 1.414 . S
C691 C694 1.499 . S
C692 H672 0.950 . S
C692 C691 1.414 . S
C692 C693 1.374 . S
C693 H673 0.950 . S
C693 C689 1.385 . S
C693 C692 1.374 . S
C694 C691 1.499 . S
C694 C695 1.373 . S
C694 C696 1.389 . S
C695 H674 0.950 . S
C695 C694 1.373 . S
C695 C711 1.377 . S
C696 C694 1.389 . S
C696 C697 1.524 . S
C696 C710 1.377 . S
C697 C696 1.524 . S
C697 C698 1.397 . S
C697 C702 1.363 . S
C698 H675 0.950 . S
C698 C697 1.397 . S
C698 C699 1.334 . S
C699 H676 0.950 . S
C699 C698 1.334 . S
C699 C700 1.287 . S
C700 C699 1.287 . S
C700 C701 1.524 . S
C700 H719 0.913 . S
C701 H677 0.950 . S
C701 C700 1.524 . S
C701 C702 1.415 . S
C702 H678 0.950 . S
C702 C697 1.363 . S
C702 C701 1.415 . S
C703 H679 0.951 . S
C703 C704 1.366 . S
C703 C705 1.388 . S
C704 C703 1.366 . S
C704 C708 1.385 . S
C705 H680 0.951 . S
C705 C703 1.388 . S
C705 C706 1.366 . S
C706 C705 1.366 . S
C706 C707 1.414 . S
C706 C709 1.499 . S
C707 H681 0.950 . S
C707 C706 1.414 . S
C707 C708 1.374 . S
C708 H682 0.950 . S
C708 C704 1.385 . S
C708 C707 1.374 . S
C709 C706 1.499 . S
C709 C710 1.373 . S
C709 C711 1.389 . S
C710 H683 0.950 . S
C710 C696 1.377 . S
C710 C709 1.373 . S
C711 C695 1.377 . S
C711 C709 1.389 . S
C711 C712 1.524 . S
C712 C711 1.524 . S
C712 C713 1.397 . S
C712 C717 1.363 . S
C713 H684 0.950 . S
C713 C712 1.397 . S
C713 C714 1.334 . S
C714 H685 0.950 . S
C714 C713 1.334 . S
C714 C715 1.287 . S
C715 C714 1.287 . S
C715 C716 1.524 . S
C715 H718 0.999 . S
C716 H686 0.950 . S
C716 C715 1.524 . S
C716 C717 1.415 . S
C717 H687 0.950 . S
C717 C712 1.363 . S
C717 C716 1.415 . S
H718 C715 0.999 . S
H719 C700 0.913 . S
H720 C738 0.951 . S
H721 C740 0.951 . S
H722 C742 0.950 . S
H723 C743 0.950 . S
H724 C745 0.950 . S
H725 C748 0.950 . S
H726 C749 0.950 . S
H727 C751 0.950 . S
H728 C752 0.950 . S
H729 C753 0.951 1_655 S
H730 C755 0.951 . S
H731 C757 0.950 . S
H732 C758 0.950 . S
H733 C760 0.950 . S
H734 C763 0.950 . S
H735 C764 0.950 . S
H736 C766 0.950 . S
H737 C767 0.950 . S
C738 H720 0.951 . S
C738 C739 1.366 . S
C738 C740 1.388 . S
C739 C738 1.366 . S
C739 C743 1.385 . S
C740 H721 0.951 . S
C740 C738 1.388 . S
C740 C741 1.366 . S
C741 C740 1.366 . S
C741 C742 1.414 . S
C741 C744 1.499 . S
C742 H722 0.950 . S
C742 C741 1.414 . S
C742 C743 1.374 . S
C743 H723 0.950 . S
C743 C739 1.385 . S
C743 C742 1.374 . S
C744 C741 1.499 . S
C744 C745 1.373 . S
C744 C746 1.389 . S
C745 H724 0.950 . S
C745 C744 1.373 . S
C745 C761 1.377 . S
C746 C744 1.389 . S
C746 C747 1.524 . S
C746 C760 1.377 . S
C747 C746 1.524 . S
C747 C748 1.397 . S
C747 C752 1.363 . S
C748 H725 0.950 . S
C748 C747 1.397 . S
C748 C749 1.334 . S
C749 H726 0.950 . S
C749 C748 1.334 . S
C749 C750 1.287 . S
C750 C749 1.287 . S
C750 C751 1.524 . S
C750 H769 0.913 . S
C751 H727 0.950 . S
C751 C750 1.524 . S
C751 C752 1.415 . S
C752 H728 0.950 . S
C752 C747 1.363 . S
C752 C751 1.415 . S
C753 H729 0.951 1_455 S
C753 C754 1.366 . S
C753 C755 1.388 . S
C754 C753 1.366 . S
C754 C758 1.385 . S
C755 H730 0.951 . S
C755 C753 1.388 . S
C755 C756 1.366 . S
C756 C755 1.366 . S
C756 C757 1.414 . S
C756 C759 1.499 . S
C757 H731 0.950 . S
C757 C756 1.414 . S
C757 C758 1.374 . S
C758 H732 0.950 . S
C758 C754 1.385 . S
C758 C757 1.374 . S
C759 C756 1.499 . S
C759 C760 1.373 . S
C759 C761 1.389 . S
C760 H733 0.950 . S
C760 C746 1.377 . S
C760 C759 1.373 . S
C761 C745 1.377 . S
C761 C759 1.389 . S
C761 C762 1.524 . S
C762 C761 1.524 . S
C762 C763 1.397 . S
C762 C767 1.363 . S
C763 H734 0.950 . S
C763 C762 1.397 . S
C763 C764 1.334 . S
C764 H735 0.950 . S
C764 C763 1.334 . S
C764 C765 1.287 1_455 S
C765 C764 1.287 1_655 S
C765 C766 1.524 . S
C765 H768 0.999 . S
C766 H736 0.950 . S
C766 C765 1.524 . S
C766 C767 1.415 1_655 S
C767 H737 0.950 . S
C767 C762 1.363 . S
C767 C766 1.415 1_455 S
H768 C765 0.999 . S
H769 C750 0.913 . S
H770 C788 0.951 . S
H771 C790 0.951 . S
H772 C792 0.950 . S
H773 C793 0.950 . S
H774 C795 0.950 . S
H775 C798 0.950 . S
H776 C799 0.950 . S
H777 C801 0.950 . S
H778 C802 0.950 . S
H779 C803 0.951 . S
H780 C805 0.951 . S
H781 C807 0.950 . S
H782 C808 0.950 1_545 S
H783 C810 0.950 . S
H784 C813 0.950 . S
H785 C814 0.950 . S
H786 C816 0.950 . S
H787 C817 0.950 . S
C788 H770 0.951 . S
C788 C789 1.366 . S
C788 C790 1.388 . S
C789 C788 1.366 . S
C789 C793 1.385 . S
C790 H771 0.951 . S
C790 C788 1.388 . S
C790 C791 1.366 . S
C791 C790 1.366 . S
C791 C792 1.414 . S
C791 C794 1.499 1_655 S
C792 H772 0.950 . S
C792 C791 1.414 . S
C792 C793 1.374 . S
C793 H773 0.950 . S
C793 C789 1.385 . S
C793 C792 1.374 . S
C794 C791 1.499 1_455 S
C794 C795 1.373 . S
C794 C796 1.389 . S
C795 H774 0.950 . S
C795 C794 1.373 . S
C795 C811 1.377 . S
C796 C794 1.389 . S
C796 C797 1.524 . S
C796 C810 1.377 . S
C797 C796 1.524 . S
C797 C798 1.397 1_455 S
C797 C802 1.363 . S
C798 H775 0.950 . S
C798 C797 1.397 1_655 S
C798 C799 1.334 . S
C799 H776 0.950 . S
C799 C798 1.334 . S
C799 C800 1.287 . S
C800 C799 1.287 . S
C800 C801 1.524 . S
C800 H819 0.913 . S
C801 H777 0.950 . S
C801 C800 1.524 . S
C801 C802 1.415 1_655 S
C802 H778 0.950 . S
C802 C797 1.363 . S
C802 C801 1.415 1_455 S
C803 H779 0.951 . S
C803 C804 1.366 . S
C803 C805 1.388 . S
C804 C803 1.366 . S
C804 C808 1.385 . S
C805 H780 0.951 . S
C805 C803 1.388 . S
C805 C806 1.366 . S
C806 C805 1.366 . S
C806 C807 1.414 . S
C806 C809 1.499 . S
C807 H781 0.950 . S
C807 C806 1.414 . S
C807 C808 1.374 . S
C808 H782 0.950 1_565 S
C808 C804 1.385 . S
C808 C807 1.374 . S
C809 C806 1.499 . S
C809 C810 1.373 . S
C809 C811 1.389 . S
C810 H783 0.950 . S
C810 C796 1.377 . S
C810 C809 1.373 . S
C811 C795 1.377 . S
C811 C809 1.389 . S
C811 C812 1.524 . S
C812 C811 1.524 . S
C812 C813 1.397 . S
C812 C817 1.363 . S
C813 H784 0.950 . S
C813 C812 1.397 . S
C813 C814 1.334 . S
C814 H785 0.950 . S
C814 C813 1.334 . S
C814 C815 1.287 . S
C815 C814 1.287 . S
C815 C816 1.524 . S
C815 H818 0.999 . S
C816 H786 0.950 . S
C816 C815 1.524 . S
C816 C817 1.415 . S
C817 H787 0.950 . S
C817 C812 1.363 . S
C817 C816 1.415 . S
H818 C815 0.999 . S
H819 C800 0.913 . S
H820 C838 0.951 . S
H821 C840 0.951 . S
H822 C842 0.950 . S
H823 C843 0.950 . S
H824 C845 0.950 . S
H825 C848 0.950 . S
H826 C849 0.950 . S
H827 C851 0.950 . S
H828 C852 0.950 . S
H829 C853 0.951 . S
H830 C855 0.951 . S
H831 C857 0.950 . S
H832 C858 0.950 . S
H833 C860 0.950 . S
H834 C863 0.950 . S
H835 C864 0.950 . S
H836 C866 0.950 . S
H837 C867 0.950 . S
C838 H820 0.951 . S
C838 C839 1.366 . S
C838 C840 1.388 . S
C839 C838 1.366 . S
C839 C843 1.385 . S
C840 H821 0.951 . S
C840 C838 1.388 . S
C840 C841 1.366 . S
C841 C840 1.366 . S
C841 C842 1.414 . S
C841 C844 1.499 1_545 S
C842 H822 0.950 . S
C842 C841 1.414 . S
C842 C843 1.374 . S
C843 H823 0.950 . S
C843 C839 1.385 . S
C843 C842 1.374 . S
C844 C841 1.499 1_565 S
C844 C845 1.373 . S
C844 C846 1.389 . S
C845 H824 0.950 . S
C845 C844 1.373 . S
C845 C861 1.377 . S
C846 C844 1.389 . S
C846 C847 1.524 . S
C846 C860 1.377 . S
C847 C846 1.524 . S
C847 C848 1.397 1_565 S
C847 C852 1.363 . S
C848 H825 0.950 . S
C848 C847 1.397 1_545 S
C848 C849 1.334 . S
C849 H826 0.950 . S
C849 C848 1.334 . S
C849 C850 1.287 . S
C850 C849 1.287 . S
C850 C851 1.524 . S
C850 H869 0.913 . S
C851 H827 0.950 . S
C851 C850 1.524 . S
C851 C852 1.415 1_545 S
C852 H828 0.950 . S
C852 C847 1.363 . S
C852 C851 1.415 1_565 S
C853 H829 0.951 . S
C853 C854 1.366 . S
C853 C855 1.388 . S
C854 C853 1.366 . S
C854 C858 1.385 . S
C855 H830 0.951 . S
C855 C853 1.388 . S
C855 C856 1.366 . S
C856 C855 1.366 . S
C856 C857 1.414 . S
C856 C859 1.499 . S
C857 H831 0.950 . S
C857 C856 1.414 . S
C857 C858 1.374 . S
C858 H832 0.950 . S
C858 C854 1.385 . S
C858 C857 1.374 . S
C859 C856 1.499 . S
C859 C860 1.373 . S
C859 C861 1.389 . S
C860 H833 0.950 . S
C860 C846 1.377 . S
C860 C859 1.373 . S
C861 C845 1.377 . S
C861 C859 1.389 . S
C861 C862 1.524 . S
C862 C861 1.524 . S
C862 C863 1.397 . S
C862 C867 1.363 . S
C863 H834 0.950 . S
C863 C862 1.397 . S
C863 C864 1.334 . S
C864 H835 0.950 . S
C864 C863 1.334 . S
C864 C865 1.287 . S
C865 C864 1.287 . S
C865 C866 1.524 . S
C865 H868 0.999 . S
C866 H836 0.950 . S
C866 C865 1.524 . S
C866 C867 1.415 . S
C867 H837 0.950 . S
C867 C862 1.363 . S
C867 C866 1.415 . S
H868 C865 0.999 . S
H869 C850 0.913 . S
H870 C888 0.951 . S
H871 C890 0.951 . S
H872 C892 0.950 . S
H873 C893 0.950 . S
H874 C895 0.950 . S
H875 C898 0.950 . S
H876 C899 0.950 . S
H877 C901 0.950 . S
H878 C902 0.950 . S
H879 C903 0.951 . S
H880 C905 0.951 . S
H881 C907 0.950 . S
H882 C908 0.950 . S
H883 C910 0.950 . S
H884 C913 0.950 . S
H885 C914 0.950 . S
H886 C916 0.950 . S
H887 C917 0.950 . S
C888 H870 0.951 . S
C888 C889 1.366 . S
C888 C890 1.388 . S
C889 C888 1.366 . S
C889 C893 1.385 . S
C890 H871 0.951 . S
C890 C888 1.388 . S
C890 C891 1.366 . S
C891 C890 1.366 . S
C891 C892 1.414 . S
C891 C894 1.499 . S
C892 H872 0.950 . S
C892 C891 1.414 . S
C892 C893 1.374 . S
C893 H873 0.950 . S
C893 C889 1.385 . S
C893 C892 1.374 . S
C894 C891 1.499 . S
C894 C895 1.373 . S
C894 C896 1.389 . S
C895 H874 0.950 . S
C895 C894 1.373 . S
C895 C911 1.377 . S
C896 C894 1.389 . S
C896 C897 1.524 . S
C896 C910 1.377 . S
C897 C896 1.524 . S
C897 C898 1.397 . S
C897 C902 1.363 . S
C898 H875 0.950 . S
C898 C897 1.397 . S
C898 C899 1.334 . S
C899 H876 0.950 . S
C899 C898 1.334 . S
C899 C900 1.287 . S
C900 C899 1.287 . S
C900 C901 1.524 . S
C900 H919 0.913 . S
C901 H877 0.950 . S
C901 C900 1.524 . S
C901 C902 1.415 . S
C902 H878 0.950 . S
C902 C897 1.363 . S
C902 C901 1.415 . S
C903 H879 0.951 . S
C903 C904 1.366 1_565 S
C903 C905 1.388 1_565 S
C904 C903 1.366 1_545 S
C904 C908 1.385 . S
C905 H880 0.951 . S
C905 C903 1.388 1_545 S
C905 C906 1.366 . S
C906 C905 1.366 . S
C906 C907 1.414 . S
C906 C909 1.499 . S
C907 H881 0.950 . S
C907 C906 1.414 . S
C907 C908 1.374 . S
C908 H882 0.950 . S
C908 C904 1.385 . S
C908 C907 1.374 . S
C909 C906 1.499 . S
C909 C910 1.373 . S
C909 C911 1.389 . S
C910 H883 0.950 . S
C910 C896 1.377 . S
C910 C909 1.373 . S
C911 C895 1.377 . S
C911 C909 1.389 . S
C911 C912 1.524 . S
C912 C911 1.524 . S
C912 C913 1.397 . S
C912 C917 1.363 . S
C913 H884 0.950 . S
C913 C912 1.397 . S
C913 C914 1.334 . S
C914 H885 0.950 . S
C914 C913 1.334 . S
C914 C915 1.287 1_545 S
C915 C914 1.287 1_565 S
C915 C916 1.524 . S
C915 H918 0.999 . S
C916 H886 0.950 . S
C916 C915 1.524 . S
C916 C917 1.415 1_565 S
C917 H887 0.950 . S
C917 C912 1.363 . S
C917 C916 1.415 1_545 S
H918 C915 0.999 . S
H919 C900 0.913 . S
H920 C938 0.951 . S
H921 C940 0.951 . S
H922 C942 0.950 . S
H923 C943 0.950 . S
H924 C945 0.950 . S
H925 C948 0.950 . S
H926 C949 0.950 . S
H927 C951 0.954 . S
H928 C952 0.950 . S
H929 C953 0.951 . S
H930 C955 0.951 . S
H931 C957 0.950 . S
H932 C958 0.950 . S
H933 C960 0.950 . S
H934 C963 0.950 . S
H935 C964 0.950 . S
H936 C966 0.950 . S
H937 C967 0.950 . S
C938 H920 0.951 . S
C938 C939 1.366 . S
C938 C940 1.388 . S
C939 C938 1.366 . S
C939 C943 1.385 . S
C940 H921 0.951 . S
C940 C938 1.388 . S
C940 C941 1.366 . S
C941 C940 1.366 . S
C941 C942 1.414 . S
C941 C944 1.499 1_455 S
C942 H922 0.950 . S
C942 C941 1.414 . S
C942 C943 1.374 . S
C943 H923 0.950 . S
C943 C939 1.385 . S
C943 C942 1.374 . S
C944 C941 1.499 1_655 S
C944 C945 1.373 . S
C944 C946 1.389 . S
C945 H924 0.950 . S
C945 C944 1.373 . S
C945 C961 1.377 . S
C946 C944 1.389 . S
C946 C947 1.524 . S
C946 C960 1.377 . S
C947 C946 1.524 . S
C947 C948 1.397 1_655 S
C947 C952 1.363 . S
C948 H925 0.950 . S
C948 C947 1.397 1_455 S
C948 C949 1.334 . S
C949 H926 0.950 . S
C949 C948 1.334 . S
C949 C950 1.287 . S
C950 C949 1.287 . S
C950 C951 1.518 1_455 S
C950 H969 0.913 . S
C951 H927 0.954 . S
C951 C950 1.518 1_655 S
C951 C952 1.417 . S
C952 H928 0.950 . S
C952 C947 1.363 . S
C952 C951 1.417 . S
C953 H929 0.951 . S
C953 C954 1.366 . S
C953 C955 1.388 . S
C954 C953 1.366 . S
C954 C958 1.385 . S
C955 H930 0.951 . S
C955 C953 1.388 . S
C955 C956 1.366 . S
C956 C955 1.366 . S
C956 C957 1.414 . S
C956 C959 1.499 . S
C957 H931 0.950 . S
C957 C956 1.414 . S
C957 C958 1.374 . S
C958 H932 0.950 . S
C958 C954 1.385 . S
C958 C957 1.374 . S
C959 C956 1.499 . S
C959 C960 1.373 . S
C959 C961 1.389 . S
C960 H933 0.950 . S
C960 C946 1.377 . S
C960 C959 1.373 . S
C961 C945 1.377 . S
C961 C959 1.389 . S
C961 C962 1.524 . S
C962 C961 1.524 . S
C962 C963 1.397 . S
C962 C967 1.363 . S
C963 H934 0.950 . S
C963 C962 1.397 . S
C963 C964 1.334 . S
C964 H935 0.950 . S
C964 C963 1.334 . S
C964 C965 1.287 . S
C965 C964 1.287 . S
C965 C966 1.524 . S
C965 H968 0.999 . S
C966 H936 0.950 . S
C966 C965 1.524 . S
C966 C967 1.415 . S
C967 H937 0.950 . S
C967 C962 1.363 . S
C967 C966 1.415 . S
H968 C965 0.999 . S
H969 C950 0.913 . S
H970 C988 0.951 . S
H971 C990 0.951 . S
H972 C992 0.950 . S
H973 C993 0.950 . S
H974 C995 0.950 . S
H975 C998 0.950 . S
H976 C999 0.950 . S
H977 C1001 0.950 . S
H978 C1002 0.950 . S
H979 C1003 0.951 . S
H980 C1005 0.951 . S
H981 C1007 0.950 . S
H982 C1008 0.950 . S
H983 C1010 0.950 . S
H984 C1013 0.929 1_565 S
H985 C1014 0.950 . S
H986 C1016 0.950 . S
H987 C1017 0.950 . S
C988 H970 0.951 . S
C988 C989 1.366 1_455 S
C988 C990 1.388 1_455 S
C989 C988 1.366 1_655 S
C989 C993 1.385 . S
C990 H971 0.951 . S
C990 C988 1.388 1_655 S
C990 C991 1.366 . S
C991 C990 1.366 . S
C991 C992 1.414 . S
C991 C994 1.499 . S
C992 H972 0.950 . S
C992 C991 1.414 . S
C992 C993 1.374 . S
C993 H973 0.950 . S
C993 C989 1.385 . S
C993 C992 1.374 . S
C994 C991 1.499 . S
C994 C995 1.373 . S
C994 C996 1.389 . S
C995 H974 0.950 . S
C995 C994 1.373 . S
C995 C1011 1.377 . S
C996 C994 1.389 . S
C996 C997 1.524 . S
C996 C1010 1.377 . S
C997 C996 1.524 . S
C997 C998 1.397 . S
C997 C1002 1.363 . S
C998 H975 0.950 . S
C998 C997 1.397 . S
C998 C999 1.334 . S
C999 H976 0.950 . S
C999 C998 1.334 . S
C999 C1000 1.287 . S
C1000 C999 1.287 . S
C1000 C1001 1.524 . S
C1000 H1019 0.913 . S
C1001 H977 0.950 . S
C1001 C1000 1.524 . S
C1001 C1002 1.415 . S
C1002 H978 0.950 . S
C1002 C997 1.363 . S
C1002 C1001 1.415 . S
C1003 H979 0.951 . S
C1003 C1004 1.366 . S
C1003 C1005 1.388 . S
C1004 C1003 1.366 . S
C1004 C1008 1.385 . S
C1005 H980 0.951 . S
C1005 C1003 1.388 . S
C1005 C1006 1.366 . S
C1006 C1005 1.366 . S
C1006 C1007 1.414 . S
C1006 C1009 1.499 1_565 S
C1007 H981 0.950 . S
C1007 C1006 1.414 . S
C1007 C1008 1.374 . S
C1008 H982 0.950 . S
C1008 C1004 1.385 . S
C1008 C1007 1.374 . S
C1009 C1006 1.499 1_545 S
C1009 C1010 1.373 . S
C1009 C1011 1.389 . S
C1010 H983 0.950 . S
C1010 C996 1.377 . S
C1010 C1009 1.373 . S
C1011 C995 1.377 . S
C1011 C1009 1.389 . S
C1011 C1012 1.524 . S
C1012 C1011 1.524 . S
C1012 C1013 1.397 . S
C1012 C1017 1.363 . S
C1013 H984 0.929 1_545 S
C1013 C1012 1.397 . S
C1013 C1014 1.334 1_545 S
C1014 H985 0.950 . S
C1014 C1013 1.334 1_565 S
C1014 C1015 1.287 1_565 S
C1015 C1014 1.287 1_545 S
C1015 C1016 1.524 . S
C1015 H1018 1.000 . S
C1016 H986 0.950 . S
C1016 C1015 1.524 . S
C1016 C1017 1.415 . S
C1017 H987 0.950 . S
C1017 C1012 1.363 . S
C1017 C1016 1.415 . S
H1018 C1015 1.000 . S
H1019 C1000 0.913 . S
C139 C99 2.211 . S
C154 C18 2.156 . S
C189 C118 2.144 . S
C204 C39 2.211 . S
C239 C58 2.156 . S
C254 C79 2.211 . S
C289 C19 2.212 . S
C304 C98 2.144 . S
C339 C119 2.211 . S
C354 C38 2.156 . S
C389 C59 2.212 . S
C404 C78 2.145 . S
C439 C4 1.395 . S
C454 C52 1.614 . S
C489 C24 1.394 . S
C504 C12 1.614 . S
C539 C44 1.393 . S
C554 C32 1.614 . S
C589 C69 1.484 . S
C604 C82 1.599 . S
C639 C89 1.484 . S
C654 C102 1.600 . S
C689 C62 1.600 . S
C704 C109 1.484 . S
C739 C2 0.778 . S
C754 C49 0.771 . S
C789 C22 0.778 . S
C804 C9 0.770 . S
C839 C42 0.779 . S
C854 C29 0.769 . S
C889 C72 0.772 . S
C904 C84 0.762 1_545 S
C939 C92 0.772 . S
C954 C104 0.759 . S
C989 C64 0.761 1_655 S
C1004 C112 0.772 . S
