# Generated by pormake.
# Topology wna, (6)-cn, num edge types: 1
# Building blocks:
#     Node 0, Type 0, BuildingBlock: CUWYAW_clean_sbu_0, # of connection points: 6
#     Node 1, Type 0, BuildingBlock: CUWYAW_clean_sbu_0, # of connection points: 6
#     Node 2, Type 0, BuildingBlock: CUWYAW_clean_sbu_0, # of connection points: 6
#     Node 3, Type 0, BuildingBlock: CUWYAW_clean_sbu_0, # of connection points: 6
#     Node 4, Type 0, BuildingBlock: CUWYAW_clean_sbu_0, # of connection points: 6
#     Node 5, Type 0, BuildingBlock: CUWYAW_clean_sbu_0, # of connection points: 6
#     Node 6, Type 0, BuildingBlock: CUWYAW_clean_sbu_0, # of connection points: 6
#     Node 7, Type 0, BuildingBlock: CUWYAW_clean_sbu_0, # of connection points: 6
#     Node 8, Type 0, BuildingBlock: CUWYAW_clean_sbu_0, # of connection points: 6
#     Node 9, Type 0, BuildingBlock: CUWYAW_clean_sbu_0, # of connection points: 6
#     Node 10, Type 0, BuildingBlock: CUWYAW_clean_sbu_0, # of connection points: 6
#     Node 11, Type 0, BuildingBlock: CUWYAW_clean_sbu_0, # of connection points: 6
#     Node 12, Type 0, BuildingBlock: CUWYAW_clean_sbu_0, # of connection points: 6
#     Node 13, Type 0, BuildingBlock: CUWYAW_clean_sbu_0, # of connection points: 6
#     Node 14, Type 0, BuildingBlock: CUWYAW_clean_sbu_0, # of connection points: 6
#     Node 15, Type 0, BuildingBlock: CUWYAW_clean_sbu_0, # of connection points: 6
#     Node 16, Type 0, BuildingBlock: CUWYAW_clean_sbu_0, # of connection points: 6
#     Node 17, Type 0, BuildingBlock: CUWYAW_clean_sbu_0, # of connection points: 6
#     Node 18, Type 0, BuildingBlock: CUWYAW_clean_sbu_0, # of connection points: 6
#     Node 19, Type 0, BuildingBlock: CUWYAW_clean_sbu_0, # of connection points: 6
#     Node 20, Type 0, BuildingBlock: CUWYAW_clean_sbu_0, # of connection points: 6
#     Node 21, Type 0, BuildingBlock: CUWYAW_clean_sbu_0, # of connection points: 6
#     Node 22, Type 0, BuildingBlock: CUWYAW_clean_sbu_0, # of connection points: 6
#     Node 23, Type 0, BuildingBlock: CUWYAW_clean_sbu_0, # of connection points: 6
#     Node 24, Type 0, BuildingBlock: CUWYAW_clean_sbu_0, # of connection points: 6
#     Node 25, Type 0, BuildingBlock: CUWYAW_clean_sbu_0, # of connection points: 6
#     Node 26, Type 0, BuildingBlock: CUWYAW_clean_sbu_0, # of connection points: 6
#     Node 27, Type 0, BuildingBlock: CUWYAW_clean_sbu_0, # of connection points: 6
#     Node 28, Type 0, BuildingBlock: CUWYAW_clean_sbu_0, # of connection points: 6
#     Node 29, Type 0, BuildingBlock: CUWYAW_clean_sbu_0, # of connection points: 6
#     Node 30, Type 0, BuildingBlock: CUWYAW_clean_sbu_0, # of connection points: 6
#     Node 31, Type 0, BuildingBlock: CUWYAW_clean_sbu_0, # of connection points: 6
#     Node 32, Type 0, BuildingBlock: CUWYAW_clean_sbu_0, # of connection points: 6
#     Node 33, Type 0, BuildingBlock: CUWYAW_clean_sbu_0, # of connection points: 6
#     Node 34, Type 0, BuildingBlock: CUWYAW_clean_sbu_0, # of connection points: 6
#     Node 35, Type 0, BuildingBlock: CUWYAW_clean_sbu_0, # of connection points: 6
#     Edge 36, Type (0, 0), BuildingBlock: ZUJKAS_clean_linker_0, # of connection points: 2
#     Edge 37, Type (0, 0), BuildingBlock: ZUJKAS_clean_linker_0, # of connection points: 2
#     Edge 38, Type (0, 0), BuildingBlock: ZUJKAS_clean_linker_0, # of connection points: 2
#     Edge 39, Type (0, 0), BuildingBlock: ZUJKAS_clean_linker_0, # of connection points: 2
#     Edge 40, Type (0, 0), BuildingBlock: ZUJKAS_clean_linker_0, # of connection points: 2
#     Edge 41, Type (0, 0), BuildingBlock: ZUJKAS_clean_linker_0, # of connection points: 2
#     Edge 42, Type (0, 0), BuildingBlock: ZUJKAS_clean_linker_0, # of connection points: 2
#     Edge 43, Type (0, 0), BuildingBlock: ZUJKAS_clean_linker_0, # of connection points: 2
#     Edge 44, Type (0, 0), BuildingBlock: ZUJKAS_clean_linker_0, # of connection points: 2
#     Edge 45, Type (0, 0), BuildingBlock: ZUJKAS_clean_linker_0, # of connection points: 2
#     Edge 46, Type (0, 0), BuildingBlock: ZUJKAS_clean_linker_0, # of connection points: 2
#     Edge 47, Type (0, 0), BuildingBlock: ZUJKAS_clean_linker_0, # of connection points: 2
#     Edge 48, Type (0, 0), BuildingBlock: ZUJKAS_clean_linker_0, # of connection points: 2
#     Edge 49, Type (0, 0), BuildingBlock: ZUJKAS_clean_linker_0, # of connection points: 2
#     Edge 50, Type (0, 0), BuildingBlock: ZUJKAS_clean_linker_0, # of connection points: 2
#     Edge 51, Type (0, 0), BuildingBlock: ZUJKAS_clean_linker_0, # of connection points: 2
#     Edge 52, Type (0, 0), BuildingBlock: ZUJKAS_clean_linker_0, # of connection points: 2
#     Edge 53, Type (0, 0), BuildingBlock: ZUJKAS_clean_linker_0, # of connection points: 2
#     Edge 54, Type (0, 0), BuildingBlock: ZUJKAS_clean_linker_0, # of connection points: 2
#     Edge 55, Type (0, 0), BuildingBlock: ZUJKAS_clean_linker_0, # of connection points: 2
#     Edge 56, Type (0, 0), BuildingBlock: ZUJKAS_clean_linker_0, # of connection points: 2
#     Edge 57, Type (0, 0), BuildingBlock: ZUJKAS_clean_linker_0, # of connection points: 2
#     Edge 58, Type (0, 0), BuildingBlock: ZUJKAS_clean_linker_0, # of connection points: 2
#     Edge 59, Type (0, 0), BuildingBlock: ZUJKAS_clean_linker_0, # of connection points: 2
#     Edge 60, Type (0, 0), BuildingBlock: ZUJKAS_clean_linker_0, # of connection points: 2
#     Edge 61, Type (0, 0), BuildingBlock: ZUJKAS_clean_linker_0, # of connection points: 2
#     Edge 62, Type (0, 0), BuildingBlock: ZUJKAS_clean_linker_0, # of connection points: 2
#     Edge 63, Type (0, 0), BuildingBlock: ZUJKAS_clean_linker_0, # of connection points: 2
#     Edge 64, Type (0, 0), BuildingBlock: ZUJKAS_clean_linker_0, # of connection points: 2
#     Edge 65, Type (0, 0), BuildingBlock: ZUJKAS_clean_linker_0, # of connection points: 2
#     Edge 66, Type (0, 0), BuildingBlock: ZUJKAS_clean_linker_0, # of connection points: 2
#     Edge 67, Type (0, 0), BuildingBlock: ZUJKAS_clean_linker_0, # of connection points: 2
#     Edge 68, Type (0, 0), BuildingBlock: ZUJKAS_clean_linker_0, # of connection points: 2
#     Edge 69, Type (0, 0), BuildingBlock: ZUJKAS_clean_linker_0, # of connection points: 2
#     Edge 70, Type (0, 0), BuildingBlock: ZUJKAS_clean_linker_0, # of connection points: 2
#     Edge 71, Type (0, 0), BuildingBlock: ZUJKAS_clean_linker_0, # of connection points: 2
#     Edge 72, Type (0, 0), BuildingBlock: ZUJKAS_clean_linker_0, # of connection points: 2
#     Edge 73, Type (0, 0), BuildingBlock: ZUJKAS_clean_linker_0, # of connection points: 2
#     Edge 74, Type (0, 0), BuildingBlock: ZUJKAS_clean_linker_0, # of connection points: 2
#     Edge 75, Type (0, 0), BuildingBlock: ZUJKAS_clean_linker_0, # of connection points: 2
#     Edge 76, Type (0, 0), BuildingBlock: ZUJKAS_clean_linker_0, # of connection points: 2
#     Edge 77, Type (0, 0), BuildingBlock: ZUJKAS_clean_linker_0, # of connection points: 2
#     Edge 78, Type (0, 0), BuildingBlock: ZUJKAS_clean_linker_0, # of connection points: 2
#     Edge 79, Type (0, 0), BuildingBlock: ZUJKAS_clean_linker_0, # of connection points: 2
#     Edge 80, Type (0, 0), BuildingBlock: ZUJKAS_clean_linker_0, # of connection points: 2
#     Edge 81, Type (0, 0), BuildingBlock: ZUJKAS_clean_linker_0, # of connection points: 2
#     Edge 82, Type (0, 0), BuildingBlock: ZUJKAS_clean_linker_0, # of connection points: 2
#     Edge 83, Type (0, 0), BuildingBlock: ZUJKAS_clean_linker_0, # of connection points: 2
#     Edge 84, Type (0, 0), BuildingBlock: ZUJKAS_clean_linker_0, # of connection points: 2
#     Edge 85, Type (0, 0), BuildingBlock: ZUJKAS_clean_linker_0, # of connection points: 2
#     Edge 86, Type (0, 0), BuildingBlock: ZUJKAS_clean_linker_0, # of connection points: 2
#     Edge 87, Type (0, 0), BuildingBlock: ZUJKAS_clean_linker_0, # of connection points: 2
#     Edge 88, Type (0, 0), BuildingBlock: ZUJKAS_clean_linker_0, # of connection points: 2
#     Edge 89, Type (0, 0), BuildingBlock: ZUJKAS_clean_linker_0, # of connection points: 2
#     Edge 90, Type (0, 0), BuildingBlock: ZUJKAS_clean_linker_0, # of connection points: 2
#     Edge 91, Type (0, 0), BuildingBlock: ZUJKAS_clean_linker_0, # of connection points: 2
#     Edge 92, Type (0, 0), BuildingBlock: ZUJKAS_clean_linker_0, # of connection points: 2
#     Edge 93, Type (0, 0), BuildingBlock: ZUJKAS_clean_linker_0, # of connection points: 2
#     Edge 94, Type (0, 0), BuildingBlock: ZUJKAS_clean_linker_0, # of connection points: 2
#     Edge 95, Type (0, 0), BuildingBlock: ZUJKAS_clean_linker_0, # of connection points: 2
#     Edge 96, Type (0, 0), BuildingBlock: ZUJKAS_clean_linker_0, # of connection points: 2
#     Edge 97, Type (0, 0), BuildingBlock: ZUJKAS_clean_linker_0, # of connection points: 2
#     Edge 98, Type (0, 0), BuildingBlock: ZUJKAS_clean_linker_0, # of connection points: 2
#     Edge 99, Type (0, 0), BuildingBlock: ZUJKAS_clean_linker_0, # of connection points: 2
#     Edge 100, Type (0, 0), BuildingBlock: ZUJKAS_clean_linker_0, # of connection points: 2
#     Edge 101, Type (0, 0), BuildingBlock: ZUJKAS_clean_linker_0, # of connection points: 2
#     Edge 102, Type (0, 0), BuildingBlock: ZUJKAS_clean_linker_0, # of connection points: 2
#     Edge 103, Type (0, 0), BuildingBlock: ZUJKAS_clean_linker_0, # of connection points: 2
#     Edge 104, Type (0, 0), BuildingBlock: ZUJKAS_clean_linker_0, # of connection points: 2
#     Edge 105, Type (0, 0), BuildingBlock: ZUJKAS_clean_linker_0, # of connection points: 2
#     Edge 106, Type (0, 0), BuildingBlock: ZUJKAS_clean_linker_0, # of connection points: 2
#     Edge 107, Type (0, 0), BuildingBlock: ZUJKAS_clean_linker_0, # of connection points: 2
#     Edge 108, Type (0, 0), BuildingBlock: ZUJKAS_clean_linker_0, # of connection points: 2
#     Edge 109, Type (0, 0), BuildingBlock: ZUJKAS_clean_linker_0, # of connection points: 2
#     Edge 110, Type (0, 0), BuildingBlock: ZUJKAS_clean_linker_0, # of connection points: 2
#     Edge 111, Type (0, 0), BuildingBlock: ZUJKAS_clean_linker_0, # of connection points: 2
#     Edge 112, Type (0, 0), BuildingBlock: ZUJKAS_clean_linker_0, # of connection points: 2
#     Edge 113, Type (0, 0), BuildingBlock: ZUJKAS_clean_linker_0, # of connection points: 2
#     Edge 114, Type (0, 0), BuildingBlock: ZUJKAS_clean_linker_0, # of connection points: 2
#     Edge 115, Type (0, 0), BuildingBlock: ZUJKAS_clean_linker_0, # of connection points: 2
#     Edge 116, Type (0, 0), BuildingBlock: ZUJKAS_clean_linker_0, # of connection points: 2
#     Edge 117, Type (0, 0), BuildingBlock: ZUJKAS_clean_linker_0, # of connection points: 2
#     Edge 118, Type (0, 0), BuildingBlock: ZUJKAS_clean_linker_0, # of connection points: 2
#     Edge 119, Type (0, 0), BuildingBlock: ZUJKAS_clean_linker_0, # of connection points: 2
#     Edge 120, Type (0, 0), BuildingBlock: ZUJKAS_clean_linker_0, # of connection points: 2
#     Edge 121, Type (0, 0), BuildingBlock: ZUJKAS_clean_linker_0, # of connection points: 2
#     Edge 122, Type (0, 0), BuildingBlock: ZUJKAS_clean_linker_0, # of connection points: 2
#     Edge 123, Type (0, 0), BuildingBlock: ZUJKAS_clean_linker_0, # of connection points: 2
#     Edge 124, Type (0, 0), BuildingBlock: ZUJKAS_clean_linker_0, # of connection points: 2
#     Edge 125, Type (0, 0), BuildingBlock: ZUJKAS_clean_linker_0, # of connection points: 2
#     Edge 126, Type (0, 0), BuildingBlock: ZUJKAS_clean_linker_0, # of connection points: 2
#     Edge 127, Type (0, 0), BuildingBlock: ZUJKAS_clean_linker_0, # of connection points: 2
#     Edge 128, Type (0, 0), BuildingBlock: ZUJKAS_clean_linker_0, # of connection points: 2
#     Edge 129, Type (0, 0), BuildingBlock: ZUJKAS_clean_linker_0, # of connection points: 2
#     Edge 130, Type (0, 0), BuildingBlock: ZUJKAS_clean_linker_0, # of connection points: 2
#     Edge 131, Type (0, 0), BuildingBlock: ZUJKAS_clean_linker_0, # of connection points: 2
#     Edge 132, Type (0, 0), BuildingBlock: ZUJKAS_clean_linker_0, # of connection points: 2
#     Edge 133, Type (0, 0), BuildingBlock: ZUJKAS_clean_linker_0, # of connection points: 2
#     Edge 134, Type (0, 0), BuildingBlock: ZUJKAS_clean_linker_0, # of connection points: 2
#     Edge 135, Type (0, 0), BuildingBlock: ZUJKAS_clean_linker_0, # of connection points: 2
#     Edge 136, Type (0, 0), BuildingBlock: ZUJKAS_clean_linker_0, # of connection points: 2
#     Edge 137, Type (0, 0), BuildingBlock: ZUJKAS_clean_linker_0, # of connection points: 2
#     Edge 138, Type (0, 0), BuildingBlock: ZUJKAS_clean_linker_0, # of connection points: 2
#     Edge 139, Type (0, 0), BuildingBlock: ZUJKAS_clean_linker_0, # of connection points: 2
#     Edge 140, Type (0, 0), BuildingBlock: ZUJKAS_clean_linker_0, # of connection points: 2
#     Edge 141, Type (0, 0), BuildingBlock: ZUJKAS_clean_linker_0, # of connection points: 2
#     Edge 142, Type (0, 0), BuildingBlock: ZUJKAS_clean_linker_0, # of connection points: 2
#     Edge 143, Type (0, 0), BuildingBlock: ZUJKAS_clean_linker_0, # of connection points: 2
# Relax obj value: 0.152
# Max RMSD: 0.224
# Mean RMSD: 0.208
data_MOF--net-wna--node1-CUWYAW_clean_sbu_0--edge1-ZUJKAS_clean_linker_0
_symmetry_space_group_name_H-M    P1
_symmetry_Int_Tables_number       1
_symmetry_cell_setting            triclinic
loop_
_symmetry_equiv_pos_as_xyz
'x, y, z'
_cell_length_a     53.092084
_cell_length_b     53.094294
_cell_length_c     176.60613
_cell_angle_alpha  89.975856
_cell_angle_beta   89.998027
_cell_angle_gamma 119.98685
loop_
_atom_site_label
_atom_site_type_symbol
_atom_site_fract_x
_atom_site_fract_y
_atom_site_fract_z
_atom_type_partial_charge
C0 C 0.10898 0.23032 0.20151 0.0
Eu1 Eu 0.11002 0.24501 0.18729 0.0
C2 C 0.09214 0.22415 0.20867 0.0
C3 C 0.08528 0.24426 0.21187 0.0
C4 C 0.07186 0.23904 0.219 0.0
C5 C 0.06492 0.2136 0.22311 0.0
C6 C 0.07122 0.19325 0.21979 0.0
C7 C 0.08469 0.19852 0.21268 0.0
C8 C 0.09634 0.28631 0.18296 0.0
C9 C 0.04807 0.20166 0.17921 0.0
C10 C 0.10188 0.26679 0.15673 0.0
Eu11 Eu 0.10441 0.24941 0.17046 0.0
C12 C 0.11605 0.27914 0.14931 0.0
C13 C 0.12399 0.26354 0.14435 0.0
C14 C 0.13244 0.27303 0.13687 0.0
C15 C 0.13314 0.29833 0.13415 0.0
C16 C 0.12631 0.3145 0.13923 0.0
C17 C 0.11779 0.30496 0.14669 0.0
C18 C 0.11353 0.20529 0.17446 0.0
C19 C 0.16934 0.28407 0.17826 0.0
O20 O 0.09769 0.21142 0.19601 0.0
O21 O 0.12274 0.25713 0.19905 0.0
O22 O 0.11349 0.28927 0.18851 0.0
O23 O 0.08614 0.26128 0.18017 0.0
O24 O 0.06559 0.20623 0.185 0.0
O25 O 0.0569 0.21898 0.17323 0.0
O26 O 0.10886 0.28377 0.16268 0.0
O27 O 0.09574 0.24035 0.15844 0.0
O28 O 0.09806 0.20464 0.16871 0.0
O29 O 0.12578 0.23021 0.17751 0.0
O30 O 0.15282 0.28263 0.17244 0.0
O31 O 0.15766 0.26788 0.18435 0.0
H32 H 0.0907 0.26424 0.20893 0.0
H33 H 0.06699 0.25502 0.22131 0.0
H34 H 0.06659 0.1736 0.22279 0.0
H35 H 0.08996 0.18278 0.21039 0.0
H36 H 0.12276 0.24345 0.14614 0.0
H37 H 0.13799 0.26024 0.13319 0.0
H38 H 0.12626 0.33388 0.13735 0.0
H39 H 0.11136 0.31721 0.15033 0.0
C40 C 0.78252 0.88284 0.2019 0.0
Eu41 Eu 0.76724 0.86834 0.18774 0.0
C42 C 0.7887 0.87253 0.20912 0.0
C43 C 0.7686 0.84579 0.21243 0.0
C44 C 0.7739 0.838 0.21961 0.0
C45 C 0.79936 0.85677 0.22367 0.0
C46 C 0.81972 0.88314 0.22023 0.0
C47 C 0.81441 0.8909 0.21307 0.0
C48 C 0.72621 0.8129 0.18369 0.0
C49 C 0.81068 0.85008 0.17958 0.0
C50 C 0.74397 0.83617 0.15737 0.0
Eu51 Eu 0.76186 0.85715 0.17097 0.0
C52 C 0.73071 0.83678 0.15001 0.0
C53 C 0.74236 0.86192 0.14547 0.0
C54 C 0.7326 0.86054 0.13801 0.0
C55 C 0.71113 0.83396 0.13489 0.0
C56 C 0.6987 0.80917 0.13957 0.0
C57 C 0.7084 0.81058 0.14702 0.0
C58 C 0.80576 0.91094 0.17467 0.0
C59 C 0.72724 0.88741 0.17872 0.0
O60 O 0.80119 0.88975 0.19636 0.0
O61 O 0.75563 0.86999 0.19951 0.0
O62 O 0.72331 0.82722 0.18921 0.0
O63 O 0.75105 0.82784 0.18081 0.0
O64 O 0.80658 0.86376 0.18527 0.0
O65 O 0.79254 0.84042 0.17377 0.0
O66 O 0.72749 0.82602 0.16339 0.0
O67 O 0.77016 0.85738 0.1589 0.0
O68 O 0.8063 0.89584 0.16897 0.0
O69 O 0.78105 0.89818 0.17782 0.0
O70 O 0.72797 0.8714 0.17304 0.0
O71 O 0.74427 0.89292 0.18468 0.0
H72 H 0.7485 0.83115 0.20955 0.0
H73 H 0.75757 0.81764 0.22208 0.0
H74 H 0.83982 0.89795 0.22308 0.0
H75 H 0.83025 0.91165 0.21066 0.0
H76 H 0.75976 0.88243 0.14758 0.0
H77 H 0.74282 0.88006 0.13457 0.0
H78 H 0.6818 0.78844 0.13743 0.0
H79 H 0.69917 0.79082 0.15036 0.0
C80 C 0.13032 0.89397 0.20301 0.0
Eu81 Eu 0.14324 0.90147 0.18858 0.0
C82 C 0.13933 0.91018 0.21031 0.0
C83 C 0.1666 0.91875 0.21359 0.0
C84 C 0.17385 0.93224 0.22072 0.0
C85 C 0.15408 0.93757 0.22474 0.0
C86 C 0.12698 0.92934 0.22139 0.0
C87 C 0.11969 0.91574 0.21428 0.0
C88 C 0.19977 0.92685 0.18406 0.0
C89 C 0.15681 0.95995 0.18043 0.0
C90 C 0.17181 0.91383 0.15774 0.0
Eu91 Eu 0.15167 0.90283 0.17164 0.0
C92 C 0.17013 0.90193 0.14999 0.0
C93 C 0.15607 0.90829 0.14417 0.0
C94 C 0.1575 0.90079 0.13664 0.0
C95 C 0.1732 0.88683 0.13468 0.0
C96 C 0.18661 0.87972 0.14053 0.0
C97 C 0.18522 0.88729 0.14808 0.0
C98 C 0.09511 0.88025 0.17579 0.0
C99 C 0.12548 0.84087 0.17956 0.0
O100 O 0.1169 0.90162 0.1981 0.0
O101 O 0.14837 0.88726 0.19978 0.0
O102 O 0.1905 0.93622 0.18954 0.0
O103 O 0.17898 0.90391 0.18129 0.0
O104 O 0.14448 0.94348 0.18641 0.0
O105 O 0.16488 0.95013 0.17453 0.0
O106 O 0.18359 0.90652 0.16321 0.0
O107 O 0.14999 0.91666 0.16009 0.0
O108 O 0.10359 0.87167 0.16993 0.0
O109 O 0.1167 0.90155 0.17889 0.0
O110 O 0.1401 0.85619 0.17357 0.0
O111 O 0.12149 0.85348 0.18554 0.0
H112 H 0.1823 0.9148 0.21071 0.0
H113 H 0.19504 0.93858 0.22307 0.0
H114 H 0.11104 0.93272 0.22434 0.0
H115 H 0.0984 0.90911 0.21195 0.0
H116 H 0.14455 0.91986 0.14541 0.0
H117 H 0.1465 0.90626 0.13233 0.0
H118 H 0.19915 0.86927 0.13925 0.0
H119 H 0.1967 0.88242 0.15238 0.0
C120 C 0.22813 0.10626 0.3217 0.0
Eu121 Eu 0.24461 0.10715 0.33573 0.0
C122 C 0.22195 0.08959 0.31453 0.0
C123 C 0.24169 0.0821 0.31139 0.0
C124 C 0.23628 0.06845 0.30429 0.0
C125 C 0.21103 0.06198 0.30016 0.0
C126 C 0.19104 0.06889 0.30343 0.0
C127 C 0.19648 0.08256 0.3105 0.0
C128 C 0.2864 0.09335 0.33938 0.0
C129 C 0.20229 0.04524 0.34385 0.0
C130 C 0.26986 0.09812 0.36596 0.0
Eu131 Eu 0.25112 0.10091 0.35243 0.0
C132 C 0.28192 0.11226 0.37339 0.0
C133 C 0.26662 0.12108 0.3782 0.0
C134 C 0.27593 0.12977 0.38567 0.0
C135 C 0.30073 0.12983 0.38854 0.0
C136 C 0.31659 0.12206 0.38361 0.0
C137 C 0.30725 0.11333 0.37615 0.0
C138 C 0.20699 0.11095 0.34906 0.0
C139 C 0.28495 0.16595 0.34472 0.0
O140 O 0.20993 0.09411 0.32731 0.0
O141 O 0.25515 0.12091 0.32396 0.0
O142 O 0.28858 0.11058 0.33393 0.0
O143 O 0.26176 0.08301 0.34241 0.0
O144 O 0.20552 0.06336 0.33833 0.0
O145 O 0.2212 0.05346 0.34948 0.0
O146 O 0.28664 0.10665 0.35996 0.0
O147 O 0.24288 0.09042 0.3644 0.0
O148 O 0.20682 0.09536 0.35473 0.0
O149 O 0.23148 0.12283 0.34582 0.0
O150 O 0.28474 0.14915 0.35032 0.0
O151 O 0.26739 0.15452 0.33886 0.0
H152 H 0.26156 0.08726 0.31435 0.0
H153 H 0.25233 0.06374 0.30196 0.0
H154 H 0.17111 0.0638 0.30051 0.0
H155 H 0.18091 0.08808 0.31279 0.0
H156 H 0.24694 0.12043 0.37628 0.0
H157 H 0.2634 0.13604 0.38924 0.0
H158 H 0.33558 0.12148 0.38561 0.0
H159 H 0.31924 0.10625 0.37262 0.0
C160 C 0.90353 0.12715 0.32104 0.0
Eu161 Eu 0.90277 0.14106 0.33525 0.0
C162 C 0.92022 0.13741 0.31385 0.0
C163 C 0.92767 0.1645 0.31063 0.0
C164 C 0.94079 0.17225 0.30345 0.0
C165 C 0.94671 0.15309 0.29931 0.0
C166 C 0.93995 0.12637 0.30268 0.0
C167 C 0.92684 0.11864 0.30983 0.0
C168 C 0.91681 0.1961 0.33958 0.0
C169 C 0.96447 0.15895 0.34342 0.0
C170 C 0.91129 0.17113 0.36581 0.0
Eu171 Eu 0.90829 0.15107 0.3521 0.0
C172 C 0.89742 0.17112 0.37313 0.0
C173 C 0.88384 0.14629 0.37778 0.0
C174 C 0.87552 0.14822 0.38521 0.0
C175 C 0.88078 0.17505 0.38819 0.0
C176 C 0.89325 0.19954 0.3834 0.0
C177 C 0.90148 0.19758 0.37598 0.0
C178 C 0.89873 0.09768 0.34805 0.0
C179 C 0.84361 0.12153 0.3443 0.0
O180 O 0.91473 0.11944 0.32655 0.0
O181 O 0.89009 0.14055 0.32348 0.0
O182 O 0.89966 0.18205 0.33402 0.0
O183 O 0.92683 0.1811 0.34237 0.0
O184 O 0.94707 0.14633 0.3376 0.0
O185 O 0.95567 0.16745 0.3494 0.0
O186 O 0.90665 0.18273 0.3598 0.0
O187 O 0.91458 0.1489 0.3642 0.0
O188 O 0.91439 0.11239 0.35379 0.0
O189 O 0.8867 0.11061 0.34503 0.0
O190 O 0.86028 0.13717 0.35003 0.0
O191 O 0.85517 0.11635 0.33829 0.0
H192 H 0.92278 0.17945 0.31356 0.0
H193 H 0.94542 0.19289 0.30105 0.0
H194 H 0.94463 0.11124 0.29976 0.0
H195 H 0.92131 0.09762 0.31217 0.0
H196 H 0.88061 0.1256 0.37578 0.0
H197 H 0.86615 0.12894 0.38873 0.0
H198 H 0.89719 0.22044 0.38543 0.0
H199 H 0.9121 0.21712 0.37256 0.0
C200 C 0.88024 0.77431 0.32138 0.0
Eu201 Eu 0.86797 0.76211 0.33578 0.0
C202 C 0.86997 0.78132 0.31427 0.0
C203 C 0.84273 0.76204 0.31107 0.0
C204 C 0.83487 0.76789 0.30397 0.0
C205 C 0.85401 0.79316 0.29989 0.0
C206 C 0.88097 0.81269 0.30321 0.0
C207 C 0.88883 0.8068 0.31029 0.0
C208 C 0.81328 0.72192 0.34052 0.0
C209 C 0.85042 0.80726 0.34331 0.0
C210 C 0.84065 0.7458 0.36645 0.0
Eu211 Eu 0.85909 0.76057 0.35249 0.0
C212 C 0.8431 0.73457 0.374 0.0
C213 C 0.85726 0.75417 0.37997 0.0
C214 C 0.85589 0.74424 0.38739 0.0
C215 C 0.84019 0.71433 0.38911 0.0
C216 C 0.82672 0.69464 0.38308 0.0
C217 C 0.82805 0.70463 0.37564 0.0
C218 C 0.91242 0.80335 0.34807 0.0
C219 C 0.88796 0.72374 0.34513 0.0
O220 O 0.89046 0.79394 0.32674 0.0
O221 O 0.86525 0.7479 0.32407 0.0
O222 O 0.82753 0.71729 0.33529 0.0
O223 O 0.82815 0.74757 0.34291 0.0
O224 O 0.86294 0.80165 0.33761 0.0
O225 O 0.84202 0.7907 0.34943 0.0
O226 O 0.82983 0.72795 0.36069 0.0
O227 O 0.86101 0.7718 0.36442 0.0
O228 O 0.89778 0.80561 0.35364 0.0
O229 O 0.89935 0.77788 0.34538 0.0
O230 O 0.87334 0.72635 0.35089 0.0
O231 O 0.89239 0.73912 0.33889 0.0
H232 H 0.82765 0.74217 0.31398 0.0
H233 H 0.81378 0.75253 0.30166 0.0
H234 H 0.89648 0.83217 0.30023 0.0
H235 H 0.91008 0.82189 0.31257 0.0
H236 H 0.86853 0.77741 0.37896 0.0
H237 H 0.86618 0.7602 0.39184 0.0
H238 H 0.81475 0.67144 0.38412 0.0
H239 H 0.81655 0.68888 0.37121 0.0
C240 C 0.91029 0.73983 0.86526 0.0
Eu241 Eu 0.90691 0.75696 0.85157 0.0
C242 C 0.89588 0.72623 0.87255 0.0
C243 C 0.88297 0.73831 0.87715 0.0
C244 C 0.87381 0.72794 0.88454 0.0
C245 C 0.8774 0.7053 0.88753 0.0
C246 C 0.88937 0.69261 0.8828 0.0
C247 C 0.89852 0.70298 0.87543 0.0
C248 C 0.89628 0.80007 0.84765 0.0
C249 C 0.84153 0.72093 0.84403 0.0
C250 C 0.90058 0.77424 0.82058 0.0
Eu251 Eu 0.90002 0.76043 0.83486 0.0
C252 C 0.91859 0.78202 0.81358 0.0
C253 C 0.92451 0.762 0.80992 0.0
C254 C 0.93916 0.7689 0.80295 0.0
C255 C 0.94829 0.79598 0.79946 0.0
C256 C 0.94288 0.81618 0.80322 0.0
C257 C 0.92815 0.80924 0.81017 0.0
C258 C 0.91482 0.72006 0.83926 0.0
C259 C 0.9622 0.80531 0.84268 0.0
O260 O 0.90488 0.72341 0.85925 0.0
O261 O 0.91451 0.76569 0.86364 0.0
O262 O 0.91248 0.8014 0.8533 0.0
O263 O 0.88429 0.7751 0.84464 0.0
O264 O 0.85861 0.72287 0.84977 0.0
O265 O 0.85256 0.73701 0.83791 0.0
O266 O 0.90961 0.79323 0.82609 0.0
O267 O 0.88886 0.74752 0.82306 0.0
O268 O 0.89605 0.71579 0.83404 0.0
O269 O 0.92534 0.74548 0.84179 0.0
O270 O 0.94431 0.79986 0.83693 0.0
O271 O 0.95402 0.78842 0.84874 0.0
H272 H 0.88071 0.75634 0.87513 0.0
H273 H 0.86428 0.73798 0.88795 0.0
H274 H 0.89286 0.67542 0.88489 0.0
H275 H 0.90878 0.69353 0.87206 0.0
H276 H 0.91744 0.74079 0.81237 0.0
H277 H 0.94327 0.75294 0.80028 0.0
H278 H 0.94921 0.83708 0.80069 0.0
H279 H 0.92362 0.82498 0.81281 0.0
C280 C 0.26642 0.16116 0.86532 0.0
Eu281 Eu 0.25028 0.148 0.85129 0.0
C282 C 0.27526 0.1674 0.87341 0.0
C283 C 0.27164 0.14479 0.87825 0.0
C284 C 0.28043 0.1503 0.88583 0.0
C285 C 0.29317 0.17863 0.88881 0.0
C286 C 0.29656 0.20127 0.88398 0.0
C287 C 0.28774 0.19572 0.87636 0.0
C288 C 0.20392 0.09678 0.84687 0.0
C289 C 0.28765 0.1231 0.84276 0.0
C290 C 0.23738 0.12807 0.81988 0.0
Eu291 Eu 0.24432 0.14065 0.83431 0.0
C292 C 0.22977 0.13724 0.81267 0.0
C293 C 0.24936 0.16344 0.80903 0.0
C294 C 0.24253 0.17067 0.80198 0.0
C295 C 0.21594 0.15193 0.79837 0.0
C296 C 0.19627 0.12591 0.80206 0.0
C297 C 0.20314 0.11864 0.80909 0.0
C298 C 0.27478 0.19702 0.83915 0.0
C299 C 0.20011 0.15478 0.84304 0.0
O300 O 0.26843 0.18074 0.86044 0.0
O301 O 0.25562 0.13493 0.86256 0.0
O302 O 0.20391 0.11182 0.85265 0.0
O303 O 0.22874 0.10881 0.84379 0.0
O304 O 0.28337 0.13379 0.84907 0.0
O305 O 0.27429 0.12249 0.8364 0.0
O306 O 0.21663 0.11498 0.82491 0.0
O307 O 0.26263 0.14574 0.82298 0.0
O308 O 0.25644 0.18797 0.83361 0.0
O309 O 0.27695 0.17613 0.84181 0.0
O310 O 0.20312 0.14049 0.83732 0.0
O311 O 0.21903 0.16461 0.84872 0.0
H312 H 0.26201 0.12267 0.87619 0.0
H313 H 0.27694 0.1322 0.88938 0.0
H314 H 0.3065 0.22341 0.88604 0.0
H315 H 0.29091 0.21364 0.87278 0.0
H316 H 0.27014 0.17828 0.81158 0.0
H317 H 0.25809 0.19103 0.79935 0.0
H318 H 0.17579 0.11072 0.79943 0.0
H319 H 0.18775 0.09813 0.81169 0.0
C320 C 0.83448 0.09346 0.86606 0.0
Eu321 Eu 0.85573 0.09668 0.85247 0.0
C322 C 0.83656 0.10762 0.8735 0.0
C323 C 0.86027 0.11564 0.8784 0.0
C324 C 0.85958 0.12442 0.88586 0.0
C325 C 0.83517 0.12537 0.88863 0.0
C326 C 0.81196 0.11838 0.88361 0.0
C327 C 0.81264 0.10955 0.87616 0.0
C328 C 0.90941 0.10642 0.84879 0.0
C329 C 0.88636 0.16231 0.84504 0.0
C330 C 0.88272 0.10382 0.82155 0.0
Eu331 Eu 0.86754 0.10403 0.83567 0.0
C332 C 0.87293 0.08643 0.81445 0.0
C333 C 0.84546 0.07751 0.81126 0.0
C334 C 0.83788 0.0635 0.8042 0.0
C335 C 0.85753 0.05798 0.80017 0.0
C336 C 0.88472 0.06634 0.80348 0.0
C337 C 0.89231 0.08043 0.81052 0.0
C338 C 0.81244 0.09061 0.8397 0.0
C339 C 0.84717 0.04098 0.84342 0.0
O340 O 0.82572 0.10164 0.86009 0.0
O341 O 0.85406 0.08622 0.86444 0.0
O342 O 0.8941 0.0905 0.85444 0.0
O343 O 0.89692 0.11874 0.84568 0.0
O344 O 0.872 0.14536 0.85086 0.0
O345 O 0.89071 0.15149 0.83876 0.0
O346 O 0.89112 0.09368 0.82716 0.0
O347 O 0.8682 0.11628 0.82386 0.0
O348 O 0.8272 0.10806 0.83425 0.0
O349 O 0.82676 0.07984 0.84249 0.0
O350 O 0.86058 0.05894 0.83774 0.0
O351 O 0.83859 0.04944 0.84945 0.0
H352 H 0.87903 0.11431 0.87656 0.0
H353 H 0.87807 0.13007 0.8895 0.0
H354 H 0.79265 0.1185 0.88552 0.0
H355 H 0.79385 0.10309 0.87256 0.0
H356 H 0.82996 0.08175 0.81415 0.0
H357 H 0.8166 0.05704 0.80189 0.0
H358 H 0.90057 0.06281 0.80053 0.0
H359 H 0.91371 0.08727 0.81281 0.0
C360 C 0.74318 0.91023 0.65765 0.0
Eu361 Eu 0.76235 0.90674 0.67107 0.0
C362 C 0.73359 0.89723 0.64997 0.0
C363 C 0.75399 0.90036 0.64441 0.0
C364 C 0.74547 0.89243 0.63687 0.0
C365 C 0.71632 0.88117 0.63464 0.0
C366 C 0.69574 0.87704 0.64025 0.0
C367 C 0.7043 0.88511 0.6478 0.0
C368 C 0.80624 0.89701 0.6749 0.0
C369 C 0.72745 0.8416 0.67897 0.0
C370 C 0.78747 0.89548 0.70229 0.0
Eu371 Eu 0.76974 0.89999 0.68885 0.0
C372 C 0.79255 0.90961 0.70983 0.0
C373 C 0.77299 0.91729 0.71297 0.0
C374 C 0.77774 0.92961 0.72024 0.0
C375 C 0.80223 0.93465 0.72453 0.0
C376 C 0.82199 0.92734 0.72128 0.0
C377 C 0.81716 0.91495 0.71403 0.0
C378 C 0.73332 0.92222 0.68626 0.0
C379 C 0.81028 0.96157 0.68041 0.0
O380 O 0.72602 0.89796 0.66348 0.0
O381 O 0.77072 0.92163 0.65938 0.0
O382 O 0.80631 0.91115 0.66889 0.0
O383 O 0.78185 0.88611 0.67817 0.0
O384 O 0.73181 0.85781 0.67281 0.0
O385 O 0.74053 0.8529 0.68552 0.0
O386 O 0.80527 0.91086 0.69682 0.0
O387 O 0.76038 0.87994 0.70002 0.0
O388 O 0.73952 0.91667 0.69292 0.0
O389 O 0.74647 0.91527 0.68157 0.0
O390 O 0.80843 0.94328 0.68576 0.0
O391 O 0.79089 0.95356 0.67486 0.0
H392 H 0.7768 0.90983 0.64582 0.0
H393 H 0.76188 0.89553 0.63274 0.0
H394 H 0.67316 0.86872 0.63876 0.0
H395 H 0.6881 0.88286 0.6519 0.0
H396 H 0.75383 0.91352 0.70986 0.0
H397 H 0.76185 0.9346 0.72254 0.0
H398 H 0.84137 0.93134 0.72431 0.0
H399 H 0.83265 0.90937 0.71173 0.0
C400 C 0.10088 0.83176 0.65818 0.0
Eu401 Eu 0.10481 0.85662 0.67125 0.0
C402 C 0.11431 0.83411 0.65065 0.0
C403 C 0.12319 0.85859 0.64597 0.0
C404 C 0.13177 0.85843 0.63846 0.0
C405 C 0.13167 0.83381 0.63544 0.0
C406 C 0.12377 0.80979 0.64024 0.0
C407 C 0.11515 0.80995 0.64773 0.0
C408 C 0.11489 0.91073 0.67458 0.0
C409 C 0.16992 0.88748 0.67916 0.0
C410 C 0.11608 0.89527 0.70232 0.0
Eu411 Eu 0.11159 0.87238 0.68897 0.0
C412 C 0.102 0.88603 0.70984 0.0
C413 C 0.09173 0.85768 0.71258 0.0
C414 C 0.07903 0.84962 0.71979 0.0
C415 C 0.07618 0.86968 0.72442 0.0
C416 C 0.08622 0.89795 0.72159 0.0
C417 C 0.09898 0.90599 0.7144 0.0
C418 C 0.08873 0.81341 0.68663 0.0
C419 C 0.05069 0.85232 0.68035 0.0
O420 O 0.11278 0.82731 0.66416 0.0
O421 O 0.09018 0.8488 0.65956 0.0
O422 O 0.10132 0.89626 0.66855 0.0
O423 O 0.12542 0.89738 0.67812 0.0
O424 O 0.15369 0.87497 0.67305 0.0
O425 O 0.15868 0.88999 0.68564 0.0
O426 O 0.10028 0.89695 0.69684 0.0
O427 O 0.13204 0.88413 0.70008 0.0
O428 O 0.09429 0.82542 0.69325 0.0
O429 O 0.09596 0.83344 0.68192 0.0
O430 O 0.06929 0.86929 0.68557 0.0
O431 O 0.0581 0.83939 0.67508 0.0
H432 H 0.12276 0.87756 0.64805 0.0
H433 H 0.13815 0.8775 0.63499 0.0
H434 H 0.12306 0.79031 0.63812 0.0
H435 H 0.1081 0.79068 0.65118 0.0
H436 H 0.09371 0.8418 0.70917 0.0
H437 H 0.0719 0.82778 0.72177 0.0
H438 H 0.08399 0.91388 0.7249 0.0
H439 H 0.10657 0.92792 0.71239 0.0
C440 C 0.17759 0.26881 0.65717 0.0
Eu441 Eu 0.15356 0.24857 0.67038 0.0
C442 C 0.17604 0.2807 0.64967 0.0
C443 C 0.15169 0.26606 0.64491 0.0
C444 C 0.15259 0.27534 0.63741 0.0
C445 C 0.17787 0.29944 0.63448 0.0
C446 C 0.20179 0.31461 0.63937 0.0
C447 C 0.20087 0.30532 0.64685 0.0
C448 C 0.09986 0.20435 0.67401 0.0
C449 C 0.12279 0.28296 0.67826 0.0
C450 C 0.11564 0.22196 0.70151 0.0
Eu451 Eu 0.13848 0.24032 0.68816 0.0
C452 C 0.1248 0.21664 0.70899 0.0
C453 C 0.1531 0.23459 0.71177 0.0
C454 C 0.16104 0.22958 0.71895 0.0
C455 C 0.14093 0.20641 0.72352 0.0
C456 C 0.11273 0.18828 0.72063 0.0
C457 C 0.1048 0.19337 0.71347 0.0
C458 C 0.19721 0.27686 0.68574 0.0
C459 C 0.15999 0.20014 0.6797 0.0
O460 O 0.18357 0.28523 0.6632 0.0
O461 O 0.15924 0.24135 0.65854 0.0
O462 O 0.11414 0.20478 0.66799 0.0
O463 O 0.11319 0.22855 0.67739 0.0
O464 O 0.13503 0.27897 0.67213 0.0
O465 O 0.12064 0.26956 0.68478 0.0
O466 O 0.11339 0.20441 0.69599 0.0
O467 O 0.12728 0.24915 0.69932 0.0
O468 O 0.1852 0.27049 0.69237 0.0
O469 O 0.17726 0.26381 0.681 0.0
O470 O 0.14353 0.20193 0.68505 0.0
O471 O 0.17128 0.21945 0.67413 0.0
H472 H 0.13221 0.24696 0.6469 0.0
H473 H 0.13356 0.26337 0.63388 0.0
H474 H 0.22176 0.33301 0.63733 0.0
H475 H 0.22008 0.31678 0.65036 0.0
H476 H 0.16902 0.25266 0.70843 0.0
H477 H 0.18283 0.24423 0.72098 0.0
H478 H 0.09676 0.16992 0.72388 0.0
H479 H 0.08291 0.17912 0.71142 0.0
C480 C 0.77981 0.55652 0.53576 0.0
Eu481 Eu 0.77449 0.57425 0.52239 0.0
C482 C 0.7657 0.55104 0.54329 0.0
C483 C 0.75402 0.5679 0.54603 0.0
C484 C 0.74158 0.56288 0.55329 0.0
C485 C 0.74044 0.5408 0.55797 0.0
C486 C 0.7518 0.52371 0.55512 0.0
C487 C 0.76428 0.52881 0.54789 0.0
C488 C 0.75253 0.61077 0.51981 0.0
C489 C 0.71214 0.53421 0.5142 0.0
C490 C 0.76317 0.59982 0.49114 0.0
Eu491 Eu 0.76682 0.58083 0.50456 0.0
C492 C 0.77597 0.60888 0.48341 0.0
C493 C 0.77008 0.58801 0.47774 0.0
C494 C 0.77811 0.59639 0.47019 0.0
C495 C 0.7922 0.62589 0.46806 0.0
C496 C 0.79899 0.64684 0.47378 0.0
C497 C 0.79083 0.63843 0.48134 0.0
C498 C 0.77597 0.53669 0.50853 0.0
C499 C 0.8322 0.61598 0.51223 0.0
O500 O 0.76455 0.53871 0.53028 0.0
O501 O 0.79474 0.5837 0.53353 0.0
O502 O 0.75812 0.6046 0.52647 0.0
O503 O 0.75913 0.59738 0.51509 0.0
O504 O 0.73046 0.53612 0.51955 0.0
O505 O 0.72019 0.55312 0.50854 0.0
O506 O 0.776 0.6171 0.49692 0.0
O507 O 0.75124 0.57228 0.49294 0.0
O508 O 0.76187 0.53655 0.5025 0.0
O509 O 0.78722 0.56131 0.51169 0.0
O510 O 0.81592 0.61007 0.50604 0.0
O511 O 0.82132 0.6045 0.51895 0.0
H512 H 0.75475 0.58516 0.5426 0.0
H513 H 0.73338 0.57671 0.55527 0.0
H514 H 0.75088 0.50617 0.55846 0.0
H515 H 0.77299 0.51541 0.54588 0.0
H516 H 0.75842 0.56502 0.47907 0.0
H517 H 0.77289 0.57964 0.46599 0.0
H518 H 0.80955 0.66974 0.47237 0.0
H519 H 0.79526 0.65507 0.48552 0.0
C520 C 0.44437 0.21284 0.53544 0.0
Eu521 Eu 0.43106 0.19991 0.52113 0.0
C522 C 0.45128 0.20248 0.54256 0.0
C523 C 0.42975 0.1786 0.54663 0.0
C524 C 0.43594 0.17119 0.55374 0.0
C525 C 0.46378 0.18753 0.55699 0.0
C526 C 0.48545 0.21095 0.55281 0.0
C527 C 0.47925 0.21836 0.54571 0.0
C528 C 0.3904 0.145 0.51665 0.0
C529 C 0.47543 0.1819 0.51335 0.0
C530 C 0.41134 0.17051 0.49065 0.0
Eu531 Eu 0.42795 0.19022 0.50442 0.0
C532 C 0.39901 0.17234 0.48323 0.0
C533 C 0.41368 0.19677 0.47849 0.0
C534 C 0.40437 0.19607 0.47101 0.0
C535 C 0.3802 0.17093 0.46807 0.0
C536 C 0.36492 0.14695 0.47294 0.0
C537 C 0.37427 0.14765 0.4804 0.0
C538 C 0.47135 0.24374 0.50849 0.0
C539 C 0.39225 0.21988 0.51197 0.0
O540 O 0.46366 0.22219 0.53 0.0
O541 O 0.41774 0.1985 0.53288 0.0
O542 O 0.38629 0.15946 0.52192 0.0
O543 O 0.41581 0.15978 0.5141 0.0
O544 O 0.47024 0.19452 0.5191 0.0
O545 O 0.45857 0.17353 0.50729 0.0
O546 O 0.39419 0.16009 0.49655 0.0
O547 O 0.43756 0.19109 0.49242 0.0
O548 O 0.47263 0.22894 0.50281 0.0
O549 O 0.44626 0.23081 0.51142 0.0
O550 O 0.39414 0.20486 0.5062 0.0
O551 O 0.4082 0.22454 0.51811 0.0
H552 H 0.40787 0.16601 0.54442 0.0
H553 H 0.41858 0.15323 0.5568 0.0
H554 H 0.50726 0.22377 0.55505 0.0
H555 H 0.49625 0.23699 0.54275 0.0
H556 H 0.43293 0.21614 0.48046 0.0
H557 H 0.41643 0.21513 0.46749 0.0
H558 H 0.34644 0.12708 0.47089 0.0
H559 H 0.36278 0.12833 0.48387 0.0
C560 C 0.7964 0.23328 0.53504 0.0
Eu561 Eu 0.8101 0.23425 0.52073 0.0
C562 C 0.80572 0.2504 0.54217 0.0
C563 C 0.83408 0.26196 0.54505 0.0
C564 C 0.84135 0.27547 0.55219 0.0
C565 C 0.82044 0.27768 0.55661 0.0
C566 C 0.79233 0.26679 0.55359 0.0
C567 C 0.78509 0.2533 0.54648 0.0
C568 C 0.86509 0.24936 0.51613 0.0
C569 C 0.8274 0.29709 0.51325 0.0
C570 C 0.83987 0.2468 0.49015 0.0
Eu571 Eu 0.81974 0.24231 0.50392 0.0
C572 C 0.83929 0.23304 0.48277 0.0
C573 C 0.81454 0.22079 0.47808 0.0
C574 C 0.81608 0.21245 0.47062 0.0
C575 C 0.84243 0.21633 0.46766 0.0
C576 C 0.86678 0.22747 0.47248 0.0
C577 C 0.86523 0.23574 0.47992 0.0
C578 C 0.76625 0.23149 0.50821 0.0
C579 C 0.79155 0.17652 0.51114 0.0
O580 O 0.78609 0.24233 0.52961 0.0
O581 O 0.81235 0.22277 0.53247 0.0
O582 O 0.85112 0.23102 0.52149 0.0
O583 O 0.84995 0.25974 0.51364 0.0
O584 O 0.81546 0.27895 0.51898 0.0
O585 O 0.83549 0.28918 0.50703 0.0
O586 O 0.85134 0.24138 0.49607 0.0
O587 O 0.81793 0.2504 0.49191 0.0
O588 O 0.78089 0.24815 0.50259 0.0
O589 O 0.77936 0.21919 0.51099 0.0
O590 O 0.80499 0.19384 0.5053 0.0
O591 O 0.78761 0.18687 0.51755 0.0
H592 H 0.85049 0.26002 0.54188 0.0
H593 H 0.86314 0.28334 0.55432 0.0
H594 H 0.77577 0.26854 0.55673 0.0
H595 H 0.76308 0.24455 0.5444 0.0
H596 H 0.79425 0.21862 0.48007 0.0
H597 H 0.79691 0.20416 0.46708 0.0
H598 H 0.88731 0.23032 0.47046 0.0
H599 H 0.88471 0.24531 0.48337 0.0
C600 C 0.89851 0.44206 0.65416 0.0
Eu601 Eu 0.91365 0.4427 0.66833 0.0
C602 C 0.89263 0.42534 0.64699 0.0
C603 C 0.91414 0.42157 0.64337 0.0
C604 C 0.90887 0.40809 0.63625 0.0
C605 C 0.88196 0.398 0.63257 0.0
C606 C 0.86029 0.40125 0.63629 0.0
C607 C 0.86561 0.41481 0.64339 0.0
C608 C 0.95517 0.42892 0.67233 0.0
C609 C 0.87065 0.38024 0.67625 0.0
C610 C 0.93639 0.43294 0.69868 0.0
Eu611 Eu 0.9185 0.43608 0.68508 0.0
C612 C 0.94898 0.44704 0.70608 0.0
C613 C 0.93508 0.45782 0.71077 0.0
C614 C 0.9446 0.46647 0.71823 0.0
C615 C 0.96821 0.46452 0.7212 0.0
C616 C 0.98274 0.45479 0.71638 0.0
C617 C 0.97319 0.44612 0.70893 0.0
C618 C 0.87423 0.4454 0.68137 0.0
C619 C 0.95267 0.5015 0.67757 0.0
O620 O 0.87978 0.43025 0.65969 0.0
O621 O 0.92535 0.45638 0.65659 0.0
O622 O 0.9579 0.44635 0.66688 0.0
O623 O 0.93022 0.4185 0.67519 0.0
O624 O 0.87492 0.39811 0.67058 0.0
O625 O 0.88824 0.38874 0.68217 0.0
O626 O 0.95318 0.44028 0.69269 0.0
O627 O 0.90985 0.42673 0.69709 0.0
O628 O 0.87376 0.4296 0.68703 0.0
O629 O 0.89905 0.45781 0.67828 0.0
O630 O 0.95151 0.48458 0.68325 0.0
O631 O 0.93638 0.4902 0.67148 0.0
H632 H 0.93524 0.42942 0.64597 0.0
H633 H 0.92594 0.40563 0.63363 0.0
H634 H 0.83945 0.39413 0.63362 0.0
H635 H 0.84873 0.41767 0.646 0.0
H636 H 0.91627 0.45873 0.70876 0.0
H637 H 0.93314 0.47428 0.72171 0.0
H638 H 1.00075 0.45263 0.71846 0.0
H639 H 0.98407 0.43752 0.7055 0.0
C640 C 0.56994 0.4588 0.65482 0.0
Eu641 Eu 0.56861 0.47306 0.66896 0.0
C642 C 0.58743 0.46931 0.64774 0.0
C643 C 0.59209 0.49475 0.64403 0.0
C644 C 0.60624 0.50266 0.63699 0.0
C645 C 0.61615 0.48537 0.63348 0.0
C646 C 0.61201 0.46029 0.6373 0.0
C647 C 0.59778 0.45235 0.64432 0.0
C648 C 0.5822 0.52814 0.67308 0.0
C649 C 0.63064 0.49203 0.6771 0.0
C650 C 0.57699 0.50436 0.69945 0.0
Eu651 Eu 0.5743 0.48379 0.6858 0.0
C652 C 0.56305 0.50354 0.70683 0.0
C653 C 0.55126 0.47885 0.71154 0.0
C654 C 0.54287 0.48024 0.719 0.0
C655 C 0.54611 0.50636 0.72196 0.0
C656 C 0.55686 0.53067 0.71712 0.0
C657 C 0.56525 0.52927 0.70968 0.0
C658 C 0.56494 0.43036 0.68192 0.0
C659 C 0.50935 0.45334 0.67798 0.0
O660 O 0.58057 0.45091 0.66042 0.0
O661 O 0.55637 0.47223 0.65714 0.0
O662 O 0.56514 0.51372 0.66754 0.0
O663 O 0.59243 0.51346 0.67598 0.0
O664 O 0.61317 0.47909 0.67131 0.0
O665 O 0.62177 0.50049 0.68308 0.0
O666 O 0.57066 0.51459 0.69343 0.0
O667 O 0.5822 0.48333 0.69787 0.0
O668 O 0.58046 0.44522 0.68766 0.0
O669 O 0.55285 0.44312 0.67884 0.0
O670 O 0.5259 0.46855 0.68379 0.0
O671 O 0.52096 0.44865 0.67191 0.0
H672 H 0.5844 0.50836 0.64649 0.0
H673 H 0.60937 0.52232 0.63429 0.0
H674 H 0.61897 0.44621 0.63476 0.0
H675 H 0.59424 0.43247 0.647 0.0
H676 H 0.54937 0.45868 0.70955 0.0
H677 H 0.53424 0.4609 0.72249 0.0
H678 H 0.56004 0.55127 0.71919 0.0
H679 H 0.57466 0.54877 0.70623 0.0
C680 C 0.55328 0.11336 0.6545 0.0
Eu681 Eu 0.53835 0.09806 0.66863 0.0
C682 C 0.54303 0.11999 0.64737 0.0
C683 C 0.51405 0.10338 0.64491 0.0
C684 C 0.50563 0.10878 0.63783 0.0
C685 C 0.52596 0.13096 0.63307 0.0
C686 C 0.55479 0.14788 0.63565 0.0
C687 C 0.56318 0.14242 0.6427 0.0
C688 C 0.48313 0.05665 0.67268 0.0
C689 C 0.51909 0.14109 0.67663 0.0
C690 C 0.50632 0.07518 0.69905 0.0
Eu691 Eu 0.52716 0.0931 0.68542 0.0
C692 C 0.50803 0.0627 0.70644 0.0
C693 C 0.53256 0.077 0.71116 0.0
C694 C 0.53177 0.06757 0.71863 0.0
C695 C 0.50643 0.04363 0.72158 0.0
C696 C 0.48235 0.02868 0.71674 0.0
C697 C 0.48314 0.03815 0.70928 0.0
C698 C 0.58082 0.13704 0.68165 0.0
C699 C 0.5577 0.05845 0.67776 0.0
O700 O 0.56069 0.13202 0.66006 0.0
O701 O 0.53963 0.08642 0.65686 0.0
O702 O 0.49766 0.05396 0.66718 0.0
O703 O 0.49775 0.08155 0.67556 0.0
O704 O 0.53239 0.13671 0.6709 0.0
O705 O 0.51027 0.12361 0.68258 0.0
O706 O 0.4969 0.05836 0.69306 0.0
O707 O 0.5265 0.10177 0.69743 0.0
O708 O 0.56579 0.13764 0.68736 0.0
O709 O 0.5681 0.11224 0.67856 0.0
O710 O 0.54234 0.05986 0.68352 0.0
O711 O 0.56261 0.07477 0.67168 0.0
H712 H 0.49801 0.08597 0.64841 0.0
H713 H 0.48317 0.09556 0.63609 0.0
H714 H 0.57117 0.16487 0.63213 0.0
H715 H 0.58568 0.1554 0.64445 0.0
H716 H 0.55208 0.09607 0.70918 0.0
H717 H 0.55091 0.07936 0.72214 0.0
H718 H 0.46234 0.01039 0.71879 0.0
H719 H 0.46377 0.02695 0.70582 0.0
C720 C 0.57836 0.07525 0.19937 0.0
Eu721 Eu 0.5759 0.0936 0.18577 0.0
C722 C 0.56447 0.06186 0.20673 0.0
C723 C 0.55119 0.0736 0.21131 0.0
C724 C 0.54292 0.06381 0.21878 0.0
C725 C 0.54793 0.04222 0.22186 0.0
C726 C 0.56008 0.02969 0.21714 0.0
C727 C 0.56825 0.03942 0.20968 0.0
C728 C 0.56621 0.13776 0.18216 0.0
C729 C 0.51156 0.05957 0.1778 0.0
C730 C 0.57208 0.11606 0.1549 0.0
Eu731 Eu 0.57098 0.1001 0.169 0.0
C732 C 0.58877 0.12251 0.14772 0.0
C733 C 0.59781 0.10373 0.14475 0.0
C734 C 0.61122 0.10913 0.13761 0.0
C735 C 0.61597 0.13346 0.13329 0.0
C736 C 0.60742 0.15249 0.13638 0.0
C737 C 0.59399 0.14704 0.1435 0.0
C738 C 0.58456 0.05833 0.17294 0.0
C739 C 0.63252 0.14252 0.17738 0.0
O740 O 0.57227 0.05894 0.19332 0.0
O741 O 0.58333 0.10145 0.19786 0.0
O742 O 0.58165 0.13805 0.18788 0.0
O743 O 0.55448 0.11326 0.17893 0.0
O744 O 0.52802 0.05955 0.18346 0.0
O745 O 0.52335 0.07737 0.172 0.0
O746 O 0.58374 0.13448 0.16049 0.0
O747 O 0.55804 0.08906 0.15721 0.0
O748 O 0.56756 0.05598 0.16742 0.0
O749 O 0.59468 0.08308 0.1759 0.0
O750 O 0.61527 0.13879 0.17159 0.0
O751 O 0.62343 0.12431 0.18318 0.0
H752 H 0.54817 0.09111 0.20923 0.0
H753 H 0.5338 0.07412 0.22224 0.0
H754 H 0.56382 0.01269 0.21925 0.0
H755 H 0.57863 0.03012 0.20631 0.0
H756 H 0.59414 0.08464 0.14788 0.0
H757 H 0.61784 0.09421 0.13548 0.0
H758 H 0.61031 0.17121 0.13321 0.0
H759 H 0.58702 0.16172 0.14563 0.0
C760 C 0.93186 0.50489 0.20019 0.0
Eu761 Eu 0.91904 0.48305 0.18653 0.0
C762 C 0.94221 0.50295 0.2079 0.0
C763 C 0.92222 0.49143 0.21391 0.0
C764 C 0.93172 0.49279 0.22138 0.0
C765 C 0.96156 0.50588 0.22308 0.0
C766 C 0.98156 0.51685 0.21703 0.0
C767 C 0.97202 0.51548 0.20955 0.0
C768 C 0.88435 0.42695 0.18219 0.0
C769 C 0.95248 0.45618 0.17746 0.0
C770 C 0.88981 0.45176 0.15503 0.0
Eu771 Eu 0.90826 0.47262 0.16858 0.0
C772 C 0.88546 0.46108 0.14741 0.0
C773 C 0.90287 0.46206 0.14129 0.0
C774 C 0.89792 0.46889 0.13397 0.0
C775 C 0.87524 0.47476 0.13255 0.0
C776 C 0.85802 0.4741 0.1387 0.0
C777 C 0.86303 0.46732 0.14603 0.0
C778 C 0.94915 0.52953 0.17169 0.0
C779 C 0.86908 0.49282 0.17797 0.0
O780 O 0.95048 0.51431 0.19455 0.0
O781 O 0.90582 0.4845 0.19814 0.0
O782 O 0.90066 0.43463 0.18821 0.0
O783 O 0.88557 0.44905 0.17912 0.0
O784 O 0.95423 0.47291 0.18325 0.0
O785 O 0.93375 0.45016 0.17182 0.0
O786 O 0.87265 0.45047 0.16054 0.0
O787 O 0.91664 0.4615 0.15729 0.0
O788 O 0.94078 0.5194 0.16491 0.0
O789 O 0.93556 0.5088 0.17621 0.0
O790 O 0.87434 0.48473 0.17135 0.0
O791 O 0.88392 0.49491 0.18423 0.0
H792 H 0.89914 0.48216 0.21288 0.0
H793 H 0.91563 0.48451 0.22586 0.0
H794 H 1.00468 0.52677 0.21809 0.0
H795 H 0.9881 0.52488 0.20508 0.0
H796 H 0.92019 0.45718 0.14215 0.0
H797 H 0.91195 0.4696 0.12943 0.0
H798 H 0.84012 0.47809 0.13784 0.0
H799 H 0.84898 0.46654 0.15058 0.0
C800 C 0.50396 0.42889 0.19918 0.0
Eu801 Eu 0.5268 0.43852 0.18564 0.0
C802 C 0.50543 0.44138 0.20682 0.0
C803 C 0.52879 0.44845 0.21178 0.0
C804 C 0.52792 0.45661 0.21929 0.0
C805 C 0.50367 0.45788 0.22205 0.0
C806 C 0.48071 0.45157 0.217 0.0
C807 C 0.48156 0.44334 0.20951 0.0
C808 C 0.58328 0.46012 0.18159 0.0
C809 C 0.55467 0.49974 0.17693 0.0
C810 C 0.56122 0.44328 0.15439 0.0
Eu811 Eu 0.53899 0.43996 0.1678 0.0
C812 C 0.55187 0.42937 0.14687 0.0
C813 C 0.52308 0.41769 0.14434 0.0
C814 C 0.51487 0.40472 0.13716 0.0
C815 C 0.53523 0.40297 0.1324 0.0
C816 C 0.564 0.41461 0.135 0.0
C817 C 0.57219 0.42765 0.14215 0.0
C818 C 0.48166 0.42335 0.17053 0.0
C819 C 0.51791 0.3796 0.17682 0.0
O820 O 0.49466 0.43801 0.1935 0.0
O821 O 0.52463 0.4235 0.19722 0.0
O822 O 0.57516 0.46859 0.18757 0.0
O823 O 0.56143 0.43944 0.17841 0.0
O824 O 0.53735 0.48423 0.18258 0.0
O825 O 0.56122 0.48753 0.17128 0.0
O826 O 0.56199 0.42701 0.15986 0.0
O827 O 0.55096 0.45996 0.15661 0.0
O828 O 0.49255 0.42574 0.16383 0.0
O829 O 0.5019 0.4302 0.17519 0.0
O830 O 0.52737 0.39406 0.17038 0.0
O831 O 0.51441 0.39143 0.18309 0.0
H832 H 0.5475 0.44706 0.20992 0.0
H833 H 0.54618 0.4617 0.22296 0.0
H834 H 0.46151 0.45191 0.21892 0.0
H835 H 0.46304 0.43761 0.20587 0.0
H836 H 0.50694 0.41856 0.14791 0.0
H837 H 0.49246 0.3957 0.13539 0.0
H838 H 0.58037 0.41403 0.13147 0.0
H839 H 0.59452 0.43652 0.14398 0.0
C840 C 0.41162 0.24902 0.99064 0.0
Eu841 Eu 0.42634 0.23926 1.00398 0.0
C842 C 0.39973 0.23729 0.983 0.0
C843 C 0.41592 0.23182 0.97761 0.0
C844 C 0.40616 0.22485 0.97011 0.0
C845 C 0.38003 0.22333 0.96779 0.0
C846 C 0.36345 0.2279 0.97326 0.0
C847 C 0.37321 0.23487 0.98075 0.0
C848 C 0.46125 0.21759 1.00785 0.0
C849 C 0.39414 0.1782 0.0129 0.0
C850 C 0.4578 0.23643 0.03522 0.0
Eu851 Eu 0.43815 0.23879 0.02184 0.0
C852 C 0.46221 0.25019 0.04278 0.0
C853 C 0.44062 0.25407 0.04629 0.0
C854 C 0.4452 0.26644 0.05354 0.0
C855 C 0.4715 0.27531 0.05743 0.0
C856 C 0.49317 0.27175 0.05382 0.0
C857 C 0.48854 0.2593 0.0466 0.0
C858 C 0.39714 0.25505 0.01914 0.0
C859 C 0.47749 0.29836 0.01246 0.0
O860 O 0.39383 0.23977 0.99646 0.0
O861 O 0.4378 0.25409 0.99233 0.0
O862 O 0.44493 0.20971 1.00182 0.0
O863 O 0.46011 0.23816 1.01114 0.0
O864 O 0.39225 0.19316 1.0071 0.0
O865 O 0.41261 0.19094 0.01858 0.0
O866 O 0.47445 0.25295 0.02973 0.0
O867 O 0.43098 0.21889 0.03302 0.0
O868 O 0.40584 0.2529 0.02583 0.0
O869 O 0.41044 0.24806 0.01448 0.0
O870 O 0.47218 0.2848 0.01905 0.0
O871 O 0.4624 0.28591 1.00621 0.0
H872 H 0.43662 0.2338 0.97911 0.0
H873 H 0.4197 0.22178 0.96606 0.0
H874 H 0.34301 0.22645 0.97175 0.0
H875 H 0.36037 0.23923 0.98475 0.0
H876 H 0.42011 0.24734 0.04346 0.0
H877 H 0.42787 0.26854 0.05614 0.0
H878 H 0.51391 0.27877 0.05654 0.0
H879 H 0.50558 0.25669 0.044 0.0
C880 C 0.76595 0.16998 0.99059 0.0
Eu881 Eu 0.76897 0.19128 1.00416 0.0
C882 C 0.77992 0.17132 0.98317 0.0
C883 C 0.7904 0.1958 0.97842 0.0
C884 C 0.79888 0.19472 0.97095 0.0
C885 C 0.79706 0.16916 0.96803 0.0
C886 C 0.78763 0.1451 0.97291 0.0
C887 C 0.77912 0.14618 0.98037 0.0
C888 C 0.77877 0.24512 1.00773 0.0
C889 C 0.83407 0.22233 0.01182 0.0
C890 C 0.77458 0.21828 0.03505 0.0
Eu891 Eu 0.7752 0.20331 0.02093 0.0
C892 C 0.75826 0.20787 0.04229 0.0
C893 C 0.75353 0.1821 0.04582 0.0
C894 C 0.74059 0.17436 0.05302 0.0
C895 C 0.73212 0.19219 0.05687 0.0
C896 C 0.7362 0.21754 0.0532 0.0
C897 C 0.74914 0.22527 0.04603 0.0
C898 C 0.76148 0.14793 0.01704 0.0
C899 C 0.7132 0.18424 0.01282 0.0
O900 O 0.77345 0.16079 0.9966 0.0
O901 O 0.75957 0.19022 0.99214 0.0
O902 O 0.76318 0.22996 1.00203 0.0
O903 O 0.79074 0.23248 1.01091 0.0
O904 O 0.81725 0.20598 1.00619 0.0
O905 O 0.82263 0.22811 0.01775 0.0
O906 O 0.76239 0.22465 0.0295 0.0
O907 O 0.78906 0.20587 0.03266 0.0
O908 O 0.77874 0.1627 0.0225 0.0
O909 O 0.75109 0.16241 0.01413 0.0
O910 O 0.73111 0.19831 0.01845 0.0
O911 O 0.72159 0.17431 1.00705 0.0
H912 H 0.7912 0.21551 0.98038 0.0
H913 H 0.80647 0.21385 0.96742 0.0
H914 H 0.78556 0.12492 0.97088 0.0
H915 H 0.77074 0.12685 0.98385 0.0
H916 H 0.76038 0.16822 0.04312 0.0
H917 H 0.73808 0.15482 0.05566 0.0
H918 H 0.7295 0.23157 0.05589 0.0
H919 H 0.75256 0.24527 0.04345 0.0
C920 C 0.83537 0.5934 0.9897 0.0
Eu921 Eu 0.81848 0.58499 1.00386 0.0
C922 C 0.83291 0.60383 0.98204 0.0
C923 C 0.811 0.58551 0.97694 0.0
C924 C 0.81139 0.59404 0.96939 0.0
C925 C 0.83377 0.62104 0.96672 0.0
C926 C 0.85522 0.63963 0.97189 0.0
C927 C 0.85484 0.63111 0.97943 0.0
C928 C 0.76339 0.55232 1.00922 0.0
C929 C 0.79427 0.62222 0.01238 0.0
C930 C 0.81227 0.57569 0.03556 0.0
Eu931 Eu 0.81546 0.58313 0.02087 0.0
C932 C 0.81115 0.55839 0.0423 0.0
C933 C 0.83221 0.55012 0.04352 0.0
C934 C 0.83468 0.53952 0.0506 0.0
C935 C 0.81619 0.53697 0.05664 0.0
C936 C 0.79408 0.54369 0.05524 0.0
C937 C 0.79167 0.55434 0.04817 0.0
C938 C 0.86553 0.62767 0.01484 0.0
C939 C 0.82691 0.53548 0.01242 0.0
O940 O 0.84842 0.61273 0.99506 0.0
O941 O 0.81381 0.5689 0.99226 0.0
O942 O 0.77021 0.56871 1.00324 0.0
O943 O 0.78578 0.55313 0.01198 0.0
O944 O 0.81028 0.62229 1.0066 0.0
O945 O 0.78952 0.60516 0.01829 0.0
O946 O 0.78919 0.56727 0.0313 0.0
O947 O 0.83653 0.58842 0.03171 0.0
O948 O 0.85082 0.63072 0.02025 0.0
O949 O 0.8525 0.60157 0.0127 0.0
O950 O 0.82185 0.54469 0.01888 0.0
O951 O 0.82788 0.54823 1.0059 0.0
H952 H 0.79394 0.56422 0.97871 0.0
H953 H 0.79427 0.57926 0.96562 0.0
H954 H 0.87306 0.66038 0.97006 0.0
H955 H 0.87238 0.64555 0.98315 0.0
H956 H 0.8477 0.55313 0.03912 0.0
H957 H 0.85208 0.53477 0.05143 0.0
H958 H 0.77902 0.54145 0.05968 0.0
H959 H 0.77536 0.5607 0.04742 0.0
C960 C 0.43916 0.89514 0.86827 0.0
Eu961 Eu 0.44018 0.90892 0.85396 0.0
C962 C 0.42191 0.88856 0.8754 0.0
C963 C 0.42219 0.91081 0.8798 0.0
C964 C 0.40853 0.90469 0.8869 0.0
C965 C 0.39432 0.87618 0.88983 0.0
C966 C 0.39351 0.85387 0.88533 0.0
C967 C 0.40717 0.86 0.87824 0.0
C968 C 0.42689 0.95017 0.84937 0.0
C969 C 0.37788 0.8656 0.84602 0.0
C970 C 0.43173 0.92899 0.82332 0.0
Eu971 Eu 0.43423 0.91237 0.83714 0.0
C972 C 0.4463 0.9416 0.81596 0.0
C973 C 0.45594 0.9269 0.81119 0.0
C974 C 0.46495 0.93653 0.80375 0.0
C975 C 0.4645 0.96107 0.80088 0.0
C976 C 0.45592 0.97637 0.80577 0.0
C977 C 0.44687 0.9667 0.81319 0.0
C978 C 0.44344 0.86846 0.84134 0.0
C979 C 0.49916 0.94736 0.84485 0.0
O980 O 0.42882 0.87599 0.8628 0.0
O981 O 0.45222 0.92186 0.86573 0.0
O982 O 0.44454 0.95371 0.85484 0.0
O983 O 0.41627 0.92484 0.84677 0.0
O984 O 0.39544 0.87035 0.85181 0.0
O985 O 0.38676 0.88248 0.83997 0.0
O986 O 0.4378 0.946 0.82923 0.0
O987 O 0.42639 0.90287 0.82511 0.0
O988 O 0.42759 0.86736 0.83563 0.0
O989 O 0.45579 0.89359 0.84426 0.0
O990 O 0.48244 0.94619 0.8391 0.0
O991 O 0.48763 0.931 0.85091 0.0
H992 H 0.4336 0.93314 0.87785 0.0
H993 H 0.40997 0.92253 0.89021 0.0
H994 H 0.38245 0.83159 0.88732 0.0
H995 H 0.40674 0.84239 0.87504 0.0
H996 H 0.45566 0.90738 0.81311 0.0
H997 H 0.47183 0.92444 0.80021 0.0
H998 H 0.45493 0.99513 0.80376 0.0
H999 H 0.43914 0.97823 0.81668 0.0
C1000 C 0.11052 0.54518 0.86793 0.0
Eu1001 Eu 0.09779 0.53139 0.85363 0.0
C1002 C 0.11785 0.53548 0.87507 0.0
C1003 C 0.10077 0.50701 0.87786 0.0
C1004 C 0.10663 0.49932 0.88498 0.0
C1005 C 0.12973 0.51985 0.88947 0.0
C1006 C 0.14717 0.54811 0.88656 0.0
C1007 C 0.14125 0.5558 0.87946 0.0
C1008 C 0.05785 0.47621 0.8492 0.0
C1009 C 0.14307 0.51364 0.84622 0.0
C1010 C 0.07994 0.50075 0.82316 0.0
Eu1011 Eu 0.0959 0.52098 0.83692 0.0
C1012 C 0.06802 0.50298 0.81572 0.0
C1013 C 0.08386 0.52678 0.81084 0.0
C1014 C 0.07452 0.52629 0.80338 0.0
C1015 C 0.04914 0.50201 0.80059 0.0
C1016 C 0.0328 0.47871 0.80557 0.0
C1017 C 0.04218 0.47918 0.81302 0.0
C1018 C 0.13847 0.57479 0.84099 0.0
C1019 C 0.05865 0.54979 0.84402 0.0
O1020 O 0.12994 0.55504 0.86252 0.0
O1021 O 0.08405 0.52969 0.86533 0.0
O1022 O 0.05332 0.49064 0.85439 0.0
O1023 O 0.08339 0.4911 0.84673 0.0
O1024 O 0.13755 0.52668 0.85181 0.0
O1025 O 0.12624 0.50442 0.84016 0.0
O1026 O 0.06249 0.4907 0.82902 0.0
O1027 O 0.10625 0.52103 0.82499 0.0
O1028 O 0.14045 0.55996 0.83542 0.0
O1029 O 0.11317 0.56171 0.84381 0.0
O1030 O 0.06225 0.53591 0.83824 0.0
O1031 O 0.07324 0.55414 0.85039 0.0
H1032 H 0.08259 0.4908 0.87461 0.0
H1033 H 0.09298 0.47725 0.88698 0.0
H1034 H 0.16491 0.56464 0.88987 0.0
H1035 H 0.15461 0.57795 0.87748 0.0
H1036 H 0.10396 0.54545 0.81271 0.0
H1037 H 0.08745 0.54484 0.79976 0.0
H1038 H 0.01335 0.45948 0.80363 0.0
H1039 H 0.02974 0.46033 0.81659 0.0
C1040 C 0.45118 0.56439 0.86942 0.0
Eu1041 Eu 0.47296 0.5676 0.85594 0.0
C1042 C 0.46061 0.57764 0.87701 0.0
C1043 C 0.48965 0.59009 0.8794 0.0
C1044 C 0.49787 0.60224 0.88667 0.0
C1045 C 0.47723 0.60225 0.8917 0.0
C1046 C 0.44823 0.58997 0.88921 0.0
C1047 C 0.44007 0.57782 0.88196 0.0
C1048 C 0.53016 0.58423 0.853 0.0
C1049 C 0.49358 0.62776 0.8468 0.0
C1050 C 0.50773 0.57837 0.8244 0.0
Eu1051 Eu 0.48487 0.569 0.83795 0.0
C1052 C 0.50601 0.56617 0.81669 0.0
C1053 C 0.48296 0.56013 0.81171 0.0
C1054 C 0.48369 0.55226 0.80416 0.0
C1055 C 0.5075 0.55026 0.80136 0.0
C1056 C 0.53015 0.55557 0.80642 0.0
C1057 C 0.52944 0.5635 0.81396 0.0
C1058 C 0.42838 0.54716 0.84206 0.0
C1059 C 0.45699 0.50779 0.84679 0.0
O1060 O 0.45107 0.58131 0.86404 0.0
O1061 O 0.46078 0.54726 0.86709 0.0
O1062 O 0.51963 0.582 0.85974 0.0
O1063 O 0.50964 0.57721 0.84842 0.0
O1064 O 0.484 0.61326 0.85323 0.0
O1065 O 0.49731 0.61606 0.84054 0.0
O1066 O 0.5164 0.56845 0.83004 0.0
O1067 O 0.48767 0.5846 0.8264 0.0
O1068 O 0.43652 0.5396 0.83593 0.0
O1069 O 0.45031 0.56755 0.8453 0.0
O1070 O 0.47371 0.52306 0.84101 0.0
O1071 O 0.4509 0.52008 0.85251 0.0
H1072 H 0.50594 0.59028 0.87567 0.0
H1073 H 0.52032 0.61121 0.88839 0.0
H1074 H 0.43179 0.59 0.89283 0.0
H1075 H 0.41759 0.56852 0.88022 0.0
H1076 H 0.4646 0.56211 0.81359 0.0
H1077 H 0.46564 0.54795 0.80048 0.0
H1078 H 0.54904 0.55466 0.80449 0.0
H1079 H 0.54774 0.56844 0.81761 0.0
C1080 C 0.56347 0.7747 0.98825 0.0
Eu1081 Eu 0.57923 0.77593 1.00238 0.0
C1082 C 0.55742 0.75764 0.98113 0.0
C1083 C 0.57929 0.7551 0.9773 0.0
C1084 C 0.57366 0.74109 0.97025 0.0
C1085 C 0.54603 0.72924 0.96685 0.0
C1086 C 0.52406 0.73132 0.97078 0.0
C1087 C 0.52973 0.74541 0.97781 0.0
C1088 C 0.62051 0.76165 1.00626 0.0
C1089 C 0.53597 0.71425 1.0105 0.0
C1090 C 0.60298 0.76652 0.03266 0.0
Eu1091 Eu 0.58491 0.76975 0.01909 0.0
C1092 C 0.61605 0.78028 0.04005 0.0
C1093 C 0.6032 0.79202 0.04479 0.0
C1094 C 0.61304 0.80027 0.05225 0.0
C1095 C 0.63581 0.79676 0.05517 0.0
C1096 C 0.64937 0.78614 0.05029 0.0
C1097 C 0.63958 0.77799 0.04285 0.0
C1098 C 0.54107 0.78003 0.01553 0.0
C1099 C 0.61946 0.83475 1.01138 0.0
O1100 O 0.54501 0.76297 0.99384 0.0
O1101 O 0.59038 0.78938 0.99061 0.0
O1102 O 0.6232 0.77904 1.0008 0.0
O1103 O 0.59571 0.75149 1.00919 0.0
O1104 O 0.53971 0.73237 1.00493 0.0
O1105 O 0.55455 0.72237 0.01619 0.0
O1106 O 0.61953 0.77339 0.02664 0.0
O1107 O 0.5766 0.76102 0.03114 0.0
O1108 O 0.54048 0.76412 0.02117 0.0
O1109 O 0.56573 0.79192 0.01236 0.0
O1110 O 0.61889 0.81788 0.01702 0.0
O1111 O 0.60216 0.82338 1.00547 0.0
H1112 H 0.60091 0.76428 0.97968 0.0
H1113 H 0.59102 0.73959 0.96745 0.0
H1114 H 0.50265 0.72284 0.96832 0.0
H1115 H 0.51253 0.74729 0.98058 0.0
H1116 H 0.58485 0.79387 0.04283 0.0
H1117 H 0.60193 0.80818 0.05584 0.0
H1118 H 0.66728 0.78361 0.05228 0.0
H1119 H 0.64976 0.76881 0.03935 0.0
C1120 C 0.23455 0.7865 0.98798 0.0
Eu1121 Eu 0.23854 0.80819 1.00148 0.0
C1122 C 0.24903 0.7955 0.9805 0.0
C1123 C 0.26355 0.82474 0.97818 0.0
C1124 C 0.2763 0.83257 0.97097 0.0
C1125 C 0.27495 0.81135 0.96592 0.0
C1126 C 0.2606 0.78213 0.96833 0.0
C1127 C 0.24781 0.77435 0.97552 0.0
C1128 C 0.2603 0.8666 1.00444 0.0
C1129 C 0.29952 0.829 1.01019 0.0
C1130 C 0.24671 0.8432 0.03283 0.0
Eu1131 Eu 0.24377 0.82103 0.01938 0.0
C1132 C 0.23354 0.83998 0.04049 0.0
C1133 C 0.24106 0.82738 0.04645 0.0
C1134 C 0.23268 0.82841 0.05392 0.0
C1135 C 0.21662 0.84219 0.05569 0.0
C1136 C 0.20832 0.85401 0.04968 0.0
C1137 C 0.21677 0.85302 0.04219 0.0
C1138 C 0.23469 0.76774 0.01536 0.0
C1139 C 0.17941 0.79167 1.01112 0.0
O1140 O 0.24952 0.78368 0.99349 0.0
O1141 O 0.2195 0.79865 0.99019 0.0
O1142 O 0.25531 0.85557 0.9977 0.0
O1143 O 0.25314 0.84596 1.00897 0.0
O1144 O 0.28181 0.81308 1.00469 0.0
O1145 O 0.2909 0.83962 0.01579 0.0
O1146 O 0.23494 0.84851 0.02696 0.0
O1147 O 0.25777 0.82672 0.03115 0.0
O1148 O 0.24777 0.78124 0.02153 0.0
O1149 O 0.22412 0.7815 0.01205 0.0
O1150 O 0.19508 0.8031 0.01738 0.0
O1151 O 0.19121 0.79015 1.00463 0.0
H1152 H 0.26492 0.84152 0.98194 0.0
H1153 H 0.28746 0.85531 0.96937 0.0
H1154 H 0.25874 0.76511 0.96459 0.0
H1155 H 0.23667 0.75165 0.97717 0.0
H1156 H 0.25444 0.81765 0.04541 0.0
H1157 H 0.23992 0.81944 0.05836 0.0
H1158 H 0.19561 0.86444 0.05076 0.0
H1159 H 0.2109 0.8633 0.03778 0.0
C1160 C 0.21698 0.44625 0.98744 0.0
Eu1161 Eu 0.20297 0.43189 1.00167 0.0
C1162 C 0.20645 0.45239 0.98025 0.0
C1163 C 0.1813 0.43103 0.97656 0.0
C1164 C 0.17356 0.43642 0.96939 0.0
C1165 C 0.1908 0.46327 0.96571 0.0
C1166 C 0.2155 0.48484 0.96953 0.0
C1167 C 0.22323 0.47942 0.97668 0.0
C1168 C 0.14767 0.39112 1.00586 0.0
C1169 C 0.18547 0.47646 1.00958 0.0
C1170 C 0.17252 0.41117 0.03216 0.0
Eu1171 Eu 0.19252 0.42797 0.01841 0.0
C1172 C 0.17403 0.39843 0.03954 0.0
C1173 C 0.19881 0.41213 0.0442 0.0
C1174 C 0.19802 0.40259 0.05166 0.0
C1175 C 0.17242 0.37915 0.05467 0.0
C1176 C 0.14803 0.36481 0.04989 0.0
C1177 C 0.14883 0.37439 0.04244 0.0
C1178 C 0.24616 0.47127 0.01441 0.0
C1179 C 0.22229 0.39237 1.01083 0.0
O1180 O 0.22463 0.46526 0.99292 0.0
O1181 O 0.20382 0.41949 0.98994 0.0
O1182 O 0.16204 0.38791 1.00041 0.0
O1183 O 0.16254 0.41616 1.00865 0.0
O1184 O 0.19829 0.47138 1.00385 0.0
O1185 O 0.17644 0.45916 0.01556 0.0
O1186 O 0.16185 0.39427 0.02622 0.0
O1187 O 0.19351 0.43725 0.03043 0.0
O1188 O 0.23122 0.47276 0.02002 0.0
O1189 O 0.23325 0.44619 1.01149 0.0
O1190 O 0.20717 0.39417 0.01659 0.0
O1191 O 0.22716 0.40853 1.00472 0.0
H1192 H 0.16791 0.40987 0.97912 0.0
H1193 H 0.15456 0.41915 0.96663 0.0
H1194 H 0.22906 0.50596 0.96697 0.0
H1195 H 0.24278 0.49626 0.97936 0.0
H1196 H 0.21858 0.43081 0.04217 0.0
H1197 H 0.21739 0.41391 0.05511 0.0
H1198 H 0.12782 0.34693 0.05199 0.0
H1199 H 0.12926 0.36367 0.03904 0.0
C1200 C 0.24932 0.41109 0.5322 0.0
Eu1201 Eu 0.23941 0.4242 0.51867 0.0
C1202 C 0.23708 0.4002 0.53988 0.0
C1203 C 0.22886 0.41589 0.54473 0.0
C1204 C 0.2208 0.407 0.55226 0.0
C1205 C 0.22077 0.38223 0.55515 0.0
C1206 C 0.2283 0.3662 0.55022 0.0
C1207 C 0.2364 0.37512 0.5427 0.0
C1208 C 0.21773 0.45897 0.51455 0.0
C1209 C 0.17784 0.39054 0.51007 0.0
C1210 C 0.23372 0.45252 0.48727 0.0
Eu1211 Eu 0.23733 0.43411 0.50073 0.0
C1212 C 0.24725 0.45678 0.4797 0.0
C1213 C 0.2565 0.43799 0.47687 0.0
C1214 C 0.26896 0.44243 0.46963 0.0
C1215 C 0.27261 0.46586 0.46508 0.0
C1216 C 0.26344 0.48467 0.46798 0.0
C1217 C 0.2509 0.48014 0.47519 0.0
C1218 C 0.25398 0.39354 0.50361 0.0
C1219 C 0.29795 0.47385 0.50966 0.0
O1220 O 0.23993 0.39258 0.52655 0.0
O1221 O 0.25478 0.43716 0.53023 0.0
O1222 O 0.20997 0.44317 0.52067 0.0
O1223 O 0.23802 0.4573 0.5113 0.0
O1224 O 0.19341 0.38936 0.51581 0.0
O1225 O 0.18984 0.40864 0.50428 0.0
O1226 O 0.25023 0.46975 0.49267 0.0
O1227 O 0.21698 0.4257 0.48958 0.0
O1228 O 0.25143 0.40171 0.49687 0.0
O1229 O 0.24729 0.40721 0.50823 0.0
O1230 O 0.28329 0.46857 0.50324 0.0
O1231 O 0.28636 0.45877 0.51598 0.0
H1232 H 0.22923 0.43539 0.54277 0.0
H1233 H 0.21477 0.41969 0.55584 0.0
H1234 H 0.22896 0.34726 0.55223 0.0
H1235 H 0.24302 0.36282 0.53914 0.0
H1236 H 0.25413 0.4199 0.48025 0.0
H1237 H 0.27607 0.42771 0.46763 0.0
H1238 H 0.26552 0.50269 0.46463 0.0
H1239 H 0.2439 0.49489 0.47725 0.0
C1240 C 0.59946 0.83779 0.53281 0.0
Eu1241 Eu 0.58306 0.81805 0.51901 0.0
C1242 C 0.60985 0.83477 0.54042 0.0
C1243 C 0.59006 0.82346 0.54648 0.0
C1244 C 0.59973 0.82451 0.55392 0.0
C1245 C 0.62957 0.83704 0.55555 0.0
C1246 C 0.64936 0.84761 0.54945 0.0
C1247 C 0.63965 0.84661 0.54199 0.0
C1248 C 0.53958 0.76424 0.51514 0.0
C1249 C 0.61851 0.78805 0.51151 0.0
C1250 C 0.56607 0.79456 0.48803 0.0
Eu1251 Eu 0.57959 0.80762 0.50234 0.0
C1252 C 0.55972 0.80507 0.48086 0.0
C1253 C 0.58126 0.82966 0.47701 0.0
C1254 C 0.57563 0.83724 0.46984 0.0
C1255 C 0.54838 0.82039 0.46632 0.0
C1256 C 0.52667 0.79626 0.47029 0.0
C1257 C 0.53231 0.78868 0.47744 0.0
C1258 C 0.62048 0.86273 0.50671 0.0
C1259 C 0.53571 0.82598 0.51008 0.0
O1260 O 0.61726 0.84632 0.527 0.0
O1261 O 0.57267 0.81912 0.5309 0.0
O1262 O 0.53849 0.7793 0.52077 0.0
O1263 O 0.56453 0.77705 0.51213 0.0
O1264 O 0.6169 0.80349 0.51722 0.0
O1265 O 0.60225 0.78291 0.50543 0.0
O1266 O 0.5468 0.78603 0.49347 0.0
O1267 O 0.59271 0.80819 0.4906 0.0
O1268 O 0.62444 0.84808 0.50148 0.0
O1269 O 0.59505 0.84808 0.50925 0.0
O1270 O 0.53984 0.81175 0.50455 0.0
O1271 O 0.55384 0.83613 0.51587 0.0
H1272 H 0.56702 0.81475 0.54552 0.0
H1273 H 0.58377 0.81657 0.55843 0.0
H1274 H 0.67247 0.85706 0.55044 0.0
H1275 H 0.65558 0.85586 0.53749 0.0
H1276 H 0.60272 0.84269 0.47943 0.0
H1277 H 0.59302 0.85579 0.46696 0.0
H1278 H 0.50527 0.78301 0.46785 0.0
H1279 H 0.51532 0.76953 0.48024 0.0
C1280 C 0.17284 0.76191 0.53373 0.0
Eu1281 Eu 0.19189 0.76544 0.51988 0.0
C1282 C 0.17462 0.77636 0.54108 0.0
C1283 C 0.19932 0.78696 0.54576 0.0
C1284 C 0.19872 0.79605 0.55319 0.0
C1285 C 0.17341 0.79472 0.55614 0.0
C1286 C 0.14913 0.78512 0.55134 0.0
C1287 C 0.14973 0.776 0.54393 0.0
C1288 C 0.24518 0.77618 0.51546 0.0
C1289 C 0.21993 0.83096 0.5125 0.0
C1290 C 0.21309 0.77254 0.48877 0.0
Eu1291 Eu 0.20072 0.77271 0.50314 0.0
C1292 C 0.20269 0.75464 0.48176 0.0
C1293 C 0.17659 0.74873 0.47819 0.0
C1294 C 0.1687 0.73439 0.47119 0.0
C1295 C 0.18666 0.72557 0.46757 0.0
C1296 C 0.2124 0.7309 0.47124 0.0
C1297 C 0.22034 0.74533 0.47823 0.0
C1298 C 0.14607 0.75819 0.5079 0.0
C1299 C 0.18324 0.71002 0.51081 0.0
O1300 O 0.16138 0.76763 0.52787 0.0
O1301 O 0.19408 0.75735 0.53187 0.0
O1302 O 0.23068 0.75929 0.52105 0.0
O1303 O 0.232 0.78843 0.51273 0.0
O1304 O 0.20652 0.81385 0.51837 0.0
O1305 O 0.22375 0.82029 0.50613 0.0
O1306 O 0.22382 0.76384 0.49417 0.0
O1307 O 0.19778 0.78369 0.4914 0.0
O1308 O 0.16015 0.77684 0.50261 0.0
O1309 O 0.16103 0.74747 0.51027 0.0
O1310 O 0.19539 0.72791 0.50503 0.0
O1311 O 0.17519 0.71838 0.51694 0.0
H1312 H 0.21884 0.78742 0.54378 0.0
H1313 H 0.21798 0.80372 0.55666 0.0
H1314 H 0.12914 0.78342 0.55341 0.0
H1315 H 0.13023 0.76753 0.54051 0.0
H1316 H 0.16246 0.75562 0.48073 0.0
H1317 H 0.14854 0.73032 0.46858 0.0
H1318 H 0.22697 0.72478 0.46861 0.0
H1319 H 0.24072 0.74987 0.48079 0.0
C1320 C 0.07949 0.58097 0.32485 0.0
Eu1321 Eu 0.0922 0.57082 0.33841 0.0
C1322 C 0.06984 0.56908 0.31708 0.0
C1323 C 0.09046 0.57522 0.31132 0.0
C1324 C 0.08177 0.56748 0.30379 0.0
C1325 C 0.05218 0.55352 0.30176 0.0
C1326 C 0.03148 0.54671 0.30754 0.0
C1327 C 0.04019 0.5545 0.31509 0.0
C1328 C 0.12687 0.54884 0.34237 0.0
C1329 C 0.05872 0.50919 0.34695 0.0
C1330 C 0.12067 0.56458 0.36974 0.0
Eu1331 Eu 0.10244 0.56853 0.35629 0.0
C1332 C 0.1244 0.57761 0.37736 0.0
C1333 C 0.1057 0.5871 0.3801 0.0
C1334 C 0.10962 0.59908 0.38739 0.0
C1335 C 0.13237 0.6019 0.39209 0.0
C1336 C 0.15118 0.59259 0.38925 0.0
C1337 C 0.1472 0.58059 0.38199 0.0
C1338 C 0.06204 0.58563 0.35354 0.0
C1339 C 0.14237 0.6291 0.34737 0.0
O1340 O 0.06057 0.57052 0.33042 0.0
O1341 O 0.10574 0.5875 0.32697 0.0
O1342 O 0.11086 0.5412 0.33629 0.0
O1343 O 0.12545 0.56917 0.34568 0.0
O1344 O 0.05702 0.52496 0.34134 0.0
O1345 O 0.07729 0.52112 0.35265 0.0
O1346 O 0.13789 0.58162 0.36441 0.0
O1347 O 0.094 0.54757 0.36736 0.0
O1348 O 0.07035 0.58298 0.36024 0.0
O1349 O 0.07547 0.57878 0.34888 0.0
O1350 O 0.13748 0.61422 0.35374 0.0
O1351 O 0.12668 0.61778 0.34113 0.0
H1352 H 0.1135 0.58673 0.3126 0.0
H1353 H 0.09834 0.57274 0.29953 0.0
H1354 H 0.00853 0.53629 0.30621 0.0
H1355 H 0.0237 0.54985 0.31933 0.0
H1356 H 0.08799 0.58514 0.37663 0.0
H1357 H 0.09451 0.60569 0.38938 0.0
H1358 H 0.16926 0.59487 0.39261 0.0
H1359 H 0.16202 0.57361 0.37997 0.0
C1360 C 0.43101 0.50091 0.32362 0.0
Eu1361 Eu 0.43419 0.52259 0.33713 0.0
C1362 C 0.44537 0.50236 0.31628 0.0
C1363 C 0.45686 0.52722 0.31164 0.0
C1364 C 0.46591 0.52639 0.30422 0.0
C1365 C 0.46365 0.50071 0.30125 0.0
C1366 C 0.45319 0.47625 0.30602 0.0
C1367 C 0.44412 0.47708 0.31343 0.0
C1368 C 0.44469 0.57658 0.34074 0.0
C1369 C 0.49937 0.55231 0.34475 0.0
C1370 C 0.44028 0.54979 0.368 0.0
Eu1371 Eu 0.44077 0.53445 0.35392 0.0
C1372 C 0.42292 0.53968 0.37509 0.0
C1373 C 0.41656 0.51335 0.3786 0.0
C1374 C 0.4026 0.50568 0.38567 0.0
C1375 C 0.39465 0.52413 0.3894 0.0
C1376 C 0.40037 0.55007 0.38576 0.0
C1377 C 0.41439 0.55775 0.37871 0.0
C1378 C 0.42671 0.47907 0.35001 0.0
C1379 C 0.37841 0.51521 0.34588 0.0
O1380 O 0.43841 0.49178 0.32966 0.0
O1381 O 0.42464 0.52121 0.32512 0.0
O1382 O 0.42894 0.56152 0.33504 0.0
O1383 O 0.45646 0.56369 0.34392 0.0
O1384 O 0.48257 0.53791 0.33891 0.0
O1385 O 0.48842 0.55709 0.35093 0.0
O1386 O 0.42969 0.55762 0.36237 0.0
O1387 O 0.45344 0.53591 0.36572 0.0
O1388 O 0.44389 0.49367 0.35551 0.0
O1389 O 0.41643 0.49368 0.34711 0.0
O1390 O 0.3961 0.52851 0.35161 0.0
O1391 O 0.38698 0.50619 0.33996 0.0
H1392 H 0.45805 0.54705 0.31365 0.0
H1393 H 0.47427 0.5458 0.30077 0.0
H1394 H 0.45078 0.45598 0.30394 0.0
H1395 H 0.435 0.45749 0.31684 0.0
H1396 H 0.42292 0.49893 0.37598 0.0
H1397 H 0.39887 0.48568 0.3883 0.0
H1398 H 0.39415 0.56461 0.38836 0.0
H1399 H 0.41906 0.57819 0.37615 0.0
C1400 C 0.50746 0.93326 0.32411 0.0
Eu1401 Eu 0.48655 0.91552 0.33774 0.0
C1402 C 0.50698 0.94659 0.31675 0.0
C1403 C 0.48232 0.93417 0.31202 0.0
C1404 C 0.48402 0.94413 0.30456 0.0
C1405 C 0.51046 0.96658 0.30163 0.0
C1406 C 0.53471 0.97971 0.30648 0.0
C1407 C 0.53298 0.96981 0.31393 0.0
C1408 C 0.43274 0.87152 0.34142 0.0
C1409 C 0.45616 0.95012 0.34539 0.0
C1410 C 0.46017 0.89498 0.36864 0.0
Eu1411 Eu 0.47505 0.91021 0.3545 0.0
C1412 C 0.47048 0.88861 0.37581 0.0
C1413 C 0.49916 0.90602 0.37841 0.0
C1414 C 0.50753 0.9008 0.38552 0.0
C1415 C 0.48744 0.878 0.39018 0.0
C1416 C 0.45894 0.86029 0.38745 0.0
C1417 C 0.4506 0.86557 0.38037 0.0
C1418 C 0.53034 0.95178 0.35049 0.0
C1419 C 0.49425 0.86724 0.34646 0.0
O1420 O 0.5178 0.94972 0.33014 0.0
O1421 O 0.48612 0.90717 0.32567 0.0
O1422 O 0.448 0.87092 0.33577 0.0
O1423 O 0.44539 0.89624 0.34456 0.0
O1424 O 0.47235 0.94944 0.33975 0.0
O1425 O 0.45039 0.93299 0.35134 0.0
O1426 O 0.45304 0.87629 0.3631 0.0
O1427 O 0.47351 0.92189 0.36625 0.0
O1428 O 0.5156 0.95448 0.35594 0.0
O1429 O 0.51582 0.92681 0.34764 0.0
O1430 O 0.48078 0.87147 0.35217 0.0
O1431 O 0.50331 0.88493 0.34055 0.0
H1432 H 0.46198 0.91606 0.31399 0.0
H1433 H 0.46493 0.93333 0.301 0.0
H1434 H 0.55529 0.99738 0.30449 0.0
H1435 H 0.55239 0.97965 0.31741 0.0
H1436 H 0.51501 0.92391 0.375 0.0
H1437 H 0.52976 0.91465 0.38736 0.0
H1438 H 0.44273 0.84279 0.39089 0.0
H1439 H 0.42831 0.85195 0.37852 0.0
H1440 H 0.08792 0.15181 0.16812 0.0
H1441 H 0.0997 0.11331 0.16993 0.0
H1442 H 0.16679 0.16709 0.18585 0.0
H1443 H 0.1551 0.20617 0.18402 0.0
H1444 H 0.18376 0.13851 0.17453 0.0
H1445 H 0.08066 0.06148 0.18889 0.0
H1446 H 0.07558 0.07566 0.18015 0.0
H1447 H 0.09294 0.09979 0.188 0.0
C1448 C 0.10514 0.15549 0.17203 0.0
C1449 C 0.12057 0.18201 0.17593 0.0
C1450 C 0.11178 0.13338 0.17308 0.0
C1451 C 0.13392 0.13717 0.17808 0.0
C1452 C 0.14954 0.16369 0.18198 0.0
H1453 H 0.15127 0.98975 0.19227 0.0
H1454 H 0.14938 0.03464 0.19191 0.0
C1455 C 0.14279 0.18591 0.18096 0.0
C1456 C 0.14058 0.11327 0.17911 0.0
H1457 H 0.10947 0.04191 0.18429 0.0
C1458 C 0.16767 0.11746 0.17673 0.0
C1459 C 0.11965 0.08587 0.18203 0.0
C1460 C 0.09067 0.08041 0.18499 0.0
C1461 C 0.17403 0.09468 0.177 0.0
C1462 C 0.1526 0.06691 0.17963 0.0
C1463 C 0.12585 0.06307 0.1822 0.0
C1464 C 0.15725 0.04144 0.17986 0.0
C1465 C 0.20368 0.10061 0.17452 0.0
C1466 C 0.16281 0.03039 0.17322 0.0
C1467 C 0.16407 0.00458 0.17342 0.0
C1468 C 0.15944 0.98919 0.18024 0.0
C1469 C 0.15479 1.00087 0.1869 0.0
C1470 C 0.15369 0.02661 0.18671 0.0
H1471 H 0.21991 0.12422 0.17468 0.0
H1472 H 0.21151 0.08886 0.17816 0.0
H1473 H 0.20236 0.09297 0.16861 0.0
H1474 H 0.16507 0.04107 0.16784 0.0
H1475 H 0.16746 0.9961 0.16818 0.0
H1476 H 0.0202 0.1667 0.19131 0.0
H1477 H 0.97598 0.11921 0.19123 0.0
H1478 H 0.96566 0.12793 0.16734 0.0
H1479 H 0.00994 0.1759 0.16737 0.0
H1480 H 0.91215 0.10183 0.17575 0.0
H1481 H 0.97812 0.0495 0.18178 0.0
H1482 H 0.98266 0.07687 0.18849 0.0
H1483 H 0.99421 0.08696 0.17885 0.0
C1484 C 0.00838 0.15879 0.18604 0.0
C1485 C 0.01885 0.17506 0.17932 0.0
C1486 C 0.98311 0.13152 0.18601 0.0
C1487 C 0.96783 0.11972 0.17925 0.0
C1488 C 0.97721 0.13655 0.17261 0.0
H1489 H 0.85773 0.94012 0.16755 0.0
H1490 H 0.89535 0.99089 0.16903 0.0
C1491 C 1.00251 0.164 0.17264 0.0
C1492 C 0.94327 0.08919 0.17905 0.0
H1493 H 0.92714 0.01888 0.18165 0.0
C1494 C 0.91535 0.08366 0.17705 0.0
C1495 C 0.94756 0.06548 0.18068 0.0
C1496 C 0.97727 0.06985 0.18251 0.0
C1497 C 0.89161 0.05506 0.17666 0.0
C1498 C 0.89587 0.0314 0.1784 0.0
C1499 C 0.9238 0.03701 0.1804 0.0
C1500 C 0.87232 1.00054 0.17761 0.0
C1501 C 0.86238 0.05033 0.17418 0.0
C1502 C 0.84683 0.98878 0.18201 0.0
C1503 C 0.8251 0.95952 0.18117 0.0
C1504 C 0.8286 0.9416 0.17592 0.0
C1505 C 0.85429 0.95337 0.17162 0.0
C1506 C 0.87587 0.98243 0.17246 0.0
H1507 H 0.86409 0.07015 0.17155 0.0
H1508 H 0.85209 0.03216 0.17005 0.0
H1509 H 0.84785 0.04452 0.17917 0.0
H1510 H 0.84383 1.00216 0.18613 0.0
H1511 H 0.80557 0.95098 0.18458 0.0
H1512 H 0.04776 0.84351 0.16738 0.0
H1513 H 0.99829 0.83546 0.16837 0.0
H1514 H 0.02368 0.89208 0.18781 0.0
H1515 H 0.07349 0.90091 0.1867 0.0
H1516 H 0.95672 0.81349 0.17918 0.0
H1517 H 0.9905 0.92925 0.17421 0.0
H1518 H 0.0149 0.91524 0.17285 0.0
H1519 H 0.00823 0.92405 0.18221 0.0
C1520 C 0.04278 0.85418 0.17189 0.0
C1521 C 0.06459 0.87315 0.17691 0.0
C1522 C 0.01446 0.84952 0.17245 0.0
C1523 C 0.00734 0.86368 0.17805 0.0
C1524 C 0.0288 0.88155 0.1833 0.0
H1525 H 0.85294 0.86942 0.19042 0.0
H1526 H 0.89926 0.87032 0.18998 0.0
C1527 C 0.05721 0.8864 0.18271 0.0
C1528 C 0.97766 0.86013 0.17828 0.0
H1529 H 0.94133 0.89815 0.17782 0.0
C1530 C 0.95336 0.832 0.17885 0.0
C1531 C 0.97318 0.88425 0.17777 0.0
C1532 C 0.99805 0.91486 0.17665 0.0
C1533 C 0.92487 0.82744 0.1791 0.0
C1534 C 0.92053 0.8516 0.17875 0.0
C1535 C 0.94474 0.87966 0.17813 0.0
C1536 C 0.89115 0.8485 0.17918 0.0
C1537 C 0.8996 0.79691 0.17991 0.0
C1538 C 0.87096 0.83564 0.17327 0.0
C1539 C 0.84428 0.83516 0.17347 0.0
C1540 C 0.83736 0.84754 0.1796 0.0
C1541 C 0.85739 0.85964 0.1856 0.0
C1542 C 0.884 0.86024 0.18537 0.0
H1543 H 0.9068 0.78117 0.18142 0.0
H1544 H 0.88428 0.79608 0.18432 0.0
H1545 H 0.88758 0.78999 0.17447 0.0
H1546 H 0.87619 0.82676 0.16839 0.0
H1547 H 0.82947 0.8258 0.16874 0.0
H1548 H 0.20639 0.14995 0.33889 0.0
H1549 H 0.16788 0.16242 0.33723 0.0
H1550 H 0.11753 0.10154 0.35482 0.0
H1551 H 0.15548 0.08882 0.35642 0.0
H1552 H 0.08506 0.09614 0.34216 0.0
H1553 H 0.14801 0.21149 0.3514 0.0
H1554 H 0.16417 0.20149 0.34389 0.0
H1555 H 0.16023 0.18579 0.35313 0.0
C1556 C 0.18709 0.13931 0.34239 0.0
C1557 C 0.184 0.11854 0.34781 0.0
C1558 C 0.16521 0.14658 0.34148 0.0
C1559 C 0.13998 0.13324 0.34598 0.0
C1560 C 0.13682 0.11224 0.35131 0.0
H1561 H 1.0027 0.17236 0.35528 0.0
H1562 H 0.04677 0.16835 0.35554 0.0
C1563 C 0.15858 0.10501 0.35222 0.0
C1564 C 0.1163 0.1403 0.34509 0.0
H1565 H 0.09995 0.19465 0.3471 0.0
C1566 C 0.08837 0.11772 0.3432 0.0
C1567 C 0.12053 0.16838 0.34656 0.0
C1568 C 0.14976 0.19319 0.34892 0.0
C1569 C 0.06458 0.12236 0.34276 0.0
C1570 C 0.06886 0.15052 0.3441 0.0
C1571 C 0.09677 0.17316 0.346 0.0
C1572 C 0.0443 0.15646 0.34373 0.0
C1573 C 0.03487 0.09681 0.34105 0.0
C1574 C 0.02892 0.1522 0.33695 0.0
C1575 C 1.00375 0.15439 0.33679 0.0
C1576 C 0.99351 0.16115 0.3434 0.0
C1577 C 0.00994 0.16712 0.35009 0.0
C1578 C 0.03513 0.1648 0.35025 0.0
H1579 H 0.03405 0.07572 0.34199 0.0
H1580 H 0.01795 0.0974 0.34462 0.0
H1581 H 0.02944 0.09775 0.33503 0.0
H1582 H 0.03591 0.14632 0.33182 0.0
H1583 H 0.99186 0.14992 0.33152 0.0
H1584 H 0.83721 0.83357 0.35484 0.0
H1585 H 0.84054 0.88125 0.35457 0.0
H1586 H 0.86223 0.88959 0.33083 0.0
H1587 H 0.85948 0.84232 0.33107 0.0
H1588 H 0.90044 0.93671 0.33856 0.0
H1589 H 0.78897 0.91087 0.34632 0.0
H1590 H 0.80444 0.8969 0.35299 0.0
H1591 H 0.79743 0.88329 0.34344 0.0
C1592 C 0.84208 0.84526 0.34952 0.0
C1593 C 0.8481 0.83404 0.34298 0.0
C1594 C 0.84388 0.87254 0.34937 0.0
C1595 C 0.85138 0.88902 0.34266 0.0
C1596 C 0.85637 0.87735 0.33607 0.0
H1597 H 0.8577 0.05799 0.33824 0.0
H1598 H 0.84537 0.00714 0.33625 0.0
C1599 C 0.85473 0.85022 0.33622 0.0
C1600 C 0.85657 0.91936 0.34263 0.0
H1601 H 0.8261 0.96104 0.34708 0.0
C1602 C 0.88403 0.94193 0.34036 0.0
C1603 C 0.83514 0.92631 0.34487 0.0
C1604 C 0.80475 0.90304 0.34697 0.0
C1605 C 0.89094 0.97116 0.3405 0.0
C1606 C 0.87003 0.97822 0.34312 0.0
C1607 C 0.84222 0.95566 0.34514 0.0
C1608 C 0.8773 0.00896 0.34419 0.0
C1609 C 0.92068 0.99427 0.33787 0.0
C1610 C 0.89912 0.02676 0.34934 0.0
C1611 C 0.90612 0.05558 0.35047 0.0
C1612 C 0.89138 0.06731 0.34651 0.0
C1613 C 0.86948 0.04955 0.34134 0.0
C1614 C 0.86238 0.02052 0.34023 0.0
H1615 H 0.9307 0.98514 0.33403 0.0
H1616 H 0.91962 0.01211 0.33488 0.0
H1617 H 0.93514 1.00366 0.34286 0.0
H1618 H 0.9106 0.01825 0.35255 0.0
H1619 H 0.92306 0.06866 0.3545 0.0
H1620 H 0.93866 0.86069 0.3512 0.0
H1621 H 0.99006 0.89707 0.34998 0.0
H1622 H 0.00763 0.83163 0.34112 0.0
H1623 H 0.95564 0.79531 0.34202 0.0
H1624 H 0.03467 0.90002 0.35698 0.0
H1625 H 0.05124 0.89496 0.32611 0.0
H1626 H 0.01559 0.87732 0.33036 0.0
H1627 H 0.03802 0.86083 0.3309 0.0
C1628 C 0.95343 0.85416 0.34889 0.0
C1629 C 0.94321 0.82526 0.34668 0.0
C1630 C 0.98286 0.87495 0.34822 0.0
C1631 C 1.00288 0.86729 0.34541 0.0
C1632 C 0.99264 0.83835 0.34314 0.0
H1633 H 0.18833 0.99837 0.35322 0.0
H1634 H 0.14222 0.95201 0.35363 0.0
C1635 C 0.96295 0.81756 0.34368 0.0
C1636 C 0.03442 0.88966 0.34518 0.0
H1637 H 0.0928 0.92556 0.33337 0.0
C1638 C 0.04741 0.90554 0.35181 0.0
C1639 C 0.0511 0.89695 0.33845 0.0
C1640 C 0.03826 0.88183 0.33103 0.0
C1641 C 0.07605 0.9291 0.35185 0.0
C1642 C 0.09276 0.93642 0.34512 0.0
C1643 C 0.08013 0.91986 0.33855 0.0
C1644 C 0.12205 0.96302 0.34453 0.0
C1645 C 0.08744 0.94683 0.359 0.0
C1646 C 0.12673 0.98406 0.33905 0.0
C1647 C 0.15315 0.01014 0.3387 0.0
C1648 C 0.17564 0.01607 0.34387 0.0
C1649 C 0.1714 0.99462 0.3492 0.0
C1650 C 0.14494 0.9682 0.34948 0.0
H1651 H 0.06963 0.9427 0.36301 0.0
H1652 H 0.10228 0.9409 0.3619 0.0
H1653 H 0.09974 0.97045 0.35771 0.0
H1654 H 0.10956 0.9807 0.33515 0.0
H1655 H 0.1555 0.02605 0.3345 0.0
H1656 H 0.85406 0.79777 0.83813 0.0
H1657 H 0.84083 0.83571 0.83629 0.0
H1658 H 0.90717 0.89087 0.85222 0.0
H1659 H 0.92051 0.85348 0.85403 0.0
H1660 H 0.82233 0.86274 0.84748 0.0
H1661 H 0.92475 0.94274 0.83339 0.0
H1662 H 0.91388 0.90476 0.83427 0.0
H1663 H 0.93045 0.92908 0.84213 0.0
C1664 C 0.86588 0.81808 0.84119 0.0
C1665 C 0.88835 0.8227 0.84621 0.0
C1666 C 0.85826 0.83967 0.84016 0.0
C1667 C 0.87323 0.86625 0.84406 0.0
C1668 C 0.89562 0.87075 0.84906 0.0
H1669 H 0.835 1.00228 0.85509 0.0
H1670 H 0.83762 0.95751 0.8548 0.0
C1671 C 0.90313 0.84928 0.85011 0.0
C1672 C 0.86555 0.8894 0.84305 0.0
H1673 H 0.89483 0.96086 0.83818 0.0
C1674 C 0.83801 0.88412 0.84536 0.0
C1675 C 0.88592 0.91719 0.84022 0.0
C1676 C 0.91531 0.92378 0.83729 0.0
C1677 C 0.83072 0.90623 0.84518 0.0
C1678 C 0.85166 0.93444 0.8427 0.0
C1679 C 0.87881 0.93934 0.84014 0.0
C1680 C 0.84632 0.95946 0.84277 0.0
C1681 C 0.80065 0.89915 0.84761 0.0
C1682 C 0.85023 0.97549 0.83612 0.0
C1683 C 0.84902 1.00118 0.83629 0.0
C1684 C 0.84388 0.01152 0.84312 0.0
C1685 C 0.83871 0.99481 0.84973 0.0
C1686 C 0.84011 0.96911 0.84956 0.0
H1687 H 0.78489 0.87548 0.84716 0.0
H1688 H 0.80132 0.90557 0.85362 0.0
H1689 H 0.79264 0.91116 0.84414 0.0
H1690 H 0.85506 0.96855 0.83082 0.0
H1691 H 0.85301 0.01341 0.83108 0.0
H1692 H 0.15119 0.06879 0.85371 0.0
H1693 H 0.11297 0.01819 0.8522 0.0
H1694 H 0.16444 0.00575 0.83532 0.0
H1695 H 0.20322 0.05663 0.83689 0.0
H1696 H 0.08094 0.98908 0.83978 0.0
H1697 H 0.14473 0.93904 0.85015 0.0
H1698 H 0.15671 0.97713 0.8514 0.0
H1699 H 0.16076 0.96393 0.84238 0.0
C1700 C 0.15442 0.05532 0.84966 0.0
C1701 C 0.18031 0.0666 0.84546 0.0
C1702 C 0.13252 0.02637 0.84881 0.0
C1703 C 0.13599 0.00796 0.84375 0.0
C1704 C 0.16153 0.01935 0.83938 0.0
H1705 H 0.98864 0.84048 0.8305 0.0
H1706 H 0.03219 0.88851 0.83044 0.0
C1707 C 0.18356 0.04846 0.84024 0.0
C1708 C 0.11252 0.97702 0.84307 0.0
H1709 H 0.09692 0.90689 0.84587 0.0
C1710 C 0.08448 0.97111 0.84107 0.0
C1711 C 0.11704 0.95357 0.84487 0.0
C1712 C 0.14635 0.9586 0.84739 0.0
C1713 C 0.06088 0.94253 0.84085 0.0
C1714 C 0.06547 0.91903 0.84252 0.0
C1715 C 0.09349 0.92488 0.84452 0.0
C1716 C 0.04115 0.88837 0.84238 0.0
C1717 C 0.03104 0.93783 0.83904 0.0
C1718 C 0.0325 0.8716 0.84904 0.0
C1719 C 0.00763 0.84386 0.84909 0.0
C1720 C 0.99099 0.83242 0.84247 0.0
C1721 C 1.00071 0.84868 0.83573 0.0
C1722 C 0.02557 0.87627 0.83568 0.0
H1723 H 0.02996 0.95806 0.83977 0.0
H1724 H 0.02568 0.93081 0.83305 0.0
H1725 H 0.01422 0.92062 0.84269 0.0
H1726 H 0.04431 0.88045 0.85427 0.0
H1727 H 1.00077 0.83198 0.85437 0.0
H1728 H 0.93853 0.08397 0.85611 0.0
H1729 H 0.98932 0.09708 0.85473 0.0
H1730 H 1.0008 0.15919 0.83739 0.0
H1731 H 0.94961 0.14636 0.83885 0.0
H1732 H 0.01703 0.09238 0.8423 0.0
H1733 H 0.06912 0.20749 0.85171 0.0
H1734 H 0.03105 0.18188 0.85325 0.0
H1735 H 0.04356 0.19789 0.84407 0.0
C1736 C 0.95183 0.10052 0.85201 0.0
C1737 C 0.94011 0.11427 0.84762 0.0
C1738 C 0.98091 0.10799 0.85123 0.0
C1739 C 0.99907 0.12943 0.84604 0.0
C1740 C 0.98738 0.14301 0.84155 0.0
H1741 H 0.16321 0.14663 0.83139 0.0
H1742 H 0.11572 0.1432 0.83198 0.0
C1743 C 0.95811 0.13552 0.84234 0.0
C1744 C 0.02987 0.13652 0.84525 0.0
H1745 H 0.10053 0.19075 0.84744 0.0
C1746 C 0.03526 0.11393 0.8434 0.0
C1747 C 0.05369 0.16454 0.8468 0.0
C1748 C 0.04922 0.18935 0.84914 0.0
C1749 C 0.06367 0.11851 0.84304 0.0
C1750 C 0.08753 0.14663 0.84444 0.0
C1751 C 0.08223 0.16927 0.84633 0.0
C1752 C 0.118 0.15259 0.84396 0.0
C1753 C 0.06786 0.09297 0.84135 0.0
C1754 C 0.13577 0.16043 0.85042 0.0
C1755 C 0.16324 0.16262 0.8501 0.0
C1756 C 0.17331 0.15698 0.8433 0.0
C1757 C 0.15604 0.15074 0.83675 0.0
C1758 C 0.12879 0.1487 0.83708 0.0
H1759 H 0.0476 0.07188 0.84229 0.0
H1760 H 0.07421 0.09388 0.83532 0.0
H1761 H 0.08538 0.09358 0.84491 0.0
H1762 H 0.12791 0.16367 0.85579 0.0
H1763 H 0.17596 0.16746 0.85524 0.0
H1764 H 0.80123 0.84995 0.68272 0.0
H1765 H 0.83818 0.83522 0.68389 0.0
H1766 H 0.89937 0.91234 0.67172 0.0
H1767 H 0.86219 0.92621 0.67025 0.0
H1768 H 0.9012 0.86772 0.66635 0.0
H1769 H 0.90618 0.86343 0.69767 0.0
H1770 H 0.87069 0.8397 0.69386 0.0
H1771 H 0.88665 0.87847 0.6929 0.0
C1772 C 0.82271 0.86385 0.68039 0.0
C1773 C 0.82892 0.88924 0.67641 0.0
C1774 C 0.84387 0.8555 0.68108 0.0
C1775 C 0.87182 0.8728 0.67797 0.0
C1776 C 0.87804 0.8985 0.67415 0.0
H1777 H 0.03375 0.88511 0.68834 0.0
H1778 H 0.98842 0.88556 0.68754 0.0
C1779 C 0.85681 0.90651 0.67334 0.0
C1780 C 0.89455 0.8641 0.67842 0.0
H1781 H 0.93442 0.84841 0.69076 0.0
C1782 C 0.90841 0.86344 0.67169 0.0
C1783 C 0.90408 0.85852 0.68539 0.0
C1784 C 0.89134 0.86031 0.69287 0.0
C1785 C 0.93208 0.85849 0.67175 0.0
C1786 C 0.94162 0.85289 0.67871 0.0
C1787 C 0.92705 0.85248 0.68541 0.0
C1788 C 0.96857 0.85078 0.67932 0.0
C1789 C 0.94755 0.86088 0.66438 0.0
C1790 C 0.97269 0.83071 0.67505 0.0
C1791 C 0.99915 0.83069 0.6754 0.0
C1792 C 0.02171 0.85032 0.68016 0.0
C1793 C 0.01697 0.86955 0.68462 0.0
C1794 C 0.99089 0.86984 0.68418 0.0
H1795 H 0.942 0.87216 0.65995 0.0
H1796 H 0.9715 0.87288 0.66517 0.0
H1797 H 0.94095 0.83875 0.66227 0.0
H1798 H 0.95558 0.81522 0.6714 0.0
H1799 H 1.00197 0.81546 0.67194 0.0
H1800 H 0.17543 0.17645 0.66793 0.0
H1801 H 0.17222 0.12863 0.66772 0.0
H1802 H 0.1484 0.11664 0.69132 0.0
H1803 H 0.15125 0.16391 0.69158 0.0
H1804 H 0.19807 0.10123 0.67663 0.0
H1805 H 0.07851 0.04843 0.68057 0.0
H1806 H 0.10061 0.08619 0.67796 0.0
H1807 H 0.0996 0.07509 0.68762 0.0
C1808 C 0.17007 0.16387 0.67311 0.0
C1809 C 0.16325 0.1739 0.67974 0.0
C1810 C 0.16818 0.13652 0.67298 0.0
C1811 C 0.15949 0.11881 0.67947 0.0
C1812 C 0.15457 0.12964 0.68621 0.0
H1813 H 0.15169 0.94968 0.68525 0.0
H1814 H 0.16395 1.00068 0.68685 0.0
C1815 C 0.1563 0.15677 0.68634 0.0
C1816 C 0.15356 0.0883 0.67913 0.0
H1817 H 0.09886 0.01777 0.68092 0.0
C1818 C 0.17642 0.08295 0.67757 0.0
C1819 C 0.12521 0.06445 0.68029 0.0
C1820 C 0.09948 0.06868 0.68164 0.0
C1821 C 0.17168 0.05438 0.6772 0.0
C1822 C 0.1434 0.03057 0.67849 0.0
C1823 C 0.12059 0.036 0.68002 0.0
C1824 C 0.13634 0.99978 0.6777 0.0
C1825 C 0.19676 0.04985 0.67522 0.0
C1826 C 0.11622 0.98212 0.67219 0.0
C1827 C 0.10913 0.95318 0.67131 0.0
C1828 C 0.12188 0.94107 0.67595 0.0
C1829 C 0.14163 0.95849 0.68158 0.0
C1830 C 0.14881 0.98766 0.68246 0.0
H1831 H 0.21554 0.0699 0.67289 0.0
H1832 H 0.20411 0.04352 0.68039 0.0
H1833 H 0.18998 0.03207 0.67101 0.0
H1834 H 0.10618 0.99086 0.66849 0.0
H1835 H 0.09373 0.94031 0.66694 0.0
H1836 H 0.84722 0.98883 0.69217 0.0
H1837 H 0.89436 0.03332 0.69183 0.0
H1838 H 0.88138 0.0451 0.66828 0.0
H1839 H 0.83369 1.00054 0.6686 0.0
H1840 H 0.93954 0.04068 0.68323 0.0
H1841 H 0.91345 0.12715 0.67653 0.0
H1842 H 0.88632 0.09147 0.67977 0.0
H1843 H 0.89783 0.09713 0.67004 0.0
C1844 C 0.85406 1.00111 0.68694 0.0
C1845 C 0.83661 0.99101 0.6804 0.0
C1846 C 0.88112 0.0266 0.68676 0.0
C1847 C 0.8915 0.04274 0.68005 0.0
C1848 C 0.87368 0.03338 0.67357 0.0
H1849 H 0.07029 0.15227 0.66694 0.0
H1850 H 0.01995 0.11404 0.6689 0.0
C1851 C 0.8464 0.00783 0.67376 0.0
C1852 C 0.92193 0.06764 0.67972 0.0
H1853 H 0.96338 0.14005 0.67553 0.0
C1854 C 0.94467 0.06244 0.68159 0.0
C1855 C 0.92874 0.09616 0.67768 0.0
C1856 C 0.90531 0.10347 0.67596 0.0
C1857 C 0.97391 0.08466 0.6813 0.0
C1858 C 0.98079 0.11289 0.67897 0.0
C1859 C 0.9581 0.11837 0.67729 0.0
C1860 C 0.01146 0.13646 0.67789 0.0
C1861 C 0.99724 0.07772 0.68351 0.0
C1862 C 0.02345 0.16206 0.68224 0.0
C1863 C 0.05244 0.18409 0.68113 0.0
C1864 C 0.06971 0.18095 0.67559 0.0
C1865 C 0.05758 0.15532 0.67126 0.0
C1866 C 0.0288 0.13338 0.67239 0.0
H1867 H 0.9884 0.05788 0.68709 0.0
H1868 H 0.00653 0.07379 0.67832 0.0
H1869 H 0.01512 0.09611 0.68664 0.0
H1870 H 0.01043 0.16492 0.6865 0.0
H1871 H 0.0612 0.20365 0.68453 0.0
H1872 H 0.84008 0.33689 0.50182 0.0
H1873 H 0.83599 0.38081 0.50224 0.0
H1874 H 0.81452 0.3664 0.52598 0.0
H1875 H 0.81813 0.32238 0.5256 0.0
H1876 H 0.77537 0.37437 0.51813 0.0
H1877 H 0.88662 0.46192 0.51086 0.0
H1878 H 0.87194 0.43264 0.50414 0.0
H1879 H 0.87873 0.42602 0.51371 0.0
C1880 C 0.83511 0.3434 0.50717 0.0
C1881 C 0.82939 0.32601 0.51367 0.0
C1882 C 0.83287 0.36862 0.50741 0.0
C1883 C 0.82518 0.37712 0.51416 0.0
C1884 C 0.82052 0.36036 0.52071 0.0
H1885 H 0.81507 0.53746 0.5189 0.0
H1886 H 0.82758 0.49915 0.52104 0.0
C1887 C 0.82264 0.33515 0.52048 0.0
C1888 C 0.81937 0.40183 0.51427 0.0
H1889 H 0.84887 0.47408 0.5101 0.0
C1890 C 0.79158 0.39623 0.51644 0.0
C1891 C 0.84056 0.43048 0.51216 0.0
C1892 C 0.87123 0.43826 0.51016 0.0
C1893 C 0.7841 0.41813 0.51632 0.0
C1894 C 0.8048 0.4464 0.51386 0.0
C1895 C 0.83294 0.45235 0.51194 0.0
C1896 C 0.79701 0.46947 0.51279 0.0
C1897 C 0.75398 0.41077 0.51881 0.0
C1898 C 0.7758 0.46553 0.50744 0.0
C1899 C 0.76872 0.48724 0.50622 0.0
C1900 C 0.78276 0.51346 0.51029 0.0
C1901 C 0.80385 0.51741 0.5157 0.0
C1902 C 0.81106 0.49562 0.5169 0.0
H1903 H 0.74387 0.39125 0.52252 0.0
H1904 H 0.75445 0.42923 0.52189 0.0
H1905 H 0.73995 0.40603 0.51374 0.0
H1906 H 0.765 0.44576 0.50412 0.0
H1907 H 0.75242 0.48358 0.502 0.0
H1908 H 0.46996 0.28302 0.51844 0.0
H1909 H 0.50766 0.33427 0.5202 0.0
H1910 H 0.56073 0.32465 0.50325 0.0
H1911 H 0.52369 0.27378 0.50158 0.0
H1912 H 0.59165 0.35209 0.51587 0.0
H1913 H 0.52801 0.40301 0.50601 0.0
H1914 H 0.51172 0.37706 0.51356 0.0
H1915 H 0.51629 0.36513 0.50441 0.0
C1916 C 0.4897 0.29193 0.51511 0.0
C1917 C 0.49382 0.27445 0.50984 0.0
C1918 C 0.51111 0.32125 0.51607 0.0
C1919 C 0.53687 0.33349 0.51177 0.0
C1920 C 0.54103 0.31581 0.5066 0.0
H1921 H 0.67351 0.5101 0.50239 0.0
H1922 H 0.62909 0.46224 0.50219 0.0
C1923 C 0.51978 0.28669 0.50565 0.0
C1924 C 0.56014 0.36439 0.51271 0.0
H1925 H 0.57574 0.43478 0.51044 0.0
C1926 C 0.5881 0.37015 0.51472 0.0
C1927 C 0.55563 0.38799 0.5111 0.0
C1928 C 0.52638 0.38314 0.50859 0.0
C1929 C 0.61166 0.39869 0.51514 0.0
C1930 C 0.6071 0.42234 0.51366 0.0
C1931 C 0.57914 0.41667 0.51164 0.0
C1932 C 0.63144 0.45295 0.51402 0.0
C1933 C 0.64144 0.40321 0.51694 0.0
C1934 C 0.64679 0.46416 0.5208 0.0
C1935 C 0.67215 0.49133 0.52092 0.0
C1936 C 0.68259 0.50812 0.51428 0.0
C1937 C 0.66606 0.49778 0.5076 0.0
C1938 C 0.6407 0.47039 0.50748 0.0
H1939 H 0.64257 0.38308 0.51604 0.0
H1940 H 0.6584 0.42082 0.5134 0.0
H1941 H 0.64658 0.40954 0.52297 0.0
H1942 H 0.63971 0.45141 0.52595 0.0
H1943 H 0.68413 0.49875 0.52618 0.0
H1944 H 0.50968 0.18865 0.5256 0.0
H1945 H 0.55714 0.19177 0.52572 0.0
H1946 H 0.54996 0.17378 0.50177 0.0
H1947 H 0.50203 0.17009 0.50162 0.0
H1948 H 0.57548 0.14631 0.50986 0.0
H1949 H 0.62769 0.26367 0.51699 0.0
H1950 H 0.60017 0.24008 0.52357 0.0
H1951 H 0.5903 0.24275 0.51398 0.0
C1952 C 0.51795 0.18496 0.52036 0.0
C1953 C 0.50211 0.17941 0.51358 0.0
C1954 C 0.54521 0.18689 0.52044 0.0
C1955 C 0.55745 0.18368 0.51372 0.0
C1956 C 0.54103 0.17651 0.50702 0.0
H1957 H 0.73656 0.25516 0.50185 0.0
H1958 H 0.68585 0.24156 0.50369 0.0
C1959 C 0.51359 0.17438 0.50694 0.0
C1960 C 0.58799 0.18956 0.51361 0.0
H1961 H 0.65823 0.2433 0.51655 0.0
C1962 C 0.5936 0.16746 0.51135 0.0
C1963 C 0.61166 0.21729 0.51548 0.0
C1964 C 0.6073 0.24242 0.51758 0.0
C1965 C 0.62222 0.17238 0.51089 0.0
C1966 C 0.64583 0.20004 0.51283 0.0
C1967 C 0.64014 0.22201 0.51514 0.0
C1968 C 0.67673 0.20765 0.51185 0.0
C1969 C 0.62701 0.14829 0.50807 0.0
C1970 C 0.68879 0.19336 0.5159 0.0
C1971 C 0.71805 0.20113 0.51484 0.0
C1972 C 0.73564 0.22335 0.50973 0.0
C1973 C 0.72358 0.23784 0.5058 0.0
C1974 C 0.69454 0.23011 0.50685 0.0
H1975 H 0.60719 0.13046 0.50538 0.0
H1976 H 0.64511 0.15675 0.50391 0.0
H1977 H 0.63298 0.139 0.51292 0.0
H1978 H 0.67565 0.17634 0.5199 0.0
H1979 H 0.72683 0.1897 0.51797 0.0
H1980 H 0.87432 0.48614 0.67166 0.0
H1981 H 0.83576 0.49869 0.67018 0.0
H1982 H 0.78395 0.43425 0.68693 0.0
H1983 H 0.82188 0.42147 0.68834 0.0
H1984 H 0.7525 0.43128 0.67433 0.0
H1985 H 0.81446 0.54476 0.68504 0.0
H1986 H 0.83113 0.53624 0.67735 0.0
H1987 H 0.82672 0.51887 0.68636 0.0
C1988 C 0.85466 0.47471 0.67501 0.0
C1989 C 0.85118 0.45295 0.68015 0.0
C1990 C 0.83276 0.48203 0.67421 0.0
C1991 C 0.80711 0.46773 0.67854 0.0
C1992 C 0.80356 0.44571 0.68356 0.0
H1993 H 0.66855 0.50395 0.68898 0.0
H1994 H 0.71296 0.50048 0.68898 0.0
C1995 C 0.82531 0.43844 0.68436 0.0
C1996 C 0.78342 0.47487 0.6778 0.0
H1997 H 0.76653 0.52845 0.68074 0.0
C1998 C 0.75563 0.45259 0.67569 0.0
C1999 C 0.78739 0.50256 0.67968 0.0
C2000 C 0.81644 0.52698 0.6823 0.0
C2001 C 0.73174 0.4571 0.67544 0.0
C2002 C 0.73576 0.48489 0.67721 0.0
C2003 C 0.76353 0.50725 0.67932 0.0
C2004 C 0.71107 0.49069 0.67703 0.0
C2005 C 0.70218 0.43177 0.67349 0.0
C2006 C 0.6959 0.48748 0.67027 0.0
C2007 C 0.67055 0.48934 0.67025 0.0
C2008 C 0.6599 0.49476 0.677 0.0
C2009 C 0.67613 0.49978 0.68369 0.0
C2010 C 0.7015 0.49775 0.6837 0.0
H2011 H 0.70147 0.41061 0.67413 0.0
H2012 H 0.68503 0.43159 0.67713 0.0
H2013 H 0.697 0.43374 0.66751 0.0
H2014 H 0.70319 0.48263 0.66503 0.0
H2015 H 0.65883 0.48566 0.66497 0.0
H2016 H 0.50596 0.16646 0.68841 0.0
H2017 H 0.50862 0.21389 0.68841 0.0
H2018 H 0.52877 0.22321 0.66456 0.0
H2019 H 0.52665 0.17626 0.66454 0.0
H2020 H 0.56748 0.27004 0.67239 0.0
H2021 H 0.45611 0.24336 0.68061 0.0
H2022 H 0.47211 0.22923 0.68706 0.0
H2023 H 0.46459 0.21606 0.67748 0.0
C2024 C 0.51032 0.17831 0.68313 0.0
C2025 C 0.51615 0.16752 0.67649 0.0
C2026 C 0.51175 0.20543 0.68313 0.0
C2027 C 0.51868 0.22212 0.67646 0.0
C2028 C 0.52337 0.21081 0.66977 0.0
H2029 H 0.52414 0.39049 0.67211 0.0
H2030 H 0.51199 0.33967 0.6702 0.0
C2031 C 0.52211 0.18387 0.66978 0.0
C2032 C 0.52372 0.25238 0.67657 0.0
H2033 H 0.49296 0.29359 0.68124 0.0
C2034 C 0.55105 0.27509 0.67426 0.0
C2035 C 0.50224 0.25909 0.67892 0.0
C2036 C 0.47202 0.23564 0.68109 0.0
C2037 C 0.55776 0.30425 0.67446 0.0
C2038 C 0.53677 0.31107 0.67715 0.0
C2039 C 0.50912 0.28837 0.67923 0.0
C2040 C 0.54382 0.34171 0.67821 0.0
C2041 C 0.58735 0.32754 0.67179 0.0
C2042 C 0.56552 0.3596 0.68337 0.0
C2043 C 0.57242 0.3884 0.68446 0.0
C2044 C 0.55769 0.4 0.68044 0.0
C2045 C 0.5359 0.38214 0.67527 0.0
C2046 C 0.5289 0.35313 0.67419 0.0
H2047 H 0.59754 0.31855 0.66797 0.0
H2048 H 0.58597 0.34516 0.66876 0.0
H2049 H 0.60182 0.33722 0.67676 0.0
H2050 H 0.57702 0.35118 0.68662 0.0
H2051 H 0.58928 0.40158 0.6885 0.0
H2052 H 0.83498 0.35292 0.66423 0.0
H2053 H 0.78761 0.30852 0.66437 0.0
H2054 H 0.79791 0.29711 0.68811 0.0
H2055 H 0.84575 0.3415 0.68801 0.0
H2056 H 0.77154 0.2442 0.67971 0.0
H2057 H 0.71821 0.30961 0.67423 0.0
H2058 H 0.74508 0.31431 0.66733 0.0
H2059 H 0.75591 0.32589 0.67693 0.0
C2060 C 0.82743 0.34082 0.66947 0.0
C2061 C 0.8441 0.351 0.67614 0.0
C2062 C 0.80023 0.31546 0.66954 0.0
C2063 C 0.7889 0.29982 0.67628 0.0
C2064 C 0.80615 0.30894 0.68285 0.0
H2065 H 0.61023 0.18903 0.68875 0.0
H2066 H 0.66084 0.22683 0.68707 0.0
C2067 C 0.83352 0.3343 0.68278 0.0
C2068 C 0.75845 0.27514 0.67657 0.0
H2069 H 0.68785 0.2586 0.67437 0.0
C2070 C 0.75321 0.24727 0.67852 0.0
C2071 C 0.73452 0.27926 0.6751 0.0
C2072 C 0.73857 0.3089 0.67335 0.0
C2073 C 0.7247 0.22344 0.67903 0.0
C2074 C 0.70083 0.22753 0.67746 0.0
C2075 C 0.70614 0.25539 0.6755 0.0
C2076 C 0.67009 0.20387 0.67838 0.0
C2077 C 0.72032 0.19429 0.68148 0.0
C2078 C 0.65818 0.17837 0.67399 0.0
C2079 C 0.62902 0.15654 0.67495 0.0
C2080 C 0.61137 0.15996 0.68031 0.0
C2081 C 0.62328 0.18566 0.6846 0.0
C2082 C 0.65225 0.20734 0.68364 0.0
H2083 H 0.74036 0.19614 0.68399 0.0
H2084 H 0.70243 0.18393 0.68568 0.0
H2085 H 0.71427 0.17974 0.67648 0.0
H2086 H 0.67134 0.17544 0.66978 0.0
H2087 H 0.62035 0.13701 0.67153 0.0
H2088 H 0.5234 0.13593 0.17299 0.0
H2089 H 0.51029 0.17409 0.17145 0.0
H2090 H 0.57844 0.22905 0.18699 0.0
H2091 H 0.59151 0.19127 0.18855 0.0
H2092 H 0.49445 0.20263 0.18368 0.0
H2093 H 0.59294 0.27918 0.16743 0.0
H2094 H 0.58081 0.24086 0.16821 0.0
H2095 H 0.59985 0.26498 0.17593 0.0
C2096 C 0.53562 0.15623 0.17604 0.0
C2097 C 0.5585 0.16066 0.18089 0.0
C2098 C 0.52806 0.17792 0.17518 0.0
C2099 C 0.54351 0.20446 0.17908 0.0
C2100 C 0.56639 0.20886 0.18388 0.0
H2101 H 0.51199 0.34615 0.18936 0.0
H2102 H 0.51454 0.30133 0.18973 0.0
C2103 C 0.57379 0.18721 0.18478 0.0
C2104 C 0.53595 0.22775 0.17819 0.0
H2105 H 0.56373 0.29785 0.17219 0.0
C2106 C 0.50944 0.22338 0.18111 0.0
C2107 C 0.55546 0.25473 0.17481 0.0
C2108 C 0.58378 0.26028 0.17135 0.0
C2109 C 0.5023 0.24562 0.18091 0.0
C2110 C 0.5223 0.27297 0.17775 0.0
C2111 C 0.54845 0.27698 0.17466 0.0
C2112 C 0.51684 0.29789 0.17757 0.0
C2113 C 0.47339 0.23964 0.18403 0.0
C2114 C 0.51697 0.31077 0.17062 0.0
C2115 C 0.51559 0.33638 0.17039 0.0
C2116 C 0.51424 0.34991 0.17712 0.0
C2117 C 0.51278 0.33627 0.18407 0.0
C2118 C 0.5142 0.31057 0.18429 0.0
H2119 H 0.4577 0.21594 0.18443 0.0
H2120 H 0.47662 0.24898 0.1898 0.0
H2121 H 0.46378 0.24988 0.18045 0.0
H2122 H 0.51898 0.30143 0.16536 0.0
H2123 H 0.51665 0.3461 0.16492 0.0
H2124 H 0.87941 0.37755 0.18826 0.0
H2125 H 0.8391 0.32761 0.18676 0.0
H2126 H 0.79702 0.35776 0.1713 0.0
H2127 H 0.83741 0.40781 0.17274 0.0
H2128 H 0.7618 0.3221 0.18404 0.0
H2129 H 0.81526 0.27122 0.16813 0.0
H2130 H 0.83455 0.29253 0.17626 0.0
H2131 H 0.82931 0.31003 0.16821 0.0
C2132 C 0.86177 0.37347 0.18446 0.0
C2133 C 0.86154 0.39657 0.18062 0.0
C2134 C 0.8388 0.34492 0.18359 0.0
C2135 C 0.81513 0.33893 0.17889 0.0
C2136 C 0.81513 0.36189 0.17493 0.0
H2137 H 0.66205 0.17847 0.16555 0.0
H2138 H 0.70741 0.22515 0.16602 0.0
C2139 C 0.83825 0.39044 0.17574 0.0
C2140 C 0.78957 0.30906 0.1785 0.0
H2141 H 0.7676 0.23961 0.17272 0.0
C2142 C 0.76305 0.30407 0.18156 0.0
C2143 C 0.79126 0.28559 0.17525 0.0
C2144 C 0.81902 0.28997 0.17172 0.0
C2145 C 0.73827 0.27618 0.18153 0.0
C2146 C 0.74004 0.25266 0.17836 0.0
C2147 C 0.76643 0.25766 0.17521 0.0
C2148 C 0.7142 0.22301 0.17802 0.0
C2149 C 0.71019 0.272 0.1848 0.0
C2150 C 0.70336 0.20597 0.18458 0.0
C2151 C 0.6775 0.17907 0.18433 0.0
C2152 C 0.66188 0.16889 0.17751 0.0
C2153 C 0.67342 0.18564 0.1709 0.0
C2154 C 0.69939 0.21234 0.17115 0.0
H2155 H 0.71145 0.293 0.18619 0.0
H2156 H 0.69205 0.25991 0.18075 0.0
H2157 H 0.70495 0.25885 0.19006 0.0
H2158 H 0.71456 0.21382 0.18993 0.0
H2159 H 0.66918 0.16683 0.18953 0.0
H2160 H 0.83073 0.47669 0.18967 0.0
H2161 H 0.78365 0.47451 0.18979 0.0
H2162 H 0.80218 0.51569 0.16783 0.0
H2163 H 0.84832 0.51574 0.16747 0.0
H2164 H 0.76404 0.50865 0.18985 0.0
H2165 H 0.72664 0.44859 0.16283 0.0
H2166 H 0.76017 0.45588 0.16725 0.0
H2167 H 0.75869 0.48321 0.16149 0.0
C2168 C 0.82484 0.48552 0.1849 0.0
C2169 C 0.84311 0.49623 0.17854 0.0
C2170 C 0.79783 0.48419 0.18495 0.0
C2171 C 0.78868 0.4941 0.17871 0.0
C2172 C 0.80793 0.5067 0.17258 0.0
H2173 H 0.63285 0.51131 0.18439 0.0
H2174 H 0.68314 0.52172 0.18316 0.0
C2175 C 0.83455 0.50715 0.17242 0.0
C2176 C 0.75894 0.49077 0.17864 0.0
H2177 H 0.69717 0.46619 0.16802 0.0
C2178 C 0.7494 0.4992 0.18508 0.0
C2179 C 0.73938 0.47794 0.17249 0.0
C2180 C 0.74661 0.4656 0.16567 0.0
C2181 C 0.7211 0.495 0.18559 0.0
C2182 C 0.70205 0.48352 0.17929 0.0
C2183 C 0.71168 0.47532 0.17283 0.0
C2184 C 0.67162 0.47839 0.1794 0.0
C2185 C 0.7117 0.50174 0.19302 0.0
C2186 C 0.6482 0.45129 0.17717 0.0
C2187 C 0.61954 0.44581 0.17754 0.0
C2188 C 0.6136 0.46708 0.18031 0.0
C2189 C 0.63689 0.49443 0.18233 0.0
C2190 C 0.66563 0.50023 0.18173 0.0
H2191 H 0.72479 0.50087 0.19782 0.0
H2192 H 0.71506 0.5241 0.19282 0.0
H2193 H 0.68842 0.48626 0.19421 0.0
H2194 H 0.65199 0.43403 0.17531 0.0
H2195 H 0.60196 0.4245 0.17596 0.0
H2196 H 0.67066 0.16118 1.00182 0.0
H2197 H 0.62524 0.16285 1.00141 0.0
H2198 H 0.64464 0.20397 0.02333 0.0
H2199 H 0.68969 0.20235 0.02382 0.0
H2200 H 0.57591 0.14162 0.01293 0.0
H2201 H 0.63629 0.2612 1.00822 0.0
H2202 H 0.65214 0.2386 1.00637 0.0
H2203 H 0.64879 0.24811 0.01592 0.0
C2204 C 0.66507 0.1702 1.0066 0.0
C2205 C 0.68401 0.18179 0.01283 0.0
C2206 C 0.63912 0.17117 1.00635 0.0
C2207 C 0.6318 0.18389 0.0123 0.0
C2208 C 0.65005 0.19437 0.01864 0.0
H2209 H 0.50342 0.2384 0.01881 0.0
H2210 H 0.54325 0.22799 0.0203 0.0
C2211 C 0.67582 0.19333 0.01891 0.0
C2212 C 0.60582 0.18748 0.0118 0.0
H2213 H 0.58572 0.23918 1.01026 0.0
C2214 C 0.57797 0.1629 0.01231 0.0
C2215 C 0.60861 0.21529 1.01105 0.0
C2216 C 0.63802 0.24237 1.0103 0.0
C2217 C 0.5528 0.16546 0.01223 0.0
C2218 C 0.55558 0.19331 1.01144 0.0
C2219 C 0.58351 0.21785 1.01091 0.0
C2220 C 0.52993 0.19763 1.01095 0.0
C2221 C 0.52356 0.13836 0.0132 0.0
C2222 C 0.50901 0.18396 1.00523 0.0
C2223 C 0.48614 0.18971 1.00442 0.0
C2224 C 0.48388 0.20956 1.00924 0.0
C2225 C 0.5045 0.22291 0.01504 0.0
C2226 C 0.52733 0.21703 0.01587 0.0
H2227 H 0.52558 0.12082 0.01607 0.0
H2228 H 0.50851 0.14285 0.01653 0.0
H2229 H 0.51379 0.13019 1.00754 0.0
H2230 H 0.51084 0.16948 1.00124 0.0
H2231 H 0.47067 0.1792 0.99987 0.0
H2232 H 0.82077 0.28575 0.01711 0.0
H2233 H 0.83289 0.33659 0.01892 0.0
H2234 H 0.76493 0.32341 1.00331 0.0
H2235 H 0.75282 0.27297 1.00148 0.0
H2236 H 0.84912 0.38124 1.00714 0.0
H2237 H 0.7488 0.35805 0.02262 0.0
H2238 H 0.76082 0.33178 0.02179 0.0
H2239 H 0.7425 0.33767 0.01402 0.0
C2240 C 0.80836 0.29373 0.01411 0.0
C2241 C 0.78586 0.27544 1.00916 0.0
C2242 C 0.81534 0.32273 0.01513 0.0
C2243 C 0.79964 0.33369 1.01129 0.0
C2244 C 0.77709 0.31534 1.00639 0.0
H2245 H 0.83184 0.50579 1.00028 0.0
H2246 H 0.8284 0.45807 1.00039 0.0
C2247 C 0.77027 0.28654 1.00533 0.0
C2248 C 0.8069 0.3644 0.01225 0.0
H2249 H 0.77786 0.4061 0.01783 0.0
C2250 C 0.8337 0.38675 1.00955 0.0
C2251 C 0.78684 0.37156 0.01544 0.0
C2252 C 0.75821 0.34856 0.0187 0.0
C2253 C 0.84055 0.41602 1.00973 0.0
C2254 C 0.81995 0.42304 0.01262 0.0
C2255 C 0.79357 0.40073 0.01556 0.0
C2256 C 0.82494 0.45323 0.01258 0.0
C2257 C 0.86978 0.43917 1.00683 0.0
C2258 C 0.82414 0.46645 0.01938 0.0
C2259 C 0.82602 0.49369 0.01934 0.0
C2260 C 0.82851 0.50828 0.01247 0.0
C2261 C 0.83011 0.49533 1.00567 0.0
C2262 C 0.82826 0.46805 1.00573 0.0
H2263 H 0.88576 0.43146 1.00674 0.0
H2264 H 0.86731 0.44501 1.00095 0.0
H2265 H 0.87862 0.45911 1.01036 0.0
H2266 H 0.8215 0.45542 0.02473 0.0
H2267 H 0.82471 0.50291 0.02469 0.0
H2268 H 0.51515 0.32131 1.0006 0.0
H2269 H 0.5626 0.36583 1.00051 0.0
H2270 H 0.54612 0.3867 0.02292 0.0
H2271 H 0.49957 0.34109 0.02321 0.0
H2272 H 0.5829 0.41996 1.00095 0.0
H2273 H 0.62159 0.39317 0.02713 0.0
H2274 H 0.58766 0.36778 0.02273 0.0
H2275 H 0.58982 0.39586 0.02891 0.0
C2276 C 0.52156 0.33556 1.00547 0.0
C2277 C 0.50372 0.32763 0.01193 0.0
C2278 C 0.54879 0.36102 1.00544 0.0
C2279 C 0.55862 0.37942 0.01181 0.0
C2280 C 0.53983 0.37243 0.01806 0.0
H2281 H 0.71318 0.55343 1.00725 0.0
H2282 H 0.66326 0.51279 1.00837 0.0
C2283 C 0.51297 0.34653 0.01818 0.0
C2284 C 0.58854 0.40557 0.01189 0.0
H2285 H 0.65093 0.44109 0.02237 0.0
C2286 C 0.59779 0.42443 1.00563 0.0
C2287 C 0.60845 0.41135 0.01791 0.0
C2288 C 0.6015 0.39079 0.0245 0.0
C2289 C 0.62606 0.44864 1.00519 0.0
C2290 C 0.64541 0.4553 1.01138 0.0
C2291 C 0.63616 0.43644 0.01765 0.0
C2292 C 0.67569 0.48089 1.01136 0.0
C2293 C 0.63507 0.46595 0.99792 0.0
C2294 C 0.69951 0.47729 0.01321 0.0
C2295 C 0.72801 0.50085 0.01289 0.0
C2296 C 0.73334 0.52839 1.01058 0.0
C2297 C 0.70962 0.5323 1.00897 0.0
C2298 C 0.68109 0.50895 1.00951 0.0
H2299 H 0.62187 0.45271 0.99305 0.0
H2300 H 0.63151 0.48476 0.99846 0.0
H2301 H 0.65834 0.47415 0.99662 0.0
H2302 H 0.69616 0.45605 0.01472 0.0
H2303 H 0.74592 0.4972 0.01414 0.0
H2304 H 0.48706 0.8713 0.85041 0.0
H2305 H 0.50083 0.83364 0.85196 0.0
H2306 H 0.43165 0.77725 0.83685 0.0
H2307 H 0.41779 0.81441 0.83533 0.0
H2308 H 0.43409 0.74971 0.85011 0.0
H2309 H 0.54198 0.8093 0.83597 0.0
H2310 H 0.53569 0.82813 0.84354 0.0
H2311 H 0.51475 0.82 0.835 0.0
C2312 C 0.47481 0.85082 0.84745 0.0
C2313 C 0.45146 0.84584 0.84272 0.0
C2314 C 0.48281 0.82942 0.84829 0.0
C2315 C 0.46754 0.80277 0.84442 0.0
C2316 C 0.44387 0.79767 0.83984 0.0
H2317 H 0.49836 0.66072 0.83425 0.0
H2318 H 0.49503 0.70518 0.83392 0.0
C2319 C 0.43598 0.81896 0.83898 0.0
C2320 C 0.47552 0.7797 0.84518 0.0
H2321 H 0.52815 0.76272 0.84088 0.0
C2322 C 0.45474 0.75263 0.84814 0.0
C2323 C 0.50231 0.7834 0.84251 0.0
C2324 C 0.52497 0.81166 0.83902 0.0
C2325 C 0.45992 0.72918 0.84848 0.0
C2326 C 0.48682 0.73292 0.84589 0.0
C2327 C 0.50766 0.75997 0.84292 0.0
C2328 C 0.49312 0.70859 0.84609 0.0
C2329 C 0.4362 0.70029 0.85144 0.0
C2330 C 0.49439 0.69646 0.85304 0.0
C2331 C 0.49627 0.67113 0.85324 0.0
C2332 C 0.49708 0.65737 0.8465 0.0
C2333 C 0.49779 0.67068 0.83955 0.0
C2334 C 0.49582 0.69608 0.83935 0.0
H2335 H 0.41476 0.69921 0.8516 0.0
H2336 H 0.43423 0.68212 0.84789 0.0
H2337 H 0.44166 0.69704 0.85729 0.0
H2338 H 0.49287 0.70603 0.85831 0.0
H2339 H 0.496 0.66176 0.85871 0.0
H2340 H 0.13563 0.6141 0.85064 0.0
H2341 H 0.17297 0.66545 0.85248 0.0
H2342 H 0.22841 0.65566 0.83632 0.0
H2343 H 0.1917 0.60473 0.83456 0.0
H2344 H 0.25734 0.68358 0.84929 0.0
H2345 H 0.19488 0.73334 0.8377 0.0
H2346 H 0.17759 0.70751 0.84524 0.0
H2347 H 0.18381 0.69552 0.83629 0.0
C2348 C 0.15582 0.623 0.84749 0.0
C2349 C 0.1607 0.60548 0.84242 0.0
C2350 C 0.17702 0.65235 0.8485 0.0
C2351 C 0.20333 0.66454 0.84444 0.0
C2352 C 0.20826 0.64683 0.83948 0.0
H2353 H 0.34024 0.83894 0.83418 0.0
H2354 H 0.29593 0.79108 0.83429 0.0
C2355 C 0.18721 0.61769 0.83848 0.0
C2356 C 0.22631 0.69549 0.8454 0.0
H2357 H 0.24219 0.76552 0.84226 0.0
C2358 C 0.25395 0.7015 0.84781 0.0
C2359 C 0.22198 0.71885 0.84336 0.0
C2360 C 0.19306 0.71365 0.84044 0.0
C2361 C 0.27744 0.73008 0.84816 0.0
C2362 C 0.2731 0.7535 0.8462 0.0
C2363 C 0.24541 0.74758 0.84383 0.0
C2364 C 0.29747 0.78409 0.84631 0.0
C2365 C 0.30698 0.73485 0.85039 0.0
C2366 C 0.31237 0.79656 0.85308 0.0
C2367 C 0.33772 0.82376 0.85302 0.0
C2368 C 0.34856 0.83926 0.84621 0.0
C2369 C 0.33251 0.82761 0.83952 0.0
C2370 C 0.30719 0.80023 0.83957 0.0
H2371 H 0.30812 0.71458 0.84992 0.0
H2372 H 0.32433 0.75181 0.84679 0.0
H2373 H 0.3115 0.74226 0.85636 0.0
H2374 H 0.30494 0.7848 0.85837 0.0
H2375 H 0.34933 0.8322 0.8583 0.0
H2376 H 0.40771 0.56794 0.85322 0.0
H2377 H 0.35761 0.55777 0.85492 0.0
H2378 H 0.33047 0.49968 0.83575 0.0
H2379 H 0.38017 0.50913 0.83419 0.0
H2380 H 0.32607 0.5694 0.8451 0.0
H2381 H 0.26753 0.45094 0.85065 0.0
H2382 H 0.30667 0.47276 0.85103 0.0
H2383 H 0.28838 0.46024 0.84207 0.0
C2384 C 0.39092 0.55257 0.84947 0.0
C2385 C 0.39785 0.53926 0.84359 0.0
C2386 C 0.36231 0.54684 0.85042 0.0
C2387 C 0.34006 0.52761 0.84553 0.0
C2388 C 0.34696 0.51399 0.83973 0.0
H2389 H 0.16409 0.4906 0.83566 0.0
H2390 H 0.21133 0.49269 0.83577 0.0
C2391 C 0.37549 0.5196 0.8388 0.0
C2392 C 0.31019 0.52346 0.84612 0.0
H2393 H 0.2381 0.47186 0.8474 0.0
C2394 C 0.3069 0.54808 0.84568 0.0
C2395 C 0.28504 0.49562 0.84685 0.0
C2396 C 0.28705 0.46842 0.84775 0.0
C2397 C 0.27928 0.54562 0.84579 0.0
C2398 C 0.25418 0.5178 0.84641 0.0
C2399 C 0.25737 0.49315 0.84689 0.0
C2400 C 0.22454 0.51414 0.84664 0.0
C2401 C 0.27707 0.57278 0.84507 0.0
C2402 C 0.21597 0.52472 0.85281 0.0
C2403 C 0.18901 0.52344 0.85279 0.0
C2404 C 0.16997 0.51156 0.84658 0.0
C2405 C 0.17816 0.49991 0.84053 0.0
C2406 C 0.20517 0.5011 0.84058 0.0
H2407 H 0.29778 0.59168 0.84309 0.0
H2408 H 0.25948 0.56926 0.84106 0.0
H2409 H 0.27166 0.57826 0.85067 0.0
H2410 H 0.23043 0.53453 0.85759 0.0
H2411 H 0.1835 0.53255 0.85756 0.0
H2412 H 0.48853 0.75656 0.02242 0.0
H2413 H 0.45091 0.76977 0.02085 0.0
H2414 H 0.50408 0.83469 1.00437 0.0
H2415 H 0.54222 0.82159 1.00596 0.0
H2416 H 0.47768 0.85394 0.01571 0.0
H2417 H 0.39736 0.75011 1.00224 0.0
H2418 H 0.41201 0.74555 1.01096 0.0
H2419 H 0.43551 0.76147 1.00292 0.0
C2420 C 0.49226 0.77362 0.01844 0.0
C2421 C 0.51831 0.788 0.01429 0.0
C2422 C 0.47066 0.78108 0.01754 0.0
C2423 C 0.47452 0.80302 0.01245 0.0
C2424 C 0.50062 0.81764 1.00832 0.0
H2425 H 0.3286 0.82264 0.99832 0.0
H2426 H 0.37331 0.82035 0.99866 0.0
C2427 C 0.52232 0.81007 1.0092 0.0
C2428 C 0.45108 0.81039 1.01149 0.0
H2429 H 0.37957 0.78066 1.00662 0.0
C2430 C 0.45628 0.83805 0.01366 0.0
C2431 C 0.42324 0.78973 1.00876 0.0
C2432 C 0.41667 0.76013 1.00602 0.0
C2433 C 0.43412 0.84529 0.01335 0.0
C2434 C 0.40594 0.82419 1.0109 0.0
C2435 C 0.40106 0.79681 1.00856 0.0
C2436 C 0.38107 0.82977 1.01062 0.0
C2437 C 0.44114 0.87552 0.01559 0.0
C2438 C 0.37074 0.83656 0.01721 0.0
C2439 C 0.34509 0.83811 0.01702 0.0
C2440 C 0.32912 0.83252 1.01027 0.0
C2441 C 0.34022 0.82692 1.00364 0.0
C2442 C 0.36583 0.82557 1.00382 0.0
H2443 H 0.46488 0.89117 0.0153 0.0
H2444 H 0.42964 0.88346 0.0119 0.0
H2445 H 0.43398 0.87512 0.02152 0.0
H2446 H 0.38175 0.83935 0.02256 0.0
H2447 H 0.33701 0.84217 0.02224 0.0
H2448 H 0.19748 0.72966 1.00456 0.0
H2449 H 0.18515 0.6788 1.00257 0.0
H2450 H 0.24408 0.68727 0.02049 0.0
H2451 H 0.25656 0.73766 0.02242 0.0
H2452 H 0.25019 0.6606 1.0078 0.0
H2453 H 0.1342 0.60911 0.01646 0.0
H2454 H 0.14538 0.6358 1.00905 0.0
H2455 H 0.16015 0.64678 0.01839 0.0
C2456 C 0.20781 0.72061 1.00804 0.0
C2457 C 0.22785 0.73759 0.01368 0.0
C2458 C 0.2006 0.69151 1.00695 0.0
C2459 C 0.21334 0.679 1.01147 0.0
C2460 C 0.23383 0.69628 0.01696 0.0
H2461 H 0.17189 0.50206 0.02125 0.0
H2462 H 0.1765 0.55043 0.02129 0.0
C2463 C 0.24094 0.72514 0.01806 0.0
C2464 C 0.20597 0.64813 1.01052 0.0
H2465 H 0.15114 0.57761 0.01255 0.0
C2466 C 0.22848 0.64247 1.00878 0.0
C2467 C 0.17772 0.62443 0.01193 0.0
C2468 C 0.15294 0.62915 0.01413 0.0
C2469 C 0.22364 0.61393 1.00845 0.0
C2470 C 0.19534 0.59018 1.00976 0.0
C2471 C 0.17276 0.59577 1.01149 0.0
C2472 C 0.18919 0.55954 1.00952 0.0
C2473 C 0.24913 0.60949 1.00691 0.0
C2474 C 0.19372 0.5481 1.00283 0.0
C2475 C 0.19116 0.52056 1.00279 0.0
C2476 C 0.18376 0.50362 1.00944 0.0
C2477 C 0.17759 0.51443 0.01603 0.0
C2478 C 0.18027 0.54213 0.01607 0.0
H2479 H 0.27025 0.62971 1.00787 0.0
H2480 H 0.24824 0.59205 1.01057 0.0
H2481 H 0.24844 0.60291 1.00092 0.0
H2482 H 0.20004 0.56083 0.99767 0.0
H2483 H 0.19582 0.51291 0.99758 0.0
H2484 H 0.27189 0.52826 0.01794 0.0
H2485 H 0.32313 0.56519 0.01675 0.0
H2486 H 0.34152 0.50117 1.00727 0.0
H2487 H 0.2897 0.46436 1.00813 0.0
H2488 H 0.3682 0.56842 0.02349 0.0
H2489 H 0.38416 0.56562 0.99253 0.0
H2490 H 0.34863 0.54727 0.99683 0.0
H2491 H 0.3715 0.5312 0.99711 0.0
C2492 C 0.28682 0.52217 0.0155 0.0
C2493 C 0.27687 0.49353 0.0131 0.0
C2494 C 0.31615 0.54327 0.01485 0.0
C2495 C 0.33636 0.53617 0.01187 0.0
C2496 C 0.32639 0.50748 1.00942 0.0
H2497 H 0.52175 0.66697 0.01972 0.0
H2498 H 0.47548 0.62078 0.02005 0.0
C2499 C 0.29679 0.4864 1.00994 0.0
C2500 C 0.3678 0.55883 0.01163 0.0
H2501 H 0.4259 0.59574 0.9998 0.0
C2502 C 0.38083 0.57434 0.01831 0.0
C2503 C 0.38434 0.56667 1.00487 0.0
C2504 C 0.37142 0.55203 0.99741 0.0
C2505 C 0.40941 0.59801 0.01837 0.0
C2506 C 0.42602 0.60581 1.01161 0.0
C2507 C 0.41332 0.58967 1.00499 0.0
C2508 C 0.45533 0.63241 1.01108 0.0
C2509 C 0.42085 0.6153 0.02558 0.0
C2510 C 0.46007 0.65377 1.00569 0.0
C2511 C 0.48659 0.67975 1.00538 0.0
C2512 C 0.50911 0.68526 1.01049 0.0
C2513 C 0.50478 0.66353 0.01574 0.0
C2514 C 0.47823 0.6372 0.01598 0.0
H2515 H 0.40306 0.61097 0.02961 0.0
H2516 H 0.43565 0.60915 0.02841 0.0
H2517 H 0.4332 0.639 0.02439 0.0
H2518 H 0.44288 0.6507 1.00184 0.0
H2519 H 0.48901 0.69591 1.00125 0.0
H2520 H 0.24423 0.50486 0.50473 0.0
H2521 H 0.23497 0.54556 0.50334 0.0
H2522 H 0.16529 0.50569 0.5196 0.0
H2523 H 0.17457 0.46507 0.52106 0.0
H2524 H 0.15567 0.53186 0.50484 0.0
H2525 H 0.25338 0.60482 0.52201 0.0
H2526 H 0.2576 0.58404 0.51456 0.0
H2527 H 0.23573 0.56567 0.52266 0.0
C2528 C 0.22669 0.50458 0.50793 0.0
C2529 C 0.21021 0.48187 0.51303 0.0
C2530 C 0.22149 0.52787 0.50715 0.0
C2531 C 0.19958 0.5287 0.5114 0.0
C2532 C 0.18232 0.50546 0.51627 0.0
H2533 H 0.17147 0.67203 0.52257 0.0
H2534 H 0.17341 0.62689 0.5225 0.0
C2535 C 0.18767 0.48231 0.5171 0.0
C2536 C 0.19565 0.5545 0.51111 0.0
H2537 H 0.22625 0.62505 0.51702 0.0
C2538 C 0.1711 0.55228 0.50747 0.0
C2539 C 0.2157 0.58099 0.51462 0.0
C2540 C 0.24207 0.58423 0.51873 0.0
C2541 C 0.16629 0.57606 0.50719 0.0
C2542 C 0.18646 0.6026 0.51066 0.0
C2543 C 0.21084 0.60468 0.51436 0.0
C2544 C 0.18277 0.62856 0.51053 0.0
C2545 C 0.13953 0.57266 0.50328 0.0
C2546 C 0.18714 0.64435 0.50381 0.0
C2547 C 0.18624 0.67028 0.50384 0.0
C2548 C 0.18079 0.68087 0.51059 0.0
C2549 C 0.17551 0.66446 0.51727 0.0
C2550 C 0.17672 0.6387 0.51724 0.0
H2551 H 0.12383 0.54959 0.5019 0.0
H2552 H 0.12851 0.58136 0.50689 0.0
H2553 H 0.146 0.58535 0.49793 0.0
H2554 H 0.19212 0.63706 0.49859 0.0
H2555 H 0.19048 0.68235 0.4986 0.0
H2556 H 0.48613 0.73552 0.52153 0.0
H2557 H 0.44883 0.68459 0.52 0.0
H2558 H 0.50393 0.67231 0.50429 0.0
H2559 H 0.54176 0.72365 0.50585 0.0
H2560 H 0.42025 0.6555 0.50678 0.0
H2561 H 0.48035 0.60576 0.51989 0.0
H2562 H 0.49139 0.64368 0.52108 0.0
H2563 H 0.49873 0.63126 0.51235 0.0
C2564 C 0.4904 0.72201 0.51775 0.0
C2565 C 0.51696 0.73354 0.51385 0.0
C2566 C 0.46902 0.69288 0.51688 0.0
C2567 C 0.47368 0.67447 0.51212 0.0
C2568 C 0.50005 0.68597 0.5081 0.0
H2569 H 0.33106 0.50615 0.49769 0.0
H2570 H 0.37544 0.55347 0.49807 0.0
C2571 C 0.52154 0.71531 0.50895 0.0
C2572 C 0.45043 0.64352 0.51131 0.0
H2573 H 0.43339 0.57353 0.51511 0.0
C2574 C 0.4232 0.63758 0.50855 0.0
C2575 C 0.45417 0.62016 0.51372 0.0
C2576 C 0.48263 0.62536 0.51698 0.0
C2577 C 0.39961 0.60902 0.50817 0.0
C2578 C 0.40339 0.58561 0.51051 0.0
C2579 C 0.43061 0.59148 0.51327 0.0
C2580 C 0.37891 0.55505 0.51028 0.0
C2581 C 0.37057 0.60421 0.50546 0.0
C2582 C 0.36685 0.5395 0.517 0.0
C2583 C 0.34139 0.5122 0.51682 0.0
C2584 C 0.32756 0.49999 0.50989 0.0
C2585 C 0.34084 0.51492 0.50314 0.0
C2586 C 0.36623 0.54209 0.50334 0.0
H2587 H 0.36963 0.62465 0.50548 0.0
H2588 H 0.36681 0.59581 0.49957 0.0
H2589 H 0.35264 0.5879 0.50905 0.0
H2590 H 0.37638 0.54905 0.52242 0.0
H2591 H 0.33183 0.50139 0.52212 0.0
H2592 H 0.52128 0.8589 0.51925 0.0
H2593 H 0.47472 0.85816 0.51968 0.0
H2594 H 0.44248 0.79587 0.50142 0.0
H2595 H 0.48899 0.79748 0.50074 0.0
H2596 H 0.42401 0.83291 0.49962 0.0
H2597 H 0.40368 0.79426 0.52941 0.0
H2598 H 0.43577 0.82906 0.52819 0.0
H2599 H 0.43383 0.7972 0.52401 0.0
C2600 C 0.50436 0.84532 0.51528 0.0
C2601 C 0.50886 0.82811 0.51 0.0
C2602 C 0.47764 0.84471 0.51557 0.0
C2603 C 0.45472 0.82639 0.5107 0.0
C2604 C 0.45967 0.81012 0.50525 0.0
H2605 H 0.27154 0.74514 0.51862 0.0
H2606 H 0.32272 0.75973 0.51703 0.0
C2607 C 0.4864 0.81105 0.50488 0.0
C2608 C 0.42516 0.82297 0.5114 0.0
H2609 H 0.3681 0.80169 0.5236 0.0
C2610 C 0.41181 0.82619 0.50488 0.0
C2611 C 0.40903 0.81386 0.51823 0.0
C2612 C 0.42115 0.8081 0.52534 0.0
C2613 C 0.3827 0.81985 0.50494 0.0
C2614 C 0.36668 0.81094 0.51178 0.0
C2615 C 0.38033 0.80858 0.51835 0.0
C2616 C 0.33521 0.80191 0.51222 0.0
C2617 C 0.36909 0.82144 0.49758 0.0
C2618 C 0.32485 0.82052 0.50994 0.0
C2619 C 0.29529 0.81186 0.5107 0.0
C2620 C 0.2758 0.78477 0.51392 0.0
C2621 C 0.28613 0.76619 0.51614 0.0
C2622 C 0.31542 0.77457 0.51526 0.0
H2623 H 0.38152 0.82073 0.4926 0.0
H2624 H 0.34633 0.80328 0.4971 0.0
H2625 H 0.36894 0.84224 0.49735 0.0
H2626 H 0.33968 0.84199 0.50775 0.0
H2627 H 0.2879 0.82672 0.50901 0.0
H2628 H 0.13222 0.5054 0.33577 0.0
H2629 H 0.17247 0.49556 0.33709 0.0
H2630 H 0.21368 0.56535 0.35326 0.0
H2631 H 0.17333 0.5752 0.35201 0.0
H2632 H 0.24953 0.56671 0.34038 0.0
H2633 H 0.19541 0.46035 0.35538 0.0
H2634 H 0.17641 0.46359 0.34734 0.0
H2635 H 0.18148 0.48521 0.35561 0.0
C2636 C 0.14966 0.51837 0.33969 0.0
C2637 C 0.14965 0.54107 0.34378 0.0
C2638 C 0.17259 0.51266 0.34045 0.0
C2639 C 0.196 0.52961 0.3453 0.0
C2640 C 0.19577 0.55194 0.34951 0.0
H2641 H 0.35013 0.5225 0.35789 0.0
H2642 H 0.30481 0.52399 0.35769 0.0
C2643 C 0.17268 0.55748 0.34881 0.0
C2644 C 0.22155 0.52524 0.3456 0.0
H2645 H 0.24327 0.477 0.35086 0.0
C2646 C 0.24818 0.54713 0.34268 0.0
C2647 C 0.21973 0.49968 0.34861 0.0
C2648 C 0.19182 0.47587 0.35197 0.0
C2649 C 0.27293 0.54397 0.34262 0.0
C2650 C 0.27104 0.5183 0.34555 0.0
C2651 C 0.24454 0.49653 0.34855 0.0
C2652 C 0.29684 0.51438 0.34576 0.0
C2653 C 0.30112 0.56817 0.33948 0.0
C2654 C 0.307 0.50779 0.33913 0.0
C2655 C 0.33284 0.50666 0.33923 0.0
C2656 C 0.3491 0.5124 0.34594 0.0
C2657 C 0.33824 0.51804 0.35261 0.0
C2658 C 0.31231 0.51888 0.35252 0.0
H2659 H 0.29979 0.5879 0.33812 0.0
H2660 H 0.31902 0.57409 0.3436 0.0
H2661 H 0.30679 0.5606 0.33423 0.0
H2662 H 0.29531 0.50422 0.33385 0.0
H2663 H 0.34061 0.50241 0.33398 0.0
H2664 H 0.42302 0.60657 0.33348 0.0
H2665 H 0.43635 0.65734 0.33515 0.0
H2666 H 0.49707 0.66681 0.35267 0.0
H2667 H 0.484 0.61569 0.35094 0.0
H2668 H 0.43133 0.68431 0.34785 0.0
H2669 H 0.54663 0.73585 0.33856 0.0
H2670 H 0.52065 0.69805 0.3368 0.0
H2671 H 0.53636 0.70954 0.34605 0.0
C2672 C 0.4393 0.61944 0.33768 0.0
C2673 C 0.45262 0.60721 0.34204 0.0
C2674 C 0.44688 0.64849 0.33863 0.0
C2675 C 0.46801 0.66606 0.34395 0.0
C2676 C 0.48113 0.65384 0.34842 0.0
H2677 H 0.48571 0.8312 0.35841 0.0
H2678 H 0.48226 0.78362 0.35815 0.0
C2679 C 0.47351 0.62461 0.34746 0.0
C2680 C 0.4754 0.69687 0.34489 0.0
H2681 H 0.53015 0.76736 0.34285 0.0
C2682 C 0.45298 0.70246 0.34679 0.0
C2683 C 0.50357 0.72055 0.34341 0.0
C2684 C 0.5282 0.71586 0.34103 0.0
C2685 C 0.45786 0.73096 0.34724 0.0
C2686 C 0.48611 0.75468 0.34587 0.0
C2687 C 0.50859 0.74917 0.34396 0.0
C2688 C 0.49225 0.78523 0.34623 0.0
C2689 C 0.43246 0.73537 0.34895 0.0
C2690 C 0.50053 0.80267 0.3397 0.0
C2691 C 0.50279 0.83015 0.33983 0.0
C2692 C 0.49678 0.84061 0.34651 0.0
C2693 C 0.49018 0.82374 0.35314 0.0
C2694 C 0.48807 0.79643 0.35301 0.0
H2695 H 0.41128 0.7152 0.34802 0.0
H2696 H 0.43348 0.74179 0.35497 0.0
H2697 H 0.43318 0.75292 0.34537 0.0
H2698 H 0.50401 0.79451 0.33441 0.0
H2699 H 0.5079 0.84254 0.33462 0.0
H2700 H 0.169 0.66331 0.33488 0.0
H2701 H 0.21678 0.7077 0.33442 0.0
H2702 H 0.22337 0.70586 0.35871 0.0
H2703 H 0.17595 0.66165 0.35925 0.0
H2704 H 0.24203 0.76436 0.34183 0.0
H2705 H 0.2939 0.70041 0.35065 0.0
H2706 H 0.25683 0.6835 0.34733 0.0
H2707 H 0.26563 0.69745 0.35682 0.0
C2708 C 0.18033 0.67263 0.34014 0.0
C2709 C 0.16867 0.65861 0.34709 0.0
C2710 C 0.2077 0.698 0.33986 0.0
C2711 C 0.2239 0.70977 0.34652 0.0
C2712 C 0.21151 0.69687 0.35349 0.0
H2713 H 0.39207 0.87272 0.35088 0.0
H2714 H 0.34088 0.83452 0.35244 0.0
C2715 C 0.18427 0.67158 0.35378 0.0
C2716 C 0.25445 0.73425 0.34616 0.0
H2717 H 0.32462 0.75115 0.34948 0.0
C2718 C 0.26011 0.76155 0.34352 0.0
C2719 C 0.27805 0.73046 0.3483 0.0
C2720 C 0.27347 0.70135 0.35087 0.0
C2721 C 0.28874 0.78518 0.343 0.0
C2722 C 0.31229 0.78144 0.34523 0.0
C2723 C 0.30656 0.75411 0.34785 0.0
C2724 C 0.34317 0.8049 0.34442 0.0
C2725 C 0.29367 0.81373 0.33987 0.0
C2726 C 0.36163 0.80071 0.33954 0.0
C2727 C 0.3907 0.82232 0.33868 0.0
C2728 C 0.40211 0.84862 0.3427 0.0
C2729 C 0.38383 0.85271 0.34769 0.0
C2730 C 0.35456 0.83101 0.34854 0.0
H2731 H 0.27395 0.81144 0.33704 0.0
H2732 H 0.29953 0.82955 0.34457 0.0
H2733 H 0.31192 0.82284 0.33575 0.0
H2734 H 0.35344 0.78072 0.33634 0.0
H2735 H 0.40425 0.81843 0.33482 0.0
H2736 H 0.20362 0.31303 0.16591 0.0
H2737 H 0.25695 0.33865 0.16513 0.0
H2738 H 0.26163 0.32091 0.18875 0.0
H2739 H 0.20872 0.29502 0.18955 0.0
H2740 H 0.30014 0.38645 0.17277 0.0
H2741 H 0.30922 0.28903 0.17914 0.0
H2742 H 0.27504 0.28671 0.17681 0.0
H2743 H 0.2897 0.29662 0.18622 0.0
C2744 C 0.216 0.31466 0.17094 0.0
C2745 C 0.20172 0.30164 0.17777 0.0
C2746 C 0.24653 0.32931 0.17049 0.0
C2747 C 0.26342 0.33119 0.17684 0.0
C2748 C 0.2492 0.31912 0.18371 0.0
H2749 H 0.45162 0.40458 0.18405 0.0
H2750 H 0.39898 0.38403 0.18602 0.0
C2751 C 0.21881 0.30443 0.18417 0.0
C2752 C 0.29583 0.34568 0.17631 0.0
H2753 H 0.3533 0.33426 0.17887 0.0
C2754 C 0.31172 0.37499 0.17408 0.0
C2755 C 0.31112 0.33085 0.17805 0.0
C2756 C 0.29542 0.299 0.18012 0.0
C2757 C 0.34232 0.38986 0.17363 0.0
C2758 C 0.35757 0.37499 0.17533 0.0
C2759 C 0.34171 0.34577 0.17762 0.0
C2760 C 0.38973 0.38877 0.17433 0.0
C2761 C 0.35811 0.42154 0.17141 0.0
C2762 C 0.40208 0.39808 0.16712 0.0
C2763 C 0.43196 0.40974 0.16601 0.0
C2764 C 0.45035 0.41242 0.17207 0.0
C2765 C 0.43811 0.40325 0.1793 0.0
C2766 C 0.40802 0.39136 0.18041 0.0
H2767 H 0.34459 0.43178 0.17244 0.0
H2768 H 0.37884 0.43385 0.17458 0.0
H2769 H 0.36326 0.42342 0.16527 0.0
H2770 H 0.38848 0.39577 0.1623 0.0
H2771 H 0.44065 0.41639 0.16035 0.0
H2772 H 0.62387 0.06198 0.18358 0.0
H2773 H 0.64625 0.03137 0.18468 0.0
H2774 H 0.59658 0.98093 0.16546 0.0
H2775 H 0.57358 0.01088 0.16449 0.0
H2776 H 0.59772 0.94606 0.17626 0.0
H2777 H 0.71012 0.03624 0.17147 0.0
H2778 H 0.69292 0.04251 0.17941 0.0
H2779 H 0.67876 0.04038 0.17002 0.0
C2780 C 0.61767 0.0443 0.17961 0.0
C2781 C 0.59713 0.03901 0.17391 0.0
C2782 C 0.63066 0.02693 0.1802 0.0
C2783 C 0.6237 0.00418 0.17504 0.0
C2784 C 0.60255 0.99842 0.16948 0.0
H2785 H 0.68929 0.88305 0.1674 0.0
H2786 H 0.66299 0.91005 0.16635 0.0
C2787 C 0.58941 0.01561 0.16893 0.0
C2788 C 0.63835 0.98635 0.1754 0.0
H2789 H 0.70504 0.99102 0.17535 0.0
C2790 C 0.62118 0.95592 0.17601 0.0
C2791 C 0.66901 0.99905 0.17502 0.0
C2792 C 0.68878 0.03129 0.17387 0.0
C2793 C 0.63378 0.93805 0.17645 0.0
C2794 C 0.6644 0.95085 0.17622 0.0
C2795 C 0.68156 0.9812 0.17555 0.0
C2796 C 0.67921 0.93334 0.17691 0.0
C2797 C 0.61431 0.90566 0.17735 0.0
C2798 C 0.69719 0.93749 0.18315 0.0
C2799 C 0.71212 0.92209 0.18378 0.0
C2800 C 0.70975 0.90228 0.17813 0.0
C2801 C 0.69157 0.89799 0.17188 0.0
C2802 C 0.67643 0.91336 0.17128 0.0
H2803 H 0.59171 0.89976 0.17887 0.0
H2804 H 0.61364 0.89476 0.17193 0.0
H2805 H 0.62294 0.89712 0.18178 0.0
H2806 H 0.69976 0.95281 0.18756 0.0
H2807 H 0.72592 0.92613 0.18868 0.0
H2808 H 0.11997 0.80525 0.16757 0.0
H2809 H 0.09191 0.75199 0.16713 0.0
H2810 H 0.06967 0.74971 0.19069 0.0
H2811 H 0.09713 0.80275 0.19115 0.0
H2812 H 0.09596 0.70926 0.17504 0.0
H2813 H 0.99007 0.70208 0.18118 0.0
H2814 H 0.02218 0.73589 0.17875 0.0
H2815 H 0.01743 0.72163 0.1882 0.0
C2816 C 0.10925 0.79344 0.17267 0.0
C2817 C 0.1107 0.80846 0.17938 0.0
C2818 C 0.09315 0.76293 0.17241 0.0
C2819 C 0.07807 0.74672 0.17884 0.0
C2820 C 0.0804 0.76163 0.1856 0.0
H2821 H 0.96011 0.55822 0.1854 0.0
H2822 H 0.99289 0.6105 0.18773 0.0
C2823 C 0.09635 0.79207 0.18586 0.0
C2824 C 0.05981 0.71432 0.17845 0.0
H2825 H 0.99033 0.65764 0.18077 0.0
C2826 C 0.07287 0.69802 0.17629 0.0
C2827 C 0.02963 0.69947 0.18011 0.0
C2828 C 0.01389 0.71563 0.18212 0.0
C2829 C 0.05669 0.66747 0.17576 0.0
C2830 C 0.02648 0.65268 0.17734 0.0
C2831 C 0.0135 0.6689 0.17961 0.0
C2832 C 0.00764 0.62071 0.17612 0.0
C2833 C 0.07216 0.65123 0.17357 0.0
C2834 C 1.00481 0.60904 0.16884 0.0
C2835 C 0.98619 0.57938 0.16752 0.0
C2836 C 0.96989 0.56054 0.17344 0.0
C2837 C 0.97274 0.57208 0.18076 0.0
C2838 C 0.99133 0.60197 0.18208 0.0
H2839 H 0.09588 0.66427 0.17473 0.0
H2840 H 0.06312 0.63027 0.17666 0.0
H2841 H 0.06926 0.64649 0.16741 0.0
H2842 H 0.01658 0.62303 0.16411 0.0
H2843 H 0.98433 0.57123 0.1618 0.0
H2844 H 0.28574 0.2058 0.33481 0.0
H2845 H 0.31184 0.25859 0.33588 0.0
H2846 H 0.3497 0.2529 0.35694 0.0
H2847 H 0.32342 0.19958 0.35593 0.0
H2848 H 0.30691 0.29132 0.34829 0.0
H2849 H 0.42013 0.31385 0.34402 0.0
H2850 H 0.38878 0.28 0.34117 0.0
H2851 H 0.39862 0.28681 0.35098 0.0
C2852 C 0.29975 0.2156 0.33966 0.0
C2853 C 0.30243 0.19825 0.34529 0.0
C2854 C 0.31465 0.24591 0.34026 0.0
C2855 C 0.33289 0.25978 0.34646 0.0
C2856 C 0.33601 0.24269 0.35206 0.0
H2857 H 0.43863 0.44306 0.35834 0.0
H2858 H 0.41581 0.39015 0.35745 0.0
C2859 C 0.32091 0.21219 0.35148 0.0
C2860 C 0.34759 0.29204 0.34711 0.0
H2861 H 0.41403 0.35408 0.34659 0.0
C2862 C 0.33034 0.30507 0.34792 0.0
C2863 C 0.37814 0.30994 0.34666 0.0
C2864 C 0.39763 0.29711 0.34561 0.0
C2865 C 0.34277 0.33546 0.34836 0.0
C2866 C 0.37335 0.35349 0.34775 0.0
C2867 C 0.39061 0.34038 0.34701 0.0
C2868 C 0.38785 0.38591 0.34804 0.0
C2869 C 0.323 0.34784 0.34967 0.0
C2870 C 0.38032 0.40145 0.34294 0.0
C2871 C 0.39321 0.43179 0.34348 0.0
C2872 C 0.41418 0.44723 0.34907 0.0
C2873 C 0.42245 0.43179 0.35399 0.0
C2874 C 0.40942 0.4015 0.35348 0.0
H2875 H 0.30191 0.33146 0.3522 0.0
H2876 H 0.3333 0.36706 0.35347 0.0
H2877 H 0.3183 0.35472 0.34417 0.0
H2878 H 0.36437 0.39011 0.33855 0.0
H2879 H 0.3866 0.44312 0.33956 0.0
H2880 H 0.56638 0.94745 0.34008 0.0
H2881 H 0.61947 0.97842 0.33901 0.0
H2882 H 0.61925 0.03073 0.35763 0.0
H2883 H 0.56637 1.00008 0.35871 0.0
H2884 H 0.6543 0.04239 0.33698 0.0
H2885 H 0.67867 0.00428 0.36387 0.0
H2886 H 0.64421 0.98403 0.35904 0.0
H2887 H 0.65212 0.01581 0.36443 0.0
C2888 C 0.57766 0.96563 0.34392 0.0
C2889 C 0.56219 0.97121 0.3495 0.0
C2890 C 0.60798 0.98331 0.3433 0.0
C2891 C 0.62342 0.00667 0.34831 0.0
C2892 C 0.6079 0.0126 0.35378 0.0
H2893 H 0.81008 0.12593 0.35561 0.0
H2894 H 0.75678 0.09996 0.35651 0.0
C2895 C 0.57763 0.99511 0.35436 0.0
C2896 C 0.65573 0.02483 0.34785 0.0
H2897 H 0.71839 0.04245 0.35744 0.0
C2898 C 0.66834 0.04238 0.34145 0.0
C2899 C 0.67404 0.02505 0.3537 0.0
C2900 C 0.66172 0.00617 0.36064 0.0
C2901 C 0.6987 0.0603 0.34077 0.0
C2902 C 0.71713 0.06011 0.34656 0.0
C2903 C 0.70442 0.04272 0.353 0.0
C2904 C 0.74958 0.07682 0.34592 0.0
C2905 C 0.71064 0.07975 0.33392 0.0
C2906 C 0.76346 0.07238 0.33972 0.0
C2907 C 0.79381 0.08733 0.33916 0.0
C2908 C 0.81127 0.10688 0.34485 0.0
C2909 C 0.7974 0.1112 0.3511 0.0
C2910 C 0.76689 0.09629 0.35163 0.0
H2911 H 0.69431 0.08462 0.33144 0.0
H2912 H 0.73048 0.1006 0.33534 0.0
H2913 H 0.71634 0.06853 0.32952 0.0
H2914 H 0.75081 0.05692 0.33534 0.0
H2915 H 0.80357 0.08311 0.3343 0.0
H2916 H 0.91543 0.7108 0.33401 0.0
H2917 H 0.94206 0.68459 0.33511 0.0
H2918 H 0.9212 0.6707 0.35889 0.0
H2919 H 0.89391 0.69663 0.3578 0.0
H2920 H 0.98975 0.6984 0.34344 0.0
H2921 H 0.90085 0.58978 0.35223 0.0
H2922 H 0.89402 0.61753 0.34855 0.0
H2923 H 0.90481 0.61875 0.35826 0.0
C2924 C 0.91617 0.70195 0.33948 0.0
C2925 C 0.90238 0.70586 0.34582 0.0
C2926 C 0.93152 0.68695 0.34009 0.0
C2927 C 0.93351 0.67531 0.34705 0.0
C2928 C 0.91954 0.67888 0.3534 0.0
H2929 H 0.02965 0.59485 0.36378 0.0
H2930 H 0.99838 0.6158 0.36177 0.0
C2931 C 0.90401 0.69385 0.35279 0.0
C2932 C 0.95135 0.66073 0.34767 0.0
H2933 H 0.94897 0.5975 0.35292 0.0
C2934 C 0.98073 0.67625 0.34547 0.0
C2935 C 0.93971 0.63179 0.35029 0.0
C2936 C 0.90806 0.61335 0.3524 0.0
C2937 C 0.99887 0.66399 0.34598 0.0
C2938 C 0.9873 0.63517 0.34867 0.0
C2939 C 0.95788 0.61956 0.35083 0.0
C2940 C 0.00572 0.62141 0.34969 0.0
C2941 C 0.03053 0.68238 0.34387 0.0
C2942 C 0.02006 0.61705 0.34355 0.0
C2943 C 0.03808 0.60496 0.34469 0.0
C2944 C 0.04196 0.59693 0.352 0.0
C2945 C 0.02715 0.60082 0.35808 0.0
C2946 C 0.00919 0.61277 0.35694 0.0
H2947 H 0.03742 0.70586 0.34357 0.0
H2948 H 0.04459 0.67947 0.34802 0.0
H2949 H 0.03414 0.67558 0.33822 0.0
H2950 H 0.01742 0.6231 0.33787 0.0
H2951 H 0.04932 0.60241 0.33991 0.0
H2952 H 0.57199 0.59244 0.86305 0.0
H2953 H 0.62404 0.61297 0.86085 0.0
H2954 H 0.61144 0.62158 0.83707 0.0
H2955 H 0.55905 0.60136 0.8393 0.0
H2956 H 0.65434 0.59455 0.8516 0.0
H2957 H 0.6748 0.70392 0.84303 0.0
H2958 H 0.6414 0.67745 0.84752 0.0
H2959 H 0.64738 0.67407 0.83765 0.0
C2960 C 0.58024 0.5986 0.85734 0.0
C2961 C 0.56136 0.5952 0.85134 0.0
C2962 C 0.61004 0.6103 0.85609 0.0
C2963 C 0.62184 0.61917 0.84881 0.0
C2964 C 0.60296 0.61531 0.84276 0.0
H2965 H 0.80125 0.70898 0.83294 0.0
H2966 H 0.7484 0.68274 0.83403 0.0
C2967 C 0.57297 0.60346 0.84401 0.0
C2968 C 0.6539 0.63273 0.84769 0.0
H2969 H 0.71478 0.69614 0.84265 0.0
C2970 C 0.66755 0.61674 0.84963 0.0
C2971 C 0.67123 0.66174 0.84514 0.0
C2972 C 0.6581 0.68047 0.84327 0.0
C2973 C 0.6979 0.62882 0.84901 0.0
C2974 C 0.71527 0.65795 0.84654 0.0
C2975 C 0.70157 0.67383 0.84455 0.0
C2976 C 0.74764 0.67241 0.8459 0.0
C2977 C 0.71096 0.61003 0.85087 0.0
C2978 C 0.76512 0.67537 0.85221 0.0
C2979 C 0.7956 0.69034 0.8516 0.0
C2980 C 0.80926 0.70296 0.84468 0.0
C2981 C 0.79162 0.69964 0.83837 0.0
C2982 C 0.76128 0.68463 0.83898 0.0
H2983 H 0.6945 0.58652 0.85057 0.0
H2984 H 0.72911 0.61447 0.84697 0.0
H2985 H 0.71966 0.61481 0.85673 0.0
H2986 H 0.75525 0.66673 0.85766 0.0
H2987 H 0.80844 0.69266 0.85659 0.0
H2988 H 0.31133 0.11189 0.85523 0.0
H2989 H 0.33736 0.08477 0.85578 0.0
H2990 H 0.33099 0.07451 0.83153 0.0
H2991 H 0.30481 0.10157 0.8309 0.0
H2992 H 0.31459 0.02577 0.85033 0.0
H2993 H 0.41861 0.10424 0.83639 0.0
H2994 H 0.39423 0.1151 0.84044 0.0
H2995 H 0.38587 0.09669 0.83148 0.0
C2996 C 0.31576 0.10425 0.84998 0.0
C2997 C 0.30594 0.10905 0.84301 0.0
C2998 C 0.33059 0.08863 0.85032 0.0
C2999 C 0.33631 0.07774 0.8437 0.0
C3000 C 0.32715 0.083 0.83671 0.0
H3001 H 0.38096 0.94019 0.8403 0.0
H3002 H 0.35928 0.97126 0.83865 0.0
C3003 C 0.3121 0.09844 0.83637 0.0
C3004 C 0.35052 0.05965 0.84416 0.0
H3005 H 0.41193 0.05772 0.83929 0.0
C3006 C 0.33586 0.03274 0.84791 0.0
C3007 C 0.37835 0.06884 0.84105 0.0
C3008 C 0.39541 0.09788 0.83715 0.0
C3009 C 0.34813 0.01469 0.84856 0.0
C3010 C 0.37579 0.02368 0.84537 0.0
C3011 C 0.39063 0.05074 0.84169 0.0
C3012 C 0.38989 0.00554 0.84599 0.0
C3013 C 0.33163 0.98628 0.85278 0.0
C3014 C 0.41471 0.01476 0.85052 0.0
C3015 C 0.42704 0.99699 0.8515 0.0
C3016 C 0.41497 0.96976 0.84791 0.0
C3017 C 0.39069 0.96099 0.84317 0.0
C3018 C 0.37823 0.97868 0.84224 0.0
H3019 H 0.3132 0.98496 0.85609 0.0
H3020 H 0.32275 0.96806 0.84867 0.0
H3021 H 0.3463 0.9833 0.8567 0.0
H3022 H 0.42413 0.03543 0.85345 0.0
H3023 H 0.4458 0.00441 0.85516 0.0
H3024 H 0.89269 0.20122 0.83413 0.0
H3025 H 0.91976 0.2543 0.83489 0.0
H3026 H 0.94187 0.24895 0.85813 0.0
H3027 H 0.91285 0.19575 0.85752 0.0
H3028 H 0.93372 0.29159 0.85724 0.0
H3029 H 1.00397 0.30365 0.83289 0.0
H3030 H 0.96671 0.28622 0.82999 0.0
H3031 H 0.97843 0.26856 0.83671 0.0
C3032 C 0.90312 0.21144 0.83942 0.0
C3033 C 0.90076 0.19438 0.84576 0.0
C3034 C 0.91897 0.24184 0.83983 0.0
C3035 C 0.93396 0.25595 0.84648 0.0
C3036 C 0.93083 0.23882 0.85289 0.0
H3037 H 0.07513 0.43714 0.84552 0.0
H3038 H 0.04525 0.38405 0.84519 0.0
C3039 C 0.91418 0.20836 0.85256 0.0
C3040 C 0.95272 0.28842 0.84676 0.0
H3041 H 1.00545 0.34705 0.83713 0.0
C3042 C 0.94958 0.30363 0.85287 0.0
C3043 C 0.97405 0.30444 0.84118 0.0
C3044 C 0.98122 0.28981 0.83488 0.0
C3045 C 0.96669 0.33409 0.85349 0.0
C3046 C 0.98659 0.35026 0.84763 0.0
C3047 C 0.98997 0.335 0.84158 0.0
C3048 C 1.00469 0.38282 0.84774 0.0
C3049 C 0.96381 0.34829 0.86059 0.0
C3050 C 0.99208 0.40025 0.84912 0.0
C3051 C 0.00936 0.43059 0.84954 0.0
C3052 C 0.03947 0.44432 0.84827 0.0
C3053 C 0.05195 0.42714 0.84651 0.0
C3054 C 0.03481 0.39673 0.84632 0.0
H3055 H 0.95606 0.33286 0.86543 0.0
H3056 H 0.98482 0.36758 0.8622 0.0
H3057 H 0.94751 0.35523 0.85964 0.0
H3058 H 0.96884 0.39044 0.84991 0.0
H3059 H 0.99915 0.44337 0.85082 0.0
H3060 H 0.62169 0.56356 0.68373 0.0
H3061 H 0.6438 0.61651 0.68496 0.0
H3062 H 0.59406 0.6176 0.66578 0.0
H3063 H 0.57135 0.56481 0.66469 0.0
H3064 H 0.67767 0.65875 0.67533 0.0
H3065 H 0.57858 0.66609 0.68028 0.0
H3066 H 0.57839 0.63205 0.68072 0.0
H3067 H 0.57641 0.64696 0.67172 0.0
C3068 C 0.61522 0.57509 0.67984 0.0
C3069 C 0.59466 0.55996 0.67414 0.0
C3070 C 0.62792 0.60539 0.68054 0.0
C3071 C 0.62032 0.62121 0.67555 0.0
C3072 C 0.59978 0.60601 0.66985 0.0
H3073 H 0.69436 0.80801 0.66696 0.0
H3074 H 0.66787 0.75467 0.66601 0.0
C3075 C 0.58692 0.57575 0.66919 0.0
C3076 C 0.63486 0.65364 0.67607 0.0
H3077 H 0.62188 0.71058 0.67733 0.0
C3078 C 0.6654 0.66999 0.67582 0.0
C3079 C 0.61899 0.66855 0.67669 0.0
C3080 C 0.58631 0.6525 0.67744 0.0
C3081 C 0.68037 0.70059 0.67608 0.0
C3082 C 0.66449 0.7154 0.67661 0.0
C3083 C 0.63401 0.6992 0.67685 0.0
C3084 C 0.67938 0.74767 0.67725 0.0
C3085 C 0.71314 0.71701 0.67571 0.0
C3086 C 0.69416 0.76141 0.68392 0.0
C3087 C 0.70907 0.79176 0.68451 0.0
C3088 C 0.70972 0.80924 0.67841 0.0
C3089 C 0.69441 0.79535 0.67176 0.0
C3090 C 0.67924 0.76485 0.67121 0.0
H3091 H 0.72197 0.70281 0.67398 0.0
H3092 H 0.7209 0.73542 0.67166 0.0
H3093 H 0.72203 0.72618 0.68138 0.0
H3094 H 0.69437 0.74861 0.68868 0.0
H3095 H 0.72054 0.80148 0.68973 0.0
H3096 H 0.44781 0.06063 0.68337 0.0
H3097 H 0.39493 0.02957 0.6847 0.0
H3098 H 0.39372 0.97863 0.66554 0.0
H3099 H 0.44647 0.00897 0.66434 0.0
H3100 H 0.35238 0.02081 0.67514 0.0
H3101 H 0.3459 0.91481 0.68016 0.0
H3102 H 0.37983 0.94877 0.68053 0.0
H3103 H 0.36475 0.93172 0.67157 0.0
C3104 C 0.43626 0.04257 0.67951 0.0
C3105 C 0.45135 0.03718 0.67377 0.0
C3106 C 0.40601 0.02485 0.68026 0.0
C3107 C 0.39019 1.00133 0.6753 0.0
C3108 C 0.40533 0.99603 0.66958 0.0
H3109 H 0.20337 0.88712 0.66722 0.0
H3110 H 0.25667 0.91406 0.66619 0.0
C3111 C 0.43555 0.01357 0.66886 0.0
C3112 C 0.35779 0.98329 0.67589 0.0
H3113 H 0.30117 0.91329 0.67735 0.0
C3114 C 0.34128 0.99733 0.67567 0.0
C3115 C 0.34306 0.95255 0.67658 0.0
C3116 C 0.3593 0.93609 0.6773 0.0
C3117 C 0.3107 0.98157 0.67601 0.0
C3118 C 0.29606 0.95091 0.67661 0.0
C3119 C 0.31242 0.93678 0.67682 0.0
C3120 C 0.26382 0.93339 0.67732 0.0
C3121 C 0.29412 0.99777 0.67564 0.0
C3122 C 0.25017 0.93483 0.68397 0.0
C3123 C 0.21983 0.91934 0.68461 0.0
C3124 C 0.20228 0.90206 0.67858 0.0
C3125 C 0.21608 0.90018 0.67197 0.0
C3126 C 0.24657 0.91558 0.67136 0.0
H3127 H 0.30811 0.02069 0.6738 0.0
H3128 H 0.27543 0.9868 0.67169 0.0
H3129 H 0.28533 0.99785 0.68134 0.0
H3130 H 0.26304 0.94821 0.68867 0.0
H3131 H 0.21018 0.92143 0.6898 0.0
H3132 H 0.95105 0.38921 0.6829 0.0
H3133 H 0.98183 0.36703 0.6841 0.0
H3134 H 0.03281 0.41716 0.66498 0.0
H3135 H 1.00275 0.43995 0.66392 0.0
H3136 H 0.99017 0.33333 0.67443 0.0
H3137 H 0.09665 0.43218 0.67948 0.0
H3138 H 0.06285 0.43246 0.67992 0.0
H3139 H 0.07974 0.43449 0.67092 0.0
C3140 C 0.96907 0.39575 0.67902 0.0
C3141 C 0.97454 0.41644 0.67334 0.0
C3142 C 0.98663 0.38301 0.67969 0.0
C3143 C 0.01007 0.39069 0.67471 0.0
C3144 C 0.01548 0.41137 0.66903 0.0
H3145 H 0.12298 0.31662 0.6663 0.0
H3146 H 0.09628 0.34326 0.66531 0.0
C3147 C 0.9981 0.42427 0.6684 0.0
C3148 C 0.02791 0.37608 0.67521 0.0
H3149 H 0.09773 0.38882 0.67657 0.0
C3150 C 0.01366 0.34554 0.67494 0.0
C3151 C 0.05867 0.39186 0.67587 0.0
C3152 C 0.07536 0.42453 0.67664 0.0
C3153 C 0.02921 0.33049 0.67522 0.0
C3154 C 0.05988 0.34628 0.67581 0.0
C3155 C 0.07423 0.37676 0.67605 0.0
C3156 C 0.07718 0.33129 0.67648 0.0
C3157 C 0.01278 0.29772 0.67483 0.0
C3158 C 0.07575 0.3162 0.68313 0.0
C3159 C 0.0911 0.30119 0.68374 0.0
C3160 C 0.10822 0.30076 0.67769 0.0
C3161 C 0.11003 0.31639 0.67107 0.0
C3162 C 0.09479 0.33164 0.67049 0.0
H3163 H 0.98986 0.289 0.67302 0.0
H3164 H 0.02357 0.28994 0.67083 0.0
H3165 H 0.01274 0.28873 0.6805 0.0
H3166 H 0.06252 0.31583 0.68784 0.0
H3167 H 0.08906 0.28948 0.68893 0.0
H3168 H 0.86611 0.61937 0.50017 0.0
H3169 H 0.91927 0.64373 0.49967 0.0
H3170 H 0.92404 0.67805 0.52211 0.0
H3171 H 0.87094 0.6521 0.5228 0.0
H3172 H 0.96138 0.6953 0.49978 0.0
H3173 H 0.97405 0.64443 0.52569 0.0
H3174 H 0.93892 0.63341 0.52164 0.0
H3175 H 0.95625 0.6647 0.52778 0.0
C3176 C 0.87854 0.63221 0.50498 0.0
C3177 C 0.86434 0.63361 0.51155 0.0
C3178 C 0.909 0.64612 0.50471 0.0
C3179 C 0.92597 0.66216 0.51094 0.0
C3180 C 0.91169 0.66488 0.51733 0.0
H3181 H 0.11309 0.78366 0.50579 0.0
H3182 H 0.06021 0.76121 0.50683 0.0
C3183 C 0.88126 0.65033 0.51769 0.0
C3184 C 0.95845 0.67606 0.51072 0.0
H3185 H 0.01733 0.68472 0.52079 0.0
C3186 C 0.97353 0.69276 0.50437 0.0
C3187 C 0.97459 0.6724 0.5166 0.0
C3188 C 0.96007 0.65249 0.52326 0.0
C3189 C 1.00398 0.70604 0.50375 0.0
C3190 C 0.02027 0.70389 0.50984 0.0
C3191 C 1.00515 0.68691 0.51616 0.0
C3192 C 0.0528 0.71833 0.50971 0.0
C3193 C 0.01808 0.7213 0.49643 0.0
C3194 C 0.0668 0.70247 0.51148 0.0
C3195 C 0.0972 0.71567 0.51119 0.0
C3196 C 0.11425 0.7449 0.50899 0.0
C3197 C 0.10042 0.76099 0.50741 0.0
C3198 C 0.07011 0.74801 0.50791 0.0
H3199 H 1.00255 0.7125 0.49162 0.0
H3200 H 0.02516 0.74474 0.49696 0.0
H3201 H 0.03728 0.7191 0.49505 0.0
H3202 H 0.05418 0.67964 0.51295 0.0
H3203 H 0.10727 0.70272 0.51243 0.0
H3204 H 0.36383 0.22516 0.49949 0.0
H3205 H 0.33826 0.25292 0.49855 0.0
H3206 H 0.35481 0.27516 0.5222 0.0
H3207 H 0.38057 0.24805 0.52316 0.0
H3208 H 0.28996 0.24838 0.50617 0.0
H3209 H 0.38772 0.35472 0.51242 0.0
H3210 H 0.38985 0.32273 0.51012 0.0
H3211 H 0.37996 0.3276 0.51952 0.0
C3212 C 0.36192 0.23586 0.50449 0.0
C3213 C 0.37458 0.23455 0.51138 0.0
C3214 C 0.34731 0.25176 0.50395 0.0
C3215 C 0.34515 0.26675 0.51026 0.0
C3216 C 0.35682 0.26452 0.51719 0.0
H3217 H 0.27307 0.38278 0.51714 0.0
H3218 H 0.29334 0.35049 0.51919 0.0
C3219 C 0.37144 0.24878 0.51774 0.0
C3220 C 0.33083 0.28479 0.50965 0.0
H3221 H 0.34263 0.35385 0.51208 0.0
C3222 C 0.30153 0.27146 0.50743 0.0
C3223 C 0.3458 0.31494 0.51134 0.0
C3224 C 0.37764 0.33095 0.51342 0.0
C3225 C 0.28678 0.2873 0.50694 0.0
C3226 C 0.3018 0.31745 0.5086 0.0
C3227 C 0.33102 0.33073 0.51087 0.0
C3228 C 0.28816 0.33595 0.50755 0.0
C3229 C 0.25508 0.27148 0.50475 0.0
C3230 C 0.2787 0.33874 0.50034 0.0
C3231 C 0.26717 0.35705 0.49919 0.0
C3232 C 0.2648 0.37311 0.5052 0.0
C3233 C 0.27415 0.37032 0.51244 0.0
C3234 C 0.28589 0.35201 0.51359 0.0
H3235 H 0.24473 0.24776 0.50586 0.0
H3236 H 0.24288 0.28014 0.50788 0.0
H3237 H 0.25317 0.2745 0.4986 0.0
H3238 H 0.2808 0.3272 0.49555 0.0
H3239 H 0.26039 0.35888 0.49353 0.0
H3240 H 0.67895 0.89527 0.50443 0.0
H3241 H 0.70999 0.94808 0.50562 0.0
H3242 H 0.63488 0.95504 0.51163 0.0
H3243 H 0.60438 0.90213 0.511 0.0
H3244 H 0.71392 0.99053 0.49845 0.0
H3245 H 0.6862 0.00513 0.52759 0.0
H3246 H 0.67425 0.96961 0.52368 0.0
H3247 H 0.65406 0.98808 0.52189 0.0
C3248 C 0.66923 0.90811 0.50614 0.0
C3249 C 0.63934 0.89458 0.50771 0.0
C3250 C 0.68696 0.93837 0.50678 0.0
C3251 C 0.67511 0.9559 0.50887 0.0
C3252 C 0.64501 0.94225 0.5103 0.0
H3253 H 0.76399 0.14299 0.49876 0.0
H3254 H 0.73645 0.08982 0.49806 0.0
C3255 C 0.62745 0.91192 0.50988 0.0
C3256 C 0.69401 0.98837 0.50925 0.0
H3257 H 0.7094 0.04803 0.51995 0.0
C3258 C 0.71312 1.00301 0.50321 0.0
C3259 C 0.69365 0.005 0.51549 0.0
C3260 C 0.67618 0.99108 0.52256 0.0
C3261 C 0.73141 0.03345 0.50318 0.0
C3262 C 0.72962 0.05022 0.50919 0.0
C3263 C 0.71074 0.03554 0.51527 0.0
C3264 C 0.74729 0.08284 0.50942 0.0
C3265 C 0.75303 0.04699 0.4968 0.0
C3266 C 0.76197 0.09713 0.51609 0.0
C3267 C 0.77677 0.12752 0.51658 0.0
C3268 C 0.77794 0.14452 0.51034 0.0
C3269 C 0.76397 0.13045 0.5036 0.0
C3270 C 0.74834 0.09996 0.50319 0.0
H3271 H 0.75887 0.03128 0.49437 0.0
H3272 H 0.74316 0.05342 0.4922 0.0
H3273 H 0.7733 0.06651 0.49872 0.0
H3274 H 0.76169 0.08474 0.521 0.0
H3275 H 0.78727 0.13778 0.52186 0.0
H3276 H 0.07939 0.7718 0.69692 0.0
H3277 H 0.05853 0.71961 0.69491 0.0
H3278 H 0.04855 0.73097 0.67113 0.0
H3279 H 0.07009 0.78362 0.67312 0.0
H3280 H 1.00533 0.68017 0.69009 0.0
H3281 H 0.08711 0.68192 0.67022 0.0
H3282 H 0.09322 0.71364 0.67546 0.0
H3283 H 0.07101 0.70285 0.66708 0.0
C3284 C 0.073 0.76325 0.69124 0.0
C3285 C 0.07663 0.78188 0.68516 0.0
C3286 C 0.06101 0.73334 0.6901 0.0
C3287 C 0.05227 0.72118 0.68285 0.0
C3288 C 0.05574 0.73977 0.67675 0.0
H3289 H 0.96255 0.54218 0.66669 0.0
H3290 H 0.98719 0.595 0.66805 0.0
C3291 C 0.06794 0.76987 0.67789 0.0
C3292 C 0.03861 0.68899 0.68183 0.0
H3293 H 0.04486 0.6361 0.67237 0.0
C3294 C 0.0141 0.6706 0.68623 0.0
C3295 C 0.04993 0.67631 0.6768 0.0
C3296 C 0.07692 0.69465 0.67217 0.0
C3297 C 1.00049 0.64011 0.68568 0.0
C3298 C 0.01185 0.62745 0.68067 0.0
C3299 C 0.03621 0.64577 0.67623 0.0
C3300 C 0.99825 0.59525 0.67984 0.0
C3301 C 0.97364 0.62168 0.69036 0.0
C3302 C 0.99677 0.57764 0.68597 0.0
C3303 C 0.98271 0.54725 0.68522 0.0
C3304 C 0.96979 0.53381 0.6783 0.0
C3305 C 0.97207 0.55164 0.67212 0.0
C3306 C 0.98622 0.58195 0.67287 0.0
H3307 H 0.96384 0.63448 0.69254 0.0
H3308 H 0.95702 0.60314 0.687 0.0
H3309 H 0.97955 0.61273 0.69529 0.0
H3310 H 0.00632 0.58739 0.69137 0.0
H3311 H 0.98147 0.5343 0.69009 0.0
H3312 H 0.2278 0.28847 0.6723 0.0
H3313 H 0.28074 0.31953 0.67055 0.0
H3314 H 0.29036 0.34028 0.69436 0.0
H3315 H 0.23807 0.30926 0.69613 0.0
H3316 H 0.31868 0.37869 0.67341 0.0
H3317 H 0.34769 0.31174 0.69149 0.0
H3318 H 0.31109 0.29889 0.68819 0.0
H3319 H 0.32487 0.32267 0.69626 0.0
C3320 C 0.24128 0.29978 0.67713 0.0
C3321 C 0.22879 0.29633 0.68435 0.0
C3322 C 0.27151 0.31748 0.67614 0.0
C3323 C 0.28973 0.33184 0.68236 0.0
C3324 C 0.27702 0.32892 0.68951 0.0
H3325 H 0.4754 0.44704 0.69046 0.0
H3326 H 0.42212 0.41899 0.69135 0.0
C3327 C 0.24701 0.31127 0.6905 0.0
C3328 C 0.32197 0.35001 0.68146 0.0
H3329 H 0.38637 0.35886 0.68819 0.0
C3330 C 0.33347 0.3742 0.6766 0.0
C3331 C 0.34141 0.34428 0.68562 0.0
C3332 C 0.33068 0.31783 0.69062 0.0
C3333 C 0.36371 0.39316 0.67594 0.0
C3334 C 0.38308 0.38763 0.68019 0.0
C3335 C 0.37159 0.36332 0.685 0.0
C3336 C 0.41536 0.40619 0.67956 0.0
C3337 C 0.37467 0.41935 0.67084 0.0
C3338 C 0.42938 0.40837 0.67265 0.0
C3339 C 0.45976 0.42428 0.67214 0.0
C3340 C 0.47699 0.43843 0.67852 0.0
C3341 C 0.46289 0.43661 0.68542 0.0
C3342 C 0.43241 0.4205 0.68594 0.0
H3343 H 0.35741 0.42475 0.66957 0.0
H3344 H 0.39346 0.43863 0.67343 0.0
H3345 H 0.38198 0.41468 0.6654 0.0
H3346 H 0.41685 0.39714 0.66768 0.0
H3347 H 0.46974 0.42507 0.66673 0.0
H3348 H 0.72137 0.94014 0.6727 0.0
H3349 H 0.69052 0.9622 0.6708 0.0
H3350 H 0.67061 0.9532 0.69466 0.0
H3351 H 0.70147 0.93183 0.69658 0.0
H3352 H 0.63158 0.94159 0.67375 0.0
H3353 H 0.69943 0.03883 0.69129 0.0
H3354 H 0.71201 0.01467 0.68814 0.0
H3355 H 0.68852 0.00548 0.69626 0.0
C3356 C 0.71033 0.94287 0.67751 0.0
C3357 C 0.71398 0.93442 0.68479 0.0
C3358 C 0.69274 0.95548 0.67643 0.0
C3359 C 0.67867 0.95997 0.68262 0.0
C3360 C 0.68177 0.95074 0.68983 0.0
H3361 H 0.56393 0.03117 0.69033 0.0
H3362 H 0.59186 0.00584 0.69133 0.0
C3363 C 0.69931 0.93832 0.69091 0.0
C3364 C 0.66059 0.9741 0.68162 0.0
H3365 H 0.6522 0.03028 0.68806 0.0
C3366 C 0.63624 0.96112 0.67682 0.0
C3367 C 0.66656 0.99961 0.68565 0.0
C3368 C 0.69321 0.01564 0.69056 0.0
C3369 C 0.61735 0.97247 0.6761 0.0
C3370 C 0.62309 0.99768 0.68023 0.0
C3371 C 0.64758 0.01079 0.68496 0.0
C3372 C 0.60458 0.01141 0.67953 0.0
C3373 C 0.59099 0.95697 0.67107 0.0
C3374 C 0.60238 0.023 0.67258 0.0
C3375 C 0.58655 0.03754 0.67201 0.0
C3376 C 0.57249 0.04092 0.67837 0.0
C3377 C 0.57429 0.02886 0.68531 0.0
C3378 C 0.59034 0.01444 0.68589 0.0
H3379 H 0.58557 0.93427 0.66987 0.0
H3380 H 0.57179 0.95659 0.67369 0.0
H3381 H 0.59545 0.96869 0.66559 0.0
H3382 H 0.61355 0.02146 0.66763 0.0
H3383 H 0.58576 0.04655 0.66657 0.0
H3384 H 0.22589 0.89983 0.17682 0.0
H3385 H 0.27834 0.91751 0.17579 0.0
H3386 H 0.29671 0.99734 0.18686 0.0
H3387 H 0.24469 0.97929 0.18818 0.0
H3388 H 0.32259 0.96139 0.16909 0.0
H3389 H 0.34413 0.9757 0.19979 0.0
H3390 H 0.30772 0.95732 0.19601 0.0
H3391 H 0.32792 0.99645 0.19666 0.0
C3392 C 0.2412 0.92114 0.17902 0.0
C3393 C 0.23119 0.93802 0.18267 0.0
C3394 C 0.27118 0.93124 0.17845 0.0
C3395 C 0.29169 0.95847 0.18146 0.0
C3396 C 0.28154 0.97582 0.18475 0.0
H3397 H 0.47206 0.06567 0.16929 0.0
H3398 H 0.41931 0.03877 0.1702 0.0
C3399 C 0.25172 0.9656 0.18543 0.0
C3400 C 0.32365 0.96911 0.18109 0.0
H3401 H 0.38591 1.00091 0.1917 0.0
C3402 C 0.33635 0.96972 0.17406 0.0
C3403 C 0.3418 0.97933 0.18758 0.0
C3404 C 0.32962 0.97686 0.19544 0.0
C3405 C 0.36659 0.9814 0.17329 0.0
C3406 C 0.38497 0.99381 0.17967 0.0
C3407 C 0.37212 0.99196 0.18676 0.0
C3408 C 0.41747 0.00979 0.17908 0.0
C3409 C 0.37839 0.97997 0.16562 0.0
C3410 C 0.43455 1.00351 0.18399 0.0
C3411 C 0.46509 0.01946 0.1836 0.0
C3412 C 0.47922 0.04196 0.17827 0.0
C3413 C 0.46205 0.04821 0.17339 0.0
C3414 C 0.43168 0.0326 0.17386 0.0
H3415 H 0.36193 0.96116 0.16229 0.0
H3416 H 0.38384 0.99999 0.16239 0.0
H3417 H 0.39825 0.97813 0.16613 0.0
H3418 H 0.42425 0.98624 0.18813 0.0
H3419 H 0.47759 0.01413 0.18746 0.0
H3420 H 0.94978 0.41482 0.16765 0.0
H3421 H 0.97579 0.3878 0.1684 0.0
H3422 H 0.02158 0.43688 0.18818 0.0
H3423 H 0.99511 0.4636 0.18759 0.0
H3424 H 0.03264 0.40359 0.16771 0.0
H3425 H 0.9891 0.35494 0.19584 0.0
H3426 H 0.97476 0.37393 0.1905 0.0
H3427 H 0.00772 0.39394 0.19589 0.0
C3428 C 0.96544 0.42003 0.17216 0.0
C3429 C 0.97012 0.44137 0.17759 0.0
C3430 C 0.98034 0.40447 0.17258 0.0
C3431 C 1.00028 0.40977 0.17843 0.0
C3432 C 0.00576 0.43175 0.18372 0.0
H3433 H 0.10861 0.33547 0.19078 0.0
H3434 H 0.08618 0.36584 0.18936 0.0
C3435 C 0.99073 0.44723 0.18334 0.0
C3436 C 0.01517 0.3922 0.17899 0.0
H3437 H 0.02626 0.34748 0.19079 0.0
C3438 C 0.03113 0.39125 0.17275 0.0
C3439 C 0.01319 0.3759 0.18556 0.0
C3440 C 0.99504 0.37443 0.1923 0.0
C3441 C 0.04551 0.37499 0.17294 0.0
C3442 C 0.04369 0.35893 0.17952 0.0
C3443 C 0.02777 0.35987 0.18576 0.0
C3444 C 0.05817 0.34104 0.18008 0.0
C3445 C 0.06301 0.37558 0.16615 0.0
C3446 C 0.04996 0.31689 0.17533 0.0
C3447 C 0.06272 0.29938 0.17615 0.0
C3448 C 0.08393 0.30566 0.18174 0.0
C3449 C 0.09237 0.33005 0.18641 0.0
C3450 C 0.07952 0.34742 0.18562 0.0
H3451 H 0.06789 0.39406 0.16231 0.0
H3452 H 0.08381 0.37715 0.16792 0.0
H3453 H 0.05043 0.35511 0.1629 0.0
H3454 H 0.03323 0.3112 0.1711 0.0
H3455 H 0.05568 0.28069 0.17249 0.0
H3456 H 0.54803 0.53437 0.18745 0.0
H3457 H 0.57523 0.58757 0.1883 0.0
H3458 H 0.62257 0.5919 0.16806 0.0
H3459 H 0.59569 0.53893 0.16716 0.0
H3460 H 0.65831 0.62529 0.1802 0.0
H3461 H 0.56864 0.64858 0.17527 0.0
H3462 H 0.562 0.62234 0.18256 0.0
H3463 H 0.5656 0.61408 0.17289 0.0
C3464 C 0.56397 0.5466 0.18313 0.0
C3465 C 0.56949 0.53216 0.17722 0.0
C3466 C 0.57946 0.57709 0.18361 0.0
C3467 C 0.60079 0.59385 0.1782 0.0
C3468 C 0.60617 0.57952 0.17228 0.0
H3469 H 0.73115 0.77841 0.17294 0.0
H3470 H 0.70055 0.72564 0.17138 0.0
C3471 C 0.59065 0.54912 0.17177 0.0
C3472 C 0.61849 0.62618 0.17887 0.0
H3473 H 0.61424 0.68839 0.17882 0.0
C3474 C 0.64869 0.6391 0.17987 0.0
C3475 C 0.60596 0.64423 0.17847 0.0
C3476 C 0.57381 0.63173 0.17718 0.0
C3477 C 0.6666 0.66942 0.18061 0.0
C3478 C 0.65415 0.68758 0.18014 0.0
C3479 C 0.62389 0.67461 0.17915 0.0
C3480 C 0.67204 0.71997 0.1808 0.0
C3481 C 0.6986 0.68158 0.18212 0.0
C3482 C 0.66562 0.73474 0.1864 0.0
C3483 C 0.68286 0.76497 0.18722 0.0
C3484 C 0.70695 0.78115 0.18247 0.0
C3485 C 0.71292 0.76652 0.17674 0.0
C3486 C 0.69555 0.73629 0.17588 0.0
H3487 H 0.70308 0.66479 0.18447 0.0
H3488 H 0.71078 0.68945 0.17672 0.0
H3489 H 0.70705 0.70011 0.18614 0.0
H3490 H 0.64754 0.72279 0.19023 0.0
H3491 H 0.6776 0.77559 0.19168 0.0
H3492 H 0.27863 0.89501 0.01817 0.0
H3493 H 0.29884 0.94739 0.02058 0.0
H3494 H 0.28827 0.96083 0.99699 0.0
H3495 H 0.26828 0.90898 0.99457 0.0
H3496 H 0.34929 0.99547 0.01332 0.0
H3497 H 0.24898 1.00071 1.00817 0.0
H3498 H 0.24835 0.96702 1.01016 0.0
H3499 H 0.25753 0.98271 1.00084 0.0
C3500 C 0.28039 0.90916 0.01353 0.0
C3501 C 0.27167 0.89784 1.00619 0.0
C3502 C 0.292 0.93907 0.01491 0.0
C3503 C 0.2947 0.95806 1.00899 0.0
C3504 C 0.28594 0.94665 1.00168 0.0
H3505 H 0.36188 0.14231 1.00117 0.0
H3506 H 0.33764 0.08914 1.00065 0.0
C3507 C 0.27462 0.91696 1.0003 0.0
C3508 C 0.30761 0.98998 1.0103 0.0
H3509 H 0.29337 0.0459 1.00862 0.0
C3510 C 0.33699 0.00648 0.01239 0.0
C3511 C 0.29167 0.00443 1.00901 0.0
C3512 C 0.25981 0.98784 1.00698 0.0
C3513 C 0.35109 0.03703 0.01297 0.0
C3514 C 0.3352 0.05157 1.01162 0.0
C3515 C 0.30566 0.03494 1.00965 0.0
C3516 C 0.34893 0.08397 0.0121 0.0
C3517 C 0.38321 0.05349 0.01472 0.0
C3518 C 0.36275 0.09896 0.01876 0.0
C3519 C 0.37676 0.12941 0.01906 0.0
C3520 C 0.37701 0.14572 0.01274 0.0
C3521 C 0.36218 0.13059 1.00616 0.0
C3522 C 0.34831 0.10011 1.00585 0.0
H3523 H 0.39367 0.04033 0.01347 0.0
H3524 H 0.39452 0.07403 1.01143 0.0
H3525 H 0.38632 0.059 0.02084 0.0
H3526 H 0.36288 0.08713 0.02374 0.0
H3527 H 0.38766 0.14015 0.02426 0.0
H3528 H 0.11086 0.34295 0.9977 0.0
H3529 H 0.05791 0.31351 0.99873 0.0
H3530 H 0.05929 0.3662 0.01748 0.0
H3531 H 0.11231 0.39632 0.01632 0.0
H3532 H 0.0219 0.27997 1.00966 0.0
H3533 H 1.00046 0.3702 1.00401 0.0
H3534 H 0.03584 0.37394 1.00267 0.0
H3535 H 0.0239 0.37705 0.01199 0.0
C3536 C 0.09989 0.34829 1.00205 0.0
C3537 C 0.11576 0.37218 1.00688 0.0
C3538 C 0.06957 0.33139 1.00263 0.0
C3539 C 0.05434 0.33791 1.00807 0.0
C3540 C 0.07031 0.36116 0.01309 0.0
H3541 H 0.87419 0.26192 0.0216 0.0
H3542 H 0.92701 0.28836 0.02047 0.0
C3543 C 0.10068 0.37824 0.01247 0.0
C3544 C 0.02186 0.32033 1.00846 0.0
H3545 H 0.96013 0.32547 1.00807 0.0
C3546 C 0.00843 0.28994 1.00927 0.0
C3547 C 1.00408 0.33318 1.00789 0.0
C3548 C 0.01675 0.36533 1.00651 0.0
C3549 C 0.97795 0.27229 1.00971 0.0
C3550 C 0.9603 0.28525 1.00928 0.0
C3551 C 0.97366 0.31554 1.00842 0.0
C3552 C 0.92798 0.26798 1.00997 0.0
C3553 C 0.96483 0.23996 1.01082 0.0
C3554 C 0.91073 0.24758 1.00442 0.0
C3555 C 0.88023 0.23235 1.00503 0.0
C3556 C 0.86641 0.23719 1.01121 0.0
C3557 C 0.8839 0.25745 0.01677 0.0
C3558 C 0.91422 0.27272 0.01613 0.0
H3559 H 0.98142 0.23404 0.01246 0.0
H3560 H 0.94768 0.23194 0.01525 0.0
H3561 H 0.95454 0.22861 1.00545 0.0
H3562 H 0.92082 0.24382 0.99956 0.0
H3563 H 0.86752 0.21705 1.00063 0.0
H3564 H 0.75431 0.62152 0.0223 0.0
H3565 H 0.7268 0.6469 0.02126 0.0
H3566 H 0.77265 0.6882 1.00069 0.0
H3567 H 0.79981 0.66216 1.00157 0.0
H3568 H 0.74201 0.70319 0.02119 0.0
H3569 H 0.68983 0.65421 0.99375 0.0
H3570 H 0.70988 0.64121 0.99915 0.0
H3571 H 0.72881 0.67323 0.99335 0.0
C3572 C 0.7587 0.63605 0.01755 0.0
C3573 C 0.77926 0.6396 0.01199 0.0
C3574 C 0.74287 0.6506 0.01697 0.0
C3575 C 0.74711 0.6691 1.01082 0.0
C3576 C 0.76831 0.67346 1.00538 0.0
H3577 H 0.66899 0.77383 0.99812 0.0
H3578 H 0.70016 0.75226 0.99947 0.0
C3579 C 0.78406 0.65873 1.00593 0.0
C3580 C 0.72927 0.68365 1.01015 0.0
H3581 H 0.68222 0.69167 0.99849 0.0
C3582 C 0.72889 0.70058 0.01623 0.0
C3583 C 0.71194 0.68022 1.0037 0.0
C3584 C 0.70983 0.66101 0.99715 0.0
C3585 C 0.71211 0.71438 0.01599 0.0
C3586 C 0.69498 0.71107 1.00953 0.0
C3587 C 0.69541 0.69429 1.00344 0.0
C3588 C 0.67646 0.72483 1.00895 0.0
C3589 C 0.71319 0.73283 0.02262 0.0
C3590 C 0.65265 0.7166 0.01383 0.0
C3591 C 0.63466 0.72882 0.01304 0.0
C3592 C 0.64016 0.74955 1.00737 0.0
C3593 C 0.66418 0.75797 1.00256 0.0
C3594 C 0.68201 0.74561 1.00331 0.0
H3595 H 0.73212 0.73849 0.02636 0.0
H3596 H 0.71433 0.75323 0.02064 0.0
H3597 H 0.69309 0.72062 0.02603 0.0
H3598 H 0.64765 0.70031 0.01816 0.0
H3599 H 0.61628 0.72183 0.01683 0.0
H3600 H 0.77676 0.10334 0.83148 0.0
H3601 H 0.72388 0.08128 0.83248 0.0
H3602 H 0.7231 0.02802 0.85102 0.0
H3603 H 0.77616 0.04998 0.85001 0.0
H3604 H 0.68183 0.01967 0.8312 0.0
H3605 H 0.67557 0.06605 0.85887 0.0
H3606 H 0.70844 0.08154 0.85327 0.0
H3607 H 0.6976 0.04908 0.85868 0.0
C3608 C 0.76538 0.08709 0.83581 0.0
C3609 C 0.78064 0.07839 0.84067 0.0
C3610 C 0.73514 0.07446 0.83637 0.0
C3611 C 0.71951 0.05313 0.84185 0.0
C3612 C 0.73473 0.04468 0.84679 0.0
H3613 H 0.53907 0.94781 0.85468 0.0
H3614 H 0.59183 0.97405 0.8536 0.0
C3615 C 0.76502 0.05717 0.84621 0.0
C3616 C 0.68721 0.03907 0.84221 0.0
H3617 H 0.6311 0.03049 0.85347 0.0
C3618 C 0.67069 0.02212 0.83605 0.0
C3619 C 0.67273 0.04226 0.84854 0.0
C3620 C 0.68939 0.06088 0.85521 0.0
C3621 C 0.64008 0.00762 0.83614 0.0
C3622 C 0.6255 0.0108 0.84247 0.0
C3623 C 0.64214 0.02805 0.8486 0.0
C3624 C 0.59307 0.99535 0.84305 0.0
C3625 C 0.6237 0.98818 0.82955 0.0
C3626 C 0.57586 0.99876 0.83753 0.0
C3627 C 0.54536 0.98344 0.83809 0.0
C3628 C 0.53147 0.96472 0.84425 0.0
C3629 C 0.54886 0.96199 0.84985 0.0
C3630 C 0.57918 0.97705 0.84925 0.0
H3631 H 0.6375 0.98191 0.82624 0.0
H3632 H 0.60408 0.96807 0.83152 0.0
H3633 H 0.61662 0.99997 0.8257 0.0
H3634 H 0.58597 0.0133 0.83279 0.0
H3635 H 0.53272 0.98626 0.83371 0.0
H3636 H 0.97082 0.73714 0.8433 0.0
H3637 H 0.99417 0.7074 0.84367 0.0
H3638 H 0.91215 0.63128 0.83821 0.0
H3639 H 0.88941 0.6615 0.83727 0.0
H3640 H 0.99067 0.66702 0.8516 0.0
H3641 H 0.95886 0.6199 0.82298 0.0
H3642 H 0.95236 0.64829 0.82623 0.0
H3643 H 0.92728 0.61077 0.82856 0.0
C3644 C 0.95784 0.71405 0.84215 0.0
C3645 C 0.92837 0.70166 0.84018 0.0
C3646 C 0.97119 0.69699 0.84236 0.0
C3647 C 0.95527 0.667 0.84075 0.0
C3648 C 0.9254 0.65445 0.83915 0.0
H3649 H 0.02431 0.55471 0.85465 0.0
H3650 H 0.99796 0.58141 0.85372 0.0
C3651 C 0.91226 0.67167 0.83871 0.0
C3652 C 0.96984 0.64898 0.84092 0.0
H3653 H 0.97709 0.59708 0.83125 0.0
C3654 C 0.98783 0.65193 0.8471 0.0
C3655 C 0.96688 0.62959 0.835 0.0
C3656 C 0.95058 0.6272 0.82779 0.0
C3657 C 1.00254 0.63609 0.84757 0.0
C3658 C 0.99799 0.61525 0.84191 0.0
C3659 C 0.98031 0.61254 0.83568 0.0
C3660 C 0.01181 0.59657 0.84225 0.0
C3661 C 0.02364 0.64284 0.85402 0.0
C3662 C 0.02666 0.59406 0.83594 0.0
C3663 C 0.04068 0.57761 0.83637 0.0
C3664 C 0.04061 0.56376 0.84315 0.0
C3665 C 0.02501 0.56545 0.84937 0.0
C3666 C 0.01027 0.5811 0.84887 0.0
H3667 H 0.0322 0.6654 0.85612 0.0
H3668 H 0.01223 0.62791 0.85882 0.0
H3669 H 0.04236 0.64031 0.85231 0.0
H3670 H 0.02809 0.60546 0.83073 0.0
H3671 H 0.05267 0.57681 0.8315 0.0
H3672 H 0.32048 0.22201 0.84925 0.0
H3673 H 0.35348 0.27429 0.85148 0.0
H3674 H 0.30672 0.29469 0.83491 0.0
H3675 H 0.27374 0.24294 0.83275 0.0
H3676 H 0.39028 0.31809 0.84136 0.0
H3677 H 0.30813 0.34258 0.85304 0.0
H3678 H 0.30149 0.30591 0.85209 0.0
H3679 H 0.29769 0.32457 0.84404 0.0
C3680 C 0.31717 0.23771 0.84614 0.0
C3681 C 0.29443 0.22834 0.84084 0.0
C3682 C 0.33607 0.26756 0.8474 0.0
C3683 C 0.33239 0.28852 0.84344 0.0
C3684 C 0.30972 0.27906 0.83815 0.0
H3685 H 0.45327 0.47219 0.83497 0.0
H3686 H 0.42496 0.419 0.83448 0.0
C3687 C 0.29092 0.24939 0.83689 0.0
C3688 C 0.3524 0.3203 0.84467 0.0
H3689 H 0.35309 0.38332 0.8491 0.0
C3690 C 0.38221 0.33234 0.84312 0.0
C3691 C 0.34203 0.33895 0.84705 0.0
C3692 C 0.31064 0.32734 0.84922 0.0
C3693 C 0.40167 0.36251 0.84367 0.0
C3694 C 0.39101 0.3813 0.8457 0.0
C3695 C 0.36134 0.3691 0.84746 0.0
C3696 C 0.41004 0.41363 0.84609 0.0
C3697 C 0.43352 0.37389 0.84215 0.0
C3698 C 0.41097 0.42859 0.85274 0.0
C3699 C 0.42689 0.45901 0.85301 0.0
C3700 C 0.44235 0.47539 0.84663 0.0
C3701 C 0.44192 0.46037 0.84001 0.0
C3702 C 0.4258 0.42986 0.83974 0.0
H3703 H 0.43936 0.35666 0.84292 0.0
H3704 H 0.43849 0.3816 0.83621 0.0
H3705 H 0.44739 0.39238 0.84595 0.0
H3706 H 0.39901 0.4167 0.85772 0.0
H3707 H 0.42667 0.46969 0.85821 0.0
H3708 H 0.62073 0.87486 1.00147 0.0
H3709 H 0.64692 0.92766 1.00262 0.0
H3710 H 0.68398 0.92142 0.02376 0.0
H3711 H 0.65762 0.86812 0.02268 0.0
H3712 H 0.64164 0.96019 0.01502 0.0
H3713 H 0.75496 0.98262 1.01106 0.0
H3714 H 0.72369 0.94886 1.00813 0.0
H3715 H 0.73316 0.95543 0.01796 0.0
C3716 C 0.6346 0.88455 1.00636 0.0
C3717 C 0.63702 0.86706 0.01199 0.0
C3718 C 0.64955 0.91486 1.007 0.0
C3719 C 0.66758 0.92858 0.01324 0.0
C3720 C 0.67046 0.91133 0.01884 0.0
H3721 H 0.77319 0.11183 0.02542 0.0
H3722 H 0.75038 0.0589 0.02451 0.0
C3723 C 0.6553 0.88085 0.01823 0.0
C3724 C 0.68232 0.96084 0.01395 0.0
H3725 H 0.74886 0.02283 0.01366 0.0
C3726 C 0.66509 0.97391 0.01473 0.0
C3727 C 0.7129 0.97871 0.0136 0.0
C3728 C 0.73239 0.96586 0.01259 0.0
C3729 C 0.67757 0.0043 0.01523 0.0
C3730 C 0.70818 0.02231 0.01471 0.0
C3731 C 0.72542 0.00916 0.01401 0.0
C3732 C 0.72271 0.05474 0.01503 0.0
C3733 C 0.65777 0.01669 0.0165 0.0
C3734 C 0.71535 0.07035 1.0099 0.0
C3735 C 0.72822 0.10068 1.01046 0.0
C3736 C 0.74902 0.11608 0.01609 0.0
C3737 C 0.75714 0.10059 0.02104 0.0
C3738 C 0.74412 0.07029 0.02052 0.0
H3739 H 0.63661 1.00027 0.01898 0.0
H3740 H 0.66798 0.03585 0.02032 0.0
H3741 H 0.65325 0.02365 1.01098 0.0
H3742 H 0.69954 0.05906 1.00548 0.0
H3743 H 0.72173 0.11204 1.00652 0.0
H3744 H 0.90081 0.67809 0.02246 0.0
H3745 H 0.95373 0.70814 0.02169 0.0
H3746 H 0.95509 0.6531 1.00393 0.0
H3747 H 0.90209 0.62239 1.00486 0.0
H3748 H 0.9951 0.66257 0.0143 0.0
H3749 H 0.00594 0.76889 1.00691 0.0
H3750 H 0.98528 0.75381 0.0154 0.0
H3751 H 0.97156 0.7354 1.0065 0.0
C3752 C 0.91232 0.67263 0.01831 0.0
C3753 C 0.8972 0.64786 0.01371 0.0
C3754 C 0.94266 0.68997 0.01784 0.0
C3755 C 0.95862 0.68328 0.01267 0.0
C3756 C 0.94341 0.65887 1.00795 0.0
H3757 H 0.14004 0.75955 1.00011 0.0
H3758 H 0.08706 0.73419 1.00077 0.0
C3759 C 0.91307 0.64137 1.00846 0.0
C3760 C 0.99116 0.7006 0.0125 0.0
H3761 H 0.04941 0.76959 1.01076 0.0
C3762 C 0.00688 0.68594 0.01348 0.0
C3763 C 0.00679 0.7312 1.01145 0.0
C3764 C 0.99154 0.74822 1.00993 0.0
C3765 C 0.03749 0.70095 0.01351 0.0
C3766 C 0.05299 0.73146 0.01255 0.0
C3767 C 0.03746 0.74622 1.01158 0.0
C3768 C 0.08535 0.74803 0.01216 0.0
C3769 C 0.05323 0.68416 0.01461 0.0
C3770 C 0.10213 0.76461 0.01834 0.0
C3771 C 0.13267 0.77914 0.01801 0.0
C3772 C 0.14703 0.77759 1.01147 0.0
C3773 C 0.12996 0.7614 1.00525 0.0
C3774 C 0.09956 0.74676 1.0056 0.0
H3775 H 0.03826 0.66123 0.01629 0.0
H3776 H 0.06411 0.6842 1.00924 0.0
H3777 H 0.07035 0.69474 0.019 0.0
H3778 H 0.09158 0.7659 0.02345 0.0
H3779 H 0.145 0.79137 0.02291 0.0
H3780 H 0.22756 0.36397 0.02333 0.0
H3781 H 0.25547 0.33857 0.0243 0.0
H3782 H 0.27785 0.35511 1.00066 0.0
H3783 H 0.2506 0.38072 0.99966 0.0
H3784 H 0.25136 0.29043 0.01683 0.0
H3785 H 0.35738 0.38825 1.01036 0.0
H3786 H 0.32531 0.39029 0.01262 0.0
H3787 H 0.33025 0.38018 1.00325 0.0
C3788 C 0.23831 0.36208 0.01833 0.0
C3789 C 0.23699 0.37471 1.01144 0.0
C3790 C 0.25431 0.34757 0.01889 0.0
C3791 C 0.2694 0.34546 0.01259 0.0
C3792 C 0.26715 0.35709 1.00566 0.0
H3793 H 0.38596 0.2741 1.00565 0.0
H3794 H 0.35344 0.29412 1.00368 0.0
C3795 C 0.25132 0.37162 1.00509 0.0
C3796 C 0.28758 0.33126 0.01323 0.0
H3797 H 0.35671 0.34325 1.01074 0.0
C3798 C 0.27441 0.30204 0.01552 0.0
C3799 C 0.31771 0.34627 1.01151 0.0
C3800 C 0.3336 0.37805 1.00937 0.0
C3801 C 0.29037 0.2874 0.01604 0.0
C3802 C 0.32049 0.30244 0.01433 0.0
C3803 C 0.33361 0.3316 0.012 0.0
C3804 C 0.33909 0.28888 0.01534 0.0
C3805 C 0.27469 0.25576 0.0183 0.0
C3806 C 0.34209 0.27944 0.02254 0.0
C3807 C 0.36052 0.268 0.02365 0.0
C3808 C 0.3765 0.26569 0.0176 0.0
C3809 C 0.37352 0.27504 1.01038 0.0
C3810 C 0.35509 0.28668 1.00927 0.0
H3811 H 0.25093 0.24532 0.01724 0.0
H3812 H 0.28331 0.24352 0.01518 0.0
H3813 H 0.27789 0.25405 0.02445 0.0
H3814 H 0.33062 0.28149 0.02735 0.0
H3815 H 0.36252 0.26125 0.0293 0.0
H3816 H 0.14321 0.36156 0.52229 0.0
H3817 H 0.08994 0.33569 0.52295 0.0
H3818 H 0.08575 0.35371 0.49934 0.0
H3819 H 0.13889 0.37975 0.49862 0.0
H3820 H 0.05309 0.36152 0.51887 0.0
H3821 H 0.02863 0.2634 0.50203 0.0
H3822 H 0.0634 0.28582 0.50655 0.0
H3823 H 0.05451 0.298 0.49801 0.0
C3824 C 0.131 0.35974 0.5172 0.0
C3825 C 0.14547 0.37274 0.51039 0.0
C3826 C 0.10052 0.34504 0.51761 0.0
C3827 C 0.08382 0.34259 0.51119 0.0
C3828 C 0.09814 0.35505 0.50435 0.0
H3829 H 0.90158 0.29805 0.50791 0.0
H3830 H 0.95459 0.32065 0.50654 0.0
C3831 C 0.12859 0.37002 0.50396 0.0
C3832 C 0.05151 0.32805 0.51169 0.0
H3833 H 0.98859 0.26877 0.50561 0.0
C3834 C 0.03899 0.34124 0.51598 0.0
C3835 C 0.03311 0.30153 0.50793 0.0
C3836 C 0.04544 0.28611 0.5034 0.0
C3837 C 0.0086 0.32881 0.51653 0.0
C3838 C 0.99019 0.30249 0.51269 0.0
C3839 C 1.0027 0.28907 0.50849 0.0
C3840 C 0.9579 0.28819 0.51319 0.0
C3841 C 0.9963 0.34369 0.5213 0.0
C3842 C 0.94206 0.26214 0.51725 0.0
C3843 C 0.91185 0.24931 0.51808 0.0
C3844 C 0.89679 0.26209 0.51479 0.0
C3845 C 0.91256 0.28771 0.51053 0.0
C3846 C 0.94285 0.3007 0.50976 0.0
H3847 H 0.01318 0.36119 0.52487 0.0
H3848 H 0.98677 0.3535 0.51753 0.0
H3849 H 0.97867 0.32769 0.52501 0.0
H3850 H 0.95317 0.25205 0.51992 0.0
H3851 H 0.90032 0.22953 0.52137 0.0
H3852 H 0.64516 0.78144 0.52416 0.0
H3853 H 0.67044 0.75344 0.52519 0.0
H3854 H 0.65626 0.73296 0.5014 0.0
H3855 H 0.63127 0.76081 0.50032 0.0
H3856 H 0.6459 0.69328 0.52173 0.0
H3857 H 0.74311 0.76037 0.50395 0.0
H3858 H 0.7207 0.77414 0.50772 0.0
H3859 H 0.70907 0.75097 0.49953 0.0
C3860 C 0.64781 0.77134 0.51913 0.0
C3861 C 0.63616 0.77344 0.51216 0.0
C3862 C 0.66219 0.75526 0.51973 0.0
C3863 C 0.66557 0.74134 0.51335 0.0
C3864 C 0.65444 0.74389 0.50637 0.0
H3865 H 0.7348 0.6231 0.50627 0.0
H3866 H 0.71326 0.65445 0.50443 0.0
C3867 C 0.63996 0.75974 0.50578 0.0
C3868 C 0.67907 0.72264 0.51405 0.0
H3869 H 0.73494 0.71377 0.50759 0.0
C3870 C 0.66548 0.69788 0.51868 0.0
C3871 C 0.70438 0.72837 0.50997 0.0
C3872 C 0.72037 0.75503 0.50506 0.0
C3873 C 0.6763 0.67859 0.5193 0.0
C3874 C 0.70186 0.6845 0.51532 0.0
C3875 C 0.71534 0.70916 0.51063 0.0
C3876 C 0.71561 0.6661 0.51627 0.0
C3877 C 0.65983 0.65168 0.52412 0.0
C3878 C 0.72468 0.66273 0.52347 0.0
C3879 C 0.73681 0.64493 0.52451 0.0
C3880 C 0.74053 0.63025 0.51837 0.0
C3881 C 0.73219 0.63413 0.5111 0.0
C3882 C 0.71988 0.65201 0.51006 0.0
H3883 H 0.63671 0.64574 0.52483 0.0
H3884 H 0.66056 0.63287 0.52161 0.0
H3885 H 0.66985 0.65588 0.52983 0.0
H3886 H 0.72234 0.67388 0.52831 0.0
H3887 H 0.74323 0.64259 0.53017 0.0
H3888 H 0.24745 0.86484 0.52484 0.0
H3889 H 0.275 0.91802 0.52545 0.0
H3890 H 0.25011 0.92255 0.50243 0.0
H3891 H 0.22453 0.86948 0.50166 0.0
H3892 H 0.30228 0.95949 0.50351 0.0
H3893 H 0.25227 0.9764 0.52895 0.0
H3894 H 0.26809 0.95442 0.53121 0.0
H3895 H 0.23803 0.94112 0.52465 0.0
C3896 C 0.24756 0.87726 0.51995 0.0
C3897 C 0.23366 0.86301 0.51322 0.0
C3898 C 0.26319 0.90776 0.52032 0.0
C3899 C 0.26432 0.92474 0.51404 0.0
C3900 C 0.24976 0.91028 0.50737 0.0
H3901 H 0.3319 0.11226 0.51887 0.0
H3902 H 0.30105 0.05942 0.51768 0.0
C3903 C 0.23496 0.87986 0.50694 0.0
C3904 C 0.28188 0.95738 0.51423 0.0
H3905 H 0.29721 0.01718 0.52489 0.0
C3906 C 0.30082 0.97203 0.50817 0.0
C3907 C 0.27994 0.97421 0.52021 0.0
C3908 C 0.25824 0.96071 0.52657 0.0
C3909 C 0.31782 1.00257 0.50792 0.0
C3910 C 0.3173 0.01927 0.51412 0.0
C3911 C 0.29813 0.00466 0.52016 0.0
C3912 C 0.33608 0.05178 0.51447 0.0
C3913 C 0.33534 0.01643 0.50085 0.0
C3914 C 0.3662 0.06555 0.51305 0.0
C3915 C 0.38365 0.0959 0.51348 0.0
C3916 C 0.37163 0.11315 0.51562 0.0
C3917 C 0.34172 0.09949 0.51718 0.0
C3918 C 0.3241 0.06922 0.51653 0.0
H3919 H 0.3254 1.00229 0.49582 0.0
H3920 H 0.3372 0.03785 0.49969 0.0
H3921 H 0.35748 0.01952 0.50154 0.0
H3922 H 0.37644 0.05284 0.51175 0.0
H3923 H 0.40675 0.10577 0.51238 0.0
H3924 H 0.06108 0.46945 0.35641 0.0
H3925 H 0.03528 0.41658 0.35526 0.0
H3926 H 0.99037 0.42198 0.33554 0.0
H3927 H 0.01668 0.4751 0.33653 0.0
H3928 H 0.97858 0.37552 0.35571 0.0
H3929 H 0.02312 0.37331 0.32748 0.0
H3930 H 0.0372 0.40609 0.33304 0.0
H3931 H 1.00435 0.39355 0.32763 0.0
C3932 C 0.04567 0.45951 0.35183 0.0
C3933 C 0.04119 0.47677 0.34654 0.0
C3934 C 0.03089 0.42914 0.35118 0.0
C3935 C 0.01124 0.41512 0.34523 0.0
C3936 C 0.00597 0.43219 0.34007 0.0
H3937 H 0.90449 0.23326 0.33189 0.0
H3938 H 0.92646 0.28591 0.33354 0.0
C3939 C 0.02089 0.46264 0.34069 0.0
C3940 C 0.99644 0.38274 0.34445 0.0
H3941 H 0.98618 0.32814 0.33231 0.0
C3942 C 0.98034 0.36521 0.3506 0.0
C3943 C 0.99874 0.36909 0.33779 0.0
C3944 C 0.01701 0.38644 0.33114 0.0
C3945 C 0.96621 0.33461 0.35023 0.0
C3946 C 0.9684 0.32103 0.34356 0.0
C3947 C 0.9844 0.33851 0.33741 0.0
C3948 C 0.95429 0.28874 0.34283 0.0
C3949 C 0.94859 0.31703 0.35694 0.0
C3950 C 0.96258 0.27264 0.3475 0.0
C3951 C 0.95009 0.24247 0.34655 0.0
C3952 C 0.92907 0.22778 0.3409 0.0
C3953 C 0.92058 0.24388 0.3363 0.0
C3954 C 0.93317 0.27402 0.33723 0.0
H3955 H 0.94333 0.33016 0.36084 0.0
H3956 H 0.92799 0.29779 0.35506 0.0
H3957 H 0.96127 0.30914 0.36014 0.0
H3958 H 0.97916 0.2835 0.35178 0.0
H3959 H 0.95717 0.2307 0.35016 0.0
H3960 H 0.77411 0.73887 0.34435 0.0
H3961 H 0.72119 0.70864 0.34506 0.0
H3962 H 0.72781 0.63244 0.34024 0.0
H3963 H 0.78062 0.66314 0.33894 0.0
H3964 H 0.68563 0.62741 0.33282 0.0
H3965 H 0.67059 0.66013 0.36133 0.0
H3966 H 0.68781 0.69131 0.35528 0.0
H3967 H 0.70617 0.67138 0.35755 0.0
C3968 C 0.76424 0.71562 0.34351 0.0
C3969 C 0.78148 0.7033 0.34164 0.0
C3970 C 0.7339 0.69822 0.34399 0.0
C3971 C 0.72015 0.66792 0.34291 0.0
C3972 C 0.7376 0.65565 0.34113 0.0
H3973 H 0.53758 0.55871 0.35587 0.0
H3974 H 0.59067 0.58409 0.35519 0.0
C3975 C 0.76785 0.67318 0.34042 0.0
C3976 C 0.68766 0.6492 0.34329 0.0
H3977 H 0.62783 0.63595 0.35364 0.0
C3978 C 0.67309 0.6291 0.33744 0.0
C3979 C 0.67093 0.65071 0.34936 0.0
C3980 C 0.68475 0.66931 0.35627 0.0
C3981 C 0.64264 0.61093 0.33742 0.0
C3982 C 0.62578 0.61387 0.34322 0.0
C3983 C 0.64039 0.63373 0.34912 0.0
C3984 C 0.59315 0.59646 0.3434 0.0
C3985 C 0.62918 0.58821 0.33129 0.0
C3986 C 0.57635 0.59441 0.337 0.0
C3987 C 0.54585 0.57889 0.33732 0.0
C3988 C 0.53144 0.56605 0.34413 0.0
C3989 C 0.54811 0.56832 0.35054 0.0
C3990 C 0.57853 0.583 0.35015 0.0
H3991 H 0.64485 0.5818 0.32914 0.0
H3992 H 0.60951 0.56838 0.33335 0.0
H3993 H 0.62304 0.59733 0.32644 0.0
H3994 H 0.58674 0.6054 0.33179 0.0
H3995 H 0.53356 0.578 0.33233 0.0
H3996 H 0.33417 0.10554 0.33092 0.0
H3997 H 0.36519 0.08368 0.33189 0.0
H3998 H 0.31437 0.03186 0.3508 0.0
H3999 H 0.28309 0.05366 0.34985 0.0
H4000 H 0.37795 0.06099 0.3526 0.0
H4001 H 0.33927 0.99808 0.32581 0.0
H4002 H 0.35084 0.03615 0.32518 0.0
H4003 H 0.31917 0.01244 0.33063 0.0
C4004 C 0.32962 0.08954 0.3353 0.0
C4005 C 0.30606 0.08118 0.34028 0.0
C4006 C 0.3473 0.07696 0.33582 0.0
C4007 C 0.34187 0.05582 0.34135 0.0
C4008 C 0.31885 0.048 0.34647 0.0
H4009 H 0.41753 0.95176 0.35531 0.0
H4010 H 0.39167 0.97864 0.35422 0.0
C4011 C 0.301 0.06045 0.34591 0.0
C4012 C 0.3602 0.04186 0.34176 0.0
H4013 H 0.37765 0.99671 0.33217 0.0
C4014 C 0.37788 0.0469 0.34814 0.0
C4015 C 0.36032 0.02371 0.33591 0.0
C4016 C 0.34126 0.017 0.32901 0.0
C4017 C 0.39579 0.03445 0.3488 0.0
C4018 C 0.39546 0.01575 0.34302 0.0
C4019 C 0.37801 0.01102 0.3366 0.0
C4020 C 0.41199 0.99987 0.34368 0.0
C4021 C 0.4153 0.04196 0.35563 0.0
C4022 C 0.43158 1.00202 0.338 0.0
C4023 C 0.44632 0.98626 0.33856 0.0
C4024 C 0.44167 0.96792 0.3448 0.0
C4025 C 0.42198 0.96584 0.35045 0.0
C4026 C 0.40723 0.98142 0.34987 0.0
H4027 H 0.42024 0.06319 0.35811 0.0
H4028 H 0.40411 0.02507 0.36005 0.0
H4029 H 0.43612 0.04291 0.35419 0.0
H4030 H 0.43547 0.0159 0.33313 0.0
H4031 H 0.46117 0.98831 0.33409 0.0
H4032 H 0.19568 0.41479 0.06706 0.0
H4033 H 0.19121 0.40106 0.08042 0.0
H4034 H 0.1395 0.31068 0.07429 0.0
H4035 H 0.14457 0.32413 0.06089 0.0
H4036 H 0.14102 0.37184 0.08901 0.0
H4037 H 0.19926 0.30951 0.08856 0.0
H4038 H 0.20169 0.33315 0.0809 0.0
H4039 H 0.1704 0.2974 0.08175 0.0
C4040 C 0.18381 0.39192 0.06852 0.0
C4041 C 0.17066 0.3706 0.06284 0.0
C4042 C 0.18108 0.38411 0.07619 0.0
C4043 C 0.16533 0.35478 0.0784 0.0
C4044 C 0.15222 0.33342 0.07276 0.0
H4045 H 0.11535 0.26301 0.12159 0.0
H4046 H 0.12376 0.27722 0.10825 0.0
C4047 C 0.15489 0.34121 0.06508 0.0
C4048 C 0.1617 0.34671 0.08661 0.0
H4049 H 0.17368 0.30676 0.09985 0.0
C4050 C 0.14833 0.35775 0.09139 0.0
C4051 C 0.17111 0.32822 0.08973 0.0
C4052 C 0.18666 0.31656 0.085 0.0
C4053 C 0.14359 0.35039 0.09913 0.0
C4054 C 0.15302 0.33192 0.10226 0.0
C4055 C 0.16644 0.32091 0.09748 0.0
C4056 C 0.14881 0.32344 0.11045 0.0
C4057 C 0.12771 0.36182 0.10382 0.0
C4058 C 0.16057 0.34457 0.11619 0.0
C4059 C 0.15585 0.33649 0.12385 0.0
C4060 C 0.13948 0.30702 0.12598 0.0
C4061 C 0.12835 0.28588 0.12021 0.0
C4062 C 0.13301 0.29399 0.11255 0.0
H4063 H 0.11507 0.36873 0.10023 0.0
H4064 H 0.11264 0.34515 0.10789 0.0
H4065 H 0.14377 0.38104 0.10708 0.0
H4066 H 0.1735 0.36739 0.11475 0.0
H4067 H 0.16521 0.35337 0.12811 0.0
H4068 H 0.6412 0.84172 0.06416 0.0
H4069 H 0.65482 0.85057 0.07758 0.0
H4070 H 0.66282 0.7737 0.07816 0.0
H4071 H 0.64935 0.76478 0.06481 0.0
H4072 H 0.62911 0.81764 0.09018 0.0
H4073 H 0.73974 0.83313 0.08715 0.0
H4074 H 0.71861 0.83287 0.07912 0.0
H4075 H 0.71227 0.79921 0.08327 0.0
C4076 C 0.64586 0.82669 0.06714 0.0
C4077 C 0.64448 0.80271 0.06334 0.0
C4078 C 0.65374 0.83183 0.07482 0.0
C4079 C 0.66048 0.81317 0.07888 0.0
C4080 C 0.65862 0.78896 0.07513 0.0
H4081 H 0.70125 0.79047 0.12489 0.0
H4082 H 0.68852 0.78677 0.11148 0.0
C4083 C 0.65088 0.78388 0.06746 0.0
C4084 C 0.66871 0.81844 0.08706 0.0
H4085 H 0.72084 0.826 0.09973 0.0
C4086 C 0.64931 0.81977 0.09225 0.0
C4087 C 0.69511 0.82131 0.08981 0.0
C4088 C 0.71777 0.82186 0.08454 0.0
C4089 C 0.65511 0.82285 0.10009 0.0
C4090 C 0.68118 0.82502 0.10284 0.0
C4091 C 0.70078 0.82418 0.09764 0.0
C4092 C 0.68822 0.82732 0.11109 0.0
C4093 C 0.63284 0.82281 0.1054 0.0
C4094 C 0.6925 0.85147 0.11537 0.0
C4095 C 0.69974 0.85364 0.12308 0.0
C4096 C 0.70281 0.83166 0.1267 0.0
C4097 C 0.69855 0.80756 0.12236 0.0
C4098 C 0.69147 0.8055 0.11466 0.0
H4099 H 0.61141 0.8147 0.1026 0.0
H4100 H 0.62989 0.80914 0.11045 0.0
H4101 H 0.6405 0.84534 0.10737 0.0
H4102 H 0.69057 0.86884 0.11272 0.0
H4103 H 0.70276 0.87246 0.12623 0.0
H4104 H 0.18196 0.92169 0.12231 0.0
H4105 H 0.18756 0.91228 0.10905 0.0
H4106 H 0.17882 0.82977 0.11525 0.0
H4107 H 0.17242 0.83866 0.12854 0.0
H4108 H 0.23007 0.90286 0.10255 0.0
H4109 H 0.12024 0.80744 0.09788 0.0
H4110 H 0.12871 0.83126 0.10594 0.0
H4111 H 0.13965 0.80423 0.10581 0.0
C4112 C 0.18074 0.90129 0.12087 0.0
C4113 C 0.17645 0.88083 0.12654 0.0
C4114 C 0.18419 0.89605 0.11326 0.0
C4115 C 0.18322 0.87013 0.1111 0.0
C4116 C 0.17913 0.8497 0.11673 0.0
H4117 H 0.20184 0.80303 0.06745 0.0
H4118 H 0.19432 0.80995 0.08078 0.0
C4119 C 0.17578 0.85497 0.12436 0.0
C4120 C 0.18736 0.86503 0.10298 0.0
H4121 H 0.15429 0.81974 0.08792 0.0
C4122 C 0.21345 0.88472 0.09935 0.0
C4123 C 0.16578 0.84129 0.09878 0.0
C4124 C 0.1369 0.81994 0.10226 0.0
C4125 C 0.2187 0.88119 0.09171 0.0
C4126 C 0.19698 0.85765 0.08748 0.0
C4127 C 0.17095 0.83782 0.09113 0.0
C4128 C 0.20089 0.85326 0.07928 0.0
C4129 C 0.24781 0.90238 0.08831 0.0
C4130 C 0.20649 0.875 0.07391 0.0
C4131 C 0.21109 0.87123 0.06628 0.0
C4132 C 0.20994 0.84546 0.06377 0.0
C4133 C 0.20344 0.82337 0.06914 0.0
C4134 C 0.19892 0.82721 0.07679 0.0
H4135 H 0.26465 0.91356 0.09274 0.0
H4136 H 0.25538 0.89127 0.08436 0.0
H4137 H 0.24579 0.91925 0.0851 0.0
H4138 H 0.20748 0.89505 0.07563 0.0
H4139 H 0.21625 0.88888 0.06237 0.0
H4140 H 0.41615 0.19211 0.45566 0.0
H4141 H 0.40262 0.18746 0.44229 0.0
H4142 H 0.31195 0.13974 0.44842 0.0
H4143 H 0.32524 0.14503 0.46184 0.0
H4144 H 0.37163 0.13705 0.43393 0.0
H4145 H 0.31407 0.20006 0.43376 0.0
H4146 H 0.33711 0.20179 0.4415 0.0
H4147 H 0.3007 0.17155 0.44071 0.0
C4148 C 0.39329 0.18111 0.4542 0.0
C4149 C 0.37183 0.16912 0.45989 0.0
C4150 C 0.38559 0.17826 0.44652 0.0
C4151 C 0.35624 0.16357 0.44431 0.0
C4152 C 0.33474 0.15165 0.44996 0.0
H4153 H 0.26506 0.11392 0.40104 0.0
H4154 H 0.27898 0.12273 0.41439 0.0
C4155 C 0.34241 0.15443 0.45765 0.0
C4156 C 0.34825 0.15972 0.4361 0.0
H4157 H 0.31015 0.17324 0.42263 0.0
C4158 C 0.35833 0.14513 0.43145 0.0
C4159 C 0.33079 0.17013 0.43284 0.0
C4160 C 0.32023 0.18699 0.43743 0.0
C4161 C 0.35102 0.14017 0.42372 0.0
C4162 C 0.33358 0.15061 0.42045 0.0
C4163 C 0.32351 0.16523 0.4251 0.0
C4164 C 0.32529 0.14628 0.41226 0.0
C4165 C 0.36138 0.12304 0.41916 0.0
C4166 C 0.34661 0.15711 0.40655 0.0
C4167 C 0.33871 0.15219 0.39888 0.0
C4168 C 0.30925 0.13652 0.39671 0.0
C4169 C 0.28794 0.12636 0.40245 0.0
C4170 C 0.29588 0.13125 0.41012 0.0
H4171 H 0.36749 0.11 0.42286 0.0
H4172 H 0.34439 0.10815 0.41513 0.0
H4173 H 0.3809 0.1383 0.41586 0.0
H4174 H 0.36944 0.16943 0.40802 0.0
H4175 H 0.35574 0.16082 0.39465 0.0
H4176 H 0.91429 0.2193 0.39802 0.0
H4177 H 0.90523 0.22392 0.41136 0.0
H4178 H 0.82481 0.14215 0.4103 0.0
H4179 H 0.83379 0.13731 0.39692 0.0
H4180 H 0.86121 0.22734 0.41818 0.0
H4181 H 0.86273 0.12957 0.42868 0.0
H4182 H 0.87496 0.1441 0.4193 0.0
H4183 H 0.83673 0.12223 0.42129 0.0
C4184 C 0.89453 0.20235 0.40059 0.0
C4185 C 0.87477 0.17791 0.39634 0.0
C4186 C 0.88945 0.20496 0.40825 0.0
C4187 C 0.86455 0.1832 0.41192 0.0
C4188 C 0.84456 0.15893 0.40769 0.0
H4189 H 0.80305 0.17083 0.45878 0.0
H4190 H 0.8071 0.16243 0.44528 0.0
C4191 C 0.84969 0.15622 0.40001 0.0
C4192 C 0.85946 0.18644 0.4201 0.0
H4193 H 0.84993 0.15473 0.43755 0.0
C4194 C 0.85878 0.21144 0.42241 0.0
C4195 C 0.85617 0.16571 0.42566 0.0
C4196 C 0.85793 0.13901 0.42364 0.0
C4197 C 0.85487 0.21623 0.43005 0.0
C4198 C 0.85195 0.1957 0.43561 0.0
C4199 C 0.85215 0.17047 0.43331 0.0
C4200 C 0.84956 0.20052 0.44385 0.0
C4201 C 0.85358 0.24315 0.4321 0.0
C4202 C 0.87223 0.22446 0.44759 0.0
C4203 C 0.86997 0.22934 0.45529 0.0
C4204 C 0.845 0.21034 0.45948 0.0
C4205 C 0.82245 0.18612 0.45573 0.0
C4206 C 0.8248 0.18118 0.44802 0.0
H4207 H 0.84823 0.25237 0.42711 0.0
H4208 H 0.83715 0.23841 0.43659 0.0
H4209 H 0.87511 0.25995 0.43427 0.0
H4210 H 0.89176 0.23946 0.44454 0.0
H4211 H 0.88766 0.2484 0.45792 0.0
H4212 H 0.79213 0.66918 0.39596 0.0
H4213 H 0.78595 0.65414 0.40924 0.0
H4214 H 0.87389 0.72123 0.41396 0.0
H4215 H 0.88055 0.7361 0.40066 0.0
H4216 H 0.81795 0.63551 0.41843 0.0
H4217 H 0.82539 0.73686 0.42955 0.0
H4218 H 0.81936 0.72711 0.41965 0.0
H4219 H 0.85515 0.74205 0.42363 0.0
C4220 C 0.81037 0.68054 0.39977 0.0
C4221 C 0.83684 0.70404 0.39717 0.0
C4222 C 0.8067 0.67199 0.4074 0.0
C4223 C 0.82926 0.68683 0.41265 0.0
C4224 C 0.85591 0.70982 0.41006 0.0
H4225 H 0.84097 0.67241 0.46186 0.0
H4226 H 0.85064 0.68661 0.4485 0.0
C4227 C 0.85966 0.71833 0.40243 0.0
C4228 C 0.82488 0.67824 0.42082 0.0
H4229 H 0.82266 0.70276 0.43859 0.0
C4230 C 0.81893 0.6502 0.42284 0.0
C4231 C 0.82628 0.69741 0.4266 0.0
C4232 C 0.83165 0.72747 0.42478 0.0
C4233 C 0.81473 0.64095 0.43045 0.0
C4234 C 0.81573 0.65998 0.43623 0.0
C4235 C 0.82187 0.68811 0.4342 0.0
C4236 C 0.80997 0.65101 0.44438 0.0
C4237 C 0.80994 0.61107 0.43222 0.0
C4238 C 0.78373 0.62649 0.4466 0.0
C4239 C 0.77818 0.61828 0.45423 0.0
C4240 C 0.79858 0.63456 0.4599 0.0
C4241 C 0.82468 0.65939 0.45768 0.0
C4242 C 0.83029 0.6675 0.45002 0.0
H4243 H 0.81875 0.60315 0.42768 0.0
H4244 H 0.8203 0.61091 0.43767 0.0
H4245 H 0.78625 0.59553 0.43266 0.0
H4246 H 0.76724 0.61386 0.44243 0.0
H4247 H 0.75755 0.59945 0.45571 0.0
H4248 H 0.88552 0.73927 0.90008 0.0
H4249 H 0.87605 0.72421 0.91335 0.0
H4250 H 0.84362 0.63513 0.90672 0.0
H4251 H 0.85277 0.64991 0.89343 0.0
H4252 H 0.82509 0.68539 0.92097 0.0
H4253 H 0.90563 0.64796 0.92234 0.0
H4254 H 0.90461 0.6697 0.91462 0.0
H4255 H 0.87913 0.6313 0.91495 0.0
C4256 C 0.87603 0.7164 0.90141 0.0
C4257 C 0.87009 0.69587 0.89563 0.0
C4258 C 0.87078 0.70784 0.90903 0.0
C4259 C 0.85962 0.67859 0.91108 0.0
C4260 C 0.85292 0.65793 0.90532 0.0
H4261 H 0.8216 0.58603 0.95419 0.0
H4262 H 0.82623 0.59981 0.94083 0.0
C4263 C 0.85816 0.66645 0.8977 0.0
C4264 C 0.85506 0.66978 0.91923 0.0
H4265 H 0.87525 0.63817 0.93305 0.0
C4266 C 0.83613 0.67514 0.92361 0.0
C4267 C 0.86944 0.65639 0.92272 0.0
C4268 C 0.89105 0.6512 0.91845 0.0
C4269 C 0.83079 0.66705 0.9313 0.0
C4270 C 0.8452 0.65369 0.93479 0.0
C4271 C 0.86411 0.64831 0.9304 0.0
C4272 C 0.84117 0.64524 0.94297 0.0
C4273 C 0.80923 0.67228 0.93558 0.0
C4274 C 0.84807 0.66613 0.94868 0.0
C4275 C 0.84521 0.65826 0.95635 0.0
C4276 C 0.83554 0.62929 0.95852 0.0
C4277 C 0.8286 0.60842 0.95278 0.0
C4278 C 0.83148 0.61633 0.94511 0.0
H4279 H 0.79424 0.67486 0.93168 0.0
H4280 H 0.79612 0.65415 0.93955 0.0
H4281 H 0.82117 0.6926 0.93892 0.0
H4282 H 0.85614 0.68869 0.94721 0.0
H4283 H 0.8506 0.67494 0.96058 0.0
H4284 H 0.31992 0.15471 0.89705 0.0
H4285 H 0.33396 0.16235 0.91039 0.0
H4286 H 0.30375 0.22385 0.91227 0.0
H4287 H 0.2887 0.2156 0.89897 0.0
H4288 H 0.37284 0.21211 0.918 0.0
H4289 H 0.26202 0.16904 0.92986 0.0
H4290 H 0.26829 0.16351 0.92012 0.0
H4291 H 0.27215 0.19768 0.92307 0.0
C4292 C 0.31589 0.16962 0.90031 0.0
C4293 C 0.30284 0.18429 0.89691 0.0
C4294 C 0.32416 0.17412 0.90794 0.0
C4295 C 0.31949 0.19329 0.9124 0.0
C4296 C 0.30705 0.20847 0.90901 0.0
H4297 H 0.35498 0.2489 0.95951 0.0
H4298 H 0.34068 0.24142 0.94618 0.0
C4299 C 0.29877 0.20399 0.90136 0.0
C4300 C 0.328 0.19758 0.92057 0.0
H4301 H 0.30128 0.1915 0.93852 0.0
C4302 C 0.35716 0.2075 0.92249 0.0
C4303 C 0.30758 0.19157 0.92644 0.0
C4304 C 0.27571 0.1796 0.9248 0.0
C4305 C 0.36654 0.21204 0.93008 0.0
C4306 C 0.34612 0.20602 0.93596 0.0
C4307 C 0.31696 0.19614 0.93403 0.0
C4308 C 0.35459 0.21007 0.94412 0.0
C4309 C 0.3984 0.22393 0.93173 0.0
C4310 C 0.36677 0.1946 0.94748 0.0
C4311 C 0.37485 0.1987 0.95514 0.0
C4312 C 0.37075 0.21824 0.95965 0.0
C4313 C 0.35813 0.23337 0.95628 0.0
C4314 C 0.35008 0.22926 0.94862 0.0
H4315 H 0.41211 0.2345 0.92667 0.0
H4316 H 0.40583 0.24 0.93642 0.0
H4317 H 0.40189 0.20582 0.93346 0.0
H4318 H 0.36985 0.17914 0.94419 0.0
H4319 H 0.38402 0.18629 0.95755 0.0
H4320 H 0.85329 0.10832 0.90123 0.0
H4321 H 0.84815 0.11756 0.91455 0.0
H4322 H 0.80746 0.16696 0.90793 0.0
H4323 H 0.81255 0.15787 0.89459 0.0
H4324 H 0.86894 0.16816 0.92274 0.0
H4325 H 0.74835 0.10926 0.92273 0.0
H4326 H 0.76919 0.10636 0.91506 0.0
H4327 H 0.76439 0.13751 0.91574 0.0
C4328 C 0.84351 0.12142 0.90258 0.0
C4329 C 0.83324 0.13221 0.89678 0.0
C4330 C 0.84044 0.12657 0.91023 0.0
C4331 C 0.82691 0.14251 0.91229 0.0
C4332 C 0.81728 0.15394 0.90652 0.0
H4333 H 0.78374 0.19137 0.95557 0.0
H4334 H 0.79251 0.18626 0.94221 0.0
C4335 C 0.82027 0.14875 0.89887 0.0
C4336 C 0.82301 0.14721 0.92047 0.0
H4337 H 0.77165 0.13587 0.93382 0.0
C4338 C 0.84764 0.161 0.92516 0.0
C4339 C 0.79524 0.1379 0.92367 0.0
C4340 C 0.76774 0.12169 0.91907 0.0
C4341 C 0.84533 0.16615 0.93289 0.0
C4342 C 0.81756 0.15684 0.93609 0.0
C4343 C 0.79295 0.14311 0.9314 0.0
C4344 C 0.81347 0.16093 0.94429 0.0
C4345 C 0.87276 0.1821 0.93753 0.0
C4346 C 0.82222 0.14837 0.94997 0.0
C4347 C 0.8174 0.15142 0.95765 0.0
C4348 C 0.80357 0.16703 0.95985 0.0
C4349 C 0.79491 0.17965 0.95414 0.0
C4350 C 0.7997 0.17654 0.94647 0.0
H4351 H 0.8922 0.19464 0.93389 0.0
H4352 H 0.87128 0.19727 0.94159 0.0
H4353 H 0.87599 0.16611 0.94081 0.0
H4354 H 0.83239 0.13575 0.94847 0.0
H4355 H 0.82454 0.14152 0.96186 0.0
H4356 H 0.60412 0.79898 0.56749 0.0
H4357 H 0.61899 0.80608 0.58078 0.0
H4358 H 0.69387 0.88871 0.57524 0.0
H4359 H 0.6785 0.88247 0.56201 0.0
H4360 H 0.66718 0.813 0.58797 0.0
H4361 H 0.65898 0.91206 0.59219 0.0
H4362 H 0.64479 0.8895 0.58389 0.0
H4363 H 0.68299 0.91557 0.58461 0.0
C4364 C 0.62362 0.81885 0.56908 0.0
C4365 C 0.63987 0.84026 0.56361 0.0
C4366 C 0.63222 0.82278 0.57671 0.0
C4367 C 0.65726 0.84823 0.57909 0.0
C4368 C 0.67408 0.86919 0.57361 0.0
H4369 H 0.74589 0.91371 0.62223 0.0
H4370 H 0.73162 0.90461 0.6089 0.0
C4371 C 0.66544 0.86535 0.56599 0.0
C4372 C 0.66575 0.85276 0.58728 0.0
H4373 H 0.68092 0.89961 0.60214 0.0
C4374 C 0.67002 0.83188 0.59107 0.0
C4375 C 0.66941 0.87732 0.59138 0.0
C4376 C 0.66353 0.89975 0.58784 0.0
C4377 C 0.67842 0.83519 0.59874 0.0
C4378 C 0.68237 0.8599 0.60281 0.0
C4379 C 0.67802 0.88072 0.59903 0.0
C4380 C 0.69122 0.86473 0.61095 0.0
C4381 C 0.68365 0.81253 0.6024 0.0
C4382 C 0.67322 0.84546 0.6166 0.0
C4383 C 0.68136 0.85059 0.62426 0.0
C4384 C 0.70775 0.87511 0.62646 0.0
C4385 C 0.72568 0.89434 0.62077 0.0
C4386 C 0.71745 0.88929 0.61313 0.0
H4387 H 0.68636 0.79871 0.59813 0.0
H4388 H 0.7033 0.82289 0.60605 0.0
H4389 H 0.66474 0.79822 0.60602 0.0
H4390 H 0.65265 0.8266 0.6151 0.0
H4391 H 0.66703 0.83525 0.62846 0.0
H4392 H 0.14692 0.82346 0.56218 0.0
H4393 H 0.14201 0.83248 0.57554 0.0
H4394 H 0.19059 0.79065 0.58193 0.0
H4395 H 0.1955 0.78145 0.56861 0.0
H4396 H 0.11558 0.79293 0.587 0.0
H4397 H 0.23186 0.86546 0.59402 0.0
H4398 H 0.21898 0.85687 0.58439 0.0
H4399 H 0.22441 0.83151 0.58991 0.0
C4400 C 0.15663 0.81621 0.56642 0.0
C4401 C 0.17176 0.80182 0.56427 0.0
C4402 C 0.15389 0.82149 0.57407 0.0
C4403 C 0.1663 0.81268 0.57977 0.0
C4404 C 0.18145 0.79838 0.57765 0.0
H4405 H 0.16251 0.81002 0.62912 0.0
H4406 H 0.17062 0.8053 0.61567 0.0
C4407 C 0.18425 0.79312 0.57 0.0
C4408 C 0.16224 0.81722 0.58793 0.0
H4409 H 0.19888 0.84759 0.60441 0.0
C4410 C 0.13381 0.80508 0.59079 0.0
C4411 C 0.18599 0.83298 0.59291 0.0
C4412 C 0.21703 0.8477 0.59015 0.0
C4413 C 0.12849 0.8077 0.59848 0.0
C4414 C 0.15223 0.82335 0.60346 0.0
C4415 C 0.18067 0.83557 0.60061 0.0
C4416 C 0.14796 0.82708 0.61166 0.0
C4417 C 0.09745 0.79297 0.60124 0.0
C4418 C 0.13301 0.84142 0.61392 0.0
C4419 C 0.12821 0.84405 0.62162 0.0
C4420 C 0.13836 0.83252 0.62725 0.0
C4421 C 0.15398 0.8188 0.62496 0.0
C4422 C 0.1588 0.81623 0.61726 0.0
H4423 H 0.08241 0.77585 0.59726 0.0
H4424 H 0.09541 0.78296 0.6069 0.0
H4425 H 0.09041 0.80937 0.60175 0.0
H4426 H 0.12487 0.85047 0.60973 0.0
H4427 H 0.11589 0.85453 0.62313 0.0
H4428 H 0.18978 0.3272 0.56125 0.0
H4429 H 0.18071 0.31342 0.57462 0.0
H4430 H 0.22761 0.40385 0.581 0.0
H4431 H 0.23687 0.41783 0.56766 0.0
H4432 H 0.2198 0.3239 0.58602 0.0
H4433 H 0.1536 0.37466 0.59326 0.0
H4434 H 0.16136 0.36967 0.5836 0.0
H4435 H 0.18817 0.39953 0.58913 0.0
C4436 C 0.19819 0.34422 0.56548 0.0
C4437 C 0.21399 0.37369 0.56332 0.0
C4438 C 0.19287 0.33627 0.57315 0.0
C4439 C 0.20305 0.35755 0.57886 0.0
C4440 C 0.21883 0.38698 0.57672 0.0
H4441 H 0.20435 0.35448 0.62828 0.0
H4442 H 0.2102 0.36797 0.61487 0.0
C4443 C 0.22412 0.39496 0.56906 0.0
C4444 C 0.1982 0.3489 0.58703 0.0
H4445 H 0.16943 0.35717 0.60356 0.0
C4446 C 0.20861 0.33103 0.58983 0.0
C4447 C 0.18369 0.35824 0.59205 0.0
C4448 C 0.17081 0.37636 0.58936 0.0
C4449 C 0.20545 0.32276 0.59751 0.0
C4450 C 0.19098 0.33212 0.60254 0.0
C4451 C 0.18054 0.34997 0.59974 0.0
C4452 C 0.18663 0.32375 0.61073 0.0
C4453 C 0.21838 0.30468 0.60021 0.0
C4454 C 0.17092 0.29439 0.61292 0.0
C4455 C 0.16766 0.28657 0.6206 0.0
C4456 C 0.1799 0.30793 0.6263 0.0
C4457 C 0.19499 0.33737 0.62408 0.0
C4458 C 0.19822 0.34516 0.61639 0.0
H4459 H 0.2352 0.30592 0.59623 0.0
H4460 H 0.22833 0.31179 0.6059 0.0
H4461 H 0.20093 0.28158 0.6006 0.0
H4462 H 0.16125 0.27743 0.60868 0.0
H4463 H 0.15611 0.26369 0.62204 0.0
H4464 H 0.93254 0.45151 0.73361 0.0
H4465 H 0.94627 0.46033 0.74697 0.0
H4466 H 0.0367 0.49985 0.74079 0.0
H4467 H 0.02324 0.49194 0.72739 0.0
H4468 H 0.97562 0.4392 0.75538 0.0
H4469 H 0.03758 0.55977 0.75534 0.0
H4470 H 0.01405 0.53892 0.74763 0.0
H4471 H 0.04988 0.54352 0.74843 0.0
C4472 C 0.95541 0.46262 0.73506 0.0
C4473 C 0.97675 0.47115 0.72937 0.0
C4474 C 0.96322 0.46744 0.74273 0.0
C4475 C 0.99256 0.48111 0.74493 0.0
C4476 C 0.01395 0.48976 0.73927 0.0
H4477 H 0.08447 0.52011 0.78802 0.0
H4478 H 0.07023 0.51522 0.7747 0.0
C4479 C 0.00616 0.48491 0.73159 0.0
C4480 C 1.00064 0.48514 0.75313 0.0
H4481 H 0.0406 0.53638 0.7665 0.0
C4482 C 0.98967 0.46048 0.75781 0.0
C4483 C 0.01909 0.51287 0.75633 0.0
C4484 C 0.03065 0.54033 0.7517 0.0
C4485 C 0.99708 0.4627 0.76554 0.0
C4486 C 0.01553 0.49044 0.76875 0.0
C4487 C 0.02646 0.51511 0.76407 0.0
C4488 C 0.02405 0.49425 0.77693 0.0
C4489 C 0.98571 0.43517 0.77014 0.0
C4490 C 1.00293 0.4847 0.78268 0.0
C4491 C 0.01102 0.48755 0.79033 0.0
C4492 C 0.04048 0.50029 0.79244 0.0
C4493 C 0.06161 0.51051 0.78665 0.0
C4494 C 0.05349 0.50758 0.77901 0.0
H4495 H 0.9787 0.41579 0.76647 0.0
H4496 H 1.00246 0.43654 0.77415 0.0
H4497 H 0.96657 0.43188 0.77347 0.0
H4498 H 0.98012 0.47504 0.78125 0.0
H4499 H 0.99415 0.47989 0.7946 0.0
H4500 H 0.52124 0.53649 0.72816 0.0
H4501 H 0.51389 0.54273 0.74157 0.0
H4502 H 0.54842 0.48738 0.74775 0.0
H4503 H 0.55675 0.4818 0.7344 0.0
H4504 H 0.48101 0.50254 0.75272 0.0
H4505 H 0.59784 0.5595 0.76049 0.0
H4506 H 0.58567 0.55405 0.75078 0.0
H4507 H 0.5854 0.52489 0.75603 0.0
C4508 C 0.52751 0.5258 0.73236 0.0
C4509 C 0.53979 0.50876 0.73014 0.0
C4510 C 0.52311 0.52925 0.74005 0.0
C4511 C 0.53106 0.51597 0.74571 0.0
C4512 C 0.54263 0.49837 0.74352 0.0
H4513 H 0.52819 0.51636 0.79522 0.0
H4514 H 0.53278 0.50742 0.78183 0.0
C4515 C 0.54702 0.49487 0.73584 0.0
C4516 C 0.5272 0.52047 0.7539 0.0
H4517 H 0.56414 0.546 0.7706 0.0
C4518 C 0.49921 0.51215 0.75662 0.0
C4519 C 0.5509 0.53298 0.75903 0.0
C4520 C 0.58169 0.54364 0.75645 0.0
C4521 C 0.49421 0.51546 0.7643 0.0
C4522 C 0.51793 0.52801 0.76943 0.0
C4523 C 0.5459 0.53631 0.76671 0.0
C4524 C 0.51431 0.53294 0.77761 0.0
C4525 C 0.46343 0.50482 0.76688 0.0
C4526 C 0.50261 0.55048 0.77976 0.0
C4527 C 0.5 0.5557 0.78743 0.0
C4528 C 0.50927 0.54371 0.79317 0.0
C4529 C 0.52105 0.5262 0.79099 0.0
C4530 C 0.5236 0.52096 0.78331 0.0
H4531 H 0.44731 0.48854 0.7629 0.0
H4532 H 0.45958 0.49491 0.77261 0.0
H4533 H 0.45954 0.52348 0.76714 0.0
H4534 H 0.49599 0.56066 0.77549 0.0
H4535 H 0.4914 0.56978 0.78885 0.0
H4536 H 0.48 0.98864 0.72781 0.0
H4537 H 0.47447 0.97529 0.74124 0.0
H4538 H 0.52339 0.0659 0.74735 0.0
H4539 H 0.52831 0.07949 0.73398 0.0
H4540 H 0.5163 0.98703 0.75251 0.0
H4541 H 0.44904 0.03668 0.75984 0.0
H4542 H 0.45565 0.0305 0.75018 0.0
H4543 H 0.48301 0.06114 0.75535 0.0
C4544 C 0.48944 0.00578 0.732 0.0
C4545 C 0.5045 0.0352 0.72976 0.0
C4546 C 0.4864 0.99808 0.73969 0.0
C4547 C 0.49809 0.01957 0.74534 0.0
C4548 C 0.51369 0.0489 0.74313 0.0
H4549 H 0.49464 0.01629 0.79484 0.0
H4550 H 0.50378 0.03026 0.78147 0.0
C4551 C 0.51681 0.05663 0.73545 0.0
C4552 C 0.49396 0.01131 0.75352 0.0
H4553 H 0.46483 0.01908 0.77004 0.0
C4554 C 0.50497 0.99396 0.75634 0.0
C4555 C 0.47922 0.02037 0.75855 0.0
C4556 C 0.4658 0.03798 0.75583 0.0
C4557 C 0.50208 0.98587 0.76403 0.0
C4558 C 0.48723 0.99484 0.76905 0.0
C4559 C 0.47628 0.01224 0.76623 0.0
C4560 C 0.48245 0.98616 0.77722 0.0
C4561 C 0.51559 0.96834 0.76674 0.0
C4562 C 0.46723 0.9567 0.77933 0.0
C4563 C 0.46193 0.94863 0.78698 0.0
C4564 C 0.47149 0.96981 0.79273 0.0
C4565 C 0.48673 0.99933 0.79059 0.0
C4566 C 0.49207 0.00738 0.78294 0.0
H4567 H 0.53304 0.97053 0.76285 0.0
H4568 H 0.52488 0.97512 0.7725 0.0
H4569 H 0.49863 0.94501 0.76694 0.0
H4570 H 0.45886 0.93986 0.77505 0.0
H4571 H 0.44958 0.92571 0.78836 0.0
H4572 H 0.58148 0.03183 0.23178 0.0
H4573 H 0.57268 0.01907 0.24519 0.0
H4574 H 0.49313 0.02208 0.24413 0.0
H4575 H 0.50145 0.03427 0.23063 0.0
H4576 H 0.56658 0.05146 0.25701 0.0
H4577 H 0.46743 0.94281 0.25423 0.0
H4578 H 0.49129 0.96115 0.24634 0.0
H4579 H 0.46612 0.97216 0.24952 0.0
C4580 C 0.56183 0.02933 0.23434 0.0
C4581 C 0.54205 0.03386 0.23006 0.0
C4582 C 0.55695 0.02224 0.24205 0.0
C4583 C 0.53207 0.01923 0.24568 0.0
C4584 C 0.51227 0.02379 0.24145 0.0
H4585 H 0.47124 0.97278 0.29268 0.0
H4586 H 0.47604 0.98646 0.27926 0.0
C4587 C 0.5172 0.03104 0.23373 0.0
C4588 C 0.52747 0.01217 0.25394 0.0
H4589 H 0.48253 0.96043 0.26665 0.0
C4590 C 0.54819 0.03155 0.25911 0.0
C4591 C 0.50338 0.98629 0.25671 0.0
C4592 C 0.48084 0.96422 0.25143 0.0
C4593 C 0.54548 0.02587 0.26695 0.0
C4594 C 0.52174 0.99966 0.26972 0.0
C4595 C 0.50076 0.98048 0.26455 0.0
C4596 C 0.51879 0.99141 0.27791 0.0
C4597 C 0.5679 0.04831 0.27219 0.0
C4598 C 0.54096 0.98914 0.28164 0.0
C4599 C 0.53829 0.98136 0.2893 0.0
C4600 C 0.51323 0.97533 0.29346 0.0
C4601 C 0.4908 0.97714 0.28968 0.0
C4602 C 0.49355 0.98505 0.282 0.0
H4603 H 0.57887 0.07029 0.26958 0.0
H4604 H 0.55795 0.04936 0.27763 0.0
H4605 H 0.5848 0.04243 0.27343 0.0
H4606 H 0.56028 0.99304 0.27859 0.0
H4607 H 0.55571 0.9795 0.29193 0.0
H4608 H 1.00491 0.50512 0.29569 0.0
H4609 H 0.99004 0.49548 0.28238 0.0
H4610 H 0.0636 0.578 0.27608 0.0
H4611 H 0.07857 0.58781 0.28933 0.0
H4612 H 0.97489 0.52551 0.27252 0.0
H4613 H 0.07166 0.52381 0.26145 0.0
H4614 H 0.06399 0.52239 0.27145 0.0
H4615 H 0.08061 0.55658 0.26649 0.0
C4616 C 0.01794 0.52126 0.29148 0.0
C4617 C 0.04313 0.54716 0.29362 0.0
C4618 C 0.00945 0.51565 0.28386 0.0
C4619 C 0.02597 0.53573 0.27818 0.0
C4620 C 0.0509 0.56174 0.2803 0.0
H4621 H 0.00904 0.55228 0.22969 0.0
H4622 H 0.02415 0.55838 0.24296 0.0
C4623 C 0.05945 0.56733 0.28791 0.0
C4624 C 0.01664 0.52998 0.27007 0.0
H4625 H 0.03958 0.52537 0.25227 0.0
C4626 C 0.98895 0.52524 0.2681 0.0
C4627 C 0.03496 0.52965 0.26428 0.0
C4628 C 0.06434 0.5331 0.26601 0.0
C4629 C 0.97942 0.52096 0.26052 0.0
C4630 C 0.99785 0.52093 0.25473 0.0
C4631 C 0.02545 0.52546 0.25669 0.0
C4632 C 0.98901 0.51657 0.24658 0.0
C4633 C 0.94998 0.51736 0.25877 0.0
C4634 C 0.96457 0.49074 0.24413 0.0
C4635 C 0.95596 0.48708 0.23651 0.0
C4636 C 0.97166 0.5091 0.23114 0.0
C4637 C 0.99655 0.53467 0.2336 0.0
C4638 C 1.00516 0.53829 0.24122 0.0
H4639 H 0.94178 0.52513 0.26349 0.0
H4640 H 0.95078 0.52936 0.25354 0.0
H4641 H 0.93416 0.49397 0.25785 0.0
H4642 H 0.95214 0.47334 0.2481 0.0
H4643 H 0.93702 0.46687 0.23483 0.0
H4644 H 0.52066 0.43964 0.23463 0.0
H4645 H 0.51544 0.44878 0.24796 0.0
H4646 H 0.47698 0.50025 0.24134 0.0
H4647 H 0.48217 0.49129 0.228 0.0
H4648 H 0.53709 0.49963 0.25621 0.0
H4649 H 0.41653 0.44241 0.25594 0.0
H4650 H 0.43739 0.43917 0.24832 0.0
H4651 H 0.43322 0.4707 0.24897 0.0
C4652 C 0.51136 0.45317 0.23599 0.0
C4653 C 0.50171 0.46458 0.2302 0.0
C4654 C 0.50824 0.45825 0.24363 0.0
C4655 C 0.4953 0.47475 0.24569 0.0
C4656 C 0.48633 0.48681 0.23993 0.0
H4657 H 0.45192 0.52412 0.28878 0.0
H4658 H 0.46128 0.51922 0.27546 0.0
C4659 C 0.48937 0.48168 0.23228 0.0
C4660 C 0.49127 0.47936 0.25385 0.0
H4661 H 0.43974 0.46864 0.26708 0.0
C4662 C 0.51579 0.49276 0.25859 0.0
C4663 C 0.46348 0.47041 0.25698 0.0
C4664 C 0.4361 0.45462 0.25232 0.0
C4665 C 0.51334 0.49789 0.26631 0.0
C4666 C 0.48555 0.48896 0.26944 0.0
C4667 C 0.46105 0.47559 0.2647 0.0
C4668 C 0.48128 0.49305 0.27762 0.0
C4669 C 0.54063 0.51341 0.27102 0.0
C4670 C 0.48935 0.47997 0.28331 0.0
C4671 C 0.48419 0.48289 0.29097 0.0
C4672 C 0.4707 0.49888 0.29312 0.0
C4673 C 0.4628 0.51208 0.28739 0.0
C4674 C 0.46792 0.5091 0.27974 0.0
H4675 H 0.56027 0.52569 0.26742 0.0
H4676 H 0.53933 0.52874 0.27506 0.0
H4677 H 0.54337 0.49717 0.27432 0.0
H4678 H 0.49919 0.46702 0.28184 0.0
H4679 H 0.49074 0.47254 0.2952 0.0
H4680 H 0.98866 0.20616 0.29367 0.0
H4681 H 0.00788 0.21785 0.28074 0.0
H4682 H 0.95274 0.12832 0.27426 0.0
H4683 H 0.93272 0.11664 0.28705 0.0
H4684 H 0.03728 0.19667 0.27237 0.0
H4685 H 0.93443 0.17049 0.25791 0.0
H4686 H 0.93866 0.17448 0.26805 0.0
H4687 H 0.93156 0.14112 0.26358 0.0
C4688 C 0.98032 0.18899 0.28948 0.0
C4689 C 0.959 0.16042 0.29145 0.0
C4690 C 0.9915 0.1957 0.28208 0.0
C4691 C 0.98147 0.1741 0.27646 0.0
C4692 C 0.96046 0.14554 0.27843 0.0
H4693 H 0.02236 0.16239 0.22937 0.0
H4694 H 1.00301 0.15392 0.24228 0.0
C4695 C 0.94929 0.13881 0.2858 0.0
C4696 C 0.99342 0.18119 0.26859 0.0
H4697 H 0.97383 0.17775 0.24999 0.0
C4698 C 0.02343 0.19276 0.26748 0.0
C4699 C 0.97541 0.17609 0.26218 0.0
C4700 C 0.94327 0.16513 0.26297 0.0
C4701 C 0.03574 0.19857 0.26018 0.0
C4702 C 0.01767 0.19315 0.25377 0.0
C4703 C 0.98771 0.18184 0.25488 0.0
C4704 C 0.02934 0.19866 0.24587 0.0
C4705 C 0.06789 0.20965 0.25937 0.0
C4706 C 0.05027 0.22673 0.2435 0.0
C4707 C 0.0615 0.23164 0.23612 0.0
C4708 C 0.052 0.2086 0.23089 0.0
C4709 C 0.03058 0.1806 0.23325 0.0
C4710 C 0.01933 0.17574 0.24063 0.0
H4711 H 0.07719 0.2057 0.26457 0.0
H4712 H 0.07229 0.19916 0.25451 0.0
H4713 H 0.07934 0.23344 0.25834 0.0
H4714 H 0.05799 0.2449 0.24738 0.0
H4715 H 0.07808 0.25344 0.23455 0.0
H4716 H 0.86484 0.84525 0.2937 0.0
H4717 H 0.85425 0.85458 0.28085 0.0
H4718 H 0.81574 0.76346 0.27557 0.0
H4719 H 0.82632 0.75393 0.28839 0.0
H4720 H 0.87363 0.84561 0.26729 0.0
H4721 H 0.75323 0.78028 0.26824 0.0
H4722 H 0.77539 0.7895 0.27666 0.0
H4723 H 0.77098 0.76015 0.27068 0.0
C4724 C 0.85412 0.82714 0.28981 0.0
C4725 C 0.84639 0.79878 0.29213 0.0
C4726 C 0.84796 0.83252 0.28246 0.0
C4727 C 0.83378 0.8097 0.27724 0.0
C4728 C 0.82602 0.78137 0.27952 0.0
H4729 H 0.78665 0.8033 0.22941 0.0
H4730 H 0.79507 0.79173 0.24226 0.0
C4731 C 0.83212 0.77595 0.28688 0.0
C4732 C 0.82821 0.81581 0.26933 0.0
H4733 H 0.77454 0.79898 0.25623 0.0
C4734 C 0.85193 0.83549 0.26489 0.0
C4735 C 0.79993 0.80253 0.26615 0.0
C4736 C 0.77337 0.78214 0.27069 0.0
C4737 C 0.84822 0.84199 0.25738 0.0
C4738 C 0.81993 0.82888 0.25422 0.0
C4739 C 0.79622 0.80903 0.25863 0.0
C4740 C 0.8145 0.83589 0.2464 0.0
C4741 C 0.87478 0.86245 0.25285 0.0
C4742 C 0.82212 0.86447 0.24444 0.0
C4743 C 0.81722 0.87115 0.2371 0.0
C4744 C 0.80442 0.84939 0.23152 0.0
C4745 C 0.79636 0.82064 0.23354 0.0
C4746 C 0.80128 0.81398 0.2409 0.0
H4747 H 0.8949 0.86414 0.25526 0.0
H4748 H 0.87268 0.85525 0.24686 0.0
H4749 H 0.87727 0.88448 0.25292 0.0
H4750 H 0.83165 0.88166 0.24862 0.0
H4751 H 0.82309 0.89339 0.23585 0.0
H4752 H 0.18788 0.07426 0.28773 0.0
H4753 H 0.17887 0.05248 0.27514 0.0
H4754 H 0.21473 0.99914 0.28218 0.0
H4755 H 0.22277 0.01999 0.29491 0.0
H4756 H 0.21695 0.05267 0.2647 0.0
H4757 H 0.1381 0.93904 0.27293 0.0
H4758 H 0.14881 0.9693 0.27929 0.0
H4759 H 0.17218 0.95426 0.27785 0.0
C4760 C 0.19343 0.05754 0.28667 0.0
C4761 C 0.20582 0.04875 0.29241 0.0
C4762 C 0.18848 0.04527 0.27942 0.0
C4763 C 0.19566 0.02379 0.27771 0.0
C4764 C 0.2084 0.01521 0.28338 0.0
H4765 H 0.18184 0.92689 0.23638 0.0
H4766 H 0.19309 0.94849 0.24905 0.0
C4767 C 0.21333 0.02746 0.29065 0.0
C4768 C 0.19032 0.01093 0.26994 0.0
H4769 H 0.15422 0.94684 0.26017 0.0
C4770 C 0.20315 0.02953 0.26372 0.0
C4771 C 0.17236 0.98071 0.26863 0.0
C4772 C 0.15683 0.95966 0.27501 0.0
C4773 C 0.1988 0.01879 0.25626 0.0
C4774 C 0.18074 0.98861 0.25495 0.0
C4775 C 0.16809 0.96996 0.26117 0.0
C4776 C 0.17441 0.97601 0.24716 0.0
C4777 C 0.21399 0.03981 0.24985 0.0
C4778 C 0.15996 0.98407 0.24186 0.0
C4779 C 0.15355 0.9718 0.2346 0.0
C4780 C 0.1614 0.95111 0.23244 0.0
C4781 C 0.17585 0.94305 0.23778 0.0
C4782 C 0.18213 0.95524 0.24505 0.0
H4783 H 0.2327 0.06051 0.2519 0.0
H4784 H 0.22195 0.03017 0.24555 0.0
H4785 H 0.19842 0.04499 0.24705 0.0
H4786 H 0.15334 0.99967 0.24338 0.0
H4787 H 0.14258 0.97869 0.23065 0.0
H4788 H 0.93458 0.75994 0.78712 0.0
H4789 H 0.95707 0.77155 0.77455 0.0
H4790 H 0.01599 0.85932 0.7818 0.0
H4791 H 0.99413 0.84773 0.79444 0.0
H4792 H 0.96089 0.81382 0.76435 0.0
H4793 H 0.07086 0.83486 0.77227 0.0
H4794 H 0.03987 0.81637 0.77848 0.0
H4795 H 0.05846 0.85531 0.77764 0.0
C4796 C 0.95264 0.7816 0.78609 0.0
C4797 C 0.96258 0.80283 0.79184 0.0
C4798 C 0.96535 0.78826 0.77887 0.0
C4799 C 0.98849 0.81621 0.77723 0.0
C4800 C 0.99851 0.83746 0.78295 0.0
H4801 H 0.09246 0.90282 0.73739 0.0
H4802 H 0.07041 0.88946 0.74997 0.0
C4803 C 0.98575 0.83086 0.79016 0.0
C4804 C 1.00146 0.82339 0.76948 0.0
H4805 H 0.06509 0.84728 0.75973 0.0
C4806 C 0.98363 0.82097 0.76333 0.0
C4807 C 0.03117 0.83282 0.76815 0.0
C4808 C 0.05121 0.83478 0.77446 0.0
C4809 C 0.99479 0.82833 0.75592 0.0
C4810 C 0.02453 0.83779 0.75457 0.0
C4811 C 0.04232 0.84008 0.76073 0.0
C4812 C 0.0377 0.84574 0.74684 0.0
C4813 C 0.97475 0.82671 0.74964 0.0
C4814 C 0.02697 0.82558 0.74087 0.0
C4815 C 0.03935 0.83327 0.73362 0.0
C4816 C 0.06299 0.86129 0.73217 0.0
C4817 C 0.07397 0.88125 0.73822 0.0
C4818 C 0.06152 0.87356 0.74545 0.0
H4819 H 0.95539 0.8271 0.75188 0.0
H4820 H 0.98618 0.84501 0.7456 0.0
H4821 H 0.96695 0.80604 0.74649 0.0
H4822 H 0.00904 0.80377 0.74181 0.0
H4823 H 0.03011 0.81732 0.72913 0.0
H4824 H 0.19328 0.21273 0.72826 0.0
H4825 H 0.2064 0.20429 0.74092 0.0
H4826 H 0.12058 0.17987 0.74899 0.0
H4827 H 0.10739 0.18874 0.73642 0.0
H4828 H 0.20576 0.23014 0.75501 0.0
H4829 H 0.13066 0.11078 0.75538 0.0
H4830 H 0.14011 0.13196 0.74677 0.0
H4831 H 0.11371 0.13189 0.75315 0.0
C4832 C 0.1772 0.20579 0.73273 0.0
C4833 C 0.14915 0.20128 0.73125 0.0
C4834 C 0.18473 0.20082 0.73997 0.0
C4835 C 0.16436 0.191 0.7459 0.0
C4836 C 0.13649 0.18681 0.74448 0.0
H4837 H 0.1636 0.144 0.7932 0.0
H4838 H 0.15199 0.15443 0.78059 0.0
C4839 C 0.12897 0.19185 0.73726 0.0
C4840 C 0.17232 0.1855 0.75358 0.0
H4841 H 0.15457 0.13242 0.76689 0.0
C4842 C 0.19467 0.20875 0.7576 0.0
C4843 C 0.15781 0.15761 0.75697 0.0
C4844 C 0.1344 0.13153 0.75284 0.0
C4845 C 0.20247 0.20503 0.76497 0.0
C4846 C 0.18796 0.1771 0.76837 0.0
C4847 C 0.16568 0.15384 0.76432 0.0
C4848 C 0.19546 0.17147 0.77611 0.0
C4849 C 0.22561 0.23126 0.76912 0.0
C4850 C 0.22373 0.1773 0.77783 0.0
C4851 C 0.23045 0.17136 0.78505 0.0
C4852 C 0.20898 0.15911 0.79073 0.0
C4853 C 0.18065 0.15316 0.78897 0.0
C4854 C 0.17398 0.15922 0.78176 0.0
H4855 H 0.22846 0.25184 0.7667 0.0
H4856 H 0.22028 0.23041 0.77523 0.0
H4857 H 0.24668 0.23175 0.76861 0.0
H4858 H 0.24054 0.18601 0.77354 0.0
H4859 H 0.25235 0.17572 0.78613 0.0
H4860 H 0.86924 0.01703 0.79421 0.0
H4861 H 0.85894 0.99646 0.78142 0.0
H4862 H 0.81821 0.04684 0.77588 0.0
H4863 H 0.82902 0.06805 0.78858 0.0
H4864 H 0.80509 0.96431 0.77381 0.0
H4865 H 0.87761 0.06742 0.75871 0.0
H4866 H 0.87985 0.06336 0.76879 0.0
H4867 H 0.85163 0.06887 0.76494 0.0
C4868 C 0.8583 0.02395 0.79026 0.0
C4869 C 0.85014 0.04439 0.79245 0.0
C4870 C 0.85226 0.01201 0.78295 0.0
C4871 C 0.83818 0.02039 0.77762 0.0
C4872 C 0.82954 0.04037 0.77983 0.0
H4873 H 0.79119 0.97688 0.72998 0.0
H4874 H 0.79846 0.99651 0.74283 0.0
C4875 C 0.83546 0.05224 0.78714 0.0
C4876 C 0.83238 0.00804 0.7698 0.0
H4877 H 0.84782 0.02644 0.75112 0.0
C4878 C 0.8145 0.97788 0.76885 0.0
C4879 C 0.84451 0.02573 0.76331 0.0
C4880 C 0.86468 0.05811 0.76395 0.0
C4881 C 0.80812 0.96501 0.76161 0.0
C4882 C 0.82053 0.98265 0.75511 0.0
C4883 C 0.83828 0.01285 0.75607 0.0
C4884 C 0.81568 0.97022 0.7473 0.0
C4885 C 0.78757 0.93268 0.761 0.0
C4886 C 0.82319 0.94908 0.74544 0.0
C4887 C 0.81877 0.93756 0.73811 0.0
C4888 C 0.80699 0.94709 0.73238 0.0
C4889 C 0.79983 0.96858 0.73423 0.0
C4890 C 0.8042 0.98003 0.74159 0.0
H4891 H 0.77338 0.92403 0.76608 0.0
H4892 H 0.77357 0.92727 0.7559 0.0
H4893 H 0.80037 0.92142 0.76057 0.0
H4894 H 0.8327 0.94156 0.74967 0.0
H4895 H 0.82433 0.92089 0.73696 0.0
H4896 H 0.66284 0.48127 0.62828 0.0
H4897 H 0.68409 0.49197 0.61557 0.0
H4898 H 0.62177 0.5167 0.60848 0.0
H4899 H 0.60042 0.5061 0.62117 0.0
H4900 H 0.65938 0.46753 0.60204 0.0
H4901 H 0.69677 0.58542 0.60111 0.0
H4902 H 0.68542 0.56468 0.60978 0.0
H4903 H 0.65878 0.56326 0.60323 0.0
C4904 C 0.65362 0.489 0.62402 0.0
C4905 C 0.62993 0.49292 0.6258 0.0
C4906 C 0.66589 0.49521 0.61675 0.0
C4907 C 0.65491 0.50561 0.61106 0.0
C4908 C 0.63121 0.50946 0.6128 0.0
H4909 H 0.69287 0.54415 0.56289 0.0
H4910 H 0.67232 0.53568 0.57567 0.0
C4911 C 0.61898 0.50335 0.62008 0.0
C4912 C 0.66753 0.51132 0.60326 0.0
H4913 H 0.69864 0.56358 0.58952 0.0
C4914 C 0.66811 0.4886 0.59933 0.0
C4915 C 0.67888 0.53878 0.59967 0.0
C4916 C 0.68023 0.56452 0.60368 0.0
C4917 C 0.67925 0.4924 0.59192 0.0
C4918 C 0.69057 0.51983 0.58834 0.0
C4919 C 0.68992 0.54254 0.59225 0.0
C4920 C 0.70343 0.52541 0.58058 0.0
C4921 C 0.67824 0.4668 0.58792 0.0
C4922 C 0.7281 0.52296 0.57908 0.0
C4923 C 0.74007 0.528 0.57178 0.0
C4924 C 0.72773 0.53572 0.56578 0.0
C4925 C 0.70321 0.53854 0.56735 0.0
C4926 C 0.6913 0.53356 0.57466 0.0
H4927 H 0.66241 0.44584 0.59061 0.0
H4928 H 0.67232 0.46623 0.58187 0.0
H4929 H 0.70005 0.4688 0.58819 0.0
H4930 H 0.73829 0.51736 0.58358 0.0
H4931 H 0.7593 0.52624 0.57088 0.0
H4932 H 0.54318 0.1831 0.62591 0.0
H4933 H 0.53127 0.19123 0.61309 0.0
H4934 H 0.47801 0.09868 0.60986 0.0
H4935 H 0.4899 0.09033 0.62266 0.0
H4936 H 0.54241 0.1731 0.59954 0.0
H4937 H 0.42353 0.12729 0.60301 0.0
H4938 H 0.44775 0.13563 0.61097 0.0
H4939 H 0.43614 0.10281 0.60563 0.0
C4940 C 0.52893 0.16442 0.62249 0.0
C4941 C 0.5175 0.13603 0.62537 0.0
C4942 C 0.52204 0.16913 0.61515 0.0
C4943 C 0.50342 0.14562 0.61052 0.0
C4944 C 0.49186 0.11725 0.61337 0.0
H4945 H 0.44438 0.13392 0.56365 0.0
H4946 H 0.45411 0.12346 0.57649 0.0
C4947 C 0.49871 0.1125 0.62071 0.0
C4948 C 0.49711 0.15085 0.60261 0.0
H4949 H 0.44214 0.13977 0.59051 0.0
C4950 C 0.52048 0.1659 0.59758 0.0
C4951 C 0.46848 0.14135 0.60001 0.0
C4952 C 0.44253 0.1261 0.60519 0.0
C4953 C 0.51604 0.17143 0.59004 0.0
C4954 C 0.48746 0.16215 0.58746 0.0
C4955 C 0.46404 0.14688 0.59247 0.0
C4956 C 0.48149 0.16855 0.57964 0.0
C4957 C 0.54202 0.18671 0.58487 0.0
C4958 C 0.49327 0.19739 0.57715 0.0
C4959 C 0.48765 0.20347 0.56982 0.0
C4960 C 0.46996 0.18084 0.56479 0.0
C4961 C 0.45792 0.15194 0.56735 0.0
C4962 C 0.46355 0.14589 0.5747 0.0
H4963 H 0.56085 0.18507 0.587 0.0
H4964 H 0.53669 0.17754 0.57906 0.0
H4965 H 0.54873 0.21011 0.58454 0.0
H4966 H 0.50657 0.2153 0.5809 0.0
H4967 H 0.49678 0.22599 0.56815 0.0
H4968 H 0.83217 0.35124 0.62696 0.0
H4969 H 0.82319 0.33115 0.61413 0.0
H4970 H 0.91053 0.3951 0.6077 0.0
H4971 H 0.91969 0.41532 0.6205 0.0
H4972 H 0.82456 0.35727 0.60067 0.0
H4973 H 0.90609 0.32109 0.60005 0.0
H4974 H 0.89548 0.33131 0.60871 0.0
H4975 H 0.92112 0.35879 0.6024 0.0
C4976 C 0.84952 0.36108 0.62282 0.0
C4977 C 0.87673 0.3849 0.62481 0.0
C4978 C 0.84436 0.34947 0.61548 0.0
C4979 C 0.86629 0.36126 0.60994 0.0
C4980 C 0.89346 0.38507 0.6119 0.0
H4981 H 0.8713 0.32482 0.56174 0.0
H4982 H 0.88248 0.34529 0.57455 0.0
C4983 C 0.89867 0.39665 0.61924 0.0
C4984 C 0.86029 0.34934 0.60206 0.0
H4985 H 0.88302 0.31946 0.58839 0.0
C4986 C 0.83728 0.34888 0.59801 0.0
C4987 C 0.87693 0.33848 0.59854 0.0
C4988 C 0.90112 0.33715 0.60266 0.0
C4989 C 0.83069 0.33825 0.59054 0.0
C4990 C 0.84722 0.32727 0.58703 0.0
C4991 C 0.87036 0.3279 0.59106 0.0
C4992 C 0.8405 0.31461 0.57924 0.0
C4993 C 0.8064 0.33943 0.58642 0.0
C4994 C 0.81335 0.29021 0.57761 0.0
C4995 C 0.80692 0.27836 0.5703 0.0
C4996 C 0.82754 0.2905 0.56442 0.0
C4997 C 0.85492 0.31471 0.56611 0.0
C4998 C 0.86133 0.32655 0.57343 0.0
H4999 H 0.80133 0.35542 0.58903 0.0
H5000 H 0.81199 0.34524 0.58037 0.0
H5001 H 0.78646 0.31772 0.58669 0.0
H5002 H 0.79715 0.2801 0.58202 0.0
H5003 H 0.78588 0.25932 0.5693 0.0
H5004 H 0.74234 0.22958 0.06874 0.0
H5005 H 0.72246 0.21797 0.08156 0.0
H5006 H 0.67452 0.12695 0.07581 0.0
H5007 H 0.69409 0.13837 0.06292 0.0
H5008 H 0.66505 0.19111 0.08634 0.0
H5009 H 0.71604 0.12657 0.09524 0.0
H5010 H 0.7275 0.14923 0.08689 0.0
H5011 H 0.69505 0.11415 0.08669 0.0
C5012 C 0.72739 0.20707 0.07015 0.0
C5013 C 0.71988 0.18494 0.06474 0.0
C5014 C 0.71616 0.20045 0.07752 0.0
C5015 C 0.69729 0.17154 0.07972 0.0
C5016 C 0.68956 0.14937 0.07433 0.0
H5017 H 0.60619 0.09325 0.12216 0.0
H5018 H 0.62571 0.10215 0.10926 0.0
C5019 C 0.70078 0.15597 0.06694 0.0
C5020 C 0.68523 0.16486 0.08757 0.0
H5021 H 0.68224 0.12792 0.10376 0.0
C5022 C 0.6689 0.17736 0.09015 0.0
C5023 C 0.69008 0.1468 0.09256 0.0
C5024 C 0.70832 0.13358 0.09026 0.0
C5025 C 0.65709 0.17211 0.0975 0.0
C5026 C 0.66222 0.15433 0.10252 0.0
C5027 C 0.67832 0.14159 0.09993 0.0
C5028 C 0.6512 0.14888 0.11049 0.0
C5029 C 0.6387 0.18522 0.09977 0.0
C5030 C 0.65951 0.17207 0.11557 0.0
C5031 C 0.64847 0.16705 0.12297 0.0
C5032 C 0.62896 0.13865 0.12551 0.0
C5033 C 0.62132 0.11538 0.12046 0.0
C5034 C 0.63237 0.12044 0.11305 0.0
H5035 H 0.63016 0.19116 0.09475 0.0
H5036 H 0.62007 0.16996 0.10335 0.0
H5037 H 0.65219 0.20533 0.10308 0.0
H5038 H 0.6746 0.19414 0.11382 0.0
H5039 H 0.65536 0.18547 0.12672 0.0
H5040 H 0.85843 0.51379 0.12795 0.0
H5041 H 0.84763 0.52292 0.1151 0.0
H5042 H 0.86877 0.45997 0.10635 0.0
H5043 H 0.8785 0.44986 0.11918 0.0
H5044 H 0.88284 0.54305 0.10253 0.0
H5045 H 0.78987 0.43286 0.0968 0.0
H5046 H 0.80453 0.44467 0.10618 0.0
H5047 H 0.82247 0.43304 0.09958 0.0
C5048 C 0.86041 0.50156 0.12332 0.0
C5049 C 0.86923 0.48093 0.12466 0.0
C5050 C 0.85441 0.50697 0.11595 0.0
C5051 C 0.85688 0.49181 0.10974 0.0
C5052 C 0.86608 0.47154 0.11104 0.0
H5053 H 0.83247 0.49704 0.06086 0.0
H5054 H 0.84294 0.48661 0.07362 0.0
C5055 C 0.87204 0.46608 0.1184 0.0
C5056 C 0.85046 0.49768 0.1019 0.0
H5057 H 0.80766 0.46547 0.08638 0.0
C5058 C 0.8663 0.5261 0.09902 0.0
C5059 C 0.82895 0.47557 0.09728 0.0
C5060 C 0.81027 0.44488 0.10013 0.0
C5061 C 0.86157 0.53292 0.09164 0.0
C5062 C 0.83998 0.51085 0.08702 0.0
C5063 C 0.82422 0.4824 0.08989 0.0
C5064 C 0.8332 0.51694 0.07925 0.0
C5065 C 0.88022 0.56363 0.08879 0.0
C5066 C 0.82371 0.53706 0.07814 0.0
C5067 C 0.81786 0.54319 0.07084 0.0
C5068 C 0.82111 0.52918 0.06445 0.0
C5069 C 0.83006 0.50856 0.06561 0.0
C5070 C 0.83591 0.50243 0.07292 0.0
H5071 H 0.90071 0.57558 0.09209 0.0
H5072 H 0.88579 0.56387 0.08272 0.0
H5073 H 0.86808 0.57551 0.08939 0.0
H5074 H 0.82086 0.54813 0.08293 0.0
H5075 H 0.81138 0.55945 0.07022 0.0
H5076 H 0.55133 0.36676 0.12554 0.0
H5077 H 0.5386 0.34542 0.11287 0.0
H5078 H 0.48645 0.38573 0.10926 0.0
H5079 H 0.49959 0.40773 0.12188 0.0
H5080 H 0.48276 0.3076 0.10666 0.0
H5081 H 0.54041 0.41136 0.09061 0.0
H5082 H 0.54725 0.40879 0.10052 0.0
H5083 H 0.51523 0.40969 0.09767 0.0
C5084 C 0.53737 0.37135 0.12204 0.0
C5085 C 0.52668 0.38919 0.12474 0.0
C5086 C 0.52996 0.35896 0.1148 0.0
C5087 C 0.5119 0.36427 0.11006 0.0
C5088 C 0.5008 0.38169 0.11277 0.0
H5089 H 0.4544 0.31261 0.06326 0.0
H5090 H 0.46228 0.33294 0.07605 0.0
C5091 C 0.50811 0.39401 0.12002 0.0
C5092 C 0.50453 0.35133 0.10232 0.0
H5093 H 0.5127 0.36855 0.08348 0.0
C5094 C 0.48931 0.32092 0.10159 0.0
C5095 C 0.51293 0.36869 0.0957 0.0
C5096 C 0.53006 0.40145 0.09612 0.0
C5097 C 0.4821 0.30742 0.09444 0.0
C5098 C 0.49099 0.32477 0.08781 0.0
C5099 C 0.5059 0.3552 0.08854 0.0
C5100 C 0.48562 0.31182 0.08006 0.0
C5101 C 0.46455 0.27467 0.09408 0.0
C5102 C 0.49631 0.29337 0.07799 0.0
C5103 C 0.49157 0.28145 0.0707 0.0
C5104 C 0.47629 0.28794 0.06524 0.0
C5105 C 0.46584 0.30669 0.06731 0.0
C5106 C 0.47053 0.31855 0.07462 0.0
H5107 H 0.45203 0.26529 0.09938 0.0
H5108 H 0.44914 0.26724 0.08924 0.0
H5109 H 0.47951 0.26592 0.09334 0.0
H5110 H 0.50858 0.28831 0.082 0.0
H5111 H 0.49972 0.26691 0.06937 0.0
H5112 H 0.39488 0.83869 0.90049 0.0
H5113 H 0.37411 0.8287 0.91323 0.0
H5114 H 0.34481 0.89033 0.90983 0.0
H5115 H 0.36462 0.89973 0.89697 0.0
H5116 H 0.38727 0.8658 0.92532 0.0
H5117 H 0.27123 0.81975 0.91751 0.0
H5118 H 0.29871 0.82491 0.91069 0.0
H5119 H 0.29489 0.85522 0.91366 0.0
C5120 C 0.38358 0.84979 0.90238 0.0
C5121 C 0.38129 0.86988 0.89762 0.0
C5122 C 0.3719 0.84421 0.90971 0.0
C5123 C 0.35747 0.8584 0.91249 0.0
C5124 C 0.3553 0.87863 0.9078 0.0
H5125 H 0.27471 0.85127 0.956 0.0
H5126 H 0.29565 0.86383 0.94326 0.0
C5127 C 0.36699 0.88424 0.90045 0.0
C5128 C 0.34544 0.85253 0.92036 0.0
H5129 H 0.28267 0.82814 0.93057 0.0
C5130 C 0.36437 0.85748 0.92646 0.0
C5131 C 0.31556 0.84177 0.92188 0.0
C5132 C 0.29382 0.83483 0.9156 0.0
C5133 C 0.35439 0.85227 0.934 0.0
C5134 C 0.32448 0.84128 0.93552 0.0
C5135 C 0.30558 0.83658 0.92943 0.0
C5136 C 0.31231 0.83405 0.94336 0.0
C5137 C 0.3761 0.85911 0.94029 0.0
C5138 C 0.31444 0.81296 0.94768 0.0
C5139 C 0.3026 0.80582 0.95499 0.0
C5140 C 0.28816 0.81949 0.95817 0.0
C5141 C 0.28601 0.84058 0.95381 0.0
C5142 C 0.29781 0.84765 0.94649 0.0
H5143 H 0.39863 0.87468 0.93842 0.0
H5144 H 0.37086 0.86839 0.94528 0.0
H5145 H 0.37546 0.83877 0.94209 0.0
H5146 H 0.32504 0.80175 0.94537 0.0
H5147 H 0.30493 0.78966 0.95817 0.0
H5148 H 0.13689 0.44576 0.95947 0.0
H5149 H 0.1256 0.45336 0.94651 0.0
H5150 H 0.21708 0.501 0.94124 0.0
H5151 H 0.22854 0.49262 0.95405 0.0
H5152 H 0.14101 0.50404 0.93874 0.0
H5153 H 0.18565 0.44268 0.92405 0.0
H5154 H 0.17942 0.44019 0.93414 0.0
H5155 H 0.21147 0.47056 0.93019 0.0
C5156 C 0.15464 0.45755 0.95554 0.0
C5157 C 0.18367 0.46845 0.95785 0.0
C5158 C 0.14813 0.46204 0.94813 0.0
C5159 C 0.17043 0.47734 0.94283 0.0
C5160 C 0.19941 0.4886 0.94515 0.0
H5161 H 0.18222 0.53601 0.89631 0.0
H5162 H 0.19102 0.52537 0.90921 0.0
C5163 C 0.20595 0.48412 0.95254 0.0
C5164 C 0.1635 0.48207 0.93493 0.0
H5165 H 0.17356 0.4718 0.91629 0.0
C5166 C 0.14793 0.49678 0.93384 0.0
C5167 C 0.1725 0.47263 0.9285 0.0
C5168 C 0.18794 0.45539 0.92926 0.0
C5169 C 0.14185 0.50298 0.92653 0.0
C5170 C 0.15115 0.49383 0.9201 0.0
C5171 C 0.1665 0.47891 0.9212 0.0
C5172 C 0.14552 0.49986 0.91221 0.0
C5173 C 0.12622 0.52002 0.92575 0.0
C5174 C 0.11699 0.48868 0.90951 0.0
C5175 C 0.11187 0.49481 0.90213 0.0
C5176 C 0.13517 0.51223 0.89724 0.0
C5177 C 0.16373 0.52291 0.89993 0.0
C5178 C 0.16881 0.51669 0.9073 0.0
H5179 H 0.12702 0.53155 0.93107 0.0
H5180 H 0.13576 0.53624 0.92111 0.0
H5181 H 0.10304 0.50488 0.92437 0.0
H5182 H 0.09862 0.47519 0.91313 0.0
H5183 H 0.08961 0.48636 0.90031 0.0
H5184 H 0.52746 0.65139 0.89622 0.0
H5185 H 0.54083 0.672 0.90897 0.0
H5186 H 0.45922 0.60333 0.91757 0.0
H5187 H 0.44618 0.58196 0.90494 0.0
H5188 H 0.51417 0.69293 0.9182 0.0
H5189 H 0.51579 0.60077 0.93243 0.0
H5190 H 0.51488 0.60354 0.92226 0.0
H5191 H 0.48202 0.59028 0.92771 0.0
C5192 C 0.51252 0.64035 0.90084 0.0
C5193 C 0.48572 0.61487 0.8995 0.0
C5194 C 0.52013 0.65232 0.90813 0.0
C5195 C 0.50127 0.63904 0.91429 0.0
C5196 C 0.47448 0.61372 0.91297 0.0
H5197 H 0.49709 0.68013 0.96181 0.0
H5198 H 0.48711 0.65906 0.94907 0.0
C5199 C 0.46686 0.60172 0.9057 0.0
C5200 C 0.50913 0.65216 0.92202 0.0
H5201 H 0.51718 0.63752 0.94046 0.0
C5202 C 0.51506 0.68087 0.92305 0.0
C5203 C 0.51029 0.6365 0.92839 0.0
C5204 C 0.50569 0.60617 0.92765 0.0
C5205 C 0.52135 0.69402 0.93025 0.0
C5206 C 0.52218 0.67824 0.93662 0.0
C5207 C 0.51646 0.64961 0.9356 0.0
C5208 C 0.52865 0.69095 0.9444 0.0
C5209 C 0.52627 0.72446 0.93101 0.0
C5210 C 0.55553 0.71566 0.94608 0.0
C5211 C 0.56129 0.72783 0.95336 0.0
C5212 C 0.54032 0.71555 0.95916 0.0
C5213 C 0.51361 0.69046 0.95748 0.0
C5214 C 0.50792 0.67826 0.9502 0.0
H5215 H 0.51795 0.73082 0.92602 0.0
H5216 H 0.51554 0.72654 0.93618 0.0
H5217 H 0.54994 0.74001 0.93148 0.0
H5218 H 0.57209 0.7256 0.94175 0.0
H5219 H 0.582 0.74724 0.9544 0.0
H5220 H 0.26348 0.42516 0.45418 0.0
H5221 H 0.28453 0.43348 0.44144 0.0
H5222 H 0.33188 0.52579 0.44562 0.0
H5223 H 0.31153 0.51766 0.4584 0.0
H5224 H 0.28009 0.46677 0.4296 0.0
H5225 H 0.39525 0.50975 0.43783 0.0
H5226 H 0.3655 0.49044 0.44437 0.0
H5227 H 0.37844 0.52809 0.44225 0.0
C5228 C 0.27869 0.44721 0.45243 0.0
C5229 C 0.28582 0.47072 0.45735 0.0
C5230 C 0.29056 0.45194 0.44512 0.0
C5231 C 0.31009 0.48023 0.44259 0.0
C5232 C 0.31725 0.50372 0.44748 0.0
H5233 H 0.40465 0.56121 0.40133 0.0
H5234 H 0.38307 0.54949 0.41396 0.0
C5235 C 0.30532 0.49904 0.45477 0.0
C5236 C 0.32236 0.48532 0.43477 0.0
H5237 H 0.38627 0.51481 0.42489 0.0
C5238 C 0.30329 0.47707 0.42857 0.0
C5239 C 0.35264 0.49882 0.43341 0.0
C5240 C 0.37418 0.50707 0.43981 0.0
C5241 C 0.3137 0.4827 0.42106 0.0
C5242 C 0.34403 0.49643 0.4197 0.0
C5243 C 0.36305 0.50437 0.42591 0.0
C5244 C 0.35657 0.5033 0.41189 0.0
C5245 C 0.29213 0.47473 0.41468 0.0
C5246 C 0.34911 0.48125 0.40649 0.0
C5247 C 0.36121 0.48794 0.39919 0.0
C5248 C 0.38127 0.51684 0.39714 0.0
C5249 C 0.38889 0.5388 0.40261 0.0
C5250 C 0.37674 0.53209 0.40989 0.0
H5251 H 0.271 0.47177 0.41671 0.0
H5252 H 0.30068 0.49165 0.41019 0.0
H5253 H 0.28798 0.45391 0.41212 0.0
H5254 H 0.33408 0.45878 0.40792 0.0
H5255 H 0.35466 0.47044 0.39515 0.0
H5256 H 0.47177 0.82596 0.39722 0.0
H5257 H 0.48338 0.81798 0.41009 0.0
H5258 H 0.53434 0.9106 0.41352 0.0
H5259 H 0.52213 0.91883 0.40073 0.0
H5260 H 0.53693 0.8351 0.4169 0.0
H5261 H 0.47985 0.88425 0.43179 0.0
H5262 H 0.47436 0.87499 0.42186 0.0
H5263 H 0.50626 0.90759 0.42494 0.0
C5264 C 0.48524 0.84469 0.40072 0.0
C5265 C 0.49579 0.87307 0.39792 0.0
C5266 C 0.49202 0.84007 0.40808 0.0
C5267 C 0.50935 0.86366 0.41285 0.0
C5268 C 0.52046 0.89201 0.41002 0.0
H5269 H 0.56677 0.87415 0.45987 0.0
H5270 H 0.55864 0.88503 0.44692 0.0
C5271 C 0.51373 0.89668 0.40265 0.0
C5272 C 0.51591 0.85848 0.42074 0.0
H5273 H 0.50744 0.87016 0.43939 0.0
C5274 C 0.53042 0.84273 0.42181 0.0
C5275 C 0.50754 0.8685 0.42717 0.0
C5276 C 0.49092 0.88456 0.42642 0.0
C5277 C 0.53704 0.83698 0.42911 0.0
C5278 C 0.52837 0.84669 0.43555 0.0
C5279 C 0.5141 0.86269 0.43447 0.0
C5280 C 0.53344 0.84003 0.44344 0.0
C5281 C 0.55376 0.821 0.42984 0.0
C5282 C 0.52168 0.81111 0.44588 0.0
C5283 C 0.52644 0.80482 0.45327 0.0
C5284 C 0.54291 0.82728 0.45847 0.0
C5285 C 0.55434 0.85626 0.45603 0.0
C5286 C 0.54954 0.86253 0.44862 0.0
H5287 H 0.56595 0.82264 0.42458 0.0
H5288 H 0.56935 0.8296 0.43463 0.0
H5289 H 0.53828 0.79763 0.43091 0.0
H5290 H 0.50867 0.79331 0.44207 0.0
H5291 H 0.51751 0.78225 0.45488 0.0
H5292 H 0.16409 0.73998 0.45541 0.0
H5293 H 0.15289 0.71816 0.44277 0.0
H5294 H 0.18193 0.65885 0.44954 0.0
H5295 H 0.19254 0.68005 0.46225 0.0
H5296 H 0.19115 0.71482 0.43236 0.0
H5297 H 0.1022 0.60458 0.44008 0.0
H5298 H 0.11488 0.63529 0.4464 0.0
H5299 H 0.13514 0.61666 0.44538 0.0
C5300 C 0.16767 0.72197 0.45426 0.0
C5301 C 0.1791 0.71172 0.4599 0.0
C5302 C 0.16144 0.70965 0.447 0.0
C5303 C 0.1662 0.68659 0.44521 0.0
C5304 C 0.17758 0.67628 0.45081 0.0
H5305 H 0.14876 0.58481 0.405 0.0
H5306 H 0.15709 0.60612 0.41765 0.0
C5307 C 0.18393 0.68865 0.45806 0.0
C5308 C 0.16018 0.67402 0.43742 0.0
H5309 H 0.12012 0.61091 0.4275 0.0
C5310 C 0.17548 0.69214 0.43129 0.0
C5311 C 0.1398 0.64441 0.43601 0.0
C5312 C 0.12184 0.6241 0.4423 0.0
C5313 C 0.17151 0.68134 0.42384 0.0
C5314 C 0.15115 0.65168 0.42243 0.0
C5315 C 0.13573 0.63362 0.42856 0.0
C5316 C 0.14591 0.63884 0.41466 0.0
C5317 C 0.18983 0.70165 0.41759 0.0
C5318 C 0.13643 0.64979 0.40874 0.0
C5319 C 0.13192 0.63781 0.40145 0.0
C5320 C 0.13657 0.61441 0.3999 0.0
C5321 C 0.1455 0.60315 0.4059 0.0
C5322 C 0.15005 0.61517 0.41318 0.0
H5323 H 0.20956 0.72096 0.41985 0.0
H5324 H 0.19672 0.69039 0.41349 0.0
H5325 H 0.17688 0.70949 0.4145 0.0
H5326 H 0.13244 0.6676 0.40976 0.0
H5327 H 0.12522 0.64723 0.397 0.0
loop_
_geom_bond_atom_site_label_1
_geom_bond_atom_site_label_2
_geom_bond_distance
_geom_bond_site_symmetry_2
_ccdc_geom_bond_type
C0 Eu1 2.835 . S
C0 C2 1.500 . S
C0 O20 1.257 . S
C0 O21 1.260 . S
Eu1 C0 2.835 . S
Eu1 O20 2.473 . S
Eu1 O21 2.480 . S
Eu1 O22 2.430 . S
Eu1 O23 2.670 . S
Eu1 O24 2.394 . S
Eu1 O29 2.355 . S
Eu1 O31 2.374 . S
C2 C0 1.500 . S
C2 C3 1.377 . S
C2 C7 1.377 . S
C3 C2 1.377 . S
C3 C4 1.395 . S
C3 H32 0.931 . S
C4 C3 1.395 . S
C4 C5 1.383 . S
C4 H33 0.931 . S
C5 C4 1.383 . S
C5 C6 1.394 . S
C6 C5 1.394 . S
C6 C7 1.378 . S
C6 H34 0.931 . S
C7 C2 1.377 . S
C7 C6 1.378 . S
C7 H35 0.931 . S
C8 O22 1.259 . S
C8 O23 1.270 . S
C9 O24 1.251 . S
C9 O25 1.251 . S
C10 Eu11 2.835 . S
C10 C12 1.500 . S
C10 O26 1.257 . S
C10 O27 1.260 . S
Eu11 C10 2.835 . S
Eu11 O23 2.355 . S
Eu11 O25 2.374 . S
Eu11 O26 2.473 . S
Eu11 O27 2.480 . S
Eu11 O28 2.430 . S
Eu11 O29 2.670 . S
Eu11 O30 2.394 . S
C12 C10 1.500 . S
C12 C13 1.377 . S
C12 C17 1.377 . S
C13 C12 1.377 . S
C13 C14 1.395 . S
C13 H36 0.931 . S
C14 C13 1.395 . S
C14 C15 1.383 . S
C14 H37 0.931 . S
C15 C14 1.383 . S
C15 C16 1.394 . S
C16 C15 1.394 . S
C16 C17 1.378 . S
C16 H38 0.931 . S
C17 C12 1.377 . S
C17 C16 1.378 . S
C17 H39 0.931 . S
C18 O28 1.259 . S
C18 O29 1.270 . S
C19 O30 1.251 . S
C19 O31 1.251 . S
O20 C0 1.257 . S
O20 Eu1 2.473 . S
O21 C0 1.260 . S
O21 Eu1 2.480 . S
O22 Eu1 2.430 . S
O22 C8 1.259 . S
O23 Eu1 2.670 . S
O23 C8 1.270 . S
O23 Eu11 2.355 . S
O24 Eu1 2.394 . S
O24 C9 1.251 . S
O25 C9 1.251 . S
O25 Eu11 2.374 . S
O26 C10 1.257 . S
O26 Eu11 2.473 . S
O27 C10 1.260 . S
O27 Eu11 2.480 . S
O28 Eu11 2.430 . S
O28 C18 1.259 . S
O29 Eu1 2.355 . S
O29 Eu11 2.670 . S
O29 C18 1.270 . S
O30 Eu11 2.394 . S
O30 C19 1.251 . S
O31 Eu1 2.374 . S
O31 C19 1.251 . S
H32 C3 0.931 . S
H33 C4 0.931 . S
H34 C6 0.931 . S
H35 C7 0.931 . S
H36 C13 0.931 . S
H37 C14 0.931 . S
H38 C16 0.931 . S
H39 C17 0.931 . S
C40 Eu41 2.835 . S
C40 C42 1.500 . S
C40 O60 1.257 . S
C40 O61 1.260 . S
Eu41 C40 2.835 . S
Eu41 O60 2.473 . S
Eu41 O61 2.480 . S
Eu41 O62 2.430 . S
Eu41 O63 2.670 . S
Eu41 O64 2.394 . S
Eu41 O69 2.355 . S
Eu41 O71 2.374 . S
C42 C40 1.500 . S
C42 C43 1.377 . S
C42 C47 1.377 . S
C43 C42 1.377 . S
C43 C44 1.395 . S
C43 H72 0.931 . S
C44 C43 1.395 . S
C44 C45 1.383 . S
C44 H73 0.931 . S
C45 C44 1.383 . S
C45 C46 1.394 . S
C46 C45 1.394 . S
C46 C47 1.378 . S
C46 H74 0.931 . S
C47 C42 1.377 . S
C47 C46 1.378 . S
C47 H75 0.931 . S
C48 O62 1.259 . S
C48 O63 1.270 . S
C49 O64 1.251 . S
C49 O65 1.251 . S
C50 Eu51 2.835 . S
C50 C52 1.500 . S
C50 O66 1.257 . S
C50 O67 1.260 . S
Eu51 C50 2.835 . S
Eu51 O63 2.355 . S
Eu51 O65 2.374 . S
Eu51 O66 2.473 . S
Eu51 O67 2.480 . S
Eu51 O68 2.430 . S
Eu51 O69 2.670 . S
Eu51 O70 2.394 . S
C52 C50 1.500 . S
C52 C53 1.377 . S
C52 C57 1.377 . S
C53 C52 1.377 . S
C53 C54 1.395 . S
C53 H76 0.931 . S
C54 C53 1.395 . S
C54 C55 1.383 . S
C54 H77 0.931 . S
C55 C54 1.383 . S
C55 C56 1.394 . S
C56 C55 1.394 . S
C56 C57 1.378 . S
C56 H78 0.931 . S
C57 C52 1.377 . S
C57 C56 1.378 . S
C57 H79 0.931 . S
C58 O68 1.259 . S
C58 O69 1.270 . S
C59 O70 1.251 . S
C59 O71 1.251 . S
O60 C40 1.257 . S
O60 Eu41 2.473 . S
O61 C40 1.260 . S
O61 Eu41 2.480 . S
O62 Eu41 2.430 . S
O62 C48 1.259 . S
O63 Eu41 2.670 . S
O63 C48 1.270 . S
O63 Eu51 2.355 . S
O64 Eu41 2.394 . S
O64 C49 1.251 . S
O65 C49 1.251 . S
O65 Eu51 2.374 . S
O66 C50 1.257 . S
O66 Eu51 2.473 . S
O67 C50 1.260 . S
O67 Eu51 2.480 . S
O68 Eu51 2.430 . S
O68 C58 1.259 . S
O69 Eu41 2.355 . S
O69 Eu51 2.670 . S
O69 C58 1.270 . S
O70 Eu51 2.394 . S
O70 C59 1.251 . S
O71 Eu41 2.374 . S
O71 C59 1.251 . S
H72 C43 0.931 . S
H73 C44 0.931 . S
H74 C46 0.931 . S
H75 C47 0.931 . S
H76 C53 0.931 . S
H77 C54 0.931 . S
H78 C56 0.931 . S
H79 C57 0.931 . S
C80 Eu81 2.835 . S
C80 C82 1.500 . S
C80 O100 1.257 . S
C80 O101 1.260 . S
Eu81 C80 2.835 . S
Eu81 O100 2.473 . S
Eu81 O101 2.480 . S
Eu81 O102 2.430 . S
Eu81 O103 2.670 . S
Eu81 O104 2.394 . S
Eu81 O109 2.355 . S
Eu81 O111 2.374 . S
C82 C80 1.500 . S
C82 C83 1.377 . S
C82 C87 1.377 . S
C83 C82 1.377 . S
C83 C84 1.395 . S
C83 H112 0.931 . S
C84 C83 1.395 . S
C84 C85 1.383 . S
C84 H113 0.931 . S
C85 C84 1.383 . S
C85 C86 1.394 . S
C86 C85 1.394 . S
C86 C87 1.378 . S
C86 H114 0.931 . S
C87 C82 1.377 . S
C87 C86 1.378 . S
C87 H115 0.931 . S
C88 O102 1.259 . S
C88 O103 1.270 . S
C89 O104 1.251 . S
C89 O105 1.251 . S
C90 Eu91 2.835 . S
C90 C92 1.500 . S
C90 O106 1.257 . S
C90 O107 1.260 . S
Eu91 C90 2.835 . S
Eu91 O103 2.355 . S
Eu91 O105 2.374 . S
Eu91 O106 2.473 . S
Eu91 O107 2.480 . S
Eu91 O108 2.430 . S
Eu91 O109 2.670 . S
Eu91 O110 2.394 . S
C92 C90 1.500 . S
C92 C93 1.377 . S
C92 C97 1.377 . S
C93 C92 1.377 . S
C93 C94 1.395 . S
C93 H116 0.931 . S
C94 C93 1.395 . S
C94 C95 1.383 . S
C94 H117 0.931 . S
C95 C94 1.383 . S
C95 C96 1.394 . S
C96 C95 1.394 . S
C96 C97 1.378 . S
C96 H118 0.931 . S
C97 C92 1.377 . S
C97 C96 1.378 . S
C97 H119 0.931 . S
C98 O108 1.259 . S
C98 O109 1.270 . S
C99 O110 1.251 . S
C99 O111 1.251 . S
O100 C80 1.257 . S
O100 Eu81 2.473 . S
O101 C80 1.260 . S
O101 Eu81 2.480 . S
O102 Eu81 2.430 . S
O102 C88 1.259 . S
O103 Eu81 2.670 . S
O103 C88 1.270 . S
O103 Eu91 2.355 . S
O104 Eu81 2.394 . S
O104 C89 1.251 . S
O105 C89 1.251 . S
O105 Eu91 2.374 . S
O106 C90 1.257 . S
O106 Eu91 2.473 . S
O107 C90 1.260 . S
O107 Eu91 2.480 . S
O108 Eu91 2.430 . S
O108 C98 1.259 . S
O109 Eu81 2.355 . S
O109 Eu91 2.670 . S
O109 C98 1.270 . S
O110 Eu91 2.394 . S
O110 C99 1.251 . S
O111 Eu81 2.374 . S
O111 C99 1.251 . S
H112 C83 0.931 . S
H113 C84 0.931 . S
H114 C86 0.931 . S
H115 C87 0.931 . S
H116 C93 0.931 . S
H117 C94 0.931 . S
H118 C96 0.931 . S
H119 C97 0.931 . S
C120 Eu121 2.835 . S
C120 C122 1.500 . S
C120 O140 1.257 . S
C120 O141 1.260 . S
Eu121 C120 2.835 . S
Eu121 O140 2.473 . S
Eu121 O141 2.480 . S
Eu121 O142 2.430 . S
Eu121 O143 2.670 . S
Eu121 O144 2.394 . S
Eu121 O149 2.355 . S
Eu121 O151 2.374 . S
C122 C120 1.500 . S
C122 C123 1.377 . S
C122 C127 1.377 . S
C123 C122 1.377 . S
C123 C124 1.395 . S
C123 H152 0.931 . S
C124 C123 1.395 . S
C124 C125 1.383 . S
C124 H153 0.931 . S
C125 C124 1.383 . S
C125 C126 1.394 . S
C126 C125 1.394 . S
C126 C127 1.378 . S
C126 H154 0.931 . S
C127 C122 1.377 . S
C127 C126 1.378 . S
C127 H155 0.931 . S
C128 O142 1.259 . S
C128 O143 1.270 . S
C129 O144 1.251 . S
C129 O145 1.251 . S
C130 Eu131 2.835 . S
C130 C132 1.500 . S
C130 O146 1.257 . S
C130 O147 1.260 . S
Eu131 C130 2.835 . S
Eu131 O143 2.355 . S
Eu131 O145 2.374 . S
Eu131 O146 2.473 . S
Eu131 O147 2.480 . S
Eu131 O148 2.430 . S
Eu131 O149 2.670 . S
Eu131 O150 2.394 . S
C132 C130 1.500 . S
C132 C133 1.377 . S
C132 C137 1.377 . S
C133 C132 1.377 . S
C133 C134 1.395 . S
C133 H156 0.931 . S
C134 C133 1.395 . S
C134 C135 1.383 . S
C134 H157 0.931 . S
C135 C134 1.383 . S
C135 C136 1.394 . S
C136 C135 1.394 . S
C136 C137 1.378 . S
C136 H158 0.931 . S
C137 C132 1.377 . S
C137 C136 1.378 . S
C137 H159 0.931 . S
C138 O148 1.259 . S
C138 O149 1.270 . S
C139 O150 1.251 . S
C139 O151 1.251 . S
O140 C120 1.257 . S
O140 Eu121 2.473 . S
O141 C120 1.260 . S
O141 Eu121 2.480 . S
O142 Eu121 2.430 . S
O142 C128 1.259 . S
O143 Eu121 2.670 . S
O143 C128 1.270 . S
O143 Eu131 2.355 . S
O144 Eu121 2.394 . S
O144 C129 1.251 . S
O145 C129 1.251 . S
O145 Eu131 2.374 . S
O146 C130 1.257 . S
O146 Eu131 2.473 . S
O147 C130 1.260 . S
O147 Eu131 2.480 . S
O148 Eu131 2.430 . S
O148 C138 1.259 . S
O149 Eu121 2.355 . S
O149 Eu131 2.670 . S
O149 C138 1.270 . S
O150 Eu131 2.394 . S
O150 C139 1.251 . S
O151 Eu121 2.374 . S
O151 C139 1.251 . S
H152 C123 0.931 . S
H153 C124 0.931 . S
H154 C126 0.931 . S
H155 C127 0.931 . S
H156 C133 0.931 . S
H157 C134 0.931 . S
H158 C136 0.931 . S
H159 C137 0.931 . S
C160 Eu161 2.835 . S
C160 C162 1.500 . S
C160 O180 1.257 . S
C160 O181 1.260 . S
Eu161 C160 2.835 . S
Eu161 O180 2.473 . S
Eu161 O181 2.480 . S
Eu161 O182 2.430 . S
Eu161 O183 2.670 . S
Eu161 O184 2.394 . S
Eu161 O189 2.355 . S
Eu161 O191 2.374 . S
C162 C160 1.500 . S
C162 C163 1.377 . S
C162 C167 1.377 . S
C163 C162 1.377 . S
C163 C164 1.395 . S
C163 H192 0.931 . S
C164 C163 1.395 . S
C164 C165 1.383 . S
C164 H193 0.931 . S
C165 C164 1.383 . S
C165 C166 1.394 . S
C166 C165 1.394 . S
C166 C167 1.378 . S
C166 H194 0.931 . S
C167 C162 1.377 . S
C167 C166 1.378 . S
C167 H195 0.931 . S
C168 O182 1.259 . S
C168 O183 1.270 . S
C169 O184 1.251 . S
C169 O185 1.251 . S
C170 Eu171 2.835 . S
C170 C172 1.500 . S
C170 O186 1.257 . S
C170 O187 1.260 . S
Eu171 C170 2.835 . S
Eu171 O183 2.355 . S
Eu171 O185 2.374 . S
Eu171 O186 2.473 . S
Eu171 O187 2.480 . S
Eu171 O188 2.430 . S
Eu171 O189 2.670 . S
Eu171 O190 2.394 . S
C172 C170 1.500 . S
C172 C173 1.377 . S
C172 C177 1.377 . S
C173 C172 1.377 . S
C173 C174 1.395 . S
C173 H196 0.931 . S
C174 C173 1.395 . S
C174 C175 1.383 . S
C174 H197 0.931 . S
C175 C174 1.383 . S
C175 C176 1.394 . S
C176 C175 1.394 . S
C176 C177 1.378 . S
C176 H198 0.931 . S
C177 C172 1.377 . S
C177 C176 1.378 . S
C177 H199 0.931 . S
C178 O188 1.259 . S
C178 O189 1.270 . S
C179 O190 1.251 . S
C179 O191 1.251 . S
O180 C160 1.257 . S
O180 Eu161 2.473 . S
O181 C160 1.260 . S
O181 Eu161 2.480 . S
O182 Eu161 2.430 . S
O182 C168 1.259 . S
O183 Eu161 2.670 . S
O183 C168 1.270 . S
O183 Eu171 2.355 . S
O184 Eu161 2.394 . S
O184 C169 1.251 . S
O185 C169 1.251 . S
O185 Eu171 2.374 . S
O186 C170 1.257 . S
O186 Eu171 2.473 . S
O187 C170 1.260 . S
O187 Eu171 2.480 . S
O188 Eu171 2.430 . S
O188 C178 1.259 . S
O189 Eu161 2.355 . S
O189 Eu171 2.670 . S
O189 C178 1.270 . S
O190 Eu171 2.394 . S
O190 C179 1.251 . S
O191 Eu161 2.374 . S
O191 C179 1.251 . S
H192 C163 0.931 . S
H193 C164 0.931 . S
H194 C166 0.931 . S
H195 C167 0.931 . S
H196 C173 0.931 . S
H197 C174 0.931 . S
H198 C176 0.931 . S
H199 C177 0.931 . S
C200 Eu201 2.835 . S
C200 C202 1.500 . S
C200 O220 1.257 . S
C200 O221 1.260 . S
Eu201 C200 2.835 . S
Eu201 O220 2.473 . S
Eu201 O221 2.480 . S
Eu201 O222 2.430 . S
Eu201 O223 2.670 . S
Eu201 O224 2.394 . S
Eu201 O229 2.355 . S
Eu201 O231 2.374 . S
C202 C200 1.500 . S
C202 C203 1.377 . S
C202 C207 1.377 . S
C203 C202 1.377 . S
C203 C204 1.395 . S
C203 H232 0.931 . S
C204 C203 1.395 . S
C204 C205 1.383 . S
C204 H233 0.931 . S
C205 C204 1.383 . S
C205 C206 1.394 . S
C206 C205 1.394 . S
C206 C207 1.378 . S
C206 H234 0.931 . S
C207 C202 1.377 . S
C207 C206 1.378 . S
C207 H235 0.931 . S
C208 O222 1.259 . S
C208 O223 1.270 . S
C209 O224 1.251 . S
C209 O225 1.251 . S
C210 Eu211 2.835 . S
C210 C212 1.500 . S
C210 O226 1.257 . S
C210 O227 1.260 . S
Eu211 C210 2.835 . S
Eu211 O223 2.355 . S
Eu211 O225 2.374 . S
Eu211 O226 2.473 . S
Eu211 O227 2.480 . S
Eu211 O228 2.430 . S
Eu211 O229 2.670 . S
Eu211 O230 2.394 . S
C212 C210 1.500 . S
C212 C213 1.377 . S
C212 C217 1.377 . S
C213 C212 1.377 . S
C213 C214 1.395 . S
C213 H236 0.931 . S
C214 C213 1.395 . S
C214 C215 1.383 . S
C214 H237 0.931 . S
C215 C214 1.383 . S
C215 C216 1.394 . S
C216 C215 1.394 . S
C216 C217 1.378 . S
C216 H238 0.931 . S
C217 C212 1.377 . S
C217 C216 1.378 . S
C217 H239 0.931 . S
C218 O228 1.259 . S
C218 O229 1.270 . S
C219 O230 1.251 . S
C219 O231 1.251 . S
O220 C200 1.257 . S
O220 Eu201 2.473 . S
O221 C200 1.260 . S
O221 Eu201 2.480 . S
O222 Eu201 2.430 . S
O222 C208 1.259 . S
O223 Eu201 2.670 . S
O223 C208 1.270 . S
O223 Eu211 2.355 . S
O224 Eu201 2.394 . S
O224 C209 1.251 . S
O225 C209 1.251 . S
O225 Eu211 2.374 . S
O226 C210 1.257 . S
O226 Eu211 2.473 . S
O227 C210 1.260 . S
O227 Eu211 2.480 . S
O228 Eu211 2.430 . S
O228 C218 1.259 . S
O229 Eu201 2.355 . S
O229 Eu211 2.670 . S
O229 C218 1.270 . S
O230 Eu211 2.394 . S
O230 C219 1.251 . S
O231 Eu201 2.374 . S
O231 C219 1.251 . S
H232 C203 0.931 . S
H233 C204 0.931 . S
H234 C206 0.931 . S
H235 C207 0.931 . S
H236 C213 0.931 . S
H237 C214 0.931 . S
H238 C216 0.931 . S
H239 C217 0.931 . S
C240 Eu241 2.835 . S
C240 C242 1.500 . S
C240 O260 1.257 . S
C240 O261 1.260 . S
Eu241 C240 2.835 . S
Eu241 O260 2.473 . S
Eu241 O261 2.480 . S
Eu241 O262 2.430 . S
Eu241 O263 2.670 . S
Eu241 O264 2.394 . S
Eu241 O269 2.355 . S
Eu241 O271 2.374 . S
C242 C240 1.500 . S
C242 C243 1.377 . S
C242 C247 1.377 . S
C243 C242 1.377 . S
C243 C244 1.395 . S
C243 H272 0.931 . S
C244 C243 1.395 . S
C244 C245 1.383 . S
C244 H273 0.931 . S
C245 C244 1.383 . S
C245 C246 1.394 . S
C246 C245 1.394 . S
C246 C247 1.378 . S
C246 H274 0.931 . S
C247 C242 1.377 . S
C247 C246 1.378 . S
C247 H275 0.931 . S
C248 O262 1.259 . S
C248 O263 1.270 . S
C249 O264 1.251 . S
C249 O265 1.251 . S
C250 Eu251 2.835 . S
C250 C252 1.500 . S
C250 O266 1.257 . S
C250 O267 1.260 . S
Eu251 C250 2.835 . S
Eu251 O263 2.355 . S
Eu251 O265 2.374 . S
Eu251 O266 2.473 . S
Eu251 O267 2.480 . S
Eu251 O268 2.430 . S
Eu251 O269 2.670 . S
Eu251 O270 2.394 . S
C252 C250 1.500 . S
C252 C253 1.377 . S
C252 C257 1.377 . S
C253 C252 1.377 . S
C253 C254 1.395 . S
C253 H276 0.931 . S
C254 C253 1.395 . S
C254 C255 1.383 . S
C254 H277 0.931 . S
C255 C254 1.383 . S
C255 C256 1.394 . S
C256 C255 1.394 . S
C256 C257 1.378 . S
C256 H278 0.931 . S
C257 C252 1.377 . S
C257 C256 1.378 . S
C257 H279 0.931 . S
C258 O268 1.259 . S
C258 O269 1.270 . S
C259 O270 1.251 . S
C259 O271 1.251 . S
O260 C240 1.257 . S
O260 Eu241 2.473 . S
O261 C240 1.260 . S
O261 Eu241 2.480 . S
O262 Eu241 2.430 . S
O262 C248 1.259 . S
O263 Eu241 2.670 . S
O263 C248 1.270 . S
O263 Eu251 2.355 . S
O264 Eu241 2.394 . S
O264 C249 1.251 . S
O265 C249 1.251 . S
O265 Eu251 2.374 . S
O266 C250 1.257 . S
O266 Eu251 2.473 . S
O267 C250 1.260 . S
O267 Eu251 2.480 . S
O268 Eu251 2.430 . S
O268 C258 1.259 . S
O269 Eu241 2.355 . S
O269 Eu251 2.670 . S
O269 C258 1.270 . S
O270 Eu251 2.394 . S
O270 C259 1.251 . S
O271 Eu241 2.374 . S
O271 C259 1.251 . S
H272 C243 0.931 . S
H273 C244 0.931 . S
H274 C246 0.931 . S
H275 C247 0.931 . S
H276 C253 0.931 . S
H277 C254 0.931 . S
H278 C256 0.931 . S
H279 C257 0.931 . S
C280 Eu281 2.835 . S
C280 C282 1.500 . S
C280 O300 1.257 . S
C280 O301 1.260 . S
Eu281 C280 2.835 . S
Eu281 O300 2.473 . S
Eu281 O301 2.480 . S
Eu281 O302 2.430 . S
Eu281 O303 2.670 . S
Eu281 O304 2.394 . S
Eu281 O309 2.355 . S
Eu281 O311 2.374 . S
C282 C280 1.500 . S
C282 C283 1.377 . S
C282 C287 1.377 . S
C283 C282 1.377 . S
C283 C284 1.395 . S
C283 H312 0.931 . S
C284 C283 1.395 . S
C284 C285 1.383 . S
C284 H313 0.931 . S
C285 C284 1.383 . S
C285 C286 1.394 . S
C286 C285 1.394 . S
C286 C287 1.378 . S
C286 H314 0.931 . S
C287 C282 1.377 . S
C287 C286 1.378 . S
C287 H315 0.931 . S
C288 O302 1.259 . S
C288 O303 1.270 . S
C289 O304 1.251 . S
C289 O305 1.251 . S
C290 Eu291 2.835 . S
C290 C292 1.500 . S
C290 O306 1.257 . S
C290 O307 1.260 . S
Eu291 C290 2.835 . S
Eu291 O303 2.355 . S
Eu291 O305 2.374 . S
Eu291 O306 2.473 . S
Eu291 O307 2.480 . S
Eu291 O308 2.430 . S
Eu291 O309 2.670 . S
Eu291 O310 2.394 . S
C292 C290 1.500 . S
C292 C293 1.377 . S
C292 C297 1.377 . S
C293 C292 1.377 . S
C293 C294 1.395 . S
C293 H316 0.931 . S
C294 C293 1.395 . S
C294 C295 1.383 . S
C294 H317 0.931 . S
C295 C294 1.383 . S
C295 C296 1.394 . S
C296 C295 1.394 . S
C296 C297 1.378 . S
C296 H318 0.931 . S
C297 C292 1.377 . S
C297 C296 1.378 . S
C297 H319 0.931 . S
C298 O308 1.259 . S
C298 O309 1.270 . S
C299 O310 1.251 . S
C299 O311 1.251 . S
O300 C280 1.257 . S
O300 Eu281 2.473 . S
O301 C280 1.260 . S
O301 Eu281 2.480 . S
O302 Eu281 2.430 . S
O302 C288 1.259 . S
O303 Eu281 2.670 . S
O303 C288 1.270 . S
O303 Eu291 2.355 . S
O304 Eu281 2.394 . S
O304 C289 1.251 . S
O305 C289 1.251 . S
O305 Eu291 2.374 . S
O306 C290 1.257 . S
O306 Eu291 2.473 . S
O307 C290 1.260 . S
O307 Eu291 2.480 . S
O308 Eu291 2.430 . S
O308 C298 1.259 . S
O309 Eu281 2.355 . S
O309 Eu291 2.670 . S
O309 C298 1.270 . S
O310 Eu291 2.394 . S
O310 C299 1.251 . S
O311 Eu281 2.374 . S
O311 C299 1.251 . S
H312 C283 0.931 . S
H313 C284 0.931 . S
H314 C286 0.931 . S
H315 C287 0.931 . S
H316 C293 0.931 . S
H317 C294 0.931 . S
H318 C296 0.931 . S
H319 C297 0.931 . S
C320 Eu321 2.835 . S
C320 C322 1.500 . S
C320 O340 1.257 . S
C320 O341 1.260 . S
Eu321 C320 2.835 . S
Eu321 O340 2.473 . S
Eu321 O341 2.480 . S
Eu321 O342 2.430 . S
Eu321 O343 2.670 . S
Eu321 O344 2.394 . S
Eu321 O349 2.355 . S
Eu321 O351 2.374 . S
C322 C320 1.500 . S
C322 C323 1.377 . S
C322 C327 1.377 . S
C323 C322 1.377 . S
C323 C324 1.395 . S
C323 H352 0.931 . S
C324 C323 1.395 . S
C324 C325 1.383 . S
C324 H353 0.931 . S
C325 C324 1.383 . S
C325 C326 1.394 . S
C326 C325 1.394 . S
C326 C327 1.378 . S
C326 H354 0.931 . S
C327 C322 1.377 . S
C327 C326 1.378 . S
C327 H355 0.931 . S
C328 O342 1.259 . S
C328 O343 1.270 . S
C329 O344 1.251 . S
C329 O345 1.251 . S
C330 Eu331 2.835 . S
C330 C332 1.500 . S
C330 O346 1.257 . S
C330 O347 1.260 . S
Eu331 C330 2.835 . S
Eu331 O343 2.355 . S
Eu331 O345 2.374 . S
Eu331 O346 2.473 . S
Eu331 O347 2.480 . S
Eu331 O348 2.430 . S
Eu331 O349 2.670 . S
Eu331 O350 2.394 . S
C332 C330 1.500 . S
C332 C333 1.377 . S
C332 C337 1.377 . S
C333 C332 1.377 . S
C333 C334 1.395 . S
C333 H356 0.931 . S
C334 C333 1.395 . S
C334 C335 1.383 . S
C334 H357 0.931 . S
C335 C334 1.383 . S
C335 C336 1.394 . S
C336 C335 1.394 . S
C336 C337 1.378 . S
C336 H358 0.931 . S
C337 C332 1.377 . S
C337 C336 1.378 . S
C337 H359 0.931 . S
C338 O348 1.259 . S
C338 O349 1.270 . S
C339 O350 1.251 . S
C339 O351 1.251 . S
O340 C320 1.257 . S
O340 Eu321 2.473 . S
O341 C320 1.260 . S
O341 Eu321 2.480 . S
O342 Eu321 2.430 . S
O342 C328 1.259 . S
O343 Eu321 2.670 . S
O343 C328 1.270 . S
O343 Eu331 2.355 . S
O344 Eu321 2.394 . S
O344 C329 1.251 . S
O345 C329 1.251 . S
O345 Eu331 2.374 . S
O346 C330 1.257 . S
O346 Eu331 2.473 . S
O347 C330 1.260 . S
O347 Eu331 2.480 . S
O348 Eu331 2.430 . S
O348 C338 1.259 . S
O349 Eu321 2.355 . S
O349 Eu331 2.670 . S
O349 C338 1.270 . S
O350 Eu331 2.394 . S
O350 C339 1.251 . S
O351 Eu321 2.374 . S
O351 C339 1.251 . S
H352 C323 0.931 . S
H353 C324 0.931 . S
H354 C326 0.931 . S
H355 C327 0.931 . S
H356 C333 0.931 . S
H357 C334 0.931 . S
H358 C336 0.931 . S
H359 C337 0.931 . S
C360 Eu361 2.835 . S
C360 C362 1.500 . S
C360 O380 1.257 . S
C360 O381 1.260 . S
Eu361 C360 2.835 . S
Eu361 O380 2.473 . S
Eu361 O381 2.480 . S
Eu361 O382 2.430 . S
Eu361 O383 2.670 . S
Eu361 O384 2.394 . S
Eu361 O389 2.355 . S
Eu361 O391 2.374 . S
C362 C360 1.500 . S
C362 C363 1.377 . S
C362 C367 1.377 . S
C363 C362 1.377 . S
C363 C364 1.395 . S
C363 H392 0.931 . S
C364 C363 1.395 . S
C364 C365 1.383 . S
C364 H393 0.931 . S
C365 C364 1.383 . S
C365 C366 1.394 . S
C366 C365 1.394 . S
C366 C367 1.378 . S
C366 H394 0.931 . S
C367 C362 1.377 . S
C367 C366 1.378 . S
C367 H395 0.931 . S
C368 O382 1.259 . S
C368 O383 1.270 . S
C369 O384 1.251 . S
C369 O385 1.251 . S
C370 Eu371 2.835 . S
C370 C372 1.500 . S
C370 O386 1.257 . S
C370 O387 1.260 . S
Eu371 C370 2.835 . S
Eu371 O383 2.355 . S
Eu371 O385 2.374 . S
Eu371 O386 2.473 . S
Eu371 O387 2.480 . S
Eu371 O388 2.430 . S
Eu371 O389 2.670 . S
Eu371 O390 2.394 . S
C372 C370 1.500 . S
C372 C373 1.377 . S
C372 C377 1.377 . S
C373 C372 1.377 . S
C373 C374 1.395 . S
C373 H396 0.931 . S
C374 C373 1.395 . S
C374 C375 1.383 . S
C374 H397 0.931 . S
C375 C374 1.383 . S
C375 C376 1.394 . S
C376 C375 1.394 . S
C376 C377 1.378 . S
C376 H398 0.931 . S
C377 C372 1.377 . S
C377 C376 1.378 . S
C377 H399 0.931 . S
C378 O388 1.259 . S
C378 O389 1.270 . S
C379 O390 1.251 . S
C379 O391 1.251 . S
O380 C360 1.257 . S
O380 Eu361 2.473 . S
O381 C360 1.260 . S
O381 Eu361 2.480 . S
O382 Eu361 2.430 . S
O382 C368 1.259 . S
O383 Eu361 2.670 . S
O383 C368 1.270 . S
O383 Eu371 2.355 . S
O384 Eu361 2.394 . S
O384 C369 1.251 . S
O385 C369 1.251 . S
O385 Eu371 2.374 . S
O386 C370 1.257 . S
O386 Eu371 2.473 . S
O387 C370 1.260 . S
O387 Eu371 2.480 . S
O388 Eu371 2.430 . S
O388 C378 1.259 . S
O389 Eu361 2.355 . S
O389 Eu371 2.670 . S
O389 C378 1.270 . S
O390 Eu371 2.394 . S
O390 C379 1.251 . S
O391 Eu361 2.374 . S
O391 C379 1.251 . S
H392 C363 0.931 . S
H393 C364 0.931 . S
H394 C366 0.931 . S
H395 C367 0.931 . S
H396 C373 0.931 . S
H397 C374 0.931 . S
H398 C376 0.931 . S
H399 C377 0.931 . S
C400 Eu401 2.835 . S
C400 C402 1.500 . S
C400 O420 1.257 . S
C400 O421 1.260 . S
Eu401 C400 2.835 . S
Eu401 O420 2.473 . S
Eu401 O421 2.480 . S
Eu401 O422 2.430 . S
Eu401 O423 2.670 . S
Eu401 O424 2.394 . S
Eu401 O429 2.355 . S
Eu401 O431 2.374 . S
C402 C400 1.500 . S
C402 C403 1.377 . S
C402 C407 1.377 . S
C403 C402 1.377 . S
C403 C404 1.395 . S
C403 H432 0.931 . S
C404 C403 1.395 . S
C404 C405 1.383 . S
C404 H433 0.931 . S
C405 C404 1.383 . S
C405 C406 1.394 . S
C406 C405 1.394 . S
C406 C407 1.378 . S
C406 H434 0.931 . S
C407 C402 1.377 . S
C407 C406 1.378 . S
C407 H435 0.931 . S
C408 O422 1.259 . S
C408 O423 1.270 . S
C409 O424 1.251 . S
C409 O425 1.251 . S
C410 Eu411 2.835 . S
C410 C412 1.500 . S
C410 O426 1.257 . S
C410 O427 1.260 . S
Eu411 C410 2.835 . S
Eu411 O423 2.355 . S
Eu411 O425 2.374 . S
Eu411 O426 2.473 . S
Eu411 O427 2.480 . S
Eu411 O428 2.430 . S
Eu411 O429 2.670 . S
Eu411 O430 2.394 . S
C412 C410 1.500 . S
C412 C413 1.377 . S
C412 C417 1.377 . S
C413 C412 1.377 . S
C413 C414 1.395 . S
C413 H436 0.931 . S
C414 C413 1.395 . S
C414 C415 1.383 . S
C414 H437 0.931 . S
C415 C414 1.383 . S
C415 C416 1.394 . S
C416 C415 1.394 . S
C416 C417 1.378 . S
C416 H438 0.931 . S
C417 C412 1.377 . S
C417 C416 1.378 . S
C417 H439 0.931 . S
C418 O428 1.259 . S
C418 O429 1.270 . S
C419 O430 1.251 . S
C419 O431 1.251 . S
O420 C400 1.257 . S
O420 Eu401 2.473 . S
O421 C400 1.260 . S
O421 Eu401 2.480 . S
O422 Eu401 2.430 . S
O422 C408 1.259 . S
O423 Eu401 2.670 . S
O423 C408 1.270 . S
O423 Eu411 2.355 . S
O424 Eu401 2.394 . S
O424 C409 1.251 . S
O425 C409 1.251 . S
O425 Eu411 2.374 . S
O426 C410 1.257 . S
O426 Eu411 2.473 . S
O427 C410 1.260 . S
O427 Eu411 2.480 . S
O428 Eu411 2.430 . S
O428 C418 1.259 . S
O429 Eu401 2.355 . S
O429 Eu411 2.670 . S
O429 C418 1.270 . S
O430 Eu411 2.394 . S
O430 C419 1.251 . S
O431 Eu401 2.374 . S
O431 C419 1.251 . S
H432 C403 0.931 . S
H433 C404 0.931 . S
H434 C406 0.931 . S
H435 C407 0.931 . S
H436 C413 0.931 . S
H437 C414 0.931 . S
H438 C416 0.931 . S
H439 C417 0.931 . S
C440 Eu441 2.835 . S
C440 C442 1.500 . S
C440 O460 1.257 . S
C440 O461 1.260 . S
Eu441 C440 2.835 . S
Eu441 O460 2.473 . S
Eu441 O461 2.480 . S
Eu441 O462 2.430 . S
Eu441 O463 2.670 . S
Eu441 O464 2.394 . S
Eu441 O469 2.355 . S
Eu441 O471 2.374 . S
C442 C440 1.500 . S
C442 C443 1.377 . S
C442 C447 1.377 . S
C443 C442 1.377 . S
C443 C444 1.395 . S
C443 H472 0.931 . S
C444 C443 1.395 . S
C444 C445 1.383 . S
C444 H473 0.931 . S
C445 C444 1.383 . S
C445 C446 1.394 . S
C446 C445 1.394 . S
C446 C447 1.378 . S
C446 H474 0.931 . S
C447 C442 1.377 . S
C447 C446 1.378 . S
C447 H475 0.931 . S
C448 O462 1.259 . S
C448 O463 1.270 . S
C449 O464 1.251 . S
C449 O465 1.251 . S
C450 Eu451 2.835 . S
C450 C452 1.500 . S
C450 O466 1.257 . S
C450 O467 1.260 . S
Eu451 C450 2.835 . S
Eu451 O463 2.355 . S
Eu451 O465 2.374 . S
Eu451 O466 2.473 . S
Eu451 O467 2.480 . S
Eu451 O468 2.430 . S
Eu451 O469 2.670 . S
Eu451 O470 2.394 . S
C452 C450 1.500 . S
C452 C453 1.377 . S
C452 C457 1.377 . S
C453 C452 1.377 . S
C453 C454 1.395 . S
C453 H476 0.931 . S
C454 C453 1.395 . S
C454 C455 1.383 . S
C454 H477 0.931 . S
C455 C454 1.383 . S
C455 C456 1.394 . S
C456 C455 1.394 . S
C456 C457 1.378 . S
C456 H478 0.931 . S
C457 C452 1.377 . S
C457 C456 1.378 . S
C457 H479 0.931 . S
C458 O468 1.259 . S
C458 O469 1.270 . S
C459 O470 1.251 . S
C459 O471 1.251 . S
O460 C440 1.257 . S
O460 Eu441 2.473 . S
O461 C440 1.260 . S
O461 Eu441 2.480 . S
O462 Eu441 2.430 . S
O462 C448 1.259 . S
O463 Eu441 2.670 . S
O463 C448 1.270 . S
O463 Eu451 2.355 . S
O464 Eu441 2.394 . S
O464 C449 1.251 . S
O465 C449 1.251 . S
O465 Eu451 2.374 . S
O466 C450 1.257 . S
O466 Eu451 2.473 . S
O467 C450 1.260 . S
O467 Eu451 2.480 . S
O468 Eu451 2.430 . S
O468 C458 1.259 . S
O469 Eu441 2.355 . S
O469 Eu451 2.670 . S
O469 C458 1.270 . S
O470 Eu451 2.394 . S
O470 C459 1.251 . S
O471 Eu441 2.374 . S
O471 C459 1.251 . S
H472 C443 0.931 . S
H473 C444 0.931 . S
H474 C446 0.931 . S
H475 C447 0.931 . S
H476 C453 0.931 . S
H477 C454 0.931 . S
H478 C456 0.931 . S
H479 C457 0.931 . S
C480 Eu481 2.835 . S
C480 C482 1.500 . S
C480 O500 1.257 . S
C480 O501 1.260 . S
Eu481 C480 2.835 . S
Eu481 O500 2.473 . S
Eu481 O501 2.480 . S
Eu481 O502 2.430 . S
Eu481 O503 2.670 . S
Eu481 O504 2.394 . S
Eu481 O509 2.355 . S
Eu481 O511 2.374 . S
C482 C480 1.500 . S
C482 C483 1.377 . S
C482 C487 1.377 . S
C483 C482 1.377 . S
C483 C484 1.395 . S
C483 H512 0.931 . S
C484 C483 1.395 . S
C484 C485 1.383 . S
C484 H513 0.931 . S
C485 C484 1.383 . S
C485 C486 1.394 . S
C486 C485 1.394 . S
C486 C487 1.378 . S
C486 H514 0.931 . S
C487 C482 1.377 . S
C487 C486 1.378 . S
C487 H515 0.931 . S
C488 O502 1.259 . S
C488 O503 1.270 . S
C489 O504 1.251 . S
C489 O505 1.251 . S
C490 Eu491 2.835 . S
C490 C492 1.500 . S
C490 O506 1.257 . S
C490 O507 1.260 . S
Eu491 C490 2.835 . S
Eu491 O503 2.355 . S
Eu491 O505 2.374 . S
Eu491 O506 2.473 . S
Eu491 O507 2.480 . S
Eu491 O508 2.430 . S
Eu491 O509 2.670 . S
Eu491 O510 2.394 . S
C492 C490 1.500 . S
C492 C493 1.377 . S
C492 C497 1.377 . S
C493 C492 1.377 . S
C493 C494 1.395 . S
C493 H516 0.931 . S
C494 C493 1.395 . S
C494 C495 1.383 . S
C494 H517 0.931 . S
C495 C494 1.383 . S
C495 C496 1.394 . S
C496 C495 1.394 . S
C496 C497 1.378 . S
C496 H518 0.931 . S
C497 C492 1.377 . S
C497 C496 1.378 . S
C497 H519 0.931 . S
C498 O508 1.259 . S
C498 O509 1.270 . S
C499 O510 1.251 . S
C499 O511 1.251 . S
O500 C480 1.257 . S
O500 Eu481 2.473 . S
O501 C480 1.260 . S
O501 Eu481 2.480 . S
O502 Eu481 2.430 . S
O502 C488 1.259 . S
O503 Eu481 2.670 . S
O503 C488 1.270 . S
O503 Eu491 2.355 . S
O504 Eu481 2.394 . S
O504 C489 1.251 . S
O505 C489 1.251 . S
O505 Eu491 2.374 . S
O506 C490 1.257 . S
O506 Eu491 2.473 . S
O507 C490 1.260 . S
O507 Eu491 2.480 . S
O508 Eu491 2.430 . S
O508 C498 1.259 . S
O509 Eu481 2.355 . S
O509 Eu491 2.670 . S
O509 C498 1.270 . S
O510 Eu491 2.394 . S
O510 C499 1.251 . S
O511 Eu481 2.374 . S
O511 C499 1.251 . S
H512 C483 0.931 . S
H513 C484 0.931 . S
H514 C486 0.931 . S
H515 C487 0.931 . S
H516 C493 0.931 . S
H517 C494 0.931 . S
H518 C496 0.931 . S
H519 C497 0.931 . S
C520 Eu521 2.835 . S
C520 C522 1.500 . S
C520 O540 1.257 . S
C520 O541 1.260 . S
Eu521 C520 2.835 . S
Eu521 O540 2.473 . S
Eu521 O541 2.480 . S
Eu521 O542 2.430 . S
Eu521 O543 2.670 . S
Eu521 O544 2.394 . S
Eu521 O549 2.355 . S
Eu521 O551 2.374 . S
C522 C520 1.500 . S
C522 C523 1.377 . S
C522 C527 1.377 . S
C523 C522 1.377 . S
C523 C524 1.395 . S
C523 H552 0.931 . S
C524 C523 1.395 . S
C524 C525 1.383 . S
C524 H553 0.931 . S
C525 C524 1.383 . S
C525 C526 1.394 . S
C526 C525 1.394 . S
C526 C527 1.378 . S
C526 H554 0.931 . S
C527 C522 1.377 . S
C527 C526 1.378 . S
C527 H555 0.931 . S
C528 O542 1.259 . S
C528 O543 1.270 . S
C529 O544 1.251 . S
C529 O545 1.251 . S
C530 Eu531 2.835 . S
C530 C532 1.500 . S
C530 O546 1.257 . S
C530 O547 1.260 . S
Eu531 C530 2.835 . S
Eu531 O543 2.355 . S
Eu531 O545 2.374 . S
Eu531 O546 2.473 . S
Eu531 O547 2.480 . S
Eu531 O548 2.430 . S
Eu531 O549 2.670 . S
Eu531 O550 2.394 . S
C532 C530 1.500 . S
C532 C533 1.377 . S
C532 C537 1.377 . S
C533 C532 1.377 . S
C533 C534 1.395 . S
C533 H556 0.931 . S
C534 C533 1.395 . S
C534 C535 1.383 . S
C534 H557 0.931 . S
C535 C534 1.383 . S
C535 C536 1.394 . S
C536 C535 1.394 . S
C536 C537 1.378 . S
C536 H558 0.931 . S
C537 C532 1.377 . S
C537 C536 1.378 . S
C537 H559 0.931 . S
C538 O548 1.259 . S
C538 O549 1.270 . S
C539 O550 1.251 . S
C539 O551 1.251 . S
O540 C520 1.257 . S
O540 Eu521 2.473 . S
O541 C520 1.260 . S
O541 Eu521 2.480 . S
O542 Eu521 2.430 . S
O542 C528 1.259 . S
O543 Eu521 2.670 . S
O543 C528 1.270 . S
O543 Eu531 2.355 . S
O544 Eu521 2.394 . S
O544 C529 1.251 . S
O545 C529 1.251 . S
O545 Eu531 2.374 . S
O546 C530 1.257 . S
O546 Eu531 2.473 . S
O547 C530 1.260 . S
O547 Eu531 2.480 . S
O548 Eu531 2.430 . S
O548 C538 1.259 . S
O549 Eu521 2.355 . S
O549 Eu531 2.670 . S
O549 C538 1.270 . S
O550 Eu531 2.394 . S
O550 C539 1.251 . S
O551 Eu521 2.374 . S
O551 C539 1.251 . S
H552 C523 0.931 . S
H553 C524 0.931 . S
H554 C526 0.931 . S
H555 C527 0.931 . S
H556 C533 0.931 . S
H557 C534 0.931 . S
H558 C536 0.931 . S
H559 C537 0.931 . S
C560 Eu561 2.835 . S
C560 C562 1.500 . S
C560 O580 1.257 . S
C560 O581 1.260 . S
Eu561 C560 2.835 . S
Eu561 O580 2.473 . S
Eu561 O581 2.480 . S
Eu561 O582 2.430 . S
Eu561 O583 2.670 . S
Eu561 O584 2.394 . S
Eu561 O589 2.355 . S
Eu561 O591 2.374 . S
C562 C560 1.500 . S
C562 C563 1.377 . S
C562 C567 1.377 . S
C563 C562 1.377 . S
C563 C564 1.395 . S
C563 H592 0.931 . S
C564 C563 1.395 . S
C564 C565 1.383 . S
C564 H593 0.931 . S
C565 C564 1.383 . S
C565 C566 1.394 . S
C566 C565 1.394 . S
C566 C567 1.378 . S
C566 H594 0.931 . S
C567 C562 1.377 . S
C567 C566 1.378 . S
C567 H595 0.931 . S
C568 O582 1.259 . S
C568 O583 1.270 . S
C569 O584 1.251 . S
C569 O585 1.251 . S
C570 Eu571 2.835 . S
C570 C572 1.500 . S
C570 O586 1.257 . S
C570 O587 1.260 . S
Eu571 C570 2.835 . S
Eu571 O583 2.355 . S
Eu571 O585 2.374 . S
Eu571 O586 2.473 . S
Eu571 O587 2.480 . S
Eu571 O588 2.430 . S
Eu571 O589 2.670 . S
Eu571 O590 2.394 . S
C572 C570 1.500 . S
C572 C573 1.377 . S
C572 C577 1.377 . S
C573 C572 1.377 . S
C573 C574 1.395 . S
C573 H596 0.931 . S
C574 C573 1.395 . S
C574 C575 1.383 . S
C574 H597 0.931 . S
C575 C574 1.383 . S
C575 C576 1.394 . S
C576 C575 1.394 . S
C576 C577 1.378 . S
C576 H598 0.931 . S
C577 C572 1.377 . S
C577 C576 1.378 . S
C577 H599 0.931 . S
C578 O588 1.259 . S
C578 O589 1.270 . S
C579 O590 1.251 . S
C579 O591 1.251 . S
O580 C560 1.257 . S
O580 Eu561 2.473 . S
O581 C560 1.260 . S
O581 Eu561 2.480 . S
O582 Eu561 2.430 . S
O582 C568 1.259 . S
O583 Eu561 2.670 . S
O583 C568 1.270 . S
O583 Eu571 2.355 . S
O584 Eu561 2.394 . S
O584 C569 1.251 . S
O585 C569 1.251 . S
O585 Eu571 2.374 . S
O586 C570 1.257 . S
O586 Eu571 2.473 . S
O587 C570 1.260 . S
O587 Eu571 2.480 . S
O588 Eu571 2.430 . S
O588 C578 1.259 . S
O589 Eu561 2.355 . S
O589 Eu571 2.670 . S
O589 C578 1.270 . S
O590 Eu571 2.394 . S
O590 C579 1.251 . S
O591 Eu561 2.374 . S
O591 C579 1.251 . S
H592 C563 0.931 . S
H593 C564 0.931 . S
H594 C566 0.931 . S
H595 C567 0.931 . S
H596 C573 0.931 . S
H597 C574 0.931 . S
H598 C576 0.931 . S
H599 C577 0.931 . S
C600 Eu601 2.835 . S
C600 C602 1.500 . S
C600 O620 1.257 . S
C600 O621 1.260 . S
Eu601 C600 2.835 . S
Eu601 O620 2.473 . S
Eu601 O621 2.480 . S
Eu601 O622 2.430 . S
Eu601 O623 2.670 . S
Eu601 O624 2.394 . S
Eu601 O629 2.355 . S
Eu601 O631 2.374 . S
C602 C600 1.500 . S
C602 C603 1.377 . S
C602 C607 1.377 . S
C603 C602 1.377 . S
C603 C604 1.395 . S
C603 H632 0.931 . S
C604 C603 1.395 . S
C604 C605 1.383 . S
C604 H633 0.931 . S
C605 C604 1.383 . S
C605 C606 1.394 . S
C606 C605 1.394 . S
C606 C607 1.378 . S
C606 H634 0.931 . S
C607 C602 1.377 . S
C607 C606 1.378 . S
C607 H635 0.931 . S
C608 O622 1.259 . S
C608 O623 1.270 . S
C609 O624 1.251 . S
C609 O625 1.251 . S
C610 Eu611 2.835 . S
C610 C612 1.500 . S
C610 O626 1.257 . S
C610 O627 1.260 . S
Eu611 C610 2.835 . S
Eu611 O623 2.355 . S
Eu611 O625 2.374 . S
Eu611 O626 2.473 . S
Eu611 O627 2.480 . S
Eu611 O628 2.430 . S
Eu611 O629 2.670 . S
Eu611 O630 2.394 . S
C612 C610 1.500 . S
C612 C613 1.377 . S
C612 C617 1.377 . S
C613 C612 1.377 . S
C613 C614 1.395 . S
C613 H636 0.931 . S
C614 C613 1.395 . S
C614 C615 1.383 . S
C614 H637 0.931 . S
C615 C614 1.383 . S
C615 C616 1.394 . S
C616 C615 1.394 . S
C616 C617 1.378 . S
C616 H638 0.931 1_655 S
C617 C612 1.377 . S
C617 C616 1.378 . S
C617 H639 0.931 . S
C618 O628 1.259 . S
C618 O629 1.270 . S
C619 O630 1.251 . S
C619 O631 1.251 . S
O620 C600 1.257 . S
O620 Eu601 2.473 . S
O621 C600 1.260 . S
O621 Eu601 2.480 . S
O622 Eu601 2.430 . S
O622 C608 1.259 . S
O623 Eu601 2.670 . S
O623 C608 1.270 . S
O623 Eu611 2.355 . S
O624 Eu601 2.394 . S
O624 C609 1.251 . S
O625 C609 1.251 . S
O625 Eu611 2.374 . S
O626 C610 1.257 . S
O626 Eu611 2.473 . S
O627 C610 1.260 . S
O627 Eu611 2.480 . S
O628 Eu611 2.430 . S
O628 C618 1.259 . S
O629 Eu601 2.355 . S
O629 Eu611 2.670 . S
O629 C618 1.270 . S
O630 Eu611 2.394 . S
O630 C619 1.251 . S
O631 Eu601 2.374 . S
O631 C619 1.251 . S
H632 C603 0.931 . S
H633 C604 0.931 . S
H634 C606 0.931 . S
H635 C607 0.931 . S
H636 C613 0.931 . S
H637 C614 0.931 . S
H638 C616 0.931 1_455 S
H639 C617 0.931 . S
C640 Eu641 2.835 . S
C640 C642 1.500 . S
C640 O660 1.257 . S
C640 O661 1.260 . S
Eu641 C640 2.835 . S
Eu641 O660 2.473 . S
Eu641 O661 2.480 . S
Eu641 O662 2.430 . S
Eu641 O663 2.670 . S
Eu641 O664 2.394 . S
Eu641 O669 2.355 . S
Eu641 O671 2.374 . S
C642 C640 1.500 . S
C642 C643 1.377 . S
C642 C647 1.377 . S
C643 C642 1.377 . S
C643 C644 1.395 . S
C643 H672 0.931 . S
C644 C643 1.395 . S
C644 C645 1.383 . S
C644 H673 0.931 . S
C645 C644 1.383 . S
C645 C646 1.394 . S
C646 C645 1.394 . S
C646 C647 1.378 . S
C646 H674 0.931 . S
C647 C642 1.377 . S
C647 C646 1.378 . S
C647 H675 0.931 . S
C648 O662 1.259 . S
C648 O663 1.270 . S
C649 O664 1.251 . S
C649 O665 1.251 . S
C650 Eu651 2.835 . S
C650 C652 1.500 . S
C650 O666 1.257 . S
C650 O667 1.260 . S
Eu651 C650 2.835 . S
Eu651 O663 2.355 . S
Eu651 O665 2.374 . S
Eu651 O666 2.473 . S
Eu651 O667 2.480 . S
Eu651 O668 2.430 . S
Eu651 O669 2.670 . S
Eu651 O670 2.394 . S
C652 C650 1.500 . S
C652 C653 1.377 . S
C652 C657 1.377 . S
C653 C652 1.377 . S
C653 C654 1.395 . S
C653 H676 0.931 . S
C654 C653 1.395 . S
C654 C655 1.383 . S
C654 H677 0.931 . S
C655 C654 1.383 . S
C655 C656 1.394 . S
C656 C655 1.394 . S
C656 C657 1.378 . S
C656 H678 0.931 . S
C657 C652 1.377 . S
C657 C656 1.378 . S
C657 H679 0.931 . S
C658 O668 1.259 . S
C658 O669 1.270 . S
C659 O670 1.251 . S
C659 O671 1.251 . S
O660 C640 1.257 . S
O660 Eu641 2.473 . S
O661 C640 1.260 . S
O661 Eu641 2.480 . S
O662 Eu641 2.430 . S
O662 C648 1.259 . S
O663 Eu641 2.670 . S
O663 C648 1.270 . S
O663 Eu651 2.355 . S
O664 Eu641 2.394 . S
O664 C649 1.251 . S
O665 C649 1.251 . S
O665 Eu651 2.374 . S
O666 C650 1.257 . S
O666 Eu651 2.473 . S
O667 C650 1.260 . S
O667 Eu651 2.480 . S
O668 Eu651 2.430 . S
O668 C658 1.259 . S
O669 Eu641 2.355 . S
O669 Eu651 2.670 . S
O669 C658 1.270 . S
O670 Eu651 2.394 . S
O670 C659 1.251 . S
O671 Eu641 2.374 . S
O671 C659 1.251 . S
H672 C643 0.931 . S
H673 C644 0.931 . S
H674 C646 0.931 . S
H675 C647 0.931 . S
H676 C653 0.931 . S
H677 C654 0.931 . S
H678 C656 0.931 . S
H679 C657 0.931 . S
C680 Eu681 2.835 . S
C680 C682 1.500 . S
C680 O700 1.257 . S
C680 O701 1.260 . S
Eu681 C680 2.835 . S
Eu681 O700 2.473 . S
Eu681 O701 2.480 . S
Eu681 O702 2.430 . S
Eu681 O703 2.670 . S
Eu681 O704 2.394 . S
Eu681 O709 2.355 . S
Eu681 O711 2.374 . S
C682 C680 1.500 . S
C682 C683 1.377 . S
C682 C687 1.377 . S
C683 C682 1.377 . S
C683 C684 1.395 . S
C683 H712 0.931 . S
C684 C683 1.395 . S
C684 C685 1.383 . S
C684 H713 0.931 . S
C685 C684 1.383 . S
C685 C686 1.394 . S
C686 C685 1.394 . S
C686 C687 1.378 . S
C686 H714 0.931 . S
C687 C682 1.377 . S
C687 C686 1.378 . S
C687 H715 0.931 . S
C688 O702 1.259 . S
C688 O703 1.270 . S
C689 O704 1.251 . S
C689 O705 1.251 . S
C690 Eu691 2.835 . S
C690 C692 1.500 . S
C690 O706 1.257 . S
C690 O707 1.260 . S
Eu691 C690 2.835 . S
Eu691 O703 2.355 . S
Eu691 O705 2.374 . S
Eu691 O706 2.473 . S
Eu691 O707 2.480 . S
Eu691 O708 2.430 . S
Eu691 O709 2.670 . S
Eu691 O710 2.394 . S
C692 C690 1.500 . S
C692 C693 1.377 . S
C692 C697 1.377 . S
C693 C692 1.377 . S
C693 C694 1.395 . S
C693 H716 0.931 . S
C694 C693 1.395 . S
C694 C695 1.383 . S
C694 H717 0.931 . S
C695 C694 1.383 . S
C695 C696 1.394 . S
C696 C695 1.394 . S
C696 C697 1.378 . S
C696 H718 0.931 1_545 S
C697 C692 1.377 . S
C697 C696 1.378 . S
C697 H719 0.931 . S
C698 O708 1.259 . S
C698 O709 1.270 . S
C699 O710 1.251 . S
C699 O711 1.251 . S
O700 C680 1.257 . S
O700 Eu681 2.473 . S
O701 C680 1.260 . S
O701 Eu681 2.480 . S
O702 Eu681 2.430 . S
O702 C688 1.259 . S
O703 Eu681 2.670 . S
O703 C688 1.270 . S
O703 Eu691 2.355 . S
O704 Eu681 2.394 . S
O704 C689 1.251 . S
O705 C689 1.251 . S
O705 Eu691 2.374 . S
O706 C690 1.257 . S
O706 Eu691 2.473 . S
O707 C690 1.260 . S
O707 Eu691 2.480 . S
O708 Eu691 2.430 . S
O708 C698 1.259 . S
O709 Eu681 2.355 . S
O709 Eu691 2.670 . S
O709 C698 1.270 . S
O710 Eu691 2.394 . S
O710 C699 1.251 . S
O711 Eu681 2.374 . S
O711 C699 1.251 . S
H712 C683 0.931 . S
H713 C684 0.931 . S
H714 C686 0.931 . S
H715 C687 0.931 . S
H716 C693 0.931 . S
H717 C694 0.931 . S
H718 C696 0.931 1_565 S
H719 C697 0.931 . S
C720 Eu721 2.835 . S
C720 C722 1.500 . S
C720 O740 1.257 . S
C720 O741 1.260 . S
Eu721 C720 2.835 . S
Eu721 O740 2.473 . S
Eu721 O741 2.480 . S
Eu721 O742 2.430 . S
Eu721 O743 2.670 . S
Eu721 O744 2.394 . S
Eu721 O749 2.355 . S
Eu721 O751 2.374 . S
C722 C720 1.500 . S
C722 C723 1.377 . S
C722 C727 1.377 . S
C723 C722 1.377 . S
C723 C724 1.395 . S
C723 H752 0.931 . S
C724 C723 1.395 . S
C724 C725 1.383 . S
C724 H753 0.931 . S
C725 C724 1.383 . S
C725 C726 1.394 . S
C726 C725 1.394 . S
C726 C727 1.378 . S
C726 H754 0.931 1_545 S
C727 C722 1.377 . S
C727 C726 1.378 . S
C727 H755 0.931 . S
C728 O742 1.259 . S
C728 O743 1.270 . S
C729 O744 1.251 . S
C729 O745 1.251 . S
C730 Eu731 2.835 . S
C730 C732 1.500 . S
C730 O746 1.257 . S
C730 O747 1.260 . S
Eu731 C730 2.835 . S
Eu731 O743 2.355 . S
Eu731 O745 2.374 . S
Eu731 O746 2.473 . S
Eu731 O747 2.480 . S
Eu731 O748 2.430 . S
Eu731 O749 2.670 . S
Eu731 O750 2.394 . S
C732 C730 1.500 . S
C732 C733 1.377 . S
C732 C737 1.377 . S
C733 C732 1.377 . S
C733 C734 1.395 . S
C733 H756 0.931 . S
C734 C733 1.395 . S
C734 C735 1.383 . S
C734 H757 0.931 . S
C735 C734 1.383 . S
C735 C736 1.394 . S
C736 C735 1.394 . S
C736 C737 1.378 . S
C736 H758 0.931 . S
C737 C732 1.377 . S
C737 C736 1.378 . S
C737 H759 0.931 . S
C738 O748 1.259 . S
C738 O749 1.270 . S
C739 O750 1.251 . S
C739 O751 1.251 . S
O740 C720 1.257 . S
O740 Eu721 2.473 . S
O741 C720 1.260 . S
O741 Eu721 2.480 . S
O742 Eu721 2.430 . S
O742 C728 1.259 . S
O743 Eu721 2.670 . S
O743 C728 1.270 . S
O743 Eu731 2.355 . S
O744 Eu721 2.394 . S
O744 C729 1.251 . S
O745 C729 1.251 . S
O745 Eu731 2.374 . S
O746 C730 1.257 . S
O746 Eu731 2.473 . S
O747 C730 1.260 . S
O747 Eu731 2.480 . S
O748 Eu731 2.430 . S
O748 C738 1.259 . S
O749 Eu721 2.355 . S
O749 Eu731 2.670 . S
O749 C738 1.270 . S
O750 Eu731 2.394 . S
O750 C739 1.251 . S
O751 Eu721 2.374 . S
O751 C739 1.251 . S
H752 C723 0.931 . S
H753 C724 0.931 . S
H754 C726 0.931 1_565 S
H755 C727 0.931 . S
H756 C733 0.931 . S
H757 C734 0.931 . S
H758 C736 0.931 . S
H759 C737 0.931 . S
C760 Eu761 2.835 . S
C760 C762 1.500 . S
C760 O780 1.257 . S
C760 O781 1.260 . S
Eu761 C760 2.835 . S
Eu761 O780 2.473 . S
Eu761 O781 2.480 . S
Eu761 O782 2.430 . S
Eu761 O783 2.670 . S
Eu761 O784 2.394 . S
Eu761 O789 2.355 . S
Eu761 O791 2.374 . S
C762 C760 1.500 . S
C762 C763 1.377 . S
C762 C767 1.377 . S
C763 C762 1.377 . S
C763 C764 1.395 . S
C763 H792 0.931 . S
C764 C763 1.395 . S
C764 C765 1.383 . S
C764 H793 0.931 . S
C765 C764 1.383 . S
C765 C766 1.394 . S
C766 C765 1.394 . S
C766 C767 1.378 . S
C766 H794 0.931 1_655 S
C767 C762 1.377 . S
C767 C766 1.378 . S
C767 H795 0.931 . S
C768 O782 1.259 . S
C768 O783 1.270 . S
C769 O784 1.251 . S
C769 O785 1.251 . S
C770 Eu771 2.835 . S
C770 C772 1.500 . S
C770 O786 1.257 . S
C770 O787 1.260 . S
Eu771 C770 2.835 . S
Eu771 O783 2.355 . S
Eu771 O785 2.374 . S
Eu771 O786 2.473 . S
Eu771 O787 2.480 . S
Eu771 O788 2.430 . S
Eu771 O789 2.670 . S
Eu771 O790 2.394 . S
C772 C770 1.500 . S
C772 C773 1.377 . S
C772 C777 1.377 . S
C773 C772 1.377 . S
C773 C774 1.395 . S
C773 H796 0.931 . S
C774 C773 1.395 . S
C774 C775 1.383 . S
C774 H797 0.931 . S
C775 C774 1.383 . S
C775 C776 1.394 . S
C776 C775 1.394 . S
C776 C777 1.378 . S
C776 H798 0.931 . S
C777 C772 1.377 . S
C777 C776 1.378 . S
C777 H799 0.931 . S
C778 O788 1.259 . S
C778 O789 1.270 . S
C779 O790 1.251 . S
C779 O791 1.251 . S
O780 C760 1.257 . S
O780 Eu761 2.473 . S
O781 C760 1.260 . S
O781 Eu761 2.480 . S
O782 Eu761 2.430 . S
O782 C768 1.259 . S
O783 Eu761 2.670 . S
O783 C768 1.270 . S
O783 Eu771 2.355 . S
O784 Eu761 2.394 . S
O784 C769 1.251 . S
O785 C769 1.251 . S
O785 Eu771 2.374 . S
O786 C770 1.257 . S
O786 Eu771 2.473 . S
O787 C770 1.260 . S
O787 Eu771 2.480 . S
O788 Eu771 2.430 . S
O788 C778 1.259 . S
O789 Eu761 2.355 . S
O789 Eu771 2.670 . S
O789 C778 1.270 . S
O790 Eu771 2.394 . S
O790 C779 1.251 . S
O791 Eu761 2.374 . S
O791 C779 1.251 . S
H792 C763 0.931 . S
H793 C764 0.931 . S
H794 C766 0.931 1_455 S
H795 C767 0.931 . S
H796 C773 0.931 . S
H797 C774 0.931 . S
H798 C776 0.931 . S
H799 C777 0.931 . S
C800 Eu801 2.835 . S
C800 C802 1.500 . S
C800 O820 1.257 . S
C800 O821 1.260 . S
Eu801 C800 2.835 . S
Eu801 O820 2.473 . S
Eu801 O821 2.480 . S
Eu801 O822 2.430 . S
Eu801 O823 2.670 . S
Eu801 O824 2.394 . S
Eu801 O829 2.355 . S
Eu801 O831 2.374 . S
C802 C800 1.500 . S
C802 C803 1.377 . S
C802 C807 1.377 . S
C803 C802 1.377 . S
C803 C804 1.395 . S
C803 H832 0.931 . S
C804 C803 1.395 . S
C804 C805 1.383 . S
C804 H833 0.931 . S
C805 C804 1.383 . S
C805 C806 1.394 . S
C806 C805 1.394 . S
C806 C807 1.378 . S
C806 H834 0.931 . S
C807 C802 1.377 . S
C807 C806 1.378 . S
C807 H835 0.931 . S
C808 O822 1.259 . S
C808 O823 1.270 . S
C809 O824 1.251 . S
C809 O825 1.251 . S
C810 Eu811 2.835 . S
C810 C812 1.500 . S
C810 O826 1.257 . S
C810 O827 1.260 . S
Eu811 C810 2.835 . S
Eu811 O823 2.355 . S
Eu811 O825 2.374 . S
Eu811 O826 2.473 . S
Eu811 O827 2.480 . S
Eu811 O828 2.430 . S
Eu811 O829 2.670 . S
Eu811 O830 2.394 . S
C812 C810 1.500 . S
C812 C813 1.377 . S
C812 C817 1.377 . S
C813 C812 1.377 . S
C813 C814 1.395 . S
C813 H836 0.931 . S
C814 C813 1.395 . S
C814 C815 1.383 . S
C814 H837 0.931 . S
C815 C814 1.383 . S
C815 C816 1.394 . S
C816 C815 1.394 . S
C816 C817 1.378 . S
C816 H838 0.931 . S
C817 C812 1.377 . S
C817 C816 1.378 . S
C817 H839 0.931 . S
C818 O828 1.259 . S
C818 O829 1.270 . S
C819 O830 1.251 . S
C819 O831 1.251 . S
O820 C800 1.257 . S
O820 Eu801 2.473 . S
O821 C800 1.260 . S
O821 Eu801 2.480 . S
O822 Eu801 2.430 . S
O822 C808 1.259 . S
O823 Eu801 2.670 . S
O823 C808 1.270 . S
O823 Eu811 2.355 . S
O824 Eu801 2.394 . S
O824 C809 1.251 . S
O825 C809 1.251 . S
O825 Eu811 2.374 . S
O826 C810 1.257 . S
O826 Eu811 2.473 . S
O827 C810 1.260 . S
O827 Eu811 2.480 . S
O828 Eu811 2.430 . S
O828 C818 1.259 . S
O829 Eu801 2.355 . S
O829 Eu811 2.670 . S
O829 C818 1.270 . S
O830 Eu811 2.394 . S
O830 C819 1.251 . S
O831 Eu801 2.374 . S
O831 C819 1.251 . S
H832 C803 0.931 . S
H833 C804 0.931 . S
H834 C806 0.931 . S
H835 C807 0.931 . S
H836 C813 0.931 . S
H837 C814 0.931 . S
H838 C816 0.931 . S
H839 C817 0.931 . S
C840 Eu841 2.835 . S
C840 C842 1.500 . S
C840 O860 1.257 . S
C840 O861 1.260 . S
Eu841 C840 2.835 . S
Eu841 O860 2.473 . S
Eu841 O861 2.480 . S
Eu841 O862 2.430 . S
Eu841 O863 2.670 1_556 S
Eu841 O864 2.394 . S
Eu841 O869 2.355 . S
Eu841 O871 2.374 . S
C842 C840 1.500 . S
C842 C843 1.377 . S
C842 C847 1.377 . S
C843 C842 1.377 . S
C843 C844 1.395 . S
C843 H872 0.931 . S
C844 C843 1.395 . S
C844 C845 1.383 . S
C844 H873 0.931 . S
C845 C844 1.383 . S
C845 C846 1.394 . S
C846 C845 1.394 . S
C846 C847 1.378 . S
C846 H874 0.931 . S
C847 C842 1.377 . S
C847 C846 1.378 . S
C847 H875 0.931 . S
C848 O862 1.259 . S
C848 O863 1.270 1_556 S
C849 O864 1.251 . S
C849 O865 1.251 1_556 S
C850 Eu851 2.835 . S
C850 C852 1.500 . S
C850 O866 1.257 . S
C850 O867 1.260 . S
Eu851 C850 2.835 . S
Eu851 O863 2.355 . S
Eu851 O865 2.374 . S
Eu851 O866 2.473 . S
Eu851 O867 2.480 . S
Eu851 O868 2.430 . S
Eu851 O869 2.670 1_554 S
Eu851 O870 2.394 . S
C852 C850 1.500 . S
C852 C853 1.377 . S
C852 C857 1.377 . S
C853 C852 1.377 . S
C853 C854 1.395 . S
C853 H876 0.931 . S
C854 C853 1.395 . S
C854 C855 1.383 . S
C854 H877 0.931 . S
C855 C854 1.383 . S
C855 C856 1.394 . S
C856 C855 1.394 . S
C856 C857 1.378 . S
C856 H878 0.931 . S
C857 C852 1.377 . S
C857 C856 1.378 . S
C857 H879 0.931 . S
C858 O868 1.259 . S
C858 O869 1.270 1_554 S
C859 O870 1.251 . S
C859 O871 1.251 1_554 S
O860 C840 1.257 . S
O860 Eu841 2.473 . S
O861 C840 1.260 . S
O861 Eu841 2.480 . S
O862 Eu841 2.430 . S
O862 C848 1.259 . S
O863 Eu841 2.670 1_554 S
O863 C848 1.270 1_554 S
O863 Eu851 2.355 . S
O864 Eu841 2.394 . S
O864 C849 1.251 . S
O865 C849 1.251 1_554 S
O865 Eu851 2.374 . S
O866 C850 1.257 . S
O866 Eu851 2.473 . S
O867 C850 1.260 . S
O867 Eu851 2.480 . S
O868 Eu851 2.430 . S
O868 C858 1.259 . S
O869 Eu841 2.355 . S
O869 Eu851 2.670 1_556 S
O869 C858 1.270 1_556 S
O870 Eu851 2.394 . S
O870 C859 1.251 . S
O871 Eu841 2.374 . S
O871 C859 1.251 1_556 S
H872 C843 0.931 . S
H873 C844 0.931 . S
H874 C846 0.931 . S
H875 C847 0.931 . S
H876 C853 0.931 . S
H877 C854 0.931 . S
H878 C856 0.931 . S
H879 C857 0.931 . S
C880 Eu881 2.835 . S
C880 C882 1.500 . S
C880 O900 1.257 . S
C880 O901 1.260 . S
Eu881 C880 2.835 . S
Eu881 O900 2.473 . S
Eu881 O901 2.480 . S
Eu881 O902 2.430 . S
Eu881 O903 2.670 1_556 S
Eu881 O904 2.394 . S
Eu881 O909 2.355 . S
Eu881 O911 2.374 . S
C882 C880 1.500 . S
C882 C883 1.377 . S
C882 C887 1.377 . S
C883 C882 1.377 . S
C883 C884 1.395 . S
C883 H912 0.931 . S
C884 C883 1.395 . S
C884 C885 1.383 . S
C884 H913 0.931 . S
C885 C884 1.383 . S
C885 C886 1.394 . S
C886 C885 1.394 . S
C886 C887 1.378 . S
C886 H914 0.931 . S
C887 C882 1.377 . S
C887 C886 1.378 . S
C887 H915 0.931 . S
C888 O902 1.259 . S
C888 O903 1.270 1_556 S
C889 O904 1.251 . S
C889 O905 1.251 1_556 S
C890 Eu891 2.835 . S
C890 C892 1.500 . S
C890 O906 1.257 . S
C890 O907 1.260 . S
Eu891 C890 2.835 . S
Eu891 O903 2.355 . S
Eu891 O905 2.374 . S
Eu891 O906 2.473 . S
Eu891 O907 2.480 . S
Eu891 O908 2.430 . S
Eu891 O909 2.670 1_554 S
Eu891 O910 2.394 . S
C892 C890 1.500 . S
C892 C893 1.377 . S
C892 C897 1.377 . S
C893 C892 1.377 . S
C893 C894 1.395 . S
C893 H916 0.931 . S
C894 C893 1.395 . S
C894 C895 1.383 . S
C894 H917 0.931 . S
C895 C894 1.383 . S
C895 C896 1.394 . S
C896 C895 1.394 . S
C896 C897 1.378 . S
C896 H918 0.931 . S
C897 C892 1.377 . S
C897 C896 1.378 . S
C897 H919 0.931 . S
C898 O908 1.259 . S
C898 O909 1.270 1_554 S
C899 O910 1.251 . S
C899 O911 1.251 1_554 S
O900 C880 1.257 . S
O900 Eu881 2.473 . S
O901 C880 1.260 . S
O901 Eu881 2.480 . S
O902 Eu881 2.430 . S
O902 C888 1.259 . S
O903 Eu881 2.670 1_554 S
O903 C888 1.270 1_554 S
O903 Eu891 2.355 . S
O904 Eu881 2.394 . S
O904 C889 1.251 . S
O905 C889 1.251 1_554 S
O905 Eu891 2.374 . S
O906 C890 1.257 . S
O906 Eu891 2.473 . S
O907 C890 1.260 . S
O907 Eu891 2.480 . S
O908 Eu891 2.430 . S
O908 C898 1.259 . S
O909 Eu881 2.355 . S
O909 Eu891 2.670 1_556 S
O909 C898 1.270 1_556 S
O910 Eu891 2.394 . S
O910 C899 1.251 . S
O911 Eu881 2.374 . S
O911 C899 1.251 1_556 S
H912 C883 0.931 . S
H913 C884 0.931 . S
H914 C886 0.931 . S
H915 C887 0.931 . S
H916 C893 0.931 . S
H917 C894 0.931 . S
H918 C896 0.931 . S
H919 C897 0.931 . S
C920 Eu921 2.835 . S
C920 C922 1.500 . S
C920 O940 1.257 . S
C920 O941 1.260 . S
Eu921 C920 2.835 . S
Eu921 O940 2.473 . S
Eu921 O941 2.480 . S
Eu921 O942 2.430 . S
Eu921 O943 2.670 1_556 S
Eu921 O944 2.394 . S
Eu921 O949 2.355 . S
Eu921 O951 2.374 . S
C922 C920 1.500 . S
C922 C923 1.377 . S
C922 C927 1.377 . S
C923 C922 1.377 . S
C923 C924 1.395 . S
C923 H952 0.931 . S
C924 C923 1.395 . S
C924 C925 1.383 . S
C924 H953 0.931 . S
C925 C924 1.383 . S
C925 C926 1.394 . S
C926 C925 1.394 . S
C926 C927 1.378 . S
C926 H954 0.931 . S
C927 C922 1.377 . S
C927 C926 1.378 . S
C927 H955 0.931 . S
C928 O942 1.259 . S
C928 O943 1.270 1_556 S
C929 O944 1.251 . S
C929 O945 1.251 1_556 S
C930 Eu931 2.835 . S
C930 C932 1.500 . S
C930 O946 1.257 . S
C930 O947 1.260 . S
Eu931 C930 2.835 . S
Eu931 O943 2.355 . S
Eu931 O945 2.374 . S
Eu931 O946 2.473 . S
Eu931 O947 2.480 . S
Eu931 O948 2.430 . S
Eu931 O949 2.670 1_554 S
Eu931 O950 2.394 . S
C932 C930 1.500 . S
C932 C933 1.377 . S
C932 C937 1.377 . S
C933 C932 1.377 . S
C933 C934 1.395 . S
C933 H956 0.931 . S
C934 C933 1.395 . S
C934 C935 1.383 . S
C934 H957 0.931 . S
C935 C934 1.383 . S
C935 C936 1.394 . S
C936 C935 1.394 . S
C936 C937 1.378 . S
C936 H958 0.931 . S
C937 C932 1.377 . S
C937 C936 1.378 . S
C937 H959 0.931 . S
C938 O948 1.259 . S
C938 O949 1.270 1_554 S
C939 O950 1.251 . S
C939 O951 1.251 1_554 S
O940 C920 1.257 . S
O940 Eu921 2.473 . S
O941 C920 1.260 . S
O941 Eu921 2.480 . S
O942 Eu921 2.430 . S
O942 C928 1.259 . S
O943 Eu921 2.670 1_554 S
O943 C928 1.270 1_554 S
O943 Eu931 2.355 . S
O944 Eu921 2.394 . S
O944 C929 1.251 . S
O945 C929 1.251 1_554 S
O945 Eu931 2.374 . S
O946 C930 1.257 . S
O946 Eu931 2.473 . S
O947 C930 1.260 . S
O947 Eu931 2.480 . S
O948 Eu931 2.430 . S
O948 C938 1.259 . S
O949 Eu921 2.355 . S
O949 Eu931 2.670 1_556 S
O949 C938 1.270 1_556 S
O950 Eu931 2.394 . S
O950 C939 1.251 . S
O951 Eu921 2.374 . S
O951 C939 1.251 1_556 S
H952 C923 0.931 . S
H953 C924 0.931 . S
H954 C926 0.931 . S
H955 C927 0.931 . S
H956 C933 0.931 . S
H957 C934 0.931 . S
H958 C936 0.931 . S
H959 C937 0.931 . S
C960 Eu961 2.835 . S
C960 C962 1.500 . S
C960 O980 1.257 . S
C960 O981 1.260 . S
Eu961 C960 2.835 . S
Eu961 O980 2.473 . S
Eu961 O981 2.480 . S
Eu961 O982 2.430 . S
Eu961 O983 2.670 . S
Eu961 O984 2.394 . S
Eu961 O989 2.355 . S
Eu961 O991 2.374 . S
C962 C960 1.500 . S
C962 C963 1.377 . S
C962 C967 1.377 . S
C963 C962 1.377 . S
C963 C964 1.395 . S
C963 H992 0.931 . S
C964 C963 1.395 . S
C964 C965 1.383 . S
C964 H993 0.931 . S
C965 C964 1.383 . S
C965 C966 1.394 . S
C966 C965 1.394 . S
C966 C967 1.378 . S
C966 H994 0.931 . S
C967 C962 1.377 . S
C967 C966 1.378 . S
C967 H995 0.931 . S
C968 O982 1.259 . S
C968 O983 1.270 . S
C969 O984 1.251 . S
C969 O985 1.251 . S
C970 Eu971 2.835 . S
C970 C972 1.500 . S
C970 O986 1.257 . S
C970 O987 1.260 . S
Eu971 C970 2.835 . S
Eu971 O983 2.355 . S
Eu971 O985 2.374 . S
Eu971 O986 2.473 . S
Eu971 O987 2.480 . S
Eu971 O988 2.430 . S
Eu971 O989 2.670 . S
Eu971 O990 2.394 . S
C972 C970 1.500 . S
C972 C973 1.377 . S
C972 C977 1.377 . S
C973 C972 1.377 . S
C973 C974 1.395 . S
C973 H996 0.931 . S
C974 C973 1.395 . S
C974 C975 1.383 . S
C974 H997 0.931 . S
C975 C974 1.383 . S
C975 C976 1.394 . S
C976 C975 1.394 . S
C976 C977 1.378 . S
C976 H998 0.931 1_565 S
C977 C972 1.377 . S
C977 C976 1.378 . S
C977 H999 0.931 . S
C978 O988 1.259 . S
C978 O989 1.270 . S
C979 O990 1.251 . S
C979 O991 1.251 . S
O980 C960 1.257 . S
O980 Eu961 2.473 . S
O981 C960 1.260 . S
O981 Eu961 2.480 . S
O982 Eu961 2.430 . S
O982 C968 1.259 . S
O983 Eu961 2.670 . S
O983 C968 1.270 . S
O983 Eu971 2.355 . S
O984 Eu961 2.394 . S
O984 C969 1.251 . S
O985 C969 1.251 . S
O985 Eu971 2.374 . S
O986 C970 1.257 . S
O986 Eu971 2.473 . S
O987 C970 1.260 . S
O987 Eu971 2.480 . S
O988 Eu971 2.430 . S
O988 C978 1.259 . S
O989 Eu961 2.355 . S
O989 Eu971 2.670 . S
O989 C978 1.270 . S
O990 Eu971 2.394 . S
O990 C979 1.251 . S
O991 Eu961 2.374 . S
O991 C979 1.251 . S
H992 C963 0.931 . S
H993 C964 0.931 . S
H994 C966 0.931 . S
H995 C967 0.931 . S
H996 C973 0.931 . S
H997 C974 0.931 . S
H998 C976 0.931 1_545 S
H999 C977 0.931 . S
C1000 Eu1001 2.835 . S
C1000 C1002 1.500 . S
C1000 O1020 1.257 . S
C1000 O1021 1.260 . S
Eu1001 C1000 2.835 . S
Eu1001 O1020 2.473 . S
Eu1001 O1021 2.480 . S
Eu1001 O1022 2.430 . S
Eu1001 O1023 2.670 . S
Eu1001 O1024 2.394 . S
Eu1001 O1029 2.355 . S
Eu1001 O1031 2.374 . S
C1002 C1000 1.500 . S
C1002 C1003 1.377 . S
C1002 C1007 1.377 . S
C1003 C1002 1.377 . S
C1003 C1004 1.395 . S
C1003 H1032 0.931 . S
C1004 C1003 1.395 . S
C1004 C1005 1.383 . S
C1004 H1033 0.931 . S
C1005 C1004 1.383 . S
C1005 C1006 1.394 . S
C1006 C1005 1.394 . S
C1006 C1007 1.378 . S
C1006 H1034 0.931 . S
C1007 C1002 1.377 . S
C1007 C1006 1.378 . S
C1007 H1035 0.931 . S
C1008 O1022 1.259 . S
C1008 O1023 1.270 . S
C1009 O1024 1.251 . S
C1009 O1025 1.251 . S
C1010 Eu1011 2.835 . S
C1010 C1012 1.500 . S
C1010 O1026 1.257 . S
C1010 O1027 1.260 . S
Eu1011 C1010 2.835 . S
Eu1011 O1023 2.355 . S
Eu1011 O1025 2.374 . S
Eu1011 O1026 2.473 . S
Eu1011 O1027 2.480 . S
Eu1011 O1028 2.430 . S
Eu1011 O1029 2.670 . S
Eu1011 O1030 2.394 . S
C1012 C1010 1.500 . S
C1012 C1013 1.377 . S
C1012 C1017 1.377 . S
C1013 C1012 1.377 . S
C1013 C1014 1.395 . S
C1013 H1036 0.931 . S
C1014 C1013 1.395 . S
C1014 C1015 1.383 . S
C1014 H1037 0.931 . S
C1015 C1014 1.383 . S
C1015 C1016 1.394 . S
C1016 C1015 1.394 . S
C1016 C1017 1.378 . S
C1016 H1038 0.931 1_455 S
C1017 C1012 1.377 . S
C1017 C1016 1.378 . S
C1017 H1039 0.931 . S
C1018 O1028 1.259 . S
C1018 O1029 1.270 . S
C1019 O1030 1.251 . S
C1019 O1031 1.251 . S
O1020 C1000 1.257 . S
O1020 Eu1001 2.473 . S
O1021 C1000 1.260 . S
O1021 Eu1001 2.480 . S
O1022 Eu1001 2.430 . S
O1022 C1008 1.259 . S
O1023 Eu1001 2.670 . S
O1023 C1008 1.270 . S
O1023 Eu1011 2.355 . S
O1024 Eu1001 2.394 . S
O1024 C1009 1.251 . S
O1025 C1009 1.251 . S
O1025 Eu1011 2.374 . S
O1026 C1010 1.257 . S
O1026 Eu1011 2.473 . S
O1027 C1010 1.260 . S
O1027 Eu1011 2.480 . S
O1028 Eu1011 2.430 . S
O1028 C1018 1.259 . S
O1029 Eu1001 2.355 . S
O1029 Eu1011 2.670 . S
O1029 C1018 1.270 . S
O1030 Eu1011 2.394 . S
O1030 C1019 1.251 . S
O1031 Eu1001 2.374 . S
O1031 C1019 1.251 . S
H1032 C1003 0.931 . S
H1033 C1004 0.931 . S
H1034 C1006 0.931 . S
H1035 C1007 0.931 . S
H1036 C1013 0.931 . S
H1037 C1014 0.931 . S
H1038 C1016 0.931 1_655 S
H1039 C1017 0.931 . S
C1040 Eu1041 2.835 . S
C1040 C1042 1.500 . S
C1040 O1060 1.257 . S
C1040 O1061 1.260 . S
Eu1041 C1040 2.835 . S
Eu1041 O1060 2.473 . S
Eu1041 O1061 2.480 . S
Eu1041 O1062 2.430 . S
Eu1041 O1063 2.670 . S
Eu1041 O1064 2.394 . S
Eu1041 O1069 2.355 . S
Eu1041 O1071 2.374 . S
C1042 C1040 1.500 . S
C1042 C1043 1.377 . S
C1042 C1047 1.377 . S
C1043 C1042 1.377 . S
C1043 C1044 1.395 . S
C1043 H1072 0.931 . S
C1044 C1043 1.395 . S
C1044 C1045 1.383 . S
C1044 H1073 0.931 . S
C1045 C1044 1.383 . S
C1045 C1046 1.394 . S
C1046 C1045 1.394 . S
C1046 C1047 1.378 . S
C1046 H1074 0.931 . S
C1047 C1042 1.377 . S
C1047 C1046 1.378 . S
C1047 H1075 0.931 . S
C1048 O1062 1.259 . S
C1048 O1063 1.270 . S
C1049 O1064 1.251 . S
C1049 O1065 1.251 . S
C1050 Eu1051 2.835 . S
C1050 C1052 1.500 . S
C1050 O1066 1.257 . S
C1050 O1067 1.260 . S
Eu1051 C1050 2.835 . S
Eu1051 O1063 2.355 . S
Eu1051 O1065 2.374 . S
Eu1051 O1066 2.473 . S
Eu1051 O1067 2.480 . S
Eu1051 O1068 2.430 . S
Eu1051 O1069 2.670 . S
Eu1051 O1070 2.394 . S
C1052 C1050 1.500 . S
C1052 C1053 1.377 . S
C1052 C1057 1.377 . S
C1053 C1052 1.377 . S
C1053 C1054 1.395 . S
C1053 H1076 0.931 . S
C1054 C1053 1.395 . S
C1054 C1055 1.383 . S
C1054 H1077 0.931 . S
C1055 C1054 1.383 . S
C1055 C1056 1.394 . S
C1056 C1055 1.394 . S
C1056 C1057 1.378 . S
C1056 H1078 0.931 . S
C1057 C1052 1.377 . S
C1057 C1056 1.378 . S
C1057 H1079 0.931 . S
C1058 O1068 1.259 . S
C1058 O1069 1.270 . S
C1059 O1070 1.251 . S
C1059 O1071 1.251 . S
O1060 C1040 1.257 . S
O1060 Eu1041 2.473 . S
O1061 C1040 1.260 . S
O1061 Eu1041 2.480 . S
O1062 Eu1041 2.430 . S
O1062 C1048 1.259 . S
O1063 Eu1041 2.670 . S
O1063 C1048 1.270 . S
O1063 Eu1051 2.355 . S
O1064 Eu1041 2.394 . S
O1064 C1049 1.251 . S
O1065 C1049 1.251 . S
O1065 Eu1051 2.374 . S
O1066 C1050 1.257 . S
O1066 Eu1051 2.473 . S
O1067 C1050 1.260 . S
O1067 Eu1051 2.480 . S
O1068 Eu1051 2.430 . S
O1068 C1058 1.259 . S
O1069 Eu1041 2.355 . S
O1069 Eu1051 2.670 . S
O1069 C1058 1.270 . S
O1070 Eu1051 2.394 . S
O1070 C1059 1.251 . S
O1071 Eu1041 2.374 . S
O1071 C1059 1.251 . S
H1072 C1043 0.931 . S
H1073 C1044 0.931 . S
H1074 C1046 0.931 . S
H1075 C1047 0.931 . S
H1076 C1053 0.931 . S
H1077 C1054 0.931 . S
H1078 C1056 0.931 . S
H1079 C1057 0.931 . S
C1080 Eu1081 2.835 . S
C1080 C1082 1.500 . S
C1080 O1100 1.257 . S
C1080 O1101 1.260 . S
Eu1081 C1080 2.835 . S
Eu1081 O1100 2.473 . S
Eu1081 O1101 2.480 . S
Eu1081 O1102 2.430 . S
Eu1081 O1103 2.670 1_556 S
Eu1081 O1104 2.394 . S
Eu1081 O1109 2.355 . S
Eu1081 O1111 2.374 . S
C1082 C1080 1.500 . S
C1082 C1083 1.377 . S
C1082 C1087 1.377 . S
C1083 C1082 1.377 . S
C1083 C1084 1.395 . S
C1083 H1112 0.931 . S
C1084 C1083 1.395 . S
C1084 C1085 1.383 . S
C1084 H1113 0.931 . S
C1085 C1084 1.383 . S
C1085 C1086 1.394 . S
C1086 C1085 1.394 . S
C1086 C1087 1.378 . S
C1086 H1114 0.931 . S
C1087 C1082 1.377 . S
C1087 C1086 1.378 . S
C1087 H1115 0.931 . S
C1088 O1102 1.259 . S
C1088 O1103 1.270 1_556 S
C1089 O1104 1.251 . S
C1089 O1105 1.251 1_556 S
C1090 Eu1091 2.835 . S
C1090 C1092 1.500 . S
C1090 O1106 1.257 . S
C1090 O1107 1.260 . S
Eu1091 C1090 2.835 . S
Eu1091 O1103 2.355 . S
Eu1091 O1105 2.374 . S
Eu1091 O1106 2.473 . S
Eu1091 O1107 2.480 . S
Eu1091 O1108 2.430 . S
Eu1091 O1109 2.670 1_554 S
Eu1091 O1110 2.394 . S
C1092 C1090 1.500 . S
C1092 C1093 1.377 . S
C1092 C1097 1.377 . S
C1093 C1092 1.377 . S
C1093 C1094 1.395 . S
C1093 H1116 0.931 . S
C1094 C1093 1.395 . S
C1094 C1095 1.383 . S
C1094 H1117 0.931 . S
C1095 C1094 1.383 . S
C1095 C1096 1.394 . S
C1096 C1095 1.394 . S
C1096 C1097 1.378 . S
C1096 H1118 0.931 . S
C1097 C1092 1.377 . S
C1097 C1096 1.378 . S
C1097 H1119 0.931 . S
C1098 O1108 1.259 . S
C1098 O1109 1.270 1_554 S
C1099 O1110 1.251 . S
C1099 O1111 1.251 1_554 S
O1100 C1080 1.257 . S
O1100 Eu1081 2.473 . S
O1101 C1080 1.260 . S
O1101 Eu1081 2.480 . S
O1102 Eu1081 2.430 . S
O1102 C1088 1.259 . S
O1103 Eu1081 2.670 1_554 S
O1103 C1088 1.270 1_554 S
O1103 Eu1091 2.355 . S
O1104 Eu1081 2.394 . S
O1104 C1089 1.251 . S
O1105 C1089 1.251 1_554 S
O1105 Eu1091 2.374 . S
O1106 C1090 1.257 . S
O1106 Eu1091 2.473 . S
O1107 C1090 1.260 . S
O1107 Eu1091 2.480 . S
O1108 Eu1091 2.430 . S
O1108 C1098 1.259 . S
O1109 Eu1081 2.355 . S
O1109 Eu1091 2.670 1_556 S
O1109 C1098 1.270 1_556 S
O1110 Eu1091 2.394 . S
O1110 C1099 1.251 . S
O1111 Eu1081 2.374 . S
O1111 C1099 1.251 1_556 S
H1112 C1083 0.931 . S
H1113 C1084 0.931 . S
H1114 C1086 0.931 . S
H1115 C1087 0.931 . S
H1116 C1093 0.931 . S
H1117 C1094 0.931 . S
H1118 C1096 0.931 . S
H1119 C1097 0.931 . S
C1120 Eu1121 2.835 . S
C1120 C1122 1.500 . S
C1120 O1140 1.257 . S
C1120 O1141 1.260 . S
Eu1121 C1120 2.835 . S
Eu1121 O1140 2.473 . S
Eu1121 O1141 2.480 . S
Eu1121 O1142 2.430 . S
Eu1121 O1143 2.670 1_556 S
Eu1121 O1144 2.394 . S
Eu1121 O1149 2.355 . S
Eu1121 O1151 2.374 . S
C1122 C1120 1.500 . S
C1122 C1123 1.377 . S
C1122 C1127 1.377 . S
C1123 C1122 1.377 . S
C1123 C1124 1.395 . S
C1123 H1152 0.931 . S
C1124 C1123 1.395 . S
C1124 C1125 1.383 . S
C1124 H1153 0.931 . S
C1125 C1124 1.383 . S
C1125 C1126 1.394 . S
C1126 C1125 1.394 . S
C1126 C1127 1.378 . S
C1126 H1154 0.931 . S
C1127 C1122 1.377 . S
C1127 C1126 1.378 . S
C1127 H1155 0.931 . S
C1128 O1142 1.259 . S
C1128 O1143 1.270 1_556 S
C1129 O1144 1.251 . S
C1129 O1145 1.251 1_556 S
C1130 Eu1131 2.835 . S
C1130 C1132 1.500 . S
C1130 O1146 1.257 . S
C1130 O1147 1.260 . S
Eu1131 C1130 2.835 . S
Eu1131 O1143 2.355 . S
Eu1131 O1145 2.374 . S
Eu1131 O1146 2.473 . S
Eu1131 O1147 2.480 . S
Eu1131 O1148 2.430 . S
Eu1131 O1149 2.670 1_554 S
Eu1131 O1150 2.394 . S
C1132 C1130 1.500 . S
C1132 C1133 1.377 . S
C1132 C1137 1.377 . S
C1133 C1132 1.377 . S
C1133 C1134 1.395 . S
C1133 H1156 0.931 . S
C1134 C1133 1.395 . S
C1134 C1135 1.383 . S
C1134 H1157 0.931 . S
C1135 C1134 1.383 . S
C1135 C1136 1.394 . S
C1136 C1135 1.394 . S
C1136 C1137 1.378 . S
C1136 H1158 0.931 . S
C1137 C1132 1.377 . S
C1137 C1136 1.378 . S
C1137 H1159 0.931 . S
C1138 O1148 1.259 . S
C1138 O1149 1.270 1_554 S
C1139 O1150 1.251 . S
C1139 O1151 1.251 1_554 S
O1140 C1120 1.257 . S
O1140 Eu1121 2.473 . S
O1141 C1120 1.260 . S
O1141 Eu1121 2.480 . S
O1142 Eu1121 2.430 . S
O1142 C1128 1.259 . S
O1143 Eu1121 2.670 1_554 S
O1143 C1128 1.270 1_554 S
O1143 Eu1131 2.355 . S
O1144 Eu1121 2.394 . S
O1144 C1129 1.251 . S
O1145 C1129 1.251 1_554 S
O1145 Eu1131 2.374 . S
O1146 C1130 1.257 . S
O1146 Eu1131 2.473 . S
O1147 C1130 1.260 . S
O1147 Eu1131 2.480 . S
O1148 Eu1131 2.430 . S
O1148 C1138 1.259 . S
O1149 Eu1121 2.355 . S
O1149 Eu1131 2.670 1_556 S
O1149 C1138 1.270 1_556 S
O1150 Eu1131 2.394 . S
O1150 C1139 1.251 . S
O1151 Eu1121 2.374 . S
O1151 C1139 1.251 1_556 S
H1152 C1123 0.931 . S
H1153 C1124 0.931 . S
H1154 C1126 0.931 . S
H1155 C1127 0.931 . S
H1156 C1133 0.931 . S
H1157 C1134 0.931 . S
H1158 C1136 0.931 . S
H1159 C1137 0.931 . S
C1160 Eu1161 2.835 . S
C1160 C1162 1.500 . S
C1160 O1180 1.257 . S
C1160 O1181 1.260 . S
Eu1161 C1160 2.835 . S
Eu1161 O1180 2.473 . S
Eu1161 O1181 2.480 . S
Eu1161 O1182 2.430 . S
Eu1161 O1183 2.670 1_556 S
Eu1161 O1184 2.394 . S
Eu1161 O1189 2.355 . S
Eu1161 O1191 2.374 . S
C1162 C1160 1.500 . S
C1162 C1163 1.377 . S
C1162 C1167 1.377 . S
C1163 C1162 1.377 . S
C1163 C1164 1.395 . S
C1163 H1192 0.931 . S
C1164 C1163 1.395 . S
C1164 C1165 1.383 . S
C1164 H1193 0.931 . S
C1165 C1164 1.383 . S
C1165 C1166 1.394 . S
C1166 C1165 1.394 . S
C1166 C1167 1.378 . S
C1166 H1194 0.931 . S
C1167 C1162 1.377 . S
C1167 C1166 1.378 . S
C1167 H1195 0.931 . S
C1168 O1182 1.259 . S
C1168 O1183 1.270 1_556 S
C1169 O1184 1.251 . S
C1169 O1185 1.251 1_556 S
C1170 Eu1171 2.835 . S
C1170 C1172 1.500 . S
C1170 O1186 1.257 . S
C1170 O1187 1.260 . S
Eu1171 C1170 2.835 . S
Eu1171 O1183 2.355 . S
Eu1171 O1185 2.374 . S
Eu1171 O1186 2.473 . S
Eu1171 O1187 2.480 . S
Eu1171 O1188 2.430 . S
Eu1171 O1189 2.670 1_554 S
Eu1171 O1190 2.394 . S
C1172 C1170 1.500 . S
C1172 C1173 1.377 . S
C1172 C1177 1.377 . S
C1173 C1172 1.377 . S
C1173 C1174 1.395 . S
C1173 H1196 0.931 . S
C1174 C1173 1.395 . S
C1174 C1175 1.383 . S
C1174 H1197 0.931 . S
C1175 C1174 1.383 . S
C1175 C1176 1.394 . S
C1176 C1175 1.394 . S
C1176 C1177 1.378 . S
C1176 H1198 0.931 . S
C1177 C1172 1.377 . S
C1177 C1176 1.378 . S
C1177 H1199 0.931 . S
C1178 O1188 1.259 . S
C1178 O1189 1.270 1_554 S
C1179 O1190 1.251 . S
C1179 O1191 1.251 1_554 S
O1180 C1160 1.257 . S
O1180 Eu1161 2.473 . S
O1181 C1160 1.260 . S
O1181 Eu1161 2.480 . S
O1182 Eu1161 2.430 . S
O1182 C1168 1.259 . S
O1183 Eu1161 2.670 1_554 S
O1183 C1168 1.270 1_554 S
O1183 Eu1171 2.355 . S
O1184 Eu1161 2.394 . S
O1184 C1169 1.251 . S
O1185 C1169 1.251 1_554 S
O1185 Eu1171 2.374 . S
O1186 C1170 1.257 . S
O1186 Eu1171 2.473 . S
O1187 C1170 1.260 . S
O1187 Eu1171 2.480 . S
O1188 Eu1171 2.430 . S
O1188 C1178 1.259 . S
O1189 Eu1161 2.355 . S
O1189 Eu1171 2.670 1_556 S
O1189 C1178 1.270 1_556 S
O1190 Eu1171 2.394 . S
O1190 C1179 1.251 . S
O1191 Eu1161 2.374 . S
O1191 C1179 1.251 1_556 S
H1192 C1163 0.931 . S
H1193 C1164 0.931 . S
H1194 C1166 0.931 . S
H1195 C1167 0.931 . S
H1196 C1173 0.931 . S
H1197 C1174 0.931 . S
H1198 C1176 0.931 . S
H1199 C1177 0.931 . S
C1200 Eu1201 2.835 . S
C1200 C1202 1.500 . S
C1200 O1220 1.257 . S
C1200 O1221 1.260 . S
Eu1201 C1200 2.835 . S
Eu1201 O1220 2.473 . S
Eu1201 O1221 2.480 . S
Eu1201 O1222 2.430 . S
Eu1201 O1223 2.670 . S
Eu1201 O1224 2.394 . S
Eu1201 O1229 2.355 . S
Eu1201 O1231 2.374 . S
C1202 C1200 1.500 . S
C1202 C1203 1.377 . S
C1202 C1207 1.377 . S
C1203 C1202 1.377 . S
C1203 C1204 1.395 . S
C1203 H1232 0.931 . S
C1204 C1203 1.395 . S
C1204 C1205 1.383 . S
C1204 H1233 0.931 . S
C1205 C1204 1.383 . S
C1205 C1206 1.394 . S
C1206 C1205 1.394 . S
C1206 C1207 1.378 . S
C1206 H1234 0.931 . S
C1207 C1202 1.377 . S
C1207 C1206 1.378 . S
C1207 H1235 0.931 . S
C1208 O1222 1.259 . S
C1208 O1223 1.270 . S
C1209 O1224 1.251 . S
C1209 O1225 1.251 . S
C1210 Eu1211 2.835 . S
C1210 C1212 1.500 . S
C1210 O1226 1.257 . S
C1210 O1227 1.260 . S
Eu1211 C1210 2.835 . S
Eu1211 O1223 2.355 . S
Eu1211 O1225 2.374 . S
Eu1211 O1226 2.473 . S
Eu1211 O1227 2.480 . S
Eu1211 O1228 2.430 . S
Eu1211 O1229 2.670 . S
Eu1211 O1230 2.394 . S
C1212 C1210 1.500 . S
C1212 C1213 1.377 . S
C1212 C1217 1.377 . S
C1213 C1212 1.377 . S
C1213 C1214 1.395 . S
C1213 H1236 0.931 . S
C1214 C1213 1.395 . S
C1214 C1215 1.383 . S
C1214 H1237 0.931 . S
C1215 C1214 1.383 . S
C1215 C1216 1.394 . S
C1216 C1215 1.394 . S
C1216 C1217 1.378 . S
C1216 H1238 0.931 . S
C1217 C1212 1.377 . S
C1217 C1216 1.378 . S
C1217 H1239 0.931 . S
C1218 O1228 1.259 . S
C1218 O1229 1.270 . S
C1219 O1230 1.251 . S
C1219 O1231 1.251 . S
O1220 C1200 1.257 . S
O1220 Eu1201 2.473 . S
O1221 C1200 1.260 . S
O1221 Eu1201 2.480 . S
O1222 Eu1201 2.430 . S
O1222 C1208 1.259 . S
O1223 Eu1201 2.670 . S
O1223 C1208 1.270 . S
O1223 Eu1211 2.355 . S
O1224 Eu1201 2.394 . S
O1224 C1209 1.251 . S
O1225 C1209 1.251 . S
O1225 Eu1211 2.374 . S
O1226 C1210 1.257 . S
O1226 Eu1211 2.473 . S
O1227 C1210 1.260 . S
O1227 Eu1211 2.480 . S
O1228 Eu1211 2.430 . S
O1228 C1218 1.259 . S
O1229 Eu1201 2.355 . S
O1229 Eu1211 2.670 . S
O1229 C1218 1.270 . S
O1230 Eu1211 2.394 . S
O1230 C1219 1.251 . S
O1231 Eu1201 2.374 . S
O1231 C1219 1.251 . S
H1232 C1203 0.931 . S
H1233 C1204 0.931 . S
H1234 C1206 0.931 . S
H1235 C1207 0.931 . S
H1236 C1213 0.931 . S
H1237 C1214 0.931 . S
H1238 C1216 0.931 . S
H1239 C1217 0.931 . S
C1240 Eu1241 2.835 . S
C1240 C1242 1.500 . S
C1240 O1260 1.257 . S
C1240 O1261 1.260 . S
Eu1241 C1240 2.835 . S
Eu1241 O1260 2.473 . S
Eu1241 O1261 2.480 . S
Eu1241 O1262 2.430 . S
Eu1241 O1263 2.670 . S
Eu1241 O1264 2.394 . S
Eu1241 O1269 2.355 . S
Eu1241 O1271 2.374 . S
C1242 C1240 1.500 . S
C1242 C1243 1.377 . S
C1242 C1247 1.377 . S
C1243 C1242 1.377 . S
C1243 C1244 1.395 . S
C1243 H1272 0.931 . S
C1244 C1243 1.395 . S
C1244 C1245 1.383 . S
C1244 H1273 0.931 . S
C1245 C1244 1.383 . S
C1245 C1246 1.394 . S
C1246 C1245 1.394 . S
C1246 C1247 1.378 . S
C1246 H1274 0.931 . S
C1247 C1242 1.377 . S
C1247 C1246 1.378 . S
C1247 H1275 0.931 . S
C1248 O1262 1.259 . S
C1248 O1263 1.270 . S
C1249 O1264 1.251 . S
C1249 O1265 1.251 . S
C1250 Eu1251 2.835 . S
C1250 C1252 1.500 . S
C1250 O1266 1.257 . S
C1250 O1267 1.260 . S
Eu1251 C1250 2.835 . S
Eu1251 O1263 2.355 . S
Eu1251 O1265 2.374 . S
Eu1251 O1266 2.473 . S
Eu1251 O1267 2.480 . S
Eu1251 O1268 2.430 . S
Eu1251 O1269 2.670 . S
Eu1251 O1270 2.394 . S
C1252 C1250 1.500 . S
C1252 C1253 1.377 . S
C1252 C1257 1.377 . S
C1253 C1252 1.377 . S
C1253 C1254 1.395 . S
C1253 H1276 0.931 . S
C1254 C1253 1.395 . S
C1254 C1255 1.383 . S
C1254 H1277 0.931 . S
C1255 C1254 1.383 . S
C1255 C1256 1.394 . S
C1256 C1255 1.394 . S
C1256 C1257 1.378 . S
C1256 H1278 0.931 . S
C1257 C1252 1.377 . S
C1257 C1256 1.378 . S
C1257 H1279 0.931 . S
C1258 O1268 1.259 . S
C1258 O1269 1.270 . S
C1259 O1270 1.251 . S
C1259 O1271 1.251 . S
O1260 C1240 1.257 . S
O1260 Eu1241 2.473 . S
O1261 C1240 1.260 . S
O1261 Eu1241 2.480 . S
O1262 Eu1241 2.430 . S
O1262 C1248 1.259 . S
O1263 Eu1241 2.670 . S
O1263 C1248 1.270 . S
O1263 Eu1251 2.355 . S
O1264 Eu1241 2.394 . S
O1264 C1249 1.251 . S
O1265 C1249 1.251 . S
O1265 Eu1251 2.374 . S
O1266 C1250 1.257 . S
O1266 Eu1251 2.473 . S
O1267 C1250 1.260 . S
O1267 Eu1251 2.480 . S
O1268 Eu1251 2.430 . S
O1268 C1258 1.259 . S
O1269 Eu1241 2.355 . S
O1269 Eu1251 2.670 . S
O1269 C1258 1.270 . S
O1270 Eu1251 2.394 . S
O1270 C1259 1.251 . S
O1271 Eu1241 2.374 . S
O1271 C1259 1.251 . S
H1272 C1243 0.931 . S
H1273 C1244 0.931 . S
H1274 C1246 0.931 . S
H1275 C1247 0.931 . S
H1276 C1253 0.931 . S
H1277 C1254 0.931 . S
H1278 C1256 0.931 . S
H1279 C1257 0.931 . S
C1280 Eu1281 2.835 . S
C1280 C1282 1.500 . S
C1280 O1300 1.257 . S
C1280 O1301 1.260 . S
Eu1281 C1280 2.835 . S
Eu1281 O1300 2.473 . S
Eu1281 O1301 2.480 . S
Eu1281 O1302 2.430 . S
Eu1281 O1303 2.670 . S
Eu1281 O1304 2.394 . S
Eu1281 O1309 2.355 . S
Eu1281 O1311 2.374 . S
C1282 C1280 1.500 . S
C1282 C1283 1.377 . S
C1282 C1287 1.377 . S
C1283 C1282 1.377 . S
C1283 C1284 1.395 . S
C1283 H1312 0.931 . S
C1284 C1283 1.395 . S
C1284 C1285 1.383 . S
C1284 H1313 0.931 . S
C1285 C1284 1.383 . S
C1285 C1286 1.394 . S
C1286 C1285 1.394 . S
C1286 C1287 1.378 . S
C1286 H1314 0.931 . S
C1287 C1282 1.377 . S
C1287 C1286 1.378 . S
C1287 H1315 0.931 . S
C1288 O1302 1.259 . S
C1288 O1303 1.270 . S
C1289 O1304 1.251 . S
C1289 O1305 1.251 . S
C1290 Eu1291 2.835 . S
C1290 C1292 1.500 . S
C1290 O1306 1.257 . S
C1290 O1307 1.260 . S
Eu1291 C1290 2.835 . S
Eu1291 O1303 2.355 . S
Eu1291 O1305 2.374 . S
Eu1291 O1306 2.473 . S
Eu1291 O1307 2.480 . S
Eu1291 O1308 2.430 . S
Eu1291 O1309 2.670 . S
Eu1291 O1310 2.394 . S
C1292 C1290 1.500 . S
C1292 C1293 1.377 . S
C1292 C1297 1.377 . S
C1293 C1292 1.377 . S
C1293 C1294 1.395 . S
C1293 H1316 0.931 . S
C1294 C1293 1.395 . S
C1294 C1295 1.383 . S
C1294 H1317 0.931 . S
C1295 C1294 1.383 . S
C1295 C1296 1.394 . S
C1296 C1295 1.394 . S
C1296 C1297 1.378 . S
C1296 H1318 0.931 . S
C1297 C1292 1.377 . S
C1297 C1296 1.378 . S
C1297 H1319 0.931 . S
C1298 O1308 1.259 . S
C1298 O1309 1.270 . S
C1299 O1310 1.251 . S
C1299 O1311 1.251 . S
O1300 C1280 1.257 . S
O1300 Eu1281 2.473 . S
O1301 C1280 1.260 . S
O1301 Eu1281 2.480 . S
O1302 Eu1281 2.430 . S
O1302 C1288 1.259 . S
O1303 Eu1281 2.670 . S
O1303 C1288 1.270 . S
O1303 Eu1291 2.355 . S
O1304 Eu1281 2.394 . S
O1304 C1289 1.251 . S
O1305 C1289 1.251 . S
O1305 Eu1291 2.374 . S
O1306 C1290 1.257 . S
O1306 Eu1291 2.473 . S
O1307 C1290 1.260 . S
O1307 Eu1291 2.480 . S
O1308 Eu1291 2.430 . S
O1308 C1298 1.259 . S
O1309 Eu1281 2.355 . S
O1309 Eu1291 2.670 . S
O1309 C1298 1.270 . S
O1310 Eu1291 2.394 . S
O1310 C1299 1.251 . S
O1311 Eu1281 2.374 . S
O1311 C1299 1.251 . S
H1312 C1283 0.931 . S
H1313 C1284 0.931 . S
H1314 C1286 0.931 . S
H1315 C1287 0.931 . S
H1316 C1293 0.931 . S
H1317 C1294 0.931 . S
H1318 C1296 0.931 . S
H1319 C1297 0.931 . S
C1320 Eu1321 2.835 . S
C1320 C1322 1.500 . S
C1320 O1340 1.257 . S
C1320 O1341 1.260 . S
Eu1321 C1320 2.835 . S
Eu1321 O1340 2.473 . S
Eu1321 O1341 2.480 . S
Eu1321 O1342 2.430 . S
Eu1321 O1343 2.670 . S
Eu1321 O1344 2.394 . S
Eu1321 O1349 2.355 . S
Eu1321 O1351 2.374 . S
C1322 C1320 1.500 . S
C1322 C1323 1.377 . S
C1322 C1327 1.377 . S
C1323 C1322 1.377 . S
C1323 C1324 1.395 . S
C1323 H1352 0.931 . S
C1324 C1323 1.395 . S
C1324 C1325 1.383 . S
C1324 H1353 0.931 . S
C1325 C1324 1.383 . S
C1325 C1326 1.394 . S
C1326 C1325 1.394 . S
C1326 C1327 1.378 . S
C1326 H1354 0.931 1_455 S
C1327 C1322 1.377 . S
C1327 C1326 1.378 . S
C1327 H1355 0.931 . S
C1328 O1342 1.259 . S
C1328 O1343 1.270 . S
C1329 O1344 1.251 . S
C1329 O1345 1.251 . S
C1330 Eu1331 2.835 . S
C1330 C1332 1.500 . S
C1330 O1346 1.257 . S
C1330 O1347 1.260 . S
Eu1331 C1330 2.835 . S
Eu1331 O1343 2.355 . S
Eu1331 O1345 2.374 . S
Eu1331 O1346 2.473 . S
Eu1331 O1347 2.480 . S
Eu1331 O1348 2.430 . S
Eu1331 O1349 2.670 . S
Eu1331 O1350 2.394 . S
C1332 C1330 1.500 . S
C1332 C1333 1.377 . S
C1332 C1337 1.377 . S
C1333 C1332 1.377 . S
C1333 C1334 1.395 . S
C1333 H1356 0.931 . S
C1334 C1333 1.395 . S
C1334 C1335 1.383 . S
C1334 H1357 0.931 . S
C1335 C1334 1.383 . S
C1335 C1336 1.394 . S
C1336 C1335 1.394 . S
C1336 C1337 1.378 . S
C1336 H1358 0.931 . S
C1337 C1332 1.377 . S
C1337 C1336 1.378 . S
C1337 H1359 0.931 . S
C1338 O1348 1.259 . S
C1338 O1349 1.270 . S
C1339 O1350 1.251 . S
C1339 O1351 1.251 . S
O1340 C1320 1.257 . S
O1340 Eu1321 2.473 . S
O1341 C1320 1.260 . S
O1341 Eu1321 2.480 . S
O1342 Eu1321 2.430 . S
O1342 C1328 1.259 . S
O1343 Eu1321 2.670 . S
O1343 C1328 1.270 . S
O1343 Eu1331 2.355 . S
O1344 Eu1321 2.394 . S
O1344 C1329 1.251 . S
O1345 C1329 1.251 . S
O1345 Eu1331 2.374 . S
O1346 C1330 1.257 . S
O1346 Eu1331 2.473 . S
O1347 C1330 1.260 . S
O1347 Eu1331 2.480 . S
O1348 Eu1331 2.430 . S
O1348 C1338 1.259 . S
O1349 Eu1321 2.355 . S
O1349 Eu1331 2.670 . S
O1349 C1338 1.270 . S
O1350 Eu1331 2.394 . S
O1350 C1339 1.251 . S
O1351 Eu1321 2.374 . S
O1351 C1339 1.251 . S
H1352 C1323 0.931 . S
H1353 C1324 0.931 . S
H1354 C1326 0.931 1_655 S
H1355 C1327 0.931 . S
H1356 C1333 0.931 . S
H1357 C1334 0.931 . S
H1358 C1336 0.931 . S
H1359 C1337 0.931 . S
C1360 Eu1361 2.835 . S
C1360 C1362 1.500 . S
C1360 O1380 1.257 . S
C1360 O1381 1.260 . S
Eu1361 C1360 2.835 . S
Eu1361 O1380 2.473 . S
Eu1361 O1381 2.480 . S
Eu1361 O1382 2.430 . S
Eu1361 O1383 2.670 . S
Eu1361 O1384 2.394 . S
Eu1361 O1389 2.355 . S
Eu1361 O1391 2.374 . S
C1362 C1360 1.500 . S
C1362 C1363 1.377 . S
C1362 C1367 1.377 . S
C1363 C1362 1.377 . S
C1363 C1364 1.395 . S
C1363 H1392 0.931 . S
C1364 C1363 1.395 . S
C1364 C1365 1.383 . S
C1364 H1393 0.931 . S
C1365 C1364 1.383 . S
C1365 C1366 1.394 . S
C1366 C1365 1.394 . S
C1366 C1367 1.378 . S
C1366 H1394 0.931 . S
C1367 C1362 1.377 . S
C1367 C1366 1.378 . S
C1367 H1395 0.931 . S
C1368 O1382 1.259 . S
C1368 O1383 1.270 . S
C1369 O1384 1.251 . S
C1369 O1385 1.251 . S
C1370 Eu1371 2.835 . S
C1370 C1372 1.500 . S
C1370 O1386 1.257 . S
C1370 O1387 1.260 . S
Eu1371 C1370 2.835 . S
Eu1371 O1383 2.355 . S
Eu1371 O1385 2.374 . S
Eu1371 O1386 2.473 . S
Eu1371 O1387 2.480 . S
Eu1371 O1388 2.430 . S
Eu1371 O1389 2.670 . S
Eu1371 O1390 2.394 . S
C1372 C1370 1.500 . S
C1372 C1373 1.377 . S
C1372 C1377 1.377 . S
C1373 C1372 1.377 . S
C1373 C1374 1.395 . S
C1373 H1396 0.931 . S
C1374 C1373 1.395 . S
C1374 C1375 1.383 . S
C1374 H1397 0.931 . S
C1375 C1374 1.383 . S
C1375 C1376 1.394 . S
C1376 C1375 1.394 . S
C1376 C1377 1.378 . S
C1376 H1398 0.931 . S
C1377 C1372 1.377 . S
C1377 C1376 1.378 . S
C1377 H1399 0.931 . S
C1378 O1388 1.259 . S
C1378 O1389 1.270 . S
C1379 O1390 1.251 . S
C1379 O1391 1.251 . S
O1380 C1360 1.257 . S
O1380 Eu1361 2.473 . S
O1381 C1360 1.260 . S
O1381 Eu1361 2.480 . S
O1382 Eu1361 2.430 . S
O1382 C1368 1.259 . S
O1383 Eu1361 2.670 . S
O1383 C1368 1.270 . S
O1383 Eu1371 2.355 . S
O1384 Eu1361 2.394 . S
O1384 C1369 1.251 . S
O1385 C1369 1.251 . S
O1385 Eu1371 2.374 . S
O1386 C1370 1.257 . S
O1386 Eu1371 2.473 . S
O1387 C1370 1.260 . S
O1387 Eu1371 2.480 . S
O1388 Eu1371 2.430 . S
O1388 C1378 1.259 . S
O1389 Eu1361 2.355 . S
O1389 Eu1371 2.670 . S
O1389 C1378 1.270 . S
O1390 Eu1371 2.394 . S
O1390 C1379 1.251 . S
O1391 Eu1361 2.374 . S
O1391 C1379 1.251 . S
H1392 C1363 0.931 . S
H1393 C1364 0.931 . S
H1394 C1366 0.931 . S
H1395 C1367 0.931 . S
H1396 C1373 0.931 . S
H1397 C1374 0.931 . S
H1398 C1376 0.931 . S
H1399 C1377 0.931 . S
C1400 Eu1401 2.835 . S
C1400 C1402 1.500 . S
C1400 O1420 1.257 . S
C1400 O1421 1.260 . S
Eu1401 C1400 2.835 . S
Eu1401 O1420 2.473 . S
Eu1401 O1421 2.480 . S
Eu1401 O1422 2.430 . S
Eu1401 O1423 2.670 . S
Eu1401 O1424 2.394 . S
Eu1401 O1429 2.355 . S
Eu1401 O1431 2.374 . S
C1402 C1400 1.500 . S
C1402 C1403 1.377 . S
C1402 C1407 1.377 . S
C1403 C1402 1.377 . S
C1403 C1404 1.395 . S
C1403 H1432 0.931 . S
C1404 C1403 1.395 . S
C1404 C1405 1.383 . S
C1404 H1433 0.931 . S
C1405 C1404 1.383 . S
C1405 C1406 1.394 . S
C1406 C1405 1.394 . S
C1406 C1407 1.378 . S
C1406 H1434 0.931 1_565 S
C1407 C1402 1.377 . S
C1407 C1406 1.378 . S
C1407 H1435 0.931 . S
C1408 O1422 1.259 . S
C1408 O1423 1.270 . S
C1409 O1424 1.251 . S
C1409 O1425 1.251 . S
C1410 Eu1411 2.835 . S
C1410 C1412 1.500 . S
C1410 O1426 1.257 . S
C1410 O1427 1.260 . S
Eu1411 C1410 2.835 . S
Eu1411 O1423 2.355 . S
Eu1411 O1425 2.374 . S
Eu1411 O1426 2.473 . S
Eu1411 O1427 2.480 . S
Eu1411 O1428 2.430 . S
Eu1411 O1429 2.670 . S
Eu1411 O1430 2.394 . S
C1412 C1410 1.500 . S
C1412 C1413 1.377 . S
C1412 C1417 1.377 . S
C1413 C1412 1.377 . S
C1413 C1414 1.395 . S
C1413 H1436 0.931 . S
C1414 C1413 1.395 . S
C1414 C1415 1.383 . S
C1414 H1437 0.931 . S
C1415 C1414 1.383 . S
C1415 C1416 1.394 . S
C1416 C1415 1.394 . S
C1416 C1417 1.378 . S
C1416 H1438 0.931 . S
C1417 C1412 1.377 . S
C1417 C1416 1.378 . S
C1417 H1439 0.931 . S
C1418 O1428 1.259 . S
C1418 O1429 1.270 . S
C1419 O1430 1.251 . S
C1419 O1431 1.251 . S
O1420 C1400 1.257 . S
O1420 Eu1401 2.473 . S
O1421 C1400 1.260 . S
O1421 Eu1401 2.480 . S
O1422 Eu1401 2.430 . S
O1422 C1408 1.259 . S
O1423 Eu1401 2.670 . S
O1423 C1408 1.270 . S
O1423 Eu1411 2.355 . S
O1424 Eu1401 2.394 . S
O1424 C1409 1.251 . S
O1425 C1409 1.251 . S
O1425 Eu1411 2.374 . S
O1426 C1410 1.257 . S
O1426 Eu1411 2.473 . S
O1427 C1410 1.260 . S
O1427 Eu1411 2.480 . S
O1428 Eu1411 2.430 . S
O1428 C1418 1.259 . S
O1429 Eu1401 2.355 . S
O1429 Eu1411 2.670 . S
O1429 C1418 1.270 . S
O1430 Eu1411 2.394 . S
O1430 C1419 1.251 . S
O1431 Eu1401 2.374 . S
O1431 C1419 1.251 . S
H1432 C1403 0.931 . S
H1433 C1404 0.931 . S
H1434 C1406 0.931 1_545 S
H1435 C1407 0.931 . S
H1436 C1413 0.931 . S
H1437 C1414 0.931 . S
H1438 C1416 0.931 . S
H1439 C1417 0.931 . S
H1440 C1448 0.929 . S
H1441 C1450 0.930 . S
H1442 C1452 0.930 . S
H1443 C1455 0.929 . S
H1444 C1458 0.930 . S
H1445 C1460 0.960 . S
H1446 C1460 0.960 . S
H1447 C1460 0.960 . S
C1448 H1440 0.929 . S
C1448 C1449 1.377 . S
C1448 C1450 1.384 . S
C1449 C1448 1.377 . S
C1449 C1455 1.390 . S
C1450 H1441 0.930 . S
C1450 C1448 1.384 . S
C1450 C1451 1.372 . S
C1451 C1450 1.372 . S
C1451 C1452 1.400 . S
C1451 C1456 1.490 . S
C1452 H1442 0.930 . S
C1452 C1451 1.400 . S
C1452 C1455 1.386 . S
H1453 C1469 0.930 . S
H1454 C1470 0.931 1_545 S
C1455 H1443 0.929 . S
C1455 C1449 1.390 . S
C1455 C1452 1.386 . S
C1456 C1451 1.490 . S
C1456 C1458 1.395 . S
C1456 C1459 1.403 . S
H1457 C1463 0.930 . S
C1458 H1444 0.930 . S
C1458 C1456 1.395 . S
C1458 C1461 1.403 . S
C1459 C1456 1.403 . S
C1459 C1460 1.524 . S
C1459 C1463 1.400 . S
C1460 H1445 0.960 . S
C1460 H1446 0.960 . S
C1460 H1447 0.960 . S
C1460 C1459 1.524 . S
C1461 C1458 1.403 . S
C1461 C1462 1.392 . S
C1461 C1465 1.495 . S
C1462 C1461 1.392 . S
C1462 C1463 1.385 . S
C1462 C1464 1.478 . S
C1463 H1457 0.930 . S
C1463 C1459 1.400 . S
C1463 C1462 1.385 . S
C1464 C1462 1.478 . S
C1464 C1466 1.381 1_545 S
C1464 C1470 1.383 1_545 S
C1465 C1461 1.495 . S
C1465 H1471 0.959 . S
C1465 H1472 0.961 . S
C1465 H1473 0.960 . S
C1466 C1464 1.381 1_565 S
C1466 C1467 1.394 . S
C1466 H1474 0.930 1_565 S
C1467 C1466 1.394 . S
C1467 C1468 1.383 . S
C1467 H1475 0.929 . S
C1468 C1467 1.383 . S
C1468 C1469 1.377 . S
C1469 H1453 0.930 . S
C1469 C1468 1.377 . S
C1469 C1470 1.379 . S
C1470 H1454 0.931 1_565 S
C1470 C1464 1.383 1_565 S
C1470 C1469 1.379 . S
H1471 C1465 0.959 . S
H1472 C1465 0.961 . S
H1473 C1465 0.960 . S
H1474 C1466 0.930 1_545 S
H1475 C1467 0.929 . S
H1476 C1484 0.929 . S
H1477 C1486 0.930 . S
H1478 C1488 0.930 . S
H1479 C1491 0.929 . S
H1480 C1494 0.930 . S
H1481 C1496 0.960 . S
H1482 C1496 0.960 . S
H1483 C1496 0.960 . S
C1484 H1476 0.929 . S
C1484 C1485 1.377 . S
C1484 C1486 1.384 . S
C1485 C1484 1.377 . S
C1485 C1491 1.390 . S
C1486 H1477 0.930 . S
C1486 C1484 1.384 . S
C1486 C1487 1.372 1_455 S
C1487 C1486 1.372 1_655 S
C1487 C1488 1.400 . S
C1487 C1492 1.490 . S
C1488 H1478 0.930 . S
C1488 C1487 1.400 . S
C1488 C1491 1.385 1_655 S
H1489 C1505 0.930 . S
H1490 C1506 0.931 . S
C1491 H1479 0.929 . S
C1491 C1485 1.390 . S
C1491 C1488 1.385 1_455 S
C1492 C1487 1.490 . S
C1492 C1494 1.395 . S
C1492 C1495 1.403 . S
H1493 C1499 0.930 . S
C1494 H1480 0.930 . S
C1494 C1492 1.395 . S
C1494 C1497 1.403 . S
C1495 C1492 1.403 . S
C1495 C1496 1.524 . S
C1495 C1499 1.400 . S
C1496 H1481 0.960 . S
C1496 H1482 0.960 . S
C1496 H1483 0.960 . S
C1496 C1495 1.524 . S
C1497 C1494 1.403 . S
C1497 C1498 1.392 . S
C1497 C1501 1.495 . S
C1498 C1497 1.392 . S
C1498 C1499 1.385 . S
C1498 C1500 1.478 . S
C1499 H1493 0.930 . S
C1499 C1495 1.400 . S
C1499 C1498 1.385 . S
C1500 C1498 1.478 . S
C1500 C1502 1.381 . S
C1500 C1506 1.383 . S
C1501 C1497 1.495 . S
C1501 H1507 0.959 . S
C1501 H1508 0.961 . S
C1501 H1509 0.960 . S
C1502 C1500 1.381 . S
C1502 C1503 1.394 1_545 S
C1502 H1510 0.930 . S
C1503 C1502 1.394 1_565 S
C1503 C1504 1.383 . S
C1503 H1511 0.929 . S
C1504 C1503 1.383 . S
C1504 C1505 1.377 . S
C1505 H1489 0.930 . S
C1505 C1504 1.377 . S
C1505 C1506 1.379 1_565 S
C1506 H1490 0.931 . S
C1506 C1500 1.383 . S
C1506 C1505 1.379 1_545 S
H1507 C1501 0.959 . S
H1508 C1501 0.961 . S
H1509 C1501 0.960 . S
H1510 C1502 0.930 . S
H1511 C1503 0.929 . S
H1512 C1520 0.929 . S
H1513 C1522 0.930 . S
H1514 C1524 0.930 . S
H1515 C1527 0.929 . S
H1516 C1530 0.930 . S
H1517 C1532 0.960 . S
H1518 C1532 0.960 . S
H1519 C1532 0.960 . S
C1520 H1512 0.929 . S
C1520 C1521 1.377 . S
C1520 C1522 1.384 1_455 S
C1521 C1520 1.377 . S
C1521 C1527 1.390 . S
C1522 H1513 0.930 . S
C1522 C1520 1.384 1_655 S
C1522 C1523 1.372 . S
C1523 C1522 1.372 . S
C1523 C1524 1.400 . S
C1523 C1528 1.490 . S
C1524 H1514 0.930 . S
C1524 C1523 1.400 . S
C1524 C1527 1.386 1_655 S
H1525 C1541 0.930 . S
H1526 C1542 0.931 . S
C1527 H1515 0.929 . S
C1527 C1521 1.390 . S
C1527 C1524 1.386 1_455 S
C1528 C1523 1.490 . S
C1528 C1530 1.395 . S
C1528 C1531 1.403 . S
H1529 C1535 0.930 . S
C1530 H1516 0.930 . S
C1530 C1528 1.395 . S
C1530 C1533 1.403 . S
C1531 C1528 1.403 . S
C1531 C1532 1.524 . S
C1531 C1535 1.400 . S
C1532 H1517 0.960 . S
C1532 H1518 0.960 . S
C1532 H1519 0.960 . S
C1532 C1531 1.524 . S
C1533 C1530 1.403 . S
C1533 C1534 1.392 . S
C1533 C1537 1.495 . S
C1534 C1533 1.392 . S
C1534 C1535 1.385 . S
C1534 C1536 1.478 . S
C1535 H1529 0.930 . S
C1535 C1531 1.400 . S
C1535 C1534 1.385 . S
C1536 C1534 1.478 . S
C1536 C1538 1.381 . S
C1536 C1542 1.383 . S
C1537 C1533 1.495 . S
C1537 H1543 0.959 . S
C1537 H1544 0.961 . S
C1537 H1545 0.960 . S
C1538 C1536 1.381 . S
C1538 C1539 1.394 . S
C1538 H1546 0.930 . S
C1539 C1538 1.394 . S
C1539 C1540 1.383 . S
C1539 H1547 0.929 . S
C1540 C1539 1.383 . S
C1540 C1541 1.377 . S
C1541 H1525 0.930 . S
C1541 C1540 1.377 . S
C1541 C1542 1.379 . S
C1542 H1526 0.931 . S
C1542 C1536 1.383 . S
C1542 C1541 1.379 . S
H1543 C1537 0.959 . S
H1544 C1537 0.961 . S
H1545 C1537 0.960 . S
H1546 C1538 0.930 . S
H1547 C1539 0.929 . S
H1548 C1556 0.929 . S
H1549 C1558 0.930 . S
H1550 C1560 0.930 . S
H1551 C1563 0.929 . S
H1552 C1566 0.930 . S
H1553 C1568 0.960 . S
H1554 C1568 0.960 . S
H1555 C1568 0.960 . S
C1556 H1548 0.929 . S
C1556 C1557 1.377 . S
C1556 C1558 1.384 . S
C1557 C1556 1.377 . S
C1557 C1563 1.390 . S
C1558 H1549 0.930 . S
C1558 C1556 1.384 . S
C1558 C1559 1.372 . S
C1559 C1558 1.372 . S
C1559 C1560 1.400 . S
C1559 C1564 1.490 . S
C1560 H1550 0.930 . S
C1560 C1559 1.400 . S
C1560 C1563 1.386 . S
H1561 C1577 0.930 . S
H1562 C1578 0.938 . S
C1563 H1551 0.929 . S
C1563 C1557 1.390 . S
C1563 C1560 1.386 . S
C1564 C1559 1.490 . S
C1564 C1566 1.395 . S
C1564 C1567 1.403 . S
H1565 C1571 0.930 . S
C1566 H1552 0.930 . S
C1566 C1564 1.395 . S
C1566 C1569 1.403 . S
C1567 C1564 1.403 . S
C1567 C1568 1.524 . S
C1567 C1571 1.400 . S
C1568 H1553 0.960 . S
C1568 H1554 0.960 . S
C1568 H1555 0.960 . S
C1568 C1567 1.524 . S
C1569 C1566 1.403 . S
C1569 C1570 1.392 . S
C1569 C1573 1.495 . S
C1570 C1569 1.392 . S
C1570 C1571 1.385 . S
C1570 C1572 1.478 . S
C1571 H1565 0.930 . S
C1571 C1567 1.400 . S
C1571 C1570 1.385 . S
C1572 C1570 1.478 . S
C1572 C1574 1.381 1_455 S
C1572 C1578 1.391 . S
C1573 C1569 1.495 . S
C1573 H1579 0.959 . S
C1573 H1580 0.961 . S
C1573 H1581 0.960 . S
C1574 C1572 1.381 1_655 S
C1574 C1575 1.394 . S
C1574 H1582 0.930 . S
C1575 C1574 1.394 . S
C1575 C1576 1.383 . S
C1575 H1583 0.929 . S
C1576 C1575 1.383 . S
C1576 C1577 1.377 . S
C1577 H1561 0.930 . S
C1577 C1576 1.377 . S
C1577 C1578 1.364 1_655 S
C1578 H1562 0.938 . S
C1578 C1572 1.391 . S
C1578 C1577 1.364 1_455 S
H1579 C1573 0.959 . S
H1580 C1573 0.961 . S
H1581 C1573 0.960 . S
H1582 C1574 0.930 . S
H1583 C1575 0.929 . S
H1584 C1592 0.929 . S
H1585 C1594 0.930 . S
H1586 C1596 0.930 . S
H1587 C1599 0.929 . S
H1588 C1602 0.930 . S
H1589 C1604 0.960 . S
H1590 C1604 0.960 . S
H1591 C1604 0.960 . S
C1592 H1584 0.929 . S
C1592 C1593 1.377 . S
C1592 C1594 1.384 . S
C1593 C1592 1.377 . S
C1593 C1599 1.390 . S
C1594 H1585 0.930 . S
C1594 C1592 1.384 . S
C1594 C1595 1.372 . S
C1595 C1594 1.372 . S
C1595 C1596 1.400 . S
C1595 C1600 1.490 . S
C1596 H1586 0.930 . S
C1596 C1595 1.400 . S
C1596 C1599 1.386 . S
H1597 C1613 0.913 . S
H1598 C1614 0.931 . S
C1599 H1587 0.929 . S
C1599 C1593 1.390 . S
C1599 C1596 1.386 . S
C1600 C1595 1.490 . S
C1600 C1602 1.395 . S
C1600 C1603 1.403 . S
H1601 C1607 0.930 . S
C1602 H1588 0.930 . S
C1602 C1600 1.395 . S
C1602 C1605 1.403 . S
C1603 C1600 1.403 . S
C1603 C1604 1.524 . S
C1603 C1607 1.400 . S
C1604 H1589 0.960 . S
C1604 H1590 0.960 . S
C1604 H1591 0.960 . S
C1604 C1603 1.524 . S
C1605 C1602 1.403 . S
C1605 C1606 1.392 . S
C1605 C1609 1.495 . S
C1606 C1605 1.392 . S
C1606 C1607 1.385 . S
C1606 C1608 1.478 . S
C1607 H1601 0.930 . S
C1607 C1603 1.400 . S
C1607 C1606 1.385 . S
C1608 C1606 1.478 . S
C1608 C1610 1.381 1_565 S
C1608 C1614 1.383 . S
C1609 C1605 1.495 . S
C1609 H1615 0.959 . S
C1609 H1616 0.961 . S
C1609 H1617 0.960 . S
C1610 C1608 1.381 1_545 S
C1610 C1611 1.394 . S
C1610 H1618 0.930 . S
C1611 C1610 1.394 . S
C1611 C1612 1.383 . S
C1611 H1619 0.929 . S
C1612 C1611 1.383 . S
C1612 C1613 1.352 1_545 S
C1613 H1597 0.913 . S
C1613 C1612 1.352 1_565 S
C1613 C1614 1.422 . S
C1614 H1598 0.931 . S
C1614 C1608 1.383 . S
C1614 C1613 1.422 . S
H1615 C1609 0.959 . S
H1616 C1609 0.961 . S
H1617 C1609 0.960 . S
H1618 C1610 0.930 . S
H1619 C1611 0.929 . S
H1620 C1628 0.929 . S
H1621 C1630 0.930 . S
H1622 C1632 0.930 . S
H1623 C1635 0.929 . S
H1624 C1638 0.930 . S
H1625 C1640 0.960 . S
H1626 C1640 0.960 . S
H1627 C1640 0.960 . S
C1628 H1620 0.929 . S
C1628 C1629 1.377 . S
C1628 C1630 1.384 . S
C1629 C1628 1.377 . S
C1629 C1635 1.390 1_655 S
C1630 H1621 0.930 . S
C1630 C1628 1.384 . S
C1630 C1631 1.372 1_655 S
C1631 C1630 1.372 1_455 S
C1631 C1632 1.400 . S
C1631 C1636 1.490 . S
C1632 H1622 0.930 . S
C1632 C1631 1.400 . S
C1632 C1635 1.386 . S
H1633 C1649 0.930 . S
H1634 C1650 0.931 . S
C1635 H1623 0.929 . S
C1635 C1629 1.390 1_455 S
C1635 C1632 1.386 . S
C1636 C1631 1.490 . S
C1636 C1638 1.395 . S
C1636 C1639 1.403 . S
H1637 C1643 0.930 . S
C1638 H1624 0.930 . S
C1638 C1636 1.395 . S
C1638 C1641 1.403 . S
C1639 C1636 1.403 . S
C1639 C1640 1.524 . S
C1639 C1643 1.400 . S
C1640 H1625 0.960 . S
C1640 H1626 0.960 . S
C1640 H1627 0.960 . S
C1640 C1639 1.524 . S
C1641 C1638 1.403 . S
C1641 C1642 1.392 . S
C1641 C1645 1.495 . S
C1642 C1641 1.392 . S
C1642 C1643 1.385 . S
C1642 C1644 1.478 . S
C1643 H1637 0.930 . S
C1643 C1639 1.400 . S
C1643 C1642 1.385 . S
C1644 C1642 1.478 . S
C1644 C1646 1.381 1_565 S
C1644 C1650 1.383 . S
C1645 C1641 1.495 . S
C1645 H1651 0.959 . S
C1645 H1652 0.961 . S
C1645 H1653 0.960 . S
C1646 C1644 1.381 1_545 S
C1646 C1647 1.394 . S
C1646 H1654 0.930 . S
C1647 C1646 1.394 . S
C1647 C1648 1.383 . S
C1647 H1655 0.929 . S
C1648 C1647 1.383 . S
C1648 C1649 1.377 . S
C1649 H1633 0.930 . S
C1649 C1648 1.377 . S
C1649 C1650 1.379 1_545 S
C1650 H1634 0.931 . S
C1650 C1644 1.383 . S
C1650 C1649 1.379 1_565 S
H1651 C1645 0.959 . S
H1652 C1645 0.961 . S
H1653 C1645 0.960 . S
H1654 C1646 0.930 . S
H1655 C1647 0.929 . S
H1656 C1664 0.929 . S
H1657 C1666 0.930 . S
H1658 C1668 0.930 . S
H1659 C1671 0.929 . S
H1660 C1674 0.930 . S
H1661 C1676 0.960 . S
H1662 C1676 0.960 . S
H1663 C1676 0.960 . S
C1664 H1656 0.929 . S
C1664 C1665 1.377 . S
C1664 C1666 1.384 . S
C1665 C1664 1.377 . S
C1665 C1671 1.390 . S
C1666 H1657 0.930 . S
C1666 C1664 1.384 . S
C1666 C1667 1.372 . S
C1667 C1666 1.372 . S
C1667 C1668 1.400 . S
C1667 C1672 1.490 . S
C1668 H1658 0.930 . S
C1668 C1667 1.400 . S
C1668 C1671 1.386 . S
H1669 C1685 0.930 . S
H1670 C1686 0.931 . S
C1671 H1659 0.929 . S
C1671 C1665 1.390 . S
C1671 C1668 1.386 . S
C1672 C1667 1.490 . S
C1672 C1674 1.395 . S
C1672 C1675 1.403 . S
H1673 C1679 0.930 . S
C1674 H1660 0.930 . S
C1674 C1672 1.395 . S
C1674 C1677 1.403 . S
C1675 C1672 1.403 . S
C1675 C1676 1.524 . S
C1675 C1679 1.400 . S
C1676 H1661 0.960 . S
C1676 H1662 0.960 . S
C1676 H1663 0.960 . S
C1676 C1675 1.524 . S
C1677 C1674 1.403 . S
C1677 C1678 1.392 . S
C1677 C1681 1.495 . S
C1678 C1677 1.392 . S
C1678 C1679 1.385 . S
C1678 C1680 1.478 . S
C1679 H1673 0.930 . S
C1679 C1675 1.400 . S
C1679 C1678 1.385 . S
C1680 C1678 1.478 . S
C1680 C1682 1.381 . S
C1680 C1686 1.383 1_565 S
C1681 C1677 1.495 . S
C1681 H1687 0.959 . S
C1681 H1688 0.961 . S
C1681 H1689 0.960 . S
C1682 C1680 1.381 . S
C1682 C1683 1.394 1_565 S
C1682 H1690 0.930 . S
C1683 C1682 1.394 1_545 S
C1683 C1684 1.383 . S
C1683 H1691 0.929 . S
C1684 C1683 1.383 . S
C1684 C1685 1.377 . S
C1685 H1669 0.930 . S
C1685 C1684 1.377 . S
C1685 C1686 1.379 . S
C1686 H1670 0.931 . S
C1686 C1680 1.383 1_545 S
C1686 C1685 1.379 . S
H1687 C1681 0.959 . S
H1688 C1681 0.961 . S
H1689 C1681 0.960 . S
H1690 C1682 0.930 . S
H1691 C1683 0.929 . S
H1692 C1700 0.929 . S
H1693 C1702 0.930 . S
H1694 C1704 0.930 . S
H1695 C1707 0.929 . S
H1696 C1710 0.930 . S
H1697 C1712 0.960 . S
H1698 C1712 0.960 . S
H1699 C1712 0.960 . S
C1700 H1692 0.929 . S
C1700 C1701 1.377 . S
C1700 C1702 1.384 1_545 S
C1701 C1700 1.377 . S
C1701 C1707 1.390 . S
C1702 H1693 0.930 . S
C1702 C1700 1.384 1_565 S
C1702 C1703 1.372 . S
C1703 C1702 1.372 . S
C1703 C1704 1.400 . S
C1703 C1708 1.490 . S
C1704 H1694 0.930 . S
C1704 C1703 1.400 . S
C1704 C1707 1.386 1_565 S
H1705 C1721 0.930 . S
H1706 C1722 0.931 1_455 S
C1707 H1695 0.929 . S
C1707 C1701 1.390 . S
C1707 C1704 1.386 1_545 S
C1708 C1703 1.490 . S
C1708 C1710 1.395 . S
C1708 C1711 1.403 . S
H1709 C1715 0.930 . S
C1710 H1696 0.930 . S
C1710 C1708 1.395 . S
C1710 C1713 1.403 . S
C1711 C1708 1.403 . S
C1711 C1712 1.524 . S
C1711 C1715 1.400 . S
C1712 H1697 0.960 . S
C1712 H1698 0.960 . S
C1712 H1699 0.960 . S
C1712 C1711 1.524 . S
C1713 C1710 1.403 . S
C1713 C1714 1.392 . S
C1713 C1717 1.495 . S
C1714 C1713 1.392 . S
C1714 C1715 1.385 . S
C1714 C1716 1.478 . S
C1715 H1709 0.930 . S
C1715 C1711 1.400 . S
C1715 C1714 1.385 . S
C1716 C1714 1.478 . S
C1716 C1718 1.381 1_455 S
C1716 C1722 1.383 1_455 S
C1717 C1713 1.495 . S
C1717 H1723 0.959 . S
C1717 H1724 0.961 . S
C1717 H1725 0.960 . S
C1718 C1716 1.381 1_655 S
C1718 C1719 1.394 . S
C1718 H1726 0.930 . S
C1719 C1718 1.394 . S
C1719 C1720 1.383 . S
C1719 H1727 0.929 . S
C1720 C1719 1.383 . S
C1720 C1721 1.377 . S
C1721 H1705 0.930 . S
C1721 C1720 1.377 . S
C1721 C1722 1.379 . S
C1722 H1706 0.931 1_655 S
C1722 C1716 1.383 1_655 S
C1722 C1721 1.379 . S
H1723 C1717 0.959 . S
H1724 C1717 0.961 . S
H1725 C1717 0.960 . S
H1726 C1718 0.930 . S
H1727 C1719 0.929 . S
H1728 C1736 0.947 . S
H1729 C1738 0.930 . S
H1730 C1740 0.930 . S
H1731 C1743 0.929 . S
H1732 C1746 0.930 . S
H1733 C1748 0.960 . S
H1734 C1748 0.960 . S
H1735 C1748 0.960 . S
C1736 H1728 0.947 . S
C1736 C1737 1.400 . S
C1736 C1738 1.345 1_655 S
C1737 C1736 1.400 . S
C1737 C1743 1.390 . S
C1738 H1729 0.930 . S
C1738 C1736 1.345 1_455 S
C1738 C1739 1.372 . S
C1739 C1738 1.372 . S
C1739 C1740 1.400 . S
C1739 C1744 1.490 . S
C1740 H1730 0.930 . S
C1740 C1739 1.400 . S
C1740 C1743 1.386 1_455 S
H1741 C1757 0.930 . S
H1742 C1758 0.931 . S
C1743 H1731 0.929 . S
C1743 C1737 1.390 . S
C1743 C1740 1.386 1_655 S
C1744 C1739 1.490 . S
C1744 C1746 1.395 . S
C1744 C1747 1.403 . S
H1745 C1751 0.930 . S
C1746 H1732 0.930 . S
C1746 C1744 1.395 . S
C1746 C1749 1.403 . S
C1747 C1744 1.403 . S
C1747 C1748 1.524 . S
C1747 C1751 1.400 . S
C1748 H1733 0.960 . S
C1748 H1734 0.960 . S
C1748 H1735 0.960 . S
C1748 C1747 1.524 . S
C1749 C1746 1.403 . S
C1749 C1750 1.392 . S
C1749 C1753 1.495 . S
C1750 C1749 1.392 . S
C1750 C1751 1.385 . S
C1750 C1752 1.478 . S
C1751 H1745 0.930 . S
C1751 C1747 1.400 . S
C1751 C1750 1.385 . S
C1752 C1750 1.478 . S
C1752 C1754 1.381 . S
C1752 C1758 1.383 . S
C1753 C1749 1.495 . S
C1753 H1759 0.959 . S
C1753 H1760 0.961 . S
C1753 H1761 0.960 . S
C1754 C1752 1.381 . S
C1754 C1755 1.394 . S
C1754 H1762 0.930 . S
C1755 C1754 1.394 . S
C1755 C1756 1.383 . S
C1755 H1763 0.929 . S
C1756 C1755 1.383 . S
C1756 C1757 1.377 . S
C1757 H1741 0.930 . S
C1757 C1756 1.377 . S
C1757 C1758 1.379 . S
C1758 H1742 0.931 . S
C1758 C1752 1.383 . S
C1758 C1757 1.379 . S
H1759 C1753 0.959 . S
H1760 C1753 0.961 . S
H1761 C1753 0.960 . S
H1762 C1754 0.930 . S
H1763 C1755 0.929 . S
H1764 C1772 0.929 . S
H1765 C1774 0.930 . S
H1766 C1776 0.930 . S
H1767 C1779 0.929 . S
H1768 C1782 0.930 . S
H1769 C1784 0.960 . S
H1770 C1784 0.960 . S
H1771 C1784 0.960 . S
C1772 H1764 0.929 . S
C1772 C1773 1.377 . S
C1772 C1774 1.384 . S
C1773 C1772 1.377 . S
C1773 C1779 1.390 . S
C1774 H1765 0.930 . S
C1774 C1772 1.384 . S
C1774 C1775 1.372 . S
C1775 C1774 1.372 . S
C1775 C1776 1.400 . S
C1775 C1780 1.490 . S
C1776 H1766 0.930 . S
C1776 C1775 1.400 . S
C1776 C1779 1.386 . S
H1777 C1793 0.930 . S
H1778 C1794 0.931 . S
C1779 H1767 0.929 . S
C1779 C1773 1.390 . S
C1779 C1776 1.386 . S
C1780 C1775 1.490 . S
C1780 C1782 1.395 . S
C1780 C1783 1.403 . S
H1781 C1787 0.930 . S
C1782 H1768 0.930 . S
C1782 C1780 1.395 . S
C1782 C1785 1.403 . S
C1783 C1780 1.403 . S
C1783 C1784 1.524 . S
C1783 C1787 1.400 . S
C1784 H1769 0.960 . S
C1784 H1770 0.960 . S
C1784 H1771 0.960 . S
C1784 C1783 1.524 . S
C1785 C1782 1.403 . S
C1785 C1786 1.392 . S
C1785 C1789 1.495 . S
C1786 C1785 1.392 . S
C1786 C1787 1.385 . S
C1786 C1788 1.478 . S
C1787 H1781 0.930 . S
C1787 C1783 1.400 . S
C1787 C1786 1.385 . S
C1788 C1786 1.478 . S
C1788 C1790 1.381 . S
C1788 C1794 1.383 1_655 S
C1789 C1785 1.495 . S
C1789 H1795 0.959 . S
C1789 H1796 0.961 . S
C1789 H1797 0.960 . S
C1790 C1788 1.381 . S
C1790 C1791 1.394 1_655 S
C1790 H1798 0.930 . S
C1791 C1790 1.394 1_455 S
C1791 C1792 1.383 . S
C1791 H1799 0.929 . S
C1792 C1791 1.383 . S
C1792 C1793 1.377 . S
C1793 H1777 0.930 . S
C1793 C1792 1.377 . S
C1793 C1794 1.379 . S
C1794 H1778 0.931 . S
C1794 C1788 1.383 1_455 S
C1794 C1793 1.379 . S
H1795 C1789 0.959 . S
H1796 C1789 0.961 . S
H1797 C1789 0.960 . S
H1798 C1790 0.930 . S
H1799 C1791 0.929 . S
H1800 C1808 0.929 . S
H1801 C1810 0.930 . S
H1802 C1812 0.930 . S
H1803 C1815 0.929 . S
H1804 C1818 0.930 . S
H1805 C1820 0.960 . S
H1806 C1820 0.960 . S
H1807 C1820 0.960 . S
C1808 H1800 0.929 . S
C1808 C1809 1.377 . S
C1808 C1810 1.384 . S
C1809 C1808 1.377 . S
C1809 C1815 1.390 . S
C1810 H1801 0.930 . S
C1810 C1808 1.384 . S
C1810 C1811 1.372 . S
C1811 C1810 1.372 . S
C1811 C1812 1.400 . S
C1811 C1816 1.490 . S
C1812 H1802 0.930 . S
C1812 C1811 1.400 . S
C1812 C1815 1.386 . S
H1813 C1829 0.930 . S
H1814 C1830 0.931 . S
C1815 H1803 0.929 . S
C1815 C1809 1.390 . S
C1815 C1812 1.386 . S
C1816 C1811 1.490 . S
C1816 C1818 1.395 . S
C1816 C1819 1.403 . S
H1817 C1823 0.930 . S
C1818 H1804 0.930 . S
C1818 C1816 1.395 . S
C1818 C1821 1.403 . S
C1819 C1816 1.403 . S
C1819 C1820 1.524 . S
C1819 C1823 1.400 . S
C1820 H1805 0.960 . S
C1820 H1806 0.960 . S
C1820 H1807 0.960 . S
C1820 C1819 1.524 . S
C1821 C1818 1.403 . S
C1821 C1822 1.392 . S
C1821 C1825 1.495 . S
C1822 C1821 1.392 . S
C1822 C1823 1.385 . S
C1822 C1824 1.478 . S
C1823 H1817 0.930 . S
C1823 C1819 1.400 . S
C1823 C1822 1.385 . S
C1824 C1822 1.478 . S
C1824 C1826 1.381 . S
C1824 C1830 1.383 . S
C1825 C1821 1.495 . S
C1825 H1831 0.959 . S
C1825 H1832 0.961 . S
C1825 H1833 0.960 . S
C1826 C1824 1.381 . S
C1826 C1827 1.405 . S
C1826 H1834 0.930 . S
C1827 C1826 1.405 . S
C1827 C1828 1.378 1_545 S
C1827 H1835 0.925 1_545 S
C1828 C1827 1.378 1_565 S
C1828 C1829 1.377 . S
C1829 H1813 0.930 . S
C1829 C1828 1.377 . S
C1829 C1830 1.379 1_565 S
C1830 H1814 0.931 . S
C1830 C1824 1.383 . S
C1830 C1829 1.379 1_545 S
H1831 C1825 0.959 . S
H1832 C1825 0.961 . S
H1833 C1825 0.960 . S
H1834 C1826 0.930 . S
H1835 C1827 0.925 1_565 S
H1836 C1844 0.929 . S
H1837 C1846 0.930 . S
H1838 C1848 0.930 . S
H1839 C1851 0.929 . S
H1840 C1854 0.930 . S
H1841 C1856 0.960 . S
H1842 C1856 0.960 . S
H1843 C1856 0.960 . S
C1844 H1836 0.929 . S
C1844 C1845 1.377 . S
C1844 C1846 1.384 . S
C1845 C1844 1.377 . S
C1845 C1851 1.390 . S
C1846 H1837 0.930 . S
C1846 C1844 1.384 . S
C1846 C1847 1.372 1_565 S
C1847 C1846 1.372 1_545 S
C1847 C1848 1.400 . S
C1847 C1852 1.490 . S
C1848 H1838 0.930 . S
C1848 C1847 1.400 . S
C1848 C1851 1.386 1_545 S
H1849 C1865 0.930 . S
H1850 C1866 0.931 . S
C1851 H1839 0.929 . S
C1851 C1845 1.390 . S
C1851 C1848 1.386 1_565 S
C1852 C1847 1.490 . S
C1852 C1854 1.395 . S
C1852 C1855 1.403 . S
H1853 C1859 0.930 . S
C1854 H1840 0.930 . S
C1854 C1852 1.395 . S
C1854 C1857 1.403 . S
C1855 C1852 1.403 . S
C1855 C1856 1.524 . S
C1855 C1859 1.400 . S
C1856 H1841 0.960 . S
C1856 H1842 0.960 . S
C1856 H1843 0.960 . S
C1856 C1855 1.524 . S
C1857 C1854 1.403 . S
C1857 C1858 1.392 . S
C1857 C1861 1.495 . S
C1858 C1857 1.392 . S
C1858 C1859 1.385 . S
C1858 C1860 1.478 . S
C1859 H1853 0.930 . S
C1859 C1855 1.400 . S
C1859 C1858 1.385 . S
C1860 C1858 1.478 . S
C1860 C1862 1.370 1_655 S
C1860 C1866 1.383 . S
C1861 C1857 1.495 . S
C1861 H1867 0.959 . S
C1861 H1868 0.961 . S
C1861 H1869 0.960 . S
C1862 C1860 1.370 1_455 S
C1862 C1863 1.400 . S
C1862 H1870 0.940 1_455 S
C1863 C1862 1.400 . S
C1863 C1864 1.383 . S
C1863 H1871 0.929 . S
C1864 C1863 1.383 . S
C1864 C1865 1.377 . S
C1865 H1849 0.930 . S
C1865 C1864 1.377 . S
C1865 C1866 1.379 1_455 S
C1866 H1850 0.931 . S
C1866 C1860 1.383 . S
C1866 C1865 1.379 1_655 S
H1867 C1861 0.959 . S
H1868 C1861 0.961 . S
H1869 C1861 0.960 . S
H1870 C1862 0.940 1_655 S
H1871 C1863 0.929 . S
H1872 C1880 0.929 . S
H1873 C1882 0.930 . S
H1874 C1884 0.930 . S
H1875 C1887 0.929 . S
H1876 C1890 0.930 . S
H1877 C1892 0.960 . S
H1878 C1892 0.960 . S
H1879 C1892 0.960 . S
C1880 H1872 0.929 . S
C1880 C1881 1.377 . S
C1880 C1882 1.384 . S
C1881 C1880 1.377 . S
C1881 C1887 1.390 . S
C1882 H1873 0.930 . S
C1882 C1880 1.384 . S
C1882 C1883 1.372 . S
C1883 C1882 1.372 . S
C1883 C1884 1.400 . S
C1883 C1888 1.490 . S
C1884 H1874 0.930 . S
C1884 C1883 1.400 . S
C1884 C1887 1.386 . S
H1885 C1901 0.930 . S
H1886 C1902 0.931 . S
C1887 H1875 0.929 . S
C1887 C1881 1.390 . S
C1887 C1884 1.386 . S
C1888 C1883 1.490 . S
C1888 C1890 1.395 . S
C1888 C1891 1.403 . S
H1889 C1895 0.930 . S
C1890 H1876 0.930 . S
C1890 C1888 1.395 . S
C1890 C1893 1.403 . S
C1891 C1888 1.403 . S
C1891 C1892 1.524 . S
C1891 C1895 1.400 . S
C1892 H1877 0.960 . S
C1892 H1878 0.960 . S
C1892 H1879 0.960 . S
C1892 C1891 1.524 . S
C1893 C1890 1.403 . S
C1893 C1894 1.392 . S
C1893 C1897 1.495 . S
C1894 C1893 1.392 . S
C1894 C1895 1.385 . S
C1894 C1896 1.478 . S
C1895 H1889 0.930 . S
C1895 C1891 1.400 . S
C1895 C1894 1.385 . S
C1896 C1894 1.478 . S
C1896 C1898 1.381 . S
C1896 C1902 1.383 . S
C1897 C1893 1.495 . S
C1897 H1903 0.959 . S
C1897 H1904 0.961 . S
C1897 H1905 0.960 . S
C1898 C1896 1.381 . S
C1898 C1899 1.394 . S
C1898 H1906 0.930 . S
C1899 C1898 1.394 . S
C1899 C1900 1.383 . S
C1899 H1907 0.929 . S
C1900 C1899 1.383 . S
C1900 C1901 1.377 . S
C1901 H1885 0.930 . S
C1901 C1900 1.377 . S
C1901 C1902 1.379 . S
C1902 H1886 0.931 . S
C1902 C1896 1.383 . S
C1902 C1901 1.379 . S
H1903 C1897 0.959 . S
H1904 C1897 0.961 . S
H1905 C1897 0.960 . S
H1906 C1898 0.930 . S
H1907 C1899 0.929 . S
H1908 C1916 0.929 . S
H1909 C1918 0.930 . S
H1910 C1920 0.930 . S
H1911 C1923 0.929 . S
H1912 C1926 0.930 . S
H1913 C1928 0.960 . S
H1914 C1928 0.960 . S
H1915 C1928 0.960 . S
C1916 H1908 0.929 . S
C1916 C1917 1.377 . S
C1916 C1918 1.384 . S
C1917 C1916 1.377 . S
C1917 C1923 1.390 . S
C1918 H1909 0.930 . S
C1918 C1916 1.384 . S
C1918 C1919 1.372 . S
C1919 C1918 1.372 . S
C1919 C1920 1.400 . S
C1919 C1924 1.490 . S
C1920 H1910 0.930 . S
C1920 C1919 1.400 . S
C1920 C1923 1.386 . S
H1921 C1937 0.930 . S
H1922 C1938 0.931 . S
C1923 H1911 0.929 . S
C1923 C1917 1.390 . S
C1923 C1920 1.386 . S
C1924 C1919 1.490 . S
C1924 C1926 1.395 . S
C1924 C1927 1.403 . S
H1925 C1931 0.930 . S
C1926 H1912 0.930 . S
C1926 C1924 1.395 . S
C1926 C1929 1.403 . S
C1927 C1924 1.403 . S
C1927 C1928 1.524 . S
C1927 C1931 1.400 . S
C1928 H1913 0.960 . S
C1928 H1914 0.960 . S
C1928 H1915 0.960 . S
C1928 C1927 1.524 . S
C1929 C1926 1.403 . S
C1929 C1930 1.392 . S
C1929 C1933 1.495 . S
C1930 C1929 1.392 . S
C1930 C1931 1.385 . S
C1930 C1932 1.478 . S
C1931 H1925 0.930 . S
C1931 C1927 1.400 . S
C1931 C1930 1.385 . S
C1932 C1930 1.478 . S
C1932 C1934 1.381 . S
C1932 C1938 1.383 . S
C1933 C1929 1.495 . S
C1933 H1939 0.959 . S
C1933 H1940 0.961 . S
C1933 H1941 0.960 . S
C1934 C1932 1.381 . S
C1934 C1935 1.394 . S
C1934 H1942 0.930 . S
C1935 C1934 1.394 . S
C1935 C1936 1.383 . S
C1935 H1943 0.929 . S
C1936 C1935 1.383 . S
C1936 C1937 1.377 . S
C1937 H1921 0.930 . S
C1937 C1936 1.377 . S
C1937 C1938 1.379 . S
C1938 H1922 0.931 . S
C1938 C1932 1.383 . S
C1938 C1937 1.379 . S
H1939 C1933 0.959 . S
H1940 C1933 0.961 . S
H1941 C1933 0.960 . S
H1942 C1934 0.930 . S
H1943 C1935 0.929 . S
H1944 C1952 0.929 . S
H1945 C1954 0.930 . S
H1946 C1956 0.930 . S
H1947 C1959 0.929 . S
H1948 C1962 0.930 . S
H1949 C1964 0.960 . S
H1950 C1964 0.960 . S
H1951 C1964 0.960 . S
C1952 H1944 0.929 . S
C1952 C1953 1.377 . S
C1952 C1954 1.384 . S
C1953 C1952 1.377 . S
C1953 C1959 1.390 . S
C1954 H1945 0.930 . S
C1954 C1952 1.384 . S
C1954 C1955 1.372 . S
C1955 C1954 1.372 . S
C1955 C1956 1.400 . S
C1955 C1960 1.490 . S
C1956 H1946 0.930 . S
C1956 C1955 1.400 . S
C1956 C1959 1.386 . S
H1957 C1973 0.930 . S
H1958 C1974 0.931 . S
C1959 H1947 0.929 . S
C1959 C1953 1.390 . S
C1959 C1956 1.386 . S
C1960 C1955 1.490 . S
C1960 C1962 1.395 . S
C1960 C1963 1.403 . S
H1961 C1967 0.930 . S
C1962 H1948 0.930 . S
C1962 C1960 1.395 . S
C1962 C1965 1.403 . S
C1963 C1960 1.403 . S
C1963 C1964 1.524 . S
C1963 C1967 1.400 . S
C1964 H1949 0.960 . S
C1964 H1950 0.960 . S
C1964 H1951 0.960 . S
C1964 C1963 1.524 . S
C1965 C1962 1.403 . S
C1965 C1966 1.392 . S
C1965 C1969 1.495 . S
C1966 C1965 1.392 . S
C1966 C1967 1.385 . S
C1966 C1968 1.478 . S
C1967 H1961 0.930 . S
C1967 C1963 1.400 . S
C1967 C1966 1.385 . S
C1968 C1966 1.478 . S
C1968 C1970 1.381 . S
C1968 C1974 1.383 . S
C1969 C1965 1.495 . S
C1969 H1975 0.959 . S
C1969 H1976 0.961 . S
C1969 H1977 0.960 . S
C1970 C1968 1.381 . S
C1970 C1971 1.394 . S
C1970 H1978 0.930 . S
C1971 C1970 1.394 . S
C1971 C1972 1.383 . S
C1971 H1979 0.929 . S
C1972 C1971 1.383 . S
C1972 C1973 1.377 . S
C1973 H1957 0.930 . S
C1973 C1972 1.377 . S
C1973 C1974 1.379 . S
C1974 H1958 0.931 . S
C1974 C1968 1.383 . S
C1974 C1973 1.379 . S
H1975 C1969 0.959 . S
H1976 C1969 0.961 . S
H1977 C1969 0.960 . S
H1978 C1970 0.930 . S
H1979 C1971 0.929 . S
H1980 C1988 0.929 . S
H1981 C1990 0.930 . S
H1982 C1992 0.930 . S
H1983 C1995 0.929 . S
H1984 C1998 0.930 . S
H1985 C2000 0.960 . S
H1986 C2000 0.960 . S
H1987 C2000 0.960 . S
C1988 H1980 0.929 . S
C1988 C1989 1.377 . S
C1988 C1990 1.384 . S
C1989 C1988 1.377 . S
C1989 C1995 1.390 . S
C1990 H1981 0.930 . S
C1990 C1988 1.384 . S
C1990 C1991 1.372 . S
C1991 C1990 1.372 . S
C1991 C1992 1.400 . S
C1991 C1996 1.490 . S
C1992 H1982 0.930 . S
C1992 C1991 1.400 . S
C1992 C1995 1.386 . S
H1993 C2009 0.930 . S
H1994 C2010 0.931 . S
C1995 H1983 0.929 . S
C1995 C1989 1.390 . S
C1995 C1992 1.386 . S
C1996 C1991 1.490 . S
C1996 C1998 1.395 . S
C1996 C1999 1.403 . S
H1997 C2003 0.930 . S
C1998 H1984 0.930 . S
C1998 C1996 1.395 . S
C1998 C2001 1.403 . S
C1999 C1996 1.403 . S
C1999 C2000 1.524 . S
C1999 C2003 1.400 . S
C2000 H1985 0.960 . S
C2000 H1986 0.960 . S
C2000 H1987 0.960 . S
C2000 C1999 1.524 . S
C2001 C1998 1.403 . S
C2001 C2002 1.392 . S
C2001 C2005 1.495 . S
C2002 C2001 1.392 . S
C2002 C2003 1.385 . S
C2002 C2004 1.478 . S
C2003 H1997 0.930 . S
C2003 C1999 1.400 . S
C2003 C2002 1.385 . S
C2004 C2002 1.478 . S
C2004 C2006 1.381 . S
C2004 C2010 1.383 . S
C2005 C2001 1.495 . S
C2005 H2011 0.959 . S
C2005 H2012 0.961 . S
C2005 H2013 0.960 . S
C2006 C2004 1.381 . S
C2006 C2007 1.394 . S
C2006 H2014 0.930 . S
C2007 C2006 1.394 . S
C2007 C2008 1.383 . S
C2007 H2015 0.929 . S
C2008 C2007 1.383 . S
C2008 C2009 1.377 . S
C2009 H1993 0.930 . S
C2009 C2008 1.377 . S
C2009 C2010 1.379 . S
C2010 H1994 0.931 . S
C2010 C2004 1.383 . S
C2010 C2009 1.379 . S
H2011 C2005 0.959 . S
H2012 C2005 0.961 . S
H2013 C2005 0.960 . S
H2014 C2006 0.930 . S
H2015 C2007 0.929 . S
H2016 C2024 0.929 . S
H2017 C2026 0.930 . S
H2018 C2028 0.930 . S
H2019 C2031 0.929 . S
H2020 C2034 0.930 . S
H2021 C2036 0.960 . S
H2022 C2036 0.960 . S
H2023 C2036 0.960 . S
C2024 H2016 0.929 . S
C2024 C2025 1.377 . S
C2024 C2026 1.384 . S
C2025 C2024 1.377 . S
C2025 C2031 1.390 . S
C2026 H2017 0.930 . S
C2026 C2024 1.384 . S
C2026 C2027 1.372 . S
C2027 C2026 1.372 . S
C2027 C2028 1.400 . S
C2027 C2032 1.490 . S
C2028 H2018 0.930 . S
C2028 C2027 1.400 . S
C2028 C2031 1.386 . S
H2029 C2045 0.930 . S
H2030 C2046 0.931 . S
C2031 H2019 0.929 . S
C2031 C2025 1.390 . S
C2031 C2028 1.386 . S
C2032 C2027 1.490 . S
C2032 C2034 1.395 . S
C2032 C2035 1.403 . S
H2033 C2039 0.930 . S
C2034 H2020 0.930 . S
C2034 C2032 1.395 . S
C2034 C2037 1.403 . S
C2035 C2032 1.403 . S
C2035 C2036 1.524 . S
C2035 C2039 1.400 . S
C2036 H2021 0.960 . S
C2036 H2022 0.960 . S
C2036 H2023 0.960 . S
C2036 C2035 1.524 . S
C2037 C2034 1.403 . S
C2037 C2038 1.392 . S
C2037 C2041 1.495 . S
C2038 C2037 1.392 . S
C2038 C2039 1.385 . S
C2038 C2040 1.478 . S
C2039 H2033 0.930 . S
C2039 C2035 1.400 . S
C2039 C2038 1.385 . S
C2040 C2038 1.478 . S
C2040 C2042 1.381 . S
C2040 C2046 1.383 . S
C2041 C2037 1.495 . S
C2041 H2047 0.959 . S
C2041 H2048 0.961 . S
C2041 H2049 0.960 . S
C2042 C2040 1.381 . S
C2042 C2043 1.394 . S
C2042 H2050 0.930 . S
C2043 C2042 1.394 . S
C2043 C2044 1.383 . S
C2043 H2051 0.929 . S
C2044 C2043 1.383 . S
C2044 C2045 1.377 . S
C2045 H2029 0.930 . S
C2045 C2044 1.377 . S
C2045 C2046 1.379 . S
C2046 H2030 0.931 . S
C2046 C2040 1.383 . S
C2046 C2045 1.379 . S
H2047 C2041 0.959 . S
H2048 C2041 0.961 . S
H2049 C2041 0.960 . S
H2050 C2042 0.930 . S
H2051 C2043 0.929 . S
H2052 C2060 0.929 . S
H2053 C2062 0.930 . S
H2054 C2064 0.930 . S
H2055 C2067 0.929 . S
H2056 C2070 0.930 . S
H2057 C2072 0.960 . S
H2058 C2072 0.960 . S
H2059 C2072 0.960 . S
C2060 H2052 0.929 . S
C2060 C2061 1.377 . S
C2060 C2062 1.384 . S
C2061 C2060 1.377 . S
C2061 C2067 1.390 . S
C2062 H2053 0.930 . S
C2062 C2060 1.384 . S
C2062 C2063 1.372 . S
C2063 C2062 1.372 . S
C2063 C2064 1.400 . S
C2063 C2068 1.490 . S
C2064 H2054 0.930 . S
C2064 C2063 1.400 . S
C2064 C2067 1.386 . S
H2065 C2081 0.930 . S
H2066 C2082 0.931 . S
C2067 H2055 0.929 . S
C2067 C2061 1.390 . S
C2067 C2064 1.386 . S
C2068 C2063 1.490 . S
C2068 C2070 1.395 . S
C2068 C2071 1.403 . S
H2069 C2075 0.930 . S
C2070 H2056 0.930 . S
C2070 C2068 1.395 . S
C2070 C2073 1.403 . S
C2071 C2068 1.403 . S
C2071 C2072 1.524 . S
C2071 C2075 1.400 . S
C2072 H2057 0.960 . S
C2072 H2058 0.960 . S
C2072 H2059 0.960 . S
C2072 C2071 1.524 . S
C2073 C2070 1.403 . S
C2073 C2074 1.392 . S
C2073 C2077 1.495 . S
C2074 C2073 1.392 . S
C2074 C2075 1.385 . S
C2074 C2076 1.478 . S
C2075 H2069 0.930 . S
C2075 C2071 1.400 . S
C2075 C2074 1.385 . S
C2076 C2074 1.478 . S
C2076 C2078 1.381 . S
C2076 C2082 1.383 . S
C2077 C2073 1.495 . S
C2077 H2083 0.959 . S
C2077 H2084 0.961 . S
C2077 H2085 0.960 . S
C2078 C2076 1.381 . S
C2078 C2079 1.394 . S
C2078 H2086 0.930 . S
C2079 C2078 1.394 . S
C2079 C2080 1.383 . S
C2079 H2087 0.929 . S
C2080 C2079 1.383 . S
C2080 C2081 1.377 . S
C2081 H2065 0.930 . S
C2081 C2080 1.377 . S
C2081 C2082 1.379 . S
C2082 H2066 0.931 . S
C2082 C2076 1.383 . S
C2082 C2081 1.379 . S
H2083 C2077 0.959 . S
H2084 C2077 0.961 . S
H2085 C2077 0.960 . S
H2086 C2078 0.930 . S
H2087 C2079 0.929 . S
H2088 C2096 0.929 . S
H2089 C2098 0.930 . S
H2090 C2100 0.930 . S
H2091 C2103 0.929 . S
H2092 C2106 0.930 . S
H2093 C2108 0.960 . S
H2094 C2108 0.960 . S
H2095 C2108 0.960 . S
C2096 H2088 0.929 . S
C2096 C2097 1.377 . S
C2096 C2098 1.384 . S
C2097 C2096 1.377 . S
C2097 C2103 1.390 . S
C2098 H2089 0.930 . S
C2098 C2096 1.384 . S
C2098 C2099 1.372 . S
C2099 C2098 1.372 . S
C2099 C2100 1.400 . S
C2099 C2104 1.490 . S
C2100 H2090 0.930 . S
C2100 C2099 1.400 . S
C2100 C2103 1.386 . S
H2101 C2117 0.930 . S
H2102 C2118 0.931 . S
C2103 H2091 0.929 . S
C2103 C2097 1.390 . S
C2103 C2100 1.386 . S
C2104 C2099 1.490 . S
C2104 C2106 1.395 . S
C2104 C2107 1.403 . S
H2105 C2111 0.930 . S
C2106 H2092 0.930 . S
C2106 C2104 1.395 . S
C2106 C2109 1.403 . S
C2107 C2104 1.403 . S
C2107 C2108 1.524 . S
C2107 C2111 1.400 . S
C2108 H2093 0.960 . S
C2108 H2094 0.960 . S
C2108 H2095 0.960 . S
C2108 C2107 1.524 . S
C2109 C2106 1.403 . S
C2109 C2110 1.392 . S
C2109 C2113 1.495 . S
C2110 C2109 1.392 . S
C2110 C2111 1.385 . S
C2110 C2112 1.478 . S
C2111 H2105 0.930 . S
C2111 C2107 1.400 . S
C2111 C2110 1.385 . S
C2112 C2110 1.478 . S
C2112 C2114 1.381 . S
C2112 C2118 1.383 . S
C2113 C2109 1.495 . S
C2113 H2119 0.959 . S
C2113 H2120 0.961 . S
C2113 H2121 0.960 . S
C2114 C2112 1.381 . S
C2114 C2115 1.394 . S
C2114 H2122 0.930 . S
C2115 C2114 1.394 . S
C2115 C2116 1.383 . S
C2115 H2123 0.929 . S
C2116 C2115 1.383 . S
C2116 C2117 1.377 . S
C2117 H2101 0.930 . S
C2117 C2116 1.377 . S
C2117 C2118 1.379 . S
C2118 H2102 0.931 . S
C2118 C2112 1.383 . S
C2118 C2117 1.379 . S
H2119 C2113 0.959 . S
H2120 C2113 0.961 . S
H2121 C2113 0.960 . S
H2122 C2114 0.930 . S
H2123 C2115 0.929 . S
H2124 C2132 0.929 . S
H2125 C2134 0.930 . S
H2126 C2136 0.930 . S
H2127 C2139 0.929 . S
H2128 C2142 0.930 . S
H2129 C2144 0.960 . S
H2130 C2144 0.960 . S
H2131 C2144 0.960 . S
C2132 H2124 0.929 . S
C2132 C2133 1.377 . S
C2132 C2134 1.384 . S
C2133 C2132 1.377 . S
C2133 C2139 1.390 . S
C2134 H2125 0.930 . S
C2134 C2132 1.384 . S
C2134 C2135 1.372 . S
C2135 C2134 1.372 . S
C2135 C2136 1.400 . S
C2135 C2140 1.490 . S
C2136 H2126 0.930 . S
C2136 C2135 1.400 . S
C2136 C2139 1.386 . S
H2137 C2153 0.930 . S
H2138 C2154 0.931 . S
C2139 H2127 0.929 . S
C2139 C2133 1.390 . S
C2139 C2136 1.386 . S
C2140 C2135 1.490 . S
C2140 C2142 1.395 . S
C2140 C2143 1.403 . S
H2141 C2147 0.930 . S
C2142 H2128 0.930 . S
C2142 C2140 1.395 . S
C2142 C2145 1.403 . S
C2143 C2140 1.403 . S
C2143 C2144 1.524 . S
C2143 C2147 1.400 . S
C2144 H2129 0.960 . S
C2144 H2130 0.960 . S
C2144 H2131 0.960 . S
C2144 C2143 1.524 . S
C2145 C2142 1.403 . S
C2145 C2146 1.392 . S
C2145 C2149 1.495 . S
C2146 C2145 1.392 . S
C2146 C2147 1.385 . S
C2146 C2148 1.478 . S
C2147 H2141 0.930 . S
C2147 C2143 1.400 . S
C2147 C2146 1.385 . S
C2148 C2146 1.478 . S
C2148 C2150 1.381 . S
C2148 C2154 1.383 . S
C2149 C2145 1.495 . S
C2149 H2155 0.959 . S
C2149 H2156 0.961 . S
C2149 H2157 0.960 . S
C2150 C2148 1.381 . S
C2150 C2151 1.394 . S
C2150 H2158 0.930 . S
C2151 C2150 1.394 . S
C2151 C2152 1.383 . S
C2151 H2159 0.929 . S
C2152 C2151 1.383 . S
C2152 C2153 1.377 . S
C2153 H2137 0.930 . S
C2153 C2152 1.377 . S
C2153 C2154 1.379 . S
C2154 H2138 0.931 . S
C2154 C2148 1.383 . S
C2154 C2153 1.379 . S
H2155 C2149 0.959 . S
H2156 C2149 0.961 . S
H2157 C2149 0.960 . S
H2158 C2150 0.930 . S
H2159 C2151 0.929 . S
H2160 C2168 0.929 . S
H2161 C2170 0.930 . S
H2162 C2172 0.930 . S
H2163 C2175 0.929 . S
H2164 C2178 0.930 . S
H2165 C2180 0.960 . S
H2166 C2180 0.960 . S
H2167 C2180 0.960 . S
C2168 H2160 0.929 . S
C2168 C2169 1.377 . S
C2168 C2170 1.384 . S
C2169 C2168 1.377 . S
C2169 C2175 1.390 . S
C2170 H2161 0.930 . S
C2170 C2168 1.384 . S
C2170 C2171 1.372 . S
C2171 C2170 1.372 . S
C2171 C2172 1.400 . S
C2171 C2176 1.490 . S
C2172 H2162 0.930 . S
C2172 C2171 1.400 . S
C2172 C2175 1.386 . S
H2173 C2189 0.930 . S
H2174 C2190 0.931 . S
C2175 H2163 0.929 . S
C2175 C2169 1.390 . S
C2175 C2172 1.386 . S
C2176 C2171 1.490 . S
C2176 C2178 1.395 . S
C2176 C2179 1.403 . S
H2177 C2183 0.930 . S
C2178 H2164 0.930 . S
C2178 C2176 1.395 . S
C2178 C2181 1.403 . S
C2179 C2176 1.403 . S
C2179 C2180 1.524 . S
C2179 C2183 1.400 . S
C2180 H2165 0.960 . S
C2180 H2166 0.960 . S
C2180 H2167 0.960 . S
C2180 C2179 1.524 . S
C2181 C2178 1.403 . S
C2181 C2182 1.392 . S
C2181 C2185 1.495 . S
C2182 C2181 1.392 . S
C2182 C2183 1.385 . S
C2182 C2184 1.478 . S
C2183 H2177 0.930 . S
C2183 C2179 1.400 . S
C2183 C2182 1.385 . S
C2184 C2182 1.478 . S
C2184 C2186 1.381 . S
C2184 C2190 1.383 . S
C2185 C2181 1.495 . S
C2185 H2191 0.959 . S
C2185 H2192 0.961 . S
C2185 H2193 0.960 . S
C2186 C2184 1.381 . S
C2186 C2187 1.394 . S
C2186 H2194 0.930 . S
C2187 C2186 1.394 . S
C2187 C2188 1.383 . S
C2187 H2195 0.929 . S
C2188 C2187 1.383 . S
C2188 C2189 1.377 . S
C2189 H2173 0.930 . S
C2189 C2188 1.377 . S
C2189 C2190 1.379 . S
C2190 H2174 0.931 . S
C2190 C2184 1.383 . S
C2190 C2189 1.379 . S
H2191 C2185 0.959 . S
H2192 C2185 0.961 . S
H2193 C2185 0.960 . S
H2194 C2186 0.930 . S
H2195 C2187 0.929 . S
H2196 C2204 0.929 . S
H2197 C2206 0.930 . S
H2198 C2208 0.930 . S
H2199 C2211 0.929 . S
H2200 C2214 0.930 . S
H2201 C2216 0.960 . S
H2202 C2216 0.960 . S
H2203 C2216 0.960 . S
C2204 H2196 0.929 . S
C2204 C2205 1.377 1_556 S
C2204 C2206 1.384 . S
C2205 C2204 1.377 1_554 S
C2205 C2211 1.390 . S
C2206 H2197 0.930 . S
C2206 C2204 1.384 . S
C2206 C2207 1.372 1_556 S
C2207 C2206 1.372 1_554 S
C2207 C2208 1.400 . S
C2207 C2212 1.490 . S
C2208 H2198 0.930 . S
C2208 C2207 1.400 . S
C2208 C2211 1.386 . S
H2209 C2225 0.930 . S
H2210 C2226 0.931 . S
C2211 H2199 0.929 . S
C2211 C2205 1.390 . S
C2211 C2208 1.386 . S
C2212 C2207 1.490 . S
C2212 C2214 1.395 1_554 S
C2212 C2215 1.403 . S
H2213 C2219 0.930 . S
C2214 H2200 0.930 . S
C2214 C2212 1.395 1_556 S
C2214 C2217 1.403 . S
C2215 C2212 1.403 . S
C2215 C2216 1.524 . S
C2215 C2219 1.400 . S
C2216 H2201 0.960 . S
C2216 H2202 0.960 . S
C2216 H2203 0.960 . S
C2216 C2215 1.524 . S
C2217 C2214 1.403 . S
C2217 C2218 1.356 1_556 S
C2217 C2221 1.495 . S
C2218 C2217 1.356 1_554 S
C2218 C2219 1.427 . S
C2218 C2220 1.477 . S
C2219 H2213 0.930 . S
C2219 C2215 1.400 . S
C2219 C2218 1.427 . S
C2220 C2218 1.477 . S
C2220 C2222 1.339 1_554 S
C2220 C2226 1.426 . S
C2221 C2217 1.495 . S
C2221 H2227 0.959 . S
C2221 H2228 0.961 . S
C2221 H2229 0.960 . S
C2222 C2220 1.339 1_556 S
C2222 C2223 1.394 . S
C2222 H2230 0.930 . S
C2223 C2222 1.394 . S
C2223 C2224 1.303 1_556 S
C2223 H2231 0.929 . S
C2224 C2223 1.303 1_554 S
C2224 C2225 1.458 . S
C2225 H2209 0.930 . S
C2225 C2224 1.458 . S
C2225 C2226 1.379 . S
C2226 H2210 0.931 . S
C2226 C2220 1.426 . S
C2226 C2225 1.379 . S
H2227 C2221 0.959 . S
H2228 C2221 0.961 . S
H2229 C2221 0.960 . S
H2230 C2222 0.930 . S
H2231 C2223 0.929 . S
H2232 C2240 0.929 . S
H2233 C2242 0.930 . S
H2234 C2244 0.930 . S
H2235 C2247 0.947 . S
H2236 C2250 0.930 . S
H2237 C2252 0.960 . S
H2238 C2252 0.960 . S
H2239 C2252 0.960 . S
C2240 H2232 0.929 . S
C2240 C2241 1.377 . S
C2240 C2242 1.384 . S
C2241 C2240 1.377 . S
C2241 C2247 1.390 . S
C2242 H2233 0.930 . S
C2242 C2240 1.384 . S
C2242 C2243 1.372 . S
C2243 C2242 1.372 . S
C2243 C2244 1.400 . S
C2243 C2248 1.490 . S
C2244 H2234 0.930 . S
C2244 C2243 1.400 . S
C2244 C2247 1.386 . S
H2245 C2261 0.945 . S
H2246 C2262 0.921 1_556 S
C2247 H2235 0.947 . S
C2247 C2241 1.390 . S
C2247 C2244 1.386 . S
C2248 C2243 1.490 . S
C2248 C2250 1.395 1_554 S
C2248 C2251 1.403 . S
H2249 C2255 0.930 . S
C2250 H2236 0.930 . S
C2250 C2248 1.395 1_556 S
C2250 C2253 1.403 . S
C2251 C2248 1.403 . S
C2251 C2252 1.524 . S
C2251 C2255 1.400 . S
C2252 H2237 0.960 . S
C2252 H2238 0.960 . S
C2252 H2239 0.960 . S
C2252 C2251 1.524 . S
C2253 C2250 1.403 . S
C2253 C2254 1.294 1_556 S
C2253 C2257 1.495 . S
C2254 C2253 1.294 1_554 S
C2254 C2255 1.493 . S
C2254 C2256 1.477 . S
C2255 H2249 0.930 . S
C2255 C2251 1.400 . S
C2255 C2254 1.493 . S
C2256 C2254 1.477 . S
C2256 C2258 1.412 . S
C2256 C2262 1.379 . S
C2257 C2253 1.495 . S
C2257 H2263 0.959 . S
C2257 H2264 0.961 . S
C2257 H2265 0.960 . S
C2258 C2256 1.412 . S
C2258 C2259 1.394 . S
C2258 H2266 0.930 . S
C2259 C2258 1.394 . S
C2259 C2260 1.383 . S
C2259 H2267 0.929 . S
C2260 C2259 1.383 . S
C2260 C2261 1.377 . S
C2261 H2245 0.945 . S
C2261 C2260 1.377 . S
C2261 C2262 1.386 . S
C2262 H2246 0.921 1_554 S
C2262 C2256 1.379 . S
C2262 C2261 1.386 . S
H2263 C2257 0.959 . S
H2264 C2257 0.961 . S
H2265 C2257 0.960 . S
H2266 C2258 0.930 . S
H2267 C2259 0.929 . S
H2268 C2276 0.929 . S
H2269 C2278 0.930 . S
H2270 C2280 0.930 . S
H2271 C2283 0.929 . S
H2272 C2286 0.930 . S
H2273 C2288 0.960 . S
H2274 C2288 0.960 . S
H2275 C2288 0.960 . S
C2276 H2268 0.929 . S
C2276 C2277 1.377 1_556 S
C2276 C2278 1.384 . S
C2277 C2276 1.377 1_554 S
C2277 C2283 1.390 . S
C2278 H2269 0.930 . S
C2278 C2276 1.384 . S
C2278 C2279 1.372 1_556 S
C2279 C2278 1.372 1_554 S
C2279 C2280 1.400 . S
C2279 C2284 1.490 . S
C2280 H2270 0.930 . S
C2280 C2279 1.400 . S
C2280 C2283 1.386 . S
H2281 C2297 0.930 . S
H2282 C2298 0.931 . S
C2283 H2271 0.929 . S
C2283 C2277 1.390 . S
C2283 C2280 1.386 . S
C2284 C2279 1.490 . S
C2284 C2286 1.395 1_554 S
C2284 C2287 1.403 . S
H2285 C2291 0.930 . S
C2286 H2272 0.930 . S
C2286 C2284 1.395 1_556 S
C2286 C2289 1.403 . S
C2287 C2284 1.403 . S
C2287 C2288 1.524 . S
C2287 C2291 1.400 . S
C2288 H2273 0.960 . S
C2288 H2274 0.960 . S
C2288 H2275 0.960 . S
C2288 C2287 1.524 . S
C2289 C2286 1.403 . S
C2289 C2290 1.386 1_556 S
C2289 C2293 1.495 . S
C2290 C2289 1.386 1_554 S
C2290 C2291 1.392 . S
C2290 C2292 1.478 1_554 S
C2291 H2285 0.930 . S
C2291 C2287 1.400 . S
C2291 C2290 1.392 . S
C2292 C2290 1.478 1_556 S
C2292 C2294 1.375 . S
C2292 C2298 1.389 1_556 S
C2293 C2289 1.495 . S
C2293 H2299 0.959 . S
C2293 H2300 0.961 . S
C2293 H2301 0.960 . S
C2294 C2292 1.375 . S
C2294 C2295 1.394 . S
C2294 H2302 0.930 . S
C2295 C2294 1.394 . S
C2295 C2296 1.344 1_556 S
C2295 H2303 0.929 . S
C2296 C2295 1.344 1_554 S
C2296 C2297 1.416 . S
C2297 H2281 0.930 . S
C2297 C2296 1.416 . S
C2297 C2298 1.379 . S
C2298 H2282 0.931 . S
C2298 C2292 1.389 1_554 S
C2298 C2297 1.379 . S
H2299 C2293 0.959 . S
H2300 C2293 0.961 . S
H2301 C2293 0.960 . S
H2302 C2294 0.930 . S
H2303 C2295 0.929 . S
H2304 C2312 0.929 . S
H2305 C2314 0.930 . S
H2306 C2316 0.930 . S
H2307 C2319 0.929 . S
H2308 C2322 0.930 . S
H2309 C2324 0.960 . S
H2310 C2324 0.960 . S
H2311 C2324 0.960 . S
C2312 H2304 0.929 . S
C2312 C2313 1.377 . S
C2312 C2314 1.384 . S
C2313 C2312 1.377 . S
C2313 C2319 1.390 . S
C2314 H2305 0.930 . S
C2314 C2312 1.384 . S
C2314 C2315 1.372 . S
C2315 C2314 1.372 . S
C2315 C2316 1.400 . S
C2315 C2320 1.490 . S
C2316 H2306 0.930 . S
C2316 C2315 1.400 . S
C2316 C2319 1.386 . S
H2317 C2333 0.930 . S
H2318 C2334 0.931 . S
C2319 H2307 0.929 . S
C2319 C2313 1.390 . S
C2319 C2316 1.386 . S
C2320 C2315 1.490 . S
C2320 C2322 1.395 . S
C2320 C2323 1.403 . S
H2321 C2327 0.930 . S
C2322 H2308 0.930 . S
C2322 C2320 1.395 . S
C2322 C2325 1.403 . S
C2323 C2320 1.403 . S
C2323 C2324 1.524 . S
C2323 C2327 1.400 . S
C2324 H2309 0.960 . S
C2324 H2310 0.960 . S
C2324 H2311 0.960 . S
C2324 C2323 1.524 . S
C2325 C2322 1.403 . S
C2325 C2326 1.392 . S
C2325 C2329 1.495 . S
C2326 C2325 1.392 . S
C2326 C2327 1.385 . S
C2326 C2328 1.478 . S
C2327 H2321 0.930 . S
C2327 C2323 1.400 . S
C2327 C2326 1.385 . S
C2328 C2326 1.478 . S
C2328 C2330 1.381 . S
C2328 C2334 1.383 . S
C2329 C2325 1.495 . S
C2329 H2335 0.959 . S
C2329 H2336 0.961 . S
C2329 H2337 0.960 . S
C2330 C2328 1.381 . S
C2330 C2331 1.394 . S
C2330 H2338 0.930 . S
C2331 C2330 1.394 . S
C2331 C2332 1.383 . S
C2331 H2339 0.929 . S
C2332 C2331 1.383 . S
C2332 C2333 1.377 . S
C2333 H2317 0.930 . S
C2333 C2332 1.377 . S
C2333 C2334 1.379 . S
C2334 H2318 0.931 . S
C2334 C2328 1.383 . S
C2334 C2333 1.379 . S
H2335 C2329 0.959 . S
H2336 C2329 0.961 . S
H2337 C2329 0.960 . S
H2338 C2330 0.930 . S
H2339 C2331 0.929 . S
H2340 C2348 0.929 . S
H2341 C2350 0.930 . S
H2342 C2352 0.930 . S
H2343 C2355 0.929 . S
H2344 C2358 0.930 . S
H2345 C2360 0.960 . S
H2346 C2360 0.960 . S
H2347 C2360 0.960 . S
C2348 H2340 0.929 . S
C2348 C2349 1.377 . S
C2348 C2350 1.384 . S
C2349 C2348 1.377 . S
C2349 C2355 1.390 . S
C2350 H2341 0.930 . S
C2350 C2348 1.384 . S
C2350 C2351 1.372 . S
C2351 C2350 1.372 . S
C2351 C2352 1.400 . S
C2351 C2356 1.490 . S
C2352 H2342 0.930 . S
C2352 C2351 1.400 . S
C2352 C2355 1.386 . S
H2353 C2369 0.930 . S
H2354 C2370 0.931 . S
C2355 H2343 0.929 . S
C2355 C2349 1.390 . S
C2355 C2352 1.386 . S
C2356 C2351 1.490 . S
C2356 C2358 1.395 . S
C2356 C2359 1.403 . S
H2357 C2363 0.930 . S
C2358 H2344 0.930 . S
C2358 C2356 1.395 . S
C2358 C2361 1.403 . S
C2359 C2356 1.403 . S
C2359 C2360 1.524 . S
C2359 C2363 1.400 . S
C2360 H2345 0.960 . S
C2360 H2346 0.960 . S
C2360 H2347 0.960 . S
C2360 C2359 1.524 . S
C2361 C2358 1.403 . S
C2361 C2362 1.392 . S
C2361 C2365 1.495 . S
C2362 C2361 1.392 . S
C2362 C2363 1.385 . S
C2362 C2364 1.478 . S
C2363 H2357 0.930 . S
C2363 C2359 1.400 . S
C2363 C2362 1.385 . S
C2364 C2362 1.478 . S
C2364 C2366 1.381 . S
C2364 C2370 1.383 . S
C2365 C2361 1.495 . S
C2365 H2371 0.959 . S
C2365 H2372 0.961 . S
C2365 H2373 0.960 . S
C2366 C2364 1.381 . S
C2366 C2367 1.394 . S
C2366 H2374 0.930 . S
C2367 C2366 1.394 . S
C2367 C2368 1.383 . S
C2367 H2375 0.929 . S
C2368 C2367 1.383 . S
C2368 C2369 1.377 . S
C2369 H2353 0.930 . S
C2369 C2368 1.377 . S
C2369 C2370 1.379 . S
C2370 H2354 0.931 . S
C2370 C2364 1.383 . S
C2370 C2369 1.379 . S
H2371 C2365 0.959 . S
H2372 C2365 0.961 . S
H2373 C2365 0.960 . S
H2374 C2366 0.930 . S
H2375 C2367 0.929 . S
H2376 C2384 0.929 . S
H2377 C2386 0.930 . S
H2378 C2388 0.930 . S
H2379 C2391 0.929 . S
H2380 C2394 0.930 . S
H2381 C2396 0.960 . S
H2382 C2396 0.960 . S
H2383 C2396 0.960 . S
C2384 H2376 0.929 . S
C2384 C2385 1.377 . S
C2384 C2386 1.384 . S
C2385 C2384 1.377 . S
C2385 C2391 1.390 . S
C2386 H2377 0.930 . S
C2386 C2384 1.384 . S
C2386 C2387 1.372 . S
C2387 C2386 1.372 . S
C2387 C2388 1.400 . S
C2387 C2392 1.490 . S
C2388 H2378 0.930 . S
C2388 C2387 1.400 . S
C2388 C2391 1.386 . S
H2389 C2405 0.930 . S
H2390 C2406 0.931 . S
C2391 H2379 0.929 . S
C2391 C2385 1.390 . S
C2391 C2388 1.386 . S
C2392 C2387 1.490 . S
C2392 C2394 1.395 . S
C2392 C2395 1.403 . S
H2393 C2399 0.930 . S
C2394 H2380 0.930 . S
C2394 C2392 1.395 . S
C2394 C2397 1.403 . S
C2395 C2392 1.403 . S
C2395 C2396 1.524 . S
C2395 C2399 1.400 . S
C2396 H2381 0.960 . S
C2396 H2382 0.960 . S
C2396 H2383 0.960 . S
C2396 C2395 1.524 . S
C2397 C2394 1.403 . S
C2397 C2398 1.392 . S
C2397 C2401 1.495 . S
C2398 C2397 1.392 . S
C2398 C2399 1.385 . S
C2398 C2400 1.478 . S
C2399 H2393 0.930 . S
C2399 C2395 1.400 . S
C2399 C2398 1.385 . S
C2400 C2398 1.478 . S
C2400 C2402 1.381 . S
C2400 C2406 1.383 . S
C2401 C2397 1.495 . S
C2401 H2407 0.959 . S
C2401 H2408 0.961 . S
C2401 H2409 0.960 . S
C2402 C2400 1.381 . S
C2402 C2403 1.394 . S
C2402 H2410 0.930 . S
C2403 C2402 1.394 . S
C2403 C2404 1.383 . S
C2403 H2411 0.929 . S
C2404 C2403 1.383 . S
C2404 C2405 1.377 . S
C2405 H2389 0.930 . S
C2405 C2404 1.377 . S
C2405 C2406 1.379 . S
C2406 H2390 0.931 . S
C2406 C2400 1.383 . S
C2406 C2405 1.379 . S
H2407 C2401 0.959 . S
H2408 C2401 0.961 . S
H2409 C2401 0.960 . S
H2410 C2402 0.930 . S
H2411 C2403 0.929 . S
H2412 C2420 0.929 . S
H2413 C2422 0.930 . S
H2414 C2424 0.930 . S
H2415 C2427 0.929 . S
H2416 C2430 0.930 . S
H2417 C2432 0.960 . S
H2418 C2432 0.960 . S
H2419 C2432 0.960 . S
C2420 H2412 0.929 . S
C2420 C2421 1.259 1_554 S
C2420 C2422 1.384 . S
C2421 C2420 1.259 1_556 S
C2421 C2427 1.514 . S
C2422 H2413 0.930 . S
C2422 C2420 1.384 . S
C2422 C2423 1.238 1_554 S
C2423 C2422 1.238 1_556 S
C2423 C2424 1.537 . S
C2423 C2428 1.501 . S
C2424 H2414 0.930 . S
C2424 C2423 1.537 . S
C2424 C2427 1.386 . S
H2425 C2441 0.930 . S
H2426 C2442 0.931 . S
C2427 H2415 0.929 . S
C2427 C2421 1.514 . S
C2427 C2424 1.386 . S
C2428 C2423 1.501 . S
C2428 C2430 1.395 1_556 S
C2428 C2431 1.403 . S
H2429 C2435 0.930 . S
C2430 H2416 0.930 . S
C2430 C2428 1.395 1_554 S
C2430 C2433 1.403 . S
C2431 C2428 1.403 . S
C2431 C2432 1.524 . S
C2431 C2435 1.400 . S
C2432 H2417 0.960 . S
C2432 H2418 0.960 . S
C2432 H2419 0.960 . S
C2432 C2431 1.524 . S
C2433 C2430 1.403 . S
C2433 C2434 1.392 1_554 S
C2433 C2437 1.495 . S
C2434 C2433 1.392 1_556 S
C2434 C2435 1.385 . S
C2434 C2436 1.478 . S
C2435 H2429 0.930 . S
C2435 C2431 1.400 . S
C2435 C2434 1.385 . S
C2436 C2434 1.478 . S
C2436 C2438 1.381 1_556 S
C2436 C2442 1.383 . S
C2437 C2433 1.495 . S
C2437 H2443 0.959 . S
C2437 H2444 0.961 . S
C2437 H2445 0.960 . S
C2438 C2436 1.381 1_554 S
C2438 C2439 1.394 . S
C2438 H2446 0.930 . S
C2439 C2438 1.394 . S
C2439 C2440 1.383 1_554 S
C2439 H2447 0.929 . S
C2440 C2439 1.383 1_556 S
C2440 C2441 1.377 . S
C2441 H2425 0.930 . S
C2441 C2440 1.377 . S
C2441 C2442 1.379 . S
C2442 H2426 0.931 . S
C2442 C2436 1.383 . S
C2442 C2441 1.379 . S
H2443 C2437 0.959 . S
H2444 C2437 0.961 . S
H2445 C2437 0.960 . S
H2446 C2438 0.930 . S
H2447 C2439 0.929 . S
H2448 C2456 0.929 . S
H2449 C2458 0.930 . S
H2450 C2460 0.930 . S
H2451 C2463 0.929 . S
H2452 C2466 0.930 . S
H2453 C2468 0.960 . S
H2454 C2468 0.960 . S
H2455 C2468 0.883 1_554 S
C2456 H2448 0.929 . S
C2456 C2457 1.377 . S
C2456 C2458 1.384 . S
C2457 C2456 1.377 . S
C2457 C2463 1.390 1_556 S
C2458 H2449 0.930 . S
C2458 C2456 1.384 . S
C2458 C2459 1.372 . S
C2459 C2458 1.372 . S
C2459 C2460 1.400 1_556 S
C2459 C2464 1.490 . S
C2460 H2450 0.930 . S
C2460 C2459 1.400 1_554 S
C2460 C2463 1.386 . S
H2461 C2477 0.930 . S
H2462 C2478 0.931 . S
C2463 H2451 0.929 . S
C2463 C2457 1.390 1_554 S
C2463 C2460 1.386 . S
C2464 C2459 1.490 . S
C2464 C2466 1.395 . S
C2464 C2467 1.403 . S
H2465 C2471 0.930 . S
C2466 H2452 0.930 . S
C2466 C2464 1.395 . S
C2466 C2469 1.403 . S
C2467 C2464 1.403 . S
C2467 C2468 1.524 . S
C2467 C2471 1.400 . S
C2468 H2453 0.960 . S
C2468 H2454 0.960 . S
C2468 H2455 0.883 1_556 S
C2468 C2467 1.524 . S
C2469 C2466 1.403 . S
C2469 C2470 1.392 . S
C2469 C2473 1.495 . S
C2470 C2469 1.392 . S
C2470 C2471 1.385 . S
C2470 C2472 1.478 . S
C2471 H2465 0.930 . S
C2471 C2467 1.400 . S
C2471 C2470 1.385 . S
C2472 C2470 1.478 . S
C2472 C2474 1.381 . S
C2472 C2478 1.383 1_556 S
C2473 C2469 1.495 . S
C2473 H2479 0.973 . S
C2473 H2480 0.961 1_556 S
C2473 H2481 0.960 . S
C2474 C2472 1.381 . S
C2474 C2475 1.394 . S
C2474 H2482 0.930 . S
C2475 C2474 1.394 . S
C2475 C2476 1.383 . S
C2475 H2483 0.929 . S
C2476 C2475 1.383 . S
C2476 C2477 1.377 1_556 S
C2477 H2461 0.930 . S
C2477 C2476 1.377 1_554 S
C2477 C2478 1.379 . S
C2478 H2462 0.931 . S
C2478 C2472 1.383 1_554 S
C2478 C2477 1.379 . S
H2479 C2473 0.973 . S
H2480 C2473 0.961 1_554 S
H2481 C2473 0.960 . S
H2482 C2474 0.930 . S
H2483 C2475 0.929 . S
H2484 C2492 0.981 . S
H2485 C2494 0.974 . S
H2486 C2496 0.930 . S
H2487 C2499 0.929 . S
H2488 C2502 0.930 . S
H2489 C2504 0.960 . S
H2490 C2504 0.960 . S
H2491 C2504 0.960 . S
C2492 H2484 0.981 . S
C2492 C2493 1.347 1_554 S
C2492 C2494 1.384 . S
C2493 C2492 1.347 1_556 S
C2493 C2499 1.390 . S
C2494 H2485 0.974 . S
C2494 C2492 1.384 . S
C2494 C2495 1.340 1_554 S
C2495 C2494 1.340 1_556 S
C2495 C2496 1.400 . S
C2495 C2500 1.490 . S
C2496 H2486 0.930 . S
C2496 C2495 1.400 . S
C2496 C2499 1.386 . S
H2497 C2513 0.930 . S
H2498 C2514 0.931 . S
C2499 H2487 0.929 . S
C2499 C2493 1.390 . S
C2499 C2496 1.386 . S
C2500 C2495 1.490 . S
C2500 C2502 1.395 1_556 S
C2500 C2503 1.403 . S
H2501 C2507 0.930 . S
C2502 H2488 0.930 . S
C2502 C2500 1.395 1_554 S
C2502 C2505 1.403 . S
C2503 C2500 1.403 . S
C2503 C2504 1.524 . S
C2503 C2507 1.400 . S
C2504 H2489 0.960 . S
C2504 H2490 0.960 . S
C2504 H2491 0.960 . S
C2504 C2503 1.524 . S
C2505 C2502 1.403 . S
C2505 C2506 1.314 1_554 S
C2505 C2509 1.495 . S
C2506 C2505 1.314 1_556 S
C2506 C2507 1.468 . S
C2506 C2508 1.477 . S
C2507 H2501 0.930 . S
C2507 C2503 1.400 . S
C2507 C2506 1.468 . S
C2508 C2506 1.477 . S
C2508 C2510 1.368 1_556 S
C2508 C2514 1.415 . S
C2509 C2505 1.495 . S
C2509 H2515 0.959 . S
C2509 H2516 0.961 . S
C2509 H2517 0.960 . S
C2510 C2508 1.368 1_554 S
C2510 C2511 1.389 1_554 S
C2510 H2518 0.939 . S
C2511 C2510 1.389 1_556 S
C2511 C2512 1.398 . S
C2511 H2519 0.922 1_556 S
C2512 C2511 1.398 . S
C2512 C2513 1.377 . S
C2513 H2497 0.930 . S
C2513 C2512 1.377 . S
C2513 C2514 1.379 . S
C2514 H2498 0.931 . S
C2514 C2508 1.415 . S
C2514 C2513 1.379 . S
H2515 C2509 0.959 . S
H2516 C2509 0.961 . S
H2517 C2509 0.960 . S
H2518 C2510 0.939 . S
H2519 C2511 0.922 1_554 S
H2520 C2528 0.929 . S
H2521 C2530 0.930 . S
H2522 C2532 0.930 . S
H2523 C2535 0.929 . S
H2524 C2538 0.930 . S
H2525 C2540 0.960 . S
H2526 C2540 0.960 . S
H2527 C2540 0.960 . S
C2528 H2520 0.929 . S
C2528 C2529 1.377 . S
C2528 C2530 1.384 . S
C2529 C2528 1.377 . S
C2529 C2535 1.390 . S
C2530 H2521 0.930 . S
C2530 C2528 1.384 . S
C2530 C2531 1.372 . S
C2531 C2530 1.372 . S
C2531 C2532 1.400 . S
C2531 C2536 1.490 . S
C2532 H2522 0.930 . S
C2532 C2531 1.400 . S
C2532 C2535 1.386 . S
H2533 C2549 0.930 . S
H2534 C2550 0.931 . S
C2535 H2523 0.929 . S
C2535 C2529 1.390 . S
C2535 C2532 1.386 . S
C2536 C2531 1.490 . S
C2536 C2538 1.395 . S
C2536 C2539 1.403 . S
H2537 C2543 0.930 . S
C2538 H2524 0.930 . S
C2538 C2536 1.395 . S
C2538 C2541 1.403 . S
C2539 C2536 1.403 . S
C2539 C2540 1.524 . S
C2539 C2543 1.400 . S
C2540 H2525 0.960 . S
C2540 H2526 0.960 . S
C2540 H2527 0.960 . S
C2540 C2539 1.524 . S
C2541 C2538 1.403 . S
C2541 C2542 1.392 . S
C2541 C2545 1.495 . S
C2542 C2541 1.392 . S
C2542 C2543 1.385 . S
C2542 C2544 1.478 . S
C2543 H2537 0.930 . S
C2543 C2539 1.400 . S
C2543 C2542 1.385 . S
C2544 C2542 1.478 . S
C2544 C2546 1.381 . S
C2544 C2550 1.383 . S
C2545 C2541 1.495 . S
C2545 H2551 0.959 . S
C2545 H2552 0.961 . S
C2545 H2553 0.960 . S
C2546 C2544 1.381 . S
C2546 C2547 1.394 . S
C2546 H2554 0.930 . S
C2547 C2546 1.394 . S
C2547 C2548 1.383 . S
C2547 H2555 0.929 . S
C2548 C2547 1.383 . S
C2548 C2549 1.377 . S
C2549 H2533 0.930 . S
C2549 C2548 1.377 . S
C2549 C2550 1.379 . S
C2550 H2534 0.931 . S
C2550 C2544 1.383 . S
C2550 C2549 1.379 . S
H2551 C2545 0.959 . S
H2552 C2545 0.961 . S
H2553 C2545 0.960 . S
H2554 C2546 0.930 . S
H2555 C2547 0.929 . S
H2556 C2564 0.929 . S
H2557 C2566 0.930 . S
H2558 C2568 0.930 . S
H2559 C2571 0.929 . S
H2560 C2574 0.930 . S
H2561 C2576 0.960 . S
H2562 C2576 0.960 . S
H2563 C2576 0.960 . S
C2564 H2556 0.929 . S
C2564 C2565 1.377 . S
C2564 C2566 1.384 . S
C2565 C2564 1.377 . S
C2565 C2571 1.390 . S
C2566 H2557 0.930 . S
C2566 C2564 1.384 . S
C2566 C2567 1.372 . S
C2567 C2566 1.372 . S
C2567 C2568 1.400 . S
C2567 C2572 1.490 . S
C2568 H2558 0.930 . S
C2568 C2567 1.400 . S
C2568 C2571 1.386 . S
H2569 C2585 0.930 . S
H2570 C2586 0.931 . S
C2571 H2559 0.929 . S
C2571 C2565 1.390 . S
C2571 C2568 1.386 . S
C2572 C2567 1.490 . S
C2572 C2574 1.395 . S
C2572 C2575 1.403 . S
H2573 C2579 0.930 . S
C2574 H2560 0.930 . S
C2574 C2572 1.395 . S
C2574 C2577 1.403 . S
C2575 C2572 1.403 . S
C2575 C2576 1.524 . S
C2575 C2579 1.400 . S
C2576 H2561 0.960 . S
C2576 H2562 0.960 . S
C2576 H2563 0.960 . S
C2576 C2575 1.524 . S
C2577 C2574 1.403 . S
C2577 C2578 1.392 . S
C2577 C2581 1.495 . S
C2578 C2577 1.392 . S
C2578 C2579 1.385 . S
C2578 C2580 1.478 . S
C2579 H2573 0.930 . S
C2579 C2575 1.400 . S
C2579 C2578 1.385 . S
C2580 C2578 1.478 . S
C2580 C2582 1.381 . S
C2580 C2586 1.383 . S
C2581 C2577 1.495 . S
C2581 H2587 0.959 . S
C2581 H2588 0.961 . S
C2581 H2589 0.960 . S
C2582 C2580 1.381 . S
C2582 C2583 1.394 . S
C2582 H2590 0.930 . S
C2583 C2582 1.394 . S
C2583 C2584 1.383 . S
C2583 H2591 0.929 . S
C2584 C2583 1.383 . S
C2584 C2585 1.377 . S
C2585 H2569 0.930 . S
C2585 C2584 1.377 . S
C2585 C2586 1.379 . S
C2586 H2570 0.931 . S
C2586 C2580 1.383 . S
C2586 C2585 1.379 . S
H2587 C2581 0.959 . S
H2588 C2581 0.961 . S
H2589 C2581 0.960 . S
H2590 C2582 0.930 . S
H2591 C2583 0.929 . S
H2592 C2600 0.929 . S
H2593 C2602 0.930 . S
H2594 C2604 0.930 . S
H2595 C2607 0.929 . S
H2596 C2610 0.930 . S
H2597 C2612 0.960 . S
H2598 C2612 0.960 . S
H2599 C2612 0.960 . S
C2600 H2592 0.929 . S
C2600 C2601 1.377 . S
C2600 C2602 1.384 . S
C2601 C2600 1.377 . S
C2601 C2607 1.390 . S
C2602 H2593 0.930 . S
C2602 C2600 1.384 . S
C2602 C2603 1.372 . S
C2603 C2602 1.372 . S
C2603 C2604 1.400 . S
C2603 C2608 1.490 . S
C2604 H2594 0.930 . S
C2604 C2603 1.400 . S
C2604 C2607 1.386 . S
H2605 C2621 0.930 . S
H2606 C2622 0.931 . S
C2607 H2595 0.929 . S
C2607 C2601 1.390 . S
C2607 C2604 1.386 . S
C2608 C2603 1.490 . S
C2608 C2610 1.395 . S
C2608 C2611 1.403 . S
H2609 C2615 0.930 . S
C2610 H2596 0.930 . S
C2610 C2608 1.395 . S
C2610 C2613 1.403 . S
C2611 C2608 1.403 . S
C2611 C2612 1.524 . S
C2611 C2615 1.400 . S
C2612 H2597 0.960 . S
C2612 H2598 0.960 . S
C2612 H2599 0.960 . S
C2612 C2611 1.524 . S
C2613 C2610 1.403 . S
C2613 C2614 1.392 . S
C2613 C2617 1.495 . S
C2614 C2613 1.392 . S
C2614 C2615 1.385 . S
C2614 C2616 1.478 . S
C2615 H2609 0.930 . S
C2615 C2611 1.400 . S
C2615 C2614 1.385 . S
C2616 C2614 1.478 . S
C2616 C2618 1.381 . S
C2616 C2622 1.383 . S
C2617 C2613 1.495 . S
C2617 H2623 0.959 . S
C2617 H2624 0.961 . S
C2617 H2625 0.960 . S
C2618 C2616 1.381 . S
C2618 C2619 1.394 . S
C2618 H2626 0.930 . S
C2619 C2618 1.394 . S
C2619 C2620 1.383 . S
C2619 H2627 0.929 . S
C2620 C2619 1.383 . S
C2620 C2621 1.377 . S
C2621 H2605 0.930 . S
C2621 C2620 1.377 . S
C2621 C2622 1.379 . S
C2622 H2606 0.931 . S
C2622 C2616 1.383 . S
C2622 C2621 1.379 . S
H2623 C2617 0.959 . S
H2624 C2617 0.961 . S
H2625 C2617 0.960 . S
H2626 C2618 0.930 . S
H2627 C2619 0.929 . S
H2628 C2636 0.929 . S
H2629 C2638 0.930 . S
H2630 C2640 0.930 . S
H2631 C2643 0.929 . S
H2632 C2646 0.930 . S
H2633 C2648 0.960 . S
H2634 C2648 0.960 . S
H2635 C2648 0.960 . S
C2636 H2628 0.929 . S
C2636 C2637 1.377 . S
C2636 C2638 1.384 . S
C2637 C2636 1.377 . S
C2637 C2643 1.390 . S
C2638 H2629 0.930 . S
C2638 C2636 1.384 . S
C2638 C2639 1.372 . S
C2639 C2638 1.372 . S
C2639 C2640 1.400 . S
C2639 C2644 1.490 . S
C2640 H2630 0.930 . S
C2640 C2639 1.400 . S
C2640 C2643 1.386 . S
H2641 C2657 0.930 . S
H2642 C2658 0.931 . S
C2643 H2631 0.929 . S
C2643 C2637 1.390 . S
C2643 C2640 1.386 . S
C2644 C2639 1.490 . S
C2644 C2646 1.395 . S
C2644 C2647 1.403 . S
H2645 C2651 0.930 . S
C2646 H2632 0.930 . S
C2646 C2644 1.395 . S
C2646 C2649 1.403 . S
C2647 C2644 1.403 . S
C2647 C2648 1.524 . S
C2647 C2651 1.400 . S
C2648 H2633 0.960 . S
C2648 H2634 0.960 . S
C2648 H2635 0.960 . S
C2648 C2647 1.524 . S
C2649 C2646 1.403 . S
C2649 C2650 1.392 . S
C2649 C2653 1.495 . S
C2650 C2649 1.392 . S
C2650 C2651 1.385 . S
C2650 C2652 1.478 . S
C2651 H2645 0.930 . S
C2651 C2647 1.400 . S
C2651 C2650 1.385 . S
C2652 C2650 1.478 . S
C2652 C2654 1.381 . S
C2652 C2658 1.383 . S
C2653 C2649 1.495 . S
C2653 H2659 0.959 . S
C2653 H2660 0.961 . S
C2653 H2661 0.960 . S
C2654 C2652 1.381 . S
C2654 C2655 1.394 . S
C2654 H2662 0.930 . S
C2655 C2654 1.394 . S
C2655 C2656 1.383 . S
C2655 H2663 0.929 . S
C2656 C2655 1.383 . S
C2656 C2657 1.377 . S
C2657 H2641 0.930 . S
C2657 C2656 1.377 . S
C2657 C2658 1.379 . S
C2658 H2642 0.931 . S
C2658 C2652 1.383 . S
C2658 C2657 1.379 . S
H2659 C2653 0.959 . S
H2660 C2653 0.961 . S
H2661 C2653 0.960 . S
H2662 C2654 0.930 . S
H2663 C2655 0.929 . S
H2664 C2672 0.929 . S
H2665 C2674 0.930 . S
H2666 C2676 0.930 . S
H2667 C2679 0.929 . S
H2668 C2682 0.930 . S
H2669 C2684 0.960 . S
H2670 C2684 0.960 . S
H2671 C2684 0.960 . S
C2672 H2664 0.929 . S
C2672 C2673 1.377 . S
C2672 C2674 1.384 . S
C2673 C2672 1.377 . S
C2673 C2679 1.390 . S
C2674 H2665 0.930 . S
C2674 C2672 1.384 . S
C2674 C2675 1.372 . S
C2675 C2674 1.372 . S
C2675 C2676 1.400 . S
C2675 C2680 1.490 . S
C2676 H2666 0.930 . S
C2676 C2675 1.400 . S
C2676 C2679 1.386 . S
H2677 C2693 0.930 . S
H2678 C2694 0.931 . S
C2679 H2667 0.929 . S
C2679 C2673 1.390 . S
C2679 C2676 1.386 . S
C2680 C2675 1.490 . S
C2680 C2682 1.395 . S
C2680 C2683 1.403 . S
H2681 C2687 0.930 . S
C2682 H2668 0.930 . S
C2682 C2680 1.395 . S
C2682 C2685 1.403 . S
C2683 C2680 1.403 . S
C2683 C2684 1.524 . S
C2683 C2687 1.400 . S
C2684 H2669 0.960 . S
C2684 H2670 0.960 . S
C2684 H2671 0.960 . S
C2684 C2683 1.524 . S
C2685 C2682 1.403 . S
C2685 C2686 1.392 . S
C2685 C2689 1.495 . S
C2686 C2685 1.392 . S
C2686 C2687 1.385 . S
C2686 C2688 1.478 . S
C2687 H2681 0.930 . S
C2687 C2683 1.400 . S
C2687 C2686 1.385 . S
C2688 C2686 1.478 . S
C2688 C2690 1.381 . S
C2688 C2694 1.383 . S
C2689 C2685 1.495 . S
C2689 H2695 0.959 . S
C2689 H2696 0.961 . S
C2689 H2697 0.960 . S
C2690 C2688 1.381 . S
C2690 C2691 1.394 . S
C2690 H2698 0.930 . S
C2691 C2690 1.394 . S
C2691 C2692 1.383 . S
C2691 H2699 0.929 . S
C2692 C2691 1.383 . S
C2692 C2693 1.377 . S
C2693 H2677 0.930 . S
C2693 C2692 1.377 . S
C2693 C2694 1.379 . S
C2694 H2678 0.931 . S
C2694 C2688 1.383 . S
C2694 C2693 1.379 . S
H2695 C2689 0.959 . S
H2696 C2689 0.961 . S
H2697 C2689 0.960 . S
H2698 C2690 0.930 . S
H2699 C2691 0.929 . S
H2700 C2708 0.929 . S
H2701 C2710 0.930 . S
H2702 C2712 0.930 . S
H2703 C2715 0.929 . S
H2704 C2718 0.930 . S
H2705 C2720 0.960 . S
H2706 C2720 0.960 . S
H2707 C2720 0.960 . S
C2708 H2700 0.929 . S
C2708 C2709 1.377 . S
C2708 C2710 1.384 . S
C2709 C2708 1.377 . S
C2709 C2715 1.390 . S
C2710 H2701 0.930 . S
C2710 C2708 1.384 . S
C2710 C2711 1.372 . S
C2711 C2710 1.372 . S
C2711 C2712 1.400 . S
C2711 C2716 1.490 . S
C2712 H2702 0.930 . S
C2712 C2711 1.400 . S
C2712 C2715 1.386 . S
H2713 C2729 0.930 . S
H2714 C2730 0.931 . S
C2715 H2703 0.929 . S
C2715 C2709 1.390 . S
C2715 C2712 1.386 . S
C2716 C2711 1.490 . S
C2716 C2718 1.395 . S
C2716 C2719 1.403 . S
H2717 C2723 0.930 . S
C2718 H2704 0.930 . S
C2718 C2716 1.395 . S
C2718 C2721 1.403 . S
C2719 C2716 1.403 . S
C2719 C2720 1.524 . S
C2719 C2723 1.400 . S
C2720 H2705 0.960 . S
C2720 H2706 0.960 . S
C2720 H2707 0.960 . S
C2720 C2719 1.524 . S
C2721 C2718 1.403 . S
C2721 C2722 1.392 . S
C2721 C2725 1.495 . S
C2722 C2721 1.392 . S
C2722 C2723 1.385 . S
C2722 C2724 1.478 . S
C2723 H2717 0.930 . S
C2723 C2719 1.400 . S
C2723 C2722 1.385 . S
C2724 C2722 1.478 . S
C2724 C2726 1.381 . S
C2724 C2730 1.383 . S
C2725 C2721 1.495 . S
C2725 H2731 0.959 . S
C2725 H2732 0.961 . S
C2725 H2733 0.960 . S
C2726 C2724 1.381 . S
C2726 C2727 1.394 . S
C2726 H2734 0.930 . S
C2727 C2726 1.394 . S
C2727 C2728 1.383 . S
C2727 H2735 0.929 . S
C2728 C2727 1.383 . S
C2728 C2729 1.377 . S
C2729 H2713 0.930 . S
C2729 C2728 1.377 . S
C2729 C2730 1.379 . S
C2730 H2714 0.931 . S
C2730 C2724 1.383 . S
C2730 C2729 1.379 . S
H2731 C2725 0.959 . S
H2732 C2725 0.961 . S
H2733 C2725 0.960 . S
H2734 C2726 0.930 . S
H2735 C2727 0.929 . S
H2736 C2744 0.929 . S
H2737 C2746 0.930 . S
H2738 C2748 0.930 . S
H2739 C2751 0.929 . S
H2740 C2754 0.930 . S
H2741 C2756 0.960 . S
H2742 C2756 0.960 . S
H2743 C2756 0.960 . S
C2744 H2736 0.929 . S
C2744 C2745 1.377 . S
C2744 C2746 1.384 . S
C2745 C2744 1.377 . S
C2745 C2751 1.390 . S
C2746 H2737 0.930 . S
C2746 C2744 1.384 . S
C2746 C2747 1.372 . S
C2747 C2746 1.372 . S
C2747 C2748 1.400 . S
C2747 C2752 1.490 . S
C2748 H2738 0.930 . S
C2748 C2747 1.400 . S
C2748 C2751 1.386 . S
H2749 C2765 0.930 . S
H2750 C2766 0.931 . S
C2751 H2739 0.929 . S
C2751 C2745 1.390 . S
C2751 C2748 1.386 . S
C2752 C2747 1.490 . S
C2752 C2754 1.395 . S
C2752 C2755 1.403 . S
H2753 C2759 0.930 . S
C2754 H2740 0.930 . S
C2754 C2752 1.395 . S
C2754 C2757 1.403 . S
C2755 C2752 1.403 . S
C2755 C2756 1.524 . S
C2755 C2759 1.400 . S
C2756 H2741 0.960 . S
C2756 H2742 0.960 . S
C2756 H2743 0.960 . S
C2756 C2755 1.524 . S
C2757 C2754 1.403 . S
C2757 C2758 1.392 . S
C2757 C2761 1.495 . S
C2758 C2757 1.392 . S
C2758 C2759 1.385 . S
C2758 C2760 1.478 . S
C2759 H2753 0.930 . S
C2759 C2755 1.400 . S
C2759 C2758 1.385 . S
C2760 C2758 1.478 . S
C2760 C2762 1.381 . S
C2760 C2766 1.383 . S
C2761 C2757 1.495 . S
C2761 H2767 0.959 . S
C2761 H2768 0.961 . S
C2761 H2769 0.960 . S
C2762 C2760 1.381 . S
C2762 C2763 1.394 . S
C2762 H2770 0.930 . S
C2763 C2762 1.394 . S
C2763 C2764 1.383 . S
C2763 H2771 0.929 . S
C2764 C2763 1.383 . S
C2764 C2765 1.377 . S
C2765 H2749 0.930 . S
C2765 C2764 1.377 . S
C2765 C2766 1.379 . S
C2766 H2750 0.931 . S
C2766 C2760 1.383 . S
C2766 C2765 1.379 . S
H2767 C2761 0.959 . S
H2768 C2761 0.961 . S
H2769 C2761 0.960 . S
H2770 C2762 0.930 . S
H2771 C2763 0.929 . S
H2772 C2780 0.929 . S
H2773 C2782 0.930 . S
H2774 C2784 0.930 . S
H2775 C2787 0.929 . S
H2776 C2790 0.930 . S
H2777 C2792 0.960 . S
H2778 C2792 0.960 . S
H2779 C2792 0.960 . S
C2780 H2772 0.929 . S
C2780 C2781 1.377 . S
C2780 C2782 1.384 1_545 S
C2781 C2780 1.377 . S
C2781 C2787 1.390 . S
C2782 H2773 0.930 . S
C2782 C2780 1.384 1_565 S
C2782 C2783 1.372 1_565 S
C2783 C2782 1.372 1_545 S
C2783 C2784 1.400 . S
C2783 C2788 1.490 1_545 S
C2784 H2774 0.930 . S
C2784 C2783 1.400 . S
C2784 C2787 1.386 . S
H2785 C2801 0.930 . S
H2786 C2802 0.931 . S
C2787 H2775 0.929 . S
C2787 C2781 1.390 . S
C2787 C2784 1.386 . S
C2788 C2783 1.490 1_565 S
C2788 C2790 1.395 . S
C2788 C2791 1.403 1_565 S
H2789 C2795 0.930 . S
C2790 H2776 0.930 . S
C2790 C2788 1.395 . S
C2790 C2793 1.403 . S
C2791 C2788 1.403 1_545 S
C2791 C2792 1.524 . S
C2791 C2795 1.400 1_545 S
C2792 H2777 0.960 . S
C2792 H2778 0.960 . S
C2792 H2779 0.960 . S
C2792 C2791 1.524 . S
C2793 C2790 1.403 . S
C2793 C2794 1.392 . S
C2793 C2797 1.495 . S
C2794 C2793 1.392 . S
C2794 C2795 1.385 . S
C2794 C2796 1.478 . S
C2795 H2789 0.930 . S
C2795 C2791 1.400 1_565 S
C2795 C2794 1.385 . S
C2796 C2794 1.478 . S
C2796 C2798 1.381 . S
C2796 C2802 1.383 . S
C2797 C2793 1.495 . S
C2797 H2803 0.959 . S
C2797 H2804 0.961 . S
C2797 H2805 0.960 . S
C2798 C2796 1.381 . S
C2798 C2799 1.394 . S
C2798 H2806 0.930 . S
C2799 C2798 1.394 . S
C2799 C2800 1.383 . S
C2799 H2807 0.929 . S
C2800 C2799 1.383 . S
C2800 C2801 1.377 . S
C2801 H2785 0.930 . S
C2801 C2800 1.377 . S
C2801 C2802 1.379 . S
C2802 H2786 0.931 . S
C2802 C2796 1.383 . S
C2802 C2801 1.379 . S
H2803 C2797 0.959 . S
H2804 C2797 0.961 . S
H2805 C2797 0.960 . S
H2806 C2798 0.930 . S
H2807 C2799 0.929 . S
H2808 C2816 0.929 . S
H2809 C2818 0.930 . S
H2810 C2820 0.930 . S
H2811 C2823 0.929 . S
H2812 C2826 0.930 . S
H2813 C2828 0.947 1_655 S
H2814 C2828 0.931 1_655 S
H2815 C2828 0.981 . S
C2816 H2808 0.929 . S
C2816 C2817 1.377 . S
C2816 C2818 1.384 . S
C2817 C2816 1.377 . S
C2817 C2823 1.390 . S
C2818 H2809 0.930 . S
C2818 C2816 1.384 . S
C2818 C2819 1.372 . S
C2819 C2818 1.372 . S
C2819 C2820 1.400 . S
C2819 C2824 1.490 . S
C2820 H2810 0.930 . S
C2820 C2819 1.400 . S
C2820 C2823 1.386 . S
H2821 C2837 0.930 . S
H2822 C2838 0.949 . S
C2823 H2811 0.929 . S
C2823 C2817 1.390 . S
C2823 C2820 1.386 . S
C2824 C2819 1.490 . S
C2824 C2826 1.395 . S
C2824 C2827 1.403 . S
H2825 C2831 0.930 1_655 S
C2826 H2812 0.930 . S
C2826 C2824 1.395 . S
C2826 C2829 1.403 . S
C2827 C2824 1.403 . S
C2827 C2828 1.547 . S
C2827 C2831 1.400 . S
C2828 H2813 0.947 1_455 S
C2828 H2814 0.931 1_455 S
C2828 H2815 0.981 . S
C2828 C2827 1.547 . S
C2829 C2826 1.403 . S
C2829 C2830 1.392 . S
C2829 C2833 1.495 . S
C2830 C2829 1.392 . S
C2830 C2831 1.385 . S
C2830 C2832 1.478 1_455 S
C2831 H2825 0.930 1_455 S
C2831 C2827 1.400 . S
C2831 C2830 1.385 . S
C2832 C2830 1.478 1_655 S
C2832 C2834 1.381 . S
C2832 C2838 1.365 1_655 S
C2833 C2829 1.495 . S
C2833 H2839 0.959 . S
C2833 H2840 0.961 . S
C2833 H2841 0.960 . S
C2834 C2832 1.381 . S
C2834 C2835 1.394 . S
C2834 H2842 0.930 . S
C2835 C2834 1.394 . S
C2835 C2836 1.383 . S
C2835 H2843 0.929 . S
C2836 C2835 1.383 . S
C2836 C2837 1.377 . S
C2837 H2821 0.930 . S
C2837 C2836 1.377 . S
C2837 C2838 1.381 1_655 S
C2838 H2822 0.949 . S
C2838 C2832 1.365 1_455 S
C2838 C2837 1.381 1_455 S
H2839 C2833 0.959 . S
H2840 C2833 0.961 . S
H2841 C2833 0.960 . S
H2842 C2834 0.930 . S
H2843 C2835 0.929 . S
H2844 C2852 0.929 . S
H2845 C2854 0.930 . S
H2846 C2856 0.930 . S
H2847 C2859 0.929 . S
H2848 C2862 0.930 . S
H2849 C2864 0.960 . S
H2850 C2864 0.960 . S
H2851 C2864 0.960 . S
C2852 H2844 0.929 . S
C2852 C2853 1.377 . S
C2852 C2854 1.384 . S
C2853 C2852 1.377 . S
C2853 C2859 1.390 . S
C2854 H2845 0.930 . S
C2854 C2852 1.384 . S
C2854 C2855 1.372 . S
C2855 C2854 1.372 . S
C2855 C2856 1.400 . S
C2855 C2860 1.490 . S
C2856 H2846 0.930 . S
C2856 C2855 1.400 . S
C2856 C2859 1.386 . S
H2857 C2873 0.930 . S
H2858 C2874 0.931 . S
C2859 H2847 0.929 . S
C2859 C2853 1.390 . S
C2859 C2856 1.386 . S
C2860 C2855 1.490 . S
C2860 C2862 1.395 . S
C2860 C2863 1.403 . S
H2861 C2867 0.930 . S
C2862 H2848 0.930 . S
C2862 C2860 1.395 . S
C2862 C2865 1.403 . S
C2863 C2860 1.403 . S
C2863 C2864 1.524 . S
C2863 C2867 1.400 . S
C2864 H2849 0.960 . S
C2864 H2850 0.960 . S
C2864 H2851 0.960 . S
C2864 C2863 1.524 . S
C2865 C2862 1.403 . S
C2865 C2866 1.392 . S
C2865 C2869 1.495 . S
C2866 C2865 1.392 . S
C2866 C2867 1.385 . S
C2866 C2868 1.478 . S
C2867 H2861 0.930 . S
C2867 C2863 1.400 . S
C2867 C2866 1.385 . S
C2868 C2866 1.478 . S
C2868 C2870 1.381 . S
C2868 C2874 1.383 . S
C2869 C2865 1.495 . S
C2869 H2875 0.959 . S
C2869 H2876 0.961 . S
C2869 H2877 0.960 . S
C2870 C2868 1.381 . S
C2870 C2871 1.394 . S
C2870 H2878 0.930 . S
C2871 C2870 1.394 . S
C2871 C2872 1.383 . S
C2871 H2879 0.929 . S
C2872 C2871 1.383 . S
C2872 C2873 1.377 . S
C2873 H2857 0.930 . S
C2873 C2872 1.377 . S
C2873 C2874 1.379 . S
C2874 H2858 0.931 . S
C2874 C2868 1.383 . S
C2874 C2873 1.379 . S
H2875 C2869 0.959 . S
H2876 C2869 0.961 . S
H2877 C2869 0.960 . S
H2878 C2870 0.930 . S
H2879 C2871 0.929 . S
H2880 C2888 0.929 . S
H2881 C2890 0.930 . S
H2882 C2892 0.930 . S
H2883 C2895 0.929 . S
H2884 C2898 0.930 . S
H2885 C2900 0.960 . S
H2886 C2900 0.960 . S
H2887 C2900 0.960 . S
C2888 H2880 0.929 . S
C2888 C2889 1.377 . S
C2888 C2890 1.384 . S
C2889 C2888 1.377 . S
C2889 C2895 1.390 . S
C2890 H2881 0.930 . S
C2890 C2888 1.384 . S
C2890 C2891 1.372 . S
C2891 C2890 1.372 . S
C2891 C2892 1.400 . S
C2891 C2896 1.490 1_565 S
C2892 H2882 0.930 . S
C2892 C2891 1.400 . S
C2892 C2895 1.386 . S
H2893 C2909 0.930 . S
H2894 C2910 0.931 . S
C2895 H2883 0.929 . S
C2895 C2889 1.390 . S
C2895 C2892 1.386 . S
C2896 C2891 1.490 1_545 S
C2896 C2898 1.395 . S
C2896 C2899 1.403 1_545 S
H2897 C2903 0.930 . S
C2898 H2884 0.930 . S
C2898 C2896 1.395 . S
C2898 C2901 1.403 . S
C2899 C2896 1.403 1_565 S
C2899 C2900 1.524 . S
C2899 C2903 1.400 1_565 S
C2900 H2885 0.960 . S
C2900 H2886 0.960 . S
C2900 H2887 0.960 . S
C2900 C2899 1.524 . S
C2901 C2898 1.403 . S
C2901 C2902 1.392 . S
C2901 C2905 1.495 . S
C2902 C2901 1.392 . S
C2902 C2903 1.385 . S
C2902 C2904 1.478 . S
C2903 H2897 0.930 . S
C2903 C2899 1.400 1_545 S
C2903 C2902 1.385 . S
C2904 C2902 1.478 . S
C2904 C2906 1.381 . S
C2904 C2910 1.383 . S
C2905 C2901 1.495 . S
C2905 H2911 0.959 . S
C2905 H2912 0.961 . S
C2905 H2913 0.960 . S
C2906 C2904 1.381 . S
C2906 C2907 1.394 . S
C2906 H2914 0.930 . S
C2907 C2906 1.394 . S
C2907 C2908 1.383 . S
C2907 H2915 0.929 . S
C2908 C2907 1.383 . S
C2908 C2909 1.377 . S
C2909 H2893 0.930 . S
C2909 C2908 1.377 . S
C2909 C2910 1.379 . S
C2910 H2894 0.931 . S
C2910 C2904 1.383 . S
C2910 C2909 1.379 . S
H2911 C2905 0.959 . S
H2912 C2905 0.961 . S
H2913 C2905 0.960 . S
H2914 C2906 0.930 . S
H2915 C2907 0.929 . S
H2916 C2924 0.929 . S
H2917 C2926 0.930 . S
H2918 C2928 0.930 . S
H2919 C2931 0.929 . S
H2920 C2934 0.927 . S
H2921 C2936 0.960 . S
H2922 C2936 0.960 . S
H2923 C2936 0.960 . S
C2924 H2916 0.929 . S
C2924 C2925 1.377 . S
C2924 C2926 1.384 . S
C2925 C2924 1.377 . S
C2925 C2931 1.390 . S
C2926 H2917 0.930 . S
C2926 C2924 1.384 . S
C2926 C2927 1.372 . S
C2927 C2926 1.372 . S
C2927 C2928 1.400 . S
C2927 C2932 1.490 . S
C2928 H2918 0.930 . S
C2928 C2927 1.400 . S
C2928 C2931 1.386 . S
H2929 C2945 0.929 1_655 S
H2930 C2946 0.931 . S
C2931 H2919 0.929 . S
C2931 C2925 1.390 . S
C2931 C2928 1.386 . S
C2932 C2927 1.490 . S
C2932 C2934 1.395 . S
C2932 C2935 1.403 . S
H2933 C2939 0.930 . S
C2934 H2920 0.927 . S
C2934 C2932 1.395 . S
C2934 C2937 1.403 1_655 S
C2935 C2932 1.403 . S
C2935 C2936 1.524 . S
C2935 C2939 1.400 . S
C2936 H2921 0.960 . S
C2936 H2922 0.960 . S
C2936 H2923 0.960 . S
C2936 C2935 1.524 . S
C2937 C2934 1.403 1_455 S
C2937 C2938 1.392 1_455 S
C2937 C2941 1.495 . S
C2938 C2937 1.392 1_655 S
C2938 C2939 1.385 . S
C2938 C2940 1.478 1_655 S
C2939 H2933 0.930 . S
C2939 C2935 1.400 . S
C2939 C2938 1.385 . S
C2940 C2938 1.478 1_455 S
C2940 C2942 1.381 . S
C2940 C2946 1.383 1_455 S
C2941 C2937 1.495 . S
C2941 H2947 0.959 . S
C2941 H2948 0.961 . S
C2941 H2949 0.960 . S
C2942 C2940 1.381 . S
C2942 C2943 1.394 . S
C2942 H2950 0.930 . S
C2943 C2942 1.394 . S
C2943 C2944 1.383 . S
C2943 H2951 0.929 . S
C2944 C2943 1.383 . S
C2944 C2945 1.377 . S
C2945 H2929 0.929 1_455 S
C2945 C2944 1.377 . S
C2945 C2946 1.379 1_455 S
C2946 H2930 0.931 . S
C2946 C2940 1.383 1_655 S
C2946 C2945 1.379 1_655 S
H2947 C2941 0.959 . S
H2948 C2941 0.961 . S
H2949 C2941 0.960 . S
H2950 C2942 0.930 . S
H2951 C2943 0.929 . S
H2952 C2960 0.929 . S
H2953 C2962 0.930 . S
H2954 C2964 0.930 . S
H2955 C2967 0.929 . S
H2956 C2970 0.930 . S
H2957 C2972 0.960 . S
H2958 C2972 0.960 . S
H2959 C2972 0.960 . S
C2960 H2952 0.929 . S
C2960 C2961 1.377 . S
C2960 C2962 1.384 . S
C2961 C2960 1.377 . S
C2961 C2967 1.390 . S
C2962 H2953 0.930 . S
C2962 C2960 1.384 . S
C2962 C2963 1.372 . S
C2963 C2962 1.372 . S
C2963 C2964 1.400 . S
C2963 C2968 1.490 . S
C2964 H2954 0.930 . S
C2964 C2963 1.400 . S
C2964 C2967 1.386 . S
H2965 C2981 0.930 . S
H2966 C2982 0.931 . S
C2967 H2955 0.929 . S
C2967 C2961 1.390 . S
C2967 C2964 1.386 . S
C2968 C2963 1.490 . S
C2968 C2970 1.395 . S
C2968 C2971 1.403 . S
H2969 C2975 0.930 . S
C2970 H2956 0.930 . S
C2970 C2968 1.395 . S
C2970 C2973 1.403 . S
C2971 C2968 1.403 . S
C2971 C2972 1.524 . S
C2971 C2975 1.400 . S
C2972 H2957 0.960 . S
C2972 H2958 0.960 . S
C2972 H2959 0.960 . S
C2972 C2971 1.524 . S
C2973 C2970 1.403 . S
C2973 C2974 1.392 . S
C2973 C2977 1.495 . S
C2974 C2973 1.392 . S
C2974 C2975 1.385 . S
C2974 C2976 1.478 . S
C2975 H2969 0.930 . S
C2975 C2971 1.400 . S
C2975 C2974 1.385 . S
C2976 C2974 1.478 . S
C2976 C2978 1.381 . S
C2976 C2982 1.383 . S
C2977 C2973 1.495 . S
C2977 H2983 0.959 . S
C2977 H2984 0.961 . S
C2977 H2985 0.960 . S
C2978 C2976 1.381 . S
C2978 C2979 1.394 . S
C2978 H2986 0.930 . S
C2979 C2978 1.394 . S
C2979 C2980 1.383 . S
C2979 H2987 0.929 . S
C2980 C2979 1.383 . S
C2980 C2981 1.377 . S
C2981 H2965 0.930 . S
C2981 C2980 1.377 . S
C2981 C2982 1.379 . S
C2982 H2966 0.931 . S
C2982 C2976 1.383 . S
C2982 C2981 1.379 . S
H2983 C2977 0.959 . S
H2984 C2977 0.961 . S
H2985 C2977 0.960 . S
H2986 C2978 0.930 . S
H2987 C2979 0.929 . S
H2988 C2996 0.929 . S
H2989 C2998 0.930 . S
H2990 C3000 0.930 . S
H2991 C3003 0.929 . S
H2992 C3006 0.930 . S
H2993 C3008 0.960 . S
H2994 C3008 0.960 . S
H2995 C3008 0.960 . S
C2996 H2988 0.929 . S
C2996 C2997 1.377 . S
C2996 C2998 1.384 . S
C2997 C2996 1.377 . S
C2997 C3003 1.390 . S
C2998 H2989 0.930 . S
C2998 C2996 1.384 . S
C2998 C2999 1.372 . S
C2999 C2998 1.372 . S
C2999 C3000 1.400 . S
C2999 C3004 1.490 . S
C3000 H2990 0.930 . S
C3000 C2999 1.400 . S
C3000 C3003 1.386 . S
H3001 C3017 0.930 . S
H3002 C3018 0.931 . S
C3003 H2991 0.929 . S
C3003 C2997 1.390 . S
C3003 C3000 1.386 . S
C3004 C2999 1.490 . S
C3004 C3006 1.395 . S
C3004 C3007 1.403 . S
H3005 C3011 0.930 . S
C3006 H2992 0.930 . S
C3006 C3004 1.395 . S
C3006 C3009 1.403 1_545 S
C3007 C3004 1.403 . S
C3007 C3008 1.524 . S
C3007 C3011 1.400 . S
C3008 H2993 0.960 . S
C3008 H2994 0.960 . S
C3008 H2995 0.960 . S
C3008 C3007 1.524 . S
C3009 C3006 1.403 1_565 S
C3009 C3010 1.392 1_565 S
C3009 C3013 1.495 . S
C3010 C3009 1.392 1_545 S
C3010 C3011 1.385 . S
C3010 C3012 1.478 1_545 S
C3011 H3005 0.930 . S
C3011 C3007 1.400 . S
C3011 C3010 1.385 . S
C3012 C3010 1.478 1_565 S
C3012 C3014 1.381 . S
C3012 C3018 1.383 . S
C3013 C3009 1.495 . S
C3013 H3019 0.959 . S
C3013 H3020 0.961 . S
C3013 H3021 0.960 . S
C3014 C3012 1.381 . S
C3014 C3015 1.394 . S
C3014 H3022 0.930 . S
C3015 C3014 1.394 . S
C3015 C3016 1.383 . S
C3015 H3023 0.929 . S
C3016 C3015 1.383 . S
C3016 C3017 1.377 . S
C3017 H3001 0.930 . S
C3017 C3016 1.377 . S
C3017 C3018 1.379 . S
C3018 H3002 0.931 . S
C3018 C3012 1.383 . S
C3018 C3017 1.379 . S
H3019 C3013 0.959 . S
H3020 C3013 0.961 . S
H3021 C3013 0.960 . S
H3022 C3014 0.930 . S
H3023 C3015 0.929 . S
H3024 C3032 0.929 . S
H3025 C3034 0.930 . S
H3026 C3036 0.930 . S
H3027 C3039 0.929 . S
H3028 C3042 0.930 . S
H3029 C3044 0.960 . S
H3030 C3044 0.960 1_655 S
H3031 C3044 0.960 . S
C3032 H3024 0.929 . S
C3032 C3033 1.377 . S
C3032 C3034 1.384 . S
C3033 C3032 1.377 . S
C3033 C3039 1.390 . S
C3034 H3025 0.930 . S
C3034 C3032 1.384 . S
C3034 C3035 1.372 . S
C3035 C3034 1.372 . S
C3035 C3036 1.400 . S
C3035 C3040 1.490 . S
C3036 H3026 0.930 . S
C3036 C3035 1.400 . S
C3036 C3039 1.386 . S
H3037 C3053 0.930 . S
H3038 C3054 0.931 . S
C3039 H3027 0.929 . S
C3039 C3033 1.390 . S
C3039 C3036 1.386 . S
C3040 C3035 1.490 . S
C3040 C3042 1.395 . S
C3040 C3043 1.403 . S
H3041 C3047 0.911 1_455 S
C3042 H3028 0.930 . S
C3042 C3040 1.395 . S
C3042 C3045 1.403 . S
C3043 C3040 1.403 . S
C3043 C3044 1.524 1_655 S
C3043 C3047 1.397 . S
C3044 H3029 0.960 . S
C3044 H3030 0.960 1_455 S
C3044 H3031 0.960 . S
C3044 C3043 1.524 1_455 S
C3045 C3042 1.403 . S
C3045 C3046 1.392 . S
C3045 C3049 1.495 . S
C3046 C3045 1.392 . S
C3046 C3047 1.408 . S
C3046 C3048 1.478 1_655 S
C3047 H3041 0.911 1_655 S
C3047 C3043 1.397 . S
C3047 C3046 1.408 . S
C3048 C3046 1.478 1_455 S
C3048 C3050 1.381 1_455 S
C3048 C3054 1.383 . S
C3049 C3045 1.495 . S
C3049 H3055 0.959 . S
C3049 H3056 0.961 . S
C3049 H3057 0.960 . S
C3050 C3048 1.381 1_655 S
C3050 C3051 1.394 1_655 S
C3050 H3058 0.930 . S
C3051 C3050 1.394 1_455 S
C3051 C3052 1.383 . S
C3051 H3059 0.929 1_455 S
C3052 C3051 1.383 . S
C3052 C3053 1.377 . S
C3053 H3037 0.930 . S
C3053 C3052 1.377 . S
C3053 C3054 1.379 . S
C3054 H3038 0.931 . S
C3054 C3048 1.383 . S
C3054 C3053 1.379 . S
H3055 C3049 0.959 . S
H3056 C3049 0.961 . S
H3057 C3049 0.960 . S
H3058 C3050 0.930 . S
H3059 C3051 0.929 1_655 S
H3060 C3068 0.929 . S
H3061 C3070 0.930 . S
H3062 C3072 0.930 . S
H3063 C3075 0.929 . S
H3064 C3078 0.930 . S
H3065 C3080 0.960 . S
H3066 C3080 0.960 . S
H3067 C3080 0.960 . S
C3068 H3060 0.929 . S
C3068 C3069 1.377 . S
C3068 C3070 1.384 . S
C3069 C3068 1.377 . S
C3069 C3075 1.390 . S
C3070 H3061 0.930 . S
C3070 C3068 1.384 . S
C3070 C3071 1.372 . S
C3071 C3070 1.372 . S
C3071 C3072 1.400 . S
C3071 C3076 1.490 . S
C3072 H3062 0.930 . S
C3072 C3071 1.400 . S
C3072 C3075 1.386 . S
H3073 C3089 0.930 . S
H3074 C3090 0.931 . S
C3075 H3063 0.929 . S
C3075 C3069 1.390 . S
C3075 C3072 1.386 . S
C3076 C3071 1.490 . S
C3076 C3078 1.395 . S
C3076 C3079 1.403 . S
H3077 C3083 0.930 . S
C3078 H3064 0.930 . S
C3078 C3076 1.395 . S
C3078 C3081 1.403 . S
C3079 C3076 1.403 . S
C3079 C3080 1.524 . S
C3079 C3083 1.400 . S
C3080 H3065 0.960 . S
C3080 H3066 0.960 . S
C3080 H3067 0.960 . S
C3080 C3079 1.524 . S
C3081 C3078 1.403 . S
C3081 C3082 1.392 . S
C3081 C3085 1.495 . S
C3082 C3081 1.392 . S
C3082 C3083 1.385 . S
C3082 C3084 1.478 . S
C3083 H3077 0.930 . S
C3083 C3079 1.400 . S
C3083 C3082 1.385 . S
C3084 C3082 1.478 . S
C3084 C3086 1.381 . S
C3084 C3090 1.383 . S
C3085 C3081 1.495 . S
C3085 H3091 0.959 . S
C3085 H3092 0.961 . S
C3085 H3093 0.960 . S
C3086 C3084 1.381 . S
C3086 C3087 1.394 . S
C3086 H3094 0.930 . S
C3087 C3086 1.394 . S
C3087 C3088 1.383 . S
C3087 H3095 0.929 . S
C3088 C3087 1.383 . S
C3088 C3089 1.377 . S
C3089 H3073 0.930 . S
C3089 C3088 1.377 . S
C3089 C3090 1.379 . S
C3090 H3074 0.931 . S
C3090 C3084 1.383 . S
C3090 C3089 1.379 . S
H3091 C3085 0.959 . S
H3092 C3085 0.961 . S
H3093 C3085 0.960 . S
H3094 C3086 0.930 . S
H3095 C3087 0.929 . S
H3096 C3104 0.929 . S
H3097 C3106 0.930 1_565 S
H3098 C3108 0.930 . S
H3099 C3111 0.929 . S
H3100 C3114 0.950 . S
H3101 C3116 0.960 . S
H3102 C3116 0.960 . S
H3103 C3116 0.960 . S
C3104 H3096 0.929 . S
C3104 C3105 1.377 . S
C3104 C3106 1.384 . S
C3105 C3104 1.377 . S
C3105 C3111 1.390 . S
C3106 H3097 0.930 1_545 S
C3106 C3104 1.384 . S
C3106 C3107 1.372 . S
C3107 C3106 1.372 . S
C3107 C3108 1.400 . S
C3107 C3112 1.490 1_545 S
C3108 H3098 0.930 . S
C3108 C3107 1.400 . S
C3108 C3111 1.386 . S
H3109 C3125 0.930 . S
H3110 C3126 0.931 . S
C3111 H3099 0.929 . S
C3111 C3105 1.390 . S
C3111 C3108 1.386 . S
C3112 C3107 1.490 1_565 S
C3112 C3114 1.371 1_565 S
C3112 C3115 1.403 . S
H3113 C3119 0.930 . S
C3114 H3100 0.950 . S
C3114 C3112 1.371 1_545 S
C3114 C3117 1.408 1_545 S
C3115 C3112 1.403 . S
C3115 C3116 1.524 . S
C3115 C3119 1.400 . S
C3116 H3101 0.960 . S
C3116 H3102 0.960 . S
C3116 H3103 0.960 . S
C3116 C3115 1.524 . S
C3117 C3114 1.408 1_565 S
C3117 C3118 1.392 . S
C3117 C3121 1.495 1_565 S
C3118 C3117 1.392 . S
C3118 C3119 1.385 . S
C3118 C3120 1.478 . S
C3119 H3113 0.930 . S
C3119 C3115 1.400 . S
C3119 C3118 1.385 . S
C3120 C3118 1.478 . S
C3120 C3122 1.381 . S
C3120 C3126 1.383 . S
C3121 C3117 1.495 1_545 S
C3121 H3127 0.959 . S
C3121 H3128 0.961 . S
C3121 H3129 0.960 1_545 S
C3122 C3120 1.381 . S
C3122 C3123 1.394 . S
C3122 H3130 0.930 . S
C3123 C3122 1.394 . S
C3123 C3124 1.383 . S
C3123 H3131 0.929 . S
C3124 C3123 1.383 . S
C3124 C3125 1.377 . S
C3125 H3109 0.930 . S
C3125 C3124 1.377 . S
C3125 C3126 1.379 . S
C3126 H3110 0.931 . S
C3126 C3120 1.383 . S
C3126 C3125 1.379 . S
H3127 C3121 0.959 . S
H3128 C3121 0.961 . S
H3129 C3121 0.960 1_565 S
H3130 C3122 0.930 . S
H3131 C3123 0.929 . S
H3132 C3140 0.929 . S
H3133 C3142 0.930 . S
H3134 C3144 0.930 . S
H3135 C3147 0.929 1_455 S
H3136 C3150 0.930 . S
H3137 C3152 0.960 . S
H3138 C3152 0.960 . S
H3139 C3152 0.960 . S
C3140 H3132 0.929 . S
C3140 C3141 1.377 . S
C3140 C3142 1.384 . S
C3141 C3140 1.377 . S
C3141 C3147 1.390 . S
C3142 H3133 0.930 . S
C3142 C3140 1.384 . S
C3142 C3143 1.372 . S
C3143 C3142 1.372 . S
C3143 C3144 1.400 1_655 S
C3143 C3148 1.490 1_655 S
C3144 H3134 0.930 . S
C3144 C3143 1.400 1_455 S
C3144 C3147 1.386 1_455 S
H3145 C3161 0.930 . S
H3146 C3162 0.931 . S
C3147 H3135 0.929 1_655 S
C3147 C3141 1.390 . S
C3147 C3144 1.386 1_655 S
C3148 C3143 1.490 1_455 S
C3148 C3150 1.395 1_455 S
C3148 C3151 1.403 . S
H3149 C3155 0.930 . S
C3150 H3136 0.930 . S
C3150 C3148 1.395 1_655 S
C3150 C3153 1.403 1_655 S
C3151 C3148 1.403 . S
C3151 C3152 1.524 . S
C3151 C3155 1.400 . S
C3152 H3137 0.960 . S
C3152 H3138 0.960 . S
C3152 H3139 0.960 . S
C3152 C3151 1.524 . S
C3153 C3150 1.403 1_455 S
C3153 C3154 1.392 . S
C3153 C3157 1.495 1_455 S
C3154 C3153 1.392 . S
C3154 C3155 1.385 . S
C3154 C3156 1.478 . S
C3155 H3149 0.930 . S
C3155 C3151 1.400 . S
C3155 C3154 1.385 . S
C3156 C3154 1.478 . S
C3156 C3158 1.381 . S
C3156 C3162 1.383 . S
C3157 C3153 1.495 1_655 S
C3157 H3163 0.959 . S
C3157 H3164 0.961 . S
C3157 H3165 0.960 . S
C3158 C3156 1.381 . S
C3158 C3159 1.394 . S
C3158 H3166 0.930 . S
C3159 C3158 1.394 . S
C3159 C3160 1.383 . S
C3159 H3167 0.929 . S
C3160 C3159 1.383 . S
C3160 C3161 1.377 . S
C3161 H3145 0.930 . S
C3161 C3160 1.377 . S
C3161 C3162 1.379 . S
C3162 H3146 0.931 . S
C3162 C3156 1.383 . S
C3162 C3161 1.379 . S
H3163 C3157 0.959 . S
H3164 C3157 0.961 . S
H3165 C3157 0.960 . S
H3166 C3158 0.930 . S
H3167 C3159 0.929 . S
H3168 C3176 0.929 . S
H3169 C3178 0.930 . S
H3170 C3180 0.930 . S
H3171 C3183 0.929 . S
H3172 C3186 0.930 . S
H3173 C3188 0.960 1_455 S
H3174 C3188 0.960 . S
H3175 C3188 0.960 . S
C3176 H3168 0.929 . S
C3176 C3177 1.377 . S
C3176 C3178 1.384 . S
C3177 C3176 1.377 . S
C3177 C3183 1.390 . S
C3178 H3169 0.930 . S
C3178 C3176 1.384 . S
C3178 C3179 1.372 . S
C3179 C3178 1.372 . S
C3179 C3180 1.400 . S
C3179 C3184 1.490 . S
C3180 H3170 0.930 . S
C3180 C3179 1.400 . S
C3180 C3183 1.386 . S
H3181 C3197 0.930 . S
H3182 C3198 0.931 . S
C3183 H3171 0.929 . S
C3183 C3177 1.390 . S
C3183 C3180 1.386 . S
C3184 C3179 1.490 . S
C3184 C3186 1.395 . S
C3184 C3187 1.403 1_655 S
H3185 C3191 0.930 . S
C3186 H3172 0.930 . S
C3186 C3184 1.395 . S
C3186 C3189 1.403 1_655 S
C3187 C3184 1.403 1_455 S
C3187 C3188 1.524 1_455 S
C3187 C3191 1.400 . S
C3188 H3173 0.960 1_655 S
C3188 H3174 0.960 . S
C3188 H3175 0.960 . S
C3188 C3187 1.524 1_655 S
C3189 C3186 1.403 1_455 S
C3189 C3190 1.392 . S
C3189 C3193 1.495 . S
C3190 C3189 1.392 . S
C3190 C3191 1.385 . S
C3190 C3192 1.478 . S
C3191 H3185 0.930 . S
C3191 C3187 1.400 . S
C3191 C3190 1.385 . S
C3192 C3190 1.478 . S
C3192 C3194 1.381 . S
C3192 C3198 1.383 . S
C3193 C3189 1.495 . S
C3193 H3199 0.959 . S
C3193 H3200 0.961 . S
C3193 H3201 0.960 . S
C3194 C3192 1.381 . S
C3194 C3195 1.394 . S
C3194 H3202 0.930 . S
C3195 C3194 1.394 . S
C3195 C3196 1.383 . S
C3195 H3203 0.929 . S
C3196 C3195 1.383 . S
C3196 C3197 1.377 . S
C3197 H3181 0.930 . S
C3197 C3196 1.377 . S
C3197 C3198 1.379 . S
C3198 H3182 0.931 . S
C3198 C3192 1.383 . S
C3198 C3197 1.379 . S
H3199 C3193 0.959 . S
H3200 C3193 0.961 . S
H3201 C3193 0.960 . S
H3202 C3194 0.930 . S
H3203 C3195 0.929 . S
H3204 C3212 0.929 . S
H3205 C3214 0.930 . S
H3206 C3216 0.930 . S
H3207 C3219 0.929 . S
H3208 C3222 0.930 . S
H3209 C3224 0.960 . S
H3210 C3224 0.960 . S
H3211 C3224 0.960 . S
C3212 H3204 0.929 . S
C3212 C3213 1.377 . S
C3212 C3214 1.384 . S
C3213 C3212 1.377 . S
C3213 C3219 1.390 . S
C3214 H3205 0.930 . S
C3214 C3212 1.384 . S
C3214 C3215 1.372 . S
C3215 C3214 1.372 . S
C3215 C3216 1.400 . S
C3215 C3220 1.490 . S
C3216 H3206 0.930 . S
C3216 C3215 1.400 . S
C3216 C3219 1.386 . S
H3217 C3233 0.930 . S
H3218 C3234 0.931 . S
C3219 H3207 0.929 . S
C3219 C3213 1.390 . S
C3219 C3216 1.386 . S
C3220 C3215 1.490 . S
C3220 C3222 1.395 . S
C3220 C3223 1.403 . S
H3221 C3227 0.930 . S
C3222 H3208 0.930 . S
C3222 C3220 1.395 . S
C3222 C3225 1.403 . S
C3223 C3220 1.403 . S
C3223 C3224 1.524 . S
C3223 C3227 1.400 . S
C3224 H3209 0.960 . S
C3224 H3210 0.960 . S
C3224 H3211 0.960 . S
C3224 C3223 1.524 . S
C3225 C3222 1.403 . S
C3225 C3226 1.392 . S
C3225 C3229 1.495 . S
C3226 C3225 1.392 . S
C3226 C3227 1.385 . S
C3226 C3228 1.478 . S
C3227 H3221 0.930 . S
C3227 C3223 1.400 . S
C3227 C3226 1.385 . S
C3228 C3226 1.478 . S
C3228 C3230 1.381 . S
C3228 C3234 1.383 . S
C3229 C3225 1.495 . S
C3229 H3235 0.959 . S
C3229 H3236 0.961 . S
C3229 H3237 0.960 . S
C3230 C3228 1.381 . S
C3230 C3231 1.394 . S
C3230 H3238 0.930 . S
C3231 C3230 1.394 . S
C3231 C3232 1.383 . S
C3231 H3239 0.929 . S
C3232 C3231 1.383 . S
C3232 C3233 1.377 . S
C3233 H3217 0.930 . S
C3233 C3232 1.377 . S
C3233 C3234 1.379 . S
C3234 H3218 0.931 . S
C3234 C3228 1.383 . S
C3234 C3233 1.379 . S
H3235 C3229 0.959 . S
H3236 C3229 0.961 . S
H3237 C3229 0.960 . S
H3238 C3230 0.930 . S
H3239 C3231 0.929 . S
H3240 C3248 0.929 . S
H3241 C3250 0.930 . S
H3242 C3252 0.930 . S
H3243 C3255 0.929 . S
H3244 C3258 0.930 . S
H3245 C3260 0.960 . S
H3246 C3260 0.960 . S
H3247 C3260 0.960 . S
C3248 H3240 0.929 . S
C3248 C3249 1.377 . S
C3248 C3250 1.384 . S
C3249 C3248 1.377 . S
C3249 C3255 1.390 . S
C3250 H3241 0.930 . S
C3250 C3248 1.384 . S
C3250 C3251 1.372 . S
C3251 C3250 1.372 . S
C3251 C3252 1.400 . S
C3251 C3256 1.490 . S
C3252 H3242 0.930 . S
C3252 C3251 1.400 . S
C3252 C3255 1.386 . S
H3253 C3269 0.930 . S
H3254 C3270 0.931 . S
C3255 H3243 0.929 . S
C3255 C3249 1.390 . S
C3255 C3252 1.386 . S
C3256 C3251 1.490 . S
C3256 C3258 1.395 . S
C3256 C3259 1.403 . S
H3257 C3263 0.930 1_545 S
C3258 H3244 0.930 . S
C3258 C3256 1.395 . S
C3258 C3261 1.403 1_565 S
C3259 C3256 1.403 . S
C3259 C3260 1.524 . S
C3259 C3263 1.400 . S
C3260 H3245 0.960 . S
C3260 H3246 0.960 . S
C3260 H3247 0.960 . S
C3260 C3259 1.524 . S
C3261 C3258 1.403 1_545 S
C3261 C3262 1.392 . S
C3261 C3265 1.495 . S
C3262 C3261 1.392 . S
C3262 C3263 1.385 1_545 S
C3262 C3264 1.478 . S
C3263 H3257 0.930 1_565 S
C3263 C3259 1.400 . S
C3263 C3262 1.385 1_565 S
C3264 C3262 1.478 . S
C3264 C3266 1.381 . S
C3264 C3270 1.383 . S
C3265 C3261 1.495 . S
C3265 H3271 0.959 . S
C3265 H3272 0.961 . S
C3265 H3273 0.960 . S
C3266 C3264 1.381 . S
C3266 C3267 1.394 . S
C3266 H3274 0.930 . S
C3267 C3266 1.394 . S
C3267 C3268 1.383 . S
C3267 H3275 0.929 . S
C3268 C3267 1.383 . S
C3268 C3269 1.377 . S
C3269 H3253 0.930 . S
C3269 C3268 1.377 . S
C3269 C3270 1.379 . S
C3270 H3254 0.931 . S
C3270 C3264 1.383 . S
C3270 C3269 1.379 . S
H3271 C3265 0.959 . S
H3272 C3265 0.961 . S
H3273 C3265 0.960 . S
H3274 C3266 0.930 . S
H3275 C3267 0.929 . S
H3276 C3284 0.929 . S
H3277 C3286 0.930 . S
H3278 C3288 0.930 . S
H3279 C3291 0.929 . S
H3280 C3294 0.930 . S
H3281 C3296 0.960 . S
H3282 C3296 0.960 . S
H3283 C3296 0.960 . S
C3284 H3276 0.929 . S
C3284 C3285 1.377 . S
C3284 C3286 1.384 . S
C3285 C3284 1.377 . S
C3285 C3291 1.390 . S
C3286 H3277 0.930 . S
C3286 C3284 1.384 . S
C3286 C3287 1.372 . S
C3287 C3286 1.372 . S
C3287 C3288 1.400 . S
C3287 C3292 1.490 . S
C3288 H3278 0.930 . S
C3288 C3287 1.400 . S
C3288 C3291 1.386 . S
H3289 C3305 0.930 . S
H3290 C3306 0.931 . S
C3291 H3279 0.929 . S
C3291 C3285 1.390 . S
C3291 C3288 1.386 . S
C3292 C3287 1.490 . S
C3292 C3294 1.395 . S
C3292 C3295 1.403 . S
H3293 C3299 0.930 . S
C3294 H3280 0.930 . S
C3294 C3292 1.395 . S
C3294 C3297 1.403 . S
C3295 C3292 1.403 . S
C3295 C3296 1.524 . S
C3295 C3299 1.400 . S
C3296 H3281 0.960 . S
C3296 H3282 0.960 . S
C3296 H3283 0.960 . S
C3296 C3295 1.524 . S
C3297 C3294 1.403 . S
C3297 C3298 1.392 . S
C3297 C3301 1.495 1_455 S
C3298 C3297 1.392 . S
C3298 C3299 1.385 . S
C3298 C3300 1.478 . S
C3299 H3293 0.930 . S
C3299 C3295 1.400 . S
C3299 C3298 1.385 . S
C3300 C3298 1.478 . S
C3300 C3302 1.381 . S
C3300 C3306 1.383 1_455 S
C3301 C3297 1.495 1_655 S
C3301 H3307 0.959 . S
C3301 H3308 0.961 . S
C3301 H3309 0.960 . S
C3302 C3300 1.381 . S
C3302 C3303 1.394 1_455 S
C3302 H3310 0.930 . S
C3303 C3302 1.394 1_655 S
C3303 C3304 1.383 . S
C3303 H3311 0.929 . S
C3304 C3303 1.383 . S
C3304 C3305 1.377 . S
C3305 H3289 0.930 . S
C3305 C3304 1.377 . S
C3305 C3306 1.379 . S
C3306 H3290 0.931 . S
C3306 C3300 1.383 1_655 S
C3306 C3305 1.379 . S
H3307 C3301 0.959 . S
H3308 C3301 0.961 . S
H3309 C3301 0.960 . S
H3310 C3302 0.930 . S
H3311 C3303 0.929 . S
H3312 C3320 0.929 . S
H3313 C3322 0.930 . S
H3314 C3324 0.930 . S
H3315 C3327 0.929 . S
H3316 C3330 0.930 . S
H3317 C3332 0.960 . S
H3318 C3332 0.960 . S
H3319 C3332 0.960 . S
C3320 H3312 0.929 . S
C3320 C3321 1.377 . S
C3320 C3322 1.384 . S
C3321 C3320 1.377 . S
C3321 C3327 1.390 . S
C3322 H3313 0.930 . S
C3322 C3320 1.384 . S
C3322 C3323 1.372 . S
C3323 C3322 1.372 . S
C3323 C3324 1.400 . S
C3323 C3328 1.490 . S
C3324 H3314 0.930 . S
C3324 C3323 1.400 . S
C3324 C3327 1.386 . S
H3325 C3341 0.930 . S
H3326 C3342 0.931 . S
C3327 H3315 0.929 . S
C3327 C3321 1.390 . S
C3327 C3324 1.386 . S
C3328 C3323 1.490 . S
C3328 C3330 1.395 . S
C3328 C3331 1.403 . S
H3329 C3335 0.930 . S
C3330 H3316 0.930 . S
C3330 C3328 1.395 . S
C3330 C3333 1.403 . S
C3331 C3328 1.403 . S
C3331 C3332 1.524 . S
C3331 C3335 1.400 . S
C3332 H3317 0.960 . S
C3332 H3318 0.960 . S
C3332 H3319 0.960 . S
C3332 C3331 1.524 . S
C3333 C3330 1.403 . S
C3333 C3334 1.392 . S
C3333 C3337 1.495 . S
C3334 C3333 1.392 . S
C3334 C3335 1.385 . S
C3334 C3336 1.478 . S
C3335 H3329 0.930 . S
C3335 C3331 1.400 . S
C3335 C3334 1.385 . S
C3336 C3334 1.478 . S
C3336 C3338 1.381 . S
C3336 C3342 1.383 . S
C3337 C3333 1.495 . S
C3337 H3343 0.959 . S
C3337 H3344 0.961 . S
C3337 H3345 0.960 . S
C3338 C3336 1.381 . S
C3338 C3339 1.394 . S
C3338 H3346 0.930 . S
C3339 C3338 1.394 . S
C3339 C3340 1.383 . S
C3339 H3347 0.929 . S
C3340 C3339 1.383 . S
C3340 C3341 1.377 . S
C3341 H3325 0.930 . S
C3341 C3340 1.377 . S
C3341 C3342 1.379 . S
C3342 H3326 0.931 . S
C3342 C3336 1.383 . S
C3342 C3341 1.379 . S
H3343 C3337 0.959 . S
H3344 C3337 0.961 . S
H3345 C3337 0.960 . S
H3346 C3338 0.930 . S
H3347 C3339 0.929 . S
H3348 C3356 0.929 . S
H3349 C3358 0.930 . S
H3350 C3360 0.930 . S
H3351 C3363 0.929 . S
H3352 C3366 0.930 . S
H3353 C3368 0.960 . S
H3354 C3368 0.960 . S
H3355 C3368 0.960 . S
C3356 H3348 0.929 . S
C3356 C3357 1.377 . S
C3356 C3358 1.384 . S
C3357 C3356 1.377 . S
C3357 C3363 1.390 . S
C3358 H3349 0.930 . S
C3358 C3356 1.384 . S
C3358 C3359 1.372 . S
C3359 C3358 1.372 . S
C3359 C3360 1.400 . S
C3359 C3364 1.490 . S
C3360 H3350 0.930 . S
C3360 C3359 1.400 . S
C3360 C3363 1.386 . S
H3361 C3377 0.930 . S
H3362 C3378 0.931 . S
C3363 H3351 0.929 . S
C3363 C3357 1.390 . S
C3363 C3360 1.386 . S
C3364 C3359 1.490 . S
C3364 C3366 1.395 . S
C3364 C3367 1.403 . S
H3365 C3371 0.930 . S
C3366 H3352 0.930 . S
C3366 C3364 1.395 . S
C3366 C3369 1.403 . S
C3367 C3364 1.403 . S
C3367 C3368 1.524 . S
C3367 C3371 1.400 . S
C3368 H3353 0.960 . S
C3368 H3354 0.960 . S
C3368 H3355 0.960 . S
C3368 C3367 1.524 . S
C3369 C3366 1.403 . S
C3369 C3370 1.392 . S
C3369 C3373 1.495 . S
C3370 C3369 1.392 . S
C3370 C3371 1.385 . S
C3370 C3372 1.478 . S
C3371 H3365 0.930 . S
C3371 C3367 1.400 . S
C3371 C3370 1.385 . S
C3372 C3370 1.478 . S
C3372 C3374 1.381 1_565 S
C3372 C3378 1.383 . S
C3373 C3369 1.495 . S
C3373 H3379 0.959 . S
C3373 H3380 0.961 . S
C3373 H3381 0.960 . S
C3374 C3372 1.381 1_545 S
C3374 C3375 1.394 . S
C3374 H3382 0.930 . S
C3375 C3374 1.394 . S
C3375 C3376 1.383 . S
C3375 H3383 0.929 . S
C3376 C3375 1.383 . S
C3376 C3377 1.377 . S
C3377 H3361 0.930 . S
C3377 C3376 1.377 . S
C3377 C3378 1.379 1_545 S
C3378 H3362 0.931 . S
C3378 C3372 1.383 . S
C3378 C3377 1.379 1_565 S
H3379 C3373 0.959 . S
H3380 C3373 0.961 . S
H3381 C3373 0.960 . S
H3382 C3374 0.930 . S
H3383 C3375 0.929 . S
H3384 C3392 0.929 . S
H3385 C3394 0.930 . S
H3386 C3396 0.930 . S
H3387 C3399 0.929 . S
H3388 C3402 0.930 . S
H3389 C3404 0.960 . S
H3390 C3404 0.960 . S
H3391 C3404 0.960 . S
C3392 H3384 0.929 . S
C3392 C3393 1.377 . S
C3392 C3394 1.384 . S
C3393 C3392 1.377 . S
C3393 C3399 1.390 . S
C3394 H3385 0.930 . S
C3394 C3392 1.384 . S
C3394 C3395 1.372 . S
C3395 C3394 1.372 . S
C3395 C3396 1.400 . S
C3395 C3400 1.490 . S
C3396 H3386 0.930 . S
C3396 C3395 1.400 . S
C3396 C3399 1.386 . S
H3397 C3413 0.930 . S
H3398 C3414 0.931 . S
C3399 H3387 0.929 . S
C3399 C3393 1.390 . S
C3399 C3396 1.386 . S
C3400 C3395 1.490 . S
C3400 C3402 1.395 . S
C3400 C3403 1.403 . S
H3401 C3407 0.930 . S
C3402 H3388 0.930 . S
C3402 C3400 1.395 . S
C3402 C3405 1.403 . S
C3403 C3400 1.403 . S
C3403 C3404 1.524 . S
C3403 C3407 1.400 . S
C3404 H3389 0.960 . S
C3404 H3390 0.960 . S
C3404 H3391 0.960 . S
C3404 C3403 1.524 . S
C3405 C3402 1.403 . S
C3405 C3406 1.392 . S
C3405 C3409 1.495 . S
C3406 C3405 1.392 . S
C3406 C3407 1.385 . S
C3406 C3408 1.478 . S
C3407 H3401 0.930 . S
C3407 C3403 1.400 . S
C3407 C3406 1.385 . S
C3408 C3406 1.478 . S
C3408 C3410 1.381 . S
C3408 C3414 1.383 1_565 S
C3409 C3405 1.495 . S
C3409 H3415 0.959 . S
C3409 H3416 0.961 . S
C3409 H3417 0.960 . S
C3410 C3408 1.381 . S
C3410 C3411 1.394 . S
C3410 H3418 0.930 . S
C3411 C3410 1.394 . S
C3411 C3412 1.383 1_565 S
C3411 H3419 0.929 . S
C3412 C3411 1.383 1_545 S
C3412 C3413 1.377 . S
C3413 H3397 0.930 . S
C3413 C3412 1.377 . S
C3413 C3414 1.379 . S
C3414 H3398 0.931 . S
C3414 C3408 1.383 1_545 S
C3414 C3413 1.379 . S
H3415 C3409 0.959 . S
H3416 C3409 0.961 . S
H3417 C3409 0.960 . S
H3418 C3410 0.930 . S
H3419 C3411 0.929 . S
H3420 C3428 0.929 . S
H3421 C3430 0.930 . S
H3422 C3432 0.930 . S
H3423 C3435 0.929 . S
H3424 C3438 0.930 . S
H3425 C3440 0.960 . S
H3426 C3440 0.960 . S
H3427 C3440 0.960 . S
C3428 H3420 0.929 . S
C3428 C3429 1.377 . S
C3428 C3430 1.384 . S
C3429 C3428 1.377 . S
C3429 C3435 1.390 . S
C3430 H3421 0.930 . S
C3430 C3428 1.384 . S
C3430 C3431 1.372 1_655 S
C3431 C3430 1.372 1_455 S
C3431 C3432 1.400 . S
C3431 C3436 1.490 . S
C3432 H3422 0.930 . S
C3432 C3431 1.400 . S
C3432 C3435 1.386 1_455 S
H3433 C3449 0.930 . S
H3434 C3450 0.931 . S
C3435 H3423 0.929 . S
C3435 C3429 1.390 . S
C3435 C3432 1.386 1_655 S
C3436 C3431 1.490 . S
C3436 C3438 1.395 . S
C3436 C3439 1.403 . S
H3437 C3443 0.930 . S
C3438 H3424 0.930 . S
C3438 C3436 1.395 . S
C3438 C3441 1.403 . S
C3439 C3436 1.403 . S
C3439 C3440 1.524 1_455 S
C3439 C3443 1.400 . S
C3440 H3425 0.960 . S
C3440 H3426 0.960 . S
C3440 H3427 0.960 . S
C3440 C3439 1.524 1_655 S
C3441 C3438 1.403 . S
C3441 C3442 1.392 . S
C3441 C3445 1.495 . S
C3442 C3441 1.392 . S
C3442 C3443 1.385 . S
C3442 C3444 1.478 . S
C3443 H3437 0.930 . S
C3443 C3439 1.400 . S
C3443 C3442 1.385 . S
C3444 C3442 1.478 . S
C3444 C3446 1.381 . S
C3444 C3450 1.383 . S
C3445 C3441 1.495 . S
C3445 H3451 0.959 . S
C3445 H3452 0.961 . S
C3445 H3453 0.960 . S
C3446 C3444 1.381 . S
C3446 C3447 1.394 . S
C3446 H3454 0.930 . S
C3447 C3446 1.394 . S
C3447 C3448 1.383 . S
C3447 H3455 0.929 . S
C3448 C3447 1.383 . S
C3448 C3449 1.377 . S
C3449 H3433 0.930 . S
C3449 C3448 1.377 . S
C3449 C3450 1.379 . S
C3450 H3434 0.931 . S
C3450 C3444 1.383 . S
C3450 C3449 1.379 . S
H3451 C3445 0.959 . S
H3452 C3445 0.961 . S
H3453 C3445 0.960 . S
H3454 C3446 0.930 . S
H3455 C3447 0.929 . S
H3456 C3464 0.929 . S
H3457 C3466 0.930 . S
H3458 C3468 0.930 . S
H3459 C3471 0.929 . S
H3460 C3474 0.930 . S
H3461 C3476 0.960 . S
H3462 C3476 0.960 . S
H3463 C3476 0.960 . S
C3464 H3456 0.929 . S
C3464 C3465 1.377 . S
C3464 C3466 1.384 . S
C3465 C3464 1.377 . S
C3465 C3471 1.390 . S
C3466 H3457 0.930 . S
C3466 C3464 1.384 . S
C3466 C3467 1.372 . S
C3467 C3466 1.372 . S
C3467 C3468 1.400 . S
C3467 C3472 1.490 . S
C3468 H3458 0.930 . S
C3468 C3467 1.400 . S
C3468 C3471 1.386 . S
H3469 C3485 0.930 . S
H3470 C3486 0.931 . S
C3471 H3459 0.929 . S
C3471 C3465 1.390 . S
C3471 C3468 1.386 . S
C3472 C3467 1.490 . S
C3472 C3474 1.395 . S
C3472 C3475 1.403 . S
H3473 C3479 0.930 . S
C3474 H3460 0.930 . S
C3474 C3472 1.395 . S
C3474 C3477 1.403 . S
C3475 C3472 1.403 . S
C3475 C3476 1.524 . S
C3475 C3479 1.400 . S
C3476 H3461 0.960 . S
C3476 H3462 0.960 . S
C3476 H3463 0.960 . S
C3476 C3475 1.524 . S
C3477 C3474 1.403 . S
C3477 C3478 1.392 . S
C3477 C3481 1.495 . S
C3478 C3477 1.392 . S
C3478 C3479 1.385 . S
C3478 C3480 1.478 . S
C3479 H3473 0.930 . S
C3479 C3475 1.400 . S
C3479 C3478 1.385 . S
C3480 C3478 1.478 . S
C3480 C3482 1.381 . S
C3480 C3486 1.383 . S
C3481 C3477 1.495 . S
C3481 H3487 0.959 . S
C3481 H3488 0.961 . S
C3481 H3489 0.960 . S
C3482 C3480 1.381 . S
C3482 C3483 1.394 . S
C3482 H3490 0.930 . S
C3483 C3482 1.394 . S
C3483 C3484 1.383 . S
C3483 H3491 0.929 . S
C3484 C3483 1.383 . S
C3484 C3485 1.377 . S
C3485 H3469 0.930 . S
C3485 C3484 1.377 . S
C3485 C3486 1.379 . S
C3486 H3470 0.931 . S
C3486 C3480 1.383 . S
C3486 C3485 1.379 . S
H3487 C3481 0.959 . S
H3488 C3481 0.961 . S
H3489 C3481 0.960 . S
H3490 C3482 0.930 . S
H3491 C3483 0.929 . S
H3492 C3500 0.929 . S
H3493 C3502 0.930 . S
H3494 C3504 0.930 . S
H3495 C3507 0.929 . S
H3496 C3510 0.930 . S
H3497 C3512 0.960 . S
H3498 C3512 0.960 . S
H3499 C3512 0.960 1_556 S
C3500 H3492 0.929 . S
C3500 C3501 1.474 . S
C3500 C3502 1.384 . S
C3501 C3500 1.474 . S
C3501 C3507 1.295 1_554 S
C3502 H3493 0.930 . S
C3502 C3500 1.384 . S
C3502 C3503 1.399 . S
C3503 C3502 1.399 . S
C3503 C3504 1.375 1_554 S
C3503 C3508 1.488 1_554 S
C3504 H3494 0.930 . S
C3504 C3503 1.375 1_556 S
C3504 C3507 1.386 . S
H3505 C3521 0.930 . S
H3506 C3522 0.931 . S
C3507 H3495 0.929 . S
C3507 C3501 1.295 1_556 S
C3507 C3504 1.386 . S
C3508 C3503 1.488 1_556 S
C3508 C3510 1.396 . S
C3508 C3511 1.400 1_556 S
H3509 C3515 0.929 . S
C3510 H3496 0.930 . S
C3510 C3508 1.396 . S
C3510 C3513 1.396 1_565 S
C3511 C3508 1.400 1_554 S
C3511 C3512 1.533 . S
C3511 C3515 1.395 1_564 S
C3512 H3497 0.960 . S
C3512 H3498 0.960 . S
C3512 H3499 0.960 1_554 S
C3512 C3511 1.533 . S
C3513 C3510 1.396 1_545 S
C3513 C3514 1.401 . S
C3513 C3517 1.494 . S
C3514 C3513 1.401 . S
C3514 C3515 1.390 . S
C3514 C3516 1.478 . S
C3515 H3509 0.929 . S
C3515 C3511 1.395 1_546 S
C3515 C3514 1.390 . S
C3516 C3514 1.478 . S
C3516 C3518 1.381 1_556 S
C3516 C3522 1.383 . S
C3517 C3513 1.494 . S
C3517 H3523 0.959 1_545 S
C3517 H3524 0.961 . S
C3517 H3525 0.960 1_556 S
C3518 C3516 1.381 1_554 S
C3518 C3519 1.394 . S
C3518 H3526 0.930 . S
C3519 C3518 1.394 . S
C3519 C3520 1.383 1_554 S
C3519 H3527 0.929 . S
C3520 C3519 1.383 1_556 S
C3520 C3521 1.377 . S
C3521 H3505 0.930 . S
C3521 C3520 1.377 . S
C3521 C3522 1.379 . S
C3522 H3506 0.931 . S
C3522 C3516 1.383 . S
C3522 C3521 1.379 . S
H3523 C3517 0.959 1_565 S
H3524 C3517 0.961 . S
H3525 C3517 0.960 1_554 S
H3526 C3518 0.930 . S
H3527 C3519 0.929 . S
H3528 C3536 0.929 . S
H3529 C3538 0.930 . S
H3530 C3540 0.930 . S
H3531 C3543 0.929 . S
H3532 C3546 0.930 . S
H3533 C3548 0.960 . S
H3534 C3548 0.960 . S
H3535 C3548 0.960 . S
C3536 H3528 0.929 . S
C3536 C3537 1.301 1_556 S
C3536 C3538 1.384 . S
C3537 C3536 1.301 1_554 S
C3537 C3543 1.465 . S
C3538 H3529 0.930 . S
C3538 C3536 1.384 . S
C3538 C3539 1.397 . S
C3539 C3538 1.397 . S
C3539 C3540 1.372 1_556 S
C3539 C3544 1.494 . S
C3540 H3530 0.930 . S
C3540 C3539 1.372 1_554 S
C3540 C3543 1.386 . S
H3541 C3557 0.930 . S
H3542 C3558 0.931 . S
C3543 H3531 0.929 . S
C3543 C3537 1.465 . S
C3543 C3540 1.386 . S
C3544 C3539 1.494 . S
C3544 C3546 1.395 . S
C3544 C3547 1.403 1_556 S
H3545 C3551 0.930 . S
C3546 H3532 0.930 . S
C3546 C3544 1.395 . S
C3546 C3549 1.396 1_455 S
C3547 C3544 1.403 1_554 S
C3547 C3548 1.524 . S
C3547 C3551 1.400 1_455 S
C3548 H3533 0.960 . S
C3548 H3534 0.960 . S
C3548 H3535 0.960 . S
C3548 C3547 1.524 . S
C3549 C3546 1.396 1_655 S
C3549 C3550 1.398 . S
C3549 C3553 1.497 . S
C3550 C3549 1.398 . S
C3550 C3551 1.385 1_556 S
C3550 C3552 1.478 . S
C3551 H3545 0.930 . S
C3551 C3547 1.400 1_655 S
C3551 C3550 1.385 1_554 S
C3552 C3550 1.478 . S
C3552 C3554 1.381 . S
C3552 C3558 1.383 1_556 S
C3553 C3549 1.497 . S
C3553 H3559 0.959 1_655 S
C3553 H3560 0.961 . S
C3553 H3561 0.960 . S
C3554 C3552 1.381 . S
C3554 C3555 1.394 . S
C3554 H3562 0.930 . S
C3555 C3554 1.394 . S
C3555 C3556 1.383 . S
C3555 H3563 0.929 . S
C3556 C3555 1.383 . S
C3556 C3557 1.377 1_556 S
C3557 H3541 0.930 . S
C3557 C3556 1.377 1_554 S
C3557 C3558 1.379 . S
C3558 H3542 0.931 . S
C3558 C3552 1.383 1_554 S
C3558 C3557 1.379 . S
H3559 C3553 0.959 1_455 S
H3560 C3553 0.961 . S
H3561 C3553 0.960 . S
H3562 C3554 0.930 . S
H3563 C3555 0.929 . S
H3564 C3572 0.951 . S
H3565 C3574 1.006 . S
H3566 C3576 0.930 . S
H3567 C3579 0.929 . S
H3568 C3582 0.930 . S
H3569 C3584 0.960 . S
H3570 C3584 0.960 . S
H3571 C3584 0.960 . S
C3572 H3564 0.951 . S
C3572 C3573 1.355 1_554 S
C3572 C3574 1.380 . S
C3573 C3572 1.355 1_556 S
C3573 C3579 1.390 . S
C3574 H3565 1.006 . S
C3574 C3572 1.380 . S
C3574 C3575 1.325 1_554 S
C3575 C3574 1.325 1_556 S
C3575 C3576 1.400 . S
C3575 C3580 1.490 . S
C3576 H3566 0.930 . S
C3576 C3575 1.400 . S
C3576 C3579 1.386 . S
H3577 C3593 0.930 . S
H3578 C3594 0.931 . S
C3579 H3567 0.929 . S
C3579 C3573 1.390 . S
C3579 C3576 1.386 . S
C3580 C3575 1.490 . S
C3580 C3582 1.395 1_556 S
C3580 C3583 1.403 . S
H3581 C3587 0.930 . S
C3582 H3568 0.930 . S
C3582 C3580 1.395 1_554 S
C3582 C3585 1.403 . S
C3583 C3580 1.403 . S
C3583 C3584 1.524 . S
C3583 C3587 1.400 . S
C3584 H3569 0.960 . S
C3584 H3570 0.960 . S
C3584 H3571 0.960 . S
C3584 C3583 1.524 . S
C3585 C3582 1.403 . S
C3585 C3586 1.495 . S
C3585 C3589 1.495 . S
C3586 C3585 1.495 . S
C3586 C3587 1.272 1_554 S
C3586 C3588 1.490 . S
C3587 H3581 0.930 . S
C3587 C3583 1.400 . S
C3587 C3586 1.272 1_556 S
C3588 C3586 1.490 . S
C3588 C3590 1.381 . S
C3588 C3594 1.383 1_554 S
C3589 C3585 1.495 . S
C3589 H3595 0.959 . S
C3589 H3596 0.961 . S
C3589 H3597 0.960 . S
C3590 C3588 1.381 . S
C3590 C3591 1.394 . S
C3590 H3598 0.930 . S
C3591 C3590 1.394 . S
C3591 C3592 1.383 . S
C3591 H3599 0.929 . S
C3592 C3591 1.383 . S
C3592 C3593 1.377 1_554 S
C3593 H3577 0.930 . S
C3593 C3592 1.377 1_556 S
C3593 C3594 1.379 . S
C3594 H3578 0.931 . S
C3594 C3588 1.383 1_556 S
C3594 C3593 1.379 . S
H3595 C3589 0.959 . S
H3596 C3589 0.961 . S
H3597 C3589 0.960 . S
H3598 C3590 0.930 . S
H3599 C3591 0.929 . S
H3600 C3608 0.929 . S
H3601 C3610 0.930 . S
H3602 C3612 0.930 . S
H3603 C3615 0.929 . S
H3604 C3618 0.930 . S
H3605 C3620 0.960 . S
H3606 C3620 0.960 . S
H3607 C3620 0.960 . S
C3608 H3600 0.929 . S
C3608 C3609 1.377 . S
C3608 C3610 1.384 . S
C3609 C3608 1.377 . S
C3609 C3615 1.390 . S
C3610 H3601 0.930 . S
C3610 C3608 1.384 . S
C3610 C3611 1.372 . S
C3611 C3610 1.372 . S
C3611 C3612 1.400 . S
C3611 C3616 1.490 . S
C3612 H3602 0.930 . S
C3612 C3611 1.400 . S
C3612 C3615 1.386 . S
H3613 C3629 0.930 . S
H3614 C3630 0.931 . S
C3615 H3603 0.929 . S
C3615 C3609 1.390 . S
C3615 C3612 1.386 . S
C3616 C3611 1.490 . S
C3616 C3618 1.395 . S
C3616 C3619 1.403 . S
H3617 C3623 0.930 . S
C3618 H3604 0.930 . S
C3618 C3616 1.395 . S
C3618 C3621 1.403 . S
C3619 C3616 1.403 . S
C3619 C3620 1.524 . S
C3619 C3623 1.400 . S
C3620 H3605 0.960 . S
C3620 H3606 0.960 . S
C3620 H3607 0.960 . S
C3620 C3619 1.524 . S
C3621 C3618 1.403 . S
C3621 C3622 1.392 . S
C3621 C3625 1.495 . S
C3622 C3621 1.392 . S
C3622 C3623 1.385 . S
C3622 C3624 1.478 . S
C3623 H3617 0.930 . S
C3623 C3619 1.400 . S
C3623 C3622 1.385 . S
C3624 C3622 1.478 . S
C3624 C3626 1.381 . S
C3624 C3630 1.383 1_545 S
C3625 C3621 1.495 . S
C3625 H3631 0.959 . S
C3625 H3632 0.982 . S
C3625 H3633 0.960 . S
C3626 C3624 1.381 . S
C3626 C3627 1.393 1_545 S
C3626 H3634 0.930 . S
C3627 C3626 1.393 1_565 S
C3627 C3628 1.401 . S
C3627 H3635 0.912 1_565 S
C3628 C3627 1.401 . S
C3628 C3629 1.377 . S
C3629 H3613 0.930 . S
C3629 C3628 1.377 . S
C3629 C3630 1.379 . S
C3630 H3614 0.931 . S
C3630 C3624 1.383 1_565 S
C3630 C3629 1.379 . S
H3631 C3625 0.959 . S
H3632 C3625 0.982 . S
H3633 C3625 0.960 . S
H3634 C3626 0.930 . S
H3635 C3627 0.912 1_545 S
H3636 C3644 0.929 . S
H3637 C3646 0.930 . S
H3638 C3648 0.930 . S
H3639 C3651 0.929 . S
H3640 C3654 0.930 . S
H3641 C3656 0.960 . S
H3642 C3656 0.960 . S
H3643 C3656 0.960 . S
C3644 H3636 0.929 . S
C3644 C3645 1.377 . S
C3644 C3646 1.384 . S
C3645 C3644 1.377 . S
C3645 C3651 1.390 . S
C3646 H3637 0.930 . S
C3646 C3644 1.384 . S
C3646 C3647 1.372 . S
C3647 C3646 1.372 . S
C3647 C3648 1.400 . S
C3647 C3652 1.490 . S
C3648 H3638 0.930 . S
C3648 C3647 1.400 . S
C3648 C3651 1.386 . S
H3649 C3665 0.930 1_655 S
H3650 C3666 0.931 . S
C3651 H3639 0.929 . S
C3651 C3645 1.390 . S
C3651 C3648 1.386 . S
C3652 C3647 1.490 . S
C3652 C3654 1.395 . S
C3652 C3655 1.403 . S
H3653 C3659 0.930 . S
C3654 H3640 0.930 . S
C3654 C3652 1.395 . S
C3654 C3657 1.403 . S
C3655 C3652 1.403 . S
C3655 C3656 1.524 . S
C3655 C3659 1.400 . S
C3656 H3641 0.960 . S
C3656 H3642 0.960 . S
C3656 H3643 0.960 . S
C3656 C3655 1.524 . S
C3657 C3654 1.403 . S
C3657 C3658 1.392 . S
C3657 C3661 1.495 1_655 S
C3658 C3657 1.392 . S
C3658 C3659 1.385 . S
C3658 C3660 1.500 . S
C3659 H3653 0.930 . S
C3659 C3655 1.400 . S
C3659 C3658 1.385 . S
C3660 C3658 1.500 . S
C3660 C3662 1.360 1_655 S
C3660 C3666 1.382 . S
C3661 C3657 1.495 1_455 S
C3661 H3667 0.959 . S
C3661 H3668 0.961 . S
C3661 H3669 0.960 . S
C3662 C3660 1.360 1_455 S
C3662 C3663 1.394 . S
C3662 H3670 0.930 . S
C3663 C3662 1.394 . S
C3663 C3664 1.383 . S
C3663 H3671 0.929 . S
C3664 C3663 1.383 . S
C3664 C3665 1.377 . S
C3665 H3649 0.930 1_455 S
C3665 C3664 1.377 . S
C3665 C3666 1.379 1_455 S
C3666 H3650 0.931 . S
C3666 C3660 1.382 . S
C3666 C3665 1.379 1_655 S
H3667 C3661 0.959 . S
H3668 C3661 0.961 . S
H3669 C3661 0.960 . S
H3670 C3662 0.930 . S
H3671 C3663 0.929 . S
H3672 C3680 0.929 . S
H3673 C3682 0.930 . S
H3674 C3684 0.930 . S
H3675 C3687 0.929 . S
H3676 C3690 0.930 . S
H3677 C3692 0.960 . S
H3678 C3692 0.960 . S
H3679 C3692 0.960 . S
C3680 H3672 0.929 . S
C3680 C3681 1.377 . S
C3680 C3682 1.384 . S
C3681 C3680 1.377 . S
C3681 C3687 1.390 . S
C3682 H3673 0.930 . S
C3682 C3680 1.384 . S
C3682 C3683 1.372 . S
C3683 C3682 1.372 . S
C3683 C3684 1.400 . S
C3683 C3688 1.490 . S
C3684 H3674 0.930 . S
C3684 C3683 1.400 . S
C3684 C3687 1.386 . S
H3685 C3701 0.930 . S
H3686 C3702 0.931 . S
C3687 H3675 0.929 . S
C3687 C3681 1.390 . S
C3687 C3684 1.386 . S
C3688 C3683 1.490 . S
C3688 C3690 1.395 . S
C3688 C3691 1.403 . S
H3689 C3695 0.930 . S
C3690 H3676 0.930 . S
C3690 C3688 1.395 . S
C3690 C3693 1.403 . S
C3691 C3688 1.403 . S
C3691 C3692 1.524 . S
C3691 C3695 1.400 . S
C3692 H3677 0.960 . S
C3692 H3678 0.960 . S
C3692 H3679 0.960 . S
C3692 C3691 1.524 . S
C3693 C3690 1.403 . S
C3693 C3694 1.392 . S
C3693 C3697 1.495 . S
C3694 C3693 1.392 . S
C3694 C3695 1.385 . S
C3694 C3696 1.478 . S
C3695 H3689 0.930 . S
C3695 C3691 1.400 . S
C3695 C3694 1.385 . S
C3696 C3694 1.478 . S
C3696 C3698 1.381 . S
C3696 C3702 1.383 . S
C3697 C3693 1.495 . S
C3697 H3703 0.959 . S
C3697 H3704 0.961 . S
C3697 H3705 0.960 . S
C3698 C3696 1.381 . S
C3698 C3699 1.394 . S
C3698 H3706 0.930 . S
C3699 C3698 1.394 . S
C3699 C3700 1.383 . S
C3699 H3707 0.929 . S
C3700 C3699 1.383 . S
C3700 C3701 1.377 . S
C3701 H3685 0.930 . S
C3701 C3700 1.377 . S
C3701 C3702 1.379 . S
C3702 H3686 0.931 . S
C3702 C3696 1.383 . S
C3702 C3701 1.379 . S
H3703 C3697 0.959 . S
H3704 C3697 0.961 . S
H3705 C3697 0.960 . S
H3706 C3698 0.930 . S
H3707 C3699 0.929 . S
H3708 C3716 0.929 . S
H3709 C3718 0.930 . S
H3710 C3720 0.930 . S
H3711 C3723 0.929 . S
H3712 C3726 0.956 . S
H3713 C3728 0.966 . S
H3714 C3728 0.924 1_556 S
H3715 C3728 0.960 . S
C3716 H3708 0.929 . S
C3716 C3717 1.377 1_556 S
C3716 C3718 1.384 . S
C3717 C3716 1.377 1_554 S
C3717 C3723 1.390 . S
C3718 H3709 0.930 . S
C3718 C3716 1.384 . S
C3718 C3719 1.372 1_556 S
C3719 C3718 1.372 1_554 S
C3719 C3720 1.400 . S
C3719 C3724 1.490 . S
C3720 H3710 0.930 . S
C3720 C3719 1.400 . S
C3720 C3723 1.386 . S
H3721 C3737 0.930 . S
H3722 C3738 0.931 . S
C3723 H3711 0.929 . S
C3723 C3717 1.390 . S
C3723 C3720 1.386 . S
C3724 C3719 1.490 . S
C3724 C3726 1.373 1_554 S
C3724 C3727 1.403 . S
H3725 C3731 0.930 . S
C3726 H3712 0.956 . S
C3726 C3724 1.373 1_556 S
C3726 C3729 1.415 1_565 S
C3727 C3724 1.403 . S
C3727 C3728 1.524 . S
C3727 C3731 1.400 1_565 S
C3728 H3713 0.966 . S
C3728 H3714 0.924 1_554 S
C3728 H3715 0.960 . S
C3728 C3727 1.524 . S
C3729 C3726 1.415 1_545 S
C3729 C3730 1.391 1_556 S
C3729 C3733 1.495 . S
C3730 C3729 1.391 1_554 S
C3730 C3731 1.387 . S
C3730 C3732 1.477 1_554 S
C3731 H3725 0.930 . S
C3731 C3727 1.400 1_545 S
C3731 C3730 1.387 . S
C3732 C3730 1.477 1_556 S
C3732 C3734 1.382 . S
C3732 C3738 1.382 1_556 S
C3733 C3729 1.495 . S
C3733 H3739 0.959 . S
C3733 H3740 0.961 1_556 S
C3733 H3741 0.960 . S
C3734 C3732 1.382 . S
C3734 C3735 1.394 . S
C3734 H3742 0.930 . S
C3735 C3734 1.394 . S
C3735 C3736 1.463 . S
C3735 H3743 0.929 . S
C3736 C3735 1.463 . S
C3736 C3737 1.296 1_556 S
C3737 H3721 0.930 . S
C3737 C3736 1.296 1_554 S
C3737 C3738 1.379 . S
C3738 H3722 0.931 . S
C3738 C3732 1.382 1_554 S
C3738 C3737 1.379 . S
H3739 C3733 0.959 . S
H3740 C3733 0.961 1_554 S
H3741 C3733 0.960 . S
H3742 C3734 0.930 . S
H3743 C3735 0.929 . S
H3744 C3752 0.929 . S
H3745 C3754 0.930 . S
H3746 C3756 0.930 . S
H3747 C3759 0.929 . S
H3748 C3762 0.920 . S
H3749 C3764 0.960 . S
H3750 C3764 0.960 . S
H3751 C3764 0.896 1_556 S
C3752 H3744 0.929 . S
C3752 C3753 1.311 1_554 S
C3752 C3754 1.384 . S
C3753 C3752 1.311 1_556 S
C3753 C3759 1.453 . S
C3754 H3745 0.930 . S
C3754 C3752 1.384 . S
C3754 C3755 1.411 . S
C3755 C3754 1.411 . S
C3755 C3756 1.359 1_554 S
C3755 C3760 1.488 . S
C3756 H3746 0.930 . S
C3756 C3755 1.359 1_556 S
C3756 C3759 1.386 . S
H3757 C3773 0.930 . S
H3758 C3774 0.931 . S
C3759 H3747 0.929 . S
C3759 C3753 1.453 . S
C3759 C3756 1.386 . S
C3760 C3755 1.488 . S
C3760 C3762 1.385 1_554 S
C3760 C3763 1.430 . S
H3761 C3767 0.930 . S
C3762 H3748 0.920 . S
C3762 C3760 1.385 1_556 S
C3762 C3765 1.380 1_656 S
C3763 C3760 1.430 . S
C3763 C3764 1.524 . S
C3763 C3767 1.400 1_655 S
C3764 H3749 0.960 . S
C3764 H3750 0.960 . S
C3764 H3751 0.896 1_554 S
C3764 C3763 1.524 . S
C3765 C3762 1.380 1_454 S
C3765 C3766 1.395 . S
C3765 C3769 1.515 1_554 S
C3766 C3765 1.395 . S
C3766 C3767 1.385 . S
C3766 C3768 1.478 . S
C3767 H3761 0.930 . S
C3767 C3763 1.400 1_455 S
C3767 C3766 1.385 . S
C3768 C3766 1.478 . S
C3768 C3770 1.381 . S
C3768 C3774 1.383 1_554 S
C3769 C3765 1.515 1_556 S
C3769 H3775 0.959 1_455 S
C3769 H3776 0.961 . S
C3769 H3777 0.960 1_556 S
C3770 C3768 1.381 . S
C3770 C3771 1.394 . S
C3770 H3778 0.930 . S
C3771 C3770 1.394 . S
C3771 C3772 1.383 . S
C3771 H3779 0.929 . S
C3772 C3771 1.383 . S
C3772 C3773 1.377 1_554 S
C3773 H3757 0.930 . S
C3773 C3772 1.377 1_556 S
C3773 C3774 1.379 . S
C3774 H3758 0.931 . S
C3774 C3768 1.383 1_556 S
C3774 C3773 1.379 . S
H3775 C3769 0.959 1_655 S
H3776 C3769 0.961 . S
H3777 C3769 0.960 1_554 S
H3778 C3770 0.930 . S
H3779 C3771 0.929 . S
H3780 C3788 0.929 . S
H3781 C3790 0.930 . S
H3782 C3792 0.930 . S
H3783 C3795 0.929 . S
H3784 C3798 0.930 . S
H3785 C3800 0.960 . S
H3786 C3800 0.960 1_554 S
H3787 C3800 0.960 . S
C3788 H3780 0.929 . S
C3788 C3789 1.377 . S
C3788 C3790 1.384 . S
C3789 C3788 1.377 . S
C3789 C3795 1.390 1_554 S
C3790 H3781 0.930 . S
C3790 C3788 1.384 . S
C3790 C3791 1.372 . S
C3791 C3790 1.372 . S
C3791 C3792 1.400 1_554 S
C3791 C3796 1.490 . S
C3792 H3782 0.930 . S
C3792 C3791 1.400 1_556 S
C3792 C3795 1.386 . S
H3793 C3809 0.930 . S
H3794 C3810 0.931 . S
C3795 H3783 0.929 . S
C3795 C3789 1.390 1_556 S
C3795 C3792 1.386 . S
C3796 C3791 1.490 . S
C3796 C3798 1.395 . S
C3796 C3799 1.376 1_554 S
H3797 C3803 0.986 . S
C3798 H3784 0.930 . S
C3798 C3796 1.395 . S
C3798 C3801 1.403 . S
C3799 C3796 1.376 1_556 S
C3799 C3800 1.549 . S
C3799 C3803 1.399 . S
C3800 H3785 0.960 . S
C3800 H3786 0.960 1_556 S
C3800 H3787 0.960 . S
C3800 C3799 1.549 . S
C3801 C3798 1.403 . S
C3801 C3802 1.392 . S
C3801 C3805 1.495 . S
C3802 C3801 1.392 . S
C3802 C3803 1.351 1_554 S
C3802 C3804 1.493 . S
C3803 H3797 0.986 . S
C3803 C3799 1.399 . S
C3803 C3802 1.351 1_556 S
C3804 C3802 1.493 . S
C3804 C3806 1.492 . S
C3804 C3810 1.264 1_554 S
C3805 C3801 1.495 . S
C3805 H3811 0.959 . S
C3805 H3812 0.961 . S
C3805 H3813 0.960 . S
C3806 C3804 1.492 . S
C3806 C3807 1.394 . S
C3806 H3814 0.930 . S
C3807 C3806 1.394 . S
C3807 C3808 1.336 1_554 S
C3807 H3815 0.929 . S
C3808 C3807 1.336 1_556 S
C3808 C3809 1.420 . S
C3809 H3793 0.930 . S
C3809 C3808 1.420 . S
C3809 C3810 1.379 . S
C3810 H3794 0.931 . S
C3810 C3804 1.264 1_556 S
C3810 C3809 1.379 . S
H3811 C3805 0.959 . S
H3812 C3805 0.961 . S
H3813 C3805 0.960 . S
H3814 C3806 0.930 . S
H3815 C3807 0.929 . S
H3816 C3824 0.929 . S
H3817 C3826 0.930 . S
H3818 C3828 0.930 . S
H3819 C3831 0.929 . S
H3820 C3834 0.930 1_455 S
H3821 C3836 0.960 1_655 S
H3822 C3836 0.960 . S
H3823 C3836 0.960 . S
C3824 H3816 0.929 . S
C3824 C3825 1.377 . S
C3824 C3826 1.384 . S
C3825 C3824 1.377 . S
C3825 C3831 1.390 . S
C3826 H3817 0.930 . S
C3826 C3824 1.384 . S
C3826 C3827 1.372 . S
C3827 C3826 1.372 . S
C3827 C3828 1.400 . S
C3827 C3832 1.490 . S
C3828 H3818 0.930 . S
C3828 C3827 1.400 . S
C3828 C3831 1.386 . S
H3829 C3845 0.930 . S
H3830 C3846 0.931 . S
C3831 H3819 0.929 . S
C3831 C3825 1.390 . S
C3831 C3828 1.386 . S
C3832 C3827 1.490 . S
C3832 C3834 1.390 1_455 S
C3832 C3835 1.403 1_455 S
H3833 C3839 0.930 . S
C3834 H3820 0.930 1_655 S
C3834 C3832 1.390 1_655 S
C3834 C3837 1.408 . S
C3835 C3832 1.403 1_655 S
C3835 C3836 1.524 1_655 S
C3835 C3839 1.400 . S
C3836 H3821 0.960 1_455 S
C3836 H3822 0.960 . S
C3836 H3823 0.960 . S
C3836 C3835 1.524 1_455 S
C3837 C3834 1.408 . S
C3837 C3838 1.392 . S
C3837 C3841 1.495 . S
C3838 C3837 1.392 . S
C3838 C3839 1.385 . S
C3838 C3840 1.478 . S
C3839 H3833 0.930 . S
C3839 C3835 1.400 . S
C3839 C3838 1.385 . S
C3840 C3838 1.478 . S
C3840 C3842 1.381 . S
C3840 C3846 1.383 . S
C3841 C3837 1.495 . S
C3841 H3847 0.959 . S
C3841 H3848 0.961 . S
C3841 H3849 0.960 . S
C3842 C3840 1.381 . S
C3842 C3843 1.394 . S
C3842 H3850 0.930 . S
C3843 C3842 1.394 . S
C3843 C3844 1.383 . S
C3843 H3851 0.929 . S
C3844 C3843 1.383 . S
C3844 C3845 1.377 . S
C3845 H3829 0.930 . S
C3845 C3844 1.377 . S
C3845 C3846 1.379 . S
C3846 H3830 0.931 . S
C3846 C3840 1.383 . S
C3846 C3845 1.379 . S
H3847 C3841 0.959 . S
H3848 C3841 0.961 . S
H3849 C3841 0.960 . S
H3850 C3842 0.930 . S
H3851 C3843 0.929 . S
H3852 C3860 0.929 . S
H3853 C3862 0.930 . S
H3854 C3864 0.930 . S
H3855 C3867 0.929 . S
H3856 C3870 0.930 . S
H3857 C3872 0.960 . S
H3858 C3872 0.960 . S
H3859 C3872 0.960 . S
C3860 H3852 0.929 . S
C3860 C3861 1.377 . S
C3860 C3862 1.384 . S
C3861 C3860 1.377 . S
C3861 C3867 1.390 . S
C3862 H3853 0.930 . S
C3862 C3860 1.384 . S
C3862 C3863 1.372 . S
C3863 C3862 1.372 . S
C3863 C3864 1.400 . S
C3863 C3868 1.490 . S
C3864 H3854 0.930 . S
C3864 C3863 1.400 . S
C3864 C3867 1.386 . S
H3865 C3881 0.930 . S
H3866 C3882 0.931 . S
C3867 H3855 0.929 . S
C3867 C3861 1.390 . S
C3867 C3864 1.386 . S
C3868 C3863 1.490 . S
C3868 C3870 1.395 . S
C3868 C3871 1.403 . S
H3869 C3875 0.930 . S
C3870 H3856 0.930 . S
C3870 C3868 1.395 . S
C3870 C3873 1.403 . S
C3871 C3868 1.403 . S
C3871 C3872 1.524 . S
C3871 C3875 1.400 . S
C3872 H3857 0.960 . S
C3872 H3858 0.960 . S
C3872 H3859 0.960 . S
C3872 C3871 1.524 . S
C3873 C3870 1.403 . S
C3873 C3874 1.392 . S
C3873 C3877 1.495 . S
C3874 C3873 1.392 . S
C3874 C3875 1.385 . S
C3874 C3876 1.478 . S
C3875 H3869 0.930 . S
C3875 C3871 1.400 . S
C3875 C3874 1.385 . S
C3876 C3874 1.478 . S
C3876 C3878 1.381 . S
C3876 C3882 1.383 . S
C3877 C3873 1.495 . S
C3877 H3883 0.959 . S
C3877 H3884 0.961 . S
C3877 H3885 0.960 . S
C3878 C3876 1.381 . S
C3878 C3879 1.394 . S
C3878 H3886 0.930 . S
C3879 C3878 1.394 . S
C3879 C3880 1.383 . S
C3879 H3887 0.929 . S
C3880 C3879 1.383 . S
C3880 C3881 1.377 . S
C3881 H3865 0.930 . S
C3881 C3880 1.377 . S
C3881 C3882 1.379 . S
C3882 H3866 0.931 . S
C3882 C3876 1.383 . S
C3882 C3881 1.379 . S
H3883 C3877 0.959 . S
H3884 C3877 0.961 . S
H3885 C3877 0.960 . S
H3886 C3878 0.930 . S
H3887 C3879 0.929 . S
H3888 C3896 0.929 . S
H3889 C3898 0.930 . S
H3890 C3900 0.930 . S
H3891 C3903 0.929 . S
H3892 C3906 0.930 1_565 S
H3893 C3908 0.960 . S
H3894 C3908 0.960 . S
H3895 C3908 0.960 . S
C3896 H3888 0.929 . S
C3896 C3897 1.377 . S
C3896 C3898 1.384 . S
C3897 C3896 1.377 . S
C3897 C3903 1.390 . S
C3898 H3889 0.930 . S
C3898 C3896 1.384 . S
C3898 C3899 1.372 . S
C3899 C3898 1.372 . S
C3899 C3900 1.400 . S
C3899 C3904 1.490 . S
C3900 H3890 0.930 . S
C3900 C3899 1.400 . S
C3900 C3903 1.386 . S
H3901 C3917 0.930 . S
H3902 C3918 0.931 . S
C3903 H3891 0.929 . S
C3903 C3897 1.390 . S
C3903 C3900 1.386 . S
C3904 C3899 1.490 . S
C3904 C3906 1.395 1_565 S
C3904 C3907 1.376 1_565 S
H3905 C3911 0.930 . S
C3906 H3892 0.930 1_545 S
C3906 C3904 1.395 1_545 S
C3906 C3909 1.403 . S
C3907 C3904 1.376 1_545 S
C3907 C3908 1.524 1_545 S
C3907 C3911 1.428 . S
C3908 H3893 0.960 . S
C3908 H3894 0.960 . S
C3908 H3895 0.960 . S
C3908 C3907 1.524 1_565 S
C3909 C3906 1.403 . S
C3909 C3910 1.392 . S
C3909 C3913 1.495 . S
C3910 C3909 1.392 . S
C3910 C3911 1.385 . S
C3910 C3912 1.478 . S
C3911 H3905 0.930 . S
C3911 C3907 1.428 . S
C3911 C3910 1.385 . S
C3912 C3910 1.478 . S
C3912 C3914 1.381 . S
C3912 C3918 1.383 . S
C3913 C3909 1.495 . S
C3913 H3919 0.959 . S
C3913 H3920 0.961 . S
C3913 H3921 0.960 . S
C3914 C3912 1.381 . S
C3914 C3915 1.394 . S
C3914 H3922 0.930 . S
C3915 C3914 1.394 . S
C3915 C3916 1.383 . S
C3915 H3923 0.929 . S
C3916 C3915 1.383 . S
C3916 C3917 1.377 . S
C3917 H3901 0.930 . S
C3917 C3916 1.377 . S
C3917 C3918 1.379 . S
C3918 H3902 0.931 . S
C3918 C3912 1.383 . S
C3918 C3917 1.379 . S
H3919 C3913 0.959 . S
H3920 C3913 0.961 . S
H3921 C3913 0.960 . S
H3922 C3914 0.930 . S
H3923 C3915 0.929 . S
H3924 C3932 0.929 . S
H3925 C3934 0.930 . S
H3926 C3936 0.930 . S
H3927 C3939 0.929 . S
H3928 C3942 0.930 . S
H3929 C3944 0.966 1_655 S
H3930 C3944 0.975 . S
H3931 C3944 0.949 1_655 S
C3932 H3924 0.929 . S
C3932 C3933 1.377 . S
C3932 C3934 1.384 . S
C3933 C3932 1.377 . S
C3933 C3939 1.390 . S
C3934 H3925 0.930 . S
C3934 C3932 1.384 . S
C3934 C3935 1.372 1_455 S
C3935 C3934 1.372 1_655 S
C3935 C3936 1.400 . S
C3935 C3940 1.490 . S
C3936 H3926 0.930 . S
C3936 C3935 1.400 . S
C3936 C3939 1.386 1_655 S
H3937 C3953 0.930 . S
H3938 C3954 0.931 . S
C3939 H3927 0.929 . S
C3939 C3933 1.390 . S
C3939 C3936 1.386 1_455 S
C3940 C3935 1.490 . S
C3940 C3942 1.395 . S
C3940 C3943 1.403 . S
H3941 C3947 0.930 . S
C3942 H3928 0.930 . S
C3942 C3940 1.395 . S
C3942 C3945 1.403 . S
C3943 C3940 1.403 . S
C3943 C3944 1.514 1_655 S
C3943 C3947 1.400 . S
C3944 H3929 0.966 1_455 S
C3944 H3930 0.975 . S
C3944 H3931 0.949 1_455 S
C3944 C3943 1.514 1_455 S
C3945 C3942 1.403 . S
C3945 C3946 1.392 . S
C3945 C3949 1.495 . S
C3946 C3945 1.392 . S
C3946 C3947 1.385 . S
C3946 C3948 1.478 . S
C3947 H3941 0.930 . S
C3947 C3943 1.400 . S
C3947 C3946 1.385 . S
C3948 C3946 1.478 . S
C3948 C3950 1.381 . S
C3948 C3954 1.383 . S
C3949 C3945 1.495 . S
C3949 H3955 0.959 . S
C3949 H3956 0.961 . S
C3949 H3957 0.960 . S
C3950 C3948 1.381 . S
C3950 C3951 1.394 . S
C3950 H3958 0.930 . S
C3951 C3950 1.394 . S
C3951 C3952 1.383 . S
C3951 H3959 0.929 . S
C3952 C3951 1.383 . S
C3952 C3953 1.377 . S
C3953 H3937 0.930 . S
C3953 C3952 1.377 . S
C3953 C3954 1.379 . S
C3954 H3938 0.931 . S
C3954 C3948 1.383 . S
C3954 C3953 1.379 . S
H3955 C3949 0.959 . S
H3956 C3949 0.961 . S
H3957 C3949 0.960 . S
H3958 C3950 0.930 . S
H3959 C3951 0.929 . S
H3960 C3968 0.929 . S
H3961 C3970 0.930 . S
H3962 C3972 0.930 . S
H3963 C3975 0.929 . S
H3964 C3978 0.930 . S
H3965 C3980 0.960 . S
H3966 C3980 0.960 . S
H3967 C3980 0.960 . S
C3968 H3960 0.929 . S
C3968 C3969 1.377 . S
C3968 C3970 1.384 . S
C3969 C3968 1.377 . S
C3969 C3975 1.390 . S
C3970 H3961 0.930 . S
C3970 C3968 1.384 . S
C3970 C3971 1.372 . S
C3971 C3970 1.372 . S
C3971 C3972 1.400 . S
C3971 C3976 1.490 . S
C3972 H3962 0.930 . S
C3972 C3971 1.400 . S
C3972 C3975 1.386 . S
H3973 C3989 0.930 . S
H3974 C3990 0.931 . S
C3975 H3963 0.929 . S
C3975 C3969 1.390 . S
C3975 C3972 1.386 . S
C3976 C3971 1.490 . S
C3976 C3978 1.395 . S
C3976 C3979 1.403 . S
H3977 C3983 0.930 . S
C3978 H3964 0.930 . S
C3978 C3976 1.395 . S
C3978 C3981 1.403 . S
C3979 C3976 1.403 . S
C3979 C3980 1.524 . S
C3979 C3983 1.400 . S
C3980 H3965 0.960 . S
C3980 H3966 0.960 . S
C3980 H3967 0.960 . S
C3980 C3979 1.524 . S
C3981 C3978 1.403 . S
C3981 C3982 1.392 . S
C3981 C3985 1.495 . S
C3982 C3981 1.392 . S
C3982 C3983 1.385 . S
C3982 C3984 1.478 . S
C3983 H3977 0.930 . S
C3983 C3979 1.400 . S
C3983 C3982 1.385 . S
C3984 C3982 1.478 . S
C3984 C3986 1.381 . S
C3984 C3990 1.383 . S
C3985 C3981 1.495 . S
C3985 H3991 0.959 . S
C3985 H3992 0.961 . S
C3985 H3993 0.960 . S
C3986 C3984 1.381 . S
C3986 C3987 1.394 . S
C3986 H3994 0.930 . S
C3987 C3986 1.394 . S
C3987 C3988 1.383 . S
C3987 H3995 0.929 . S
C3988 C3987 1.383 . S
C3988 C3989 1.377 . S
C3989 H3973 0.930 . S
C3989 C3988 1.377 . S
C3989 C3990 1.379 . S
C3990 H3974 0.931 . S
C3990 C3984 1.383 . S
C3990 C3989 1.379 . S
H3991 C3985 0.959 . S
H3992 C3985 0.961 . S
H3993 C3985 0.960 . S
H3994 C3986 0.930 . S
H3995 C3987 0.929 . S
H3996 C4004 0.929 . S
H3997 C4006 0.930 . S
H3998 C4008 0.930 . S
H3999 C4011 0.929 . S
H4000 C4014 0.930 . S
H4001 C4016 0.960 . S
H4002 C4016 0.960 . S
H4003 C4016 0.960 . S
C4004 H3996 0.929 . S
C4004 C4005 1.377 . S
C4004 C4006 1.384 . S
C4005 C4004 1.377 . S
C4005 C4011 1.390 . S
C4006 H3997 0.930 . S
C4006 C4004 1.384 . S
C4006 C4007 1.372 . S
C4007 C4006 1.372 . S
C4007 C4008 1.400 . S
C4007 C4012 1.490 . S
C4008 H3998 0.930 . S
C4008 C4007 1.400 . S
C4008 C4011 1.386 . S
H4009 C4025 0.930 . S
H4010 C4026 0.931 . S
C4011 H3999 0.929 . S
C4011 C4005 1.390 . S
C4011 C4008 1.386 . S
C4012 C4007 1.490 . S
C4012 C4014 1.395 . S
C4012 C4015 1.403 . S
H4013 C4019 0.930 . S
C4014 H4000 0.930 . S
C4014 C4012 1.395 . S
C4014 C4017 1.403 . S
C4015 C4012 1.403 . S
C4015 C4016 1.524 . S
C4015 C4019 1.400 . S
C4016 H4001 0.960 . S
C4016 H4002 0.960 . S
C4016 H4003 0.960 . S
C4016 C4015 1.524 . S
C4017 C4014 1.403 . S
C4017 C4018 1.392 . S
C4017 C4021 1.495 . S
C4018 C4017 1.392 . S
C4018 C4019 1.385 . S
C4018 C4020 1.478 . S
C4019 H4013 0.930 . S
C4019 C4015 1.400 . S
C4019 C4018 1.385 . S
C4020 C4018 1.478 . S
C4020 C4022 1.381 . S
C4020 C4026 1.383 1_545 S
C4021 C4017 1.495 . S
C4021 H4027 0.959 . S
C4021 H4028 0.961 . S
C4021 H4029 0.960 . S
C4022 C4020 1.381 . S
C4022 C4023 1.394 . S
C4022 H4030 0.930 . S
C4023 C4022 1.394 . S
C4023 C4024 1.383 1_545 S
C4023 H4031 0.929 . S
C4024 C4023 1.383 1_565 S
C4024 C4025 1.377 . S
C4025 H4009 0.930 . S
C4025 C4024 1.377 . S
C4025 C4026 1.379 . S
C4026 H4010 0.931 . S
C4026 C4020 1.383 1_565 S
C4026 C4025 1.379 . S
H4027 C4021 0.959 . S
H4028 C4021 0.961 . S
H4029 C4021 0.960 . S
H4030 C4022 0.930 . S
H4031 C4023 0.929 . S
H4032 C4040 0.929 . S
H4033 C4042 0.930 . S
H4034 C4044 0.930 . S
H4035 C4047 0.929 . S
H4036 C4050 0.930 . S
H4037 C4052 0.960 . S
H4038 C4052 0.960 . S
H4039 C4052 0.960 . S
C4040 H4032 0.929 . S
C4040 C4041 1.377 . S
C4040 C4042 1.384 . S
C4041 C4040 1.377 . S
C4041 C4047 1.390 . S
C4042 H4033 0.930 . S
C4042 C4040 1.384 . S
C4042 C4043 1.372 . S
C4043 C4042 1.372 . S
C4043 C4044 1.400 . S
C4043 C4048 1.490 . S
C4044 H4034 0.930 . S
C4044 C4043 1.400 . S
C4044 C4047 1.386 . S
H4045 C4061 0.930 . S
H4046 C4062 0.931 . S
C4047 H4035 0.929 . S
C4047 C4041 1.390 . S
C4047 C4044 1.386 . S
C4048 C4043 1.490 . S
C4048 C4050 1.395 . S
C4048 C4051 1.403 . S
H4049 C4055 0.930 . S
C4050 H4036 0.930 . S
C4050 C4048 1.395 . S
C4050 C4053 1.403 . S
C4051 C4048 1.403 . S
C4051 C4052 1.524 . S
C4051 C4055 1.400 . S
C4052 H4037 0.960 . S
C4052 H4038 0.960 . S
C4052 H4039 0.960 . S
C4052 C4051 1.524 . S
C4053 C4050 1.403 . S
C4053 C4054 1.392 . S
C4053 C4057 1.495 . S
C4054 C4053 1.392 . S
C4054 C4055 1.385 . S
C4054 C4056 1.478 . S
C4055 H4049 0.930 . S
C4055 C4051 1.400 . S
C4055 C4054 1.385 . S
C4056 C4054 1.478 . S
C4056 C4058 1.381 . S
C4056 C4062 1.383 . S
C4057 C4053 1.495 . S
C4057 H4063 0.959 . S
C4057 H4064 0.961 . S
C4057 H4065 0.960 . S
C4058 C4056 1.381 . S
C4058 C4059 1.394 . S
C4058 H4066 0.930 . S
C4059 C4058 1.394 . S
C4059 C4060 1.383 . S
C4059 H4067 0.929 . S
C4060 C4059 1.383 . S
C4060 C4061 1.377 . S
C4061 H4045 0.930 . S
C4061 C4060 1.377 . S
C4061 C4062 1.379 . S
C4062 H4046 0.931 . S
C4062 C4056 1.383 . S
C4062 C4061 1.379 . S
H4063 C4057 0.959 . S
H4064 C4057 0.961 . S
H4065 C4057 0.960 . S
H4066 C4058 0.930 . S
H4067 C4059 0.929 . S
H4068 C4076 0.929 . S
H4069 C4078 0.930 . S
H4070 C4080 0.930 . S
H4071 C4083 0.929 . S
H4072 C4086 0.930 . S
H4073 C4088 0.960 . S
H4074 C4088 0.960 . S
H4075 C4088 0.960 . S
C4076 H4068 0.929 . S
C4076 C4077 1.377 . S
C4076 C4078 1.384 . S
C4077 C4076 1.377 . S
C4077 C4083 1.390 . S
C4078 H4069 0.930 . S
C4078 C4076 1.384 . S
C4078 C4079 1.372 . S
C4079 C4078 1.372 . S
C4079 C4080 1.400 . S
C4079 C4084 1.490 . S
C4080 H4070 0.930 . S
C4080 C4079 1.400 . S
C4080 C4083 1.386 . S
H4081 C4097 0.930 . S
H4082 C4098 0.931 . S
C4083 H4071 0.929 . S
C4083 C4077 1.390 . S
C4083 C4080 1.386 . S
C4084 C4079 1.490 . S
C4084 C4086 1.395 . S
C4084 C4087 1.403 . S
H4085 C4091 0.930 . S
C4086 H4072 0.930 . S
C4086 C4084 1.395 . S
C4086 C4089 1.403 . S
C4087 C4084 1.403 . S
C4087 C4088 1.524 . S
C4087 C4091 1.400 . S
C4088 H4073 0.960 . S
C4088 H4074 0.960 . S
C4088 H4075 0.960 . S
C4088 C4087 1.524 . S
C4089 C4086 1.403 . S
C4089 C4090 1.392 . S
C4089 C4093 1.495 . S
C4090 C4089 1.392 . S
C4090 C4091 1.385 . S
C4090 C4092 1.478 . S
C4091 H4085 0.930 . S
C4091 C4087 1.400 . S
C4091 C4090 1.385 . S
C4092 C4090 1.478 . S
C4092 C4094 1.381 . S
C4092 C4098 1.383 . S
C4093 C4089 1.495 . S
C4093 H4099 0.959 . S
C4093 H4100 0.961 . S
C4093 H4101 0.960 . S
C4094 C4092 1.381 . S
C4094 C4095 1.394 . S
C4094 H4102 0.930 . S
C4095 C4094 1.394 . S
C4095 C4096 1.383 . S
C4095 H4103 0.929 . S
C4096 C4095 1.383 . S
C4096 C4097 1.377 . S
C4097 H4081 0.930 . S
C4097 C4096 1.377 . S
C4097 C4098 1.379 . S
C4098 H4082 0.931 . S
C4098 C4092 1.383 . S
C4098 C4097 1.379 . S
H4099 C4093 0.959 . S
H4100 C4093 0.961 . S
H4101 C4093 0.960 . S
H4102 C4094 0.930 . S
H4103 C4095 0.929 . S
H4104 C4112 0.929 . S
H4105 C4114 0.930 . S
H4106 C4116 0.930 . S
H4107 C4119 0.929 . S
H4108 C4122 0.930 . S
H4109 C4124 0.960 . S
H4110 C4124 0.960 . S
H4111 C4124 0.960 . S
C4112 H4104 0.929 . S
C4112 C4113 1.377 . S
C4112 C4114 1.384 . S
C4113 C4112 1.377 . S
C4113 C4119 1.390 . S
C4114 H4105 0.930 . S
C4114 C4112 1.384 . S
C4114 C4115 1.372 . S
C4115 C4114 1.372 . S
C4115 C4116 1.400 . S
C4115 C4120 1.490 . S
C4116 H4106 0.930 . S
C4116 C4115 1.400 . S
C4116 C4119 1.386 . S
H4117 C4133 0.930 . S
H4118 C4134 0.931 . S
C4119 H4107 0.929 . S
C4119 C4113 1.390 . S
C4119 C4116 1.386 . S
C4120 C4115 1.490 . S
C4120 C4122 1.395 . S
C4120 C4123 1.403 . S
H4121 C4127 0.930 . S
C4122 H4108 0.930 . S
C4122 C4120 1.395 . S
C4122 C4125 1.403 . S
C4123 C4120 1.403 . S
C4123 C4124 1.524 . S
C4123 C4127 1.400 . S
C4124 H4109 0.960 . S
C4124 H4110 0.960 . S
C4124 H4111 0.960 . S
C4124 C4123 1.524 . S
C4125 C4122 1.403 . S
C4125 C4126 1.392 . S
C4125 C4129 1.495 . S
C4126 C4125 1.392 . S
C4126 C4127 1.385 . S
C4126 C4128 1.478 . S
C4127 H4121 0.930 . S
C4127 C4123 1.400 . S
C4127 C4126 1.385 . S
C4128 C4126 1.478 . S
C4128 C4130 1.381 . S
C4128 C4134 1.383 . S
C4129 C4125 1.495 . S
C4129 H4135 0.959 . S
C4129 H4136 0.961 . S
C4129 H4137 0.960 . S
C4130 C4128 1.381 . S
C4130 C4131 1.394 . S
C4130 H4138 0.930 . S
C4131 C4130 1.394 . S
C4131 C4132 1.383 . S
C4131 H4139 0.929 . S
C4132 C4131 1.383 . S
C4132 C4133 1.377 . S
C4133 H4117 0.930 . S
C4133 C4132 1.377 . S
C4133 C4134 1.379 . S
C4134 H4118 0.931 . S
C4134 C4128 1.383 . S
C4134 C4133 1.379 . S
H4135 C4129 0.959 . S
H4136 C4129 0.961 . S
H4137 C4129 0.960 . S
H4138 C4130 0.930 . S
H4139 C4131 0.929 . S
H4140 C4148 0.929 . S
H4141 C4150 0.930 . S
H4142 C4152 0.930 . S
H4143 C4155 0.929 . S
H4144 C4158 0.930 . S
H4145 C4160 0.960 . S
H4146 C4160 0.960 . S
H4147 C4160 0.960 . S
C4148 H4140 0.929 . S
C4148 C4149 1.377 . S
C4148 C4150 1.384 . S
C4149 C4148 1.377 . S
C4149 C4155 1.390 . S
C4150 H4141 0.930 . S
C4150 C4148 1.384 . S
C4150 C4151 1.372 . S
C4151 C4150 1.372 . S
C4151 C4152 1.400 . S
C4151 C4156 1.490 . S
C4152 H4142 0.930 . S
C4152 C4151 1.400 . S
C4152 C4155 1.386 . S
H4153 C4169 0.930 . S
H4154 C4170 0.931 . S
C4155 H4143 0.929 . S
C4155 C4149 1.390 . S
C4155 C4152 1.386 . S
C4156 C4151 1.490 . S
C4156 C4158 1.395 . S
C4156 C4159 1.403 . S
H4157 C4163 0.930 . S
C4158 H4144 0.930 . S
C4158 C4156 1.395 . S
C4158 C4161 1.403 . S
C4159 C4156 1.403 . S
C4159 C4160 1.524 . S
C4159 C4163 1.400 . S
C4160 H4145 0.960 . S
C4160 H4146 0.960 . S
C4160 H4147 0.960 . S
C4160 C4159 1.524 . S
C4161 C4158 1.403 . S
C4161 C4162 1.392 . S
C4161 C4165 1.495 . S
C4162 C4161 1.392 . S
C4162 C4163 1.385 . S
C4162 C4164 1.478 . S
C4163 H4157 0.930 . S
C4163 C4159 1.400 . S
C4163 C4162 1.385 . S
C4164 C4162 1.478 . S
C4164 C4166 1.381 . S
C4164 C4170 1.383 . S
C4165 C4161 1.495 . S
C4165 H4171 0.959 . S
C4165 H4172 0.961 . S
C4165 H4173 0.960 . S
C4166 C4164 1.381 . S
C4166 C4167 1.394 . S
C4166 H4174 0.930 . S
C4167 C4166 1.394 . S
C4167 C4168 1.383 . S
C4167 H4175 0.929 . S
C4168 C4167 1.383 . S
C4168 C4169 1.377 . S
C4169 H4153 0.930 . S
C4169 C4168 1.377 . S
C4169 C4170 1.379 . S
C4170 H4154 0.931 . S
C4170 C4164 1.383 . S
C4170 C4169 1.379 . S
H4171 C4165 0.959 . S
H4172 C4165 0.961 . S
H4173 C4165 0.960 . S
H4174 C4166 0.930 . S
H4175 C4167 0.929 . S
H4176 C4184 0.929 . S
H4177 C4186 0.930 . S
H4178 C4188 0.930 . S
H4179 C4191 0.929 . S
H4180 C4194 0.930 . S
H4181 C4196 0.960 . S
H4182 C4196 0.960 . S
H4183 C4196 0.960 . S
C4184 H4176 0.929 . S
C4184 C4185 1.377 . S
C4184 C4186 1.384 . S
C4185 C4184 1.377 . S
C4185 C4191 1.390 . S
C4186 H4177 0.930 . S
C4186 C4184 1.384 . S
C4186 C4187 1.372 . S
C4187 C4186 1.372 . S
C4187 C4188 1.400 . S
C4187 C4192 1.490 . S
C4188 H4178 0.930 . S
C4188 C4187 1.400 . S
C4188 C4191 1.386 . S
H4189 C4205 0.930 . S
H4190 C4206 0.931 . S
C4191 H4179 0.929 . S
C4191 C4185 1.390 . S
C4191 C4188 1.386 . S
C4192 C4187 1.490 . S
C4192 C4194 1.395 . S
C4192 C4195 1.403 . S
H4193 C4199 0.930 . S
C4194 H4180 0.930 . S
C4194 C4192 1.395 . S
C4194 C4197 1.403 . S
C4195 C4192 1.403 . S
C4195 C4196 1.524 . S
C4195 C4199 1.400 . S
C4196 H4181 0.960 . S
C4196 H4182 0.960 . S
C4196 H4183 0.960 . S
C4196 C4195 1.524 . S
C4197 C4194 1.403 . S
C4197 C4198 1.392 . S
C4197 C4201 1.495 . S
C4198 C4197 1.392 . S
C4198 C4199 1.385 . S
C4198 C4200 1.478 . S
C4199 H4193 0.930 . S
C4199 C4195 1.400 . S
C4199 C4198 1.385 . S
C4200 C4198 1.478 . S
C4200 C4202 1.381 . S
C4200 C4206 1.383 . S
C4201 C4197 1.495 . S
C4201 H4207 0.959 . S
C4201 H4208 0.961 . S
C4201 H4209 0.960 . S
C4202 C4200 1.381 . S
C4202 C4203 1.394 . S
C4202 H4210 0.930 . S
C4203 C4202 1.394 . S
C4203 C4204 1.383 . S
C4203 H4211 0.929 . S
C4204 C4203 1.383 . S
C4204 C4205 1.377 . S
C4205 H4189 0.930 . S
C4205 C4204 1.377 . S
C4205 C4206 1.379 . S
C4206 H4190 0.931 . S
C4206 C4200 1.383 . S
C4206 C4205 1.379 . S
H4207 C4201 0.959 . S
H4208 C4201 0.961 . S
H4209 C4201 0.960 . S
H4210 C4202 0.930 . S
H4211 C4203 0.929 . S
H4212 C4220 0.929 . S
H4213 C4222 0.930 . S
H4214 C4224 0.930 . S
H4215 C4227 0.929 . S
H4216 C4230 0.930 . S
H4217 C4232 0.960 . S
H4218 C4232 0.960 . S
H4219 C4232 0.960 . S
C4220 H4212 0.929 . S
C4220 C4221 1.377 . S
C4220 C4222 1.384 . S
C4221 C4220 1.377 . S
C4221 C4227 1.390 . S
C4222 H4213 0.930 . S
C4222 C4220 1.384 . S
C4222 C4223 1.372 . S
C4223 C4222 1.372 . S
C4223 C4224 1.400 . S
C4223 C4228 1.490 . S
C4224 H4214 0.930 . S
C4224 C4223 1.400 . S
C4224 C4227 1.386 . S
H4225 C4241 0.930 . S
H4226 C4242 0.931 . S
C4227 H4215 0.929 . S
C4227 C4221 1.390 . S
C4227 C4224 1.386 . S
C4228 C4223 1.490 . S
C4228 C4230 1.395 . S
C4228 C4231 1.403 . S
H4229 C4235 0.930 . S
C4230 H4216 0.930 . S
C4230 C4228 1.395 . S
C4230 C4233 1.403 . S
C4231 C4228 1.403 . S
C4231 C4232 1.524 . S
C4231 C4235 1.400 . S
C4232 H4217 0.960 . S
C4232 H4218 0.960 . S
C4232 H4219 0.960 . S
C4232 C4231 1.524 . S
C4233 C4230 1.403 . S
C4233 C4234 1.392 . S
C4233 C4237 1.495 . S
C4234 C4233 1.392 . S
C4234 C4235 1.385 . S
C4234 C4236 1.478 . S
C4235 H4229 0.930 . S
C4235 C4231 1.400 . S
C4235 C4234 1.385 . S
C4236 C4234 1.478 . S
C4236 C4238 1.381 . S
C4236 C4242 1.383 . S
C4237 C4233 1.495 . S
C4237 H4243 0.959 . S
C4237 H4244 0.961 . S
C4237 H4245 0.960 . S
C4238 C4236 1.381 . S
C4238 C4239 1.394 . S
C4238 H4246 0.930 . S
C4239 C4238 1.394 . S
C4239 C4240 1.383 . S
C4239 H4247 0.929 . S
C4240 C4239 1.383 . S
C4240 C4241 1.377 . S
C4241 H4225 0.930 . S
C4241 C4240 1.377 . S
C4241 C4242 1.379 . S
C4242 H4226 0.931 . S
C4242 C4236 1.383 . S
C4242 C4241 1.379 . S
H4243 C4237 0.959 . S
H4244 C4237 0.961 . S
H4245 C4237 0.960 . S
H4246 C4238 0.930 . S
H4247 C4239 0.929 . S
H4248 C4256 0.929 . S
H4249 C4258 0.930 . S
H4250 C4260 0.930 . S
H4251 C4263 0.929 . S
H4252 C4266 0.930 . S
H4253 C4268 0.960 . S
H4254 C4268 0.960 . S
H4255 C4268 0.960 . S
C4256 H4248 0.929 . S
C4256 C4257 1.377 . S
C4256 C4258 1.384 . S
C4257 C4256 1.377 . S
C4257 C4263 1.390 . S
C4258 H4249 0.930 . S
C4258 C4256 1.384 . S
C4258 C4259 1.372 . S
C4259 C4258 1.372 . S
C4259 C4260 1.400 . S
C4259 C4264 1.490 . S
C4260 H4250 0.930 . S
C4260 C4259 1.400 . S
C4260 C4263 1.386 . S
H4261 C4277 0.930 . S
H4262 C4278 0.931 . S
C4263 H4251 0.929 . S
C4263 C4257 1.390 . S
C4263 C4260 1.386 . S
C4264 C4259 1.490 . S
C4264 C4266 1.395 . S
C4264 C4267 1.403 . S
H4265 C4271 0.930 . S
C4266 H4252 0.930 . S
C4266 C4264 1.395 . S
C4266 C4269 1.403 . S
C4267 C4264 1.403 . S
C4267 C4268 1.524 . S
C4267 C4271 1.400 . S
C4268 H4253 0.960 . S
C4268 H4254 0.960 . S
C4268 H4255 0.960 . S
C4268 C4267 1.524 . S
C4269 C4266 1.403 . S
C4269 C4270 1.392 . S
C4269 C4273 1.495 . S
C4270 C4269 1.392 . S
C4270 C4271 1.385 . S
C4270 C4272 1.478 . S
C4271 H4265 0.930 . S
C4271 C4267 1.400 . S
C4271 C4270 1.385 . S
C4272 C4270 1.478 . S
C4272 C4274 1.381 . S
C4272 C4278 1.383 . S
C4273 C4269 1.495 . S
C4273 H4279 0.959 . S
C4273 H4280 0.961 . S
C4273 H4281 0.960 . S
C4274 C4272 1.381 . S
C4274 C4275 1.394 . S
C4274 H4282 0.930 . S
C4275 C4274 1.394 . S
C4275 C4276 1.383 . S
C4275 H4283 0.929 . S
C4276 C4275 1.383 . S
C4276 C4277 1.377 . S
C4277 H4261 0.930 . S
C4277 C4276 1.377 . S
C4277 C4278 1.379 . S
C4278 H4262 0.931 . S
C4278 C4272 1.383 . S
C4278 C4277 1.379 . S
H4279 C4273 0.959 . S
H4280 C4273 0.961 . S
H4281 C4273 0.960 . S
H4282 C4274 0.930 . S
H4283 C4275 0.929 . S
H4284 C4292 0.929 . S
H4285 C4294 0.930 . S
H4286 C4296 0.930 . S
H4287 C4299 0.929 . S
H4288 C4302 0.930 . S
H4289 C4304 0.960 . S
H4290 C4304 0.960 . S
H4291 C4304 0.960 . S
C4292 H4284 0.929 . S
C4292 C4293 1.377 . S
C4292 C4294 1.384 . S
C4293 C4292 1.377 . S
C4293 C4299 1.390 . S
C4294 H4285 0.930 . S
C4294 C4292 1.384 . S
C4294 C4295 1.372 . S
C4295 C4294 1.372 . S
C4295 C4296 1.400 . S
C4295 C4300 1.490 . S
C4296 H4286 0.930 . S
C4296 C4295 1.400 . S
C4296 C4299 1.386 . S
H4297 C4313 0.930 . S
H4298 C4314 0.931 . S
C4299 H4287 0.929 . S
C4299 C4293 1.390 . S
C4299 C4296 1.386 . S
C4300 C4295 1.490 . S
C4300 C4302 1.395 . S
C4300 C4303 1.403 . S
H4301 C4307 0.930 . S
C4302 H4288 0.930 . S
C4302 C4300 1.395 . S
C4302 C4305 1.403 . S
C4303 C4300 1.403 . S
C4303 C4304 1.524 . S
C4303 C4307 1.400 . S
C4304 H4289 0.960 . S
C4304 H4290 0.960 . S
C4304 H4291 0.960 . S
C4304 C4303 1.524 . S
C4305 C4302 1.403 . S
C4305 C4306 1.392 . S
C4305 C4309 1.495 . S
C4306 C4305 1.392 . S
C4306 C4307 1.385 . S
C4306 C4308 1.478 . S
C4307 H4301 0.930 . S
C4307 C4303 1.400 . S
C4307 C4306 1.385 . S
C4308 C4306 1.478 . S
C4308 C4310 1.381 . S
C4308 C4314 1.383 . S
C4309 C4305 1.495 . S
C4309 H4315 0.959 . S
C4309 H4316 0.961 . S
C4309 H4317 0.960 . S
C4310 C4308 1.381 . S
C4310 C4311 1.394 . S
C4310 H4318 0.930 . S
C4311 C4310 1.394 . S
C4311 C4312 1.383 . S
C4311 H4319 0.929 . S
C4312 C4311 1.383 . S
C4312 C4313 1.377 . S
C4313 H4297 0.930 . S
C4313 C4312 1.377 . S
C4313 C4314 1.379 . S
C4314 H4298 0.931 . S
C4314 C4308 1.383 . S
C4314 C4313 1.379 . S
H4315 C4309 0.959 . S
H4316 C4309 0.961 . S
H4317 C4309 0.960 . S
H4318 C4310 0.930 . S
H4319 C4311 0.929 . S
H4320 C4328 0.929 . S
H4321 C4330 0.930 . S
H4322 C4332 0.930 . S
H4323 C4335 0.929 . S
H4324 C4338 0.930 . S
H4325 C4340 0.960 . S
H4326 C4340 0.960 . S
H4327 C4340 0.960 . S
C4328 H4320 0.929 . S
C4328 C4329 1.377 . S
C4328 C4330 1.384 . S
C4329 C4328 1.377 . S
C4329 C4335 1.390 . S
C4330 H4321 0.930 . S
C4330 C4328 1.384 . S
C4330 C4331 1.372 . S
C4331 C4330 1.372 . S
C4331 C4332 1.400 . S
C4331 C4336 1.490 . S
C4332 H4322 0.930 . S
C4332 C4331 1.400 . S
C4332 C4335 1.386 . S
H4333 C4349 0.930 . S
H4334 C4350 0.931 . S
C4335 H4323 0.929 . S
C4335 C4329 1.390 . S
C4335 C4332 1.386 . S
C4336 C4331 1.490 . S
C4336 C4338 1.395 . S
C4336 C4339 1.403 . S
H4337 C4343 0.930 . S
C4338 H4324 0.930 . S
C4338 C4336 1.395 . S
C4338 C4341 1.403 . S
C4339 C4336 1.403 . S
C4339 C4340 1.524 . S
C4339 C4343 1.400 . S
C4340 H4325 0.960 . S
C4340 H4326 0.960 . S
C4340 H4327 0.960 . S
C4340 C4339 1.524 . S
C4341 C4338 1.403 . S
C4341 C4342 1.392 . S
C4341 C4345 1.495 . S
C4342 C4341 1.392 . S
C4342 C4343 1.385 . S
C4342 C4344 1.478 . S
C4343 H4337 0.930 . S
C4343 C4339 1.400 . S
C4343 C4342 1.385 . S
C4344 C4342 1.478 . S
C4344 C4346 1.381 . S
C4344 C4350 1.383 . S
C4345 C4341 1.495 . S
C4345 H4351 0.959 . S
C4345 H4352 0.961 . S
C4345 H4353 0.960 . S
C4346 C4344 1.381 . S
C4346 C4347 1.394 . S
C4346 H4354 0.930 . S
C4347 C4346 1.394 . S
C4347 C4348 1.383 . S
C4347 H4355 0.929 . S
C4348 C4347 1.383 . S
C4348 C4349 1.377 . S
C4349 H4333 0.930 . S
C4349 C4348 1.377 . S
C4349 C4350 1.379 . S
C4350 H4334 0.931 . S
C4350 C4344 1.383 . S
C4350 C4349 1.379 . S
H4351 C4345 0.959 . S
H4352 C4345 0.961 . S
H4353 C4345 0.960 . S
H4354 C4346 0.930 . S
H4355 C4347 0.929 . S
H4356 C4364 0.929 . S
H4357 C4366 0.930 . S
H4358 C4368 0.930 . S
H4359 C4371 0.929 . S
H4360 C4374 0.930 . S
H4361 C4376 0.960 . S
H4362 C4376 0.960 . S
H4363 C4376 0.960 . S
C4364 H4356 0.929 . S
C4364 C4365 1.377 . S
C4364 C4366 1.384 . S
C4365 C4364 1.377 . S
C4365 C4371 1.390 . S
C4366 H4357 0.930 . S
C4366 C4364 1.384 . S
C4366 C4367 1.372 . S
C4367 C4366 1.372 . S
C4367 C4368 1.400 . S
C4367 C4372 1.490 . S
C4368 H4358 0.930 . S
C4368 C4367 1.400 . S
C4368 C4371 1.386 . S
H4369 C4385 0.930 . S
H4370 C4386 0.931 . S
C4371 H4359 0.929 . S
C4371 C4365 1.390 . S
C4371 C4368 1.386 . S
C4372 C4367 1.490 . S
C4372 C4374 1.395 . S
C4372 C4375 1.403 . S
H4373 C4379 0.930 . S
C4374 H4360 0.930 . S
C4374 C4372 1.395 . S
C4374 C4377 1.403 . S
C4375 C4372 1.403 . S
C4375 C4376 1.524 . S
C4375 C4379 1.400 . S
C4376 H4361 0.960 . S
C4376 H4362 0.960 . S
C4376 H4363 0.960 . S
C4376 C4375 1.524 . S
C4377 C4374 1.403 . S
C4377 C4378 1.392 . S
C4377 C4381 1.495 . S
C4378 C4377 1.392 . S
C4378 C4379 1.385 . S
C4378 C4380 1.478 . S
C4379 H4373 0.930 . S
C4379 C4375 1.400 . S
C4379 C4378 1.385 . S
C4380 C4378 1.478 . S
C4380 C4382 1.381 . S
C4380 C4386 1.383 . S
C4381 C4377 1.495 . S
C4381 H4387 0.959 . S
C4381 H4388 0.961 . S
C4381 H4389 0.960 . S
C4382 C4380 1.381 . S
C4382 C4383 1.394 . S
C4382 H4390 0.930 . S
C4383 C4382 1.394 . S
C4383 C4384 1.383 . S
C4383 H4391 0.929 . S
C4384 C4383 1.383 . S
C4384 C4385 1.377 . S
C4385 H4369 0.930 . S
C4385 C4384 1.377 . S
C4385 C4386 1.379 . S
C4386 H4370 0.931 . S
C4386 C4380 1.383 . S
C4386 C4385 1.379 . S
H4387 C4381 0.959 . S
H4388 C4381 0.961 . S
H4389 C4381 0.960 . S
H4390 C4382 0.930 . S
H4391 C4383 0.929 . S
H4392 C4400 0.929 . S
H4393 C4402 0.930 . S
H4394 C4404 0.930 . S
H4395 C4407 0.929 . S
H4396 C4410 0.930 . S
H4397 C4412 0.960 . S
H4398 C4412 0.960 . S
H4399 C4412 0.960 . S
C4400 H4392 0.929 . S
C4400 C4401 1.377 . S
C4400 C4402 1.384 . S
C4401 C4400 1.377 . S
C4401 C4407 1.390 . S
C4402 H4393 0.930 . S
C4402 C4400 1.384 . S
C4402 C4403 1.372 . S
C4403 C4402 1.372 . S
C4403 C4404 1.400 . S
C4403 C4408 1.490 . S
C4404 H4394 0.930 . S
C4404 C4403 1.400 . S
C4404 C4407 1.386 . S
H4405 C4421 0.930 . S
H4406 C4422 0.931 . S
C4407 H4395 0.929 . S
C4407 C4401 1.390 . S
C4407 C4404 1.386 . S
C4408 C4403 1.490 . S
C4408 C4410 1.395 . S
C4408 C4411 1.403 . S
H4409 C4415 0.930 . S
C4410 H4396 0.930 . S
C4410 C4408 1.395 . S
C4410 C4413 1.403 . S
C4411 C4408 1.403 . S
C4411 C4412 1.524 . S
C4411 C4415 1.400 . S
C4412 H4397 0.960 . S
C4412 H4398 0.960 . S
C4412 H4399 0.960 . S
C4412 C4411 1.524 . S
C4413 C4410 1.403 . S
C4413 C4414 1.392 . S
C4413 C4417 1.495 . S
C4414 C4413 1.392 . S
C4414 C4415 1.385 . S
C4414 C4416 1.478 . S
C4415 H4409 0.930 . S
C4415 C4411 1.400 . S
C4415 C4414 1.385 . S
C4416 C4414 1.478 . S
C4416 C4418 1.381 . S
C4416 C4422 1.383 . S
C4417 C4413 1.495 . S
C4417 H4423 0.959 . S
C4417 H4424 0.961 . S
C4417 H4425 0.960 . S
C4418 C4416 1.381 . S
C4418 C4419 1.394 . S
C4418 H4426 0.930 . S
C4419 C4418 1.394 . S
C4419 C4420 1.383 . S
C4419 H4427 0.929 . S
C4420 C4419 1.383 . S
C4420 C4421 1.377 . S
C4421 H4405 0.930 . S
C4421 C4420 1.377 . S
C4421 C4422 1.379 . S
C4422 H4406 0.931 . S
C4422 C4416 1.383 . S
C4422 C4421 1.379 . S
H4423 C4417 0.959 . S
H4424 C4417 0.961 . S
H4425 C4417 0.960 . S
H4426 C4418 0.930 . S
H4427 C4419 0.929 . S
H4428 C4436 0.929 . S
H4429 C4438 0.930 . S
H4430 C4440 0.930 . S
H4431 C4443 0.929 . S
H4432 C4446 0.930 . S
H4433 C4448 0.960 . S
H4434 C4448 0.960 . S
H4435 C4448 0.960 . S
C4436 H4428 0.929 . S
C4436 C4437 1.377 . S
C4436 C4438 1.384 . S
C4437 C4436 1.377 . S
C4437 C4443 1.390 . S
C4438 H4429 0.930 . S
C4438 C4436 1.384 . S
C4438 C4439 1.372 . S
C4439 C4438 1.372 . S
C4439 C4440 1.400 . S
C4439 C4444 1.490 . S
C4440 H4430 0.930 . S
C4440 C4439 1.400 . S
C4440 C4443 1.386 . S
H4441 C4457 0.930 . S
H4442 C4458 0.931 . S
C4443 H4431 0.929 . S
C4443 C4437 1.390 . S
C4443 C4440 1.386 . S
C4444 C4439 1.490 . S
C4444 C4446 1.395 . S
C4444 C4447 1.403 . S
H4445 C4451 0.930 . S
C4446 H4432 0.930 . S
C4446 C4444 1.395 . S
C4446 C4449 1.403 . S
C4447 C4444 1.403 . S
C4447 C4448 1.524 . S
C4447 C4451 1.400 . S
C4448 H4433 0.960 . S
C4448 H4434 0.960 . S
C4448 H4435 0.960 . S
C4448 C4447 1.524 . S
C4449 C4446 1.403 . S
C4449 C4450 1.392 . S
C4449 C4453 1.495 . S
C4450 C4449 1.392 . S
C4450 C4451 1.385 . S
C4450 C4452 1.478 . S
C4451 H4445 0.930 . S
C4451 C4447 1.400 . S
C4451 C4450 1.385 . S
C4452 C4450 1.478 . S
C4452 C4454 1.381 . S
C4452 C4458 1.383 . S
C4453 C4449 1.495 . S
C4453 H4459 0.959 . S
C4453 H4460 0.961 . S
C4453 H4461 0.960 . S
C4454 C4452 1.381 . S
C4454 C4455 1.394 . S
C4454 H4462 0.930 . S
C4455 C4454 1.394 . S
C4455 C4456 1.383 . S
C4455 H4463 0.929 . S
C4456 C4455 1.383 . S
C4456 C4457 1.377 . S
C4457 H4441 0.930 . S
C4457 C4456 1.377 . S
C4457 C4458 1.379 . S
C4458 H4442 0.931 . S
C4458 C4452 1.383 . S
C4458 C4457 1.379 . S
H4459 C4453 0.959 . S
H4460 C4453 0.961 . S
H4461 C4453 0.960 . S
H4462 C4454 0.930 . S
H4463 C4455 0.929 . S
H4464 C4472 0.929 . S
H4465 C4474 0.930 . S
H4466 C4476 0.930 . S
H4467 C4479 0.929 . S
H4468 C4482 0.930 . S
H4469 C4484 0.960 . S
H4470 C4484 0.960 . S
H4471 C4484 0.960 . S
C4472 H4464 0.929 . S
C4472 C4473 1.377 . S
C4472 C4474 1.384 . S
C4473 C4472 1.377 . S
C4473 C4479 1.390 1_655 S
C4474 H4465 0.930 . S
C4474 C4472 1.384 . S
C4474 C4475 1.372 . S
C4475 C4474 1.372 . S
C4475 C4476 1.400 1_655 S
C4475 C4480 1.490 . S
C4476 H4466 0.930 . S
C4476 C4475 1.400 1_455 S
C4476 C4479 1.386 . S
H4477 C4493 0.930 . S
H4478 C4494 0.931 . S
C4479 H4467 0.929 . S
C4479 C4473 1.390 1_455 S
C4479 C4476 1.386 . S
C4480 C4475 1.490 . S
C4480 C4482 1.395 . S
C4480 C4483 1.403 1_655 S
H4481 C4487 0.930 . S
C4482 H4468 0.930 . S
C4482 C4480 1.395 . S
C4482 C4485 1.403 . S
C4483 C4480 1.403 1_455 S
C4483 C4484 1.524 . S
C4483 C4487 1.400 . S
C4484 H4469 0.960 . S
C4484 H4470 0.960 . S
C4484 H4471 0.960 . S
C4484 C4483 1.524 . S
C4485 C4482 1.403 . S
C4485 C4486 1.392 1_655 S
C4485 C4489 1.495 . S
C4486 C4485 1.392 1_455 S
C4486 C4487 1.385 . S
C4486 C4488 1.478 . S
C4487 H4481 0.930 . S
C4487 C4483 1.400 . S
C4487 C4486 1.385 . S
C4488 C4486 1.478 . S
C4488 C4490 1.381 1_455 S
C4488 C4494 1.383 . S
C4489 C4485 1.495 . S
C4489 H4495 0.959 . S
C4489 H4496 0.961 . S
C4489 H4497 0.960 . S
C4490 C4488 1.381 1_655 S
C4490 C4491 1.394 . S
C4490 H4498 0.930 . S
C4491 C4490 1.394 . S
C4491 C4492 1.383 1_655 S
C4491 H4499 0.929 . S
C4492 C4491 1.383 1_455 S
C4492 C4493 1.377 . S
C4493 H4477 0.930 . S
C4493 C4492 1.377 . S
C4493 C4494 1.379 . S
C4494 H4478 0.931 . S
C4494 C4488 1.383 . S
C4494 C4493 1.379 . S
H4495 C4489 0.959 . S
H4496 C4489 0.961 . S
H4497 C4489 0.960 . S
H4498 C4490 0.930 . S
H4499 C4491 0.929 . S
H4500 C4508 0.929 . S
H4501 C4510 0.930 . S
H4502 C4512 0.930 . S
H4503 C4515 0.929 . S
H4504 C4518 0.930 . S
H4505 C4520 0.960 . S
H4506 C4520 0.960 . S
H4507 C4520 0.960 . S
C4508 H4500 0.929 . S
C4508 C4509 1.377 . S
C4508 C4510 1.384 . S
C4509 C4508 1.377 . S
C4509 C4515 1.390 . S
C4510 H4501 0.930 . S
C4510 C4508 1.384 . S
C4510 C4511 1.372 . S
C4511 C4510 1.372 . S
C4511 C4512 1.400 . S
C4511 C4516 1.490 . S
C4512 H4502 0.930 . S
C4512 C4511 1.400 . S
C4512 C4515 1.386 . S
H4513 C4529 0.930 . S
H4514 C4530 0.931 . S
C4515 H4503 0.929 . S
C4515 C4509 1.390 . S
C4515 C4512 1.386 . S
C4516 C4511 1.490 . S
C4516 C4518 1.395 . S
C4516 C4519 1.403 . S
H4517 C4523 0.930 . S
C4518 H4504 0.930 . S
C4518 C4516 1.395 . S
C4518 C4521 1.403 . S
C4519 C4516 1.403 . S
C4519 C4520 1.524 . S
C4519 C4523 1.400 . S
C4520 H4505 0.960 . S
C4520 H4506 0.960 . S
C4520 H4507 0.960 . S
C4520 C4519 1.524 . S
C4521 C4518 1.403 . S
C4521 C4522 1.392 . S
C4521 C4525 1.495 . S
C4522 C4521 1.392 . S
C4522 C4523 1.385 . S
C4522 C4524 1.478 . S
C4523 H4517 0.930 . S
C4523 C4519 1.400 . S
C4523 C4522 1.385 . S
C4524 C4522 1.478 . S
C4524 C4526 1.381 . S
C4524 C4530 1.383 . S
C4525 C4521 1.495 . S
C4525 H4531 0.959 . S
C4525 H4532 0.961 . S
C4525 H4533 0.960 . S
C4526 C4524 1.381 . S
C4526 C4527 1.394 . S
C4526 H4534 0.930 . S
C4527 C4526 1.394 . S
C4527 C4528 1.383 . S
C4527 H4535 0.929 . S
C4528 C4527 1.383 . S
C4528 C4529 1.377 . S
C4529 H4513 0.930 . S
C4529 C4528 1.377 . S
C4529 C4530 1.379 . S
C4530 H4514 0.931 . S
C4530 C4524 1.383 . S
C4530 C4529 1.379 . S
H4531 C4525 0.959 . S
H4532 C4525 0.961 . S
H4533 C4525 0.960 . S
H4534 C4526 0.930 . S
H4535 C4527 0.929 . S
H4536 C4544 0.929 . S
H4537 C4546 0.930 . S
H4538 C4548 0.930 . S
H4539 C4551 0.929 . S
H4540 C4554 0.930 . S
H4541 C4556 0.960 . S
H4542 C4556 0.960 . S
H4543 C4556 0.960 . S
C4544 H4536 0.929 . S
C4544 C4545 1.377 1_565 S
C4544 C4546 1.384 . S
C4545 C4544 1.377 1_545 S
C4545 C4551 1.390 . S
C4546 H4537 0.930 . S
C4546 C4544 1.384 . S
C4546 C4547 1.372 1_565 S
C4547 C4546 1.372 1_545 S
C4547 C4548 1.400 . S
C4547 C4552 1.487 1_545 S
C4548 H4538 0.930 . S
C4548 C4547 1.400 . S
C4548 C4551 1.386 . S
H4549 C4565 0.930 . S
H4550 C4566 0.931 . S
C4551 H4539 0.929 . S
C4551 C4545 1.390 . S
C4551 C4548 1.386 . S
C4552 C4547 1.487 1_565 S
C4552 C4554 1.413 . S
C4552 C4555 1.388 1_565 S
H4553 C4559 0.930 . S
C4554 H4540 0.930 . S
C4554 C4552 1.413 . S
C4554 C4557 1.403 . S
C4555 C4552 1.388 1_545 S
C4555 C4556 1.524 . S
C4555 C4559 1.400 . S
C4556 H4541 0.960 . S
C4556 H4542 0.960 . S
C4556 H4543 0.960 . S
C4556 C4555 1.524 . S
C4557 C4554 1.403 . S
C4557 C4558 1.392 . S
C4557 C4561 1.495 . S
C4558 C4557 1.392 . S
C4558 C4559 1.385 1_565 S
C4558 C4560 1.478 . S
C4559 H4553 0.930 . S
C4559 C4555 1.400 . S
C4559 C4558 1.385 1_545 S
C4560 C4558 1.478 . S
C4560 C4562 1.381 . S
C4560 C4566 1.383 1_565 S
C4561 C4557 1.495 . S
C4561 H4567 0.959 . S
C4561 H4568 0.961 . S
C4561 H4569 0.960 . S
C4562 C4560 1.381 . S
C4562 C4563 1.394 . S
C4562 H4570 0.930 . S
C4563 C4562 1.394 . S
C4563 C4564 1.383 . S
C4563 H4571 0.929 . S
C4564 C4563 1.383 . S
C4564 C4565 1.377 1_565 S
C4565 H4549 0.930 . S
C4565 C4564 1.377 1_545 S
C4565 C4566 1.379 . S
C4566 H4550 0.931 . S
C4566 C4560 1.383 1_545 S
C4566 C4565 1.379 . S
H4567 C4561 0.959 . S
H4568 C4561 0.961 . S
H4569 C4561 0.960 . S
H4570 C4562 0.930 . S
H4571 C4563 0.929 . S
H4572 C4580 0.929 . S
H4573 C4582 0.957 . S
H4574 C4584 0.930 . S
H4575 C4587 0.929 . S
H4576 C4590 0.930 . S
H4577 C4592 0.960 . S
H4578 C4592 0.960 . S
H4579 C4592 0.960 . S
C4580 H4572 0.929 . S
C4580 C4581 1.377 . S
C4580 C4582 1.384 . S
C4581 C4580 1.377 . S
C4581 C4587 1.390 . S
C4582 H4573 0.957 . S
C4582 C4580 1.384 . S
C4582 C4583 1.372 . S
C4583 C4582 1.372 . S
C4583 C4584 1.400 . S
C4583 C4588 1.490 . S
C4584 H4574 0.930 . S
C4584 C4583 1.400 . S
C4584 C4587 1.386 . S
H4585 C4601 0.901 1_545 S
H4586 C4602 0.931 . S
C4587 H4575 0.929 . S
C4587 C4581 1.390 . S
C4587 C4584 1.386 . S
C4588 C4583 1.490 . S
C4588 C4590 1.395 . S
C4588 C4591 1.403 1_545 S
H4589 C4595 0.930 . S
C4590 H4576 0.930 . S
C4590 C4588 1.395 . S
C4590 C4593 1.403 . S
C4591 C4588 1.403 1_565 S
C4591 C4592 1.524 . S
C4591 C4595 1.400 . S
C4592 H4577 0.960 . S
C4592 H4578 0.960 . S
C4592 H4579 0.960 . S
C4592 C4591 1.524 . S
C4593 C4590 1.403 . S
C4593 C4594 1.392 . S
C4593 C4597 1.495 . S
C4594 C4593 1.392 . S
C4594 C4595 1.385 1_545 S
C4594 C4596 1.478 1_545 S
C4595 H4589 0.930 . S
C4595 C4591 1.400 . S
C4595 C4594 1.385 1_565 S
C4596 C4594 1.478 1_565 S
C4596 C4598 1.381 . S
C4596 C4602 1.383 1_565 S
C4597 C4593 1.495 . S
C4597 H4603 0.959 . S
C4597 H4604 0.961 . S
C4597 H4605 0.960 . S
C4598 C4596 1.381 . S
C4598 C4599 1.394 . S
C4598 H4606 0.930 . S
C4599 C4598 1.394 . S
C4599 C4600 1.383 . S
C4599 H4607 0.929 . S
C4600 C4599 1.383 . S
C4600 C4601 1.412 . S
C4601 H4585 0.901 1_565 S
C4601 C4600 1.412 . S
C4601 C4602 1.374 1_565 S
C4602 H4586 0.931 . S
C4602 C4596 1.383 1_545 S
C4602 C4601 1.374 1_545 S
H4603 C4597 0.959 . S
H4604 C4597 0.961 . S
H4605 C4597 0.960 . S
H4606 C4598 0.930 . S
H4607 C4599 0.929 . S
H4608 C4616 0.929 . S
H4609 C4618 0.930 . S
H4610 C4620 0.930 . S
H4611 C4623 0.929 . S
H4612 C4626 0.930 . S
H4613 C4628 0.960 . S
H4614 C4628 0.960 . S
H4615 C4628 0.960 . S
C4616 H4608 0.929 . S
C4616 C4617 1.377 1_655 S
C4616 C4618 1.384 . S
C4617 C4616 1.377 1_455 S
C4617 C4623 1.390 . S
C4618 H4609 0.930 . S
C4618 C4616 1.384 . S
C4618 C4619 1.372 1_655 S
C4619 C4618 1.372 1_455 S
C4619 C4620 1.400 . S
C4619 C4624 1.489 1_455 S
C4620 H4610 0.930 . S
C4620 C4619 1.400 . S
C4620 C4623 1.386 . S
H4621 C4637 0.930 1_455 S
H4622 C4638 0.931 1_455 S
C4623 H4611 0.929 . S
C4623 C4617 1.390 . S
C4623 C4620 1.386 . S
C4624 C4619 1.489 1_655 S
C4624 C4626 1.401 . S
C4624 C4627 1.397 1_655 S
H4625 C4631 0.930 . S
C4626 H4612 0.930 . S
C4626 C4624 1.401 . S
C4626 C4629 1.403 . S
C4627 C4624 1.397 1_455 S
C4627 C4628 1.524 . S
C4627 C4631 1.400 . S
C4628 H4613 0.960 . S
C4628 H4614 0.960 . S
C4628 H4615 0.960 . S
C4628 C4627 1.524 . S
C4629 C4626 1.403 . S
C4629 C4630 1.392 . S
C4629 C4633 1.495 . S
C4630 C4629 1.392 . S
C4630 C4631 1.385 1_655 S
C4630 C4632 1.478 . S
C4631 H4625 0.930 . S
C4631 C4627 1.400 . S
C4631 C4630 1.385 1_455 S
C4632 C4630 1.478 . S
C4632 C4634 1.381 . S
C4632 C4638 1.383 . S
C4633 C4629 1.495 . S
C4633 H4639 0.959 . S
C4633 H4640 0.961 . S
C4633 H4641 0.960 . S
C4634 C4632 1.381 . S
C4634 C4635 1.394 . S
C4634 H4642 0.930 . S
C4635 C4634 1.394 . S
C4635 C4636 1.383 . S
C4635 H4643 0.929 . S
C4636 C4635 1.383 . S
C4636 C4637 1.377 . S
C4637 H4621 0.930 1_655 S
C4637 C4636 1.377 . S
C4637 C4638 1.379 . S
C4638 H4622 0.931 1_655 S
C4638 C4632 1.383 . S
C4638 C4637 1.379 . S
H4639 C4633 0.959 . S
H4640 C4633 0.961 . S
H4641 C4633 0.960 . S
H4642 C4634 0.930 . S
H4643 C4635 0.929 . S
H4644 C4652 0.929 . S
H4645 C4654 0.930 . S
H4646 C4656 0.930 . S
H4647 C4659 0.929 . S
H4648 C4662 0.930 . S
H4649 C4664 0.960 . S
H4650 C4664 0.960 . S
H4651 C4664 0.960 . S
C4652 H4644 0.929 . S
C4652 C4653 1.377 . S
C4652 C4654 1.384 . S
C4653 C4652 1.377 . S
C4653 C4659 1.390 . S
C4654 H4645 0.930 . S
C4654 C4652 1.384 . S
C4654 C4655 1.372 . S
C4655 C4654 1.372 . S
C4655 C4656 1.400 . S
C4655 C4660 1.490 . S
C4656 H4646 0.930 . S
C4656 C4655 1.400 . S
C4656 C4659 1.386 . S
H4657 C4673 0.930 . S
H4658 C4674 0.931 . S
C4659 H4647 0.929 . S
C4659 C4653 1.390 . S
C4659 C4656 1.386 . S
C4660 C4655 1.490 . S
C4660 C4662 1.395 . S
C4660 C4663 1.403 . S
H4661 C4667 0.930 . S
C4662 H4648 0.930 . S
C4662 C4660 1.395 . S
C4662 C4665 1.403 . S
C4663 C4660 1.403 . S
C4663 C4664 1.524 . S
C4663 C4667 1.400 . S
C4664 H4649 0.960 . S
C4664 H4650 0.960 . S
C4664 H4651 0.960 . S
C4664 C4663 1.524 . S
C4665 C4662 1.403 . S
C4665 C4666 1.392 . S
C4665 C4669 1.495 . S
C4666 C4665 1.392 . S
C4666 C4667 1.385 . S
C4666 C4668 1.478 . S
C4667 H4661 0.930 . S
C4667 C4663 1.400 . S
C4667 C4666 1.385 . S
C4668 C4666 1.478 . S
C4668 C4670 1.381 . S
C4668 C4674 1.383 . S
C4669 C4665 1.495 . S
C4669 H4675 0.959 . S
C4669 H4676 0.961 . S
C4669 H4677 0.960 . S
C4670 C4668 1.381 . S
C4670 C4671 1.394 . S
C4670 H4678 0.930 . S
C4671 C4670 1.394 . S
C4671 C4672 1.383 . S
C4671 H4679 0.929 . S
C4672 C4671 1.383 . S
C4672 C4673 1.377 . S
C4673 H4657 0.930 . S
C4673 C4672 1.377 . S
C4673 C4674 1.379 . S
C4674 H4658 0.931 . S
C4674 C4668 1.383 . S
C4674 C4673 1.379 . S
H4675 C4669 0.959 . S
H4676 C4669 0.961 . S
H4677 C4669 0.960 . S
H4678 C4670 0.930 . S
H4679 C4671 0.929 . S
H4680 C4688 0.929 . S
H4681 C4690 0.930 1_455 S
H4682 C4692 0.930 . S
H4683 C4695 0.929 . S
H4684 C4698 0.930 . S
H4685 C4700 0.960 . S
H4686 C4700 0.960 . S
H4687 C4700 0.960 . S
C4688 H4680 0.929 . S
C4688 C4689 1.377 . S
C4688 C4690 1.384 . S
C4689 C4688 1.377 . S
C4689 C4695 1.390 . S
C4690 H4681 0.930 1_655 S
C4690 C4688 1.384 . S
C4690 C4691 1.372 . S
C4691 C4690 1.372 . S
C4691 C4692 1.400 . S
C4691 C4696 1.490 . S
C4692 H4682 0.930 . S
C4692 C4691 1.400 . S
C4692 C4695 1.386 . S
H4693 C4709 0.930 . S
H4694 C4710 0.931 . S
C4695 H4683 0.929 . S
C4695 C4689 1.390 . S
C4695 C4692 1.386 . S
C4696 C4691 1.490 . S
C4696 C4698 1.395 1_655 S
C4696 C4699 1.403 . S
H4697 C4703 0.930 . S
C4698 H4684 0.930 . S
C4698 C4696 1.395 1_455 S
C4698 C4701 1.403 . S
C4699 C4696 1.403 . S
C4699 C4700 1.524 . S
C4699 C4703 1.400 . S
C4700 H4685 0.960 . S
C4700 H4686 0.960 . S
C4700 H4687 0.960 . S
C4700 C4699 1.524 . S
C4701 C4698 1.403 . S
C4701 C4702 1.392 . S
C4701 C4705 1.495 . S
C4702 C4701 1.392 . S
C4702 C4703 1.385 1_455 S
C4702 C4704 1.478 . S
C4703 H4697 0.930 . S
C4703 C4699 1.400 . S
C4703 C4702 1.385 1_655 S
C4704 C4702 1.478 . S
C4704 C4706 1.381 . S
C4704 C4710 1.383 . S
C4705 C4701 1.495 . S
C4705 H4711 0.959 . S
C4705 H4712 0.961 . S
C4705 H4713 0.960 . S
C4706 C4704 1.381 . S
C4706 C4707 1.394 . S
C4706 H4714 0.930 . S
C4707 C4706 1.394 . S
C4707 C4708 1.383 . S
C4707 H4715 0.929 . S
C4708 C4707 1.383 . S
C4708 C4709 1.377 . S
C4709 H4693 0.930 . S
C4709 C4708 1.377 . S
C4709 C4710 1.379 . S
C4710 H4694 0.931 . S
C4710 C4704 1.383 . S
C4710 C4709 1.379 . S
H4711 C4705 0.959 . S
H4712 C4705 0.961 . S
H4713 C4705 0.960 . S
H4714 C4706 0.930 . S
H4715 C4707 0.929 . S
H4716 C4724 0.929 . S
H4717 C4726 0.930 . S
H4718 C4728 0.930 . S
H4719 C4731 0.929 . S
H4720 C4734 0.930 . S
H4721 C4736 0.960 . S
H4722 C4736 0.960 . S
H4723 C4736 0.960 . S
C4724 H4716 0.929 . S
C4724 C4725 1.377 . S
C4724 C4726 1.384 . S
C4725 C4724 1.377 . S
C4725 C4731 1.390 . S
C4726 H4717 0.930 . S
C4726 C4724 1.384 . S
C4726 C4727 1.372 . S
C4727 C4726 1.372 . S
C4727 C4728 1.400 . S
C4727 C4732 1.490 . S
C4728 H4718 0.930 . S
C4728 C4727 1.400 . S
C4728 C4731 1.386 . S
H4729 C4745 0.930 . S
H4730 C4746 0.931 . S
C4731 H4719 0.929 . S
C4731 C4725 1.390 . S
C4731 C4728 1.386 . S
C4732 C4727 1.490 . S
C4732 C4734 1.395 . S
C4732 C4735 1.403 . S
H4733 C4739 0.930 . S
C4734 H4720 0.930 . S
C4734 C4732 1.395 . S
C4734 C4737 1.403 . S
C4735 C4732 1.403 . S
C4735 C4736 1.524 . S
C4735 C4739 1.400 . S
C4736 H4721 0.960 . S
C4736 H4722 0.960 . S
C4736 H4723 0.960 . S
C4736 C4735 1.524 . S
C4737 C4734 1.403 . S
C4737 C4738 1.392 . S
C4737 C4741 1.495 . S
C4738 C4737 1.392 . S
C4738 C4739 1.385 . S
C4738 C4740 1.478 . S
C4739 H4733 0.930 . S
C4739 C4735 1.400 . S
C4739 C4738 1.385 . S
C4740 C4738 1.478 . S
C4740 C4742 1.381 . S
C4740 C4746 1.383 . S
C4741 C4737 1.495 . S
C4741 H4747 0.959 . S
C4741 H4748 0.961 . S
C4741 H4749 0.960 . S
C4742 C4740 1.381 . S
C4742 C4743 1.394 . S
C4742 H4750 0.930 . S
C4743 C4742 1.394 . S
C4743 C4744 1.383 . S
C4743 H4751 0.929 . S
C4744 C4743 1.383 . S
C4744 C4745 1.377 . S
C4745 H4729 0.930 . S
C4745 C4744 1.377 . S
C4745 C4746 1.379 . S
C4746 H4730 0.931 . S
C4746 C4740 1.383 . S
C4746 C4745 1.379 . S
H4747 C4741 0.959 . S
H4748 C4741 0.961 . S
H4749 C4741 0.960 . S
H4750 C4742 0.930 . S
H4751 C4743 0.929 . S
H4752 C4760 0.929 . S
H4753 C4762 0.930 . S
H4754 C4764 0.930 1_565 S
H4755 C4767 0.929 . S
H4756 C4770 0.930 . S
H4757 C4772 0.960 . S
H4758 C4772 0.960 . S
H4759 C4772 0.960 . S
C4760 H4752 0.929 . S
C4760 C4761 1.377 . S
C4760 C4762 1.384 . S
C4761 C4760 1.377 . S
C4761 C4767 1.390 . S
C4762 H4753 0.930 . S
C4762 C4760 1.384 . S
C4762 C4763 1.372 . S
C4763 C4762 1.372 . S
C4763 C4764 1.400 . S
C4763 C4768 1.490 . S
C4764 H4754 0.930 1_545 S
C4764 C4763 1.400 . S
C4764 C4767 1.386 . S
H4765 C4781 0.930 . S
H4766 C4782 0.931 . S
C4767 H4755 0.929 . S
C4767 C4761 1.390 . S
C4767 C4764 1.386 . S
C4768 C4763 1.490 . S
C4768 C4770 1.395 . S
C4768 C4771 1.403 1_545 S
H4769 C4775 0.930 . S
C4770 H4756 0.930 . S
C4770 C4768 1.395 . S
C4770 C4773 1.403 . S
C4771 C4768 1.403 1_565 S
C4771 C4772 1.524 . S
C4771 C4775 1.400 . S
C4772 H4757 0.960 . S
C4772 H4758 0.960 . S
C4772 H4759 0.960 . S
C4772 C4771 1.524 . S
C4773 C4770 1.403 . S
C4773 C4774 1.392 1_545 S
C4773 C4777 1.495 . S
C4774 C4773 1.392 1_565 S
C4774 C4775 1.385 . S
C4774 C4776 1.478 . S
C4775 H4769 0.930 . S
C4775 C4771 1.400 . S
C4775 C4774 1.385 . S
C4776 C4774 1.478 . S
C4776 C4778 1.381 . S
C4776 C4782 1.383 . S
C4777 C4773 1.495 . S
C4777 H4783 0.959 . S
C4777 H4784 0.961 . S
C4777 H4785 0.960 . S
C4778 C4776 1.381 . S
C4778 C4779 1.394 . S
C4778 H4786 0.930 1_565 S
C4779 C4778 1.394 . S
C4779 C4780 1.383 . S
C4779 H4787 0.929 . S
C4780 C4779 1.383 . S
C4780 C4781 1.377 . S
C4781 H4765 0.930 . S
C4781 C4780 1.377 . S
C4781 C4782 1.379 . S
C4782 H4766 0.931 . S
C4782 C4776 1.383 . S
C4782 C4781 1.379 . S
H4783 C4777 0.959 . S
H4784 C4777 0.961 . S
H4785 C4777 0.960 . S
H4786 C4778 0.930 1_545 S
H4787 C4779 0.929 . S
H4788 C4796 0.929 . S
H4789 C4798 0.930 . S
H4790 C4800 0.930 . S
H4791 C4803 0.929 . S
H4792 C4806 0.930 . S
H4793 C4808 0.960 . S
H4794 C4808 0.960 . S
H4795 C4808 0.960 . S
C4796 H4788 0.929 . S
C4796 C4797 1.377 . S
C4796 C4798 1.384 . S
C4797 C4796 1.377 . S
C4797 C4803 1.390 . S
C4798 H4789 0.930 . S
C4798 C4796 1.384 . S
C4798 C4799 1.372 . S
C4799 C4798 1.372 . S
C4799 C4800 1.400 . S
C4799 C4804 1.490 . S
C4800 H4790 0.930 . S
C4800 C4799 1.400 . S
C4800 C4803 1.386 . S
H4801 C4817 0.930 . S
H4802 C4818 0.931 . S
C4803 H4791 0.929 . S
C4803 C4797 1.390 . S
C4803 C4800 1.386 . S
C4804 C4799 1.490 . S
C4804 C4806 1.395 . S
C4804 C4807 1.403 1_655 S
H4805 C4811 0.930 . S
C4806 H4792 0.930 . S
C4806 C4804 1.395 . S
C4806 C4809 1.403 . S
C4807 C4804 1.403 1_455 S
C4807 C4808 1.524 . S
C4807 C4811 1.400 . S
C4808 H4793 0.960 . S
C4808 H4794 0.960 . S
C4808 H4795 0.960 . S
C4808 C4807 1.524 . S
C4809 C4806 1.403 . S
C4809 C4810 1.392 1_655 S
C4809 C4813 1.495 . S
C4810 C4809 1.392 1_455 S
C4810 C4811 1.385 . S
C4810 C4812 1.478 . S
C4811 H4805 0.930 . S
C4811 C4807 1.400 . S
C4811 C4810 1.385 . S
C4812 C4810 1.478 . S
C4812 C4814 1.381 . S
C4812 C4818 1.383 . S
C4813 C4809 1.495 . S
C4813 H4819 0.959 . S
C4813 H4820 0.961 . S
C4813 H4821 0.960 . S
C4814 C4812 1.381 . S
C4814 C4815 1.394 . S
C4814 H4822 0.930 . S
C4815 C4814 1.394 . S
C4815 C4816 1.383 . S
C4815 H4823 0.929 . S
C4816 C4815 1.383 . S
C4816 C4817 1.377 . S
C4817 H4801 0.930 . S
C4817 C4816 1.377 . S
C4817 C4818 1.379 . S
C4818 H4802 0.931 . S
C4818 C4812 1.383 . S
C4818 C4817 1.379 . S
H4819 C4813 0.959 . S
H4820 C4813 0.961 . S
H4821 C4813 0.960 . S
H4822 C4814 0.930 . S
H4823 C4815 0.929 . S
H4824 C4832 0.929 . S
H4825 C4834 0.930 . S
H4826 C4836 0.930 . S
H4827 C4839 0.929 . S
H4828 C4842 0.930 . S
H4829 C4844 0.960 . S
H4830 C4844 0.960 . S
H4831 C4844 0.960 . S
C4832 H4824 0.929 . S
C4832 C4833 1.377 . S
C4832 C4834 1.384 . S
C4833 C4832 1.377 . S
C4833 C4839 1.390 . S
C4834 H4825 0.930 . S
C4834 C4832 1.384 . S
C4834 C4835 1.372 . S
C4835 C4834 1.372 . S
C4835 C4836 1.400 . S
C4835 C4840 1.490 . S
C4836 H4826 0.930 . S
C4836 C4835 1.400 . S
C4836 C4839 1.386 . S
H4837 C4853 0.930 . S
H4838 C4854 0.931 . S
C4839 H4827 0.929 . S
C4839 C4833 1.390 . S
C4839 C4836 1.386 . S
C4840 C4835 1.490 . S
C4840 C4842 1.395 . S
C4840 C4843 1.403 . S
H4841 C4847 0.930 . S
C4842 H4828 0.930 . S
C4842 C4840 1.395 . S
C4842 C4845 1.403 . S
C4843 C4840 1.403 . S
C4843 C4844 1.524 . S
C4843 C4847 1.400 . S
C4844 H4829 0.960 . S
C4844 H4830 0.960 . S
C4844 H4831 0.960 . S
C4844 C4843 1.524 . S
C4845 C4842 1.403 . S
C4845 C4846 1.392 . S
C4845 C4849 1.495 . S
C4846 C4845 1.392 . S
C4846 C4847 1.385 . S
C4846 C4848 1.478 . S
C4847 H4841 0.930 . S
C4847 C4843 1.400 . S
C4847 C4846 1.385 . S
C4848 C4846 1.478 . S
C4848 C4850 1.381 . S
C4848 C4854 1.383 . S
C4849 C4845 1.495 . S
C4849 H4855 0.959 . S
C4849 H4856 0.961 . S
C4849 H4857 0.960 . S
C4850 C4848 1.381 . S
C4850 C4851 1.394 . S
C4850 H4858 0.930 . S
C4851 C4850 1.394 . S
C4851 C4852 1.383 . S
C4851 H4859 0.929 . S
C4852 C4851 1.383 . S
C4852 C4853 1.377 . S
C4853 H4837 0.930 . S
C4853 C4852 1.377 . S
C4853 C4854 1.379 . S
C4854 H4838 0.931 . S
C4854 C4848 1.383 . S
C4854 C4853 1.379 . S
H4855 C4849 0.959 . S
H4856 C4849 0.961 . S
H4857 C4849 0.960 . S
H4858 C4850 0.930 . S
H4859 C4851 0.929 . S
H4860 C4868 0.929 . S
H4861 C4870 0.930 . S
H4862 C4872 0.930 . S
H4863 C4875 0.929 . S
H4864 C4878 0.930 . S
H4865 C4880 0.960 . S
H4866 C4880 0.960 . S
H4867 C4880 0.960 . S
C4868 H4860 0.929 . S
C4868 C4869 1.377 . S
C4868 C4870 1.384 . S
C4869 C4868 1.377 . S
C4869 C4875 1.390 . S
C4870 H4861 0.930 . S
C4870 C4868 1.384 . S
C4870 C4871 1.372 . S
C4871 C4870 1.372 . S
C4871 C4872 1.400 . S
C4871 C4876 1.490 . S
C4872 H4862 0.930 . S
C4872 C4871 1.400 . S
C4872 C4875 1.386 . S
H4873 C4889 0.930 . S
H4874 C4890 0.931 . S
C4875 H4863 0.929 . S
C4875 C4869 1.390 . S
C4875 C4872 1.386 . S
C4876 C4871 1.490 . S
C4876 C4878 1.395 1_545 S
C4876 C4879 1.403 . S
H4877 C4883 0.930 . S
C4878 H4864 0.930 . S
C4878 C4876 1.395 1_565 S
C4878 C4881 1.403 . S
C4879 C4876 1.403 . S
C4879 C4880 1.524 . S
C4879 C4883 1.400 . S
C4880 H4865 0.960 . S
C4880 H4866 0.960 . S
C4880 H4867 0.960 . S
C4880 C4879 1.524 . S
C4881 C4878 1.403 . S
C4881 C4882 1.392 . S
C4881 C4885 1.495 . S
C4882 C4881 1.392 . S
C4882 C4883 1.385 1_565 S
C4882 C4884 1.478 . S
C4883 H4877 0.930 . S
C4883 C4879 1.400 . S
C4883 C4882 1.385 1_545 S
C4884 C4882 1.478 . S
C4884 C4886 1.381 . S
C4884 C4890 1.383 . S
C4885 C4881 1.495 . S
C4885 H4891 0.959 . S
C4885 H4892 0.961 . S
C4885 H4893 0.960 . S
C4886 C4884 1.381 . S
C4886 C4887 1.394 . S
C4886 H4894 0.930 . S
C4887 C4886 1.394 . S
C4887 C4888 1.383 . S
C4887 H4895 0.929 . S
C4888 C4887 1.383 . S
C4888 C4889 1.377 . S
C4889 H4873 0.930 . S
C4889 C4888 1.377 . S
C4889 C4890 1.379 . S
C4890 H4874 0.931 . S
C4890 C4884 1.383 . S
C4890 C4889 1.379 . S
H4891 C4885 0.959 . S
H4892 C4885 0.961 . S
H4893 C4885 0.960 . S
H4894 C4886 0.930 . S
H4895 C4887 0.929 . S
H4896 C4904 0.929 . S
H4897 C4906 0.930 . S
H4898 C4908 0.930 . S
H4899 C4911 0.929 . S
H4900 C4914 0.930 . S
H4901 C4916 0.960 . S
H4902 C4916 0.960 . S
H4903 C4916 0.960 . S
C4904 H4896 0.929 . S
C4904 C4905 1.377 . S
C4904 C4906 1.384 . S
C4905 C4904 1.377 . S
C4905 C4911 1.390 . S
C4906 H4897 0.930 . S
C4906 C4904 1.384 . S
C4906 C4907 1.372 . S
C4907 C4906 1.372 . S
C4907 C4908 1.400 . S
C4907 C4912 1.490 . S
C4908 H4898 0.930 . S
C4908 C4907 1.400 . S
C4908 C4911 1.386 . S
H4909 C4925 0.930 . S
H4910 C4926 0.931 . S
C4911 H4899 0.929 . S
C4911 C4905 1.390 . S
C4911 C4908 1.386 . S
C4912 C4907 1.490 . S
C4912 C4914 1.395 . S
C4912 C4915 1.403 . S
H4913 C4919 0.930 . S
C4914 H4900 0.930 . S
C4914 C4912 1.395 . S
C4914 C4917 1.403 . S
C4915 C4912 1.403 . S
C4915 C4916 1.524 . S
C4915 C4919 1.400 . S
C4916 H4901 0.960 . S
C4916 H4902 0.960 . S
C4916 H4903 0.960 . S
C4916 C4915 1.524 . S
C4917 C4914 1.403 . S
C4917 C4918 1.392 . S
C4917 C4921 1.495 . S
C4918 C4917 1.392 . S
C4918 C4919 1.385 . S
C4918 C4920 1.478 . S
C4919 H4913 0.930 . S
C4919 C4915 1.400 . S
C4919 C4918 1.385 . S
C4920 C4918 1.478 . S
C4920 C4922 1.381 . S
C4920 C4926 1.383 . S
C4921 C4917 1.495 . S
C4921 H4927 0.959 . S
C4921 H4928 0.961 . S
C4921 H4929 0.960 . S
C4922 C4920 1.381 . S
C4922 C4923 1.394 . S
C4922 H4930 0.930 . S
C4923 C4922 1.394 . S
C4923 C4924 1.383 . S
C4923 H4931 0.929 . S
C4924 C4923 1.383 . S
C4924 C4925 1.377 . S
C4925 H4909 0.930 . S
C4925 C4924 1.377 . S
C4925 C4926 1.379 . S
C4926 H4910 0.931 . S
C4926 C4920 1.383 . S
C4926 C4925 1.379 . S
H4927 C4921 0.959 . S
H4928 C4921 0.961 . S
H4929 C4921 0.960 . S
H4930 C4922 0.930 . S
H4931 C4923 0.929 . S
H4932 C4940 0.929 . S
H4933 C4942 0.930 . S
H4934 C4944 0.930 . S
H4935 C4947 0.929 . S
H4936 C4950 0.930 . S
H4937 C4952 0.960 . S
H4938 C4952 0.960 . S
H4939 C4952 0.960 . S
C4940 H4932 0.929 . S
C4940 C4941 1.377 . S
C4940 C4942 1.384 . S
C4941 C4940 1.377 . S
C4941 C4947 1.390 . S
C4942 H4933 0.930 . S
C4942 C4940 1.384 . S
C4942 C4943 1.372 . S
C4943 C4942 1.372 . S
C4943 C4944 1.400 . S
C4943 C4948 1.490 . S
C4944 H4934 0.930 . S
C4944 C4943 1.400 . S
C4944 C4947 1.386 . S
H4945 C4961 0.930 . S
H4946 C4962 0.931 . S
C4947 H4935 0.929 . S
C4947 C4941 1.390 . S
C4947 C4944 1.386 . S
C4948 C4943 1.490 . S
C4948 C4950 1.395 . S
C4948 C4951 1.403 . S
H4949 C4955 0.930 . S
C4950 H4936 0.930 . S
C4950 C4948 1.395 . S
C4950 C4953 1.403 . S
C4951 C4948 1.403 . S
C4951 C4952 1.524 . S
C4951 C4955 1.400 . S
C4952 H4937 0.960 . S
C4952 H4938 0.960 . S
C4952 H4939 0.960 . S
C4952 C4951 1.524 . S
C4953 C4950 1.403 . S
C4953 C4954 1.392 . S
C4953 C4957 1.495 . S
C4954 C4953 1.392 . S
C4954 C4955 1.385 . S
C4954 C4956 1.478 . S
C4955 H4949 0.930 . S
C4955 C4951 1.400 . S
C4955 C4954 1.385 . S
C4956 C4954 1.478 . S
C4956 C4958 1.381 . S
C4956 C4962 1.383 . S
C4957 C4953 1.495 . S
C4957 H4963 0.959 . S
C4957 H4964 0.961 . S
C4957 H4965 0.960 . S
C4958 C4956 1.381 . S
C4958 C4959 1.394 . S
C4958 H4966 0.930 . S
C4959 C4958 1.394 . S
C4959 C4960 1.383 . S
C4959 H4967 0.929 . S
C4960 C4959 1.383 . S
C4960 C4961 1.377 . S
C4961 H4945 0.930 . S
C4961 C4960 1.377 . S
C4961 C4962 1.379 . S
C4962 H4946 0.931 . S
C4962 C4956 1.383 . S
C4962 C4961 1.379 . S
H4963 C4957 0.959 . S
H4964 C4957 0.961 . S
H4965 C4957 0.960 . S
H4966 C4958 0.930 . S
H4967 C4959 0.929 . S
H4968 C4976 0.929 . S
H4969 C4978 0.930 . S
H4970 C4980 0.930 . S
H4971 C4983 0.929 . S
H4972 C4986 0.930 . S
H4973 C4988 0.960 . S
H4974 C4988 0.960 . S
H4975 C4988 0.960 . S
C4976 H4968 0.929 . S
C4976 C4977 1.377 . S
C4976 C4978 1.384 . S
C4977 C4976 1.377 . S
C4977 C4983 1.390 . S
C4978 H4969 0.930 . S
C4978 C4976 1.384 . S
C4978 C4979 1.372 . S
C4979 C4978 1.372 . S
C4979 C4980 1.400 . S
C4979 C4984 1.490 . S
C4980 H4970 0.930 . S
C4980 C4979 1.400 . S
C4980 C4983 1.386 . S
H4981 C4997 0.930 . S
H4982 C4998 0.931 . S
C4983 H4971 0.929 . S
C4983 C4977 1.390 . S
C4983 C4980 1.386 . S
C4984 C4979 1.490 . S
C4984 C4986 1.395 . S
C4984 C4987 1.403 . S
H4985 C4991 0.930 . S
C4986 H4972 0.930 . S
C4986 C4984 1.395 . S
C4986 C4989 1.403 . S
C4987 C4984 1.403 . S
C4987 C4988 1.524 . S
C4987 C4991 1.400 . S
C4988 H4973 0.960 . S
C4988 H4974 0.960 . S
C4988 H4975 0.960 . S
C4988 C4987 1.524 . S
C4989 C4986 1.403 . S
C4989 C4990 1.392 . S
C4989 C4993 1.495 . S
C4990 C4989 1.392 . S
C4990 C4991 1.385 . S
C4990 C4992 1.478 . S
C4991 H4985 0.930 . S
C4991 C4987 1.400 . S
C4991 C4990 1.385 . S
C4992 C4990 1.478 . S
C4992 C4994 1.381 . S
C4992 C4998 1.383 . S
C4993 C4989 1.495 . S
C4993 H4999 0.959 . S
C4993 H5000 0.961 . S
C4993 H5001 0.960 . S
C4994 C4992 1.381 . S
C4994 C4995 1.394 . S
C4994 H5002 0.930 . S
C4995 C4994 1.394 . S
C4995 C4996 1.383 . S
C4995 H5003 0.929 . S
C4996 C4995 1.383 . S
C4996 C4997 1.377 . S
C4997 H4981 0.930 . S
C4997 C4996 1.377 . S
C4997 C4998 1.379 . S
C4998 H4982 0.931 . S
C4998 C4992 1.383 . S
C4998 C4997 1.379 . S
H4999 C4993 0.959 . S
H5000 C4993 0.961 . S
H5001 C4993 0.960 . S
H5002 C4994 0.930 . S
H5003 C4995 0.929 . S
H5004 C5012 0.929 . S
H5005 C5014 0.930 . S
H5006 C5016 0.930 . S
H5007 C5019 0.929 . S
H5008 C5022 0.930 . S
H5009 C5024 0.960 . S
H5010 C5024 0.960 . S
H5011 C5024 0.960 . S
C5012 H5004 0.929 . S
C5012 C5013 1.377 . S
C5012 C5014 1.384 . S
C5013 C5012 1.377 . S
C5013 C5019 1.390 . S
C5014 H5005 0.930 . S
C5014 C5012 1.384 . S
C5014 C5015 1.372 . S
C5015 C5014 1.372 . S
C5015 C5016 1.400 . S
C5015 C5020 1.490 . S
C5016 H5006 0.930 . S
C5016 C5015 1.400 . S
C5016 C5019 1.386 . S
H5017 C5033 0.930 . S
H5018 C5034 0.931 . S
C5019 H5007 0.929 . S
C5019 C5013 1.390 . S
C5019 C5016 1.386 . S
C5020 C5015 1.490 . S
C5020 C5022 1.395 . S
C5020 C5023 1.403 . S
H5021 C5027 0.930 . S
C5022 H5008 0.930 . S
C5022 C5020 1.395 . S
C5022 C5025 1.403 . S
C5023 C5020 1.403 . S
C5023 C5024 1.524 . S
C5023 C5027 1.400 . S
C5024 H5009 0.960 . S
C5024 H5010 0.960 . S
C5024 H5011 0.960 . S
C5024 C5023 1.524 . S
C5025 C5022 1.403 . S
C5025 C5026 1.392 . S
C5025 C5029 1.495 . S
C5026 C5025 1.392 . S
C5026 C5027 1.385 . S
C5026 C5028 1.478 . S
C5027 H5021 0.930 . S
C5027 C5023 1.400 . S
C5027 C5026 1.385 . S
C5028 C5026 1.478 . S
C5028 C5030 1.381 . S
C5028 C5034 1.383 . S
C5029 C5025 1.495 . S
C5029 H5035 0.959 . S
C5029 H5036 0.961 . S
C5029 H5037 0.960 . S
C5030 C5028 1.381 . S
C5030 C5031 1.394 . S
C5030 H5038 0.930 . S
C5031 C5030 1.394 . S
C5031 C5032 1.383 . S
C5031 H5039 0.929 . S
C5032 C5031 1.383 . S
C5032 C5033 1.377 . S
C5033 H5017 0.930 . S
C5033 C5032 1.377 . S
C5033 C5034 1.379 . S
C5034 H5018 0.931 . S
C5034 C5028 1.383 . S
C5034 C5033 1.379 . S
H5035 C5029 0.959 . S
H5036 C5029 0.961 . S
H5037 C5029 0.960 . S
H5038 C5030 0.930 . S
H5039 C5031 0.929 . S
H5040 C5048 0.929 . S
H5041 C5050 0.930 . S
H5042 C5052 0.930 . S
H5043 C5055 0.929 . S
H5044 C5058 0.930 . S
H5045 C5060 0.960 . S
H5046 C5060 0.960 . S
H5047 C5060 0.960 . S
C5048 H5040 0.929 . S
C5048 C5049 1.377 . S
C5048 C5050 1.384 . S
C5049 C5048 1.377 . S
C5049 C5055 1.390 . S
C5050 H5041 0.930 . S
C5050 C5048 1.384 . S
C5050 C5051 1.372 . S
C5051 C5050 1.372 . S
C5051 C5052 1.400 . S
C5051 C5056 1.490 . S
C5052 H5042 0.930 . S
C5052 C5051 1.400 . S
C5052 C5055 1.386 . S
H5053 C5069 0.930 . S
H5054 C5070 0.931 . S
C5055 H5043 0.929 . S
C5055 C5049 1.390 . S
C5055 C5052 1.386 . S
C5056 C5051 1.490 . S
C5056 C5058 1.395 . S
C5056 C5059 1.403 . S
H5057 C5063 0.930 . S
C5058 H5044 0.930 . S
C5058 C5056 1.395 . S
C5058 C5061 1.403 . S
C5059 C5056 1.403 . S
C5059 C5060 1.524 . S
C5059 C5063 1.400 . S
C5060 H5045 0.960 . S
C5060 H5046 0.960 . S
C5060 H5047 0.960 . S
C5060 C5059 1.524 . S
C5061 C5058 1.403 . S
C5061 C5062 1.392 . S
C5061 C5065 1.495 . S
C5062 C5061 1.392 . S
C5062 C5063 1.385 . S
C5062 C5064 1.478 . S
C5063 H5057 0.930 . S
C5063 C5059 1.400 . S
C5063 C5062 1.385 . S
C5064 C5062 1.478 . S
C5064 C5066 1.381 . S
C5064 C5070 1.383 . S
C5065 C5061 1.495 . S
C5065 H5071 0.959 . S
C5065 H5072 0.961 . S
C5065 H5073 0.960 . S
C5066 C5064 1.381 . S
C5066 C5067 1.394 . S
C5066 H5074 0.930 . S
C5067 C5066 1.394 . S
C5067 C5068 1.383 . S
C5067 H5075 0.929 . S
C5068 C5067 1.383 . S
C5068 C5069 1.377 . S
C5069 H5053 0.930 . S
C5069 C5068 1.377 . S
C5069 C5070 1.379 . S
C5070 H5054 0.931 . S
C5070 C5064 1.383 . S
C5070 C5069 1.379 . S
H5071 C5065 0.959 . S
H5072 C5065 0.961 . S
H5073 C5065 0.960 . S
H5074 C5066 0.930 . S
H5075 C5067 0.929 . S
H5076 C5084 0.929 . S
H5077 C5086 0.930 . S
H5078 C5088 0.930 . S
H5079 C5091 0.929 . S
H5080 C5094 0.930 . S
H5081 C5096 0.960 . S
H5082 C5096 0.960 . S
H5083 C5096 0.960 . S
C5084 H5076 0.929 . S
C5084 C5085 1.377 . S
C5084 C5086 1.384 . S
C5085 C5084 1.377 . S
C5085 C5091 1.390 . S
C5086 H5077 0.930 . S
C5086 C5084 1.384 . S
C5086 C5087 1.372 . S
C5087 C5086 1.372 . S
C5087 C5088 1.400 . S
C5087 C5092 1.490 . S
C5088 H5078 0.930 . S
C5088 C5087 1.400 . S
C5088 C5091 1.386 . S
H5089 C5105 0.930 . S
H5090 C5106 0.931 . S
C5091 H5079 0.929 . S
C5091 C5085 1.390 . S
C5091 C5088 1.386 . S
C5092 C5087 1.490 . S
C5092 C5094 1.395 . S
C5092 C5095 1.403 . S
H5093 C5099 0.930 . S
C5094 H5080 0.930 . S
C5094 C5092 1.395 . S
C5094 C5097 1.403 . S
C5095 C5092 1.403 . S
C5095 C5096 1.524 . S
C5095 C5099 1.400 . S
C5096 H5081 0.960 . S
C5096 H5082 0.960 . S
C5096 H5083 0.960 . S
C5096 C5095 1.524 . S
C5097 C5094 1.403 . S
C5097 C5098 1.392 . S
C5097 C5101 1.495 . S
C5098 C5097 1.392 . S
C5098 C5099 1.385 . S
C5098 C5100 1.478 . S
C5099 H5093 0.930 . S
C5099 C5095 1.400 . S
C5099 C5098 1.385 . S
C5100 C5098 1.478 . S
C5100 C5102 1.381 . S
C5100 C5106 1.383 . S
C5101 C5097 1.495 . S
C5101 H5107 0.959 . S
C5101 H5108 0.961 . S
C5101 H5109 0.960 . S
C5102 C5100 1.381 . S
C5102 C5103 1.394 . S
C5102 H5110 0.930 . S
C5103 C5102 1.394 . S
C5103 C5104 1.383 . S
C5103 H5111 0.929 . S
C5104 C5103 1.383 . S
C5104 C5105 1.377 . S
C5105 H5089 0.930 . S
C5105 C5104 1.377 . S
C5105 C5106 1.379 . S
C5106 H5090 0.931 . S
C5106 C5100 1.383 . S
C5106 C5105 1.379 . S
H5107 C5101 0.959 . S
H5108 C5101 0.961 . S
H5109 C5101 0.960 . S
H5110 C5102 0.930 . S
H5111 C5103 0.929 . S
H5112 C5120 0.929 . S
H5113 C5122 0.930 . S
H5114 C5124 0.930 . S
H5115 C5127 0.929 . S
H5116 C5130 0.930 . S
H5117 C5132 0.960 . S
H5118 C5132 0.960 . S
H5119 C5132 0.960 . S
C5120 H5112 0.929 . S
C5120 C5121 1.377 . S
C5120 C5122 1.384 . S
C5121 C5120 1.377 . S
C5121 C5127 1.390 . S
C5122 H5113 0.930 . S
C5122 C5120 1.384 . S
C5122 C5123 1.372 . S
C5123 C5122 1.372 . S
C5123 C5124 1.400 . S
C5123 C5128 1.490 . S
C5124 H5114 0.930 . S
C5124 C5123 1.400 . S
C5124 C5127 1.386 . S
H5125 C5141 0.930 . S
H5126 C5142 0.931 . S
C5127 H5115 0.929 . S
C5127 C5121 1.390 . S
C5127 C5124 1.386 . S
C5128 C5123 1.490 . S
C5128 C5130 1.395 . S
C5128 C5131 1.403 . S
H5129 C5135 0.930 . S
C5130 H5116 0.930 . S
C5130 C5128 1.395 . S
C5130 C5133 1.403 . S
C5131 C5128 1.403 . S
C5131 C5132 1.524 . S
C5131 C5135 1.400 . S
C5132 H5117 0.960 . S
C5132 H5118 0.960 . S
C5132 H5119 0.960 . S
C5132 C5131 1.524 . S
C5133 C5130 1.403 . S
C5133 C5134 1.392 . S
C5133 C5137 1.495 . S
C5134 C5133 1.392 . S
C5134 C5135 1.385 . S
C5134 C5136 1.478 . S
C5135 H5129 0.930 . S
C5135 C5131 1.400 . S
C5135 C5134 1.385 . S
C5136 C5134 1.478 . S
C5136 C5138 1.381 . S
C5136 C5142 1.383 . S
C5137 C5133 1.495 . S
C5137 H5143 0.959 . S
C5137 H5144 0.961 . S
C5137 H5145 0.960 . S
C5138 C5136 1.381 . S
C5138 C5139 1.394 . S
C5138 H5146 0.930 . S
C5139 C5138 1.394 . S
C5139 C5140 1.383 . S
C5139 H5147 0.929 . S
C5140 C5139 1.383 . S
C5140 C5141 1.377 . S
C5141 H5125 0.930 . S
C5141 C5140 1.377 . S
C5141 C5142 1.379 . S
C5142 H5126 0.931 . S
C5142 C5136 1.383 . S
C5142 C5141 1.379 . S
H5143 C5137 0.959 . S
H5144 C5137 0.961 . S
H5145 C5137 0.960 . S
H5146 C5138 0.930 . S
H5147 C5139 0.929 . S
H5148 C5156 0.929 . S
H5149 C5158 0.930 . S
H5150 C5160 0.930 . S
H5151 C5163 0.929 . S
H5152 C5166 0.930 . S
H5153 C5168 0.960 . S
H5154 C5168 0.960 . S
H5155 C5168 0.960 . S
C5156 H5148 0.929 . S
C5156 C5157 1.377 . S
C5156 C5158 1.384 . S
C5157 C5156 1.377 . S
C5157 C5163 1.390 . S
C5158 H5149 0.930 . S
C5158 C5156 1.384 . S
C5158 C5159 1.372 . S
C5159 C5158 1.372 . S
C5159 C5160 1.400 . S
C5159 C5164 1.490 . S
C5160 H5150 0.930 . S
C5160 C5159 1.400 . S
C5160 C5163 1.386 . S
H5161 C5177 0.930 . S
H5162 C5178 0.931 . S
C5163 H5151 0.929 . S
C5163 C5157 1.390 . S
C5163 C5160 1.386 . S
C5164 C5159 1.490 . S
C5164 C5166 1.395 . S
C5164 C5167 1.403 . S
H5165 C5171 0.930 . S
C5166 H5152 0.930 . S
C5166 C5164 1.395 . S
C5166 C5169 1.403 . S
C5167 C5164 1.403 . S
C5167 C5168 1.524 . S
C5167 C5171 1.400 . S
C5168 H5153 0.960 . S
C5168 H5154 0.960 . S
C5168 H5155 0.960 . S
C5168 C5167 1.524 . S
C5169 C5166 1.403 . S
C5169 C5170 1.392 . S
C5169 C5173 1.495 . S
C5170 C5169 1.392 . S
C5170 C5171 1.385 . S
C5170 C5172 1.478 . S
C5171 H5165 0.930 . S
C5171 C5167 1.400 . S
C5171 C5170 1.385 . S
C5172 C5170 1.478 . S
C5172 C5174 1.381 . S
C5172 C5178 1.383 . S
C5173 C5169 1.495 . S
C5173 H5179 0.959 . S
C5173 H5180 0.961 . S
C5173 H5181 0.960 . S
C5174 C5172 1.381 . S
C5174 C5175 1.394 . S
C5174 H5182 0.930 . S
C5175 C5174 1.394 . S
C5175 C5176 1.383 . S
C5175 H5183 0.929 . S
C5176 C5175 1.383 . S
C5176 C5177 1.377 . S
C5177 H5161 0.930 . S
C5177 C5176 1.377 . S
C5177 C5178 1.379 . S
C5178 H5162 0.931 . S
C5178 C5172 1.383 . S
C5178 C5177 1.379 . S
H5179 C5173 0.959 . S
H5180 C5173 0.961 . S
H5181 C5173 0.960 . S
H5182 C5174 0.930 . S
H5183 C5175 0.929 . S
H5184 C5192 0.929 . S
H5185 C5194 0.930 . S
H5186 C5196 0.930 . S
H5187 C5199 0.929 . S
H5188 C5202 0.930 . S
H5189 C5204 0.960 . S
H5190 C5204 0.960 . S
H5191 C5204 0.960 . S
C5192 H5184 0.929 . S
C5192 C5193 1.377 . S
C5192 C5194 1.384 . S
C5193 C5192 1.377 . S
C5193 C5199 1.390 . S
C5194 H5185 0.930 . S
C5194 C5192 1.384 . S
C5194 C5195 1.372 . S
C5195 C5194 1.372 . S
C5195 C5196 1.400 . S
C5195 C5200 1.490 . S
C5196 H5186 0.930 . S
C5196 C5195 1.400 . S
C5196 C5199 1.386 . S
H5197 C5213 0.930 . S
H5198 C5214 0.931 . S
C5199 H5187 0.929 . S
C5199 C5193 1.390 . S
C5199 C5196 1.386 . S
C5200 C5195 1.490 . S
C5200 C5202 1.395 . S
C5200 C5203 1.403 . S
H5201 C5207 0.930 . S
C5202 H5188 0.930 . S
C5202 C5200 1.395 . S
C5202 C5205 1.403 . S
C5203 C5200 1.403 . S
C5203 C5204 1.524 . S
C5203 C5207 1.400 . S
C5204 H5189 0.960 . S
C5204 H5190 0.960 . S
C5204 H5191 0.960 . S
C5204 C5203 1.524 . S
C5205 C5202 1.403 . S
C5205 C5206 1.392 . S
C5205 C5209 1.495 . S
C5206 C5205 1.392 . S
C5206 C5207 1.385 . S
C5206 C5208 1.478 . S
C5207 H5201 0.930 . S
C5207 C5203 1.400 . S
C5207 C5206 1.385 . S
C5208 C5206 1.478 . S
C5208 C5210 1.381 . S
C5208 C5214 1.383 . S
C5209 C5205 1.495 . S
C5209 H5215 0.959 . S
C5209 H5216 0.961 . S
C5209 H5217 0.960 . S
C5210 C5208 1.381 . S
C5210 C5211 1.394 . S
C5210 H5218 0.930 . S
C5211 C5210 1.394 . S
C5211 C5212 1.383 . S
C5211 H5219 0.929 . S
C5212 C5211 1.383 . S
C5212 C5213 1.377 . S
C5213 H5197 0.930 . S
C5213 C5212 1.377 . S
C5213 C5214 1.379 . S
C5214 H5198 0.931 . S
C5214 C5208 1.383 . S
C5214 C5213 1.379 . S
H5215 C5209 0.959 . S
H5216 C5209 0.961 . S
H5217 C5209 0.960 . S
H5218 C5210 0.930 . S
H5219 C5211 0.929 . S
H5220 C5228 0.929 . S
H5221 C5230 0.930 . S
H5222 C5232 0.930 . S
H5223 C5235 0.929 . S
H5224 C5238 0.930 . S
H5225 C5240 0.960 . S
H5226 C5240 0.960 . S
H5227 C5240 0.960 . S
C5228 H5220 0.929 . S
C5228 C5229 1.377 . S
C5228 C5230 1.384 . S
C5229 C5228 1.377 . S
C5229 C5235 1.390 . S
C5230 H5221 0.930 . S
C5230 C5228 1.384 . S
C5230 C5231 1.372 . S
C5231 C5230 1.372 . S
C5231 C5232 1.400 . S
C5231 C5236 1.490 . S
C5232 H5222 0.930 . S
C5232 C5231 1.400 . S
C5232 C5235 1.386 . S
H5233 C5249 0.930 . S
H5234 C5250 0.931 . S
C5235 H5223 0.929 . S
C5235 C5229 1.390 . S
C5235 C5232 1.386 . S
C5236 C5231 1.490 . S
C5236 C5238 1.395 . S
C5236 C5239 1.403 . S
H5237 C5243 0.930 . S
C5238 H5224 0.930 . S
C5238 C5236 1.395 . S
C5238 C5241 1.403 . S
C5239 C5236 1.403 . S
C5239 C5240 1.524 . S
C5239 C5243 1.400 . S
C5240 H5225 0.960 . S
C5240 H5226 0.960 . S
C5240 H5227 0.960 . S
C5240 C5239 1.524 . S
C5241 C5238 1.403 . S
C5241 C5242 1.392 . S
C5241 C5245 1.495 . S
C5242 C5241 1.392 . S
C5242 C5243 1.385 . S
C5242 C5244 1.478 . S
C5243 H5237 0.930 . S
C5243 C5239 1.400 . S
C5243 C5242 1.385 . S
C5244 C5242 1.478 . S
C5244 C5246 1.381 . S
C5244 C5250 1.383 . S
C5245 C5241 1.495 . S
C5245 H5251 0.959 . S
C5245 H5252 0.961 . S
C5245 H5253 0.960 . S
C5246 C5244 1.381 . S
C5246 C5247 1.394 . S
C5246 H5254 0.930 . S
C5247 C5246 1.394 . S
C5247 C5248 1.383 . S
C5247 H5255 0.929 . S
C5248 C5247 1.383 . S
C5248 C5249 1.377 . S
C5249 H5233 0.930 . S
C5249 C5248 1.377 . S
C5249 C5250 1.379 . S
C5250 H5234 0.931 . S
C5250 C5244 1.383 . S
C5250 C5249 1.379 . S
H5251 C5245 0.959 . S
H5252 C5245 0.961 . S
H5253 C5245 0.960 . S
H5254 C5246 0.930 . S
H5255 C5247 0.929 . S
H5256 C5264 0.929 . S
H5257 C5266 0.930 . S
H5258 C5268 0.930 . S
H5259 C5271 0.929 . S
H5260 C5274 0.930 . S
H5261 C5276 0.960 . S
H5262 C5276 0.960 . S
H5263 C5276 0.960 . S
C5264 H5256 0.929 . S
C5264 C5265 1.377 . S
C5264 C5266 1.384 . S
C5265 C5264 1.377 . S
C5265 C5271 1.390 . S
C5266 H5257 0.930 . S
C5266 C5264 1.384 . S
C5266 C5267 1.372 . S
C5267 C5266 1.372 . S
C5267 C5268 1.400 . S
C5267 C5272 1.490 . S
C5268 H5258 0.930 . S
C5268 C5267 1.400 . S
C5268 C5271 1.386 . S
H5269 C5285 0.930 . S
H5270 C5286 0.931 . S
C5271 H5259 0.929 . S
C5271 C5265 1.390 . S
C5271 C5268 1.386 . S
C5272 C5267 1.490 . S
C5272 C5274 1.395 . S
C5272 C5275 1.403 . S
H5273 C5279 0.930 . S
C5274 H5260 0.930 . S
C5274 C5272 1.395 . S
C5274 C5277 1.403 . S
C5275 C5272 1.403 . S
C5275 C5276 1.524 . S
C5275 C5279 1.400 . S
C5276 H5261 0.960 . S
C5276 H5262 0.960 . S
C5276 H5263 0.960 . S
C5276 C5275 1.524 . S
C5277 C5274 1.403 . S
C5277 C5278 1.392 . S
C5277 C5281 1.495 . S
C5278 C5277 1.392 . S
C5278 C5279 1.385 . S
C5278 C5280 1.478 . S
C5279 H5273 0.930 . S
C5279 C5275 1.400 . S
C5279 C5278 1.385 . S
C5280 C5278 1.478 . S
C5280 C5282 1.381 . S
C5280 C5286 1.383 . S
C5281 C5277 1.495 . S
C5281 H5287 0.959 . S
C5281 H5288 0.961 . S
C5281 H5289 0.960 . S
C5282 C5280 1.381 . S
C5282 C5283 1.394 . S
C5282 H5290 0.930 . S
C5283 C5282 1.394 . S
C5283 C5284 1.383 . S
C5283 H5291 0.929 . S
C5284 C5283 1.383 . S
C5284 C5285 1.377 . S
C5285 H5269 0.930 . S
C5285 C5284 1.377 . S
C5285 C5286 1.379 . S
C5286 H5270 0.931 . S
C5286 C5280 1.383 . S
C5286 C5285 1.379 . S
H5287 C5281 0.959 . S
H5288 C5281 0.961 . S
H5289 C5281 0.960 . S
H5290 C5282 0.930 . S
H5291 C5283 0.929 . S
H5292 C5300 0.929 . S
H5293 C5302 0.930 . S
H5294 C5304 0.930 . S
H5295 C5307 0.929 . S
H5296 C5310 0.930 . S
H5297 C5312 0.960 . S
H5298 C5312 0.960 . S
H5299 C5312 0.960 . S
C5300 H5292 0.929 . S
C5300 C5301 1.377 . S
C5300 C5302 1.384 . S
C5301 C5300 1.377 . S
C5301 C5307 1.390 . S
C5302 H5293 0.930 . S
C5302 C5300 1.384 . S
C5302 C5303 1.372 . S
C5303 C5302 1.372 . S
C5303 C5304 1.400 . S
C5303 C5308 1.490 . S
C5304 H5294 0.930 . S
C5304 C5303 1.400 . S
C5304 C5307 1.386 . S
H5305 C5321 0.930 . S
H5306 C5322 0.931 . S
C5307 H5295 0.929 . S
C5307 C5301 1.390 . S
C5307 C5304 1.386 . S
C5308 C5303 1.490 . S
C5308 C5310 1.395 . S
C5308 C5311 1.403 . S
H5309 C5315 0.930 . S
C5310 H5296 0.930 . S
C5310 C5308 1.395 . S
C5310 C5313 1.403 . S
C5311 C5308 1.403 . S
C5311 C5312 1.524 . S
C5311 C5315 1.400 . S
C5312 H5297 0.960 . S
C5312 H5298 0.960 . S
C5312 H5299 0.960 . S
C5312 C5311 1.524 . S
C5313 C5310 1.403 . S
C5313 C5314 1.392 . S
C5313 C5317 1.495 . S
C5314 C5313 1.392 . S
C5314 C5315 1.385 . S
C5314 C5316 1.478 . S
C5315 H5309 0.930 . S
C5315 C5311 1.400 . S
C5315 C5314 1.385 . S
C5316 C5314 1.478 . S
C5316 C5318 1.381 . S
C5316 C5322 1.383 . S
C5317 C5313 1.495 . S
C5317 H5323 0.959 . S
C5317 H5324 0.961 . S
C5317 H5325 0.960 . S
C5318 C5316 1.381 . S
C5318 C5319 1.394 . S
C5318 H5326 0.930 . S
C5319 C5318 1.394 . S
C5319 C5320 1.383 . S
C5319 H5327 0.929 . S
C5320 C5319 1.383 . S
C5320 C5321 1.377 . S
C5321 H5305 0.930 . S
C5321 C5320 1.377 . S
C5321 C5322 1.379 . S
C5322 H5306 0.931 . S
C5322 C5316 1.383 . S
C5322 C5321 1.379 . S
H5323 C5317 0.959 . S
H5324 C5317 0.961 . S
H5325 C5317 0.960 . S
H5326 C5318 0.930 . S
H5327 C5319 0.929 . S
C1449 C18 1.541 . S
C1468 C89 1.636 . S
C1485 C9 1.647 . S
C1504 C58 1.578 . S
C1521 C98 1.542 . S
C1540 C49 1.631 . S
C1557 C138 1.639 . S
C1576 C169 1.726 . S
C1593 C209 1.731 . S
C1612 C178 1.634 . S
C1629 C218 1.638 . S
C1648 C129 1.723 . S
C1665 C248 1.553 . S
C1684 C339 1.631 . S
C1701 C288 1.548 . S
C1720 C259 1.641 . S
C1737 C328 1.554 . S
C1756 C299 1.630 . S
C1773 C368 1.640 . S
C1792 C419 1.717 . S
C1809 C459 1.730 . S
C1828 C408 1.661 . S
C1845 C379 1.736 . S
C1864 C448 1.603 . S
C1881 C569 1.721 . S
C1900 C498 1.587 . S
C1917 C538 1.627 . S
C1936 C489 1.733 . S
C1953 C529 1.724 . S
C1972 C578 1.651 . S
C1989 C618 1.663 . S
C2008 C649 1.751 . S
C2025 C689 1.755 . S
C2044 C658 1.629 . S
C2061 C609 1.761 . S
C2080 C698 1.667 . S
C2097 C728 1.597 . S
C2116 C819 1.672 . S
C2133 C768 1.588 . S
C2152 C739 1.689 . S
C2169 C779 1.690 . S
C2188 C808 1.571 . S
C2205 C899 1.568 . S
C2224 C848 1.467 1_554 S
C2241 C888 1.493 1_554 S
C2260 C939 1.554 . S
C2277 C859 1.570 . S
C2296 C928 1.459 1_554 S
C2313 C978 1.593 . S
C2332 C1049 1.699 . S
C2349 C1018 1.597 . S
C2368 C969 1.685 . S
C2385 C1058 1.596 . S
C2404 C1009 1.698 . S
C2421 C1098 1.448 1_556 S
C2440 C1129 1.559 . S
C2457 C1138 1.493 1_556 S
C2476 C1169 1.565 . S
C2493 C1178 1.485 1_556 S
C2512 C1089 1.553 . S
C2529 C1208 1.626 . S
C2548 C1299 1.715 . S
C2565 C1248 1.625 . S
C2584 C1219 1.714 . S
C2601 C1259 1.720 . S
C2620 C1288 1.651 . S
C2637 C1328 1.654 . S
C2656 C1379 1.758 . S
C2673 C1368 1.663 . S
C2692 C1419 1.742 . S
C2709 C1339 1.755 . S
C2728 C1408 1.681 . S
C2745 C19 1.731 . S
C2764 C818 1.739 . S
C2781 C738 1.733 . S
C2800 C59 1.743 . S
C2817 C99 1.725 . S
C2836 C778 1.716 . S
C2853 C139 1.612 . S
C2872 C1378 1.593 . S
C2889 C1418 1.612 . S
C2908 C179 1.623 . S
C2925 C219 1.610 . S
C2944 C1338 1.590 . S
C2961 C1048 1.728 . S
C2980 C249 1.744 . S
C2997 C289 1.731 . S
C3016 C968 1.716 . S
C3033 C329 1.728 . S
C3052 C1008 1.716 . S
C3069 C648 1.614 . S
C3088 C369 1.590 . S
C3105 C688 1.613 . S
C3124 C409 1.590 . S
C3141 C608 1.613 . S
C3160 C449 1.597 . S
C3177 C499 1.666 . S
C3196 C1298 1.648 . S
C3213 C539 1.671 . S
C3232 C1218 1.678 . S
C3249 C1258 1.673 . S
C3268 C579 1.685 . S
C3285 C418 1.654 . S
C3304 C619 1.644 . S
C3321 C458 1.655 . S
C3340 C659 1.660 . S
C3357 C378 1.653 . S
C3376 C699 1.656 . S
C3393 C88 1.723 . S
C3412 C729 1.719 . S
C3429 C769 1.717 . S
C3448 C8 1.737 . S
C3465 C809 1.725 . S
C3484 C48 1.720 . S
C3501 C1128 1.661 1_554 S
C3520 C849 1.669 . S
C3537 C1168 1.659 1_554 S
C3556 C889 1.702 . S
C3573 C929 1.686 . S
C3592 C1088 1.689 1_554 S
C3609 C338 1.728 . S
C3628 C979 1.725 . S
C3645 C258 1.721 . S
C3664 C1019 1.699 . S
C3681 C298 1.730 . S
C3700 C1059 1.737 . S
C3717 C1099 1.691 . S
C3736 C898 1.653 1_556 S
C3753 C938 1.659 1_556 S
C3772 C1139 1.664 . S
C3789 C1179 1.688 . S
C3808 C858 1.656 1_556 S
C3825 C1209 1.674 . S
C3844 C568 1.657 . S
C3861 C1249 1.673 . S
C3880 C488 1.649 . S
C3897 C1289 1.671 . S
C3916 C528 1.671 . S
C3933 C1329 1.653 . S
C3952 C168 1.670 . S
C3969 C208 1.656 . S
C3988 C1369 1.662 . S
C4005 C128 1.650 . S
C4024 C1409 1.650 . S
C4041 C1175 2.317 . S
C4060 C15 2.300 . S
C4077 C1095 2.318 . S
C4096 C55 2.306 . S
C4113 C95 2.318 . S
C4132 C1135 2.286 . S
C4149 C535 2.613 . S
C4168 C135 2.602 . S
C4185 C175 2.611 . S
C4204 C575 2.600 . S
C4221 C215 2.611 . S
C4240 C495 2.604 . S
C4257 C245 2.317 . S
C4276 C925 2.299 . S
C4293 C285 2.319 . S
C4312 C845 2.288 . S
C4329 C325 2.317 . S
C4348 C885 2.305 . S
C4365 C1245 2.613 . S
C4384 C365 2.612 . S
C4401 C1285 2.616 . S
C4420 C405 2.600 . S
C4437 C1205 2.616 . S
C4456 C445 2.599 . S
C4473 C615 2.686 . S
C4492 C1015 2.685 . S
C4509 C655 2.684 . S
C4528 C1055 2.679 . S
C4545 C695 2.685 . S
C4564 C975 2.684 . S
C4581 C725 2.688 . S
C4600 C1405 2.682 . S
C4617 C1325 2.686 . S
C4636 C765 2.675 . S
C4653 C805 2.685 . S
C4672 C1365 2.689 . S
C4689 C165 1.099 . S
C4708 C5 1.115 . S
C4725 C205 1.100 . S
C4744 C45 1.113 . S
C4761 C125 1.106 . S
C4780 C85 1.085 . S
C4797 C255 1.099 . S
C4816 C415 1.099 . S
C4833 C455 1.101 . S
C4852 C295 1.083 . S
C4869 C335 1.106 . S
C4888 C375 1.107 . S
C4905 C645 1.202 . S
C4924 C485 1.213 . S
C4941 C685 1.205 . S
C4960 C525 1.203 . S
C4977 C605 1.202 . S
C4996 C565 1.218 . S
C5013 C895 1.507 . S
C5032 C735 1.536 . S
C5049 C775 1.515 . S
C5068 C935 1.507 . S
C5085 C815 1.516 . S
C5104 C855 1.523 . S
C5121 C965 1.515 . S
C5140 C1125 1.521 . S
C5157 C1165 1.503 . S
C5176 C1005 1.532 . S
C5193 C1045 1.512 . S
C5212 C1085 1.530 . S
C5229 C1215 1.201 . S
C5248 C1375 1.198 . S
C5265 C1415 1.207 . S
C5284 C1255 1.211 . S
C5301 C1295 1.203 . S
C5320 C1335 1.206 . S
