# Generated by pormake.
# Topology umf, (4)-cn, num edge types: 1
# Building blocks:
#     Node 0, Type 0, BuildingBlock: NAWXER_clean_sbu_0, # of connection points: 4
#     Node 1, Type 0, BuildingBlock: NAWXER_clean_sbu_0, # of connection points: 4
#     Node 2, Type 0, BuildingBlock: NAWXER_clean_sbu_0, # of connection points: 4
#     Node 3, Type 0, BuildingBlock: NAWXER_clean_sbu_0, # of connection points: 4
#     Node 4, Type 0, BuildingBlock: NAWXER_clean_sbu_0, # of connection points: 4
#     Node 5, Type 0, BuildingBlock: NAWXER_clean_sbu_0, # of connection points: 4
#     Node 6, Type 0, BuildingBlock: NAWXER_clean_sbu_0, # of connection points: 4
#     Node 7, Type 0, BuildingBlock: NAWXER_clean_sbu_0, # of connection points: 4
#     Edge 8, Type (0, 0), BuildingBlock: FUNLAD_clean_linker_0, # of connection points: 2
#     Edge 9, Type (0, 0), BuildingBlock: FUNLAD_clean_linker_0, # of connection points: 2
#     Edge 10, Type (0, 0), BuildingBlock: FUNLAD_clean_linker_0, # of connection points: 2
#     Edge 11, Type (0, 0), BuildingBlock: FUNLAD_clean_linker_0, # of connection points: 2
#     Edge 12, Type (0, 0), BuildingBlock: FUNLAD_clean_linker_0, # of connection points: 2
#     Edge 13, Type (0, 0), BuildingBlock: FUNLAD_clean_linker_0, # of connection points: 2
#     Edge 14, Type (0, 0), BuildingBlock: FUNLAD_clean_linker_0, # of connection points: 2
#     Edge 15, Type (0, 0), BuildingBlock: FUNLAD_clean_linker_0, # of connection points: 2
#     Edge 16, Type (0, 0), BuildingBlock: FUNLAD_clean_linker_0, # of connection points: 2
#     Edge 17, Type (0, 0), BuildingBlock: FUNLAD_clean_linker_0, # of connection points: 2
#     Edge 18, Type (0, 0), BuildingBlock: FUNLAD_clean_linker_0, # of connection points: 2
#     Edge 19, Type (0, 0), BuildingBlock: FUNLAD_clean_linker_0, # of connection points: 2
#     Edge 20, Type (0, 0), BuildingBlock: FUNLAD_clean_linker_0, # of connection points: 2
#     Edge 21, Type (0, 0), BuildingBlock: FUNLAD_clean_linker_0, # of connection points: 2
#     Edge 22, Type (0, 0), BuildingBlock: FUNLAD_clean_linker_0, # of connection points: 2
#     Edge 23, Type (0, 0), BuildingBlock: FUNLAD_clean_linker_0, # of connection points: 2
# Relax obj value: 0.064
# Max RMSD: 0.167
# Mean RMSD: 0.166
data_MOF--net-umf--node1-NAWXER_clean_sbu_0--edge1-FUNLAD_clean_linker_0
_symmetry_space_group_name_H-M    P1
_symmetry_Int_Tables_number       1
_symmetry_cell_setting            triclinic
loop_
_symmetry_equiv_pos_as_xyz
'x, y, z'
_cell_length_a     34.057574
_cell_length_b     34.108799
_cell_length_c     62.336814
_cell_angle_alpha  90.075903
_cell_angle_beta   90.044865
_cell_angle_gamma 89.809094
loop_
_atom_site_label
_atom_site_type_symbol
_atom_site_fract_x
_atom_site_fract_y
_atom_site_fract_z
_atom_type_partial_charge
C0 C 0.08306 0.22759 0.19191 0.0
C1 C 0.03366 0.24438 0.11894 0.0
O2 O 0.0454 0.22847 0.19128 0.0
Zn3 Zn 0.00045 0.23478 0.16711 0.0
O4 O 0.10233 0.23108 0.17459 0.0
Zn5 Zn 0.05813 0.23637 0.15543 0.0
O6 O 0.03315 0.29251 0.16412 0.0
O7 O 0.97321 0.28083 0.17586 0.0
O8 O 0.06905 0.24271 0.12534 0.0
O9 O 0.00574 0.24193 0.1327 0.0
O10 O 0.97173 0.18724 0.16949 0.0
O11 O 0.03134 0.17899 0.15635 0.0
C12 C 0.00038 0.305 0.17173 0.0
C13 C -0.00188 0.16471 0.16206 0.0
C14 C 0.75018 0.09641 0.68824 0.0
C15 C 0.72668 0.0386 0.61741 0.0
O16 O 0.74865 0.05887 0.68829 0.0
Zn17 Zn 0.73809 0.01172 0.6664 0.0
O18 O 0.74314 0.11502 0.67097 0.0
Zn19 Zn 0.73584 0.06903 0.65281 0.0
O20 O 0.68046 0.04677 0.66338 0.0
O21 O 0.69051 0.98795 0.67696 0.0
O22 O 0.72831 0.07488 0.62206 0.0
O23 O 0.72979 0.01312 0.63241 0.0
O24 O 0.78703 0.98343 0.66884 0.0
O25 O 0.79324 0.0423 0.65452 0.0
C26 C 0.66707 0.0157 0.67229 0.0
C27 C 0.80877 0.01009 0.66102 0.0
C28 C 0.9666 0.66468 0.17048 0.0
C29 C 0.96837 0.80478 0.16025 0.0
O30 O 0.934 0.67682 0.16251 0.0
Zn31 Zn 0.90886 0.73255 0.15338 0.0
O32 O -0.0065 0.68909 0.17476 0.0
Zn33 Zn 0.9664 0.73484 0.16545 0.0
O34 O 0.92093 0.74229 0.18909 0.0
O35 O 0.86418 0.7377 0.17229 0.0
O36 O -0.0051 0.78244 0.16772 0.0
O37 O 0.93526 0.79026 0.15444 0.0
O38 O 0.89888 0.72576 0.12314 0.0
O39 O 0.96193 0.72705 0.13115 0.0
C40 C 0.88327 0.74268 0.18958 0.0
C41 C 0.93448 0.72423 0.11712 0.0
C42 C 0.31156 0.95185 0.66985 0.0
C43 C 0.16913 0.95411 0.66145 0.0
O44 O 0.29843 0.92126 0.66027 0.0
Zn45 Zn 0.24281 0.89862 0.64985 0.0
O46 O 0.28776 0.97862 0.67563 0.0
Zn47 Zn 0.24035 0.95413 0.66537 0.0
O48 O 0.23473 0.9042 0.68609 0.0
O49 O 0.23784 0.85061 0.66627 0.0
O50 O 0.19064 0.98038 0.66986 0.0
O51 O 0.18509 0.9232 0.65355 0.0
O52 O 0.2486 0.89598 0.61894 0.0
O53 O 0.2466 0.95662 0.63116 0.0
C54 C 0.23395 0.8667 0.68457 0.0
C55 C 0.24932 0.93266 0.61536 0.0
C56 C 0.0192 0.81245 0.8834 0.0
C57 C 0.0274 0.67028 0.87647 0.0
O58 O 0.05164 0.79879 0.8908 0.0
Zn59 Zn 0.08022 0.74228 0.89313 0.0
O60 O -0.00544 0.78932 0.87486 0.0
Zn61 Zn 0.02391 0.74156 0.87929 0.0
O62 O 0.02558 0.73661 0.91404 0.0
O63 O 0.08803 0.73768 0.92349 0.0
O64 O -0.00025 0.69303 0.87072 0.0
O65 O 0.05856 0.68484 0.88484 0.0
O66 O 0.12625 0.74822 0.87548 0.0
O67 O 0.07139 0.74795 0.85674 0.0
C68 C 0.05206 0.73549 0.92873 0.0
C69 C 0.10896 0.75023 0.85746 0.0
C70 C 0.17015 0.01558 0.38168 0.0
C71 C 0.31073 0.00973 0.36902 0.0
O72 O 0.18797 0.04641 0.38823 0.0
Zn73 Zn 0.24667 0.06855 0.38944 0.0
O74 O 0.1897 0.98777 0.37325 0.0
Zn75 Zn 0.24052 0.01189 0.37552 0.0
O76 O 0.25065 0.01214 0.40945 0.0
O77 O 0.25567 0.07358 0.4201 0.0
O78 O 0.28518 0.98387 0.36464 0.0
O79 O 0.30013 0.04185 0.37812 0.0
O80 O 0.24192 0.11517 0.37169 0.0
O81 O 0.23558 0.05992 0.35355 0.0
C82 C 0.25579 0.03719 0.42453 0.0
C83 C 0.23636 0.09748 0.35397 0.0
C84 C 0.96373 0.17063 0.88001 0.0
C85 C 0.95979 0.31334 0.87783 0.0
O86 O 0.93084 0.18416 0.88692 0.0
Zn87 Zn 0.90389 0.24138 0.89111 0.0
O88 O -0.00986 0.19421 0.87379 0.0
Zn89 Zn 0.9616 0.24189 0.87916 0.0
O90 O 0.95687 0.24324 0.91379 0.0
O91 O 0.89366 0.24285 0.92143 0.0
O92 O 0.98755 0.29037 0.87255 0.0
O93 O 0.92754 0.29895 0.88493 0.0
O94 O 0.85926 0.23911 0.87198 0.0
O95 O 0.91615 0.23865 0.85517 0.0
C96 C 0.92913 0.24352 0.92774 0.0
C97 C 0.87851 0.23775 0.85455 0.0
C98 C 0.80921 0.97513 0.38415 0.0
C99 C 0.66958 0.97681 0.36833 0.0
O100 O 0.79209 0.94322 0.38963 0.0
Zn101 Zn 0.73378 0.91903 0.38909 0.0
O102 O 0.7892 0.00299 0.37608 0.0
Zn103 Zn 0.73948 0.97674 0.37652 0.0
O104 O 0.72716 0.97409 0.41013 0.0
O105 O 0.72292 0.91192 0.41944 0.0
O106 O 0.69466 0.00349 0.36479 0.0
O107 O 0.68053 0.94465 0.37719 0.0
O108 O 0.74107 0.87367 0.37044 0.0
O109 O 0.75012 0.93031 0.35415 0.0
C110 C 0.72168 0.948 0.42459 0.0
C111 C 0.75017 0.89274 0.35364 0.0
C112 C 0.0225 0.37452 0.16878 0.0
C113 C -0.00612 0.34734 0.17506 0.0
C114 C 0.01553 0.41467 0.17085 0.0
C115 C 0.97987 0.42845 0.1795 0.0
C116 C 0.95149 0.40123 0.18598 0.0
C117 C 0.95843 0.36107 0.18386 0.0
C118 C 0.97009 0.47078 0.1805 0.0
C119 C -0.00264 0.49923 0.18039 0.0
C120 C 0.98752 0.54151 0.17904 0.0
C121 C 0.01571 0.56899 0.1855 0.0
C122 C 0.00865 0.60907 0.18312 0.0
C123 C 0.97327 0.62245 0.17407 0.0
H124 H 0.92995 0.5348 0.16425 0.0
C125 C 0.94485 0.595 0.16778 0.0
C126 C 0.95195 0.55494 0.17013 0.0
H127 H 0.91743 0.60437 0.16059 0.0
H128 H 0.04999 0.36487 0.16178 0.0
H129 H 0.03769 0.43457 0.16498 0.0
H130 H 0.92366 0.41105 0.19251 0.0
H131 H 0.93575 0.34086 0.18885 0.0
H132 H 0.93921 0.47853 0.18154 0.0
H133 H 0.02825 0.49155 0.18153 0.0
H134 H 0.04348 0.55943 0.19223 0.0
H135 H 0.03118 0.6295 0.1881 0.0
C136 C 0.3698 -0.01065 0.68364 0.0
C137 C 0.35428 0.95573 0.67377 0.0
C138 C 0.41036 -0.00681 0.68662 0.0
C139 C 0.43624 0.96349 0.67963 0.0
C140 C 0.42051 0.92948 0.67036 0.0
C141 C 0.38009 0.92567 0.66738 0.0
C142 C 0.47967 0.96674 0.68144 0.0
C143 C 0.49879 0.0012 0.68259 0.0
C144 C 0.54228 0.00452 0.68144 0.0
C145 C 0.55848 0.03962 0.67386 0.0
C146 C 0.59899 0.04338 0.67124 0.0
C147 C 0.62439 0.01216 0.67634 0.0
H148 H 0.55659 0.94666 0.69394 0.0
C149 C 0.60839 0.97749 0.68473 0.0
C150 C 0.56776 0.97371 0.68732 0.0
H151 H 0.62718 0.95307 0.68906 0.0
H152 H 0.35067 0.01284 0.68898 0.0
H153 H 0.4211 0.01932 0.69448 0.0
H154 H 0.43964 0.90599 0.665 0.0
H155 H 0.36917 0.89921 0.65986 0.0
H156 H 0.49644 0.93978 0.67979 0.0
H157 H 0.48213 0.02838 0.68233 0.0
H158 H 0.53966 0.06397 0.66941 0.0
H159 H 0.6103 0.07065 0.66491 0.0
C160 C -0.00072 0.37257 0.86776 0.0
C161 C 0.96447 0.35639 0.87594 0.0
C162 C 0.00373 0.41323 0.8662 0.0
C163 C 0.97351 0.43868 0.87297 0.0
C164 C 0.93851 0.42241 0.88077 0.0
C165 C 0.93405 0.3818 0.88231 0.0
C166 C 0.97696 0.48216 0.87192 0.0
C167 C 0.01155 0.50127 0.87156 0.0
C168 C 0.01494 0.54478 0.87195 0.0
C169 C 0.04985 0.56151 0.87962 0.0
C170 C 0.05402 0.60219 0.88084 0.0
C171 C 0.02343 0.62719 0.87425 0.0
H172 H 0.95781 0.55818 0.85808 0.0
C173 C 0.98886 0.61054 0.86599 0.0
C174 C 0.98466 0.56979 0.86479 0.0
H175 H 0.96488 0.62896 0.86057 0.0
H176 H 0.02313 0.35383 0.86248 0.0
H177 H 0.03069 0.42438 0.85942 0.0
H178 H 0.91459 0.44121 0.88592 0.0
H179 H 0.90674 0.37037 0.88859 0.0
H180 H 0.94985 0.49889 0.8729 0.0
H181 H 0.03872 0.48466 0.87253 0.0
H182 H 0.07382 0.54303 0.88503 0.0
H183 H 0.08116 0.61397 0.88718 0.0
C184 C 0.38071 0.03126 0.36968 0.0
C185 C 0.35266 0.00286 0.36417 0.0
C186 C 0.42057 0.02435 0.36617 0.0
C187 C 0.43332 -0.01107 0.35684 0.0
C188 C 0.40523 0.96076 0.35108 0.0
C189 C 0.36527 0.96767 0.35463 0.0
C190 C 0.47564 0.97904 0.35472 0.0
C191 C 0.50434 0.00615 0.35462 0.0
C192 C 0.54678 -0.00362 0.35621 0.0
C193 C 0.5745 0.02515 0.35087 0.0
C194 C 0.61456 0.01855 0.35424 0.0
C195 C 0.62767 0.98304 0.36316 0.0
H196 H 0.53986 0.93794 0.36973 0.0
C197 C 0.60004 0.95391 0.36806 0.0
C198 C 0.56007 0.96052 0.36474 0.0
H199 H 0.60912 0.92626 0.37504 0.0
H200 H 0.37203 0.05861 0.37717 0.0
H201 H 0.44114 0.04634 0.37155 0.0
H202 H 0.41425 0.93306 0.34409 0.0
H203 H 0.34439 0.94518 0.35021 0.0
H204 H 0.48314 0.94817 0.35347 0.0
H205 H 0.4967 0.03702 0.3537 0.0
H206 H 0.56509 0.05316 0.34446 0.0
H207 H 0.63511 0.0416 0.35029 0.0
C208 C 0.97777 0.24477 0.958 0.0
C209 C 0.93853 0.24427 0.95097 0.0
C210 C 0.98674 0.24489 0.9799 0.0
C211 C 0.95656 0.24475 0.99535 0.0
C212 C 0.91739 0.24405 0.98828 0.0
C213 C 0.90843 0.24397 0.96638 0.0
C214 C 0.96447 0.2437 1.01887 0.0
C215 C -0.00138 0.25494 0.02796 0.0
C216 C 0.00658 0.25291 0.05146 0.0
C217 C 0.04574 0.2519 0.05854 0.0
C218 C 0.05463 0.24942 0.08041 0.0
C219 C 0.02447 0.24821 0.09577 0.0
H220 H 0.94583 0.25477 0.0623 0.0
C221 C 0.98526 0.25013 0.08875 0.0
C222 C 0.97638 0.25261 0.06689 0.0
H223 H 0.96129 0.2497 0.10015 0.0
H224 H 0.0017 0.24469 0.94656 0.0
H225 H 0.01733 0.24419 0.98451 0.0
H226 H 0.89352 0.24362 0.99976 0.0
H227 H 0.87788 0.24345 0.96156 0.0
H228 H 0.94082 0.23317 0.02896 0.0
H229 H 0.02236 0.26538 1.01791 0.0
H230 H 0.06963 0.2525 0.04708 0.0
H231 H 0.08516 0.24818 0.08525 0.0
C232 C 0.72014 0.05174 0.57778 0.0
C233 C 0.72253 0.02505 0.59489 0.0
C234 C 0.718 0.03828 0.55655 0.0
C235 C 0.71807 -0.00225 0.55203 0.0
C236 C 0.72022 0.97126 0.56917 0.0
C237 C 0.72222 0.98466 0.59031 0.0
C238 C 0.71823 0.98172 0.52978 0.0
C239 C 0.70515 0.00154 0.5125 0.0
C240 C 0.7077 0.98622 0.49014 0.0
C241 C 0.70759 0.01326 0.4732 0.0
C242 C 0.71153 0.00068 0.452 0.0
C243 C 0.7153 0.96057 0.44711 0.0
H244 H 0.70909 0.92392 0.49772 0.0
C245 C 0.71407 0.93325 0.46395 0.0
C246 C 0.71025 0.9459 0.48525 0.0
H247 H 0.71652 0.90213 0.46072 0.0
H248 H 0.72058 0.08303 0.58074 0.0
H249 H 0.71751 0.0598 0.54383 0.0
H250 H 0.72057 0.93994 0.56622 0.0
H251 H 0.72408 0.96317 0.60305 0.0
H252 H 0.72998 0.95234 0.52776 0.0
H253 H 0.6934 0.03092 0.51452 0.0
H254 H 0.70526 0.04442 0.47641 0.0
H255 H 0.71203 0.02259 0.43944 0.0
C256 C 0.9841 0.71734 0.08772 0.0
C257 C 0.94462 0.72042 0.09409 0.0
C258 C -0.00589 0.7154 0.06601 0.0
C259 C 0.96481 0.71689 0.05008 0.0
C260 C 0.9253 0.71878 0.05647 0.0
C261 C 0.91527 0.72066 0.07822 0.0
C262 C 0.97423 0.71609 0.02674 0.0
C263 C 0.00905 0.72775 1.01866 0.0
C264 C 0.01886 0.72821 0.99537 0.0
C265 C 0.05856 0.73012 0.98939 0.0
C266 C 0.06937 0.73202 0.96779 0.0
C267 C 0.04065 0.73236 0.9516 0.0
H268 H 0.95908 0.7282 0.98294 0.0
C269 C 0.00087 0.73044 0.95753 0.0
C270 C -0.00996 0.72849 0.97915 0.0
H271 H 0.97796 0.73091 0.94547 0.0
H272 H 0.00746 0.71653 0.09952 0.0
H273 H 0.02481 0.71235 0.06192 0.0
H274 H 0.90208 0.7195 0.04459 0.0
H275 H 0.88455 0.7228 0.08257 0.0
H276 H 0.95112 0.70646 1.01599 0.0
H277 H 0.03187 0.73768 0.02951 0.0
H278 H 0.08142 0.73021 1.00149 0.0
H279 H 0.10029 0.73355 0.96383 0.0
C280 C 0.26143 0.04933 0.4643 0.0
C281 C 0.26086 0.02313 0.44688 0.0
C282 C 0.26446 0.0353 0.48538 0.0
C283 C 0.26694 -0.0053 0.48944 0.0
C284 C 0.26753 0.96878 0.47195 0.0
C285 C 0.26432 0.98272 0.45098 0.0
C286 C 0.2692 0.97793 0.51147 0.0
C287 C 0.25584 -0.00353 0.52914 0.0
C288 C 0.25598 0.97883 0.55101 0.0
C289 C 0.25341 0.00395 0.56881 0.0
C290 C 0.25182 -0.0111 0.58961 0.0
C291 C 0.2524 0.94819 0.5932 0.0
H292 H 0.25741 0.91745 0.54135 0.0
C293 C 0.25498 0.92291 0.57543 0.0
C294 C 0.25666 0.938 0.55456 0.0
H295 H 0.25519 0.89141 0.57761 0.0
H296 H 0.25916 0.08064 0.46169 0.0
H297 H 0.26518 0.05644 0.49831 0.0
H298 H 0.2698 0.93743 0.47452 0.0
H299 H 0.2643 0.96165 0.43796 0.0
H300 H 0.28114 0.94852 0.51289 0.0
H301 H 0.24397 0.02592 0.52774 0.0
H302 H 0.25253 0.03545 0.56661 0.0
H303 H 0.24974 0.00932 0.60289 0.0
C304 C 0.14454 0.21629 0.2134 0.0
C305 C 0.1036 0.22164 0.21264 0.0
C306 C 0.16348 0.2087 0.2329 0.0
C307 C 0.14181 0.20623 0.25209 0.0
C308 C 0.10118 0.21308 0.25141 0.0
C309 C 0.08223 0.22046 0.23192 0.0
C310 C 0.16022 0.19564 0.27297 0.0
C311 C 0.19231 0.17259 0.27448 0.0
C312 C 0.20653 0.15602 0.29513 0.0
C313 C 0.22414 0.11881 0.29491 0.0
C314 C 0.23483 0.10046 0.31403 0.0
C315 C 0.22893 0.11925 0.33385 0.0
H316 H 0.18949 0.20483 0.31557 0.0
C317 C 0.21335 0.15745 0.33409 0.0
C318 C 0.20202 0.17565 0.31488 0.0
H319 H 0.20859 0.17267 0.34912 0.0
H320 H 0.16195 0.21744 0.19888 0.0
H321 H 0.19502 0.2048 0.23285 0.0
H322 H 0.0838 0.2117 0.26594 0.0
H323 H 0.05071 0.22479 0.23197 0.0
H324 H 0.14434 0.2035 0.28747 0.0
H325 H 0.20599 0.16155 0.25993 0.0
H326 H 0.22833 0.1032 0.27993 0.0
H327 H 0.24714 0.07115 0.3133 0.0
C328 C 0.88022 0.22665 0.81491 0.0
C329 C 0.85819 0.23284 0.83368 0.0
C330 C 0.86159 0.21811 0.79552 0.0
C331 C 0.82045 0.21559 0.79442 0.0
C332 C 0.79826 0.22407 0.81283 0.0
C333 C 0.81694 0.23231 0.83235 0.0
C334 C 0.80058 0.20192 0.77457 0.0
C335 C 0.81584 0.17237 0.7629 0.0
C336 C 0.79593 0.15404 0.74431 0.0
C337 C 0.80142 0.11379 0.74103 0.0
C338 C 0.78533 0.09526 0.72318 0.0
C339 C 0.76409 0.11674 0.7078 0.0
H340 H 0.76974 0.20697 0.73129 0.0
C341 C 0.75839 0.15719 0.71102 0.0
C342 C 0.77388 0.17569 0.7293 0.0
H343 H 0.74228 0.17448 0.69939 0.0
H344 H 0.91201 0.2273 0.81525 0.0
H345 H 0.87949 0.21278 0.78145 0.0
H346 H 0.7665 0.22263 0.81232 0.0
H347 H 0.79911 0.23732 0.84647 0.0
H348 H 0.77156 0.21331 0.77078 0.0
H349 H 0.84287 0.15847 0.76831 0.0
H350 H 0.81845 0.09653 0.75231 0.0
H351 H 0.79065 0.06415 0.72115 0.0
C352 C 0.75947 0.83212 0.33083 0.0
C353 C 0.76419 0.87268 0.33398 0.0
C354 C 0.77523 0.81378 0.31256 0.0
C355 C 0.79643 0.83573 0.29739 0.0
C356 C 0.80079 0.87614 0.30055 0.0
C357 C 0.78456 0.89446 0.31844 0.0
C358 C 0.81675 0.81761 0.27883 0.0
C359 C 0.80333 0.7863 0.26795 0.0
C360 C 0.82401 0.77179 0.24851 0.0
C361 C 0.80235 0.75928 0.23061 0.0
C362 C 0.82147 0.74913 0.21148 0.0
C363 C 0.86268 0.75066 0.21008 0.0
H364 H 0.88282 0.78015 0.26108 0.0
C365 C 0.88431 0.76126 0.22839 0.0
C366 C 0.86523 0.77172 0.24736 0.0
H367 H 0.91609 0.76236 0.22798 0.0
H368 H 0.74404 0.81456 0.34256 0.0
H369 H 0.77197 0.78239 0.31072 0.0
H370 H 0.81714 0.89366 0.28916 0.0
H371 H 0.78905 0.9257 0.32037 0.0
H372 H 0.8427 0.83265 0.27294 0.0
H373 H 0.77526 0.77341 0.27219 0.0
H374 H 0.77056 0.75875 0.23117 0.0
H375 H 0.80396 0.74072 0.19772 0.0
C376 C 0.22829 0.86091 0.72437 0.0
C377 C 0.22589 0.8432 0.70403 0.0
C378 C 0.21648 0.8408 0.74273 0.0
C379 C 0.20194 0.80232 0.74124 0.0
C380 C 0.20048 0.78422 0.72098 0.0
C381 C 0.21266 0.80431 0.70256 0.0
C382 C 0.18453 0.78217 0.76012 0.0
C383 C 0.19475 0.79053 0.78053 0.0
C384 C 0.17325 0.77576 0.79964 0.0
C385 C 0.19226 0.77569 0.81964 0.0
C386 C 0.17179 0.76612 0.83835 0.0
C387 C 0.13161 0.75695 0.83751 0.0
H388 H 0.11721 0.76623 0.78374 0.0
C389 C 0.11274 0.75622 0.81744 0.0
C390 C 0.13327 0.76551 0.79871 0.0
H391 H 0.08179 0.74935 0.81621 0.0
H392 H 0.23828 0.89087 0.72608 0.0
H393 H 0.21709 0.8563 0.75787 0.0
H394 H 0.18907 0.75475 0.71934 0.0
H395 H 0.21022 0.78993 0.68712 0.0
H396 H 0.16218 0.76025 0.75701 0.0
H397 H 0.21971 0.8095 0.78352 0.0
H398 H 0.22291 0.78381 0.82086 0.0
H399 H 0.18721 0.76705 0.85354 0.0
C400 C 0.0187 0.09757 0.15042 0.0
C401 C -0.00943 0.12233 0.15988 0.0
C402 C 0.0117 0.05744 0.14851 0.0
C403 C 0.97652 0.0412 0.15624 0.0
C404 C 0.94806 0.0661 0.16521 0.0
C405 C 0.95502 0.10624 0.16708 0.0
C406 C 0.96839 -0.00141 0.15519 0.0
C407 C -0.00304 0.97124 0.15483 0.0
C408 C 0.989 0.92859 0.15549 0.0
C409 C 0.01807 0.90352 0.16368 0.0
C410 C 0.01143 0.8633 0.16516 0.0
C411 C 0.97559 0.84726 0.15832 0.0
H412 H 0.93087 0.9306 0.141 0.0
C413 C 0.9468 0.87219 0.14962 0.0
C414 C 0.95347 0.91244 0.14812 0.0
H415 H 0.91908 0.86064 0.14394 0.0
H416 H 0.04614 0.10917 0.14441 0.0
H417 H 0.03377 0.03947 0.14077 0.0
H418 H 0.92057 0.05439 0.1711 0.0
H419 H 0.93261 0.12458 0.17431 0.0
H420 H 0.93792 -0.01038 0.15641 0.0
H421 H 0.02748 0.9802 0.15573 0.0
H422 H 0.04584 0.91516 0.16927 0.0
H423 H 0.03434 0.84485 0.17181 0.0
C424 C 0.1071 -0.00848 0.66948 0.0
C425 C 0.12581 0.95798 0.66121 0.0
C426 C 0.06608 -0.00576 0.66963 0.0
C427 C 0.04298 0.96345 0.66143 0.0
C428 C 0.06176 0.92992 0.65335 0.0
C429 C 0.10264 0.92727 0.65312 0.0
C430 C -0.00064 0.96457 0.66158 0.0
C431 C 0.97842 -0.0019 0.66131 0.0
C432 C 0.93479 -0.00069 0.66075 0.0
C433 C 0.91632 0.03296 0.65264 0.0
C434 C 0.87546 0.03596 0.65231 0.0
C435 C 0.85199 0.00544 0.6603 0.0
H436 H 0.92444 0.94261 0.67566 0.0
C437 C 0.87038 0.97163 0.66841 0.0
C438 C 0.91138 0.96859 0.6687 0.0
H439 H 0.85316 0.94777 0.67489 0.0
H440 H 0.1241 0.01552 0.67601 0.0
H441 H 0.05271 0.02011 0.67658 0.0
H442 H 0.04474 0.90568 0.64708 0.0
H443 H 0.11602 0.90087 0.64673 0.0
H444 H 0.98421 0.93667 0.66059 0.0
H445 H -0.00634 0.02594 0.66024 0.0
H446 H 0.93357 0.05714 0.64653 0.0
H447 H 0.86233 0.06253 0.64602 0.0
C448 C 0.949 0.10222 0.89206 0.0
C449 C 0.97032 0.1278 0.87883 0.0
C450 C 0.95481 0.06167 0.89071 0.0
C451 C 0.98155 0.04591 0.87581 0.0
C452 C 0.00238 0.07143 0.86238 0.0
C453 C -0.00273 0.11202 0.86408 0.0
C454 C 0.98733 0.00299 0.87353 0.0
C455 C 0.98804 0.97869 0.89051 0.0
C456 C -0.00433 0.93607 0.88831 0.0
C457 C 0.01941 0.91716 0.90353 0.0
C458 C 0.02737 0.87706 0.90176 0.0
C459 C 0.01068 0.85485 0.8851 0.0
H460 H 0.95992 0.92768 0.85988 0.0
C461 C 0.98607 0.87356 0.87016 0.0
C462 C 0.97896 0.91393 0.87161 0.0
H463 H 0.9728 0.85711 0.85718 0.0
H464 H 0.92794 0.11356 0.90353 0.0
H465 H 0.93777 0.04265 0.90099 0.0
H466 H 0.02294 0.05993 0.85068 0.0
H467 H 0.01385 0.131 0.85354 0.0
H468 H -0.00623 -0.00851 0.85764 0.0
H469 H 0.98583 -0.00925 0.90662 0.0
H470 H 0.03234 0.93358 0.91663 0.0
H471 H 0.04618 0.86332 0.91361 0.0
C472 C 0.87235 0.01109 0.37839 0.0
C473 C 0.85231 0.9781 0.38614 0.0
C474 C 0.91333 0.01236 0.37889 0.0
C475 C 0.93508 0.98073 0.38732 0.0
C476 C 0.91497 0.94802 0.39525 0.0
C477 C 0.87406 0.94675 0.39476 0.0
C478 C 0.97861 0.97983 0.38709 0.0
C479 C 0.0008 0.01235 0.3866 0.0
C480 C 0.0443 0.0114 0.38588 0.0
C481 C 0.06499 0.04413 0.39335 0.0
C482 C 0.10586 0.04511 0.39229 0.0
C483 C 0.12698 0.01345 0.38351 0.0
H484 H 0.05042 0.95433 0.37055 0.0
C485 C 0.10633 0.98061 0.37599 0.0
C486 C 0.06537 0.9796 0.3771 0.0
H487 H 0.12174 0.9559 0.36898 0.0
H488 H 0.85645 0.03555 0.37146 0.0
H489 H 0.92771 0.03763 0.37202 0.0
H490 H 0.93097 0.92318 0.4017 0.0
H491 H 0.85955 0.92081 0.40082 0.0
H492 H -0.0073 0.95128 0.38815 0.0
H493 H 0.98685 0.04096 0.38767 0.0
H494 H 0.04949 0.06912 0.40002 0.0
H495 H 0.12082 0.07096 0.39816 0.0
loop_
_geom_bond_atom_site_label_1
_geom_bond_atom_site_label_2
_geom_bond_distance
_geom_bond_site_symmetry_2
_ccdc_geom_bond_type
C0 O2 1.247 . S
C0 O4 1.258 . S
C1 O8 1.247 . S
C1 O9 1.258 . S
O2 C0 1.247 . S
O2 Zn3 2.028 . S
Zn3 O2 2.028 . S
Zn3 O7 2.035 . S
Zn3 O9 2.035 . S
Zn3 O10 2.028 . S
O4 C0 1.258 . S
O4 Zn5 2.035 . S
Zn5 O4 2.035 . S
Zn5 O6 2.028 . S
Zn5 O8 2.028 . S
Zn5 O11 2.035 . S
O6 Zn5 2.028 . S
O6 C12 1.247 . S
O7 Zn3 2.035 . S
O7 C12 1.258 . S
O8 C1 1.247 . S
O8 Zn5 2.028 . S
O9 C1 1.258 . S
O9 Zn3 2.035 . S
O10 Zn3 2.028 . S
O10 C13 1.247 . S
O11 Zn5 2.035 . S
O11 C13 1.258 . S
C12 O6 1.247 . S
C12 O7 1.258 . S
C13 O10 1.247 . S
C13 O11 1.258 . S
C14 O16 1.247 . S
C14 O18 1.258 . S
C15 O22 1.247 . S
C15 O23 1.258 . S
O16 C14 1.247 . S
O16 Zn17 2.028 . S
Zn17 O16 2.028 . S
Zn17 O21 2.035 . S
Zn17 O23 2.035 . S
Zn17 O24 2.028 . S
O18 C14 1.258 . S
O18 Zn19 2.035 . S
Zn19 O18 2.035 . S
Zn19 O20 2.028 . S
Zn19 O22 2.028 . S
Zn19 O25 2.035 . S
O20 Zn19 2.028 . S
O20 C26 1.247 . S
O21 Zn17 2.035 . S
O21 C26 1.258 . S
O22 C15 1.247 . S
O22 Zn19 2.028 . S
O23 C15 1.258 . S
O23 Zn17 2.035 . S
O24 Zn17 2.028 . S
O24 C27 1.247 . S
O25 Zn19 2.035 . S
O25 C27 1.258 . S
C26 O20 1.247 . S
C26 O21 1.258 . S
C27 O24 1.247 . S
C27 O25 1.258 . S
C28 O30 1.247 . S
C28 O32 1.258 . S
C29 O36 1.247 . S
C29 O37 1.258 . S
O30 C28 1.247 . S
O30 Zn31 2.028 . S
Zn31 O30 2.028 . S
Zn31 O35 2.035 . S
Zn31 O37 2.035 . S
Zn31 O38 2.028 . S
O32 C28 1.258 . S
O32 Zn33 2.035 . S
Zn33 O32 2.035 . S
Zn33 O34 2.028 . S
Zn33 O36 2.028 . S
Zn33 O39 2.035 . S
O34 Zn33 2.028 . S
O34 C40 1.247 . S
O35 Zn31 2.035 . S
O35 C40 1.258 . S
O36 C29 1.247 . S
O36 Zn33 2.028 . S
O37 C29 1.258 . S
O37 Zn31 2.035 . S
O38 Zn31 2.028 . S
O38 C41 1.247 . S
O39 Zn33 2.035 . S
O39 C41 1.258 . S
C40 O34 1.247 . S
C40 O35 1.258 . S
C41 O38 1.247 . S
C41 O39 1.258 . S
C42 O44 1.247 . S
C42 O46 1.258 . S
C43 O50 1.247 . S
C43 O51 1.258 . S
O44 C42 1.247 . S
O44 Zn45 2.028 . S
Zn45 O44 2.028 . S
Zn45 O49 2.035 . S
Zn45 O51 2.035 . S
Zn45 O52 2.028 . S
O46 C42 1.258 . S
O46 Zn47 2.035 . S
Zn47 O46 2.035 . S
Zn47 O48 2.028 . S
Zn47 O50 2.028 . S
Zn47 O53 2.035 . S
O48 Zn47 2.028 . S
O48 C54 1.247 . S
O49 Zn45 2.035 . S
O49 C54 1.258 . S
O50 C43 1.247 . S
O50 Zn47 2.028 . S
O51 C43 1.258 . S
O51 Zn45 2.035 . S
O52 Zn45 2.028 . S
O52 C55 1.247 . S
O53 Zn47 2.035 . S
O53 C55 1.258 . S
C54 O48 1.247 . S
C54 O49 1.258 . S
C55 O52 1.247 . S
C55 O53 1.258 . S
C56 O58 1.247 . S
C56 O60 1.258 . S
C57 O64 1.247 . S
C57 O65 1.258 . S
O58 C56 1.247 . S
O58 Zn59 2.028 . S
Zn59 O58 2.028 . S
Zn59 O63 2.035 . S
Zn59 O65 2.035 . S
Zn59 O66 2.028 . S
O60 C56 1.258 . S
O60 Zn61 2.035 . S
Zn61 O60 2.035 . S
Zn61 O62 2.028 . S
Zn61 O64 2.028 . S
Zn61 O67 2.035 . S
O62 Zn61 2.028 . S
O62 C68 1.247 . S
O63 Zn59 2.035 . S
O63 C68 1.258 . S
O64 C57 1.247 . S
O64 Zn61 2.028 . S
O65 C57 1.258 . S
O65 Zn59 2.035 . S
O66 Zn59 2.028 . S
O66 C69 1.247 . S
O67 Zn61 2.035 . S
O67 C69 1.258 . S
C68 O62 1.247 . S
C68 O63 1.258 . S
C69 O66 1.247 . S
C69 O67 1.258 . S
C70 O72 1.247 . S
C70 O74 1.258 . S
C71 O78 1.247 . S
C71 O79 1.258 . S
O72 C70 1.247 . S
O72 Zn73 2.028 . S
Zn73 O72 2.028 . S
Zn73 O77 2.035 . S
Zn73 O79 2.035 . S
Zn73 O80 2.028 . S
O74 C70 1.258 . S
O74 Zn75 2.035 . S
Zn75 O74 2.035 . S
Zn75 O76 2.028 . S
Zn75 O78 2.028 . S
Zn75 O81 2.035 . S
O76 Zn75 2.028 . S
O76 C82 1.247 . S
O77 Zn73 2.035 . S
O77 C82 1.258 . S
O78 C71 1.247 . S
O78 Zn75 2.028 . S
O79 C71 1.258 . S
O79 Zn73 2.035 . S
O80 Zn73 2.028 . S
O80 C83 1.247 . S
O81 Zn75 2.035 . S
O81 C83 1.258 . S
C82 O76 1.247 . S
C82 O77 1.258 . S
C83 O80 1.247 . S
C83 O81 1.258 . S
C84 O86 1.247 . S
C84 O88 1.258 . S
C85 O92 1.247 . S
C85 O93 1.258 . S
O86 C84 1.247 . S
O86 Zn87 2.028 . S
Zn87 O86 2.028 . S
Zn87 O91 2.035 . S
Zn87 O93 2.035 . S
Zn87 O94 2.028 . S
O88 C84 1.258 . S
O88 Zn89 2.035 . S
Zn89 O88 2.035 . S
Zn89 O90 2.028 . S
Zn89 O92 2.028 . S
Zn89 O95 2.035 . S
O90 Zn89 2.028 . S
O90 C96 1.247 . S
O91 Zn87 2.035 . S
O91 C96 1.258 . S
O92 C85 1.247 . S
O92 Zn89 2.028 . S
O93 C85 1.258 . S
O93 Zn87 2.035 . S
O94 Zn87 2.028 . S
O94 C97 1.247 . S
O95 Zn89 2.035 . S
O95 C97 1.258 . S
C96 O90 1.247 . S
C96 O91 1.258 . S
C97 O94 1.247 . S
C97 O95 1.258 . S
C98 O100 1.247 . S
C98 O102 1.258 . S
C99 O106 1.247 . S
C99 O107 1.258 . S
O100 C98 1.247 . S
O100 Zn101 2.028 . S
Zn101 O100 2.028 . S
Zn101 O105 2.035 . S
Zn101 O107 2.035 . S
Zn101 O108 2.028 . S
O102 C98 1.258 . S
O102 Zn103 2.035 . S
Zn103 O102 2.035 . S
Zn103 O104 2.028 . S
Zn103 O106 2.028 . S
Zn103 O109 2.035 . S
O104 Zn103 2.028 . S
O104 C110 1.247 . S
O105 Zn101 2.035 . S
O105 C110 1.258 . S
O106 C99 1.247 . S
O106 Zn103 2.028 . S
O107 C99 1.258 . S
O107 Zn101 2.035 . S
O108 Zn101 2.028 . S
O108 C111 1.247 . S
O109 Zn103 2.035 . S
O109 C111 1.258 . S
C110 O104 1.247 . S
C110 O105 1.258 . S
C111 O108 1.247 . S
C111 O109 1.258 . S
C112 C113 1.386 . S
C112 C114 1.383 . S
C112 H128 0.951 . S
C113 C112 1.386 . S
C113 C117 1.383 . S
C114 C112 1.383 . S
C114 C115 1.402 . S
C114 H129 0.951 . S
C115 C114 1.402 . S
C115 C116 1.375 1_455 S
C115 C118 1.481 1_455 S
C116 C115 1.375 1_655 S
C116 C117 1.367 1_655 S
C116 H130 0.951 . S
C117 C113 1.383 . S
C117 C116 1.367 1_455 S
C117 H131 0.950 . S
C118 C115 1.481 1_655 S
C118 C119 1.297 1_655 S
C118 H132 0.950 . S
C119 C118 1.297 1_455 S
C119 C120 1.479 1_455 S
C119 H133 0.950 . S
C120 C119 1.479 1_655 S
C120 C121 1.375 1_655 S
C120 C126 1.404 . S
C121 C120 1.375 1_455 S
C121 C122 1.369 1_455 S
C121 H134 0.950 . S
C122 C121 1.369 1_655 S
C122 C123 1.392 . S
C122 H135 0.951 . S
C123 C122 1.392 . S
C123 C125 1.384 . S
H124 C126 0.949 . S
C125 C123 1.384 . S
C125 C126 1.385 . S
C125 H127 0.950 . S
C126 C120 1.404 . S
C126 H124 0.949 . S
C126 C125 1.385 . S
H127 C125 0.950 . S
H128 C112 0.951 . S
H129 C114 0.951 . S
H130 C116 0.951 . S
H131 C117 0.950 . S
H132 C118 0.950 . S
H133 C119 0.950 . S
H134 C121 0.950 . S
H135 C122 0.951 . S
C136 C137 1.386 . S
C136 C138 1.383 . S
C136 H152 0.951 . S
C137 C136 1.386 . S
C137 C141 1.383 . S
C138 C136 1.383 . S
C138 C139 1.402 . S
C138 H153 0.951 1_565 S
C139 C138 1.402 . S
C139 C140 1.375 . S
C139 C142 1.481 . S
C140 C139 1.375 . S
C140 C141 1.367 . S
C140 H154 0.951 . S
C141 C137 1.383 . S
C141 C140 1.367 . S
C141 H155 0.950 . S
C142 C139 1.481 . S
C142 C143 1.297 1_565 S
C142 H156 0.950 . S
C143 C142 1.297 1_545 S
C143 C144 1.479 . S
C143 H157 0.950 . S
C144 C143 1.479 . S
C144 C145 1.375 . S
C144 C150 1.404 . S
C145 C144 1.375 . S
C145 C146 1.369 . S
C145 H158 0.950 . S
C146 C145 1.369 . S
C146 C147 1.392 . S
C146 H159 0.951 . S
C147 C146 1.392 . S
C147 C149 1.384 . S
H148 C150 0.949 1_565 S
C149 C147 1.384 . S
C149 C150 1.385 . S
C149 H151 0.950 . S
C150 C144 1.404 . S
C150 H148 0.949 1_545 S
C150 C149 1.385 . S
H151 C149 0.950 . S
H152 C136 0.951 . S
H153 C138 0.951 1_545 S
H154 C140 0.951 . S
H155 C141 0.950 . S
H156 C142 0.950 . S
H157 C143 0.950 . S
H158 C145 0.950 . S
H159 C146 0.951 . S
C160 C161 1.386 . S
C160 C162 1.383 . S
C160 H176 0.951 . S
C161 C160 1.386 . S
C161 C165 1.383 . S
C162 C160 1.383 . S
C162 C163 1.402 . S
C162 H177 0.951 1_655 S
C163 C162 1.402 . S
C163 C164 1.375 . S
C163 C166 1.481 . S
C164 C163 1.375 . S
C164 C165 1.367 . S
C164 H178 0.951 . S
C165 C161 1.383 . S
C165 C164 1.367 . S
C165 H179 0.950 . S
C166 C163 1.481 . S
C166 C167 1.297 1_655 S
C166 H180 0.950 . S
C167 C166 1.297 1_455 S
C167 C168 1.479 . S
C167 H181 0.950 . S
C168 C167 1.479 . S
C168 C169 1.375 . S
C168 C174 1.404 . S
C169 C168 1.375 . S
C169 C170 1.369 . S
C169 H182 0.950 . S
C170 C169 1.369 . S
C170 C171 1.392 . S
C170 H183 0.951 . S
C171 C170 1.392 . S
C171 C173 1.384 . S
H172 C174 0.949 . S
C173 C171 1.384 . S
C173 C174 1.385 . S
C173 H175 0.950 . S
C174 C168 1.404 . S
C174 H172 0.949 . S
C174 C173 1.385 . S
H175 C173 0.950 . S
H176 C160 0.951 . S
H177 C162 0.951 1_455 S
H178 C164 0.951 . S
H179 C165 0.950 . S
H180 C166 0.950 . S
H181 C167 0.950 . S
H182 C169 0.950 . S
H183 C170 0.951 . S
C184 C185 1.386 . S
C184 C186 1.383 . S
C184 H200 0.951 . S
C185 C184 1.386 . S
C185 C189 1.383 . S
C186 C184 1.383 . S
C186 C187 1.402 . S
C186 H201 0.951 . S
C187 C186 1.402 . S
C187 C188 1.375 1_545 S
C187 C190 1.481 1_545 S
C188 C187 1.375 1_565 S
C188 C189 1.367 1_565 S
C188 H202 0.951 . S
C189 C185 1.383 . S
C189 C188 1.367 1_545 S
C189 H203 0.950 . S
C190 C187 1.481 1_565 S
C190 C191 1.297 . S
C190 H204 0.950 . S
C191 C190 1.297 . S
C191 C192 1.480 . S
C191 H205 0.949 1_565 S
C192 C191 1.480 . S
C192 C193 1.385 . S
C192 C198 1.404 . S
C193 C192 1.385 . S
C193 C194 1.377 . S
C193 H206 0.932 1_565 S
C194 C193 1.377 . S
C194 C195 1.392 . S
C194 H207 0.951 . S
C195 C194 1.392 . S
C195 C197 1.384 . S
H196 C198 0.949 . S
C197 C195 1.384 . S
C197 C198 1.385 . S
C197 H199 0.950 . S
C198 C192 1.404 . S
C198 H196 0.949 . S
C198 C197 1.385 . S
H199 C197 0.950 . S
H200 C184 0.951 . S
H201 C186 0.951 . S
H202 C188 0.951 . S
H203 C189 0.950 . S
H204 C190 0.950 . S
H205 C191 0.949 1_545 S
H206 C193 0.932 1_545 S
H207 C194 0.951 . S
C208 C209 1.386 . S
C208 C210 1.383 1_655 S
C208 H224 0.951 1_655 S
C209 C208 1.386 . S
C209 C213 1.383 . S
C210 C208 1.383 1_455 S
C210 C211 1.402 1_455 S
C210 H225 0.951 . S
C211 C210 1.402 1_655 S
C211 C212 1.375 . S
C211 C214 1.481 . S
C212 C211 1.375 . S
C212 C213 1.367 . S
C212 H226 0.951 . S
C213 C209 1.383 . S
C213 C212 1.367 . S
C213 H227 0.950 . S
C214 C211 1.481 . S
C214 C215 1.297 1_656 S
C214 H228 0.947 1_556 S
C215 C214 1.297 1_454 S
C215 C216 1.479 . S
C215 H229 0.950 1_554 S
C216 C215 1.479 . S
C216 C217 1.375 . S
C216 C222 1.404 . S
C217 C216 1.375 . S
C217 C218 1.369 . S
C217 H230 0.950 . S
C218 C217 1.369 . S
C218 C219 1.392 . S
C218 H231 0.951 . S
C219 C218 1.392 . S
C219 C221 1.384 . S
H220 C222 0.949 . S
C221 C219 1.384 . S
C221 C222 1.385 . S
C221 H223 0.950 . S
C222 C216 1.404 . S
C222 H220 0.949 . S
C222 C221 1.385 . S
H223 C221 0.950 . S
H224 C208 0.951 1_455 S
H225 C210 0.951 . S
H226 C212 0.951 . S
H227 C213 0.950 . S
H228 C214 0.947 1_554 S
H229 C215 0.950 1_556 S
H230 C217 0.950 . S
H231 C218 0.951 . S
C232 C233 1.386 . S
C232 C234 1.383 . S
C232 H248 0.951 . S
C233 C232 1.386 . S
C233 C237 1.383 . S
C234 C232 1.383 . S
C234 C235 1.402 . S
C234 H249 0.951 . S
C235 C234 1.402 . S
C235 C236 1.375 . S
C235 C238 1.481 . S
C236 C235 1.375 . S
C236 C237 1.367 . S
C236 H250 0.951 1_545 S
C237 C233 1.383 . S
C237 C236 1.367 . S
C237 H251 0.950 . S
C238 C235 1.481 . S
C238 C239 1.297 . S
C238 H252 0.950 1_545 S
C239 C238 1.297 . S
C239 C240 1.479 . S
C239 H253 0.950 . S
C240 C239 1.479 . S
C240 C241 1.375 . S
C240 C246 1.404 1_545 S
C241 C240 1.375 . S
C241 C242 1.369 1_545 S
C241 H254 0.950 . S
C242 C241 1.369 1_565 S
C242 C243 1.392 . S
C242 H255 0.951 . S
C243 C242 1.392 . S
C243 C245 1.384 . S
H244 C246 0.949 . S
C245 C243 1.384 . S
C245 C246 1.385 . S
C245 H247 0.950 . S
C246 C240 1.404 1_565 S
C246 H244 0.949 . S
C246 C245 1.385 . S
H247 C245 0.950 . S
H248 C232 0.951 . S
H249 C234 0.951 . S
H250 C236 0.951 1_565 S
H251 C237 0.950 . S
H252 C238 0.950 1_565 S
H253 C239 0.950 . S
H254 C241 0.950 . S
H255 C242 0.951 . S
C256 C257 1.386 . S
C256 C258 1.383 . S
C256 H272 0.951 . S
C257 C256 1.386 . S
C257 C261 1.383 . S
C258 C256 1.383 . S
C258 C259 1.402 . S
C258 H273 0.951 1_655 S
C259 C258 1.402 . S
C259 C260 1.375 . S
C259 C262 1.481 1_655 S
C260 C259 1.375 . S
C260 C261 1.367 . S
C260 H274 0.951 . S
C261 C257 1.383 . S
C261 C260 1.367 . S
C261 H275 0.950 . S
C262 C259 1.481 1_455 S
C262 C263 1.297 1_554 S
C262 H276 0.945 1_455 S
C263 C262 1.297 1_556 S
C263 C264 1.479 . S
C263 H277 0.950 1_556 S
C264 C263 1.479 . S
C264 C265 1.375 . S
C264 C270 1.404 . S
C265 C264 1.375 . S
C265 C266 1.369 . S
C265 H278 0.950 . S
C266 C265 1.369 . S
C266 C267 1.392 . S
C266 H279 0.951 . S
C267 C266 1.392 . S
C267 C269 1.384 . S
H268 C270 0.949 . S
C269 C267 1.384 . S
C269 C270 1.385 . S
C269 H271 0.950 . S
C270 C264 1.404 . S
C270 H268 0.949 . S
C270 C269 1.385 . S
H271 C269 0.950 . S
H272 C256 0.951 . S
H273 C258 0.951 1_455 S
H274 C260 0.951 . S
H275 C261 0.950 . S
H276 C262 0.945 1_655 S
H277 C263 0.950 1_554 S
H278 C265 0.950 . S
H279 C266 0.951 . S
C280 C281 1.386 . S
C280 C282 1.383 . S
C280 H296 0.951 . S
C281 C280 1.386 . S
C281 C285 1.383 1_545 S
C282 C280 1.383 . S
C282 C283 1.378 1_545 S
C282 H297 0.951 . S
C283 C282 1.378 1_565 S
C283 C284 1.388 . S
C283 C286 1.492 . S
C284 C283 1.388 . S
C284 C285 1.367 . S
C284 H298 0.951 . S
C285 C281 1.383 1_565 S
C285 C284 1.367 . S
C285 H299 0.950 . S
C286 C283 1.492 . S
C286 C287 1.297 . S
C286 H300 0.950 . S
C287 C286 1.297 . S
C287 C288 1.479 . S
C287 H301 0.950 1_565 S
C288 C287 1.479 . S
C288 C289 1.375 1_565 S
C288 C294 1.404 . S
C289 C288 1.375 1_545 S
C289 C290 1.369 1_545 S
C289 H302 0.950 . S
C290 C289 1.369 1_565 S
C290 C291 1.392 . S
C290 H303 0.951 1_565 S
C291 C290 1.392 . S
C291 C293 1.384 . S
H292 C294 0.949 . S
C293 C291 1.384 . S
C293 C294 1.385 . S
C293 H295 0.950 . S
C294 C288 1.404 . S
C294 H292 0.949 . S
C294 C293 1.385 . S
H295 C293 0.950 . S
H296 C280 0.951 . S
H297 C282 0.951 . S
H298 C284 0.951 . S
H299 C285 0.950 . S
H300 C286 0.950 . S
H301 C287 0.950 1_545 S
H302 C289 0.950 . S
H303 C290 0.951 1_545 S
C304 C305 1.386 . S
C304 C306 1.383 . S
C304 H320 0.951 . S
C305 C304 1.386 . S
C305 C309 1.383 . S
C306 C304 1.383 . S
C306 C307 1.402 . S
C306 H321 0.951 . S
C307 C306 1.402 . S
C307 C308 1.375 . S
C307 C310 1.481 . S
C308 C307 1.375 . S
C308 C309 1.367 . S
C308 H322 0.951 . S
C309 C305 1.383 . S
C309 C308 1.367 . S
C309 H323 0.950 . S
C310 C307 1.481 . S
C310 C311 1.297 . S
C310 H324 0.950 . S
C311 C310 1.297 . S
C311 C312 1.479 . S
C311 H325 0.950 . S
C312 C311 1.479 . S
C312 C313 1.375 . S
C312 C318 1.404 . S
C313 C312 1.375 . S
C313 C314 1.369 . S
C313 H326 0.950 . S
C314 C313 1.369 . S
C314 C315 1.392 . S
C314 H327 0.951 . S
C315 C314 1.392 . S
C315 C317 1.384 . S
H316 C318 0.949 . S
C317 C315 1.384 . S
C317 C318 1.385 . S
C317 H319 0.950 . S
C318 C312 1.404 . S
C318 H316 0.949 . S
C318 C317 1.385 . S
H319 C317 0.950 . S
H320 C304 0.951 . S
H321 C306 0.951 . S
H322 C308 0.951 . S
H323 C309 0.950 . S
H324 C310 0.950 . S
H325 C311 0.950 . S
H326 C313 0.950 . S
H327 C314 0.951 . S
C328 C329 1.386 . S
C328 C330 1.383 . S
C328 H344 0.951 . S
C329 C328 1.386 . S
C329 C333 1.383 . S
C330 C328 1.383 . S
C330 C331 1.402 . S
C330 H345 0.951 . S
C331 C330 1.402 . S
C331 C332 1.375 . S
C331 C334 1.481 . S
C332 C331 1.375 . S
C332 C333 1.367 . S
C332 H346 0.951 . S
C333 C329 1.383 . S
C333 C332 1.367 . S
C333 H347 0.950 . S
C334 C331 1.481 . S
C334 C335 1.297 . S
C334 H348 0.950 . S
C335 C334 1.297 . S
C335 C336 1.479 . S
C335 H349 0.950 . S
C336 C335 1.479 . S
C336 C337 1.375 . S
C336 C342 1.404 . S
C337 C336 1.375 . S
C337 C338 1.369 . S
C337 H350 0.950 . S
C338 C337 1.369 . S
C338 C339 1.392 . S
C338 H351 0.951 . S
C339 C338 1.392 . S
C339 C341 1.384 . S
H340 C342 0.949 . S
C341 C339 1.384 . S
C341 C342 1.385 . S
C341 H343 0.950 . S
C342 C336 1.404 . S
C342 H340 0.949 . S
C342 C341 1.385 . S
H343 C341 0.950 . S
H344 C328 0.951 . S
H345 C330 0.951 . S
H346 C332 0.951 . S
H347 C333 0.950 . S
H348 C334 0.950 . S
H349 C335 0.950 . S
H350 C337 0.950 . S
H351 C338 0.951 . S
C352 C353 1.386 . S
C352 C354 1.383 . S
C352 H368 0.951 . S
C353 C352 1.386 . S
C353 C357 1.383 . S
C354 C352 1.383 . S
C354 C355 1.402 . S
C354 H369 0.951 . S
C355 C354 1.402 . S
C355 C356 1.375 . S
C355 C358 1.481 . S
C356 C355 1.375 . S
C356 C357 1.367 . S
C356 H370 0.951 . S
C357 C353 1.383 . S
C357 C356 1.367 . S
C357 H371 0.950 . S
C358 C355 1.481 . S
C358 C359 1.297 . S
C358 H372 0.950 . S
C359 C358 1.297 . S
C359 C360 1.479 . S
C359 H373 0.950 . S
C360 C359 1.479 . S
C360 C361 1.375 . S
C360 C366 1.404 . S
C361 C360 1.375 . S
C361 C362 1.369 . S
C361 H374 0.950 . S
C362 C361 1.369 . S
C362 C363 1.392 . S
C362 H375 0.951 . S
C363 C362 1.392 . S
C363 C365 1.384 . S
H364 C366 0.949 . S
C365 C363 1.384 . S
C365 C366 1.385 . S
C365 H367 0.950 . S
C366 C360 1.404 . S
C366 H364 0.949 . S
C366 C365 1.385 . S
H367 C365 0.950 . S
H368 C352 0.951 . S
H369 C354 0.951 . S
H370 C356 0.951 . S
H371 C357 0.950 . S
H372 C358 0.950 . S
H373 C359 0.950 . S
H374 C361 0.950 . S
H375 C362 0.951 . S
C376 C377 1.386 . S
C376 C378 1.383 . S
C376 H392 0.951 . S
C377 C376 1.386 . S
C377 C381 1.383 . S
C378 C376 1.383 . S
C378 C379 1.402 . S
C378 H393 0.951 . S
C379 C378 1.402 . S
C379 C380 1.375 . S
C379 C382 1.481 . S
C380 C379 1.375 . S
C380 C381 1.367 . S
C380 H394 0.951 . S
C381 C377 1.383 . S
C381 C380 1.367 . S
C381 H395 0.950 . S
C382 C379 1.481 . S
C382 C383 1.297 . S
C382 H396 0.950 . S
C383 C382 1.297 . S
C383 C384 1.479 . S
C383 H397 0.950 . S
C384 C383 1.479 . S
C384 C385 1.375 . S
C384 C390 1.404 . S
C385 C384 1.375 . S
C385 C386 1.369 . S
C385 H398 0.950 . S
C386 C385 1.369 . S
C386 C387 1.392 . S
C386 H399 0.951 . S
C387 C386 1.392 . S
C387 C389 1.384 . S
H388 C390 0.949 . S
C389 C387 1.384 . S
C389 C390 1.385 . S
C389 H391 0.950 . S
C390 C384 1.404 . S
C390 H388 0.949 . S
C390 C389 1.385 . S
H391 C389 0.950 . S
H392 C376 0.951 . S
H393 C378 0.951 . S
H394 C380 0.951 . S
H395 C381 0.950 . S
H396 C382 0.950 . S
H397 C383 0.950 . S
H398 C385 0.950 . S
H399 C386 0.951 . S
C400 C401 1.386 . S
C400 C402 1.383 . S
C400 H416 0.951 . S
C401 C400 1.386 . S
C401 C405 1.383 . S
C402 C400 1.383 . S
C402 C403 1.402 . S
C402 H417 0.951 . S
C403 C402 1.402 . S
C403 C404 1.375 . S
C403 C406 1.481 . S
C404 C403 1.375 . S
C404 C405 1.367 . S
C404 H418 0.951 1_455 S
C405 C401 1.383 . S
C405 C404 1.367 . S
C405 H419 0.950 . S
C406 C403 1.481 . S
C406 C407 1.297 1_545 S
C406 H420 0.950 1_455 S
C407 C406 1.297 1_565 S
C407 C408 1.479 1_455 S
C407 H421 0.950 . S
C408 C407 1.479 1_655 S
C408 C409 1.370 1_655 S
C408 C414 1.404 . S
C409 C408 1.370 1_455 S
C409 C410 1.358 1_455 S
C409 H422 0.967 . S
C410 C409 1.358 1_655 S
C410 C411 1.392 . S
C410 H423 0.951 . S
C411 C410 1.392 . S
C411 C413 1.384 . S
H412 C414 0.949 . S
C413 C411 1.384 . S
C413 C414 1.385 . S
C413 H415 0.950 . S
C414 C408 1.404 . S
C414 H412 0.949 . S
C414 C413 1.385 . S
H415 C413 0.950 . S
H416 C400 0.951 . S
H417 C402 0.951 . S
H418 C404 0.951 1_655 S
H419 C405 0.950 . S
H420 C406 0.950 1_655 S
H421 C407 0.950 . S
H422 C409 0.967 . S
H423 C410 0.951 . S
C424 C425 1.386 . S
C424 C426 1.383 . S
C424 H440 0.951 . S
C425 C424 1.386 . S
C425 C429 1.383 . S
C426 C424 1.383 . S
C426 C427 1.402 . S
C426 H441 0.951 1_565 S
C427 C426 1.402 . S
C427 C428 1.375 . S
C427 C430 1.481 . S
C428 C427 1.375 . S
C428 C429 1.367 . S
C428 H442 0.951 . S
C429 C425 1.383 . S
C429 C428 1.367 . S
C429 H443 0.950 . S
C430 C427 1.481 . S
C430 C431 1.297 1_465 S
C430 H444 0.950 1_455 S
C431 C430 1.297 1_645 S
C431 C432 1.479 . S
C431 H445 0.950 1_655 S
C432 C431 1.479 . S
C432 C433 1.375 . S
C432 C438 1.404 . S
C433 C432 1.375 . S
C433 C434 1.369 . S
C433 H446 0.950 . S
C434 C433 1.369 . S
C434 C435 1.392 . S
C434 H447 0.951 . S
C435 C434 1.392 . S
C435 C437 1.384 . S
H436 C438 0.949 1_565 S
C437 C435 1.384 . S
C437 C438 1.385 . S
C437 H439 0.950 . S
C438 C432 1.404 . S
C438 H436 0.949 1_545 S
C438 C437 1.385 . S
H439 C437 0.950 . S
H440 C424 0.951 . S
H441 C426 0.951 1_545 S
H442 C428 0.951 . S
H443 C429 0.950 . S
H444 C430 0.950 1_655 S
H445 C431 0.950 1_455 S
H446 C433 0.950 . S
H447 C434 0.951 . S
C448 C449 1.386 . S
C448 C450 1.383 . S
C448 H464 0.951 . S
C449 C448 1.386 . S
C449 C453 1.383 . S
C450 C448 1.383 . S
C450 C451 1.402 . S
C450 H465 0.951 . S
C451 C450 1.402 . S
C451 C452 1.375 . S
C451 C454 1.481 . S
C452 C451 1.375 . S
C452 C453 1.367 . S
C452 H466 0.951 . S
C453 C449 1.383 . S
C453 C452 1.367 . S
C453 H467 0.950 . S
C454 C451 1.481 . S
C454 C455 1.297 1_545 S
C454 H468 0.950 1_545 S
C455 C454 1.297 1_565 S
C455 C456 1.479 1_655 S
C455 H469 0.950 . S
C456 C455 1.479 1_455 S
C456 C457 1.375 . S
C456 C462 1.404 . S
C457 C456 1.375 . S
C457 C458 1.369 . S
C457 H470 0.950 . S
C458 C457 1.369 . S
C458 C459 1.392 . S
C458 H471 0.951 . S
C459 C458 1.392 . S
C459 C461 1.384 . S
H460 C462 0.949 1_655 S
C461 C459 1.384 . S
C461 C462 1.385 . S
C461 H463 0.950 . S
C462 C456 1.404 . S
C462 H460 0.949 1_455 S
C462 C461 1.385 . S
H463 C461 0.950 . S
H464 C448 0.951 . S
H465 C450 0.951 . S
H466 C452 0.951 . S
H467 C453 0.950 . S
H468 C454 0.950 1_565 S
H469 C455 0.950 . S
H470 C457 0.950 . S
H471 C458 0.951 . S
C472 C473 1.386 . S
C472 C474 1.383 . S
C472 H488 0.951 . S
C473 C472 1.386 . S
C473 C477 1.383 . S
C474 C472 1.383 . S
C474 C475 1.402 . S
C474 H489 0.951 1_565 S
C475 C474 1.402 . S
C475 C476 1.375 . S
C475 C478 1.481 . S
C476 C475 1.375 . S
C476 C477 1.367 . S
C476 H490 0.951 . S
C477 C473 1.383 . S
C477 C476 1.367 . S
C477 H491 0.950 . S
C478 C475 1.481 . S
C478 C479 1.297 1_665 S
C478 H492 0.950 1_655 S
C479 C478 1.297 1_445 S
C479 C480 1.479 . S
C479 H493 0.950 1_455 S
C480 C479 1.479 . S
C480 C481 1.375 . S
C480 C486 1.402 1_545 S
C481 C480 1.375 . S
C481 C482 1.369 . S
C481 H494 0.950 . S
C482 C481 1.369 . S
C482 C483 1.392 . S
C482 H495 0.951 . S
C483 C482 1.392 . S
C483 C485 1.384 . S
H484 C486 0.952 . S
C485 C483 1.384 . S
C485 C486 1.383 1_545 S
C485 H487 0.950 . S
C486 C480 1.402 1_565 S
C486 H484 0.952 . S
C486 C485 1.383 1_565 S
H487 C485 0.950 . S
H488 C472 0.951 . S
H489 C474 0.951 1_545 S
H490 C476 0.951 . S
H491 C477 0.950 . S
H492 C478 0.950 1_455 S
H493 C479 0.950 1_655 S
H494 C481 0.950 . S
H495 C482 0.951 . S
C113 C12 1.778 . S
C123 C28 1.787 . S
C137 C42 1.795 . S
C147 C26 1.796 . S
C161 C85 1.781 . S
C171 C57 1.809 . S
C185 C71 1.774 . S
C195 C99 1.788 . S
C209 C96 1.617 . S
C219 C1 1.601 . S
C233 C15 1.592 . S
C243 C110 1.594 . S
C257 C41 1.616 . S
C267 C68 1.595 . S
C281 C82 1.605 . S
C291 C55 1.575 . S
C305 C0 1.678 . S
C315 C83 1.657 . S
C329 C97 1.659 . S
C339 C14 1.670 . S
C353 C111 1.676 . S
C363 C40 1.649 . S
C377 C54 1.659 . S
C387 C69 1.665 . S
C401 C13 1.426 . S
C411 C29 1.394 . S
C425 C43 1.436 . S
C435 C27 1.432 . S
C449 C84 1.451 . S
C459 C56 1.379 . S
C473 C98 1.451 . S
C483 C70 1.403 . S
