# Generated by pormake.
# Topology npo, (4)-cn, num edge types: 1
# Building blocks:
#     Node 0, Type 0, BuildingBlock: QUQFOY_clean_sbu_1, # of connection points: 4
#     Node 1, Type 0, BuildingBlock: QUQFOY_clean_sbu_1, # of connection points: 4
#     Node 2, Type 0, BuildingBlock: QUQFOY_clean_sbu_1, # of connection points: 4
#     Node 3, Type 0, BuildingBlock: QUQFOY_clean_sbu_1, # of connection points: 4
#     Node 4, Type 0, BuildingBlock: QUQFOY_clean_sbu_1, # of connection points: 4
#     Node 5, Type 0, BuildingBlock: QUQFOY_clean_sbu_1, # of connection points: 4
#     Edge 6, Type (0, 0), BuildingBlock: XIVTED_clean_linker_0, # of connection points: 2
#     Edge 7, Type (0, 0), BuildingBlock: XIVTED_clean_linker_0, # of connection points: 2
#     Edge 8, Type (0, 0), BuildingBlock: XIVTED_clean_linker_0, # of connection points: 2
#     Edge 9, Type (0, 0), BuildingBlock: XIVTED_clean_linker_0, # of connection points: 2
#     Edge 10, Type (0, 0), BuildingBlock: XIVTED_clean_linker_0, # of connection points: 2
#     Edge 11, Type (0, 0), BuildingBlock: XIVTED_clean_linker_0, # of connection points: 2
#     Edge 12, Type (0, 0), BuildingBlock: XIVTED_clean_linker_0, # of connection points: 2
#     Edge 13, Type (0, 0), BuildingBlock: XIVTED_clean_linker_0, # of connection points: 2
#     Edge 14, Type (0, 0), BuildingBlock: XIVTED_clean_linker_0, # of connection points: 2
#     Edge 15, Type (0, 0), BuildingBlock: XIVTED_clean_linker_0, # of connection points: 2
#     Edge 16, Type (0, 0), BuildingBlock: XIVTED_clean_linker_0, # of connection points: 2
#     Edge 17, Type (0, 0), BuildingBlock: XIVTED_clean_linker_0, # of connection points: 2
# Relax obj value: 0.266
# Max RMSD: 0.245
# Mean RMSD: 0.245
data_MOF--net-npo--node1-QUQFOY_clean_sbu_1--edge1-XIVTED_clean_linker_0
_symmetry_space_group_name_H-M    P1
_symmetry_Int_Tables_number       1
_symmetry_cell_setting            triclinic
loop_
_symmetry_equiv_pos_as_xyz
'x, y, z'
_cell_length_a     44.270531
_cell_length_b     44.475126
_cell_length_c     28.650274
_cell_angle_alpha  90.001892
_cell_angle_beta   89.950738
_cell_angle_gamma 119.8098
loop_
_atom_site_label
_atom_site_type_symbol
_atom_site_fract_x
_atom_site_fract_y
_atom_site_fract_z
_atom_type_partial_charge
O0 O 0.59397 0.13013 0.279 0.0
Cd1 Cd 0.54098 0.10379 0.28987 0.0
Cd2 Cd 0.54143 0.1046 0.19062 0.0
O3 O 0.59432 0.13049 0.20201 0.0
O4 O 0.53791 0.09759 0.35868 0.0
O5 O 0.51611 0.0536 0.30935 0.0
C6 C 0.5216 0.06464 0.3519 0.0
C7 C 0.52191 0.06611 0.12791 0.0
C8 C 0.61053 0.13853 0.24062 0.0
C9 C 0.50633 0.13867 0.24074 0.0
O10 O 0.51484 0.13092 0.20214 0.0
O11 O 0.51409 0.12992 0.27912 0.0
O12 O 0.53864 0.09912 0.12169 0.0
O13 O 0.51615 0.05464 0.17028 0.0
O14 O 0.45171 0.60013 0.77972 0.0
Cd15 Cd 0.42448 0.54724 0.78882 0.0
Cd16 Cd 0.42608 0.54933 0.68969 0.0
O17 O 0.45324 0.60177 0.70276 0.0
O18 O 0.42624 0.54283 0.85761 0.0
O19 O 0.44884 0.52118 0.80829 0.0
C20 C 0.44262 0.52609 0.85083 0.0
C21 C 0.44568 0.53016 0.62697 0.0
C22 C 0.46071 0.61725 0.74186 0.0
C23 C 0.35599 0.51493 0.73741 0.0
O24 O 0.37298 0.52362 0.69938 0.0
O25 O 0.37175 0.52177 0.77632 0.0
O26 O 0.42997 0.54761 0.62077 0.0
O27 O 0.45055 0.52356 0.66933 0.0
O28 O 0.83695 0.37084 0.20007 0.0
Cd29 Cd 0.86255 0.42351 0.18884 0.0
Cd30 Cd 0.86248 0.42371 0.2881 0.0
O31 O 0.83651 0.37101 0.27706 0.0
O32 O 0.86882 0.42661 0.12 0.0
O33 O 0.91297 0.44928 0.16937 0.0
C34 C 0.90192 0.4436 0.1268 0.0
C35 C 0.90107 0.44339 0.35091 0.0
C36 C 0.82856 0.35461 0.23864 0.0
C37 C 0.82711 0.45756 0.23814 0.0
O38 O 0.83583 0.44996 0.27668 0.0
O39 O 0.83536 0.44932 0.19969 0.0
O40 O 0.86789 0.42662 0.35705 0.0
O41 O 0.91265 0.44907 0.30857 0.0
O42 O 0.45044 0.8414 0.70368 0.0
Cd43 Cd 0.42335 0.86716 0.69148 0.0
Cd44 Cd 0.42166 0.8665 0.7908 0.0
O45 O 0.44849 0.84026 0.78063 0.0
O46 O 0.42726 0.87325 0.62265 0.0
O47 O 0.44821 0.9173 0.67186 0.0
C48 C 0.4433 0.90621 0.62934 0.0
C49 C 0.4403 0.90505 0.85344 0.0
C50 C 0.45769 0.83267 0.74245 0.0
C51 C 0.35321 0.83237 0.73924 0.0
O52 O 0.36894 0.84057 0.77819 0.0
O53 O 0.37023 0.84064 0.70122 0.0
O54 O 0.42353 0.87204 0.8597 0.0
O55 O 0.4466 0.91648 0.81106 0.0
O56 O 0.51274 0.37116 0.27843 0.0
Cd57 Cd 0.53978 0.42386 0.28942 0.0
Cd58 Cd 0.53884 0.42387 0.19018 0.0
O59 O 0.51215 0.37119 0.20144 0.0
O60 O 0.53748 0.42704 0.35837 0.0
O61 O 0.51538 0.44967 0.30987 0.0
C62 C 0.52131 0.44406 0.35221 0.0
C63 C 0.5191 0.44344 0.12812 0.0
C64 C 0.50431 0.35487 0.23993 0.0
C65 C 0.60861 0.45776 0.23855 0.0
O66 O 0.59188 0.45 0.20036 0.0
O67 O 0.59259 0.44972 0.27733 0.0
O68 O 0.53546 0.42667 0.12136 0.0
O69 O 0.51375 0.44921 0.17067 0.0
O70 O 0.12803 0.52212 0.7764 0.0
Cd71 Cd 0.10074 0.54782 0.78754 0.0
Cd72 Cd 0.10109 0.54816 0.68839 0.0
O73 O 0.12837 0.5225 0.69942 0.0
O74 O 0.09451 0.54447 0.85639 0.0
O75 O 0.05033 0.52191 0.80707 0.0
C76 C 0.06141 0.52746 0.84963 0.0
C77 C 0.06239 0.5283 0.6257 0.0
C78 C 0.13681 0.51453 0.73788 0.0
C79 C 0.13457 0.61699 0.73829 0.0
O80 O 0.12662 0.60079 0.69972 0.0
O81 O 0.1263 0.60056 0.77671 0.0
O82 O 0.09555 0.54538 0.61947 0.0
O83 O 0.05087 0.52239 0.66807 0.0
H84 H 0.48742 0.16332 0.31646 0.0
H85 H 0.48548 0.31134 0.16446 0.0
H86 H 0.49039 0.16648 0.16578 0.0
H87 H 0.48903 0.31153 0.31511 0.0
H88 H 0.47241 0.25121 0.16459 0.0
H89 H 0.47324 0.20977 0.31651 0.0
C90 C 0.48451 0.17335 0.28334 0.0
C91 C 0.49097 0.16156 0.24107 0.0
C92 C 0.47548 0.26422 0.19766 0.0
C93 C 0.47502 0.21495 0.24095 0.0
C94 C 0.48291 0.29859 0.19763 0.0
C95 C 0.48924 0.31681 0.23982 0.0
C96 C 0.47461 0.24805 0.24014 0.0
C97 C 0.48501 0.29873 0.2817 0.0
C98 C 0.47643 0.19992 0.28341 0.0
C99 C 0.48629 0.17519 0.19925 0.0
N100 N 0.47857 0.26553 0.28076 0.0
N101 N 0.4792 0.20158 0.20028 0.0
H102 H 0.31346 0.49909 0.66104 0.0
H103 H 0.16219 0.49601 0.81315 0.0
H104 H 0.31145 0.49798 0.81177 0.0
H105 H 0.16582 0.50035 0.66253 0.0
H106 H 0.20976 0.48322 0.81275 0.0
H107 H 0.25306 0.48609 0.66061 0.0
C108 C 0.30018 0.49555 0.69407 0.0
C109 C 0.31784 0.50045 0.73653 0.0
C110 C 0.19979 0.48642 0.77974 0.0
C111 C 0.24874 0.48587 0.73624 0.0
C112 C 0.17257 0.49371 0.77994 0.0
C113 C 0.16053 0.50008 0.73784 0.0
C114 C 0.21523 0.48577 0.7372 0.0
C115 C 0.17466 0.49624 0.69588 0.0
C116 C 0.26565 0.48814 0.69379 0.0
C117 C 0.29909 0.49505 0.77819 0.0
N118 N 0.20167 0.48992 0.69666 0.0
N119 N 0.26574 0.48863 0.777 0.0
H120 H 0.65395 0.16359 0.31631 0.0
H121 H 0.80385 0.31083 0.16343 0.0
H122 H 0.65437 0.16582 0.16559 0.0
H123 H 0.80059 0.31154 0.31408 0.0
H124 H 0.75684 0.2507 0.16395 0.0
H125 H 0.71453 0.21 0.31615 0.0
C126 C 0.66692 0.1734 0.28314 0.0
C127 C 0.64875 0.16137 0.2409 0.0
C128 C 0.7668 0.26382 0.19693 0.0
C129 C 0.71805 0.21472 0.24054 0.0
C130 C 0.7937 0.29819 0.19668 0.0
C131 C 0.8056 0.31656 0.23875 0.0
C132 C 0.75153 0.24781 0.23952 0.0
C133 C 0.7918 0.29863 0.28074 0.0
C134 C 0.70155 0.19995 0.28309 0.0
C135 C 0.66712 0.17473 0.19903 0.0
N136 N 0.76507 0.26543 0.28003 0.0
N137 N 0.70057 0.20111 0.19993 0.0
H138 H 0.47957 0.80981 0.66785 0.0
H139 H 0.47681 0.65914 0.81879 0.0
H140 H 0.47134 0.80367 0.81816 0.0
H141 H 0.47901 0.66225 0.6681 0.0
H142 H 0.4898 0.71924 0.81994 0.0
H143 H 0.49427 0.76373 0.66841 0.0
C144 C 0.48141 0.7992 0.70106 0.0
C145 C 0.47333 0.81003 0.74294 0.0
C146 C 0.48803 0.70697 0.78663 0.0
C147 C 0.48985 0.75704 0.74376 0.0
C148 C 0.48065 0.67262 0.78592 0.0
C149 C 0.4759 0.65531 0.74325 0.0
C150 C 0.49045 0.72404 0.74437 0.0
C151 C 0.48174 0.67431 0.70183 0.0
C152 C 0.4898 0.77285 0.70134 0.0
C153 C 0.47672 0.7957 0.78494 0.0
N154 N 0.48808 0.70746 0.70342 0.0
N155 N 0.48411 0.76951 0.78421 0.0
H156 H 0.6516 0.47523 0.16232 0.0
H157 H 0.80247 0.47687 0.31346 0.0
H158 H 0.6528 0.4737 0.31302 0.0
H159 H 0.79807 0.47178 0.1629 0.0
H160 H 0.75525 0.49016 0.31339 0.0
H161 H 0.71207 0.4884 0.16172 0.0
C162 C 0.66472 0.47824 0.19533 0.0
C163 C 0.6468 0.4725 0.23778 0.0
C164 C 0.76499 0.48669 0.28032 0.0
C165 C 0.71596 0.48729 0.23728 0.0
C166 C 0.792 0.47911 0.28031 0.0
C167 C 0.8037 0.47236 0.23816 0.0
C168 C 0.7494 0.48727 0.23791 0.0
C169 C 0.78947 0.47617 0.1963 0.0
C170 C 0.69928 0.48574 0.19494 0.0
C171 C 0.66535 0.47727 0.27943 0.0
N172 N 0.76266 0.48278 0.19728 0.0
N173 N 0.69873 0.4838 0.27811 0.0
H174 H 0.31065 0.80716 0.66273 0.0
H175 H 0.15901 0.66048 0.81382 0.0
H176 H 0.30849 0.80543 0.81345 0.0
H177 H 0.16284 0.66034 0.66319 0.0
H178 H 0.20624 0.7205 0.81381 0.0
H179 H 0.24994 0.76105 0.66199 0.0
C180 C 0.29727 0.79752 0.6957 0.0
C181 C 0.31497 0.80961 0.73823 0.0
C182 C 0.19637 0.70754 0.78071 0.0
C183 C 0.24553 0.75659 0.73759 0.0
C184 C 0.16933 0.67323 0.78068 0.0
C185 C 0.15753 0.65504 0.73847 0.0
C186 C 0.21189 0.72366 0.73828 0.0
C187 C 0.17155 0.67311 0.69662 0.0
C188 C 0.26257 0.77114 0.69524 0.0
C189 C 0.29611 0.79647 0.77981 0.0
N190 N 0.19843 0.70623 0.69762 0.0
N191 N 0.26259 0.77024 0.77844 0.0
H192 H 0.43006 0.88759 0.94568 0.0
H193 H 0.53115 0.08362 0.03565 0.0
H194 H 0.47692 0.97619 0.85367 0.0
H195 H 0.4852 -0.00502 0.12763 0.0
H196 H 0.51116 0.04471 0.9687 0.0
H197 H 0.44961 0.92653 0.0126 0.0
C198 C 0.44447 0.91528 0.93951 0.0
C199 C 0.45191 0.92868 0.89396 0.0
C200 C 0.50542 0.03373 0.00348 0.0
C201 C 0.47441 0.97345 0.97063 0.0
C202 C 0.51683 0.05593 0.04181 0.0
C203 C 0.50983 0.04251 0.08736 0.0
C204 C 0.48683 -0.00223 0.01065 0.0
C205 C 0.49118 0.00643 0.09313 0.0
C206 C 0.45564 0.9375 0.97782 0.0
C207 C 0.47064 0.96476 0.88816 0.0
N208 N 0.48032 0.9853 0.05518 0.0
N209 N 0.48127 -0.0141 0.9261 0.0
H210 H 0.52971 0.43485 0.44445 0.0
H211 H 0.43881 0.54078 0.53475 0.0
H212 H 0.48782 0.48202 0.35261 0.0
H213 H 0.47885 0.49188 0.62661 0.0
H214 H 0.45721 0.52009 0.46775 0.0
H215 H 0.51178 0.45597 0.51146 0.0
C216 C 0.51671 0.44967 0.43834 0.0
C217 C 0.51024 0.45669 0.39281 0.0
C218 C 0.46201 0.51387 0.50252 0.0
C219 C 0.48965 0.481 0.46958 0.0
C220 C 0.45152 0.5257 0.54087 0.0
C221 C 0.45728 0.51801 0.58641 0.0
C222 C 0.47841 0.49419 0.50965 0.0
C223 C 0.47389 0.4984 0.59214 0.0
C224 C 0.50648 0.46172 0.4767 0.0
C225 C 0.49331 0.476 0.38709 0.0
N226 N 0.48386 0.48713 0.55416 0.0
N227 N 0.4836 0.4875 0.42507 0.0
H228 H -0.01002 0.49036 0.84869 0.0
H229 H 0.97336 0.48058 0.12778 0.0
H230 H 0.07806 0.5358 0.94217 0.0
H231 H 0.88531 0.43504 0.03426 0.0
H232 H 0.01229 0.50102 0.06012 0.0
H233 H 0.95108 0.46979 0.91636 0.0
C234 C 0.00112 0.49602 0.88341 0.0
C235 C 0.03729 0.51481 0.88979 0.0
C236 C -0.01556 0.48654 0.05444 0.0
C237 C -0.00696 0.49139 0.96731 0.0
C238 C 0.96223 0.47487 0.09306 0.0
C239 C 0.92606 0.4561 0.08666 0.0
C240 C 0.97034 0.47937 0.00916 0.0
C241 C 0.91304 0.44944 0.04087 0.0
C242 C 0.97893 0.48427 0.92203 0.0
C243 C 0.05032 0.52139 0.93557 0.0
N244 N 0.93515 0.46106 0.00391 0.0
N245 N 0.02823 0.5097 0.97254 0.0
H246 H 0.48712 -0.0065 0.35102 0.0
H247 H 0.47772 0.97732 0.63012 0.0
H248 H 0.52933 0.08128 0.44439 0.0
H249 H 0.4363 0.8895 0.53686 0.0
H250 H 0.49692 0.01596 0.56237 0.0
H251 H 0.46819 0.95482 0.41874 0.0
C252 C 0.49239 0.00462 0.38572 0.0
C253 C 0.50981 0.04064 0.39206 0.0
C254 C 0.48363 -0.01178 0.55676 0.0
C255 C 0.48828 -0.00335 0.46963 0.0
C256 C 0.47269 0.96618 0.59543 0.0
C257 C 0.45538 0.93016 0.58913 0.0
C258 C 0.4772 0.97411 0.51152 0.0
C259 C 0.44954 0.91712 0.54339 0.0
C260 C 0.4816 0.98256 0.42437 0.0
C261 C 0.51598 0.05366 0.43783 0.0
N262 N 0.46041 0.93907 0.50637 0.0
N263 N 0.50523 0.03169 0.47482 0.0
H264 H 0.47797 0.48994 0.84993 0.0
H265 H 0.48339 0.47923 0.129 0.0
H266 H 0.4327 0.53298 0.94331 0.0
H267 H 0.52766 0.43519 0.03561 0.0
H268 H 0.46438 0.49905 0.06129 0.0
H269 H 0.4963 0.46944 0.91762 0.0
C270 C 0.47188 0.49505 0.88462 0.0
C271 C 0.45382 0.5132 0.89098 0.0
C272 C 0.47825 0.48503 0.05565 0.0
C273 C 0.47467 0.4899 0.96852 0.0
C274 C 0.48909 0.47372 0.0943 0.0
C275 C 0.50714 0.45556 0.08795 0.0
C276 C 0.48554 0.47812 0.01039 0.0
C277 C 0.51382 0.44912 0.04218 0.0
C278 C 0.48233 0.48336 0.92326 0.0
C279 C 0.44659 0.51911 0.93674 0.0
N280 N 0.50305 0.4604 0.00519 0.0
N281 N 0.45706 0.50751 0.97372 0.0
H282 H 0.08006 0.53728 0.53348 0.0
H283 H 0.88331 0.43459 0.44313 0.0
H284 H -0.00907 0.4912 0.62536 0.0
H285 H 0.97252 0.48015 0.35136 0.0
H286 H 0.92228 0.45514 0.51017 0.0
H287 H 0.04106 0.51668 0.46649 0.0
C288 C 0.05224 0.52282 0.5396 0.0
C289 C 0.03871 0.51594 0.58514 0.0
C290 C 0.93337 0.46065 0.47541 0.0
C291 C -0.00614 0.49223 0.50839 0.0
C292 C 0.91114 0.44892 0.43704 0.0
C293 C 0.92471 0.45568 0.39152 0.0
C294 C 0.9695 0.47932 0.46832 0.0
C295 C 0.96095 0.47436 0.38583 0.0
C296 C 0.02998 0.51105 0.50126 0.0
C297 C 0.00247 0.49709 0.59088 0.0
N298 N -0.01789 0.48555 0.42382 0.0
N299 N 0.98128 0.48588 0.55291 0.0
loop_
_geom_bond_atom_site_label_1
_geom_bond_atom_site_label_2
_geom_bond_distance
_geom_bond_site_symmetry_2
_ccdc_geom_bond_type
O0 Cd1 2.223 . S
O0 C8 1.315 . S
Cd1 O0 2.223 . S
Cd1 O4 2.297 . S
Cd1 O5 2.439 . S
Cd1 O11 2.240 . S
Cd2 O3 2.240 . S
Cd2 O10 2.223 . S
Cd2 O12 2.297 . S
Cd2 O13 2.439 . S
O3 Cd2 2.240 . S
O3 C8 1.279 . S
O4 Cd1 2.297 . S
O4 C6 1.247 . S
O5 Cd1 2.439 . S
O5 C6 1.208 . S
C6 O4 1.247 . S
C6 O5 1.208 . S
C7 O12 1.247 . S
C7 O13 1.208 . S
C8 O0 1.315 . S
C8 O3 1.279 . S
C9 O10 1.315 . S
C9 O11 1.279 . S
O10 Cd2 2.223 . S
O10 C9 1.315 . S
O11 Cd1 2.240 . S
O11 C9 1.279 . S
O12 Cd2 2.297 . S
O12 C7 1.247 . S
O13 Cd2 2.439 . S
O13 C7 1.208 . S
O14 Cd15 2.223 . S
O14 C22 1.315 . S
Cd15 O14 2.223 . S
Cd15 O18 2.297 . S
Cd15 O19 2.439 . S
Cd15 O25 2.240 . S
Cd16 O17 2.240 . S
Cd16 O24 2.223 . S
Cd16 O26 2.297 . S
Cd16 O27 2.439 . S
O17 Cd16 2.240 . S
O17 C22 1.279 . S
O18 Cd15 2.297 . S
O18 C20 1.247 . S
O19 Cd15 2.439 . S
O19 C20 1.208 . S
C20 O18 1.247 . S
C20 O19 1.208 . S
C21 O26 1.247 . S
C21 O27 1.208 . S
C22 O14 1.315 . S
C22 O17 1.279 . S
C23 O24 1.315 . S
C23 O25 1.279 . S
O24 Cd16 2.223 . S
O24 C23 1.315 . S
O25 Cd15 2.240 . S
O25 C23 1.279 . S
O26 Cd16 2.297 . S
O26 C21 1.247 . S
O27 Cd16 2.439 . S
O27 C21 1.208 . S
O28 Cd29 2.223 . S
O28 C36 1.315 . S
Cd29 O28 2.223 . S
Cd29 O32 2.297 . S
Cd29 O33 2.439 . S
Cd29 O39 2.240 . S
Cd30 O31 2.240 . S
Cd30 O38 2.223 . S
Cd30 O40 2.297 . S
Cd30 O41 2.439 . S
O31 Cd30 2.240 . S
O31 C36 1.279 . S
O32 Cd29 2.297 . S
O32 C34 1.247 . S
O33 Cd29 2.439 . S
O33 C34 1.208 . S
C34 O32 1.247 . S
C34 O33 1.208 . S
C35 O40 1.247 . S
C35 O41 1.208 . S
C36 O28 1.315 . S
C36 O31 1.279 . S
C37 O38 1.315 . S
C37 O39 1.279 . S
O38 Cd30 2.223 . S
O38 C37 1.315 . S
O39 Cd29 2.240 . S
O39 C37 1.279 . S
O40 Cd30 2.297 . S
O40 C35 1.247 . S
O41 Cd30 2.439 . S
O41 C35 1.208 . S
O42 Cd43 2.223 . S
O42 C50 1.315 . S
Cd43 O42 2.223 . S
Cd43 O46 2.297 . S
Cd43 O47 2.439 . S
Cd43 O53 2.240 . S
Cd44 O45 2.240 . S
Cd44 O52 2.223 . S
Cd44 O54 2.297 . S
Cd44 O55 2.439 . S
O45 Cd44 2.240 . S
O45 C50 1.279 . S
O46 Cd43 2.297 . S
O46 C48 1.247 . S
O47 Cd43 2.439 . S
O47 C48 1.208 . S
C48 O46 1.247 . S
C48 O47 1.208 . S
C49 O54 1.247 . S
C49 O55 1.208 . S
C50 O42 1.315 . S
C50 O45 1.279 . S
C51 O52 1.315 . S
C51 O53 1.279 . S
O52 Cd44 2.223 . S
O52 C51 1.315 . S
O53 Cd43 2.240 . S
O53 C51 1.279 . S
O54 Cd44 2.297 . S
O54 C49 1.247 . S
O55 Cd44 2.439 . S
O55 C49 1.208 . S
O56 Cd57 2.223 . S
O56 C64 1.315 . S
Cd57 O56 2.223 . S
Cd57 O60 2.297 . S
Cd57 O61 2.439 . S
Cd57 O67 2.240 . S
Cd58 O59 2.240 . S
Cd58 O66 2.223 . S
Cd58 O68 2.297 . S
Cd58 O69 2.439 . S
O59 Cd58 2.240 . S
O59 C64 1.279 . S
O60 Cd57 2.297 . S
O60 C62 1.247 . S
O61 Cd57 2.439 . S
O61 C62 1.208 . S
C62 O60 1.247 . S
C62 O61 1.208 . S
C63 O68 1.247 . S
C63 O69 1.208 . S
C64 O56 1.315 . S
C64 O59 1.279 . S
C65 O66 1.315 . S
C65 O67 1.279 . S
O66 Cd58 2.223 . S
O66 C65 1.315 . S
O67 Cd57 2.240 . S
O67 C65 1.279 . S
O68 Cd58 2.297 . S
O68 C63 1.247 . S
O69 Cd58 2.439 . S
O69 C63 1.208 . S
O70 Cd71 2.223 . S
O70 C78 1.315 . S
Cd71 O70 2.223 . S
Cd71 O74 2.297 . S
Cd71 O75 2.439 . S
Cd71 O81 2.240 . S
Cd72 O73 2.240 . S
Cd72 O80 2.223 . S
Cd72 O82 2.297 . S
Cd72 O83 2.439 . S
O73 Cd72 2.240 . S
O73 C78 1.279 . S
O74 Cd71 2.297 . S
O74 C76 1.247 . S
O75 Cd71 2.439 . S
O75 C76 1.208 . S
C76 O74 1.247 . S
C76 O75 1.208 . S
C77 O82 1.247 . S
C77 O83 1.208 . S
C78 O70 1.315 . S
C78 O73 1.279 . S
C79 O80 1.315 . S
C79 O81 1.279 . S
O80 Cd72 2.223 . S
O80 C79 1.315 . S
O81 Cd71 2.240 . S
O81 C79 1.279 . S
O82 Cd72 2.297 . S
O82 C77 1.247 . S
O83 Cd72 2.439 . S
O83 C77 1.208 . S
H84 C90 0.930 . S
H85 C94 0.930 . S
H86 C99 0.929 . S
H87 C97 0.929 . S
H88 C92 0.929 . S
H89 C98 0.929 . S
C90 H84 0.930 . S
C90 C91 1.367 . S
C90 C98 1.378 . S
C91 C90 1.367 . S
C91 C99 1.433 . S
C92 H88 0.929 . S
C92 C94 1.378 . S
C92 C96 1.350 . S
C93 C96 1.463 . S
C93 C98 1.350 . S
C93 N101 1.427 . S
C94 H85 0.930 . S
C94 C92 1.378 . S
C94 C95 1.367 . S
C95 C94 1.367 . S
C95 C97 1.433 . S
C96 C92 1.350 . S
C96 C93 1.463 . S
C96 N100 1.427 . S
C97 H87 0.929 . S
C97 C95 1.433 . S
C97 N100 1.384 . S
C98 H89 0.929 . S
C98 C90 1.378 . S
C98 C93 1.350 . S
C99 H86 0.929 . S
C99 C91 1.433 . S
C99 N101 1.384 . S
N100 C96 1.427 . S
N100 C97 1.384 . S
N101 C93 1.427 . S
N101 C99 1.384 . S
H102 C108 0.930 . S
H103 C112 0.930 . S
H104 C117 0.929 . S
H105 C115 0.929 . S
H106 C110 0.929 . S
H107 C116 0.929 . S
C108 H102 0.930 . S
C108 C109 1.367 . S
C108 C116 1.378 . S
C109 C108 1.367 . S
C109 C117 1.433 . S
C110 H106 0.929 . S
C110 C112 1.378 . S
C110 C114 1.350 . S
C111 C114 1.463 . S
C111 C116 1.350 . S
C111 N119 1.427 . S
C112 H103 0.930 . S
C112 C110 1.378 . S
C112 C113 1.367 . S
C113 C112 1.367 . S
C113 C115 1.433 . S
C114 C110 1.350 . S
C114 C111 1.463 . S
C114 N118 1.427 . S
C115 H105 0.929 . S
C115 C113 1.433 . S
C115 N118 1.384 . S
C116 H107 0.929 . S
C116 C108 1.378 . S
C116 C111 1.350 . S
C117 H104 0.929 . S
C117 C109 1.433 . S
C117 N119 1.384 . S
N118 C114 1.427 . S
N118 C115 1.384 . S
N119 C111 1.427 . S
N119 C117 1.384 . S
H120 C126 0.930 . S
H121 C130 0.930 . S
H122 C135 0.929 . S
H123 C133 0.929 . S
H124 C128 0.929 . S
H125 C134 0.929 . S
C126 H120 0.930 . S
C126 C127 1.367 . S
C126 C134 1.378 . S
C127 C126 1.367 . S
C127 C135 1.433 . S
C128 H124 0.929 . S
C128 C130 1.378 . S
C128 C132 1.350 . S
C129 C132 1.463 . S
C129 C134 1.350 . S
C129 N137 1.427 . S
C130 H121 0.930 . S
C130 C128 1.378 . S
C130 C131 1.367 . S
C131 C130 1.367 . S
C131 C133 1.433 . S
C132 C128 1.350 . S
C132 C129 1.463 . S
C132 N136 1.427 . S
C133 H123 0.929 . S
C133 C131 1.433 . S
C133 N136 1.384 . S
C134 H125 0.929 . S
C134 C126 1.378 . S
C134 C129 1.350 . S
C135 H122 0.929 . S
C135 C127 1.433 . S
C135 N137 1.384 . S
N136 C132 1.427 . S
N136 C133 1.384 . S
N137 C129 1.427 . S
N137 C135 1.384 . S
H138 C144 0.930 . S
H139 C148 0.930 . S
H140 C153 0.929 . S
H141 C151 0.929 . S
H142 C146 0.929 . S
H143 C152 0.929 . S
C144 H138 0.930 . S
C144 C145 1.367 . S
C144 C152 1.378 . S
C145 C144 1.367 . S
C145 C153 1.433 . S
C146 H142 0.929 . S
C146 C148 1.378 . S
C146 C150 1.350 . S
C147 C150 1.463 . S
C147 C152 1.350 . S
C147 N155 1.427 . S
C148 H139 0.930 . S
C148 C146 1.378 . S
C148 C149 1.367 . S
C149 C148 1.367 . S
C149 C151 1.433 . S
C150 C146 1.350 . S
C150 C147 1.463 . S
C150 N154 1.427 . S
C151 H141 0.929 . S
C151 C149 1.433 . S
C151 N154 1.384 . S
C152 H143 0.929 . S
C152 C144 1.378 . S
C152 C147 1.350 . S
C153 H140 0.929 . S
C153 C145 1.433 . S
C153 N155 1.384 . S
N154 C150 1.427 . S
N154 C151 1.384 . S
N155 C147 1.427 . S
N155 C153 1.384 . S
H156 C162 0.930 . S
H157 C166 0.930 . S
H158 C171 0.929 . S
H159 C169 0.929 . S
H160 C164 0.929 . S
H161 C170 0.929 . S
C162 H156 0.930 . S
C162 C163 1.367 . S
C162 C170 1.378 . S
C163 C162 1.367 . S
C163 C171 1.433 . S
C164 H160 0.929 . S
C164 C166 1.378 . S
C164 C168 1.350 . S
C165 C168 1.463 . S
C165 C170 1.350 . S
C165 N173 1.427 . S
C166 H157 0.930 . S
C166 C164 1.378 . S
C166 C167 1.367 . S
C167 C166 1.367 . S
C167 C169 1.433 . S
C168 C164 1.350 . S
C168 C165 1.463 . S
C168 N172 1.427 . S
C169 H159 0.929 . S
C169 C167 1.433 . S
C169 N172 1.384 . S
C170 H161 0.929 . S
C170 C162 1.378 . S
C170 C165 1.350 . S
C171 H158 0.929 . S
C171 C163 1.433 . S
C171 N173 1.384 . S
N172 C168 1.427 . S
N172 C169 1.384 . S
N173 C165 1.427 . S
N173 C171 1.384 . S
H174 C180 0.930 . S
H175 C184 0.930 . S
H176 C189 0.929 . S
H177 C187 0.929 . S
H178 C182 0.929 . S
H179 C188 0.929 . S
C180 H174 0.930 . S
C180 C181 1.367 . S
C180 C188 1.378 . S
C181 C180 1.367 . S
C181 C189 1.433 . S
C182 H178 0.929 . S
C182 C184 1.378 . S
C182 C186 1.350 . S
C183 C186 1.463 . S
C183 C188 1.350 . S
C183 N191 1.427 . S
C184 H175 0.930 . S
C184 C182 1.378 . S
C184 C185 1.367 . S
C185 C184 1.367 . S
C185 C187 1.433 . S
C186 C182 1.350 . S
C186 C183 1.463 . S
C186 N190 1.427 . S
C187 H177 0.929 . S
C187 C185 1.433 . S
C187 N190 1.384 . S
C188 H179 0.929 . S
C188 C180 1.378 . S
C188 C183 1.350 . S
C189 H176 0.929 . S
C189 C181 1.433 . S
C189 N191 1.384 . S
N190 C186 1.427 . S
N190 C187 1.384 . S
N191 C183 1.427 . S
N191 C189 1.384 . S
H192 C198 0.930 . S
H193 C202 0.930 . S
H194 C207 0.929 1_545 S
H195 C205 0.929 1_565 S
H196 C200 0.929 1_556 S
H197 C206 0.929 1_554 S
C198 H192 0.930 . S
C198 C199 1.367 . S
C198 C206 1.378 . S
C199 C198 1.367 . S
C199 C207 1.433 . S
C200 H196 0.929 1_554 S
C200 C202 1.378 . S
C200 C204 1.350 . S
C201 C204 1.463 1_566 S
C201 C206 1.350 . S
C201 N209 1.427 1_565 S
C202 H193 0.930 . S
C202 C200 1.378 . S
C202 C203 1.367 . S
C203 C202 1.367 . S
C203 C205 1.433 . S
C204 C200 1.350 . S
C204 C201 1.463 1_544 S
C204 N208 1.427 1_545 S
C205 H195 0.929 1_545 S
C205 C203 1.433 . S
C205 N208 1.384 1_545 S
C206 H197 0.929 1_556 S
C206 C198 1.378 . S
C206 C201 1.350 . S
C207 H194 0.929 1_565 S
C207 C199 1.433 . S
C207 N209 1.384 1_565 S
N208 C204 1.427 1_565 S
N208 C205 1.384 1_565 S
N209 C201 1.427 1_545 S
N209 C207 1.384 1_545 S
H210 C216 0.930 . S
H211 C220 0.930 . S
H212 C225 0.929 . S
H213 C223 0.929 . S
H214 C218 0.929 . S
H215 C224 0.929 . S
C216 H210 0.930 . S
C216 C217 1.367 . S
C216 C224 1.378 . S
C217 C216 1.367 . S
C217 C225 1.433 . S
C218 H214 0.929 . S
C218 C220 1.378 . S
C218 C222 1.350 . S
C219 C222 1.463 . S
C219 C224 1.350 . S
C219 N227 1.427 . S
C220 H211 0.930 . S
C220 C218 1.378 . S
C220 C221 1.367 . S
C221 C220 1.367 . S
C221 C223 1.433 . S
C222 C218 1.350 . S
C222 C219 1.463 . S
C222 N226 1.427 . S
C223 H213 0.929 . S
C223 C221 1.433 . S
C223 N226 1.384 . S
C224 H215 0.929 . S
C224 C216 1.378 . S
C224 C219 1.350 . S
C225 H212 0.929 . S
C225 C217 1.433 . S
C225 N227 1.384 . S
N226 C222 1.427 . S
N226 C223 1.384 . S
N227 C219 1.427 . S
N227 C225 1.384 . S
H228 C234 0.930 . S
H229 C238 0.930 . S
H230 C243 0.929 . S
H231 C241 0.929 . S
H232 C236 0.929 1_455 S
H233 C242 0.929 1_655 S
C234 H228 0.930 . S
C234 C235 1.367 . S
C234 C242 1.378 . S
C235 C234 1.367 . S
C235 C243 1.433 . S
C236 H232 0.929 1_655 S
C236 C238 1.378 . S
C236 C240 1.350 . S
C237 C240 1.463 1_456 S
C237 C242 1.350 . S
C237 N245 1.427 . S
C238 H229 0.930 . S
C238 C236 1.378 . S
C238 C239 1.367 . S
C239 C238 1.367 . S
C239 C241 1.433 . S
C240 C236 1.350 . S
C240 C237 1.463 1_654 S
C240 N244 1.427 . S
C241 H231 0.929 . S
C241 C239 1.433 . S
C241 N244 1.384 . S
C242 H233 0.929 1_455 S
C242 C234 1.378 . S
C242 C237 1.350 . S
C243 H230 0.929 . S
C243 C235 1.433 . S
C243 N245 1.384 . S
N244 C240 1.427 . S
N244 C241 1.384 . S
N245 C237 1.427 . S
N245 C243 1.384 . S
H246 C252 0.930 . S
H247 C256 0.930 . S
H248 C261 0.929 . S
H249 C259 0.929 . S
H250 C254 0.929 . S
H251 C260 0.929 . S
C252 H246 0.930 . S
C252 C253 1.367 . S
C252 C260 1.378 1_545 S
C253 C252 1.367 . S
C253 C261 1.433 . S
C254 H250 0.929 . S
C254 C256 1.378 1_545 S
C254 C258 1.350 1_545 S
C255 C258 1.463 1_545 S
C255 C260 1.350 1_545 S
C255 N263 1.427 . S
C256 H247 0.930 . S
C256 C254 1.378 1_565 S
C256 C257 1.367 . S
C257 C256 1.367 . S
C257 C259 1.433 . S
C258 C254 1.350 1_565 S
C258 C255 1.463 1_565 S
C258 N262 1.427 . S
C259 H249 0.929 . S
C259 C257 1.433 . S
C259 N262 1.384 . S
C260 H251 0.929 . S
C260 C252 1.378 1_565 S
C260 C255 1.350 1_565 S
C261 H248 0.929 . S
C261 C253 1.433 . S
C261 N263 1.384 . S
N262 C258 1.427 . S
N262 C259 1.384 . S
N263 C255 1.427 . S
N263 C261 1.384 . S
H264 C270 0.930 . S
H265 C274 0.930 . S
H266 C279 0.929 . S
H267 C277 0.929 . S
H268 C272 0.929 . S
H269 C278 0.929 . S
C270 H264 0.930 . S
C270 C271 1.367 . S
C270 C278 1.378 . S
C271 C270 1.367 . S
C271 C279 1.433 . S
C272 H268 0.929 . S
C272 C274 1.378 . S
C272 C276 1.350 . S
C273 C276 1.463 1_556 S
C273 C278 1.350 . S
C273 N281 1.427 . S
C274 H265 0.930 . S
C274 C272 1.378 . S
C274 C275 1.367 . S
C275 C274 1.367 . S
C275 C277 1.433 . S
C276 C272 1.350 . S
C276 C273 1.463 1_554 S
C276 N280 1.427 . S
C277 H267 0.929 . S
C277 C275 1.433 . S
C277 N280 1.384 . S
C278 H269 0.929 . S
C278 C270 1.378 . S
C278 C273 1.350 . S
C279 H266 0.929 . S
C279 C271 1.433 . S
C279 N281 1.384 . S
N280 C276 1.427 . S
N280 C277 1.384 . S
N281 C273 1.427 . S
N281 C279 1.384 . S
H282 C288 0.930 . S
H283 C292 0.930 . S
H284 C297 0.929 1_655 S
H285 C295 0.929 1_455 S
H286 C290 0.929 . S
H287 C296 0.929 . S
C288 H282 0.930 . S
C288 C289 1.367 . S
C288 C296 1.378 . S
C289 C288 1.367 . S
C289 C297 1.433 . S
C290 H286 0.929 . S
C290 C292 1.378 . S
C290 C294 1.350 . S
C291 C294 1.463 1_455 S
C291 C296 1.350 . S
C291 N299 1.427 1_455 S
C292 H283 0.930 . S
C292 C290 1.378 . S
C292 C293 1.367 . S
C293 C292 1.367 . S
C293 C295 1.433 . S
C294 C290 1.350 . S
C294 C291 1.463 1_655 S
C294 N298 1.427 1_655 S
C295 H285 0.929 1_655 S
C295 C293 1.433 . S
C295 N298 1.384 1_655 S
C296 H287 0.929 . S
C296 C288 1.378 . S
C296 C291 1.350 . S
C297 H284 0.929 1_455 S
C297 C289 1.433 . S
C297 N299 1.384 1_455 S
N298 C294 1.427 1_455 S
N298 C295 1.384 1_455 S
N299 C291 1.427 1_655 S
N299 C297 1.384 1_655 S
C91 C9 1.309 . S
C95 C64 1.303 . S
C109 C23 1.304 . S
C113 C78 1.312 . S
C127 C8 1.310 . S
C131 C36 1.307 . S
C145 C50 1.311 . S
C149 C22 1.306 . S
C163 C65 1.308 . S
C167 C37 1.310 . S
C181 C51 1.306 . S
C185 C79 1.305 . S
C199 C49 1.439 . S
C203 C7 1.440 . S
C217 C62 1.444 . S
C221 C21 1.437 . S
C235 C76 1.452 . S
C239 C34 1.442 . S
C253 C6 1.452 . S
C257 C48 1.447 . S
C271 C20 1.450 . S
C275 C63 1.451 . S
C289 C77 1.441 . S
C293 C35 1.438 . S
