# Generated by pormake.
# Topology wlq, (5)-cn, num edge types: 1
# Building blocks:
#     Node 0, Type 0, BuildingBlock: XOMCOT_clean_sbu_0, # of connection points: 5
#     Node 1, Type 0, BuildingBlock: XOMCOT_clean_sbu_0, # of connection points: 5
#     Node 2, Type 0, BuildingBlock: XOMCOT_clean_sbu_0, # of connection points: 5
#     Node 3, Type 0, BuildingBlock: XOMCOT_clean_sbu_0, # of connection points: 5
#     Node 4, Type 0, BuildingBlock: XOMCOT_clean_sbu_0, # of connection points: 5
#     Node 5, Type 0, BuildingBlock: XOMCOT_clean_sbu_0, # of connection points: 5
#     Node 6, Type 0, BuildingBlock: XOMCOT_clean_sbu_0, # of connection points: 5
#     Node 7, Type 0, BuildingBlock: XOMCOT_clean_sbu_0, # of connection points: 5
#     Node 8, Type 0, BuildingBlock: XOMCOT_clean_sbu_0, # of connection points: 5
#     Node 9, Type 0, BuildingBlock: XOMCOT_clean_sbu_0, # of connection points: 5
#     Node 10, Type 0, BuildingBlock: XOMCOT_clean_sbu_0, # of connection points: 5
#     Node 11, Type 0, BuildingBlock: XOMCOT_clean_sbu_0, # of connection points: 5
#     Node 12, Type 0, BuildingBlock: XOMCOT_clean_sbu_0, # of connection points: 5
#     Node 13, Type 0, BuildingBlock: XOMCOT_clean_sbu_0, # of connection points: 5
#     Node 14, Type 0, BuildingBlock: XOMCOT_clean_sbu_0, # of connection points: 5
#     Node 15, Type 0, BuildingBlock: XOMCOT_clean_sbu_0, # of connection points: 5
#     Node 16, Type 0, BuildingBlock: XOMCOT_clean_sbu_0, # of connection points: 5
#     Node 17, Type 0, BuildingBlock: XOMCOT_clean_sbu_0, # of connection points: 5
#     Node 18, Type 0, BuildingBlock: XOMCOT_clean_sbu_0, # of connection points: 5
#     Node 19, Type 0, BuildingBlock: XOMCOT_clean_sbu_0, # of connection points: 5
#     Node 20, Type 0, BuildingBlock: XOMCOT_clean_sbu_0, # of connection points: 5
#     Node 21, Type 0, BuildingBlock: XOMCOT_clean_sbu_0, # of connection points: 5
#     Node 22, Type 0, BuildingBlock: XOMCOT_clean_sbu_0, # of connection points: 5
#     Node 23, Type 0, BuildingBlock: XOMCOT_clean_sbu_0, # of connection points: 5
#     Node 24, Type 0, BuildingBlock: XOMCOT_clean_sbu_0, # of connection points: 5
#     Node 25, Type 0, BuildingBlock: XOMCOT_clean_sbu_0, # of connection points: 5
#     Node 26, Type 0, BuildingBlock: XOMCOT_clean_sbu_0, # of connection points: 5
#     Node 27, Type 0, BuildingBlock: XOMCOT_clean_sbu_0, # of connection points: 5
#     Node 28, Type 0, BuildingBlock: XOMCOT_clean_sbu_0, # of connection points: 5
#     Node 29, Type 0, BuildingBlock: XOMCOT_clean_sbu_0, # of connection points: 5
#     Node 30, Type 0, BuildingBlock: XOMCOT_clean_sbu_0, # of connection points: 5
#     Node 31, Type 0, BuildingBlock: XOMCOT_clean_sbu_0, # of connection points: 5
#     Node 32, Type 0, BuildingBlock: XOMCOT_clean_sbu_0, # of connection points: 5
#     Node 33, Type 0, BuildingBlock: XOMCOT_clean_sbu_0, # of connection points: 5
#     Node 34, Type 0, BuildingBlock: XOMCOT_clean_sbu_0, # of connection points: 5
#     Node 35, Type 0, BuildingBlock: XOMCOT_clean_sbu_0, # of connection points: 5
#     Edge 36, Type (0, 0), None
#     Edge 37, Type (0, 0), None
#     Edge 38, Type (0, 0), None
#     Edge 39, Type (0, 0), None
#     Edge 40, Type (0, 0), None
#     Edge 41, Type (0, 0), None
#     Edge 42, Type (0, 0), None
#     Edge 43, Type (0, 0), None
#     Edge 44, Type (0, 0), None
#     Edge 45, Type (0, 0), None
#     Edge 46, Type (0, 0), None
#     Edge 47, Type (0, 0), None
#     Edge 48, Type (0, 0), None
#     Edge 49, Type (0, 0), None
#     Edge 50, Type (0, 0), None
#     Edge 51, Type (0, 0), None
#     Edge 52, Type (0, 0), None
#     Edge 53, Type (0, 0), None
#     Edge 54, Type (0, 0), None
#     Edge 55, Type (0, 0), None
#     Edge 56, Type (0, 0), None
#     Edge 57, Type (0, 0), None
#     Edge 58, Type (0, 0), None
#     Edge 59, Type (0, 0), None
#     Edge 60, Type (0, 0), None
#     Edge 61, Type (0, 0), None
#     Edge 62, Type (0, 0), None
#     Edge 63, Type (0, 0), None
#     Edge 64, Type (0, 0), None
#     Edge 65, Type (0, 0), None
#     Edge 66, Type (0, 0), None
#     Edge 67, Type (0, 0), None
#     Edge 68, Type (0, 0), None
#     Edge 69, Type (0, 0), None
#     Edge 70, Type (0, 0), None
#     Edge 71, Type (0, 0), None
#     Edge 72, Type (0, 0), None
#     Edge 73, Type (0, 0), None
#     Edge 74, Type (0, 0), None
#     Edge 75, Type (0, 0), None
#     Edge 76, Type (0, 0), None
#     Edge 77, Type (0, 0), None
#     Edge 78, Type (0, 0), None
#     Edge 79, Type (0, 0), None
#     Edge 80, Type (0, 0), None
#     Edge 81, Type (0, 0), None
#     Edge 82, Type (0, 0), None
#     Edge 83, Type (0, 0), None
#     Edge 84, Type (0, 0), None
#     Edge 85, Type (0, 0), None
#     Edge 86, Type (0, 0), None
#     Edge 87, Type (0, 0), None
#     Edge 88, Type (0, 0), None
#     Edge 89, Type (0, 0), None
#     Edge 90, Type (0, 0), None
#     Edge 91, Type (0, 0), None
#     Edge 92, Type (0, 0), None
#     Edge 93, Type (0, 0), None
#     Edge 94, Type (0, 0), None
#     Edge 95, Type (0, 0), None
#     Edge 96, Type (0, 0), None
#     Edge 97, Type (0, 0), None
#     Edge 98, Type (0, 0), None
#     Edge 99, Type (0, 0), None
#     Edge 100, Type (0, 0), None
#     Edge 101, Type (0, 0), None
#     Edge 102, Type (0, 0), None
#     Edge 103, Type (0, 0), None
#     Edge 104, Type (0, 0), None
#     Edge 105, Type (0, 0), None
#     Edge 106, Type (0, 0), None
#     Edge 107, Type (0, 0), None
#     Edge 108, Type (0, 0), None
#     Edge 109, Type (0, 0), None
#     Edge 110, Type (0, 0), None
#     Edge 111, Type (0, 0), None
#     Edge 112, Type (0, 0), None
#     Edge 113, Type (0, 0), None
#     Edge 114, Type (0, 0), None
#     Edge 115, Type (0, 0), None
#     Edge 116, Type (0, 0), None
#     Edge 117, Type (0, 0), None
#     Edge 118, Type (0, 0), None
#     Edge 119, Type (0, 0), None
#     Edge 120, Type (0, 0), None
#     Edge 121, Type (0, 0), None
#     Edge 122, Type (0, 0), None
#     Edge 123, Type (0, 0), None
#     Edge 124, Type (0, 0), None
#     Edge 125, Type (0, 0), None
# Relax obj value: 0.107
# Max RMSD: 0.177
# Mean RMSD: 0.177
data_MOF--net-wlq--node1-XOMCOT_clean_sbu_0--edge1-none
_symmetry_space_group_name_H-M    P1
_symmetry_Int_Tables_number       1
_symmetry_cell_setting            triclinic
loop_
_symmetry_equiv_pos_as_xyz
'x, y, z'
_cell_length_a     36.474453
_cell_length_b     36.473929
_cell_length_c     18.672269
_cell_angle_alpha  89.996194
_cell_angle_beta   90.007936
_cell_angle_gamma 119.99864
loop_
_atom_site_label
_atom_site_type_symbol
_atom_site_fract_x
_atom_site_fract_y
_atom_site_fract_z
_atom_type_partial_charge
Co0 Co 0.25766 0.24433 0.04621 0.0
C1 C 0.27921 0.25712 0.2027 0.0
C2 C 0.24417 0.28724 0.17079 0.0
C3 C 0.25016 0.29191 0.24358 0.0
N4 N 0.26181 0.26491 0.14459 0.0
N5 N 0.27209 0.27303 0.26314 0.0
H6 H 0.29532 0.23904 0.20164 0.0
H7 H 0.2273 0.2992 0.1402 0.0
C8 C 0.33728 0.30545 0.97716 0.0
O9 O 0.31326 0.30629 0.92561 0.0
N10 N 0.25348 0.22305 0.94887 0.0
C11 C 0.27891 0.21036 0.91814 0.0
C12 C 0.26975 0.20343 0.84634 0.0
C13 C 0.22893 0.22314 0.89484 0.0
N14 N 0.23851 0.21179 0.83216 0.0
C15 C 0.22713 0.15932 0.08989 0.0
C16 C 0.30241 0.15874 0.07881 0.0
C17 C 0.2641 0.12012 0.07921 0.0
C18 C 0.22651 0.1209 0.08895 0.0
C19 C 0.30163 0.19699 0.0796 0.0
N20 N 0.26386 0.19668 0.07957 0.0
H21 H 0.19719 0.15827 0.09379 0.0
H22 H 0.33123 0.22626 0.07392 0.0
H23 H 0.30507 0.20978 0.94378 0.0
H24 H 0.20671 0.23423 0.89925 0.0
O25 O 0.19674 0.21766 0.05057 0.0
O26 O 0.23839 0.28318 1.01366 0.0
O27 O 0.32062 0.28267 0.03299 0.0
C28 C 0.20003 0.25241 0.02601 0.0
H29 H 0.23912 0.30768 0.2794 0.0
H30 H 0.28714 0.1963 0.80716 0.0
H31 H 0.3323 0.15945 0.07297 0.0
H32 H 0.19631 0.09182 0.09245 0.0
Co33 Co 0.79972 0.02173 0.04621 0.0
C34 C 0.78693 0.03049 0.2027 0.0
C35 C 0.75682 0.96533 0.1708 0.0
C36 C 0.75215 0.96665 0.2436 0.0
N37 N 0.77914 1.0053 0.1446 0.0
N38 N 0.77102 1.00746 0.26314 0.0
H39 H 0.805 0.06468 0.20163 0.0
H40 H 0.74487 0.9365 0.14023 0.0
C41 C 0.73859 0.04023 0.97717 0.0
O42 O 0.73774 1.01537 0.92563 0.0
N43 N 0.82099 0.03884 0.94887 0.0
C44 C 0.83366 0.07695 0.91813 0.0
C45 C 0.8406 0.07473 0.84634 0.0
C46 C 0.82092 1.0142 0.89485 0.0
N47 N 0.83225 0.03512 0.83217 0.0
C48 C 0.88473 0.0762 0.08987 0.0
C49 C 0.88531 0.15206 0.07879 0.0
C50 C 0.92393 0.15238 0.07918 0.0
C51 C 0.92315 0.11401 0.08892 0.0
C52 C 0.84707 0.11305 0.07959 0.0
N53 N 0.84738 0.07558 0.07957 0.0
H54 H 0.88579 0.04731 0.09376 0.0
H55 H 0.81779 0.11336 0.07392 0.0
H56 H 0.83423 0.10368 0.94377 0.0
H57 H 0.80984 0.98089 0.89927 0.0
O58 O 0.82638 0.98747 0.05058 0.0
O59 O 0.76086 0.96361 1.01367 0.0
O60 O 0.76138 0.04636 0.03299 0.0
C61 C 0.79163 0.95602 0.02602 0.0
H62 H 0.73639 0.93984 0.27942 0.0
H63 H 0.84771 0.09923 0.80715 0.0
H64 H 0.8846 0.18124 0.07296 0.0
H65 H 0.95224 0.11289 0.09241 0.0
Co66 Co 1.02232 0.7864 0.04622 0.0
C67 C 1.01355 0.76484 0.20271 0.0
C68 C 0.07871 0.79989 0.17082 0.0
C69 C 0.07739 0.79389 0.24362 0.0
N70 N 0.03875 0.78225 0.14461 0.0
N71 N 0.03659 0.77196 0.26315 0.0
H72 H 0.97937 0.74874 0.20163 0.0
H73 H 0.10755 0.81676 0.14025 0.0
C74 C 1.00381 0.70678 0.97717 0.0
O75 O 0.02866 0.73079 0.92562 0.0
N76 N 1.00521 0.79058 0.94887 0.0
C77 C 0.9671 0.76516 0.91813 0.0
C78 C 0.96933 0.77432 0.84633 0.0
C79 C 0.02986 0.81512 0.89485 0.0
N80 N 1.00894 0.80555 0.83216 0.0
C81 C 0.96784 0.81694 0.08986 0.0
C82 C 0.89199 0.74165 0.07882 0.0
C83 C 0.89166 0.77996 0.07921 0.0
C84 C 0.93003 0.81755 0.08893 0.0
C85 C 0.931 0.74243 0.0796 0.0
N86 N 0.96846 0.7802 0.07957 0.0
H87 H 0.99673 0.84688 0.09374 0.0
H88 H 0.93069 0.71284 0.07393 0.0
H89 H 0.94035 0.73901 0.94377 0.0
H90 H 0.06318 0.83734 0.89927 0.0
O91 O 0.05658 0.84732 0.0506 0.0
O92 O 0.08043 0.80567 1.0137 0.0
O93 O 0.99769 0.72344 0.03299 0.0
C94 C 0.08803 0.84402 0.02605 0.0
H95 H 0.1042 0.80493 0.27945 0.0
H96 H 0.94481 0.75694 0.80714 0.0
H97 H 0.8628 0.71176 0.07299 0.0
H98 H 0.93115 0.84775 0.09242 0.0
Co99 Co 0.25734 0.24943 0.55109 0.0
C100 C 0.25979 0.26454 0.39339 0.0
C101 C 0.31502 0.26336 0.42933 0.0
C102 C 0.31713 0.26748 0.35571 0.0
N103 N 0.27888 0.2611 0.45312 0.0
N104 N 0.28252 0.2684 0.33398 0.0
H105 H 0.22941 0.26295 0.39246 0.0
H106 H 0.33797 0.26119 0.46274 0.0
C107 C 0.3139 0.32738 0.63399 0.0
O108 O 0.31381 0.30304 0.6857 0.0
N109 N 0.2352 0.23744 0.6485 0.0
C110 C 0.2111 0.25137 0.6803 0.0
C111 C 0.20581 0.24007 0.75113 0.0
C112 C 0.24418 0.21774 0.7012 0.0
N113 N 0.22702 0.21938 0.76409 0.0
C114 C 0.1709 0.21995 0.5205 0.0
C115 C 0.17281 0.29672 0.52108 0.0
C116 C 0.13354 0.25905 0.52467 0.0
C117 C 0.13318 0.22059 0.52108 0.0
C118 C 0.21055 0.29475 0.52074 0.0
N119 N 0.2091 0.25644 0.52433 0.0
H120 H 0.16874 0.18946 0.52236 0.0
H121 H 0.24048 0.32399 0.5219 0.0
H122 H 0.20004 0.27081 0.65586 0.0
H123 H 0.26549 0.20546 0.69556 0.0
O124 O 0.23214 0.18971 0.5333 0.0
O125 O 0.29698 0.22922 0.57454 0.0
O126 O 0.29383 0.31149 0.57547 0.0
C127 C 0.26667 0.19175 0.55588 0.0
H128 H 0.34194 0.26973 0.32107 0.0
H129 H 0.19026 0.24927 0.79064 0.0
H130 H 0.17444 0.3272 0.52224 0.0
H131 H 0.10371 0.19064 0.52142 0.0
Co132 Co 0.79462 1.01631 0.55109 0.0
C133 C 0.77951 1.00365 0.3934 0.0
C134 C 0.78068 0.06005 0.42931 0.0
C135 C 0.77656 0.05805 0.35569 0.0
N136 N 0.78295 0.02619 0.45312 0.0
N137 N 0.77565 0.02253 0.33397 0.0
H138 H 0.78111 0.97487 0.39247 0.0
H139 H 0.78284 0.08518 0.46271 0.0
C140 C 0.71668 0.99494 0.63398 0.0
O141 O 0.74102 0.01919 0.68569 0.0
N142 N 0.80661 1.00617 0.64851 0.0
C143 C 0.79269 0.96814 0.68032 0.0
C144 C 0.80399 0.97415 0.75115 0.0
C145 C 0.82631 0.03485 0.70121 0.0
N146 N 0.82467 1.01605 0.7641 0.0
C147 C 0.82409 0.95935 0.52053 0.0
C148 C 0.74732 0.88449 0.52109 0.0
C149 C 0.78499 0.88289 0.52468 0.0
C150 C 0.82345 0.92099 0.5211 0.0
C151 C 0.74929 0.9242 0.52076 0.0
N152 N 0.78761 0.96106 0.52435 0.0
H153 H 0.85459 0.98768 0.5224 0.0
H154 H 0.72006 0.92491 0.52191 0.0
H155 H 0.77325 0.93764 0.65588 0.0
H156 H 0.83858 0.06843 0.69556 0.0
O157 O 0.85434 0.05083 0.5333 0.0
O158 O 0.81483 0.07617 0.57452 0.0
O159 O 0.73256 0.99075 0.57547 0.0
C160 C 0.85231 0.08333 0.55587 0.0
H161 H 0.77431 0.08061 0.32104 0.0
H162 H 0.79479 0.9494 0.79067 0.0
H163 H 0.71685 0.85566 0.52225 0.0
H164 H 0.8534 0.92146 0.52144 0.0
Co165 Co 0.02773 0.78672 0.5511 0.0
C166 C 0.04039 0.78427 0.39341 0.0
C167 C 0.98398 0.72904 0.42932 0.0
C168 C 0.98598 0.72692 0.3557 0.0
N169 N 1.01785 0.76518 0.45313 0.0
N170 N 1.02151 0.76153 0.33399 0.0
H171 H 0.06918 0.81464 0.39248 0.0
H172 H 0.95885 0.70609 0.46272 0.0
C173 C 0.0491 0.73013 0.63398 0.0
O174 O 1.02484 0.73022 0.68567 0.0
N175 N 0.03788 0.80885 0.64852 0.0
C176 C 0.07592 0.83294 0.68033 0.0
C177 C 0.06992 0.83823 0.75116 0.0
C178 C 1.0092 0.79988 0.70121 0.0
N179 N 0.02801 0.81703 0.7641 0.0
C180 C 0.08469 0.87316 0.52056 0.0
C181 C 0.15954 0.87123 0.52109 0.0
C182 C 0.16114 0.91051 0.52469 0.0
C183 C 0.12304 0.91087 0.52114 0.0
C184 C 0.11983 0.8335 0.52075 0.0
N185 N 0.08297 0.83496 0.52436 0.0
H186 H 0.05636 0.87532 0.52245 0.0
H187 H 0.11913 0.80356 0.52189 0.0
H188 H 0.10641 0.84398 0.6559 0.0
H189 H 0.97562 0.77859 0.69555 0.0
O190 O 0.99321 0.81192 0.53331 0.0
O191 O 0.96788 0.74707 0.57454 0.0
O192 O 0.0533 0.75022 0.57548 0.0
C193 C 0.96071 0.77738 0.55589 0.0
H194 H 0.96342 0.70211 0.32105 0.0
H195 H 0.09467 0.85377 0.79068 0.0
H196 H 0.18838 0.8696 0.52222 0.0
H197 H 0.12257 0.94034 0.5215 0.0
Co198 Co 0.79547 0.79064 0.04431 0.0
C199 C 0.77391 0.77785 0.88781 0.0
C200 C 0.80895 0.74772 0.91973 0.0
C201 C 0.80296 0.74305 0.84693 0.0
N202 N 0.79131 0.77005 0.94592 0.0
N203 N 0.78103 0.76193 0.82738 0.0
H204 H 0.75781 0.79593 0.88887 0.0
H205 H 0.82583 0.73577 0.95032 0.0
C206 C 0.71585 0.72952 0.11335 0.0
O207 O 0.73986 0.72868 0.16491 0.0
N208 N 0.79964 0.81192 0.14165 0.0
C209 C 0.77422 0.82461 0.17238 0.0
C210 C 0.78338 0.83155 0.24417 0.0
C211 C 0.82419 0.81183 0.19568 0.0
N212 N 0.81462 0.82318 0.25836 0.0
C213 C 0.826 0.87565 1.00063 0.0
C214 C 0.75072 0.87623 1.0117 0.0
C215 C 0.78903 0.91485 1.01131 0.0
C216 C 0.82662 0.91407 1.00157 0.0
C217 C 0.75149 0.83798 1.01091 0.0
N218 N 0.78927 0.83829 1.01094 0.0
H219 H 0.85594 0.8767 0.99675 0.0
H220 H 0.7219 0.80871 1.01659 0.0
H221 H 0.74807 0.8252 0.14673 0.0
H222 H 0.84641 0.80072 0.19128 0.0
O223 O 0.85639 0.8173 0.03995 0.0
O224 O 0.81474 0.75179 0.07685 0.0
O225 O 0.7325 0.7523 0.05753 0.0
C226 C 0.85309 0.78255 0.0645 0.0
H227 H 0.814 0.72729 0.81112 0.0
H228 H 0.766 0.83868 0.28335 0.0
H229 H 0.72083 0.87552 1.01753 0.0
H230 H 0.85682 0.94315 0.99808 0.0
Co231 Co 0.2534 1.01324 0.0443 0.0
C232 C 0.2662 1.00447 0.88782 0.0
C233 C 0.2963 0.06964 0.91971 0.0
C234 C 0.30097 0.06832 0.84692 0.0
N235 N 0.27398 0.02967 0.94592 0.0
N236 N 0.28211 0.02751 0.82738 0.0
H237 H 0.24812 0.97029 0.88889 0.0
H238 H 0.30826 0.09847 0.95029 0.0
C239 C 0.31453 0.99474 0.11334 0.0
O240 O 0.31538 0.0196 0.16489 0.0
N241 N 0.23214 0.99613 0.14165 0.0
C242 C 0.21946 0.95802 0.17238 0.0
C243 C 0.21252 0.96024 0.24418 0.0
C244 C 0.23221 0.02077 0.19567 0.0
N245 N 0.22087 0.99985 0.25835 0.0
C246 C 0.16839 0.95877 1.00065 0.0
C247 C 0.16782 0.88291 1.01172 0.0
C248 C 0.12919 0.88259 1.01134 0.0
C249 C 0.12997 0.92096 1.00161 0.0
C250 C 0.20606 0.92192 1.01092 0.0
N251 N 0.20575 0.95939 1.01095 0.0
H252 H 0.16734 0.98766 0.99677 0.0
H253 H 0.23533 0.92161 1.01658 0.0
H254 H 0.21888 0.93128 0.14675 0.0
H255 H 0.2433 0.05409 0.19125 0.0
O256 O 0.22675 0.0475 0.03994 0.0
O257 O 0.29226 0.07136 0.07684 0.0
O258 O 0.29174 0.9886 0.05753 0.0
C259 C 0.2615 0.07895 0.0645 0.0
H260 H 0.31674 0.09512 0.8111 0.0
H261 H 0.2054 0.93573 0.28336 0.0
H262 H 0.16853 0.85373 1.01754 0.0
H263 H 0.10089 0.92208 0.99812 0.0
Co264 Co 0.03081 0.24856 0.04429 0.0
C265 C 0.03957 0.27013 0.88781 0.0
C266 C 0.97441 0.23508 0.91969 0.0
C267 C 0.97573 0.24108 0.8469 0.0
N268 N 1.01438 0.25272 0.9459 0.0
N269 N 1.01654 0.26301 0.82736 0.0
H270 H 0.07376 0.28623 0.88888 0.0
H271 H 0.94558 0.21821 0.95026 0.0
C272 C 0.04932 0.32819 0.11335 0.0
O273 O 1.02447 0.30418 0.1649 0.0
N274 N 0.04791 0.24439 0.14164 0.0
C275 C 0.08603 0.2698 0.17238 0.0
C276 C 0.0838 0.26064 0.24418 0.0
C277 C 1.02326 0.21984 0.19566 0.0
N278 N 0.04419 0.22941 0.25835 0.0
C279 C 0.08528 0.21802 1.00066 0.0
C280 C 0.16113 0.29331 1.01169 0.0
C281 C 0.16146 0.25501 1.01131 0.0
C282 C 0.12309 0.21741 1.00159 0.0
C283 C 0.12212 0.29254 1.01091 0.0
N284 N 0.08466 0.25476 1.01095 0.0
H285 H 0.05639 0.18808 0.99679 0.0
H286 H 0.12244 0.32213 1.01657 0.0
H287 H 0.11278 0.29594 0.14674 0.0
H288 H 0.98994 0.19764 0.19125 0.0
O289 O 0.99655 0.18764 0.03992 0.0
O290 O 0.97269 0.2293 0.07682 0.0
O291 O 0.05544 0.31153 0.05752 0.0
C292 C 0.9651 0.19095 0.06447 0.0
H293 H 0.94893 0.23004 0.81107 0.0
H294 H 0.10831 0.27802 0.28337 0.0
H295 H 0.19032 0.32321 1.01751 0.0
H296 H 0.12197 0.18721 0.99811 0.0
Co297 Co 0.79579 0.78553 0.53943 0.0
C298 C 0.79333 0.77042 0.69712 0.0
C299 C 0.73811 0.77161 0.66119 0.0
C300 C 0.736 0.7675 0.73481 0.0
N301 N 0.77424 0.77387 0.6374 0.0
N302 N 0.7706 0.76657 0.75654 0.0
H303 H 0.82371 0.772 0.69806 0.0
H304 H 0.71516 0.77379 0.62778 0.0
C305 C 0.73922 0.70759 0.45653 0.0
O306 O 0.73932 0.73193 0.40481 0.0
N307 N 0.81793 0.79753 0.44202 0.0
C308 C 0.84204 0.78361 0.41022 0.0
C309 C 0.84733 0.79491 0.3394 0.0
C310 C 0.80894 0.81722 0.38931 0.0
N311 N 0.82611 0.81559 0.32643 0.0
C312 C 0.88223 0.81501 0.57004 0.0
C313 C 0.88031 0.73824 0.56943 0.0
C314 C 0.91958 0.77591 0.56585 0.0
C315 C 0.91994 0.81437 0.56946 0.0
C316 C 0.84257 0.74021 0.56977 0.0
N317 N 0.84402 0.77853 0.56619 0.0
H318 H 0.88438 0.84551 0.5682 0.0
H319 H 0.81264 0.71098 0.5686 0.0
H320 H 0.85311 0.76418 0.43467 0.0
H321 H 0.78763 0.82949 0.39495 0.0
O322 O 0.82099 0.84526 0.55722 0.0
O323 O 0.75615 0.80575 0.51598 0.0
O324 O 0.75929 0.72348 0.51504 0.0
C325 C 0.78646 0.84323 0.53462 0.0
H326 H 0.71119 0.76525 0.76945 0.0
H327 H 0.86289 0.78572 0.29989 0.0
H328 H 0.87868 0.70777 0.56825 0.0
H329 H 0.94941 0.84432 0.56913 0.0
Co330 Co 0.25851 0.01866 0.53943 0.0
C331 C 0.27362 0.03131 0.69712 0.0
C332 C 0.27244 0.97491 0.66121 0.0
C333 C 0.27656 0.97691 0.73483 0.0
N334 N 0.27017 1.00878 0.6374 0.0
N335 N 0.27747 1.01244 0.75654 0.0
H336 H 0.27202 0.0601 0.69804 0.0
H337 H 0.27027 0.94978 0.6278 0.0
C338 C 0.33645 0.04003 0.45654 0.0
O339 O 0.3121 1.01578 0.40482 0.0
N340 N 0.24651 0.0288 0.442 0.0
C341 C 0.26042 0.06683 0.4102 0.0
C342 C 0.24912 0.06082 0.33937 0.0
C343 C 0.22682 1.00012 0.3893 0.0
N344 N 0.22845 0.01892 0.32642 0.0
C345 C 0.22904 0.07562 0.57001 0.0
C346 C 0.30581 0.15048 0.56941 0.0
C347 C 0.26814 0.15208 0.56584 0.0
C348 C 0.22968 0.11398 0.56944 0.0
C349 C 0.30384 0.11077 0.56975 0.0
N350 N 0.26552 0.07391 0.56617 0.0
H351 H 0.19854 0.04729 0.56816 0.0
H352 H 0.33307 0.11006 0.56858 0.0
H353 H 0.27985 0.09733 0.43464 0.0
H354 H 0.21456 0.96654 0.39495 0.0
O355 O 0.19878 0.98414 0.55722 0.0
O356 O 0.23829 0.9588 0.51599 0.0
O357 O 0.32056 0.04421 0.51504 0.0
C358 C 0.20081 0.95164 0.53463 0.0
H359 H 0.27881 0.95435 0.76948 0.0
H360 H 0.25831 0.08557 0.29986 0.0
H361 H 0.33629 0.17931 0.56825 0.0
H362 H 0.19974 0.11351 0.56911 0.0
Co363 Co 1.02539 0.24825 0.53942 0.0
C364 C 1.01274 0.2507 0.69711 0.0
C365 C 0.06915 0.30592 0.6612 0.0
C366 C 0.06714 0.30804 0.73481 0.0
N367 N 0.03528 0.26979 0.63739 0.0
N368 N 0.03161 0.27343 0.75653 0.0
H369 H 0.98395 0.22033 0.69803 0.0
H370 H 0.09428 0.32888 0.6278 0.0
C371 C 1.00403 0.30483 0.45653 0.0
O372 O 0.02828 0.30474 0.40484 0.0
N373 N 1.01524 0.22611 0.442 0.0
C374 C 0.97721 0.20202 0.41019 0.0
C375 C 0.98321 0.19673 0.33936 0.0
C376 C 0.04392 0.2351 0.3893 0.0
N377 N 1.02511 0.21793 0.32641 0.0
C378 C 0.96843 0.16181 0.56998 0.0
C379 C 0.89358 0.16374 0.56942 0.0
C380 C 0.89198 0.12446 0.56583 0.0
C381 C 0.93008 0.1241 0.5694 0.0
C382 C 0.93329 0.20147 0.56976 0.0
N383 N 0.97015 0.20001 0.56616 0.0
H384 H 0.99676 0.15965 0.56811 0.0
H385 H 0.93399 0.23141 0.5686 0.0
H386 H 0.94671 0.19096 0.43463 0.0
H387 H 0.0775 0.25639 0.39496 0.0
O388 O 0.05992 0.22305 0.55721 0.0
O389 O 0.08524 0.28789 0.51598 0.0
O390 O 0.99983 0.28475 0.51504 0.0
C391 C 0.09241 0.25758 0.53462 0.0
H392 H 0.08971 0.33285 0.76946 0.0
H393 H 0.95846 0.18118 0.29985 0.0
H394 H 0.86474 0.16537 0.56827 0.0
H395 H 0.93055 0.09462 0.56906 0.0
Co396 Co 0.92433 0.57766 0.37954 0.0
C397 C 0.94588 0.59045 0.53603 0.0
C398 C 0.91084 0.62058 0.50412 0.0
C399 C 0.91683 0.62524 0.57691 0.0
N400 N 0.92848 0.59825 0.47792 0.0
N401 N 0.93876 0.60637 0.59647 0.0
H402 H 0.96199 0.57237 0.53498 0.0
H403 H 0.89396 0.63253 0.47353 0.0
C404 C 1.00395 0.63878 0.3105 0.0
O405 O 0.97993 0.63962 0.25894 0.0
N406 N 0.92015 0.55638 0.2822 0.0
C407 C 0.94558 0.5437 0.25147 0.0
C408 C 0.93642 0.53676 0.17967 0.0
C409 C 0.8956 0.55647 0.22817 0.0
N410 N 0.90517 0.54513 0.16549 0.0
C411 C 0.89379 0.49265 0.42322 0.0
C412 C 0.96907 0.49208 0.41214 0.0
C413 C 0.93077 0.45345 0.41254 0.0
C414 C 0.89318 0.45423 0.42228 0.0
C415 C 0.9683 0.53032 0.41293 0.0
N416 N 0.93053 0.53001 0.41291 0.0
H417 H 0.86385 0.4916 0.42712 0.0
H418 H 0.99789 0.55959 0.40725 0.0
H419 H 0.97174 0.54311 0.27711 0.0
H420 H 0.87337 0.56757 0.23258 0.0
O421 O 0.8634 0.551 0.3839 0.0
O422 O 0.90505 0.61651 0.34699 0.0
O423 O 0.98729 0.616 0.36632 0.0
C424 C 0.8667 0.58575 0.35935 0.0
H425 H 0.90579 0.64101 0.61273 0.0
H426 H 0.9538 0.52964 0.14049 0.0
H427 H 0.99897 0.49279 0.40631 0.0
H428 H 0.86298 0.42515 0.42578 0.0
Co429 Co 0.46639 0.35506 0.37955 0.0
C430 C 0.4536 0.36383 0.53603 0.0
C431 C 0.42349 0.29866 0.50414 0.0
C432 C 0.41882 0.29998 0.57693 0.0
N433 N 0.44581 0.33863 0.47793 0.0
N434 N 0.43769 0.34079 0.59647 0.0
H435 H 0.47167 0.39801 0.53496 0.0
H436 H 0.41154 0.26983 0.47356 0.0
C437 C 0.40526 0.37356 0.31051 0.0
O438 O 0.40441 0.3487 0.25896 0.0
N439 N 0.48766 0.37217 0.2822 0.0
C440 C 0.50033 0.41028 0.25147 0.0
C441 C 0.50726 0.40806 0.17967 0.0
C442 C 0.48758 0.34754 0.22819 0.0
N443 N 0.49892 0.36846 0.1655 0.0
C444 C 0.5514 0.40953 0.4232 0.0
C445 C 0.55197 0.48539 0.41213 0.0
C446 C 0.5906 0.48571 0.41252 0.0
C447 C 0.58982 0.44734 0.42225 0.0
C448 C 0.51373 0.44638 0.41293 0.0
N449 N 0.51404 0.40892 0.4129 0.0
H450 H 0.55245 0.38064 0.42709 0.0
H451 H 0.48446 0.4467 0.40725 0.0
H452 H 0.5009 0.43702 0.2771 0.0
H453 H 0.4765 0.31422 0.2326 0.0
O454 O 0.49305 0.3208 0.38391 0.0
O455 O 0.42753 0.29695 0.34701 0.0
O456 O 0.42805 0.3797 0.36633 0.0
C457 C 0.45829 0.28935 0.35936 0.0
H458 H 0.40306 0.27318 0.61275 0.0
H459 H 0.51438 0.43257 0.14048 0.0
H460 H 0.55126 0.51458 0.40629 0.0
H461 H 0.6189 0.44622 0.42574 0.0
Co462 Co 0.68898 0.11974 0.37955 0.0
C463 C 0.68022 0.09818 0.53604 0.0
C464 C 0.74538 0.13322 0.50416 0.0
C465 C 0.74406 0.12723 0.57695 0.0
N466 N 0.70541 0.11558 0.47794 0.0
N467 N 0.70325 0.1053 0.59649 0.0
H468 H 0.64603 0.08207 0.53497 0.0
H469 H 0.77421 0.15009 0.47359 0.0
C470 C 0.67047 0.04011 0.3105 0.0
O471 O 0.69533 0.06412 0.25895 0.0
N472 N 0.67188 0.12391 0.28221 0.0
C473 C 0.63376 0.09849 0.25147 0.0
C474 C 0.63599 0.10765 0.17967 0.0
C475 C 0.69652 0.14846 0.22819 0.0
N476 N 0.6756 0.13888 0.1655 0.0
C477 C 0.63451 0.15027 0.4232 0.0
C478 C 0.55866 0.07499 0.41215 0.0
C479 C 0.55833 0.11329 0.41254 0.0
C480 C 0.5967 0.15088 0.42227 0.0
C481 C 0.59767 0.07576 0.41293 0.0
N482 N 0.63513 0.11354 0.4129 0.0
H483 H 0.6634 0.18022 0.42707 0.0
H484 H 0.59735 0.04617 0.40726 0.0
H485 H 0.60702 0.07235 0.2771 0.0
H486 H 0.72984 0.17067 0.2326 0.0
O487 O 0.72324 0.18066 0.38393 0.0
O488 O 0.7471 0.139 0.34703 0.0
O489 O 0.66435 0.05677 0.36632 0.0
C490 C 0.75469 0.17736 0.35938 0.0
H491 H 0.77086 0.13827 0.61278 0.0
H492 H 0.61148 0.09027 0.14048 0.0
H493 H 0.52947 0.04509 0.40633 0.0
H494 H 0.59782 0.18108 0.42576 0.0
Co495 Co 0.924 0.58277 0.88442 0.0
C496 C 0.92646 0.59787 0.72673 0.0
C497 C 0.98168 0.59669 0.76266 0.0
C498 C 0.9838 0.60081 0.68904 0.0
N499 N 0.94555 0.59443 0.78645 0.0
N500 N 0.94919 0.60173 0.66731 0.0
H501 H 0.89608 0.59629 0.72579 0.0
H502 H 1.00464 0.59452 0.79607 0.0
C503 C 0.98057 0.66071 0.96732 0.0
O504 O 0.98048 0.63637 1.01903 0.0
N505 N 0.90187 0.57077 0.98183 0.0
C506 C 0.87776 0.5847 1.01363 0.0
C507 C 0.87247 0.5734 0.08446 0.0
C508 C 0.91085 0.55107 0.03454 0.0
N509 N 0.89369 0.55271 0.09742 0.0
C510 C 0.83757 0.55328 0.85384 0.0
C511 C 0.83948 0.63006 0.85441 0.0
C512 C 0.80021 0.59238 0.858 0.0
C513 C 0.79985 0.55392 0.85442 0.0
C514 C 0.87722 0.62809 0.85407 0.0
N515 N 0.87577 0.58977 0.85766 0.0
H516 H 0.83541 0.52279 0.85569 0.0
H517 H 0.90715 0.65732 0.85523 0.0
H518 H 0.86671 0.60414 0.98919 0.0
H519 H 0.93215 0.5388 0.02889 0.0
O520 O 0.8988 0.52304 0.86663 0.0
O521 O 0.96365 0.56255 0.90787 0.0
O522 O 0.9605 0.64482 0.9088 0.0
C523 C 0.93334 0.52508 0.88921 0.0
H524 H 1.00861 0.60306 0.6544 0.0
H525 H 0.85692 0.5826 0.12397 0.0
H526 H 0.84111 0.66053 0.85557 0.0
H527 H 0.77038 0.52398 0.85475 0.0
Co528 Co 0.46128 0.34964 0.88442 0.0
C529 C 0.44618 0.33699 0.72673 0.0
C530 C 0.44734 0.39339 0.76265 0.0
C531 C 0.44323 0.39138 0.68903 0.0
N532 N 0.44962 0.35952 0.78645 0.0
N533 N 0.44232 0.35586 0.66731 0.0
H534 H 0.44778 0.30821 0.72581 0.0
H535 H 0.44951 0.41851 0.79605 0.0
C536 C 0.38335 0.32828 0.96731 0.0
O537 O 0.40769 0.35252 1.01902 0.0
N538 N 0.47328 0.3395 0.98185 0.0
C539 C 0.45936 0.30147 1.01365 0.0
C540 C 0.47065 0.30748 0.08448 0.0
C541 C 0.49298 0.36819 0.03455 0.0
N542 N 0.49134 0.34938 0.09744 0.0
C543 C 0.49076 0.29268 0.85387 0.0
C544 C 0.41398 0.21783 0.85443 0.0
C545 C 0.45166 0.21623 0.85801 0.0
C546 C 0.49012 0.25433 0.85444 0.0
C547 C 0.41596 0.25754 0.85409 0.0
N548 N 0.45428 0.2944 0.85769 0.0
H549 H 0.52125 0.32101 0.85573 0.0
H550 H 0.38673 0.25824 0.85525 0.0
H551 H 0.43992 0.27097 0.98922 0.0
H552 H 0.50525 0.40176 0.02889 0.0
O553 O 0.52101 0.38416 0.86664 0.0
O554 O 0.4815 0.4095 0.90786 0.0
O555 O 0.39923 0.32409 0.90881 0.0
C556 C 0.51898 0.41666 0.88921 0.0
H557 H 0.44097 0.41394 0.65437 0.0
H558 H 0.46146 0.28273 0.124 0.0
H559 H 0.38351 0.18899 0.85558 0.0
H560 H 0.52006 0.2548 0.85478 0.0
Co561 Co 0.6944 0.12005 0.88443 0.0
C562 C 0.70705 0.1176 0.72674 0.0
C563 C 0.65065 0.06238 0.76265 0.0
C564 C 0.65265 0.06026 0.68904 0.0
N565 N 0.68452 0.09851 0.78646 0.0
N566 N 0.68818 0.09487 0.66732 0.0
H567 H 0.73584 0.14797 0.72582 0.0
H568 H 0.62552 0.03942 0.79605 0.0
C569 C 0.71576 0.06347 0.96731 0.0
O570 O 0.6915 0.06355 1.019 0.0
N571 N 0.70455 0.14218 0.98185 0.0
C572 C 0.74259 0.16627 1.01366 0.0
C573 C 0.73658 0.17156 0.08449 0.0
C574 C 0.67587 0.13321 0.03454 0.0
N575 N 0.69468 0.15036 0.09744 0.0
C576 C 0.75136 0.20649 0.8539 0.0
C577 C 0.82621 0.20457 0.85442 0.0
C578 C 0.82781 0.24384 0.85803 0.0
C579 C 0.78971 0.24421 0.85447 0.0
C580 C 0.7865 0.16683 0.85408 0.0
N581 N 0.74964 0.16829 0.85769 0.0
H582 H 0.72302 0.20865 0.85578 0.0
H583 H 0.7858 0.1369 0.85522 0.0
H584 H 0.77308 0.17731 0.98923 0.0
H585 H 0.64229 0.11192 0.02889 0.0
O586 O 0.65987 0.14525 0.86664 0.0
O587 O 0.63455 0.08041 0.90787 0.0
O588 O 0.71996 0.08356 0.90881 0.0
C589 C 0.62738 0.11072 0.88922 0.0
H590 H 0.63009 0.03545 0.65439 0.0
H591 H 0.76133 0.1871 0.12401 0.0
H592 H 0.85505 0.20293 0.85556 0.0
H593 H 0.78924 0.27368 0.85483 0.0
Co594 Co 0.46213 0.12397 0.37764 0.0
C595 C 0.44058 0.11118 0.22115 0.0
C596 C 0.47562 0.08106 0.25306 0.0
C597 C 0.46963 0.07639 0.18027 0.0
N598 N 0.45798 0.10339 0.27926 0.0
N599 N 0.4477 0.09526 0.16071 0.0
H600 H 0.42447 0.12926 0.22221 0.0
H601 H 0.49249 0.0691 0.28365 0.0
C602 C 0.38251 0.06286 0.44669 0.0
O603 O 0.40653 0.06201 0.49824 0.0
N604 N 0.46631 0.14525 0.47499 0.0
C605 C 0.44088 0.15794 0.50571 0.0
C606 C 0.45005 0.16488 0.57751 0.0
C607 C 0.49086 0.14516 0.52901 0.0
N608 N 0.48129 0.15651 0.5917 0.0
C609 C 0.49267 0.20898 0.33397 0.0
C610 C 0.41739 0.20956 0.34503 0.0
C611 C 0.45569 0.24818 0.34465 0.0
C612 C 0.49328 0.2474 0.33491 0.0
C613 C 0.41816 0.17132 0.34424 0.0
N614 N 0.45593 0.17163 0.34428 0.0
H615 H 0.52261 0.21003 0.33008 0.0
H616 H 0.38857 0.14204 0.34992 0.0
H617 H 0.41473 0.15853 0.48007 0.0
H618 H 0.51308 0.13406 0.52461 0.0
O619 O 0.52306 0.15064 0.37328 0.0
O620 O 0.4814 0.08512 0.41019 0.0
O621 O 0.39917 0.08564 0.39086 0.0
C622 C 0.51976 0.11589 0.39784 0.0
H623 H 0.48067 0.06062 0.14445 0.0
H624 H 0.43267 0.17201 0.61669 0.0
H625 H 0.38749 0.20885 0.35087 0.0
H626 H 0.52348 0.27649 0.33141 0.0
Co627 Co 0.92007 0.34657 0.37764 0.0
C628 C 0.93286 0.33781 0.22115 0.0
C629 C 0.96297 0.40297 0.25305 0.0
C630 C 0.96764 0.40165 0.18025 0.0
N631 N 0.94065 0.363 0.27925 0.0
N632 N 0.94877 0.36084 0.16071 0.0
H633 H 0.91479 0.30362 0.22222 0.0
H634 H 0.97492 0.4318 0.28362 0.0
C635 C 0.9812 0.32807 0.44667 0.0
O636 O 0.98205 0.35293 0.49822 0.0
N637 N 0.8988 0.32947 0.47498 0.0
C638 C 0.88613 0.29135 0.50571 0.0
C639 C 0.87919 0.29357 0.57751 0.0
C640 C 0.89888 0.3541 0.529 0.0
N641 N 0.88754 0.33318 0.59168 0.0
C642 C 0.83506 0.2921 0.33399 0.0
C643 C 0.83448 0.21625 0.34505 0.0
C644 C 0.79586 0.21592 0.34467 0.0
C645 C 0.79664 0.2543 0.33494 0.0
C646 C 0.87272 0.25526 0.34425 0.0
N647 N 0.87241 0.29272 0.34428 0.0
H648 H 0.834 0.32099 0.3301 0.0
H649 H 0.902 0.25494 0.34992 0.0
H650 H 0.88555 0.26461 0.48008 0.0
H651 H 0.90997 0.38742 0.52458 0.0
O652 O 0.89341 0.38084 0.37327 0.0
O653 O 0.95893 0.40469 0.41018 0.0
O654 O 0.95841 0.32194 0.39086 0.0
C655 C 0.92817 0.41228 0.39783 0.0
H656 H 0.9834 0.42846 0.14443 0.0
H657 H 0.87207 0.26906 0.61669 0.0
H658 H 0.83519 0.18706 0.35088 0.0
H659 H 0.76755 0.25541 0.33145 0.0
Co660 Co 0.69748 0.5819 0.37763 0.0
C661 C 0.70624 0.60346 0.22114 0.0
C662 C 0.64108 0.56842 0.25302 0.0
C663 C 0.6424 0.57441 0.18023 0.0
N664 N 0.68105 0.58606 0.27924 0.0
N665 N 0.68321 0.59634 0.1607 0.0
H666 H 0.74043 0.61956 0.22222 0.0
H667 H 0.61225 0.55154 0.2836 0.0
C668 C 0.71599 0.66152 0.44668 0.0
O669 O 0.69113 0.63751 0.49823 0.0
N670 N 0.71458 0.57772 0.47498 0.0
C671 C 0.7527 0.60314 0.50572 0.0
C672 C 0.75047 0.59398 0.57751 0.0
C673 C 0.68993 0.55318 0.529 0.0
N674 N 0.71085 0.56275 0.59169 0.0
C675 C 0.75195 0.55136 0.33399 0.0
C676 C 0.8278 0.62664 0.34502 0.0
C677 C 0.82813 0.58834 0.34464 0.0
C678 C 0.78976 0.55075 0.33492 0.0
C679 C 0.78879 0.62587 0.34424 0.0
N680 N 0.75133 0.5881 0.34428 0.0
H681 H 0.72306 0.52141 0.33012 0.0
H682 H 0.7891 0.65546 0.34991 0.0
H683 H 0.77944 0.62928 0.48008 0.0
H684 H 0.65661 0.53097 0.52458 0.0
O685 O 0.66321 0.52098 0.37325 0.0
O686 O 0.63936 0.56264 0.41015 0.0
O687 O 0.72211 0.64486 0.39086 0.0
C688 C 0.63176 0.52428 0.3978 0.0
H689 H 0.61559 0.56337 0.1444 0.0
H690 H 0.77498 0.61135 0.6167 0.0
H691 H 0.85699 0.65654 0.35084 0.0
H692 H 0.78864 0.52055 0.33144 0.0
Co693 Co 0.46245 0.11887 0.87277 0.0
C694 C 0.46 0.10376 0.03046 0.0
C695 C 0.40478 0.10495 0.99452 0.0
C696 C 0.40266 0.10083 0.06814 0.0
N697 N 0.44091 0.10721 0.97073 0.0
N698 N 0.43727 0.0999 0.08987 0.0
H699 H 0.49037 0.10534 0.03139 0.0
H700 H 0.38183 0.10713 0.96111 0.0
C701 C 0.40589 0.04093 0.78986 0.0
O702 O 0.40599 0.06526 0.73814 0.0
N703 N 0.48459 0.13086 0.77535 0.0
C704 C 0.50871 0.11695 0.74356 0.0
C705 C 0.514 0.12825 0.67273 0.0
C706 C 0.4756 0.15056 0.72265 0.0
N707 N 0.49277 0.14892 0.65976 0.0
C708 C 0.54889 0.14835 0.90337 0.0
C709 C 0.54697 0.07157 0.90276 0.0
C710 C 0.58625 0.10925 0.89918 0.0
C711 C 0.58661 0.14771 0.90279 0.0
C712 C 0.50924 0.07354 0.9031 0.0
N713 N 0.51069 0.11186 0.89953 0.0
H714 H 0.55105 0.17884 0.90153 0.0
H715 H 0.47931 0.04431 0.90193 0.0
H716 H 0.51978 0.09752 0.768 0.0
H717 H 0.45429 0.16282 0.72829 0.0
O718 O 0.48766 0.1786 0.89056 0.0
O719 O 0.42281 0.13908 0.84931 0.0
O720 O 0.42596 0.05681 0.84838 0.0
C721 C 0.45313 0.17656 0.86796 0.0
H722 H 0.37785 0.09859 0.10278 0.0
H723 H 0.52956 0.11906 0.63322 0.0
H724 H 0.54534 0.0411 0.90159 0.0
H725 H 0.61608 0.17765 0.90247 0.0
Co726 Co 0.92517 0.35199 0.87276 0.0
C727 C 0.94028 0.36465 0.03045 0.0
C728 C 0.93911 0.30824 0.99454 0.0
C729 C 0.94323 0.31025 0.06816 0.0
N730 N 0.93684 0.34211 0.97073 0.0
N731 N 0.94414 0.34577 0.08988 0.0
H732 H 0.93869 0.39343 0.03138 0.0
H733 H 0.93694 0.28312 0.96114 0.0
C734 C 1.00311 0.37336 0.78987 0.0
O735 O 0.97877 0.34912 0.73815 0.0
N736 N 0.91318 0.36213 0.77534 0.0
C737 C 0.92709 0.40016 0.74353 0.0
C738 C 0.91579 0.39415 0.6727 0.0
C739 C 0.89349 0.33345 0.72264 0.0
N740 N 0.89512 0.35225 0.65975 0.0
C741 C 0.8957 0.40896 0.90334 0.0
C742 C 0.97248 0.48381 0.90275 0.0
C743 C 0.93481 0.48541 0.89917 0.0
C744 C 0.89634 0.44731 0.90277 0.0
C745 C 0.9705 0.4441 0.90308 0.0
N746 N 0.93219 0.40724 0.8995 0.0
H747 H 0.86521 0.38062 0.90149 0.0
H748 H 0.99974 0.4434 0.90191 0.0
H749 H 0.94651 0.43066 0.76797 0.0
H750 H 0.88122 0.29987 0.72829 0.0
O751 O 0.86545 0.31747 0.89055 0.0
O752 O 0.90495 0.29213 0.84933 0.0
O753 O 0.98723 0.37755 0.84838 0.0
C754 C 0.86748 0.28498 0.86796 0.0
H755 H 0.94548 0.28769 0.10281 0.0
H756 H 0.92498 0.4189 0.63319 0.0
H757 H 1.00295 0.51265 0.90158 0.0
H758 H 0.8664 0.44684 0.90244 0.0
Co759 Co 0.69206 0.58158 0.87275 0.0
C760 C 0.6794 0.58404 0.03044 0.0
C761 C 0.73582 0.63926 0.99453 0.0
C762 C 0.73381 0.64137 0.06815 0.0
N763 N 0.70194 0.60312 0.97072 0.0
N764 N 0.69828 0.60677 0.08986 0.0
H765 H 0.65061 0.55367 0.03137 0.0
H766 H 0.76095 0.66221 0.96113 0.0
C767 C 0.67069 0.63816 0.78987 0.0
O768 O 0.69495 0.63808 0.73817 0.0
N769 N 0.68191 0.55945 0.77533 0.0
C770 C 0.64387 0.53535 0.74352 0.0
C771 C 0.64988 0.53006 0.6727 0.0
C772 C 0.71059 0.56843 0.72264 0.0
N773 N 0.69178 0.55127 0.65975 0.0
C774 C 0.6351 0.49514 0.90331 0.0
C775 C 0.56025 0.49707 0.90275 0.0
C776 C 0.55864 0.45779 0.89916 0.0
C777 C 0.59674 0.45743 0.90273 0.0
C778 C 0.59996 0.5348 0.90309 0.0
N779 N 0.63682 0.53335 0.89949 0.0
H780 H 0.66343 0.49298 0.90145 0.0
H781 H 0.60066 0.56474 0.90194 0.0
H782 H 0.61338 0.5243 0.76796 0.0
H783 H 0.74417 0.58973 0.72829 0.0
O784 O 0.72658 0.55638 0.89054 0.0
O785 O 0.75191 0.62123 0.84931 0.0
O786 O 0.6665 0.61808 0.84837 0.0
C787 C 0.75907 0.59091 0.86795 0.0
H788 H 0.75637 0.66618 0.1028 0.0
H789 H 0.62513 0.51451 0.63318 0.0
H790 H 0.53141 0.49871 0.9016 0.0
H791 H 0.59722 0.42796 0.90239 0.0
Co792 Co 0.59099 0.91099 0.71287 0.0
C793 C 0.61255 0.92379 0.86937 0.0
C794 C 0.5775 0.95391 0.83745 0.0
C795 C 0.58349 0.95858 0.91025 0.0
N796 N 0.59515 0.93158 0.81126 0.0
N797 N 0.60542 0.9397 0.9298 0.0
H798 H 0.62865 0.90571 0.86831 0.0
H799 H 0.56063 0.96587 0.80687 0.0
C800 C 0.67061 0.97211 0.64383 0.0
O801 O 0.6466 0.97296 0.59227 0.0
N802 N 0.58682 0.88972 0.61553 0.0
C803 C 0.61225 0.87703 0.5848 0.0
C804 C 0.60309 0.8701 0.51301 0.0
C805 C 0.56226 0.8898 0.5615 0.0
N806 N 0.57184 0.87846 0.49882 0.0
C807 C 0.56046 0.82599 0.75656 0.0
C808 C 0.63574 0.82541 0.74548 0.0
C809 C 0.59744 0.78678 0.74588 0.0
C810 C 0.55985 0.78757 0.75562 0.0
C811 C 0.63497 0.86365 0.74626 0.0
N812 N 0.5972 0.86334 0.74624 0.0
H813 H 0.53052 0.82494 0.76045 0.0
H814 H 0.66456 0.89293 0.74058 0.0
H815 H 0.6384 0.87645 0.61044 0.0
H816 H 0.54004 0.9009 0.56591 0.0
O817 O 0.53007 0.88433 0.71724 0.0
O818 O 0.57172 0.94984 0.68033 0.0
O819 O 0.65396 0.94933 0.69965 0.0
C820 C 0.53337 0.91908 0.69268 0.0
H821 H 0.57245 0.97434 0.94607 0.0
H822 H 0.62047 0.86297 0.47382 0.0
H823 H 0.66563 0.82612 0.73964 0.0
H824 H 0.52965 0.75848 0.75912 0.0
Co825 Co 0.13305 0.6884 0.71288 0.0
C826 C 0.12026 0.69716 0.86936 0.0
C827 C 0.09016 0.632 0.83747 0.0
C828 C 0.08549 0.63332 0.91026 0.0
N829 N 0.11248 0.67197 0.81126 0.0
N830 N 0.10435 0.67412 0.9298 0.0
H831 H 0.13833 0.73134 0.8683 0.0
H832 H 0.0782 0.60316 0.80689 0.0
C833 C 0.07192 0.7069 0.64384 0.0
O834 O 0.07107 0.68204 0.59229 0.0
N835 N 0.15432 0.7055 0.61553 0.0
C836 C 0.16699 0.74362 0.5848 0.0
C837 C 0.17393 0.74139 0.513 0.0
C838 C 0.15425 0.68087 0.56152 0.0
N839 N 0.16558 0.70179 0.49883 0.0
C840 C 0.21807 0.74287 0.75654 0.0
C841 C 0.21864 0.81872 0.74546 0.0
C842 C 0.25727 0.81905 0.74585 0.0
C843 C 0.25649 0.78067 0.75559 0.0
C844 C 0.1804 0.77971 0.74626 0.0
N845 N 0.18071 0.74225 0.74623 0.0
H846 H 0.21912 0.71398 0.76043 0.0
H847 H 0.15112 0.78003 0.74058 0.0
H848 H 0.16756 0.77035 0.61043 0.0
H849 H 0.14317 0.64755 0.56593 0.0
O850 O 0.15971 0.65413 0.71724 0.0
O851 O 0.0942 0.63028 0.68034 0.0
O852 O 0.09472 0.71303 0.69966 0.0
C853 C 0.12496 0.62269 0.69269 0.0
H854 H 0.06972 0.60651 0.94609 0.0
H855 H 0.18104 0.7659 0.47382 0.0
H856 H 0.21793 0.84791 0.73962 0.0
H857 H 0.28557 0.77955 0.75908 0.0
Co858 Co 0.35565 0.45307 0.71289 0.0
C859 C 0.34688 0.43151 0.86937 0.0
C860 C 0.41205 0.46655 0.83749 0.0
C861 C 0.41072 0.46056 0.91029 0.0
N862 N 0.37208 0.44891 0.81128 0.0
N863 N 0.36992 0.43863 0.92982 0.0
H864 H 0.3127 0.4154 0.8683 0.0
H865 H 0.44088 0.48343 0.80692 0.0
C866 C 0.33714 0.37344 0.64384 0.0
O867 O 0.36199 0.39745 0.59229 0.0
N868 N 0.33855 0.45725 0.61554 0.0
C869 C 0.30043 0.43182 0.5848 0.0
C870 C 0.30266 0.44098 0.513 0.0
C871 C 0.36319 0.48179 0.56152 0.0
N872 N 0.34227 0.47222 0.49883 0.0
C873 C 0.30117 0.48361 0.75653 0.0
C874 C 0.22532 0.40832 0.74549 0.0
C875 C 0.22499 0.44662 0.74588 0.0
C876 C 0.26337 0.48422 0.7556 0.0
C877 C 0.26434 0.4091 0.74627 0.0
N878 N 0.30179 0.44687 0.74623 0.0
H879 H 0.33006 0.51355 0.76041 0.0
H880 H 0.26402 0.3795 0.74059 0.0
H881 H 0.27368 0.40568 0.61044 0.0
H882 H 0.39651 0.50401 0.56594 0.0
O883 O 0.38991 0.51399 0.71726 0.0
O884 O 0.41377 0.47233 0.68036 0.0
O885 O 0.33102 0.3901 0.69966 0.0
C886 C 0.42136 0.51069 0.69272 0.0
H887 H 0.43753 0.4716 0.94612 0.0
H888 H 0.27815 0.4236 0.47381 0.0
H889 H 0.19614 0.37842 0.73966 0.0
H890 H 0.26448 0.51442 0.75909 0.0
Co891 Co 0.59067 0.9161 0.21775 0.0
C892 C 0.59312 0.93121 0.06006 0.0
C893 C 0.64835 0.93003 0.096 0.0
C894 C 0.65046 0.93414 1.02238 0.0
N895 N 0.61221 0.92776 0.11979 0.0
N896 N 0.61585 0.93506 1.00064 0.0
H897 H 0.56275 0.92962 0.05912 0.0
H898 H 0.6713 0.92785 0.12941 0.0
C899 C 0.64724 0.99404 0.30065 0.0
O900 O 0.64714 0.9697 0.35237 0.0
N901 N 0.56853 0.90411 0.31517 0.0
C902 C 0.54443 0.91804 0.34697 0.0
C903 C 0.53914 0.90674 0.41779 0.0
C904 C 0.57752 0.88441 0.36787 0.0
N905 N 0.56035 0.88605 0.43075 0.0
C906 C 0.50423 0.88662 0.18717 0.0
C907 C 0.50615 0.96339 0.18775 0.0
C908 C 0.46687 0.92571 0.19133 0.0
C909 C 0.46652 0.88725 0.18775 0.0
C910 C 0.54388 0.96142 0.1874 0.0
N911 N 0.54243 0.9231 0.191 0.0
H912 H 0.50207 0.85612 0.18903 0.0
H913 H 0.57382 0.99065 0.18856 0.0
H914 H 0.53337 0.93747 0.32252 0.0
H915 H 0.59882 0.87213 0.36223 0.0
O916 O 0.56547 0.85637 0.19996 0.0
O917 O 0.63031 0.89589 0.24121 0.0
O918 O 0.62716 0.97815 0.24214 0.0
C919 C 0.6 0.85841 0.22255 0.0
H920 H 0.67527 0.93639 0.98774 0.0
H921 H 0.52359 0.91593 0.4573 0.0
H922 H 0.50778 0.99386 0.1889 0.0
H923 H 0.43705 0.85731 0.18809 0.0
Co924 Co 0.12795 0.68298 0.21776 0.0
C925 C 0.11285 0.67032 0.06006 0.0
C926 C 0.11401 0.72672 0.09598 0.0
C927 C 0.1099 0.72472 1.02236 0.0
N928 N 0.11628 0.69285 0.11978 0.0
N929 N 0.10899 0.68919 1.00064 0.0
H930 H 0.11445 0.64154 0.05914 0.0
H931 H 0.11618 0.75185 0.12938 0.0
C932 C 0.05001 0.66161 0.30064 0.0
O933 O 0.07436 0.68586 0.35235 0.0
N934 N 0.13995 0.67283 0.31518 0.0
C935 C 0.12602 0.6348 0.34699 0.0
C936 C 0.13732 0.64081 0.41782 0.0
C937 C 0.15964 0.70152 0.36788 0.0
N938 N 0.158 0.68272 0.43077 0.0
C939 C 0.15743 0.62601 0.1872 0.0
C940 C 0.08065 0.55116 0.18776 0.0
C941 C 0.11833 0.54956 0.19134 0.0
C942 C 0.15679 0.58766 0.18777 0.0
C943 C 0.08262 0.59087 0.18742 0.0
N944 N 0.12094 0.62773 0.19102 0.0
H945 H 0.18792 0.65435 0.18906 0.0
H946 H 0.05339 0.59157 0.18858 0.0
H947 H 0.10659 0.60431 0.32255 0.0
H948 H 0.17192 0.7351 0.36222 0.0
O949 O 0.18768 0.7175 0.19997 0.0
O950 O 0.14817 0.74283 0.24119 0.0
O951 O 0.0659 0.65742 0.24214 0.0
C952 C 0.18564 0.74999 0.22254 0.0
H953 H 0.10764 0.74728 0.98771 0.0
H954 H 0.12812 0.61607 0.45733 0.0
H955 H 0.05018 0.52232 0.18891 0.0
H956 H 0.18673 0.58813 0.18811 0.0
Co957 Co 0.36107 0.45338 0.21776 0.0
C958 C 0.37372 0.45093 0.06008 0.0
C959 C 0.31731 0.39571 0.09599 0.0
C960 C 0.31932 0.39359 1.02237 0.0
N961 N 0.35118 0.43184 0.11979 0.0
N962 N 0.35485 0.4282 1.00065 0.0
H963 H 0.40251 0.48131 0.05915 0.0
H964 H 0.29218 0.37275 0.12939 0.0
C965 C 0.38243 0.3968 0.30065 0.0
O966 O 0.35817 0.39688 0.35234 0.0
N967 N 0.37122 0.47552 0.31519 0.0
C968 C 0.40925 0.4996 0.347 0.0
C969 C 0.40325 0.50489 0.41782 0.0
C970 C 0.34254 0.46654 0.36788 0.0
N971 N 0.36135 0.4837 0.43077 0.0
C972 C 0.41802 0.53983 0.18723 0.0
C973 C 0.49288 0.5379 0.18775 0.0
C974 C 0.49448 0.57718 0.19136 0.0
C975 C 0.45638 0.57754 0.18781 0.0
C976 C 0.45317 0.50017 0.18742 0.0
N977 N 0.41631 0.50162 0.19103 0.0
H978 H 0.38969 0.54199 0.18911 0.0
H979 H 0.45247 0.47023 0.18856 0.0
H980 H 0.43974 0.51065 0.32256 0.0
H981 H 0.30896 0.44525 0.36222 0.0
O982 O 0.32654 0.47858 0.19998 0.0
O983 O 0.30122 0.41374 0.2412 0.0
O984 O 0.38663 0.41689 0.24215 0.0
C985 C 0.29405 0.44405 0.22255 0.0
H986 H 0.29676 0.36878 0.98772 0.0
H987 H 0.428 0.52043 0.45735 0.0
H988 H 0.52171 0.53627 0.18889 0.0
H989 H 0.4559 0.60701 0.18816 0.0
Co990 Co 0.1288 0.45731 0.71098 0.0
C991 C 0.10724 0.44451 0.55448 0.0
C992 C 0.14229 0.41439 0.5864 0.0
C993 C 0.1363 0.40972 0.5136 0.0
N994 N 0.12465 0.43672 0.61259 0.0
N995 N 0.11437 0.4286 0.49404 0.0
H996 H 0.09114 0.46259 0.55554 0.0
H997 H 0.15916 0.40243 0.61698 0.0
C998 C 0.04918 0.39619 0.78002 0.0
O999 O 0.07319 0.39535 0.83158 0.0
N1000 N 0.13298 0.47859 0.80832 0.0
C1001 C 0.10755 0.49128 0.83904 0.0
C1002 C 0.11671 0.49821 0.91084 0.0
C1003 C 0.15753 0.47849 0.86235 0.0
N1004 N 0.14795 0.48984 0.92503 0.0
C1005 C 0.15934 0.54232 0.6673 0.0
C1006 C 0.08406 0.54289 0.67836 0.0
C1007 C 0.12236 0.58152 0.67798 0.0
C1008 C 0.15995 0.58074 0.66824 0.0
C1009 C 0.08483 0.50465 0.67758 0.0
N1010 N 0.1226 0.50496 0.67761 0.0
H1011 H 0.18928 0.54337 0.66341 0.0
H1012 H 0.05523 0.47537 0.68325 0.0
H1013 H 0.0814 0.49187 0.8134 0.0
H1014 H 0.17974 0.46739 0.85794 0.0
O1015 O 0.18972 0.48397 0.70661 0.0
O1016 O 0.14807 0.41845 0.74352 0.0
O1017 O 0.06584 0.41897 0.7242 0.0
C1018 C 0.18642 0.44922 0.73117 0.0
H1019 H 0.14734 0.39395 0.47778 0.0
H1020 H 0.09933 0.50534 0.95002 0.0
H1021 H 0.05416 0.54218 0.6842 0.0
H1022 H 0.19015 0.60982 0.66474 0.0
Co1023 Co 0.58674 0.6799 0.71097 0.0
C1024 C 0.59953 0.67114 0.55449 0.0
C1025 C 0.62964 0.73631 0.58638 0.0
C1026 C 0.63431 0.73498 0.51359 0.0
N1027 N 0.60731 0.69634 0.61259 0.0
N1028 N 0.61544 0.69418 0.49405 0.0
H1029 H 0.58146 0.63696 0.55555 0.0
H1030 H 0.64159 0.76514 0.61696 0.0
C1031 C 0.64786 0.6614 0.78001 0.0
O1032 O 0.64872 0.68626 0.83156 0.0
N1033 N 0.56547 0.6628 0.80831 0.0
C1034 C 0.55279 0.62469 0.83905 0.0
C1035 C 0.54585 0.62691 0.91084 0.0
C1036 C 0.56555 0.68743 0.86233 0.0
N1037 N 0.55421 0.66651 0.92502 0.0
C1038 C 0.50172 0.62544 0.66732 0.0
C1039 C 0.50115 0.54958 0.67838 0.0
C1040 C 0.46252 0.54926 0.67801 0.0
C1041 C 0.4633 0.58763 0.66827 0.0
C1042 C 0.53939 0.58859 0.67759 0.0
N1043 N 0.53908 0.62605 0.67761 0.0
H1044 H 0.50067 0.65433 0.66344 0.0
H1045 H 0.56867 0.58827 0.68325 0.0
H1046 H 0.55221 0.59795 0.81341 0.0
H1047 H 0.57663 0.72075 0.85792 0.0
O1048 O 0.56008 0.71417 0.70661 0.0
O1049 O 0.6256 0.73802 0.74351 0.0
O1050 O 0.62507 0.65527 0.72419 0.0
C1051 C 0.59483 0.74562 0.73116 0.0
H1052 H 0.65007 0.76179 0.47776 0.0
H1053 H 0.53873 0.6024 0.95003 0.0
H1054 H 0.50186 0.52039 0.68421 0.0
H1055 H 0.43422 0.58875 0.66479 0.0
Co1056 Co 0.36414 0.91523 0.71096 0.0
C1057 C 0.37291 0.93679 0.55448 0.0
C1058 C 0.30774 0.90175 0.58636 0.0
C1059 C 0.30907 0.90774 0.51356 0.0
N1060 N 0.34771 0.91939 0.61257 0.0
N1061 N 0.34987 0.92967 0.49403 0.0
H1062 H 0.40709 0.9529 0.55555 0.0
H1063 H 0.27891 0.88487 0.61693 0.0
C1064 C 0.38265 0.99486 0.78001 0.0
O1065 O 0.3578 0.97085 0.83157 0.0
N1066 N 0.38124 0.91105 0.80831 0.0
C1067 C 0.41936 0.93647 0.83905 0.0
C1068 C 0.41713 0.92731 0.91085 0.0
C1069 C 0.3566 0.88651 0.86233 0.0
N1070 N 0.37752 0.89608 0.92502 0.0
C1071 C 0.41861 0.88469 0.66733 0.0
C1072 C 0.49447 0.95998 0.67836 0.0
C1073 C 0.4948 0.92168 0.67798 0.0
C1074 C 0.45642 0.88408 0.66826 0.0
C1075 C 0.45545 0.9592 0.67758 0.0
N1076 N 0.418 0.92143 0.67762 0.0
H1077 H 0.38973 0.85475 0.66346 0.0
H1078 H 0.45577 0.9888 0.68324 0.0
H1079 H 0.44611 0.96261 0.81341 0.0
H1080 H 0.32328 0.8643 0.85792 0.0
O1081 O 0.32988 0.85431 0.70659 0.0
O1082 O 0.30602 0.89597 0.74348 0.0
O1083 O 0.38877 0.9782 0.72419 0.0
C1084 C 0.29843 0.85761 0.73114 0.0
H1085 H 0.28226 0.8967 0.47773 0.0
H1086 H 0.44165 0.94469 0.95003 0.0
H1087 H 0.52365 0.98987 0.68418 0.0
H1088 H 0.45531 0.85388 0.66478 0.0
Co1089 Co 0.12912 0.4522 0.2061 0.0
C1090 C 0.12667 0.43709 0.36379 0.0
C1091 C 0.07145 0.43828 0.32785 0.0
C1092 C 0.06933 0.43416 0.40147 0.0
N1093 N 0.10758 0.44054 0.30406 0.0
N1094 N 0.10394 0.43324 0.42321 0.0
H1095 H 0.15704 0.43867 0.36473 0.0
H1096 H 0.04849 0.44046 0.29444 0.0
C1097 C 0.07256 0.37426 0.1232 0.0
O1098 O 0.07265 0.3986 0.07148 0.0
N1099 N 0.15126 0.4642 0.10868 0.0
C1100 C 0.17538 0.45028 0.07689 0.0
C1101 C 0.18067 0.46158 1.00606 0.0
C1102 C 0.14227 0.48389 0.05598 0.0
N1103 N 0.15944 0.48226 0.9931 0.0
C1104 C 0.21556 0.48168 0.2367 0.0
C1105 C 0.21364 0.4049 0.23609 0.0
C1106 C 0.25291 0.44258 0.23252 0.0
C1107 C 0.25327 0.48104 0.23612 0.0
C1108 C 0.17591 0.40688 0.23644 0.0
N1109 N 0.17736 0.44519 0.23286 0.0
H1110 H 0.21772 0.51217 0.23486 0.0
H1111 H 0.14597 0.37764 0.23526 0.0
H1112 H 0.18644 0.43085 0.10133 0.0
H1113 H 0.12096 0.49616 0.06162 0.0
O1114 O 0.15432 0.51193 0.22389 0.0
O1115 O 0.08948 0.47242 0.18264 0.0
O1116 O 0.09263 0.39015 0.18171 0.0
C1117 C 0.11979 0.50989 0.20129 0.0
H1118 H 0.04452 0.43192 0.43611 0.0
H1119 H 0.19623 0.45239 0.96655 0.0
H1120 H 0.21201 0.37443 0.23492 0.0
H1121 H 0.28274 0.51099 0.2358 0.0
Co1122 Co 0.59184 0.68532 0.20609 0.0
C1123 C 0.60695 0.69798 0.36379 0.0
C1124 C 0.60578 0.64158 0.32787 0.0
C1125 C 0.60989 0.64358 0.40149 0.0
N1126 N 0.60351 0.67545 0.30407 0.0
N1127 N 0.6108 0.67911 0.42321 0.0
H1128 H 0.60536 0.72677 0.36471 0.0
H1129 H 0.6036 0.61645 0.29447 0.0
C1130 C 0.66978 0.70669 0.1232 0.0
O1131 O 0.64544 0.68245 0.07149 0.0
N1132 N 0.57984 0.69547 0.10867 0.0
C1133 C 0.59375 0.7335 0.07687 0.0
C1134 C 0.58246 0.72749 1.00604 0.0
C1135 C 0.56015 0.66678 0.05597 0.0
N1136 N 0.56179 0.68558 0.99308 0.0
C1137 C 0.56237 0.74229 0.23668 0.0
C1138 C 0.63915 0.81714 0.23608 0.0
C1139 C 0.60147 0.81874 0.23251 0.0
C1140 C 0.56301 0.78064 0.2361 0.0
C1141 C 0.63717 0.77743 0.23642 0.0
N1142 N 0.59885 0.74057 0.23284 0.0
H1143 H 0.53188 0.71396 0.23483 0.0
H1144 H 0.6664 0.77673 0.23525 0.0
H1145 H 0.61318 0.764 0.10131 0.0
H1146 H 0.54789 0.63321 0.06162 0.0
O1147 O 0.53211 0.65081 0.22388 0.0
O1148 O 0.57162 0.62547 0.18266 0.0
O1149 O 0.65389 0.71088 0.18171 0.0
C1150 C 0.53415 0.61831 0.2013 0.0
H1151 H 0.61214 0.62102 0.43615 0.0
H1152 H 0.59164 0.75224 0.96652 0.0
H1153 H 0.66962 0.84598 0.23491 0.0
H1154 H 0.53307 0.78017 0.23578 0.0
Co1155 Co 0.35872 0.91492 0.20609 0.0
C1156 C 0.34607 0.91737 0.36377 0.0
C1157 C 0.40248 0.97259 0.32786 0.0
C1158 C 0.40048 0.97471 0.40148 0.0
N1159 N 0.36861 0.93646 0.30406 0.0
N1160 N 0.36494 0.9401 0.4232 0.0
H1161 H 0.31728 0.887 0.3647 0.0
H1162 H 0.42762 0.99554 0.29447 0.0
C1163 C 0.33736 0.9715 0.1232 0.0
O1164 O 0.36161 0.97141 0.0715 0.0
N1165 N 0.34857 0.89278 0.10867 0.0
C1166 C 0.31054 0.86868 0.07686 0.0
C1167 C 0.31654 0.86339 1.00603 0.0
C1168 C 0.37725 0.90176 0.05597 0.0
N1169 N 0.35845 0.8846 0.99308 0.0
C1170 C 0.30176 0.82848 0.23664 0.0
C1171 C 0.22691 0.8304 0.23609 0.0
C1172 C 0.22531 0.79113 0.23249 0.0
C1173 C 0.26341 0.79076 0.23607 0.0
C1174 C 0.26662 0.86814 0.23643 0.0
N1175 N 0.30348 0.86668 0.23283 0.0
H1176 H 0.3301 0.82632 0.23478 0.0
H1177 H 0.26732 0.89807 0.23527 0.0
H1178 H 0.28005 0.85763 0.10129 0.0
H1179 H 0.41083 0.92306 0.06162 0.0
O1180 O 0.39325 0.88971 0.22388 0.0
O1181 O 0.41858 0.95456 0.18265 0.0
O1182 O 0.33316 0.95141 0.18171 0.0
C1183 C 0.42574 0.92424 0.20129 0.0
H1184 H 0.42304 0.99952 0.43613 0.0
H1185 H 0.29179 0.84784 0.96651 0.0
H1186 H 0.19808 0.83204 0.23493 0.0
H1187 H 0.26388 0.76129 0.23572 0.0
loop_
_geom_bond_atom_site_label_1
_geom_bond_atom_site_label_2
_geom_bond_distance
_geom_bond_site_symmetry_2
_ccdc_geom_bond_type
Co0 N4 2.148 . S
Co0 N10 2.128 1_554 S
Co0 N20 2.194 . S
Co0 O25 2.351 . S
Co0 O26 2.155 . S
Co0 O27 2.096 1_554 S
C1 N4 1.301 . S
C1 N5 1.328 . S
C1 H6 0.930 . S
C2 C3 1.333 . S
C2 N4 1.317 . S
C2 H7 0.930 . S
C3 C2 1.333 . S
C3 N5 1.350 . S
C3 H29 0.931 . S
N4 Co0 2.148 . S
N4 C1 1.301 . S
N4 C2 1.317 . S
N5 C1 1.328 . S
N5 C3 1.350 . S
H6 C1 0.930 . S
H7 C2 0.930 . S
C8 O9 1.224 . S
C8 O27 1.247 . S
O9 C8 1.224 . S
N10 Co0 2.128 1_556 S
N10 C11 1.355 . S
N10 C13 1.311 . S
C11 N10 1.355 . S
C11 C12 1.363 . S
C11 H23 0.929 . S
C12 C11 1.363 . S
C12 N14 1.375 . S
C12 H30 0.931 . S
C13 N10 1.311 . S
C13 N14 1.347 . S
C13 H24 0.929 . S
N14 C12 1.375 . S
N14 C13 1.347 . S
C15 C18 1.365 . S
C15 N20 1.328 . S
C15 H21 0.929 . S
C16 C17 1.362 . S
C16 C19 1.378 . S
C16 H31 0.929 . S
C17 C16 1.362 . S
C17 C18 1.366 . S
C18 C15 1.365 . S
C18 C17 1.366 . S
C18 H32 0.930 . S
C19 C16 1.378 . S
C19 N20 1.315 . S
C19 H22 0.930 1_554 S
N20 Co0 2.194 . S
N20 C15 1.328 . S
N20 C19 1.315 . S
H21 C15 0.929 . S
H22 C19 0.930 1_556 S
H23 C11 0.929 . S
H24 C13 0.929 . S
O25 Co0 2.351 . S
O25 C28 1.244 . S
O26 Co0 2.155 . S
O26 C28 1.240 . S
O27 Co0 2.096 1_556 S
O27 C8 1.247 . S
C28 O25 1.244 . S
C28 O26 1.240 . S
H29 C3 0.931 . S
H30 C12 0.931 . S
H31 C16 0.929 . S
H32 C18 0.930 . S
Co33 N37 2.148 . S
Co33 N43 2.128 1_554 S
Co33 N53 2.195 . S
Co33 O58 2.348 1_545 S
Co33 O59 2.152 1_545 S
Co33 O60 2.097 1_544 S
C34 N37 1.288 1_565 S
C34 N38 1.317 1_565 S
C34 H39 0.953 . S
C35 C36 1.333 . S
C35 N37 1.317 . S
C35 H40 0.930 . S
C36 C35 1.333 . S
C36 N38 1.350 . S
C36 H62 0.931 . S
N37 Co33 2.148 . S
N37 C34 1.288 1_545 S
N37 C35 1.317 . S
N38 C34 1.317 1_545 S
N38 C36 1.350 . S
H39 C34 0.953 . S
H40 C35 0.930 . S
C41 O42 1.224 . S
C41 O60 1.247 1_545 S
O42 C41 1.224 . S
N43 Co33 2.128 1_556 S
N43 C44 1.355 . S
N43 C46 1.311 . S
C44 N43 1.355 . S
C44 C45 1.363 . S
C44 H56 0.929 . S
C45 C44 1.363 . S
C45 N47 1.375 . S
C45 H63 0.931 . S
C46 N43 1.311 . S
C46 N47 1.347 . S
C46 H57 0.929 . S
N47 C45 1.375 . S
N47 C46 1.347 . S
C48 C51 1.365 . S
C48 N53 1.328 . S
C48 H54 0.929 . S
C49 C50 1.362 . S
C49 C52 1.378 . S
C49 H64 0.929 . S
C50 C49 1.362 . S
C50 C51 1.366 . S
C51 C48 1.365 . S
C51 C50 1.366 . S
C51 H65 0.930 . S
C52 C49 1.378 . S
C52 N53 1.315 . S
C52 H55 0.930 1_554 S
N53 Co33 2.195 . S
N53 C48 1.328 . S
N53 C52 1.315 . S
H54 C48 0.929 . S
H55 C52 0.930 1_556 S
H56 C44 0.929 . S
H57 C46 0.929 . S
O58 Co33 2.348 1_565 S
O58 C61 1.244 . S
O59 Co33 2.152 1_565 S
O59 C61 1.240 . S
O60 Co33 2.097 1_566 S
O60 C41 1.247 1_565 S
C61 O58 1.244 . S
C61 O59 1.240 . S
H62 C36 0.931 . S
H63 C45 0.931 . S
H64 C49 0.929 . S
H65 C51 0.930 . S
Co66 N70 2.148 1_455 S
Co66 N76 2.129 1_454 S
Co66 N86 2.194 1_455 S
Co66 O91 2.351 . S
Co66 O92 2.154 . S
Co66 O93 2.095 1_554 S
C67 N70 1.301 1_455 S
C67 N71 1.328 1_455 S
C67 H72 0.930 . S
C68 C69 1.333 . S
C68 N70 1.317 . S
C68 H73 0.930 . S
C69 C68 1.333 . S
C69 N71 1.350 . S
C69 H95 0.931 . S
N70 Co66 2.148 1_655 S
N70 C67 1.301 1_655 S
N70 C68 1.317 . S
N71 C67 1.328 1_655 S
N71 C69 1.350 . S
H72 C67 0.930 . S
H73 C68 0.930 . S
C74 O75 1.224 . S
C74 O93 1.247 1_655 S
O75 C74 1.224 . S
N76 Co66 2.129 1_656 S
N76 C77 1.355 . S
N76 C79 1.311 . S
C77 N76 1.355 . S
C77 C78 1.363 . S
C77 H89 0.929 . S
C78 C77 1.363 . S
C78 N80 1.375 . S
C78 H96 0.931 . S
C79 N76 1.311 . S
C79 N80 1.347 . S
C79 H90 0.929 . S
N80 C78 1.375 . S
N80 C79 1.347 . S
C81 C84 1.365 . S
C81 N86 1.328 . S
C81 H87 0.929 . S
C82 C83 1.362 . S
C82 C85 1.378 . S
C82 H97 0.929 . S
C83 C82 1.362 . S
C83 C84 1.366 . S
C84 C81 1.365 . S
C84 C83 1.366 . S
C84 H98 0.930 . S
C85 C82 1.378 . S
C85 N86 1.315 . S
C85 H88 0.930 1_554 S
N86 Co66 2.194 1_655 S
N86 C81 1.328 . S
N86 C85 1.315 . S
H87 C81 0.929 . S
H88 C85 0.930 1_556 S
H89 C77 0.929 . S
H90 C79 0.929 . S
O91 Co66 2.351 . S
O91 C94 1.244 . S
O92 Co66 2.154 . S
O92 C94 1.240 . S
O93 Co66 2.095 1_556 S
O93 C74 1.247 1_455 S
C94 O91 1.244 . S
C94 O92 1.240 . S
H95 C69 0.931 . S
H96 C78 0.931 . S
H97 C82 0.929 . S
H98 C84 0.930 . S
Co99 N103 2.148 . S
Co99 N109 2.128 . S
Co99 N119 2.194 . S
Co99 O124 2.351 . S
Co99 O125 2.155 . S
Co99 O126 2.096 . S
C100 N103 1.301 . S
C100 N104 1.328 . S
C100 H105 0.930 . S
C101 C102 1.333 . S
C101 N103 1.317 . S
C101 H106 0.930 . S
C102 C101 1.333 . S
C102 N104 1.350 . S
C102 H128 0.931 . S
N103 Co99 2.148 . S
N103 C100 1.301 . S
N103 C101 1.317 . S
N104 C100 1.328 . S
N104 C102 1.350 . S
H105 C100 0.930 . S
H106 C101 0.930 . S
C107 O108 1.224 . S
C107 O126 1.247 . S
O108 C107 1.224 . S
N109 Co99 2.128 . S
N109 C110 1.355 . S
N109 C112 1.311 . S
C110 N109 1.355 . S
C110 C111 1.363 . S
C110 H122 0.929 . S
C111 C110 1.363 . S
C111 N113 1.375 . S
C111 H129 0.931 . S
C112 N109 1.311 . S
C112 N113 1.347 . S
C112 H123 0.929 . S
N113 C111 1.375 . S
N113 C112 1.347 . S
C114 C117 1.365 . S
C114 N119 1.328 . S
C114 H120 0.929 . S
C115 C116 1.362 . S
C115 C118 1.378 . S
C115 H130 0.929 . S
C116 C115 1.362 . S
C116 C117 1.366 . S
C117 C114 1.365 . S
C117 C116 1.366 . S
C117 H131 0.930 . S
C118 C115 1.378 . S
C118 N119 1.315 . S
C118 H121 0.930 . S
N119 Co99 2.194 . S
N119 C114 1.328 . S
N119 C118 1.315 . S
H120 C114 0.929 . S
H121 C118 0.930 . S
H122 C110 0.929 . S
H123 C112 0.929 . S
O124 Co99 2.351 . S
O124 C127 1.244 . S
O125 Co99 2.155 . S
O125 C127 1.240 . S
O126 Co99 2.096 . S
O126 C107 1.247 . S
C127 O124 1.244 . S
C127 O125 1.240 . S
H128 C102 0.931 . S
H129 C111 0.931 . S
H130 C115 0.929 . S
H131 C117 0.930 . S
Co132 N136 2.147 . S
Co132 N142 2.129 . S
Co132 N152 2.197 . S
Co132 O157 2.351 1_565 S
Co132 O158 2.152 1_565 S
Co132 O159 2.094 1_565 S
C133 N136 1.301 1_545 S
C133 N137 1.328 1_545 S
C133 H138 0.930 . S
C134 C135 1.333 . S
C134 N136 1.317 . S
C134 H139 0.930 . S
C135 C134 1.333 . S
C135 N137 1.350 . S
C135 H161 0.931 . S
N136 Co132 2.147 . S
N136 C133 1.301 1_565 S
N136 C134 1.317 . S
N137 C133 1.328 1_565 S
N137 C135 1.350 . S
H138 C133 0.930 . S
H139 C134 0.930 . S
C140 O141 1.224 . S
C140 O159 1.247 1_565 S
O141 C140 1.224 . S
N142 Co132 2.129 . S
N142 C143 1.355 . S
N142 C145 1.311 . S
C143 N142 1.355 . S
C143 C144 1.363 . S
C143 H155 0.929 . S
C144 C143 1.363 . S
C144 N146 1.375 . S
C144 H162 0.931 . S
C145 N142 1.311 . S
C145 N146 1.347 . S
C145 H156 0.929 . S
N146 C144 1.375 . S
N146 C145 1.347 . S
C147 C150 1.365 . S
C147 N152 1.328 . S
C147 H153 0.929 . S
C148 C149 1.362 . S
C148 C151 1.378 . S
C148 H163 0.929 . S
C149 C148 1.362 . S
C149 C150 1.366 . S
C150 C147 1.365 . S
C150 C149 1.366 . S
C150 H164 0.930 . S
C151 C148 1.378 . S
C151 N152 1.315 . S
C151 H154 0.930 . S
N152 Co132 2.197 . S
N152 C147 1.328 . S
N152 C151 1.315 . S
H153 C147 0.929 . S
H154 C151 0.930 . S
H155 C143 0.929 . S
H156 C145 0.929 . S
O157 Co132 2.351 1_545 S
O157 C160 1.244 . S
O158 Co132 2.152 1_545 S
O158 C160 1.240 . S
O159 Co132 2.094 1_545 S
O159 C140 1.247 1_545 S
C160 O157 1.244 . S
C160 O158 1.240 . S
H161 C135 0.931 . S
H162 C144 0.931 . S
H163 C148 0.929 . S
H164 C150 0.930 . S
Co165 N169 2.150 . S
Co165 N175 2.127 . S
Co165 N185 2.199 . S
Co165 O190 2.338 1_455 S
Co165 O191 2.143 1_455 S
Co165 O192 2.102 1_455 S
C166 N169 1.292 1_655 S
C166 N170 1.321 1_655 S
C166 H171 0.946 . S
C167 C168 1.333 . S
C167 N169 1.317 . S
C167 H172 0.930 . S
C168 C167 1.333 . S
C168 N170 1.350 . S
C168 H194 0.931 . S
N169 Co165 2.150 . S
N169 C166 1.292 1_455 S
N169 C167 1.317 . S
N170 C166 1.321 1_455 S
N170 C168 1.350 . S
H171 C166 0.946 . S
H172 C167 0.930 . S
C173 O174 1.224 . S
C173 O192 1.247 1_455 S
O174 C173 1.224 . S
N175 Co165 2.127 . S
N175 C176 1.355 . S
N175 C178 1.311 . S
C176 N175 1.355 . S
C176 C177 1.363 . S
C176 H188 0.929 . S
C177 C176 1.363 . S
C177 N179 1.375 . S
C177 H195 0.931 . S
C178 N175 1.311 . S
C178 N179 1.347 . S
C178 H189 0.929 . S
N179 C177 1.375 . S
N179 C178 1.347 . S
C180 C183 1.365 . S
C180 N185 1.328 . S
C180 H186 0.929 . S
C181 C182 1.362 . S
C181 C184 1.378 . S
C181 H196 0.929 . S
C182 C181 1.362 . S
C182 C183 1.366 . S
C183 C180 1.365 . S
C183 C182 1.366 . S
C183 H197 0.930 . S
C184 C181 1.378 . S
C184 N185 1.315 . S
C184 H187 0.930 . S
N185 Co165 2.199 . S
N185 C180 1.328 . S
N185 C184 1.315 . S
H186 C180 0.929 . S
H187 C184 0.930 . S
H188 C176 0.929 . S
H189 C178 0.929 . S
O190 Co165 2.338 1_655 S
O190 C193 1.244 . S
O191 Co165 2.143 1_655 S
O191 C193 1.240 . S
O192 Co165 2.102 1_655 S
O192 C173 1.247 1_655 S
C193 O190 1.244 . S
C193 O191 1.240 . S
H194 C168 0.931 . S
H195 C177 0.931 . S
H196 C181 0.929 . S
H197 C183 0.930 . S
Co198 N202 2.148 1_554 S
Co198 N208 2.128 . S
Co198 N218 2.194 . S
Co198 O223 2.351 . S
Co198 O224 2.155 . S
Co198 O225 2.096 . S
C199 N202 1.301 . S
C199 N203 1.328 . S
C199 H204 0.930 . S
C200 C201 1.333 . S
C200 N202 1.317 . S
C200 H205 0.930 . S
C201 C200 1.333 . S
C201 N203 1.350 . S
C201 H227 0.931 . S
N202 Co198 2.148 1_556 S
N202 C199 1.301 . S
N202 C200 1.317 . S
N203 C199 1.328 . S
N203 C201 1.350 . S
H204 C199 0.930 . S
H205 C200 0.930 . S
C206 O207 1.224 . S
C206 O225 1.247 . S
O207 C206 1.224 . S
N208 Co198 2.128 . S
N208 C209 1.355 . S
N208 C211 1.311 . S
C209 N208 1.355 . S
C209 C210 1.363 . S
C209 H221 0.929 . S
C210 C209 1.363 . S
C210 N212 1.375 . S
C210 H228 0.931 . S
C211 N208 1.311 . S
C211 N212 1.347 . S
C211 H222 0.929 . S
N212 C210 1.375 . S
N212 C211 1.347 . S
C213 C216 1.365 . S
C213 N218 1.328 1_556 S
C213 H219 0.929 . S
C214 C215 1.362 . S
C214 C217 1.378 . S
C214 H229 0.929 . S
C215 C214 1.362 . S
C215 C216 1.366 1_554 S
C216 C213 1.365 . S
C216 C215 1.366 1_556 S
C216 H230 0.930 . S
C217 C214 1.378 . S
C217 N218 1.315 . S
C217 H220 0.930 . S
N218 Co198 2.194 . S
N218 C213 1.328 1_554 S
N218 C217 1.315 . S
H219 C213 0.929 . S
H220 C217 0.930 . S
H221 C209 0.929 . S
H222 C211 0.929 . S
O223 Co198 2.351 . S
O223 C226 1.244 . S
O224 Co198 2.155 . S
O224 C226 1.240 . S
O225 Co198 2.096 . S
O225 C206 1.247 . S
C226 O223 1.244 . S
C226 O224 1.240 . S
H227 C201 0.931 . S
H228 C210 0.931 . S
H229 C214 0.929 . S
H230 C216 0.930 . S
Co231 N235 2.148 1_554 S
Co231 N241 2.128 . S
Co231 N251 2.195 . S
Co231 O256 2.348 1_565 S
Co231 O257 2.152 1_565 S
Co231 O258 2.097 1_565 S
C232 N235 1.288 1_545 S
C232 N236 1.317 1_545 S
C232 H237 0.953 . S
C233 C234 1.333 . S
C233 N235 1.317 . S
C233 H238 0.930 . S
C234 C233 1.333 . S
C234 N236 1.350 . S
C234 H260 0.931 . S
N235 Co231 2.148 1_556 S
N235 C232 1.288 1_565 S
N235 C233 1.317 . S
N236 C232 1.317 1_565 S
N236 C234 1.350 . S
H237 C232 0.953 . S
H238 C233 0.930 . S
C239 O240 1.224 . S
C239 O258 1.247 1_565 S
O240 C239 1.224 . S
N241 Co231 2.128 . S
N241 C242 1.355 . S
N241 C244 1.311 . S
C242 N241 1.355 . S
C242 C243 1.363 . S
C242 H254 0.929 . S
C243 C242 1.363 . S
C243 N245 1.375 . S
C243 H261 0.931 . S
C244 N241 1.311 . S
C244 N245 1.347 . S
C244 H255 0.929 . S
N245 C243 1.375 . S
N245 C244 1.347 . S
C246 C249 1.365 . S
C246 N251 1.328 1_556 S
C246 H252 0.929 . S
C247 C248 1.362 . S
C247 C250 1.378 . S
C247 H262 0.929 . S
C248 C247 1.362 . S
C248 C249 1.366 1_554 S
C249 C246 1.365 . S
C249 C248 1.366 1_556 S
C249 H263 0.930 . S
C250 C247 1.378 . S
C250 N251 1.315 . S
C250 H253 0.930 . S
N251 Co231 2.195 . S
N251 C246 1.328 1_554 S
N251 C250 1.315 . S
H252 C246 0.929 . S
H253 C250 0.930 . S
H254 C242 0.929 . S
H255 C244 0.929 . S
O256 Co231 2.348 1_545 S
O256 C259 1.244 . S
O257 Co231 2.152 1_545 S
O257 C259 1.240 . S
O258 Co231 2.097 1_545 S
O258 C239 1.247 1_545 S
C259 O256 1.244 . S
C259 O257 1.240 . S
H260 C234 0.931 . S
H261 C243 0.931 . S
H262 C247 0.929 . S
H263 C249 0.930 . S
Co264 N268 2.147 1_554 S
Co264 N274 2.131 . S
Co264 N284 2.207 . S
Co264 O289 2.350 1_455 S
Co264 O290 2.142 1_455 S
Co264 O291 2.088 1_455 S
C265 N268 1.305 1_655 S
C265 N269 1.332 1_655 S
C265 H270 0.923 . S
C266 C267 1.333 . S
C266 N268 1.317 . S
C266 H271 0.930 . S
C267 C266 1.333 . S
C267 N269 1.350 . S
C267 H293 0.931 . S
N268 Co264 2.147 1_556 S
N268 C265 1.305 1_455 S
N268 C266 1.317 . S
N269 C265 1.332 1_455 S
N269 C267 1.350 . S
H270 C265 0.923 . S
H271 C266 0.930 . S
C272 O273 1.224 . S
C272 O291 1.247 1_455 S
O273 C272 1.224 . S
N274 Co264 2.131 . S
N274 C275 1.355 . S
N274 C277 1.311 . S
C275 N274 1.355 . S
C275 C276 1.363 . S
C275 H287 0.929 . S
C276 C275 1.363 . S
C276 N278 1.375 . S
C276 H294 0.931 . S
C277 N274 1.311 . S
C277 N278 1.347 . S
C277 H288 0.929 . S
N278 C276 1.375 . S
N278 C277 1.347 . S
C279 C282 1.365 . S
C279 N284 1.328 1_556 S
C279 H285 0.929 . S
C280 C281 1.362 . S
C280 C283 1.378 . S
C280 H295 0.929 . S
C281 C280 1.362 . S
C281 C282 1.366 1_554 S
C282 C279 1.365 . S
C282 C281 1.366 1_556 S
C282 H296 0.930 . S
C283 C280 1.378 . S
C283 N284 1.315 . S
C283 H286 0.930 . S
N284 Co264 2.207 . S
N284 C279 1.328 1_554 S
N284 C283 1.315 . S
H285 C279 0.929 . S
H286 C283 0.930 . S
H287 C275 0.929 . S
H288 C277 0.929 . S
O289 Co264 2.350 1_655 S
O289 C292 1.244 . S
O290 Co264 2.142 1_655 S
O290 C292 1.240 . S
O291 Co264 2.088 1_655 S
O291 C272 1.247 1_655 S
C292 O289 1.244 . S
C292 O290 1.240 . S
H293 C267 0.931 . S
H294 C276 0.931 . S
H295 C280 0.929 . S
H296 C282 0.930 . S
Co297 N301 2.148 . S
Co297 N307 2.128 . S
Co297 N317 2.194 . S
Co297 O322 2.351 . S
Co297 O323 2.155 . S
Co297 O324 2.096 . S
C298 N301 1.301 . S
C298 N302 1.328 . S
C298 H303 0.930 . S
C299 C300 1.333 . S
C299 N301 1.317 . S
C299 H304 0.930 . S
C300 C299 1.333 . S
C300 N302 1.350 . S
C300 H326 0.931 . S
N301 Co297 2.148 . S
N301 C298 1.301 . S
N301 C299 1.317 . S
N302 C298 1.328 . S
N302 C300 1.350 . S
H303 C298 0.930 . S
H304 C299 0.930 . S
C305 O306 1.224 . S
C305 O324 1.247 . S
O306 C305 1.224 . S
N307 Co297 2.128 . S
N307 C308 1.355 . S
N307 C310 1.311 . S
C308 N307 1.355 . S
C308 C309 1.363 . S
C308 H320 0.929 . S
C309 C308 1.363 . S
C309 N311 1.375 . S
C309 H327 0.931 . S
C310 N307 1.311 . S
C310 N311 1.347 . S
C310 H321 0.929 . S
N311 C309 1.375 . S
N311 C310 1.347 . S
C312 C315 1.365 . S
C312 N317 1.328 . S
C312 H318 0.929 . S
C313 C314 1.362 . S
C313 C316 1.378 . S
C313 H328 0.929 . S
C314 C313 1.362 . S
C314 C315 1.366 . S
C315 C312 1.365 . S
C315 C314 1.366 . S
C315 H329 0.930 . S
C316 C313 1.378 . S
C316 N317 1.315 . S
C316 H319 0.930 . S
N317 Co297 2.194 . S
N317 C312 1.328 . S
N317 C316 1.315 . S
H318 C312 0.929 . S
H319 C316 0.930 . S
H320 C308 0.929 . S
H321 C310 0.929 . S
O322 Co297 2.351 . S
O322 C325 1.244 . S
O323 Co297 2.155 . S
O323 C325 1.240 . S
O324 Co297 2.096 . S
O324 C305 1.247 . S
C325 O322 1.244 . S
C325 O323 1.240 . S
H326 C300 0.931 . S
H327 C309 0.931 . S
H328 C313 0.929 . S
H329 C315 0.930 . S
Co330 N334 2.147 . S
Co330 N340 2.129 . S
Co330 N350 2.197 . S
Co330 O355 2.351 1_545 S
Co330 O356 2.152 1_545 S
Co330 O357 2.094 1_545 S
C331 N334 1.301 1_565 S
C331 N335 1.328 1_565 S
C331 H336 0.930 . S
C332 C333 1.333 . S
C332 N334 1.317 . S
C332 H337 0.930 . S
C333 C332 1.333 . S
C333 N335 1.350 . S
C333 H359 0.931 . S
N334 Co330 2.147 . S
N334 C331 1.301 1_545 S
N334 C332 1.317 . S
N335 C331 1.328 1_545 S
N335 C333 1.350 . S
H336 C331 0.930 . S
H337 C332 0.930 . S
C338 O339 1.224 . S
C338 O357 1.247 1_545 S
O339 C338 1.224 . S
N340 Co330 2.129 . S
N340 C341 1.355 . S
N340 C343 1.311 . S
C341 N340 1.355 . S
C341 C342 1.363 . S
C341 H353 0.929 . S
C342 C341 1.363 . S
C342 N344 1.375 . S
C342 H360 0.931 . S
C343 N340 1.311 . S
C343 N344 1.347 . S
C343 H354 0.929 . S
N344 C342 1.375 . S
N344 C343 1.347 . S
C345 C348 1.365 . S
C345 N350 1.328 . S
C345 H351 0.929 . S
C346 C347 1.362 . S
C346 C349 1.378 . S
C346 H361 0.929 . S
C347 C346 1.362 . S
C347 C348 1.366 . S
C348 C345 1.365 . S
C348 C347 1.366 . S
C348 H362 0.930 . S
C349 C346 1.378 . S
C349 N350 1.315 . S
C349 H352 0.930 . S
N350 Co330 2.197 . S
N350 C345 1.328 . S
N350 C349 1.315 . S
H351 C345 0.929 . S
H352 C349 0.930 . S
H353 C341 0.929 . S
H354 C343 0.929 . S
O355 Co330 2.351 1_565 S
O355 C358 1.244 . S
O356 Co330 2.152 1_565 S
O356 C358 1.240 . S
O357 Co330 2.094 1_565 S
O357 C338 1.247 1_565 S
C358 O355 1.244 . S
C358 O356 1.240 . S
H359 C333 0.931 . S
H360 C342 0.931 . S
H361 C346 0.929 . S
H362 C348 0.930 . S
Co363 N367 2.148 1_455 S
Co363 N373 2.128 1_455 S
Co363 N383 2.194 1_455 S
Co363 O388 2.351 . S
Co363 O389 2.154 . S
Co363 O390 2.096 . S
C364 N367 1.301 1_455 S
C364 N368 1.328 1_455 S
C364 H369 0.930 . S
C365 C366 1.333 . S
C365 N367 1.317 . S
C365 H370 0.930 . S
C366 C365 1.333 . S
C366 N368 1.350 . S
C366 H392 0.931 . S
N367 Co363 2.148 1_655 S
N367 C364 1.301 1_655 S
N367 C365 1.317 . S
N368 C364 1.328 1_655 S
N368 C366 1.350 . S
H369 C364 0.930 . S
H370 C365 0.930 . S
C371 O372 1.224 . S
C371 O390 1.247 1_655 S
O372 C371 1.224 . S
N373 Co363 2.128 1_655 S
N373 C374 1.355 . S
N373 C376 1.311 . S
C374 N373 1.355 . S
C374 C375 1.363 . S
C374 H386 0.929 . S
C375 C374 1.363 . S
C375 N377 1.375 . S
C375 H393 0.931 . S
C376 N373 1.311 . S
C376 N377 1.347 . S
C376 H387 0.929 . S
N377 C375 1.375 . S
N377 C376 1.347 . S
C378 C381 1.365 . S
C378 N383 1.328 . S
C378 H384 0.929 . S
C379 C380 1.362 . S
C379 C382 1.378 . S
C379 H394 0.929 . S
C380 C379 1.362 . S
C380 C381 1.366 . S
C381 C378 1.365 . S
C381 C380 1.366 . S
C381 H395 0.930 . S
C382 C379 1.378 . S
C382 N383 1.315 . S
C382 H385 0.930 . S
N383 Co363 2.194 1_655 S
N383 C378 1.328 . S
N383 C382 1.315 . S
H384 C378 0.929 . S
H385 C382 0.930 . S
H386 C374 0.929 . S
H387 C376 0.929 . S
O388 Co363 2.351 . S
O388 C391 1.244 . S
O389 Co363 2.154 . S
O389 C391 1.240 . S
O390 Co363 2.096 . S
O390 C371 1.247 1_455 S
C391 O388 1.244 . S
C391 O389 1.240 . S
H392 C366 0.931 . S
H393 C375 0.931 . S
H394 C379 0.929 . S
H395 C381 0.930 . S
Co396 N400 2.148 . S
Co396 N406 2.128 . S
Co396 N416 2.194 . S
Co396 O421 2.351 . S
Co396 O422 2.155 . S
Co396 O423 2.096 . S
C397 N400 1.301 . S
C397 N401 1.328 . S
C397 H402 0.930 . S
C398 C399 1.333 . S
C398 N400 1.317 . S
C398 H403 0.930 . S
C399 C398 1.333 . S
C399 N401 1.350 . S
C399 H425 0.931 . S
N400 Co396 2.148 . S
N400 C397 1.301 . S
N400 C398 1.317 . S
N401 C397 1.328 . S
N401 C399 1.350 . S
H402 C397 0.930 . S
H403 C398 0.930 . S
C404 O405 1.224 . S
C404 O423 1.247 . S
O405 C404 1.224 . S
N406 Co396 2.128 . S
N406 C407 1.355 . S
N406 C409 1.311 . S
C407 N406 1.355 . S
C407 C408 1.363 . S
C407 H419 0.929 . S
C408 C407 1.363 . S
C408 N410 1.375 . S
C408 H426 0.931 . S
C409 N406 1.311 . S
C409 N410 1.347 . S
C409 H420 0.929 . S
N410 C408 1.375 . S
N410 C409 1.347 . S
C411 C414 1.365 . S
C411 N416 1.328 . S
C411 H417 0.929 . S
C412 C413 1.362 . S
C412 C415 1.378 . S
C412 H427 0.929 . S
C413 C412 1.362 . S
C413 C414 1.366 . S
C414 C411 1.365 . S
C414 C413 1.366 . S
C414 H428 0.930 . S
C415 C412 1.378 . S
C415 N416 1.315 . S
C415 H418 0.930 . S
N416 Co396 2.194 . S
N416 C411 1.328 . S
N416 C415 1.315 . S
H417 C411 0.929 . S
H418 C415 0.930 . S
H419 C407 0.929 . S
H420 C409 0.929 . S
O421 Co396 2.351 . S
O421 C424 1.244 . S
O422 Co396 2.155 . S
O422 C424 1.240 . S
O423 Co396 2.096 . S
O423 C404 1.247 . S
C424 O421 1.244 . S
C424 O422 1.240 . S
H425 C399 0.931 . S
H426 C408 0.931 . S
H427 C412 0.929 . S
H428 C414 0.930 . S
Co429 N433 2.148 . S
Co429 N439 2.128 . S
Co429 N449 2.194 . S
Co429 O454 2.351 . S
Co429 O455 2.155 . S
Co429 O456 2.096 . S
C430 N433 1.301 . S
C430 N434 1.328 . S
C430 H435 0.930 . S
C431 C432 1.333 . S
C431 N433 1.317 . S
C431 H436 0.930 . S
C432 C431 1.333 . S
C432 N434 1.350 . S
C432 H458 0.931 . S
N433 Co429 2.148 . S
N433 C430 1.301 . S
N433 C431 1.317 . S
N434 C430 1.328 . S
N434 C432 1.350 . S
H435 C430 0.930 . S
H436 C431 0.930 . S
C437 O438 1.224 . S
C437 O456 1.247 . S
O438 C437 1.224 . S
N439 Co429 2.128 . S
N439 C440 1.355 . S
N439 C442 1.311 . S
C440 N439 1.355 . S
C440 C441 1.363 . S
C440 H452 0.929 . S
C441 C440 1.363 . S
C441 N443 1.375 . S
C441 H459 0.931 . S
C442 N439 1.311 . S
C442 N443 1.347 . S
C442 H453 0.929 . S
N443 C441 1.375 . S
N443 C442 1.347 . S
C444 C447 1.365 . S
C444 N449 1.328 . S
C444 H450 0.929 . S
C445 C446 1.362 . S
C445 C448 1.378 . S
C445 H460 0.929 . S
C446 C445 1.362 . S
C446 C447 1.366 . S
C447 C444 1.365 . S
C447 C446 1.366 . S
C447 H461 0.930 . S
C448 C445 1.378 . S
C448 N449 1.315 . S
C448 H451 0.930 . S
N449 Co429 2.194 . S
N449 C444 1.328 . S
N449 C448 1.315 . S
H450 C444 0.929 . S
H451 C448 0.930 . S
H452 C440 0.929 . S
H453 C442 0.929 . S
O454 Co429 2.351 . S
O454 C457 1.244 . S
O455 Co429 2.155 . S
O455 C457 1.240 . S
O456 Co429 2.096 . S
O456 C437 1.247 . S
C457 O454 1.244 . S
C457 O455 1.240 . S
H458 C432 0.931 . S
H459 C441 0.931 . S
H460 C445 0.929 . S
H461 C447 0.930 . S
Co462 N466 2.148 . S
Co462 N472 2.128 . S
Co462 N482 2.194 . S
Co462 O487 2.351 . S
Co462 O488 2.155 . S
Co462 O489 2.096 . S
C463 N466 1.301 . S
C463 N467 1.328 . S
C463 H468 0.930 . S
C464 C465 1.333 . S
C464 N466 1.317 . S
C464 H469 0.930 . S
C465 C464 1.333 . S
C465 N467 1.350 . S
C465 H491 0.931 . S
N466 Co462 2.148 . S
N466 C463 1.301 . S
N466 C464 1.317 . S
N467 C463 1.328 . S
N467 C465 1.350 . S
H468 C463 0.930 . S
H469 C464 0.930 . S
C470 O471 1.224 . S
C470 O489 1.247 . S
O471 C470 1.224 . S
N472 Co462 2.128 . S
N472 C473 1.355 . S
N472 C475 1.311 . S
C473 N472 1.355 . S
C473 C474 1.363 . S
C473 H485 0.929 . S
C474 C473 1.363 . S
C474 N476 1.375 . S
C474 H492 0.931 . S
C475 N472 1.311 . S
C475 N476 1.347 . S
C475 H486 0.929 . S
N476 C474 1.375 . S
N476 C475 1.347 . S
C477 C480 1.365 . S
C477 N482 1.328 . S
C477 H483 0.929 . S
C478 C479 1.362 . S
C478 C481 1.378 . S
C478 H493 0.929 . S
C479 C478 1.362 . S
C479 C480 1.366 . S
C480 C477 1.365 . S
C480 C479 1.366 . S
C480 H494 0.930 . S
C481 C478 1.378 . S
C481 N482 1.315 . S
C481 H484 0.930 . S
N482 Co462 2.194 . S
N482 C477 1.328 . S
N482 C481 1.315 . S
H483 C477 0.929 . S
H484 C481 0.930 . S
H485 C473 0.929 . S
H486 C475 0.929 . S
O487 Co462 2.351 . S
O487 C490 1.244 . S
O488 Co462 2.155 . S
O488 C490 1.240 . S
O489 Co462 2.096 . S
O489 C470 1.247 . S
C490 O487 1.244 . S
C490 O488 1.240 . S
H491 C465 0.931 . S
H492 C474 0.931 . S
H493 C478 0.929 . S
H494 C480 0.930 . S
Co495 N499 2.148 . S
Co495 N505 2.128 . S
Co495 N515 2.194 . S
Co495 O520 2.351 . S
Co495 O521 2.155 . S
Co495 O522 2.096 . S
C496 N499 1.301 . S
C496 N500 1.328 . S
C496 H501 0.930 . S
C497 C498 1.333 . S
C497 N499 1.317 . S
C497 H502 0.930 . S
C498 C497 1.333 . S
C498 N500 1.350 . S
C498 H524 0.931 . S
N499 Co495 2.148 . S
N499 C496 1.301 . S
N499 C497 1.317 . S
N500 C496 1.328 . S
N500 C498 1.350 . S
H501 C496 0.930 . S
H502 C497 0.930 . S
C503 O504 1.224 . S
C503 O522 1.247 . S
O504 C503 1.224 . S
N505 Co495 2.128 . S
N505 C506 1.355 . S
N505 C508 1.311 1_556 S
C506 N505 1.355 . S
C506 C507 1.363 1_556 S
C506 H518 0.929 . S
C507 C506 1.363 1_554 S
C507 N509 1.375 . S
C507 H525 0.931 . S
C508 N505 1.311 1_554 S
C508 N509 1.347 . S
C508 H519 0.929 . S
N509 C507 1.375 . S
N509 C508 1.347 . S
C510 C513 1.365 . S
C510 N515 1.328 . S
C510 H516 0.929 . S
C511 C512 1.362 . S
C511 C514 1.378 . S
C511 H526 0.929 . S
C512 C511 1.362 . S
C512 C513 1.366 . S
C513 C510 1.365 . S
C513 C512 1.366 . S
C513 H527 0.930 . S
C514 C511 1.378 . S
C514 N515 1.315 . S
C514 H517 0.930 . S
N515 Co495 2.194 . S
N515 C510 1.328 . S
N515 C514 1.315 . S
H516 C510 0.929 . S
H517 C514 0.930 . S
H518 C506 0.929 . S
H519 C508 0.929 . S
O520 Co495 2.351 . S
O520 C523 1.244 . S
O521 Co495 2.155 . S
O521 C523 1.240 . S
O522 Co495 2.096 . S
O522 C503 1.247 . S
C523 O520 1.244 . S
C523 O521 1.240 . S
H524 C498 0.931 . S
H525 C507 0.931 . S
H526 C511 0.929 . S
H527 C513 0.930 . S
Co528 N532 2.148 . S
Co528 N538 2.128 . S
Co528 N548 2.194 . S
Co528 O553 2.351 . S
Co528 O554 2.155 . S
Co528 O555 2.096 . S
C529 N532 1.301 . S
C529 N533 1.328 . S
C529 H534 0.930 . S
C530 C531 1.333 . S
C530 N532 1.317 . S
C530 H535 0.930 . S
C531 C530 1.333 . S
C531 N533 1.350 . S
C531 H557 0.931 . S
N532 Co528 2.148 . S
N532 C529 1.301 . S
N532 C530 1.317 . S
N533 C529 1.328 . S
N533 C531 1.350 . S
H534 C529 0.930 . S
H535 C530 0.930 . S
C536 O537 1.224 . S
C536 O555 1.247 . S
O537 C536 1.224 . S
N538 Co528 2.128 . S
N538 C539 1.355 . S
N538 C541 1.311 1_556 S
C539 N538 1.355 . S
C539 C540 1.363 1_556 S
C539 H551 0.929 . S
C540 C539 1.363 1_554 S
C540 N542 1.375 . S
C540 H558 0.931 . S
C541 N538 1.311 1_554 S
C541 N542 1.347 . S
C541 H552 0.929 . S
N542 C540 1.375 . S
N542 C541 1.347 . S
C543 C546 1.365 . S
C543 N548 1.328 . S
C543 H549 0.929 . S
C544 C545 1.362 . S
C544 C547 1.378 . S
C544 H559 0.929 . S
C545 C544 1.362 . S
C545 C546 1.366 . S
C546 C543 1.365 . S
C546 C545 1.366 . S
C546 H560 0.930 . S
C547 C544 1.378 . S
C547 N548 1.315 . S
C547 H550 0.930 . S
N548 Co528 2.194 . S
N548 C543 1.328 . S
N548 C547 1.315 . S
H549 C543 0.929 . S
H550 C547 0.930 . S
H551 C539 0.929 . S
H552 C541 0.929 . S
O553 Co528 2.351 . S
O553 C556 1.244 . S
O554 Co528 2.155 . S
O554 C556 1.240 . S
O555 Co528 2.096 . S
O555 C536 1.247 . S
C556 O553 1.244 . S
C556 O554 1.240 . S
H557 C531 0.931 . S
H558 C540 0.931 . S
H559 C544 0.929 . S
H560 C546 0.930 . S
Co561 N565 2.148 . S
Co561 N571 2.128 . S
Co561 N581 2.194 . S
Co561 O586 2.351 . S
Co561 O587 2.155 . S
Co561 O588 2.096 . S
C562 N565 1.301 . S
C562 N566 1.328 . S
C562 H567 0.930 . S
C563 C564 1.333 . S
C563 N565 1.317 . S
C563 H568 0.930 . S
C564 C563 1.333 . S
C564 N566 1.350 . S
C564 H590 0.931 . S
N565 Co561 2.148 . S
N565 C562 1.301 . S
N565 C563 1.317 . S
N566 C562 1.328 . S
N566 C564 1.350 . S
H567 C562 0.930 . S
H568 C563 0.930 . S
C569 O570 1.224 . S
C569 O588 1.247 . S
O570 C569 1.224 . S
N571 Co561 2.128 . S
N571 C572 1.355 . S
N571 C574 1.311 1_556 S
C572 N571 1.355 . S
C572 C573 1.363 1_556 S
C572 H584 0.929 . S
C573 C572 1.363 1_554 S
C573 N575 1.375 . S
C573 H591 0.931 . S
C574 N571 1.311 1_554 S
C574 N575 1.347 . S
C574 H585 0.929 . S
N575 C573 1.375 . S
N575 C574 1.347 . S
C576 C579 1.365 . S
C576 N581 1.328 . S
C576 H582 0.929 . S
C577 C578 1.362 . S
C577 C580 1.378 . S
C577 H592 0.929 . S
C578 C577 1.362 . S
C578 C579 1.366 . S
C579 C576 1.365 . S
C579 C578 1.366 . S
C579 H593 0.930 . S
C580 C577 1.378 . S
C580 N581 1.315 . S
C580 H583 0.930 . S
N581 Co561 2.194 . S
N581 C576 1.328 . S
N581 C580 1.315 . S
H582 C576 0.929 . S
H583 C580 0.930 . S
H584 C572 0.929 . S
H585 C574 0.929 . S
O586 Co561 2.351 . S
O586 C589 1.244 . S
O587 Co561 2.155 . S
O587 C589 1.240 . S
O588 Co561 2.096 . S
O588 C569 1.247 . S
C589 O586 1.244 . S
C589 O587 1.240 . S
H590 C564 0.931 . S
H591 C573 0.931 . S
H592 C577 0.929 . S
H593 C579 0.930 . S
Co594 N598 2.148 . S
Co594 N604 2.128 . S
Co594 N614 2.194 . S
Co594 O619 2.351 . S
Co594 O620 2.155 . S
Co594 O621 2.096 . S
C595 N598 1.301 . S
C595 N599 1.328 . S
C595 H600 0.930 . S
C596 C597 1.333 . S
C596 N598 1.317 . S
C596 H601 0.930 . S
C597 C596 1.333 . S
C597 N599 1.350 . S
C597 H623 0.931 . S
N598 Co594 2.148 . S
N598 C595 1.301 . S
N598 C596 1.317 . S
N599 C595 1.328 . S
N599 C597 1.350 . S
H600 C595 0.930 . S
H601 C596 0.930 . S
C602 O603 1.224 . S
C602 O621 1.247 . S
O603 C602 1.224 . S
N604 Co594 2.128 . S
N604 C605 1.355 . S
N604 C607 1.311 . S
C605 N604 1.355 . S
C605 C606 1.363 . S
C605 H617 0.929 . S
C606 C605 1.363 . S
C606 N608 1.375 . S
C606 H624 0.931 . S
C607 N604 1.311 . S
C607 N608 1.347 . S
C607 H618 0.929 . S
N608 C606 1.375 . S
N608 C607 1.347 . S
C609 C612 1.365 . S
C609 N614 1.328 . S
C609 H615 0.929 . S
C610 C611 1.362 . S
C610 C613 1.378 . S
C610 H625 0.929 . S
C611 C610 1.362 . S
C611 C612 1.366 . S
C612 C609 1.365 . S
C612 C611 1.366 . S
C612 H626 0.930 . S
C613 C610 1.378 . S
C613 N614 1.315 . S
C613 H616 0.930 . S
N614 Co594 2.194 . S
N614 C609 1.328 . S
N614 C613 1.315 . S
H615 C609 0.929 . S
H616 C613 0.930 . S
H617 C605 0.929 . S
H618 C607 0.929 . S
O619 Co594 2.351 . S
O619 C622 1.244 . S
O620 Co594 2.155 . S
O620 C622 1.240 . S
O621 Co594 2.096 . S
O621 C602 1.247 . S
C622 O619 1.244 . S
C622 O620 1.240 . S
H623 C597 0.931 . S
H624 C606 0.931 . S
H625 C610 0.929 . S
H626 C612 0.930 . S
Co627 N631 2.148 . S
Co627 N637 2.128 . S
Co627 N647 2.194 . S
Co627 O652 2.351 . S
Co627 O653 2.155 . S
Co627 O654 2.096 . S
C628 N631 1.301 . S
C628 N632 1.328 . S
C628 H633 0.930 . S
C629 C630 1.333 . S
C629 N631 1.317 . S
C629 H634 0.930 . S
C630 C629 1.333 . S
C630 N632 1.350 . S
C630 H656 0.931 . S
N631 Co627 2.148 . S
N631 C628 1.301 . S
N631 C629 1.317 . S
N632 C628 1.328 . S
N632 C630 1.350 . S
H633 C628 0.930 . S
H634 C629 0.930 . S
C635 O636 1.224 . S
C635 O654 1.247 . S
O636 C635 1.224 . S
N637 Co627 2.128 . S
N637 C638 1.355 . S
N637 C640 1.311 . S
C638 N637 1.355 . S
C638 C639 1.363 . S
C638 H650 0.929 . S
C639 C638 1.363 . S
C639 N641 1.375 . S
C639 H657 0.931 . S
C640 N637 1.311 . S
C640 N641 1.347 . S
C640 H651 0.929 . S
N641 C639 1.375 . S
N641 C640 1.347 . S
C642 C645 1.365 . S
C642 N647 1.328 . S
C642 H648 0.929 . S
C643 C644 1.362 . S
C643 C646 1.378 . S
C643 H658 0.929 . S
C644 C643 1.362 . S
C644 C645 1.366 . S
C645 C642 1.365 . S
C645 C644 1.366 . S
C645 H659 0.930 . S
C646 C643 1.378 . S
C646 N647 1.315 . S
C646 H649 0.930 . S
N647 Co627 2.194 . S
N647 C642 1.328 . S
N647 C646 1.315 . S
H648 C642 0.929 . S
H649 C646 0.930 . S
H650 C638 0.929 . S
H651 C640 0.929 . S
O652 Co627 2.351 . S
O652 C655 1.244 . S
O653 Co627 2.155 . S
O653 C655 1.240 . S
O654 Co627 2.096 . S
O654 C635 1.247 . S
C655 O652 1.244 . S
C655 O653 1.240 . S
H656 C630 0.931 . S
H657 C639 0.931 . S
H658 C643 0.929 . S
H659 C645 0.930 . S
Co660 N664 2.148 . S
Co660 N670 2.128 . S
Co660 N680 2.194 . S
Co660 O685 2.351 . S
Co660 O686 2.155 . S
Co660 O687 2.096 . S
C661 N664 1.301 . S
C661 N665 1.328 . S
C661 H666 0.930 . S
C662 C663 1.333 . S
C662 N664 1.317 . S
C662 H667 0.930 . S
C663 C662 1.333 . S
C663 N665 1.350 . S
C663 H689 0.931 . S
N664 Co660 2.148 . S
N664 C661 1.301 . S
N664 C662 1.317 . S
N665 C661 1.328 . S
N665 C663 1.350 . S
H666 C661 0.930 . S
H667 C662 0.930 . S
C668 O669 1.224 . S
C668 O687 1.247 . S
O669 C668 1.224 . S
N670 Co660 2.128 . S
N670 C671 1.355 . S
N670 C673 1.311 . S
C671 N670 1.355 . S
C671 C672 1.363 . S
C671 H683 0.929 . S
C672 C671 1.363 . S
C672 N674 1.375 . S
C672 H690 0.931 . S
C673 N670 1.311 . S
C673 N674 1.347 . S
C673 H684 0.929 . S
N674 C672 1.375 . S
N674 C673 1.347 . S
C675 C678 1.365 . S
C675 N680 1.328 . S
C675 H681 0.929 . S
C676 C677 1.362 . S
C676 C679 1.378 . S
C676 H691 0.929 . S
C677 C676 1.362 . S
C677 C678 1.366 . S
C678 C675 1.365 . S
C678 C677 1.366 . S
C678 H692 0.930 . S
C679 C676 1.378 . S
C679 N680 1.315 . S
C679 H682 0.930 . S
N680 Co660 2.194 . S
N680 C675 1.328 . S
N680 C679 1.315 . S
H681 C675 0.929 . S
H682 C679 0.930 . S
H683 C671 0.929 . S
H684 C673 0.929 . S
O685 Co660 2.351 . S
O685 C688 1.244 . S
O686 Co660 2.155 . S
O686 C688 1.240 . S
O687 Co660 2.096 . S
O687 C668 1.247 . S
C688 O685 1.244 . S
C688 O686 1.240 . S
H689 C663 0.931 . S
H690 C672 0.931 . S
H691 C676 0.929 . S
H692 C678 0.930 . S
Co693 N697 2.148 . S
Co693 N703 2.128 . S
Co693 N713 2.194 . S
Co693 O718 2.351 . S
Co693 O719 2.155 . S
Co693 O720 2.096 . S
C694 N697 1.303 . S
C694 N698 1.327 1_556 S
C694 H699 0.930 . S
C695 C696 1.333 1_556 S
C695 N697 1.317 . S
C695 H700 0.930 . S
C696 C695 1.333 1_554 S
C696 N698 1.350 . S
C696 H722 0.931 . S
N697 Co693 2.148 . S
N697 C694 1.303 . S
N697 C695 1.317 . S
N698 C694 1.327 1_554 S
N698 C696 1.350 . S
H699 C694 0.930 . S
H700 C695 0.930 . S
C701 O702 1.224 . S
C701 O720 1.247 . S
O702 C701 1.224 . S
N703 Co693 2.128 . S
N703 C704 1.355 . S
N703 C706 1.311 . S
C704 N703 1.355 . S
C704 C705 1.363 . S
C704 H716 0.929 . S
C705 C704 1.363 . S
C705 N707 1.375 . S
C705 H723 0.931 . S
C706 N703 1.311 . S
C706 N707 1.347 . S
C706 H717 0.929 . S
N707 C705 1.375 . S
N707 C706 1.347 . S
C708 C711 1.365 . S
C708 N713 1.328 . S
C708 H714 0.929 . S
C709 C710 1.362 . S
C709 C712 1.378 . S
C709 H724 0.929 . S
C710 C709 1.362 . S
C710 C711 1.366 . S
C711 C708 1.365 . S
C711 C710 1.366 . S
C711 H725 0.930 . S
C712 C709 1.378 . S
C712 N713 1.315 . S
C712 H715 0.930 . S
N713 Co693 2.194 . S
N713 C708 1.328 . S
N713 C712 1.315 . S
H714 C708 0.929 . S
H715 C712 0.930 . S
H716 C704 0.929 . S
H717 C706 0.929 . S
O718 Co693 2.351 . S
O718 C721 1.244 . S
O719 Co693 2.155 . S
O719 C721 1.240 . S
O720 Co693 2.096 . S
O720 C701 1.247 . S
C721 O718 1.244 . S
C721 O719 1.240 . S
H722 C696 0.931 . S
H723 C705 0.931 . S
H724 C709 0.929 . S
H725 C711 0.930 . S
Co726 N730 2.148 . S
Co726 N736 2.128 . S
Co726 N746 2.194 . S
Co726 O751 2.351 . S
Co726 O752 2.155 . S
Co726 O753 2.096 . S
C727 N730 1.303 . S
C727 N731 1.327 1_556 S
C727 H732 0.930 . S
C728 C729 1.333 1_556 S
C728 N730 1.317 . S
C728 H733 0.930 . S
C729 C728 1.333 1_554 S
C729 N731 1.350 . S
C729 H755 0.931 . S
N730 Co726 2.148 . S
N730 C727 1.303 . S
N730 C728 1.317 . S
N731 C727 1.327 1_554 S
N731 C729 1.350 . S
H732 C727 0.930 . S
H733 C728 0.930 . S
C734 O735 1.224 . S
C734 O753 1.247 . S
O735 C734 1.224 . S
N736 Co726 2.128 . S
N736 C737 1.355 . S
N736 C739 1.311 . S
C737 N736 1.355 . S
C737 C738 1.363 . S
C737 H749 0.929 . S
C738 C737 1.363 . S
C738 N740 1.375 . S
C738 H756 0.931 . S
C739 N736 1.311 . S
C739 N740 1.347 . S
C739 H750 0.929 . S
N740 C738 1.375 . S
N740 C739 1.347 . S
C741 C744 1.365 . S
C741 N746 1.328 . S
C741 H747 0.929 . S
C742 C743 1.362 . S
C742 C745 1.378 . S
C742 H757 0.929 . S
C743 C742 1.362 . S
C743 C744 1.366 . S
C744 C741 1.365 . S
C744 C743 1.366 . S
C744 H758 0.930 . S
C745 C742 1.378 . S
C745 N746 1.315 . S
C745 H748 0.930 . S
N746 Co726 2.194 . S
N746 C741 1.328 . S
N746 C745 1.315 . S
H747 C741 0.929 . S
H748 C745 0.930 . S
H749 C737 0.929 . S
H750 C739 0.929 . S
O751 Co726 2.351 . S
O751 C754 1.244 . S
O752 Co726 2.155 . S
O752 C754 1.240 . S
O753 Co726 2.096 . S
O753 C734 1.247 . S
C754 O751 1.244 . S
C754 O752 1.240 . S
H755 C729 0.931 . S
H756 C738 0.931 . S
H757 C742 0.929 . S
H758 C744 0.930 . S
Co759 N763 2.148 . S
Co759 N769 2.128 . S
Co759 N779 2.194 . S
Co759 O784 2.351 . S
Co759 O785 2.155 . S
Co759 O786 2.096 . S
C760 N763 1.303 . S
C760 N764 1.327 1_556 S
C760 H765 0.930 . S
C761 C762 1.333 1_556 S
C761 N763 1.317 . S
C761 H766 0.930 . S
C762 C761 1.333 1_554 S
C762 N764 1.350 . S
C762 H788 0.931 . S
N763 Co759 2.148 . S
N763 C760 1.303 . S
N763 C761 1.317 . S
N764 C760 1.327 1_554 S
N764 C762 1.350 . S
H765 C760 0.930 . S
H766 C761 0.930 . S
C767 O768 1.224 . S
C767 O786 1.247 . S
O768 C767 1.224 . S
N769 Co759 2.128 . S
N769 C770 1.355 . S
N769 C772 1.311 . S
C770 N769 1.355 . S
C770 C771 1.363 . S
C770 H782 0.929 . S
C771 C770 1.363 . S
C771 N773 1.375 . S
C771 H789 0.931 . S
C772 N769 1.311 . S
C772 N773 1.347 . S
C772 H783 0.929 . S
N773 C771 1.375 . S
N773 C772 1.347 . S
C774 C777 1.365 . S
C774 N779 1.328 . S
C774 H780 0.929 . S
C775 C776 1.362 . S
C775 C778 1.378 . S
C775 H790 0.929 . S
C776 C775 1.362 . S
C776 C777 1.366 . S
C777 C774 1.365 . S
C777 C776 1.366 . S
C777 H791 0.930 . S
C778 C775 1.378 . S
C778 N779 1.315 . S
C778 H781 0.930 . S
N779 Co759 2.194 . S
N779 C774 1.328 . S
N779 C778 1.315 . S
H780 C774 0.929 . S
H781 C778 0.930 . S
H782 C770 0.929 . S
H783 C772 0.929 . S
O784 Co759 2.351 . S
O784 C787 1.244 . S
O785 Co759 2.155 . S
O785 C787 1.240 . S
O786 Co759 2.096 . S
O786 C767 1.247 . S
C787 O784 1.244 . S
C787 O785 1.240 . S
H788 C762 0.931 . S
H789 C771 0.931 . S
H790 C775 0.929 . S
H791 C777 0.930 . S
Co792 N796 2.148 . S
Co792 N802 2.128 . S
Co792 N812 2.194 . S
Co792 O817 2.351 . S
Co792 O818 2.155 . S
Co792 O819 2.096 . S
C793 N796 1.301 . S
C793 N797 1.328 . S
C793 H798 0.930 . S
C794 C795 1.333 . S
C794 N796 1.317 . S
C794 H799 0.930 . S
C795 C794 1.333 . S
C795 N797 1.350 . S
C795 H821 0.931 . S
N796 Co792 2.148 . S
N796 C793 1.301 . S
N796 C794 1.317 . S
N797 C793 1.328 . S
N797 C795 1.350 . S
H798 C793 0.930 . S
H799 C794 0.930 . S
C800 O801 1.224 . S
C800 O819 1.247 . S
O801 C800 1.224 . S
N802 Co792 2.128 . S
N802 C803 1.355 . S
N802 C805 1.311 . S
C803 N802 1.355 . S
C803 C804 1.363 . S
C803 H815 0.929 . S
C804 C803 1.363 . S
C804 N806 1.375 . S
C804 H822 0.931 . S
C805 N802 1.311 . S
C805 N806 1.347 . S
C805 H816 0.929 . S
N806 C804 1.375 . S
N806 C805 1.347 . S
C807 C810 1.365 . S
C807 N812 1.328 . S
C807 H813 0.929 . S
C808 C809 1.362 . S
C808 C811 1.378 . S
C808 H823 0.929 . S
C809 C808 1.362 . S
C809 C810 1.366 . S
C810 C807 1.365 . S
C810 C809 1.366 . S
C810 H824 0.930 . S
C811 C808 1.378 . S
C811 N812 1.315 . S
C811 H814 0.930 . S
N812 Co792 2.194 . S
N812 C807 1.328 . S
N812 C811 1.315 . S
H813 C807 0.929 . S
H814 C811 0.930 . S
H815 C803 0.929 . S
H816 C805 0.929 . S
O817 Co792 2.351 . S
O817 C820 1.244 . S
O818 Co792 2.155 . S
O818 C820 1.240 . S
O819 Co792 2.096 . S
O819 C800 1.247 . S
C820 O817 1.244 . S
C820 O818 1.240 . S
H821 C795 0.931 . S
H822 C804 0.931 . S
H823 C808 0.929 . S
H824 C810 0.930 . S
Co825 N829 2.148 . S
Co825 N835 2.128 . S
Co825 N845 2.194 . S
Co825 O850 2.351 . S
Co825 O851 2.155 . S
Co825 O852 2.096 . S
C826 N829 1.301 . S
C826 N830 1.328 . S
C826 H831 0.930 . S
C827 C828 1.333 . S
C827 N829 1.317 . S
C827 H832 0.930 . S
C828 C827 1.333 . S
C828 N830 1.350 . S
C828 H854 0.931 . S
N829 Co825 2.148 . S
N829 C826 1.301 . S
N829 C827 1.317 . S
N830 C826 1.328 . S
N830 C828 1.350 . S
H831 C826 0.930 . S
H832 C827 0.930 . S
C833 O834 1.224 . S
C833 O852 1.247 . S
O834 C833 1.224 . S
N835 Co825 2.128 . S
N835 C836 1.355 . S
N835 C838 1.311 . S
C836 N835 1.355 . S
C836 C837 1.363 . S
C836 H848 0.929 . S
C837 C836 1.363 . S
C837 N839 1.375 . S
C837 H855 0.931 . S
C838 N835 1.311 . S
C838 N839 1.347 . S
C838 H849 0.929 . S
N839 C837 1.375 . S
N839 C838 1.347 . S
C840 C843 1.365 . S
C840 N845 1.328 . S
C840 H846 0.929 . S
C841 C842 1.362 . S
C841 C844 1.378 . S
C841 H856 0.929 . S
C842 C841 1.362 . S
C842 C843 1.366 . S
C843 C840 1.365 . S
C843 C842 1.366 . S
C843 H857 0.930 . S
C844 C841 1.378 . S
C844 N845 1.315 . S
C844 H847 0.930 . S
N845 Co825 2.194 . S
N845 C840 1.328 . S
N845 C844 1.315 . S
H846 C840 0.929 . S
H847 C844 0.930 . S
H848 C836 0.929 . S
H849 C838 0.929 . S
O850 Co825 2.351 . S
O850 C853 1.244 . S
O851 Co825 2.155 . S
O851 C853 1.240 . S
O852 Co825 2.096 . S
O852 C833 1.247 . S
C853 O850 1.244 . S
C853 O851 1.240 . S
H854 C828 0.931 . S
H855 C837 0.931 . S
H856 C841 0.929 . S
H857 C843 0.930 . S
Co858 N862 2.148 . S
Co858 N868 2.128 . S
Co858 N878 2.194 . S
Co858 O883 2.351 . S
Co858 O884 2.155 . S
Co858 O885 2.096 . S
C859 N862 1.301 . S
C859 N863 1.328 . S
C859 H864 0.930 . S
C860 C861 1.333 . S
C860 N862 1.317 . S
C860 H865 0.930 . S
C861 C860 1.333 . S
C861 N863 1.350 . S
C861 H887 0.931 . S
N862 Co858 2.148 . S
N862 C859 1.301 . S
N862 C860 1.317 . S
N863 C859 1.328 . S
N863 C861 1.350 . S
H864 C859 0.930 . S
H865 C860 0.930 . S
C866 O867 1.224 . S
C866 O885 1.247 . S
O867 C866 1.224 . S
N868 Co858 2.128 . S
N868 C869 1.355 . S
N868 C871 1.311 . S
C869 N868 1.355 . S
C869 C870 1.363 . S
C869 H881 0.929 . S
C870 C869 1.363 . S
C870 N872 1.375 . S
C870 H888 0.931 . S
C871 N868 1.311 . S
C871 N872 1.347 . S
C871 H882 0.929 . S
N872 C870 1.375 . S
N872 C871 1.347 . S
C873 C876 1.365 . S
C873 N878 1.328 . S
C873 H879 0.929 . S
C874 C875 1.362 . S
C874 C877 1.378 . S
C874 H889 0.929 . S
C875 C874 1.362 . S
C875 C876 1.366 . S
C876 C873 1.365 . S
C876 C875 1.366 . S
C876 H890 0.930 . S
C877 C874 1.378 . S
C877 N878 1.315 . S
C877 H880 0.930 . S
N878 Co858 2.194 . S
N878 C873 1.328 . S
N878 C877 1.315 . S
H879 C873 0.929 . S
H880 C877 0.930 . S
H881 C869 0.929 . S
H882 C871 0.929 . S
O883 Co858 2.351 . S
O883 C886 1.244 . S
O884 Co858 2.155 . S
O884 C886 1.240 . S
O885 Co858 2.096 . S
O885 C866 1.247 . S
C886 O883 1.244 . S
C886 O884 1.240 . S
H887 C861 0.931 . S
H888 C870 0.931 . S
H889 C874 0.929 . S
H890 C876 0.930 . S
Co891 N895 2.148 . S
Co891 N901 2.128 . S
Co891 N911 2.194 . S
Co891 O916 2.351 . S
Co891 O917 2.155 . S
Co891 O918 2.096 . S
C892 N895 1.301 . S
C892 N896 1.328 1_554 S
C892 H897 0.930 . S
C893 C894 1.333 . S
C893 N895 1.317 . S
C893 H898 0.930 . S
C894 C893 1.333 . S
C894 N896 1.350 1_554 S
C894 H920 0.931 1_554 S
N895 Co891 2.148 . S
N895 C892 1.301 . S
N895 C893 1.317 . S
N896 C892 1.328 1_556 S
N896 C894 1.350 1_556 S
H897 C892 0.930 . S
H898 C893 0.930 . S
C899 O900 1.224 . S
C899 O918 1.247 . S
O900 C899 1.224 . S
N901 Co891 2.128 . S
N901 C902 1.355 . S
N901 C904 1.311 . S
C902 N901 1.355 . S
C902 C903 1.363 . S
C902 H914 0.929 . S
C903 C902 1.363 . S
C903 N905 1.375 . S
C903 H921 0.931 . S
C904 N901 1.311 . S
C904 N905 1.347 . S
C904 H915 0.929 . S
N905 C903 1.375 . S
N905 C904 1.347 . S
C906 C909 1.365 . S
C906 N911 1.328 . S
C906 H912 0.929 . S
C907 C908 1.362 . S
C907 C910 1.378 . S
C907 H922 0.929 . S
C908 C907 1.362 . S
C908 C909 1.366 . S
C909 C906 1.365 . S
C909 C908 1.366 . S
C909 H923 0.930 . S
C910 C907 1.378 . S
C910 N911 1.315 . S
C910 H913 0.930 . S
N911 Co891 2.194 . S
N911 C906 1.328 . S
N911 C910 1.315 . S
H912 C906 0.929 . S
H913 C910 0.930 . S
H914 C902 0.929 . S
H915 C904 0.929 . S
O916 Co891 2.351 . S
O916 C919 1.244 . S
O917 Co891 2.155 . S
O917 C919 1.240 . S
O918 Co891 2.096 . S
O918 C899 1.247 . S
C919 O916 1.244 . S
C919 O917 1.240 . S
H920 C894 0.931 1_556 S
H921 C903 0.931 . S
H922 C907 0.929 . S
H923 C909 0.930 . S
Co924 N928 2.148 . S
Co924 N934 2.128 . S
Co924 N944 2.194 . S
Co924 O949 2.351 . S
Co924 O950 2.155 . S
Co924 O951 2.096 . S
C925 N928 1.301 . S
C925 N929 1.328 1_554 S
C925 H930 0.930 . S
C926 C927 1.333 . S
C926 N928 1.317 . S
C926 H931 0.930 . S
C927 C926 1.333 . S
C927 N929 1.350 1_554 S
C927 H953 0.931 1_554 S
N928 Co924 2.148 . S
N928 C925 1.301 . S
N928 C926 1.317 . S
N929 C925 1.328 1_556 S
N929 C927 1.350 1_556 S
H930 C925 0.930 . S
H931 C926 0.930 . S
C932 O933 1.224 . S
C932 O951 1.247 . S
O933 C932 1.224 . S
N934 Co924 2.128 . S
N934 C935 1.355 . S
N934 C937 1.311 . S
C935 N934 1.355 . S
C935 C936 1.363 . S
C935 H947 0.929 . S
C936 C935 1.363 . S
C936 N938 1.375 . S
C936 H954 0.931 . S
C937 N934 1.311 . S
C937 N938 1.347 . S
C937 H948 0.929 . S
N938 C936 1.375 . S
N938 C937 1.347 . S
C939 C942 1.365 . S
C939 N944 1.328 . S
C939 H945 0.929 . S
C940 C941 1.362 . S
C940 C943 1.378 . S
C940 H955 0.929 . S
C941 C940 1.362 . S
C941 C942 1.366 . S
C942 C939 1.365 . S
C942 C941 1.366 . S
C942 H956 0.930 . S
C943 C940 1.378 . S
C943 N944 1.315 . S
C943 H946 0.930 . S
N944 Co924 2.194 . S
N944 C939 1.328 . S
N944 C943 1.315 . S
H945 C939 0.929 . S
H946 C943 0.930 . S
H947 C935 0.929 . S
H948 C937 0.929 . S
O949 Co924 2.351 . S
O949 C952 1.244 . S
O950 Co924 2.155 . S
O950 C952 1.240 . S
O951 Co924 2.096 . S
O951 C932 1.247 . S
C952 O949 1.244 . S
C952 O950 1.240 . S
H953 C927 0.931 1_556 S
H954 C936 0.931 . S
H955 C940 0.929 . S
H956 C942 0.930 . S
Co957 N961 2.148 . S
Co957 N967 2.128 . S
Co957 N977 2.194 . S
Co957 O982 2.351 . S
Co957 O983 2.155 . S
Co957 O984 2.096 . S
C958 N961 1.301 . S
C958 N962 1.328 1_554 S
C958 H963 0.930 . S
C959 C960 1.333 . S
C959 N961 1.317 . S
C959 H964 0.930 . S
C960 C959 1.333 . S
C960 N962 1.350 1_554 S
C960 H986 0.931 1_554 S
N961 Co957 2.148 . S
N961 C958 1.301 . S
N961 C959 1.317 . S
N962 C958 1.328 1_556 S
N962 C960 1.350 1_556 S
H963 C958 0.930 . S
H964 C959 0.930 . S
C965 O966 1.224 . S
C965 O984 1.247 . S
O966 C965 1.224 . S
N967 Co957 2.128 . S
N967 C968 1.355 . S
N967 C970 1.311 . S
C968 N967 1.355 . S
C968 C969 1.363 . S
C968 H980 0.929 . S
C969 C968 1.363 . S
C969 N971 1.375 . S
C969 H987 0.931 . S
C970 N967 1.311 . S
C970 N971 1.347 . S
C970 H981 0.929 . S
N971 C969 1.375 . S
N971 C970 1.347 . S
C972 C975 1.365 . S
C972 N977 1.328 . S
C972 H978 0.929 . S
C973 C974 1.362 . S
C973 C976 1.378 . S
C973 H988 0.929 . S
C974 C973 1.362 . S
C974 C975 1.366 . S
C975 C972 1.365 . S
C975 C974 1.366 . S
C975 H989 0.930 . S
C976 C973 1.378 . S
C976 N977 1.315 . S
C976 H979 0.930 . S
N977 Co957 2.194 . S
N977 C972 1.328 . S
N977 C976 1.315 . S
H978 C972 0.929 . S
H979 C976 0.930 . S
H980 C968 0.929 . S
H981 C970 0.929 . S
O982 Co957 2.351 . S
O982 C985 1.244 . S
O983 Co957 2.155 . S
O983 C985 1.240 . S
O984 Co957 2.096 . S
O984 C965 1.247 . S
C985 O982 1.244 . S
C985 O983 1.240 . S
H986 C960 0.931 1_556 S
H987 C969 0.931 . S
H988 C973 0.929 . S
H989 C975 0.930 . S
Co990 N994 2.148 . S
Co990 N1000 2.128 . S
Co990 N1010 2.194 . S
Co990 O1015 2.351 . S
Co990 O1016 2.155 . S
Co990 O1017 2.096 . S
C991 N994 1.301 . S
C991 N995 1.328 . S
C991 H996 0.930 . S
C992 C993 1.333 . S
C992 N994 1.317 . S
C992 H997 0.930 . S
C993 C992 1.333 . S
C993 N995 1.350 . S
C993 H1019 0.931 . S
N994 Co990 2.148 . S
N994 C991 1.301 . S
N994 C992 1.317 . S
N995 C991 1.328 . S
N995 C993 1.350 . S
H996 C991 0.930 . S
H997 C992 0.930 . S
C998 O999 1.224 . S
C998 O1017 1.247 . S
O999 C998 1.224 . S
N1000 Co990 2.128 . S
N1000 C1001 1.355 . S
N1000 C1003 1.311 . S
C1001 N1000 1.355 . S
C1001 C1002 1.363 . S
C1001 H1013 0.929 . S
C1002 C1001 1.363 . S
C1002 N1004 1.375 . S
C1002 H1020 0.931 . S
C1003 N1000 1.311 . S
C1003 N1004 1.347 . S
C1003 H1014 0.929 . S
N1004 C1002 1.375 . S
N1004 C1003 1.347 . S
C1005 C1008 1.365 . S
C1005 N1010 1.328 . S
C1005 H1011 0.929 . S
C1006 C1007 1.362 . S
C1006 C1009 1.378 . S
C1006 H1021 0.929 . S
C1007 C1006 1.362 . S
C1007 C1008 1.366 . S
C1008 C1005 1.365 . S
C1008 C1007 1.366 . S
C1008 H1022 0.930 . S
C1009 C1006 1.378 . S
C1009 N1010 1.315 . S
C1009 H1012 0.930 . S
N1010 Co990 2.194 . S
N1010 C1005 1.328 . S
N1010 C1009 1.315 . S
H1011 C1005 0.929 . S
H1012 C1009 0.930 . S
H1013 C1001 0.929 . S
H1014 C1003 0.929 . S
O1015 Co990 2.351 . S
O1015 C1018 1.244 . S
O1016 Co990 2.155 . S
O1016 C1018 1.240 . S
O1017 Co990 2.096 . S
O1017 C998 1.247 . S
C1018 O1015 1.244 . S
C1018 O1016 1.240 . S
H1019 C993 0.931 . S
H1020 C1002 0.931 . S
H1021 C1006 0.929 . S
H1022 C1008 0.930 . S
Co1023 N1027 2.148 . S
Co1023 N1033 2.128 . S
Co1023 N1043 2.194 . S
Co1023 O1048 2.351 . S
Co1023 O1049 2.155 . S
Co1023 O1050 2.096 . S
C1024 N1027 1.301 . S
C1024 N1028 1.328 . S
C1024 H1029 0.930 . S
C1025 C1026 1.333 . S
C1025 N1027 1.317 . S
C1025 H1030 0.930 . S
C1026 C1025 1.333 . S
C1026 N1028 1.350 . S
C1026 H1052 0.931 . S
N1027 Co1023 2.148 . S
N1027 C1024 1.301 . S
N1027 C1025 1.317 . S
N1028 C1024 1.328 . S
N1028 C1026 1.350 . S
H1029 C1024 0.930 . S
H1030 C1025 0.930 . S
C1031 O1032 1.224 . S
C1031 O1050 1.247 . S
O1032 C1031 1.224 . S
N1033 Co1023 2.128 . S
N1033 C1034 1.355 . S
N1033 C1036 1.311 . S
C1034 N1033 1.355 . S
C1034 C1035 1.363 . S
C1034 H1046 0.929 . S
C1035 C1034 1.363 . S
C1035 N1037 1.375 . S
C1035 H1053 0.931 . S
C1036 N1033 1.311 . S
C1036 N1037 1.347 . S
C1036 H1047 0.929 . S
N1037 C1035 1.375 . S
N1037 C1036 1.347 . S
C1038 C1041 1.365 . S
C1038 N1043 1.328 . S
C1038 H1044 0.929 . S
C1039 C1040 1.362 . S
C1039 C1042 1.378 . S
C1039 H1054 0.929 . S
C1040 C1039 1.362 . S
C1040 C1041 1.366 . S
C1041 C1038 1.365 . S
C1041 C1040 1.366 . S
C1041 H1055 0.930 . S
C1042 C1039 1.378 . S
C1042 N1043 1.315 . S
C1042 H1045 0.930 . S
N1043 Co1023 2.194 . S
N1043 C1038 1.328 . S
N1043 C1042 1.315 . S
H1044 C1038 0.929 . S
H1045 C1042 0.930 . S
H1046 C1034 0.929 . S
H1047 C1036 0.929 . S
O1048 Co1023 2.351 . S
O1048 C1051 1.244 . S
O1049 Co1023 2.155 . S
O1049 C1051 1.240 . S
O1050 Co1023 2.096 . S
O1050 C1031 1.247 . S
C1051 O1048 1.244 . S
C1051 O1049 1.240 . S
H1052 C1026 0.931 . S
H1053 C1035 0.931 . S
H1054 C1039 0.929 . S
H1055 C1041 0.930 . S
Co1056 N1060 2.148 . S
Co1056 N1066 2.128 . S
Co1056 N1076 2.194 . S
Co1056 O1081 2.351 . S
Co1056 O1082 2.155 . S
Co1056 O1083 2.096 . S
C1057 N1060 1.301 . S
C1057 N1061 1.328 . S
C1057 H1062 0.930 . S
C1058 C1059 1.333 . S
C1058 N1060 1.317 . S
C1058 H1063 0.930 . S
C1059 C1058 1.333 . S
C1059 N1061 1.350 . S
C1059 H1085 0.931 . S
N1060 Co1056 2.148 . S
N1060 C1057 1.301 . S
N1060 C1058 1.317 . S
N1061 C1057 1.328 . S
N1061 C1059 1.350 . S
H1062 C1057 0.930 . S
H1063 C1058 0.930 . S
C1064 O1065 1.224 . S
C1064 O1083 1.247 . S
O1065 C1064 1.224 . S
N1066 Co1056 2.128 . S
N1066 C1067 1.355 . S
N1066 C1069 1.311 . S
C1067 N1066 1.355 . S
C1067 C1068 1.363 . S
C1067 H1079 0.929 . S
C1068 C1067 1.363 . S
C1068 N1070 1.375 . S
C1068 H1086 0.931 . S
C1069 N1066 1.311 . S
C1069 N1070 1.347 . S
C1069 H1080 0.929 . S
N1070 C1068 1.375 . S
N1070 C1069 1.347 . S
C1071 C1074 1.365 . S
C1071 N1076 1.328 . S
C1071 H1077 0.929 . S
C1072 C1073 1.362 . S
C1072 C1075 1.378 . S
C1072 H1087 0.929 . S
C1073 C1072 1.362 . S
C1073 C1074 1.366 . S
C1074 C1071 1.365 . S
C1074 C1073 1.366 . S
C1074 H1088 0.930 . S
C1075 C1072 1.378 . S
C1075 N1076 1.315 . S
C1075 H1078 0.930 . S
N1076 Co1056 2.194 . S
N1076 C1071 1.328 . S
N1076 C1075 1.315 . S
H1077 C1071 0.929 . S
H1078 C1075 0.930 . S
H1079 C1067 0.929 . S
H1080 C1069 0.929 . S
O1081 Co1056 2.351 . S
O1081 C1084 1.244 . S
O1082 Co1056 2.155 . S
O1082 C1084 1.240 . S
O1083 Co1056 2.096 . S
O1083 C1064 1.247 . S
C1084 O1081 1.244 . S
C1084 O1082 1.240 . S
H1085 C1059 0.931 . S
H1086 C1068 0.931 . S
H1087 C1072 0.929 . S
H1088 C1074 0.930 . S
Co1089 N1093 2.148 . S
Co1089 N1099 2.128 . S
Co1089 N1109 2.194 . S
Co1089 O1114 2.351 . S
Co1089 O1115 2.155 . S
Co1089 O1116 2.096 . S
C1090 N1093 1.301 . S
C1090 N1094 1.328 . S
C1090 H1095 0.930 . S
C1091 C1092 1.333 . S
C1091 N1093 1.317 . S
C1091 H1096 0.930 . S
C1092 C1091 1.333 . S
C1092 N1094 1.350 . S
C1092 H1118 0.931 . S
N1093 Co1089 2.148 . S
N1093 C1090 1.301 . S
N1093 C1091 1.317 . S
N1094 C1090 1.328 . S
N1094 C1092 1.350 . S
H1095 C1090 0.930 . S
H1096 C1091 0.930 . S
C1097 O1098 1.224 . S
C1097 O1116 1.247 . S
O1098 C1097 1.224 . S
N1099 Co1089 2.128 . S
N1099 C1100 1.355 . S
N1099 C1102 1.311 . S
C1100 N1099 1.355 . S
C1100 C1101 1.363 1_554 S
C1100 H1112 0.929 . S
C1101 C1100 1.363 1_556 S
C1101 N1103 1.375 . S
C1101 H1119 0.931 . S
C1102 N1099 1.311 . S
C1102 N1103 1.347 1_554 S
C1102 H1113 0.929 . S
N1103 C1101 1.375 . S
N1103 C1102 1.347 1_556 S
C1104 C1107 1.365 . S
C1104 N1109 1.328 . S
C1104 H1110 0.929 . S
C1105 C1106 1.362 . S
C1105 C1108 1.378 . S
C1105 H1120 0.929 . S
C1106 C1105 1.362 . S
C1106 C1107 1.366 . S
C1107 C1104 1.365 . S
C1107 C1106 1.366 . S
C1107 H1121 0.930 . S
C1108 C1105 1.378 . S
C1108 N1109 1.315 . S
C1108 H1111 0.930 . S
N1109 Co1089 2.194 . S
N1109 C1104 1.328 . S
N1109 C1108 1.315 . S
H1110 C1104 0.929 . S
H1111 C1108 0.930 . S
H1112 C1100 0.929 . S
H1113 C1102 0.929 . S
O1114 Co1089 2.351 . S
O1114 C1117 1.244 . S
O1115 Co1089 2.155 . S
O1115 C1117 1.240 . S
O1116 Co1089 2.096 . S
O1116 C1097 1.247 . S
C1117 O1114 1.244 . S
C1117 O1115 1.240 . S
H1118 C1092 0.931 . S
H1119 C1101 0.931 . S
H1120 C1105 0.929 . S
H1121 C1107 0.930 . S
Co1122 N1126 2.148 . S
Co1122 N1132 2.128 . S
Co1122 N1142 2.194 . S
Co1122 O1147 2.351 . S
Co1122 O1148 2.155 . S
Co1122 O1149 2.096 . S
C1123 N1126 1.301 . S
C1123 N1127 1.328 . S
C1123 H1128 0.930 . S
C1124 C1125 1.333 . S
C1124 N1126 1.317 . S
C1124 H1129 0.930 . S
C1125 C1124 1.333 . S
C1125 N1127 1.350 . S
C1125 H1151 0.931 . S
N1126 Co1122 2.148 . S
N1126 C1123 1.301 . S
N1126 C1124 1.317 . S
N1127 C1123 1.328 . S
N1127 C1125 1.350 . S
H1128 C1123 0.930 . S
H1129 C1124 0.930 . S
C1130 O1131 1.224 . S
C1130 O1149 1.247 . S
O1131 C1130 1.224 . S
N1132 Co1122 2.128 . S
N1132 C1133 1.355 . S
N1132 C1135 1.311 . S
C1133 N1132 1.355 . S
C1133 C1134 1.363 1_554 S
C1133 H1145 0.929 . S
C1134 C1133 1.363 1_556 S
C1134 N1136 1.375 . S
C1134 H1152 0.931 . S
C1135 N1132 1.311 . S
C1135 N1136 1.347 1_554 S
C1135 H1146 0.929 . S
N1136 C1134 1.375 . S
N1136 C1135 1.347 1_556 S
C1137 C1140 1.365 . S
C1137 N1142 1.328 . S
C1137 H1143 0.929 . S
C1138 C1139 1.362 . S
C1138 C1141 1.378 . S
C1138 H1153 0.929 . S
C1139 C1138 1.362 . S
C1139 C1140 1.366 . S
C1140 C1137 1.365 . S
C1140 C1139 1.366 . S
C1140 H1154 0.930 . S
C1141 C1138 1.378 . S
C1141 N1142 1.315 . S
C1141 H1144 0.930 . S
N1142 Co1122 2.194 . S
N1142 C1137 1.328 . S
N1142 C1141 1.315 . S
H1143 C1137 0.929 . S
H1144 C1141 0.930 . S
H1145 C1133 0.929 . S
H1146 C1135 0.929 . S
O1147 Co1122 2.351 . S
O1147 C1150 1.244 . S
O1148 Co1122 2.155 . S
O1148 C1150 1.240 . S
O1149 Co1122 2.096 . S
O1149 C1130 1.247 . S
C1150 O1147 1.244 . S
C1150 O1148 1.240 . S
H1151 C1125 0.931 . S
H1152 C1134 0.931 . S
H1153 C1138 0.929 . S
H1154 C1140 0.930 . S
Co1155 N1159 2.148 . S
Co1155 N1165 2.128 . S
Co1155 N1175 2.194 . S
Co1155 O1180 2.351 . S
Co1155 O1181 2.155 . S
Co1155 O1182 2.096 . S
C1156 N1159 1.301 . S
C1156 N1160 1.328 . S
C1156 H1161 0.930 . S
C1157 C1158 1.333 . S
C1157 N1159 1.317 . S
C1157 H1162 0.930 . S
C1158 C1157 1.333 . S
C1158 N1160 1.350 . S
C1158 H1184 0.931 . S
N1159 Co1155 2.148 . S
N1159 C1156 1.301 . S
N1159 C1157 1.317 . S
N1160 C1156 1.328 . S
N1160 C1158 1.350 . S
H1161 C1156 0.930 . S
H1162 C1157 0.930 . S
C1163 O1164 1.224 . S
C1163 O1182 1.247 . S
O1164 C1163 1.224 . S
N1165 Co1155 2.128 . S
N1165 C1166 1.355 . S
N1165 C1168 1.311 . S
C1166 N1165 1.355 . S
C1166 C1167 1.363 1_554 S
C1166 H1178 0.929 . S
C1167 C1166 1.363 1_556 S
C1167 N1169 1.375 . S
C1167 H1185 0.931 . S
C1168 N1165 1.311 . S
C1168 N1169 1.347 1_554 S
C1168 H1179 0.929 . S
N1169 C1167 1.375 . S
N1169 C1168 1.347 1_556 S
C1170 C1173 1.365 . S
C1170 N1175 1.328 . S
C1170 H1176 0.929 . S
C1171 C1172 1.362 . S
C1171 C1174 1.378 . S
C1171 H1186 0.929 . S
C1172 C1171 1.362 . S
C1172 C1173 1.366 . S
C1173 C1170 1.365 . S
C1173 C1172 1.366 . S
C1173 H1187 0.930 . S
C1174 C1171 1.378 . S
C1174 N1175 1.315 . S
C1174 H1177 0.930 . S
N1175 Co1155 2.194 . S
N1175 C1170 1.328 . S
N1175 C1174 1.315 . S
H1176 C1170 0.929 . S
H1177 C1174 0.930 . S
H1178 C1166 0.929 . S
H1179 C1168 0.929 . S
O1180 Co1155 2.351 . S
O1180 C1183 1.244 . S
O1181 Co1155 2.155 . S
O1181 C1183 1.240 . S
O1182 Co1155 2.096 . S
O1182 C1163 1.247 . S
C1183 O1180 1.244 . S
C1183 O1181 1.240 . S
H1184 C1158 0.931 . S
H1185 C1167 0.931 . S
H1186 C1171 0.929 . S
H1187 C1173 0.930 . S
C536 C8 1.482 . S
C569 C41 1.482 . S
C503 C74 1.482 . S
C107 C866 1.482 . S
C800 C140 1.482 . S
C833 C173 1.482 . S
C206 C1130 1.482 . S
C1163 C239 1.481 . S
C272 C1097 1.482 . S
C668 C305 1.482 . S
C338 C602 1.482 . S
C635 C371 1.482 . S
C404 C932 1.482 1_655 S
C965 C437 1.482 . S
C899 C470 1.481 1_565 S
C1064 C701 1.482 1_565 S
C734 C998 1.482 1_655 S
C1031 C767 1.482 . S
N104 N5 1.790 . S
N137 N38 1.790 1_565 S
N71 N170 1.790 1_655 S
N302 N203 1.790 . S
N236 N335 1.790 1_565 S
N368 N269 1.790 1_655 S
N401 N500 1.790 . S
N434 N533 1.790 . S
N566 N467 1.790 . S
N698 N599 1.790 . S
N731 N632 1.790 . S
N764 N665 1.790 . S
N797 N896 1.790 . S
N929 N830 1.790 . S
N863 N962 1.790 . S
N995 N1094 1.790 . S
N1028 N1127 1.790 . S
N1160 N1061 1.790 . S
C17 C259 1.869 . S
C292 C50 1.869 . S
C226 C83 1.869 . S
C116 C391 1.869 . S
C325 C149 1.869 . S
C358 C182 1.869 . S
C215 C61 1.869 . S
C94 C248 1.869 . S
C28 C281 1.869 . S
C193 C314 1.869 . S
C127 C347 1.869 . S
C380 C160 1.869 . S
C413 C655 1.869 . S
C446 C688 1.869 . S
C479 C622 1.869 . S
C787 C512 1.869 . S
C545 C721 1.869 . S
C578 C754 1.869 . S
C611 C457 1.869 . S
C490 C644 1.869 . S
C677 C424 1.869 . S
C710 C589 1.869 . S
C743 C523 1.869 . S
C776 C556 1.869 . S
C809 C1051 1.869 . S
C1084 C842 1.869 . S
C875 C1018 1.869 . S
C908 C1183 1.869 . S
C941 C1117 1.869 . S
C974 C1150 1.869 . S
C853 C1007 1.870 . S
C886 C1040 1.869 . S
C820 C1073 1.869 . S
C985 C1106 1.870 . S
C1139 C919 1.869 . S
C1172 C952 1.869 . S
N113 N14 1.040 . S
N47 N146 1.040 1_545 S
N179 N80 1.040 1_455 S
N311 N212 1.040 . S
N344 N245 1.040 1_545 S
N278 N377 1.041 1_455 S
N509 N410 1.041 . S
N443 N542 1.040 . S
N575 N476 1.041 . S
N707 N608 1.040 . S
N740 N641 1.040 . S
N674 N773 1.041 . S
N905 N806 1.041 . S
N839 N938 1.040 . S
N971 N872 1.040 . S
N1004 N1103 1.040 . S
N1037 N1136 1.040 . S
N1070 N1169 1.041 . S
