# Generated by pormake.
# Topology kag, (6)-cn, num edge types: 1
# Building blocks:
#     Node 0, Type 0, BuildingBlock: PAMTOO_clean_sbu_0, # of connection points: 6
#     Node 1, Type 0, BuildingBlock: PAMTOO_clean_sbu_0, # of connection points: 6
#     Node 2, Type 0, BuildingBlock: PAMTOO_clean_sbu_0, # of connection points: 6
#     Edge 3, Type (0, 0), BuildingBlock: MIFKUJ_clean_linker_0, # of connection points: 2
#     Edge 4, Type (0, 0), BuildingBlock: MIFKUJ_clean_linker_0, # of connection points: 2
#     Edge 5, Type (0, 0), BuildingBlock: MIFKUJ_clean_linker_0, # of connection points: 2
#     Edge 6, Type (0, 0), BuildingBlock: MIFKUJ_clean_linker_0, # of connection points: 2
#     Edge 7, Type (0, 0), BuildingBlock: MIFKUJ_clean_linker_0, # of connection points: 2
#     Edge 8, Type (0, 0), BuildingBlock: MIFKUJ_clean_linker_0, # of connection points: 2
#     Edge 9, Type (0, 0), BuildingBlock: MIFKUJ_clean_linker_0, # of connection points: 2
#     Edge 10, Type (0, 0), BuildingBlock: MIFKUJ_clean_linker_0, # of connection points: 2
#     Edge 11, Type (0, 0), BuildingBlock: MIFKUJ_clean_linker_0, # of connection points: 2
# Relax obj value: 0.062
# Max RMSD: 0.133
# Mean RMSD: 0.101
data_MOF--net-kag--node1-PAMTOO_clean_sbu_0--edge1-MIFKUJ_clean_linker_0
_symmetry_space_group_name_H-M    P1
_symmetry_Int_Tables_number       1
_symmetry_cell_setting            triclinic
loop_
_symmetry_equiv_pos_as_xyz
'x, y, z'
_cell_length_a     40.05568
_cell_length_b     51.04158
_cell_length_c     19.772914
_cell_angle_alpha  99.710838
_cell_angle_beta   90.757143
_cell_angle_gamma 100.72809
loop_
_atom_site_label
_atom_site_type_symbol
_atom_site_fract_x
_atom_site_fract_y
_atom_site_fract_z
_atom_type_partial_charge
Dy0 Dy 0.04603 0.53514 0.98361 0.0
Dy1 Dy 1.03334 0.46838 0.9526 0.0
C2 C 0.04001 0.50197 0.8324 0.0
O3 O 0.991 0.52219 0.00257 0.0
O4 O 0.98164 0.47867 0.94199 0.0
O5 O 0.05065 0.57263 0.94521 0.0
O6 O 0.05403 0.57327 0.05477 0.0
O7 O 1.02272 0.48023 0.06273 0.0
O8 O 0.05825 0.52161 0.08105 0.0
O9 O 0.08945 0.48179 0.97601 0.0
O10 O 0.09745 0.52598 0.95851 0.0
O11 O 1.03922 0.43036 0.98056 0.0
O12 O 1.01373 0.43099 0.88345 0.0
C13 C 0.97026 0.49994 0.97326 0.0
O14 O 1.02878 0.52105 0.87348 0.0
O15 O 0.05104 0.48265 0.85658 0.0
C16 C 0.08785 0.60939 0.01196 0.0
C17 C 0.14321 0.65292 0.01944 0.0
C18 C 0.14274 0.62878 0.97289 0.0
C19 C 0.11539 0.6071 0.96949 0.0
C20 C 0.08865 0.6332 0.05957 0.0
C21 C 0.11619 0.65478 0.06353 0.0
C22 C 0.05773 0.58755 0.00573 0.0
C23 C 0.04072 0.5009 0.10442 0.0
C24 C 0.1095 0.50444 0.96736 0.0
C25 C 0.99507 0.39341 0.93688 0.0
C26 C 0.94425 0.34916 0.95471 0.0
C27 C 0.94955 0.37336 0.00303 0.0
C28 C 0.97471 0.39536 -0.00593 0.0
C29 C 0.9896 0.36952 0.88827 0.0
C30 C 0.9644 0.34762 0.89693 0.0
C31 C 1.0218 0.41605 0.92612 0.0
H32 H 0.16345 0.62675 0.93889 0.0
H33 H 0.11551 0.58875 0.93289 0.0
H34 H 0.06768 0.63529 0.09283 0.0
H35 H 0.11583 0.67324 0.09952 0.0
H36 H 0.93468 0.37515 0.04834 0.0
H37 H 0.97839 0.41378 0.03193 0.0
H38 H 1.00485 0.3678 0.84344 0.0
H39 H 0.96056 0.32953 0.85801 0.0
Dy40 Dy 0.49782 0.99686 0.00414 0.0
Dy41 Dy 0.58149 0.01264 0.01657 0.0
C42 C 0.53879 0.00661 0.1478 0.0
O43 O 0.51025 0.03938 0.98454 0.0
O44 O 0.56238 0.05159 0.04206 0.0
O45 O 0.44925 0.99535 0.05117 0.0
O46 O 0.45122 0.98046 0.94275 0.0
O47 O 0.56606 0.0169 0.91084 0.0
O48 O 0.51641 0.98586 0.89926 0.0
O49 O 0.57008 0.96721 -0.0085 0.0
O50 O 0.51431 0.95912 0.02241 0.0
O51 O 0.63075 0.01331 0.97276 0.0
O52 O 0.62684 0.03209 0.07839 0.0
C53 C 0.53605 0.05802 0.01295 0.0
O54 O 0.51317 0.01247 0.11506 0.0
O55 O 0.56507 1.00008 0.11507 0.0
C56 C 0.41052 0.95578 0.00308 0.0
C57 C 0.37068 0.90459 0.00851 0.0
C58 C 0.40309 0.91246 0.04186 0.0
C59 C 0.42287 0.9378 0.039 0.0
C60 C 0.37813 0.94816 0.97025 0.0
C61 C 0.35832 0.92275 0.97292 0.0
C62 C 0.43234 0.98155 -0.00422 0.0
C63 C 0.54135 1.00055 0.87223 0.0
C64 C 0.5427 0.9507 0.00591 0.0
C65 C 0.66844 0.05417 0.01508 0.0
C66 C 0.70951 0.10399 0.00152 0.0
C67 C 0.67437 0.09897 0.98507 0.0
C68 C 0.65401 0.07425 -0.0082 0.0
C69 C 0.70344 0.05888 0.03073 0.0
C70 C 0.72386 0.08358 0.02393 0.0
C71 C 0.64665 0.02908 0.02701 0.0
H72 H 0.41349 0.89879 0.06888 0.0
H73 H 0.44803 0.94319 0.06399 0.0
H74 H 0.36835 0.96173 0.94186 0.0
H75 H 0.3333 0.91734 0.94733 0.0
H76 H 0.66261 0.11414 0.96699 0.0
H77 H 0.62691 0.07093 0.97975 0.0
H78 H 0.71486 0.04365 0.04937 0.0
H79 H 0.75075 0.08696 0.03792 0.0
Dy80 Dy 0.52978 0.46747 0.95714 0.0
Dy81 Dy 0.55022 0.53558 0.98426 0.0
C82 C 0.54005 0.50252 0.10807 0.0
O83 O 0.48045 0.48151 0.97653 0.0
O84 O 0.49362 0.52665 0.96567 0.0
O85 O 0.50465 0.43032 0.98782 0.0
O86 O 0.53084 0.42893 0.89225 0.0
O87 O 0.5605 0.51906 0.87641 0.0
O88 O 0.51876 0.48129 0.85952 0.0
O89 O 0.59902 0.52178 0.00112 0.0
O90 O 0.58629 0.47714 0.94704 0.0
O91 O 0.55496 0.57184 0.94043 0.0
O92 O 0.57128 0.5747 0.047 0.0
C93 C 0.47139 0.50465 0.97121 0.0
O94 O 0.54678 0.48115 0.0674 0.0
O95 O 0.53369 0.52373 0.08418 0.0
C96 C 0.5245 0.38941 0.94451 0.0
C97 C 0.53474 0.33707 0.95896 0.0
C98 C 0.53394 0.35705 0.01722 0.0
C99 C 0.52875 0.38293 0.01011 0.0
C100 C 0.52669 0.36983 0.88649 0.0
C101 C 0.5318 0.34404 0.89355 0.0
C102 C 0.51402 0.41495 0.93462 0.0
C103 C 0.53926 0.50031 0.83533 0.0
C104 C 0.60838 0.49895 0.97472 0.0
C105 C 0.5579 0.61484 0.01275 0.0
C106 C 0.54995 0.66952 0.02565 0.0
C107 C 0.5286 0.64892 0.97972 0.0
C108 C 0.53257 0.6219 0.97321 0.0
C109 C 0.57799 0.63514 0.0611 0.0
C110 C 0.57403 0.66212 0.06764 0.0
C111 C 0.56756 0.58786 -0.00292 0.0
H112 H 0.53589 0.35236 0.06836 0.0
H113 H 0.527 0.39752 0.05591 0.0
H114 H 0.52334 0.37421 0.83535 0.0
H115 H 0.53287 0.32936 0.84757 0.0
H116 H 0.50993 0.65382 0.94624 0.0
H117 H 0.51681 0.60677 0.93507 0.0
H118 H 0.59786 0.63034 0.09186 0.0
H119 H 0.59048 0.67732 0.10448 0.0
H120 H 0.03947 0.45912 0.72923 0.0
H121 H 0.03969 0.45925 0.60586 0.0
H122 H 0.04261 0.54549 0.64371 0.0
H123 H 0.04065 0.54515 0.7672 0.0
H124 H 1.00221 0.52481 0.54049 0.0
H125 H 0.11475 0.51601 0.59866 0.0
H126 H 0.1595 0.49695 0.64888 0.0
H127 H 0.12519 0.42067 0.51575 0.0
H128 H 0.07986 0.43915 0.46535 0.0
H129 H 0.05949 0.54429 0.20765 0.0
H130 H 0.05979 0.54446 0.33153 0.0
H131 H 1.02449 0.45796 0.29439 0.0
H132 H 1.02354 0.4576 0.17024 0.0
H133 H 0.08247 0.47965 0.39561 0.0
H134 H 0.96945 0.49259 0.3374 0.0
H135 H 0.9299 0.51592 0.28529 0.0
H136 H 0.9717 0.59026 0.42046 0.0
H137 H 1.0122 0.56749 0.47222 0.0
C138 C 0.04019 0.47811 0.71121 0.0
C139 C 0.0402 0.50215 0.7578 0.0
C140 C 0.04051 0.47821 0.64064 0.0
C141 C 0.04189 0.50249 0.61526 0.0
C142 C 0.04161 0.5265 0.66185 0.0
C143 C 0.04055 0.5263 0.73244 0.0
C144 C 0.04324 0.50275 0.54017 0.0
C145 C 1.02012 0.51523 0.5092 0.0
C146 C 0.06639 0.4901 0.49874 0.0
C147 C 0.0937 0.4789 0.52869 0.0
C148 C 0.11659 0.49511 0.58043 0.0
C149 C 0.14209 0.48442 0.60888 0.0
C150 C 0.14515 0.4576 0.58565 0.0
C151 C 0.12276 0.44143 0.53376 0.0
C152 C 0.09717 0.45201 0.50518 0.0
C153 C 0.05187 0.52527 0.22578 0.0
C154 C 0.04141 0.50092 0.17921 0.0
C155 C 0.05202 0.52544 0.2965 0.0
C156 C 0.04211 0.50123 0.32184 0.0
C157 C 1.03225 0.47682 0.27561 0.0
C158 C 1.03156 0.47669 0.20483 0.0
C159 C 0.04142 0.50151 0.39673 0.0
C160 C 0.06467 0.48918 0.42739 0.0
C161 C 1.01903 0.51487 0.43809 0.0
C162 C 0.9941 0.5284 0.40818 0.0
C163 C 0.97041 0.51396 0.35565 0.0
C164 C 0.94779 0.52709 0.32621 0.0
C165 C 0.94828 0.55458 0.34947 0.0
C166 C 0.97137 0.56898 0.40241 0.0
C167 C 0.99418 0.55597 0.43179 0.0
H168 H 0.93078 0.56473 0.32654 0.0
H169 H 0.16492 0.44936 0.60776 0.0
H170 H 0.59209 0.00763 0.23589 0.0
H171 H 0.59091 0.00618 0.3584 0.0
H172 H 0.48262 0.00373 0.35188 0.0
H173 H 0.48383 0.00609 0.22915 0.0
H174 H 0.51004 0.03545 0.46432 0.0
H175 H 0.51638 0.94611 0.35603 0.0
H176 H 0.53835 0.91066 0.27874 0.0
H177 H 0.63469 0.93311 0.39145 0.0
H178 H 0.61347 0.969 0.46884 0.0
H179 H 0.48639 0.98467 0.78178 0.0
H180 H 0.48505 0.98521 0.6581 0.0
H181 H 0.59352 0.0141 0.66888 0.0
H182 H 0.59503 0.01429 0.79302 0.0
H183 H 0.56332 0.96729 0.55508 0.0
H184 H 0.55386 0.05846 0.6614 0.0
H185 H 0.52785 0.09117 0.73952 0.0
H186 H 0.43153 0.06107 0.62929 0.0
H187 H 0.45687 0.02781 0.55123 0.0
C188 C 0.56799 0.00684 0.26045 0.0
C189 C 0.538 0.00678 0.22268 0.0
C190 C 0.56733 0.00588 0.33054 0.0
C191 C 0.53656 0.00425 0.36422 0.0
C192 C 0.50666 0.00485 0.327 0.0
C193 C 0.50737 0.00617 0.25686 0.0
C194 C 0.53577 1.0018 0.4381 0.0
C195 C 0.52129 0.02028 0.48383 0.0
C196 C 0.55059 0.98212 0.46399 0.0
C197 C 0.56342 0.96041 0.41789 0.0
C198 C 0.54233 0.94362 0.36406 0.0
C199 C 0.55464 0.92343 0.32026 0.0
C200 C 0.58791 0.91967 0.33009 0.0
C201 C 0.60892 0.93606 0.38386 0.0
C202 C 0.59676 0.95632 0.42776 0.0
C203 C 0.51 0.99098 0.75777 0.0
C204 C 0.54083 0.99949 0.79705 0.0
C205 C 0.50915 0.99132 0.68724 0.0
C206 C 0.53917 0.99973 0.6547 0.0
C207 C 0.57012 0.00753 0.6933 0.0
C208 C 0.5709 0.00771 0.76411 0.0
C209 C 0.5381 1.00111 0.58061 0.0
C210 C 0.55208 0.98236 0.53509 0.0
C211 C 0.52228 0.02017 0.55478 0.0
C212 C 0.50717 0.04044 0.60097 0.0
C213 C 0.52707 0.05864 0.6542 0.0
C214 C 0.51246 0.07731 0.69841 0.0
C215 C 0.47804 0.07815 0.6895 0.0
C216 C 0.45818 0.06037 0.6362 0.0
C217 C 0.47265 0.04161 0.59195 0.0
H218 H 0.46677 0.09261 0.72379 0.0
H219 H 0.5974 0.90403 0.29611 0.0
H220 H 0.51538 0.45826 0.73075 0.0
H221 H 0.51547 0.45899 0.60704 0.0
H222 H 0.56118 0.54384 0.64775 0.0
H223 H 0.56185 0.54319 0.77133 0.0
H224 H 0.50225 0.52773 0.54835 0.0
H225 H 0.61095 0.5056 0.5987 0.0
H226 H 0.64805 0.47909 0.64644 0.0
H227 H 0.59772 0.40696 0.51252 0.0
H228 H 0.55985 0.43299 0.4648 0.0
H229 H 0.54705 0.54621 0.2121 0.0
H230 H 0.54699 0.54604 0.33563 0.0
H231 H 0.53074 0.4587 0.29664 0.0
H232 H 0.53231 0.45886 0.17329 0.0
H233 H 0.57431 0.47604 0.39723 0.0
H234 H 0.46556 0.49597 0.34602 0.0
H235 H 0.4254 0.52044 0.29978 0.0
H236 H 0.47132 0.59372 0.43472 0.0
H237 H 0.51209 0.56976 0.48118 0.0
C238 C 0.52541 0.47707 0.71334 0.0
C239 C 0.53874 0.50064 0.76068 0.0
C240 C 0.52548 0.47744 0.64276 0.0
C241 C 0.53838 0.50146 0.6185 0.0
C242 C 0.5511 0.52513 0.66562 0.0
C243 C 0.55162 0.52467 0.73609 0.0
C244 C 0.53909 0.50181 0.54382 0.0
C245 C 0.51826 0.51672 0.51521 0.0
C246 C 0.5593 0.48681 0.50075 0.0
C247 C 0.58233 0.47119 0.52871 0.0
C248 C 0.60759 0.48404 0.57985 0.0
C249 C 0.6288 0.46911 0.60683 0.0
C250 C 0.62521 0.44134 0.58265 0.0
C251 C 0.60045 0.42846 0.53127 0.0
C252 C 0.57911 0.4433 0.50421 0.0
C253 C 0.54341 0.52698 0.22989 0.0
C254 C 0.5396 0.50256 0.18293 0.0
C255 C 0.5432 0.52688 0.30059 0.0
C256 C 0.53826 0.50232 0.32573 0.0
C257 C 0.5346 0.47793 0.27874 0.0
C258 C 0.53543 0.47804 0.20815 0.0
C259 C 0.53732 0.502 0.40088 0.0
C260 C 0.55815 0.48707 0.42988 0.0
C261 C 0.51666 0.51668 0.44418 0.0
C262 C 0.49208 0.53112 0.4166 0.0
C263 C 0.46724 0.51734 0.3655 0.0
C264 C 0.44435 0.53111 0.3393 0.0
C265 C 0.44585 0.55863 0.36416 0.0
C266 C 0.47021 0.57241 0.41544 0.0
C267 C 0.4932 0.55874 0.44178 0.0
H268 H 0.4281 0.56925 0.34379 0.0
H269 H 0.64165 0.42981 0.60362 0.0
H270 H 0.16046 0.54922 0.97436 0.0
H271 H 0.22191 0.551 0.97746 0.0
H272 H 0.20501 0.46423 0.96331 0.0
H273 H 0.14366 0.4624 0.96238 0.0
H274 H 0.25409 0.48628 0.05425 0.0
H275 H 0.22946 0.49813 0.82256 0.0
H276 H 0.20677 0.52012 0.73494 0.0
H277 H 0.27281 0.59544 0.81787 0.0
H278 H 0.29567 0.57395 0.90646 0.0
H279 H 0.41719 0.46246 0.96394 0.0
H280 H 0.35677 0.46418 0.96454 0.0
H281 H 0.3809 0.55103 0.98102 0.0
H282 H 0.44158 0.54942 0.97865 0.0
H283 H 0.32891 0.53132 0.89296 0.0
H284 H 0.35536 0.51955 0.12126 0.0
H285 H 0.37819 0.49815 0.20993 0.0
H286 H 0.30877 0.4236 0.13572 0.0
H287 H 0.28581 0.44445 0.04594 0.0
C288 C 0.16979 0.53048 0.9717 0.0
C289 C 0.14697 0.50564 0.96792 0.0
C290 C 0.20504 0.53152 0.97317 0.0
C291 C 0.21834 0.5077 0.96963 0.0
C292 C 0.19556 0.48292 0.96612 0.0
C293 C 0.16037 0.4819 0.9654 0.0
C294 C 0.25588 0.50846 0.97042 0.0
C295 C 0.27032 0.49585 0.01832 0.0
C296 C 0.27751 0.52164 0.92515 0.0
C297 C 0.26404 0.53449 0.87148 0.0
C298 C 0.239 0.51942 0.82233 0.0
C299 C 0.22613 0.53179 0.77245 0.0
C300 C 0.23827 0.55917 0.77093 0.0
C301 C 0.2634 0.57423 0.81914 0.0
C302 C 0.27636 0.56196 0.86913 0.0
C303 C 0.40978 0.48199 0.96784 0.0
C304 C 0.43446 0.50582 0.97159 0.0
C305 C 0.37507 0.48295 0.9685 0.0
C306 C 0.36407 0.50779 0.97403 0.0
C307 C 0.38861 0.5316 0.97692 0.0
C308 C 0.42339 0.53065 0.97571 0.0
C309 C 0.327 0.50881 0.97614 0.0
C310 C 0.31268 0.5218 0.92896 0.0
C311 C 0.30548 0.49605 0.02224 0.0
C312 C 0.31907 0.4835 0.07649 0.0
C313 C 0.34511 0.49854 0.12355 0.0
C314 C 0.35806 0.48652 0.17406 0.0
C315 C 0.345 0.45952 0.17837 0.0
C316 C 0.31889 0.44451 0.13228 0.0
C317 C 0.30587 0.45642 0.08162 0.0
H318 H 0.35507 0.45025 0.2175 0.0
H319 H 0.22824 0.56871 0.73231 0.0
H320 H 0.77312 0.11363 0.95168 0.0
H321 H 0.80984 0.15739 0.94969 0.0
H322 H 0.73152 0.19833 0.03793 0.0
H323 H 0.69461 0.15453 0.04055 0.0
H324 H 0.76221 0.22219 0.93501 0.0
H325 H 0.79717 0.19394 0.13856 0.0
H326 H 0.81504 0.16246 0.20726 0.0
H327 H 0.90386 0.15954 0.08911 0.0
H328 H 0.88626 0.19071 0.019 0.0
H329 H 0.8801 0.3486 0.00288 0.0
H330 H 0.83757 0.30911 0.01797 0.0
H331 H 0.90662 0.25659 0.94166 0.0
H332 H 0.94967 0.29586 0.9296 0.0
H333 H 0.87705 0.24123 0.05053 0.0
H334 H 0.83889 0.26558 0.83978 0.0
H335 H 0.82107 0.29687 0.7703 0.0
H336 H 0.73886 0.30755 0.9029 0.0
H337 H 0.75627 0.27635 0.97337 0.0
C338 C 0.76374 0.13192 0.97099 0.0
C339 C 0.73108 0.13059 -0.00313 0.0
C340 C 0.78472 0.15691 0.96969 0.0
C341 C 0.77359 0.18109 -0.00529 0.0
C342 C 0.74061 0.1799 0.01857 0.0
C343 C 0.71955 0.15486 0.01983 0.0
C344 C 0.79683 0.20749 -0.00297 0.0
C345 C 0.78712 0.22657 0.96115 0.0
C346 C 0.82941 0.21309 0.03072 0.0
C347 C 0.84025 0.19451 0.0732 0.0
C348 C 0.82039 0.18645 0.12692 0.0
C349 C 0.83049 0.16867 0.16616 0.0
C350 C 0.86053 0.15897 0.15248 0.0
C351 C 0.88058 0.16707 0.09963 0.0
C352 C 0.87058 0.18481 0.06017 0.0
C353 C 0.88635 0.32866 -0.00994 0.0
C354 C 0.91824 0.3254 0.9646 0.0
C355 C 0.86187 0.30609 -0.00199 0.0
C356 C 0.86874 0.27986 0.98005 0.0
C357 C 0.90069 0.27662 0.9556 0.0
C358 C 0.92518 0.29911 0.94805 0.0
C359 C 0.84292 0.25561 0.98669 0.0
C360 C 0.85206 0.23697 0.02474 0.0
C361 C 0.80989 0.25046 0.95498 0.0
C362 C 0.79907 0.26886 0.91216 0.0
C363 C 0.81709 0.27469 0.85426 0.0
C364 C 0.80703 0.29236 0.81465 0.0
C365 C 0.77887 0.3042 0.83224 0.0
C366 C 0.76063 0.29832 0.88933 0.0
C367 C 0.77054 0.28061 0.92904 0.0
H368 H 0.77115 0.31792 0.8016 0.0
H369 H 0.8683 0.1452 0.18291 0.0
H370 H 0.59879 0.92684 0.00667 0.0
H371 H 0.60007 0.87941 0.01089 0.0
H372 H 0.49038 0.86141 0.00752 0.0
H373 H 0.48899 0.90885 0.00567 0.0
H374 H 0.51325 0.83697 0.0967 0.0
H375 H 0.53854 0.84355 0.86294 0.0
H376 H 0.56952 0.86225 0.76945 0.0
H377 H 0.66191 0.84335 0.84361 0.0
H378 H 0.63156 0.82484 0.9381 0.0
H379 H 0.4937 0.69289 0.01658 0.0
H380 H 0.49242 0.74042 0.01299 0.0
H381 H 0.60196 0.75975 0.03372 0.0
H382 H 0.6035 0.71227 0.03525 0.0
H383 H 0.57912 0.78324 0.93564 0.0
H384 H 0.55236 0.77615 0.16932 0.0
H385 H 0.52022 0.757 0.2609 0.0
H386 H 0.42876 0.77625 0.18335 0.0
H387 H 0.46028 0.7952 0.09072 0.0
C388 C 0.57494 0.91276 0.00645 0.0
C389 C 0.5438 0.92171 0.00565 0.0
C390 C 0.57568 0.88555 0.00861 0.0
C391 C 0.54529 0.86657 0.00859 0.0
C392 C 0.51421 0.87553 0.00767 0.0
C393 C 0.51346 0.90274 0.0064 0.0
C394 C 0.54574 0.8375 0.01072 0.0
C395 C 0.52729 0.82517 0.06076 0.0
C396 C 0.56457 0.82205 0.96491 0.0
C397 C 0.58284 0.83305 0.90797 0.0
C398 C 0.56551 0.84355 0.85958 0.0
C399 C 0.58295 0.85409 0.80637 0.0
C400 C 0.61768 0.85405 0.8007 0.0
C401 C 0.63502 0.8434 0.84812 0.0
C402 C 0.61771 0.83286 0.90147 0.0
C403 C 0.51753 0.70723 0.02021 0.0
C404 C 0.54869 0.69867 0.02664 0.0
C405 C 0.51675 0.73448 0.01869 0.0
C406 C 0.5471 0.75381 0.02375 0.0
C407 C 0.5782 0.7453 0.02995 0.0
C408 C 0.579 0.71812 0.03157 0.0
C409 C 0.5466 0.7828 0.02145 0.0
C410 C 0.56505 0.79509 0.97143 0.0
C411 C 0.52757 0.79815 0.0669 0.0
C412 C 0.50862 0.78684 0.1227 0.0
C413 C 0.52534 0.77611 0.17148 0.0
C414 C 0.50725 0.76532 0.22364 0.0
C415 C 0.47246 0.76534 0.22783 0.0
C416 C 0.4557 0.77622 0.17998 0.0
C417 C 0.47367 0.787 0.12768 0.0
H418 H 0.45849 0.75698 0.26825 0.0
H419 H 0.63113 0.86222 0.75948 0.0
H420 H 0.93674 0.54078 0.02429 0.0
H421 H 0.87549 0.5393 0.02541 0.0
H422 H 0.85734 0.45535 0.92839 0.0
H423 H 0.91868 0.4568 0.92582 0.0
H424 H 0.81676 0.48098 0.86996 0.0
H425 H 0.84455 0.47531 0.10288 0.0
H426 H 0.87425 0.48856 0.21702 0.0
H427 H 0.84164 0.56503 0.2436 0.0
H428 H 0.81198 0.55232 0.1293 0.0
H429 H 0.63899 0.45567 0.92853 0.0
H430 H 0.69981 0.45467 0.92895 0.0
H431 H 0.72255 0.5391 0.02188 0.0
H432 H 0.66192 0.54018 0.02278 0.0
H433 H 0.76039 0.51169 0.08271 0.0
H434 H 0.7329 0.5172 0.84857 0.0
H435 H 0.70141 0.50291 0.73636 0.0
H436 H 0.73287 0.42605 0.71287 0.0
H437 H 0.76419 0.43974 0.82541 0.0
C438 C 0.9198 0.52194 0.00333 0.0
C439 C 0.93283 0.49889 0.97505 0.0
C440 C 0.88465 0.52109 0.00433 0.0
C441 C 0.86157 0.49711 0.9778 0.0
C442 C 0.87451 0.4741 0.94926 0.0
C443 C 0.90968 0.47496 0.94799 0.0
C444 C 0.82406 0.4962 0.97863 0.0
C445 C 0.8044 0.48732 0.91675 0.0
C446 C 0.8078 0.505 0.03923 0.0
C447 C 0.82629 0.51294 0.10728 0.0
C448 C 0.84399 0.49506 0.13277 0.0
C449 C 0.86075 0.50245 0.19757 0.0
C450 C 0.85985 0.52763 0.23749 0.0
C451 C 0.8423 0.54553 0.21261 0.0
C452 C 0.82548 0.53823 0.14787 0.0
C453 C 0.65688 0.47405 0.94912 0.0
C454 C 0.64537 0.49803 0.97547 0.0
C455 C 0.69175 0.47348 0.949 0.0
C456 C 0.71595 0.4969 0.97467 0.0
C457 C 0.70449 0.52075 0.00171 0.0
C458 C 0.66968 0.52133 0.00203 0.0
C459 C 0.75318 0.49664 0.97405 0.0
C460 C 0.77277 0.5053 0.03596 0.0
C461 C 0.76933 0.48762 0.91352 0.0
C462 C 0.75062 0.4794 0.84573 0.0
C463 C 0.73289 0.49717 0.81972 0.0
C464 C 0.7151 0.48919 0.75601 0.0
C465 C 0.71507 0.46356 0.71759 0.0
C466 C 0.73288 0.44588 0.74273 0.0
C467 C 0.75068 0.45375 0.80644 0.0
H468 H 0.70136 0.45743 0.66823 0.0
H469 H 0.87258 0.53324 0.28787 0.0
H470 H 0.16859 0.67423 0.90928 0.0
H471 H 0.21129 0.71523 0.90985 0.0
H472 H 0.2232 0.72597 0.13072 0.0
H473 H 0.17966 0.68527 0.13034 0.0
H474 H 0.21768 0.77153 0.0953 0.0
H475 H 0.28509 0.70508 0.02031 0.0
H476 H 0.29907 0.66444 0.9488 0.0
H477 H 0.29721 0.70147 0.76963 0.0
H478 H 0.28272 0.7422 0.83988 0.0
H479 H 0.36074 0.87865 0.11884 0.0
H480 H 0.32619 0.83402 0.12205 0.0
H481 H 0.29918 0.82465 0.90625 0.0
H482 H 0.33422 0.86909 0.90232 0.0
H483 H 0.31534 0.77788 0.94318 0.0
H484 H 0.24441 0.84301 0.0196 0.0
H485 H 0.23083 0.88349 0.09258 0.0
H486 H 0.24083 0.84807 0.27219 0.0
H487 H 0.25493 0.80751 0.20029 0.0
C488 C 0.18071 0.68514 0.95782 0.0
C489 C 0.17093 0.6766 0.01977 0.0
C490 C 0.20518 0.70853 0.95812 0.0
C491 C 0.22085 0.72352 0.02027 0.0
C492 C 0.21148 0.71473 0.08214 0.0
C493 C 0.18665 0.69153 0.08193 0.0
C494 C 0.24549 0.74921 0.02096 0.0
C495 C 0.2394 0.77275 0.06296 0.0
C496 C 0.27345 0.75099 0.97769 0.0
C497 C 0.28255 0.72663 0.93534 0.0
C498 C 0.28745 0.7045 0.96559 0.0
C499 C 0.29549 0.68145 0.92529 0.0
C500 C 0.29895 0.68035 0.8547 0.0
C501 C 0.29449 0.70234 0.82431 0.0
C502 C 0.28641 0.72543 0.86437 0.0
C503 C 0.3477 0.86698 0.07193 0.0
C504 C 0.35 0.87743 0.01041 0.0
C505 C 0.32787 0.84156 0.07393 0.0
C506 C 0.30997 0.82617 0.01449 0.0
C507 C 0.31279 0.83626 0.95266 0.0
C508 C 0.33251 0.86174 0.95068 0.0
C509 C 0.28733 0.79995 0.01733 0.0
C510 C 0.29378 0.77643 0.97591 0.0
C511 C 0.25983 0.79809 0.06146 0.0
C512 C 0.25106 0.82236 0.10465 0.0
C513 C 0.24396 0.84394 0.07471 0.0
C514 C 0.23613 0.86689 0.11586 0.0
C515 C 0.23506 0.86839 0.187 0.0
C516 C 0.24171 0.8469 0.2171 0.0
C517 C 0.2496 0.82392 0.17617 0.0
H518 H 0.229 0.88617 0.21878 0.0
H519 H 0.30514 0.66247 0.82357 0.0
H520 H 0.57464 0.31962 0.05023 0.0
H521 H 0.57625 0.2728 0.06224 0.0
H522 H 0.50102 0.24358 0.89538 0.0
H523 H 0.49876 0.2901 0.88406 0.0
H524 H 0.48545 0.21773 0.00159 0.0
H525 H 0.58483 0.24133 0.87443 0.0
H526 H 0.64042 0.26755 0.85141 0.0
H527 H 0.68463 0.25015 0.03384 0.0
H528 H 0.62911 0.22426 0.05876 0.0
H529 H 0.4947 0.07881 0.93329 0.0
H530 H 0.4959 0.12628 0.92647 0.0
H531 H 0.57804 0.15042 0.08088 0.0
H532 H 0.57784 0.10286 0.08594 0.0
H533 H 0.59083 0.1796 0.98626 0.0
H534 H 0.49236 0.15636 0.11487 0.0
H535 H 0.43729 0.12946 0.13838 0.0
H536 H 0.39193 0.14609 0.95615 0.0
H537 H 0.44685 0.17282 0.93107 0.0
C538 C 0.55839 0.30321 0.01622 0.0
C539 C 0.53672 0.30869 0.9659 0.0
C540 C 0.55953 0.27644 0.02278 0.0
C541 C 0.53896 0.25458 0.97931 0.0
C542 C 0.51721 0.26003 0.92939 0.0
C543 C 0.51618 0.28671 0.9226 0.0
C544 C 0.53927 0.226 0.98652 0.0
C545 C 0.50846 0.20933 -0.00247 0.0
C546 C 0.56942 0.21516 0.98322 0.0
C547 C 0.60267 0.23116 0.96896 0.0
C548 C 0.60628 0.24338 0.91014 0.0
C549 C 0.6378 0.25813 0.89667 0.0
C550 C 0.66598 0.2606 0.94129 0.0
C551 C 0.66273 0.2483 -0.00053 0.0
C552 C 0.63124 0.2336 0.01331 0.0
C553 C 0.51288 0.0942 0.9662 0.0
C554 C 0.53594 0.08697 0.0107 0.0
C555 C 0.51347 0.12143 0.96243 0.0
C556 C 0.53661 0.14215 0.00416 0.0
C557 C 0.55983 0.13493 0.04829 0.0
C558 C 0.55959 0.10767 0.05136 0.0
C559 C 0.53695 0.17125 0.00103 0.0
C560 C 0.56785 0.18803 -0.00919 0.0
C561 C 0.50693 0.18229 0.00556 0.0
C562 C 0.4738 0.16641 0.02082 0.0
C563 C 0.47069 0.15415 0.0796 0.0
C564 C 0.43949 0.13895 0.09323 0.0
C565 C 0.41115 0.13602 0.04871 0.0
C566 C 0.41391 0.14836 -0.00944 0.0
C567 C 0.44506 0.16356 0.97666 0.0
H568 H 0.38702 0.12423 0.05934 0.0
H569 H 0.69035 0.27195 0.93066 0.0
loop_
_geom_bond_atom_site_label_1
_geom_bond_atom_site_label_2
_geom_bond_distance
_geom_bond_site_symmetry_2
_ccdc_geom_bond_type
Dy0 O3 2.307 1_455 S
Dy0 O5 2.395 1_554 S
Dy0 O6 2.379 . S
Dy0 O8 2.339 . S
Dy0 O10 2.298 . S
Dy0 O14 2.275 1_554 S
Dy0 C22 2.738 . S
Dy1 O4 2.298 . S
Dy1 O7 2.275 1_556 S
Dy1 O9 2.307 1_655 S
Dy1 O11 2.395 1_556 S
Dy1 O12 2.379 . S
Dy1 O15 2.339 . S
Dy1 C31 2.738 . S
C2 O14 1.254 . S
C2 O15 1.254 1_455 S
O3 Dy0 2.307 1_655 S
O3 C13 1.266 . S
O4 Dy1 2.298 . S
O4 C13 1.236 1_556 S
O5 Dy0 2.395 1_556 S
O5 C22 1.255 1_556 S
O6 Dy0 2.379 . S
O6 C22 1.249 . S
O7 Dy1 2.275 1_554 S
O7 C23 1.254 1_655 S
O8 Dy0 2.339 . S
O8 C23 1.257 . S
O9 Dy1 2.307 1_455 S
O9 C24 1.266 . S
O10 Dy0 2.298 . S
O10 C24 1.236 1_554 S
O11 Dy1 2.395 1_554 S
O11 C31 1.255 1_554 S
O12 Dy1 2.379 . S
O12 C31 1.249 . S
C13 O3 1.266 . S
C13 O4 1.236 1_554 S
O14 Dy0 2.275 1_556 S
O14 C2 1.254 . S
O15 Dy1 2.339 . S
O15 C2 1.254 1_655 S
C16 C19 1.344 1_554 S
C16 C20 1.328 . S
C16 C22 1.516 . S
C17 C18 1.304 1_554 S
C17 C21 1.323 . S
C18 C17 1.304 1_556 S
C18 C19 1.371 . S
C18 H32 0.930 . S
C19 C16 1.344 1_556 S
C19 C18 1.371 . S
C19 H33 0.931 . S
C20 C16 1.328 . S
C20 C21 1.433 . S
C20 H34 0.931 . S
C21 C17 1.323 . S
C21 C20 1.433 . S
C21 H35 0.933 . S
C22 Dy0 2.738 . S
C22 O5 1.255 1_554 S
C22 O6 1.249 . S
C22 C16 1.516 . S
C23 O7 1.254 1_455 S
C23 O8 1.257 . S
C24 O9 1.266 . S
C24 O10 1.236 1_556 S
C25 C28 1.344 1_556 S
C25 C29 1.328 . S
C25 C31 1.516 . S
C26 C27 1.304 1_556 S
C26 C30 1.323 . S
C27 C26 1.304 1_554 S
C27 C28 1.371 . S
C27 H36 0.930 . S
C28 C25 1.344 1_554 S
C28 C27 1.371 . S
C28 H37 0.931 . S
C29 C25 1.328 . S
C29 C30 1.433 . S
C29 H38 0.931 . S
C30 C26 1.323 . S
C30 C29 1.433 . S
C30 H39 0.933 . S
C31 Dy1 2.738 . S
C31 O11 1.255 1_556 S
C31 O12 1.249 . S
C31 C25 1.516 . S
H32 C18 0.930 . S
H33 C19 0.931 . S
H34 C20 0.931 . S
H35 C21 0.933 . S
H36 C27 0.930 . S
H37 C28 0.931 . S
H38 C29 0.931 . S
H39 C30 0.933 . S
Dy40 O43 2.307 1_565 S
Dy40 O45 2.395 1_556 S
Dy40 O46 2.379 . S
Dy40 O48 2.339 . S
Dy40 O50 2.298 . S
Dy40 O54 2.275 1_556 S
Dy40 C62 2.738 . S
Dy41 O44 2.298 . S
Dy41 O47 2.275 1_554 S
Dy41 O49 2.307 1_545 S
Dy41 O51 2.395 1_554 S
Dy41 O52 2.379 . S
Dy41 O55 2.339 . S
Dy41 C71 2.738 . S
C42 O54 1.254 1_545 S
C42 O55 1.257 . S
O43 Dy40 2.307 1_545 S
O43 C53 1.266 1_556 S
O44 Dy41 2.298 . S
O44 C53 1.236 . S
O45 Dy40 2.395 1_554 S
O45 C62 1.255 1_554 S
O46 Dy40 2.379 . S
O46 C62 1.249 . S
O47 Dy41 2.275 1_556 S
O47 C63 1.254 1_545 S
O48 Dy40 2.339 . S
O48 C63 1.257 . S
O49 Dy41 2.307 1_565 S
O49 C64 1.266 1_554 S
O50 Dy40 2.298 . S
O50 C64 1.236 . S
O51 Dy41 2.395 1_556 S
O51 C71 1.255 1_556 S
O52 Dy41 2.379 . S
O52 C71 1.249 . S
C53 O43 1.266 1_554 S
C53 O44 1.236 . S
O54 Dy40 2.275 1_554 S
O54 C42 1.254 1_565 S
O55 Dy41 2.339 . S
O55 C42 1.257 . S
C56 C59 1.344 1_556 S
C56 C60 1.328 . S
C56 C62 1.516 . S
C57 C58 1.304 . S
C57 C61 1.323 1_554 S
C58 C57 1.304 . S
C58 C59 1.371 . S
C58 H72 0.930 . S
C59 C56 1.344 1_554 S
C59 C58 1.371 . S
C59 H73 0.931 . S
C60 C56 1.328 . S
C60 C61 1.433 . S
C60 H74 0.931 . S
C61 C57 1.323 1_556 S
C61 C60 1.433 . S
C61 H75 0.933 . S
C62 Dy40 2.738 . S
C62 O45 1.255 1_556 S
C62 O46 1.249 . S
C62 C56 1.516 . S
C63 O47 1.254 1_565 S
C63 O48 1.257 . S
C64 O49 1.266 1_556 S
C64 O50 1.236 . S
C65 C68 1.344 1_554 S
C65 C69 1.328 . S
C65 C71 1.516 . S
C66 C67 1.304 . S
C66 C70 1.323 1_556 S
C67 C66 1.304 . S
C67 C68 1.371 . S
C67 H76 0.930 . S
C68 C65 1.344 1_556 S
C68 C67 1.371 . S
C68 H77 0.931 . S
C69 C65 1.328 . S
C69 C70 1.433 . S
C69 H78 0.931 . S
C70 C66 1.323 1_554 S
C70 C69 1.433 . S
C70 H79 0.933 . S
C71 Dy41 2.738 . S
C71 O51 1.255 1_554 S
C71 O52 1.249 . S
C71 C65 1.516 . S
H72 C58 0.930 . S
H73 C59 0.931 . S
H74 C60 0.931 . S
H75 C61 0.933 . S
H76 C67 0.930 . S
H77 C68 0.931 . S
H78 C69 0.931 . S
H79 C70 0.933 . S
Dy80 O83 2.307 . S
Dy80 O85 2.395 1_556 S
Dy80 O86 2.379 . S
Dy80 O88 2.339 . S
Dy80 O90 2.298 . S
Dy80 O94 2.275 1_556 S
Dy80 C102 2.738 . S
Dy81 O84 2.298 . S
Dy81 O87 2.275 1_554 S
Dy81 O89 2.307 . S
Dy81 O91 2.395 1_554 S
Dy81 O92 2.379 . S
Dy81 O95 2.339 . S
Dy81 C111 2.738 . S
C82 O94 1.254 . S
C82 O95 1.257 . S
O83 Dy80 2.307 . S
O83 C93 1.266 . S
O84 Dy81 2.298 . S
O84 C93 1.236 1_554 S
O85 Dy80 2.395 1_554 S
O85 C102 1.255 1_554 S
O86 Dy80 2.379 . S
O86 C102 1.249 . S
O87 Dy81 2.275 1_556 S
O87 C103 1.254 . S
O88 Dy80 2.339 . S
O88 C103 1.257 . S
O89 Dy81 2.307 . S
O89 C104 1.266 . S
O90 Dy80 2.298 . S
O90 C104 1.236 1_556 S
O91 Dy81 2.395 1_556 S
O91 C111 1.255 1_556 S
O92 Dy81 2.379 . S
O92 C111 1.249 . S
C93 O83 1.266 . S
C93 O84 1.236 1_556 S
O94 Dy80 2.275 1_554 S
O94 C82 1.254 . S
O95 Dy81 2.339 . S
O95 C82 1.257 . S
C96 C99 1.344 1_556 S
C96 C100 1.328 . S
C96 C102 1.516 . S
C97 C98 1.307 . S
C97 C101 1.320 1_554 S
C98 C97 1.307 . S
C98 C99 1.371 . S
C98 H112 0.930 . S
C99 C96 1.344 1_554 S
C99 C98 1.371 . S
C99 H113 0.931 . S
C100 C96 1.328 . S
C100 C101 1.433 . S
C100 H114 0.931 . S
C101 C97 1.320 1_556 S
C101 C100 1.433 . S
C101 H115 0.933 . S
C102 Dy80 2.738 . S
C102 O85 1.255 1_556 S
C102 O86 1.249 . S
C102 C96 1.516 . S
C103 O87 1.254 . S
C103 O88 1.257 . S
C104 O89 1.266 . S
C104 O90 1.236 1_554 S
C105 C108 1.344 1_554 S
C105 C109 1.328 . S
C105 C111 1.516 . S
C106 C107 1.301 1_554 S
C106 C110 1.328 . S
C107 C106 1.301 1_556 S
C107 C108 1.371 . S
C107 H116 0.930 . S
C108 C105 1.344 1_556 S
C108 C107 1.371 . S
C108 H117 0.931 . S
C109 C105 1.328 . S
C109 C110 1.433 . S
C109 H118 0.931 . S
C110 C106 1.328 . S
C110 C109 1.433 . S
C110 H119 0.933 . S
C111 Dy81 2.738 . S
C111 O91 1.255 1_554 S
C111 O92 1.249 . S
C111 C105 1.516 . S
H112 C98 0.930 . S
H113 C99 0.931 . S
H114 C100 0.931 . S
H115 C101 0.933 . S
H116 C107 0.930 . S
H117 C108 0.931 . S
H118 C109 0.931 . S
H119 C110 0.933 . S
H120 C138 0.951 . S
H121 C140 0.951 . S
H122 C142 0.950 . S
H123 C143 0.950 . S
H124 C145 0.950 . S
H125 C148 0.950 . S
H126 C149 0.950 . S
H127 C151 0.950 . S
H128 C152 0.950 1_655 S
H129 C153 0.951 . S
H130 C155 0.951 . S
H131 C157 0.950 . S
H132 C158 0.950 . S
H133 C160 0.950 . S
H134 C163 0.950 . S
H135 C164 0.950 . S
H136 C166 0.950 . S
H137 C167 0.950 1_455 S
C138 H120 0.951 . S
C138 C139 1.366 1_655 S
C138 C140 1.388 . S
C139 C138 1.366 1_455 S
C139 C143 1.385 . S
C140 H121 0.951 . S
C140 C138 1.388 . S
C140 C141 1.366 1_655 S
C141 C140 1.366 1_455 S
C141 C142 1.414 . S
C141 C144 1.499 . S
C142 H122 0.950 . S
C142 C141 1.414 . S
C142 C143 1.374 . S
C143 H123 0.950 . S
C143 C139 1.385 . S
C143 C142 1.374 . S
C144 C141 1.499 . S
C144 C145 1.373 1_455 S
C144 C146 1.389 . S
C145 H124 0.950 . S
C145 C144 1.373 1_655 S
C145 C161 1.377 . S
C146 C144 1.389 . S
C146 C147 1.524 . S
C146 C160 1.377 . S
C147 C146 1.524 . S
C147 C148 1.397 . S
C147 C152 1.363 . S
C148 H125 0.950 . S
C148 C147 1.397 . S
C148 C149 1.334 . S
C149 H126 0.950 . S
C149 C148 1.334 . S
C149 C150 1.287 . S
C150 C149 1.287 . S
C150 C151 1.524 . S
C150 H169 0.913 . S
C151 H127 0.950 . S
C151 C150 1.524 . S
C151 C152 1.415 . S
C152 H128 0.950 1_455 S
C152 C147 1.363 . S
C152 C151 1.415 . S
C153 H129 0.951 . S
C153 C154 1.366 1_455 S
C153 C155 1.388 . S
C154 C153 1.366 1_655 S
C154 C158 1.385 . S
C155 H130 0.951 . S
C155 C153 1.388 . S
C155 C156 1.366 1_455 S
C156 C155 1.366 1_655 S
C156 C157 1.414 . S
C156 C159 1.499 . S
C157 H131 0.950 . S
C157 C156 1.414 . S
C157 C158 1.374 . S
C158 H132 0.950 . S
C158 C154 1.385 . S
C158 C157 1.374 . S
C159 C156 1.499 . S
C159 C160 1.373 1_655 S
C159 C161 1.389 . S
C160 H133 0.950 . S
C160 C146 1.377 . S
C160 C159 1.373 1_455 S
C161 C145 1.377 . S
C161 C159 1.389 . S
C161 C162 1.524 . S
C162 C161 1.524 . S
C162 C163 1.397 . S
C162 C167 1.363 . S
C163 H134 0.950 . S
C163 C162 1.397 . S
C163 C164 1.334 . S
C164 H135 0.950 . S
C164 C163 1.334 . S
C164 C165 1.287 . S
C165 C164 1.287 . S
C165 C166 1.524 . S
C165 H168 0.999 . S
C166 H136 0.950 . S
C166 C165 1.524 . S
C166 C167 1.415 . S
C167 H137 0.950 1_655 S
C167 C162 1.363 . S
C167 C166 1.415 . S
H168 C165 0.999 . S
H169 C150 0.913 . S
H170 C188 0.951 . S
H171 C190 0.951 . S
H172 C192 0.950 . S
H173 C193 0.950 . S
H174 C195 0.950 . S
H175 C198 0.950 . S
H176 C199 0.950 . S
H177 C201 0.950 . S
H178 C202 0.950 . S
H179 C203 0.951 . S
H180 C205 0.951 . S
H181 C207 0.950 . S
H182 C208 0.950 . S
H183 C210 0.950 . S
H184 C213 0.950 . S
H185 C214 0.950 . S
H186 C216 0.950 . S
H187 C217 0.950 . S
C188 H170 0.951 . S
C188 C189 1.363 . S
C188 C190 1.388 . S
C189 C188 1.363 . S
C189 C193 1.385 1_545 S
C190 H171 0.951 . S
C190 C188 1.388 . S
C190 C191 1.366 1_545 S
C191 C190 1.366 1_565 S
C191 C192 1.414 . S
C191 C194 1.499 . S
C192 H172 0.950 . S
C192 C191 1.414 . S
C192 C193 1.374 . S
C193 H173 0.950 . S
C193 C189 1.385 1_565 S
C193 C192 1.374 . S
C194 C191 1.499 . S
C194 C195 1.373 1_565 S
C194 C196 1.389 . S
C195 H174 0.950 . S
C195 C194 1.373 1_545 S
C195 C211 1.377 . S
C196 C194 1.389 . S
C196 C197 1.524 . S
C196 C210 1.377 . S
C197 C196 1.524 . S
C197 C198 1.397 . S
C197 C202 1.363 . S
C198 H175 0.950 . S
C198 C197 1.397 . S
C198 C199 1.334 . S
C199 H176 0.950 . S
C199 C198 1.334 . S
C199 C200 1.287 . S
C200 C199 1.287 . S
C200 C201 1.524 . S
C200 H219 0.913 . S
C201 H177 0.950 . S
C201 C200 1.524 . S
C201 C202 1.415 . S
C202 H178 0.950 . S
C202 C197 1.363 . S
C202 C201 1.415 . S
C203 H179 0.951 . S
C203 C204 1.366 . S
C203 C205 1.388 . S
C204 C203 1.366 . S
C204 C208 1.385 1_565 S
C205 H180 0.951 . S
C205 C203 1.388 . S
C205 C206 1.366 1_565 S
C206 C205 1.366 1_545 S
C206 C207 1.414 . S
C206 C209 1.499 . S
C207 H181 0.950 . S
C207 C206 1.414 . S
C207 C208 1.374 . S
C208 H182 0.950 . S
C208 C204 1.385 1_545 S
C208 C207 1.374 . S
C209 C206 1.499 . S
C209 C210 1.373 1_545 S
C209 C211 1.389 . S
C210 H183 0.950 . S
C210 C196 1.377 . S
C210 C209 1.373 1_565 S
C211 C195 1.377 . S
C211 C209 1.389 . S
C211 C212 1.524 . S
C212 C211 1.524 . S
C212 C213 1.397 . S
C212 C217 1.363 . S
C213 H184 0.950 . S
C213 C212 1.397 . S
C213 C214 1.334 . S
C214 H185 0.950 . S
C214 C213 1.334 . S
C214 C215 1.287 . S
C215 C214 1.287 . S
C215 C216 1.524 . S
C215 H218 0.999 . S
C216 H186 0.950 . S
C216 C215 1.524 . S
C216 C217 1.415 . S
C217 H187 0.950 . S
C217 C212 1.363 . S
C217 C216 1.415 . S
H218 C215 0.999 . S
H219 C200 0.913 . S
H220 C238 0.951 . S
H221 C240 0.951 . S
H222 C242 0.950 . S
H223 C243 0.950 . S
H224 C245 0.950 . S
H225 C248 0.950 . S
H226 C249 0.950 . S
H227 C251 0.950 . S
H228 C252 0.950 . S
H229 C253 0.951 . S
H230 C255 0.951 . S
H231 C257 0.950 . S
H232 C258 0.950 . S
H233 C260 0.950 . S
H234 C263 0.950 . S
H235 C264 0.950 . S
H236 C266 0.950 . S
H237 C267 0.950 . S
C238 H220 0.951 . S
C238 C239 1.366 . S
C238 C240 1.388 . S
C239 C238 1.366 . S
C239 C243 1.385 . S
C240 H221 0.951 . S
C240 C238 1.388 . S
C240 C241 1.366 . S
C241 C240 1.366 . S
C241 C242 1.414 . S
C241 C244 1.499 . S
C242 H222 0.950 . S
C242 C241 1.414 . S
C242 C243 1.374 . S
C243 H223 0.950 . S
C243 C239 1.385 . S
C243 C242 1.374 . S
C244 C241 1.499 . S
C244 C245 1.373 . S
C244 C246 1.389 . S
C245 H224 0.950 . S
C245 C244 1.373 . S
C245 C261 1.377 . S
C246 C244 1.389 . S
C246 C247 1.524 . S
C246 C260 1.377 . S
C247 C246 1.524 . S
C247 C248 1.397 . S
C247 C252 1.363 . S
C248 H225 0.950 . S
C248 C247 1.397 . S
C248 C249 1.334 . S
C249 H226 0.950 . S
C249 C248 1.334 . S
C249 C250 1.287 . S
C250 C249 1.287 . S
C250 C251 1.524 . S
C250 H269 0.913 . S
C251 H227 0.950 . S
C251 C250 1.524 . S
C251 C252 1.415 . S
C252 H228 0.950 . S
C252 C247 1.363 . S
C252 C251 1.415 . S
C253 H229 0.951 . S
C253 C254 1.366 . S
C253 C255 1.388 . S
C254 C253 1.366 . S
C254 C258 1.385 . S
C255 H230 0.951 . S
C255 C253 1.388 . S
C255 C256 1.366 . S
C256 C255 1.366 . S
C256 C257 1.414 . S
C256 C259 1.499 . S
C257 H231 0.950 . S
C257 C256 1.414 . S
C257 C258 1.374 . S
C258 H232 0.950 . S
C258 C254 1.385 . S
C258 C257 1.374 . S
C259 C256 1.499 . S
C259 C260 1.373 . S
C259 C261 1.389 . S
C260 H233 0.950 . S
C260 C246 1.377 . S
C260 C259 1.373 . S
C261 C245 1.377 . S
C261 C259 1.389 . S
C261 C262 1.524 . S
C262 C261 1.524 . S
C262 C263 1.397 . S
C262 C267 1.363 . S
C263 H234 0.950 . S
C263 C262 1.397 . S
C263 C264 1.334 . S
C264 H235 0.950 . S
C264 C263 1.334 . S
C264 C265 1.287 . S
C265 C264 1.287 . S
C265 C266 1.524 . S
C265 H268 0.999 . S
C266 H236 0.950 . S
C266 C265 1.524 . S
C266 C267 1.415 . S
C267 H237 0.950 . S
C267 C262 1.363 . S
C267 C266 1.415 . S
H268 C265 0.999 . S
H269 C250 0.913 . S
H270 C288 0.951 . S
H271 C290 0.951 . S
H272 C292 0.950 . S
H273 C293 0.950 . S
H274 C295 0.950 1_554 S
H275 C298 0.950 . S
H276 C299 0.950 . S
H277 C301 0.950 . S
H278 C302 0.950 1_554 S
H279 C303 0.951 . S
H280 C305 0.951 . S
H281 C307 0.950 . S
H282 C308 0.950 . S
H283 C310 0.950 . S
H284 C313 0.950 . S
H285 C314 0.950 . S
H286 C316 0.950 1_556 S
H287 C317 0.950 . S
C288 H270 0.951 . S
C288 C289 1.366 1_554 S
C288 C290 1.388 . S
C289 C288 1.366 1_556 S
C289 C293 1.385 . S
C290 H271 0.951 . S
C290 C288 1.388 . S
C290 C291 1.366 1_554 S
C291 C290 1.366 1_556 S
C291 C292 1.414 . S
C291 C294 1.499 . S
C292 H272 0.950 . S
C292 C291 1.414 . S
C292 C293 1.374 . S
C293 H273 0.950 . S
C293 C289 1.385 . S
C293 C292 1.374 . S
C294 C291 1.499 . S
C294 C295 1.373 . S
C294 C296 1.389 . S
C295 H274 0.950 1_556 S
C295 C294 1.373 . S
C295 C311 1.377 1_556 S
C296 C294 1.389 . S
C296 C297 1.524 . S
C296 C310 1.377 . S
C297 C296 1.524 . S
C297 C298 1.397 . S
C297 C302 1.363 . S
C298 H275 0.950 . S
C298 C297 1.397 . S
C298 C299 1.334 . S
C299 H276 0.950 . S
C299 C298 1.334 . S
C299 C300 1.287 . S
C300 C299 1.287 . S
C300 C301 1.524 . S
C300 H319 0.913 . S
C301 H277 0.950 . S
C301 C300 1.524 . S
C301 C302 1.415 . S
C302 H278 0.950 1_556 S
C302 C297 1.363 . S
C302 C301 1.415 . S
C303 H279 0.951 . S
C303 C304 1.366 . S
C303 C305 1.388 . S
C304 C303 1.366 . S
C304 C308 1.385 1_556 S
C305 H280 0.951 . S
C305 C303 1.388 . S
C305 C306 1.366 . S
C306 C305 1.366 . S
C306 C307 1.414 1_556 S
C306 C309 1.499 . S
C307 H281 0.950 . S
C307 C306 1.414 1_554 S
C307 C308 1.374 . S
C308 H282 0.950 . S
C308 C304 1.385 1_554 S
C308 C307 1.374 . S
C309 C306 1.499 . S
C309 C310 1.373 . S
C309 C311 1.389 1_556 S
C310 H283 0.950 . S
C310 C296 1.377 . S
C310 C309 1.373 . S
C311 C295 1.377 1_554 S
C311 C309 1.389 1_554 S
C311 C312 1.524 . S
C312 C311 1.524 . S
C312 C313 1.397 . S
C312 C317 1.363 1_554 S
C313 H284 0.950 . S
C313 C312 1.397 . S
C313 C314 1.334 . S
C314 H285 0.950 . S
C314 C313 1.334 . S
C314 C315 1.287 . S
C315 C314 1.287 . S
C315 C316 1.524 . S
C315 H318 0.999 . S
C316 H286 0.950 1_554 S
C316 C315 1.524 . S
C316 C317 1.415 1_554 S
C317 H287 0.950 . S
C317 C312 1.363 1_556 S
C317 C316 1.415 1_556 S
H318 C315 0.999 . S
H319 C300 0.913 . S
H320 C338 0.951 . S
H321 C340 0.951 . S
H322 C342 0.950 . S
H323 C343 0.950 . S
H324 C345 0.950 . S
H325 C348 0.950 . S
H326 C349 0.950 . S
H327 C351 0.950 . S
H328 C352 0.950 . S
H329 C353 0.951 . S
H330 C355 0.951 . S
H331 C357 0.950 . S
H332 C358 0.950 . S
H333 C360 0.950 . S
H334 C363 0.950 . S
H335 C364 0.950 . S
H336 C366 0.950 . S
H337 C367 0.950 . S
C338 H320 0.951 . S
C338 C339 1.366 . S
C338 C340 1.388 . S
C339 C338 1.366 . S
C339 C343 1.385 1_556 S
C340 H321 0.951 . S
C340 C338 1.388 . S
C340 C341 1.366 . S
C341 C340 1.366 . S
C341 C342 1.414 1_556 S
C341 C344 1.499 . S
C342 H322 0.950 . S
C342 C341 1.414 1_554 S
C342 C343 1.374 . S
C343 H323 0.950 . S
C343 C339 1.385 1_554 S
C343 C342 1.374 . S
C344 C341 1.499 . S
C344 C345 1.373 . S
C344 C346 1.389 1_556 S
C345 H324 0.950 . S
C345 C344 1.373 . S
C345 C361 1.377 . S
C346 C344 1.389 1_554 S
C346 C347 1.524 . S
C346 C360 1.377 . S
C347 C346 1.524 . S
C347 C348 1.397 . S
C347 C352 1.363 . S
C348 H325 0.950 . S
C348 C347 1.397 . S
C348 C349 1.334 . S
C349 H326 0.950 . S
C349 C348 1.334 . S
C349 C350 1.287 . S
C350 C349 1.287 . S
C350 C351 1.524 . S
C350 H369 0.913 . S
C351 H327 0.950 . S
C351 C350 1.524 . S
C351 C352 1.415 . S
C352 H328 0.950 . S
C352 C347 1.363 . S
C352 C351 1.415 . S
C353 H329 0.951 . S
C353 C354 1.366 1_554 S
C353 C355 1.388 . S
C354 C353 1.366 1_556 S
C354 C358 1.385 . S
C355 H330 0.951 . S
C355 C353 1.388 . S
C355 C356 1.366 1_554 S
C356 C355 1.366 1_556 S
C356 C357 1.414 . S
C356 C359 1.499 . S
C357 H331 0.950 . S
C357 C356 1.414 . S
C357 C358 1.374 . S
C358 H332 0.950 . S
C358 C354 1.385 . S
C358 C357 1.374 . S
C359 C356 1.499 . S
C359 C360 1.373 1_556 S
C359 C361 1.389 . S
C360 H333 0.950 . S
C360 C346 1.377 . S
C360 C359 1.373 1_554 S
C361 C345 1.377 . S
C361 C359 1.389 . S
C361 C362 1.524 . S
C362 C361 1.524 . S
C362 C363 1.397 . S
C362 C367 1.363 . S
C363 H334 0.950 . S
C363 C362 1.397 . S
C363 C364 1.334 . S
C364 H335 0.950 . S
C364 C363 1.334 . S
C364 C365 1.287 . S
C365 C364 1.287 . S
C365 C366 1.524 . S
C365 H368 0.999 . S
C366 H336 0.950 . S
C366 C365 1.524 . S
C366 C367 1.415 . S
C367 H337 0.950 . S
C367 C362 1.363 . S
C367 C366 1.415 . S
H368 C365 0.999 . S
H369 C350 0.913 . S
H370 C388 0.951 . S
H371 C390 0.951 . S
H372 C392 0.950 . S
H373 C393 0.950 . S
H374 C395 0.950 . S
H375 C398 0.950 . S
H376 C399 0.950 . S
H377 C401 0.950 . S
H378 C402 0.950 . S
H379 C403 0.951 . S
H380 C405 0.951 . S
H381 C407 0.950 . S
H382 C408 0.950 . S
H383 C410 0.950 . S
H384 C413 0.950 . S
H385 C414 0.950 . S
H386 C416 0.950 . S
H387 C417 0.950 . S
C388 H370 0.951 . S
C388 C389 1.366 1_554 S
C388 C390 1.388 . S
C389 C388 1.366 1_556 S
C389 C393 1.385 . S
C390 H371 0.951 . S
C390 C388 1.388 . S
C390 C391 1.366 1_554 S
C391 C390 1.366 1_556 S
C391 C392 1.414 . S
C391 C394 1.499 . S
C392 H372 0.950 . S
C392 C391 1.414 . S
C392 C393 1.374 . S
C393 H373 0.950 . S
C393 C389 1.385 . S
C393 C392 1.374 . S
C394 C391 1.499 . S
C394 C395 1.373 1_556 S
C394 C396 1.389 . S
C395 H374 0.950 . S
C395 C394 1.373 1_554 S
C395 C411 1.377 . S
C396 C394 1.389 . S
C396 C397 1.524 . S
C396 C410 1.377 . S
C397 C396 1.524 . S
C397 C398 1.397 . S
C397 C402 1.363 . S
C398 H375 0.950 . S
C398 C397 1.397 . S
C398 C399 1.334 . S
C399 H376 0.950 . S
C399 C398 1.334 . S
C399 C400 1.287 . S
C400 C399 1.287 . S
C400 C401 1.524 . S
C400 H419 0.913 . S
C401 H377 0.950 . S
C401 C400 1.524 . S
C401 C402 1.415 . S
C402 H378 0.950 . S
C402 C397 1.363 . S
C402 C401 1.415 . S
C403 H379 0.951 . S
C403 C404 1.366 1_556 S
C403 C405 1.388 . S
C404 C403 1.366 1_554 S
C404 C408 1.385 . S
C405 H380 0.951 . S
C405 C403 1.388 . S
C405 C406 1.366 1_556 S
C406 C405 1.366 1_554 S
C406 C407 1.414 . S
C406 C409 1.499 . S
C407 H381 0.950 . S
C407 C406 1.414 . S
C407 C408 1.374 . S
C408 H382 0.950 . S
C408 C404 1.385 . S
C408 C407 1.374 . S
C409 C406 1.499 . S
C409 C410 1.373 1_554 S
C409 C411 1.389 . S
C410 H383 0.950 . S
C410 C396 1.377 . S
C410 C409 1.373 1_556 S
C411 C395 1.377 . S
C411 C409 1.389 . S
C411 C412 1.524 . S
C412 C411 1.524 . S
C412 C413 1.397 . S
C412 C417 1.363 . S
C413 H384 0.950 . S
C413 C412 1.397 . S
C413 C414 1.334 . S
C414 H385 0.950 . S
C414 C413 1.334 . S
C414 C415 1.287 . S
C415 C414 1.287 . S
C415 C416 1.524 . S
C415 H418 0.999 . S
C416 H386 0.950 . S
C416 C415 1.524 . S
C416 C417 1.415 . S
C417 H387 0.950 . S
C417 C412 1.363 . S
C417 C416 1.415 . S
H418 C415 0.999 . S
H419 C400 0.913 . S
H420 C438 0.951 . S
H421 C440 0.951 . S
H422 C442 0.950 . S
H423 C443 0.950 . S
H424 C445 0.950 . S
H425 C448 0.950 . S
H426 C449 0.950 . S
H427 C451 0.950 . S
H428 C452 0.950 . S
H429 C453 0.951 . S
H430 C455 0.951 . S
H431 C457 0.950 . S
H432 C458 0.950 . S
H433 C460 0.950 . S
H434 C463 0.950 . S
H435 C464 0.950 . S
H436 C466 0.950 . S
H437 C467 0.950 . S
C438 H420 0.951 . S
C438 C439 1.366 . S
C438 C440 1.388 . S
C439 C438 1.366 . S
C439 C443 1.385 1_554 S
C440 H421 0.951 . S
C440 C438 1.388 . S
C440 C441 1.366 . S
C441 C440 1.366 . S
C441 C442 1.414 1_554 S
C441 C444 1.499 . S
C442 H422 0.950 . S
C442 C441 1.414 1_556 S
C442 C443 1.374 . S
C443 H423 0.950 . S
C443 C439 1.385 1_556 S
C443 C442 1.374 . S
C444 C441 1.499 . S
C444 C445 1.373 1_554 S
C444 C446 1.389 . S
C445 H424 0.950 . S
C445 C444 1.373 1_556 S
C445 C461 1.377 . S
C446 C444 1.389 . S
C446 C447 1.524 . S
C446 C460 1.377 . S
C447 C446 1.524 . S
C447 C448 1.397 . S
C447 C452 1.363 . S
C448 H425 0.950 . S
C448 C447 1.397 . S
C448 C449 1.334 . S
C449 H426 0.950 . S
C449 C448 1.334 . S
C449 C450 1.287 . S
C450 C449 1.287 . S
C450 C451 1.524 . S
C450 H469 0.913 . S
C451 H427 0.950 . S
C451 C450 1.524 . S
C451 C452 1.415 . S
C452 H428 0.950 . S
C452 C447 1.363 . S
C452 C451 1.415 . S
C453 H429 0.951 . S
C453 C454 1.366 1_556 S
C453 C455 1.388 . S
C454 C453 1.366 1_554 S
C454 C458 1.385 . S
C455 H430 0.951 . S
C455 C453 1.388 . S
C455 C456 1.366 1_556 S
C456 C455 1.366 1_554 S
C456 C457 1.414 . S
C456 C459 1.499 . S
C457 H431 0.950 . S
C457 C456 1.414 . S
C457 C458 1.374 . S
C458 H432 0.950 . S
C458 C454 1.385 . S
C458 C457 1.374 . S
C459 C456 1.499 . S
C459 C460 1.373 . S
C459 C461 1.389 1_554 S
C460 H433 0.950 . S
C460 C446 1.377 . S
C460 C459 1.373 . S
C461 C445 1.377 . S
C461 C459 1.389 1_556 S
C461 C462 1.524 . S
C462 C461 1.524 . S
C462 C463 1.397 . S
C462 C467 1.363 . S
C463 H434 0.950 . S
C463 C462 1.397 . S
C463 C464 1.334 . S
C464 H435 0.950 . S
C464 C463 1.334 . S
C464 C465 1.287 . S
C465 C464 1.287 . S
C465 C466 1.524 . S
C465 H468 0.999 . S
C466 H436 0.950 . S
C466 C465 1.524 . S
C466 C467 1.415 . S
C467 H437 0.950 . S
C467 C462 1.363 . S
C467 C466 1.415 . S
H468 C465 0.999 . S
H469 C450 0.913 . S
H470 C488 0.951 . S
H471 C490 0.951 . S
H472 C492 0.950 . S
H473 C493 0.950 . S
H474 C495 0.950 . S
H475 C498 0.950 . S
H476 C499 0.950 . S
H477 C501 0.950 . S
H478 C502 0.950 . S
H479 C503 0.951 . S
H480 C505 0.951 . S
H481 C507 0.950 . S
H482 C508 0.950 . S
H483 C510 0.950 . S
H484 C513 0.950 . S
H485 C514 0.950 . S
H486 C516 0.950 . S
H487 C517 0.950 . S
C488 H470 0.951 . S
C488 C489 1.366 1_556 S
C488 C490 1.388 . S
C489 C488 1.366 1_554 S
C489 C493 1.385 . S
C490 H471 0.951 . S
C490 C488 1.388 . S
C490 C491 1.366 1_556 S
C491 C490 1.366 1_554 S
C491 C492 1.414 . S
C491 C494 1.499 . S
C492 H472 0.950 . S
C492 C491 1.414 . S
C492 C493 1.374 . S
C493 H473 0.950 . S
C493 C489 1.385 . S
C493 C492 1.374 . S
C494 C491 1.499 . S
C494 C495 1.373 . S
C494 C496 1.389 1_554 S
C495 H474 0.950 . S
C495 C494 1.373 . S
C495 C511 1.377 . S
C496 C494 1.389 1_556 S
C496 C497 1.524 . S
C496 C510 1.377 . S
C497 C496 1.524 . S
C497 C498 1.397 . S
C497 C502 1.363 . S
C498 H475 0.950 . S
C498 C497 1.397 . S
C498 C499 1.334 . S
C499 H476 0.950 . S
C499 C498 1.334 . S
C499 C500 1.287 . S
C500 C499 1.287 . S
C500 C501 1.524 . S
C500 H519 0.913 . S
C501 H477 0.950 . S
C501 C500 1.524 . S
C501 C502 1.415 . S
C502 H478 0.950 . S
C502 C497 1.363 . S
C502 C501 1.415 . S
C503 H479 0.951 . S
C503 C504 1.366 . S
C503 C505 1.388 . S
C504 C503 1.366 . S
C504 C508 1.385 1_554 S
C505 H480 0.951 . S
C505 C503 1.388 . S
C505 C506 1.366 . S
C506 C505 1.366 . S
C506 C507 1.414 1_554 S
C506 C509 1.499 . S
C507 H481 0.950 . S
C507 C506 1.414 1_556 S
C507 C508 1.374 . S
C508 H482 0.950 . S
C508 C504 1.385 1_556 S
C508 C507 1.374 . S
C509 C506 1.499 . S
C509 C510 1.373 1_554 S
C509 C511 1.389 . S
C510 H483 0.950 . S
C510 C496 1.377 . S
C510 C509 1.373 1_556 S
C511 C495 1.377 . S
C511 C509 1.389 . S
C511 C512 1.524 . S
C512 C511 1.524 . S
C512 C513 1.397 . S
C512 C517 1.363 . S
C513 H484 0.950 . S
C513 C512 1.397 . S
C513 C514 1.334 . S
C514 H485 0.950 . S
C514 C513 1.334 . S
C514 C515 1.287 . S
C515 C514 1.287 . S
C515 C516 1.524 . S
C515 H518 0.999 . S
C516 H486 0.950 . S
C516 C515 1.524 . S
C516 C517 1.415 . S
C517 H487 0.950 . S
C517 C512 1.363 . S
C517 C516 1.415 . S
H518 C515 0.999 . S
H519 C500 0.913 . S
H520 C538 0.951 . S
H521 C540 0.951 . S
H522 C542 0.950 . S
H523 C543 0.950 . S
H524 C545 0.950 . S
H525 C548 0.950 . S
H526 C549 0.950 . S
H527 C551 0.950 . S
H528 C552 0.950 . S
H529 C553 0.951 . S
H530 C555 0.951 . S
H531 C557 0.950 . S
H532 C558 0.950 . S
H533 C560 0.950 . S
H534 C563 0.950 . S
H535 C564 0.950 . S
H536 C566 0.950 . S
H537 C567 0.950 . S
C538 H520 0.951 . S
C538 C539 1.366 1_554 S
C538 C540 1.388 . S
C539 C538 1.366 1_556 S
C539 C543 1.385 . S
C540 H521 0.951 . S
C540 C538 1.388 . S
C540 C541 1.366 1_554 S
C541 C540 1.366 1_556 S
C541 C542 1.414 . S
C541 C544 1.499 . S
C542 H522 0.950 . S
C542 C541 1.414 . S
C542 C543 1.374 . S
C543 H523 0.950 . S
C543 C539 1.385 . S
C543 C542 1.374 . S
C544 C541 1.499 . S
C544 C545 1.373 . S
C544 C546 1.389 1_556 S
C545 H524 0.950 . S
C545 C544 1.373 . S
C545 C561 1.377 . S
C546 C544 1.389 1_554 S
C546 C547 1.524 . S
C546 C560 1.377 . S
C547 C546 1.524 . S
C547 C548 1.397 1_554 S
C547 C552 1.363 . S
C548 H525 0.950 . S
C548 C547 1.397 1_556 S
C548 C549 1.334 . S
C549 H526 0.950 . S
C549 C548 1.334 . S
C549 C550 1.287 1_556 S
C550 C549 1.287 1_554 S
C550 C551 1.524 . S
C550 H569 0.913 . S
C551 H527 0.950 . S
C551 C550 1.524 . S
C551 C552 1.415 . S
C552 H528 0.950 . S
C552 C547 1.363 . S
C552 C551 1.415 . S
C553 H529 0.951 . S
C553 C554 1.366 1_556 S
C553 C555 1.388 . S
C554 C553 1.366 1_554 S
C554 C558 1.385 . S
C555 H530 0.951 . S
C555 C553 1.388 . S
C555 C556 1.366 1_556 S
C556 C555 1.366 1_554 S
C556 C557 1.414 . S
C556 C559 1.499 . S
C557 H531 0.950 . S
C557 C556 1.414 . S
C557 C558 1.374 . S
C558 H532 0.950 . S
C558 C554 1.385 . S
C558 C557 1.374 . S
C559 C556 1.499 . S
C559 C560 1.373 . S
C559 C561 1.389 1_554 S
C560 H533 0.950 . S
C560 C546 1.377 . S
C560 C559 1.373 . S
C561 C545 1.377 . S
C561 C559 1.389 1_556 S
C561 C562 1.524 . S
C562 C561 1.524 . S
C562 C563 1.397 1_556 S
C562 C567 1.363 . S
C563 H534 0.950 . S
C563 C562 1.397 1_554 S
C563 C564 1.334 . S
C564 H535 0.950 . S
C564 C563 1.334 . S
C564 C565 1.287 1_554 S
C565 C564 1.287 1_556 S
C565 C566 1.524 . S
C565 H568 0.999 . S
C566 H536 0.950 . S
C566 C565 1.524 . S
C566 C567 1.415 . S
C567 H537 0.950 . S
C567 C562 1.363 . S
C567 C566 1.415 . S
H568 C565 0.999 . S
H569 C550 0.913 . S
C139 C2 1.475 . S
C154 C23 1.473 1_655 S
C189 C42 1.470 . S
C204 C63 1.465 . S
C239 C103 1.476 . S
C254 C82 1.476 . S
C289 C24 2.480 . S
C304 C93 2.468 . S
C339 C66 0.696 . S
C354 C26 0.694 . S
C389 C64 1.680 . S
C404 C106 1.680 . S
C439 C13 2.480 . S
C454 C104 2.468 . S
C489 C17 0.694 . S
C504 C57 0.696 . S
C539 C97 1.682 1_556 S
C554 C53 1.680 . S
