# Generated by pormake.
# Topology wir, (6)-cn, num edge types: 1
# Building blocks:
#     Node 0, Type 0, BuildingBlock: MIDCAF_clean_sbu_0, # of connection points: 6
#     Node 1, Type 0, BuildingBlock: MIDCAF_clean_sbu_0, # of connection points: 6
#     Node 2, Type 0, BuildingBlock: MIDCAF_clean_sbu_0, # of connection points: 6
#     Node 3, Type 0, BuildingBlock: MIDCAF_clean_sbu_0, # of connection points: 6
#     Node 4, Type 0, BuildingBlock: MIDCAF_clean_sbu_0, # of connection points: 6
#     Node 5, Type 0, BuildingBlock: MIDCAF_clean_sbu_0, # of connection points: 6
#     Node 6, Type 0, BuildingBlock: MIDCAF_clean_sbu_0, # of connection points: 6
#     Node 7, Type 0, BuildingBlock: MIDCAF_clean_sbu_0, # of connection points: 6
#     Node 8, Type 0, BuildingBlock: MIDCAF_clean_sbu_0, # of connection points: 6
#     Node 9, Type 0, BuildingBlock: MIDCAF_clean_sbu_0, # of connection points: 6
#     Node 10, Type 0, BuildingBlock: MIDCAF_clean_sbu_0, # of connection points: 6
#     Node 11, Type 0, BuildingBlock: MIDCAF_clean_sbu_0, # of connection points: 6
#     Node 12, Type 0, BuildingBlock: MIDCAF_clean_sbu_0, # of connection points: 6
#     Node 13, Type 0, BuildingBlock: MIDCAF_clean_sbu_0, # of connection points: 6
#     Node 14, Type 0, BuildingBlock: MIDCAF_clean_sbu_0, # of connection points: 6
#     Node 15, Type 0, BuildingBlock: MIDCAF_clean_sbu_0, # of connection points: 6
#     Node 16, Type 0, BuildingBlock: MIDCAF_clean_sbu_0, # of connection points: 6
#     Node 17, Type 0, BuildingBlock: MIDCAF_clean_sbu_0, # of connection points: 6
#     Node 18, Type 0, BuildingBlock: MIDCAF_clean_sbu_0, # of connection points: 6
#     Node 19, Type 0, BuildingBlock: MIDCAF_clean_sbu_0, # of connection points: 6
#     Node 20, Type 0, BuildingBlock: MIDCAF_clean_sbu_0, # of connection points: 6
#     Node 21, Type 0, BuildingBlock: MIDCAF_clean_sbu_0, # of connection points: 6
#     Node 22, Type 0, BuildingBlock: MIDCAF_clean_sbu_0, # of connection points: 6
#     Node 23, Type 0, BuildingBlock: MIDCAF_clean_sbu_0, # of connection points: 6
#     Node 24, Type 0, BuildingBlock: MIDCAF_clean_sbu_0, # of connection points: 6
#     Node 25, Type 0, BuildingBlock: MIDCAF_clean_sbu_0, # of connection points: 6
#     Node 26, Type 0, BuildingBlock: MIDCAF_clean_sbu_0, # of connection points: 6
#     Node 27, Type 0, BuildingBlock: MIDCAF_clean_sbu_0, # of connection points: 6
#     Node 28, Type 0, BuildingBlock: MIDCAF_clean_sbu_0, # of connection points: 6
#     Node 29, Type 0, BuildingBlock: MIDCAF_clean_sbu_0, # of connection points: 6
#     Node 30, Type 0, BuildingBlock: MIDCAF_clean_sbu_0, # of connection points: 6
#     Node 31, Type 0, BuildingBlock: MIDCAF_clean_sbu_0, # of connection points: 6
#     Edge 32, Type (0, 0), BuildingBlock: XIVTED_clean_linker_0, # of connection points: 2
#     Edge 33, Type (0, 0), BuildingBlock: XIVTED_clean_linker_0, # of connection points: 2
#     Edge 34, Type (0, 0), BuildingBlock: XIVTED_clean_linker_0, # of connection points: 2
#     Edge 35, Type (0, 0), BuildingBlock: XIVTED_clean_linker_0, # of connection points: 2
#     Edge 36, Type (0, 0), BuildingBlock: XIVTED_clean_linker_0, # of connection points: 2
#     Edge 37, Type (0, 0), BuildingBlock: XIVTED_clean_linker_0, # of connection points: 2
#     Edge 38, Type (0, 0), BuildingBlock: XIVTED_clean_linker_0, # of connection points: 2
#     Edge 39, Type (0, 0), BuildingBlock: XIVTED_clean_linker_0, # of connection points: 2
#     Edge 40, Type (0, 0), BuildingBlock: XIVTED_clean_linker_0, # of connection points: 2
#     Edge 41, Type (0, 0), BuildingBlock: XIVTED_clean_linker_0, # of connection points: 2
#     Edge 42, Type (0, 0), BuildingBlock: XIVTED_clean_linker_0, # of connection points: 2
#     Edge 43, Type (0, 0), BuildingBlock: XIVTED_clean_linker_0, # of connection points: 2
#     Edge 44, Type (0, 0), BuildingBlock: XIVTED_clean_linker_0, # of connection points: 2
#     Edge 45, Type (0, 0), BuildingBlock: XIVTED_clean_linker_0, # of connection points: 2
#     Edge 46, Type (0, 0), BuildingBlock: XIVTED_clean_linker_0, # of connection points: 2
#     Edge 47, Type (0, 0), BuildingBlock: XIVTED_clean_linker_0, # of connection points: 2
#     Edge 48, Type (0, 0), BuildingBlock: XIVTED_clean_linker_0, # of connection points: 2
#     Edge 49, Type (0, 0), BuildingBlock: XIVTED_clean_linker_0, # of connection points: 2
#     Edge 50, Type (0, 0), BuildingBlock: XIVTED_clean_linker_0, # of connection points: 2
#     Edge 51, Type (0, 0), BuildingBlock: XIVTED_clean_linker_0, # of connection points: 2
#     Edge 52, Type (0, 0), BuildingBlock: XIVTED_clean_linker_0, # of connection points: 2
#     Edge 53, Type (0, 0), BuildingBlock: XIVTED_clean_linker_0, # of connection points: 2
#     Edge 54, Type (0, 0), BuildingBlock: XIVTED_clean_linker_0, # of connection points: 2
#     Edge 55, Type (0, 0), BuildingBlock: XIVTED_clean_linker_0, # of connection points: 2
#     Edge 56, Type (0, 0), BuildingBlock: XIVTED_clean_linker_0, # of connection points: 2
#     Edge 57, Type (0, 0), BuildingBlock: XIVTED_clean_linker_0, # of connection points: 2
#     Edge 58, Type (0, 0), BuildingBlock: XIVTED_clean_linker_0, # of connection points: 2
#     Edge 59, Type (0, 0), BuildingBlock: XIVTED_clean_linker_0, # of connection points: 2
#     Edge 60, Type (0, 0), BuildingBlock: XIVTED_clean_linker_0, # of connection points: 2
#     Edge 61, Type (0, 0), BuildingBlock: XIVTED_clean_linker_0, # of connection points: 2
#     Edge 62, Type (0, 0), BuildingBlock: XIVTED_clean_linker_0, # of connection points: 2
#     Edge 63, Type (0, 0), BuildingBlock: XIVTED_clean_linker_0, # of connection points: 2
#     Edge 64, Type (0, 0), BuildingBlock: XIVTED_clean_linker_0, # of connection points: 2
#     Edge 65, Type (0, 0), BuildingBlock: XIVTED_clean_linker_0, # of connection points: 2
#     Edge 66, Type (0, 0), BuildingBlock: XIVTED_clean_linker_0, # of connection points: 2
#     Edge 67, Type (0, 0), BuildingBlock: XIVTED_clean_linker_0, # of connection points: 2
#     Edge 68, Type (0, 0), BuildingBlock: XIVTED_clean_linker_0, # of connection points: 2
#     Edge 69, Type (0, 0), BuildingBlock: XIVTED_clean_linker_0, # of connection points: 2
#     Edge 70, Type (0, 0), BuildingBlock: XIVTED_clean_linker_0, # of connection points: 2
#     Edge 71, Type (0, 0), BuildingBlock: XIVTED_clean_linker_0, # of connection points: 2
#     Edge 72, Type (0, 0), BuildingBlock: XIVTED_clean_linker_0, # of connection points: 2
#     Edge 73, Type (0, 0), BuildingBlock: XIVTED_clean_linker_0, # of connection points: 2
#     Edge 74, Type (0, 0), BuildingBlock: XIVTED_clean_linker_0, # of connection points: 2
#     Edge 75, Type (0, 0), BuildingBlock: XIVTED_clean_linker_0, # of connection points: 2
#     Edge 76, Type (0, 0), BuildingBlock: XIVTED_clean_linker_0, # of connection points: 2
#     Edge 77, Type (0, 0), BuildingBlock: XIVTED_clean_linker_0, # of connection points: 2
#     Edge 78, Type (0, 0), BuildingBlock: XIVTED_clean_linker_0, # of connection points: 2
#     Edge 79, Type (0, 0), BuildingBlock: XIVTED_clean_linker_0, # of connection points: 2
#     Edge 80, Type (0, 0), BuildingBlock: XIVTED_clean_linker_0, # of connection points: 2
#     Edge 81, Type (0, 0), BuildingBlock: XIVTED_clean_linker_0, # of connection points: 2
#     Edge 82, Type (0, 0), BuildingBlock: XIVTED_clean_linker_0, # of connection points: 2
#     Edge 83, Type (0, 0), BuildingBlock: XIVTED_clean_linker_0, # of connection points: 2
#     Edge 84, Type (0, 0), BuildingBlock: XIVTED_clean_linker_0, # of connection points: 2
#     Edge 85, Type (0, 0), BuildingBlock: XIVTED_clean_linker_0, # of connection points: 2
#     Edge 86, Type (0, 0), BuildingBlock: XIVTED_clean_linker_0, # of connection points: 2
#     Edge 87, Type (0, 0), BuildingBlock: XIVTED_clean_linker_0, # of connection points: 2
#     Edge 88, Type (0, 0), BuildingBlock: XIVTED_clean_linker_0, # of connection points: 2
#     Edge 89, Type (0, 0), BuildingBlock: XIVTED_clean_linker_0, # of connection points: 2
#     Edge 90, Type (0, 0), BuildingBlock: XIVTED_clean_linker_0, # of connection points: 2
#     Edge 91, Type (0, 0), BuildingBlock: XIVTED_clean_linker_0, # of connection points: 2
#     Edge 92, Type (0, 0), BuildingBlock: XIVTED_clean_linker_0, # of connection points: 2
#     Edge 93, Type (0, 0), BuildingBlock: XIVTED_clean_linker_0, # of connection points: 2
#     Edge 94, Type (0, 0), BuildingBlock: XIVTED_clean_linker_0, # of connection points: 2
#     Edge 95, Type (0, 0), BuildingBlock: XIVTED_clean_linker_0, # of connection points: 2
#     Edge 96, Type (0, 0), BuildingBlock: XIVTED_clean_linker_0, # of connection points: 2
#     Edge 97, Type (0, 0), BuildingBlock: XIVTED_clean_linker_0, # of connection points: 2
#     Edge 98, Type (0, 0), BuildingBlock: XIVTED_clean_linker_0, # of connection points: 2
#     Edge 99, Type (0, 0), BuildingBlock: XIVTED_clean_linker_0, # of connection points: 2
#     Edge 100, Type (0, 0), BuildingBlock: XIVTED_clean_linker_0, # of connection points: 2
#     Edge 101, Type (0, 0), BuildingBlock: XIVTED_clean_linker_0, # of connection points: 2
#     Edge 102, Type (0, 0), BuildingBlock: XIVTED_clean_linker_0, # of connection points: 2
#     Edge 103, Type (0, 0), BuildingBlock: XIVTED_clean_linker_0, # of connection points: 2
#     Edge 104, Type (0, 0), BuildingBlock: XIVTED_clean_linker_0, # of connection points: 2
#     Edge 105, Type (0, 0), BuildingBlock: XIVTED_clean_linker_0, # of connection points: 2
#     Edge 106, Type (0, 0), BuildingBlock: XIVTED_clean_linker_0, # of connection points: 2
#     Edge 107, Type (0, 0), BuildingBlock: XIVTED_clean_linker_0, # of connection points: 2
#     Edge 108, Type (0, 0), BuildingBlock: XIVTED_clean_linker_0, # of connection points: 2
#     Edge 109, Type (0, 0), BuildingBlock: XIVTED_clean_linker_0, # of connection points: 2
#     Edge 110, Type (0, 0), BuildingBlock: XIVTED_clean_linker_0, # of connection points: 2
#     Edge 111, Type (0, 0), BuildingBlock: XIVTED_clean_linker_0, # of connection points: 2
#     Edge 112, Type (0, 0), BuildingBlock: XIVTED_clean_linker_0, # of connection points: 2
#     Edge 113, Type (0, 0), BuildingBlock: XIVTED_clean_linker_0, # of connection points: 2
#     Edge 114, Type (0, 0), BuildingBlock: XIVTED_clean_linker_0, # of connection points: 2
#     Edge 115, Type (0, 0), BuildingBlock: XIVTED_clean_linker_0, # of connection points: 2
#     Edge 116, Type (0, 0), BuildingBlock: XIVTED_clean_linker_0, # of connection points: 2
#     Edge 117, Type (0, 0), BuildingBlock: XIVTED_clean_linker_0, # of connection points: 2
#     Edge 118, Type (0, 0), BuildingBlock: XIVTED_clean_linker_0, # of connection points: 2
#     Edge 119, Type (0, 0), BuildingBlock: XIVTED_clean_linker_0, # of connection points: 2
#     Edge 120, Type (0, 0), BuildingBlock: XIVTED_clean_linker_0, # of connection points: 2
#     Edge 121, Type (0, 0), BuildingBlock: XIVTED_clean_linker_0, # of connection points: 2
#     Edge 122, Type (0, 0), BuildingBlock: XIVTED_clean_linker_0, # of connection points: 2
#     Edge 123, Type (0, 0), BuildingBlock: XIVTED_clean_linker_0, # of connection points: 2
#     Edge 124, Type (0, 0), BuildingBlock: XIVTED_clean_linker_0, # of connection points: 2
#     Edge 125, Type (0, 0), BuildingBlock: XIVTED_clean_linker_0, # of connection points: 2
#     Edge 126, Type (0, 0), BuildingBlock: XIVTED_clean_linker_0, # of connection points: 2
#     Edge 127, Type (0, 0), BuildingBlock: XIVTED_clean_linker_0, # of connection points: 2
# Relax obj value: 0.320
# Max RMSD: 0.222
# Mean RMSD: 0.222
data_MOF--net-wir--node1-MIDCAF_clean_sbu_0--edge1-XIVTED_clean_linker_0
_symmetry_space_group_name_H-M    P1
_symmetry_Int_Tables_number       1
_symmetry_cell_setting            triclinic
loop_
_symmetry_equiv_pos_as_xyz
'x, y, z'
_cell_length_a     38.144666
_cell_length_b     38.146701
_cell_length_c     81.344787
_cell_angle_alpha  89.774447
_cell_angle_beta   90.02834
_cell_angle_gamma 89.829385
loop_
_atom_site_label
_atom_site_type_symbol
_atom_site_fract_x
_atom_site_fract_y
_atom_site_fract_z
_atom_type_partial_charge
Zn0 Zn 0.25805 0.09172 0.32486 0.0
Zn1 Zn 0.22021 0.19383 0.33288 0.0
Zn2 Zn 0.20536 0.13548 0.32568 0.0
C3 C 0.17929 0.17124 0.35729 0.0
C4 C 0.15232 0.19721 0.32073 0.0
O5 O 0.20019 0.09717 0.30524 0.0
O6 O 0.25663 0.09251 0.30006 0.0
C7 C 0.27188 0.12419 0.35059 0.0
O8 O 0.16896 0.15465 0.34446 0.0
O9 O 0.20933 0.18552 0.35708 0.0
O10 O 0.17896 0.2169 0.32021 0.0
O11 O 0.15643 0.16568 0.32599 0.0
O12 O 0.29219 0.11902 0.33853 0.0
O13 O 0.239 0.12789 0.34776 0.0
O14 O 0.18479 0.08544 0.32134 0.0
O15 O 0.22169 0.06213 0.33852 0.0
C16 C 0.19045 0.06456 0.33333 0.0
O17 O 0.23152 0.16499 0.30637 0.0
O18 O 0.26674 0.19686 0.32133 0.0
C19 C 0.22523 0.08862 0.2954 0.0
C20 C 0.25691 0.18667 0.30725 0.0
Zn21 Zn 0.05035 0.93242 0.5572 0.0
Zn22 Zn 0.16468 0.92164 0.54699 0.0
Zn23 Zn 0.108 0.91181 0.55519 0.0
C24 C 0.16284 0.89304 0.57945 0.0
C25 C 0.14421 0.97709 0.56607 0.0
O26 O 0.09976 0.94384 0.53342 0.0
O27 O 0.04728 0.96496 0.53815 0.0
C28 C 0.05485 0.85605 0.55306 0.0
O29 O 0.13522 0.9126 0.57892 0.0
O30 O 0.18039 0.88935 0.56633 0.0
O31 O 0.15756 0.97385 0.55188 0.0
O32 O 0.12874 0.95039 0.57248 0.0
O33 O 0.03437 0.88224 0.55384 0.0
O34 O 0.08792 0.8607 0.5534 0.0
O35 O 0.09799 0.92455 0.58152 0.0
O36 O 0.04533 0.94869 0.58019 0.0
C37 C 0.07083 0.93773 0.58869 0.0
O38 O 0.12812 0.86304 0.54549 0.0
O39 O 0.15117 0.89585 0.52621 0.0
C40 C 0.07339 0.96194 0.52872 0.0
C41 C 0.1426 0.86565 0.53133 0.0
Zn42 Zn 0.32618 0.93925 0.82388 0.0
Zn43 Zn 0.34503 0.84613 0.78914 0.0
Zn44 Zn 0.33008 0.88575 0.80837 0.0
C45 C 0.34464 0.81393 0.82115 0.0
C46 C 0.40645 0.85754 0.80091 0.0
O47 O 0.34116 0.92574 0.79036 0.0
O48 O 0.33568 0.97298 0.80551 0.0
C49 C 0.25998 0.90213 0.82458 0.0
O50 O 0.35579 0.84561 0.82303 0.0
O51 O 0.33367 0.80552 0.80693 0.0
O52 O 0.39512 0.86089 0.78641 0.0
O53 O 0.38461 0.86278 0.81281 0.0
O54 O 0.27638 0.92888 0.82947 0.0
O55 O 0.27521 0.87955 0.81536 0.0
O56 O 0.3679 0.87888 0.82918 0.0
O57 O 0.36117 0.93025 0.84146 0.0
C58 C 0.37558 0.90045 0.84089 0.0
O59 O 0.28538 0.85448 0.79842 0.0
O60 O 0.30812 0.86989 0.77511 0.0
C61 C 0.34067 0.95914 0.79161 0.0
C62 C 0.28334 0.8552 0.78264 0.0
Zn63 Zn 0.32316 0.09648 0.07097 0.0
Zn64 Zn 0.41621 0.11304 0.03828 0.0
Zn65 Zn 0.37884 0.09734 0.05817 0.0
C66 C 0.4536 0.11711 0.06754 0.0
C67 C 0.40236 0.1751 0.05059 0.0
O68 O 0.34284 0.10997 0.03868 0.0
O69 O 0.29443 0.11724 0.05283 0.0
C70 C 0.35123 0.02762 0.07257 0.0
O71 O 0.42139 0.12438 0.07109 0.0
O72 O 0.46019 0.10591 0.05322 0.0
O73 O 0.40069 0.16398 0.03594 0.0
O74 O 0.39863 0.1526 0.06245 0.0
O75 O 0.3228 0.04455 0.07365 0.0
O76 O 0.37903 0.04308 0.06747 0.0
O77 O 0.38693 0.13302 0.07892 0.0
O78 O 0.33578 0.12352 0.09103 0.0
C79 C 0.3658 0.13735 0.09113 0.0
O80 O 0.40815 0.05134 0.04985 0.0
O81 O 0.40049 0.07182 0.02494 0.0
C82 C 0.31018 0.11734 0.03917 0.0
C83 C 0.41007 0.04685 0.03423 0.0
Zn84 Zn 0.21256 0.81316 0.17051 0.0
Zn85 Zn 0.17536 0.92233 0.16869 0.0
Zn86 Zn 0.18172 0.86575 0.1776 0.0
C87 C 0.10732 0.89651 0.17201 0.0
C88 C 0.22371 0.89377 0.14766 0.0
O89 O 0.19291 0.85344 0.20282 0.0
O90 O 0.20289 0.79903 0.19509 0.0
C91 C 0.14096 0.79555 0.18142 0.0
O92 O 0.12545 0.86791 0.17177 0.0
O93 O 0.12315 0.92552 0.17138 0.0
O94 O 0.19895 0.91581 0.14673 0.0
O95 O 0.22522 0.87314 0.16009 0.0
O96 O 0.1718 0.78226 0.18144 0.0
O97 O 0.13745 0.82831 0.17777 0.0
O98 O 0.14367 0.84495 0.15979 0.0
O99 O 0.18729 0.81703 0.1478 0.0
C100 C 0.15614 0.8288 0.14713 0.0
O101 O 0.1878 0.89428 0.20049 0.0
O102 O 0.20288 0.94237 0.18731 0.0
C103 C 0.19792 0.82126 0.20652 0.0
C104 C 0.19973 0.92566 0.20068 0.0
Zn105 Zn 0.42063 0.86866 0.47268 0.0
Zn106 Zn 0.33495 0.90211 0.43897 0.0
Zn107 Zn 0.38904 0.90319 0.45277 0.0
C108 C 0.38938 0.88996 0.41574 0.0
C109 C 0.34114 0.96796 0.44081 0.0
O110 O 0.41894 0.9318 0.47088 0.0
O111 O 0.40307 0.89843 0.49146 0.0
C112 C 0.40854 0.82245 0.44944 0.0
O113 O 0.40692 0.88325 0.42898 0.0
O114 O 0.35804 0.90051 0.41685 0.0
O115 O 0.31481 0.94935 0.44431 0.0
O116 O 0.37165 0.9539 0.44182 0.0
O117 O 0.4004 0.82263 0.46455 0.0
O118 O 0.40863 0.85224 0.44174 0.0
O119 O 0.43661 0.88405 0.44057 0.0
O120 O 0.46957 0.88163 0.46278 0.0
C121 C 0.46726 0.8836 0.44727 0.0
O122 O 0.35146 0.87404 0.46781 0.0
O123 O 0.31402 0.85917 0.44868 0.0
C124 C 0.41818 0.92595 0.48639 0.0
C125 C 0.325 0.85599 0.46325 0.0
Zn126 Zn 0.30417 0.10056 0.65929 0.0
Zn127 Zn 0.31044 0.22486 0.67098 0.0
Zn128 Zn 0.30921 0.16347 0.66531 0.0
C129 C 0.26661 0.22591 0.64629 0.0
C130 C 0.37756 0.21178 0.66337 0.0
O131 O 0.29397 0.13549 0.68864 0.0
O132 O 0.30014 0.08035 0.68103 0.0
C133 C 0.25319 0.13025 0.64053 0.0
O134 O 0.27902 0.19434 0.64644 0.0
O135 O 0.27056 0.2448 0.65881 0.0
O136 O 0.35745 0.23804 0.66346 0.0
O137 O 0.36446 0.18069 0.66404 0.0
O138 O 0.2612 0.1007 0.64637 0.0
O139 O 0.2704 0.15771 0.64485 0.0
O140 O 0.36199 0.14633 0.65716 0.0
O141 O 0.3492 0.09365 0.6479 0.0
C142 C 0.37112 0.11804 0.64969 0.0
O143 O 0.28952 0.1721 0.69094 0.0
O144 O 0.30648 0.22667 0.69469 0.0
C145 C 0.29432 0.10245 0.69216 0.0
C146 C 0.2928 0.19917 0.70029 0.0
Zn147 Zn 0.15962 0.09237 0.90799 0.0
Zn148 Zn 0.04634 0.07644 0.91254 0.0
Zn149 Zn 0.10201 0.09437 0.91593 0.0
C150 C 0.06676 0.11709 0.88561 0.0
C151 C 0.03923 0.14524 0.92264 0.0
O152 O 0.1295 0.09025 0.93912 0.0
O153 O 0.17756 0.06856 0.92829 0.0
C154 C 0.12945 0.04596 0.88735 0.0
O155 O 0.08178 0.13204 0.89797 0.0
O156 O 0.05463 0.0864 0.88778 0.0
O157 O 0.02331 0.11681 0.92547 0.0
O158 O 0.06935 0.14377 0.91535 0.0
O159 O 0.15565 0.06608 0.88682 0.0
O160 O 0.10679 0.04991 0.89877 0.0
O161 O 0.10873 0.15024 0.90998 0.0
O162 O 0.1661 0.14419 0.90852 0.0
C163 C 0.13956 0.164 0.90933 0.0
O164 O 0.08611 0.07454 0.93939 0.0
O165 O 0.05718 0.03357 0.92636 0.0
C166 C 0.16024 0.07723 0.9409 0.0
C167 C 0.0693 0.04556 0.93973 0.0
Zn168 Zn 0.8594 0.83188 0.71496 0.0
Zn169 Zn 0.84208 0.93148 0.68602 0.0
Zn170 Zn 0.84688 0.87529 0.69744 0.0
C171 C 0.90483 0.90415 0.67354 0.0
C172 C 0.78352 0.89377 0.67465 0.0
O173 O 0.80058 0.84243 0.70311 0.0
O174 O 0.8183 0.84754 0.7285 0.0
C175 C 0.92319 0.84178 0.70676 0.0
O176 O 0.89262 0.87594 0.68032 0.0
O177 O 0.88836 0.93274 0.675 0.0
O178 O 0.79977 0.92225 0.67267 0.0
O179 O 0.79557 0.87047 0.68466 0.0
O180 O 0.91021 0.83877 0.72102 0.0
O181 O 0.90307 0.85315 0.69507 0.0
O182 O 0.87651 0.83987 0.68199 0.0
O183 O 0.85144 0.79672 0.69539 0.0
C184 C 0.86492 0.80805 0.68214 0.0
O185 O 0.85184 0.90855 0.71909 0.0
O186 O 0.83672 0.95759 0.70682 0.0
C187 C 0.79473 0.838 0.71856 0.0
C188 C 0.84415 0.94116 0.71988 0.0
Zn189 Zn 0.95662 0.05996 0.44504 0.0
Zn190 Zn 0.86956 0.08608 0.40419 0.0
Zn191 Zn 0.92158 0.06761 0.42013 0.0
C192 C 0.92467 0.13538 0.39818 0.0
C193 C 0.89361 0.01795 0.39318 0.0
O194 O 0.93989 0.01389 0.42222 0.0
O195 O 0.92092 0.02035 0.44709 0.0
C196 C 0.95749 0.12913 0.43982 0.0
O197 O 0.94223 0.11399 0.40737 0.0
O198 O 0.89245 0.13007 0.39549 0.0
O199 O 0.87158 0.04221 0.39054 0.0
O200 O 0.9164 0.02104 0.40467 0.0
O201 O 0.95038 0.11073 0.45239 0.0
O202 O 0.95376 0.1154 0.42544 0.0
O203 O 0.97159 0.08974 0.41307 0.0
O204 O 0.99903 0.05223 0.4292 0.0
C205 C 0.99892 0.07079 0.41621 0.0
O206 O 0.88487 0.07712 0.439 0.0
O207 O 0.83782 0.08839 0.42435 0.0
C208 C 0.93441 1.00038 0.43642 0.0
C209 C 0.85226 0.084 0.43824 0.0
Zn210 Zn 0.73849 0.18828 0.17844 0.0
Zn211 Zn 0.68093 0.08677 0.16908 0.0
Zn212 Zn 0.70145 0.14312 0.17581 0.0
C213 C 0.64272 0.13401 0.1493 0.0
C214 C 0.75298 0.08764 0.16239 0.0
O215 O 0.70968 0.15636 0.20177 0.0
O216 O 0.7654 0.1653 0.19675 0.0
C217 C 0.66935 0.21501 0.17797 0.0
O218 O 0.65919 0.15652 0.15822 0.0
O219 O 0.64943 0.10168 0.1507 0.0
O220 O 0.72808 0.06613 0.16409 0.0
O221 O 0.74802 0.11995 0.16562 0.0
O222 O 0.69744 0.22066 0.18584 0.0
O223 O 0.66813 0.18778 0.16856 0.0
O224 O 0.69439 0.17856 0.1546 0.0
O225 O 0.7508 0.19009 0.15413 0.0
C226 C 0.72136 0.19051 0.14688 0.0
O227 O 0.68064 0.12717 0.19971 0.0
O228 O 0.65838 0.07773 0.1906 0.0
C229 C 0.74076 0.16265 0.20713 0.0
C230 C 0.66266 0.09928 0.20218 0.0
Zn231 Zn 0.58592 0.85025 0.96037 0.0
Zn232 Zn 0.67375 0.89359 0.92842 0.0
Zn233 Zn 0.62391 0.87502 0.94281 0.0
C234 C 0.63562 0.85638 0.90539 0.0
C235 C 0.63742 0.95462 0.937 0.0
O236 O 0.59466 0.91438 0.95712 0.0
O237 O 0.59815 0.88159 0.97927 0.0
C238 C 0.60086 0.79667 0.94137 0.0
O239 O 0.6163 0.85172 0.91826 0.0
O240 O 0.66254 0.87543 0.90624 0.0
O241 O 0.66715 0.94456 0.93205 0.0
O242 O 0.61469 0.93197 0.94173 0.0
O243 O 0.60289 0.80006 0.95683 0.0
O244 O 0.60353 0.82454 0.93236 0.0
O245 O 0.58235 0.85644 0.92671 0.0
O246 O 0.54323 0.86667 0.94582 0.0
C247 C 0.5504 0.86389 0.93067 0.0
O248 O 0.66485 0.85175 0.95779 0.0
O249 O 0.70826 0.8667 0.94152 0.0
C250 C 0.59045 0.91081 0.97273 0.0
C251 C 0.69745 0.85083 0.95419 0.0
Zn252 Zn 0.74169 0.19533 0.83188 0.0
Zn253 Zn 0.80691 0.09822 0.85707 0.0
Zn254 Zn 0.77785 0.1456 0.84118 0.0
C255 C 0.85365 0.15458 0.85735 0.0
C256 C 0.73843 0.11324 0.8704 0.0
O257 O 0.76817 0.14336 0.81524 0.0
O258 O 0.71445 0.16256 0.81731 0.0
C259 C 0.80966 0.21797 0.8283 0.0
O260 O 0.82701 0.16886 0.85022 0.0
O261 O 0.85226 0.12297 0.86197 0.0
O262 O 0.76743 0.09846 0.87361 0.0
O263 O 0.735 0.13128 0.85724 0.0
O264 O 0.78162 0.22282 0.82029 0.0
O265 O 0.81079 0.19348 0.83934 0.0
O266 O 0.79196 0.19019 0.85607 0.0
O267 O 0.73623 0.20495 0.85666 0.0
C268 C 0.76662 0.20705 0.86299 0.0
O269 O 0.79066 0.11016 0.82156 0.0
O270 O 0.8069 0.06572 0.83722 0.0
C271 C 0.73943 0.15224 0.80824 0.0
C272 C 0.8008 0.07824 0.82304 0.0
Zn273 Zn 0.70449 0.07109 0.57708 0.0
Zn274 Zn 0.60665 0.07047 0.54449 0.0
Zn275 Zn 0.64829 0.06976 0.56473 0.0
C276 C 0.57599 0.08151 0.57602 0.0
C277 C 0.61008 0.138 0.54935 0.0
O278 O 0.68151 0.07615 0.54365 0.0
O279 O 0.73107 0.06387 0.55612 0.0
C280 C 0.67038 0.01222 0.59064 0.0
O281 O 0.60552 0.09805 0.57668 0.0
O282 O 0.56991 0.0632 0.56335 0.0
O283 O 0.61088 0.12099 0.536 0.0
O284 O 0.61914 0.12207 0.56274 0.0
O285 O 0.69718 0.03112 0.59263 0.0
O286 O 0.64755 0.0206 0.57965 0.0
O287 O 0.64121 0.11797 0.57839 0.0
O288 O 0.69782 0.12091 0.58423 0.0
C289 C 0.66778 0.13505 0.58398 0.0
O290 O 0.62397 0.01864 0.56264 0.0
O291 O 0.63262 0.02743 0.53648 0.0
C292 C 0.71444 0.07048 0.543 0.0
C293 C 0.62292 0.00692 0.54788 0.0
Zn294 Zn 0.66965 0.9439 0.3326 0.0
Zn295 Zn 0.63672 0.86629 0.29607 0.0
Zn296 Zn 0.65715 0.89316 0.318 0.0
C297 C 0.64052 0.81632 0.32086 0.0
C298 C 0.57822 0.87063 0.31313 0.0
O299 O 0.63863 0.93537 0.30227 0.0
O300 O 0.65007 0.98062 0.31791 0.0
C301 C 0.73398 0.90895 0.32888 0.0
O302 O 0.63427 0.84574 0.32816 0.0
O303 O 0.64743 0.81703 0.30564 0.0
O304 O 0.58546 0.88051 0.29859 0.0
O305 O 0.60346 0.87024 0.32383 0.0
O306 O 0.72128 0.93795 0.33341 0.0
O307 O 0.71392 0.88572 0.32246 0.0
O308 O 0.62831 0.87859 0.3404 0.0
O309 O 0.64367 0.92806 0.3524 0.0
C310 C 0.6284 0.89872 0.35312 0.0
O311 O 0.69979 0.86751 0.30442 0.0
O312 O 0.67462 0.88722 0.28198 0.0
C313 C 0.63859 0.96851 0.30453 0.0
C314 C 0.70062 0.87221 0.28876 0.0
Zn315 Zn 0.8625 0.9187 0.05442 0.0
Zn316 Zn 0.97793 0.89035 0.06604 0.0
Zn317 Zn 0.9164 0.89619 0.06147 0.0
C318 C 0.94659 0.89917 0.09693 0.0
C319 C 0.95103 0.82466 0.05516 0.0
O320 O 0.89322 0.86042 0.04346 0.0
O321 O 0.87269 0.90643 0.03038 0.0
C322 C 0.87888 0.95772 0.0792 0.0
O323 O 0.91951 0.90366 0.08785 0.0
O324 O 0.97619 0.89336 0.09054 0.0
O325 O 0.97923 0.84171 0.05674 0.0
O326 O 0.92124 0.84003 0.05709 0.0
O327 O 0.86865 0.96635 0.06495 0.0
O328 O 0.89332 0.92754 0.08129 0.0
O329 O 0.88366 0.84904 0.06056 0.0
O330 O 0.83784 0.87963 0.06861 0.0
C331 C 0.85308 0.85013 0.06742 0.0
O332 O 0.93879 0.93049 0.04338 0.0
O333 O 0.99329 0.93081 0.05209 0.0
C334 C 0.88052 0.87411 0.03028 0.0
C335 C 0.97014 0.94187 0.04221 0.0
Zn336 Zn 0.63717 0.6553 0.78211 0.0
Zn337 Zn 0.63901 0.57201 0.82641 0.0
Zn338 Zn 0.64223 0.61412 0.80418 0.0
C339 C 0.58398 0.61552 0.83293 0.0
C340 C 0.70662 0.60241 0.82758 0.0
O341 O 0.692 0.63652 0.79563 0.0
O342 O 0.67285 0.62333 0.77133 0.0
C343 C 0.57258 0.65754 0.79134 0.0
O344 O 0.59784 0.63061 0.82023 0.0
O345 O 0.59759 0.58822 0.83896 0.0
O346 O 0.68639 0.58166 0.83507 0.0
O347 O 0.69615 0.6182 0.81444 0.0
O348 O 0.58529 0.65484 0.77702 0.0
O349 O 0.59103 0.64593 0.8036 0.0
O350 O 0.61981 0.66017 0.81494 0.0
O351 O 0.6518 0.69443 0.79924 0.0
C352 C 0.63587 0.6896 0.81276 0.0
O353 O 0.62754 0.56837 0.79052 0.0
O354 O 0.63111 0.53168 0.81136 0.0
C355 C 0.69735 0.63545 0.78006 0.0
C356 C 0.62529 0.53723 0.79626 0.0
Zn357 Zn 0.56571 0.45693 0.08175 0.0
Zn358 Zn 0.68207 0.44888 0.05301 0.0
Zn359 Zn 0.61437 0.43376 0.05844 0.0
C360 C 0.67762 0.38339 0.06877 0.0
C361 C 0.65787 0.50164 0.07352 0.0
O362 O 0.60201 0.48823 0.05212 0.0
O363 O 0.55131 0.49336 0.06481 0.0
C364 C 0.54239 0.39628 0.06495 0.0
O365 O 0.64626 0.39498 0.07021 0.0
O366 O 0.70009 0.4008 0.06074 0.0
O367 O 0.68585 0.48814 0.0682 0.0
O368 O 0.62806 0.48765 0.06972 0.0
O369 O 0.54117 0.4108 0.07891 0.0
O370 O 0.56447 0.40704 0.05418 0.0
O371 O 0.62029 0.4099 0.08243 0.0
O372 O 0.60734 0.45578 0.09725 0.0
C373 C 0.61734 0.42415 0.09661 0.0
O374 O 0.64106 0.41105 0.03694 0.0
O375 O 0.66822 0.45843 0.02941 0.0
C376 C 0.57121 0.50206 0.05306 0.0
C377 C 0.65819 0.42789 0.02598 0.0
Zn378 Zn 0.81906 0.4149 0.30843 0.0
Zn379 Zn 0.84425 0.30921 0.32611 0.0
Zn380 Zn 0.85975 0.36724 0.31558 0.0
C381 C 0.88863 0.33783 0.34794 0.0
C382 C 0.91082 0.30161 0.31303 0.0
O383 O 0.88031 0.40873 0.29946 0.0
O384 O 0.83316 0.41606 0.28456 0.0
C385 C 0.77985 0.378 0.3293 0.0
O386 O 0.89829 0.35049 0.334 0.0
O387 O 0.85787 0.32537 0.3492 0.0
O388 O 0.88405 0.28229 0.31441 0.0
O389 O 0.90742 0.33453 0.31603 0.0
O390 O 0.77286 0.39444 0.31616 0.0
O391 O 0.81206 0.36947 0.33213 0.0
O392 O 0.84436 0.39119 0.3378 0.0
O393 O 0.85061 0.44183 0.32589 0.0
C394 C 0.85338 0.42316 0.33876 0.0
O395 O 0.82778 0.33675 0.29894 0.0
O396 O 0.79649 0.3043 0.31572 0.0
C397 C 0.8657 0.42058 0.28642 0.0
C398 C 0.80266 0.31512 0.30127 0.0
Zn399 Zn 0.92583 0.55068 0.56274 0.0
Zn400 Zn 0.81303 0.59662 0.57191 0.0
Zn401 Zn 0.87257 0.57889 0.56499 0.0
C402 C 0.85671 0.64249 0.58917 0.0
C403 C 0.8256 0.52509 0.58191 0.0
O404 O 0.88819 0.57185 0.53943 0.0
O405 O 0.91156 0.51985 0.54361 0.0
C406 C 0.93895 0.6227 0.56171 0.0
O407 O 0.88003 0.62405 0.58159 0.0
O408 O 0.82454 0.63553 0.58759 0.0
O409 O 0.80172 0.54807 0.58053 0.0
O410 O 0.85645 0.53157 0.57672 0.0
O411 O 0.95126 0.59558 0.55488 0.0
O412 O 0.91089 0.61963 0.57051 0.0
O413 O 0.9061 0.59481 0.58527 0.0
O414 O 0.92948 0.54229 0.58779 0.0
C415 C 0.92415 0.57262 0.59374 0.0
O416 O 0.85442 0.59413 0.54082 0.0
O417 O 0.80185 0.61078 0.54894 0.0
C418 C 0.90251 0.54397 0.53363 0.0
C419 C 0.82434 0.60748 0.53763 0.0
Zn420 Zn 0.69334 0.38522 0.6988 0.0
Zn421 Zn 0.6921 0.27049 0.68008 0.0
Zn422 Zn 0.67965 0.32876 0.68836 0.0
C423 C 0.68716 0.3073 0.65098 0.0
C424 C 0.62104 0.27683 0.69221 0.0
O425 O 0.64019 0.34214 0.70595 0.0
O426 O 0.68408 0.3613 0.72074 0.0
C427 C 0.73113 0.37838 0.67089 0.0
O428 O 0.67857 0.3315 0.66124 0.0
O429 O 0.69843 0.27807 0.6561 0.0
O430 O 0.64331 0.25522 0.68664 0.0
O431 O 0.62993 0.30861 0.69476 0.0
O432 O 0.73951 0.38701 0.68541 0.0
O433 O 0.70272 0.36091 0.66876 0.0
O434 O 0.66305 0.36442 0.66883 0.0
O435 O 0.64773 0.40332 0.68731 0.0
C436 C 0.64246 0.38957 0.67337 0.0
O437 O 0.7239 0.31388 0.7034 0.0
O438 O 0.73195 0.25988 0.69497 0.0
C439 C 0.6521 0.35244 0.71982 0.0
C440 C 0.73929 0.28421 0.70487 0.0
Zn441 Zn 0.95824 0.44773 0.91951 0.0
Zn442 Zn 0.84596 0.48053 0.94027 0.0
Zn443 Zn 0.90056 0.45313 0.93041 0.0
C444 C 0.83514 0.4327 0.91414 0.0
C445 C 0.85949 0.51763 0.91333 0.0
O446 O 0.93136 0.48889 0.94548 0.0
O447 O 0.98364 0.47781 0.93536 0.0
C448 C 0.93124 0.38024 0.93129 0.0
O449 O 0.86443 0.44757 0.91029 0.0
O450 O 0.82046 0.44127 0.92751 0.0
O451 O 0.852 0.52726 0.92782 0.0
O452 O 0.87366 0.48714 0.91135 0.0
O453 O 0.95573 0.39547 0.92358 0.0
O454 O 0.90511 0.39799 0.93664 0.0
O455 O 0.89718 0.45864 0.90285 0.0
O456 O 0.95331 0.46316 0.89635 0.0
C457 C 0.92158 0.46277 0.89196 0.0
O458 O 0.87403 0.41843 0.9473 0.0
O459 O 0.86343 0.46416 0.96272 0.0
C460 C 0.9647 0.49304 0.94588 0.0
C461 C 0.86276 0.43109 0.9609 0.0
Zn462 Zn 0.85053 0.71616 0.17869 0.0
Zn463 Zn 0.80657 0.60892 0.19328 0.0
Zn464 Zn 0.83748 0.65772 0.18446 0.0
C465 C 0.85281 0.59141 0.16751 0.0
C466 C 0.7712 0.62509 0.16598 0.0
O467 O 0.79952 0.68521 0.2 0.0
O468 O 0.81442 0.73857 0.19258 0.0
C469 C 0.9121 0.68625 0.19188 0.0
O470 O 0.84209 0.62254 0.16365 0.0
O471 O 0.84265 0.57829 0.181 0.0
O472 O 0.76087 0.61829 0.18049 0.0
O473 O 0.80297 0.63626 0.16404 0.0
O474 O 0.89917 0.71504 0.18712 0.0
O475 O 0.89313 0.65849 0.19198 0.0
O476 O 0.83199 0.65914 0.15715 0.0
O477 O 0.84408 0.71562 0.15464 0.0
C478 C 0.83624 0.68674 0.14812 0.0
O479 O 0.86968 0.6285 0.20162 0.0
O480 O 0.8223 0.62079 0.21654 0.0
C481 C 0.79588 0.71846 0.20132 0.0
C482 C 0.85548 0.61915 0.21526 0.0
Zn483 Zn 0.68046 0.57209 0.40439 0.0
Zn484 Zn 0.60011 0.58555 0.44527 0.0
Zn485 Zn 0.62972 0.57175 0.42146 0.0
C486 C 0.55057 0.57961 0.42012 0.0
C487 C 0.59841 0.6465 0.42957 0.0
O488 O 0.66922 0.59438 0.43655 0.0
O489 O 0.7134 0.59765 0.41932 0.0
C490 C 0.65905 0.5017 0.40774 0.0
O491 O 0.57919 0.58981 0.41313 0.0
O492 O 0.55175 0.57108 0.4352 0.0
O493 O 0.60962 0.63806 0.44373 0.0
O494 O 0.5996 0.62299 0.41813 0.0
O495 O 0.68469 0.52036 0.40332 0.0
O496 O 0.63233 0.51601 0.41458 0.0
O497 O 0.60831 0.60297 0.40154 0.0
O498 O 0.65521 0.59638 0.38586 0.0
C499 C 0.6243 0.60779 0.38777 0.0
O500 O 0.60996 0.52466 0.43317 0.0
O501 O 0.63172 0.54821 0.45518 0.0
C502 C 0.70079 0.60303 0.43345 0.0
C503 C 0.617 0.52218 0.44852 0.0
Zn504 Zn 0.38929 0.33883 0.21414 0.0
Zn505 Zn 0.36737 0.4246 0.17253 0.0
Zn506 Zn 0.37167 0.376 0.19272 0.0
C507 C 0.42203 0.38361 0.16097 0.0
C508 C 0.30209 0.38599 0.17402 0.0
O509 O 0.32682 0.34837 0.20357 0.0
O510 O 0.35073 0.36204 0.22707 0.0
C511 C 0.45011 0.34976 0.20075 0.0
O512 O 0.4114 0.36509 0.17336 0.0
O513 O 0.40773 0.41274 0.15778 0.0
O514 O 0.31878 0.40958 0.16637 0.0
O515 O 0.3168 0.36895 0.18578 0.0
O516 O 0.44129 0.351 0.21574 0.0
O517 O 0.42615 0.35389 0.18968 0.0
O518 O 0.39778 0.33304 0.18085 0.0
O519 O 0.37692 0.29576 0.19896 0.0
C520 C 0.38758 0.30169 0.18444 0.0
O521 O 0.38454 0.41801 0.20813 0.0
O522 O 0.37429 0.46063 0.19047 0.0
C523 C 0.32446 0.35061 0.21928 0.0
C524 C 0.38254 0.45061 0.20483 0.0
Zn525 Zn 0.30248 0.60343 0.93623 0.0
Zn526 Zn 0.3962 0.53297 0.92319 0.0
Zn527 Zn 0.35804 0.57347 0.93362 0.0
C528 C 0.38613 0.57869 0.89735 0.0
C529 C 0.43213 0.60114 0.92707 0.0
O530 O 0.35068 0.57274 0.96022 0.0
O531 O 0.29986 0.60057 0.96066 0.0
C532 C 0.29606 0.53691 0.91838 0.0
O533 O 0.37698 0.59622 0.91022 0.0
O534 O 0.3918 0.54607 0.89885 0.0
O535 O 0.43969 0.56851 0.92773 0.0
O536 O 0.39948 0.60967 0.92564 0.0
O537 O 0.27992 0.56401 0.92333 0.0
O538 O 0.32877 0.53357 0.92132 0.0
O539 O 0.36176 0.6247 0.92007 0.0
O540 O 0.31024 0.64933 0.92465 0.0
C541 C 0.34013 0.65057 0.91803 0.0
O542 O 0.38765 0.56053 0.9566 0.0
O543 O 0.43117 0.53788 0.94241 0.0
C544 C 0.32412 0.58454 0.96817 0.0
C545 C 0.41882 0.54759 0.95624 0.0
Zn546 Zn 0.18838 0.67847 0.70144 0.0
Zn547 Zn 0.19813 0.59654 0.66011 0.0
Zn548 Zn 0.19579 0.64123 0.67886 0.0
C549 C 0.13451 0.62943 0.65416 0.0
C550 C 0.25918 0.62819 0.65408 0.0
O551 O 0.24342 0.66835 0.68747 0.0
O552 O 0.22611 0.64495 0.71014 0.0
C553 C 0.1235 0.6744 0.69305 0.0
O554 O 0.14954 0.65318 0.66301 0.0
O555 O 0.14959 0.60037 0.65191 0.0
O556 O 0.23672 0.61173 0.6458 0.0
O557 O 0.25032 0.64094 0.66814 0.0
O558 O 0.13815 0.66952 0.70681 0.0
O559 O 0.14175 0.66906 0.67989 0.0
O560 O 0.16938 0.68511 0.6672 0.0
O561 O 0.19718 0.72022 0.68406 0.0
C562 C 0.18314 0.71543 0.67006 0.0
O563 O 0.18409 0.59651 0.69396 0.0
O564 O 0.20825 0.55903 0.67695 0.0
C565 C 0.24845 0.66369 0.7029 0.0
C566 C 0.19529 0.56566 0.69089 0.0
Zn567 Zn 0.06784 0.43084 0.458 0.0
Zn568 Zn 0.15463 0.42987 0.41633 0.0
Zn569 Zn 0.10692 0.43491 0.43567 0.0
C570 C 0.10991 0.37505 0.40819 0.0
C571 C 0.12431 0.49765 0.41214 0.0
O572 O 0.08255 0.48516 0.44134 0.0
O573 O 0.09291 0.47334 0.46714 0.0
C574 C 0.07177 0.36504 0.44993 0.0
O575 O 0.09252 0.3896 0.42 0.0
O576 O 0.13868 0.38802 0.40354 0.0
O577 O 0.14816 0.47767 0.40679 0.0
O578 O 0.1041 0.48723 0.4238 0.0
O579 O 0.07503 0.3794 0.46388 0.0
O580 O 0.07856 0.38327 0.43688 0.0
O581 O 0.06073 0.41061 0.42484 0.0
O582 O 0.0265 0.43989 0.44165 0.0
C583 C 0.0309 0.42546 0.42779 0.0
O584 O 0.14864 0.42274 0.45289 0.0
O585 O 0.19026 0.42171 0.43426 0.0
C586 C 0.08215 0.49503 0.45641 0.0
C587 C 0.18097 0.41883 0.44915 0.0
Zn588 Zn 0.32051 0.70347 0.30094 0.0
Zn589 Zn 0.3063 0.60698 0.33103 0.0
Zn590 Zn 0.31021 0.66274 0.32043 0.0
C591 C 0.34955 0.64767 0.35207 0.0
C592 C 0.2401 0.63082 0.33507 0.0
O593 O 0.26108 0.68903 0.31483 0.0
O594 O 0.27821 0.68407 0.28931 0.0
C595 C 0.38529 0.69216 0.31139 0.0
O596 O 0.34786 0.66961 0.34003 0.0
O597 O 0.33181 0.61974 0.3517 0.0
O598 O 0.2546 0.6015 0.33267 0.0
O599 O 0.25734 0.65901 0.33201 0.0
O600 O 0.37173 0.69049 0.29717 0.0
O601 O 0.36525 0.6851 0.32387 0.0
O602 O 0.33612 0.70532 0.33285 0.0
O603 O 0.31443 0.74612 0.31668 0.0
C604 C 0.32847 0.73786 0.33029 0.0
O605 O 0.32651 0.63186 0.29984 0.0
O606 O 0.33305 0.58259 0.31346 0.0
C607 C 0.25383 0.69005 0.29947 0.0
C608 C 0.33689 0.6001 0.30038 0.0
Zn609 Zn 0.15292 0.57003 0.09805 0.0
Zn610 Zn 0.05024 0.51115 0.07185 0.0
Zn611 Zn 0.10291 0.54486 0.0817 0.0
C612 C 0.04739 0.4981 0.10363 0.0
C613 C 0.03748 0.58473 0.0688 0.0
O614 O 0.14562 0.53676 0.06399 0.0
O615 O 0.18488 0.56467 0.07888 0.0
C616 C 0.13835 0.51096 0.11533 0.0
O617 O 0.07695 0.51392 0.10157 0.0
O618 O 0.02922 0.49004 0.09129 0.0
O619 O 0.02547 0.55562 0.06399 0.0
O620 O 0.06617 0.586 0.07703 0.0
O621 O 0.15904 0.53656 0.11637 0.0
O622 O 0.11514 0.51026 0.10373 0.0
O623 O 0.09305 0.60183 0.08594 0.0
O624 O 0.13551 0.61767 0.10281 0.0
C625 C 0.10815 0.62518 0.09483 0.0
O626 O 0.10969 0.52581 0.05599 0.0
O627 O 0.07403 0.4808 0.05575 0.0
C628 C 0.17674 0.54906 0.06574 0.0
C629 C 0.0955 0.50013 0.04822 0.0
Zn630 Zn 0.12082 0.30007 0.81606 0.0
Zn631 Zn 0.10918 0.43242 0.80547 0.0
Zn632 Zn 0.11432 0.36419 0.80917 0.0
C633 C 0.04114 0.40791 0.80772 0.0
C634 C 0.14855 0.42477 0.83327 0.0
O635 O 0.14078 0.33836 0.78791 0.0
O636 O 0.13489 0.28249 0.79471 0.0
C637 C 0.05025 0.31187 0.81738 0.0
O638 O 0.05807 0.37887 0.80974 0.0
O639 O 0.05755 0.43594 0.80483 0.0
O640 O 0.13413 0.4493 0.82529 0.0
O641 O 0.14393 0.39266 0.82884 0.0
O642 O 0.07216 0.28919 0.82213 0.0
O643 O 0.06084 0.34164 0.81169 0.0
O644 O 0.14255 0.35685 0.83267 0.0
O645 O 0.15615 0.30064 0.83372 0.0
C646 C 0.15759 0.33081 0.83993 0.0
O647 O 0.13833 0.37488 0.785 0.0
O648 O 0.13449 0.43287 0.78448 0.0
C649 C 0.14423 0.30552 0.78451 0.0
C650 C 0.14391 0.40452 0.77787 0.0
Zn651 Zn 0.37507 0.46184 0.55549 0.0
Zn652 Zn 0.48082 0.43648 0.56524 0.0
Zn653 Zn 0.42026 0.4215 0.56214 0.0
C654 C 0.45643 0.42467 0.59725 0.0
C655 C 0.48159 0.36862 0.55526 0.0
O656 O 0.37944 0.40122 0.54527 0.0
O657 O 0.3759 0.45073 0.53145 0.0
C658 C 0.40234 0.49349 0.58092 0.0
O659 O 0.42632 0.42461 0.58981 0.0
O660 O 0.48416 0.42983 0.58918 0.0
O661 O 0.50019 0.39538 0.55252 0.0
O662 O 0.45068 0.37285 0.56104 0.0
O663 O 0.39556 0.50426 0.56651 0.0
O664 O 0.40822 0.46035 0.58302 0.0
O665 O 0.3884 0.42156 0.58392 0.0
O666 O 0.34108 0.4307 0.56923 0.0
C667 C 0.35536 0.41674 0.58171 0.0
O668 O 0.44057 0.4575 0.5435 0.0
O669 O 0.48458 0.48391 0.55521 0.0
C670 C 0.3697 0.41819 0.53237 0.0
C671 C 0.46498 0.48027 0.54283 0.0
H672 H 0.19113 0.18325 0.38964 0.0
H673 H 0.11614 0.31908 0.42794 0.0
H674 H 0.1111 0.19054 0.35241 0.0
H675 H 0.0911 0.34849 0.37814 0.0
H676 H 0.11708 0.25757 0.41987 0.0
H677 H 0.15977 0.22649 0.40586 0.0
C678 C 0.16605 0.19288 0.38524 0.0
C679 C 0.15405 0.184 0.36955 0.0
C680 C 0.11078 0.27731 0.41073 0.0
C681 C 0.11829 0.23429 0.38777 0.0
C682 C 0.10963 0.31234 0.41538 0.0
C683 C 0.1027 0.33859 0.40373 0.0
C684 C 0.10674 0.26868 0.3941 0.0
C685 C 0.09607 0.3288 0.38748 0.0
C686 C 0.14803 0.21769 0.3945 0.0
C687 C 0.1215 0.19722 0.36435 0.0
N688 N 0.09869 0.2945 0.38307 0.0
N689 N 0.10538 0.22287 0.37314 0.0
H690 H 0.07601 0.87768 0.60611 0.0
H691 H 0.9516 0.95684 0.67515 0.0
H692 H 0.04989 0.98716 0.61063 0.0
H693 H 0.9367 0.85461 0.65386 0.0
H694 H 0.00532 0.96363 0.65921 0.0
H695 H 0.04376 0.86563 0.63161 0.0
C696 C 0.06506 0.89942 0.61297 0.0
C697 C 0.06548 0.93347 0.60639 0.0
C698 C 0.99072 0.93939 0.65832 0.0
C699 C 0.02841 0.91986 0.63515 0.0
C700 C 0.96 0.93552 0.6673 0.0
C701 C 0.93959 0.90518 0.66568 0.0
C702 C 1.00114 0.91278 0.64757 0.0
C703 C 0.9519 0.8782 0.65556 0.0
C704 C 0.04626 0.89243 0.62733 0.0
C705 C 0.05013 0.96062 0.6154 0.0
N706 N 0.98179 0.88281 0.64667 0.0
N707 N 0.03181 0.95317 0.62927 0.0
H708 H 0.37033 0.82559 0.85191 0.0
H709 H 0.32316 0.63555 0.88691 0.0
H710 H 0.3255 0.74403 0.82207 0.0
H711 H 0.36662 0.71781 0.91666 0.0
H712 H 0.32738 0.67349 0.86267 0.0
H713 H 0.37284 0.78549 0.87509 0.0
C714 C 0.36123 0.79914 0.85014 0.0
C715 C 0.34771 0.78835 0.83491 0.0
C716 C 0.33613 0.68334 0.87444 0.0
C717 C 0.3501 0.7419 0.86176 0.0
C718 C 0.33372 0.66173 0.88825 0.0
C719 C 0.34458 0.67376 0.90369 0.0
C720 C 0.34919 0.71749 0.8761 0.0
C721 C 0.35802 0.70772 0.90492 0.0
C722 C 0.3626 0.77618 0.86349 0.0
C723 C 0.33614 0.75359 0.83354 0.0
N724 N 0.35986 0.72851 0.89127 0.0
N725 N 0.33745 0.73166 0.84682 0.0
H726 H 0.65239 0.12803 0.11668 0.0
H727 H 0.44783 0.14284 0.09877 0.0
H728 H 0.57721 0.16173 0.15282 0.0
H729 H 0.52451 0.11294 0.06241 0.0
H730 H 0.49515 0.15715 0.11773 0.0
H731 H 0.60693 0.13119 0.09553 0.0
C732 C 0.62638 0.13706 0.12 0.0
C733 C 0.61832 0.14489 0.13636 0.0
C734 C 0.50166 0.14773 0.10557 0.0
C735 C 0.5659 0.14727 0.1125 0.0
C736 C 0.47461 0.13944 0.09473 0.0
C737 C 0.48217 0.12644 0.079 0.0
C738 C 0.53661 0.14269 0.10071 0.0
C739 C 0.51743 0.12262 0.07445 0.0
C740 C 0.60039 0.13862 0.10799 0.0
C741 C 0.58434 0.15598 0.14023 0.0
N742 N 0.54332 0.13047 0.0853 0.0
N743 N 0.55911 0.15634 0.1284 0.0
H744 H 0.09049 0.80221 0.1512 0.0
H745 H 0.12581 0.67983 0.07528 0.0
H746 H 0.17052 0.81884 0.11471 0.0
H747 H 0.0637 0.65221 0.11752 0.0
H748 H 0.12317 0.7415 0.08353 0.0
H749 H 0.06228 0.75999 0.13312 0.0
C750 C 0.1011 0.79842 0.13903 0.0
C751 C 0.13288 0.81401 0.13445 0.0
C752 C 0.10902 0.72217 0.09069 0.0
C753 C 0.1016 0.7646 0.11392 0.0
C754 C 0.11026 0.68708 0.08589 0.0
C755 C 0.09498 0.66123 0.09579 0.0
C756 C 0.09293 0.73112 0.10565 0.0
C757 C 0.07569 0.67161 0.10958 0.0
C758 C 0.08527 0.77381 0.12878 0.0
C759 C 0.14615 0.80711 0.11873 0.0
N760 N 0.0758 0.70575 0.11431 0.0
N761 N 0.13084 0.78239 0.10914 0.0
H762 H 0.58321 0.84415 0.35996 0.0
H763 H 0.52595 0.92449 0.44629 0.0
H764 H 0.63321 0.93316 0.38227 0.0
H765 H 0.47897 0.83348 0.42458 0.0
H766 H 0.57162 0.92299 0.42497 0.0
H767 H 0.55007 0.83463 0.38523 0.0
C768 C 0.58742 0.86145 0.37013 0.0
C769 C 0.61044 0.88975 0.36873 0.0
C770 C 0.55148 0.90305 0.42498 0.0
C771 C 0.57276 0.87939 0.39785 0.0
C772 C 0.52565 0.90386 0.43718 0.0
C773 C 0.49831 0.87954 0.4368 0.0
C774 C 0.54967 0.8777 0.41245 0.0
C775 C 0.4989 0.85329 0.42486 0.0
C776 C 0.56856 0.85609 0.38463 0.0
C777 C 0.6152 0.91129 0.38257 0.0
N778 N 0.52388 0.85322 0.41303 0.0
N779 N 0.59627 0.9059 0.39645 0.0
H780 H 0.3839 0.36196 0.59853 0.0
H781 H 0.22349 0.28186 0.64002 0.0
H782 H 0.2842 0.40788 0.58529 0.0
H783 H 0.30192 0.21577 0.61777 0.0
H784 H 0.24099 0.32981 0.62163 0.0
H785 H 0.35321 0.31089 0.6095 0.0
C786 C 0.35551 0.36166 0.59823 0.0
C787 C 0.33655 0.38936 0.59108 0.0
C788 C 0.25341 0.30438 0.62038 0.0
C789 C 0.30138 0.33069 0.60341 0.0
C790 C 0.24308 0.27683 0.63067 0.0
C791 C 0.26174 0.24497 0.63063 0.0
C792 C 0.2829 0.29999 0.61033 0.0
C793 C 0.28704 0.23996 0.61835 0.0
C794 C 0.33808 0.33221 0.6042 0.0
C795 C 0.29975 0.38714 0.59079 0.0
N796 N 0.29794 0.26766 0.60914 0.0
N797 N 0.28323 0.35838 0.59703 0.0
H798 H 0.06773 0.18879 0.88046 0.0
H799 H 0.89166 0.1667 0.83009 0.0
H800 H 0.03539 0.09279 0.85761 0.0
H801 H 0.89407 0.17853 0.8827 0.0
H802 H 0.95548 0.17508 0.82927 0.0
H803 H 0.01592 0.21842 0.86857 0.0
C804 C 0.05024 0.17426 0.87259 0.0
C805 C 0.053 0.1377 0.87155 0.0
C806 C 0.9417 0.17771 0.84085 0.0
C807 C 0.99719 0.17159 0.85646 0.0
C808 C 0.90548 0.17279 0.84136 0.0
C809 C 0.88804 0.17156 0.85653 0.0
C810 C 0.96017 0.18187 0.85558 0.0
C811 C 0.90684 0.17912 0.87082 0.0
C812 C 0.02122 0.19126 0.86561 0.0
C813 C 0.03258 0.12069 0.85968 0.0
N814 N 0.94216 0.18345 0.87004 0.0
N815 N 0.00469 0.13756 0.85295 0.0
H816 H 0.87704 0.82618 0.65019 0.0
H817 H 0.88228 0.62753 0.61926 0.0
H818 H 0.86618 0.73647 0.68223 0.0
H819 H 0.85284 0.71377 0.5878 0.0
H820 H 0.89162 0.66874 0.64187 0.0
H821 H 0.88256 0.78649 0.62666 0.0
C822 C 0.8763 0.79813 0.65228 0.0
C823 C 0.87093 0.7845 0.66812 0.0
C824 C 0.88363 0.67875 0.62996 0.0
C825 C 0.87734 0.73923 0.64142 0.0
C826 C 0.87865 0.65534 0.61708 0.0
C827 C 0.86726 0.66761 0.60176 0.0
C828 C 0.87693 0.71458 0.62745 0.0
C829 C 0.86191 0.70361 0.5995 0.0
C830 C 0.87929 0.77558 0.63888 0.0
C831 C 0.86994 0.74803 0.67019 0.0
N832 N 0.86671 0.72598 0.61228 0.0
N833 N 0.87306 0.72663 0.65697 0.0
H834 H 0.06163 0.03646 0.41996 0.0
H835 H 0.12072 0.07421 0.32741 0.0
H836 H 0.00337 0.10117 0.38583 0.0
H837 H 0.19275 0.03666 0.36453 0.0
H838 H 0.07401 0.07451 0.34781 0.0
H839 H 0.10758 0.0293 0.39922 0.0
C840 C 0.05867 0.04947 0.40818 0.0
C841 C 0.02868 0.06956 0.40464 0.0
C842 C 0.09994 0.06579 0.35145 0.0
C843 C 0.08064 0.06073 0.38079 0.0
C844 C 0.12658 0.06521 0.33976 0.0
C845 C 0.16084 0.05568 0.34428 0.0
C846 C 0.10746 0.05653 0.36778 0.0
C847 C 0.16676 0.04426 0.36049 0.0
C848 C 0.08479 0.04518 0.39633 0.0
C849 C 0.02609 0.08558 0.38913 0.0
N850 N 0.14037 0.04533 0.37172 0.0
N851 N 0.05163 0.08064 0.37775 0.0
H852 H 0.63331 0.32995 0.07534 0.0
H853 H 0.77263 0.22171 0.1284 0.0
H854 H 0.74197 0.35953 0.07957 0.0
H855 H 0.6606 0.20665 0.13061 0.0
H856 H 0.76413 0.26408 0.10611 0.0
H857 H 0.64539 0.277 0.09115 0.0
C858 C 0.65979 0.32527 0.07966 0.0
C859 C 0.68649 0.34962 0.07661 0.0
C860 C 0.74149 0.25105 0.11131 0.0
C861 C 0.70068 0.28867 0.09452 0.0
C862 C 0.74629 0.22677 0.124 0.0
C863 C 0.71721 0.21081 0.1315 0.0
C864 C 0.70741 0.25932 0.10608 0.0
C865 C 0.68376 0.21823 0.12522 0.0
C866 C 0.66671 0.29489 0.08858 0.0
C867 C 0.72058 0.34159 0.08187 0.0
N868 N 0.67977 0.24222 0.113 0.0
N869 N 0.72666 0.31191 0.0908 0.0
H870 H 0.43865 0.86681 0.83816 0.0
H871 H 0.47943 0.87347 0.93472 0.0
H872 H 0.36832 0.91287 0.87346 0.0
H873 H 0.55862 0.85928 0.89749 0.0
H874 H 0.43511 0.87831 0.91295 0.0
H875 H 0.47985 0.85316 0.86047 0.0
C876 C 0.43169 0.87336 0.85065 0.0
C877 C 0.40014 0.89061 0.85406 0.0
C878 C 0.46222 0.87382 0.90961 0.0
C879 C 0.44697 0.8759 0.87953 0.0
C880 C 0.48749 0.87105 0.92201 0.0
C881 C 0.52281 0.86567 0.91792 0.0
C882 C 0.47241 0.87098 0.89307 0.0
C883 C 0.53176 0.86284 0.90124 0.0
C884 C 0.45525 0.86599 0.86335 0.0
C885 C 0.3926 0.89967 0.87038 0.0
N886 N 0.50677 0.8655 0.88944 0.0
N887 N 0.41586 0.89219 0.88254 0.0
H888 H 0.72138 0.25738 0.87421 0.0
H889 H 0.8768 0.38388 0.89987 0.0
H890 H 0.82913 0.22323 0.87774 0.0
H891 H 0.76867 0.40711 0.91092 0.0
H892 H 0.85938 0.32627 0.88986 0.0
H893 H 0.73736 0.31241 0.88734 0.0
C894 C 0.74834 0.26118 0.87797 0.0
C895 C 0.77422 0.23607 0.87441 0.0
C896 C 0.83939 0.34404 0.89433 0.0
C897 C 0.79271 0.29934 0.88913 0.0
C898 C 0.84922 0.3772 0.89972 0.0
C899 C 0.82393 0.40061 0.90572 0.0
C900 C 0.80397 0.33425 0.89494 0.0
C901 C 0.7888 0.38999 0.90606 0.0
C902 C 0.75745 0.29275 0.88538 0.0
C903 C 0.80857 0.24234 0.87977 0.0
N904 N 0.77978 0.35759 0.90064 0.0
N905 N 0.81699 0.27366 0.88659 0.0
H906 H 0.51658 0.0432 0.57993 0.0
H907 H 0.41768 0.16907 0.63964 0.0
H908 H 0.57256 0.13054 0.60067 0.0
H909 H 0.40316 0.057 0.64154 0.0
H910 H 0.47151 0.16 0.62365 0.0
H911 H 0.47009 0.05206 0.6001 0.0
C912 C 0.51904 0.06441 0.58867 0.0
C913 C 0.54826 0.08661 0.58845 0.0
C914 C 0.45677 0.13749 0.62789 0.0
C915 C 0.49503 0.09696 0.61146 0.0
C916 C 0.42631 0.14262 0.63717 0.0
C917 C 0.40608 0.11378 0.64211 0.0
C918 C 0.46626 0.10339 0.62319 0.0
C919 C 0.4178 0.08004 0.63792 0.0
C920 C 0.49261 0.06928 0.60023 0.0
C921 C 0.55024 0.11333 0.60024 0.0
N922 N 0.44678 0.07582 0.6285 0.0
N923 N 0.52368 0.11815 0.61117 0.0
H924 H 0.6332 0.75141 0.30689 0.0
H925 H 0.58417 0.66532 0.39281 0.0
H926 H 0.62881 0.80541 0.35338 0.0
H927 H 0.63581 0.60695 0.35468 0.0
H928 H 0.57793 0.71488 0.3742 0.0
H929 H 0.61634 0.69697 0.32096 0.0
C930 C 0.62853 0.75187 0.32002 0.0
C931 C 0.63209 0.78299 0.32903 0.0
C932 C 0.58966 0.69083 0.36974 0.0
C933 C 0.61187 0.72153 0.34488 0.0
C934 C 0.59253 0.66228 0.3803 0.0
C935 C 0.61049 0.63217 0.37534 0.0
C936 C 0.60521 0.68915 0.35416 0.0
C937 C 0.62215 0.63005 0.35902 0.0
C938 C 0.6186 0.72097 0.32795 0.0
C939 C 0.62566 0.78219 0.34595 0.0
N940 N 0.61994 0.65856 0.34903 0.0
N941 N 0.61576 0.75196 0.35334 0.0
H942 H 0.06278 0.95263 0.17292 0.0
H943 H 0.93918 0.84444 0.11766 0.0
H944 H 0.06329 0.84011 0.16837 0.0
H945 H 0.95202 0.95646 0.11632 0.0
H946 H 0.96228 0.84342 0.14571 0.0
H947 H 0.00272 0.95395 0.16285 0.0
C948 C 0.0501 0.92804 0.17003 0.0
C949 C 0.06878 0.89628 0.17043 0.0
C950 C 0.95865 0.86845 0.13959 0.0
C951 C 1.00021 0.89777 0.15878 0.0
C952 C 0.94526 0.86902 0.12365 0.0
C953 C 0.94437 0.90052 0.1148 0.0
C954 C 0.97202 0.89951 0.14633 0.0
C955 C 0.95271 0.93166 0.12284 0.0
C956 C 0.01567 0.92884 0.16437 0.0
C957 C 0.0505 0.86525 0.16731 0.0
N958 N 0.96709 0.93032 0.13808 0.0
N959 N 0.01748 0.8668 0.1611 0.0
H960 H 0.66225 0.87031 0.87485 0.0
H961 H 0.59687 0.68739 0.84059 0.0
H962 H 0.59434 0.79912 0.90084 0.0
H963 H 0.66386 0.75621 0.81252 0.0
H964 H 0.58985 0.73225 0.86108 0.0
H965 H 0.65747 0.83347 0.85042 0.0
C966 C 0.64587 0.84719 0.87536 0.0
C967 C 0.62871 0.83753 0.88996 0.0
C968 C 0.60592 0.73786 0.85042 0.0
C969 C 0.62334 0.79538 0.86216 0.0
C970 C 0.60993 0.71211 0.83862 0.0
C971 C 0.63099 0.71796 0.82478 0.0
C972 C 0.62373 0.7697 0.84864 0.0
C973 C 0.64745 0.7506 0.82306 0.0
C974 C 0.64317 0.82623 0.86141 0.0
C975 C 0.60778 0.80755 0.8899 0.0
N976 N 0.64376 0.77525 0.83499 0.0
N977 N 0.60592 0.78737 0.87628 0.0
H978 H 0.43826 0.34845 0.1326 0.0
H979 H 0.59628 0.35546 0.09595 0.0
H980 H 0.48365 0.40339 0.17353 0.0
H981 H 0.61345 0.4417 0.1291 0.0
H982 H 0.55382 0.33113 0.11503 0.0
H983 H 0.49666 0.34262 0.12046 0.0
C984 C 0.4608 0.35847 0.13917 0.0
C985 C 0.45659 0.37632 0.15399 0.0
C986 C 0.56725 0.35507 0.11829 0.0
C987 C 0.52337 0.36964 0.14048 0.0
C988 C 0.59234 0.3686 0.10756 0.0
C989 C 0.60741 0.40154 0.11062 0.0
C990 C 0.55729 0.37482 0.13205 0.0
C991 C 0.6015 0.41687 0.12601 0.0
C992 C 0.49427 0.3548 0.13239 0.0
C993 C 0.48619 0.38948 0.162 0.0
N994 N 0.57603 0.40395 0.13595 0.0
N995 N 0.51832 0.38627 0.15505 0.0
H996 H 0.9132 0.19128 0.41713 0.0
H997 H 0.95608 0.31576 0.34313 0.0
H998 H 0.96539 0.15949 0.37267 0.0
H999 H 0.87967 0.33421 0.38107 0.0
H1000 H 0.98317 0.27036 0.36027 0.0
H1001 H 0.92485 0.25254 0.41031 0.0
C1002 C 0.92775 0.1974 0.40605 0.0
C1003 C 0.93802 0.17076 0.39529 0.0
C1004 C 0.96135 0.28534 0.36512 0.0
C1005 C 0.95029 0.24052 0.3871 0.0
C1006 C 0.94595 0.31138 0.35537 0.0
C1007 C 0.91449 0.32714 0.3604 0.0
C1008 C 0.94534 0.27596 0.38003 0.0
C1009 C 0.9032 0.32154 0.37655 0.0
C1010 C 0.93452 0.23224 0.40219 0.0
C1011 C 0.95689 0.1796 0.38115 0.0
N1012 N 0.91804 0.29564 0.38566 0.0
N1013 N 0.96177 0.21398 0.37723 0.0
H1014 H 0.95418 0.53483 0.61875 0.0
H1015 H 0.09928 0.6765 0.63423 0.0
H1016 H 0.9456 0.63975 0.59909 0.0
H1017 H 0.0854 0.58544 0.66502 0.0
H1018 H 0.0398 0.66756 0.62312 0.0
H1019 H 0.99925 0.55544 0.63776 0.0
C1020 C 0.9613 0.5623 0.61867 0.0
C1021 C 0.94625 0.58549 0.60731 0.0
C1022 C 0.0495 0.65007 0.63261 0.0
C1023 C 0.99831 0.60921 0.62866 0.0
C1024 C 0.08327 0.65531 0.63894 0.0
C1025 C 0.09705 0.63126 0.65025 0.0
C1026 C 0.0301 0.62047 0.63762 0.0
C1027 C 0.07562 0.60414 0.65605 0.0
C1028 C 0.98699 0.57414 0.62951 0.0
C1029 C 0.95646 0.6209 0.60767 0.0
N1030 N 0.04345 0.5991 0.64948 0.0
N1031 N 0.98233 0.63156 0.61795 0.0
H1032 H 0.71762 0.1836 0.5777 0.0
H1033 H 0.62326 0.30722 0.63723 0.0
H1034 H 0.6119 0.17305 0.59558 0.0
H1035 H 0.73328 0.31026 0.62559 0.0
H1036 H 0.61167 0.27955 0.61096 0.0
H1037 H 0.71607 0.24571 0.58445 0.0
C1038 C 0.69396 0.19443 0.58306 0.0
C1039 C 0.66528 0.17295 0.58684 0.0
C1040 C 0.63819 0.28778 0.61372 0.0
C1041 C 0.66331 0.24395 0.59449 0.0
C1042 C 0.64472 0.30431 0.62861 0.0
C1043 C 0.67931 0.31058 0.63352 0.0
C1044 C 0.66669 0.2763 0.60423 0.0
C1045 C 0.7063 0.30519 0.62222 0.0
C1046 C 0.6929 0.23 0.58663 0.0
C1047 C 0.6348 0.18853 0.59295 0.0
N1048 N 0.69959 0.28723 0.60823 0.0
N1049 N 0.63487 0.22302 0.59699 0.0
H1050 H 0.00473 0.36766 0.82926 0.0
H1051 H 0.87795 0.41959 0.87503 0.0
H1052 H 0.99407 0.45799 0.79776 0.0
H1053 H 0.94804 0.50688 0.86882 0.0
H1054 H 0.88623 0.40451 0.84604 0.0
H1055 H 0.94962 0.38159 0.84204 0.0
C1056 C 0.98954 0.38886 0.8241 0.0
C1057 C 0.00363 0.41074 0.81197 0.0
C1058 C 0.89829 0.42802 0.85085 0.0
C1059 C 0.94207 0.42972 0.82812 0.0
C1060 C 0.89371 0.43655 0.86738 0.0
C1061 C 0.91365 0.46348 0.87433 0.0
C1062 C 0.92279 0.44685 0.84148 0.0
C1063 C 0.93321 0.48513 0.86391 0.0
C1064 C 0.95807 0.39741 0.83169 0.0
C1065 C 0.98412 0.44034 0.80711 0.0
N1066 N 0.93797 0.47588 0.848 0.0
N1067 N 0.9551 0.44988 0.81572 0.0
H1068 H 0.80109 0.84312 0.09038 0.0
H1069 H 0.87916 0.67645 0.12193 0.0
H1070 H 0.86695 0.78297 0.05795 0.0
H1071 H 0.77359 0.70414 0.13537 0.0
H1072 H 0.87175 0.70838 0.09599 0.0
H1073 H 0.78532 0.7891 0.10483 0.0
C1074 C 0.8117 0.81843 0.0861 0.0
C1075 C 0.83669 0.81756 0.0735 0.0
C1076 C 0.84958 0.70615 0.10425 0.0
C1077 C 0.8193 0.75589 0.09006 0.0
C1078 C 0.85374 0.68755 0.11896 0.0
C1079 C 0.82693 0.68783 0.13068 0.0
C1080 C 0.8189 0.72599 0.1017 0.0
C1081 C 0.79479 0.7034 0.12652 0.0
C1082 C 0.80267 0.78754 0.09432 0.0
C1083 C 0.84915 0.78482 0.06825 0.0
N1084 N 0.79201 0.72297 0.1126 0.0
N1085 N 0.84126 0.75532 0.07688 0.0
H1086 H 0.48695 0.5945 0.4343 0.0
H1087 H 0.34145 0.63721 0.38484 0.0
H1088 H 0.53924 0.58544 0.38747 0.0
H1089 H 0.41858 0.65901 0.3476 0.0
H1090 H 0.38837 0.62191 0.40399 0.0
H1091 H 0.43597 0.61976 0.42031 0.0
C1092 C 0.48722 0.59685 0.42102 0.0
C1093 C 0.51713 0.58762 0.41197 0.0
C1094 C 0.3953 0.63158 0.39192 0.0
C1095 C 0.4593 0.61666 0.39591 0.0
C1096 C 0.36846 0.64045 0.38101 0.0
C1097 C 0.3764 0.65035 0.36482 0.0
C1098 C 0.43018 0.63218 0.3864 0.0
C1099 C 0.41153 0.65312 0.36018 0.0
C1100 C 0.45822 0.61154 0.41303 0.0
C1101 C 0.51662 0.59206 0.39488 0.0
N1102 N 0.43714 0.64351 0.37085 0.0
N1103 N 0.48828 0.60647 0.38744 0.0
H1104 H 0.36725 0.23253 0.18675 0.0
H1105 H 0.38658 0.20496 0.09053 0.0
H1106 H 0.41449 0.30755 0.15375 0.0
H1107 H 0.36329 0.11965 0.12342 0.0
H1108 H 0.39941 0.24223 0.11406 0.0
H1109 H 0.36742 0.1894 0.16439 0.0
C1110 C 0.37805 0.23979 0.17491 0.0
C1111 C 0.39061 0.27379 0.17205 0.0
C1112 C 0.39223 0.21515 0.11622 0.0
C1113 C 0.3907 0.22504 0.14657 0.0
C1114 C 0.38565 0.19384 0.10275 0.0
C1115 C 0.37548 0.15913 0.10514 0.0
C1116 C 0.38751 0.20177 0.1322 0.0
C1117 C 0.37159 0.14638 0.12121 0.0
C1118 C 0.37817 0.21523 0.16218 0.0
C1119 C 0.40434 0.28184 0.15651 0.0
N1120 N 0.37744 0.16781 0.13422 0.0
N1121 N 0.40375 0.2578 0.14435 0.0
H1122 H 0.4104 0.64582 0.89592 0.0
H1123 H 0.52366 0.60623 0.81645 0.0
H1124 H 0.39698 0.55336 0.86629 0.0
H1125 H 0.56528 0.64535 0.86205 0.0
H1126 H 0.46424 0.60946 0.82804 0.0
H1127 H 0.45256 0.66816 0.8761 0.0
C1128 C 0.41516 0.6308 0.88494 0.0
C1129 C 0.40081 0.59722 0.88299 0.0
C1130 C 0.48631 0.61843 0.83526 0.0
C1131 C 0.44887 0.62282 0.86025 0.0
C1132 C 0.52001 0.61661 0.82871 0.0
C1133 C 0.54895 0.62546 0.83844 0.0
C1134 C 0.48187 0.62951 0.85152 0.0
C1135 C 0.54337 0.63834 0.85427 0.0
C1136 C 0.43938 0.6436 0.87367 0.0
C1137 C 0.40799 0.57907 0.86842 0.0
N1138 N 0.51032 0.63977 0.86042 0.0
N1139 N 0.43213 0.59182 0.8577 0.0
H1140 H 0.18578 0.78699 0.67494 0.0
H1141 H 0.19915 0.83173 0.57999 0.0
H1142 H 0.17386 0.70895 0.63712 0.0
H1143 H 0.14324 0.90265 0.61186 0.0
H1144 H 0.2044 0.79011 0.60273 0.0
H1145 H 0.18238 0.83315 0.65363 0.0
C1146 C 0.18245 0.77959 0.66219 0.0
C1147 C 0.18006 0.74409 0.65777 0.0
C1148 C 0.19127 0.81492 0.60478 0.0
C1149 C 0.17712 0.79642 0.63351 0.0
C1150 C 0.18853 0.83889 0.59187 0.0
C1151 C 0.17056 0.87072 0.594 0.0
C1152 C 0.17658 0.82295 0.62011 0.0
C1153 C 0.15705 0.87829 0.60968 0.0
C1154 C 0.18044 0.80588 0.6501 0.0
C1155 C 0.17569 0.73595 0.64109 0.0
N1156 N 0.16037 0.85455 0.6222 0.0
N1157 N 0.17479 0.76184 0.62957 0.0
H1158 H 0.96022 0.43152 0.43294 0.0
H1159 H 0.91385 0.46088 0.3386 0.0
H1160 H 0.03744 0.42099 0.39452 0.0
H1161 H 0.84265 0.40635 0.37085 0.0
H1162 H 0.95697 0.46299 0.36102 0.0
H1163 H 0.91425 0.43644 0.41186 0.0
C1164 C 0.96744 0.4301 0.42008 0.0
C1165 C 1.00258 0.42556 0.41543 0.0
C1166 C 0.93157 0.45126 0.36324 0.0
C1167 C 0.95057 0.43249 0.39144 0.0
C1168 C 0.90681 0.45059 0.35058 0.0
C1169 C 0.87462 0.43374 0.353 0.0
C1170 C 0.92367 0.43562 0.37844 0.0
C1171 C 0.86712 0.41987 0.36861 0.0
C1172 C 0.94129 0.43302 0.40812 0.0
C1173 C 0.0106 0.42407 0.39861 0.0
N1174 N 0.89151 0.42106 0.38077 0.0
N1175 N 0.98481 0.4279 0.3872 0.0
H1176 H 0.37175 0.91757 0.38598 0.0
H1177 H 0.3613 0.72649 0.35931 0.0
H1178 H 0.43192 0.83492 0.40855 0.0
H1179 H 0.33428 0.80917 0.32512 0.0
H1180 H 0.39386 0.76788 0.37554 0.0
H1181 H 0.36791 0.883 0.36088 0.0
C1182 C 0.38558 0.89275 0.38539 0.0
C1183 C 0.40124 0.87831 0.39951 0.0
C1184 C 0.38122 0.77713 0.36441 0.0
C1185 C 0.39625 0.83858 0.37118 0.0
C1186 C 0.3621 0.75349 0.35521 0.0
C1187 C 0.34487 0.76438 0.34085 0.0
C1188 C 0.38211 0.81247 0.35966 0.0
C1189 C 0.34688 0.79979 0.33623 0.0
C1190 C 0.38326 0.87298 0.37108 0.0
C1191 C 0.41932 0.84664 0.39806 0.0
N1192 N 0.3648 0.82282 0.34578 0.0
N1193 N 0.41541 0.82718 0.3843 0.0
H1194 H 0.86538 0.52104 0.16527 0.0
H1195 H 0.05493 0.54922 0.12655 0.0
H1196 H 0.90505 0.62152 0.14961 0.0
H1197 H 0.9945 0.4568 0.11557 0.0
H1198 H 0.00691 0.57041 0.14376 0.0
H1199 H 0.91786 0.49282 0.15373 0.0
C1200 C 0.88489 0.53706 0.15918 0.0
C1201 C 0.88066 0.57358 0.15812 0.0
C1202 C 0.00464 0.54502 0.13794 0.0
C1203 C 0.94124 0.54177 0.14577 0.0
C1204 C 0.03235 0.5325 0.12839 0.0
C1205 C 0.02848 0.50141 0.11939 0.0
C1206 C 0.97334 0.52588 0.1388 0.0
C1207 C 0.99838 0.48106 0.12219 0.0
C1208 C 0.91488 0.521 0.15278 0.0
C1209 C 0.90697 0.59323 0.15038 0.0
N1210 N 0.97162 0.49393 0.13144 0.0
N1211 N 0.93634 0.57711 0.14465 0.0
H1212 H 0.11787 0.35635 0.86459 0.0
H1213 H 0.20155 0.19861 0.91206 0.0
H1214 H 0.21755 0.30764 0.85466 0.0
H1215 H 0.09111 0.21703 0.9048 0.0
H1216 H 0.21335 0.25886 0.9039 0.0
H1217 H 0.11705 0.32804 0.89161 0.0
C1218 C 0.14068 0.34152 0.86853 0.0
C1219 C 0.16724 0.33304 0.85731 0.0
C1220 C 0.18642 0.25 0.90452 0.0
C1221 C 0.16636 0.3008 0.88786 0.0
C1222 C 0.17958 0.21547 0.90899 0.0
C1223 C 0.14526 0.20223 0.90819 0.0
C1224 C 0.15883 0.27133 0.89906 0.0
C1225 C 0.11793 0.22574 0.90485 0.0
C1226 C 0.13998 0.32509 0.88388 0.0
C1227 C 0.1962 0.31392 0.86292 0.0
N1228 N 0.12533 0.25902 0.89994 0.0
N1229 N 0.19459 0.29754 0.87771 0.0
H1230 H 0.46438 0.47418 0.62088 0.0
H1231 H 0.62538 0.36719 0.64269 0.0
H1232 H 0.46482 0.36286 0.6126 0.0
H1233 H 0.58706 0.43241 0.68191 0.0
H1234 H 0.5686 0.37256 0.62894 0.0
H1235 H 0.50786 0.46601 0.64287 0.0
C1236 C 0.47191 0.44779 0.62442 0.0
C1237 C 0.46101 0.41909 0.61495 0.0
C1238 C 0.5726 0.38552 0.64062 0.0
C1239 C 0.5121 0.40995 0.63914 0.0
C1240 C 0.60498 0.38247 0.64843 0.0
C1241 C 0.61073 0.39846 0.66364 0.0
C1242 C 0.546 0.4058 0.64778 0.0
C1243 C 0.58374 0.41946 0.6702 0.0
C1244 C 0.49724 0.44324 0.63672 0.0
C1245 C 0.4724 0.38559 0.61969 0.0
N1246 N 0.5525 0.42278 0.66216 0.0
N1247 N 0.49842 0.38203 0.631 0.0
H1248 H 0.08973 0.16206 0.32097 0.0
H1249 H 0.97328 0.33535 0.30821 0.0
H1250 H 0.13345 0.26511 0.31349 0.0
H1251 H 0.92946 0.23199 0.31445 0.0
H1252 H 0.03207 0.30966 0.3086 0.0
H1253 H 0.03097 0.1867 0.31731 0.0
C1254 C 0.08702 0.18985 0.31845 0.0
C1255 C 0.11666 0.21155 0.3176 0.0
C1256 C 0.00961 0.29254 0.30975 0.0
C1257 C 0.04925 0.24 0.3134 0.0
C1258 C 0.97598 0.30719 0.30947 0.0
C1259 C 0.9463 0.28584 0.31134 0.0
C1260 C 0.01376 0.2562 0.31194 0.0
C1261 C 0.95151 0.24951 0.31295 0.0
C1262 C 0.05341 0.20391 0.31637 0.0
C1263 C 0.11143 0.24736 0.31429 0.0
N1264 N 0.98454 0.2359 0.31333 0.0
N1265 N 0.07843 0.26045 0.31239 0.0
H1266 H 0.91599 0.68603 0.57247 0.0
H1267 H 0.08882 0.79242 0.55027 0.0
H1268 H 0.00428 0.63582 0.54901 0.0
H1269 H 0.98613 0.83903 0.55589 0.0
H1270 H 0.06186 0.73409 0.5525 0.0
H1271 H 0.94564 0.74209 0.57006 0.0
C1272 C 0.94173 0.68676 0.56689 0.0
C1273 C 0.95766 0.65629 0.56089 0.0
C1274 C 0.04541 0.75723 0.55313 0.0
C1275 C 0.99169 0.72047 0.55796 0.0
C1276 C 0.0607 0.79041 0.55185 0.0
C1277 C 0.0397 0.82059 0.55296 0.0
C1278 C 0.00912 0.75456 0.55574 0.0
C1279 C 0.00342 0.81656 0.555 0.0
C1280 C 0.95857 0.71882 0.56542 0.0
C1281 C 0.99105 0.65882 0.55372 0.0
N1282 N 0.98937 0.7842 0.55644 0.0
N1283 N 0.00708 0.69049 0.55245 0.0
H1284 H 0.46089 0.85038 0.77966 0.0
H1285 H 0.54888 0.68396 0.8208 0.0
H1286 H 0.42234 0.81128 0.82607 0.0
H1287 H 0.53408 0.69417 0.76845 0.0
H1288 H 0.51139 0.73489 0.82504 0.0
H1289 H 0.5004 0.80001 0.778 0.0
C1290 C 0.46152 0.83185 0.78978 0.0
C1291 C 0.43804 0.83514 0.803 0.0
C1292 C 0.51595 0.72558 0.81266 0.0
C1293 C 0.48291 0.77706 0.801 0.0
C1294 C 0.53693 0.69596 0.8102 0.0
C1295 C 0.54429 0.68384 0.79426 0.0
C1296 C 0.50305 0.74404 0.79903 0.0
C1297 C 0.52906 0.7021 0.781 0.0
C1298 C 0.48369 0.80283 0.78868 0.0
C1299 C 0.44005 0.81012 0.81572 0.0
N1300 N 0.50962 0.7315 0.78367 0.0
N1301 N 0.46188 0.78192 0.81435 0.0
H1302 H 0.43958 0.19718 0.07741 0.0
H1303 H 0.52202 0.36613 0.03544 0.0
H1304 H 0.40467 0.23176 0.02962 0.0
H1305 H 0.51107 0.35521 0.08802 0.0
H1306 H 0.48482 0.31384 0.03194 0.0
H1307 H 0.47113 0.25221 0.08074 0.0
C1308 C 0.43746 0.21681 0.06785 0.0
C1309 C 0.41805 0.21027 0.05353 0.0
C1310 C 0.4905 0.32317 0.04421 0.0
C1311 C 0.45646 0.27271 0.05675 0.0
C1312 C 0.5118 0.35287 0.04621 0.0
C1313 C 0.51958 0.36528 0.06203 0.0
C1314 C 0.47764 0.30534 0.05813 0.0
C1315 C 0.50562 0.34692 0.07556 0.0
C1316 C 0.45607 0.24807 0.06963 0.0
C1317 C 0.41861 0.23594 0.04104 0.0
N1318 N 0.4857 0.31786 0.0733 0.0
N1319 N 0.43768 0.26588 0.04287 0.0
H1320 H 0.96671 0.65276 0.17667 0.0
H1321 H 0.08198 0.81685 0.19719 0.0
H1322 H 0.94204 0.7246 0.2157 0.0
H1323 H 0.12973 0.72559 0.17546 0.0
H1324 H 0.03001 0.78216 0.2036 0.0
H1325 H 0.02719 0.67522 0.17639 0.0
C1326 C 0.97453 0.67192 0.18575 0.0
C1327 C 0.94954 0.68668 0.19634 0.0
C1328 C 0.05192 0.76951 0.19757 0.0
C1329 C 0.01771 0.71365 0.19552 0.0
C1330 C 0.08145 0.78943 0.19377 0.0
C1331 C 0.10998 0.77411 0.18568 0.0
C1332 C 0.0505 0.73404 0.19297 0.0
C1333 C 0.10816 0.73833 0.18172 0.0
C1334 C 0.00886 0.68515 0.18541 0.0
C1335 C 0.96065 0.71235 0.20746 0.0
N1336 N 0.07866 0.71956 0.18517 0.0
N1337 N 0.99362 0.72552 0.20653 0.0
H1338 H 0.41122 0.77983 0.42154 0.0
H1339 H 0.602 0.70723 0.44702 0.0
H1340 H 0.46631 0.80494 0.46624 0.0
H1341 H 0.53894 0.65555 0.41052 0.0
H1342 H 0.55585 0.75119 0.4502 0.0
H1343 H 0.45999 0.73989 0.414 0.0
C1344 C 0.43336 0.77679 0.42976 0.0
C1345 C 0.43466 0.79553 0.44457 0.0
C1346 C 0.55224 0.73047 0.4413 0.0
C1347 C 0.49049 0.75096 0.43596 0.0
C1348 C 0.57882 0.70554 0.43937 0.0
C1349 C 0.57465 0.67756 0.42841 0.0
C1350 C 0.52086 0.72747 0.43233 0.0
C1351 C 0.54367 0.67668 0.41897 0.0
C1352 C 0.46118 0.75419 0.42546 0.0
C1353 C 0.46398 0.79071 0.4548 0.0
N1354 N 0.51785 0.70101 0.42123 0.0
N1355 N 0.49062 0.76924 0.45027 0.0
H1356 H 0.56372 0.31974 0.69122 0.0
H1357 H 0.42767 0.16546 0.67435 0.0
H1358 H 0.59409 0.21062 0.69257 0.0
H1359 H 0.41303 0.27261 0.65837 0.0
H1360 H 0.48676 0.18058 0.68376 0.0
H1361 H 0.50431 0.30222 0.68378 0.0
C1362 C 0.55766 0.29206 0.6904 0.0
C1363 C 0.58389 0.26659 0.69236 0.0
C1364 C 0.47063 0.20061 0.67804 0.0
C1365 C 0.51636 0.24646 0.68347 0.0
C1366 C 0.43713 0.19192 0.67249 0.0
C1367 C 0.4154 0.21784 0.66559 0.0
C1368 C 0.48207 0.2355 0.67689 0.0
C1369 C 0.42882 0.25184 0.6637 0.0
C1370 C 0.52391 0.2821 0.68589 0.0
C1371 C 0.57464 0.23109 0.69102 0.0
N1372 N 0.46112 0.25976 0.66948 0.0
N1373 N 0.54164 0.22204 0.6865 0.0
H1374 H 0.03365 0.20007 0.9016 0.0
H1375 H 0.94179 0.33795 0.95843 0.0
H1376 H 1.00032 0.16628 0.94945 0.0
H1377 H 0.92868 0.33595 0.90586 0.0
H1378 H 0.96472 0.27728 0.95741 0.0
H1379 H 1.00006 0.25375 0.9046 0.0
C1380 C 0.01982 0.20427 0.91285 0.0
C1381 C 0.02054 0.17896 0.92528 0.0
C1382 C 0.95579 0.28985 0.9462 0.0
C1383 C 0.98093 0.24052 0.92901 0.0
C1384 C 0.94237 0.32422 0.94681 0.0
C1385 C 0.93305 0.34167 0.93222 0.0
C1386 C 0.96054 0.27358 0.93086 0.0
C1387 C 0.93533 0.32324 0.91739 0.0
C1388 C 1.00005 0.23475 0.91454 0.0
C1389 C 1.00076 0.18537 0.93957 0.0
N1390 N 0.94936 0.29053 0.91706 0.0
N1391 N 0.98203 0.21579 0.94117 0.0
H1392 H 0.07765 0.6822 0.71832 0.0
H1393 H 0.94762 0.81902 0.67676 0.0
H1394 H 0.09333 0.7133 0.66779 0.0
H1395 H 0.97272 0.8178 0.72842 0.0
H1396 H 0.99532 0.7771 0.67181 0.0
H1397 H 0.03084 0.72531 0.72065 0.0
C1398 C 0.07084 0.69766 0.70758 0.0
C1399 C 0.0898 0.6942 0.69287 0.0
C1400 C 0.99073 0.78656 0.68416 0.0
C1401 C 0.03606 0.74432 0.69558 0.0
C1402 C 0.96385 0.81101 0.68698 0.0
C1403 C 0.95634 0.82262 0.703 0.0
C1404 C 0.00971 0.77296 0.69754 0.0
C1405 C 0.97747 0.80986 0.71585 0.0
C1406 C 0.04429 0.72261 0.70899 0.0
C1407 C 0.07942 0.71496 0.67936 0.0
N1408 N 0.00276 0.7855 0.71287 0.0
N1409 N 0.05332 0.73935 0.68106 0.0
H1410 H 0.95869 0.17092 0.46722 0.0
H1411 H 0.03824 0.33729 0.42329 0.0
H1412 H 0.99563 0.16608 0.41716 0.0
H1413 H 0.06524 0.3139 0.47368 0.0
H1414 H 0.0114 0.27942 0.42093 0.0
H1415 H 0.98721 0.22825 0.47013 0.0
C1416 C 0.97245 0.18202 0.4568 0.0
C1417 C 0.97385 0.16411 0.44175 0.0
C1418 C 0.02342 0.28692 0.43246 0.0
C1419 C 0.00613 0.22957 0.445 0.0
C1420 C 0.03899 0.31983 0.43381 0.0
C1421 C 0.05526 0.32999 0.44853 0.0
C1422 C 0.02275 0.26449 0.44613 0.0
C1423 C 0.05368 0.30687 0.462 0.0
C1424 C 0.98875 0.21461 0.4585 0.0
C1425 C 0.99264 0.1795 0.42876 0.0
N1426 N 0.0376 0.27519 0.4605 0.0
N1427 N 0.00762 0.21154 0.4306 0.0
H1428 H 0.61058 0.21868 0.15861 0.0
H1429 H 0.51201 0.35384 0.21789 0.0
H1430 H 0.65972 0.2669 0.20057 0.0
H1431 H 0.46712 0.31251 0.17336 0.0
H1432 H 0.56768 0.32506 0.21098 0.0
H1433 H 0.55895 0.25576 0.16287 0.0
C1434 C 0.61054 0.23715 0.16868 0.0
C1435 C 0.6393 0.23942 0.17935 0.0
C1436 C 0.54575 0.32272 0.20261 0.0
C1437 C 0.58034 0.28194 0.18437 0.0
C1438 C 0.51402 0.33914 0.20656 0.0
C1439 C 0.485 0.33594 0.19609 0.0
C1440 C 0.54826 0.30252 0.18822 0.0
C1441 C 0.48891 0.31626 0.18165 0.0
C1442 C 0.58112 0.25842 0.17109 0.0
C1443 C 0.63808 0.26421 0.19206 0.0
N1444 N 0.51981 0.30019 0.17819 0.0
N1445 N 0.60897 0.28426 0.19431 0.0
H1446 H 0.61268 0.72833 0.95042 0.0
H1447 H 0.424 0.67156 0.92205 0.0
H1448 H 0.54745 0.79273 0.91925 0.0
H1449 H 0.50324 0.59329 0.93196 0.0
H1450 H 0.46909 0.71658 0.92224 0.0
H1451 H 0.57414 0.67817 0.94475 0.0
C1452 C 0.59094 0.73164 0.94198 0.0
C1453 C 0.58375 0.76464 0.93501 0.0
C1454 C 0.47675 0.68952 0.92421 0.0
C1455 C 0.53887 0.70798 0.92904 0.0
C1456 C 0.45095 0.66371 0.9241 0.0
C1457 C 0.45981 0.62842 0.9268 0.0
C1458 C 0.51171 0.68031 0.92753 0.0
C1459 C 0.49522 0.62012 0.92973 0.0
C1460 C 0.56889 0.70311 0.93882 0.0
C1461 C 0.55468 0.76771 0.92452 0.0
N1462 N 0.51986 0.64593 0.93021 0.0
N1463 N 0.53309 0.73997 0.92205 0.0
H1464 H 0.01927 0.2781 0.84263 0.0
H1465 H 0.83591 0.24745 0.7999 0.0
H1466 H 0.99652 0.32632 0.79577 0.0
H1467 H 0.85323 0.24042 0.85213 0.0
H1468 H 0.89345 0.27626 0.79699 0.0
H1469 H 0.9579 0.26194 0.84531 0.0
C1470 C 1.00117 0.28536 0.83291 0.0
C1471 C 0.01276 0.30361 0.819 0.0
C1472 C 0.88422 0.26891 0.8091 0.0
C1473 C 0.94239 0.28494 0.82186 0.0
C1474 C 0.85146 0.25266 0.81076 0.0
C1475 C 0.84027 0.24102 0.82627 0.0
C1476 C 0.90553 0.27321 0.82306 0.0
C1477 C 0.8612 0.24832 0.83996 0.0
C1478 C 0.96609 0.27634 0.83447 0.0
C1479 C 0.98833 0.31237 0.80672 0.0
N1480 N 0.89295 0.26348 0.83802 0.0
N1481 N 0.95415 0.30265 0.80836 0.0
H1482 H 0.46419 0.30682 0.5708 0.0
H1483 H 0.61055 0.19031 0.526 0.0
H1484 H 0.536 0.35011 0.53522 0.0
H1485 H 0.56852 0.1643 0.57364 0.0
H1486 H 0.57781 0.24597 0.52668 0.0
H1487 H 0.49578 0.25064 0.56925 0.0
C1488 C 0.48622 0.30437 0.56248 0.0
C1489 C 0.49744 0.33324 0.55313 0.0
C1490 C 0.57601 0.22816 0.53704 0.0
C1491 C 0.53372 0.26911 0.55131 0.0
C1492 C 0.59472 0.19647 0.53667 0.0
C1493 C 0.59284 0.17296 0.54994 0.0
C1494 C 0.5545 0.23597 0.5506 0.0
C1495 C 0.5715 0.18204 0.56335 0.0
C1496 C 0.50444 0.27242 0.56171 0.0
C1497 C 0.52647 0.3286 0.54269 0.0
N1498 N 0.55302 0.21263 0.5633 0.0
N1499 N 0.5435 0.29722 0.54203 0.0
H1500 H 0.52022 0.86692 0.29327 0.0
H1501 H 0.41661 0.71682 0.33991 0.0
H1502 H 0.56401 0.82198 0.33736 0.0
H1503 H 0.42652 0.71985 0.2871 0.0
H1504 H 0.462 0.76211 0.34191 0.0
H1505 H 0.4747 0.82178 0.29369 0.0
C1506 C 0.51977 0.84834 0.30337 0.0
C1507 C 0.54595 0.84897 0.31556 0.0
C1508 C 0.45444 0.7524 0.32993 0.0
C1509 C 0.49372 0.79689 0.316 0.0
C1510 C 0.4288 0.72615 0.32877 0.0
C1511 C 0.41766 0.71388 0.31334 0.0
C1512 C 0.4684 0.76723 0.31553 0.0
C1513 C 0.43406 0.72813 0.29931 0.0
C1514 C 0.49394 0.82234 0.30349 0.0
C1515 C 0.54393 0.82364 0.32815 0.0
N1516 N 0.45805 0.75428 0.30074 0.0
N1517 N 0.5184 0.79866 0.32807 0.0
H1518 H 0.99225 0.79162 0.03307 0.0
H1519 H 0.9671 0.59912 0.06913 0.0
H1520 H 0.9199 0.77253 0.0727 0.0
H1521 H 0.06785 0.64454 0.05816 0.0
H1522 H 0.93913 0.65598 0.06263 0.0
H1523 H 0.00913 0.72959 0.03375 0.0
C1524 C 0.97886 0.77399 0.04143 0.0
C1525 C 0.95385 0.78676 0.05251 0.0
C1526 C 0.96729 0.65314 0.06151 0.0
C1527 C 0.97328 0.71642 0.05351 0.0
C1528 C 0.98316 0.62095 0.06518 0.0
C1529 C 0.01972 0.61756 0.0643 0.0
C1530 C 0.9882 0.68136 0.05643 0.0
C1531 C 0.03959 0.64639 0.05917 0.0
C1532 C 0.98864 0.73882 0.04188 0.0
C1533 C 0.93787 0.76321 0.06342 0.0
N1534 N 0.02355 0.6771 0.05535 0.0
N1535 N 0.94804 0.72902 0.06375 0.0
H1536 H 0.24242 0.17323 0.27459 0.0
H1537 H 0.29622 0.36745 0.24865 0.0
H1538 H 0.29356 0.24793 0.30625 0.0
H1539 H 0.2993 0.28468 0.21277 0.0
H1540 H 0.27726 0.3252 0.26939 0.0
H1541 H 0.25048 0.21398 0.2513 0.0
C1542 C 0.25579 0.19786 0.27661 0.0
C1543 C 0.26739 0.20708 0.29245 0.0
C1544 C 0.2813 0.31636 0.25689 0.0
C1545 C 0.27522 0.2541 0.26609 0.0
C1546 C 0.29148 0.34059 0.24498 0.0
C1547 C 0.29942 0.32955 0.22899 0.0
C1548 C 0.27898 0.28072 0.25283 0.0
C1549 C 0.29317 0.29431 0.22494 0.0
C1550 C 0.26007 0.22113 0.26335 0.0
C1551 C 0.28429 0.23947 0.29433 0.0
N1552 N 0.28387 0.27088 0.23689 0.0
N1553 N 0.28725 0.26187 0.2814 0.0
H1554 H 1.00232 0.98517 0.42667 0.0
H1555 H 0.03402 0.01464 0.5158 0.0
H1556 H 0.92385 0.95705 0.46242 0.0
H1557 H 0.09701 0.92545 0.5019 0.0
H1558 H 0.00535 0.01279 0.48893 0.0
H1559 H 0.04798 0.97455 0.44748 0.0
C1560 C 0.99468 0.97517 0.43861 0.0
C1561 C 0.9591 0.97396 0.44317 0.0
C1562 C 0.02627 0.99435 0.49163 0.0
C1563 C 0.01084 0.96138 0.46663 0.0
C1564 C 0.0429 0.99563 0.50684 0.0
C1565 C 0.06776 0.97007 0.51113 0.0
C1566 C 0.03454 0.96741 0.48062 0.0
C1567 C 0.07805 0.94576 0.49903 0.0
C1568 C 0.02082 0.96934 0.45047 0.0
C1569 C 0.95092 0.95942 0.45856 0.0
N1570 N 0.06073 0.94442 0.48436 0.0
N1571 N 0.97649 0.95518 0.47 0.0
H1572 H 0.27278 0.7861 0.79085 0.0
H1573 H 0.25984 0.73371 0.6954 0.0
H1574 H 0.25733 0.86102 0.75173 0.0
H1575 H 0.26934 0.65817 0.73473 0.0
H1576 H 0.26181 0.7809 0.71574 0.0
H1577 H 0.26891 0.73861 0.77072 0.0
C1578 C 0.26703 0.79255 0.77816 0.0
C1579 C 0.2653 0.82768 0.77301 0.0
C1580 C 0.26388 0.75398 0.71991 0.0
C1581 C 0.26258 0.77348 0.7497 0.0
C1582 C 0.26334 0.72698 0.70823 0.0
C1583 C 0.26381 0.69176 0.71333 0.0
C1584 C 0.26523 0.74574 0.73681 0.0
C1585 C 0.26864 0.68491 0.73021 0.0
C1586 C 0.26566 0.76542 0.76657 0.0
C1587 C 0.2586 0.83431 0.75626 0.0
N1588 N 0.26863 0.7115 0.74132 0.0
N1589 N 0.25809 0.80763 0.74521 0.0
H1590 H 0.46204 0.00695 0.04876 0.0
H1591 H 0.54568 0.96149 0.96111 0.0
H1592 H 0.41051 0.02607 0.00234 0.0
H1593 H 0.58375 0.91491 0.00615 0.0
H1594 H 0.49987 0.99141 0.97679 0.0
H1595 H 0.50866 0.97528 0.0341 0.0
C1596 C 0.45996 0.00362 0.03557 0.0
C1597 C 0.43237 0.0193 0.02676 0.0
C1598 C 0.51844 0.97486 0.98327 0.0
C1599 C 0.48618 0.98446 0.0099 0.0
C1600 C 0.54496 0.95821 0.97434 0.0
C1601 C 0.56854 0.93555 0.9823 0.0
C1602 C 0.51561 0.96908 0.00032 0.0
C1603 C 0.56602 0.93204 -0.0005 0.0
C1604 C 0.48684 0.98602 0.02719 0.0
C1605 C 0.43138 0.0146 0.00964 0.0
N1606 N 0.53993 0.94844 0.00792 0.0
N1607 N 0.45807 0.9981 0.00177 0.0
H1608 H 0.20494 0.66577 0.27843 0.0
H1609 H 0.1541 0.76911 0.21527 0.0
H1610 H 0.23811 0.75856 0.30389 0.0
H1611 H 0.22683 0.84317 0.23582 0.0
H1612 H 0.14934 0.74039 0.24185 0.0
H1613 H 0.17766 0.70206 0.25752 0.0
C1614 C 0.20452 0.69395 0.2801 0.0
C1615 C 0.22347 0.7092 0.29292 0.0
C1616 C 0.16666 0.76264 0.24066 0.0
C1617 C 0.19352 0.75163 0.26858 0.0
C1618 C 0.16911 0.77932 0.22547 0.0
C1619 C 0.19159 0.80796 0.22329 0.0
C1620 C 0.188 0.77377 0.2537 0.0
C1621 C 0.20965 0.82076 0.23699 0.0
C1622 C 0.18919 0.71497 0.26801 0.0
C1623 C 0.22324 0.74586 0.29427 0.0
N1624 N 0.20809 0.80305 0.25158 0.0
N1625 N 0.20957 0.7659 0.28193 0.0
H1626 H 0.56241 0.98814 0.56401 0.0
H1627 H 0.47678 0.9617 0.47704 0.0
H1628 H 0.62221 0.96829 0.52001 0.0
H1629 H 0.42237 0.92382 0.5201 0.0
H1630 H 0.52812 0.97323 0.494 0.0
H1631 H 0.5095 0.96775 0.5498 0.0
C1632 C 0.56478 0.97804 0.55163 0.0
C1633 C 0.59669 0.98046 0.54306 0.0
C1634 C 0.50483 0.96263 0.49976 0.0
C1635 C 0.53627 0.95877 0.52666 0.0
C1636 C 0.47524 0.95666 0.49014 0.0
C1637 C 0.44518 0.94167 0.49714 0.0
C1638 C 0.50432 0.95414 0.51657 0.0
C1639 C 0.44504 0.93535 0.5142 0.0
C1640 C 0.53444 0.967 0.54345 0.0
C1641 C 0.59807 0.96725 0.52699 0.0
N1642 N 0.47424 0.94157 0.52337 0.0
N1643 N 0.56814 0.95792 0.51917 0.0
H1644 H 0.31586 0.23383 0.72708 0.0
H1645 H 0.12452 0.25175 0.7652 0.0
H1646 H 0.22806 0.17478 0.70876 0.0
H1647 H 0.2059 0.32871 0.77144 0.0
H1648 H 0.16243 0.21921 0.74641 0.0
H1649 H 0.27759 0.26115 0.74737 0.0
C1650 C 0.28872 0.22562 0.72778 0.0
C1651 C 0.27491 0.20234 0.71617 0.0
C1652 C 0.17184 0.24346 0.75168 0.0
C1653 C 0.23081 0.23441 0.73886 0.0
C1654 C 0.1501 0.26227 0.76219 0.0
C1655 C 0.16218 0.29299 0.76972 0.0
C1656 C 0.20611 0.25516 0.74893 0.0
C1657 C 0.19556 0.30537 0.76568 0.0
C1658 C 0.26677 0.24176 0.73912 0.0
C1659 C 0.23967 0.19257 0.71754 0.0
N1660 N 0.21666 0.28608 0.7557 0.0
N1661 N 0.21854 0.20921 0.72851 0.0
H1662 H 0.09024 0.06236 0.9711 0.0
H1663 H 0.93738 0.94977 0.0125 0.0
H1664 H 0.02117 0.99381 0.94419 0.0
H1665 H 0.0288 0.98236 0.03968 0.0
H1666 H 0.96228 0.97638 0.98772 0.0
H1667 H 0.06407 0.04115 0.99687 0.0
C1668 C 0.06993 0.04261 0.97061 0.0
C1669 C 0.05793 0.02981 0.95547 0.0
C1670 C 0.9767 0.97798 -0.00084 0.0
C1671 C 0.02734 0.00639 0.98472 0.0
C1672 C 0.96231 0.96318 0.01334 0.0
C1673 C 0.98119 0.96365 0.02812 0.0
C1674 C 0.00997 0.99366 -0.00016 0.0
C1675 C 0.01354 0.98118 0.02847 0.0
C1676 C 0.05489 0.03072 0.98528 0.0
C1677 C 0.03138 0.00437 0.95555 0.0
N1678 N 0.02703 0.99537 0.01451 0.0
N1679 N 0.01678 0.99377 0.96992 0.0
H1680 H 0.72416 0.69658 0.79283 0.0
H1681 H 0.77479 0.77587 0.70442 0.0
H1682 H 0.71944 0.63615 0.74818 0.0
H1683 H 0.76249 0.83785 0.74823 0.0
H1684 H 0.75439 0.72422 0.71975 0.0
H1685 H 0.74308 0.74744 0.77674 0.0
C1686 C 0.72812 0.69363 0.77972 0.0
C1687 C 0.71997 0.66197 0.77187 0.0
C1688 C 0.75549 0.74929 0.72592 0.0
C1689 C 0.74065 0.72058 0.75322 0.0
C1690 C 0.76639 0.77896 0.71705 0.0
C1691 C 0.77013 0.81132 0.72502 0.0
C1692 C 0.74854 0.75202 0.74288 0.0
C1693 C 0.75982 0.81346 0.74158 0.0
C1694 C 0.73831 0.72293 0.77047 0.0
C1695 C 0.72534 0.66004 0.75476 0.0
N1696 N 0.75005 0.78422 0.75 0.0
N1697 N 0.73496 0.68894 0.74602 0.0
H1698 H 0.82636 0.31384 0.26968 0.0
H1699 H 0.69168 0.18403 0.22998 0.0
H1700 H 0.74458 0.27232 0.30079 0.0
H1701 H 0.80329 0.17687 0.22172 0.0
H1702 H 0.70303 0.2223 0.25368 0.0
H1703 H 0.80905 0.27295 0.24819 0.0
C1704 C 0.80423 0.29673 0.27188 0.0
C1705 C 0.78708 0.29635 0.28713 0.0
C1706 C 0.72489 0.21172 0.24678 0.0
C1707 C 0.76736 0.24933 0.26255 0.0
C1708 C 0.71853 0.18955 0.2334 0.0
C1709 C 0.74659 0.17722 0.22378 0.0
C1710 C 0.75936 0.22216 0.2502 0.0
C1711 C 0.7808 0.1859 0.22865 0.0
C1712 C 0.79468 0.2731 0.25967 0.0
C1713 C 0.75863 0.27333 0.28923 0.0
N1714 N 0.78616 0.20837 0.24128 0.0
N1715 N 0.74962 0.25059 0.27706 0.0
H1716 H 0.78871 0.2335 0.71079 0.0
H1717 H 0.68761 0.18525 0.79075 0.0
H1718 H 0.72103 0.30764 0.73518 0.0
H1719 H 0.79644 0.15428 0.78745 0.0
H1720 H 0.69563 0.22241 0.76654 0.0
H1721 H 0.79173 0.19902 0.73632 0.0
C1722 C 0.77574 0.24333 0.7217 0.0
C1723 C 0.7544 0.2734 0.72082 0.0
C1724 C 0.71758 0.20708 0.77106 0.0
C1725 C 0.75619 0.23321 0.74954 0.0
C1726 C 0.71292 0.1854 0.78472 0.0
C1727 C 0.7413 0.16632 0.79121 0.0
C1728 C 0.75061 0.20921 0.76358 0.0
C1729 C 0.77357 0.16791 0.7828 0.0
C1730 C 0.77707 0.22338 0.73615 0.0
C1731 C 0.73782 0.28473 0.73526 0.0
N1732 N 0.77737 0.18902 0.76939 0.0
N1733 N 0.73814 0.26402 0.74888 0.0
H1734 H 0.7304 0.80763 0.29489 0.0
H1735 H 0.75684 0.77719 0.1984 0.0
H1736 H 0.72025 0.8875 0.25753 0.0
H1737 H 0.78955 0.69961 0.23392 0.0
H1738 H 0.7375 0.81497 0.22066 0.0
H1739 H 0.75106 0.76639 0.27377 0.0
C1740 C 0.7337 0.81686 0.28238 0.0
C1741 C 0.72364 0.85112 0.27795 0.0
C1742 C 0.74849 0.78955 0.22369 0.0
C1743 C 0.74576 0.80381 0.25373 0.0
C1744 C 0.759 0.76771 0.21094 0.0
C1745 C 0.77458 0.73514 0.21431 0.0
C1746 C 0.75378 0.77906 0.24008 0.0
C1747 C 0.77715 0.72433 0.2308 0.0
C1748 C 0.74489 0.79313 0.27029 0.0
C1749 C 0.72769 0.86139 0.26149 0.0
N1750 N 0.76721 0.74645 0.24314 0.0
N1751 N 0.73798 0.8378 0.25001 0.0
H1752 H 0.59575 0.50774 0.02143 0.0
H1753 H 0.48977 0.54957 0.95529 0.0
H1754 H 0.50903 0.53821 0.05228 0.0
H1755 H 0.40393 0.54873 0.98977 0.0
H1756 H 0.53089 0.54809 0.97782 0.0
H1757 H 0.56158 0.52384 0.9974 0.0
C1758 C 0.56997 0.5191 0.02319 0.0
C1759 C 0.5554 0.5215 0.03897 0.0
C1760 C 0.50326 0.54752 0.98069 0.0
C1761 C 0.51519 0.54012 0.01121 0.0
C1762 C 0.47948 0.54868 0.96769 0.0
C1763 C 0.44313 0.54856 0.97057 0.0
C1764 C 0.49092 0.54538 0.99692 0.0
C1765 C 0.43167 0.54844 0.98696 0.0
C1766 C 0.55007 0.52826 0.00934 0.0
C1767 C 0.52142 0.53577 0.04037 0.0
N1768 N 0.45549 0.54645 -0.00049 0.0
N1769 N 0.50237 0.54399 0.02672 0.0
H1770 H 0.92571 0.60138 0.51682 0.0
H1771 H 0.0856 0.53772 0.48313 0.0
H1772 H 0.91925 0.48873 0.51357 0.0
H1773 H 0.01699 0.50756 0.44354 0.0
H1774 H 0.03443 0.55878 0.49853 0.0
H1775 H 0.96788 0.60132 0.49401 0.0
C1776 C 0.93199 0.57677 0.51089 0.0
C1777 C 0.91898 0.54491 0.51714 0.0
C1778 C 0.03085 0.5486 0.48622 0.0
C1779 C 0.96664 0.545 0.49102 0.0
C1780 C 0.05999 0.53691 0.47738 0.0
C1781 C 0.05557 0.52061 0.46209 0.0
C1782 C 0.99712 0.54299 0.47991 0.0
C1783 C 0.02161 0.51968 0.45534 0.0
C1784 C 0.95619 0.57686 0.49798 0.0
C1785 C 0.92863 0.51381 0.50915 0.0
N1786 N 0.99344 0.52933 0.46459 0.0
N1787 N 0.95212 0.51459 0.49656 0.0
H1788 H 0.10337 0.55621 0.02703 0.0
H1789 H 0.94517 0.487 0.97793 0.0
H1790 H 0.07559 0.44666 0.02835 0.0
H1791 H 0.02684 0.52865 0.94691 0.0
H1792 H 0.98493 0.49124 0.00156 0.0
H1793 H 0.07142 0.56217 0.00081 0.0
C1794 C 0.09192 0.53311 0.02152 0.0
C1795 C 0.09178 0.50093 0.03006 0.0
C1796 C 0.99366 0.50036 0.98962 0.0
C1797 C 0.05397 0.5082 0.00077 0.0
C1798 C 0.97085 0.49852 0.97621 0.0
C1799 C 0.98271 0.50753 0.96045 0.0
C1800 C 0.0282 0.512 0.98731 0.0
C1801 C 0.01672 0.52151 0.95889 0.0
C1802 C 0.0732 0.53675 0.00674 0.0
C1803 C 0.07606 0.47204 0.02234 0.0
N1804 N 0.0385 0.52309 0.97216 0.0
N1805 N 0.05686 0.47661 0.00844 0.0
H1806 H 0.51653 0.52801 0.53706 0.0
H1807 H 0.55007 0.49763 0.44319 0.0
H1808 H 0.44652 0.45749 0.51186 0.0
H1809 H 0.63228 0.50144 0.47955 0.0
H1810 H 0.50713 0.48833 0.46534 0.0
H1811 H 0.553 0.53062 0.51251 0.0
C1812 C 0.50822 0.51384 0.52622 0.0
C1813 C 0.47873 0.49196 0.52668 0.0
C1814 C 0.53472 0.49028 0.46834 0.0
C1815 C 0.52084 0.49445 0.4986 0.0
C1816 C 0.55934 0.49498 0.45572 0.0
C1817 C 0.59481 0.50087 0.45958 0.0
C1818 C 0.54587 0.49197 0.48476 0.0
C1819 C 0.60519 0.49743 0.47605 0.0
C1820 C 0.52938 0.51492 0.51231 0.0
C1821 C 0.46918 0.4745 0.51211 0.0
N1822 N 0.58076 0.49423 0.48806 0.0
N1823 N 0.49046 0.47577 0.49865 0.0
H1824 H 0.23305 0.11408 0.37874 0.0
H1825 H 0.38772 0.00595 0.42198 0.0
H1826 H 0.33943 0.11131 0.36074 0.0
H1827 H 0.28058 0.00657 0.43893 0.0
H1828 H 0.37318 0.05339 0.40272 0.0
H1829 H 0.25249 0.08429 0.40384 0.0
C1830 C 0.26066 0.10807 0.3802 0.0
C1831 C 0.28451 0.11492 0.36743 0.0
C1832 C 0.35299 0.04359 0.41086 0.0
C1833 C 0.30692 0.08005 0.39615 0.0
C1834 C 0.36138 0.01662 0.42198 0.0
C1835 C 0.3353 1.00189 0.43203 0.0
C1836 C 0.31825 0.05596 0.40973 0.0
C1837 C 0.30152 0.01679 0.43134 0.0
C1838 C 0.27173 0.09075 0.39453 0.0
C1839 C 0.31997 0.10631 0.37014 0.0
N1840 N 0.29391 0.04256 0.42026 0.0
N1841 N 0.32995 0.08891 0.38403 0.0
H1842 H 0.25954 0.14304 0.60773 0.0
H1843 H 0.12054 0.99361 0.59701 0.0
H1844 H 0.18531 0.11382 0.64513 0.0
H1845 H 0.1814 0.03506 0.5567 0.0
H1846 H 0.13636 0.04471 0.61335 0.0
H1847 H 0.22308 0.11369 0.58717 0.0
C1848 C 0.23455 0.13213 0.61144 0.0
C1849 C 0.22535 0.13067 0.62808 0.0
C1850 C 0.14583 0.04296 0.60084 0.0
C1851 C 0.18452 0.09555 0.60495 0.0
C1852 C 0.13686 0.01363 0.59151 0.0
C1853 C 0.15011 0.00967 0.57555 0.0
C1854 C 0.16868 0.0683 0.59426 0.0
C1855 C 0.17096 0.03671 0.56904 0.0
C1856 C 0.214 0.11478 0.59977 0.0
C1857 C 0.19318 0.11547 0.63236 0.0
N1858 N 0.18007 0.06453 0.5785 0.0
N1859 N 0.17437 0.09769 0.62096 0.0
H1860 H 0.13381 0.04969 0.85419 0.0
H1861 H 0.20268 0.92317 0.80735 0.0
H1862 H 0.12559 0.97577 0.8941 0.0
H1863 H 0.23498 0.88113 0.85413 0.0
H1864 H 0.15286 0.95174 0.82077 0.0
H1865 H 0.15015 1.0022 0.83581 0.0
C1866 C 0.13409 0.02307 0.8589 0.0
C1867 C 0.12818 0.01654 0.87562 0.0
C1868 C 0.17028 0.93557 0.82809 0.0
C1869 C 0.14773 0.96162 0.85471 0.0
C1870 C 0.19818 0.91838 0.82032 0.0
C1871 C 0.22306 0.89993 0.82967 0.0
C1872 C 0.16783 0.93473 0.84536 0.0
C1873 C 0.21631 0.89513 0.84648 0.0
C1874 C 0.14334 0.99575 0.84837 0.0
C1875 C 0.12957 0.98174 0.88122 0.0
N1876 N 0.18992 0.91323 0.85389 0.0
N1877 N 0.14021 0.95569 0.87089 0.0
H1878 H 0.29468 0.89974 0.15242 0.0
H1879 H 0.31507 0.97225 0.06088 0.0
H1880 H 0.21594 0.89511 0.11454 0.0
H1881 H 0.38207 0.00362 0.10073 0.0
H1882 H 0.29111 0.92565 0.07819 0.0
H1883 H 0.33732 0.92045 0.13182 0.0
C1884 C 0.28677 0.90176 0.13966 0.0
C1885 C 0.25179 0.89573 0.13513 0.0
C1886 C 0.31192 0.94188 0.08303 0.0
C1887 C 0.30011 0.91961 0.11161 0.0
C1888 C 0.32607 0.96811 0.07302 0.0
C1889 C 0.3508 0.99165 0.07933 0.0
C1890 C 0.32208 0.9395 0.09961 0.0
C1891 C 0.36341 0.9857 0.09532 0.0
C1892 C 0.31099 0.91389 0.12795 0.0
C1893 C 0.24267 0.89949 0.11852 0.0
N1894 N 0.34832 0.96075 0.10507 0.0
N1895 N 0.26651 0.91143 0.10743 0.0
H1896 H 0.71856 0.91952 0.68084 0.0
H1897 H 0.69697 0.94731 0.58471 0.0
H1898 H 0.7784 0.86379 0.6445 0.0
H1899 H 0.64257 0.00757 0.62134 0.0
H1900 H 0.71392 0.9047 0.60596 0.0
H1901 H 0.67779 0.93879 0.65935 0.0
C1902 C 0.72199 0.90969 0.66846 0.0
C1903 C 0.75161 0.88946 0.66453 0.0
C1904 C 0.69726 0.92655 0.60931 0.0
C1905 C 0.70613 0.91318 0.63956 0.0
C1906 C 0.68712 0.95062 0.5971 0.0
C1907 C 0.66772 0.98065 0.60121 0.0
C1908 C 0.68848 0.93287 0.62584 0.0
C1909 C 0.65689 0.98439 0.61759 0.0
C1910 C 0.69906 0.92129 0.65609 0.0
C1911 C 0.75551 0.87872 0.64814 0.0
N1912 N 0.66784 0.96117 0.62933 0.0
N1913 N 0.73356 0.89128 0.63622 0.0
H1914 H 0.90809 0.01203 0.36079 0.0
H1915 H 0.75884 0.86983 0.35426 0.0
H1916 H 0.86763 0.95402 0.40205 0.0
H1917 H 0.79159 0.93804 0.31497 0.0
H1918 H 0.81228 0.88461 0.36946 0.0
H1919 H 0.88064 0.97018 0.34213 0.0
C1920 C 0.89473 0.98946 0.36591 0.0
C1921 C 0.89039 0.98624 0.38296 0.0
C1922 C 0.80855 0.89528 0.35723 0.0
C1923 C 0.85718 0.93913 0.36168 0.0
C1924 C 0.77831 0.88629 0.3484 0.0
C1925 C 0.77094 0.90253 0.33327 0.0
C1926 C 0.8314 0.92085 0.35088 0.0
C1927 C 0.79649 0.92466 0.32651 0.0
C1928 C 0.87863 0.96578 0.35526 0.0
C1929 C 0.872 0.95709 0.38897 0.0
N1930 N 0.82517 0.93371 0.33548 0.0
N1931 N 0.85539 0.93509 0.37835 0.0
H1932 H 0.87835 0.93996 0.11176 0.0
H1933 H 0.79255 0.12154 0.13927 0.0
H1934 H 0.86212 0.02768 0.07896 0.0
H1935 H 0.78504 0.02467 0.16649 0.0
H1936 H 0.83404 0.09325 0.12037 0.0
H1937 H 0.85999 0.97643 0.13478 0.0
C1938 C 0.87167 0.96712 0.10944 0.0
C1939 C 0.87166 0.98074 0.0934 0.0
C1940 C 0.82398 0.0785 0.13074 0.0
C1941 C 0.84989 0.02251 0.11969 0.0
C1942 C 0.80066 0.09474 0.14161 0.0
C1943 C 0.78521 0.0752 0.15431 0.0
C1944 C 0.83195 0.04272 0.13276 0.0
C1945 C 0.79618 0.04046 0.15673 0.0
C1946 C 0.86096 0.98789 0.12259 0.0
C1947 C 0.86214 0.01602 0.09112 0.0
N1948 N 0.81855 0.0252 0.14593 0.0
N1949 N 0.85128 0.03561 0.1041 0.0
H1950 H 0.6639 0.0117 0.95233 0.0
H1951 H 0.6707 0.09329 0.86361 0.0
H1952 H 0.59548 0.9805 0.913 0.0
H1953 H 0.74058 0.11794 0.9035 0.0
H1954 H 0.62987 0.06683 0.88349 0.0
H1955 H 0.67662 0.06597 0.93757 0.0
C1956 C 0.65 0.01724 0.94098 0.0
C1957 C 0.62873 0.9916 0.93384 0.0
C1958 C 0.65363 0.07902 0.88795 0.0
C1959 C 0.64504 0.05248 0.91624 0.0
C1960 C 0.67679 0.09431 0.87661 0.0
C1961 C 0.70916 0.10733 0.88196 0.0
C1962 C 0.66309 0.07691 0.90468 0.0
C1963 C 0.71602 0.10773 0.89889 0.0
C1964 C 0.65779 0.04796 0.93235 0.0
C1965 C 0.61195 0.99975 0.91894 0.0
N1966 N 0.69351 0.09227 0.90959 0.0
N1967 N 0.62139 0.02893 0.91033 0.0
H1968 H 0.76465 0.56478 0.81983 0.0
H1969 H 0.83434 0.5856 0.91219 0.0
H1970 H 0.72637 0.64343 0.8531 0.0
H1971 H 0.85227 0.49552 0.8815 0.0
H1972 H 0.80641 0.61541 0.88874 0.0
H1973 H 0.81045 0.54931 0.83973 0.0
C1974 C 0.76713 0.58015 0.83094 0.0
C1975 C 0.74208 0.6059 0.83466 0.0
C1976 C 0.81722 0.58938 0.88706 0.0
C1977 C 0.79324 0.58706 0.85799 0.0
C1978 C 0.83317 0.57231 0.90046 0.0
C1979 C 0.84637 0.53803 0.89883 0.0
C1980 C 0.81437 0.57212 0.87187 0.0
C1981 C 0.84372 0.52218 0.88331 0.0
C1982 C 0.79281 0.57079 0.84249 0.0
C1983 C 0.74564 0.62394 0.8496 0.0
N1984 N 0.82796 0.53918 0.87053 0.0
N1985 N 0.77027 0.61382 0.86082 0.0
H1986 H 0.62204 0.51796 0.10257 0.0
H1987 H 0.78923 0.62541 0.13329 0.0
H1988 H 0.70597 0.55337 0.07126 0.0
H1989 H 0.703 0.60053 0.16548 0.0
H1990 H 0.75513 0.60461 0.11002 0.0
H1991 H 0.64602 0.55376 0.12497 0.0
C1992 C 0.64487 0.53383 0.1002 0.0
C1993 C 0.66238 0.53182 0.08502 0.0
C1994 C 0.74331 0.60407 0.12211 0.0
C1995 C 0.69026 0.57282 0.11071 0.0
C1996 C 0.76282 0.61634 0.13547 0.0
C1997 C 0.74904 0.61533 0.15147 0.0
C1998 C 0.70969 0.58988 0.12462 0.0
C1999 C 0.71482 0.60201 0.15341 0.0
C2000 C 0.65877 0.55418 0.11308 0.0
C2001 C 0.69174 0.55361 0.08278 0.0
N2002 N 0.69652 0.58954 0.14022 0.0
N2003 N 0.70495 0.57257 0.09546 0.0
H2004 H 0.78992 0.36294 0.36205 0.0
H2005 H 0.61892 0.47046 0.38444 0.0
H2006 H 0.70962 0.39314 0.32735 0.0
H2007 H 0.70501 0.45164 0.41755 0.0
H2008 H 0.64159 0.4245 0.36634 0.0
H2009 H 0.7502 0.37791 0.38456 0.0
C2010 C 0.76363 0.37181 0.35913 0.0
C2011 C 0.75344 0.37755 0.34274 0.0
C2012 C 0.65483 0.42941 0.37788 0.0
C2013 C 0.70785 0.39512 0.36853 0.0
C2014 C 0.64144 0.45521 0.38839 0.0
C2015 C 0.66015 0.46482 0.4025 0.0
C2016 C 0.68724 0.41341 0.38153 0.0
C2017 C 0.68976 0.44487 0.40679 0.0
C2018 C 0.74095 0.38051 0.37203 0.0
C2019 C 0.71889 0.38891 0.33979 0.0
N2020 N 0.70289 0.42073 0.39617 0.0
N2021 N 0.69763 0.39793 0.35252 0.0
H2022 H 0.79631 0.40923 0.67005 0.0
H2023 H 0.76603 0.48661 0.58102 0.0
H2024 H 0.70974 0.37974 0.63891 0.0
H2025 H 0.86642 0.49275 0.60515 0.0
H2026 H 0.74718 0.4434 0.60132 0.0
H2027 H 0.82456 0.43692 0.64622 0.0
C2028 C 0.78347 0.40816 0.65818 0.0
C2029 C 0.75055 0.39219 0.6565 0.0
C2030 C 0.77361 0.45356 0.60205 0.0
C2031 C 0.78256 0.42388 0.62926 0.0
C2032 C 0.78439 0.47812 0.59041 0.0
C2033 C 0.81777 0.49315 0.59145 0.0
C2034 C 0.79601 0.44468 0.61515 0.0
C2035 C 0.84054 0.48149 0.60389 0.0
C2036 C 0.79967 0.4238 0.64458 0.0
C2037 C 0.73518 0.39146 0.64082 0.0
N2038 N 0.82898 0.45843 0.6155 0.0
N2039 N 0.75109 0.40741 0.6279 0.0
H2040 H 0.27394 0.35841 0.14636 0.0
H2041 H 0.14491 0.51415 0.14851 0.0
H2042 H 0.24665 0.41097 0.19128 0.0
H2043 H 0.1466 0.44145 0.10817 0.0
H2044 H 0.17267 0.46997 0.16605 0.0
H2045 H 0.21928 0.37923 0.13395 0.0
C2046 C 0.25545 0.37278 0.1539 0.0
C2047 C 0.26464 0.38273 0.16991 0.0
C2048 C 0.16609 0.4631 0.15352 0.0
C2049 C 0.20298 0.40856 0.15549 0.0
C2050 C 0.15005 0.48834 0.14353 0.0
C2051 C 0.14354 0.4814 0.12689 0.0
C2052 C 0.17687 0.43105 0.14667 0.0
C2053 C 0.15103 0.44772 0.12097 0.0
C2054 C 0.22441 0.38513 0.14673 0.0
C2055 C 0.2403 0.40233 0.17897 0.0
N2056 N 0.16821 0.42409 0.13073 0.0
N2057 N 0.21107 0.41545 0.1715 0.0
H2058 H 0.32146 0.48556 0.89751 0.0
H2059 H 0.20886 0.39231 0.84425 0.0
H2060 H 0.22543 0.53032 0.91616 0.0
H2061 H 0.1385 0.478 0.85472 0.0
H2062 H 0.24698 0.41168 0.86685 0.0
H2063 H 0.28684 0.45096 0.87794 0.0
C2064 C 0.29313 0.48748 0.89776 0.0
C2065 C 0.27638 0.51117 0.90837 0.0
C2066 C 0.22325 0.42624 0.86418 0.0
C2067 C 0.23663 0.47175 0.88614 0.0
C2068 C 0.20124 0.41489 0.85145 0.0
C2069 C 0.17051 0.43361 0.84765 0.0
C2070 C 0.21417 0.45642 0.87313 0.0
C2071 C 0.16207 0.46297 0.85717 0.0
C2072 C 0.27333 0.46766 0.8866 0.0
C2073 C 0.2396 0.51281 0.90808 0.0
N2074 N 0.1837 0.47336 0.86944 0.0
N2075 N 0.22113 0.49384 0.89702 0.0
H2076 H 0.39934 0.5649 0.57974 0.0
H2077 H 0.30676 0.58368 0.66759 0.0
H2078 H 0.38873 0.47866 0.61379 0.0
H2079 H 0.29187 0.65497 0.62706 0.0
H2080 H 0.35192 0.5527 0.65168 0.0
H2081 H 0.37535 0.60442 0.60039 0.0
C2082 C 0.39264 0.55429 0.5917 0.0
C2083 C 0.39575 0.51812 0.59487 0.0
C2084 C 0.33972 0.5759 0.6465 0.0
C2085 C 0.36773 0.56375 0.61875 0.0
C2086 C 0.31448 0.59415 0.65573 0.0
C2087 C 0.29594 0.62253 0.64881 0.0
C2088 C 0.34675 0.58627 0.63023 0.0
C2089 C 0.30598 0.63381 0.63305 0.0
C2090 C 0.37876 0.57699 0.60349 0.0
C2091 C 0.38678 0.50624 0.61072 0.0
N2092 N 0.3303 0.6155 0.62426 0.0
N2093 N 0.37273 0.52887 0.62198 0.0
H2094 H 0.08848 0.51284 0.38429 0.0
H2095 H 0.22746 0.66259 0.36446 0.0
H2096 H 0.15719 0.55844 0.42024 0.0
H2097 H 0.18043 0.59446 0.32867 0.0
H2098 H 0.18575 0.64096 0.38513 0.0
H2099 H 0.10516 0.55878 0.3647 0.0
C2100 C 0.10565 0.53368 0.38835 0.0
C2101 C 0.12104 0.53217 0.404 0.0
C2102 C 0.18371 0.6317 0.3726 0.0
C2103 C 0.14162 0.58398 0.38138 0.0
C2104 C 0.20716 0.64449 0.36072 0.0
C2105 C 0.20729 0.6304 0.3448 0.0
C2106 C 0.16011 0.60485 0.36846 0.0
C2107 C 0.18107 0.60615 0.34077 0.0
C2108 C 0.11565 0.55959 0.37706 0.0
C2109 C 0.14421 0.55908 0.4084 0.0
N2110 N 0.15893 0.59379 0.35255 0.0
N2111 N 0.15429 0.58351 0.39707 0.0
H2112 H 0.26642 0.0842 0.26839 0.0
H2113 H 0.16761 0.91798 0.23076 0.0
H2114 H 0.17081 0.04353 0.28925 0.0
H2115 H 0.24683 0.97749 0.20523 0.0
H2116 H 0.17225 0.95879 0.25406 0.0
H2117 H 0.26198 0.0418 0.24618 0.0
C2118 C 0.24418 0.0666 0.26813 0.0
C2119 C 0.21888 0.06741 0.2806 0.0
C2120 C 0.18878 0.96262 0.24339 0.0
C2121 C 0.21402 0.01811 0.25542 0.0
C2122 C 0.18649 0.93912 0.23023 0.0
C2123 C 0.20681 0.94454 0.21609 0.0
C2124 C 0.21182 0.99127 0.24234 0.0
C2125 C 0.23056 0.97251 0.21589 0.0
C2126 C 0.24174 0.04225 0.25551 0.0
C2127 C 0.19065 0.04396 0.27974 0.0
N2128 N 0.23231 0.99484 0.22876 0.0
N2129 N 0.18912 0.01994 0.26741 0.0
H2130 H 0.19128 0.8235 0.54546 0.0
H2131 H 0.3302 0.85385 0.497 0.0
H2132 H 0.13803 0.84386 0.49971 0.0
H2133 H 0.27061 0.81211 0.45647 0.0
H2134 H 0.28461 0.83372 0.51583 0.0
H2135 H 0.24181 0.80108 0.53011 0.0
C2136 C 0.18944 0.82134 0.5322 0.0
C2137 C 0.16086 0.83602 0.52374 0.0
C2138 C 0.28213 0.82763 0.5029 0.0
C2139 C 0.21863 0.8119 0.50622 0.0
C2140 C 0.30814 0.83942 0.49211 0.0
C2141 C 0.30368 0.83565 0.4751 0.0
C2142 C 0.25142 0.81235 0.49655 0.0
C2143 C 0.27466 0.81649 0.46947 0.0
C2144 C 0.21859 0.80928 0.52345 0.0
C2145 C 0.15982 0.833 0.50662 0.0
N2146 N 0.24915 0.80652 0.4801 0.0
N2147 N 0.1887 0.82198 0.49837 0.0
H2148 H 0.32243 0.1304 0.72044 0.0
H2149 H 0.328 0.93938 0.7599 0.0
H2150 H 0.26456 0.04196 0.70197 0.0
H2151 H 0.34781 0.03059 0.78972 0.0
H2152 H 0.31278 0.97787 0.73694 0.0
H2153 H 0.33592 0.09641 0.74553 0.0
C2154 C 0.31153 0.1044 0.72192 0.0
C2155 C 0.29254 0.08882 0.70912 0.0
C2156 C 0.32067 0.98948 0.74849 0.0
C2157 C 0.30905 0.0496 0.73717 0.0
C2158 C 0.32988 0.96748 0.76153 0.0
C2159 C 0.33904 0.98173 0.77678 0.0
C2160 C 0.32094 0.02605 0.75062 0.0
C2161 C 0.34072 0.01848 0.77817 0.0
C2162 C 0.31968 0.08484 0.73608 0.0
C2163 C 0.27954 0.05481 0.71151 0.0
N2164 N 0.33163 0.03944 0.76526 0.0
N2165 N 0.28853 0.03617 0.72508 0.0
H2166 H 0.22233 0.04606 0.94879 0.0
H2167 H 0.2426 0.14029 0.03555 0.0
H2168 H 0.14124 0.11223 0.96904 0.0
H2169 H 0.32884 0.09529 0.00843 0.0
H2170 H 0.20389 0.12883 0.01222 0.0
H2171 H 0.25932 0.05917 0.97233 0.0
C2172 C 0.21202 0.0629 0.95835 0.0
C2173 C 0.1787 0.07832 0.95686 0.0
C2174 C 0.23137 0.12188 0.01131 0.0
C2175 C 0.22137 0.09398 0.98377 0.0
C2176 C 0.25357 0.12865 0.02456 0.0
C2177 C 0.28902 0.11858 0.02397 0.0
C2178 C 0.24463 0.10454 0.99746 0.0
C2179 C 0.30176 0.10358 0.00943 0.0
C2180 C 0.23337 0.07068 0.97171 0.0
C2181 C 0.16673 0.09976 0.96969 0.0
N2182 N 0.27947 0.09659 0.99684 0.0
N2183 N 0.18821 0.10721 0.98258 0.0
H2184 H 0.83532 0.01118 0.72383 0.0
H2185 H 0.82785 0.0114 0.82171 0.0
H2186 H 0.84669 0.91542 0.75186 0.0
H2187 H 0.78689 0.09404 0.7908 0.0
H2188 H 0.84027 0.97668 0.79708 0.0
H2189 H 0.82488 0.04306 0.74902 0.0
C2190 C 0.83582 0.99675 0.73532 0.0
C2191 C 0.84165 0.96036 0.73566 0.0
C2192 C 0.82855 1.00242 0.79574 0.0
C2193 C 0.82943 0.99721 0.76482 0.0
C2194 C 0.82141 0.02231 0.80977 0.0
C2195 C 0.80671 0.05609 0.80834 0.0
C2196 C 0.82122 0.01652 0.78016 0.0
C2197 C 0.79883 0.06863 0.79255 0.0
C2198 C 0.82967 0.01509 0.74975 0.0
C2199 C 0.84229 0.94342 0.75103 0.0
N2200 N 0.80637 0.04899 0.77912 0.0
N2201 N 0.83612 0.96201 0.76505 0.0
H2202 H 0.78437 0.06034 0.53838 0.0
H2203 H 0.78131 0.09492 0.4414 0.0
H2204 H 0.68935 0.08574 0.51195 0.0
H2205 H 0.87496 0.07473 0.46979 0.0
H2206 H 0.74676 0.09239 0.46675 0.0
H2207 H 0.81729 0.06544 0.51301 0.0
C2208 C 0.77033 0.06694 0.52721 0.0
C2209 C 0.73396 0.07262 0.52732 0.0
C2210 C 0.77488 0.08867 0.4674 0.0
C2211 C 0.77184 0.07864 0.49803 0.0
C2212 C 0.79465 0.09018 0.45295 0.0
C2213 C 0.83111 0.08491 0.45346 0.0
C2214 C 0.79172 0.08179 0.48243 0.0
C2215 C 0.84695 0.07885 0.46877 0.0
C2216 C 0.78925 0.06994 0.51268 0.0
C2217 C 0.71735 0.08111 0.51241 0.0
N2218 N 0.82715 0.07734 0.4826 0.0
N2219 N 0.73645 0.08387 0.49833 0.0
H2220 H 0.64854 0.03936 0.30404 0.0
H2221 H 0.608 0.05612 0.20836 0.0
H2222 H 0.61106 0.95409 0.27406 0.0
H2223 H 0.68567 0.11907 0.23293 0.0
H2224 H 0.5928 0.02908 0.23458 0.0
H2225 H 0.64602 0.07807 0.28011 0.0
C2226 C 0.63906 0.02887 0.29251 0.0
C2227 C 0.63045 0.99318 0.29099 0.0
C2228 C 0.61271 0.04926 0.23428 0.0
C2229 C 0.62739 0.03762 0.26366 0.0
C2230 C 0.62142 0.06479 0.21935 0.0
C2231 C 0.64856 0.08955 0.21845 0.0
C2232 C 0.63117 0.05858 0.24846 0.0
C2233 C 0.6646 0.10017 0.2331 0.0
C2234 C 0.63781 0.05105 0.27887 0.0
C2235 C 0.61825 0.98127 0.27576 0.0
N2236 N 0.65599 0.08422 0.24755 0.0
N2237 N 0.61734 0.00341 0.26263 0.0
H2238 H 0.88491 0.88016 0.99709 0.0
H2239 H 0.69336 0.83655 0.98743 0.0
H2240 H 0.83483 0.82099 0.03565 0.0
H2241 H 0.76264 0.82931 0.94564 0.0
H2242 H 0.74385 0.82604 0.00561 0.0
H2243 H 0.84165 0.85783 0.97758 0.0
C2244 C 0.86558 0.86137 0.00128 0.0
C2245 C 0.86341 0.85219 0.01789 0.0
C2246 C 0.74768 0.82569 0.99242 0.0
C2247 C 0.81288 0.82814 0.99601 0.0
C2248 C 0.7189 0.83166 0.98207 0.0
C2249 C 0.72407 0.8348 0.96507 0.0
C2250 C 0.78153 0.82343 0.98562 0.0
C2251 C 0.75769 0.82812 0.95874 0.0
C2252 C 0.8408 0.84875 0.99021 0.0
C2253 C 0.83749 0.82834 0.02286 0.0
N2254 N 0.78531 0.82369 0.96902 0.0
N2255 N 0.81243 0.81796 0.01206 0.0
H2256 H 0.61986 0.46893 0.80567 0.0
H2257 H 0.59797 0.39717 0.71461 0.0
H2258 H 0.61019 0.53612 0.76302 0.0
H2259 H 0.656 0.34448 0.75291 0.0
H2260 H 0.57924 0.4415 0.73455 0.0
H2261 H 0.61097 0.41806 0.78827 0.0
C2262 C 0.61555 0.47312 0.79265 0.0
C2263 C 0.6166 0.50693 0.78573 0.0
C2264 C 0.59496 0.41947 0.73868 0.0
C2265 C 0.60586 0.44846 0.76582 0.0
C2266 C 0.60517 0.39388 0.72741 0.0
C2267 C 0.62866 0.36737 0.73221 0.0
C2268 C 0.60788 0.41786 0.75481 0.0
C2269 C 0.63785 0.36459 0.74882 0.0
C2270 C 0.61029 0.44396 0.78277 0.0
C2271 C 0.61019 0.51053 0.76881 0.0
N2272 N 0.62784 0.3899 0.75951 0.0
N2273 N 0.60548 0.48152 0.75936 0.0
H2274 H 0.81278 0.38612 0.94958 0.0
H2275 H 0.66387 0.44302 0.99336 0.0
H2276 H 0.85075 0.43442 0.99397 0.0
H2277 H 0.70392 0.37411 0.03105 0.0
H2278 H 0.71504 0.42886 0.97627 0.0
H2279 H 0.75765 0.37208 0.96375 0.0
C2280 C 0.81023 0.39234 0.96251 0.0
C2281 C 0.83637 0.41161 0.97063 0.0
C2282 C 0.71187 0.41585 0.98804 0.0
C2283 C 0.77379 0.39516 0.98681 0.0
C2284 C 0.68259 0.42367 0.99771 0.0
C2285 C 0.67946 0.4094 0.01355 0.0
C2286 C 0.73876 0.39478 0.99454 0.0
C2287 C 0.70517 0.3854 0.01885 0.0
C2288 C 0.77867 0.38456 0.97049 0.0
C2289 C 0.83131 0.41952 0.9873 0.0
N2290 N 0.73447 0.37985 0.00963 0.0
N2291 N 0.80046 0.4115 0.99482 0.0
H2292 H 0.87093 0.42198 0.25306 0.0
H2293 H 0.8498 0.61842 0.24869 0.0
H2294 H 0.89548 0.48142 0.29646 0.0
H2295 H 0.90179 0.56688 0.20841 0.0
H2296 H 0.8671 0.56984 0.26685 0.0
H2297 H 0.8831 0.47397 0.23615 0.0
C2298 C 0.88011 0.44568 0.25895 0.0
C2299 C 0.88266 0.44744 0.2761 0.0
C2300 C 0.87569 0.56972 0.25416 0.0
C2301 C 0.89483 0.50725 0.25702 0.0
C2302 C 0.86592 0.59745 0.24383 0.0
C2303 C 0.87455 0.59668 0.22709 0.0
C2304 C 0.89293 0.54045 0.24752 0.0
C2305 C 0.89495 0.56861 0.2213 0.0
C2306 C 0.88694 0.47532 0.24933 0.0
C2307 C 0.89378 0.47897 0.28322 0.0
N2308 N 0.90254 0.54104 0.23138 0.0
N2309 N 0.89849 0.508 0.27368 0.0
H2310 H 0.77231 0.60026 0.43481 0.0
H2311 H 0.77393 0.65421 0.52921 0.0
H2312 H 0.68143 0.63288 0.46249 0.0
H2313 H 0.85113 0.58492 0.50798 0.0
H2314 H 0.74872 0.66359 0.50208 0.0
H2315 H 0.809 0.611 0.459 0.0
C2316 C 0.7602 0.61044 0.44585 0.0
C2317 C 0.72373 0.61528 0.44678 0.0
C2318 C 0.77148 0.64672 0.5033 0.0
C2319 C 0.76545 0.62772 0.47425 0.0
C2320 C 0.78589 0.64129 0.51877 0.0
C2321 C 0.81411 0.61801 0.52087 0.0
C2322 C 0.78522 0.62863 0.48981 0.0
C2323 C 0.82912 0.60272 0.50689 0.0
C2324 C 0.78113 0.61638 0.45962 0.0
C2325 C 0.70937 0.62841 0.46135 0.0
N2326 N 0.81404 0.60782 0.4919 0.0
N2327 N 0.73027 0.63395 0.47456 0.0
H2328 H 0.37605 0.54068 0.3003 0.0
H2329 H 0.37139 0.52147 0.203 0.0
H2330 H 0.33436 0.62043 0.2679 0.0
H2331 H 0.40211 0.43922 0.23674 0.0
H2332 H 0.36883 0.56246 0.22596 0.0
H2333 H 0.39681 0.50822 0.27659 0.0
C2334 C 0.37141 0.55147 0.28815 0.0
C2335 C 0.35278 0.58291 0.28602 0.0
C2336 C 0.37658 0.53556 0.22828 0.0
C2337 C 0.37636 0.54566 0.25875 0.0
C2338 C 0.37813 0.51213 0.21519 0.0
C2339 C 0.38638 0.47669 0.21802 0.0
C2340 C 0.38337 0.52344 0.24427 0.0
C2341 C 0.39514 0.46616 0.23403 0.0
C2342 C 0.38337 0.53293 0.27461 0.0
C2343 C 0.34825 0.59605 0.27004 0.0
N2344 N 0.39302 0.48936 0.24658 0.0
N2345 N 0.35951 0.57703 0.25694 0.0
H2346 H 0.3039 0.51985 0.97745 0.0
H2347 H 0.23999 0.58155 0.0657 0.0
H2348 H 0.32189 0.62376 0.99606 0.0
H2349 H 0.1752 0.515 0.03548 0.0
H2350 H 0.28264 0.58501 0.04367 0.0
H2351 H 0.27006 0.5059 0.00237 0.0
C2352 C 0.30211 0.53913 0.98716 0.0
C2353 C 0.31628 0.57274 0.98496 0.0
C2354 C 0.25927 0.5694 0.04192 0.0
C2355 C 0.27725 0.55729 0.0131 0.0
C2356 C 0.23473 0.56727 0.05449 0.0
C2357 C 0.20351 0.54814 0.05246 0.0
C2358 C 0.25315 0.55191 0.02715 0.0
C2359 C 0.19867 0.53022 0.03757 0.0
C2360 C 0.28229 0.53137 0.00116 0.0
C2361 C 0.31205 0.59734 0.99752 0.0
N2362 N 0.22328 0.53259 0.02542 0.0
N2363 N 0.29288 0.58912 0.01108 0.0
H2364 H 0.24181 0.51325 0.69754 0.0
H2365 H 0.10515 0.40497 0.75042 0.0
H2366 H 0.13913 0.55182 0.71049 0.0
H2367 H 0.21105 0.41556 0.76799 0.0
H2368 H 0.12002 0.44106 0.72647 0.0
H2369 H 0.23266 0.46243 0.71582 0.0
C2370 C 0.21742 0.51098 0.70428 0.0
C2371 C 0.19129 0.53681 0.70276 0.0
C2372 C 0.14034 0.43422 0.73524 0.0
C2373 C 0.1802 0.47842 0.72277 0.0
C2374 C 0.13211 0.41309 0.74869 0.0
C2375 C 0.15703 0.40726 0.76105 0.0
C2376 C 0.17382 0.44902 0.73413 0.0
C2377 C 0.19133 0.41925 0.75855 0.0
C2378 C 0.21222 0.48203 0.71454 0.0
C2379 C 0.16006 0.53271 0.71157 0.0
N2380 N 0.1987 0.4402 0.74544 0.0
N2381 N 0.15522 0.50381 0.72111 0.0
H2382 H 0.25059 0.40828 0.44377 0.0
H2383 H 0.3061 0.38783 0.53823 0.0
H2384 H 0.17455 0.41137 0.48306 0.0
H2385 H 0.37559 0.41962 0.49926 0.0
H2386 H 0.25841 0.38184 0.51797 0.0
H2387 H 0.29671 0.39852 0.4638 0.0
C2388 C 0.24343 0.40683 0.45664 0.0
C2389 C 0.20844 0.41118 0.46169 0.0
C2390 C 0.28433 0.38927 0.51383 0.0
C2391 C 0.26187 0.39973 0.48489 0.0
C2392 C 0.31164 0.39211 0.52532 0.0
C2393 C 0.34487 0.40372 0.5203 0.0
C2394 C 0.29061 0.39778 0.49726 0.0
C2395 C 0.35046 0.41015 0.50355 0.0
C2396 C 0.26997 0.40117 0.4681 0.0
C2397 C 0.20113 0.40852 0.4786 0.0
N2398 N 0.32363 0.40722 0.49267 0.0
N2399 N 0.22768 0.40317 0.48963 0.0
loop_
_geom_bond_atom_site_label_1
_geom_bond_atom_site_label_2
_geom_bond_distance
_geom_bond_site_symmetry_2
_ccdc_geom_bond_type
Zn0 O6 1.920 . S
Zn0 O12 1.898 . S
Zn0 O15 1.905 . S
Zn1 O9 1.905 . S
Zn1 O10 1.898 . S
Zn1 O18 1.920 . S
Zn2 O5 2.080 . S
Zn2 O8 2.114 . S
Zn2 O11 2.120 . S
Zn2 O13 2.120 . S
Zn2 O14 2.114 . S
Zn2 O17 2.080 . S
C3 O8 1.166 . S
C3 O9 1.182 . S
C4 O10 1.167 . S
C4 O11 1.299 . S
O5 Zn2 2.080 . S
O5 C19 1.305 . S
O6 Zn0 1.920 . S
O6 C19 1.234 . S
C7 O12 1.167 . S
C7 O13 1.299 . S
O8 Zn2 2.114 . S
O8 C3 1.166 . S
O9 Zn1 1.905 . S
O9 C3 1.182 . S
O10 Zn1 1.898 . S
O10 C4 1.167 . S
O11 Zn2 2.120 . S
O11 C4 1.299 . S
O12 Zn0 1.898 . S
O12 C7 1.167 . S
O13 Zn2 2.120 . S
O13 C7 1.299 . S
O14 Zn2 2.114 . S
O14 C16 1.166 . S
O15 Zn0 1.905 . S
O15 C16 1.182 . S
C16 O14 1.166 . S
C16 O15 1.182 . S
O17 Zn2 2.080 . S
O17 C20 1.305 . S
O18 Zn1 1.920 . S
O18 C20 1.234 . S
C19 O5 1.305 . S
C19 O6 1.234 . S
C20 O17 1.305 . S
C20 O18 1.234 . S
Zn21 O27 1.920 . S
Zn21 O33 1.898 . S
Zn21 O36 1.905 . S
Zn22 O30 1.905 . S
Zn22 O31 1.898 . S
Zn22 O39 1.920 . S
Zn23 O26 2.080 . S
Zn23 O29 2.114 . S
Zn23 O32 2.120 . S
Zn23 O34 2.120 . S
Zn23 O35 2.114 . S
Zn23 O38 2.080 . S
C24 O29 1.166 . S
C24 O30 1.182 . S
C25 O31 1.167 . S
C25 O32 1.299 . S
O26 Zn23 2.080 . S
O26 C40 1.305 . S
O27 Zn21 1.920 . S
O27 C40 1.234 . S
C28 O33 1.167 . S
C28 O34 1.299 . S
O29 Zn23 2.114 . S
O29 C24 1.166 . S
O30 Zn22 1.905 . S
O30 C24 1.182 . S
O31 Zn22 1.898 . S
O31 C25 1.167 . S
O32 Zn23 2.120 . S
O32 C25 1.299 . S
O33 Zn21 1.898 . S
O33 C28 1.167 . S
O34 Zn23 2.120 . S
O34 C28 1.299 . S
O35 Zn23 2.114 . S
O35 C37 1.166 . S
O36 Zn21 1.905 . S
O36 C37 1.182 . S
C37 O35 1.166 . S
C37 O36 1.182 . S
O38 Zn23 2.080 . S
O38 C41 1.305 . S
O39 Zn22 1.920 . S
O39 C41 1.234 . S
C40 O26 1.305 . S
C40 O27 1.234 . S
C41 O38 1.305 . S
C41 O39 1.234 . S
Zn42 O48 1.920 . S
Zn42 O54 1.898 . S
Zn42 O57 1.905 . S
Zn43 O51 1.905 . S
Zn43 O52 1.898 . S
Zn43 O60 1.920 . S
Zn44 O47 2.080 . S
Zn44 O50 2.114 . S
Zn44 O53 2.120 . S
Zn44 O55 2.120 . S
Zn44 O56 2.114 . S
Zn44 O59 2.080 . S
C45 O50 1.166 . S
C45 O51 1.182 . S
C46 O52 1.167 . S
C46 O53 1.299 . S
O47 Zn44 2.080 . S
O47 C61 1.305 . S
O48 Zn42 1.920 . S
O48 C61 1.234 . S
C49 O54 1.167 . S
C49 O55 1.299 . S
O50 Zn44 2.114 . S
O50 C45 1.166 . S
O51 Zn43 1.905 . S
O51 C45 1.182 . S
O52 Zn43 1.898 . S
O52 C46 1.167 . S
O53 Zn44 2.120 . S
O53 C46 1.299 . S
O54 Zn42 1.898 . S
O54 C49 1.167 . S
O55 Zn44 2.120 . S
O55 C49 1.299 . S
O56 Zn44 2.114 . S
O56 C58 1.166 . S
O57 Zn42 1.905 . S
O57 C58 1.182 . S
C58 O56 1.166 . S
C58 O57 1.182 . S
O59 Zn44 2.080 . S
O59 C62 1.305 . S
O60 Zn43 1.920 . S
O60 C62 1.234 . S
C61 O47 1.305 . S
C61 O48 1.234 . S
C62 O59 1.305 . S
C62 O60 1.234 . S
Zn63 O69 1.920 . S
Zn63 O75 1.898 . S
Zn63 O78 1.905 . S
Zn64 O72 1.905 . S
Zn64 O73 1.898 . S
Zn64 O81 1.920 . S
Zn65 O68 2.080 . S
Zn65 O71 2.114 . S
Zn65 O74 2.120 . S
Zn65 O76 2.120 . S
Zn65 O77 2.114 . S
Zn65 O80 2.080 . S
C66 O71 1.166 . S
C66 O72 1.182 . S
C67 O73 1.167 . S
C67 O74 1.299 . S
O68 Zn65 2.080 . S
O68 C82 1.305 . S
O69 Zn63 1.920 . S
O69 C82 1.234 . S
C70 O75 1.167 . S
C70 O76 1.299 . S
O71 Zn65 2.114 . S
O71 C66 1.166 . S
O72 Zn64 1.905 . S
O72 C66 1.182 . S
O73 Zn64 1.898 . S
O73 C67 1.167 . S
O74 Zn65 2.120 . S
O74 C67 1.299 . S
O75 Zn63 1.898 . S
O75 C70 1.167 . S
O76 Zn65 2.120 . S
O76 C70 1.299 . S
O77 Zn65 2.114 . S
O77 C79 1.166 . S
O78 Zn63 1.905 . S
O78 C79 1.182 . S
C79 O77 1.166 . S
C79 O78 1.182 . S
O80 Zn65 2.080 . S
O80 C83 1.305 . S
O81 Zn64 1.920 . S
O81 C83 1.234 . S
C82 O68 1.305 . S
C82 O69 1.234 . S
C83 O80 1.305 . S
C83 O81 1.234 . S
Zn84 O90 1.920 . S
Zn84 O96 1.898 . S
Zn84 O99 1.905 . S
Zn85 O93 1.905 . S
Zn85 O94 1.898 . S
Zn85 O102 1.920 . S
Zn86 O89 2.080 . S
Zn86 O92 2.114 . S
Zn86 O95 2.120 . S
Zn86 O97 2.120 . S
Zn86 O98 2.114 . S
Zn86 O101 2.080 . S
C87 O92 1.166 . S
C87 O93 1.182 . S
C88 O94 1.167 . S
C88 O95 1.299 . S
O89 Zn86 2.080 . S
O89 C103 1.305 . S
O90 Zn84 1.920 . S
O90 C103 1.234 . S
C91 O96 1.167 . S
C91 O97 1.299 . S
O92 Zn86 2.114 . S
O92 C87 1.166 . S
O93 Zn85 1.905 . S
O93 C87 1.182 . S
O94 Zn85 1.898 . S
O94 C88 1.167 . S
O95 Zn86 2.120 . S
O95 C88 1.299 . S
O96 Zn84 1.898 . S
O96 C91 1.167 . S
O97 Zn86 2.120 . S
O97 C91 1.299 . S
O98 Zn86 2.114 . S
O98 C100 1.166 . S
O99 Zn84 1.905 . S
O99 C100 1.182 . S
C100 O98 1.166 . S
C100 O99 1.182 . S
O101 Zn86 2.080 . S
O101 C104 1.305 . S
O102 Zn85 1.920 . S
O102 C104 1.234 . S
C103 O89 1.305 . S
C103 O90 1.234 . S
C104 O101 1.305 . S
C104 O102 1.234 . S
Zn105 O111 1.920 . S
Zn105 O117 1.898 . S
Zn105 O120 1.905 . S
Zn106 O114 1.905 . S
Zn106 O115 1.898 . S
Zn106 O123 1.920 . S
Zn107 O110 2.080 . S
Zn107 O113 2.114 . S
Zn107 O116 2.120 . S
Zn107 O118 2.120 . S
Zn107 O119 2.114 . S
Zn107 O122 2.080 . S
C108 O113 1.166 . S
C108 O114 1.182 . S
C109 O115 1.167 . S
C109 O116 1.299 . S
O110 Zn107 2.080 . S
O110 C124 1.305 . S
O111 Zn105 1.920 . S
O111 C124 1.234 . S
C112 O117 1.167 . S
C112 O118 1.299 . S
O113 Zn107 2.114 . S
O113 C108 1.166 . S
O114 Zn106 1.905 . S
O114 C108 1.182 . S
O115 Zn106 1.898 . S
O115 C109 1.167 . S
O116 Zn107 2.120 . S
O116 C109 1.299 . S
O117 Zn105 1.898 . S
O117 C112 1.167 . S
O118 Zn107 2.120 . S
O118 C112 1.299 . S
O119 Zn107 2.114 . S
O119 C121 1.166 . S
O120 Zn105 1.905 . S
O120 C121 1.182 . S
C121 O119 1.166 . S
C121 O120 1.182 . S
O122 Zn107 2.080 . S
O122 C125 1.305 . S
O123 Zn106 1.920 . S
O123 C125 1.234 . S
C124 O110 1.305 . S
C124 O111 1.234 . S
C125 O122 1.305 . S
C125 O123 1.234 . S
Zn126 O132 1.920 . S
Zn126 O138 1.898 . S
Zn126 O141 1.905 . S
Zn127 O135 1.905 . S
Zn127 O136 1.898 . S
Zn127 O144 1.920 . S
Zn128 O131 2.080 . S
Zn128 O134 2.114 . S
Zn128 O137 2.120 . S
Zn128 O139 2.120 . S
Zn128 O140 2.114 . S
Zn128 O143 2.080 . S
C129 O134 1.166 . S
C129 O135 1.182 . S
C130 O136 1.167 . S
C130 O137 1.299 . S
O131 Zn128 2.080 . S
O131 C145 1.305 . S
O132 Zn126 1.920 . S
O132 C145 1.234 . S
C133 O138 1.167 . S
C133 O139 1.299 . S
O134 Zn128 2.114 . S
O134 C129 1.166 . S
O135 Zn127 1.905 . S
O135 C129 1.182 . S
O136 Zn127 1.898 . S
O136 C130 1.167 . S
O137 Zn128 2.120 . S
O137 C130 1.299 . S
O138 Zn126 1.898 . S
O138 C133 1.167 . S
O139 Zn128 2.120 . S
O139 C133 1.299 . S
O140 Zn128 2.114 . S
O140 C142 1.166 . S
O141 Zn126 1.905 . S
O141 C142 1.182 . S
C142 O140 1.166 . S
C142 O141 1.182 . S
O143 Zn128 2.080 . S
O143 C146 1.305 . S
O144 Zn127 1.920 . S
O144 C146 1.234 . S
C145 O131 1.305 . S
C145 O132 1.234 . S
C146 O143 1.305 . S
C146 O144 1.234 . S
Zn147 O153 1.920 . S
Zn147 O159 1.898 . S
Zn147 O162 1.905 . S
Zn148 O156 1.905 . S
Zn148 O157 1.898 . S
Zn148 O165 1.920 . S
Zn149 O152 2.080 . S
Zn149 O155 2.114 . S
Zn149 O158 2.120 . S
Zn149 O160 2.120 . S
Zn149 O161 2.114 . S
Zn149 O164 2.080 . S
C150 O155 1.166 . S
C150 O156 1.182 . S
C151 O157 1.167 . S
C151 O158 1.299 . S
O152 Zn149 2.080 . S
O152 C166 1.305 . S
O153 Zn147 1.920 . S
O153 C166 1.234 . S
C154 O159 1.167 . S
C154 O160 1.299 . S
O155 Zn149 2.114 . S
O155 C150 1.166 . S
O156 Zn148 1.905 . S
O156 C150 1.182 . S
O157 Zn148 1.898 . S
O157 C151 1.167 . S
O158 Zn149 2.120 . S
O158 C151 1.299 . S
O159 Zn147 1.898 . S
O159 C154 1.167 . S
O160 Zn149 2.120 . S
O160 C154 1.299 . S
O161 Zn149 2.114 . S
O161 C163 1.166 . S
O162 Zn147 1.905 . S
O162 C163 1.182 . S
C163 O161 1.166 . S
C163 O162 1.182 . S
O164 Zn149 2.080 . S
O164 C167 1.305 . S
O165 Zn148 1.920 . S
O165 C167 1.234 . S
C166 O152 1.305 . S
C166 O153 1.234 . S
C167 O164 1.305 . S
C167 O165 1.234 . S
Zn168 O174 1.920 . S
Zn168 O180 1.898 . S
Zn168 O183 1.905 . S
Zn169 O177 1.905 . S
Zn169 O178 1.898 . S
Zn169 O186 1.920 . S
Zn170 O173 2.080 . S
Zn170 O176 2.114 . S
Zn170 O179 2.120 . S
Zn170 O181 2.120 . S
Zn170 O182 2.114 . S
Zn170 O185 2.080 . S
C171 O176 1.166 . S
C171 O177 1.182 . S
C172 O178 1.167 . S
C172 O179 1.299 . S
O173 Zn170 2.080 . S
O173 C187 1.305 . S
O174 Zn168 1.920 . S
O174 C187 1.234 . S
C175 O180 1.167 . S
C175 O181 1.299 . S
O176 Zn170 2.114 . S
O176 C171 1.166 . S
O177 Zn169 1.905 . S
O177 C171 1.182 . S
O178 Zn169 1.898 . S
O178 C172 1.167 . S
O179 Zn170 2.120 . S
O179 C172 1.299 . S
O180 Zn168 1.898 . S
O180 C175 1.167 . S
O181 Zn170 2.120 . S
O181 C175 1.299 . S
O182 Zn170 2.114 . S
O182 C184 1.166 . S
O183 Zn168 1.905 . S
O183 C184 1.182 . S
C184 O182 1.166 . S
C184 O183 1.182 . S
O185 Zn170 2.080 . S
O185 C188 1.305 . S
O186 Zn169 1.920 . S
O186 C188 1.234 . S
C187 O173 1.305 . S
C187 O174 1.234 . S
C188 O185 1.305 . S
C188 O186 1.234 . S
Zn189 O195 1.920 . S
Zn189 O201 1.898 . S
Zn189 O204 1.905 . S
Zn190 O198 1.905 . S
Zn190 O199 1.898 . S
Zn190 O207 1.920 . S
Zn191 O194 2.080 . S
Zn191 O197 2.114 . S
Zn191 O200 2.120 . S
Zn191 O202 2.120 . S
Zn191 O203 2.114 . S
Zn191 O206 2.080 . S
C192 O197 1.166 . S
C192 O198 1.182 . S
C193 O199 1.167 . S
C193 O200 1.299 . S
O194 Zn191 2.080 . S
O194 C208 1.305 . S
O195 Zn189 1.920 . S
O195 C208 1.234 . S
C196 O201 1.167 . S
C196 O202 1.299 . S
O197 Zn191 2.114 . S
O197 C192 1.166 . S
O198 Zn190 1.905 . S
O198 C192 1.182 . S
O199 Zn190 1.898 . S
O199 C193 1.167 . S
O200 Zn191 2.120 . S
O200 C193 1.299 . S
O201 Zn189 1.898 . S
O201 C196 1.167 . S
O202 Zn191 2.120 . S
O202 C196 1.299 . S
O203 Zn191 2.114 . S
O203 C205 1.166 . S
O204 Zn189 1.905 . S
O204 C205 1.182 . S
C205 O203 1.166 . S
C205 O204 1.182 . S
O206 Zn191 2.080 . S
O206 C209 1.305 . S
O207 Zn190 1.920 . S
O207 C209 1.234 . S
C208 O194 1.305 . S
C208 O195 1.234 . S
C209 O206 1.305 . S
C209 O207 1.234 . S
Zn210 O216 1.920 . S
Zn210 O222 1.898 . S
Zn210 O225 1.905 . S
Zn211 O219 1.905 . S
Zn211 O220 1.898 . S
Zn211 O228 1.920 . S
Zn212 O215 2.080 . S
Zn212 O218 2.114 . S
Zn212 O221 2.120 . S
Zn212 O223 2.120 . S
Zn212 O224 2.114 . S
Zn212 O227 2.080 . S
C213 O218 1.166 . S
C213 O219 1.182 . S
C214 O220 1.167 . S
C214 O221 1.299 . S
O215 Zn212 2.080 . S
O215 C229 1.305 . S
O216 Zn210 1.920 . S
O216 C229 1.234 . S
C217 O222 1.167 . S
C217 O223 1.299 . S
O218 Zn212 2.114 . S
O218 C213 1.166 . S
O219 Zn211 1.905 . S
O219 C213 1.182 . S
O220 Zn211 1.898 . S
O220 C214 1.167 . S
O221 Zn212 2.120 . S
O221 C214 1.299 . S
O222 Zn210 1.898 . S
O222 C217 1.167 . S
O223 Zn212 2.120 . S
O223 C217 1.299 . S
O224 Zn212 2.114 . S
O224 C226 1.166 . S
O225 Zn210 1.905 . S
O225 C226 1.182 . S
C226 O224 1.166 . S
C226 O225 1.182 . S
O227 Zn212 2.080 . S
O227 C230 1.305 . S
O228 Zn211 1.920 . S
O228 C230 1.234 . S
C229 O215 1.305 . S
C229 O216 1.234 . S
C230 O227 1.305 . S
C230 O228 1.234 . S
Zn231 O237 1.920 . S
Zn231 O243 1.898 . S
Zn231 O246 1.905 . S
Zn232 O240 1.905 . S
Zn232 O241 1.898 . S
Zn232 O249 1.920 . S
Zn233 O236 2.080 . S
Zn233 O239 2.114 . S
Zn233 O242 2.120 . S
Zn233 O244 2.120 . S
Zn233 O245 2.114 . S
Zn233 O248 2.080 . S
C234 O239 1.166 . S
C234 O240 1.182 . S
C235 O241 1.167 . S
C235 O242 1.299 . S
O236 Zn233 2.080 . S
O236 C250 1.305 . S
O237 Zn231 1.920 . S
O237 C250 1.234 . S
C238 O243 1.167 . S
C238 O244 1.299 . S
O239 Zn233 2.114 . S
O239 C234 1.166 . S
O240 Zn232 1.905 . S
O240 C234 1.182 . S
O241 Zn232 1.898 . S
O241 C235 1.167 . S
O242 Zn233 2.120 . S
O242 C235 1.299 . S
O243 Zn231 1.898 . S
O243 C238 1.167 . S
O244 Zn233 2.120 . S
O244 C238 1.299 . S
O245 Zn233 2.114 . S
O245 C247 1.166 . S
O246 Zn231 1.905 . S
O246 C247 1.182 . S
C247 O245 1.166 . S
C247 O246 1.182 . S
O248 Zn233 2.080 . S
O248 C251 1.305 . S
O249 Zn232 1.920 . S
O249 C251 1.234 . S
C250 O236 1.305 . S
C250 O237 1.234 . S
C251 O248 1.305 . S
C251 O249 1.234 . S
Zn252 O258 1.920 . S
Zn252 O264 1.898 . S
Zn252 O267 1.905 . S
Zn253 O261 1.905 . S
Zn253 O262 1.898 . S
Zn253 O270 1.920 . S
Zn254 O257 2.080 . S
Zn254 O260 2.114 . S
Zn254 O263 2.120 . S
Zn254 O265 2.120 . S
Zn254 O266 2.114 . S
Zn254 O269 2.080 . S
C255 O260 1.166 . S
C255 O261 1.182 . S
C256 O262 1.167 . S
C256 O263 1.299 . S
O257 Zn254 2.080 . S
O257 C271 1.305 . S
O258 Zn252 1.920 . S
O258 C271 1.234 . S
C259 O264 1.167 . S
C259 O265 1.299 . S
O260 Zn254 2.114 . S
O260 C255 1.166 . S
O261 Zn253 1.905 . S
O261 C255 1.182 . S
O262 Zn253 1.898 . S
O262 C256 1.167 . S
O263 Zn254 2.120 . S
O263 C256 1.299 . S
O264 Zn252 1.898 . S
O264 C259 1.167 . S
O265 Zn254 2.120 . S
O265 C259 1.299 . S
O266 Zn254 2.114 . S
O266 C268 1.166 . S
O267 Zn252 1.905 . S
O267 C268 1.182 . S
C268 O266 1.166 . S
C268 O267 1.182 . S
O269 Zn254 2.080 . S
O269 C272 1.305 . S
O270 Zn253 1.920 . S
O270 C272 1.234 . S
C271 O257 1.305 . S
C271 O258 1.234 . S
C272 O269 1.305 . S
C272 O270 1.234 . S
Zn273 O279 1.920 . S
Zn273 O285 1.898 . S
Zn273 O288 1.905 . S
Zn274 O282 1.905 . S
Zn274 O283 1.898 . S
Zn274 O291 1.920 . S
Zn275 O278 2.080 . S
Zn275 O281 2.114 . S
Zn275 O284 2.120 . S
Zn275 O286 2.120 . S
Zn275 O287 2.114 . S
Zn275 O290 2.080 . S
C276 O281 1.166 . S
C276 O282 1.182 . S
C277 O283 1.167 . S
C277 O284 1.299 . S
O278 Zn275 2.080 . S
O278 C292 1.305 . S
O279 Zn273 1.920 . S
O279 C292 1.234 . S
C280 O285 1.167 . S
C280 O286 1.299 . S
O281 Zn275 2.114 . S
O281 C276 1.166 . S
O282 Zn274 1.905 . S
O282 C276 1.182 . S
O283 Zn274 1.898 . S
O283 C277 1.167 . S
O284 Zn275 2.120 . S
O284 C277 1.299 . S
O285 Zn273 1.898 . S
O285 C280 1.167 . S
O286 Zn275 2.120 . S
O286 C280 1.299 . S
O287 Zn275 2.114 . S
O287 C289 1.166 . S
O288 Zn273 1.905 . S
O288 C289 1.182 . S
C289 O287 1.166 . S
C289 O288 1.182 . S
O290 Zn275 2.080 . S
O290 C293 1.305 . S
O291 Zn274 1.920 . S
O291 C293 1.234 . S
C292 O278 1.305 . S
C292 O279 1.234 . S
C293 O290 1.305 . S
C293 O291 1.234 . S
Zn294 O300 1.920 . S
Zn294 O306 1.898 . S
Zn294 O309 1.905 . S
Zn295 O303 1.905 . S
Zn295 O304 1.898 . S
Zn295 O312 1.920 . S
Zn296 O299 2.080 . S
Zn296 O302 2.114 . S
Zn296 O305 2.120 . S
Zn296 O307 2.120 . S
Zn296 O308 2.114 . S
Zn296 O311 2.080 . S
C297 O302 1.166 . S
C297 O303 1.182 . S
C298 O304 1.167 . S
C298 O305 1.299 . S
O299 Zn296 2.080 . S
O299 C313 1.305 . S
O300 Zn294 1.920 . S
O300 C313 1.234 . S
C301 O306 1.167 . S
C301 O307 1.299 . S
O302 Zn296 2.114 . S
O302 C297 1.166 . S
O303 Zn295 1.905 . S
O303 C297 1.182 . S
O304 Zn295 1.898 . S
O304 C298 1.167 . S
O305 Zn296 2.120 . S
O305 C298 1.299 . S
O306 Zn294 1.898 . S
O306 C301 1.167 . S
O307 Zn296 2.120 . S
O307 C301 1.299 . S
O308 Zn296 2.114 . S
O308 C310 1.166 . S
O309 Zn294 1.905 . S
O309 C310 1.182 . S
C310 O308 1.166 . S
C310 O309 1.182 . S
O311 Zn296 2.080 . S
O311 C314 1.305 . S
O312 Zn295 1.920 . S
O312 C314 1.234 . S
C313 O299 1.305 . S
C313 O300 1.234 . S
C314 O311 1.305 . S
C314 O312 1.234 . S
Zn315 O321 1.920 . S
Zn315 O327 1.898 . S
Zn315 O330 1.905 . S
Zn316 O324 1.905 . S
Zn316 O325 1.898 . S
Zn316 O333 1.920 . S
Zn317 O320 2.080 . S
Zn317 O323 2.114 . S
Zn317 O326 2.120 . S
Zn317 O328 2.120 . S
Zn317 O329 2.114 . S
Zn317 O332 2.080 . S
C318 O323 1.166 . S
C318 O324 1.182 . S
C319 O325 1.167 . S
C319 O326 1.299 . S
O320 Zn317 2.080 . S
O320 C334 1.305 . S
O321 Zn315 1.920 . S
O321 C334 1.234 . S
C322 O327 1.167 . S
C322 O328 1.299 . S
O323 Zn317 2.114 . S
O323 C318 1.166 . S
O324 Zn316 1.905 . S
O324 C318 1.182 . S
O325 Zn316 1.898 . S
O325 C319 1.167 . S
O326 Zn317 2.120 . S
O326 C319 1.299 . S
O327 Zn315 1.898 . S
O327 C322 1.167 . S
O328 Zn317 2.120 . S
O328 C322 1.299 . S
O329 Zn317 2.114 . S
O329 C331 1.166 . S
O330 Zn315 1.905 . S
O330 C331 1.182 . S
C331 O329 1.166 . S
C331 O330 1.182 . S
O332 Zn317 2.080 . S
O332 C335 1.305 . S
O333 Zn316 1.920 . S
O333 C335 1.234 . S
C334 O320 1.305 . S
C334 O321 1.234 . S
C335 O332 1.305 . S
C335 O333 1.234 . S
Zn336 O342 1.920 . S
Zn336 O348 1.898 . S
Zn336 O351 1.905 . S
Zn337 O345 1.905 . S
Zn337 O346 1.898 . S
Zn337 O354 1.920 . S
Zn338 O341 2.080 . S
Zn338 O344 2.114 . S
Zn338 O347 2.120 . S
Zn338 O349 2.120 . S
Zn338 O350 2.114 . S
Zn338 O353 2.080 . S
C339 O344 1.166 . S
C339 O345 1.182 . S
C340 O346 1.167 . S
C340 O347 1.299 . S
O341 Zn338 2.080 . S
O341 C355 1.305 . S
O342 Zn336 1.920 . S
O342 C355 1.234 . S
C343 O348 1.167 . S
C343 O349 1.299 . S
O344 Zn338 2.114 . S
O344 C339 1.166 . S
O345 Zn337 1.905 . S
O345 C339 1.182 . S
O346 Zn337 1.898 . S
O346 C340 1.167 . S
O347 Zn338 2.120 . S
O347 C340 1.299 . S
O348 Zn336 1.898 . S
O348 C343 1.167 . S
O349 Zn338 2.120 . S
O349 C343 1.299 . S
O350 Zn338 2.114 . S
O350 C352 1.166 . S
O351 Zn336 1.905 . S
O351 C352 1.182 . S
C352 O350 1.166 . S
C352 O351 1.182 . S
O353 Zn338 2.080 . S
O353 C356 1.305 . S
O354 Zn337 1.920 . S
O354 C356 1.234 . S
C355 O341 1.305 . S
C355 O342 1.234 . S
C356 O353 1.305 . S
C356 O354 1.234 . S
Zn357 O363 1.920 . S
Zn357 O369 1.898 . S
Zn357 O372 1.905 . S
Zn358 O366 1.905 . S
Zn358 O367 1.898 . S
Zn358 O375 1.920 . S
Zn359 O362 2.080 . S
Zn359 O365 2.114 . S
Zn359 O368 2.120 . S
Zn359 O370 2.120 . S
Zn359 O371 2.114 . S
Zn359 O374 2.080 . S
C360 O365 1.166 . S
C360 O366 1.182 . S
C361 O367 1.167 . S
C361 O368 1.299 . S
O362 Zn359 2.080 . S
O362 C376 1.305 . S
O363 Zn357 1.920 . S
O363 C376 1.234 . S
C364 O369 1.167 . S
C364 O370 1.299 . S
O365 Zn359 2.114 . S
O365 C360 1.166 . S
O366 Zn358 1.905 . S
O366 C360 1.182 . S
O367 Zn358 1.898 . S
O367 C361 1.167 . S
O368 Zn359 2.120 . S
O368 C361 1.299 . S
O369 Zn357 1.898 . S
O369 C364 1.167 . S
O370 Zn359 2.120 . S
O370 C364 1.299 . S
O371 Zn359 2.114 . S
O371 C373 1.166 . S
O372 Zn357 1.905 . S
O372 C373 1.182 . S
C373 O371 1.166 . S
C373 O372 1.182 . S
O374 Zn359 2.080 . S
O374 C377 1.305 . S
O375 Zn358 1.920 . S
O375 C377 1.234 . S
C376 O362 1.305 . S
C376 O363 1.234 . S
C377 O374 1.305 . S
C377 O375 1.234 . S
Zn378 O384 1.920 . S
Zn378 O390 1.898 . S
Zn378 O393 1.905 . S
Zn379 O387 1.905 . S
Zn379 O388 1.898 . S
Zn379 O396 1.920 . S
Zn380 O383 2.080 . S
Zn380 O386 2.114 . S
Zn380 O389 2.120 . S
Zn380 O391 2.120 . S
Zn380 O392 2.114 . S
Zn380 O395 2.080 . S
C381 O386 1.166 . S
C381 O387 1.182 . S
C382 O388 1.167 . S
C382 O389 1.299 . S
O383 Zn380 2.080 . S
O383 C397 1.305 . S
O384 Zn378 1.920 . S
O384 C397 1.234 . S
C385 O390 1.167 . S
C385 O391 1.299 . S
O386 Zn380 2.114 . S
O386 C381 1.166 . S
O387 Zn379 1.905 . S
O387 C381 1.182 . S
O388 Zn379 1.898 . S
O388 C382 1.167 . S
O389 Zn380 2.120 . S
O389 C382 1.299 . S
O390 Zn378 1.898 . S
O390 C385 1.167 . S
O391 Zn380 2.120 . S
O391 C385 1.299 . S
O392 Zn380 2.114 . S
O392 C394 1.166 . S
O393 Zn378 1.905 . S
O393 C394 1.182 . S
C394 O392 1.166 . S
C394 O393 1.182 . S
O395 Zn380 2.080 . S
O395 C398 1.305 . S
O396 Zn379 1.920 . S
O396 C398 1.234 . S
C397 O383 1.305 . S
C397 O384 1.234 . S
C398 O395 1.305 . S
C398 O396 1.234 . S
Zn399 O405 1.920 . S
Zn399 O411 1.898 . S
Zn399 O414 1.905 . S
Zn400 O408 1.905 . S
Zn400 O409 1.898 . S
Zn400 O417 1.920 . S
Zn401 O404 2.080 . S
Zn401 O407 2.114 . S
Zn401 O410 2.120 . S
Zn401 O412 2.120 . S
Zn401 O413 2.114 . S
Zn401 O416 2.080 . S
C402 O407 1.166 . S
C402 O408 1.182 . S
C403 O409 1.167 . S
C403 O410 1.299 . S
O404 Zn401 2.080 . S
O404 C418 1.305 . S
O405 Zn399 1.920 . S
O405 C418 1.234 . S
C406 O411 1.167 . S
C406 O412 1.299 . S
O407 Zn401 2.114 . S
O407 C402 1.166 . S
O408 Zn400 1.905 . S
O408 C402 1.182 . S
O409 Zn400 1.898 . S
O409 C403 1.167 . S
O410 Zn401 2.120 . S
O410 C403 1.299 . S
O411 Zn399 1.898 . S
O411 C406 1.167 . S
O412 Zn401 2.120 . S
O412 C406 1.299 . S
O413 Zn401 2.114 . S
O413 C415 1.166 . S
O414 Zn399 1.905 . S
O414 C415 1.182 . S
C415 O413 1.166 . S
C415 O414 1.182 . S
O416 Zn401 2.080 . S
O416 C419 1.305 . S
O417 Zn400 1.920 . S
O417 C419 1.234 . S
C418 O404 1.305 . S
C418 O405 1.234 . S
C419 O416 1.305 . S
C419 O417 1.234 . S
Zn420 O426 1.920 . S
Zn420 O432 1.898 . S
Zn420 O435 1.905 . S
Zn421 O429 1.905 . S
Zn421 O430 1.898 . S
Zn421 O438 1.920 . S
Zn422 O425 2.080 . S
Zn422 O428 2.114 . S
Zn422 O431 2.120 . S
Zn422 O433 2.120 . S
Zn422 O434 2.114 . S
Zn422 O437 2.080 . S
C423 O428 1.166 . S
C423 O429 1.182 . S
C424 O430 1.167 . S
C424 O431 1.299 . S
O425 Zn422 2.080 . S
O425 C439 1.305 . S
O426 Zn420 1.920 . S
O426 C439 1.234 . S
C427 O432 1.167 . S
C427 O433 1.299 . S
O428 Zn422 2.114 . S
O428 C423 1.166 . S
O429 Zn421 1.905 . S
O429 C423 1.182 . S
O430 Zn421 1.898 . S
O430 C424 1.167 . S
O431 Zn422 2.120 . S
O431 C424 1.299 . S
O432 Zn420 1.898 . S
O432 C427 1.167 . S
O433 Zn422 2.120 . S
O433 C427 1.299 . S
O434 Zn422 2.114 . S
O434 C436 1.166 . S
O435 Zn420 1.905 . S
O435 C436 1.182 . S
C436 O434 1.166 . S
C436 O435 1.182 . S
O437 Zn422 2.080 . S
O437 C440 1.305 . S
O438 Zn421 1.920 . S
O438 C440 1.234 . S
C439 O425 1.305 . S
C439 O426 1.234 . S
C440 O437 1.305 . S
C440 O438 1.234 . S
Zn441 O447 1.920 . S
Zn441 O453 1.898 . S
Zn441 O456 1.905 . S
Zn442 O450 1.905 . S
Zn442 O451 1.898 . S
Zn442 O459 1.920 . S
Zn443 O446 2.080 . S
Zn443 O449 2.114 . S
Zn443 O452 2.120 . S
Zn443 O454 2.120 . S
Zn443 O455 2.114 . S
Zn443 O458 2.080 . S
C444 O449 1.166 . S
C444 O450 1.182 . S
C445 O451 1.167 . S
C445 O452 1.299 . S
O446 Zn443 2.080 . S
O446 C460 1.305 . S
O447 Zn441 1.920 . S
O447 C460 1.234 . S
C448 O453 1.167 . S
C448 O454 1.299 . S
O449 Zn443 2.114 . S
O449 C444 1.166 . S
O450 Zn442 1.905 . S
O450 C444 1.182 . S
O451 Zn442 1.898 . S
O451 C445 1.167 . S
O452 Zn443 2.120 . S
O452 C445 1.299 . S
O453 Zn441 1.898 . S
O453 C448 1.167 . S
O454 Zn443 2.120 . S
O454 C448 1.299 . S
O455 Zn443 2.114 . S
O455 C457 1.166 . S
O456 Zn441 1.905 . S
O456 C457 1.182 . S
C457 O455 1.166 . S
C457 O456 1.182 . S
O458 Zn443 2.080 . S
O458 C461 1.305 . S
O459 Zn442 1.920 . S
O459 C461 1.234 . S
C460 O446 1.305 . S
C460 O447 1.234 . S
C461 O458 1.305 . S
C461 O459 1.234 . S
Zn462 O468 1.920 . S
Zn462 O474 1.898 . S
Zn462 O477 1.905 . S
Zn463 O471 1.905 . S
Zn463 O472 1.898 . S
Zn463 O480 1.920 . S
Zn464 O467 2.080 . S
Zn464 O470 2.114 . S
Zn464 O473 2.120 . S
Zn464 O475 2.120 . S
Zn464 O476 2.114 . S
Zn464 O479 2.080 . S
C465 O470 1.166 . S
C465 O471 1.182 . S
C466 O472 1.167 . S
C466 O473 1.299 . S
O467 Zn464 2.080 . S
O467 C481 1.305 . S
O468 Zn462 1.920 . S
O468 C481 1.234 . S
C469 O474 1.167 . S
C469 O475 1.299 . S
O470 Zn464 2.114 . S
O470 C465 1.166 . S
O471 Zn463 1.905 . S
O471 C465 1.182 . S
O472 Zn463 1.898 . S
O472 C466 1.167 . S
O473 Zn464 2.120 . S
O473 C466 1.299 . S
O474 Zn462 1.898 . S
O474 C469 1.167 . S
O475 Zn464 2.120 . S
O475 C469 1.299 . S
O476 Zn464 2.114 . S
O476 C478 1.166 . S
O477 Zn462 1.905 . S
O477 C478 1.182 . S
C478 O476 1.166 . S
C478 O477 1.182 . S
O479 Zn464 2.080 . S
O479 C482 1.305 . S
O480 Zn463 1.920 . S
O480 C482 1.234 . S
C481 O467 1.305 . S
C481 O468 1.234 . S
C482 O479 1.305 . S
C482 O480 1.234 . S
Zn483 O489 1.920 . S
Zn483 O495 1.898 . S
Zn483 O498 1.905 . S
Zn484 O492 1.905 . S
Zn484 O493 1.898 . S
Zn484 O501 1.920 . S
Zn485 O488 2.080 . S
Zn485 O491 2.114 . S
Zn485 O494 2.120 . S
Zn485 O496 2.120 . S
Zn485 O497 2.114 . S
Zn485 O500 2.080 . S
C486 O491 1.166 . S
C486 O492 1.182 . S
C487 O493 1.167 . S
C487 O494 1.299 . S
O488 Zn485 2.080 . S
O488 C502 1.305 . S
O489 Zn483 1.920 . S
O489 C502 1.234 . S
C490 O495 1.167 . S
C490 O496 1.299 . S
O491 Zn485 2.114 . S
O491 C486 1.166 . S
O492 Zn484 1.905 . S
O492 C486 1.182 . S
O493 Zn484 1.898 . S
O493 C487 1.167 . S
O494 Zn485 2.120 . S
O494 C487 1.299 . S
O495 Zn483 1.898 . S
O495 C490 1.167 . S
O496 Zn485 2.120 . S
O496 C490 1.299 . S
O497 Zn485 2.114 . S
O497 C499 1.166 . S
O498 Zn483 1.905 . S
O498 C499 1.182 . S
C499 O497 1.166 . S
C499 O498 1.182 . S
O500 Zn485 2.080 . S
O500 C503 1.305 . S
O501 Zn484 1.920 . S
O501 C503 1.234 . S
C502 O488 1.305 . S
C502 O489 1.234 . S
C503 O500 1.305 . S
C503 O501 1.234 . S
Zn504 O510 1.920 . S
Zn504 O516 1.898 . S
Zn504 O519 1.905 . S
Zn505 O513 1.905 . S
Zn505 O514 1.898 . S
Zn505 O522 1.920 . S
Zn506 O509 2.080 . S
Zn506 O512 2.114 . S
Zn506 O515 2.120 . S
Zn506 O517 2.120 . S
Zn506 O518 2.114 . S
Zn506 O521 2.080 . S
C507 O512 1.166 . S
C507 O513 1.182 . S
C508 O514 1.167 . S
C508 O515 1.299 . S
O509 Zn506 2.080 . S
O509 C523 1.305 . S
O510 Zn504 1.920 . S
O510 C523 1.234 . S
C511 O516 1.167 . S
C511 O517 1.299 . S
O512 Zn506 2.114 . S
O512 C507 1.166 . S
O513 Zn505 1.905 . S
O513 C507 1.182 . S
O514 Zn505 1.898 . S
O514 C508 1.167 . S
O515 Zn506 2.120 . S
O515 C508 1.299 . S
O516 Zn504 1.898 . S
O516 C511 1.167 . S
O517 Zn506 2.120 . S
O517 C511 1.299 . S
O518 Zn506 2.114 . S
O518 C520 1.166 . S
O519 Zn504 1.905 . S
O519 C520 1.182 . S
C520 O518 1.166 . S
C520 O519 1.182 . S
O521 Zn506 2.080 . S
O521 C524 1.305 . S
O522 Zn505 1.920 . S
O522 C524 1.234 . S
C523 O509 1.305 . S
C523 O510 1.234 . S
C524 O521 1.305 . S
C524 O522 1.234 . S
Zn525 O531 1.920 . S
Zn525 O537 1.898 . S
Zn525 O540 1.905 . S
Zn526 O534 1.905 . S
Zn526 O535 1.898 . S
Zn526 O543 1.920 . S
Zn527 O530 2.080 . S
Zn527 O533 2.114 . S
Zn527 O536 2.120 . S
Zn527 O538 2.120 . S
Zn527 O539 2.114 . S
Zn527 O542 2.080 . S
C528 O533 1.166 . S
C528 O534 1.182 . S
C529 O535 1.167 . S
C529 O536 1.299 . S
O530 Zn527 2.080 . S
O530 C544 1.305 . S
O531 Zn525 1.920 . S
O531 C544 1.234 . S
C532 O537 1.167 . S
C532 O538 1.299 . S
O533 Zn527 2.114 . S
O533 C528 1.166 . S
O534 Zn526 1.905 . S
O534 C528 1.182 . S
O535 Zn526 1.898 . S
O535 C529 1.167 . S
O536 Zn527 2.120 . S
O536 C529 1.299 . S
O537 Zn525 1.898 . S
O537 C532 1.167 . S
O538 Zn527 2.120 . S
O538 C532 1.299 . S
O539 Zn527 2.114 . S
O539 C541 1.166 . S
O540 Zn525 1.905 . S
O540 C541 1.182 . S
C541 O539 1.166 . S
C541 O540 1.182 . S
O542 Zn527 2.080 . S
O542 C545 1.305 . S
O543 Zn526 1.920 . S
O543 C545 1.234 . S
C544 O530 1.305 . S
C544 O531 1.234 . S
C545 O542 1.305 . S
C545 O543 1.234 . S
Zn546 O552 1.920 . S
Zn546 O558 1.898 . S
Zn546 O561 1.905 . S
Zn547 O555 1.905 . S
Zn547 O556 1.898 . S
Zn547 O564 1.920 . S
Zn548 O551 2.080 . S
Zn548 O554 2.114 . S
Zn548 O557 2.120 . S
Zn548 O559 2.120 . S
Zn548 O560 2.114 . S
Zn548 O563 2.080 . S
C549 O554 1.166 . S
C549 O555 1.182 . S
C550 O556 1.167 . S
C550 O557 1.299 . S
O551 Zn548 2.080 . S
O551 C565 1.305 . S
O552 Zn546 1.920 . S
O552 C565 1.234 . S
C553 O558 1.167 . S
C553 O559 1.299 . S
O554 Zn548 2.114 . S
O554 C549 1.166 . S
O555 Zn547 1.905 . S
O555 C549 1.182 . S
O556 Zn547 1.898 . S
O556 C550 1.167 . S
O557 Zn548 2.120 . S
O557 C550 1.299 . S
O558 Zn546 1.898 . S
O558 C553 1.167 . S
O559 Zn548 2.120 . S
O559 C553 1.299 . S
O560 Zn548 2.114 . S
O560 C562 1.166 . S
O561 Zn546 1.905 . S
O561 C562 1.182 . S
C562 O560 1.166 . S
C562 O561 1.182 . S
O563 Zn548 2.080 . S
O563 C566 1.305 . S
O564 Zn547 1.920 . S
O564 C566 1.234 . S
C565 O551 1.305 . S
C565 O552 1.234 . S
C566 O563 1.305 . S
C566 O564 1.234 . S
Zn567 O573 1.920 . S
Zn567 O579 1.898 . S
Zn567 O582 1.905 . S
Zn568 O576 1.905 . S
Zn568 O577 1.898 . S
Zn568 O585 1.920 . S
Zn569 O572 2.080 . S
Zn569 O575 2.114 . S
Zn569 O578 2.120 . S
Zn569 O580 2.120 . S
Zn569 O581 2.114 . S
Zn569 O584 2.080 . S
C570 O575 1.166 . S
C570 O576 1.182 . S
C571 O577 1.167 . S
C571 O578 1.299 . S
O572 Zn569 2.080 . S
O572 C586 1.305 . S
O573 Zn567 1.920 . S
O573 C586 1.234 . S
C574 O579 1.167 . S
C574 O580 1.299 . S
O575 Zn569 2.114 . S
O575 C570 1.166 . S
O576 Zn568 1.905 . S
O576 C570 1.182 . S
O577 Zn568 1.898 . S
O577 C571 1.167 . S
O578 Zn569 2.120 . S
O578 C571 1.299 . S
O579 Zn567 1.898 . S
O579 C574 1.167 . S
O580 Zn569 2.120 . S
O580 C574 1.299 . S
O581 Zn569 2.114 . S
O581 C583 1.166 . S
O582 Zn567 1.905 . S
O582 C583 1.182 . S
C583 O581 1.166 . S
C583 O582 1.182 . S
O584 Zn569 2.080 . S
O584 C587 1.305 . S
O585 Zn568 1.920 . S
O585 C587 1.234 . S
C586 O572 1.305 . S
C586 O573 1.234 . S
C587 O584 1.305 . S
C587 O585 1.234 . S
Zn588 O594 1.920 . S
Zn588 O600 1.898 . S
Zn588 O603 1.905 . S
Zn589 O597 1.905 . S
Zn589 O598 1.898 . S
Zn589 O606 1.920 . S
Zn590 O593 2.080 . S
Zn590 O596 2.114 . S
Zn590 O599 2.120 . S
Zn590 O601 2.120 . S
Zn590 O602 2.114 . S
Zn590 O605 2.080 . S
C591 O596 1.166 . S
C591 O597 1.182 . S
C592 O598 1.167 . S
C592 O599 1.299 . S
O593 Zn590 2.080 . S
O593 C607 1.305 . S
O594 Zn588 1.920 . S
O594 C607 1.234 . S
C595 O600 1.167 . S
C595 O601 1.299 . S
O596 Zn590 2.114 . S
O596 C591 1.166 . S
O597 Zn589 1.905 . S
O597 C591 1.182 . S
O598 Zn589 1.898 . S
O598 C592 1.167 . S
O599 Zn590 2.120 . S
O599 C592 1.299 . S
O600 Zn588 1.898 . S
O600 C595 1.167 . S
O601 Zn590 2.120 . S
O601 C595 1.299 . S
O602 Zn590 2.114 . S
O602 C604 1.166 . S
O603 Zn588 1.905 . S
O603 C604 1.182 . S
C604 O602 1.166 . S
C604 O603 1.182 . S
O605 Zn590 2.080 . S
O605 C608 1.305 . S
O606 Zn589 1.920 . S
O606 C608 1.234 . S
C607 O593 1.305 . S
C607 O594 1.234 . S
C608 O605 1.305 . S
C608 O606 1.234 . S
Zn609 O615 1.920 . S
Zn609 O621 1.898 . S
Zn609 O624 1.905 . S
Zn610 O618 1.905 . S
Zn610 O619 1.898 . S
Zn610 O627 1.920 . S
Zn611 O614 2.080 . S
Zn611 O617 2.114 . S
Zn611 O620 2.120 . S
Zn611 O622 2.120 . S
Zn611 O623 2.114 . S
Zn611 O626 2.080 . S
C612 O617 1.166 . S
C612 O618 1.182 . S
C613 O619 1.167 . S
C613 O620 1.299 . S
O614 Zn611 2.080 . S
O614 C628 1.305 . S
O615 Zn609 1.920 . S
O615 C628 1.234 . S
C616 O621 1.167 . S
C616 O622 1.299 . S
O617 Zn611 2.114 . S
O617 C612 1.166 . S
O618 Zn610 1.905 . S
O618 C612 1.182 . S
O619 Zn610 1.898 . S
O619 C613 1.167 . S
O620 Zn611 2.120 . S
O620 C613 1.299 . S
O621 Zn609 1.898 . S
O621 C616 1.167 . S
O622 Zn611 2.120 . S
O622 C616 1.299 . S
O623 Zn611 2.114 . S
O623 C625 1.166 . S
O624 Zn609 1.905 . S
O624 C625 1.182 . S
C625 O623 1.166 . S
C625 O624 1.182 . S
O626 Zn611 2.080 . S
O626 C629 1.305 . S
O627 Zn610 1.920 . S
O627 C629 1.234 . S
C628 O614 1.305 . S
C628 O615 1.234 . S
C629 O626 1.305 . S
C629 O627 1.234 . S
Zn630 O636 1.920 . S
Zn630 O642 1.898 . S
Zn630 O645 1.905 . S
Zn631 O639 1.905 . S
Zn631 O640 1.898 . S
Zn631 O648 1.920 . S
Zn632 O635 2.080 . S
Zn632 O638 2.114 . S
Zn632 O641 2.120 . S
Zn632 O643 2.120 . S
Zn632 O644 2.114 . S
Zn632 O647 2.080 . S
C633 O638 1.166 . S
C633 O639 1.182 . S
C634 O640 1.167 . S
C634 O641 1.299 . S
O635 Zn632 2.080 . S
O635 C649 1.305 . S
O636 Zn630 1.920 . S
O636 C649 1.234 . S
C637 O642 1.167 . S
C637 O643 1.299 . S
O638 Zn632 2.114 . S
O638 C633 1.166 . S
O639 Zn631 1.905 . S
O639 C633 1.182 . S
O640 Zn631 1.898 . S
O640 C634 1.167 . S
O641 Zn632 2.120 . S
O641 C634 1.299 . S
O642 Zn630 1.898 . S
O642 C637 1.167 . S
O643 Zn632 2.120 . S
O643 C637 1.299 . S
O644 Zn632 2.114 . S
O644 C646 1.166 . S
O645 Zn630 1.905 . S
O645 C646 1.182 . S
C646 O644 1.166 . S
C646 O645 1.182 . S
O647 Zn632 2.080 . S
O647 C650 1.305 . S
O648 Zn631 1.920 . S
O648 C650 1.234 . S
C649 O635 1.305 . S
C649 O636 1.234 . S
C650 O647 1.305 . S
C650 O648 1.234 . S
Zn651 O657 1.920 . S
Zn651 O663 1.898 . S
Zn651 O666 1.905 . S
Zn652 O660 1.905 . S
Zn652 O661 1.898 . S
Zn652 O669 1.920 . S
Zn653 O656 2.080 . S
Zn653 O659 2.114 . S
Zn653 O662 2.120 . S
Zn653 O664 2.120 . S
Zn653 O665 2.114 . S
Zn653 O668 2.080 . S
C654 O659 1.166 . S
C654 O660 1.182 . S
C655 O661 1.167 . S
C655 O662 1.299 . S
O656 Zn653 2.080 . S
O656 C670 1.305 . S
O657 Zn651 1.920 . S
O657 C670 1.234 . S
C658 O663 1.167 . S
C658 O664 1.299 . S
O659 Zn653 2.114 . S
O659 C654 1.166 . S
O660 Zn652 1.905 . S
O660 C654 1.182 . S
O661 Zn652 1.898 . S
O661 C655 1.167 . S
O662 Zn653 2.120 . S
O662 C655 1.299 . S
O663 Zn651 1.898 . S
O663 C658 1.167 . S
O664 Zn653 2.120 . S
O664 C658 1.299 . S
O665 Zn653 2.114 . S
O665 C667 1.166 . S
O666 Zn651 1.905 . S
O666 C667 1.182 . S
C667 O665 1.166 . S
C667 O666 1.182 . S
O668 Zn653 2.080 . S
O668 C671 1.305 . S
O669 Zn652 1.920 . S
O669 C671 1.234 . S
C670 O656 1.305 . S
C670 O657 1.234 . S
C671 O668 1.305 . S
C671 O669 1.234 . S
H672 C678 0.930 . S
H673 C682 0.930 . S
H674 C687 0.929 . S
H675 C685 0.929 . S
H676 C680 0.929 . S
H677 C686 0.929 . S
C678 H672 0.930 . S
C678 C679 1.367 . S
C678 C686 1.378 . S
C679 C678 1.367 . S
C679 C687 1.433 . S
C680 H676 0.929 . S
C680 C682 1.378 . S
C680 C684 1.350 . S
C681 C684 1.463 . S
C681 C686 1.350 . S
C681 N689 1.427 . S
C682 H673 0.930 . S
C682 C680 1.378 . S
C682 C683 1.367 . S
C683 C682 1.367 . S
C683 C685 1.433 . S
C684 C680 1.350 . S
C684 C681 1.463 . S
C684 N688 1.427 . S
C685 H675 0.929 . S
C685 C683 1.433 . S
C685 N688 1.384 . S
C686 H677 0.929 . S
C686 C678 1.378 . S
C686 C681 1.350 . S
C687 H674 0.929 . S
C687 C679 1.433 . S
C687 N689 1.384 . S
N688 C684 1.427 . S
N688 C685 1.384 . S
N689 C681 1.427 . S
N689 C687 1.384 . S
H690 C696 0.930 . S
H691 C700 0.930 . S
H692 C705 0.929 . S
H693 C703 0.929 . S
H694 C698 0.929 . S
H695 C704 0.929 1_655 S
C696 H690 0.930 . S
C696 C697 1.367 . S
C696 C704 1.378 . S
C697 C696 1.367 . S
C697 C705 1.433 . S
C698 H694 0.929 . S
C698 C700 1.378 . S
C698 C702 1.350 . S
C699 C702 1.463 . S
C699 C704 1.350 1_655 S
C699 N707 1.427 1_655 S
C700 H691 0.930 . S
C700 C698 1.378 . S
C700 C701 1.367 . S
C701 C700 1.367 . S
C701 C703 1.433 . S
C702 C698 1.350 . S
C702 C699 1.463 . S
C702 N706 1.427 . S
C703 H693 0.929 . S
C703 C701 1.433 . S
C703 N706 1.384 . S
C704 H695 0.929 1_455 S
C704 C696 1.378 . S
C704 C699 1.350 1_455 S
C705 H692 0.929 . S
C705 C697 1.433 . S
C705 N707 1.384 . S
N706 C702 1.427 . S
N706 C703 1.384 . S
N707 C699 1.427 1_455 S
N707 C705 1.384 . S
H708 C714 0.930 . S
H709 C718 0.930 . S
H710 C723 0.929 . S
H711 C721 0.929 . S
H712 C716 0.929 . S
H713 C722 0.929 . S
C714 H708 0.930 . S
C714 C715 1.367 . S
C714 C722 1.378 . S
C715 C714 1.367 . S
C715 C723 1.433 . S
C716 H712 0.929 . S
C716 C718 1.378 . S
C716 C720 1.350 . S
C717 C720 1.463 . S
C717 C722 1.350 . S
C717 N725 1.427 . S
C718 H709 0.930 . S
C718 C716 1.378 . S
C718 C719 1.367 . S
C719 C718 1.367 . S
C719 C721 1.433 . S
C720 C716 1.350 . S
C720 C717 1.463 . S
C720 N724 1.427 . S
C721 H711 0.929 . S
C721 C719 1.433 . S
C721 N724 1.384 . S
C722 H713 0.929 . S
C722 C714 1.378 . S
C722 C717 1.350 . S
C723 H710 0.929 . S
C723 C715 1.433 . S
C723 N725 1.384 . S
N724 C720 1.427 . S
N724 C721 1.384 . S
N725 C717 1.427 . S
N725 C723 1.384 . S
H726 C732 0.930 . S
H727 C736 0.930 . S
H728 C741 0.929 . S
H729 C739 0.929 . S
H730 C734 0.929 . S
H731 C740 0.929 . S
C732 H726 0.930 . S
C732 C733 1.367 . S
C732 C740 1.378 . S
C733 C732 1.367 . S
C733 C741 1.433 . S
C734 H730 0.929 . S
C734 C736 1.378 . S
C734 C738 1.350 . S
C735 C738 1.463 . S
C735 C740 1.350 . S
C735 N743 1.427 . S
C736 H727 0.930 . S
C736 C734 1.378 . S
C736 C737 1.367 . S
C737 C736 1.367 . S
C737 C739 1.433 . S
C738 C734 1.350 . S
C738 C735 1.463 . S
C738 N742 1.427 . S
C739 H729 0.929 . S
C739 C737 1.433 . S
C739 N742 1.384 . S
C740 H731 0.929 . S
C740 C732 1.378 . S
C740 C735 1.350 . S
C741 H728 0.929 . S
C741 C733 1.433 . S
C741 N743 1.384 . S
N742 C738 1.427 . S
N742 C739 1.384 . S
N743 C735 1.427 . S
N743 C741 1.384 . S
H744 C750 0.930 . S
H745 C754 0.930 . S
H746 C759 0.929 . S
H747 C757 0.929 . S
H748 C752 0.929 . S
H749 C758 0.929 . S
C750 H744 0.930 . S
C750 C751 1.367 . S
C750 C758 1.378 . S
C751 C750 1.367 . S
C751 C759 1.433 . S
C752 H748 0.929 . S
C752 C754 1.378 . S
C752 C756 1.350 . S
C753 C756 1.463 . S
C753 C758 1.350 . S
C753 N761 1.427 . S
C754 H745 0.930 . S
C754 C752 1.378 . S
C754 C755 1.367 . S
C755 C754 1.367 . S
C755 C757 1.433 . S
C756 C752 1.350 . S
C756 C753 1.463 . S
C756 N760 1.427 . S
C757 H747 0.929 . S
C757 C755 1.433 . S
C757 N760 1.384 . S
C758 H749 0.929 . S
C758 C750 1.378 . S
C758 C753 1.350 . S
C759 H746 0.929 . S
C759 C751 1.433 . S
C759 N761 1.384 . S
N760 C756 1.427 . S
N760 C757 1.384 . S
N761 C753 1.427 . S
N761 C759 1.384 . S
H762 C768 0.930 . S
H763 C772 0.930 . S
H764 C777 0.929 . S
H765 C775 0.929 . S
H766 C770 0.929 . S
H767 C776 0.929 . S
C768 H762 0.930 . S
C768 C769 1.367 . S
C768 C776 1.378 . S
C769 C768 1.367 . S
C769 C777 1.433 . S
C770 H766 0.929 . S
C770 C772 1.378 . S
C770 C774 1.350 . S
C771 C774 1.463 . S
C771 C776 1.350 . S
C771 N779 1.427 . S
C772 H763 0.930 . S
C772 C770 1.378 . S
C772 C773 1.367 . S
C773 C772 1.367 . S
C773 C775 1.433 . S
C774 C770 1.350 . S
C774 C771 1.463 . S
C774 N778 1.427 . S
C775 H765 0.929 . S
C775 C773 1.433 . S
C775 N778 1.384 . S
C776 H767 0.929 . S
C776 C768 1.378 . S
C776 C771 1.350 . S
C777 H764 0.929 . S
C777 C769 1.433 . S
C777 N779 1.384 . S
N778 C774 1.427 . S
N778 C775 1.384 . S
N779 C771 1.427 . S
N779 C777 1.384 . S
H780 C786 0.930 . S
H781 C790 0.930 . S
H782 C795 0.929 . S
H783 C793 0.929 . S
H784 C788 0.929 . S
H785 C794 0.929 . S
C786 H780 0.930 . S
C786 C787 1.367 . S
C786 C794 1.378 . S
C787 C786 1.367 . S
C787 C795 1.433 . S
C788 H784 0.929 . S
C788 C790 1.378 . S
C788 C792 1.350 . S
C789 C792 1.463 . S
C789 C794 1.350 . S
C789 N797 1.427 . S
C790 H781 0.930 . S
C790 C788 1.378 . S
C790 C791 1.367 . S
C791 C790 1.367 . S
C791 C793 1.433 . S
C792 C788 1.350 . S
C792 C789 1.463 . S
C792 N796 1.427 . S
C793 H783 0.929 . S
C793 C791 1.433 . S
C793 N796 1.384 . S
C794 H785 0.929 . S
C794 C786 1.378 . S
C794 C789 1.350 . S
C795 H782 0.929 . S
C795 C787 1.433 . S
C795 N797 1.384 . S
N796 C792 1.427 . S
N796 C793 1.384 . S
N797 C789 1.427 . S
N797 C795 1.384 . S
H798 C804 0.930 . S
H799 C808 0.930 . S
H800 C813 0.929 . S
H801 C811 0.929 . S
H802 C806 0.929 . S
H803 C812 0.929 . S
C804 H798 0.930 . S
C804 C805 1.367 . S
C804 C812 1.378 . S
C805 C804 1.367 . S
C805 C813 1.433 . S
C806 H802 0.929 . S
C806 C808 1.378 . S
C806 C810 1.350 . S
C807 C810 1.463 . S
C807 C812 1.350 1_655 S
C807 N815 1.427 1_655 S
C808 H799 0.930 . S
C808 C806 1.378 . S
C808 C809 1.367 . S
C809 C808 1.367 . S
C809 C811 1.433 . S
C810 C806 1.350 . S
C810 C807 1.463 . S
C810 N814 1.427 . S
C811 H801 0.929 . S
C811 C809 1.433 . S
C811 N814 1.384 . S
C812 H803 0.929 . S
C812 C804 1.378 . S
C812 C807 1.350 1_455 S
C813 H800 0.929 . S
C813 C805 1.433 . S
C813 N815 1.384 . S
N814 C810 1.427 . S
N814 C811 1.384 . S
N815 C807 1.427 1_455 S
N815 C813 1.384 . S
H816 C822 0.930 . S
H817 C826 0.930 . S
H818 C831 0.929 . S
H819 C829 0.929 . S
H820 C824 0.929 . S
H821 C830 0.929 . S
C822 H816 0.930 . S
C822 C823 1.367 . S
C822 C830 1.378 . S
C823 C822 1.367 . S
C823 C831 1.433 . S
C824 H820 0.929 . S
C824 C826 1.378 . S
C824 C828 1.350 . S
C825 C828 1.463 . S
C825 C830 1.350 . S
C825 N833 1.427 . S
C826 H817 0.930 . S
C826 C824 1.378 . S
C826 C827 1.367 . S
C827 C826 1.367 . S
C827 C829 1.433 . S
C828 C824 1.350 . S
C828 C825 1.463 . S
C828 N832 1.427 . S
C829 H819 0.929 . S
C829 C827 1.433 . S
C829 N832 1.384 . S
C830 H821 0.929 . S
C830 C822 1.378 . S
C830 C825 1.350 . S
C831 H818 0.929 . S
C831 C823 1.433 . S
C831 N833 1.384 . S
N832 C828 1.427 . S
N832 C829 1.384 . S
N833 C825 1.427 . S
N833 C831 1.384 . S
H834 C840 0.930 . S
H835 C844 0.930 . S
H836 C849 0.929 . S
H837 C847 0.929 . S
H838 C842 0.929 . S
H839 C848 0.929 . S
C840 H834 0.930 . S
C840 C841 1.367 . S
C840 C848 1.378 . S
C841 C840 1.367 . S
C841 C849 1.433 . S
C842 H838 0.929 . S
C842 C844 1.378 . S
C842 C846 1.350 . S
C843 C846 1.463 . S
C843 C848 1.350 1_455 S
C843 N851 1.427 . S
C844 H835 0.930 . S
C844 C842 1.378 . S
C844 C845 1.367 . S
C845 C844 1.367 . S
C845 C847 1.433 . S
C846 C842 1.350 . S
C846 C843 1.463 . S
C846 N850 1.427 . S
C847 H837 0.929 . S
C847 C845 1.433 . S
C847 N850 1.384 . S
C848 H839 0.929 . S
C848 C840 1.378 . S
C848 C843 1.350 1_655 S
C849 H836 0.929 . S
C849 C841 1.433 . S
C849 N851 1.384 1_655 S
N850 C846 1.427 . S
N850 C847 1.384 . S
N851 C843 1.427 . S
N851 C849 1.384 1_455 S
H852 C858 0.930 . S
H853 C862 0.930 . S
H854 C867 0.929 . S
H855 C865 0.929 . S
H856 C860 0.929 . S
H857 C866 0.929 . S
C858 H852 0.930 . S
C858 C859 1.367 . S
C858 C866 1.378 . S
C859 C858 1.367 . S
C859 C867 1.433 . S
C860 H856 0.929 . S
C860 C862 1.378 . S
C860 C864 1.350 . S
C861 C864 1.463 . S
C861 C866 1.350 . S
C861 N869 1.427 . S
C862 H853 0.930 . S
C862 C860 1.378 . S
C862 C863 1.367 . S
C863 C862 1.367 . S
C863 C865 1.433 . S
C864 C860 1.350 . S
C864 C861 1.463 . S
C864 N868 1.427 . S
C865 H855 0.929 . S
C865 C863 1.433 . S
C865 N868 1.384 . S
C866 H857 0.929 . S
C866 C858 1.378 . S
C866 C861 1.350 . S
C867 H854 0.929 . S
C867 C859 1.433 . S
C867 N869 1.384 . S
N868 C864 1.427 . S
N868 C865 1.384 . S
N869 C861 1.427 . S
N869 C867 1.384 . S
H870 C876 0.930 . S
H871 C880 0.930 . S
H872 C885 0.929 . S
H873 C883 0.929 . S
H874 C878 0.929 . S
H875 C884 0.929 . S
C876 H870 0.930 . S
C876 C877 1.367 . S
C876 C884 1.378 . S
C877 C876 1.367 . S
C877 C885 1.433 . S
C878 H874 0.929 . S
C878 C880 1.378 . S
C878 C882 1.350 . S
C879 C882 1.463 . S
C879 C884 1.350 . S
C879 N887 1.427 . S
C880 H871 0.930 . S
C880 C878 1.378 . S
C880 C881 1.367 . S
C881 C880 1.367 . S
C881 C883 1.433 . S
C882 C878 1.350 . S
C882 C879 1.463 . S
C882 N886 1.427 . S
C883 H873 0.929 . S
C883 C881 1.433 . S
C883 N886 1.384 . S
C884 H875 0.929 . S
C884 C876 1.378 . S
C884 C879 1.350 . S
C885 H872 0.929 . S
C885 C877 1.433 . S
C885 N887 1.384 . S
N886 C882 1.427 . S
N886 C883 1.384 . S
N887 C879 1.427 . S
N887 C885 1.384 . S
H888 C894 0.930 . S
H889 C898 0.930 . S
H890 C903 0.929 . S
H891 C901 0.929 . S
H892 C896 0.929 . S
H893 C902 0.929 . S
C894 H888 0.930 . S
C894 C895 1.367 . S
C894 C902 1.378 . S
C895 C894 1.367 . S
C895 C903 1.433 . S
C896 H892 0.929 . S
C896 C898 1.378 . S
C896 C900 1.350 . S
C897 C900 1.463 . S
C897 C902 1.350 . S
C897 N905 1.427 . S
C898 H889 0.930 . S
C898 C896 1.378 . S
C898 C899 1.367 . S
C899 C898 1.367 . S
C899 C901 1.433 . S
C900 C896 1.350 . S
C900 C897 1.463 . S
C900 N904 1.427 . S
C901 H891 0.929 . S
C901 C899 1.433 . S
C901 N904 1.384 . S
C902 H893 0.929 . S
C902 C894 1.378 . S
C902 C897 1.350 . S
C903 H890 0.929 . S
C903 C895 1.433 . S
C903 N905 1.384 . S
N904 C900 1.427 . S
N904 C901 1.384 . S
N905 C897 1.427 . S
N905 C903 1.384 . S
H906 C912 0.930 . S
H907 C916 0.930 . S
H908 C921 0.929 . S
H909 C919 0.929 . S
H910 C914 0.929 . S
H911 C920 0.929 . S
C912 H906 0.930 . S
C912 C913 1.367 . S
C912 C920 1.378 . S
C913 C912 1.367 . S
C913 C921 1.433 . S
C914 H910 0.929 . S
C914 C916 1.378 . S
C914 C918 1.350 . S
C915 C918 1.463 . S
C915 C920 1.350 . S
C915 N923 1.427 . S
C916 H907 0.930 . S
C916 C914 1.378 . S
C916 C917 1.367 . S
C917 C916 1.367 . S
C917 C919 1.433 . S
C918 C914 1.350 . S
C918 C915 1.463 . S
C918 N922 1.427 . S
C919 H909 0.929 . S
C919 C917 1.433 . S
C919 N922 1.384 . S
C920 H911 0.929 . S
C920 C912 1.378 . S
C920 C915 1.350 . S
C921 H908 0.929 . S
C921 C913 1.433 . S
C921 N923 1.384 . S
N922 C918 1.427 . S
N922 C919 1.384 . S
N923 C915 1.427 . S
N923 C921 1.384 . S
H924 C930 0.930 . S
H925 C934 0.930 . S
H926 C939 0.929 . S
H927 C937 0.929 . S
H928 C932 0.929 . S
H929 C938 0.929 . S
C930 H924 0.930 . S
C930 C931 1.367 . S
C930 C938 1.378 . S
C931 C930 1.367 . S
C931 C939 1.433 . S
C932 H928 0.929 . S
C932 C934 1.378 . S
C932 C936 1.350 . S
C933 C936 1.463 . S
C933 C938 1.350 . S
C933 N941 1.427 . S
C934 H925 0.930 . S
C934 C932 1.378 . S
C934 C935 1.367 . S
C935 C934 1.367 . S
C935 C937 1.433 . S
C936 C932 1.350 . S
C936 C933 1.463 . S
C936 N940 1.427 . S
C937 H927 0.929 . S
C937 C935 1.433 . S
C937 N940 1.384 . S
C938 H929 0.929 . S
C938 C930 1.378 . S
C938 C933 1.350 . S
C939 H926 0.929 . S
C939 C931 1.433 . S
C939 N941 1.384 . S
N940 C936 1.427 . S
N940 C937 1.384 . S
N941 C933 1.427 . S
N941 C939 1.384 . S
H942 C948 0.930 . S
H943 C952 0.930 . S
H944 C957 0.929 . S
H945 C955 0.929 . S
H946 C950 0.929 . S
H947 C956 0.929 . S
C948 H942 0.930 . S
C948 C949 1.367 . S
C948 C956 1.378 . S
C949 C948 1.367 . S
C949 C957 1.433 . S
C950 H946 0.929 . S
C950 C952 1.378 1_455 S
C950 C954 1.350 . S
C951 C954 1.463 . S
C951 C956 1.350 . S
C951 N959 1.427 . S
C952 H943 0.930 . S
C952 C950 1.378 1_655 S
C952 C953 1.367 . S
C953 C952 1.367 . S
C953 C955 1.433 . S
C954 C950 1.350 . S
C954 C951 1.463 . S
C954 N958 1.427 1_455 S
C955 H945 0.929 . S
C955 C953 1.433 . S
C955 N958 1.384 . S
C956 H947 0.929 . S
C956 C948 1.378 . S
C956 C951 1.350 . S
C957 H944 0.929 . S
C957 C949 1.433 . S
C957 N959 1.384 . S
N958 C954 1.427 1_655 S
N958 C955 1.384 . S
N959 C951 1.427 . S
N959 C957 1.384 . S
H960 C966 0.930 . S
H961 C970 0.930 . S
H962 C975 0.929 . S
H963 C973 0.929 . S
H964 C968 0.929 . S
H965 C974 0.929 . S
C966 H960 0.930 . S
C966 C967 1.367 . S
C966 C974 1.378 . S
C967 C966 1.367 . S
C967 C975 1.433 . S
C968 H964 0.929 . S
C968 C970 1.378 . S
C968 C972 1.350 . S
C969 C972 1.463 . S
C969 C974 1.350 . S
C969 N977 1.427 . S
C970 H961 0.930 . S
C970 C968 1.378 . S
C970 C971 1.367 . S
C971 C970 1.367 . S
C971 C973 1.433 . S
C972 C968 1.350 . S
C972 C969 1.463 . S
C972 N976 1.427 . S
C973 H963 0.929 . S
C973 C971 1.433 . S
C973 N976 1.384 . S
C974 H965 0.929 . S
C974 C966 1.378 . S
C974 C969 1.350 . S
C975 H962 0.929 . S
C975 C967 1.433 . S
C975 N977 1.384 . S
N976 C972 1.427 . S
N976 C973 1.384 . S
N977 C969 1.427 . S
N977 C975 1.384 . S
H978 C984 0.930 . S
H979 C988 0.930 . S
H980 C993 0.929 . S
H981 C991 0.929 . S
H982 C986 0.929 . S
H983 C992 0.929 . S
C984 H978 0.930 . S
C984 C985 1.367 . S
C984 C992 1.378 . S
C985 C984 1.367 . S
C985 C993 1.433 . S
C986 H982 0.929 . S
C986 C988 1.378 . S
C986 C990 1.350 . S
C987 C990 1.463 . S
C987 C992 1.350 . S
C987 N995 1.427 . S
C988 H979 0.930 . S
C988 C986 1.378 . S
C988 C989 1.367 . S
C989 C988 1.367 . S
C989 C991 1.433 . S
C990 C986 1.350 . S
C990 C987 1.463 . S
C990 N994 1.427 . S
C991 H981 0.929 . S
C991 C989 1.433 . S
C991 N994 1.384 . S
C992 H983 0.929 . S
C992 C984 1.378 . S
C992 C987 1.350 . S
C993 H980 0.929 . S
C993 C985 1.433 . S
C993 N995 1.384 . S
N994 C990 1.427 . S
N994 C991 1.384 . S
N995 C987 1.427 . S
N995 C993 1.384 . S
H996 C1002 0.930 . S
H997 C1006 0.930 . S
H998 C1011 0.929 . S
H999 C1009 0.929 . S
H1000 C1004 0.929 . S
H1001 C1010 0.929 . S
C1002 H996 0.930 . S
C1002 C1003 1.367 . S
C1002 C1010 1.378 . S
C1003 C1002 1.367 . S
C1003 C1011 1.433 . S
C1004 H1000 0.929 . S
C1004 C1006 1.378 . S
C1004 C1008 1.350 . S
C1005 C1008 1.463 . S
C1005 C1010 1.350 . S
C1005 N1013 1.427 . S
C1006 H997 0.930 . S
C1006 C1004 1.378 . S
C1006 C1007 1.367 . S
C1007 C1006 1.367 . S
C1007 C1009 1.433 . S
C1008 C1004 1.350 . S
C1008 C1005 1.463 . S
C1008 N1012 1.427 . S
C1009 H999 0.929 . S
C1009 C1007 1.433 . S
C1009 N1012 1.384 . S
C1010 H1001 0.929 . S
C1010 C1002 1.378 . S
C1010 C1005 1.350 . S
C1011 H998 0.929 . S
C1011 C1003 1.433 . S
C1011 N1013 1.384 . S
N1012 C1008 1.427 . S
N1012 C1009 1.384 . S
N1013 C1005 1.427 . S
N1013 C1011 1.384 . S
H1014 C1020 0.930 . S
H1015 C1024 0.930 . S
H1016 C1029 0.929 . S
H1017 C1027 0.929 . S
H1018 C1022 0.929 . S
H1019 C1028 0.929 . S
C1020 H1014 0.930 . S
C1020 C1021 1.367 . S
C1020 C1028 1.378 . S
C1021 C1020 1.367 . S
C1021 C1029 1.433 . S
C1022 H1018 0.929 . S
C1022 C1024 1.378 . S
C1022 C1026 1.350 . S
C1023 C1026 1.463 . S
C1023 C1028 1.350 1_455 S
C1023 N1031 1.427 . S
C1024 H1015 0.930 . S
C1024 C1022 1.378 . S
C1024 C1025 1.367 . S
C1025 C1024 1.367 . S
C1025 C1027 1.433 . S
C1026 C1022 1.350 . S
C1026 C1023 1.463 . S
C1026 N1030 1.427 . S
C1027 H1017 0.929 . S
C1027 C1025 1.433 . S
C1027 N1030 1.384 . S
C1028 H1019 0.929 . S
C1028 C1020 1.378 . S
C1028 C1023 1.350 1_655 S
C1029 H1016 0.929 . S
C1029 C1021 1.433 . S
C1029 N1031 1.384 1_655 S
N1030 C1026 1.427 . S
N1030 C1027 1.384 . S
N1031 C1023 1.427 . S
N1031 C1029 1.384 1_455 S
H1032 C1038 0.930 . S
H1033 C1042 0.930 . S
H1034 C1047 0.929 . S
H1035 C1045 0.929 . S
H1036 C1040 0.929 . S
H1037 C1046 0.929 . S
C1038 H1032 0.930 . S
C1038 C1039 1.367 . S
C1038 C1046 1.378 . S
C1039 C1038 1.367 . S
C1039 C1047 1.433 . S
C1040 H1036 0.929 . S
C1040 C1042 1.378 . S
C1040 C1044 1.350 . S
C1041 C1044 1.463 . S
C1041 C1046 1.350 . S
C1041 N1049 1.427 . S
C1042 H1033 0.930 . S
C1042 C1040 1.378 . S
C1042 C1043 1.367 . S
C1043 C1042 1.367 . S
C1043 C1045 1.433 . S
C1044 C1040 1.350 . S
C1044 C1041 1.463 . S
C1044 N1048 1.427 . S
C1045 H1035 0.929 . S
C1045 C1043 1.433 . S
C1045 N1048 1.384 . S
C1046 H1037 0.929 . S
C1046 C1038 1.378 . S
C1046 C1041 1.350 . S
C1047 H1034 0.929 . S
C1047 C1039 1.433 . S
C1047 N1049 1.384 . S
N1048 C1044 1.427 . S
N1048 C1045 1.384 . S
N1049 C1041 1.427 . S
N1049 C1047 1.384 . S
H1050 C1056 0.930 . S
H1051 C1060 0.930 . S
H1052 C1065 0.929 . S
H1053 C1063 0.929 . S
H1054 C1058 0.929 . S
H1055 C1064 0.929 . S
C1056 H1050 0.930 . S
C1056 C1057 1.367 . S
C1056 C1064 1.378 . S
C1057 C1056 1.367 . S
C1057 C1065 1.433 . S
C1058 H1054 0.929 . S
C1058 C1060 1.378 . S
C1058 C1062 1.350 1_655 S
C1059 C1062 1.463 . S
C1059 C1064 1.350 . S
C1059 N1067 1.427 . S
C1060 H1051 0.930 . S
C1060 C1058 1.378 . S
C1060 C1061 1.367 . S
C1061 C1060 1.367 . S
C1061 C1063 1.433 . S
C1062 C1058 1.350 1_455 S
C1062 C1059 1.463 . S
C1062 N1066 1.427 . S
C1063 H1053 0.929 . S
C1063 C1061 1.433 . S
C1063 N1066 1.384 1_655 S
C1064 H1055 0.929 . S
C1064 C1056 1.378 . S
C1064 C1059 1.350 . S
C1065 H1052 0.929 . S
C1065 C1057 1.433 . S
C1065 N1067 1.384 . S
N1066 C1062 1.427 . S
N1066 C1063 1.384 1_455 S
N1067 C1059 1.427 . S
N1067 C1065 1.384 . S
H1068 C1074 0.930 . S
H1069 C1078 0.930 . S
H1070 C1083 0.929 . S
H1071 C1081 0.929 . S
H1072 C1076 0.929 . S
H1073 C1082 0.929 . S
C1074 H1068 0.930 . S
C1074 C1075 1.367 . S
C1074 C1082 1.378 . S
C1075 C1074 1.367 . S
C1075 C1083 1.433 . S
C1076 H1072 0.929 . S
C1076 C1078 1.378 . S
C1076 C1080 1.350 . S
C1077 C1080 1.463 . S
C1077 C1082 1.350 . S
C1077 N1085 1.427 . S
C1078 H1069 0.930 . S
C1078 C1076 1.378 . S
C1078 C1079 1.367 . S
C1079 C1078 1.367 . S
C1079 C1081 1.433 . S
C1080 C1076 1.350 . S
C1080 C1077 1.463 . S
C1080 N1084 1.427 . S
C1081 H1071 0.929 . S
C1081 C1079 1.433 . S
C1081 N1084 1.384 . S
C1082 H1073 0.929 . S
C1082 C1074 1.378 . S
C1082 C1077 1.350 . S
C1083 H1070 0.929 . S
C1083 C1075 1.433 . S
C1083 N1085 1.384 . S
N1084 C1080 1.427 . S
N1084 C1081 1.384 . S
N1085 C1077 1.427 . S
N1085 C1083 1.384 . S
H1086 C1092 0.930 . S
H1087 C1096 0.930 . S
H1088 C1101 0.929 . S
H1089 C1099 0.929 . S
H1090 C1094 0.929 . S
H1091 C1100 0.929 . S
C1092 H1086 0.930 . S
C1092 C1093 1.367 . S
C1092 C1100 1.378 . S
C1093 C1092 1.367 . S
C1093 C1101 1.433 . S
C1094 H1090 0.929 . S
C1094 C1096 1.378 . S
C1094 C1098 1.350 . S
C1095 C1098 1.463 . S
C1095 C1100 1.350 . S
C1095 N1103 1.427 . S
C1096 H1087 0.930 . S
C1096 C1094 1.378 . S
C1096 C1097 1.367 . S
C1097 C1096 1.367 . S
C1097 C1099 1.433 . S
C1098 C1094 1.350 . S
C1098 C1095 1.463 . S
C1098 N1102 1.427 . S
C1099 H1089 0.929 . S
C1099 C1097 1.433 . S
C1099 N1102 1.384 . S
C1100 H1091 0.929 . S
C1100 C1092 1.378 . S
C1100 C1095 1.350 . S
C1101 H1088 0.929 . S
C1101 C1093 1.433 . S
C1101 N1103 1.384 . S
N1102 C1098 1.427 . S
N1102 C1099 1.384 . S
N1103 C1095 1.427 . S
N1103 C1101 1.384 . S
H1104 C1110 0.930 . S
H1105 C1114 0.930 . S
H1106 C1119 0.929 . S
H1107 C1117 0.929 . S
H1108 C1112 0.929 . S
H1109 C1118 0.929 . S
C1110 H1104 0.930 . S
C1110 C1111 1.367 . S
C1110 C1118 1.378 . S
C1111 C1110 1.367 . S
C1111 C1119 1.433 . S
C1112 H1108 0.929 . S
C1112 C1114 1.378 . S
C1112 C1116 1.350 . S
C1113 C1116 1.463 . S
C1113 C1118 1.350 . S
C1113 N1121 1.427 . S
C1114 H1105 0.930 . S
C1114 C1112 1.378 . S
C1114 C1115 1.367 . S
C1115 C1114 1.367 . S
C1115 C1117 1.433 . S
C1116 C1112 1.350 . S
C1116 C1113 1.463 . S
C1116 N1120 1.427 . S
C1117 H1107 0.929 . S
C1117 C1115 1.433 . S
C1117 N1120 1.384 . S
C1118 H1109 0.929 . S
C1118 C1110 1.378 . S
C1118 C1113 1.350 . S
C1119 H1106 0.929 . S
C1119 C1111 1.433 . S
C1119 N1121 1.384 . S
N1120 C1116 1.427 . S
N1120 C1117 1.384 . S
N1121 C1113 1.427 . S
N1121 C1119 1.384 . S
H1122 C1128 0.930 . S
H1123 C1132 0.930 . S
H1124 C1137 0.929 . S
H1125 C1135 0.929 . S
H1126 C1130 0.929 . S
H1127 C1136 0.929 . S
C1128 H1122 0.930 . S
C1128 C1129 1.367 . S
C1128 C1136 1.378 . S
C1129 C1128 1.367 . S
C1129 C1137 1.433 . S
C1130 H1126 0.929 . S
C1130 C1132 1.378 . S
C1130 C1134 1.350 . S
C1131 C1134 1.463 . S
C1131 C1136 1.350 . S
C1131 N1139 1.427 . S
C1132 H1123 0.930 . S
C1132 C1130 1.378 . S
C1132 C1133 1.367 . S
C1133 C1132 1.367 . S
C1133 C1135 1.433 . S
C1134 C1130 1.350 . S
C1134 C1131 1.463 . S
C1134 N1138 1.427 . S
C1135 H1125 0.929 . S
C1135 C1133 1.433 . S
C1135 N1138 1.384 . S
C1136 H1127 0.929 . S
C1136 C1128 1.378 . S
C1136 C1131 1.350 . S
C1137 H1124 0.929 . S
C1137 C1129 1.433 . S
C1137 N1139 1.384 . S
N1138 C1134 1.427 . S
N1138 C1135 1.384 . S
N1139 C1131 1.427 . S
N1139 C1137 1.384 . S
H1140 C1146 0.930 . S
H1141 C1150 0.930 . S
H1142 C1155 0.929 . S
H1143 C1153 0.929 . S
H1144 C1148 0.929 . S
H1145 C1154 0.929 . S
C1146 H1140 0.930 . S
C1146 C1147 1.367 . S
C1146 C1154 1.378 . S
C1147 C1146 1.367 . S
C1147 C1155 1.433 . S
C1148 H1144 0.929 . S
C1148 C1150 1.378 . S
C1148 C1152 1.350 . S
C1149 C1152 1.463 . S
C1149 C1154 1.350 . S
C1149 N1157 1.427 . S
C1150 H1141 0.930 . S
C1150 C1148 1.378 . S
C1150 C1151 1.367 . S
C1151 C1150 1.367 . S
C1151 C1153 1.433 . S
C1152 C1148 1.350 . S
C1152 C1149 1.463 . S
C1152 N1156 1.427 . S
C1153 H1143 0.929 . S
C1153 C1151 1.433 . S
C1153 N1156 1.384 . S
C1154 H1145 0.929 . S
C1154 C1146 1.378 . S
C1154 C1149 1.350 . S
C1155 H1142 0.929 . S
C1155 C1147 1.433 . S
C1155 N1157 1.384 . S
N1156 C1152 1.427 . S
N1156 C1153 1.384 . S
N1157 C1149 1.427 . S
N1157 C1155 1.384 . S
H1158 C1164 0.930 . S
H1159 C1168 0.930 . S
H1160 C1173 0.929 . S
H1161 C1171 0.929 . S
H1162 C1166 0.929 . S
H1163 C1172 0.929 . S
C1164 H1158 0.930 . S
C1164 C1165 1.367 . S
C1164 C1172 1.378 1_455 S
C1165 C1164 1.367 . S
C1165 C1173 1.433 . S
C1166 H1162 0.929 . S
C1166 C1168 1.378 . S
C1166 C1170 1.350 . S
C1167 C1170 1.463 . S
C1167 C1172 1.350 . S
C1167 N1175 1.427 1_655 S
C1168 H1159 0.930 . S
C1168 C1166 1.378 . S
C1168 C1169 1.367 . S
C1169 C1168 1.367 . S
C1169 C1171 1.433 . S
C1170 C1166 1.350 . S
C1170 C1167 1.463 . S
C1170 N1174 1.427 . S
C1171 H1161 0.929 . S
C1171 C1169 1.433 . S
C1171 N1174 1.384 . S
C1172 H1163 0.929 . S
C1172 C1164 1.378 1_655 S
C1172 C1167 1.350 . S
C1173 H1160 0.929 . S
C1173 C1165 1.433 . S
C1173 N1175 1.384 . S
N1174 C1170 1.427 . S
N1174 C1171 1.384 . S
N1175 C1167 1.427 1_455 S
N1175 C1173 1.384 . S
H1176 C1182 0.930 . S
H1177 C1186 0.930 . S
H1178 C1191 0.929 . S
H1179 C1189 0.929 . S
H1180 C1184 0.929 . S
H1181 C1190 0.929 . S
C1182 H1176 0.930 . S
C1182 C1183 1.367 . S
C1182 C1190 1.378 . S
C1183 C1182 1.367 . S
C1183 C1191 1.433 . S
C1184 H1180 0.929 . S
C1184 C1186 1.378 . S
C1184 C1188 1.350 . S
C1185 C1188 1.463 . S
C1185 C1190 1.350 . S
C1185 N1193 1.427 . S
C1186 H1177 0.930 . S
C1186 C1184 1.378 . S
C1186 C1187 1.367 . S
C1187 C1186 1.367 . S
C1187 C1189 1.433 . S
C1188 C1184 1.350 . S
C1188 C1185 1.463 . S
C1188 N1192 1.427 . S
C1189 H1179 0.929 . S
C1189 C1187 1.433 . S
C1189 N1192 1.384 . S
C1190 H1181 0.929 . S
C1190 C1182 1.378 . S
C1190 C1185 1.350 . S
C1191 H1178 0.929 . S
C1191 C1183 1.433 . S
C1191 N1193 1.384 . S
N1192 C1188 1.427 . S
N1192 C1189 1.384 . S
N1193 C1185 1.427 . S
N1193 C1191 1.384 . S
H1194 C1200 0.930 . S
H1195 C1204 0.930 . S
H1196 C1209 0.929 . S
H1197 C1207 0.929 . S
H1198 C1202 0.929 . S
H1199 C1208 0.929 . S
C1200 H1194 0.930 . S
C1200 C1201 1.367 . S
C1200 C1208 1.378 . S
C1201 C1200 1.367 . S
C1201 C1209 1.433 . S
C1202 H1198 0.929 . S
C1202 C1204 1.378 . S
C1202 C1206 1.350 1_455 S
C1203 C1206 1.463 . S
C1203 C1208 1.350 . S
C1203 N1211 1.427 . S
C1204 H1195 0.930 . S
C1204 C1202 1.378 . S
C1204 C1205 1.367 . S
C1205 C1204 1.367 . S
C1205 C1207 1.433 . S
C1206 C1202 1.350 1_655 S
C1206 C1203 1.463 . S
C1206 N1210 1.427 . S
C1207 H1197 0.929 . S
C1207 C1205 1.433 . S
C1207 N1210 1.384 1_455 S
C1208 H1199 0.929 . S
C1208 C1200 1.378 . S
C1208 C1203 1.350 . S
C1209 H1196 0.929 . S
C1209 C1201 1.433 . S
C1209 N1211 1.384 . S
N1210 C1206 1.427 . S
N1210 C1207 1.384 1_655 S
N1211 C1203 1.427 . S
N1211 C1209 1.384 . S
H1212 C1218 0.930 . S
H1213 C1222 0.930 . S
H1214 C1227 0.929 . S
H1215 C1225 0.929 . S
H1216 C1220 0.929 . S
H1217 C1226 0.929 . S
C1218 H1212 0.930 . S
C1218 C1219 1.367 . S
C1218 C1226 1.378 . S
C1219 C1218 1.367 . S
C1219 C1227 1.433 . S
C1220 H1216 0.929 . S
C1220 C1222 1.378 . S
C1220 C1224 1.350 . S
C1221 C1224 1.463 . S
C1221 C1226 1.350 . S
C1221 N1229 1.427 . S
C1222 H1213 0.930 . S
C1222 C1220 1.378 . S
C1222 C1223 1.367 . S
C1223 C1222 1.367 . S
C1223 C1225 1.433 . S
C1224 C1220 1.350 . S
C1224 C1221 1.463 . S
C1224 N1228 1.427 . S
C1225 H1215 0.929 . S
C1225 C1223 1.433 . S
C1225 N1228 1.384 . S
C1226 H1217 0.929 . S
C1226 C1218 1.378 . S
C1226 C1221 1.350 . S
C1227 H1214 0.929 . S
C1227 C1219 1.433 . S
C1227 N1229 1.384 . S
N1228 C1224 1.427 . S
N1228 C1225 1.384 . S
N1229 C1221 1.427 . S
N1229 C1227 1.384 . S
H1230 C1236 0.930 . S
H1231 C1240 0.930 . S
H1232 C1245 0.929 . S
H1233 C1243 0.929 . S
H1234 C1238 0.929 . S
H1235 C1244 0.929 . S
C1236 H1230 0.930 . S
C1236 C1237 1.367 . S
C1236 C1244 1.378 . S
C1237 C1236 1.367 . S
C1237 C1245 1.433 . S
C1238 H1234 0.929 . S
C1238 C1240 1.378 . S
C1238 C1242 1.350 . S
C1239 C1242 1.463 . S
C1239 C1244 1.350 . S
C1239 N1247 1.427 . S
C1240 H1231 0.930 . S
C1240 C1238 1.378 . S
C1240 C1241 1.367 . S
C1241 C1240 1.367 . S
C1241 C1243 1.433 . S
C1242 C1238 1.350 . S
C1242 C1239 1.463 . S
C1242 N1246 1.427 . S
C1243 H1233 0.929 . S
C1243 C1241 1.433 . S
C1243 N1246 1.384 . S
C1244 H1235 0.929 . S
C1244 C1236 1.378 . S
C1244 C1239 1.350 . S
C1245 H1232 0.929 . S
C1245 C1237 1.433 . S
C1245 N1247 1.384 . S
N1246 C1242 1.427 . S
N1246 C1243 1.384 . S
N1247 C1239 1.427 . S
N1247 C1245 1.384 . S
H1248 C1254 0.930 . S
H1249 C1258 0.930 . S
H1250 C1263 0.929 . S
H1251 C1261 0.929 . S
H1252 C1256 0.929 . S
H1253 C1262 0.929 . S
C1254 H1248 0.930 . S
C1254 C1255 1.367 . S
C1254 C1262 1.378 . S
C1255 C1254 1.367 . S
C1255 C1263 1.433 . S
C1256 H1252 0.929 . S
C1256 C1258 1.378 . S
C1256 C1260 1.350 . S
C1257 C1260 1.463 1_455 S
C1257 C1262 1.350 . S
C1257 N1265 1.427 . S
C1258 H1249 0.930 . S
C1258 C1256 1.378 . S
C1258 C1259 1.367 . S
C1259 C1258 1.367 . S
C1259 C1261 1.433 . S
C1260 C1256 1.350 . S
C1260 C1257 1.463 1_655 S
C1260 N1264 1.427 . S
C1261 H1251 0.929 . S
C1261 C1259 1.433 . S
C1261 N1264 1.384 . S
C1262 H1253 0.929 . S
C1262 C1254 1.378 . S
C1262 C1257 1.350 . S
C1263 H1250 0.929 . S
C1263 C1255 1.433 . S
C1263 N1265 1.384 . S
N1264 C1260 1.427 . S
N1264 C1261 1.384 . S
N1265 C1257 1.427 . S
N1265 C1263 1.384 . S
H1266 C1272 0.930 . S
H1267 C1276 0.930 . S
H1268 C1281 0.929 . S
H1269 C1279 0.929 . S
H1270 C1274 0.929 . S
H1271 C1280 0.929 . S
C1272 H1266 0.930 . S
C1272 C1273 1.367 . S
C1272 C1280 1.378 . S
C1273 C1272 1.367 . S
C1273 C1281 1.433 . S
C1274 H1270 0.929 . S
C1274 C1276 1.378 . S
C1274 C1278 1.350 . S
C1275 C1278 1.463 1_655 S
C1275 C1280 1.350 . S
C1275 N1283 1.427 . S
C1276 H1267 0.930 . S
C1276 C1274 1.378 . S
C1276 C1277 1.367 . S
C1277 C1276 1.367 . S
C1277 C1279 1.433 . S
C1278 C1274 1.350 . S
C1278 C1275 1.463 1_455 S
C1278 N1282 1.427 . S
C1279 H1269 0.929 . S
C1279 C1277 1.433 . S
C1279 N1282 1.384 . S
C1280 H1271 0.929 . S
C1280 C1272 1.378 . S
C1280 C1275 1.350 . S
C1281 H1268 0.929 . S
C1281 C1273 1.433 . S
C1281 N1283 1.384 . S
N1282 C1278 1.427 . S
N1282 C1279 1.384 . S
N1283 C1275 1.427 . S
N1283 C1281 1.384 . S
H1284 C1290 0.930 . S
H1285 C1294 0.930 . S
H1286 C1299 0.929 . S
H1287 C1297 0.929 . S
H1288 C1292 0.929 . S
H1289 C1298 0.929 . S
C1290 H1284 0.930 . S
C1290 C1291 1.367 . S
C1290 C1298 1.378 . S
C1291 C1290 1.367 . S
C1291 C1299 1.433 . S
C1292 H1288 0.929 . S
C1292 C1294 1.378 . S
C1292 C1296 1.350 . S
C1293 C1296 1.463 . S
C1293 C1298 1.350 . S
C1293 N1301 1.427 . S
C1294 H1285 0.930 . S
C1294 C1292 1.378 . S
C1294 C1295 1.367 . S
C1295 C1294 1.367 . S
C1295 C1297 1.433 . S
C1296 C1292 1.350 . S
C1296 C1293 1.463 . S
C1296 N1300 1.427 . S
C1297 H1287 0.929 . S
C1297 C1295 1.433 . S
C1297 N1300 1.384 . S
C1298 H1289 0.929 . S
C1298 C1290 1.378 . S
C1298 C1293 1.350 . S
C1299 H1286 0.929 . S
C1299 C1291 1.433 . S
C1299 N1301 1.384 . S
N1300 C1296 1.427 . S
N1300 C1297 1.384 . S
N1301 C1293 1.427 . S
N1301 C1299 1.384 . S
H1302 C1308 0.930 . S
H1303 C1312 0.930 . S
H1304 C1317 0.929 . S
H1305 C1315 0.929 . S
H1306 C1310 0.929 . S
H1307 C1316 0.929 . S
C1308 H1302 0.930 . S
C1308 C1309 1.367 . S
C1308 C1316 1.378 . S
C1309 C1308 1.367 . S
C1309 C1317 1.433 . S
C1310 H1306 0.929 . S
C1310 C1312 1.378 . S
C1310 C1314 1.350 . S
C1311 C1314 1.463 . S
C1311 C1316 1.350 . S
C1311 N1319 1.427 . S
C1312 H1303 0.930 . S
C1312 C1310 1.378 . S
C1312 C1313 1.367 . S
C1313 C1312 1.367 . S
C1313 C1315 1.433 . S
C1314 C1310 1.350 . S
C1314 C1311 1.463 . S
C1314 N1318 1.427 . S
C1315 H1305 0.929 . S
C1315 C1313 1.433 . S
C1315 N1318 1.384 . S
C1316 H1307 0.929 . S
C1316 C1308 1.378 . S
C1316 C1311 1.350 . S
C1317 H1304 0.929 . S
C1317 C1309 1.433 . S
C1317 N1319 1.384 . S
N1318 C1314 1.427 . S
N1318 C1315 1.384 . S
N1319 C1311 1.427 . S
N1319 C1317 1.384 . S
H1320 C1326 0.930 . S
H1321 C1330 0.930 . S
H1322 C1335 0.929 . S
H1323 C1333 0.929 . S
H1324 C1328 0.929 1_655 S
H1325 C1334 0.929 1_455 S
C1326 H1320 0.930 . S
C1326 C1327 1.367 . S
C1326 C1334 1.378 . S
C1327 C1326 1.367 . S
C1327 C1335 1.433 . S
C1328 H1324 0.929 1_455 S
C1328 C1330 1.378 . S
C1328 C1332 1.350 . S
C1329 C1332 1.463 1_655 S
C1329 C1334 1.350 . S
C1329 N1337 1.427 . S
C1330 H1321 0.930 . S
C1330 C1328 1.378 . S
C1330 C1331 1.367 . S
C1331 C1330 1.367 . S
C1331 C1333 1.433 . S
C1332 C1328 1.350 . S
C1332 C1329 1.463 1_455 S
C1332 N1336 1.427 . S
C1333 H1323 0.929 . S
C1333 C1331 1.433 . S
C1333 N1336 1.384 . S
C1334 H1325 0.929 1_655 S
C1334 C1326 1.378 . S
C1334 C1329 1.350 . S
C1335 H1322 0.929 . S
C1335 C1327 1.433 . S
C1335 N1337 1.384 . S
N1336 C1332 1.427 . S
N1336 C1333 1.384 . S
N1337 C1329 1.427 . S
N1337 C1335 1.384 . S
H1338 C1344 0.930 . S
H1339 C1348 0.930 . S
H1340 C1353 0.929 . S
H1341 C1351 0.929 . S
H1342 C1346 0.929 . S
H1343 C1352 0.929 . S
C1344 H1338 0.930 . S
C1344 C1345 1.367 . S
C1344 C1352 1.378 . S
C1345 C1344 1.367 . S
C1345 C1353 1.433 . S
C1346 H1342 0.929 . S
C1346 C1348 1.378 . S
C1346 C1350 1.350 . S
C1347 C1350 1.463 . S
C1347 C1352 1.350 . S
C1347 N1355 1.427 . S
C1348 H1339 0.930 . S
C1348 C1346 1.378 . S
C1348 C1349 1.367 . S
C1349 C1348 1.367 . S
C1349 C1351 1.433 . S
C1350 C1346 1.350 . S
C1350 C1347 1.463 . S
C1350 N1354 1.427 . S
C1351 H1341 0.929 . S
C1351 C1349 1.433 . S
C1351 N1354 1.384 . S
C1352 H1343 0.929 . S
C1352 C1344 1.378 . S
C1352 C1347 1.350 . S
C1353 H1340 0.929 . S
C1353 C1345 1.433 . S
C1353 N1355 1.384 . S
N1354 C1350 1.427 . S
N1354 C1351 1.384 . S
N1355 C1347 1.427 . S
N1355 C1353 1.384 . S
H1356 C1362 0.930 . S
H1357 C1366 0.930 . S
H1358 C1371 0.929 . S
H1359 C1369 0.929 . S
H1360 C1364 0.929 . S
H1361 C1370 0.929 . S
C1362 H1356 0.930 . S
C1362 C1363 1.367 . S
C1362 C1370 1.378 . S
C1363 C1362 1.367 . S
C1363 C1371 1.433 . S
C1364 H1360 0.929 . S
C1364 C1366 1.378 . S
C1364 C1368 1.350 . S
C1365 C1368 1.463 . S
C1365 C1370 1.350 . S
C1365 N1373 1.427 . S
C1366 H1357 0.930 . S
C1366 C1364 1.378 . S
C1366 C1367 1.367 . S
C1367 C1366 1.367 . S
C1367 C1369 1.433 . S
C1368 C1364 1.350 . S
C1368 C1365 1.463 . S
C1368 N1372 1.427 . S
C1369 H1359 0.929 . S
C1369 C1367 1.433 . S
C1369 N1372 1.384 . S
C1370 H1361 0.929 . S
C1370 C1362 1.378 . S
C1370 C1365 1.350 . S
C1371 H1358 0.929 . S
C1371 C1363 1.433 . S
C1371 N1373 1.384 . S
N1372 C1368 1.427 . S
N1372 C1369 1.384 . S
N1373 C1365 1.427 . S
N1373 C1371 1.384 . S
H1374 C1380 0.930 . S
H1375 C1384 0.930 . S
H1376 C1389 0.929 . S
H1377 C1387 0.929 . S
H1378 C1382 0.910 1_455 S
H1379 C1388 0.910 1_655 S
C1380 H1374 0.930 . S
C1380 C1381 1.367 . S
C1380 C1388 1.378 . S
C1381 C1380 1.367 . S
C1381 C1389 1.433 . S
C1382 H1378 0.910 1_655 S
C1382 C1384 1.378 . S
C1382 C1386 1.350 . S
C1383 C1386 1.463 1_455 S
C1383 C1388 1.350 . S
C1383 N1391 1.427 . S
C1384 H1375 0.930 . S
C1384 C1382 1.378 . S
C1384 C1385 1.367 . S
C1385 C1384 1.367 . S
C1385 C1387 1.433 . S
C1386 C1382 1.350 . S
C1386 C1383 1.463 1_655 S
C1386 N1390 1.427 . S
C1387 H1377 0.929 . S
C1387 C1385 1.433 . S
C1387 N1390 1.384 . S
C1388 H1379 0.910 1_455 S
C1388 C1380 1.378 . S
C1388 C1383 1.350 . S
C1389 H1376 0.929 . S
C1389 C1381 1.433 . S
C1389 N1391 1.384 . S
N1390 C1386 1.427 . S
N1390 C1387 1.384 . S
N1391 C1383 1.427 . S
N1391 C1389 1.384 . S
H1392 C1398 0.930 . S
H1393 C1402 0.930 . S
H1394 C1407 0.929 . S
H1395 C1405 0.929 . S
H1396 C1400 0.929 . S
H1397 C1406 0.929 . S
C1398 H1392 0.930 . S
C1398 C1399 1.367 . S
C1398 C1406 1.378 . S
C1399 C1398 1.367 . S
C1399 C1407 1.433 . S
C1400 H1396 0.929 . S
C1400 C1402 1.378 . S
C1400 C1404 1.350 . S
C1401 C1404 1.463 1_455 S
C1401 C1406 1.350 . S
C1401 N1409 1.427 . S
C1402 H1393 0.930 . S
C1402 C1400 1.378 . S
C1402 C1403 1.367 . S
C1403 C1402 1.367 . S
C1403 C1405 1.433 . S
C1404 C1400 1.350 . S
C1404 C1401 1.463 1_655 S
C1404 N1408 1.427 . S
C1405 H1395 0.929 . S
C1405 C1403 1.433 . S
C1405 N1408 1.384 . S
C1406 H1397 0.929 . S
C1406 C1398 1.378 . S
C1406 C1401 1.350 . S
C1407 H1394 0.929 . S
C1407 C1399 1.433 . S
C1407 N1409 1.384 . S
N1408 C1404 1.427 . S
N1408 C1405 1.384 . S
N1409 C1401 1.427 . S
N1409 C1407 1.384 . S
H1410 C1416 0.930 . S
H1411 C1420 0.930 . S
H1412 C1425 0.929 . S
H1413 C1423 0.929 . S
H1414 C1418 0.929 1_655 S
H1415 C1424 0.929 1_455 S
C1416 H1410 0.930 . S
C1416 C1417 1.367 . S
C1416 C1424 1.378 . S
C1417 C1416 1.367 . S
C1417 C1425 1.433 . S
C1418 H1414 0.929 1_455 S
C1418 C1420 1.378 . S
C1418 C1422 1.350 . S
C1419 C1422 1.463 1_655 S
C1419 C1424 1.350 . S
C1419 N1427 1.427 . S
C1420 H1411 0.930 . S
C1420 C1418 1.378 . S
C1420 C1421 1.367 . S
C1421 C1420 1.367 . S
C1421 C1423 1.433 . S
C1422 C1418 1.350 . S
C1422 C1419 1.463 1_455 S
C1422 N1426 1.427 . S
C1423 H1413 0.929 . S
C1423 C1421 1.433 . S
C1423 N1426 1.384 . S
C1424 H1415 0.929 1_655 S
C1424 C1416 1.378 . S
C1424 C1419 1.350 . S
C1425 H1412 0.929 . S
C1425 C1417 1.433 . S
C1425 N1427 1.384 . S
N1426 C1422 1.427 . S
N1426 C1423 1.384 . S
N1427 C1419 1.427 . S
N1427 C1425 1.384 . S
H1428 C1434 0.930 . S
H1429 C1438 0.930 . S
H1430 C1443 0.929 . S
H1431 C1441 0.929 . S
H1432 C1436 0.929 . S
H1433 C1442 0.929 . S
C1434 H1428 0.930 . S
C1434 C1435 1.367 . S
C1434 C1442 1.378 . S
C1435 C1434 1.367 . S
C1435 C1443 1.433 . S
C1436 H1432 0.929 . S
C1436 C1438 1.378 . S
C1436 C1440 1.350 . S
C1437 C1440 1.463 . S
C1437 C1442 1.350 . S
C1437 N1445 1.427 . S
C1438 H1429 0.930 . S
C1438 C1436 1.378 . S
C1438 C1439 1.367 . S
C1439 C1438 1.367 . S
C1439 C1441 1.433 . S
C1440 C1436 1.350 . S
C1440 C1437 1.463 . S
C1440 N1444 1.427 . S
C1441 H1431 0.929 . S
C1441 C1439 1.433 . S
C1441 N1444 1.384 . S
C1442 H1433 0.929 . S
C1442 C1434 1.378 . S
C1442 C1437 1.350 . S
C1443 H1430 0.929 . S
C1443 C1435 1.433 . S
C1443 N1445 1.384 . S
N1444 C1440 1.427 . S
N1444 C1441 1.384 . S
N1445 C1437 1.427 . S
N1445 C1443 1.384 . S
H1446 C1452 0.930 . S
H1447 C1456 0.930 . S
H1448 C1461 0.929 . S
H1449 C1459 0.929 . S
H1450 C1454 0.929 . S
H1451 C1460 0.929 . S
C1452 H1446 0.930 . S
C1452 C1453 1.367 . S
C1452 C1460 1.378 . S
C1453 C1452 1.367 . S
C1453 C1461 1.433 . S
C1454 H1450 0.929 . S
C1454 C1456 1.378 . S
C1454 C1458 1.350 . S
C1455 C1458 1.463 . S
C1455 C1460 1.350 . S
C1455 N1463 1.427 . S
C1456 H1447 0.930 . S
C1456 C1454 1.378 . S
C1456 C1457 1.367 . S
C1457 C1456 1.367 . S
C1457 C1459 1.433 . S
C1458 C1454 1.350 . S
C1458 C1455 1.463 . S
C1458 N1462 1.427 . S
C1459 H1449 0.929 . S
C1459 C1457 1.433 . S
C1459 N1462 1.384 . S
C1460 H1451 0.929 . S
C1460 C1452 1.378 . S
C1460 C1455 1.350 . S
C1461 H1448 0.929 . S
C1461 C1453 1.433 . S
C1461 N1463 1.384 . S
N1462 C1458 1.427 . S
N1462 C1459 1.384 . S
N1463 C1455 1.427 . S
N1463 C1461 1.384 . S
H1464 C1470 0.930 . S
H1465 C1474 0.930 . S
H1466 C1479 0.929 . S
H1467 C1477 0.929 . S
H1468 C1472 0.938 . S
H1469 C1478 0.939 . S
C1470 H1464 0.930 . S
C1470 C1471 1.367 . S
C1470 C1478 1.378 . S
C1471 C1470 1.367 . S
C1471 C1479 1.433 . S
C1472 H1468 0.938 . S
C1472 C1474 1.378 . S
C1472 C1476 1.350 . S
C1473 C1476 1.463 1_455 S
C1473 C1478 1.350 . S
C1473 N1481 1.427 . S
C1474 H1465 0.930 . S
C1474 C1472 1.378 . S
C1474 C1475 1.367 . S
C1475 C1474 1.367 . S
C1475 C1477 1.433 . S
C1476 C1472 1.350 . S
C1476 C1473 1.463 1_655 S
C1476 N1480 1.427 . S
C1477 H1467 0.929 . S
C1477 C1475 1.433 . S
C1477 N1480 1.384 . S
C1478 H1469 0.939 . S
C1478 C1470 1.378 . S
C1478 C1473 1.350 . S
C1479 H1466 0.929 . S
C1479 C1471 1.433 . S
C1479 N1481 1.384 . S
N1480 C1476 1.427 . S
N1480 C1477 1.384 . S
N1481 C1473 1.427 . S
N1481 C1479 1.384 . S
H1482 C1488 0.930 . S
H1483 C1492 0.930 . S
H1484 C1497 0.929 . S
H1485 C1495 0.929 . S
H1486 C1490 0.929 . S
H1487 C1496 0.929 . S
C1488 H1482 0.930 . S
C1488 C1489 1.367 . S
C1488 C1496 1.378 . S
C1489 C1488 1.367 . S
C1489 C1497 1.433 . S
C1490 H1486 0.929 . S
C1490 C1492 1.378 . S
C1490 C1494 1.350 . S
C1491 C1494 1.463 . S
C1491 C1496 1.350 . S
C1491 N1499 1.427 . S
C1492 H1483 0.930 . S
C1492 C1490 1.378 . S
C1492 C1493 1.367 . S
C1493 C1492 1.367 . S
C1493 C1495 1.433 . S
C1494 C1490 1.350 . S
C1494 C1491 1.463 . S
C1494 N1498 1.427 . S
C1495 H1485 0.929 . S
C1495 C1493 1.433 . S
C1495 N1498 1.384 . S
C1496 H1487 0.929 . S
C1496 C1488 1.378 . S
C1496 C1491 1.350 . S
C1497 H1484 0.929 . S
C1497 C1489 1.433 . S
C1497 N1499 1.384 . S
N1498 C1494 1.427 . S
N1498 C1495 1.384 . S
N1499 C1491 1.427 . S
N1499 C1497 1.384 . S
H1500 C1506 0.930 . S
H1501 C1510 0.930 . S
H1502 C1515 0.929 . S
H1503 C1513 0.929 . S
H1504 C1508 0.929 . S
H1505 C1514 0.929 . S
C1506 H1500 0.930 . S
C1506 C1507 1.367 . S
C1506 C1514 1.378 . S
C1507 C1506 1.367 . S
C1507 C1515 1.433 . S
C1508 H1504 0.929 . S
C1508 C1510 1.378 . S
C1508 C1512 1.350 . S
C1509 C1512 1.463 . S
C1509 C1514 1.350 . S
C1509 N1517 1.427 . S
C1510 H1501 0.930 . S
C1510 C1508 1.378 . S
C1510 C1511 1.367 . S
C1511 C1510 1.367 . S
C1511 C1513 1.433 . S
C1512 C1508 1.350 . S
C1512 C1509 1.463 . S
C1512 N1516 1.427 . S
C1513 H1503 0.929 . S
C1513 C1511 1.433 . S
C1513 N1516 1.384 . S
C1514 H1505 0.929 . S
C1514 C1506 1.378 . S
C1514 C1509 1.350 . S
C1515 H1502 0.929 . S
C1515 C1507 1.433 . S
C1515 N1517 1.384 . S
N1516 C1512 1.427 . S
N1516 C1513 1.384 . S
N1517 C1509 1.427 . S
N1517 C1515 1.384 . S
H1518 C1524 0.930 . S
H1519 C1528 0.930 . S
H1520 C1533 0.929 . S
H1521 C1531 0.929 . S
H1522 C1526 0.929 1_655 S
H1523 C1532 0.929 1_455 S
C1524 H1518 0.930 . S
C1524 C1525 1.367 . S
C1524 C1532 1.378 . S
C1525 C1524 1.367 . S
C1525 C1533 1.433 . S
C1526 H1522 0.929 1_455 S
C1526 C1528 1.378 . S
C1526 C1530 1.350 . S
C1527 C1530 1.463 1_655 S
C1527 C1532 1.350 . S
C1527 N1535 1.427 . S
C1528 H1519 0.930 . S
C1528 C1526 1.378 . S
C1528 C1529 1.367 . S
C1529 C1528 1.367 . S
C1529 C1531 1.433 . S
C1530 C1526 1.350 . S
C1530 C1527 1.463 1_455 S
C1530 N1534 1.427 . S
C1531 H1521 0.929 . S
C1531 C1529 1.433 . S
C1531 N1534 1.384 . S
C1532 H1523 0.929 1_655 S
C1532 C1524 1.378 . S
C1532 C1527 1.350 . S
C1533 H1520 0.929 . S
C1533 C1525 1.433 . S
C1533 N1535 1.384 . S
N1534 C1530 1.427 . S
N1534 C1531 1.384 . S
N1535 C1527 1.427 . S
N1535 C1533 1.384 . S
H1536 C1542 0.930 . S
H1537 C1546 0.930 . S
H1538 C1551 0.929 . S
H1539 C1549 0.929 . S
H1540 C1544 0.929 . S
H1541 C1550 0.929 . S
C1542 H1536 0.930 . S
C1542 C1543 1.367 . S
C1542 C1550 1.378 . S
C1543 C1542 1.367 . S
C1543 C1551 1.433 . S
C1544 H1540 0.929 . S
C1544 C1546 1.378 . S
C1544 C1548 1.350 . S
C1545 C1548 1.463 . S
C1545 C1550 1.350 . S
C1545 N1553 1.427 . S
C1546 H1537 0.930 . S
C1546 C1544 1.378 . S
C1546 C1547 1.367 . S
C1547 C1546 1.367 . S
C1547 C1549 1.433 . S
C1548 C1544 1.350 . S
C1548 C1545 1.463 . S
C1548 N1552 1.427 . S
C1549 H1539 0.929 . S
C1549 C1547 1.433 . S
C1549 N1552 1.384 . S
C1550 H1541 0.929 . S
C1550 C1542 1.378 . S
C1550 C1545 1.350 . S
C1551 H1538 0.929 . S
C1551 C1543 1.433 . S
C1551 N1553 1.384 . S
N1552 C1548 1.427 . S
N1552 C1549 1.384 . S
N1553 C1545 1.427 . S
N1553 C1551 1.384 . S
H1554 C1560 0.930 . S
H1555 C1564 0.930 . S
H1556 C1569 0.929 . S
H1557 C1567 0.929 . S
H1558 C1562 0.929 1_645 S
H1559 C1568 0.929 1_465 S
C1560 H1554 0.930 . S
C1560 C1561 1.367 . S
C1560 C1568 1.378 . S
C1561 C1560 1.367 . S
C1561 C1569 1.433 . S
C1562 H1558 0.929 1_465 S
C1562 C1564 1.378 . S
C1562 C1566 1.350 . S
C1563 C1566 1.463 1_645 S
C1563 C1568 1.350 . S
C1563 N1571 1.427 . S
C1564 H1555 0.930 . S
C1564 C1562 1.378 . S
C1564 C1565 1.367 . S
C1565 C1564 1.367 . S
C1565 C1567 1.433 . S
C1566 C1562 1.350 . S
C1566 C1563 1.463 1_465 S
C1566 N1570 1.427 . S
C1567 H1557 0.929 . S
C1567 C1565 1.433 . S
C1567 N1570 1.384 . S
C1568 H1559 0.929 1_645 S
C1568 C1560 1.378 . S
C1568 C1563 1.350 . S
C1569 H1556 0.929 . S
C1569 C1561 1.433 . S
C1569 N1571 1.384 . S
N1570 C1566 1.427 . S
N1570 C1567 1.384 . S
N1571 C1563 1.427 . S
N1571 C1569 1.384 . S
H1572 C1578 0.930 . S
H1573 C1582 0.930 . S
H1574 C1587 0.929 . S
H1575 C1585 0.929 . S
H1576 C1580 0.929 . S
H1577 C1586 0.929 . S
C1578 H1572 0.930 . S
C1578 C1579 1.367 . S
C1578 C1586 1.378 . S
C1579 C1578 1.367 . S
C1579 C1587 1.433 . S
C1580 H1576 0.929 . S
C1580 C1582 1.378 . S
C1580 C1584 1.350 . S
C1581 C1584 1.463 . S
C1581 C1586 1.350 . S
C1581 N1589 1.427 . S
C1582 H1573 0.930 . S
C1582 C1580 1.378 . S
C1582 C1583 1.367 . S
C1583 C1582 1.367 . S
C1583 C1585 1.433 . S
C1584 C1580 1.350 . S
C1584 C1581 1.463 . S
C1584 N1588 1.427 . S
C1585 H1575 0.929 . S
C1585 C1583 1.433 . S
C1585 N1588 1.384 . S
C1586 H1577 0.929 . S
C1586 C1578 1.378 . S
C1586 C1581 1.350 . S
C1587 H1574 0.929 . S
C1587 C1579 1.433 . S
C1587 N1589 1.384 . S
N1588 C1584 1.427 . S
N1588 C1585 1.384 . S
N1589 C1581 1.427 . S
N1589 C1587 1.384 . S
H1590 C1596 0.930 . S
H1591 C1600 0.930 . S
H1592 C1605 0.929 . S
H1593 C1603 0.929 . S
H1594 C1598 0.929 . S
H1595 C1604 0.929 . S
C1596 H1590 0.930 . S
C1596 C1597 1.367 . S
C1596 C1604 1.378 . S
C1597 C1596 1.367 . S
C1597 C1605 1.433 . S
C1598 H1594 0.929 . S
C1598 C1600 1.378 . S
C1598 C1602 1.350 . S
C1599 C1602 1.463 1_544 S
C1599 C1604 1.350 . S
C1599 N1607 1.427 . S
C1600 H1591 0.930 . S
C1600 C1598 1.378 . S
C1600 C1601 1.367 . S
C1601 C1600 1.367 . S
C1601 C1603 1.433 . S
C1602 C1598 1.350 . S
C1602 C1599 1.463 1_566 S
C1602 N1606 1.427 . S
C1603 H1593 0.929 . S
C1603 C1601 1.433 . S
C1603 N1606 1.384 . S
C1604 H1595 0.929 . S
C1604 C1596 1.378 . S
C1604 C1599 1.350 . S
C1605 H1592 0.929 . S
C1605 C1597 1.433 . S
C1605 N1607 1.384 . S
N1606 C1602 1.427 . S
N1606 C1603 1.384 . S
N1607 C1599 1.427 . S
N1607 C1605 1.384 . S
H1608 C1614 0.930 . S
H1609 C1618 0.930 . S
H1610 C1623 0.929 . S
H1611 C1621 0.929 . S
H1612 C1616 0.929 . S
H1613 C1622 0.929 . S
C1614 H1608 0.930 . S
C1614 C1615 1.367 . S
C1614 C1622 1.378 . S
C1615 C1614 1.367 . S
C1615 C1623 1.433 . S
C1616 H1612 0.929 . S
C1616 C1618 1.378 . S
C1616 C1620 1.350 . S
C1617 C1620 1.463 . S
C1617 C1622 1.350 . S
C1617 N1625 1.427 . S
C1618 H1609 0.930 . S
C1618 C1616 1.378 . S
C1618 C1619 1.367 . S
C1619 C1618 1.367 . S
C1619 C1621 1.433 . S
C1620 C1616 1.350 . S
C1620 C1617 1.463 . S
C1620 N1624 1.427 . S
C1621 H1611 0.929 . S
C1621 C1619 1.433 . S
C1621 N1624 1.384 . S
C1622 H1613 0.929 . S
C1622 C1614 1.378 . S
C1622 C1617 1.350 . S
C1623 H1610 0.929 . S
C1623 C1615 1.433 . S
C1623 N1625 1.384 . S
N1624 C1620 1.427 . S
N1624 C1621 1.384 . S
N1625 C1617 1.427 . S
N1625 C1623 1.384 . S
H1626 C1632 0.930 . S
H1627 C1636 0.930 . S
H1628 C1641 0.929 . S
H1629 C1639 0.929 . S
H1630 C1634 0.929 . S
H1631 C1640 0.929 . S
C1632 H1626 0.930 . S
C1632 C1633 1.367 . S
C1632 C1640 1.378 . S
C1633 C1632 1.367 . S
C1633 C1641 1.433 . S
C1634 H1630 0.929 . S
C1634 C1636 1.378 . S
C1634 C1638 1.350 . S
C1635 C1638 1.463 1_545 S
C1635 C1640 1.350 . S
C1635 N1643 1.427 . S
C1636 H1627 0.930 . S
C1636 C1634 1.378 . S
C1636 C1637 1.367 . S
C1637 C1636 1.367 . S
C1637 C1639 1.433 . S
C1638 C1634 1.350 . S
C1638 C1635 1.463 1_565 S
C1638 N1642 1.427 . S
C1639 H1629 0.929 . S
C1639 C1637 1.433 . S
C1639 N1642 1.384 . S
C1640 H1631 0.929 . S
C1640 C1632 1.378 . S
C1640 C1635 1.350 . S
C1641 H1628 0.929 . S
C1641 C1633 1.433 . S
C1641 N1643 1.384 . S
N1642 C1638 1.427 . S
N1642 C1639 1.384 . S
N1643 C1635 1.427 . S
N1643 C1641 1.384 . S
H1644 C1650 0.930 . S
H1645 C1654 0.930 . S
H1646 C1659 0.929 . S
H1647 C1657 0.929 . S
H1648 C1652 0.929 . S
H1649 C1658 0.929 . S
C1650 H1644 0.930 . S
C1650 C1651 1.367 . S
C1650 C1658 1.378 . S
C1651 C1650 1.367 . S
C1651 C1659 1.433 . S
C1652 H1648 0.929 . S
C1652 C1654 1.378 . S
C1652 C1656 1.350 . S
C1653 C1656 1.463 . S
C1653 C1658 1.350 . S
C1653 N1661 1.427 . S
C1654 H1645 0.930 . S
C1654 C1652 1.378 . S
C1654 C1655 1.367 . S
C1655 C1654 1.367 . S
C1655 C1657 1.433 . S
C1656 C1652 1.350 . S
C1656 C1653 1.463 . S
C1656 N1660 1.427 . S
C1657 H1647 0.929 . S
C1657 C1655 1.433 . S
C1657 N1660 1.384 . S
C1658 H1649 0.929 . S
C1658 C1650 1.378 . S
C1658 C1653 1.350 . S
C1659 H1646 0.929 . S
C1659 C1651 1.433 . S
C1659 N1661 1.384 . S
N1660 C1656 1.427 . S
N1660 C1657 1.384 . S
N1661 C1653 1.427 . S
N1661 C1659 1.384 . S
H1662 C1668 0.930 . S
H1663 C1672 0.930 . S
H1664 C1677 0.929 1_565 S
H1665 C1675 0.929 1_545 S
H1666 C1670 0.929 1_455 S
H1667 C1676 0.929 1_655 S
C1668 H1662 0.930 . S
C1668 C1669 1.367 . S
C1668 C1676 1.378 . S
C1669 C1668 1.367 . S
C1669 C1677 1.433 . S
C1670 H1666 0.929 1_655 S
C1670 C1672 1.378 . S
C1670 C1674 1.350 . S
C1671 C1674 1.463 1_446 S
C1671 C1676 1.350 . S
C1671 N1679 1.427 1_545 S
C1672 H1663 0.930 . S
C1672 C1670 1.378 . S
C1672 C1673 1.367 . S
C1673 C1672 1.367 . S
C1673 C1675 1.433 . S
C1674 C1670 1.350 . S
C1674 C1671 1.463 1_664 S
C1674 N1678 1.427 1_565 S
C1675 H1665 0.929 1_565 S
C1675 C1673 1.433 . S
C1675 N1678 1.384 1_565 S
C1676 H1667 0.929 1_455 S
C1676 C1668 1.378 . S
C1676 C1671 1.350 . S
C1677 H1664 0.929 1_545 S
C1677 C1669 1.433 . S
C1677 N1679 1.384 1_545 S
N1678 C1674 1.427 1_545 S
N1678 C1675 1.384 1_545 S
N1679 C1671 1.427 1_565 S
N1679 C1677 1.384 1_565 S
H1680 C1686 0.930 . S
H1681 C1690 0.930 . S
H1682 C1695 0.929 . S
H1683 C1693 0.929 . S
H1684 C1688 0.929 . S
H1685 C1694 0.929 . S
C1686 H1680 0.930 . S
C1686 C1687 1.367 . S
C1686 C1694 1.378 . S
C1687 C1686 1.367 . S
C1687 C1695 1.433 . S
C1688 H1684 0.929 . S
C1688 C1690 1.378 . S
C1688 C1692 1.350 . S
C1689 C1692 1.463 . S
C1689 C1694 1.350 . S
C1689 N1697 1.427 . S
C1690 H1681 0.930 . S
C1690 C1688 1.378 . S
C1690 C1691 1.367 . S
C1691 C1690 1.367 . S
C1691 C1693 1.433 . S
C1692 C1688 1.350 . S
C1692 C1689 1.463 . S
C1692 N1696 1.427 . S
C1693 H1683 0.929 . S
C1693 C1691 1.433 . S
C1693 N1696 1.384 . S
C1694 H1685 0.929 . S
C1694 C1686 1.378 . S
C1694 C1689 1.350 . S
C1695 H1682 0.929 . S
C1695 C1687 1.433 . S
C1695 N1697 1.384 . S
N1696 C1692 1.427 . S
N1696 C1693 1.384 . S
N1697 C1689 1.427 . S
N1697 C1695 1.384 . S
H1698 C1704 0.930 . S
H1699 C1708 0.930 . S
H1700 C1713 0.929 . S
H1701 C1711 0.929 . S
H1702 C1706 0.929 . S
H1703 C1712 0.929 . S
C1704 H1698 0.930 . S
C1704 C1705 1.367 . S
C1704 C1712 1.378 . S
C1705 C1704 1.367 . S
C1705 C1713 1.433 . S
C1706 H1702 0.929 . S
C1706 C1708 1.378 . S
C1706 C1710 1.350 . S
C1707 C1710 1.463 . S
C1707 C1712 1.350 . S
C1707 N1715 1.427 . S
C1708 H1699 0.930 . S
C1708 C1706 1.378 . S
C1708 C1709 1.367 . S
C1709 C1708 1.367 . S
C1709 C1711 1.433 . S
C1710 C1706 1.350 . S
C1710 C1707 1.463 . S
C1710 N1714 1.427 . S
C1711 H1701 0.929 . S
C1711 C1709 1.433 . S
C1711 N1714 1.384 . S
C1712 H1703 0.929 . S
C1712 C1704 1.378 . S
C1712 C1707 1.350 . S
C1713 H1700 0.929 . S
C1713 C1705 1.433 . S
C1713 N1715 1.384 . S
N1714 C1710 1.427 . S
N1714 C1711 1.384 . S
N1715 C1707 1.427 . S
N1715 C1713 1.384 . S
H1716 C1722 0.930 . S
H1717 C1726 0.930 . S
H1718 C1731 0.929 . S
H1719 C1729 0.929 . S
H1720 C1724 0.929 . S
H1721 C1730 0.929 . S
C1722 H1716 0.930 . S
C1722 C1723 1.367 . S
C1722 C1730 1.378 . S
C1723 C1722 1.367 . S
C1723 C1731 1.433 . S
C1724 H1720 0.929 . S
C1724 C1726 1.378 . S
C1724 C1728 1.350 . S
C1725 C1728 1.463 . S
C1725 C1730 1.350 . S
C1725 N1733 1.427 . S
C1726 H1717 0.930 . S
C1726 C1724 1.378 . S
C1726 C1727 1.367 . S
C1727 C1726 1.367 . S
C1727 C1729 1.433 . S
C1728 C1724 1.350 . S
C1728 C1725 1.463 . S
C1728 N1732 1.427 . S
C1729 H1719 0.929 . S
C1729 C1727 1.433 . S
C1729 N1732 1.384 . S
C1730 H1721 0.929 . S
C1730 C1722 1.378 . S
C1730 C1725 1.350 . S
C1731 H1718 0.929 . S
C1731 C1723 1.433 . S
C1731 N1733 1.384 . S
N1732 C1728 1.427 . S
N1732 C1729 1.384 . S
N1733 C1725 1.427 . S
N1733 C1731 1.384 . S
H1734 C1740 0.930 . S
H1735 C1744 0.930 . S
H1736 C1749 0.929 . S
H1737 C1747 0.929 . S
H1738 C1742 0.929 . S
H1739 C1748 0.929 . S
C1740 H1734 0.930 . S
C1740 C1741 1.367 . S
C1740 C1748 1.378 . S
C1741 C1740 1.367 . S
C1741 C1749 1.433 . S
C1742 H1738 0.929 . S
C1742 C1744 1.378 . S
C1742 C1746 1.350 . S
C1743 C1746 1.463 . S
C1743 C1748 1.350 . S
C1743 N1751 1.427 . S
C1744 H1735 0.930 . S
C1744 C1742 1.378 . S
C1744 C1745 1.367 . S
C1745 C1744 1.367 . S
C1745 C1747 1.433 . S
C1746 C1742 1.350 . S
C1746 C1743 1.463 . S
C1746 N1750 1.427 . S
C1747 H1737 0.929 . S
C1747 C1745 1.433 . S
C1747 N1750 1.384 . S
C1748 H1739 0.929 . S
C1748 C1740 1.378 . S
C1748 C1743 1.350 . S
C1749 H1736 0.929 . S
C1749 C1741 1.433 . S
C1749 N1751 1.384 . S
N1750 C1746 1.427 . S
N1750 C1747 1.384 . S
N1751 C1743 1.427 . S
N1751 C1749 1.384 . S
H1752 C1758 0.930 . S
H1753 C1762 0.930 . S
H1754 C1767 0.929 . S
H1755 C1765 0.929 . S
H1756 C1760 0.929 1_554 S
H1757 C1766 0.929 1_556 S
C1758 H1752 0.930 . S
C1758 C1759 1.367 . S
C1758 C1766 1.378 . S
C1759 C1758 1.367 . S
C1759 C1767 1.433 . S
C1760 H1756 0.929 1_556 S
C1760 C1762 1.378 . S
C1760 C1764 1.350 . S
C1761 C1764 1.463 1_554 S
C1761 C1766 1.350 . S
C1761 N1769 1.427 . S
C1762 H1753 0.930 . S
C1762 C1760 1.378 . S
C1762 C1763 1.367 . S
C1763 C1762 1.367 . S
C1763 C1765 1.433 . S
C1764 C1760 1.350 . S
C1764 C1761 1.463 1_556 S
C1764 N1768 1.427 . S
C1765 H1755 0.929 . S
C1765 C1763 1.433 . S
C1765 N1768 1.384 . S
C1766 H1757 0.929 1_554 S
C1766 C1758 1.378 . S
C1766 C1761 1.350 . S
C1767 H1754 0.929 . S
C1767 C1759 1.433 . S
C1767 N1769 1.384 . S
N1768 C1764 1.427 . S
N1768 C1765 1.384 . S
N1769 C1761 1.427 . S
N1769 C1767 1.384 . S
H1770 C1776 0.930 . S
H1771 C1780 0.930 . S
H1772 C1785 0.929 . S
H1773 C1783 0.929 . S
H1774 C1778 0.929 . S
H1775 C1784 0.929 . S
C1776 H1770 0.930 . S
C1776 C1777 1.367 . S
C1776 C1784 1.378 . S
C1777 C1776 1.367 . S
C1777 C1785 1.433 . S
C1778 H1774 0.929 . S
C1778 C1780 1.378 . S
C1778 C1782 1.350 . S
C1779 C1782 1.463 1_655 S
C1779 C1784 1.350 . S
C1779 N1787 1.427 . S
C1780 H1771 0.930 . S
C1780 C1778 1.378 . S
C1780 C1781 1.367 . S
C1781 C1780 1.367 . S
C1781 C1783 1.433 . S
C1782 C1778 1.350 . S
C1782 C1779 1.463 1_455 S
C1782 N1786 1.427 . S
C1783 H1773 0.929 . S
C1783 C1781 1.433 . S
C1783 N1786 1.384 . S
C1784 H1775 0.929 . S
C1784 C1776 1.378 . S
C1784 C1779 1.350 . S
C1785 H1772 0.929 . S
C1785 C1777 1.433 . S
C1785 N1787 1.384 . S
N1786 C1782 1.427 . S
N1786 C1783 1.384 . S
N1787 C1779 1.427 . S
N1787 C1785 1.384 . S
H1788 C1794 0.930 . S
H1789 C1798 0.930 . S
H1790 C1803 0.929 . S
H1791 C1801 0.929 . S
H1792 C1796 0.929 1_554 S
H1793 C1802 0.929 1_556 S
C1794 H1788 0.930 . S
C1794 C1795 1.367 . S
C1794 C1802 1.378 . S
C1795 C1794 1.367 . S
C1795 C1803 1.433 . S
C1796 H1792 0.929 1_556 S
C1796 C1798 1.378 . S
C1796 C1800 1.350 . S
C1797 C1800 1.463 1_454 S
C1797 C1802 1.350 . S
C1797 N1805 1.427 . S
C1798 H1789 0.930 . S
C1798 C1796 1.378 . S
C1798 C1799 1.367 . S
C1799 C1798 1.367 . S
C1799 C1801 1.433 . S
C1800 C1796 1.350 . S
C1800 C1797 1.463 1_656 S
C1800 N1804 1.427 . S
C1801 H1791 0.929 . S
C1801 C1799 1.433 . S
C1801 N1804 1.384 . S
C1802 H1793 0.929 1_554 S
C1802 C1794 1.378 . S
C1802 C1797 1.350 . S
C1803 H1790 0.929 . S
C1803 C1795 1.433 . S
C1803 N1805 1.384 . S
N1804 C1800 1.427 . S
N1804 C1801 1.384 . S
N1805 C1797 1.427 . S
N1805 C1803 1.384 . S
H1806 C1812 0.930 . S
H1807 C1816 0.930 . S
H1808 C1821 0.929 . S
H1809 C1819 0.929 . S
H1810 C1814 0.929 . S
H1811 C1820 0.929 . S
C1812 H1806 0.930 . S
C1812 C1813 1.367 . S
C1812 C1820 1.378 . S
C1813 C1812 1.367 . S
C1813 C1821 1.433 . S
C1814 H1810 0.929 . S
C1814 C1816 1.378 . S
C1814 C1818 1.350 . S
C1815 C1818 1.463 . S
C1815 C1820 1.350 . S
C1815 N1823 1.427 . S
C1816 H1807 0.930 . S
C1816 C1814 1.378 . S
C1816 C1817 1.367 . S
C1817 C1816 1.367 . S
C1817 C1819 1.433 . S
C1818 C1814 1.350 . S
C1818 C1815 1.463 . S
C1818 N1822 1.427 . S
C1819 H1809 0.929 . S
C1819 C1817 1.433 . S
C1819 N1822 1.384 . S
C1820 H1811 0.929 . S
C1820 C1812 1.378 . S
C1820 C1815 1.350 . S
C1821 H1808 0.929 . S
C1821 C1813 1.433 . S
C1821 N1823 1.384 . S
N1822 C1818 1.427 . S
N1822 C1819 1.384 . S
N1823 C1815 1.427 . S
N1823 C1821 1.384 . S
H1824 C1830 0.930 . S
H1825 C1834 0.930 . S
H1826 C1839 0.929 . S
H1827 C1837 0.929 . S
H1828 C1832 0.929 . S
H1829 C1838 0.929 . S
C1830 H1824 0.930 . S
C1830 C1831 1.367 . S
C1830 C1838 1.378 . S
C1831 C1830 1.367 . S
C1831 C1839 1.433 . S
C1832 H1828 0.929 . S
C1832 C1834 1.378 1_545 S
C1832 C1836 1.350 . S
C1833 C1836 1.463 . S
C1833 C1838 1.350 . S
C1833 N1841 1.427 . S
C1834 H1825 0.930 . S
C1834 C1832 1.378 1_565 S
C1834 C1835 1.367 . S
C1835 C1834 1.367 . S
C1835 C1837 1.433 . S
C1836 C1832 1.350 . S
C1836 C1833 1.463 . S
C1836 N1840 1.427 . S
C1837 H1827 0.929 . S
C1837 C1835 1.433 . S
C1837 N1840 1.384 1_565 S
C1838 H1829 0.929 . S
C1838 C1830 1.378 . S
C1838 C1833 1.350 . S
C1839 H1826 0.929 . S
C1839 C1831 1.433 . S
C1839 N1841 1.384 . S
N1840 C1836 1.427 . S
N1840 C1837 1.384 1_545 S
N1841 C1833 1.427 . S
N1841 C1839 1.384 . S
H1842 C1848 0.930 . S
H1843 C1852 0.930 . S
H1844 C1857 0.929 . S
H1845 C1855 0.929 1_565 S
H1846 C1850 0.929 . S
H1847 C1856 0.929 . S
C1848 H1842 0.930 . S
C1848 C1849 1.367 . S
C1848 C1856 1.378 . S
C1849 C1848 1.367 . S
C1849 C1857 1.433 . S
C1850 H1846 0.929 . S
C1850 C1852 1.378 1_545 S
C1850 C1854 1.350 . S
C1851 C1854 1.463 . S
C1851 C1856 1.350 . S
C1851 N1859 1.427 . S
C1852 H1843 0.930 . S
C1852 C1850 1.378 1_565 S
C1852 C1853 1.367 . S
C1853 C1852 1.367 . S
C1853 C1855 1.432 1_565 S
C1854 C1850 1.350 . S
C1854 C1851 1.463 . S
C1854 N1858 1.427 . S
C1855 H1845 0.929 1_545 S
C1855 C1853 1.432 1_545 S
C1855 N1858 1.385 . S
C1856 H1847 0.929 . S
C1856 C1848 1.378 . S
C1856 C1851 1.350 . S
C1857 H1844 0.929 . S
C1857 C1849 1.433 . S
C1857 N1859 1.384 . S
N1858 C1854 1.427 . S
N1858 C1855 1.385 . S
N1859 C1851 1.427 . S
N1859 C1857 1.384 . S
H1860 C1866 0.930 . S
H1861 C1870 0.930 . S
H1862 C1875 0.929 . S
H1863 C1873 0.929 . S
H1864 C1868 0.929 . S
H1865 C1874 0.929 . S
C1866 H1860 0.930 . S
C1866 C1867 1.367 . S
C1866 C1874 1.378 . S
C1867 C1866 1.367 . S
C1867 C1875 1.433 1_545 S
C1868 H1864 0.929 . S
C1868 C1870 1.378 . S
C1868 C1872 1.350 . S
C1869 C1872 1.463 . S
C1869 C1874 1.350 1_565 S
C1869 N1877 1.427 . S
C1870 H1861 0.930 . S
C1870 C1868 1.378 . S
C1870 C1871 1.367 . S
C1871 C1870 1.367 . S
C1871 C1873 1.433 . S
C1872 C1868 1.350 . S
C1872 C1869 1.463 . S
C1872 N1876 1.427 . S
C1873 H1863 0.929 . S
C1873 C1871 1.433 . S
C1873 N1876 1.384 . S
C1874 H1865 0.929 . S
C1874 C1866 1.378 . S
C1874 C1869 1.350 1_545 S
C1875 H1862 0.929 . S
C1875 C1867 1.433 1_565 S
C1875 N1877 1.384 . S
N1876 C1872 1.427 . S
N1876 C1873 1.384 . S
N1877 C1869 1.427 . S
N1877 C1875 1.384 . S
H1878 C1884 0.930 . S
H1879 C1888 0.930 . S
H1880 C1893 0.929 . S
H1881 C1891 0.929 . S
H1882 C1886 0.929 . S
H1883 C1892 0.929 . S
C1884 H1878 0.930 . S
C1884 C1885 1.367 . S
C1884 C1892 1.378 . S
C1885 C1884 1.367 . S
C1885 C1893 1.433 . S
C1886 H1882 0.929 . S
C1886 C1888 1.378 . S
C1886 C1890 1.350 . S
C1887 C1890 1.463 . S
C1887 C1892 1.350 . S
C1887 N1895 1.427 . S
C1888 H1879 0.930 . S
C1888 C1886 1.378 . S
C1888 C1889 1.367 1_565 S
C1889 C1888 1.367 1_545 S
C1889 C1891 1.433 . S
C1890 C1886 1.350 . S
C1890 C1887 1.463 . S
C1890 N1894 1.427 1_565 S
C1891 H1881 0.929 . S
C1891 C1889 1.433 . S
C1891 N1894 1.384 . S
C1892 H1883 0.929 . S
C1892 C1884 1.378 . S
C1892 C1887 1.350 . S
C1893 H1880 0.929 . S
C1893 C1885 1.433 . S
C1893 N1895 1.384 . S
N1894 C1890 1.427 1_545 S
N1894 C1891 1.384 . S
N1895 C1887 1.427 . S
N1895 C1893 1.384 . S
H1896 C1902 0.930 . S
H1897 C1906 0.930 . S
H1898 C1911 0.929 . S
H1899 C1909 0.929 . S
H1900 C1904 0.929 . S
H1901 C1910 0.929 . S
C1902 H1896 0.930 . S
C1902 C1903 1.367 . S
C1902 C1910 1.378 . S
C1903 C1902 1.367 . S
C1903 C1911 1.433 . S
C1904 H1900 0.929 . S
C1904 C1906 1.378 . S
C1904 C1908 1.350 . S
C1905 C1908 1.463 . S
C1905 C1910 1.350 . S
C1905 N1913 1.427 . S
C1906 H1897 0.930 . S
C1906 C1904 1.378 . S
C1906 C1907 1.367 1_565 S
C1907 C1906 1.367 1_545 S
C1907 C1909 1.433 . S
C1908 C1904 1.350 . S
C1908 C1905 1.463 . S
C1908 N1912 1.427 1_565 S
C1909 H1899 0.929 . S
C1909 C1907 1.433 . S
C1909 N1912 1.384 . S
C1910 H1901 0.929 . S
C1910 C1902 1.378 . S
C1910 C1905 1.350 . S
C1911 H1898 0.929 . S
C1911 C1903 1.433 . S
C1911 N1913 1.384 . S
N1912 C1908 1.427 1_545 S
N1912 C1909 1.384 . S
N1913 C1905 1.427 . S
N1913 C1911 1.384 . S
H1914 C1920 0.930 . S
H1915 C1924 0.930 . S
H1916 C1929 0.929 . S
H1917 C1927 0.929 . S
H1918 C1922 0.929 . S
H1919 C1928 0.929 . S
C1920 H1914 0.930 . S
C1920 C1921 1.367 . S
C1920 C1928 1.378 . S
C1921 C1920 1.367 . S
C1921 C1929 1.433 1_545 S
C1922 H1918 0.929 . S
C1922 C1924 1.378 . S
C1922 C1926 1.350 . S
C1923 C1926 1.463 . S
C1923 C1928 1.350 1_565 S
C1923 N1931 1.427 . S
C1924 H1915 0.930 . S
C1924 C1922 1.378 . S
C1924 C1925 1.367 . S
C1925 C1924 1.367 . S
C1925 C1927 1.433 . S
C1926 C1922 1.350 . S
C1926 C1923 1.463 . S
C1926 N1930 1.427 . S
C1927 H1917 0.929 . S
C1927 C1925 1.433 . S
C1927 N1930 1.384 . S
C1928 H1919 0.929 . S
C1928 C1920 1.378 . S
C1928 C1923 1.350 1_545 S
C1929 H1916 0.929 . S
C1929 C1921 1.433 1_565 S
C1929 N1931 1.384 . S
N1930 C1926 1.427 . S
N1930 C1927 1.384 . S
N1931 C1923 1.427 . S
N1931 C1929 1.384 . S
H1932 C1938 0.930 . S
H1933 C1942 0.930 . S
H1934 C1947 0.929 . S
H1935 C1945 0.929 . S
H1936 C1940 0.929 . S
H1937 C1946 0.929 . S
C1938 H1932 0.930 . S
C1938 C1939 1.367 . S
C1938 C1946 1.378 . S
C1939 C1938 1.367 . S
C1939 C1947 1.433 1_565 S
C1940 H1936 0.929 . S
C1940 C1942 1.378 . S
C1940 C1944 1.350 . S
C1941 C1944 1.463 . S
C1941 C1946 1.350 1_545 S
C1941 N1949 1.427 . S
C1942 H1933 0.930 . S
C1942 C1940 1.378 . S
C1942 C1943 1.367 . S
C1943 C1942 1.367 . S
C1943 C1945 1.433 . S
C1944 C1940 1.350 . S
C1944 C1941 1.463 . S
C1944 N1948 1.427 . S
C1945 H1935 0.929 . S
C1945 C1943 1.433 . S
C1945 N1948 1.384 . S
C1946 H1937 0.929 . S
C1946 C1938 1.378 . S
C1946 C1941 1.350 1_565 S
C1947 H1934 0.929 . S
C1947 C1939 1.433 1_545 S
C1947 N1949 1.384 . S
N1948 C1944 1.427 . S
N1948 C1945 1.384 . S
N1949 C1941 1.427 . S
N1949 C1947 1.384 . S
H1950 C1956 0.930 . S
H1951 C1960 0.930 . S
H1952 C1965 0.929 . S
H1953 C1963 0.929 . S
H1954 C1958 0.929 . S
H1955 C1964 0.929 . S
C1956 H1950 0.930 . S
C1956 C1957 1.367 1_545 S
C1956 C1964 1.378 . S
C1957 C1956 1.367 1_565 S
C1957 C1965 1.433 . S
C1958 H1954 0.929 . S
C1958 C1960 1.378 . S
C1958 C1962 1.350 . S
C1959 C1962 1.463 . S
C1959 C1964 1.350 . S
C1959 N1967 1.427 1_545 S
C1960 H1951 0.930 . S
C1960 C1958 1.378 . S
C1960 C1961 1.367 . S
C1961 C1960 1.367 . S
C1961 C1963 1.433 . S
C1962 C1958 1.350 . S
C1962 C1959 1.463 . S
C1962 N1966 1.427 . S
C1963 H1953 0.929 . S
C1963 C1961 1.433 . S
C1963 N1966 1.384 . S
C1964 H1955 0.929 . S
C1964 C1956 1.378 . S
C1964 C1959 1.350 . S
C1965 H1952 0.929 . S
C1965 C1957 1.433 . S
C1965 N1967 1.384 . S
N1966 C1962 1.427 . S
N1966 C1963 1.384 . S
N1967 C1959 1.427 1_565 S
N1967 C1965 1.384 . S
H1968 C1974 0.930 . S
H1969 C1978 0.930 . S
H1970 C1983 0.929 . S
H1971 C1981 0.929 . S
H1972 C1976 0.929 . S
H1973 C1982 0.929 . S
C1974 H1968 0.930 . S
C1974 C1975 1.367 . S
C1974 C1982 1.378 . S
C1975 C1974 1.367 . S
C1975 C1983 1.433 . S
C1976 H1972 0.929 . S
C1976 C1978 1.378 . S
C1976 C1980 1.350 . S
C1977 C1980 1.463 . S
C1977 C1982 1.350 . S
C1977 N1985 1.427 . S
C1978 H1969 0.930 . S
C1978 C1976 1.378 . S
C1978 C1979 1.367 . S
C1979 C1978 1.367 . S
C1979 C1981 1.433 . S
C1980 C1976 1.350 . S
C1980 C1977 1.463 . S
C1980 N1984 1.427 . S
C1981 H1971 0.929 . S
C1981 C1979 1.433 . S
C1981 N1984 1.384 . S
C1982 H1973 0.929 . S
C1982 C1974 1.378 . S
C1982 C1977 1.350 . S
C1983 H1970 0.929 . S
C1983 C1975 1.433 . S
C1983 N1985 1.384 . S
N1984 C1980 1.427 . S
N1984 C1981 1.384 . S
N1985 C1977 1.427 . S
N1985 C1983 1.384 . S
H1986 C1992 0.930 . S
H1987 C1996 0.930 . S
H1988 C2001 0.929 . S
H1989 C1999 0.929 . S
H1990 C1994 0.929 . S
H1991 C2000 0.929 . S
C1992 H1986 0.930 . S
C1992 C1993 1.367 . S
C1992 C2000 1.378 . S
C1993 C1992 1.367 . S
C1993 C2001 1.433 . S
C1994 H1990 0.929 . S
C1994 C1996 1.378 . S
C1994 C1998 1.350 . S
C1995 C1998 1.463 . S
C1995 C2000 1.350 . S
C1995 N2003 1.427 . S
C1996 H1987 0.930 . S
C1996 C1994 1.378 . S
C1996 C1997 1.367 . S
C1997 C1996 1.367 . S
C1997 C1999 1.433 . S
C1998 C1994 1.350 . S
C1998 C1995 1.463 . S
C1998 N2002 1.427 . S
C1999 H1989 0.929 . S
C1999 C1997 1.433 . S
C1999 N2002 1.384 . S
C2000 H1991 0.929 . S
C2000 C1992 1.378 . S
C2000 C1995 1.350 . S
C2001 H1988 0.929 . S
C2001 C1993 1.433 . S
C2001 N2003 1.384 . S
N2002 C1998 1.427 . S
N2002 C1999 1.384 . S
N2003 C1995 1.427 . S
N2003 C2001 1.384 . S
H2004 C2010 0.930 . S
H2005 C2014 0.930 . S
H2006 C2019 0.929 . S
H2007 C2017 0.929 . S
H2008 C2012 0.929 . S
H2009 C2018 0.929 . S
C2010 H2004 0.930 . S
C2010 C2011 1.367 . S
C2010 C2018 1.378 . S
C2011 C2010 1.367 . S
C2011 C2019 1.433 . S
C2012 H2008 0.929 . S
C2012 C2014 1.378 . S
C2012 C2016 1.350 . S
C2013 C2016 1.463 . S
C2013 C2018 1.350 . S
C2013 N2021 1.427 . S
C2014 H2005 0.930 . S
C2014 C2012 1.378 . S
C2014 C2015 1.367 . S
C2015 C2014 1.367 . S
C2015 C2017 1.433 . S
C2016 C2012 1.350 . S
C2016 C2013 1.463 . S
C2016 N2020 1.427 . S
C2017 H2007 0.929 . S
C2017 C2015 1.433 . S
C2017 N2020 1.384 . S
C2018 H2009 0.929 . S
C2018 C2010 1.378 . S
C2018 C2013 1.350 . S
C2019 H2006 0.929 . S
C2019 C2011 1.433 . S
C2019 N2021 1.384 . S
N2020 C2016 1.427 . S
N2020 C2017 1.384 . S
N2021 C2013 1.427 . S
N2021 C2019 1.384 . S
H2022 C2028 0.930 . S
H2023 C2032 0.930 . S
H2024 C2037 0.929 . S
H2025 C2035 0.929 . S
H2026 C2030 0.929 . S
H2027 C2036 0.929 . S
C2028 H2022 0.930 . S
C2028 C2029 1.367 . S
C2028 C2036 1.378 . S
C2029 C2028 1.367 . S
C2029 C2037 1.433 . S
C2030 H2026 0.929 . S
C2030 C2032 1.378 . S
C2030 C2034 1.350 . S
C2031 C2034 1.463 . S
C2031 C2036 1.350 . S
C2031 N2039 1.427 . S
C2032 H2023 0.930 . S
C2032 C2030 1.378 . S
C2032 C2033 1.367 . S
C2033 C2032 1.367 . S
C2033 C2035 1.433 . S
C2034 C2030 1.350 . S
C2034 C2031 1.463 . S
C2034 N2038 1.427 . S
C2035 H2025 0.929 . S
C2035 C2033 1.433 . S
C2035 N2038 1.384 . S
C2036 H2027 0.929 . S
C2036 C2028 1.378 . S
C2036 C2031 1.350 . S
C2037 H2024 0.929 . S
C2037 C2029 1.433 . S
C2037 N2039 1.384 . S
N2038 C2034 1.427 . S
N2038 C2035 1.384 . S
N2039 C2031 1.427 . S
N2039 C2037 1.384 . S
H2040 C2046 0.930 . S
H2041 C2050 0.930 . S
H2042 C2055 0.929 . S
H2043 C2053 0.929 . S
H2044 C2048 0.929 . S
H2045 C2054 0.929 . S
C2046 H2040 0.930 . S
C2046 C2047 1.367 . S
C2046 C2054 1.378 . S
C2047 C2046 1.367 . S
C2047 C2055 1.433 . S
C2048 H2044 0.929 . S
C2048 C2050 1.378 . S
C2048 C2052 1.350 . S
C2049 C2052 1.463 . S
C2049 C2054 1.350 . S
C2049 N2057 1.427 . S
C2050 H2041 0.930 . S
C2050 C2048 1.378 . S
C2050 C2051 1.367 . S
C2051 C2050 1.367 . S
C2051 C2053 1.433 . S
C2052 C2048 1.350 . S
C2052 C2049 1.463 . S
C2052 N2056 1.427 . S
C2053 H2043 0.929 . S
C2053 C2051 1.433 . S
C2053 N2056 1.384 . S
C2054 H2045 0.929 . S
C2054 C2046 1.378 . S
C2054 C2049 1.350 . S
C2055 H2042 0.929 . S
C2055 C2047 1.433 . S
C2055 N2057 1.384 . S
N2056 C2052 1.427 . S
N2056 C2053 1.384 . S
N2057 C2049 1.427 . S
N2057 C2055 1.384 . S
H2058 C2064 0.930 . S
H2059 C2068 0.930 . S
H2060 C2073 0.929 . S
H2061 C2071 0.929 . S
H2062 C2066 0.929 . S
H2063 C2072 0.929 . S
C2064 H2058 0.930 . S
C2064 C2065 1.367 . S
C2064 C2072 1.378 . S
C2065 C2064 1.367 . S
C2065 C2073 1.433 . S
C2066 H2062 0.929 . S
C2066 C2068 1.378 . S
C2066 C2070 1.350 . S
C2067 C2070 1.463 . S
C2067 C2072 1.350 . S
C2067 N2075 1.427 . S
C2068 H2059 0.930 . S
C2068 C2066 1.378 . S
C2068 C2069 1.367 . S
C2069 C2068 1.367 . S
C2069 C2071 1.433 . S
C2070 C2066 1.350 . S
C2070 C2067 1.463 . S
C2070 N2074 1.427 . S
C2071 H2061 0.929 . S
C2071 C2069 1.433 . S
C2071 N2074 1.384 . S
C2072 H2063 0.929 . S
C2072 C2064 1.378 . S
C2072 C2067 1.350 . S
C2073 H2060 0.929 . S
C2073 C2065 1.433 . S
C2073 N2075 1.384 . S
N2074 C2070 1.427 . S
N2074 C2071 1.384 . S
N2075 C2067 1.427 . S
N2075 C2073 1.384 . S
H2076 C2082 0.930 . S
H2077 C2086 0.930 . S
H2078 C2091 0.929 . S
H2079 C2089 0.929 . S
H2080 C2084 0.929 . S
H2081 C2090 0.929 . S
C2082 H2076 0.930 . S
C2082 C2083 1.367 . S
C2082 C2090 1.378 . S
C2083 C2082 1.367 . S
C2083 C2091 1.433 . S
C2084 H2080 0.929 . S
C2084 C2086 1.378 . S
C2084 C2088 1.350 . S
C2085 C2088 1.463 . S
C2085 C2090 1.350 . S
C2085 N2093 1.427 . S
C2086 H2077 0.930 . S
C2086 C2084 1.378 . S
C2086 C2087 1.367 . S
C2087 C2086 1.367 . S
C2087 C2089 1.433 . S
C2088 C2084 1.350 . S
C2088 C2085 1.463 . S
C2088 N2092 1.427 . S
C2089 H2079 0.929 . S
C2089 C2087 1.433 . S
C2089 N2092 1.384 . S
C2090 H2081 0.929 . S
C2090 C2082 1.378 . S
C2090 C2085 1.350 . S
C2091 H2078 0.929 . S
C2091 C2083 1.433 . S
C2091 N2093 1.384 . S
N2092 C2088 1.427 . S
N2092 C2089 1.384 . S
N2093 C2085 1.427 . S
N2093 C2091 1.384 . S
H2094 C2100 0.930 . S
H2095 C2104 0.930 . S
H2096 C2109 0.929 . S
H2097 C2107 0.929 . S
H2098 C2102 0.929 . S
H2099 C2108 0.929 . S
C2100 H2094 0.930 . S
C2100 C2101 1.367 . S
C2100 C2108 1.378 . S
C2101 C2100 1.367 . S
C2101 C2109 1.433 . S
C2102 H2098 0.929 . S
C2102 C2104 1.378 . S
C2102 C2106 1.350 . S
C2103 C2106 1.463 . S
C2103 C2108 1.350 . S
C2103 N2111 1.427 . S
C2104 H2095 0.930 . S
C2104 C2102 1.378 . S
C2104 C2105 1.367 . S
C2105 C2104 1.367 . S
C2105 C2107 1.433 . S
C2106 C2102 1.350 . S
C2106 C2103 1.463 . S
C2106 N2110 1.427 . S
C2107 H2097 0.929 . S
C2107 C2105 1.433 . S
C2107 N2110 1.384 . S
C2108 H2099 0.929 . S
C2108 C2100 1.378 . S
C2108 C2103 1.350 . S
C2109 H2096 0.929 . S
C2109 C2101 1.433 . S
C2109 N2111 1.384 . S
N2110 C2106 1.427 . S
N2110 C2107 1.384 . S
N2111 C2103 1.427 . S
N2111 C2109 1.384 . S
H2112 C2118 0.930 . S
H2113 C2122 0.930 . S
H2114 C2127 0.929 . S
H2115 C2125 0.929 . S
H2116 C2120 0.929 . S
H2117 C2126 0.929 . S
C2118 H2112 0.930 . S
C2118 C2119 1.367 . S
C2118 C2126 1.378 . S
C2119 C2118 1.367 . S
C2119 C2127 1.433 . S
C2120 H2116 0.929 . S
C2120 C2122 1.378 . S
C2120 C2124 1.350 . S
C2121 C2124 1.463 1_545 S
C2121 C2126 1.350 . S
C2121 N2129 1.427 . S
C2122 H2113 0.930 . S
C2122 C2120 1.378 . S
C2122 C2123 1.367 . S
C2123 C2122 1.367 . S
C2123 C2125 1.433 . S
C2124 C2120 1.350 . S
C2124 C2121 1.463 1_565 S
C2124 N2128 1.427 . S
C2125 H2115 0.929 . S
C2125 C2123 1.433 . S
C2125 N2128 1.384 . S
C2126 H2117 0.929 . S
C2126 C2118 1.378 . S
C2126 C2121 1.350 . S
C2127 H2114 0.929 . S
C2127 C2119 1.433 . S
C2127 N2129 1.384 . S
N2128 C2124 1.427 . S
N2128 C2125 1.384 . S
N2129 C2121 1.427 . S
N2129 C2127 1.384 . S
H2130 C2136 0.930 . S
H2131 C2140 0.930 . S
H2132 C2145 0.929 . S
H2133 C2143 0.929 . S
H2134 C2138 0.929 . S
H2135 C2144 0.929 . S
C2136 H2130 0.930 . S
C2136 C2137 1.367 . S
C2136 C2144 1.378 . S
C2137 C2136 1.367 . S
C2137 C2145 1.433 . S
C2138 H2134 0.929 . S
C2138 C2140 1.378 . S
C2138 C2142 1.350 . S
C2139 C2142 1.463 . S
C2139 C2144 1.350 . S
C2139 N2147 1.427 . S
C2140 H2131 0.930 . S
C2140 C2138 1.378 . S
C2140 C2141 1.367 . S
C2141 C2140 1.367 . S
C2141 C2143 1.433 . S
C2142 C2138 1.350 . S
C2142 C2139 1.463 . S
C2142 N2146 1.427 . S
C2143 H2133 0.929 . S
C2143 C2141 1.433 . S
C2143 N2146 1.384 . S
C2144 H2135 0.929 . S
C2144 C2136 1.378 . S
C2144 C2139 1.350 . S
C2145 H2132 0.929 . S
C2145 C2137 1.433 . S
C2145 N2147 1.384 . S
N2146 C2142 1.427 . S
N2146 C2143 1.384 . S
N2147 C2139 1.427 . S
N2147 C2145 1.384 . S
H2148 C2154 0.930 . S
H2149 C2158 0.930 . S
H2150 C2163 0.929 . S
H2151 C2161 0.929 . S
H2152 C2156 0.929 . S
H2153 C2162 0.929 . S
C2154 H2148 0.930 . S
C2154 C2155 1.367 . S
C2154 C2162 1.378 . S
C2155 C2154 1.367 . S
C2155 C2163 1.433 . S
C2156 H2152 0.929 . S
C2156 C2158 1.378 . S
C2156 C2160 1.350 . S
C2157 C2160 1.463 1_545 S
C2157 C2162 1.350 . S
C2157 N2165 1.427 . S
C2158 H2149 0.930 . S
C2158 C2156 1.378 . S
C2158 C2159 1.367 . S
C2159 C2158 1.367 . S
C2159 C2161 1.433 . S
C2160 C2156 1.350 . S
C2160 C2157 1.463 1_565 S
C2160 N2164 1.427 . S
C2161 H2151 0.929 . S
C2161 C2159 1.433 . S
C2161 N2164 1.384 . S
C2162 H2153 0.929 . S
C2162 C2154 1.378 . S
C2162 C2157 1.350 . S
C2163 H2150 0.929 . S
C2163 C2155 1.433 . S
C2163 N2165 1.384 . S
N2164 C2160 1.427 . S
N2164 C2161 1.384 . S
N2165 C2157 1.427 . S
N2165 C2163 1.384 . S
H2166 C2172 0.930 . S
H2167 C2176 0.930 . S
H2168 C2181 0.929 . S
H2169 C2179 0.929 . S
H2170 C2174 0.929 . S
H2171 C2180 0.929 . S
C2172 H2166 0.930 . S
C2172 C2173 1.367 . S
C2172 C2180 1.378 . S
C2173 C2172 1.367 . S
C2173 C2181 1.433 . S
C2174 H2170 0.929 . S
C2174 C2176 1.378 . S
C2174 C2178 1.350 . S
C2175 C2178 1.463 1_556 S
C2175 C2180 1.350 . S
C2175 N2183 1.427 . S
C2176 H2167 0.930 . S
C2176 C2174 1.378 . S
C2176 C2177 1.367 . S
C2177 C2176 1.367 . S
C2177 C2179 1.433 . S
C2178 C2174 1.350 . S
C2178 C2175 1.463 1_554 S
C2178 N2182 1.427 . S
C2179 H2169 0.929 . S
C2179 C2177 1.433 . S
C2179 N2182 1.384 . S
C2180 H2171 0.929 . S
C2180 C2172 1.378 . S
C2180 C2175 1.350 . S
C2181 H2168 0.929 . S
C2181 C2173 1.433 . S
C2181 N2183 1.384 . S
N2182 C2178 1.427 . S
N2182 C2179 1.384 . S
N2183 C2175 1.427 . S
N2183 C2181 1.384 . S
H2184 C2190 0.930 . S
H2185 C2194 0.930 . S
H2186 C2199 0.929 . S
H2187 C2197 0.929 . S
H2188 C2192 0.929 1_565 S
H2189 C2198 0.929 1_545 S
C2190 H2184 0.930 . S
C2190 C2191 1.367 . S
C2190 C2198 1.378 . S
C2191 C2190 1.367 . S
C2191 C2199 1.433 . S
C2192 H2188 0.929 1_545 S
C2192 C2194 1.378 . S
C2192 C2196 1.350 . S
C2193 C2196 1.463 1_565 S
C2193 C2198 1.350 . S
C2193 N2201 1.427 . S
C2194 H2185 0.930 . S
C2194 C2192 1.378 . S
C2194 C2195 1.367 . S
C2195 C2194 1.367 . S
C2195 C2197 1.433 . S
C2196 C2192 1.350 . S
C2196 C2193 1.463 1_545 S
C2196 N2200 1.427 . S
C2197 H2187 0.929 . S
C2197 C2195 1.433 . S
C2197 N2200 1.384 . S
C2198 H2189 0.929 1_565 S
C2198 C2190 1.378 . S
C2198 C2193 1.350 . S
C2199 H2186 0.929 . S
C2199 C2191 1.433 . S
C2199 N2201 1.384 . S
N2200 C2196 1.427 . S
N2200 C2197 1.384 . S
N2201 C2193 1.427 . S
N2201 C2199 1.384 . S
H2202 C2208 0.930 . S
H2203 C2212 0.930 . S
H2204 C2217 0.929 . S
H2205 C2215 0.929 . S
H2206 C2210 0.929 . S
H2207 C2216 0.929 . S
C2208 H2202 0.930 . S
C2208 C2209 1.367 . S
C2208 C2216 1.378 . S
C2209 C2208 1.367 . S
C2209 C2217 1.433 . S
C2210 H2206 0.929 . S
C2210 C2212 1.378 . S
C2210 C2214 1.350 . S
C2211 C2214 1.463 . S
C2211 C2216 1.350 . S
C2211 N2219 1.427 . S
C2212 H2203 0.930 . S
C2212 C2210 1.378 . S
C2212 C2213 1.367 . S
C2213 C2212 1.367 . S
C2213 C2215 1.433 . S
C2214 C2210 1.350 . S
C2214 C2211 1.463 . S
C2214 N2218 1.427 . S
C2215 H2205 0.929 . S
C2215 C2213 1.433 . S
C2215 N2218 1.384 . S
C2216 H2207 0.929 . S
C2216 C2208 1.378 . S
C2216 C2211 1.350 . S
C2217 H2204 0.929 . S
C2217 C2209 1.433 . S
C2217 N2219 1.384 . S
N2218 C2214 1.427 . S
N2218 C2215 1.384 . S
N2219 C2211 1.427 . S
N2219 C2217 1.384 . S
H2220 C2226 0.930 . S
H2221 C2230 0.930 . S
H2222 C2235 0.929 . S
H2223 C2233 0.929 . S
H2224 C2228 0.929 1_565 S
H2225 C2234 0.929 1_545 S
C2226 H2220 0.930 . S
C2226 C2227 1.367 . S
C2226 C2234 1.378 . S
C2227 C2226 1.367 . S
C2227 C2235 1.433 . S
C2228 H2224 0.929 1_545 S
C2228 C2230 1.378 . S
C2228 C2232 1.350 . S
C2229 C2232 1.463 1_565 S
C2229 C2234 1.350 . S
C2229 N2237 1.427 . S
C2230 H2221 0.930 . S
C2230 C2228 1.378 . S
C2230 C2231 1.367 . S
C2231 C2230 1.367 . S
C2231 C2233 1.433 . S
C2232 C2228 1.350 . S
C2232 C2229 1.463 1_545 S
C2232 N2236 1.427 . S
C2233 H2223 0.929 . S
C2233 C2231 1.433 . S
C2233 N2236 1.384 . S
C2234 H2225 0.929 1_565 S
C2234 C2226 1.378 . S
C2234 C2229 1.350 . S
C2235 H2222 0.929 . S
C2235 C2227 1.433 . S
C2235 N2237 1.384 . S
N2236 C2232 1.427 . S
N2236 C2233 1.384 . S
N2237 C2229 1.427 . S
N2237 C2235 1.384 . S
H2238 C2244 0.930 . S
H2239 C2248 0.930 . S
H2240 C2253 0.929 . S
H2241 C2251 0.929 . S
H2242 C2246 0.929 . S
H2243 C2252 0.929 . S
C2244 H2238 0.930 . S
C2244 C2245 1.367 . S
C2244 C2252 1.378 . S
C2245 C2244 1.367 . S
C2245 C2253 1.433 . S
C2246 H2242 0.929 . S
C2246 C2248 1.378 . S
C2246 C2250 1.350 . S
C2247 C2250 1.463 1_554 S
C2247 C2252 1.350 . S
C2247 N2255 1.427 . S
C2248 H2239 0.930 . S
C2248 C2246 1.378 . S
C2248 C2249 1.367 . S
C2249 C2248 1.367 . S
C2249 C2251 1.433 . S
C2250 C2246 1.350 . S
C2250 C2247 1.463 1_556 S
C2250 N2254 1.427 . S
C2251 H2241 0.929 . S
C2251 C2249 1.433 . S
C2251 N2254 1.384 . S
C2252 H2243 0.929 . S
C2252 C2244 1.378 . S
C2252 C2247 1.350 . S
C2253 H2240 0.929 . S
C2253 C2245 1.433 . S
C2253 N2255 1.384 . S
N2254 C2250 1.427 . S
N2254 C2251 1.384 . S
N2255 C2247 1.427 . S
N2255 C2253 1.384 . S
H2256 C2262 0.930 . S
H2257 C2266 0.930 . S
H2258 C2271 0.929 . S
H2259 C2269 0.929 . S
H2260 C2264 0.929 . S
H2261 C2270 0.929 . S
C2262 H2256 0.930 . S
C2262 C2263 1.367 . S
C2262 C2270 1.378 . S
C2263 C2262 1.367 . S
C2263 C2271 1.433 . S
C2264 H2260 0.929 . S
C2264 C2266 1.378 . S
C2264 C2268 1.350 . S
C2265 C2268 1.463 . S
C2265 C2270 1.350 . S
C2265 N2273 1.427 . S
C2266 H2257 0.930 . S
C2266 C2264 1.378 . S
C2266 C2267 1.367 . S
C2267 C2266 1.367 . S
C2267 C2269 1.433 . S
C2268 C2264 1.350 . S
C2268 C2265 1.463 . S
C2268 N2272 1.427 . S
C2269 H2259 0.929 . S
C2269 C2267 1.433 . S
C2269 N2272 1.384 . S
C2270 H2261 0.929 . S
C2270 C2262 1.378 . S
C2270 C2265 1.350 . S
C2271 H2258 0.929 . S
C2271 C2263 1.433 . S
C2271 N2273 1.384 . S
N2272 C2268 1.427 . S
N2272 C2269 1.384 . S
N2273 C2265 1.427 . S
N2273 C2271 1.384 . S
H2274 C2280 0.930 . S
H2275 C2284 0.930 . S
H2276 C2289 0.929 . S
H2277 C2287 0.929 . S
H2278 C2282 0.929 . S
H2279 C2288 0.929 . S
C2280 H2274 0.930 . S
C2280 C2281 1.367 . S
C2280 C2288 1.378 . S
C2281 C2280 1.367 . S
C2281 C2289 1.433 . S
C2282 H2278 0.929 . S
C2282 C2284 1.378 . S
C2282 C2286 1.350 . S
C2283 C2286 1.463 1_556 S
C2283 C2288 1.350 . S
C2283 N2291 1.427 . S
C2284 H2275 0.930 . S
C2284 C2282 1.378 . S
C2284 C2285 1.367 . S
C2285 C2284 1.367 . S
C2285 C2287 1.433 . S
C2286 C2282 1.350 . S
C2286 C2283 1.463 1_554 S
C2286 N2290 1.427 . S
C2287 H2277 0.929 . S
C2287 C2285 1.433 . S
C2287 N2290 1.384 . S
C2288 H2279 0.929 . S
C2288 C2280 1.378 . S
C2288 C2283 1.350 . S
C2289 H2276 0.929 . S
C2289 C2281 1.433 . S
C2289 N2291 1.384 . S
N2290 C2286 1.427 . S
N2290 C2287 1.384 . S
N2291 C2283 1.427 . S
N2291 C2289 1.384 . S
H2292 C2298 0.930 . S
H2293 C2302 0.930 . S
H2294 C2307 0.929 . S
H2295 C2305 0.929 . S
H2296 C2300 0.929 . S
H2297 C2306 0.929 . S
C2298 H2292 0.930 . S
C2298 C2299 1.367 . S
C2298 C2306 1.378 . S
C2299 C2298 1.367 . S
C2299 C2307 1.433 . S
C2300 H2296 0.929 . S
C2300 C2302 1.378 . S
C2300 C2304 1.350 . S
C2301 C2304 1.463 . S
C2301 C2306 1.350 . S
C2301 N2309 1.427 . S
C2302 H2293 0.930 . S
C2302 C2300 1.378 . S
C2302 C2303 1.367 . S
C2303 C2302 1.367 . S
C2303 C2305 1.433 . S
C2304 C2300 1.350 . S
C2304 C2301 1.463 . S
C2304 N2308 1.427 . S
C2305 H2295 0.929 . S
C2305 C2303 1.433 . S
C2305 N2308 1.384 . S
C2306 H2297 0.929 . S
C2306 C2298 1.378 . S
C2306 C2301 1.350 . S
C2307 H2294 0.929 . S
C2307 C2299 1.433 . S
C2307 N2309 1.384 . S
N2308 C2304 1.427 . S
N2308 C2305 1.384 . S
N2309 C2301 1.427 . S
N2309 C2307 1.384 . S
H2310 C2316 0.930 . S
H2311 C2320 0.930 . S
H2312 C2325 0.929 . S
H2313 C2323 0.929 . S
H2314 C2318 0.929 . S
H2315 C2324 0.929 . S
C2316 H2310 0.930 . S
C2316 C2317 1.367 . S
C2316 C2324 1.378 . S
C2317 C2316 1.367 . S
C2317 C2325 1.433 . S
C2318 H2314 0.929 . S
C2318 C2320 1.378 . S
C2318 C2322 1.350 . S
C2319 C2322 1.463 . S
C2319 C2324 1.350 . S
C2319 N2327 1.427 . S
C2320 H2311 0.930 . S
C2320 C2318 1.378 . S
C2320 C2321 1.367 . S
C2321 C2320 1.367 . S
C2321 C2323 1.433 . S
C2322 C2318 1.350 . S
C2322 C2319 1.463 . S
C2322 N2326 1.427 . S
C2323 H2313 0.929 . S
C2323 C2321 1.433 . S
C2323 N2326 1.384 . S
C2324 H2315 0.929 . S
C2324 C2316 1.378 . S
C2324 C2319 1.350 . S
C2325 H2312 0.929 . S
C2325 C2317 1.433 . S
C2325 N2327 1.384 . S
N2326 C2322 1.427 . S
N2326 C2323 1.384 . S
N2327 C2319 1.427 . S
N2327 C2325 1.384 . S
H2328 C2334 0.930 . S
H2329 C2338 0.930 . S
H2330 C2343 0.929 . S
H2331 C2341 0.929 . S
H2332 C2336 0.929 . S
H2333 C2342 0.929 . S
C2334 H2328 0.930 . S
C2334 C2335 1.367 . S
C2334 C2342 1.378 . S
C2335 C2334 1.367 . S
C2335 C2343 1.433 . S
C2336 H2332 0.929 . S
C2336 C2338 1.378 . S
C2336 C2340 1.350 . S
C2337 C2340 1.463 . S
C2337 C2342 1.350 . S
C2337 N2345 1.427 . S
C2338 H2329 0.930 . S
C2338 C2336 1.378 . S
C2338 C2339 1.367 . S
C2339 C2338 1.367 . S
C2339 C2341 1.433 . S
C2340 C2336 1.350 . S
C2340 C2337 1.463 . S
C2340 N2344 1.427 . S
C2341 H2331 0.929 . S
C2341 C2339 1.433 . S
C2341 N2344 1.384 . S
C2342 H2333 0.929 . S
C2342 C2334 1.378 . S
C2342 C2337 1.350 . S
C2343 H2330 0.929 . S
C2343 C2335 1.433 . S
C2343 N2345 1.384 . S
N2344 C2340 1.427 . S
N2344 C2341 1.384 . S
N2345 C2337 1.427 . S
N2345 C2343 1.384 . S
H2346 C2352 0.930 . S
H2347 C2356 0.930 . S
H2348 C2361 0.929 . S
H2349 C2359 0.929 . S
H2350 C2354 0.929 . S
H2351 C2360 0.929 . S
C2352 H2346 0.930 . S
C2352 C2353 1.367 . S
C2352 C2360 1.378 . S
C2353 C2352 1.367 . S
C2353 C2361 1.433 . S
C2354 H2350 0.929 . S
C2354 C2356 1.378 . S
C2354 C2358 1.350 . S
C2355 C2358 1.463 1_556 S
C2355 C2360 1.350 . S
C2355 N2363 1.427 . S
C2356 H2347 0.930 . S
C2356 C2354 1.378 . S
C2356 C2357 1.367 . S
C2357 C2356 1.367 . S
C2357 C2359 1.433 . S
C2358 C2354 1.350 . S
C2358 C2355 1.463 1_554 S
C2358 N2362 1.427 . S
C2359 H2349 0.929 . S
C2359 C2357 1.433 . S
C2359 N2362 1.384 . S
C2360 H2351 0.929 . S
C2360 C2352 1.378 . S
C2360 C2355 1.350 . S
C2361 H2348 0.929 . S
C2361 C2353 1.433 . S
C2361 N2363 1.384 . S
N2362 C2358 1.427 . S
N2362 C2359 1.384 . S
N2363 C2355 1.427 . S
N2363 C2361 1.384 . S
H2364 C2370 0.930 . S
H2365 C2374 0.930 . S
H2366 C2379 0.929 . S
H2367 C2377 0.929 . S
H2368 C2372 0.929 . S
H2369 C2378 0.929 . S
C2370 H2364 0.930 . S
C2370 C2371 1.367 . S
C2370 C2378 1.378 . S
C2371 C2370 1.367 . S
C2371 C2379 1.433 . S
C2372 H2368 0.929 . S
C2372 C2374 1.378 . S
C2372 C2376 1.350 . S
C2373 C2376 1.463 . S
C2373 C2378 1.350 . S
C2373 N2381 1.427 . S
C2374 H2365 0.930 . S
C2374 C2372 1.378 . S
C2374 C2375 1.367 . S
C2375 C2374 1.367 . S
C2375 C2377 1.433 . S
C2376 C2372 1.350 . S
C2376 C2373 1.463 . S
C2376 N2380 1.427 . S
C2377 H2367 0.929 . S
C2377 C2375 1.433 . S
C2377 N2380 1.384 . S
C2378 H2369 0.929 . S
C2378 C2370 1.378 . S
C2378 C2373 1.350 . S
C2379 H2366 0.929 . S
C2379 C2371 1.433 . S
C2379 N2381 1.384 . S
N2380 C2376 1.427 . S
N2380 C2377 1.384 . S
N2381 C2373 1.427 . S
N2381 C2379 1.384 . S
H2382 C2388 0.930 . S
H2383 C2392 0.930 . S
H2384 C2397 0.929 . S
H2385 C2395 0.929 . S
H2386 C2390 0.929 . S
H2387 C2396 0.929 . S
C2388 H2382 0.930 . S
C2388 C2389 1.367 . S
C2388 C2396 1.378 . S
C2389 C2388 1.367 . S
C2389 C2397 1.433 . S
C2390 H2386 0.929 . S
C2390 C2392 1.378 . S
C2390 C2394 1.350 . S
C2391 C2394 1.463 . S
C2391 C2396 1.350 . S
C2391 N2399 1.427 . S
C2392 H2383 0.930 . S
C2392 C2390 1.378 . S
C2392 C2393 1.367 . S
C2393 C2392 1.367 . S
C2393 C2395 1.433 . S
C2394 C2390 1.350 . S
C2394 C2391 1.463 . S
C2394 N2398 1.427 . S
C2395 H2385 0.929 . S
C2395 C2393 1.433 . S
C2395 N2398 1.384 . S
C2396 H2387 0.929 . S
C2396 C2388 1.378 . S
C2396 C2391 1.350 . S
C2397 H2384 0.929 . S
C2397 C2389 1.433 . S
C2397 N2399 1.384 . S
N2398 C2394 1.427 . S
N2398 C2395 1.384 . S
N2399 C2391 1.427 . S
N2399 C2397 1.384 . S
C679 C3 0.836 . S
C683 C570 0.910 . S
C697 C37 0.839 . S
C701 C171 0.896 . S
C715 C45 0.859 . S
C719 C541 0.889 . S
C733 C213 0.891 . S
C737 C66 0.846 . S
C751 C100 0.835 . S
C755 C625 0.902 . S
C769 C310 0.913 . S
C773 C121 0.872 . S
C787 C667 0.917 . S
C791 C129 0.861 . S
C805 C150 0.844 . S
C809 C255 0.892 . S
C823 C184 0.865 . S
C827 C402 0.890 . S
C841 C205 0.876 . S
C845 C16 0.908 . S
C859 C360 0.904 . S
C863 C226 0.878 . S
C877 C58 0.918 . S
C881 C247 0.857 . S
C895 C268 0.876 . S
C899 C444 0.897 . S
C913 C276 0.850 . S
C917 C142 0.917 . S
C931 C297 0.853 . S
C935 C499 0.917 . S
C949 C87 0.902 . S
C953 C318 0.835 . S
C967 C234 0.889 . S
C971 C352 0.859 . S
C985 C507 0.892 . S
C989 C373 0.871 . S
C1003 C192 0.896 . S
C1007 C381 0.839 . S
C1021 C415 0.876 . S
C1025 C549 0.897 . S
C1039 C289 0.903 . S
C1043 C423 0.835 . S
C1057 C633 0.900 . S
C1061 C457 0.878 . S
C1075 C331 0.893 . S
C1079 C478 0.872 . S
C1093 C486 0.837 . S
C1097 C591 0.910 . S
C1111 C520 0.864 . S
C1115 C79 0.916 . S
C1129 C528 0.835 . S
C1133 C339 0.902 . S
C1147 C562 0.842 . S
C1151 C24 0.914 . S
C1165 C583 0.836 . S
C1169 C394 0.909 . S
C1183 C108 0.895 . S
C1187 C604 0.840 . S
C1201 C465 0.890 . S
C1205 C612 0.854 . S
C1219 C646 0.844 . S
C1223 C163 0.892 . S
C1237 C654 0.878 . S
C1241 C436 0.901 . S
C1255 C4 0.962 . S
C1259 C382 0.962 . S
C1273 C406 0.952 . S
C1277 C28 0.952 . S
C1291 C46 0.969 . S
C1295 C343 0.969 . S
C1309 C67 0.953 . S
C1313 C364 0.953 . S
C1327 C469 0.973 . S
C1331 C91 0.973 . S
C1345 C112 0.972 . S
C1349 C487 0.972 . S
C1363 C424 0.969 . S
C1367 C130 0.969 . S
C1381 C151 0.950 . S
C1385 C448 0.950 . S
C1399 C553 0.950 . S
C1403 C175 0.950 . S
C1417 C196 0.945 . S
C1421 C574 0.945 . S
C1435 C217 0.953 . S
C1439 C511 0.953 . S
C1453 C238 0.965 . S
C1457 C529 0.965 . S
C1471 C637 0.967 . S
C1475 C259 0.967 . S
C1489 C655 0.969 . S
C1493 C277 0.969 . S
C1507 C298 0.951 . S
C1511 C595 0.951 . S
C1525 C319 0.949 . S
C1529 C613 0.949 . S
C1543 C20 1.431 . S
C1547 C523 1.431 . S
C1561 C208 1.418 . S
C1565 C40 1.418 . S
C1579 C62 1.425 . S
C1583 C565 1.425 . S
C1597 C83 1.414 . S
C1601 C250 1.414 . S
C1615 C607 1.433 . S
C1619 C103 1.433 . S
C1633 C293 1.414 . S
C1637 C124 1.414 . S
C1651 C146 1.419 . S
C1655 C649 1.419 . S
C1669 C167 1.417 . S
C1673 C335 1.417 . S
C1687 C355 1.415 . S
C1691 C187 1.415 . S
C1705 C398 1.439 . S
C1709 C229 1.439 . S
C1723 C440 1.431 . S
C1727 C271 1.431 . S
C1741 C314 1.414 . S
C1745 C481 1.414 . S
C1759 C376 1.430 . S
C1763 C545 1.430 . S
C1777 C418 1.424 . S
C1781 C586 1.424 . S
C1795 C629 1.423 . S
C1799 C460 1.423 . S
C1813 C671 1.423 . S
C1817 C503 1.423 . S
C1831 C7 1.336 . S
C1835 C109 1.343 . S
C1849 C133 1.338 . S
C1853 C25 1.341 . S
C1867 C154 1.322 . S
C1871 C49 1.347 . S
C1885 C88 1.323 . S
C1889 C70 1.341 . S
C1903 C172 1.322 . S
C1907 C280 1.345 . S
C1921 C193 1.339 . S
C1925 C301 1.340 . S
C1939 C322 1.336 . S
C1943 C214 1.342 . S
C1957 C235 1.347 . S
C1961 C256 1.322 . S
C1975 C340 1.330 . S
C1979 C445 1.332 . S
C1993 C361 1.347 . S
C1997 C466 1.329 . S
C2011 C385 1.340 . S
C2015 C490 1.339 . S
C2029 C427 1.346 . S
C2033 C403 1.322 . S
C2047 C508 1.348 . S
C2051 C616 1.326 . S
C2065 C532 1.322 . S
C2069 C634 1.348 . S
C2083 C658 1.346 . S
C2087 C550 1.322 . S
C2101 C571 1.326 . S
C2105 C592 1.348 . S
C2119 C19 1.361 . S
C2123 C104 1.358 . S
C2137 C41 1.342 . S
C2141 C125 1.343 . S
C2155 C145 1.364 . S
C2159 C61 1.363 . S
C2173 C166 1.352 . S
C2177 C82 1.349 . S
C2191 C188 1.343 . S
C2195 C272 1.342 . S
C2209 C292 1.348 . S
C2213 C209 1.351 . S
C2227 C313 1.345 . S
C2231 C230 1.343 . S
C2245 C334 1.359 . S
C2249 C251 1.356 . S
C2263 C356 1.342 . S
C2267 C439 1.342 . S
C2281 C461 1.350 . S
C2285 C377 1.354 . S
C2299 C397 1.364 . S
C2303 C482 1.364 . S
C2317 C502 1.350 . S
C2321 C419 1.347 . S
C2335 C608 1.350 . S
C2339 C524 1.354 . S
C2353 C544 1.343 . S
C2357 C628 1.342 . S
C2371 C566 1.348 . S
C2375 C650 1.345 . S
C2389 C587 1.353 . S
C2393 C670 1.350 . S
