# Generated by pormake.
# Topology sxa, (6)-cn, num edge types: 1
# Building blocks:
#     Node 0, Type 0, BuildingBlock: OJICUG_clean_sbu_0, # of connection points: 6
#     Node 1, Type 0, BuildingBlock: OJICUG_clean_sbu_0, # of connection points: 6
#     Node 2, Type 0, BuildingBlock: OJICUG_clean_sbu_0, # of connection points: 6
#     Node 3, Type 0, BuildingBlock: OJICUG_clean_sbu_0, # of connection points: 6
#     Edge 4, Type (0, 0), BuildingBlock: XUDNAN_clean_linker_2, # of connection points: 2
#     Edge 5, Type (0, 0), BuildingBlock: XUDNAN_clean_linker_2, # of connection points: 2
#     Edge 6, Type (0, 0), BuildingBlock: XUDNAN_clean_linker_2, # of connection points: 2
#     Edge 7, Type (0, 0), BuildingBlock: XUDNAN_clean_linker_2, # of connection points: 2
#     Edge 8, Type (0, 0), BuildingBlock: XUDNAN_clean_linker_2, # of connection points: 2
#     Edge 9, Type (0, 0), BuildingBlock: XUDNAN_clean_linker_2, # of connection points: 2
#     Edge 10, Type (0, 0), BuildingBlock: XUDNAN_clean_linker_2, # of connection points: 2
#     Edge 11, Type (0, 0), BuildingBlock: XUDNAN_clean_linker_2, # of connection points: 2
#     Edge 12, Type (0, 0), BuildingBlock: XUDNAN_clean_linker_2, # of connection points: 2
#     Edge 13, Type (0, 0), BuildingBlock: XUDNAN_clean_linker_2, # of connection points: 2
#     Edge 14, Type (0, 0), BuildingBlock: XUDNAN_clean_linker_2, # of connection points: 2
#     Edge 15, Type (0, 0), BuildingBlock: XUDNAN_clean_linker_2, # of connection points: 2
# Relax obj value: 0.172
# Max RMSD: 0.251
# Mean RMSD: 0.251
data_MOF--net-sxa--node1-OJICUG_clean_sbu_0--edge1-XUDNAN_clean_linker_2
_symmetry_space_group_name_H-M    P1
_symmetry_Int_Tables_number       1
_symmetry_cell_setting            triclinic
loop_
_symmetry_equiv_pos_as_xyz
'x, y, z'
_cell_length_a     24.786427
_cell_length_b     29.612575
_cell_length_c     17.447736
_cell_angle_alpha  89.762952
_cell_angle_beta   90.026342
_cell_angle_gamma 112.17278
loop_
_atom_site_label
_atom_site_type_symbol
_atom_site_fract_x
_atom_site_fract_y
_atom_site_fract_z
_atom_type_partial_charge
Sc0 Sc 0.01315 0.769 0.13125 0.0
Sc1 Sc 0.03884 0.8318 0.30288 0.0
Sc2 Sc 0.98312 0.70689 0.3032 0.0
O3 O 0.01208 0.76941 0.24526 0.0
C4 C 0.89079 0.69125 0.17367 0.0
C5 C 0.98115 0.85932 0.15414 0.0
C6 C 0.93217 0.77118 0.40039 0.0
C7 C 0.13337 0.85119 0.17578 0.0
C8 C 0.04217 0.67811 0.15774 0.0
C9 C 0.09245 0.76749 0.3973 0.0
O10 O 0.93246 0.70676 0.12584 0.0
O11 O 0.01144 0.87124 0.21517 0.0
O12 O 0.95179 0.73725 0.39745 0.0
O13 O 0.09385 0.83093 0.12658 0.0
O14 O 0.00886 0.66656 0.21614 0.0
O15 O 0.07163 0.80085 0.39593 0.0
O16 O 0.05994 0.72079 0.12897 0.0
O17 O 0.1231 0.85121 0.24747 0.0
O18 O 0.0686 0.72792 0.35928 0.0
O19 O 0.96654 0.81708 0.1249 0.0
O20 O 0.89932 0.69129 0.24603 0.0
O21 O 0.95391 0.80975 0.35938 0.0
Sc22 Sc 0.52436 0.28887 0.13266 0.0
Sc23 Sc 0.51775 0.31452 0.3251 0.0
Sc24 Sc 0.45723 0.19719 0.2662 0.0
O25 O 0.49611 0.26685 0.23894 0.0
C26 C 0.39814 0.2078 0.11153 0.0
C27 C 0.50329 0.379 0.18443 0.0
C28 C 0.39058 0.25274 0.36405 0.0
C29 C 0.63004 0.33239 0.23245 0.0
C30 C 0.54456 0.19049 0.13567 0.0
C31 C 0.54017 0.23348 0.40276 0.0
O32 O 0.44623 0.23711 0.08386 0.0
O33 O 0.52318 0.37493 0.25048 0.0
O34 O 0.40384 0.21568 0.35019 0.0
O35 O 0.60179 0.34299 0.17974 0.0
O36 O 0.50319 0.17232 0.1833 0.0
O37 O 0.51146 0.26031 0.4094 0.0
O38 O 0.56502 0.23577 0.11836 0.0
O39 O 0.60759 0.3223 0.29935 0.0
O40 O 0.52819 0.20369 0.34716 0.0
O41 O 0.48617 0.34356 0.13741 0.0
O42 O 0.39149 0.19288 0.18121 0.0
O43 O 0.42551 0.2966 0.34877 0.0
Sc44 Sc 0.99735 0.26686 0.92537 0.0
Sc45 Sc 0.93075 0.20319 0.75969 0.0
Sc46 Sc 0.03073 0.32113 0.74264 0.0
O47 O 0.98571 0.26396 0.81038 0.0
C48 C 0.0165 0.37737 0.8933 0.0
C49 C 0.8598 0.21719 0.90375 0.0
C50 C 0.91001 0.28656 0.66287 0.0
C51 C 0.97513 0.15513 0.89806 0.0
C52 C 0.12547 0.31076 0.85546 0.0
C53 C 0.0377 0.23409 0.6479 0.0
O54 O 0.99649 0.33982 0.93615 0.0
O55 O 0.8599 0.20522 0.83317 0.0
O56 O 0.95013 0.32235 0.69485 0.0
O57 O 1.00052 0.19433 0.93522 0.0
O58 O 0.11137 0.31908 0.78794 0.0
O59 O 1.00212 0.20006 0.68895 0.0
O60 O 0.08956 0.2964 0.91093 0.0
O61 O 0.94705 0.15415 0.83714 0.0
O62 O 0.0383 0.27705 0.64914 0.0
O63 O 0.90556 0.23709 0.94367 0.0
O64 O 0.03208 0.37513 0.82469 0.0
O65 O 0.90524 0.24268 0.67247 0.0
Sc66 Sc 0.53544 0.79297 0.94036 0.0
Sc67 Sc 0.46965 0.71763 0.78782 0.0
Sc68 Sc 0.57333 0.83093 0.75441 0.0
O69 O 0.5244 0.78079 0.82787 0.0
C70 C 0.55169 0.89597 0.88861 0.0
C71 C 0.40118 0.74415 0.91967 0.0
C72 C 0.45244 0.797 0.67624 0.0
C73 C 0.52228 0.68446 0.93582 0.0
C74 C 0.65735 0.82105 0.87877 0.0
C75 C 0.57369 0.73722 0.6774 0.0
O76 O 0.52004 0.85946 0.92855 0.0
O77 O 0.40197 0.73204 0.84962 0.0
O78 O 0.49422 0.83384 0.70412 0.0
O79 O 0.55258 0.7278 0.95666 0.0
O80 O 0.64726 0.81914 0.80679 0.0
O81 O 0.54111 0.70735 0.72669 0.0
O82 O 0.62661 0.83482 0.92378 0.0
O83 O 0.48455 0.67519 0.8823 0.0
O84 O 0.57141 0.77888 0.66769 0.0
O85 O 0.44456 0.75256 0.96403 0.0
O86 O 0.5806 0.89121 0.83075 0.0
O87 O 0.44762 0.7531 0.68936 0.0
H88 H 0.97558 0.40256 0.02895 0.0
H89 H 0.08253 0.4646 0.8286 0.0
H90 H 0.10606 0.54679 0.87972 0.0
H91 H 0.9163 0.49569 0.04403 0.0
H92 H 0.91661 0.49702 0.14733 0.0
H93 H 0.90951 0.4418 0.09812 0.0
H94 H 0.99856 0.43813 0.1704 0.0
H95 H 1.0063 0.49326 0.22072 0.0
H96 H 0.06677 0.48981 0.16712 0.0
H97 H 0.11883 0.62261 0.95044 0.0
H98 H 0.11181 0.68804 0.03163 0.0
H99 H 0.99589 0.57905 0.18629 0.0
C100 C 1.00398 0.43342 0.99597 0.0
C101 C 0.02716 0.4267 0.92464 0.0
C102 C 0.06382 0.46834 0.88313 0.0
C103 C 0.07793 0.51542 0.9119 0.0
C104 C 0.05497 0.52078 0.98233 0.0
C105 C 0.01827 0.48113 1.02363 0.0
C106 C 0.99773 0.49778 0.09635 0.0
C107 C 0.93109 0.48217 0.09639 0.0
C108 C 0.0186 0.4786 0.16788 0.0
C109 C 0.02831 0.55278 0.08874 0.0
C110 C 0.06162 0.5651 1.02294 0.0
C111 C 0.09294 0.6135 1.0023 0.0
C112 C 0.08883 0.65047 0.04902 0.0
C113 C 0.05344 0.63897 0.11563 0.0
C114 C 0.0238 0.58929 0.13627 0.0
H115 H 0.45258 0.40588 0.05902 0.0
H116 H 0.56982 0.46501 0.25074 0.0
H117 H 0.5891 0.54801 0.2048 0.0
H118 H 0.53361 0.49464 0.91874 0.0
H119 H 0.47052 0.49909 0.87314 0.0
H120 H 0.46507 0.44323 0.92012 0.0
H121 H 0.38073 0.4463 1.00463 0.0
H122 H 0.38548 0.50192 0.95748 0.0
H123 H 0.39122 0.5001 0.06035 0.0
H124 H 0.60076 0.62431 0.13634 0.0
H125 H 0.59405 0.69092 0.05732 0.0
H126 H 0.46567 0.58507 0.91234 0.0
C127 C 0.48196 0.43632 0.09151 0.0
C128 C 0.50966 0.42862 0.15855 0.0
C129 C 0.54768 0.4696 0.19954 0.0
C130 C 0.55933 0.51709 0.17367 0.0
C131 C 0.53218 0.52342 0.1071 0.0
C132 C 0.49352 0.4844 0.0671 0.0
C133 C 0.46908 0.50206 0.99844 0.0
C134 C 0.48557 0.48365 0.92316 0.0
C135 C 0.40269 0.48669 1.00569 0.0
C136 C 0.50039 0.55694 1.0063 0.0
C137 C 0.53708 0.56819 0.06894 0.0
C138 C 0.57165 0.61607 0.08762 0.0
C139 C 0.56761 0.65371 0.04219 0.0
C140 C 0.5289 0.64351 0.97903 0.0
C141 C 0.49541 0.59425 0.96046 0.0
H142 H 0.50829 0.92245 1.01844 0.0
H143 H 0.61378 0.9831 0.81677 0.0
H144 H 0.63098 0.06626 0.86241 0.0
H145 H 0.43998 1.00861 0.02766 0.0
H146 H 0.44019 1.01029 0.13091 0.0
H147 H 0.43784 0.95614 0.08225 0.0
H148 H 0.52994 0.95947 0.15647 0.0
H149 H 0.53301 1.01408 0.20464 0.0
H150 H 0.59526 1.01383 0.15153 0.0
H151 H 0.63386 0.14397 0.92984 0.0
H152 H 0.61666 0.20677 1.00863 0.0
H153 H 0.51353 0.09371 0.16696 0.0
C154 C 0.53496 0.95309 0.9836 0.0
C155 C 0.5596 0.94598 0.91392 0.0
C156 C 0.59431 0.9874 0.8704 0.0
C157 C 0.60459 0.03489 0.89599 0.0
C158 C 0.58019 0.04053 0.96546 0.0
C159 C 0.54594 1.00062 1.00841 0.0
C160 C 0.52349 1.01613 0.08006 0.0
C161 C 0.45642 0.99665 0.08017 0.0
C162 C 0.54684 0.99991 0.15244 0.0
C163 C 0.54975 0.07097 0.07035 0.0
C164 C 0.58258 0.08465 1.00424 0.0
C165 C 0.60847 0.13358 0.98201 0.0
C166 C 0.59886 0.16911 0.02736 0.0
C167 C 0.56394 0.15548 0.09422 0.0
C168 C 0.54072 0.10578 0.11651 0.0
H169 H 1.00796 0.95629 0.19215 0.0
H170 H 0.93071 0.84984 1.01285 0.0
H171 H 0.92214 0.91424 0.9308 0.0
H172 H 0.92012 0.03038 0.15568 0.0
H173 H 0.97971 0.08726 0.17423 0.0
H174 H 0.97674 0.03229 0.22198 0.0
H175 H 0.07973 0.04608 0.17042 0.0
H176 H 0.0827 0.1007 0.12158 0.0
H177 H 0.09325 0.05252 0.06866 0.0
H178 H 0.92787 0.98884 0.86433 0.0
H179 H 0.93834 0.06994 0.8192 0.0
H180 H 0.0112 0.13155 0.03949 0.0
C181 C 0.98828 0.94636 0.13617 0.0
C182 C 0.96943 0.89757 0.10959 0.0
C183 C 0.94485 0.88653 0.03532 0.0
C184 C 0.94006 0.92299 0.98787 0.0
C185 C 0.96024 0.97059 1.01504 0.0
C186 C 0.98327 0.98255 0.08758 0.0
C187 C 1.00256 0.03715 0.10126 0.0
C188 C 0.96769 0.04736 0.1672 0.0
C189 C 0.06847 0.06047 0.11637 0.0
C190 C 0.98705 0.0538 1.02471 0.0
C191 C 0.96299 1.01452 0.97616 0.0
C192 C 0.94601 1.01987 0.902 0.0
C193 C 0.95233 0.06641 0.87695 0.0
C194 C 0.97518 0.10753 0.92585 0.0
C195 C 0.99358 0.10107 1.00064 0.0
H196 H 0.37532 0.73246 0.57604 0.0
H197 H 0.42048 0.87612 0.6759 0.0
H198 H 0.33367 0.8828 0.61532 0.0
H199 H 0.31936 0.76169 0.39294 0.0
H200 H 0.26254 0.70201 0.38563 0.0
H201 H 0.32995 0.70945 0.43311 0.0
H202 H 0.27224 0.66761 0.55448 0.0
H203 H 0.20473 0.6606 0.50782 0.0
H204 H 0.2231 0.69188 0.59828 0.0
H205 H 0.23868 0.87125 0.55456 0.0
H206 H 0.14675 0.84769 0.48496 0.0
H207 H 0.16199 0.71188 0.41676 0.0
C208 C 0.3675 0.76571 0.5842 0.0
C209 C 0.4051 0.80395 0.63086 0.0
C210 C 0.39301 0.84666 0.64 0.0
C211 C 0.34349 0.85059 0.60615 0.0
C212 C 0.30677 0.81182 0.56226 0.0
C213 C 0.31864 0.77056 0.54979 0.0
C214 C 0.27167 0.73425 0.50002 0.0
C215 C 0.29742 0.7264 0.42338 0.0
C216 C 0.24114 0.68572 0.54272 0.0
C217 C 0.23067 0.76106 0.48815 0.0
C218 C 0.25208 0.80565 0.52493 0.0
C219 C 0.22192 0.83673 0.52478 0.0
C220 C 0.16919 0.82262 0.48492 0.0
C221 C 0.14632 0.77768 0.44453 0.0
C222 C 0.17772 0.74632 0.44683 0.0
H223 H 0.13953 0.30325 0.59671 0.0
H224 H 0.04021 0.14713 0.59377 0.0
H225 H 0.11884 0.13606 0.51761 0.0
H226 H 0.2004 0.31615 0.40669 0.0
H227 H 0.27014 0.36052 0.43505 0.0
H228 H 0.20526 0.35609 0.48636 0.0
H229 H 0.2518 0.34358 0.61362 0.0
H230 H 0.31685 0.34791 0.56285 0.0
H231 H 0.27865 0.29504 0.62111 0.0
H232 H 0.20808 0.14256 0.44224 0.0
H233 H 0.30245 0.16388 0.37831 0.0
H234 H 0.34629 0.31664 0.43344 0.0
C235 C 0.13364 0.26665 0.5792 0.0
C236 C 0.08295 0.22598 0.60016 0.0
C237 C 0.07818 0.17876 0.57789 0.0
C238 C 0.12264 0.17224 0.53461 0.0
C239 C 0.17184 0.21324 0.515 0.0
C240 C 0.17773 0.25949 0.53707 0.0
C241 C 0.236 0.29731 0.5117 0.0
C242 C 0.22741 0.33472 0.45667 0.0
C243 C 0.27301 0.32243 0.58146 0.0
C244 C 0.26201 0.26523 0.47066 0.0
C245 C 0.22408 0.2169 0.47336 0.0
C246 C 0.23807 0.18022 0.44012 0.0
C247 C 0.29222 0.19294 0.4039 0.0
C248 C 0.33262 0.24213 0.4009 0.0
C249 C 0.31674 0.27881 0.4344 0.0
H250 H 0.84472 0.22812 0.54922 0.0
H251 H 0.86716 0.35906 0.678 0.0
H252 H 0.77549 0.35964 0.62251 0.0
H253 H 0.77723 0.26045 0.37566 0.0
H254 H 0.72933 0.1979 0.36144 0.0
H255 H 0.80016 0.21176 0.40356 0.0
H256 H 0.75104 0.15718 0.5202 0.0
H257 H 0.68011 0.14435 0.47936 0.0
H258 H 0.69646 0.17004 0.57405 0.0
H259 H 0.6762 0.33936 0.56855 0.0
H260 H 0.58183 0.30823 0.50386 0.0
H261 H 0.62331 0.19069 0.40491 0.0
C262 C 0.83116 0.25771 0.5642 0.0
C263 C 0.86312 0.29372 0.61794 0.0
C264 C 0.84384 0.33159 0.63637 0.0
C265 C 0.7916 0.33191 0.60556 0.0
C266 C 0.75988 0.29457 0.55557 0.0
C267 C 0.77958 0.25884 0.53337 0.0
C268 C 0.7361 0.22193 0.48084 0.0
C269 C 0.76228 0.2231 0.40062 0.0
C270 C 0.71468 0.17033 0.51573 0.0
C271 C 0.68782 0.24156 0.47897 0.0
C272 C 0.7027 0.28344 0.52262 0.0
C273 C 0.66459 0.30719 0.53308 0.0
C274 C 0.61063 0.28873 0.49623 0.0
C275 C 0.59482 0.24695 0.44832 0.0
C276 C 0.63391 0.22267 0.44066 0.0
H277 H 0.84824 0.81246 0.39629 0.0
H278 H 0.90167 0.70979 0.52297 0.0
H279 H 0.81229 0.68526 0.60013 0.0
H280 H 0.78296 0.84946 0.56072 0.0
H281 H 0.72448 0.85476 0.50473 0.0
H282 H 0.79369 0.86497 0.46033 0.0
H283 H 0.74124 0.79963 0.35902 0.0
H284 H 0.67192 0.788 0.40419 0.0
H285 H 0.69658 0.73868 0.38956 0.0
H286 H 0.71542 0.66926 0.66204 0.0
H287 H 0.62369 0.67139 0.71466 0.0
H288 H 0.63254 0.784 0.54942 0.0
C289 C 0.84159 0.78552 0.44117 0.0
C290 C 0.88219 0.7631 0.45315 0.0
C291 C 0.87128 0.72745 0.51208 0.0
C292 C 0.8204 0.713 0.55627 0.0
C293 C 0.7804 0.73448 0.54144 0.0
C294 C 0.79068 0.77053 0.48627 0.0
C295 C 0.74064 0.7881 0.48317 0.0
C296 C 0.76171 0.84255 0.50347 0.0
C297 C 0.71083 0.77797 0.4043 0.0
C298 C 0.70107 0.75639 0.54511 0.0
C299 C 0.72453 0.72536 0.57755 0.0
C300 C 0.69646 0.69335 0.63701 0.0
C301 C 0.64402 0.69439 0.66607 0.0
C302 C 0.62062 0.72758 0.63613 0.0
C303 C 0.64901 0.75794 0.57345 0.0
H304 H 0.35319 0.73457 0.06288 0.0
H305 H 0.35238 0.79686 0.83759 0.0
H306 H 0.30016 0.84621 0.89038 0.0
H307 H 0.2068 0.72492 0.11408 0.0
H308 H 0.22544 0.73762 0.21369 0.0
H309 H 0.26353 0.70886 0.15635 0.0
H310 H 0.36088 0.77782 0.1956 0.0
H311 H 0.32226 0.80791 0.24954 0.0
H312 H 0.37206 0.8404 0.17466 0.0
H313 H 0.25149 0.8904 0.96728 0.0
H314 H 0.18251 0.90748 0.05287 0.0
H315 H 0.21188 0.81529 0.22797 0.0
C316 C 0.34074 0.75781 1.02448 0.0
C317 C 0.35631 0.76175 0.94614 0.0
C318 C 0.33979 0.79265 0.89748 0.0
C319 C 0.31133 0.8216 0.9273 0.0
C320 C 0.29922 0.81871 1.00559 0.0
C321 C 0.31136 0.78627 0.05298 0.0
C322 C 0.28887 0.78708 0.13351 0.0
C323 C 0.24344 0.73666 0.15568 0.0
C324 C 0.33904 0.80434 0.19174 0.0
C325 C 0.2614 0.82461 0.12366 0.0
C326 C 0.26963 0.84349 0.04998 0.0
C327 C 0.245 0.87616 1.02522 0.0
C328 C 0.20668 0.88637 0.07465 0.0
C329 C 0.19275 0.86325 0.14714 0.0
C330 C 0.22347 0.83476 0.17394 0.0
H331 H 0.1853 0.33078 0.98802 0.0
H332 H 0.18889 0.27798 0.75747 0.0
H333 H 0.25699 0.23969 0.8003 0.0
H334 H 0.33792 0.34741 0.04467 0.0
H335 H 0.3137 0.32701 0.14062 0.0
H336 H 0.27775 0.35906 0.08573 0.0
H337 H 0.17964 0.28664 0.1099 0.0
H338 H 0.21571 0.25301 0.16049 0.0
H339 H 0.17111 0.22643 0.07829 0.0
H340 H 0.31554 0.19916 0.87372 0.0
H341 H 0.37302 0.17218 0.9667 0.0
H342 H 0.31738 0.24274 0.14999 0.0
C343 C 0.20265 0.31314 0.94575 0.0
C344 C 0.18221 0.30736 0.8696 0.0
C345 C 0.20493 0.28349 0.81585 0.0
C346 C 0.24276 0.26091 0.84005 0.0
C347 C 0.25711 0.26298 0.9177 0.0
C348 C 0.23893 0.28963 0.96925 0.0
C349 C 0.25604 0.28327 0.05045 0.0
C350 C 0.29891 0.33206 0.08222 0.0
C351 C 0.20241 0.26101 0.10279 0.0
C352 C 0.28543 0.24775 0.03718 0.0
C353 C 0.28633 0.23681 0.96028 0.0
C354 C 0.31462 0.20714 0.93407 0.0
C355 C 0.34605 0.1911 0.98727 0.0
C356 C 0.34749 0.20394 0.06552 0.0
C357 C 0.31455 0.23053 0.09109 0.0
H358 H 0.70371 0.36553 0.11271 0.0
H359 H 0.6493 0.2524 0.28661 0.0
H360 H 0.6944 0.20475 0.21247 0.0
H361 H 0.67024 0.29002 0.95635 0.0
H362 H 0.73163 0.32589 0.89819 0.0
H363 H 0.70374 0.35502 0.96975 0.0
H364 H 0.80479 0.39197 0.03544 0.0
H365 H 0.8338 0.36546 0.96139 0.0
H366 H 0.8427 0.35266 0.0606 0.0
H367 H 0.73844 0.16652 0.11147 0.0
H368 H 0.79521 0.14926 1.00659 0.0
H369 H 0.81296 0.28511 0.89598 0.0
C370 C 0.70335 0.33162 0.13676 0.0
C371 C 0.6736 0.31291 0.20596 0.0
C372 C 0.67317 0.26804 0.23496 0.0
C373 C 0.69769 0.2403 0.1923 0.0
C374 C 0.7226 0.25822 0.12118 0.0
C375 C 0.72696 0.3035 0.09475 0.0
C376 C 0.75437 0.31431 1.01593 0.0
C377 C 0.71246 0.32172 0.95661 0.0
C378 C 0.81235 0.3587 1.01851 0.0
C379 C 0.76401 0.26767 1.00118 0.0
C380 C 0.7454 0.23564 0.06237 0.0
C381 C 0.75292 0.19128 0.06323 0.0
C382 C 0.78401 0.18119 1.00268 0.0
C383 C 0.80632 0.21502 0.94202 0.0
C384 C 0.79389 0.25764 0.93981 0.0
H385 H 0.82156 0.73992 0.212 0.0
H386 H 0.83735 0.63282 0.05511 0.0
H387 H 0.77195 0.65076 0.9639 0.0
H388 H 0.66494 0.7232 0.15695 0.0
H389 H 0.68138 0.78772 0.16515 0.0
H390 H 0.71681 0.75842 0.22693 0.0
H391 H 0.81734 0.81913 0.1843 0.0
H392 H 0.78384 0.84921 0.12149 0.0
H393 H 0.8353 0.8254 0.08376 0.0
H394 H 0.72697 0.69465 0.87749 0.0
H395 H 0.68713 0.74963 0.81232 0.0
H396 H 0.7001 0.82857 1.0249 0.0
C397 C 0.80767 0.71778 0.16102 0.0
C398 C 0.83319 0.68405 0.14138 0.0
C399 C 0.81685 0.65773 0.07203 0.0
C400 C 0.78034 0.66821 1.01941 0.0
C401 C 0.76002 0.70481 0.03734 0.0
C402 C 0.77141 0.7281 0.10762 0.0
C403 C 0.74973 0.76967 0.10926 0.0
C404 C 0.70022 0.75914 0.16796 0.0
C405 C 0.79953 0.81875 0.12576 0.0
C406 C 0.72769 0.76786 0.02773 0.0
C407 C 0.73366 0.73004 0.98727 0.0
C408 C 0.72075 0.72366 0.90917 0.0
C409 C 0.69914 0.75563 0.87217 0.0
C410 C 0.69064 0.79357 0.91323 0.0
C411 C 0.70592 0.79986 0.99185 0.0
loop_
_geom_bond_atom_site_label_1
_geom_bond_atom_site_label_2
_geom_bond_distance
_geom_bond_site_symmetry_2
_ccdc_geom_bond_type
Sc0 O3 2.025 . S
Sc0 O10 2.084 1_455 S
Sc0 O13 2.126 . S
Sc0 O16 2.115 1_455 S
Sc0 O19 2.098 . S
Sc1 O3 2.034 . S
Sc1 O11 2.105 . S
Sc1 O15 2.105 . S
Sc1 O17 2.105 . S
Sc1 O21 2.105 1_455 S
Sc2 O3 2.017 1_655 S
Sc2 O12 2.105 . S
Sc2 O14 2.105 . S
Sc2 O18 2.105 1_655 S
Sc2 O20 2.105 . S
O3 Sc0 2.025 . S
O3 Sc1 2.034 . S
O3 Sc2 2.017 1_455 S
C4 O10 1.268 . S
C4 O20 1.268 . S
C5 O11 1.268 . S
C5 O19 1.268 . S
C6 O12 1.268 . S
C6 O21 1.268 . S
C7 O13 1.268 . S
C7 O17 1.268 . S
C8 O14 1.268 . S
C8 O16 1.268 . S
C9 O15 1.268 . S
C9 O18 1.268 . S
O10 Sc0 2.084 1_655 S
O10 C4 1.268 . S
O11 Sc1 2.105 . S
O11 C5 1.268 . S
O12 Sc2 2.105 . S
O12 C6 1.268 . S
O13 Sc0 2.126 . S
O13 C7 1.268 . S
O14 Sc2 2.105 . S
O14 C8 1.268 . S
O15 Sc1 2.105 . S
O15 C9 1.268 . S
O16 Sc0 2.115 1_655 S
O16 C8 1.268 . S
O17 Sc1 2.105 . S
O17 C7 1.268 . S
O18 Sc2 2.105 1_455 S
O18 C9 1.268 . S
O19 Sc0 2.098 . S
O19 C5 1.268 . S
O20 Sc2 2.105 . S
O20 C4 1.268 . S
O21 Sc1 2.105 1_655 S
O21 C6 1.268 . S
Sc22 O25 2.025 . S
Sc22 O32 2.105 . S
Sc22 O35 2.105 . S
Sc22 O38 2.105 . S
Sc22 O41 2.105 . S
Sc23 O25 2.025 . S
Sc23 O33 2.105 . S
Sc23 O37 2.105 . S
Sc23 O39 2.105 . S
Sc23 O43 2.105 . S
Sc24 O25 2.025 . S
Sc24 O34 2.105 . S
Sc24 O36 2.105 . S
Sc24 O40 2.105 . S
Sc24 O42 2.105 . S
O25 Sc22 2.025 . S
O25 Sc23 2.025 . S
O25 Sc24 2.025 . S
C26 O32 1.268 . S
C26 O42 1.268 . S
C27 O33 1.268 . S
C27 O41 1.268 . S
C28 O34 1.268 . S
C28 O43 1.268 . S
C29 O35 1.268 . S
C29 O39 1.268 . S
C30 O36 1.268 . S
C30 O38 1.268 . S
C31 O37 1.268 . S
C31 O40 1.268 . S
O32 Sc22 2.105 . S
O32 C26 1.268 . S
O33 Sc23 2.105 . S
O33 C27 1.268 . S
O34 Sc24 2.105 . S
O34 C28 1.268 . S
O35 Sc22 2.105 . S
O35 C29 1.268 . S
O36 Sc24 2.105 . S
O36 C30 1.268 . S
O37 Sc23 2.105 . S
O37 C31 1.268 . S
O38 Sc22 2.105 . S
O38 C30 1.268 . S
O39 Sc23 2.105 . S
O39 C29 1.268 . S
O40 Sc24 2.105 . S
O40 C31 1.268 . S
O41 Sc22 2.105 . S
O41 C27 1.268 . S
O42 Sc24 2.105 . S
O42 C26 1.268 . S
O43 Sc23 2.105 . S
O43 C28 1.268 . S
Sc44 O47 2.025 . S
Sc44 O54 2.098 . S
Sc44 O57 2.115 1_455 S
Sc44 O60 2.126 . S
Sc44 O63 2.084 1_455 S
Sc45 O47 2.017 1_655 S
Sc45 O55 2.105 . S
Sc45 O59 2.105 1_655 S
Sc45 O61 2.105 . S
Sc45 O65 2.105 . S
Sc46 O47 2.034 . S
Sc46 O56 2.105 1_455 S
Sc46 O58 2.105 . S
Sc46 O62 2.105 . S
Sc46 O64 2.105 . S
O47 Sc44 2.025 . S
O47 Sc45 2.017 1_455 S
O47 Sc46 2.034 . S
C48 O54 1.268 . S
C48 O64 1.268 . S
C49 O55 1.268 . S
C49 O63 1.268 . S
C50 O56 1.268 . S
C50 O65 1.268 . S
C51 O57 1.268 . S
C51 O61 1.268 . S
C52 O58 1.268 . S
C52 O60 1.268 . S
C53 O59 1.268 . S
C53 O62 1.268 . S
O54 Sc44 2.098 . S
O54 C48 1.268 . S
O55 Sc45 2.105 . S
O55 C49 1.268 . S
O56 Sc46 2.105 1_655 S
O56 C50 1.268 . S
O57 Sc44 2.115 1_655 S
O57 C51 1.268 . S
O58 Sc46 2.105 . S
O58 C52 1.268 . S
O59 Sc45 2.105 1_455 S
O59 C53 1.268 . S
O60 Sc44 2.126 . S
O60 C52 1.268 . S
O61 Sc45 2.105 . S
O61 C51 1.268 . S
O62 Sc46 2.105 . S
O62 C53 1.268 . S
O63 Sc44 2.084 1_655 S
O63 C49 1.268 . S
O64 Sc46 2.105 . S
O64 C48 1.268 . S
O65 Sc45 2.105 . S
O65 C50 1.268 . S
Sc66 O69 2.025 . S
Sc66 O76 2.105 . S
Sc66 O79 2.105 . S
Sc66 O82 2.105 . S
Sc66 O85 2.105 . S
Sc67 O69 2.025 . S
Sc67 O77 2.105 . S
Sc67 O81 2.105 . S
Sc67 O83 2.105 . S
Sc67 O87 2.105 . S
Sc68 O69 2.025 . S
Sc68 O78 2.105 . S
Sc68 O80 2.105 . S
Sc68 O84 2.105 . S
Sc68 O86 2.105 . S
O69 Sc66 2.025 . S
O69 Sc67 2.025 . S
O69 Sc68 2.025 . S
C70 O76 1.268 . S
C70 O86 1.268 . S
C71 O77 1.268 . S
C71 O85 1.268 . S
C72 O78 1.268 . S
C72 O87 1.268 . S
C73 O79 1.268 . S
C73 O83 1.268 . S
C74 O80 1.268 . S
C74 O82 1.268 . S
C75 O81 1.268 . S
C75 O84 1.268 . S
O76 Sc66 2.105 . S
O76 C70 1.268 . S
O77 Sc67 2.105 . S
O77 C71 1.268 . S
O78 Sc68 2.105 . S
O78 C72 1.268 . S
O79 Sc66 2.105 . S
O79 C73 1.268 . S
O80 Sc68 2.105 . S
O80 C74 1.268 . S
O81 Sc67 2.105 . S
O81 C75 1.268 . S
O82 Sc66 2.105 . S
O82 C74 1.268 . S
O83 Sc67 2.105 . S
O83 C73 1.268 . S
O84 Sc68 2.105 . S
O84 C75 1.268 . S
O85 Sc66 2.105 . S
O85 C71 1.268 . S
O86 Sc68 2.105 . S
O86 C70 1.268 . S
O87 Sc67 2.105 . S
O87 C72 1.268 . S
H88 C100 0.930 . S
H89 C102 0.930 . S
H90 C103 0.930 . S
H91 C107 0.959 . S
H92 C107 0.959 . S
H93 C107 0.961 . S
H94 C108 0.960 . S
H95 C108 0.961 . S
H96 C108 0.959 . S
H97 C111 0.929 . S
H98 C112 0.931 . S
H99 C114 0.930 . S
C100 H88 0.930 . S
C100 C101 1.399 1_655 S
C100 C105 1.399 . S
C101 C100 1.399 1_455 S
C101 C102 1.376 . S
C102 H89 0.930 . S
C102 C101 1.376 . S
C102 C103 1.388 . S
C103 H90 0.930 . S
C103 C102 1.388 . S
C103 C104 1.390 . S
C104 C103 1.390 . S
C104 C105 1.394 1_455 S
C104 C110 1.465 1_556 S
C105 C100 1.399 . S
C105 C104 1.394 1_655 S
C105 C106 1.516 1_556 S
C106 C105 1.516 1_554 S
C106 C107 1.502 1_554 S
C106 C108 1.561 . S
C106 C109 1.526 . S
C107 H91 0.959 . S
C107 H92 0.959 . S
C107 H93 0.961 . S
C107 C106 1.502 1_556 S
C108 H94 0.960 . S
C108 H95 0.961 . S
C108 H96 0.959 . S
C108 C106 1.561 . S
C109 C106 1.526 . S
C109 C110 1.396 1_655 S
C109 C114 1.390 . S
C110 C104 1.465 1_554 S
C110 C109 1.396 1_455 S
C110 C111 1.399 . S
C111 H97 0.929 . S
C111 C110 1.399 . S
C111 C112 1.385 . S
C112 H98 0.931 . S
C112 C111 1.385 . S
C112 C113 1.389 . S
C113 C112 1.389 . S
C113 C114 1.387 1_455 S
C114 H99 0.930 . S
C114 C109 1.390 . S
C114 C113 1.387 1_655 S
H115 C127 0.930 1_556 S
H116 C129 0.930 . S
H117 C130 0.930 . S
H118 C134 0.959 . S
H119 C134 0.959 . S
H120 C134 0.961 . S
H121 C135 0.960 . S
H122 C135 0.961 . S
H123 C135 0.959 . S
H124 C138 0.929 . S
H125 C139 0.931 . S
H126 C141 0.930 . S
C127 H115 0.930 1_554 S
C127 C128 1.399 . S
C127 C132 1.399 1_554 S
C128 C127 1.399 . S
C128 C129 1.376 . S
C129 H116 0.930 . S
C129 C128 1.376 . S
C129 C130 1.388 . S
C130 H117 0.930 . S
C130 C129 1.388 . S
C130 C131 1.390 . S
C131 C130 1.390 . S
C131 C132 1.394 1_554 S
C131 C137 1.465 . S
C132 C127 1.399 1_556 S
C132 C131 1.394 1_556 S
C132 C133 1.516 . S
C133 C132 1.516 . S
C133 C134 1.502 . S
C133 C135 1.561 . S
C133 C136 1.526 . S
C134 H118 0.959 . S
C134 H119 0.959 . S
C134 H120 0.961 . S
C134 C133 1.502 . S
C135 H121 0.960 . S
C135 H122 0.961 . S
C135 H123 0.959 . S
C135 C133 1.561 . S
C136 C133 1.526 . S
C136 C137 1.396 1_556 S
C136 C141 1.390 . S
C137 C131 1.465 . S
C137 C136 1.396 1_554 S
C137 C138 1.399 . S
C138 H124 0.929 . S
C138 C137 1.399 . S
C138 C139 1.385 . S
C139 H125 0.931 . S
C139 C138 1.385 . S
C139 C140 1.389 1_554 S
C140 C139 1.389 1_556 S
C140 C141 1.387 . S
C141 H126 0.930 . S
C141 C136 1.390 . S
C141 C140 1.387 . S
H142 C154 0.930 . S
H143 C156 0.930 . S
H144 C157 0.930 1_545 S
H145 C161 0.959 . S
H146 C161 0.959 . S
H147 C161 0.961 . S
H148 C162 0.960 . S
H149 C162 0.961 . S
H150 C162 0.959 . S
H151 C165 0.929 . S
H152 C166 0.931 . S
H153 C168 0.930 . S
C154 H142 0.930 . S
C154 C155 1.399 . S
C154 C159 1.399 . S
C155 C154 1.399 . S
C155 C156 1.376 . S
C156 H143 0.930 . S
C156 C155 1.376 . S
C156 C157 1.388 . S
C157 H144 0.930 1_565 S
C157 C156 1.388 . S
C157 C158 1.390 . S
C158 C157 1.390 . S
C158 C159 1.394 . S
C158 C164 1.463 1_566 S
C159 C154 1.399 . S
C159 C158 1.394 . S
C159 C160 1.516 1_556 S
C160 C159 1.516 1_554 S
C160 C161 1.502 . S
C160 C162 1.561 . S
C160 C163 1.526 1_565 S
C161 H145 0.959 . S
C161 H146 0.959 . S
C161 H147 0.961 . S
C161 C160 1.502 . S
C162 H148 0.960 . S
C162 H149 0.961 . S
C162 H150 0.959 . S
C162 C160 1.561 . S
C163 C160 1.526 1_545 S
C163 C164 1.399 . S
C163 C168 1.390 . S
C164 C158 1.463 1_544 S
C164 C163 1.399 . S
C164 C165 1.398 1_554 S
C165 H151 0.929 . S
C165 C164 1.398 1_556 S
C165 C166 1.385 1_556 S
C166 H152 0.931 . S
C166 C165 1.385 1_554 S
C166 C167 1.389 . S
C167 C166 1.389 . S
C167 C168 1.387 . S
C168 H153 0.930 . S
C168 C163 1.390 . S
C168 C167 1.387 . S
H169 C181 0.930 . S
H170 C183 0.930 1_556 S
H171 C184 0.930 . S
H172 C188 0.959 1_565 S
H173 C188 0.959 . S
H174 C188 0.961 1_565 S
H175 C189 0.960 . S
H176 C189 0.961 . S
H177 C189 0.959 . S
H178 C192 0.929 . S
H179 C193 0.931 . S
H180 C195 0.930 1_554 S
C181 H169 0.930 . S
C181 C182 1.399 1_655 S
C181 C186 1.399 . S
C182 C181 1.399 1_455 S
C182 C183 1.376 . S
C183 H170 0.930 1_554 S
C183 C182 1.376 . S
C183 C184 1.388 1_554 S
C184 H171 0.930 . S
C184 C183 1.388 1_556 S
C184 C185 1.390 . S
C185 C184 1.390 . S
C185 C186 1.394 1_456 S
C185 C191 1.465 1_565 S
C186 C181 1.399 . S
C186 C185 1.394 1_654 S
C186 C187 1.516 1_565 S
C187 C186 1.516 1_545 S
C187 C188 1.502 . S
C187 C189 1.561 1_655 S
C187 C190 1.526 . S
C188 H172 0.959 1_545 S
C188 H173 0.959 . S
C188 H174 0.961 1_545 S
C188 C187 1.502 . S
C189 H175 0.960 . S
C189 H176 0.961 . S
C189 H177 0.959 . S
C189 C187 1.561 1_455 S
C190 C187 1.526 . S
C190 C191 1.396 1_654 S
C190 C195 1.390 1_554 S
C191 C185 1.465 1_545 S
C191 C190 1.396 1_456 S
C191 C192 1.399 . S
C192 H178 0.929 . S
C192 C191 1.399 . S
C192 C193 1.385 . S
C193 H179 0.931 . S
C193 C192 1.385 . S
C193 C194 1.389 . S
C194 C193 1.389 . S
C194 C195 1.387 1_455 S
C195 H180 0.930 1_556 S
C195 C190 1.390 1_556 S
C195 C194 1.387 1_655 S
H196 C208 0.930 . S
H197 C210 0.930 . S
H198 C211 0.930 . S
H199 C215 0.959 . S
H200 C215 0.959 . S
H201 C215 0.961 . S
H202 C216 0.960 . S
H203 C216 0.961 . S
H204 C216 0.959 . S
H205 C219 0.929 . S
H206 C220 0.931 . S
H207 C222 0.930 . S
C208 H196 0.930 . S
C208 C209 1.399 . S
C208 C213 1.399 . S
C209 C208 1.399 . S
C209 C210 1.376 . S
C210 H197 0.930 . S
C210 C209 1.376 . S
C210 C211 1.388 . S
C211 H198 0.930 . S
C211 C210 1.388 . S
C211 C212 1.390 . S
C212 C211 1.390 . S
C212 C213 1.394 . S
C212 C218 1.465 . S
C213 C208 1.399 . S
C213 C212 1.394 . S
C213 C214 1.516 . S
C214 C213 1.516 . S
C214 C215 1.502 . S
C214 C216 1.561 . S
C214 C217 1.526 . S
C215 H199 0.959 . S
C215 H200 0.959 . S
C215 H201 0.961 . S
C215 C214 1.502 . S
C216 H202 0.960 . S
C216 H203 0.961 . S
C216 H204 0.959 . S
C216 C214 1.561 . S
C217 C214 1.526 . S
C217 C218 1.396 . S
C217 C222 1.390 . S
C218 C212 1.465 . S
C218 C217 1.396 . S
C218 C219 1.399 . S
C219 H205 0.929 . S
C219 C218 1.399 . S
C219 C220 1.385 . S
C220 H206 0.931 . S
C220 C219 1.385 . S
C220 C221 1.389 . S
C221 C220 1.389 . S
C221 C222 1.387 . S
C222 H207 0.930 . S
C222 C217 1.390 . S
C222 C221 1.387 . S
H223 C235 0.930 . S
H224 C237 0.930 . S
H225 C238 0.930 . S
H226 C242 0.959 . S
H227 C242 0.959 . S
H228 C242 0.961 . S
H229 C243 0.960 . S
H230 C243 0.961 . S
H231 C243 0.959 . S
H232 C246 0.929 . S
H233 C247 0.931 . S
H234 C249 0.930 . S
C235 H223 0.930 . S
C235 C236 1.399 . S
C235 C240 1.399 . S
C236 C235 1.399 . S
C236 C237 1.376 . S
C237 H224 0.930 . S
C237 C236 1.376 . S
C237 C238 1.388 . S
C238 H225 0.930 . S
C238 C237 1.388 . S
C238 C239 1.390 . S
C239 C238 1.390 . S
C239 C240 1.394 . S
C239 C245 1.465 . S
C240 C235 1.399 . S
C240 C239 1.394 . S
C240 C241 1.516 . S
C241 C240 1.516 . S
C241 C242 1.502 . S
C241 C243 1.561 . S
C241 C244 1.526 . S
C242 H226 0.959 . S
C242 H227 0.959 . S
C242 H228 0.961 . S
C242 C241 1.502 . S
C243 H229 0.960 . S
C243 H230 0.961 . S
C243 H231 0.959 . S
C243 C241 1.561 . S
C244 C241 1.526 . S
C244 C245 1.396 . S
C244 C249 1.390 . S
C245 C239 1.465 . S
C245 C244 1.396 . S
C245 C246 1.399 . S
C246 H232 0.929 . S
C246 C245 1.399 . S
C246 C247 1.385 . S
C247 H233 0.931 . S
C247 C246 1.385 . S
C247 C248 1.389 . S
C248 C247 1.389 . S
C248 C249 1.387 . S
C249 H234 0.930 . S
C249 C244 1.390 . S
C249 C248 1.387 . S
H250 C262 0.930 . S
H251 C264 0.930 . S
H252 C265 0.930 . S
H253 C269 0.959 . S
H254 C269 0.959 . S
H255 C269 0.961 . S
H256 C270 0.960 . S
H257 C270 0.961 . S
H258 C270 0.959 . S
H259 C273 0.929 . S
H260 C274 0.931 . S
H261 C276 0.930 . S
C262 H250 0.930 . S
C262 C263 1.399 . S
C262 C267 1.399 . S
C263 C262 1.399 . S
C263 C264 1.376 . S
C264 H251 0.930 . S
C264 C263 1.376 . S
C264 C265 1.388 . S
C265 H252 0.930 . S
C265 C264 1.388 . S
C265 C266 1.390 . S
C266 C265 1.390 . S
C266 C267 1.394 . S
C266 C272 1.465 . S
C267 C262 1.399 . S
C267 C266 1.394 . S
C267 C268 1.516 . S
C268 C267 1.516 . S
C268 C269 1.502 . S
C268 C270 1.561 . S
C268 C271 1.526 . S
C269 H253 0.959 . S
C269 H254 0.959 . S
C269 H255 0.961 . S
C269 C268 1.502 . S
C270 H256 0.960 . S
C270 H257 0.961 . S
C270 H258 0.959 . S
C270 C268 1.561 . S
C271 C268 1.526 . S
C271 C272 1.396 . S
C271 C276 1.390 . S
C272 C266 1.465 . S
C272 C271 1.396 . S
C272 C273 1.399 . S
C273 H259 0.929 . S
C273 C272 1.399 . S
C273 C274 1.385 . S
C274 H260 0.931 . S
C274 C273 1.385 . S
C274 C275 1.389 . S
C275 C274 1.389 . S
C275 C276 1.387 . S
C276 H261 0.930 . S
C276 C271 1.390 . S
C276 C275 1.387 . S
H277 C289 0.930 . S
H278 C291 0.930 . S
H279 C292 0.930 . S
H280 C296 0.959 . S
H281 C296 0.959 . S
H282 C296 0.961 . S
H283 C297 0.960 . S
H284 C297 0.961 . S
H285 C297 0.959 . S
H286 C300 0.929 . S
H287 C301 0.931 . S
H288 C303 0.930 . S
C289 H277 0.930 . S
C289 C290 1.399 . S
C289 C294 1.399 . S
C290 C289 1.399 . S
C290 C291 1.376 . S
C291 H278 0.930 . S
C291 C290 1.376 . S
C291 C292 1.388 . S
C292 H279 0.930 . S
C292 C291 1.388 . S
C292 C293 1.390 . S
C293 C292 1.390 . S
C293 C294 1.394 . S
C293 C299 1.465 . S
C294 C289 1.399 . S
C294 C293 1.394 . S
C294 C295 1.516 . S
C295 C294 1.516 . S
C295 C296 1.502 . S
C295 C297 1.561 . S
C295 C298 1.526 . S
C296 H280 0.959 . S
C296 H281 0.959 . S
C296 H282 0.961 . S
C296 C295 1.502 . S
C297 H283 0.960 . S
C297 H284 0.961 . S
C297 H285 0.959 . S
C297 C295 1.561 . S
C298 C295 1.526 . S
C298 C299 1.396 . S
C298 C303 1.390 . S
C299 C293 1.465 . S
C299 C298 1.396 . S
C299 C300 1.399 . S
C300 H286 0.929 . S
C300 C299 1.399 . S
C300 C301 1.385 . S
C301 H287 0.931 . S
C301 C300 1.385 . S
C301 C302 1.389 . S
C302 C301 1.389 . S
C302 C303 1.387 . S
C303 H288 0.930 . S
C303 C298 1.390 . S
C303 C302 1.387 . S
H304 C316 0.930 . S
H305 C318 0.930 . S
H306 C319 0.930 . S
H307 C323 0.959 1_556 S
H308 C323 0.959 . S
H309 C323 0.961 . S
H310 C324 0.960 . S
H311 C324 0.961 . S
H312 C324 0.959 . S
H313 C327 0.929 1_556 S
H314 C328 0.931 . S
H315 C330 0.930 . S
C316 H304 0.930 . S
C316 C317 1.399 . S
C316 C321 1.399 . S
C317 C316 1.399 . S
C317 C318 1.376 . S
C318 H305 0.930 . S
C318 C317 1.376 . S
C318 C319 1.388 . S
C319 H306 0.930 . S
C319 C318 1.388 . S
C319 C320 1.390 . S
C320 C319 1.390 . S
C320 C321 1.394 . S
C320 C326 1.465 1_556 S
C321 C316 1.399 . S
C321 C320 1.394 . S
C321 C322 1.516 1_556 S
C322 C321 1.516 1_554 S
C322 C323 1.502 . S
C322 C324 1.561 . S
C322 C325 1.526 . S
C323 H307 0.959 1_554 S
C323 H308 0.959 . S
C323 H309 0.961 . S
C323 C322 1.502 . S
C324 H310 0.960 . S
C324 H311 0.961 . S
C324 H312 0.959 . S
C324 C322 1.561 . S
C325 C322 1.526 . S
C325 C326 1.396 . S
C325 C330 1.390 . S
C326 C320 1.465 1_554 S
C326 C325 1.396 . S
C326 C327 1.399 . S
C327 H313 0.929 1_554 S
C327 C326 1.399 . S
C327 C328 1.385 . S
C328 H314 0.931 . S
C328 C327 1.385 . S
C328 C329 1.389 . S
C329 C328 1.389 . S
C329 C330 1.387 . S
C330 H315 0.930 . S
C330 C325 1.390 . S
C330 C329 1.387 . S
H331 C343 0.930 . S
H332 C345 0.930 . S
H333 C346 0.930 . S
H334 C350 0.959 . S
H335 C350 0.959 . S
H336 C350 0.961 . S
H337 C351 0.960 . S
H338 C351 0.961 . S
H339 C351 0.959 . S
H340 C354 0.929 . S
H341 C355 0.931 . S
H342 C357 0.930 . S
C343 H331 0.930 . S
C343 C344 1.399 . S
C343 C348 1.399 . S
C344 C343 1.399 . S
C344 C345 1.376 . S
C345 H332 0.930 . S
C345 C344 1.376 . S
C345 C346 1.388 . S
C346 H333 0.930 . S
C346 C345 1.388 . S
C346 C347 1.390 . S
C347 C346 1.390 . S
C347 C348 1.394 . S
C347 C353 1.465 . S
C348 C343 1.399 . S
C348 C347 1.394 . S
C348 C349 1.516 1_556 S
C349 C348 1.516 1_554 S
C349 C350 1.502 . S
C349 C351 1.561 . S
C349 C352 1.526 . S
C350 H334 0.959 . S
C350 H335 0.959 . S
C350 H336 0.961 . S
C350 C349 1.502 . S
C351 H337 0.960 . S
C351 H338 0.961 . S
C351 H339 0.959 . S
C351 C349 1.561 . S
C352 C349 1.526 . S
C352 C353 1.396 1_554 S
C352 C357 1.390 . S
C353 C347 1.465 . S
C353 C352 1.396 1_556 S
C353 C354 1.399 . S
C354 H340 0.929 . S
C354 C353 1.399 . S
C354 C355 1.385 1_556 S
C355 H341 0.931 . S
C355 C354 1.385 1_554 S
C355 C356 1.389 . S
C356 C355 1.389 . S
C356 C357 1.387 . S
C357 H342 0.930 . S
C357 C352 1.390 . S
C357 C356 1.387 . S
H358 C370 0.930 . S
H359 C372 0.930 . S
H360 C373 0.930 . S
H361 C377 0.959 . S
H362 C377 0.959 . S
H363 C377 0.961 . S
H364 C378 0.960 . S
H365 C378 0.961 . S
H366 C378 0.959 . S
H367 C381 0.929 . S
H368 C382 0.931 . S
H369 C384 0.930 . S
C370 H358 0.930 . S
C370 C371 1.399 . S
C370 C375 1.399 . S
C371 C370 1.399 . S
C371 C372 1.376 . S
C372 H359 0.930 . S
C372 C371 1.376 . S
C372 C373 1.388 . S
C373 H360 0.930 . S
C373 C372 1.388 . S
C373 C374 1.390 . S
C374 C373 1.390 . S
C374 C375 1.394 . S
C374 C380 1.465 . S
C375 C370 1.399 . S
C375 C374 1.394 . S
C375 C376 1.516 1_554 S
C376 C375 1.516 1_556 S
C376 C377 1.502 . S
C376 C378 1.561 . S
C376 C379 1.526 . S
C377 H361 0.959 . S
C377 H362 0.959 . S
C377 H363 0.961 . S
C377 C376 1.502 . S
C378 H364 0.960 . S
C378 H365 0.961 . S
C378 H366 0.959 . S
C378 C376 1.561 . S
C379 C376 1.526 . S
C379 C380 1.396 1_556 S
C379 C384 1.390 . S
C380 C374 1.465 . S
C380 C379 1.396 1_554 S
C380 C381 1.399 . S
C381 H367 0.929 . S
C381 C380 1.399 . S
C381 C382 1.385 1_554 S
C382 H368 0.931 . S
C382 C381 1.385 1_556 S
C382 C383 1.389 . S
C383 C382 1.389 . S
C383 C384 1.387 . S
C384 H369 0.930 . S
C384 C379 1.390 . S
C384 C383 1.387 . S
H385 C397 0.930 . S
H386 C399 0.930 . S
H387 C400 0.930 1_556 S
H388 C404 0.959 1_556 S
H389 C404 0.959 . S
H390 C404 0.961 . S
H391 C405 0.960 . S
H392 C405 0.961 . S
H393 C405 0.959 . S
H394 C408 0.929 . S
H395 C409 0.931 . S
H396 C411 0.930 . S
C397 H385 0.930 . S
C397 C398 1.399 . S
C397 C402 1.399 . S
C398 C397 1.399 . S
C398 C399 1.376 . S
C399 H386 0.930 . S
C399 C398 1.376 . S
C399 C400 1.388 . S
C400 H387 0.930 1_554 S
C400 C399 1.388 . S
C400 C401 1.390 . S
C401 C400 1.390 . S
C401 C402 1.394 . S
C401 C407 1.465 1_554 S
C402 C397 1.399 . S
C402 C401 1.394 . S
C402 C403 1.516 . S
C403 C402 1.516 . S
C403 C404 1.502 . S
C403 C405 1.561 . S
C403 C406 1.526 1_554 S
C404 H388 0.959 1_554 S
C404 H389 0.959 . S
C404 H390 0.961 . S
C404 C403 1.502 . S
C405 H391 0.960 . S
C405 H392 0.961 . S
C405 H393 0.959 . S
C405 C403 1.561 . S
C406 C403 1.526 1_556 S
C406 C407 1.396 . S
C406 C411 1.390 . S
C407 C401 1.465 1_556 S
C407 C406 1.396 . S
C407 C408 1.399 . S
C408 H394 0.929 . S
C408 C407 1.399 . S
C408 C409 1.385 . S
C409 H395 0.931 . S
C409 C408 1.385 . S
C409 C410 1.389 . S
C410 C409 1.389 . S
C410 C411 1.387 . S
C411 H396 0.930 . S
C411 C406 1.390 . S
C411 C410 1.387 . S
C101 C48 1.521 . S
C113 C8 1.561 1_455 S
C128 C27 1.561 . S
C140 C73 1.529 . S
C155 C70 1.528 . S
C167 C30 1.552 . S
C182 C5 1.520 . S
C194 C51 1.563 1_455 S
C209 C72 2.151 . S
C221 C9 2.098 . S
C236 C53 2.152 . S
C248 C28 2.109 . S
C263 C50 2.155 . S
C275 C31 2.095 . S
C290 C6 2.104 . S
C302 C75 2.154 . S
C317 C71 0.636 . S
C329 C7 0.709 . S
C344 C52 0.659 . S
C356 C26 0.685 . S
C371 C29 0.730 . S
C383 C49 0.653 . S
C398 C4 0.617 . S
C410 C74 0.749 . S
