# Generated by pormake.
# Topology ukb, (4)-cn, num edge types: 1
# Building blocks:
#     Node 0, Type 0, BuildingBlock: NAHDIM_clean_sbu_0, # of connection points: 4
#     Node 1, Type 0, BuildingBlock: NAHDIM_clean_sbu_0, # of connection points: 4
#     Node 2, Type 0, BuildingBlock: NAHDIM_clean_sbu_0, # of connection points: 4
#     Node 3, Type 0, BuildingBlock: NAHDIM_clean_sbu_0, # of connection points: 4
#     Node 4, Type 0, BuildingBlock: NAHDIM_clean_sbu_0, # of connection points: 4
#     Node 5, Type 0, BuildingBlock: NAHDIM_clean_sbu_0, # of connection points: 4
#     Node 6, Type 0, BuildingBlock: NAHDIM_clean_sbu_0, # of connection points: 4
#     Node 7, Type 0, BuildingBlock: NAHDIM_clean_sbu_0, # of connection points: 4
#     Node 8, Type 0, BuildingBlock: NAHDIM_clean_sbu_0, # of connection points: 4
#     Node 9, Type 0, BuildingBlock: NAHDIM_clean_sbu_0, # of connection points: 4
#     Node 10, Type 0, BuildingBlock: NAHDIM_clean_sbu_0, # of connection points: 4
#     Node 11, Type 0, BuildingBlock: NAHDIM_clean_sbu_0, # of connection points: 4
#     Node 12, Type 0, BuildingBlock: NAHDIM_clean_sbu_0, # of connection points: 4
#     Node 13, Type 0, BuildingBlock: NAHDIM_clean_sbu_0, # of connection points: 4
#     Node 14, Type 0, BuildingBlock: NAHDIM_clean_sbu_0, # of connection points: 4
#     Node 15, Type 0, BuildingBlock: NAHDIM_clean_sbu_0, # of connection points: 4
#     Edge 16, Type (0, 0), BuildingBlock: EZIPEK_clean_linker_0, # of connection points: 2
#     Edge 17, Type (0, 0), BuildingBlock: EZIPEK_clean_linker_0, # of connection points: 2
#     Edge 18, Type (0, 0), BuildingBlock: EZIPEK_clean_linker_0, # of connection points: 2
#     Edge 19, Type (0, 0), BuildingBlock: EZIPEK_clean_linker_0, # of connection points: 2
#     Edge 20, Type (0, 0), BuildingBlock: EZIPEK_clean_linker_0, # of connection points: 2
#     Edge 21, Type (0, 0), BuildingBlock: EZIPEK_clean_linker_0, # of connection points: 2
#     Edge 22, Type (0, 0), BuildingBlock: EZIPEK_clean_linker_0, # of connection points: 2
#     Edge 23, Type (0, 0), BuildingBlock: EZIPEK_clean_linker_0, # of connection points: 2
#     Edge 24, Type (0, 0), BuildingBlock: EZIPEK_clean_linker_0, # of connection points: 2
#     Edge 25, Type (0, 0), BuildingBlock: EZIPEK_clean_linker_0, # of connection points: 2
#     Edge 26, Type (0, 0), BuildingBlock: EZIPEK_clean_linker_0, # of connection points: 2
#     Edge 27, Type (0, 0), BuildingBlock: EZIPEK_clean_linker_0, # of connection points: 2
#     Edge 28, Type (0, 0), BuildingBlock: EZIPEK_clean_linker_0, # of connection points: 2
#     Edge 29, Type (0, 0), BuildingBlock: EZIPEK_clean_linker_0, # of connection points: 2
#     Edge 30, Type (0, 0), BuildingBlock: EZIPEK_clean_linker_0, # of connection points: 2
#     Edge 31, Type (0, 0), BuildingBlock: EZIPEK_clean_linker_0, # of connection points: 2
#     Edge 32, Type (0, 0), BuildingBlock: EZIPEK_clean_linker_0, # of connection points: 2
#     Edge 33, Type (0, 0), BuildingBlock: EZIPEK_clean_linker_0, # of connection points: 2
#     Edge 34, Type (0, 0), BuildingBlock: EZIPEK_clean_linker_0, # of connection points: 2
#     Edge 35, Type (0, 0), BuildingBlock: EZIPEK_clean_linker_0, # of connection points: 2
#     Edge 36, Type (0, 0), BuildingBlock: EZIPEK_clean_linker_0, # of connection points: 2
#     Edge 37, Type (0, 0), BuildingBlock: EZIPEK_clean_linker_0, # of connection points: 2
#     Edge 38, Type (0, 0), BuildingBlock: EZIPEK_clean_linker_0, # of connection points: 2
#     Edge 39, Type (0, 0), BuildingBlock: EZIPEK_clean_linker_0, # of connection points: 2
#     Edge 40, Type (0, 0), BuildingBlock: EZIPEK_clean_linker_0, # of connection points: 2
#     Edge 41, Type (0, 0), BuildingBlock: EZIPEK_clean_linker_0, # of connection points: 2
#     Edge 42, Type (0, 0), BuildingBlock: EZIPEK_clean_linker_0, # of connection points: 2
#     Edge 43, Type (0, 0), BuildingBlock: EZIPEK_clean_linker_0, # of connection points: 2
#     Edge 44, Type (0, 0), BuildingBlock: EZIPEK_clean_linker_0, # of connection points: 2
#     Edge 45, Type (0, 0), BuildingBlock: EZIPEK_clean_linker_0, # of connection points: 2
#     Edge 46, Type (0, 0), BuildingBlock: EZIPEK_clean_linker_0, # of connection points: 2
#     Edge 47, Type (0, 0), BuildingBlock: EZIPEK_clean_linker_0, # of connection points: 2
# Relax obj value: 0.149
# Max RMSD: 0.161
# Mean RMSD: 0.161
data_MOF--net-ukb--node1-NAHDIM_clean_sbu_0--edge1-EZIPEK_clean_linker_0
_symmetry_space_group_name_H-M    P1
_symmetry_Int_Tables_number       1
_symmetry_cell_setting            triclinic
loop_
_symmetry_equiv_pos_as_xyz
'x, y, z'
_cell_length_a     31.928922
_cell_length_b     31.933762
_cell_length_c     27.721298
_cell_angle_alpha  89.991535
_cell_angle_beta   90.003414
_cell_angle_gamma 89.926814
loop_
_atom_site_label
_atom_site_type_symbol
_atom_site_fract_x
_atom_site_fract_y
_atom_site_fract_z
_atom_type_partial_charge
C0 C 0.43462 0.18456 0.22224 0.0
O1 O 0.45354 0.16221 0.18896 0.0
O2 O 0.50047 0.2314 0.1339 0.0
Zn3 Zn 0.50715 0.22961 0.20639 0.0
O4 O 0.54311 0.18046 0.22728 0.0
C5 C 0.57175 0.28775 0.23283 0.0
O6 O 0.59562 0.25731 0.21696 0.0
O7 O 0.45085 0.21885 0.23588 0.0
C8 C 0.57364 0.16511 0.20377 0.0
O9 O 0.58332 0.18041 0.16127 0.0
C10 C 0.52737 0.24849 0.10652 0.0
O11 O 0.56065 0.26628 0.1251 0.0
O12 O 0.53213 0.28377 0.23203 0.0
C13 C 0.319 0.43212 0.70372 0.0
O14 O 0.33388 0.44353 0.66158 0.0
O15 O 0.26192 0.49694 0.62049 0.0
Zn16 Zn 0.27735 0.50797 0.68953 0.0
O17 O 0.32925 0.54391 0.69248 0.0
C18 C 0.19243 0.5315 0.7195 0.0
O19 O 0.18008 0.49706 0.69789 0.0
O20 O 0.29114 0.45447 0.72391 0.0
C21 C 0.32596 0.58351 0.69502 0.0
O22 O 0.28888 0.6011 0.69196 0.0
C23 C 0.24622 0.52682 0.59624 0.0
O24 O 0.2408 0.56354 0.6166 0.0
O25 O 0.23115 0.54012 0.72201 0.0
C26 C 0.06432 0.32215 0.21262 0.0
O27 O 0.04889 0.34327 0.17604 0.0
O28 O -0.0003 0.267 0.12541 0.0
Zn29 Zn 0.98976 0.28061 0.19572 0.0
O30 O 0.95776 0.33508 0.20473 0.0
C31 C 0.92989 0.21429 0.20646 0.0
O32 O 0.92158 0.22426 0.16157 0.0
O33 O 0.04517 0.2899 0.2277 0.0
C34 C 0.91808 0.33787 0.20624 0.0
O35 O 0.89494 0.3047 0.19819 0.0
C36 C 0.97408 0.27872 0.09307 0.0
O37 O 0.94154 0.30152 0.10515 0.0
O38 O 0.95872 0.23349 0.22898 0.0
C39 C 0.17364 0.05589 0.70885 0.0
O40 O 0.15589 0.03982 0.67034 0.0
O41 O 0.24312 0.99732 0.62545 0.0
Zn42 Zn 0.22405 0.98566 0.69325 0.0
O43 O 0.17415 0.94726 0.68992 0.0
C44 C 0.30591 0.95012 0.71953 0.0
O45 O 0.32072 0.97104 0.68257 0.0
O46 O 0.20629 0.03875 0.72605 0.0
C47 C 0.16463 0.9284 0.72872 0.0
O48 O 0.18528 0.93702 0.76845 0.0
C49 C 0.25585 0.96679 0.6 0.0
O50 O 0.25688 0.92907 0.61889 0.0
O51 O 0.26781 0.95437 0.73173 0.0
C52 C 0.42141 0.30834 0.79826 0.0
O53 O 0.42625 0.30758 0.84529 0.0
O54 O 0.495 0.25818 0.87189 0.0
Zn55 Zn 0.50277 0.27199 0.80139 0.0
O56 O 0.54094 0.32215 0.79541 0.0
C57 C 0.53131 0.18701 0.78145 0.0
O58 O 0.51138 0.17756 0.8214 0.0
O59 O 0.44873 0.29113 0.77147 0.0
C60 C 0.57953 0.31797 0.78532 0.0
O61 O 0.59596 0.28035 0.78229 0.0
C62 C 0.52645 0.25905 0.89989 0.0
O63 O 0.56365 0.26768 0.88259 0.0
O64 O 0.52989 0.22417 0.76527 0.0
C65 C 0.19221 0.42434 0.29364 0.0
O66 O 0.21095 0.42342 0.33579 0.0
O67 O 0.22792 0.51263 0.36206 0.0
Zn68 Zn 0.21435 0.51328 0.29085 0.0
O69 O 0.16931 0.55544 0.27444 0.0
C70 C 0.28073 0.56549 0.26976 0.0
O71 O 0.26277 0.58421 0.30645 0.0
O72 O 0.19214 0.45773 0.2688 0.0
C73 C 0.15806 0.58699 0.29915 0.0
O74 O 0.17603 0.59513 0.34062 0.0
C75 C 0.20043 0.51272 0.39518 0.0
O76 O 0.16053 0.51211 0.38373 0.0
O77 O 0.2661 0.53089 0.25473 0.0
C78 C 0.06977 0.18461 0.79067 0.0
O79 O 0.06921 0.195 0.8365 0.0
O80 O 0.99614 0.23919 0.86063 0.0
Zn81 Zn 0.98644 0.21764 0.79303 0.0
O82 O 0.94576 0.16985 0.79507 0.0
C83 C 0.96076 0.30042 0.7626 0.0
O84 O 0.98739 0.3129 0.79565 0.0
O85 O 0.03913 0.1945 0.76374 0.0
C86 C 0.93887 0.15091 0.75564 0.0
O87 O 0.95939 0.16197 0.71664 0.0
C88 C 0.96978 0.23062 0.89347 0.0
O89 O 0.93675 0.20786 0.88327 0.0
O90 O 0.95773 0.26169 0.75308 0.0
C91 C 0.3074 0.07969 0.30104 0.0
O92 O 0.29028 0.07983 0.34411 0.0
O93 O 0.27421 0.99168 0.36952 0.0
Zn94 Zn 0.28458 0.9912 0.29809 0.0
O95 O 0.33102 0.95028 0.28374 0.0
C96 C 0.20655 0.94949 0.28634 0.0
O97 O 0.21448 0.94001 0.33147 0.0
O98 O 0.30597 0.04688 0.27523 0.0
C99 C 0.32578 0.9109 0.28209 0.0
O100 O 0.28892 0.89502 0.29229 0.0
C101 C 0.30339 0.98778 0.4003 0.0
O102 O 0.34248 0.98497 0.38593 0.0
O103 O 0.23167 0.97309 0.26335 0.0
C104 C 0.57918 0.79972 0.79059 0.0
O105 O 0.58051 0.78082 0.83264 0.0
O106 O 0.49492 0.75494 0.85666 0.0
Zn107 Zn 0.492 0.77239 0.78662 0.0
O108 O 0.44839 0.81742 0.77579 0.0
C109 C 0.4406 0.70656 0.76074 0.0
O110 O 0.42174 0.72248 0.79847 0.0
O111 O 0.54634 0.79769 0.76488 0.0
C112 C 0.41565 0.82478 0.80046 0.0
O113 O 0.4067 0.80187 0.83839 0.0
C114 C 0.491 0.78061 0.8914 0.0
O115 O 0.4866 0.82071 0.88213 0.0
O116 O 0.47494 0.72238 0.74655 0.0
C117 C 0.68088 0.56604 0.27991 0.0
O118 O 0.65797 0.5455 0.3113 0.0
O119 O 0.74209 0.49807 0.36612 0.0
Zn120 Zn 0.72937 0.49476 0.2952 0.0
O121 O 0.67952 0.45742 0.2839 0.0
C122 C 0.81616 0.47491 0.27118 0.0
O123 O 0.82593 0.50664 0.29914 0.0
O124 O 0.71631 0.5514 0.26761 0.0
C125 C 0.68438 0.41809 0.28773 0.0
O126 O 0.72089 0.40306 0.30115 0.0
C127 C 0.71609 0.48567 0.39772 0.0
O128 O 0.6787 0.47309 0.38444 0.0
O129 O 0.778 0.46673 0.26254 0.0
C130 C 0.94266 0.66712 0.79086 0.0
O131 O 0.96126 0.65424 0.83046 0.0
O132 O 0.00405 0.73181 0.86645 0.0
Zn133 Zn 0.01198 0.71853 0.79569 0.0
O134 O 0.05095 0.66915 0.78643 0.0
C135 C 0.0601 0.7928 0.77954 0.0
O136 O 0.07188 0.7848 0.82389 0.0
O137 O 0.95756 0.69836 0.76834 0.0
C138 C 0.09035 0.67066 0.78048 0.0
O139 O 0.11003 0.70663 0.78297 0.0
C140 C 0.03342 0.72528 0.89643 0.0
O141 O 0.06881 0.70895 0.88138 0.0
O142 O 0.03356 0.76911 0.75902 0.0
C143 C 0.80273 0.92766 0.29207 0.0
O144 O 0.78796 0.92464 0.33613 0.0
O145 O 0.75987 0.00584 0.36747 0.0
Zn146 Zn 0.77213 0.0132 0.29628 0.0
O147 O 0.81799 0.05606 0.28723 0.0
C148 C 0.68699 0.0419 0.28362 0.0
O149 O 0.68379 0.03147 0.32927 0.0
O150 O 0.79621 0.96068 0.26768 0.0
C151 C 0.81077 0.09245 0.27067 0.0
O152 O 0.77226 0.10398 0.26086 0.0
C153 C 0.77307 0.03209 0.39836 0.0
O154 O 0.79532 0.06437 0.38427 0.0
O155 O 0.72076 0.03425 0.26102 0.0
C156 C 0.57934 0.69717 0.20286 0.0
O157 O 0.58438 0.72069 0.16444 0.0
O158 O 0.50178 0.72858 0.12156 0.0
Zn159 Zn 0.49053 0.71581 0.19187 0.0
O160 O 0.44801 0.66918 0.19935 0.0
C161 C 0.44369 0.79154 0.20637 0.0
O162 O 0.4358 0.78571 0.16044 0.0
O163 O 0.54324 0.69309 0.22149 0.0
C164 C 0.40861 0.67491 0.2005 0.0
O165 O 0.39306 0.71239 0.19316 0.0
C166 C 0.47336 0.72625 0.08963 0.0
O167 O 0.43567 0.71393 0.102 0.0
O168 O 0.46906 0.76707 0.22779 0.0
C169 C 0.82519 0.55325 0.70312 0.0
O170 O 0.83548 0.53658 0.66144 0.0
O171 O 0.75952 0.49358 0.62896 0.0
Zn172 Zn 0.77356 0.48381 0.69908 0.0
O173 O 0.82226 0.44341 0.70593 0.0
C174 C 0.69906 0.43581 0.71615 0.0
O175 O 0.70564 0.4255 0.67099 0.0
O176 O 0.79553 0.53719 0.72736 0.0
C177 C 0.81903 0.40415 0.71212 0.0
O178 O 0.78189 0.38659 0.71266 0.0
C179 C 0.76362 0.46481 0.59766 0.0
O180 O 0.7776 0.42787 0.61094 0.0
O181 O 0.72304 0.46237 0.73623 0.0
C182 C 0.94019 0.83603 0.21012 0.0
O183 O 0.9556 0.85548 0.17236 0.0
O184 O 0.0028 0.77124 0.12537 0.0
Zn185 Zn 0.01277 0.7882 0.19412 0.0
O186 O 0.0521 0.83736 0.19533 0.0
C187 C 0.03942 0.70356 0.21751 0.0
O188 O 0.01378 0.69227 0.18286 0.0
O189 O 0.95887 0.80396 0.22659 0.0
C190 C 0.06642 0.84815 0.23619 0.0
O191 O 0.053 0.82916 0.27524 0.0
C192 C 0.03417 0.77115 0.09724 0.0
O193 O 0.07117 0.78204 0.11358 0.0
O194 O 0.04239 0.74185 0.22926 0.0
C195 C 0.67644 0.93444 0.71585 0.0
O196 O 0.65385 0.95171 0.6816 0.0
O197 O 0.72433 0.00272 0.628 0.0
Zn198 Zn 0.7178 0.00927 0.70038 0.0
O199 O 0.66596 0.04293 0.71642 0.0
C200 C 0.80409 0.03685 0.71373 0.0
O201 O 0.8123 0.01029 0.67883 0.0
O202 O 0.70938 0.95277 0.73034 0.0
C203 C 0.65963 0.08003 0.70155 0.0
O204 O 0.68685 0.09797 0.67283 0.0
C205 C 0.74138 0.03095 0.60239 0.0
O206 O 0.75459 0.06561 0.6226 0.0
O207 O 0.76703 0.03952 0.73011 0.0
C208 C 0.35952 0.16226 0.22378 0.0
C209 C 0.39848 0.16629 0.2479 0.0
C210 C 0.37552 0.11748 0.31051 0.0
C211 C 0.33641 0.11344 0.28654 0.0
N212 N 0.28748 0.13783 0.2268 0.0
N213 N 0.44031 0.15604 0.31948 0.0
C214 C 0.32721 0.13785 0.24517 0.0
C215 C 0.40516 0.14699 0.2933 0.0
N216 N 0.35398 0.18087 0.17982 0.0
N217 N 0.38581 0.09078 0.34726 0.0
H218 H 0.46379 0.17604 0.30727 0.0
H219 H 0.44456 0.14658 0.3551 0.0
H220 H 0.36559 0.0679 0.36034 0.0
H221 H 0.41568 0.08871 0.36213 0.0
H222 H 0.32835 0.17527 0.15755 0.0
H223 H 0.37621 0.20082 0.16458 0.0
H224 H 0.27753 0.15764 0.19926 0.0
H225 H 0.26331 0.12024 0.242 0.0
C226 C 0.33456 0.35682 0.72246 0.0
C227 C 0.34163 0.39993 0.73167 0.0
C228 C 0.4013 0.38272 0.78341 0.0
C229 C 0.39277 0.33947 0.77665 0.0
N230 N 0.34864 0.2847 0.74559 0.0
N231 N 0.37679 0.4542 0.77677 0.0
C232 C 0.35857 0.32628 0.74781 0.0
C233 C 0.37328 0.41291 0.76428 0.0
N234 N 0.30549 0.34523 0.68882 0.0
N235 N 0.43765 0.39506 0.80539 0.0
H236 H 0.35831 0.47777 0.7618 0.0
H237 H 0.39579 0.46479 0.80475 0.0
H238 H 0.45979 0.37418 0.81905 0.0
H239 H 0.44797 0.42597 0.80619 0.0
H240 H 0.30193 0.3147 0.67638 0.0
H241 H 0.28622 0.36679 0.67123 0.0
H242 H 0.32172 0.27321 0.72909 0.0
H243 H 0.36592 0.26169 0.76347 0.0
C244 C 0.09279 0.35997 0.2842 0.0
C245 C 0.10018 0.3397 0.23946 0.0
C246 C 0.17256 0.36532 0.23914 0.0
C247 C 0.16302 0.39065 0.27961 0.0
N248 N 0.11354 0.41497 0.33922 0.0
N249 N 0.14641 0.32162 0.17406 0.0
C250 C 0.12329 0.38814 0.30243 0.0
C251 C 0.14009 0.3416 0.21707 0.0
N252 N 0.05624 0.35319 0.30873 0.0
N253 N 0.21277 0.3639 0.22227 0.0
H254 H 0.12402 0.30202 0.15853 0.0
H255 H 0.17298 0.32557 0.15281 0.0
H256 H 0.23701 0.38098 0.23808 0.0
H257 H 0.22293 0.3435 0.19544 0.0
H258 H 0.05118 0.36315 0.34401 0.0
H259 H 0.03191 0.33478 0.29553 0.0
H260 H 0.08348 0.41867 0.35314 0.0
H261 H 0.13488 0.43607 0.3538 0.0
C262 C 0.13076 0.08306 0.77735 0.0
C263 C 0.15297 0.09105 0.73406 0.0
C264 C 0.12695 0.16339 0.73367 0.0
C265 C 0.10045 0.15347 0.77307 0.0
N266 N 0.0713 0.10149 0.82691 0.0
N267 N 0.17169 0.13776 0.66927 0.0
C268 C 0.10109 0.11283 0.7939 0.0
C269 C 0.15102 0.13102 0.71175 0.0
N270 N 0.13748 0.0468 0.80244 0.0
N271 N 0.12971 0.20389 0.71802 0.0
H272 H 0.19167 0.1156 0.65386 0.0
H273 H 0.16758 0.16438 0.64812 0.0
H274 H 0.11252 0.22823 0.73352 0.0
H275 H 0.15137 0.21407 0.69254 0.0
H276 H 0.12558 0.04152 0.8369 0.0
H277 H 0.15788 0.02339 0.79093 0.0
H278 H 0.06722 0.07084 0.83885 0.0
H279 H 0.04776 0.12156 0.83895 0.0
C280 C 0.63628 0.824 0.73577 0.0
C281 C 0.61144 0.83079 0.77739 0.0
C282 C 0.6407 0.90131 0.78616 0.0
C283 C 0.66029 0.8968 0.74055 0.0
N284 N 0.67784 0.85463 0.67143 0.0
N285 N 0.58655 0.87688 0.84031 0.0
C286 C 0.65874 0.85815 0.71539 0.0
C287 C 0.61331 0.86941 0.80271 0.0
N288 N 0.63854 0.78477 0.71621 0.0
N289 N 0.64746 0.93648 0.81319 0.0
H290 H 0.56564 0.85467 0.8535 0.0
H291 H 0.58257 0.90616 0.85617 0.0
H292 H 0.66568 0.96154 0.80147 0.0
H293 H 0.6379 0.93945 0.84894 0.0
H294 H 0.65881 0.7766 0.68836 0.0
H295 H 0.62243 0.75928 0.73071 0.0
H296 H 0.67389 0.82919 0.64843 0.0
H297 H 0.69656 0.87827 0.65696 0.0
C298 C 0.63175 0.67352 0.26397 0.0
C299 C 0.61275 0.66806 0.21825 0.0
C300 C 0.6493 0.60107 0.20787 0.0
C301 C 0.66322 0.60368 0.2564 0.0
N302 N 0.66903 0.64178 0.33108 0.0
N303 N 0.60061 0.62598 0.14726 0.0
C304 C 0.65514 0.63998 0.28447 0.0
C305 C 0.6214 0.63205 0.18987 0.0
N306 N 0.62769 0.71102 0.28731 0.0
N307 N 0.66196 0.56852 0.17926 0.0
H308 H 0.58017 0.64794 0.13236 0.0
H309 H 0.60118 0.59799 0.12804 0.0
H310 H 0.68033 0.54378 0.19163 0.0
H311 H 0.65696 0.5675 0.14217 0.0
H312 H 0.6436 0.71868 0.31884 0.0
H313 H 0.61079 0.73604 0.27281 0.0
H314 H 0.66015 0.66488 0.35552 0.0
H315 H 0.68848 0.61895 0.3461 0.0
C316 C 0.86986 0.65191 0.76092 0.0
C317 C 0.91217 0.63934 0.76692 0.0
C318 C 0.8957 0.56951 0.73638 0.0
C319 C 0.85427 0.58297 0.72634 0.0
N320 N 0.80255 0.63792 0.72332 0.0
N321 N 0.96755 0.58983 0.75012 0.0
C322 C 0.84141 0.62448 0.7371 0.0
C323 C 0.92573 0.59918 0.75171 0.0
N324 N 0.85672 0.68944 0.7792 0.0
N325 N 0.90601 0.52799 0.73328 0.0
H326 H 0.99083 0.61104 0.75997 0.0
H327 H 0.97936 0.56266 0.73437 0.0
H328 H 0.88468 0.50483 0.7234 0.0
H329 H 0.9345 0.51592 0.74527 0.0
H330 H 0.82543 0.69857 0.7806 0.0
H331 H 0.87698 0.71045 0.79608 0.0
H332 H 0.79282 0.66898 0.72551 0.0
H333 H 0.78088 0.61839 0.70639 0.0
C334 C 0.87595 0.90023 0.29781 0.0
C335 C 0.83591 0.89876 0.27549 0.0
C336 C 0.86352 0.85286 0.21213 0.0
C337 C 0.90325 0.85363 0.2351 0.0
N338 N 0.94563 0.87083 0.30448 0.0
N339 N 0.78908 0.86847 0.21723 0.0
C340 C 0.90878 0.87467 0.27971 0.0
C341 C 0.82893 0.87339 0.23436 0.0
N342 N 0.88354 0.92831 0.33409 0.0
N343 N 0.85913 0.83309 0.16867 0.0
H344 H 0.76326 0.88316 0.23296 0.0
H345 H 0.78099 0.84743 0.19014 0.0
H346 H 0.88312 0.81564 0.15284 0.0
H347 H 0.83253 0.83545 0.14715 0.0
H348 H 0.91331 0.93462 0.34755 0.0
H349 H 0.86076 0.94816 0.3483 0.0
H350 H 0.94968 0.88124 0.33977 0.0
H351 H 0.97139 0.85434 0.29141 0.0
C352 C 0.61039 0.32572 0.29769 0.0
C353 C 0.59188 0.32611 0.25126 0.0
C354 C 0.63086 0.38933 0.22993 0.0
C355 C 0.64962 0.38904 0.27646 0.0
N356 N 0.6496 0.36371 0.35845 0.0
N357 N 0.57519 0.3634 0.17837 0.0
C358 C 0.637 0.35925 0.31159 0.0
C359 C 0.59889 0.35985 0.21921 0.0
N360 N 0.6033 0.29269 0.32796 0.0
N361 N 0.64556 0.41561 0.19484 0.0
H362 H 0.55153 0.34217 0.16982 0.0
H363 H 0.57604 0.38938 0.15569 0.0
H364 H 0.66973 0.43696 0.20043 0.0
H365 H 0.63633 0.41385 0.15888 0.0
H366 H 0.62007 0.28756 0.35963 0.0
H367 H 0.58158 0.26925 0.32021 0.0
H368 H 0.63834 0.34539 0.38666 0.0
H369 H 0.66855 0.38832 0.37002 0.0
C370 C 0.16286 0.57601 0.78536 0.0
C371 C 0.16178 0.56306 0.73644 0.0
C372 C 0.10839 0.61625 0.71891 0.0
C373 C 0.11342 0.63243 0.76626 0.0
N374 N 0.14706 0.63008 0.84407 0.0
N375 N 0.13762 0.57392 0.65474 0.0
C376 C 0.1411 0.61293 0.79941 0.0
C377 C 0.13522 0.58357 0.70276 0.0
N378 N 0.18376 0.55219 0.81858 0.0
N379 N 0.07828 0.63239 0.68908 0.0
H380 H 0.15674 0.55032 0.641 0.0
H381 H 0.12316 0.59144 0.62779 0.0
H382 H 0.05976 0.65813 0.6981 0.0
H383 H 0.06958 0.61847 0.65663 0.0
H384 H 0.18246 0.55747 0.8556 0.0
H385 H 0.19943 0.5246 0.80947 0.0
H386 H 0.17037 0.62034 0.86783 0.0
H387 H 0.13028 0.65596 0.85642 0.0
C388 C 0.84868 0.15975 0.28472 0.0
C389 C 0.84571 0.12117 0.25966 0.0
C390 C 0.90631 0.14014 0.21016 0.0
C391 C 0.9051 0.181 0.22998 0.0
N392 N 0.87465 0.23104 0.28509 0.0
N393 N 0.86917 0.07528 0.19583 0.0
C394 C 0.87657 0.19107 0.26753 0.0
C395 C 0.8742 0.11121 0.22205 0.0
N396 N 0.82533 0.16606 0.32543 0.0
N397 N 0.93865 0.1289 0.18051 0.0
H398 H 0.84602 0.05319 0.20316 0.0
H399 H 0.88585 0.06878 0.16443 0.0
H400 H 0.96298 0.14934 0.17178 0.0
H401 H 0.94366 0.09841 0.16853 0.0
H402 H 0.8291 0.19168 0.34822 0.0
H403 H 0.80451 0.14375 0.33884 0.0
H404 H 0.85096 0.24172 0.30779 0.0
H405 H 0.89553 0.25447 0.27494 0.0
C406 C 0.36905 0.93092 0.76846 0.0
C407 C 0.3324 0.91819 0.7435 0.0
C408 C 0.34861 0.84427 0.75984 0.0
C409 C 0.38585 0.85701 0.78357 0.0
N410 N 0.43394 0.91097 0.80827 0.0
N411 N 0.28406 0.86375 0.71955 0.0
C412 C 0.39667 0.89998 0.78744 0.0
C413 C 0.32111 0.87514 0.74064 0.0
N414 N 0.37622 0.97267 0.77595 0.0
N415 N 0.34114 0.80248 0.75274 0.0
H416 H 0.26474 0.88449 0.70098 0.0
H417 H 0.27104 0.834 0.72208 0.0
H418 H 0.36029 0.77888 0.76652 0.0
H419 H 0.31756 0.79068 0.73076 0.0
H420 H 0.40001 0.98445 0.79764 0.0
H421 H 0.3563 0.99609 0.76314 0.0
H422 H 0.44644 0.94101 0.80743 0.0
H423 H 0.45378 0.88936 0.82487 0.0
C424 C 0.55638 0.13864 0.71612 0.0
C425 C 0.5629 0.15776 0.76167 0.0
C426 C 0.63044 0.12179 0.76983 0.0
C427 C 0.62548 0.10533 0.72266 0.0
N428 N 0.58645 0.10062 0.64848 0.0
N429 N 0.60894 0.17392 0.82816 0.0
C430 C 0.58918 0.1145 0.69504 0.0
C431 C 0.60057 0.15084 0.78773 0.0
N432 N 0.51844 0.14275 0.69373 0.0
N433 N 0.66384 0.10979 0.79754 0.0
H434 H 0.58828 0.19611 0.84203 0.0
H435 H 0.63782 0.17398 0.8456 0.0
H436 H 0.68787 0.09055 0.78494 0.0
H437 H 0.66636 0.11652 0.83417 0.0
H438 H 0.50997 0.12628 0.66285 0.0
H439 H 0.49401 0.16052 0.70813 0.0
H440 H 0.56313 0.10996 0.62455 0.0
H441 H 0.60911 0.08147 0.63267 0.0
C442 C 0.38282 0.62337 0.26192 0.0
C443 C 0.38025 0.64053 0.21475 0.0
C444 C 0.31466 0.60277 0.2003 0.0
C445 C 0.31759 0.58533 0.24724 0.0
N446 N 0.35916 0.56965 0.31737 0.0
N447 N 0.35012 0.63895 0.13511 0.0
C448 C 0.35337 0.59253 0.27622 0.0
C449 C 0.34817 0.62771 0.18262 0.0
N450 N 0.41148 0.63844 0.29421 0.0
N451 N 0.27898 0.59759 0.17372 0.0
H452 H 0.37453 0.65689 0.12107 0.0
H453 H 0.3299 0.62731 0.10887 0.0
H454 H 0.25405 0.57893 0.18496 0.0
H455 H 0.27288 0.61391 0.14197 0.0
H456 H 0.41141 0.63058 0.33067 0.0
H457 H 0.43333 0.66151 0.28575 0.0
H458 H 0.38659 0.57052 0.33768 0.0
H459 H 0.33813 0.54658 0.3285 0.0
C460 C 0.89065 0.37545 0.69247 0.0
C461 C 0.85651 0.37919 0.72509 0.0
C462 C 0.88998 0.32948 0.78015 0.0
C463 C 0.92544 0.328 0.74938 0.0
N464 N 0.96278 0.35344 0.67993 0.0
N465 N 0.82907 0.3687 0.80529 0.0
C466 C 0.92681 0.35226 0.70661 0.0
C467 C 0.85764 0.35864 0.77042 0.0
N468 N 0.88781 0.39258 0.64739 0.0
N469 N 0.88671 0.30242 0.81822 0.0
H470 H 0.80633 0.39172 0.80051 0.0
H471 H 0.8309 0.35781 0.84065 0.0
H472 H 0.90993 0.28082 0.82723 0.0
H473 H 0.8594 0.29889 0.83838 0.0
H474 H 0.90967 0.38728 0.6202 0.0
H475 H 0.86185 0.40968 0.63581 0.0
H476 H 0.9674 0.37385 0.65113 0.0
H477 H 0.98932 0.33597 0.68886 0.0
C478 C 0.09391 0.9165 0.26625 0.0
C479 C 0.10073 0.87903 0.24001 0.0
C480 C 0.1748 0.89731 0.22989 0.0
C481 C 0.16935 0.93072 0.26301 0.0
N482 N 0.12429 0.97359 0.31221 0.0
N483 N 0.14796 0.83149 0.19948 0.0
C484 C 0.12891 0.94099 0.28067 0.0
C485 C 0.14109 0.86916 0.22165 0.0
N486 N 0.05388 0.92884 0.27659 0.0
N487 N 0.21235 0.89202 0.20699 0.0
H488 H 0.12436 0.80968 0.19303 0.0
H489 H 0.17761 0.82023 0.19074 0.0
H490 H 0.23804 0.91143 0.21283 0.0
H491 H 0.21694 0.87086 0.17891 0.0
H492 H 0.04632 0.95761 0.29192 0.0
H493 H 0.02769 0.91166 0.26588 0.0
H494 H 0.09684 0.97962 0.33124 0.0
H495 H 0.14878 0.99388 0.3208 0.0
C496 C 0.38431 0.60446 0.75083 0.0
C497 C 0.36273 0.60985 0.70641 0.0
C498 C 0.39997 0.67576 0.69206 0.0
C499 C 0.4212 0.67033 0.73651 0.0
N500 N 0.44309 0.62497 0.80097 0.0
N501 N 0.3576 0.64412 0.62921 0.0
C502 C 0.41665 0.6329 0.76327 0.0
C503 C 0.37317 0.64342 0.67513 0.0
N504 N 0.37182 0.57444 0.78292 0.0
N505 N 0.40344 0.71272 0.66753 0.0
H506 H 0.33815 0.62061 0.61581 0.0
H507 H 0.36699 0.66566 0.60319 0.0
H508 H 0.42359 0.73665 0.67826 0.0
H509 H 0.38467 0.72063 0.63818 0.0
H510 H 0.38338 0.57227 0.81796 0.0
H511 H 0.34724 0.5538 0.77638 0.0
H512 H 0.44399 0.59648 0.81924 0.0
H513 H 0.46706 0.64552 0.81069 0.0
C514 C 0.87403 0.40098 0.18791 0.0
C515 C 0.89776 0.37734 0.22156 0.0
C516 C 0.87197 0.42118 0.28782 0.0
C517 C 0.84859 0.4452 0.25404 0.0
N518 N 0.83464 0.46453 0.17168 0.0
N519 N 0.92648 0.36968 0.30168 0.0
C520 C 0.85192 0.43708 0.20391 0.0
C521 C 0.89935 0.38928 0.27084 0.0
N522 N 0.87196 0.38839 0.14084 0.0
N523 N 0.86577 0.42657 0.33625 0.0
H524 H 0.9453 0.34448 0.29159 0.0
H525 H 0.93273 0.3804 0.33641 0.0
H526 H 0.84616 0.44943 0.35064 0.0
H527 H 0.87755 0.40633 0.3624 0.0
H528 H 0.85126 0.40108 0.11577 0.0
H529 H 0.88957 0.36353 0.1273 0.0
H530 H 0.83917 0.46274 0.13456 0.0
H531 H 0.81884 0.4916 0.18245 0.0
C532 C 0.11083 0.82302 0.72014 0.0
C533 C 0.07848 0.82926 0.75448 0.0
C534 C 0.0957 0.90379 0.76029 0.0
C535 C 0.1309 0.89664 0.73012 0.0
N536 N 0.1674 0.85304 0.67273 0.0
N537 N 0.03304 0.87555 0.79837 0.0
C538 C 0.13669 0.85745 0.70678 0.0
C539 C 0.06858 0.86986 0.77157 0.0
N540 N 0.11817 0.78366 0.70262 0.0
N541 N 0.08895 0.94299 0.7786 0.0
H542 H 0.01242 0.85109 0.806 0.0
H543 H 0.02224 0.90441 0.81047 0.0
H544 H 0.10631 0.96891 0.76755 0.0
H545 H 0.06663 0.95021 0.8046 0.0
H546 H 0.14418 0.77525 0.68224 0.0
H547 H 0.09822 0.75854 0.70939 0.0
H548 H 0.17125 0.82662 0.65128 0.0
H549 H 0.18802 0.87696 0.66347 0.0
C550 C 0.62449 0.1419 0.26746 0.0
C551 C 0.60045 0.13231 0.22577 0.0
C552 C 0.63051 0.06134 0.22438 0.0
C553 C 0.65713 0.07257 0.26317 0.0
N554 N 0.68633 0.12623 0.31433 0.0
N555 N 0.58187 0.08408 0.16226 0.0
C556 C 0.65587 0.11351 0.28288 0.0
C557 C 0.60396 0.09235 0.20343 0.0
N558 N 0.61759 0.17809 0.2926 0.0
N559 N 0.62976 0.02076 0.20868 0.0
H560 H 0.55978 0.10471 0.14793 0.0
H561 H 0.58669 0.05767 0.14097 0.0
H562 H 0.64922 0.99759 0.22297 0.0
H563 H 0.60808 0.00926 0.184 0.0
H564 H 0.63058 0.18398 0.3264 0.0
H565 H 0.59621 0.20087 0.28212 0.0
H566 H 0.68999 0.15713 0.32555 0.0
H567 H 0.71087 0.10694 0.32527 0.0
C568 C 0.41659 0.86454 0.21045 0.0
C569 C 0.42016 0.82464 0.23247 0.0
C570 C 0.37009 0.84688 0.29448 0.0
C571 C 0.36053 0.88302 0.26682 0.0
N572 N 0.37071 0.92273 0.19327 0.0
N573 N 0.39555 0.77569 0.29311 0.0
C574 C 0.38301 0.89129 0.22363 0.0
C575 C 0.39606 0.81525 0.27428 0.0
N576 N 0.44548 0.87696 0.17703 0.0
N577 N 0.35509 0.8431 0.34045 0.0
H578 H 0.41328 0.75099 0.27962 0.0
H579 H 0.37458 0.76644 0.31986 0.0
H580 H 0.33704 0.86626 0.357 0.0
H581 H 0.36438 0.81925 0.36379 0.0
H582 H 0.44649 0.90721 0.16297 0.0
H583 H 0.47117 0.85846 0.16755 0.0
H584 H 0.3836 0.92701 0.15909 0.0
H585 H 0.34478 0.94176 0.19964 0.0
C586 C 0.62473 0.41315 0.72124 0.0
C587 C 0.66492 0.41444 0.74283 0.0
C588 C 0.64231 0.36216 0.80216 0.0
C589 C 0.60576 0.35495 0.77442 0.0
N590 N 0.56257 0.37215 0.70552 0.0
N591 N 0.71271 0.38977 0.80438 0.0
C592 C 0.59657 0.38056 0.73389 0.0
C593 C 0.67373 0.38947 0.78409 0.0
N594 N 0.61356 0.44336 0.68875 0.0
N595 N 0.64662 0.3433 0.84614 0.0
H596 H 0.73613 0.41049 0.79413 0.0
H597 H 0.72261 0.36791 0.82984 0.0
H598 H 0.62384 0.32353 0.86051 0.0
H599 H 0.67053 0.35045 0.87033 0.0
H600 H 0.58338 0.44648 0.67494 0.0
H601 H 0.63346 0.46803 0.6796 0.0
H602 H 0.55724 0.38665 0.67243 0.0
H603 H 0.54121 0.34837 0.71296 0.0
C604 C 0.08529 0.61589 0.29411 0.0
C605 C 0.12762 0.61685 0.27861 0.0
C606 C 0.11228 0.67535 0.22416 0.0
C607 C 0.06944 0.67304 0.23783 0.0
N608 N 0.01361 0.63896 0.28109 0.0
N609 N 0.18141 0.64372 0.22603 0.0
C610 C 0.05546 0.64258 0.2714 0.0
C611 C 0.14112 0.64554 0.24279 0.0
N612 N 0.07391 0.58994 0.33111 0.0
N613 N 0.12545 0.70644 0.19375 0.0
H614 H 0.2041 0.6239 0.2406 0.0
H615 H 0.19206 0.65999 0.19592 0.0
H616 H 0.10503 0.7271 0.17662 0.0
H617 H 0.15676 0.71338 0.18722 0.0
H618 H 0.04474 0.5907 0.3478 0.0
H619 H 0.09468 0.56906 0.34744 0.0
H620 H 0.00064 0.61466 0.30111 0.0
H621 H 0.99113 0.65905 0.26654 0.0
C622 C 0.91131 0.0777 0.75004 0.0
C623 C 0.90362 0.12136 0.75159 0.0
C624 C 0.8301 0.11007 0.73053 0.0
C625 C 0.8372 0.066 0.73069 0.0
N626 N 0.88173 0.00783 0.75222 0.0
N627 N 0.8546 0.17884 0.75418 0.0
C628 C 0.87705 0.04977 0.74385 0.0
C629 C 0.86257 0.13738 0.74571 0.0
N630 N 0.95141 0.06299 0.75374 0.0
N631 N 0.7936 0.12631 0.71265 0.0
H632 H 0.87782 0.20036 0.76337 0.0
H633 H 0.82446 0.19125 0.75615 0.0
H634 H 0.76892 0.10818 0.7001 0.0
H635 H 0.78908 0.1581 0.70607 0.0
H636 H 0.95969 0.03196 0.74719 0.0
H637 H 0.97697 0.08246 0.76058 0.0
H638 H 0.90894 0.99458 0.76625 0.0
H639 H 0.85695 0.98668 0.74974 0.0
C640 C 0.52711 0.21278 0.0262 0.0
C641 C 0.52096 0.24968 0.05381 0.0
C642 C 0.50957 0.2904 0.97996 0.0
C643 C 0.52089 0.2547 0.95247 0.0
N644 N 0.5422 0.18243 0.94786 0.0
N645 N 0.50666 0.3237 0.0586 0.0
C646 C 0.52982 0.2159 0.97514 0.0
C647 C 0.512 0.28851 0.03112 0.0
N648 N 0.53027 0.17483 0.0488 0.0
N649 N 0.49622 0.32595 0.95703 0.0
H650 H 0.50527 0.32298 0.09619 0.0
H651 H 0.50536 0.35389 0.04457 0.0
H652 H 0.49513 0.32879 0.91956 0.0
H653 H 0.4834 0.35167 0.97474 0.0
H654 H 0.53048 0.14628 0.0307 0.0
H655 H 0.52947 0.17143 0.08617 0.0
H656 H 0.55422 0.15479 0.96218 0.0
H657 H 0.5426 0.18309 0.91029 0.0
C658 C 0.19817 0.48527 0.48012 0.0
C659 C 0.2134 0.51514 0.44649 0.0
C660 C 0.25582 0.54729 0.51011 0.0
C661 C 0.23614 0.52124 0.54466 0.0
N662 N 0.18372 0.46945 0.56389 0.0
N663 N 0.25096 0.57968 0.43172 0.0
C664 C 0.20602 0.4912 0.53009 0.0
C665 C 0.24083 0.54749 0.462 0.0
N666 N 0.17772 0.45031 0.46428 0.0
N667 N 0.28975 0.57092 0.52286 0.0
H668 H 0.23955 0.58209 0.39671 0.0
H669 H 0.26717 0.60624 0.44295 0.0
H670 H 0.30236 0.57082 0.55757 0.0
H671 H 0.30799 0.58713 0.49792 0.0
H672 H 0.16967 0.42548 0.48683 0.0
H673 H 0.1727 0.44404 0.42787 0.0
H674 H 0.15815 0.45064 0.55534 0.0
H675 H 0.18835 0.47302 0.60089 0.0
C676 C 0.97959 0.29799 0.00601 0.0
C677 C 0.97992 0.2664 0.04201 0.0
C678 C 0.98468 0.21257 0.97921 0.0
C679 C 0.97726 0.24368 0.9438 0.0
N680 N 0.96436 0.3159 0.92298 0.0
N681 N 0.9792 0.1928 0.06308 0.0
C682 C 0.97425 0.28648 0.95693 0.0
C683 C 0.98207 0.22342 0.02878 0.0
N684 N 0.98552 0.33893 0.01871 0.0
N685 N 0.99502 0.17278 0.96534 0.0
H686 H 0.9777 0.19887 0.09989 0.0
H687 H 0.97515 0.16123 0.05488 0.0
H688 H 0.99752 0.16388 0.92923 0.0
H689 H 0.00511 0.14979 0.98935 0.0
H690 H 0.98961 0.36292 0.99371 0.0
H691 H 0.99068 0.34832 0.05427 0.0
H692 H 0.95677 0.34678 0.93138 0.0
H693 H 0.96066 0.30875 0.88658 0.0
C694 C 0.30667 0.01146 0.4866 0.0
C695 C 0.29263 0.98224 0.45172 0.0
C696 C 0.25038 0.94688 0.5129 0.0
C697 C 0.26797 0.97309 0.54893 0.0
N698 N 0.31901 0.02564 0.57109 0.0
N699 N 0.25921 0.91629 0.43382 0.0
C700 C 0.2978 0.0042 0.53613 0.0
C701 C 0.26681 0.94821 0.46547 0.0
N702 N 0.32719 0.0469 0.47237 0.0
N703 N 0.21664 0.92213 0.52324 0.0
H704 H 0.2721 0.91528 0.39926 0.0
H705 H 0.24394 0.88876 0.44365 0.0
H706 H 0.20212 0.9217 0.55694 0.0
H707 H 0.20019 0.90559 0.49696 0.0
H708 H 0.33401 0.07156 0.49567 0.0
H709 H 0.33411 0.05335 0.4364 0.0
H710 H 0.3443 0.04521 0.56374 0.0
H711 H 0.31406 0.02109 0.60782 0.0
C712 C 0.51137 0.78636 0.97889 0.0
C713 C 0.48904 0.76519 0.94195 0.0
C714 C 0.46601 0.71324 0.00114 0.0
C715 C 0.48178 0.73855 0.03897 0.0
N716 N 0.51251 0.80468 0.06332 0.0
N717 N 0.43624 0.71374 0.92145 0.0
C718 C 0.50278 0.7766 0.02786 0.0
C719 C 0.46404 0.72988 0.95388 0.0
N720 N 0.54171 0.8148 0.96746 0.0
N721 N 0.45367 0.673 0.00993 0.0
H722 H 0.43065 0.72733 0.88801 0.0
H723 H 0.41492 0.69025 0.93025 0.0
H724 H 0.45652 0.65887 0.04371 0.0
H725 H 0.44533 0.65232 0.98247 0.0
H726 H 0.56133 0.8282 0.99322 0.0
H727 H 0.5505 0.82125 0.93203 0.0
H728 H 0.52404 0.83452 0.05595 0.0
H729 H 0.50495 0.80029 0.0995 0.0
C730 C 0.78013 0.4601 0.50949 0.0
C731 C 0.75211 0.4724 0.5466 0.0
C732 C 0.70372 0.49982 0.48561 0.0
C733 C 0.72899 0.48209 0.44883 0.0
N734 N 0.78646 0.43635 0.42718 0.0
N735 N 0.68282 0.49631 0.56926 0.0
C736 C 0.76598 0.45978 0.46106 0.0
C737 C 0.71267 0.49033 0.53459 0.0
N738 N 0.82073 0.45009 0.52012 0.0
N739 N 0.67192 0.52667 0.47399 0.0
H740 H 0.6871 0.48821 0.60532 0.0
H741 H 0.65219 0.50524 0.56131 0.0
H742 H 0.66507 0.53529 0.43856 0.0
H743 H 0.65525 0.54366 0.49973 0.0
H744 H 0.8433 0.44471 0.49365 0.0
H745 H 0.83303 0.4518 0.55492 0.0
H746 H 0.81119 0.41633 0.43566 0.0
H747 H 0.77599 0.43322 0.39174 0.0
C748 C 0.01419 0.78717 0.01211 0.0
C749 C 0.02953 0.75816 0.04651 0.0
C750 C 0.03786 0.7053 0.98339 0.0
C751 C 0.02844 0.73608 0.94807 0.0
N752 N 0.01261 0.80824 0.92832 0.0
N753 N 0.05979 0.69087 0.06536 0.0
C754 C 0.01739 0.77747 0.9622 0.0
C755 C 0.04245 0.71753 0.03231 0.0
N756 N 0.9968 0.8241 0.02709 0.0
N757 N 0.04081 0.66408 0.9704 0.0
H758 H 0.06234 0.69813 0.10191 0.0
H759 H 0.0743 0.66279 0.05603 0.0
H760 H 0.03605 0.65372 0.93514 0.0
H761 H 0.0436 0.63974 0.9952 0.0
H762 H 0.98084 0.84439 0.0041 0.0
H763 H 0.99527 0.83292 0.06328 0.0
H764 H 0.00955 0.83984 0.93687 0.0
H765 H 0.0152 0.80303 0.89138 0.0
C766 C 0.77336 0.99698 0.52942 0.0
C767 C 0.74477 0.02623 0.54954 0.0
C768 C 0.73256 0.05723 0.47004 0.0
C769 C 0.76116 0.02808 0.44971 0.0
N770 N 0.80355 0.96586 0.45743 0.0
N771 N 0.68963 0.0768 0.53865 0.0
C772 C 0.77965 0.99632 0.47858 0.0
C773 C 0.7221 0.05418 0.51967 0.0
N774 N 0.79609 0.97142 0.55915 0.0
N775 N 0.71591 0.0883 0.44203 0.0
H776 H 0.68068 0.07455 0.57476 0.0
H777 H 0.66904 0.09467 0.51805 0.0
H778 H 0.72079 0.09008 0.40498 0.0
H779 H 0.69917 0.11363 0.45574 0.0
H780 H 0.82114 0.95312 0.54761 0.0
H781 H 0.79145 0.97011 0.59632 0.0
H782 H 0.81401 0.93921 0.47539 0.0
H783 H 0.81088 0.96578 0.4208 0.0
loop_
_geom_bond_atom_site_label_1
_geom_bond_atom_site_label_2
_geom_bond_distance
_geom_bond_site_symmetry_2
_ccdc_geom_bond_type
C0 O1 1.160 . S
C0 O7 1.185 . S
O1 C0 1.160 . S
O2 Zn3 1.899 . S
O2 C10 1.284 . S
Zn3 O2 1.899 . S
Zn3 O4 2.032 . S
Zn3 O7 2.086 . S
Zn3 O12 1.977 . S
O4 Zn3 2.032 . S
O4 C8 1.278 . S
C5 O6 1.203 . S
C5 O12 1.267 . S
O6 C5 1.203 . S
O7 C0 1.185 . S
O7 Zn3 2.086 . S
C8 O4 1.278 . S
C8 O9 1.211 . S
O9 C8 1.211 . S
C10 O2 1.284 . S
C10 O11 1.273 . S
O11 C10 1.273 . S
O12 Zn3 1.977 . S
O12 C5 1.267 . S
C13 O14 1.160 . S
C13 O20 1.185 . S
O14 C13 1.160 . S
O15 Zn16 1.899 . S
O15 C23 1.284 . S
Zn16 O15 1.899 . S
Zn16 O17 2.032 . S
Zn16 O20 2.086 . S
Zn16 O25 1.977 . S
O17 Zn16 2.032 . S
O17 C21 1.278 . S
C18 O19 1.203 . S
C18 O25 1.267 . S
O19 C18 1.203 . S
O20 C13 1.185 . S
O20 Zn16 2.086 . S
C21 O17 1.278 . S
C21 O22 1.211 . S
O22 C21 1.211 . S
C23 O15 1.284 . S
C23 O24 1.273 . S
O24 C23 1.273 . S
O25 Zn16 1.977 . S
O25 C18 1.267 . S
C26 O27 1.160 . S
C26 O33 1.185 . S
O27 C26 1.160 . S
O28 Zn29 1.899 . S
O28 C36 1.284 . S
Zn29 O28 1.899 . S
Zn29 O30 2.032 . S
Zn29 O33 2.086 1_655 S
Zn29 O38 1.977 . S
O30 Zn29 2.032 . S
O30 C34 1.278 . S
C31 O32 1.203 . S
C31 O38 1.267 . S
O32 C31 1.203 . S
O33 C26 1.185 . S
O33 Zn29 2.086 1_455 S
C34 O30 1.278 . S
C34 O35 1.211 . S
O35 C34 1.211 . S
C36 O28 1.284 . S
C36 O37 1.273 . S
O37 C36 1.273 . S
O38 Zn29 1.977 . S
O38 C31 1.267 . S
C39 O40 1.160 . S
C39 O46 1.185 . S
O40 C39 1.160 . S
O41 Zn42 1.899 . S
O41 C49 1.284 . S
Zn42 O41 1.899 . S
Zn42 O43 2.032 . S
Zn42 O46 2.086 1_565 S
Zn42 O51 1.977 . S
O43 Zn42 2.032 . S
O43 C47 1.278 . S
C44 O45 1.203 . S
C44 O51 1.267 . S
O45 C44 1.203 . S
O46 C39 1.185 . S
O46 Zn42 2.086 1_545 S
C47 O43 1.278 . S
C47 O48 1.211 . S
O48 C47 1.211 . S
C49 O41 1.284 . S
C49 O50 1.273 . S
O50 C49 1.273 . S
O51 Zn42 1.977 . S
O51 C44 1.267 . S
C52 O53 1.160 . S
C52 O59 1.185 . S
O53 C52 1.160 . S
O54 Zn55 1.899 . S
O54 C62 1.284 . S
Zn55 O54 1.899 . S
Zn55 O56 2.032 . S
Zn55 O59 2.086 . S
Zn55 O64 1.977 . S
O56 Zn55 2.032 . S
O56 C60 1.278 . S
C57 O58 1.203 . S
C57 O64 1.267 . S
O58 C57 1.203 . S
O59 C52 1.185 . S
O59 Zn55 2.086 . S
C60 O56 1.278 . S
C60 O61 1.211 . S
O61 C60 1.211 . S
C62 O54 1.284 . S
C62 O63 1.273 . S
O63 C62 1.273 . S
O64 Zn55 1.977 . S
O64 C57 1.267 . S
C65 O66 1.160 . S
C65 O72 1.185 . S
O66 C65 1.160 . S
O67 Zn68 1.899 . S
O67 C75 1.284 . S
Zn68 O67 1.899 . S
Zn68 O69 2.032 . S
Zn68 O72 2.086 . S
Zn68 O77 1.977 . S
O69 Zn68 2.032 . S
O69 C73 1.278 . S
C70 O71 1.203 . S
C70 O77 1.267 . S
O71 C70 1.203 . S
O72 C65 1.185 . S
O72 Zn68 2.086 . S
C73 O69 1.278 . S
C73 O74 1.211 . S
O74 C73 1.211 . S
C75 O67 1.284 . S
C75 O76 1.273 . S
O76 C75 1.273 . S
O77 Zn68 1.977 . S
O77 C70 1.267 . S
C78 O79 1.160 . S
C78 O85 1.185 . S
O79 C78 1.160 . S
O80 Zn81 1.899 . S
O80 C88 1.284 . S
Zn81 O80 1.899 . S
Zn81 O82 2.032 . S
Zn81 O85 2.086 1_655 S
Zn81 O90 1.977 . S
O82 Zn81 2.032 . S
O82 C86 1.278 . S
C83 O84 1.203 . S
C83 O90 1.267 . S
O84 C83 1.203 . S
O85 C78 1.185 . S
O85 Zn81 2.086 1_455 S
C86 O82 1.278 . S
C86 O87 1.211 . S
O87 C86 1.211 . S
C88 O80 1.284 . S
C88 O89 1.273 . S
O89 C88 1.273 . S
O90 Zn81 1.977 . S
O90 C83 1.267 . S
C91 O92 1.160 . S
C91 O98 1.185 . S
O92 C91 1.160 . S
O93 Zn94 1.899 . S
O93 C101 1.284 . S
Zn94 O93 1.899 . S
Zn94 O95 2.032 . S
Zn94 O98 2.086 1_565 S
Zn94 O103 1.977 . S
O95 Zn94 2.032 . S
O95 C99 1.278 . S
C96 O97 1.203 . S
C96 O103 1.267 . S
O97 C96 1.203 . S
O98 C91 1.185 . S
O98 Zn94 2.086 1_545 S
C99 O95 1.278 . S
C99 O100 1.211 . S
O100 C99 1.211 . S
C101 O93 1.284 . S
C101 O102 1.273 . S
O102 C101 1.273 . S
O103 Zn94 1.977 . S
O103 C96 1.267 . S
C104 O105 1.160 . S
C104 O111 1.185 . S
O105 C104 1.160 . S
O106 Zn107 1.899 . S
O106 C114 1.284 . S
Zn107 O106 1.899 . S
Zn107 O108 2.032 . S
Zn107 O111 2.086 . S
Zn107 O116 1.977 . S
O108 Zn107 2.032 . S
O108 C112 1.278 . S
C109 O110 1.203 . S
C109 O116 1.267 . S
O110 C109 1.203 . S
O111 C104 1.185 . S
O111 Zn107 2.086 . S
C112 O108 1.278 . S
C112 O113 1.211 . S
O113 C112 1.211 . S
C114 O106 1.284 . S
C114 O115 1.273 . S
O115 C114 1.273 . S
O116 Zn107 1.977 . S
O116 C109 1.267 . S
C117 O118 1.160 . S
C117 O124 1.185 . S
O118 C117 1.160 . S
O119 Zn120 1.899 . S
O119 C127 1.284 . S
Zn120 O119 1.899 . S
Zn120 O121 2.032 . S
Zn120 O124 2.086 . S
Zn120 O129 1.977 . S
O121 Zn120 2.032 . S
O121 C125 1.278 . S
C122 O123 1.203 . S
C122 O129 1.267 . S
O123 C122 1.203 . S
O124 C117 1.185 . S
O124 Zn120 2.086 . S
C125 O121 1.278 . S
C125 O126 1.211 . S
O126 C125 1.211 . S
C127 O119 1.284 . S
C127 O128 1.273 . S
O128 C127 1.273 . S
O129 Zn120 1.977 . S
O129 C122 1.267 . S
C130 O131 1.160 . S
C130 O137 1.185 . S
O131 C130 1.160 . S
O132 Zn133 1.899 . S
O132 C140 1.284 . S
Zn133 O132 1.899 . S
Zn133 O134 2.032 . S
Zn133 O137 2.086 1_455 S
Zn133 O142 1.977 . S
O134 Zn133 2.032 . S
O134 C138 1.278 . S
C135 O136 1.203 . S
C135 O142 1.267 . S
O136 C135 1.203 . S
O137 C130 1.185 . S
O137 Zn133 2.086 1_655 S
C138 O134 1.278 . S
C138 O139 1.211 . S
O139 C138 1.211 . S
C140 O132 1.284 . S
C140 O141 1.273 . S
O141 C140 1.273 . S
O142 Zn133 1.977 . S
O142 C135 1.267 . S
C143 O144 1.160 . S
C143 O150 1.185 . S
O144 C143 1.160 . S
O145 Zn146 1.899 . S
O145 C153 1.284 . S
Zn146 O145 1.899 . S
Zn146 O147 2.032 . S
Zn146 O150 2.086 1_545 S
Zn146 O155 1.977 . S
O147 Zn146 2.032 . S
O147 C151 1.278 . S
C148 O149 1.203 . S
C148 O155 1.267 . S
O149 C148 1.203 . S
O150 C143 1.185 . S
O150 Zn146 2.086 1_565 S
C151 O147 1.278 . S
C151 O152 1.211 . S
O152 C151 1.211 . S
C153 O145 1.284 . S
C153 O154 1.273 . S
O154 C153 1.273 . S
O155 Zn146 1.977 . S
O155 C148 1.267 . S
C156 O157 1.160 . S
C156 O163 1.185 . S
O157 C156 1.160 . S
O158 Zn159 1.899 . S
O158 C166 1.284 . S
Zn159 O158 1.899 . S
Zn159 O160 2.032 . S
Zn159 O163 2.086 . S
Zn159 O168 1.977 . S
O160 Zn159 2.032 . S
O160 C164 1.278 . S
C161 O162 1.203 . S
C161 O168 1.267 . S
O162 C161 1.203 . S
O163 C156 1.185 . S
O163 Zn159 2.086 . S
C164 O160 1.278 . S
C164 O165 1.211 . S
O165 C164 1.211 . S
C166 O158 1.284 . S
C166 O167 1.273 . S
O167 C166 1.273 . S
O168 Zn159 1.977 . S
O168 C161 1.267 . S
C169 O170 1.160 . S
C169 O176 1.185 . S
O170 C169 1.160 . S
O171 Zn172 1.899 . S
O171 C179 1.284 . S
Zn172 O171 1.899 . S
Zn172 O173 2.032 . S
Zn172 O176 2.086 . S
Zn172 O181 1.977 . S
O173 Zn172 2.032 . S
O173 C177 1.278 . S
C174 O175 1.203 . S
C174 O181 1.267 . S
O175 C174 1.203 . S
O176 C169 1.185 . S
O176 Zn172 2.086 . S
C177 O173 1.278 . S
C177 O178 1.211 . S
O178 C177 1.211 . S
C179 O171 1.284 . S
C179 O180 1.273 . S
O180 C179 1.273 . S
O181 Zn172 1.977 . S
O181 C174 1.267 . S
C182 O183 1.160 . S
C182 O189 1.185 . S
O183 C182 1.160 . S
O184 Zn185 1.899 . S
O184 C192 1.284 . S
Zn185 O184 1.899 . S
Zn185 O186 2.032 . S
Zn185 O189 2.086 1_455 S
Zn185 O194 1.977 . S
O186 Zn185 2.032 . S
O186 C190 1.278 . S
C187 O188 1.203 . S
C187 O194 1.267 . S
O188 C187 1.203 . S
O189 C182 1.185 . S
O189 Zn185 2.086 1_655 S
C190 O186 1.278 . S
C190 O191 1.211 . S
O191 C190 1.211 . S
C192 O184 1.284 . S
C192 O193 1.273 . S
O193 C192 1.273 . S
O194 Zn185 1.977 . S
O194 C187 1.267 . S
C195 O196 1.160 . S
C195 O202 1.185 . S
O196 C195 1.160 . S
O197 Zn198 1.899 . S
O197 C205 1.284 . S
Zn198 O197 1.899 . S
Zn198 O199 2.032 . S
Zn198 O202 2.086 1_545 S
Zn198 O207 1.977 . S
O199 Zn198 2.032 . S
O199 C203 1.278 . S
C200 O201 1.203 . S
C200 O207 1.267 . S
O201 C200 1.203 . S
O202 C195 1.185 . S
O202 Zn198 2.086 1_565 S
C203 O199 1.278 . S
C203 O204 1.211 . S
O204 C203 1.211 . S
C205 O197 1.284 . S
C205 O206 1.273 . S
O206 C205 1.273 . S
O207 Zn198 1.977 . S
O207 C200 1.267 . S
C208 C209 1.363 . S
C208 C214 1.379 . S
C208 N216 1.356 . S
C209 C208 1.363 . S
C209 C215 1.363 . S
C210 C211 1.363 . S
C210 C215 1.379 . S
C210 N217 1.356 . S
C211 C210 1.363 . S
C211 C214 1.363 . S
N212 C214 1.356 . S
N212 H224 0.984 . S
N212 H225 0.985 . S
N213 C215 1.356 . S
N213 H218 0.984 . S
N213 H219 0.985 . S
C214 C208 1.379 . S
C214 C211 1.363 . S
C214 N212 1.356 . S
C215 C209 1.363 . S
C215 C210 1.379 . S
C215 N213 1.356 . S
N216 C208 1.356 . S
N216 H222 0.984 . S
N216 H223 0.984 . S
N217 C210 1.356 . S
N217 H220 0.984 . S
N217 H221 0.985 . S
H218 N213 0.984 . S
H219 N213 0.985 . S
H220 N217 0.984 . S
H221 N217 0.985 . S
H222 N216 0.984 . S
H223 N216 0.984 . S
H224 N212 0.984 . S
H225 N212 0.985 . S
C226 C227 1.363 . S
C226 C232 1.379 . S
C226 N234 1.356 . S
C227 C226 1.363 . S
C227 C233 1.363 . S
C228 C229 1.363 . S
C228 C233 1.379 . S
C228 N235 1.356 . S
C229 C228 1.363 . S
C229 C232 1.363 . S
N230 C232 1.356 . S
N230 H242 0.984 . S
N230 H243 0.985 . S
N231 C233 1.356 . S
N231 H236 0.984 . S
N231 H237 0.985 . S
C232 C226 1.379 . S
C232 C229 1.363 . S
C232 N230 1.356 . S
C233 C227 1.363 . S
C233 C228 1.379 . S
C233 N231 1.356 . S
N234 C226 1.356 . S
N234 H240 0.984 . S
N234 H241 0.984 . S
N235 C228 1.356 . S
N235 H238 0.984 . S
N235 H239 0.985 . S
H236 N231 0.984 . S
H237 N231 0.985 . S
H238 N235 0.984 . S
H239 N235 0.985 . S
H240 N234 0.984 . S
H241 N234 0.984 . S
H242 N230 0.984 . S
H243 N230 0.985 . S
C244 C245 1.363 . S
C244 C250 1.379 . S
C244 N252 1.356 . S
C245 C244 1.363 . S
C245 C251 1.363 . S
C246 C247 1.363 . S
C246 C251 1.379 . S
C246 N253 1.356 . S
C247 C246 1.363 . S
C247 C250 1.363 . S
N248 C250 1.356 . S
N248 H260 0.984 . S
N248 H261 0.985 . S
N249 C251 1.356 . S
N249 H254 0.984 . S
N249 H255 0.985 . S
C250 C244 1.379 . S
C250 C247 1.363 . S
C250 N248 1.356 . S
C251 C245 1.363 . S
C251 C246 1.379 . S
C251 N249 1.356 . S
N252 C244 1.356 . S
N252 H258 0.984 . S
N252 H259 0.984 . S
N253 C246 1.356 . S
N253 H256 0.984 . S
N253 H257 0.985 . S
H254 N249 0.984 . S
H255 N249 0.985 . S
H256 N253 0.984 . S
H257 N253 0.985 . S
H258 N252 0.984 . S
H259 N252 0.984 . S
H260 N248 0.984 . S
H261 N248 0.985 . S
C262 C263 1.363 . S
C262 C268 1.379 . S
C262 N270 1.356 . S
C263 C262 1.363 . S
C263 C269 1.363 . S
C264 C265 1.363 . S
C264 C269 1.379 . S
C264 N271 1.356 . S
C265 C264 1.363 . S
C265 C268 1.363 . S
N266 C268 1.356 . S
N266 H278 0.984 . S
N266 H279 0.985 . S
N267 C269 1.356 . S
N267 H272 0.984 . S
N267 H273 0.985 . S
C268 C262 1.379 . S
C268 C265 1.363 . S
C268 N266 1.356 . S
C269 C263 1.363 . S
C269 C264 1.379 . S
C269 N267 1.356 . S
N270 C262 1.356 . S
N270 H276 0.984 . S
N270 H277 0.984 . S
N271 C264 1.356 . S
N271 H274 0.984 . S
N271 H275 0.985 . S
H272 N267 0.984 . S
H273 N267 0.985 . S
H274 N271 0.984 . S
H275 N271 0.985 . S
H276 N270 0.984 . S
H277 N270 0.984 . S
H278 N266 0.984 . S
H279 N266 0.985 . S
C280 C281 1.363 . S
C280 C286 1.379 . S
C280 N288 1.356 . S
C281 C280 1.363 . S
C281 C287 1.363 . S
C282 C283 1.363 . S
C282 C287 1.379 . S
C282 N289 1.356 . S
C283 C282 1.363 . S
C283 C286 1.363 . S
N284 C286 1.356 . S
N284 H296 0.984 . S
N284 H297 0.985 . S
N285 C287 1.356 . S
N285 H290 0.984 . S
N285 H291 0.985 . S
C286 C280 1.379 . S
C286 C283 1.363 . S
C286 N284 1.356 . S
C287 C281 1.363 . S
C287 C282 1.379 . S
C287 N285 1.356 . S
N288 C280 1.356 . S
N288 H294 0.984 . S
N288 H295 0.984 . S
N289 C282 1.356 . S
N289 H292 0.984 . S
N289 H293 0.985 . S
H290 N285 0.984 . S
H291 N285 0.985 . S
H292 N289 0.984 . S
H293 N289 0.985 . S
H294 N288 0.984 . S
H295 N288 0.984 . S
H296 N284 0.984 . S
H297 N284 0.985 . S
C298 C299 1.363 . S
C298 C304 1.379 . S
C298 N306 1.356 . S
C299 C298 1.363 . S
C299 C305 1.363 . S
C300 C301 1.363 . S
C300 C305 1.379 . S
C300 N307 1.356 . S
C301 C300 1.363 . S
C301 C304 1.363 . S
N302 C304 1.356 . S
N302 H314 0.984 . S
N302 H315 0.985 . S
N303 C305 1.356 . S
N303 H308 0.984 . S
N303 H309 0.985 . S
C304 C298 1.379 . S
C304 C301 1.363 . S
C304 N302 1.356 . S
C305 C299 1.363 . S
C305 C300 1.379 . S
C305 N303 1.356 . S
N306 C298 1.356 . S
N306 H312 0.984 . S
N306 H313 0.984 . S
N307 C300 1.356 . S
N307 H310 0.984 . S
N307 H311 0.985 . S
H308 N303 0.984 . S
H309 N303 0.985 . S
H310 N307 0.984 . S
H311 N307 0.985 . S
H312 N306 0.984 . S
H313 N306 0.984 . S
H314 N302 0.984 . S
H315 N302 0.985 . S
C316 C317 1.363 . S
C316 C322 1.379 . S
C316 N324 1.356 . S
C317 C316 1.363 . S
C317 C323 1.363 . S
C318 C319 1.363 . S
C318 C323 1.379 . S
C318 N325 1.356 . S
C319 C318 1.363 . S
C319 C322 1.363 . S
N320 C322 1.356 . S
N320 H332 0.984 . S
N320 H333 0.985 . S
N321 C323 1.356 . S
N321 H326 0.984 . S
N321 H327 0.985 . S
C322 C316 1.379 . S
C322 C319 1.363 . S
C322 N320 1.356 . S
C323 C317 1.363 . S
C323 C318 1.379 . S
C323 N321 1.356 . S
N324 C316 1.356 . S
N324 H330 0.984 . S
N324 H331 0.984 . S
N325 C318 1.356 . S
N325 H328 0.984 . S
N325 H329 0.985 . S
H326 N321 0.984 . S
H327 N321 0.985 . S
H328 N325 0.984 . S
H329 N325 0.985 . S
H330 N324 0.984 . S
H331 N324 0.984 . S
H332 N320 0.984 . S
H333 N320 0.985 . S
C334 C335 1.363 . S
C334 C340 1.379 . S
C334 N342 1.356 . S
C335 C334 1.363 . S
C335 C341 1.363 . S
C336 C337 1.363 . S
C336 C341 1.379 . S
C336 N343 1.356 . S
C337 C336 1.363 . S
C337 C340 1.363 . S
N338 C340 1.356 . S
N338 H350 0.984 . S
N338 H351 0.985 . S
N339 C341 1.356 . S
N339 H344 0.984 . S
N339 H345 0.985 . S
C340 C334 1.379 . S
C340 C337 1.363 . S
C340 N338 1.356 . S
C341 C335 1.363 . S
C341 C336 1.379 . S
C341 N339 1.356 . S
N342 C334 1.356 . S
N342 H348 0.984 . S
N342 H349 0.984 . S
N343 C336 1.356 . S
N343 H346 0.984 . S
N343 H347 0.985 . S
H344 N339 0.984 . S
H345 N339 0.985 . S
H346 N343 0.984 . S
H347 N343 0.985 . S
H348 N342 0.984 . S
H349 N342 0.984 . S
H350 N338 0.984 . S
H351 N338 0.985 . S
C352 C353 1.363 . S
C352 C358 1.379 . S
C352 N360 1.356 . S
C353 C352 1.363 . S
C353 C359 1.363 . S
C354 C355 1.363 . S
C354 C359 1.379 . S
C354 N361 1.356 . S
C355 C354 1.363 . S
C355 C358 1.363 . S
N356 C358 1.356 . S
N356 H368 0.984 . S
N356 H369 0.985 . S
N357 C359 1.356 . S
N357 H362 0.984 . S
N357 H363 0.985 . S
C358 C352 1.379 . S
C358 C355 1.363 . S
C358 N356 1.356 . S
C359 C353 1.363 . S
C359 C354 1.379 . S
C359 N357 1.356 . S
N360 C352 1.356 . S
N360 H366 0.984 . S
N360 H367 0.984 . S
N361 C354 1.356 . S
N361 H364 0.984 . S
N361 H365 0.985 . S
H362 N357 0.984 . S
H363 N357 0.985 . S
H364 N361 0.984 . S
H365 N361 0.985 . S
H366 N360 0.984 . S
H367 N360 0.984 . S
H368 N356 0.984 . S
H369 N356 0.985 . S
C370 C371 1.363 . S
C370 C376 1.379 . S
C370 N378 1.356 . S
C371 C370 1.363 . S
C371 C377 1.363 . S
C372 C373 1.363 . S
C372 C377 1.379 . S
C372 N379 1.356 . S
C373 C372 1.363 . S
C373 C376 1.363 . S
N374 C376 1.356 . S
N374 H386 0.984 . S
N374 H387 0.985 . S
N375 C377 1.356 . S
N375 H380 0.984 . S
N375 H381 0.985 . S
C376 C370 1.379 . S
C376 C373 1.363 . S
C376 N374 1.356 . S
C377 C371 1.363 . S
C377 C372 1.379 . S
C377 N375 1.356 . S
N378 C370 1.356 . S
N378 H384 0.984 . S
N378 H385 0.984 . S
N379 C372 1.356 . S
N379 H382 0.984 . S
N379 H383 0.985 . S
H380 N375 0.984 . S
H381 N375 0.985 . S
H382 N379 0.984 . S
H383 N379 0.985 . S
H384 N378 0.984 . S
H385 N378 0.984 . S
H386 N374 0.984 . S
H387 N374 0.985 . S
C388 C389 1.363 . S
C388 C394 1.379 . S
C388 N396 1.356 . S
C389 C388 1.363 . S
C389 C395 1.363 . S
C390 C391 1.363 . S
C390 C395 1.379 . S
C390 N397 1.356 . S
C391 C390 1.363 . S
C391 C394 1.363 . S
N392 C394 1.356 . S
N392 H404 0.984 . S
N392 H405 0.985 . S
N393 C395 1.356 . S
N393 H398 0.984 . S
N393 H399 0.985 . S
C394 C388 1.379 . S
C394 C391 1.363 . S
C394 N392 1.356 . S
C395 C389 1.363 . S
C395 C390 1.379 . S
C395 N393 1.356 . S
N396 C388 1.356 . S
N396 H402 0.984 . S
N396 H403 0.984 . S
N397 C390 1.356 . S
N397 H400 0.984 . S
N397 H401 0.985 . S
H398 N393 0.984 . S
H399 N393 0.985 . S
H400 N397 0.984 . S
H401 N397 0.985 . S
H402 N396 0.984 . S
H403 N396 0.984 . S
H404 N392 0.984 . S
H405 N392 0.985 . S
C406 C407 1.363 . S
C406 C412 1.379 . S
C406 N414 1.356 . S
C407 C406 1.363 . S
C407 C413 1.363 . S
C408 C409 1.363 . S
C408 C413 1.379 . S
C408 N415 1.356 . S
C409 C408 1.363 . S
C409 C412 1.363 . S
N410 C412 1.356 . S
N410 H422 0.984 . S
N410 H423 0.985 . S
N411 C413 1.356 . S
N411 H416 0.984 . S
N411 H417 0.985 . S
C412 C406 1.379 . S
C412 C409 1.363 . S
C412 N410 1.356 . S
C413 C407 1.363 . S
C413 C408 1.379 . S
C413 N411 1.356 . S
N414 C406 1.356 . S
N414 H420 0.972 1_565 S
N414 H421 0.984 . S
N415 C408 1.356 . S
N415 H418 0.984 . S
N415 H419 0.985 . S
H416 N411 0.984 . S
H417 N411 0.985 . S
H418 N415 0.984 . S
H419 N415 0.985 . S
H420 N414 0.972 1_545 S
H421 N414 0.984 . S
H422 N410 0.984 . S
H423 N410 0.985 . S
C424 C425 1.363 . S
C424 C430 1.379 . S
C424 N432 1.356 . S
C425 C424 1.363 . S
C425 C431 1.363 . S
C426 C427 1.363 . S
C426 C431 1.379 . S
C426 N433 1.356 . S
C427 C426 1.363 . S
C427 C430 1.363 . S
N428 C430 1.356 . S
N428 H440 0.984 . S
N428 H441 0.985 . S
N429 C431 1.356 . S
N429 H434 0.984 . S
N429 H435 0.985 . S
C430 C424 1.379 . S
C430 C427 1.363 . S
C430 N428 1.356 . S
C431 C425 1.363 . S
C431 C426 1.379 . S
C431 N429 1.356 . S
N432 C424 1.356 . S
N432 H438 0.984 . S
N432 H439 0.984 . S
N433 C426 1.356 . S
N433 H436 0.984 . S
N433 H437 0.985 . S
H434 N429 0.984 . S
H435 N429 0.985 . S
H436 N433 0.984 . S
H437 N433 0.985 . S
H438 N432 0.984 . S
H439 N432 0.984 . S
H440 N428 0.984 . S
H441 N428 0.985 . S
C442 C443 1.363 . S
C442 C448 1.379 . S
C442 N450 1.356 . S
C443 C442 1.363 . S
C443 C449 1.363 . S
C444 C445 1.363 . S
C444 C449 1.379 . S
C444 N451 1.356 . S
C445 C444 1.363 . S
C445 C448 1.363 . S
N446 C448 1.356 . S
N446 H458 0.984 . S
N446 H459 0.985 . S
N447 C449 1.356 . S
N447 H452 0.984 . S
N447 H453 0.985 . S
C448 C442 1.379 . S
C448 C445 1.363 . S
C448 N446 1.356 . S
C449 C443 1.363 . S
C449 C444 1.379 . S
C449 N447 1.356 . S
N450 C442 1.356 . S
N450 H456 0.984 . S
N450 H457 0.984 . S
N451 C444 1.356 . S
N451 H454 0.984 . S
N451 H455 0.985 . S
H452 N447 0.984 . S
H453 N447 0.985 . S
H454 N451 0.984 . S
H455 N451 0.985 . S
H456 N450 0.984 . S
H457 N450 0.984 . S
H458 N446 0.984 . S
H459 N446 0.985 . S
C460 C461 1.363 . S
C460 C466 1.379 . S
C460 N468 1.356 . S
C461 C460 1.363 . S
C461 C467 1.363 . S
C462 C463 1.363 . S
C462 C467 1.379 . S
C462 N469 1.356 . S
C463 C462 1.363 . S
C463 C466 1.363 . S
N464 C466 1.356 . S
N464 H476 0.984 . S
N464 H477 0.985 . S
N465 C467 1.356 . S
N465 H470 0.984 . S
N465 H471 0.985 . S
C466 C460 1.379 . S
C466 C463 1.363 . S
C466 N464 1.356 . S
C467 C461 1.363 . S
C467 C462 1.379 . S
C467 N465 1.356 . S
N468 C460 1.356 . S
N468 H474 0.984 . S
N468 H475 0.984 . S
N469 C462 1.356 . S
N469 H472 0.984 . S
N469 H473 0.985 . S
H470 N465 0.984 . S
H471 N465 0.985 . S
H472 N469 0.984 . S
H473 N469 0.985 . S
H474 N468 0.984 . S
H475 N468 0.984 . S
H476 N464 0.984 . S
H477 N464 0.985 . S
C478 C479 1.363 . S
C478 C484 1.379 . S
C478 N486 1.356 . S
C479 C478 1.363 . S
C479 C485 1.363 . S
C480 C481 1.363 . S
C480 C485 1.379 . S
C480 N487 1.356 . S
C481 C480 1.363 . S
C481 C484 1.363 . S
N482 C484 1.356 . S
N482 H494 0.984 . S
N482 H495 0.985 . S
N483 C485 1.356 . S
N483 H488 0.984 . S
N483 H489 0.985 . S
C484 C478 1.379 . S
C484 C481 1.363 . S
C484 N482 1.356 . S
C485 C479 1.363 . S
C485 C480 1.379 . S
C485 N483 1.356 . S
N486 C478 1.356 . S
N486 H492 0.984 . S
N486 H493 0.984 . S
N487 C480 1.356 . S
N487 H490 0.984 . S
N487 H491 0.985 . S
H488 N483 0.984 . S
H489 N483 0.985 . S
H490 N487 0.984 . S
H491 N487 0.985 . S
H492 N486 0.984 . S
H493 N486 0.984 . S
H494 N482 0.984 . S
H495 N482 0.985 . S
C496 C497 1.363 . S
C496 C502 1.379 . S
C496 N504 1.356 . S
C497 C496 1.363 . S
C497 C503 1.363 . S
C498 C499 1.363 . S
C498 C503 1.379 . S
C498 N505 1.356 . S
C499 C498 1.363 . S
C499 C502 1.363 . S
N500 C502 1.356 . S
N500 H512 0.984 . S
N500 H513 0.985 . S
N501 C503 1.356 . S
N501 H506 0.984 . S
N501 H507 0.985 . S
C502 C496 1.379 . S
C502 C499 1.363 . S
C502 N500 1.356 . S
C503 C497 1.363 . S
C503 C498 1.379 . S
C503 N501 1.356 . S
N504 C496 1.356 . S
N504 H510 0.984 . S
N504 H511 0.984 . S
N505 C498 1.356 . S
N505 H508 0.984 . S
N505 H509 0.985 . S
H506 N501 0.984 . S
H507 N501 0.985 . S
H508 N505 0.984 . S
H509 N505 0.985 . S
H510 N504 0.984 . S
H511 N504 0.984 . S
H512 N500 0.984 . S
H513 N500 0.985 . S
C514 C515 1.363 . S
C514 C520 1.379 . S
C514 N522 1.356 . S
C515 C514 1.363 . S
C515 C521 1.363 . S
C516 C517 1.363 . S
C516 C521 1.379 . S
C516 N523 1.356 . S
C517 C516 1.363 . S
C517 C520 1.363 . S
N518 C520 1.356 . S
N518 H530 0.984 . S
N518 H531 0.985 . S
N519 C521 1.356 . S
N519 H524 0.984 . S
N519 H525 0.985 . S
C520 C514 1.379 . S
C520 C517 1.363 . S
C520 N518 1.356 . S
C521 C515 1.363 . S
C521 C516 1.379 . S
C521 N519 1.356 . S
N522 C514 1.356 . S
N522 H528 0.984 . S
N522 H529 0.984 . S
N523 C516 1.356 . S
N523 H526 0.984 . S
N523 H527 0.985 . S
H524 N519 0.984 . S
H525 N519 0.985 . S
H526 N523 0.984 . S
H527 N523 0.985 . S
H528 N522 0.984 . S
H529 N522 0.984 . S
H530 N518 0.984 . S
H531 N518 0.985 . S
C532 C533 1.363 . S
C532 C538 1.379 . S
C532 N540 1.356 . S
C533 C532 1.363 . S
C533 C539 1.363 . S
C534 C535 1.363 . S
C534 C539 1.379 . S
C534 N541 1.356 . S
C535 C534 1.363 . S
C535 C538 1.363 . S
N536 C538 1.356 . S
N536 H548 0.984 . S
N536 H549 0.985 . S
N537 C539 1.356 . S
N537 H542 0.984 . S
N537 H543 0.985 . S
C538 C532 1.379 . S
C538 C535 1.363 . S
C538 N536 1.356 . S
C539 C533 1.363 . S
C539 C534 1.379 . S
C539 N537 1.356 . S
N540 C532 1.356 . S
N540 H546 0.984 . S
N540 H547 0.984 . S
N541 C534 1.356 . S
N541 H544 0.984 . S
N541 H545 0.985 . S
H542 N537 0.984 . S
H543 N537 0.985 . S
H544 N541 0.984 . S
H545 N541 0.985 . S
H546 N540 0.984 . S
H547 N540 0.984 . S
H548 N536 0.984 . S
H549 N536 0.985 . S
C550 C551 1.363 . S
C550 C556 1.379 . S
C550 N558 1.356 . S
C551 C550 1.363 . S
C551 C557 1.363 . S
C552 C553 1.363 . S
C552 C557 1.379 . S
C552 N559 1.356 . S
C553 C552 1.363 . S
C553 C556 1.363 . S
N554 C556 1.356 . S
N554 H566 0.984 . S
N554 H567 0.985 . S
N555 C557 1.356 . S
N555 H560 0.984 . S
N555 H561 0.985 . S
C556 C550 1.379 . S
C556 C553 1.363 . S
C556 N554 1.356 . S
C557 C551 1.363 . S
C557 C552 1.379 . S
C557 N555 1.356 . S
N558 C550 1.356 . S
N558 H564 0.984 . S
N558 H565 0.984 . S
N559 C552 1.356 . S
N559 H562 0.984 . S
N559 H563 0.985 . S
H560 N555 0.984 . S
H561 N555 0.985 . S
H562 N559 0.984 . S
H563 N559 0.985 . S
H564 N558 0.984 . S
H565 N558 0.984 . S
H566 N554 0.984 . S
H567 N554 0.985 . S
C568 C569 1.363 . S
C568 C574 1.379 . S
C568 N576 1.356 . S
C569 C568 1.363 . S
C569 C575 1.363 . S
C570 C571 1.363 . S
C570 C575 1.379 . S
C570 N577 1.356 . S
C571 C570 1.363 . S
C571 C574 1.363 . S
N572 C574 1.356 . S
N572 H584 0.984 . S
N572 H585 0.985 . S
N573 C575 1.356 . S
N573 H578 0.984 . S
N573 H579 0.985 . S
C574 C568 1.379 . S
C574 C571 1.363 . S
C574 N572 1.356 . S
C575 C569 1.363 . S
C575 C570 1.379 . S
C575 N573 1.356 . S
N576 C568 1.356 . S
N576 H582 0.984 . S
N576 H583 0.984 . S
N577 C570 1.356 . S
N577 H580 0.984 . S
N577 H581 0.985 . S
H578 N573 0.984 . S
H579 N573 0.985 . S
H580 N577 0.984 . S
H581 N577 0.985 . S
H582 N576 0.984 . S
H583 N576 0.984 . S
H584 N572 0.984 . S
H585 N572 0.985 . S
C586 C587 1.363 . S
C586 C592 1.379 . S
C586 N594 1.356 . S
C587 C586 1.363 . S
C587 C593 1.363 . S
C588 C589 1.363 . S
C588 C593 1.379 . S
C588 N595 1.356 . S
C589 C588 1.363 . S
C589 C592 1.363 . S
N590 C592 1.356 . S
N590 H602 0.984 . S
N590 H603 0.985 . S
N591 C593 1.356 . S
N591 H596 0.984 . S
N591 H597 0.985 . S
C592 C586 1.379 . S
C592 C589 1.363 . S
C592 N590 1.356 . S
C593 C587 1.363 . S
C593 C588 1.379 . S
C593 N591 1.356 . S
N594 C586 1.356 . S
N594 H600 0.984 . S
N594 H601 0.984 . S
N595 C588 1.356 . S
N595 H598 0.984 . S
N595 H599 0.985 . S
H596 N591 0.984 . S
H597 N591 0.985 . S
H598 N595 0.984 . S
H599 N595 0.985 . S
H600 N594 0.984 . S
H601 N594 0.984 . S
H602 N590 0.984 . S
H603 N590 0.985 . S
C604 C605 1.363 . S
C604 C610 1.379 . S
C604 N612 1.356 . S
C605 C604 1.363 . S
C605 C611 1.363 . S
C606 C607 1.363 . S
C606 C611 1.379 . S
C606 N613 1.356 . S
C607 C606 1.363 . S
C607 C610 1.363 . S
N608 C610 1.356 . S
N608 H620 0.984 . S
N608 H621 0.985 . S
N609 C611 1.356 . S
N609 H614 0.984 . S
N609 H615 0.985 . S
C610 C604 1.379 . S
C610 C607 1.363 . S
C610 N608 1.356 . S
C611 C605 1.363 . S
C611 C606 1.379 . S
C611 N609 1.356 . S
N612 C604 1.356 . S
N612 H618 0.984 . S
N612 H619 0.984 . S
N613 C606 1.356 . S
N613 H616 0.984 . S
N613 H617 0.985 . S
H614 N609 0.984 . S
H615 N609 0.985 . S
H616 N613 0.984 . S
H617 N613 0.985 . S
H618 N612 0.984 . S
H619 N612 0.984 . S
H620 N608 0.984 . S
H621 N608 0.985 . S
C622 C623 1.363 . S
C622 C628 1.379 . S
C622 N630 1.356 . S
C623 C622 1.363 . S
C623 C629 1.363 . S
C624 C625 1.363 . S
C624 C629 1.379 . S
C624 N631 1.356 . S
C625 C624 1.363 . S
C625 C628 1.363 . S
N626 C628 1.356 . S
N626 H638 0.984 . S
N626 H639 0.985 . S
N627 C629 1.356 . S
N627 H632 0.984 . S
N627 H633 0.985 . S
C628 C622 1.379 . S
C628 C625 1.363 . S
C628 N626 1.356 . S
C629 C623 1.363 . S
C629 C624 1.379 . S
C629 N627 1.356 . S
N630 C622 1.356 . S
N630 H636 0.984 . S
N630 H637 0.984 . S
N631 C624 1.356 . S
N631 H634 0.984 . S
N631 H635 0.985 . S
H632 N627 0.984 . S
H633 N627 0.985 . S
H634 N631 0.984 . S
H635 N631 0.985 . S
H636 N630 0.984 . S
H637 N630 0.984 . S
H638 N626 0.984 . S
H639 N626 0.985 . S
C640 C641 1.363 . S
C640 C646 1.379 1_554 S
C640 N648 1.356 . S
C641 C640 1.363 . S
C641 C647 1.363 . S
C642 C643 1.363 . S
C642 C647 1.379 1_556 S
C642 N649 1.356 . S
C643 C642 1.363 . S
C643 C646 1.363 . S
N644 C646 1.356 . S
N644 H656 0.984 . S
N644 H657 0.985 . S
N645 C647 1.356 . S
N645 H650 0.984 . S
N645 H651 0.985 . S
C646 C640 1.379 1_556 S
C646 C643 1.363 . S
C646 N644 1.356 . S
C647 C641 1.363 . S
C647 C642 1.379 1_554 S
C647 N645 1.356 . S
N648 C640 1.356 . S
N648 H654 0.984 . S
N648 H655 0.984 . S
N649 C642 1.356 . S
N649 H652 0.984 . S
N649 H653 0.985 . S
H650 N645 0.984 . S
H651 N645 0.985 . S
H652 N649 0.984 . S
H653 N649 0.985 . S
H654 N648 0.984 . S
H655 N648 0.984 . S
H656 N644 0.984 . S
H657 N644 0.985 . S
C658 C659 1.363 . S
C658 C664 1.379 . S
C658 N666 1.356 . S
C659 C658 1.363 . S
C659 C665 1.363 . S
C660 C661 1.363 . S
C660 C665 1.379 . S
C660 N667 1.356 . S
C661 C660 1.363 . S
C661 C664 1.363 . S
N662 C664 1.356 . S
N662 H674 0.984 . S
N662 H675 0.985 . S
N663 C665 1.356 . S
N663 H668 0.984 . S
N663 H669 0.985 . S
C664 C658 1.379 . S
C664 C661 1.363 . S
C664 N662 1.356 . S
C665 C659 1.363 . S
C665 C660 1.379 . S
C665 N663 1.356 . S
N666 C658 1.356 . S
N666 H672 0.984 . S
N666 H673 0.984 . S
N667 C660 1.356 . S
N667 H670 0.984 . S
N667 H671 0.985 . S
H668 N663 0.984 . S
H669 N663 0.985 . S
H670 N667 0.984 . S
H671 N667 0.985 . S
H672 N666 0.984 . S
H673 N666 0.984 . S
H674 N662 0.984 . S
H675 N662 0.985 . S
C676 C677 1.363 . S
C676 C682 1.379 1_554 S
C676 N684 1.356 . S
C677 C676 1.363 . S
C677 C683 1.368 . S
C678 C679 1.368 . S
C678 C683 1.379 1_556 S
C678 N685 1.352 1_655 S
C679 C678 1.368 . S
C679 C682 1.363 . S
N680 C682 1.356 . S
N680 H692 0.984 . S
N680 H693 0.985 . S
N681 C683 1.352 1_455 S
N681 H686 0.984 . S
N681 H687 0.985 . S
C682 C676 1.379 1_556 S
C682 C679 1.363 . S
C682 N680 1.356 . S
C683 C677 1.368 . S
C683 C678 1.379 1_554 S
C683 N681 1.352 1_655 S
N684 C676 1.356 . S
N684 H690 0.984 . S
N684 H691 0.984 . S
N685 C678 1.352 1_455 S
N685 H688 0.984 . S
N685 H689 0.985 . S
H686 N681 0.984 . S
H687 N681 0.985 . S
H688 N685 0.984 . S
H689 N685 0.985 . S
H690 N684 0.984 . S
H691 N684 0.984 . S
H692 N680 0.984 . S
H693 N680 0.985 . S
C694 C695 1.363 1_545 S
C694 C700 1.379 . S
C694 N702 1.356 . S
C695 C694 1.363 1_565 S
C695 C701 1.363 . S
C696 C697 1.363 . S
C696 C701 1.379 . S
C696 N703 1.356 . S
C697 C696 1.363 . S
C697 C700 1.363 1_565 S
N698 C700 1.356 . S
N698 H710 0.984 . S
N698 H711 0.985 . S
N699 C701 1.356 . S
N699 H704 0.984 . S
N699 H705 0.985 . S
C700 C694 1.379 . S
C700 C697 1.363 1_545 S
C700 N698 1.356 . S
C701 C695 1.363 . S
C701 C696 1.379 . S
C701 N699 1.356 . S
N702 C694 1.356 . S
N702 H708 0.984 . S
N702 H709 0.984 . S
N703 C696 1.356 . S
N703 H706 0.984 . S
N703 H707 0.985 . S
H704 N699 0.984 . S
H705 N699 0.985 . S
H706 N703 0.984 . S
H707 N703 0.985 . S
H708 N702 0.984 . S
H709 N702 0.984 . S
H710 N698 0.984 . S
H711 N698 0.985 . S
C712 C713 1.363 . S
C712 C718 1.379 1_556 S
C712 N720 1.356 . S
C713 C712 1.363 . S
C713 C719 1.363 . S
C714 C715 1.363 . S
C714 C719 1.379 1_554 S
C714 N721 1.356 . S
C715 C714 1.363 . S
C715 C718 1.363 . S
N716 C718 1.356 . S
N716 H728 0.984 . S
N716 H729 0.985 . S
N717 C719 1.356 . S
N717 H722 0.984 . S
N717 H723 0.985 . S
C718 C712 1.379 1_554 S
C718 C715 1.363 . S
C718 N716 1.356 . S
C719 C713 1.363 . S
C719 C714 1.379 1_556 S
C719 N717 1.356 . S
N720 C712 1.356 . S
N720 H726 0.984 . S
N720 H727 0.984 . S
N721 C714 1.356 . S
N721 H724 0.984 . S
N721 H725 0.985 . S
H722 N717 0.984 . S
H723 N717 0.985 . S
H724 N721 0.984 . S
H725 N721 0.985 . S
H726 N720 0.984 . S
H727 N720 0.984 . S
H728 N716 0.984 . S
H729 N716 0.985 . S
C730 C731 1.363 . S
C730 C736 1.379 . S
C730 N738 1.356 . S
C731 C730 1.363 . S
C731 C737 1.363 . S
C732 C733 1.363 . S
C732 C737 1.379 . S
C732 N739 1.356 . S
C733 C732 1.363 . S
C733 C736 1.363 . S
N734 C736 1.356 . S
N734 H746 0.984 . S
N734 H747 0.985 . S
N735 C737 1.356 . S
N735 H740 0.984 . S
N735 H741 0.985 . S
C736 C730 1.379 . S
C736 C733 1.363 . S
C736 N734 1.356 . S
C737 C731 1.363 . S
C737 C732 1.379 . S
C737 N735 1.356 . S
N738 C730 1.356 . S
N738 H744 0.984 . S
N738 H745 0.984 . S
N739 C732 1.356 . S
N739 H742 0.984 . S
N739 H743 0.985 . S
H740 N735 0.984 . S
H741 N735 0.985 . S
H742 N739 0.984 . S
H743 N739 0.985 . S
H744 N738 0.984 . S
H745 N738 0.984 . S
H746 N734 0.984 . S
H747 N734 0.985 . S
C748 C749 1.364 . S
C748 C754 1.379 1_554 S
C748 N756 1.355 1_455 S
C749 C748 1.364 . S
C749 C755 1.363 . S
C750 C751 1.363 . S
C750 C755 1.379 1_556 S
C750 N757 1.356 . S
C751 C750 1.363 . S
C751 C754 1.364 . S
N752 C754 1.355 1_655 S
N752 H764 0.984 . S
N752 H765 0.985 . S
N753 C755 1.356 . S
N753 H758 0.984 . S
N753 H759 0.985 . S
C754 C748 1.379 1_556 S
C754 C751 1.364 . S
C754 N752 1.355 1_455 S
C755 C749 1.363 . S
C755 C750 1.379 1_554 S
C755 N753 1.356 . S
N756 C748 1.355 1_655 S
N756 H762 0.984 . S
N756 H763 0.984 . S
N757 C750 1.356 . S
N757 H760 0.984 . S
N757 H761 0.985 . S
H758 N753 0.984 . S
H759 N753 0.985 . S
H760 N757 0.984 . S
H761 N757 0.985 . S
H762 N756 0.984 . S
H763 N756 0.984 . S
H764 N752 0.984 . S
H765 N752 0.985 . S
C766 C767 1.363 1_565 S
C766 C772 1.379 . S
C766 N774 1.356 . S
C767 C766 1.363 1_545 S
C767 C773 1.363 . S
C768 C769 1.363 . S
C768 C773 1.379 . S
C768 N775 1.356 . S
C769 C768 1.363 . S
C769 C772 1.363 1_545 S
N770 C772 1.356 . S
N770 H782 0.984 . S
N770 H783 0.985 . S
N771 C773 1.356 . S
N771 H776 0.984 . S
N771 H777 0.985 . S
C772 C766 1.379 . S
C772 C769 1.363 1_565 S
C772 N770 1.356 . S
C773 C767 1.363 . S
C773 C768 1.379 . S
C773 N771 1.356 . S
N774 C766 1.356 . S
N774 H780 0.984 . S
N774 H781 0.984 . S
N775 C768 1.356 . S
N775 H778 0.984 . S
N775 H779 0.985 . S
H776 N771 0.984 . S
H777 N771 0.985 . S
H778 N775 0.984 . S
H779 N775 0.985 . S
H780 N774 0.984 . S
H781 N774 0.984 . S
H782 N770 0.984 . S
H783 N770 0.985 . S
C209 C0 1.273 . S
C211 C91 1.273 . S
C227 C13 1.273 . S
C229 C52 1.273 . S
C245 C26 1.273 . S
C247 C65 1.273 . S
C263 C39 1.273 . S
C265 C78 1.273 . S
C281 C104 1.273 . S
C283 C195 1.273 . S
C299 C156 1.273 . S
C301 C117 1.273 . S
C317 C130 1.273 . S
C319 C169 1.273 . S
C335 C143 1.273 . S
C337 C182 1.273 . S
C353 C5 1.321 . S
C355 C125 1.409 . S
C371 C18 1.322 . S
C373 C138 1.409 . S
C389 C151 1.409 . S
C391 C31 1.321 . S
C407 C44 1.322 . S
C409 C112 1.409 . S
C425 C57 1.322 . S
C427 C203 1.409 . S
C443 C164 1.409 . S
C445 C70 1.321 . S
C461 C177 1.409 . S
C463 C83 1.322 . S
C479 C190 1.409 . S
C481 C96 1.322 . S
C497 C21 1.409 . S
C499 C109 1.321 . S
C515 C34 1.409 . S
C517 C122 1.322 . S
C533 C135 1.321 . S
C535 C47 1.409 . S
C551 C8 1.409 . S
C553 C148 1.322 . S
C569 C161 1.322 . S
C571 C99 1.409 . S
C587 C174 1.321 . S
C589 C60 1.409 . S
C605 C73 1.409 . S
C607 C187 1.322 . S
C623 C86 1.409 . S
C625 C200 1.322 . S
C641 C10 1.512 . S
C643 C62 1.512 . S
C659 C75 1.512 . S
C661 C23 1.512 . S
C677 C36 1.512 . S
C679 C88 1.512 . S
C695 C101 1.512 . S
C697 C49 1.512 . S
C713 C114 1.512 . S
C715 C166 1.512 . S
C731 C179 1.512 . S
C733 C127 1.512 . S
C749 C192 1.512 . S
C751 C140 1.512 . S
C767 C205 1.512 . S
C769 C153 1.512 . S
