# Generated by pormake.
# Topology wka, (5)-cn, num edge types: 1
# Building blocks:
#     Node 0, Type 0, BuildingBlock: XOMCOT_clean_sbu_1, # of connection points: 5
#     Node 1, Type 0, BuildingBlock: XOMCOT_clean_sbu_1, # of connection points: 5
#     Node 2, Type 0, BuildingBlock: XOMCOT_clean_sbu_1, # of connection points: 5
#     Node 3, Type 0, BuildingBlock: XOMCOT_clean_sbu_1, # of connection points: 5
#     Node 4, Type 0, BuildingBlock: XOMCOT_clean_sbu_1, # of connection points: 5
#     Node 5, Type 0, BuildingBlock: XOMCOT_clean_sbu_1, # of connection points: 5
#     Node 6, Type 0, BuildingBlock: XOMCOT_clean_sbu_1, # of connection points: 5
#     Node 7, Type 0, BuildingBlock: XOMCOT_clean_sbu_1, # of connection points: 5
#     Node 8, Type 0, BuildingBlock: XOMCOT_clean_sbu_1, # of connection points: 5
#     Node 9, Type 0, BuildingBlock: XOMCOT_clean_sbu_1, # of connection points: 5
#     Node 10, Type 0, BuildingBlock: XOMCOT_clean_sbu_1, # of connection points: 5
#     Node 11, Type 0, BuildingBlock: XOMCOT_clean_sbu_1, # of connection points: 5
#     Edge 12, Type (0, 0), BuildingBlock: CIFDUS_clean_linker_0, # of connection points: 2
#     Edge 13, Type (0, 0), BuildingBlock: CIFDUS_clean_linker_0, # of connection points: 2
#     Edge 14, Type (0, 0), BuildingBlock: CIFDUS_clean_linker_0, # of connection points: 2
#     Edge 15, Type (0, 0), BuildingBlock: CIFDUS_clean_linker_0, # of connection points: 2
#     Edge 16, Type (0, 0), BuildingBlock: CIFDUS_clean_linker_0, # of connection points: 2
#     Edge 17, Type (0, 0), BuildingBlock: CIFDUS_clean_linker_0, # of connection points: 2
#     Edge 18, Type (0, 0), BuildingBlock: CIFDUS_clean_linker_0, # of connection points: 2
#     Edge 19, Type (0, 0), BuildingBlock: CIFDUS_clean_linker_0, # of connection points: 2
#     Edge 20, Type (0, 0), BuildingBlock: CIFDUS_clean_linker_0, # of connection points: 2
#     Edge 21, Type (0, 0), BuildingBlock: CIFDUS_clean_linker_0, # of connection points: 2
#     Edge 22, Type (0, 0), BuildingBlock: CIFDUS_clean_linker_0, # of connection points: 2
#     Edge 23, Type (0, 0), BuildingBlock: CIFDUS_clean_linker_0, # of connection points: 2
#     Edge 24, Type (0, 0), BuildingBlock: CIFDUS_clean_linker_0, # of connection points: 2
#     Edge 25, Type (0, 0), BuildingBlock: CIFDUS_clean_linker_0, # of connection points: 2
#     Edge 26, Type (0, 0), BuildingBlock: CIFDUS_clean_linker_0, # of connection points: 2
#     Edge 27, Type (0, 0), BuildingBlock: CIFDUS_clean_linker_0, # of connection points: 2
#     Edge 28, Type (0, 0), BuildingBlock: CIFDUS_clean_linker_0, # of connection points: 2
#     Edge 29, Type (0, 0), BuildingBlock: CIFDUS_clean_linker_0, # of connection points: 2
#     Edge 30, Type (0, 0), BuildingBlock: CIFDUS_clean_linker_0, # of connection points: 2
#     Edge 31, Type (0, 0), BuildingBlock: CIFDUS_clean_linker_0, # of connection points: 2
#     Edge 32, Type (0, 0), BuildingBlock: CIFDUS_clean_linker_0, # of connection points: 2
#     Edge 33, Type (0, 0), BuildingBlock: CIFDUS_clean_linker_0, # of connection points: 2
#     Edge 34, Type (0, 0), BuildingBlock: CIFDUS_clean_linker_0, # of connection points: 2
#     Edge 35, Type (0, 0), BuildingBlock: CIFDUS_clean_linker_0, # of connection points: 2
#     Edge 36, Type (0, 0), BuildingBlock: CIFDUS_clean_linker_0, # of connection points: 2
#     Edge 37, Type (0, 0), BuildingBlock: CIFDUS_clean_linker_0, # of connection points: 2
#     Edge 38, Type (0, 0), BuildingBlock: CIFDUS_clean_linker_0, # of connection points: 2
#     Edge 39, Type (0, 0), BuildingBlock: CIFDUS_clean_linker_0, # of connection points: 2
#     Edge 40, Type (0, 0), BuildingBlock: CIFDUS_clean_linker_0, # of connection points: 2
#     Edge 41, Type (0, 0), BuildingBlock: CIFDUS_clean_linker_0, # of connection points: 2
# Relax obj value: 0.235
# Max RMSD: 0.184
# Mean RMSD: 0.184
data_MOF--net-wka--node1-XOMCOT_clean_sbu_1--edge1-CIFDUS_clean_linker_0
_symmetry_space_group_name_H-M    P1
_symmetry_Int_Tables_number       1
_symmetry_cell_setting            triclinic
loop_
_symmetry_equiv_pos_as_xyz
'x, y, z'
_cell_length_a     59.380509
_cell_length_b     59.419659
_cell_length_c     15.182214
_cell_angle_alpha  89.954102
_cell_angle_beta   90.092402
_cell_angle_gamma 119.85212
loop_
_atom_site_label
_atom_site_type_symbol
_atom_site_fract_x
_atom_site_fract_y
_atom_site_fract_z
_atom_type_partial_charge
C0 C 0.15137 0.43784 0.00507 0.0
C1 C 0.15631 0.44252 0.91622 0.0
N2 N 0.13356 0.42989 0.87212 0.0
N3 N 0.12569 0.42228 0.01703 0.0
C4 C 0.11542 0.418 0.93529 0.0
H5 H 0.16557 0.44516 0.05762 0.0
Co6 Co 0.10881 0.40985 0.12391 0.0
C7 C 0.05314 0.37356 0.07172 0.0
O8 O 0.0452 0.38118 0.14035 0.0
N9 N 0.09241 0.39736 0.23371 0.0
C10 C 0.0727 0.37075 0.34681 0.0
C11 C 0.07723 0.37224 0.25751 0.0
C12 C 0.09765 0.41056 0.31055 0.0
N13 N 0.08574 0.39491 0.37963 0.0
O14 O 0.12371 0.38726 0.13328 0.0
H15 H 0.07107 0.35587 0.21365 0.0
H16 H 0.11143 0.43096 0.31775 0.0
O17 O 0.07759 0.38288 0.05974 0.0
C18 C 0.14166 0.39559 0.19171 0.0
O19 O 0.14693 0.41665 0.23586 0.0
N20 N 0.09757 0.43451 0.11792 0.0
C21 C 0.09167 0.4785 0.1141 0.0
C22 C 0.07595 0.45674 0.06166 0.0
C23 C 0.07953 0.43511 0.06321 0.0
C24 C 0.11365 0.45592 0.16602 0.0
C25 C 0.11065 0.47773 0.16704 0.0
H26 H 0.06867 0.41971 0.01698 0.0
H27 H 0.12965 0.45645 0.20179 0.0
H28 H 0.09498 0.40616 0.92234 0.0
H29 H 0.17525 0.4543 0.88695 0.0
H30 H 0.06236 0.35321 0.38555 0.0
H31 H 0.06181 0.45684 0.0168 0.0
H32 H 0.12351 0.49404 0.20803 0.0
C33 C 0.71281 0.15216 0.12815 0.0
C34 C 0.71476 0.1573 0.03891 0.0
N35 N 0.72168 0.14147 0.99856 0.0
N36 N 0.71839 0.13312 0.14365 0.0
C37 C 0.72436 0.12756 0.06381 0.0
H38 H 0.70619 0.16058 0.17779 0.0
Co39 Co 0.71366 0.11518 0.24929 0.0
C40 C 0.69284 0.06071 0.18288 0.0
O41 O 0.67447 0.05234 0.24283 0.0
N42 N 0.70994 0.0979 0.35834 0.0
C43 C 0.71532 0.07536 0.46597 0.0
C44 C 0.71527 0.07872 0.37631 0.0
C45 C 0.70813 0.1066 0.43911 0.0
N46 N 0.71098 0.09309 0.5055 0.0
O47 O 0.75088 0.13008 0.26013 0.0
H48 H 0.72089 0.06905 0.32833 0.0
H49 H 0.7066 0.12373 0.44974 0.0
O50 O 0.71016 0.08485 0.18134 0.0
C51 C 0.76036 0.14913 0.31408 0.0
O52 O 0.74473 0.15619 0.34994 0.0
N53 N 0.67724 0.10291 0.24072 0.0
C54 C 0.62738 0.09624 0.22059 0.0
C55 C 0.63832 0.08845 0.15407 0.0
C56 C 0.6633 0.09195 0.16535 0.0
C57 C 0.66679 0.11102 0.30479 0.0
C58 C 0.6417 0.10722 0.29721 0.0
H59 H 0.67199 0.08744 0.11074 0.0
H60 H 0.67842 0.12241 0.35906 0.0
H61 H 0.72978 0.11298 0.05292 0.0
H62 H 0.70982 0.17042 0.00587 0.0
H63 H 0.72004 0.06214 0.49939 0.0
H64 H 0.62809 0.08072 0.09254 0.0
H65 H 0.63431 0.11457 0.34815 0.0
C66 C 0.56152 0.69895 0.31941 0.0
C67 C 0.55697 0.69922 0.23035 0.0
N68 N 0.57847 0.70346 0.18649 0.0
N69 N 0.58567 0.70279 0.33142 0.0
C70 C 0.59557 0.70583 0.24945 0.0
H71 H 0.54777 0.69512 0.37188 0.0
Co72 Co 0.59996 0.70023 0.43759 0.0
C73 C 0.63514 0.68062 0.37507 0.0
O74 O 0.62666 0.66313 0.43813 0.0
N75 N 0.61456 0.69852 0.54664 0.0
C76 C 0.64369 0.70725 0.65301 0.0
C77 C 0.63959 0.70563 0.5636 0.0
C78 C 0.60425 0.69696 0.62748 0.0
N79 N 0.62144 0.70202 0.6934 0.0
O80 O 0.62125 0.73764 0.44229 0.0
H81 H 0.65467 0.71146 0.51472 0.0
H82 H 0.58537 0.6949 0.63789 0.0
O83 O 0.62695 0.69689 0.37111 0.0
C84 C 0.61079 0.74684 0.49371 0.0
O85 O 0.58829 0.73081 0.52956 0.0
N86 N 0.57665 0.66379 0.43597 0.0
C87 C 0.53492 0.61266 0.43242 0.0
C88 C 0.5543 0.62155 0.36761 0.0
C89 C 0.57461 0.64738 0.3692 0.0
C90 C 0.55747 0.65551 0.49759 0.0
C91 C 0.53681 0.63006 0.49811 0.0
H92 H 0.58782 0.65437 0.31411 0.0
H93 H 0.55708 0.66909 0.54345 0.0
H94 H 0.61448 0.70833 0.2354 0.0
H95 H 0.53903 0.69591 0.20039 0.0
H96 H 0.66209 0.7132 0.68511 0.0
H97 H 0.553 0.6091 0.31347 0.0
H98 H 0.52198 0.62429 0.54822 0.0
C99 C 0.87693 0.55715 0.48034 0.0
C100 C 0.87313 0.55626 0.39056 0.0
N101 N 0.88341 0.58078 0.36064 0.0
N102 N 0.89008 0.58217 0.50631 0.0
C103 C 0.89269 0.59595 0.43259 0.0
H104 H 0.87224 0.5407 0.5223 0.0
Co105 Co 0.90765 0.59594 0.61175 0.0
C106 C 0.96161 0.63548 0.54811 0.0
O107 O 0.97288 0.6322 0.6176 0.0
N108 N 0.92493 0.61013 0.71913 0.0
C109 C 0.94 0.63761 0.83253 0.0
C110 C 0.93694 0.63546 0.74233 0.0
C111 C 0.92095 0.59743 0.79649 0.0
N112 N 0.92981 0.61356 0.8662 0.0
O113 O 0.89093 0.61676 0.62191 0.0
H114 H 0.94109 0.65121 0.69753 0.0
H115 H 0.909 0.57674 0.80381 0.0
O116 O 0.93679 0.62308 0.54265 0.0
C117 C 0.87346 0.60754 0.68164 0.0
O118 O 0.86927 0.58643 0.72338 0.0
N119 N 0.92148 0.57324 0.60561 0.0
C120 C 0.93253 0.53249 0.60243 0.0
C121 C 0.9457 0.55406 0.5466 0.0
C122 C 0.93957 0.57403 0.54805 0.0
C123 C 0.90785 0.55191 0.65726 0.0
C124 C 0.91349 0.5318 0.65868 0.0
H125 H 0.94842 0.58913 0.49937 0.0
H126 H 0.89148 0.54985 0.69471 0.0
H127 H 0.90313 0.6169 0.4305 0.0
H128 H 0.86499 0.53903 0.3498 0.0
H129 H 0.94755 0.65531 0.87061 0.0
H130 H 0.95974 0.55495 0.49923 0.0
H131 H 0.90246 0.51553 0.7023 0.0
C132 C 0.31104 0.86868 0.62462 0.0
C133 C 0.3077 0.86475 0.53496 0.0
N134 N 0.29843 0.87974 0.50331 0.0
N135 N 0.30451 0.88656 0.64842 0.0
C136 C 0.29619 0.89227 0.57351 0.0
H137 H 0.31933 0.86035 0.66831 0.0
Co138 Co 0.31083 0.90417 0.75459 0.0
C139 C 0.33262 0.95959 0.6967 0.0
O140 O 0.34945 0.96767 0.76185 0.0
N141 N 0.31653 0.92171 0.86273 0.0
C142 C 0.30829 0.94017 0.97649 0.0
C143 C 0.30654 0.93688 0.8865 0.0
C144 C 0.32416 0.91609 0.93952 0.0
N145 N 0.31929 0.9269 0.00949 0.0
O146 O 0.27401 0.89135 0.76724 0.0
H147 H 0.29652 0.94324 0.84232 0.0
H148 H 0.33021 0.90184 0.94637 0.0
O149 O 0.31626 0.93535 0.68927 0.0
C150 C 0.26506 0.87333 0.82515 0.0
O151 O 0.28111 0.86714 0.8632 0.0
N152 N 0.34614 0.91334 0.74607 0.0
C153 C 0.3936 0.91402 0.73735 0.0
C154 C 0.38892 0.93056 0.68377 0.0
C155 C 0.36475 0.92952 0.6877 0.0
C156 C 0.35033 0.89676 0.79619 0.0
C157 C 0.37395 0.89724 0.79479 0.0
H158 H 0.36073 0.94055 0.64023 0.0
H159 H 0.33455 0.8818 0.83372 0.0
H160 H 0.29045 0.90687 0.56887 0.0
H161 H 0.31298 0.85292 0.49551 0.0
H162 H 0.30046 0.95 0.015 0.0
H163 H 0.4032 0.94311 0.63599 0.0
H164 H 0.3764 0.8838 0.83645 0.0
C165 C 0.44915 0.31312 0.80721 0.0
C166 C 0.4499 0.30962 0.71779 0.0
N167 N 0.42565 0.30003 0.68591 0.0
N168 N 0.42466 0.30636 0.83026 0.0
C169 C 0.41074 0.29788 0.75544 0.0
H170 H 0.46563 0.32148 0.85141 0.0
Co171 Co 0.41303 0.31151 0.93656 0.0
C172 C 0.37941 0.33379 0.88872 0.0
O173 O 0.3886 0.34863 0.9588 0.0
N174 N 0.40081 0.31582 0.04562 0.0
C175 C 0.37379 0.30614 0.15904 0.0
C176 C 0.37554 0.30442 0.06929 0.0
C177 C 0.41392 0.32403 0.12231 0.0
N178 N 0.39804 0.31839 0.19203 0.0
O179 O 0.39023 0.2743 0.94746 0.0
H180 H 0.35937 0.2938 0.02492 0.0
H181 H 0.43443 0.33119 0.12924 0.0
O182 O 0.38648 0.31696 0.87327 0.0
C183 C 0.40059 0.26587 1.00283 0.0
O184 O 0.42276 0.28258 0.03943 0.0
N185 N 0.43819 0.3473 0.92906 0.0
C186 C 0.48193 0.39695 0.92051 0.0
C187 C 0.46059 0.39003 0.86487 0.0
C188 C 0.43924 0.36482 0.8682 0.0
C189 C 0.45944 0.35343 0.97979 0.0
C190 C 0.48119 0.37818 0.9781 0.0
H191 H 0.4244 0.35926 0.81859 0.0
H192 H 0.46016 0.33855 0.01841 0.0
H193 H 0.39036 0.29197 0.75045 0.0
H194 H 0.46704 0.31488 0.67863 0.0
H195 H 0.3561 0.29754 0.19745 0.0
H196 H 0.46097 0.40355 0.81619 0.0
H197 H 0.49756 0.38237 0.02023 0.0
C198 C 0.5801 0.86104 0.87115 0.0
C199 C 0.57635 0.85915 0.961 0.0
N200 N 0.57858 0.88156 0.99018 0.0
N201 N 0.58517 0.88478 0.84399 0.0
C202 C 0.58308 0.89627 0.9178 0.0
H203 H 0.58073 0.84652 0.83038 0.0
Co204 Co 0.59876 0.90237 0.73718 0.0
C205 C 0.64739 0.95083 0.81119 0.0
O206 O 0.66337 0.95554 0.74509 0.0
N207 N 0.6119 0.91994 0.63084 0.0
C208 C 0.62291 0.94769 0.51863 0.0
C209 C 0.61989 0.94486 0.60897 0.0
C210 C 0.6103 0.9082 0.55327 0.0
N211 N 0.617 0.9245 0.48446 0.0
O212 O 0.62171 0.88783 0.72936 0.0
H213 H 0.62194 0.95967 0.65486 0.0
H214 H 0.6024 0.88763 0.54537 0.0
O215 O 0.62412 0.93188 0.8072 0.0
C216 C 0.61049 0.86623 0.68786 0.0
O217 O 0.58613 0.85669 0.6639 0.0
N218 N 0.57485 0.91415 0.73873 0.0
C219 C 0.53307 0.92328 0.72789 0.0
C220 C 0.55609 0.94084 0.77194 0.0
C221 C 0.57696 0.93606 0.77582 0.0
C222 C 0.55308 0.89739 0.69371 0.0
C223 C 0.53214 0.90168 0.68663 0.0
H224 H 0.59446 0.94969 0.81007 0.0
H225 H 0.55203 0.88045 0.66311 0.0
H226 H 0.58714 0.91608 0.92004 0.0
H227 H 0.57374 0.84315 1.00218 0.0
H228 H 0.62812 0.96507 0.48093 0.0
H229 H 0.55781 0.95776 0.80497 0.0
H230 H 0.51532 0.88801 0.6492 0.0
C231 C 0.70099 0.55503 0.04054 0.0
C232 C 0.70043 0.55187 0.13055 0.0
N233 N 0.71001 0.57535 0.16845 0.0
N234 N 0.71009 0.58032 0.02217 0.0
C235 C 0.71623 0.59226 0.10141 0.0
H236 H 0.69281 0.53959 0.99236 0.0
Co237 Co 0.7065 0.59403 0.91565 0.0
C238 C 0.70088 0.63938 0.99249 0.0
O239 O 0.71438 0.65767 0.93476 0.0
N240 N 0.70277 0.60739 0.80889 0.0
C241 C 0.68578 0.61728 0.69476 0.0
C242 C 0.68482 0.61387 0.78489 0.0
C243 C 0.71442 0.60718 0.73288 0.0
N244 N 0.70454 0.61315 0.66267 0.0
O245 O 0.74328 0.61859 0.91526 0.0
H246 H 0.67071 0.61423 0.82897 0.0
H247 H 0.72829 0.60052 0.72754 0.0
O248 O 0.69826 0.61686 0.98331 0.0
C249 C 0.75448 0.60684 0.88306 0.0
O250 O 0.74024 0.58219 0.86242 0.0
N251 N 0.6714 0.56838 0.91113 0.0
C252 C 0.62298 0.52344 0.90259 0.0
C253 C 0.62763 0.54303 0.96367 0.0
C254 C 0.65217 0.56539 0.96741 0.0
C255 C 0.66682 0.55003 0.84915 0.0
C256 C 0.64277 0.52745 0.84363 0.0
H257 H 0.65588 0.57958 0.01787 0.0
H258 H 0.68238 0.55251 0.80603 0.0
H259 H 0.72252 0.6126 0.1107 0.0
H260 H 0.69151 0.53357 0.16559 0.0
H261 H 0.67291 0.62124 0.65545 0.0
H262 H 0.61291 0.5405 0.01095 0.0
H263 H 0.63992 0.51289 0.79514 0.0
C264 C 0.15326 0.70093 0.21711 0.0
C265 C 0.15688 0.70408 0.3069 0.0
N266 N 0.14385 0.7157 0.33683 0.0
N267 N 0.13748 0.70996 0.19108 0.0
C268 C 0.13311 0.71984 0.2649 0.0
H269 H 0.16015 0.69095 0.17524 0.0
Co270 Co 0.11924 0.70429 0.08551 0.0
C271 C 0.06398 0.68596 0.15214 0.0
O272 O 0.05218 0.6726 0.08123 0.0
N273 N 0.10122 0.69925 0.97854 0.0
C274 C 0.0842 0.70923 0.86433 0.0
C275 C 0.08725 0.71057 0.95453 0.0
C276 C 0.10633 0.69121 0.90172 0.0
N277 N 0.09641 0.69715 0.83138 0.0
O278 O 0.13194 0.7412 0.07634 0.0
H279 H 0.08175 0.72128 0.99869 0.0
H280 H 0.11975 0.68408 0.89545 0.0
O281 O 0.08881 0.69845 0.15558 0.0
C282 C 0.14914 0.75113 0.01591 0.0
O283 O 0.15534 0.73594 0.97215 0.0
N284 N 0.10965 0.66882 0.09035 0.0
C285 C 0.10706 0.62047 0.09549 0.0
C286 C 0.08962 0.62493 0.14453 0.0
C287 C 0.09148 0.64944 0.14212 0.0
C288 C 0.12665 0.66464 0.04276 0.0
C289 C 0.12547 0.64066 0.04317 0.0
H290 H 0.07918 0.65288 0.18544 0.0
H291 H 0.14225 0.68059 0.00755 0.0
H292 H 0.12033 0.72792 0.26726 0.0
H293 H 0.16693 0.69691 0.34765 0.0
H294 H 0.07528 0.71804 0.82573 0.0
H295 H 0.07556 0.61008 0.1877 0.0
H296 H 0.13944 0.63824 0.00453 0.0
C297 C 0.46377 0.15456 0.36486 0.0
C298 C 0.46636 0.15966 0.45404 0.0
N299 N 0.44326 0.1443 0.49321 0.0
N300 N 0.43921 0.13594 0.34762 0.0
C301 C 0.42707 0.1306 0.42657 0.0
H302 H 0.47917 0.16271 0.31652 0.0
Co303 Co 0.42643 0.11807 0.2411 0.0
C304 C 0.37965 0.06894 0.31998 0.0
O305 O 0.36134 0.06663 0.26585 0.0
N306 N 0.41366 0.10054 0.1338 0.0
C307 C 0.39961 0.0718 0.02458 0.0
C308 C 0.4033 0.07514 0.11441 0.0
C309 C 0.41625 0.11218 0.05491 0.0
N310 N 0.40796 0.09522 0.98711 0.0
O311 O 0.40176 0.13034 0.23493 0.0
H312 H 0.39985 0.06014 0.16167 0.0
H313 H 0.42497 0.13291 0.04692 0.0
O314 O 0.40299 0.08729 0.30943 0.0
C315 C 0.41234 0.15263 0.19803 0.0
O316 O 0.43696 0.16366 0.17606 0.0
N317 N 0.45203 0.10791 0.24319 0.0
C318 C 0.49289 0.09684 0.24123 0.0
C319 C 0.4768 0.09129 0.31553 0.0
C320 C 0.45645 0.09676 0.31486 0.0
C321 C 0.46774 0.11404 0.17125 0.0
C322 C 0.48775 0.10812 0.16799 0.0
H323 H 0.44493 0.09298 0.37343 0.0
H324 H 0.46493 0.12378 0.11579 0.0
H325 H 0.40688 0.1162 0.43543 0.0
H326 H 0.48432 0.17248 0.48778 0.0
H327 H 0.39259 0.05368 0.98938 0.0
H328 H 0.48022 0.08346 0.37518 0.0
H329 H 0.49906 0.11254 0.10822 0.0
C330 C 0.3115 0.44727 0.53116 0.0
C331 C 0.30898 0.44983 0.62021 0.0
N332 N 0.30314 0.42725 0.6601 0.0
N333 N 0.30744 0.42327 0.51478 0.0
C334 C 0.30184 0.41139 0.59412 0.0
H335 H 0.31725 0.46236 0.48214 0.0
Co336 Co 0.31303 0.41138 0.40798 0.0
C337 C 0.31327 0.36333 0.47489 0.0
O338 O 0.29635 0.34757 0.41682 0.0
N339 N 0.31881 0.39986 0.30041 0.0
C340 C 0.33492 0.38705 0.19185 0.0
C341 C 0.33495 0.39067 0.28149 0.0
C342 C 0.3096 0.40207 0.22142 0.0
N343 N 0.319 0.39437 0.15416 0.0
O344 O 0.27624 0.38664 0.39958 0.0
H345 H 0.34685 0.38781 0.32914 0.0
H346 H 0.29671 0.40981 0.21293 0.0
O347 O 0.32044 0.38745 0.47338 0.0
C348 C 0.26513 0.39798 0.36321 0.0
O349 O 0.27928 0.42265 0.34268 0.0
N350 N 0.34801 0.43736 0.41174 0.0
C351 C 0.39601 0.48297 0.4159 0.0
C352 C 0.39127 0.46192 0.47023 0.0
C353 C 0.36689 0.43922 0.46788 0.0
C354 C 0.35276 0.45722 0.35611 0.0
C355 C 0.37656 0.4802 0.35726 0.0
H356 H 0.36299 0.42376 0.51349 0.0
H357 H 0.33747 0.45556 0.31309 0.0
H358 H 0.29755 0.39163 0.60361 0.0
H359 H 0.3127 0.46749 0.65318 0.0
H360 H 0.34664 0.38071 0.15691 0.0
H361 H 0.40577 0.4635 0.51705 0.0
H362 H 0.37949 0.49599 0.31424 0.0
C363 C 0.88388 0.31712 0.69649 0.0
C364 C 0.88049 0.31433 0.78644 0.0
N365 N 0.89367 0.3029 0.81677 0.0
N366 N 0.89971 0.30809 0.67108 0.0
C367 C 0.9045 0.29875 0.74543 0.0
H368 H 0.8767 0.32672 0.65386 0.0
Co369 Co 0.91706 0.31266 0.56485 0.0
C370 C 0.97241 0.33043 0.62371 0.0
O371 O 0.98263 0.34422 0.55216 0.0
N372 N 0.93438 0.31657 0.45732 0.0
C373 C 0.95107 0.30582 0.34447 0.0
C374 C 0.94725 0.30406 0.43417 0.0
C375 C 0.93059 0.32567 0.38043 0.0
N376 N 0.94038 0.31932 0.31092 0.0
O377 O 0.90258 0.2754 0.55669 0.0
H378 H 0.95171 0.29258 0.47865 0.0
H379 H 0.91831 0.33412 0.37319 0.0
O380 O 0.94771 0.31757 0.6326 0.0
C381 C 0.88476 0.26648 0.49781 0.0
O382 O 0.87998 0.28282 0.45473 0.0
N383 N 0.92781 0.34835 0.56866 0.0
C384 C 0.92908 0.39598 0.57855 0.0
C385 C 0.94683 0.39174 0.62691 0.0
C386 C 0.94561 0.3675 0.62217 0.0
C387 C 0.9108 0.35252 0.52088 0.0
C388 C 0.91137 0.37616 0.52354 0.0
H389 H 0.95778 0.36388 0.66578 0.0
H390 H 0.89534 0.33662 0.48495 0.0
H391 H 0.9175 0.29093 0.74868 0.0
H392 H 0.87037 0.32144 0.82691 0.0
H393 H 0.95945 0.29642 0.30642 0.0
H394 H 0.96036 0.40637 0.67197 0.0
H395 H 0.89714 0.37845 0.48576 0.0
H396 H 0.06618 0.57041 0.0949 0.0
H397 H 0.14973 0.61525 0.11462 0.0
H398 H 0.15219 0.57562 0.11992 0.0
H399 H 0.13112 0.52853 0.11575 0.0
H400 H 0.04759 0.48262 0.10172 0.0
H401 H 0.04468 0.5223 0.0959 0.0
C402 C 0.08487 0.57144 0.10108 0.0
C403 C 0.10775 0.59583 0.10319 0.0
C404 C 0.0862 0.5484 0.10438 0.0
C405 C 0.13184 0.59681 0.11095 0.0
C406 C 0.13329 0.57413 0.11443 0.0
C407 C 0.11219 0.52707 0.11289 0.0
C408 C 0.08961 0.50251 0.10996 0.0
C409 C 0.11065 0.54986 0.11066 0.0
C410 C 0.06533 0.50121 0.10345 0.0
C411 C 0.06365 0.52392 0.1007 0.0
H412 H 0.53912 0.12297 0.151 0.0
H413 H 0.49769 0.05903 0.33166 0.0
H414 H 0.53526 0.05303 0.34076 0.0
H415 H 0.58079 0.06685 0.30126 0.0
H416 H 0.62005 0.12753 0.10954 0.0
H417 H 0.58201 0.13318 0.0984 0.0
C418 C 0.53777 0.10723 0.19083 0.0
C419 C 0.51531 0.0918 0.24147 0.0
C420 C 0.55914 0.10315 0.19338 0.0
C421 C 0.51475 0.0719 0.29383 0.0
C422 C 0.53622 0.06819 0.29846 0.0
C423 C 0.58071 0.08097 0.25611 0.0
C424 C 0.60299 0.09672 0.20599 0.0
C425 C 0.55863 0.08387 0.24928 0.0
C426 C 0.60292 0.11507 0.14795 0.0
C427 C 0.58127 0.1184 0.14209 0.0
H428 H 0.44666 0.49433 0.40394 0.0
H429 H 0.39884 0.52903 0.44758 0.0
H430 H 0.43742 0.57192 0.45766 0.0
H431 H 0.48453 0.59977 0.45076 0.0
H432 H 0.53314 0.56624 0.40229 0.0
H433 H 0.49463 0.52282 0.3962 0.0
C434 C 0.44483 0.51133 0.4162 0.0
C435 C 0.41998 0.50858 0.42493 0.0
C436 C 0.46721 0.53613 0.42038 0.0
C437 C 0.41777 0.53072 0.44003 0.0
C438 C 0.43981 0.55524 0.4459 0.0
C439 C 0.48674 0.58294 0.43978 0.0
C440 C 0.51169 0.58622 0.42787 0.0
C441 C 0.46459 0.5582 0.43569 0.0
C442 C 0.51415 0.56425 0.41149 0.0
C443 C 0.49214 0.53942 0.40837 0.0
H444 H 0.96741 0.4473 0.57459 0.0
H445 H 0.88501 0.39726 0.61153 0.0
H446 H 0.87896 0.43477 0.62099 0.0
H447 H 0.89636 0.48132 0.61282 0.0
H448 H 0.97872 0.53266 0.58053 0.0
H449 H 0.9854 0.49519 0.57323 0.0
C450 C 0.94824 0.44473 0.58558 0.0
C451 C 0.92665 0.4195 0.59122 0.0
C452 C 0.9448 0.46657 0.5907 0.0
C453 C 0.90187 0.41643 0.60536 0.0
C454 C 0.89838 0.43788 0.61099 0.0
C455 C 0.9159 0.48449 0.60585 0.0
C456 C 0.937 0.5099 0.59805 0.0
C457 C 0.91962 0.46298 0.6028 0.0
C458 C 0.96204 0.51335 0.58611 0.0
C459 C 0.96591 0.49192 0.58251 0.0
H460 H 0.44425 0.95361 0.72496 0.0
H461 H 0.39689 0.8701 0.73042 0.0
H462 H 0.43554 0.86591 0.73062 0.0
H463 H 0.48238 0.88547 0.73524 0.0
H464 H 0.53097 0.9687 0.71971 0.0
H465 H 0.49231 0.97344 0.71947 0.0
C466 C 0.44246 0.93453 0.72521 0.0
C467 C 0.41765 0.91223 0.7294 0.0
C468 C 0.46496 0.93217 0.72463 0.0
C469 C 0.41568 0.88763 0.72955 0.0
C470 C 0.4378 0.88517 0.72925 0.0
C471 C 0.48471 0.90471 0.72991 0.0
C472 C 0.50974 0.92665 0.72696 0.0
C473 C 0.46249 0.90726 0.72779 0.0
C474 C 0.51205 0.9514 0.72309 0.0
C475 C 0.4899 0.95413 0.72222 0.0
H476 H 0.57293 0.51405 0.90784 0.0
H477 H 0.61846 0.47576 0.90262 0.0
H478 H 0.579 0.43351 0.90623 0.0
H479 H 0.53171 0.40733 0.91157 0.0
H480 H 0.48535 0.44466 0.91491 0.0
H481 H 0.52486 0.48735 0.91036 0.0
C482 C 0.57411 0.49641 0.90775 0.0
C483 C 0.59857 0.49802 0.90461 0.0
C484 C 0.55122 0.47204 0.90919 0.0
C485 C 0.59987 0.47504 0.90386 0.0
C486 C 0.57732 0.45086 0.90631 0.0
C487 C 0.53025 0.42482 0.91194 0.0
C488 C 0.50568 0.42287 0.91454 0.0
C489 C 0.55293 0.44913 0.90906 0.0
C490 C 0.50407 0.44568 0.91279 0.0
C491 C 0.52665 0.47007 0.91059 0.0
H492 H 0.06255 0.36346 0.9027 0.0
H493 H 1.00033 0.35076 0.07905 0.0
H494 H 0.96938 0.33367 0.95776 0.0
H495 H 0.96064 0.32706 0.79877 0.0
H496 H 0.02312 0.34241 0.62037 0.0
H497 H 0.05313 0.35373 0.74474 0.0
C498 C 0.04225 0.35688 0.91492 0.0
C499 C 0.03407 0.35904 1.00011 0.0
C500 C 0.0245 0.34771 0.84397 0.0
C501 C 1.00742 0.34973 0.01433 0.0
C502 C 0.98961 0.33998 0.94476 0.0
C503 C 0.98068 0.33235 0.7871 0.0
C504 C 0.98958 0.33386 0.70011 0.0
C505 C 0.99803 0.33959 0.85882 0.0
C506 C 0.01576 0.34118 0.6865 0.0
C507 C 0.03296 0.3477 0.75767 0.0
H508 H 0.68698 1.00151 0.82804 0.0
H509 H 0.62788 0.93774 0.97716 0.0
H510 H 0.63685 0.96559 0.10454 0.0
H511 H 0.65975 0.00868 0.172 0.0
H512 H 0.72192 0.07204 0.03056 0.0
H513 H 0.71406 0.04381 0.90371 0.0
C514 C 0.67623 0.99367 0.88862 0.0
C515 C 0.6558 0.9677 0.89115 0.0
C516 C 0.68209 0.00984 0.96348 0.0
C517 C 0.64253 0.95788 0.9711 0.0
C518 C 0.64798 0.97377 0.04485 0.0
C519 C 0.67176 0.01639 0.11378 0.0
C520 C 0.69093 0.04282 0.11048 0.0
C521 C 0.66733 0.99993 0.04128 0.0
C522 C 0.70657 0.05208 0.03472 0.0
C523 C 0.70209 0.03586 0.96183 0.0
H524 H 0.64569 0.64175 0.34551 0.0
H525 H 0.65887 0.71444 0.237 0.0
H526 H 0.68074 0.70857 0.10975 0.0
H527 H 0.69507 0.68184 0.02664 0.0
H528 H 0.67972 0.60847 0.13662 0.0
H529 H 0.66012 0.61573 0.26515 0.0
C530 C 0.65355 0.65652 0.29466 0.0
C531 C 0.65054 0.67852 0.30125 0.0
C532 C 0.66575 0.65284 0.22119 0.0
C533 C 0.66076 0.69726 0.23386 0.0
C534 C 0.67329 0.69389 0.16087 0.0
C535 C 0.6875 0.66749 0.07882 0.0
C536 C 0.68905 0.64461 0.07103 0.0
C537 C 0.6757 0.6716 0.15328 0.0
C538 C 0.67896 0.62625 0.13968 0.0
C539 C 0.66765 0.63036 0.21385 0.0
H540 H 0.0145 0.66262 0.53325 0.0
H541 H 0.94452 0.63624 0.38022 0.0
H542 H 0.96985 0.65077 0.24557 0.0
H543 H 0.01187 0.66796 0.16881 0.0
H544 H 0.08164 0.69367 0.32232 0.0
H545 H 0.05669 0.68291 0.4577 0.0
C546 C 1.00475 0.66036 0.47069 0.0
C547 C 0.97744 0.64807 0.46776 0.0
C548 C 0.01955 0.66867 0.3927 0.0
C549 C 0.96536 0.64551 0.38553 0.0
C550 C 0.97992 0.65376 0.30786 0.0
C551 C 0.02165 0.6715 0.2319 0.0
C552 C 0.04877 0.6819 0.2346 0.0
C553 C 1.007 0.66488 0.31034 0.0
C554 C 0.06101 0.68629 0.31736 0.0
C555 C 0.04663 0.67983 0.39535 0.0
H556 H 0.33537 0.0219 0.35192 0.0
H557 H 0.41013 0.07572 0.46283 0.0
H558 H 0.40151 0.04785 0.58936 0.0
H559 H 0.37358 0.00779 0.66856 0.0
H560 H 0.29942 0.95213 0.55866 0.0
H561 H 0.30688 0.98094 0.43308 0.0
C562 C 0.34974 0.02753 0.40383 0.0
C563 C 0.3735 0.05107 0.39681 0.0
C564 C 0.34474 0.01099 0.47726 0.0
C565 C 0.39184 0.0578 0.46497 0.0
C566 C 0.38688 0.04183 0.53818 0.0
C567 C 0.35885 1.00196 0.61774 0.0
C568 C 0.33592 0.97776 0.62358 0.0
C569 C 0.36349 0.01836 0.54497 0.0
C570 C 0.31728 0.97059 0.55613 0.0
C571 C 0.32156 0.98708 0.48408 0.0
H572 H 0.3542 0.30752 0.7364 0.0
H573 H 0.37601 0.37763 0.88389 0.0
H574 H 0.35887 0.39306 0.76851 0.0
H575 H 0.33789 0.38738 0.62604 0.0
H576 H 0.31284 0.31675 0.47927 0.0
H577 H 0.33086 0.30094 0.59342 0.0
C578 C 0.35493 0.32602 0.74362 0.0
C579 C 0.36645 0.34125 0.81947 0.0
C580 C 0.34442 0.33481 0.67695 0.0
C581 C 0.36723 0.36526 0.82711 0.0
C582 C 0.3575 0.37428 0.76069 0.0
C583 C 0.33623 0.36846 0.61882 0.0
C584 C 0.32398 0.35334 0.54387 0.0
C585 C 0.34606 0.35928 0.68546 0.0
C586 C 0.32207 0.32883 0.53629 0.0
C587 C 0.3324 0.31977 0.60167 0.0
H588 H 0.15406 0.38236 0.34667 0.0
H589 H 0.16952 0.3865 0.06837 0.0
H590 H 0.20829 0.38292 0.09717 0.0
H591 H 0.24192 0.38734 0.20386 0.0
H592 H 0.22614 0.38285 0.48191 0.0
H593 H 0.18309 0.37726 0.4515 0.0
C594 C 0.16538 0.38141 0.29224 0.0
C595 C 0.15897 0.38462 0.20548 0.0
C596 C 0.18773 0.37959 0.30962 0.0
C597 C 0.17386 0.38367 0.13545 0.0
C598 C 0.19621 0.38196 0.15214 0.0
C599 C 0.22852 0.38394 0.25745 0.0
C600 C 0.23698 0.38519 0.34504 0.0
C601 C 0.20394 0.38109 0.23918 0.0
C602 C 0.2198 0.38139 0.41414 0.0
C603 C 0.19534 0.37857 0.39664 0.0
H604 H 0.78231 0.16122 0.47521 0.0
H605 H 0.80058 0.17312 0.19867 0.0
H606 H 0.84411 0.20903 0.23343 0.0
H607 H 0.87324 0.24181 0.34151 0.0
H608 H 0.85529 0.22947 0.61815 0.0
H609 H 0.8156 0.18853 0.58512 0.0
C610 C 0.79622 0.17113 0.42286 0.0
C611 C 0.78836 0.16469 0.33449 0.0
C612 C 0.82112 0.19176 0.44359 0.0
C613 C 0.80635 0.17761 0.26703 0.0
C614 C 0.83112 0.1983 0.287 0.0
C615 C 0.86114 0.22955 0.39466 0.0
C616 C 0.86711 0.23851 0.48216 0.0
C617 C 0.83825 0.20624 0.37482 0.0
C618 C 0.85126 0.22274 0.55058 0.0
C619 C 0.82839 0.19953 0.53146 0.0
H620 H 0.62288 0.85643 0.52751 0.0
H621 H 0.62312 0.83927 0.8029 0.0
H622 H 0.6277 0.80162 0.76546 0.0
H623 H 0.6227 0.76919 0.65378 0.0
H624 H 0.62248 0.78628 0.37824 0.0
H625 H 0.62739 0.82868 0.41554 0.0
C626 C 0.62516 0.8451 0.57918 0.0
C627 C 0.62297 0.85069 0.66786 0.0
C628 C 0.62735 0.82326 0.5568 0.0
C629 C 0.62531 0.83561 0.73442 0.0
C630 C 0.62754 0.81388 0.71284 0.0
C631 C 0.62478 0.7827 0.60201 0.0
C632 C 0.6223 0.77477 0.51341 0.0
C633 C 0.62733 0.80686 0.62425 0.0
C634 C 0.6247 0.79216 0.44669 0.0
C635 C 0.6272 0.81626 0.46819 0.0
H636 H 0.77725 0.62207 0.72393 0.0
H637 H 0.79335 0.61705 0.99759 0.0
H638 H 0.83527 0.62126 0.95826 0.0
H639 H 0.86254 0.61726 0.84417 0.0
H640 H 0.84633 0.62151 0.56997 0.0
H641 H 0.80947 0.6272 0.61068 0.0
C642 C 0.79053 0.62314 0.77504 0.0
C643 C 0.78248 0.61961 0.86368 0.0
C644 C 0.81428 0.62487 0.7514 0.0
C645 C 0.79945 0.62033 0.92931 0.0
C646 C 0.82322 0.62233 0.90657 0.0
C647 C 0.85142 0.62033 0.79351 0.0
C648 C 0.85694 0.61882 0.70423 0.0
C649 C 0.83018 0.62328 0.81763 0.0
C650 C 0.84252 0.6228 0.639 0.0
C651 C 0.8213 0.62578 0.6624 0.0
H652 H 0.24298 0.86241 0.9856 0.0
H653 H 0.22552 0.84619 0.70971 0.0
H654 H 0.18405 0.80763 0.74655 0.0
H655 H 0.15792 0.77418 0.85716 0.0
H656 H 0.17532 0.79044 0.1331 0.0
H657 H 0.21141 0.83368 0.09704 0.0
C658 C 0.22952 0.851 0.93373 0.0
C659 C 0.23717 0.85701 0.84509 0.0
C660 C 0.20597 0.82869 0.95569 0.0
C661 C 0.21984 0.84209 0.77823 0.0
C662 C 0.19631 0.81985 0.79943 0.0
C663 C 0.16903 0.78765 0.90938 0.0
C664 C 0.16416 0.77923 0.99762 0.0
C665 C 0.18987 0.81229 0.88784 0.0
C666 C 0.17861 0.79664 0.06492 0.0
C667 C 0.19942 0.82123 0.04412 0.0
H668 H 0.39818 0.16078 0.03744 0.0
H669 H 0.39771 0.17792 0.31267 0.0
H670 H 0.3889 0.21295 0.27517 0.0
H671 H 0.39015 0.24371 0.16319 0.0
H672 H 0.39073 0.22682 0.88776 0.0
H673 H 0.38998 0.18629 0.92547 0.0
C674 C 0.395 0.1715 0.0891 0.0
C675 C 0.3983 0.16669 0.17777 0.0
C676 C 0.3903 0.19184 0.06668 0.0
C677 C 0.39475 0.18099 0.24425 0.0
C678 C 0.39004 0.20122 0.22263 0.0
C679 C 0.38897 0.23054 0.11153 0.0
C680 C 0.39036 0.2381 0.02281 0.0
C681 C 0.38896 0.20754 0.13401 0.0
C682 C 0.38921 0.22118 0.95633 0.0
C683 C 0.38917 0.19819 0.97806 0.0
H684 H 0.132 0.41915 0.45929 0.0
H685 H 0.04995 0.3857 0.50339 0.0
H686 H 0.05784 0.39642 0.66069 0.0
H687 H 0.08771 0.41245 0.78537 0.0
H688 H 0.16981 0.44254 0.74309 0.0
H689 H 0.16228 0.43605 0.58532 0.0
C690 C 0.11598 0.41436 0.50383 0.0
C691 C 0.09048 0.40181 0.47092 0.0
C692 C 0.12062 0.4196 0.59426 0.0
C693 C 0.06967 0.3953 0.52827 0.0
C694 C 0.0742 0.40131 0.61782 0.0
C695 C 0.10408 0.41746 0.74255 0.0
C696 C 0.12935 0.42776 0.77772 0.0
C697 C 0.09956 0.41297 0.6518 0.0
C698 C 0.15017 0.4347 0.71914 0.0
C699 C 0.14587 0.43083 0.62846 0.0
H700 H 0.70775 0.09596 0.91841 0.0
H701 H 0.73532 0.17694 0.86799 0.0
H702 H 0.73447 0.16918 0.70915 0.0
H703 H 0.72605 0.13928 0.58512 0.0
H704 H 0.69779 0.05815 0.63703 0.0
H705 H 0.69917 0.06615 0.79512 0.0
C706 C 0.71398 0.11201 0.87288 0.0
C707 C 0.72189 0.13708 0.90513 0.0
C708 C 0.7133 0.10735 0.78198 0.0
C709 C 0.72914 0.15749 0.84482 0.0
C710 C 0.72869 0.15305 0.7541 0.0
C711 C 0.71994 0.12328 0.63083 0.0
C712 C 0.71176 0.09808 0.5989 0.0
C713 C 0.72073 0.12803 0.72191 0.0
C714 C 0.70443 0.07774 0.65963 0.0
C715 C 0.70514 0.08229 0.75012 0.0
H716 H 0.57582 0.68097 0.78154 0.0
H717 H 0.65864 0.72996 0.81545 0.0
H718 H 0.65238 0.73526 0.97056 0.0
H719 H 0.62361 0.7264 0.09673 0.0
H720 H 0.54083 0.67764 0.06412 0.0
H721 H 0.54686 0.6729 0.90758 0.0
C722 C 0.59253 0.69304 0.82236 0.0
C723 C 0.61769 0.70492 0.78595 0.0
C724 C 0.5888 0.6964 0.91177 0.0
C725 C 0.63906 0.72016 0.84102 0.0
C726 C 0.63551 0.72344 0.92998 0.0
C727 C 0.60685 0.71462 0.05568 0.0
C728 C 0.5818 0.70231 0.09269 0.0
C729 C 0.61049 0.71164 0.96603 0.0
C730 C 0.56031 0.68758 0.03762 0.0
C731 C 0.56377 0.68466 0.9481 0.0
H732 H 0.91675 0.63665 0.99366 0.0
H733 H 0.92885 0.57215 0.94146 0.0
H734 H 0.91416 0.55539 0.08992 0.0
H735 H 0.89738 0.55877 0.2336 0.0
H736 H 0.88565 0.62334 0.28805 0.0
H737 H 0.9007 0.6405 0.13965 0.0
C738 C 0.9166 0.6192 0.01546 0.0
C739 C 0.92394 0.60566 0.95686 0.0
C740 C 0.90787 0.60955 0.10072 0.0
C741 C 0.92318 0.5828 0.98542 0.0
C742 C 0.91473 0.5732 0.07009 0.0
C743 C 0.89767 0.57633 0.21241 0.0
C744 C 0.89001 0.58956 0.27103 0.0
C745 C 0.90671 0.58622 0.12786 0.0
C746 C 0.89129 0.61276 0.24364 0.0
C747 C 0.89998 0.6226 0.15909 0.0
H748 H 0.3327 0.88687 0.37658 0.0
H749 H 0.26269 0.88918 0.42998 0.0
H750 H 0.26353 0.90553 0.28107 0.0
H751 H 0.28445 0.91925 0.13611 0.0
H752 H 0.35515 0.91794 0.08451 0.0
H753 H 0.35397 0.90122 0.23265 0.0
C754 C 0.31741 0.89051 0.35479 0.0
C755 C 0.29744 0.88651 0.41317 0.0
C756 C 0.31841 0.90043 0.27016 0.0
C757 C 0.27811 0.89199 0.38545 0.0
C758 C 0.27868 0.90144 0.30076 0.0
C759 C 0.29983 0.91576 0.15794 0.0
C760 C 0.31995 0.91993 0.0998 0.0
C761 C 0.29889 0.90596 0.24283 0.0
C762 C 0.33946 0.91479 0.12828 0.0
C763 C 0.33875 0.90517 0.21269 0.0
H764 H 0.45174 0.33456 0.55942 0.0
H765 H 0.38151 0.26281 0.61296 0.0
H766 H 0.3657 0.26267 0.46361 0.0
H767 H 0.37208 0.28325 0.31861 0.0
H768 H 0.44182 0.3558 0.26689 0.0
H769 H 0.45774 0.35558 0.41534 0.0
C770 C 0.43323 0.3187 0.53746 0.0
C771 C 0.41791 0.2985 0.59577 0.0
C772 C 0.4241 0.31916 0.45277 0.0
C773 C 0.3936 0.27838 0.56819 0.0
C774 C 0.38456 0.27841 0.48336 0.0
C775 C 0.39051 0.29923 0.34047 0.0
C776 C 0.40575 0.31958 0.28232 0.0
C777 C 0.39956 0.29884 0.42542 0.0
C778 C 0.42986 0.33992 0.31077 0.0
C779 C 0.43897 0.33974 0.3953 0.0
H780 H 0.60146 0.86966 0.12063 0.0
H781 H 0.56608 0.91586 0.05863 0.0
H782 H 0.57703 0.93545 0.20551 0.0
H783 H 0.5961 0.93871 0.35326 0.0
H784 H 0.63096 0.892 0.41376 0.0
H785 H 0.62099 0.87339 0.26573 0.0
C786 C 0.59571 0.88364 0.13983 0.0
C787 C 0.58264 0.89102 0.07938 0.0
C788 C 0.60232 0.89497 0.22372 0.0
C789 C 0.57602 0.90977 0.10436 0.0
C790 C 0.58237 0.92104 0.18808 0.0
C791 C 0.60189 0.92484 0.33306 0.0
C792 C 0.61428 0.91672 0.39374 0.0
C793 C 0.59563 0.91387 0.24828 0.0
C794 C 0.62134 0.8984 0.36778 0.0
C795 C 0.61555 0.8877 0.28349 0.0
H796 H 0.74547 0.60403 0.29038 0.0
H797 H 0.6634 0.55815 0.24189 0.0
H798 H 0.65411 0.56776 0.39008 0.0
H799 H 0.66954 0.58823 0.53521 0.0
H800 H 0.75157 0.63134 0.58879 0.0
H801 H 0.76098 0.62404 0.43753 0.0
C802 C 0.72565 0.59611 0.31319 0.0
C803 C 0.70509 0.58017 0.25687 0.0
C804 C 0.72057 0.60137 0.39897 0.0
C805 C 0.67939 0.57006 0.28561 0.0
C806 C 0.67414 0.5757 0.36977 0.0
C807 C 0.68943 0.59632 0.51298 0.0
C808 C 0.70988 0.61058 0.57206 0.0
C809 C 0.69456 0.59124 0.4272 0.0
C810 C 0.73561 0.62044 0.54376 0.0
C811 C 0.74094 0.6162 0.45761 0.0
H812 H 0.13408 0.68063 0.46429 0.0
H813 H 0.13595 0.75267 0.40906 0.0
H814 H 0.11975 0.75269 0.55741 0.0
H815 H 0.10551 0.73227 0.70337 0.0
H816 H 0.10313 0.65985 0.75676 0.0
H817 H 0.11906 0.65983 0.60842 0.0
C818 C 0.13139 0.69656 0.48533 0.0
C819 C 0.1366 0.71686 0.42647 0.0
C820 C 0.12169 0.69618 0.56992 0.0
C821 C 0.13223 0.73696 0.45364 0.0
C822 C 0.12288 0.7369 0.53817 0.0
C823 C 0.10804 0.71628 0.68196 0.0
C824 C 0.10308 0.69603 0.7409 0.0
C825 C 0.11742 0.71653 0.59677 0.0
C826 C 0.10694 0.67569 0.71266 0.0
C827 C 0.11609 0.6757 0.62801 0.0
H828 H 0.40504 0.10165 0.57483 0.0
H829 H 0.47001 0.17797 0.62536 0.0
H830 H 0.46432 0.16978 0.78352 0.0
H831 H 0.44247 0.14009 0.90714 0.0
H832 H 0.37786 0.0636 0.85592 0.0
H833 H 0.38211 0.07264 0.69804 0.0
C834 C 0.41793 0.11663 0.61979 0.0
C835 C 0.43823 0.14031 0.58703 0.0
C836 C 0.41476 0.11164 0.71087 0.0
C837 C 0.45453 0.1594 0.64785 0.0
C838 C 0.45124 0.15475 0.7386 0.0
C839 C 0.42904 0.12549 0.86182 0.0
C840 C 0.40986 0.10112 0.89396 0.0
C841 C 0.43167 0.13079 0.77084 0.0
C842 C 0.39299 0.08236 0.83337 0.0
C843 C 0.39534 0.08758 0.74294 0.0
H844 H 0.30977 0.39037 0.74269 0.0
H845 H 0.29481 0.45336 0.79116 0.0
H846 H 0.29787 0.44834 0.94927 0.0
H847 H 0.30711 0.42768 0.07332 0.0
H848 H 0.32101 0.36407 0.02491 0.0
H849 H 0.31533 0.36736 0.86705 0.0
C850 C 0.30676 0.40282 0.78721 0.0
C851 C 0.30238 0.42249 0.75391 0.0
C852 C 0.3085 0.39981 0.87834 0.0
C853 C 0.29872 0.43841 0.81407 0.0
C854 C 0.30038 0.43549 0.90481 0.0
C855 C 0.30865 0.41434 0.0285 0.0
C856 C 0.31466 0.39574 0.0612 0.0
C857 C 0.30567 0.41653 0.93761 0.0
C858 C 0.31687 0.37886 1.00159 0.0
C859 C 0.31364 0.38074 0.91121 0.0
H860 H 0.92996 0.284 0.18316 0.0
H861 H 0.93676 0.35843 0.2356 0.0
H862 H 0.92141 0.35939 0.08682 0.0
H863 H 0.90523 0.33857 0.94297 0.0
H864 H 0.89921 0.26461 0.8893 0.0
H865 H 0.91506 0.26381 0.03773 0.0
C866 C 0.92856 0.30064 0.16143 0.0
C867 C 0.93451 0.32115 0.22013 0.0
C868 C 0.91946 0.30089 0.07627 0.0
C869 C 0.93214 0.34238 0.19154 0.0
C870 C 0.92331 0.34289 0.10674 0.0
C871 C 0.90698 0.3221 0.96455 0.0
C872 C 0.90066 0.30144 0.90633 0.0
C873 C 0.91654 0.32207 0.04905 0.0
C874 C 0.90377 0.28057 0.93372 0.0
C875 C 0.91293 0.28019 0.01817 0.0
loop_
_geom_bond_atom_site_label_1
_geom_bond_atom_site_label_2
_geom_bond_distance
_geom_bond_site_symmetry_2
_ccdc_geom_bond_type
C0 C1 1.351 . S
C0 N3 1.368 . S
C0 H5 0.931 . S
C1 C0 1.351 . S
C1 N2 1.373 . S
C1 H29 0.930 . S
N2 C1 1.373 . S
N2 C4 1.340 . S
N3 C0 1.368 . S
N3 C4 1.321 . S
N3 Co6 2.135 1_556 S
C4 N2 1.340 . S
C4 N3 1.321 . S
C4 H28 0.930 . S
H5 C0 0.931 . S
Co6 N3 2.135 1_554 S
Co6 N9 2.121 . S
Co6 O14 2.055 . S
Co6 O17 2.039 . S
Co6 N20 2.140 . S
C7 O8 1.227 . S
C7 O17 1.265 1_556 S
O8 C7 1.227 . S
N9 Co6 2.121 . S
N9 C11 1.375 . S
N9 C12 1.313 . S
C10 C11 1.338 . S
C10 N13 1.377 . S
C10 H30 0.930 . S
C11 N9 1.375 . S
C11 C10 1.338 . S
C11 H15 0.931 . S
C12 N9 1.313 . S
C12 N13 1.344 . S
C12 H16 0.930 . S
N13 C10 1.377 . S
N13 C12 1.344 . S
O14 Co6 2.055 . S
O14 C18 1.253 . S
H15 C11 0.931 . S
H16 C12 0.930 . S
O17 Co6 2.039 . S
O17 C7 1.265 1_554 S
C18 O14 1.253 . S
C18 O19 1.227 . S
O19 C18 1.227 . S
N20 Co6 2.140 . S
N20 C23 1.346 1_554 S
N20 C24 1.345 . S
C21 C22 1.387 1_554 S
C21 C25 1.391 . S
C22 C21 1.387 1_556 S
C22 C23 1.369 . S
C22 H31 0.929 . S
C23 N20 1.346 1_556 S
C23 C22 1.369 . S
C23 H26 0.928 . S
C24 N20 1.345 . S
C24 C25 1.371 . S
C24 H27 0.931 . S
C25 C21 1.391 . S
C25 C24 1.371 . S
C25 H32 0.930 . S
H26 C23 0.928 . S
H27 C24 0.931 . S
H28 C4 0.930 . S
H29 C1 0.930 . S
H30 C10 0.930 . S
H31 C22 0.929 . S
H32 C25 0.930 . S
C33 C34 1.351 1_554 S
C33 N36 1.368 . S
C33 H38 0.931 . S
C34 C33 1.351 1_556 S
C34 N35 1.373 . S
C34 H62 0.930 . S
N35 C34 1.373 . S
N35 C37 1.340 1_556 S
N36 C33 1.368 . S
N36 C37 1.321 . S
N36 Co39 2.135 . S
C37 N35 1.340 1_554 S
C37 N36 1.321 . S
C37 H61 0.930 . S
H38 C33 0.931 . S
Co39 N36 2.135 . S
Co39 N42 2.121 . S
Co39 O47 2.055 . S
Co39 O50 2.039 . S
Co39 N53 2.140 . S
C40 O41 1.227 . S
C40 O50 1.265 . S
O41 C40 1.227 . S
N42 Co39 2.121 . S
N42 C44 1.375 . S
N42 C45 1.313 . S
C43 C44 1.338 . S
C43 N46 1.377 . S
C43 H63 0.930 . S
C44 N42 1.375 . S
C44 C43 1.338 . S
C44 H48 0.931 . S
C45 N42 1.313 . S
C45 N46 1.344 . S
C45 H49 0.930 . S
N46 C43 1.377 . S
N46 C45 1.344 . S
O47 Co39 2.055 . S
O47 C51 1.253 . S
H48 C44 0.931 . S
H49 C45 0.930 . S
O50 Co39 2.039 . S
O50 C40 1.265 . S
C51 O47 1.253 . S
C51 O52 1.227 . S
O52 C51 1.227 . S
N53 Co39 2.140 . S
N53 C56 1.346 . S
N53 C57 1.345 . S
C54 C55 1.387 . S
C54 C58 1.391 . S
C55 C54 1.387 . S
C55 C56 1.369 . S
C55 H64 0.929 . S
C56 N53 1.346 . S
C56 C55 1.369 . S
C56 H59 0.928 . S
C57 N53 1.345 . S
C57 C58 1.371 . S
C57 H60 0.931 . S
C58 C54 1.391 . S
C58 C57 1.371 . S
C58 H65 0.930 . S
H59 C56 0.928 . S
H60 C57 0.931 . S
H61 C37 0.930 . S
H62 C34 0.930 . S
H63 C43 0.930 . S
H64 C55 0.929 . S
H65 C58 0.930 . S
C66 C67 1.351 . S
C66 N69 1.368 . S
C66 H71 0.931 . S
C67 C66 1.351 . S
C67 N68 1.373 . S
C67 H95 0.930 . S
N68 C67 1.373 . S
N68 C70 1.340 . S
N69 C66 1.368 . S
N69 C70 1.321 . S
N69 Co72 2.135 . S
C70 N68 1.340 . S
C70 N69 1.321 . S
C70 H94 0.930 . S
H71 C66 0.931 . S
Co72 N69 2.135 . S
Co72 N75 2.121 . S
Co72 O80 2.055 . S
Co72 O83 2.039 . S
Co72 N86 2.140 . S
C73 O74 1.227 . S
C73 O83 1.265 . S
O74 C73 1.227 . S
N75 Co72 2.121 . S
N75 C77 1.375 . S
N75 C78 1.313 . S
C76 C77 1.338 . S
C76 N79 1.377 . S
C76 H96 0.930 . S
C77 N75 1.375 . S
C77 C76 1.338 . S
C77 H81 0.931 . S
C78 N75 1.313 . S
C78 N79 1.344 . S
C78 H82 0.930 . S
N79 C76 1.377 . S
N79 C78 1.344 . S
O80 Co72 2.055 . S
O80 C84 1.253 . S
H81 C77 0.931 . S
H82 C78 0.930 . S
O83 Co72 2.039 . S
O83 C73 1.265 . S
C84 O80 1.253 . S
C84 O85 1.227 . S
O85 C84 1.227 . S
N86 Co72 2.140 . S
N86 C89 1.346 . S
N86 C90 1.345 . S
C87 C88 1.387 . S
C87 C91 1.391 . S
C88 C87 1.387 . S
C88 C89 1.369 . S
C88 H97 0.929 . S
C89 N86 1.346 . S
C89 C88 1.369 . S
C89 H92 0.928 . S
C90 N86 1.345 . S
C90 C91 1.371 . S
C90 H93 0.931 . S
C91 C87 1.391 . S
C91 C90 1.371 . S
C91 H98 0.930 . S
H92 C89 0.928 . S
H93 C90 0.931 . S
H94 C70 0.930 . S
H95 C67 0.930 . S
H96 C76 0.930 . S
H97 C88 0.929 . S
H98 C91 0.930 . S
C99 C100 1.351 . S
C99 N102 1.368 . S
C99 H104 0.931 . S
C100 C99 1.351 . S
C100 N101 1.373 . S
C100 H128 0.930 . S
N101 C100 1.373 . S
N101 C103 1.340 . S
N102 C99 1.368 . S
N102 C103 1.321 . S
N102 Co105 2.135 . S
C103 N101 1.340 . S
C103 N102 1.321 . S
C103 H127 0.930 . S
H104 C99 0.931 . S
Co105 N102 2.135 . S
Co105 N108 2.121 . S
Co105 O113 2.055 . S
Co105 O116 2.039 . S
Co105 N119 2.140 . S
C106 O107 1.227 . S
C106 O116 1.265 . S
O107 C106 1.227 . S
N108 Co105 2.121 . S
N108 C110 1.375 . S
N108 C111 1.313 . S
C109 C110 1.338 . S
C109 N112 1.377 . S
C109 H129 0.930 . S
C110 N108 1.375 . S
C110 C109 1.338 . S
C110 H114 0.931 . S
C111 N108 1.313 . S
C111 N112 1.344 . S
C111 H115 0.930 . S
N112 C109 1.377 . S
N112 C111 1.344 . S
O113 Co105 2.055 . S
O113 C117 1.253 . S
H114 C110 0.931 . S
H115 C111 0.930 . S
O116 Co105 2.039 . S
O116 C106 1.265 . S
C117 O113 1.253 . S
C117 O118 1.227 . S
O118 C117 1.227 . S
N119 Co105 2.140 . S
N119 C122 1.346 . S
N119 C123 1.345 . S
C120 C121 1.387 . S
C120 C124 1.391 . S
C121 C120 1.387 . S
C121 C122 1.369 . S
C121 H130 0.929 . S
C122 N119 1.346 . S
C122 C121 1.369 . S
C122 H125 0.928 . S
C123 N119 1.345 . S
C123 C124 1.371 . S
C123 H126 0.931 . S
C124 C120 1.391 . S
C124 C123 1.371 . S
C124 H131 0.930 . S
H125 C122 0.928 . S
H126 C123 0.931 . S
H127 C103 0.930 . S
H128 C100 0.930 . S
H129 C109 0.930 . S
H130 C121 0.929 . S
H131 C124 0.930 . S
C132 C133 1.351 . S
C132 N135 1.368 . S
C132 H137 0.931 . S
C133 C132 1.351 . S
C133 N134 1.373 . S
C133 H161 0.930 . S
N134 C133 1.373 . S
N134 C136 1.340 . S
N135 C132 1.368 . S
N135 C136 1.321 . S
N135 Co138 2.135 . S
C136 N134 1.340 . S
C136 N135 1.321 . S
C136 H160 0.930 . S
H137 C132 0.931 . S
Co138 N135 2.135 . S
Co138 N141 2.121 . S
Co138 O146 2.055 . S
Co138 O149 2.039 . S
Co138 N152 2.140 . S
C139 O140 1.227 . S
C139 O149 1.265 . S
O140 C139 1.227 . S
N141 Co138 2.121 . S
N141 C143 1.375 . S
N141 C144 1.313 . S
C142 C143 1.338 . S
C142 N145 1.377 . S
C142 H162 0.930 . S
C143 N141 1.375 . S
C143 C142 1.338 . S
C143 H147 0.931 . S
C144 N141 1.313 . S
C144 N145 1.344 . S
C144 H148 0.930 . S
N145 C142 1.377 . S
N145 C144 1.344 . S
O146 Co138 2.055 . S
O146 C150 1.253 . S
H147 C143 0.931 . S
H148 C144 0.930 . S
O149 Co138 2.039 . S
O149 C139 1.265 . S
C150 O146 1.253 . S
C150 O151 1.227 . S
O151 C150 1.227 . S
N152 Co138 2.140 . S
N152 C155 1.346 . S
N152 C156 1.345 . S
C153 C154 1.387 . S
C153 C157 1.391 . S
C154 C153 1.387 . S
C154 C155 1.369 . S
C154 H163 0.929 . S
C155 N152 1.346 . S
C155 C154 1.369 . S
C155 H158 0.928 . S
C156 N152 1.345 . S
C156 C157 1.371 . S
C156 H159 0.931 . S
C157 C153 1.391 . S
C157 C156 1.371 . S
C157 H164 0.930 . S
H158 C155 0.928 . S
H159 C156 0.931 . S
H160 C136 0.930 . S
H161 C133 0.930 . S
H162 C142 0.930 . S
H163 C154 0.929 . S
H164 C157 0.930 . S
C165 C166 1.351 . S
C165 N168 1.368 . S
C165 H170 0.931 . S
C166 C165 1.351 . S
C166 N167 1.373 . S
C166 H194 0.930 . S
N167 C166 1.373 . S
N167 C169 1.340 . S
N168 C165 1.368 . S
N168 C169 1.321 . S
N168 Co171 2.135 . S
C169 N167 1.340 . S
C169 N168 1.321 . S
C169 H193 0.930 . S
H170 C165 0.931 . S
Co171 N168 2.135 . S
Co171 N174 2.121 1_556 S
Co171 O179 2.055 . S
Co171 O182 2.039 . S
Co171 N185 2.140 . S
C172 O173 1.227 . S
C172 O182 1.265 . S
O173 C172 1.227 . S
N174 Co171 2.121 1_554 S
N174 C176 1.375 . S
N174 C177 1.313 . S
C175 C176 1.338 . S
C175 N178 1.377 . S
C175 H195 0.930 . S
C176 N174 1.375 . S
C176 C175 1.338 . S
C176 H180 0.931 . S
C177 N174 1.313 . S
C177 N178 1.344 . S
C177 H181 0.930 . S
N178 C175 1.377 . S
N178 C177 1.344 . S
O179 Co171 2.055 . S
O179 C183 1.253 . S
H180 C176 0.931 . S
H181 C177 0.930 . S
O182 Co171 2.039 . S
O182 C172 1.265 . S
C183 O179 1.253 . S
C183 O184 1.227 . S
O184 C183 1.227 . S
N185 Co171 2.140 . S
N185 C188 1.346 . S
N185 C189 1.345 . S
C186 C187 1.387 . S
C186 C190 1.391 . S
C187 C186 1.387 . S
C187 C188 1.369 . S
C187 H196 0.929 . S
C188 N185 1.346 . S
C188 C187 1.369 . S
C188 H191 0.928 . S
C189 N185 1.345 . S
C189 C190 1.371 . S
C189 H192 0.931 1_556 S
C190 C186 1.391 . S
C190 C189 1.371 . S
C190 H197 0.930 1_556 S
H191 C188 0.928 . S
H192 C189 0.931 1_554 S
H193 C169 0.930 . S
H194 C166 0.930 . S
H195 C175 0.930 . S
H196 C187 0.929 . S
H197 C190 0.930 1_554 S
C198 C199 1.351 1_556 S
C198 N201 1.368 . S
C198 H203 0.931 . S
C199 C198 1.351 1_554 S
C199 N200 1.373 . S
C199 H227 0.930 . S
N200 C199 1.373 . S
N200 C202 1.340 1_554 S
N201 C198 1.368 . S
N201 C202 1.321 . S
N201 Co204 2.135 . S
C202 N200 1.340 1_556 S
C202 N201 1.321 . S
C202 H226 0.930 . S
H203 C198 0.931 . S
Co204 N201 2.135 . S
Co204 N207 2.121 . S
Co204 O212 2.055 . S
Co204 O215 2.039 . S
Co204 N218 2.140 . S
C205 O206 1.227 . S
C205 O215 1.265 . S
O206 C205 1.227 . S
N207 Co204 2.121 . S
N207 C209 1.375 . S
N207 C210 1.313 . S
C208 C209 1.338 . S
C208 N211 1.377 . S
C208 H228 0.930 . S
C209 N207 1.375 . S
C209 C208 1.338 . S
C209 H213 0.931 . S
C210 N207 1.313 . S
C210 N211 1.344 . S
C210 H214 0.930 . S
N211 C208 1.377 . S
N211 C210 1.344 . S
O212 Co204 2.055 . S
O212 C216 1.253 . S
H213 C209 0.931 . S
H214 C210 0.930 . S
O215 Co204 2.039 . S
O215 C205 1.265 . S
C216 O212 1.253 . S
C216 O217 1.227 . S
O217 C216 1.227 . S
N218 Co204 2.140 . S
N218 C221 1.346 . S
N218 C222 1.345 . S
C219 C220 1.387 . S
C219 C223 1.391 . S
C220 C219 1.387 . S
C220 C221 1.369 . S
C220 H229 0.929 . S
C221 N218 1.346 . S
C221 C220 1.369 . S
C221 H224 0.928 . S
C222 N218 1.345 . S
C222 C223 1.371 . S
C222 H225 0.931 . S
C223 C219 1.391 . S
C223 C222 1.371 . S
C223 H230 0.930 . S
H224 C221 0.928 . S
H225 C222 0.931 . S
H226 C202 0.930 . S
H227 C199 0.930 . S
H228 C208 0.930 . S
H229 C220 0.929 . S
H230 C223 0.930 . S
C231 C232 1.351 . S
C231 N234 1.368 . S
C231 H236 0.931 . S
C232 C231 1.351 . S
C232 N233 1.373 . S
C232 H260 0.930 . S
N233 C232 1.373 . S
N233 C235 1.340 . S
N234 C231 1.368 . S
N234 C235 1.321 . S
N234 Co237 2.135 1_554 S
C235 N233 1.340 . S
C235 N234 1.321 . S
C235 H259 0.930 . S
H236 C231 0.931 . S
Co237 N234 2.135 1_556 S
Co237 N240 2.121 . S
Co237 O245 2.055 . S
Co237 O248 2.039 . S
Co237 N251 2.140 . S
C238 O239 1.227 . S
C238 O248 1.265 1_554 S
O239 C238 1.227 . S
N240 Co237 2.121 . S
N240 C242 1.375 . S
N240 C243 1.313 . S
C241 C242 1.338 . S
C241 N244 1.377 . S
C241 H261 0.930 . S
C242 N240 1.375 . S
C242 C241 1.338 . S
C242 H246 0.931 . S
C243 N240 1.313 . S
C243 N244 1.344 . S
C243 H247 0.930 . S
N244 C241 1.377 . S
N244 C243 1.344 . S
O245 Co237 2.055 . S
O245 C249 1.253 . S
H246 C242 0.931 . S
H247 C243 0.930 . S
O248 Co237 2.039 . S
O248 C238 1.265 1_556 S
C249 O245 1.253 . S
C249 O250 1.227 . S
O250 C249 1.227 . S
N251 Co237 2.140 . S
N251 C254 1.346 1_556 S
N251 C255 1.345 . S
C252 C253 1.387 1_556 S
C252 C256 1.391 . S
C253 C252 1.387 1_554 S
C253 C254 1.369 . S
C253 H262 0.929 . S
C254 N251 1.346 1_554 S
C254 C253 1.369 . S
C254 H257 0.928 . S
C255 N251 1.345 . S
C255 C256 1.371 . S
C255 H258 0.931 . S
C256 C252 1.391 . S
C256 C255 1.371 . S
C256 H263 0.930 . S
H257 C254 0.928 . S
H258 C255 0.931 . S
H259 C235 0.930 . S
H260 C232 0.930 . S
H261 C241 0.930 . S
H262 C253 0.929 . S
H263 C256 0.930 . S
C264 C265 1.351 . S
C264 N267 1.368 . S
C264 H269 0.931 . S
C265 C264 1.351 . S
C265 N266 1.373 . S
C265 H293 0.930 . S
N266 C265 1.373 . S
N266 C268 1.340 . S
N267 C264 1.368 . S
N267 C268 1.321 . S
N267 Co270 2.135 . S
C268 N266 1.340 . S
C268 N267 1.321 . S
C268 H292 0.930 . S
H269 C264 0.931 . S
Co270 N267 2.135 . S
Co270 N273 2.121 1_554 S
Co270 O278 2.055 . S
Co270 O281 2.039 . S
Co270 N284 2.140 . S
C271 O272 1.227 . S
C271 O281 1.265 . S
O272 C271 1.227 . S
N273 Co270 2.121 1_556 S
N273 C275 1.375 . S
N273 C276 1.313 . S
C274 C275 1.338 . S
C274 N277 1.377 . S
C274 H294 0.930 . S
C275 N273 1.375 . S
C275 C274 1.338 . S
C275 H279 0.931 1_556 S
C276 N273 1.313 . S
C276 N277 1.344 . S
C276 H280 0.930 . S
N277 C274 1.377 . S
N277 C276 1.344 . S
O278 Co270 2.055 . S
O278 C282 1.253 . S
H279 C275 0.931 1_554 S
H280 C276 0.930 . S
O281 Co270 2.039 . S
O281 C271 1.265 . S
C282 O278 1.253 . S
C282 O283 1.227 . S
O283 C282 1.227 . S
N284 Co270 2.140 . S
N284 C287 1.346 . S
N284 C288 1.345 . S
C285 C286 1.387 . S
C285 C289 1.391 . S
C286 C285 1.387 . S
C286 C287 1.369 . S
C286 H295 0.929 . S
C287 N284 1.346 . S
C287 C286 1.369 . S
C287 H290 0.928 . S
C288 N284 1.345 . S
C288 C289 1.371 . S
C288 H291 0.931 1_554 S
C289 C285 1.391 . S
C289 C288 1.371 . S
C289 H296 0.930 1_554 S
H290 C287 0.928 . S
H291 C288 0.931 1_556 S
H292 C268 0.930 . S
H293 C265 0.930 . S
H294 C274 0.930 . S
H295 C286 0.929 . S
H296 C289 0.930 1_556 S
C297 C298 1.351 . S
C297 N300 1.368 . S
C297 H302 0.931 . S
C298 C297 1.351 . S
C298 N299 1.373 . S
C298 H326 0.930 . S
N299 C298 1.373 . S
N299 C301 1.340 . S
N300 C297 1.368 . S
N300 C301 1.321 . S
N300 Co303 2.135 . S
C301 N299 1.340 . S
C301 N300 1.321 . S
C301 H325 0.930 . S
H302 C297 0.931 . S
Co303 N300 2.135 . S
Co303 N306 2.121 . S
Co303 O311 2.055 . S
Co303 O314 2.039 . S
Co303 N317 2.140 . S
C304 O305 1.227 . S
C304 O314 1.265 . S
O305 C304 1.227 . S
N306 Co303 2.121 . S
N306 C308 1.375 . S
N306 C309 1.313 . S
C307 C308 1.338 . S
C307 N310 1.377 . S
C307 H327 0.930 . S
C308 N306 1.375 . S
C308 C307 1.338 . S
C308 H312 0.931 . S
C309 N306 1.313 . S
C309 N310 1.344 . S
C309 H313 0.930 . S
N310 C307 1.377 . S
N310 C309 1.344 . S
O311 Co303 2.055 . S
O311 C315 1.253 . S
H312 C308 0.931 . S
H313 C309 0.930 . S
O314 Co303 2.039 . S
O314 C304 1.265 . S
C315 O311 1.253 . S
C315 O316 1.227 . S
O316 C315 1.227 . S
N317 Co303 2.140 . S
N317 C320 1.346 . S
N317 C321 1.345 . S
C318 C319 1.387 . S
C318 C322 1.391 . S
C319 C318 1.387 . S
C319 C320 1.369 . S
C319 H328 0.929 . S
C320 N317 1.346 . S
C320 C319 1.369 . S
C320 H323 0.928 . S
C321 N317 1.345 . S
C321 C322 1.371 . S
C321 H324 0.931 . S
C322 C318 1.391 . S
C322 C321 1.371 . S
C322 H329 0.930 . S
H323 C320 0.928 . S
H324 C321 0.931 . S
H325 C301 0.930 . S
H326 C298 0.930 . S
H327 C307 0.930 . S
H328 C319 0.929 . S
H329 C322 0.930 . S
C330 C331 1.351 . S
C330 N333 1.368 . S
C330 H335 0.931 . S
C331 C330 1.351 . S
C331 N332 1.373 . S
C331 H359 0.930 . S
N332 C331 1.373 . S
N332 C334 1.340 . S
N333 C330 1.368 . S
N333 C334 1.321 . S
N333 Co336 2.135 . S
C334 N332 1.340 . S
C334 N333 1.321 . S
C334 H358 0.930 . S
H335 C330 0.931 . S
Co336 N333 2.135 . S
Co336 N339 2.121 . S
Co336 O344 2.055 . S
Co336 O347 2.039 . S
Co336 N350 2.140 . S
C337 O338 1.227 . S
C337 O347 1.265 . S
O338 C337 1.227 . S
N339 Co336 2.121 . S
N339 C341 1.375 . S
N339 C342 1.313 . S
C340 C341 1.338 . S
C340 N343 1.377 . S
C340 H360 0.930 . S
C341 N339 1.375 . S
C341 C340 1.338 . S
C341 H345 0.931 . S
C342 N339 1.313 . S
C342 N343 1.344 . S
C342 H346 0.930 . S
N343 C340 1.377 . S
N343 C342 1.344 . S
O344 Co336 2.055 . S
O344 C348 1.253 . S
H345 C341 0.931 . S
H346 C342 0.930 . S
O347 Co336 2.039 . S
O347 C337 1.265 . S
C348 O344 1.253 . S
C348 O349 1.227 . S
O349 C348 1.227 . S
N350 Co336 2.140 . S
N350 C353 1.346 . S
N350 C354 1.345 . S
C351 C352 1.387 . S
C351 C355 1.391 . S
C352 C351 1.387 . S
C352 C353 1.369 . S
C352 H361 0.929 . S
C353 N350 1.346 . S
C353 C352 1.369 . S
C353 H356 0.928 . S
C354 N350 1.345 . S
C354 C355 1.371 . S
C354 H357 0.931 . S
C355 C351 1.391 . S
C355 C354 1.371 . S
C355 H362 0.930 . S
H356 C353 0.928 . S
H357 C354 0.931 . S
H358 C334 0.930 . S
H359 C331 0.930 . S
H360 C340 0.930 . S
H361 C352 0.929 . S
H362 C355 0.930 . S
C363 C364 1.351 . S
C363 N366 1.368 . S
C363 H368 0.931 . S
C364 C363 1.351 . S
C364 N365 1.373 . S
C364 H392 0.930 . S
N365 C364 1.373 . S
N365 C367 1.340 . S
N366 C363 1.368 . S
N366 C367 1.321 . S
N366 Co369 2.135 . S
C367 N365 1.340 . S
C367 N366 1.321 . S
C367 H391 0.930 . S
H368 C363 0.931 . S
Co369 N366 2.135 . S
Co369 N372 2.121 . S
Co369 O377 2.055 . S
Co369 O380 2.039 . S
Co369 N383 2.140 . S
C370 O371 1.227 . S
C370 O380 1.265 . S
O371 C370 1.227 . S
N372 Co369 2.121 . S
N372 C374 1.375 . S
N372 C375 1.313 . S
C373 C374 1.338 . S
C373 N376 1.377 . S
C373 H393 0.930 . S
C374 N372 1.375 . S
C374 C373 1.338 . S
C374 H378 0.931 . S
C375 N372 1.313 . S
C375 N376 1.344 . S
C375 H379 0.930 . S
N376 C373 1.377 . S
N376 C375 1.344 . S
O377 Co369 2.055 . S
O377 C381 1.253 . S
H378 C374 0.931 . S
H379 C375 0.930 . S
O380 Co369 2.039 . S
O380 C370 1.265 . S
C381 O377 1.253 . S
C381 O382 1.227 . S
O382 C381 1.227 . S
N383 Co369 2.140 . S
N383 C386 1.346 . S
N383 C387 1.345 . S
C384 C385 1.387 . S
C384 C388 1.391 . S
C385 C384 1.387 . S
C385 C386 1.369 . S
C385 H394 0.929 . S
C386 N383 1.346 . S
C386 C385 1.369 . S
C386 H389 0.928 . S
C387 N383 1.345 . S
C387 C388 1.371 . S
C387 H390 0.931 . S
C388 C384 1.391 . S
C388 C387 1.371 . S
C388 H395 0.930 . S
H389 C386 0.928 . S
H390 C387 0.931 . S
H391 C367 0.930 . S
H392 C364 0.930 . S
H393 C373 0.930 . S
H394 C385 0.929 . S
H395 C388 0.930 . S
H396 C402 0.930 . S
H397 C405 0.930 . S
H398 C406 0.930 1_556 S
H399 C407 0.930 1_556 S
H400 C410 0.930 . S
H401 C411 0.930 . S
C402 H396 0.930 . S
C402 C403 1.355 . S
C402 C404 1.415 . S
C403 C402 1.355 . S
C403 C405 1.419 . S
C404 C402 1.415 . S
C404 C409 1.425 . S
C404 C411 1.409 . S
C405 H397 0.930 . S
C405 C403 1.419 . S
C405 C406 1.362 . S
C406 H398 0.930 1_554 S
C406 C405 1.362 . S
C406 C409 1.409 . S
C407 H399 0.930 1_554 S
C407 C408 1.355 . S
C407 C409 1.415 . S
C408 C407 1.355 . S
C408 C410 1.419 . S
C409 C404 1.425 . S
C409 C406 1.409 . S
C409 C407 1.415 . S
C410 H400 0.930 . S
C410 C408 1.419 . S
C410 C411 1.362 . S
C411 H401 0.930 . S
C411 C404 1.409 . S
C411 C410 1.362 . S
H412 C418 0.930 . S
H413 C421 0.930 . S
H414 C422 0.930 . S
H415 C423 0.930 . S
H416 C426 0.930 . S
H417 C427 0.930 . S
C418 H412 0.930 . S
C418 C419 1.355 . S
C418 C420 1.415 . S
C419 C418 1.355 . S
C419 C421 1.419 . S
C420 C418 1.415 . S
C420 C425 1.425 . S
C420 C427 1.409 . S
C421 H413 0.930 . S
C421 C419 1.419 . S
C421 C422 1.362 . S
C422 H414 0.930 . S
C422 C421 1.362 . S
C422 C425 1.409 . S
C423 H415 0.930 . S
C423 C424 1.355 . S
C423 C425 1.415 . S
C424 C423 1.355 . S
C424 C426 1.419 . S
C425 C420 1.425 . S
C425 C422 1.409 . S
C425 C423 1.415 . S
C426 H416 0.930 . S
C426 C424 1.419 . S
C426 C427 1.362 . S
C427 H417 0.930 . S
C427 C420 1.409 . S
C427 C426 1.362 . S
H428 C434 0.930 . S
H429 C437 0.930 . S
H430 C438 0.930 . S
H431 C439 0.930 . S
H432 C442 0.930 . S
H433 C443 0.930 . S
C434 H428 0.930 . S
C434 C435 1.355 . S
C434 C436 1.415 . S
C435 C434 1.355 . S
C435 C437 1.419 . S
C436 C434 1.415 . S
C436 C441 1.425 . S
C436 C443 1.409 . S
C437 H429 0.930 . S
C437 C435 1.419 . S
C437 C438 1.362 . S
C438 H430 0.930 . S
C438 C437 1.362 . S
C438 C441 1.409 . S
C439 H431 0.930 . S
C439 C440 1.355 . S
C439 C441 1.415 . S
C440 C439 1.355 . S
C440 C442 1.419 . S
C441 C436 1.425 . S
C441 C438 1.409 . S
C441 C439 1.415 . S
C442 H432 0.930 . S
C442 C440 1.419 . S
C442 C443 1.362 . S
C443 H433 0.930 . S
C443 C436 1.409 . S
C443 C442 1.362 . S
H444 C450 0.930 . S
H445 C453 0.930 . S
H446 C454 0.930 . S
H447 C455 0.930 . S
H448 C458 0.930 . S
H449 C459 0.930 . S
C450 H444 0.930 . S
C450 C451 1.355 . S
C450 C452 1.415 . S
C451 C450 1.355 . S
C451 C453 1.419 . S
C452 C450 1.415 . S
C452 C457 1.425 . S
C452 C459 1.409 . S
C453 H445 0.930 . S
C453 C451 1.419 . S
C453 C454 1.362 . S
C454 H446 0.930 . S
C454 C453 1.362 . S
C454 C457 1.409 . S
C455 H447 0.930 . S
C455 C456 1.355 . S
C455 C457 1.415 . S
C456 C455 1.355 . S
C456 C458 1.419 . S
C457 C452 1.425 . S
C457 C454 1.409 . S
C457 C455 1.415 . S
C458 H448 0.930 . S
C458 C456 1.419 . S
C458 C459 1.362 . S
C459 H449 0.930 . S
C459 C452 1.409 . S
C459 C458 1.362 . S
H460 C466 0.930 . S
H461 C469 0.930 . S
H462 C470 0.930 . S
H463 C471 0.930 . S
H464 C474 0.930 . S
H465 C475 0.930 . S
C466 H460 0.930 . S
C466 C467 1.355 . S
C466 C468 1.415 . S
C467 C466 1.355 . S
C467 C469 1.419 . S
C468 C466 1.415 . S
C468 C473 1.425 . S
C468 C475 1.409 . S
C469 H461 0.930 . S
C469 C467 1.419 . S
C469 C470 1.362 . S
C470 H462 0.930 . S
C470 C469 1.362 . S
C470 C473 1.409 . S
C471 H463 0.930 . S
C471 C472 1.355 . S
C471 C473 1.415 . S
C472 C471 1.355 . S
C472 C474 1.419 . S
C473 C468 1.425 . S
C473 C470 1.409 . S
C473 C471 1.415 . S
C474 H464 0.930 . S
C474 C472 1.419 . S
C474 C475 1.362 . S
C475 H465 0.930 . S
C475 C468 1.409 . S
C475 C474 1.362 . S
H476 C482 0.930 1_554 S
H477 C485 0.930 . S
H478 C486 0.930 . S
H479 C487 0.930 . S
H480 C490 0.930 . S
H481 C491 0.930 1_554 S
C482 H476 0.930 1_556 S
C482 C483 1.355 . S
C482 C484 1.415 . S
C483 C482 1.355 . S
C483 C485 1.419 . S
C484 C482 1.415 . S
C484 C489 1.425 . S
C484 C491 1.409 . S
C485 H477 0.930 . S
C485 C483 1.419 . S
C485 C486 1.362 . S
C486 H478 0.930 . S
C486 C485 1.362 . S
C486 C489 1.409 . S
C487 H479 0.930 . S
C487 C488 1.355 . S
C487 C489 1.415 . S
C488 C487 1.355 . S
C488 C490 1.419 . S
C489 C484 1.425 . S
C489 C486 1.409 . S
C489 C487 1.415 . S
C490 H480 0.930 . S
C490 C488 1.419 . S
C490 C491 1.362 . S
C491 H481 0.930 1_556 S
C491 C484 1.409 . S
C491 C490 1.362 . S
H492 C498 0.930 . S
H493 C501 0.930 . S
H494 C502 0.930 1_655 S
H495 C503 0.930 . S
H496 C506 0.930 . S
H497 C507 0.930 1_455 S
C498 H492 0.930 . S
C498 C499 1.355 . S
C498 C500 1.415 . S
C499 C498 1.355 . S
C499 C501 1.419 . S
C500 C498 1.415 . S
C500 C505 1.425 1_455 S
C500 C507 1.409 1_455 S
C501 H493 0.930 . S
C501 C499 1.419 . S
C501 C502 1.362 . S
C502 H494 0.930 1_455 S
C502 C501 1.362 . S
C502 C505 1.409 1_455 S
C503 H495 0.930 . S
C503 C504 1.355 . S
C503 C505 1.415 . S
C504 C503 1.355 . S
C504 C506 1.419 . S
C505 C500 1.425 1_655 S
C505 C502 1.409 1_655 S
C505 C503 1.415 . S
C506 H496 0.930 . S
C506 C504 1.419 . S
C506 C507 1.362 . S
C507 H497 0.930 1_655 S
C507 C500 1.409 1_655 S
C507 C506 1.362 . S
H508 C514 0.930 . S
H509 C517 0.930 . S
H510 C518 0.930 . S
H511 C519 0.930 . S
H512 C522 0.930 . S
H513 C523 0.930 . S
C514 H508 0.930 . S
C514 C515 1.355 . S
C514 C516 1.415 1_565 S
C515 C514 1.355 . S
C515 C517 1.419 . S
C516 C514 1.415 1_545 S
C516 C521 1.425 1_546 S
C516 C523 1.409 . S
C517 H509 0.930 . S
C517 C515 1.419 . S
C517 C518 1.362 1_556 S
C518 H510 0.930 . S
C518 C517 1.362 1_554 S
C518 C521 1.409 . S
C519 H511 0.930 . S
C519 C520 1.355 . S
C519 C521 1.415 1_545 S
C520 C519 1.355 . S
C520 C522 1.419 . S
C521 C516 1.425 1_564 S
C521 C518 1.409 . S
C521 C519 1.415 1_565 S
C522 H512 0.930 . S
C522 C520 1.419 . S
C522 C523 1.362 1_554 S
C523 H513 0.930 . S
C523 C516 1.409 . S
C523 C522 1.362 1_556 S
H524 C530 0.930 . S
H525 C533 0.930 . S
H526 C534 0.930 . S
H527 C535 0.930 . S
H528 C538 0.930 . S
H529 C539 0.930 . S
C530 H524 0.930 . S
C530 C531 1.355 . S
C530 C532 1.415 . S
C531 C530 1.355 . S
C531 C533 1.419 . S
C532 C530 1.415 . S
C532 C537 1.425 . S
C532 C539 1.409 . S
C533 H525 0.930 . S
C533 C531 1.419 . S
C533 C534 1.362 . S
C534 H526 0.930 . S
C534 C533 1.362 . S
C534 C537 1.409 . S
C535 H527 0.930 . S
C535 C536 1.355 . S
C535 C537 1.415 . S
C536 C535 1.355 . S
C536 C538 1.419 . S
C537 C532 1.425 . S
C537 C534 1.409 . S
C537 C535 1.415 . S
C538 H528 0.930 . S
C538 C536 1.419 . S
C538 C539 1.362 . S
C539 H529 0.930 . S
C539 C532 1.409 . S
C539 C538 1.362 . S
H540 C546 0.930 . S
H541 C549 0.930 . S
H542 C550 0.930 . S
H543 C551 0.930 . S
H544 C554 0.930 . S
H545 C555 0.930 . S
C546 H540 0.930 . S
C546 C547 1.355 . S
C546 C548 1.415 1_655 S
C547 C546 1.355 . S
C547 C549 1.419 . S
C548 C546 1.415 1_455 S
C548 C553 1.425 1_455 S
C548 C555 1.409 . S
C549 H541 0.930 . S
C549 C547 1.419 . S
C549 C550 1.362 . S
C550 H542 0.930 . S
C550 C549 1.362 . S
C550 C553 1.409 . S
C551 H543 0.930 . S
C551 C552 1.355 . S
C551 C553 1.415 1_455 S
C552 C551 1.355 . S
C552 C554 1.419 . S
C553 C548 1.425 1_655 S
C553 C550 1.409 . S
C553 C551 1.415 1_655 S
C554 H544 0.930 . S
C554 C552 1.419 . S
C554 C555 1.362 . S
C555 H545 0.930 . S
C555 C548 1.409 . S
C555 C554 1.362 . S
H556 C562 0.930 . S
H557 C565 0.930 . S
H558 C566 0.930 . S
H559 C567 0.930 . S
H560 C570 0.930 . S
H561 C571 0.930 . S
C562 H556 0.930 . S
C562 C563 1.355 . S
C562 C564 1.415 1_545 S
C563 C562 1.355 . S
C563 C565 1.419 . S
C564 C562 1.415 1_565 S
C564 C569 1.425 1_565 S
C564 C571 1.409 . S
C565 H557 0.930 . S
C565 C563 1.419 . S
C565 C566 1.362 . S
C566 H558 0.930 . S
C566 C565 1.362 . S
C566 C569 1.409 . S
C567 H559 0.930 . S
C567 C568 1.355 . S
C567 C569 1.415 1_565 S
C568 C567 1.355 . S
C568 C570 1.419 . S
C569 C564 1.425 1_545 S
C569 C566 1.409 . S
C569 C567 1.415 1_545 S
C570 H560 0.930 . S
C570 C568 1.419 . S
C570 C571 1.362 . S
C571 H561 0.930 . S
C571 C564 1.409 . S
C571 C570 1.362 . S
H572 C578 0.930 . S
H573 C581 0.930 . S
H574 C582 0.930 . S
H575 C583 0.930 . S
H576 C586 0.930 . S
H577 C587 0.930 . S
C578 H572 0.930 . S
C578 C579 1.355 . S
C578 C580 1.415 . S
C579 C578 1.355 . S
C579 C581 1.419 . S
C580 C578 1.415 . S
C580 C585 1.425 . S
C580 C587 1.409 . S
C581 H573 0.930 . S
C581 C579 1.419 . S
C581 C582 1.362 . S
C582 H574 0.930 . S
C582 C581 1.362 . S
C582 C585 1.409 . S
C583 H575 0.930 . S
C583 C584 1.355 . S
C583 C585 1.415 . S
C584 C583 1.355 . S
C584 C586 1.419 . S
C585 C580 1.425 . S
C585 C582 1.409 . S
C585 C583 1.415 . S
C586 H576 0.930 . S
C586 C584 1.419 . S
C586 C587 1.362 . S
C587 H577 0.930 . S
C587 C580 1.409 . S
C587 C586 1.362 . S
H588 C594 0.930 . S
H589 C597 0.930 . S
H590 C598 0.930 . S
H591 C599 0.930 . S
H592 C602 0.930 . S
H593 C603 0.930 . S
C594 H588 0.930 . S
C594 C595 1.355 . S
C594 C596 1.415 . S
C595 C594 1.355 . S
C595 C597 1.419 . S
C596 C594 1.415 . S
C596 C601 1.425 . S
C596 C603 1.409 . S
C597 H589 0.930 . S
C597 C595 1.419 . S
C597 C598 1.362 . S
C598 H590 0.930 . S
C598 C597 1.362 . S
C598 C601 1.409 . S
C599 H591 0.930 . S
C599 C600 1.355 . S
C599 C601 1.415 . S
C600 C599 1.355 . S
C600 C602 1.419 . S
C601 C596 1.425 . S
C601 C598 1.409 . S
C601 C599 1.415 . S
C602 H592 0.930 . S
C602 C600 1.419 . S
C602 C603 1.362 . S
C603 H593 0.930 . S
C603 C596 1.409 . S
C603 C602 1.362 . S
H604 C610 0.930 . S
H605 C613 0.930 . S
H606 C614 0.930 . S
H607 C615 0.930 . S
H608 C618 0.930 . S
H609 C619 0.930 . S
C610 H604 0.930 . S
C610 C611 1.355 . S
C610 C612 1.415 . S
C611 C610 1.355 . S
C611 C613 1.419 . S
C612 C610 1.415 . S
C612 C617 1.425 . S
C612 C619 1.409 . S
C613 H605 0.930 . S
C613 C611 1.419 . S
C613 C614 1.362 . S
C614 H606 0.930 . S
C614 C613 1.362 . S
C614 C617 1.409 . S
C615 H607 0.930 . S
C615 C616 1.355 . S
C615 C617 1.415 . S
C616 C615 1.355 . S
C616 C618 1.419 . S
C617 C612 1.425 . S
C617 C614 1.409 . S
C617 C615 1.415 . S
C618 H608 0.930 . S
C618 C616 1.419 . S
C618 C619 1.362 . S
C619 H609 0.930 . S
C619 C612 1.409 . S
C619 C618 1.362 . S
H620 C626 0.930 . S
H621 C629 0.930 . S
H622 C630 0.930 . S
H623 C631 0.930 . S
H624 C634 0.930 . S
H625 C635 0.930 . S
C626 H620 0.930 . S
C626 C627 1.355 . S
C626 C628 1.415 . S
C627 C626 1.355 . S
C627 C629 1.419 . S
C628 C626 1.415 . S
C628 C633 1.425 . S
C628 C635 1.409 . S
C629 H621 0.930 . S
C629 C627 1.419 . S
C629 C630 1.362 . S
C630 H622 0.930 . S
C630 C629 1.362 . S
C630 C633 1.409 . S
C631 H623 0.930 . S
C631 C632 1.355 . S
C631 C633 1.415 . S
C632 C631 1.355 . S
C632 C634 1.419 . S
C633 C628 1.425 . S
C633 C630 1.409 . S
C633 C631 1.415 . S
C634 H624 0.930 . S
C634 C632 1.419 . S
C634 C635 1.362 . S
C635 H625 0.930 . S
C635 C628 1.409 . S
C635 C634 1.362 . S
H636 C642 0.930 . S
H637 C645 0.930 . S
H638 C646 0.930 . S
H639 C647 0.930 . S
H640 C650 0.930 . S
H641 C651 0.930 . S
C642 H636 0.930 . S
C642 C643 1.355 . S
C642 C644 1.415 . S
C643 C642 1.355 . S
C643 C645 1.419 . S
C644 C642 1.415 . S
C644 C649 1.425 . S
C644 C651 1.409 . S
C645 H637 0.930 . S
C645 C643 1.419 . S
C645 C646 1.362 . S
C646 H638 0.930 . S
C646 C645 1.362 . S
C646 C649 1.409 . S
C647 H639 0.930 . S
C647 C648 1.355 . S
C647 C649 1.415 . S
C648 C647 1.355 . S
C648 C650 1.419 . S
C649 C644 1.425 . S
C649 C646 1.409 . S
C649 C647 1.415 . S
C650 H640 0.930 . S
C650 C648 1.419 . S
C650 C651 1.362 . S
C651 H641 0.930 . S
C651 C644 1.409 . S
C651 C650 1.362 . S
H652 C658 0.930 . S
H653 C661 0.930 . S
H654 C662 0.930 . S
H655 C663 0.930 1_554 S
H656 C666 0.930 1_554 S
H657 C667 0.930 . S
C658 H652 0.930 . S
C658 C659 1.355 . S
C658 C660 1.415 . S
C659 C658 1.355 . S
C659 C661 1.419 . S
C660 C658 1.415 . S
C660 C665 1.425 . S
C660 C667 1.409 . S
C661 H653 0.930 . S
C661 C659 1.419 . S
C661 C662 1.362 . S
C662 H654 0.930 . S
C662 C661 1.362 . S
C662 C665 1.409 . S
C663 H655 0.930 1_556 S
C663 C664 1.355 1_556 S
C663 C665 1.415 . S
C664 C663 1.355 1_554 S
C664 C666 1.419 1_554 S
C665 C660 1.425 . S
C665 C662 1.409 . S
C665 C663 1.415 . S
C666 H656 0.930 1_556 S
C666 C664 1.419 1_556 S
C666 C667 1.362 . S
C667 H657 0.930 . S
C667 C660 1.409 . S
C667 C666 1.362 . S
H668 C674 0.930 . S
H669 C677 0.930 . S
H670 C678 0.930 . S
H671 C679 0.930 . S
H672 C682 0.930 . S
H673 C683 0.933 . S
C674 H668 0.930 . S
C674 C675 1.355 . S
C674 C676 1.415 . S
C675 C674 1.355 . S
C675 C677 1.419 . S
C676 C674 1.415 . S
C676 C681 1.425 . S
C676 C683 1.402 1_554 S
C677 H669 0.930 . S
C677 C675 1.419 . S
C677 C678 1.362 . S
C678 H670 0.930 . S
C678 C677 1.362 . S
C678 C681 1.409 . S
C679 H671 0.930 . S
C679 C680 1.355 1_554 S
C679 C681 1.415 . S
C680 C679 1.355 1_556 S
C680 C682 1.419 . S
C681 C676 1.425 . S
C681 C678 1.409 . S
C681 C679 1.415 . S
C682 H672 0.930 . S
C682 C680 1.419 . S
C682 C683 1.367 . S
C683 H673 0.933 . S
C683 C676 1.402 1_556 S
C683 C682 1.367 . S
H684 C690 0.930 . S
H685 C693 0.930 . S
H686 C694 0.930 . S
H687 C695 0.930 . S
H688 C698 0.930 . S
H689 C699 0.930 . S
C690 H684 0.930 . S
C690 C691 1.355 . S
C690 C692 1.415 . S
C691 C690 1.355 . S
C691 C693 1.419 . S
C692 C690 1.415 . S
C692 C697 1.425 . S
C692 C699 1.409 . S
C693 H685 0.930 . S
C693 C691 1.419 . S
C693 C694 1.362 . S
C694 H686 0.930 . S
C694 C693 1.362 . S
C694 C697 1.409 . S
C695 H687 0.930 . S
C695 C696 1.355 . S
C695 C697 1.415 . S
C696 C695 1.355 . S
C696 C698 1.419 . S
C697 C692 1.425 . S
C697 C694 1.409 . S
C697 C695 1.415 . S
C698 H688 0.930 . S
C698 C696 1.419 . S
C698 C699 1.362 . S
C699 H689 0.930 . S
C699 C692 1.409 . S
C699 C698 1.362 . S
H700 C706 0.930 . S
H701 C709 0.930 . S
H702 C710 0.930 . S
H703 C711 0.930 . S
H704 C714 0.930 . S
H705 C715 0.930 . S
C706 H700 0.930 . S
C706 C707 1.355 . S
C706 C708 1.415 . S
C707 C706 1.355 . S
C707 C709 1.419 . S
C708 C706 1.415 . S
C708 C713 1.425 . S
C708 C715 1.409 . S
C709 H701 0.930 . S
C709 C707 1.419 . S
C709 C710 1.362 . S
C710 H702 0.930 . S
C710 C709 1.362 . S
C710 C713 1.409 . S
C711 H703 0.930 . S
C711 C712 1.355 . S
C711 C713 1.415 . S
C712 C711 1.355 . S
C712 C714 1.419 . S
C713 C708 1.425 . S
C713 C710 1.409 . S
C713 C711 1.415 . S
C714 H704 0.930 . S
C714 C712 1.419 . S
C714 C715 1.362 . S
C715 H705 0.930 . S
C715 C708 1.409 . S
C715 C714 1.362 . S
H716 C722 0.930 . S
H717 C725 0.930 . S
H718 C726 0.930 . S
H719 C727 0.930 . S
H720 C730 0.930 1_554 S
H721 C731 0.930 . S
C722 H716 0.930 . S
C722 C723 1.355 . S
C722 C724 1.415 . S
C723 C722 1.355 . S
C723 C725 1.419 . S
C724 C722 1.415 . S
C724 C729 1.425 . S
C724 C731 1.409 . S
C725 H717 0.930 . S
C725 C723 1.419 . S
C725 C726 1.362 . S
C726 H718 0.930 . S
C726 C725 1.362 . S
C726 C729 1.409 . S
C727 H719 0.930 . S
C727 C728 1.355 . S
C727 C729 1.415 1_554 S
C728 C727 1.355 . S
C728 C730 1.419 1_554 S
C729 C724 1.425 . S
C729 C726 1.409 . S
C729 C727 1.415 1_556 S
C730 H720 0.930 1_556 S
C730 C728 1.419 1_556 S
C730 C731 1.362 . S
C731 H721 0.930 . S
C731 C724 1.409 . S
C731 C730 1.362 . S
H732 C738 0.930 . S
H733 C741 0.930 . S
H734 C742 0.930 . S
H735 C743 0.930 . S
H736 C746 0.930 . S
H737 C747 0.930 . S
C738 H732 0.930 . S
C738 C739 1.355 . S
C738 C740 1.415 1_556 S
C739 C738 1.355 . S
C739 C741 1.419 . S
C740 C738 1.415 1_554 S
C740 C745 1.425 . S
C740 C747 1.409 . S
C741 H733 0.930 . S
C741 C739 1.419 . S
C741 C742 1.362 . S
C742 H734 0.930 . S
C742 C741 1.362 . S
C742 C745 1.409 1_556 S
C743 H735 0.930 . S
C743 C744 1.355 . S
C743 C745 1.415 . S
C744 C743 1.355 . S
C744 C746 1.419 . S
C745 C740 1.425 . S
C745 C742 1.409 1_554 S
C745 C743 1.415 . S
C746 H736 0.930 . S
C746 C744 1.419 . S
C746 C747 1.362 . S
C747 H737 0.930 . S
C747 C740 1.409 . S
C747 C746 1.362 . S
H748 C754 0.930 . S
H749 C757 0.930 . S
H750 C758 0.930 . S
H751 C759 0.930 . S
H752 C762 0.930 . S
H753 C763 0.930 . S
C754 H748 0.930 . S
C754 C755 1.355 . S
C754 C756 1.415 . S
C755 C754 1.355 . S
C755 C757 1.419 . S
C756 C754 1.415 . S
C756 C761 1.425 . S
C756 C763 1.409 . S
C757 H749 0.930 . S
C757 C755 1.419 . S
C757 C758 1.362 . S
C758 H750 0.930 . S
C758 C757 1.362 . S
C758 C761 1.409 . S
C759 H751 0.930 . S
C759 C760 1.355 . S
C759 C761 1.415 . S
C760 C759 1.355 . S
C760 C762 1.419 . S
C761 C756 1.425 . S
C761 C758 1.409 . S
C761 C759 1.415 . S
C762 H752 0.930 . S
C762 C760 1.419 . S
C762 C763 1.362 . S
C763 H753 0.930 . S
C763 C756 1.409 . S
C763 C762 1.362 . S
H764 C770 0.930 . S
H765 C773 0.930 . S
H766 C774 0.930 . S
H767 C775 0.930 . S
H768 C778 0.930 . S
H769 C779 0.930 . S
C770 H764 0.930 . S
C770 C771 1.355 . S
C770 C772 1.415 . S
C771 C770 1.355 . S
C771 C773 1.419 . S
C772 C770 1.415 . S
C772 C777 1.425 . S
C772 C779 1.409 . S
C773 H765 0.930 . S
C773 C771 1.419 . S
C773 C774 1.362 . S
C774 H766 0.930 . S
C774 C773 1.362 . S
C774 C777 1.409 . S
C775 H767 0.930 . S
C775 C776 1.355 . S
C775 C777 1.415 . S
C776 C775 1.355 . S
C776 C778 1.419 . S
C777 C772 1.425 . S
C777 C774 1.409 . S
C777 C775 1.415 . S
C778 H768 0.930 . S
C778 C776 1.419 . S
C778 C779 1.362 . S
C779 H769 0.930 . S
C779 C772 1.409 . S
C779 C778 1.362 . S
H780 C786 0.930 . S
H781 C789 0.930 . S
H782 C790 0.930 . S
H783 C791 0.930 . S
H784 C794 0.930 . S
H785 C795 0.930 . S
C786 H780 0.930 . S
C786 C787 1.355 . S
C786 C788 1.415 . S
C787 C786 1.355 . S
C787 C789 1.419 . S
C788 C786 1.415 . S
C788 C793 1.425 . S
C788 C795 1.409 . S
C789 H781 0.930 . S
C789 C787 1.419 . S
C789 C790 1.362 . S
C790 H782 0.930 . S
C790 C789 1.362 . S
C790 C793 1.409 . S
C791 H783 0.930 . S
C791 C792 1.355 . S
C791 C793 1.415 . S
C792 C791 1.355 . S
C792 C794 1.419 . S
C793 C788 1.425 . S
C793 C790 1.409 . S
C793 C791 1.415 . S
C794 H784 0.930 . S
C794 C792 1.419 . S
C794 C795 1.362 . S
C795 H785 0.930 . S
C795 C788 1.409 . S
C795 C794 1.362 . S
H796 C802 0.930 . S
H797 C805 0.930 . S
H798 C806 0.930 . S
H799 C807 0.930 . S
H800 C810 0.930 . S
H801 C811 0.930 . S
C802 H796 0.930 . S
C802 C803 1.355 . S
C802 C804 1.415 . S
C803 C802 1.355 . S
C803 C805 1.419 . S
C804 C802 1.415 . S
C804 C809 1.425 . S
C804 C811 1.409 . S
C805 H797 0.930 . S
C805 C803 1.419 . S
C805 C806 1.362 . S
C806 H798 0.930 . S
C806 C805 1.362 . S
C806 C809 1.409 . S
C807 H799 0.930 . S
C807 C808 1.355 . S
C807 C809 1.415 . S
C808 C807 1.355 . S
C808 C810 1.419 . S
C809 C804 1.425 . S
C809 C806 1.409 . S
C809 C807 1.415 . S
C810 H800 0.930 . S
C810 C808 1.419 . S
C810 C811 1.362 . S
C811 H801 0.930 . S
C811 C804 1.409 . S
C811 C810 1.362 . S
H812 C818 0.930 . S
H813 C821 0.930 . S
H814 C822 0.930 . S
H815 C823 0.930 . S
H816 C826 0.930 . S
H817 C827 0.930 . S
C818 H812 0.930 . S
C818 C819 1.355 . S
C818 C820 1.415 . S
C819 C818 1.355 . S
C819 C821 1.419 . S
C820 C818 1.415 . S
C820 C825 1.425 . S
C820 C827 1.409 . S
C821 H813 0.930 . S
C821 C819 1.419 . S
C821 C822 1.362 . S
C822 H814 0.930 . S
C822 C821 1.362 . S
C822 C825 1.409 . S
C823 H815 0.930 . S
C823 C824 1.355 . S
C823 C825 1.415 . S
C824 C823 1.355 . S
C824 C826 1.419 . S
C825 C820 1.425 . S
C825 C822 1.409 . S
C825 C823 1.415 . S
C826 H816 0.930 . S
C826 C824 1.419 . S
C826 C827 1.362 . S
C827 H817 0.930 . S
C827 C820 1.409 . S
C827 C826 1.362 . S
H828 C834 0.930 . S
H829 C837 0.930 . S
H830 C838 0.930 . S
H831 C839 0.930 . S
H832 C842 0.930 . S
H833 C843 0.930 . S
C834 H828 0.930 . S
C834 C835 1.355 . S
C834 C836 1.415 . S
C835 C834 1.355 . S
C835 C837 1.419 . S
C836 C834 1.415 . S
C836 C841 1.425 . S
C836 C843 1.409 . S
C837 H829 0.930 . S
C837 C835 1.419 . S
C837 C838 1.362 . S
C838 H830 0.930 . S
C838 C837 1.362 . S
C838 C841 1.409 . S
C839 H831 0.930 . S
C839 C840 1.355 . S
C839 C841 1.415 . S
C840 C839 1.355 . S
C840 C842 1.419 . S
C841 C836 1.425 . S
C841 C838 1.409 . S
C841 C839 1.415 . S
C842 H832 0.930 . S
C842 C840 1.419 . S
C842 C843 1.362 . S
C843 H833 0.930 . S
C843 C836 1.409 . S
C843 C842 1.362 . S
H844 C850 0.930 . S
H845 C853 0.930 . S
H846 C854 0.930 . S
H847 C855 0.930 . S
H848 C858 0.930 . S
H849 C859 0.930 . S
C850 H844 0.930 . S
C850 C851 1.355 . S
C850 C852 1.415 . S
C851 C850 1.355 . S
C851 C853 1.419 . S
C852 C850 1.415 . S
C852 C857 1.425 . S
C852 C859 1.409 . S
C853 H845 0.930 . S
C853 C851 1.419 . S
C853 C854 1.362 . S
C854 H846 0.930 . S
C854 C853 1.362 . S
C854 C857 1.409 . S
C855 H847 0.930 . S
C855 C856 1.355 . S
C855 C857 1.415 1_554 S
C856 C855 1.355 . S
C856 C858 1.419 . S
C857 C852 1.425 . S
C857 C854 1.409 . S
C857 C855 1.415 1_556 S
C858 H848 0.930 . S
C858 C856 1.419 . S
C858 C859 1.362 1_554 S
C859 H849 0.930 . S
C859 C852 1.409 . S
C859 C858 1.362 1_556 S
H860 C866 0.930 . S
H861 C869 0.930 . S
H862 C870 0.930 . S
H863 C871 0.930 . S
H864 C874 0.930 . S
H865 C875 0.930 . S
C866 H860 0.930 . S
C866 C867 1.355 . S
C866 C868 1.415 . S
C867 C866 1.355 . S
C867 C869 1.419 . S
C868 C866 1.415 . S
C868 C873 1.425 . S
C868 C875 1.409 . S
C869 H861 0.930 . S
C869 C867 1.419 . S
C869 C870 1.362 . S
C870 H862 0.930 . S
C870 C869 1.362 . S
C870 C873 1.409 . S
C871 H863 0.930 . S
C871 C872 1.355 1_554 S
C871 C873 1.415 . S
C872 C871 1.355 1_556 S
C872 C874 1.419 . S
C873 C868 1.425 . S
C873 C870 1.409 . S
C873 C871 1.415 . S
C874 H864 0.930 . S
C874 C872 1.419 . S
C874 C875 1.362 1_556 S
C875 H865 0.930 . S
C875 C868 1.409 . S
C875 C874 1.362 1_554 S
C403 C285 1.604 . S
C408 C21 1.591 . S
C419 C318 1.596 . S
C424 C54 1.609 . S
C435 C351 1.609 . S
C440 C87 1.598 . S
C451 C384 1.606 . S
C456 C120 1.592 . S
C467 C153 1.608 . S
C472 C219 1.596 . S
C483 C252 1.605 . S
C488 C186 1.591 . S
C499 C7 1.292 . S
C504 C370 1.354 . S
C515 C205 1.306 . S
C520 C40 1.268 . S
C531 C73 1.275 . S
C536 C238 1.333 . S
C547 C106 1.305 . S
C552 C271 1.269 . S
C563 C304 1.279 . S
C568 C139 1.280 . S
C579 C172 1.373 . S
C584 C337 1.334 . S
C595 C18 1.426 . S
C600 C348 1.443 . S
C611 C51 1.444 . S
C616 C381 1.428 . S
C627 C216 1.447 . S
C632 C84 1.439 . S
C643 C249 1.436 . S
C648 C117 1.447 . S
C659 C150 1.432 . S
C664 C282 1.410 . S
C675 C315 1.416 . S
C680 C183 1.438 . S
C691 N13 1.112 . S
C696 N2 1.111 . S
C707 N35 1.096 . S
C712 N46 1.097 . S
C723 N79 1.129 . S
C728 N68 1.129 . S
C739 N112 1.090 . S
C744 N101 1.090 . S
C755 N134 1.096 . S
C760 N145 1.095 1_554 S
C771 N167 1.095 . S
C776 N178 1.094 . S
C787 N200 1.129 . S
C792 N211 1.129 . S
C803 N233 1.113 . S
C808 N244 1.112 . S
C819 N266 1.094 . S
C824 N277 1.094 . S
C835 N299 1.128 . S
C840 N310 1.128 1_556 S
C851 N332 1.129 . S
C856 N343 1.129 . S
C867 N376 1.095 . S
C872 N365 1.095 . S
