# Generated by pormake.
# Topology wio, (6)-cn, num edge types: 1
# Building blocks:
#     Node 0, Type 0, BuildingBlock: BETGAK_clean_sbu_0, # of connection points: 6
#     Node 1, Type 0, BuildingBlock: BETGAK_clean_sbu_0, # of connection points: 6
#     Node 2, Type 0, BuildingBlock: BETGAK_clean_sbu_0, # of connection points: 6
#     Node 3, Type 0, BuildingBlock: BETGAK_clean_sbu_0, # of connection points: 6
#     Node 4, Type 0, BuildingBlock: BETGAK_clean_sbu_0, # of connection points: 6
#     Node 5, Type 0, BuildingBlock: BETGAK_clean_sbu_0, # of connection points: 6
#     Node 6, Type 0, BuildingBlock: BETGAK_clean_sbu_0, # of connection points: 6
#     Node 7, Type 0, BuildingBlock: BETGAK_clean_sbu_0, # of connection points: 6
#     Node 8, Type 0, BuildingBlock: BETGAK_clean_sbu_0, # of connection points: 6
#     Node 9, Type 0, BuildingBlock: BETGAK_clean_sbu_0, # of connection points: 6
#     Node 10, Type 0, BuildingBlock: BETGAK_clean_sbu_0, # of connection points: 6
#     Node 11, Type 0, BuildingBlock: BETGAK_clean_sbu_0, # of connection points: 6
#     Node 12, Type 0, BuildingBlock: BETGAK_clean_sbu_0, # of connection points: 6
#     Node 13, Type 0, BuildingBlock: BETGAK_clean_sbu_0, # of connection points: 6
#     Node 14, Type 0, BuildingBlock: BETGAK_clean_sbu_0, # of connection points: 6
#     Node 15, Type 0, BuildingBlock: BETGAK_clean_sbu_0, # of connection points: 6
#     Node 16, Type 0, BuildingBlock: BETGAK_clean_sbu_0, # of connection points: 6
#     Node 17, Type 0, BuildingBlock: BETGAK_clean_sbu_0, # of connection points: 6
#     Node 18, Type 0, BuildingBlock: BETGAK_clean_sbu_0, # of connection points: 6
#     Node 19, Type 0, BuildingBlock: BETGAK_clean_sbu_0, # of connection points: 6
#     Node 20, Type 0, BuildingBlock: BETGAK_clean_sbu_0, # of connection points: 6
#     Node 21, Type 0, BuildingBlock: BETGAK_clean_sbu_0, # of connection points: 6
#     Node 22, Type 0, BuildingBlock: BETGAK_clean_sbu_0, # of connection points: 6
#     Node 23, Type 0, BuildingBlock: BETGAK_clean_sbu_0, # of connection points: 6
#     Node 24, Type 0, BuildingBlock: BETGAK_clean_sbu_0, # of connection points: 6
#     Node 25, Type 0, BuildingBlock: BETGAK_clean_sbu_0, # of connection points: 6
#     Node 26, Type 0, BuildingBlock: BETGAK_clean_sbu_0, # of connection points: 6
#     Node 27, Type 0, BuildingBlock: BETGAK_clean_sbu_0, # of connection points: 6
#     Node 28, Type 0, BuildingBlock: BETGAK_clean_sbu_0, # of connection points: 6
#     Node 29, Type 0, BuildingBlock: BETGAK_clean_sbu_0, # of connection points: 6
#     Node 30, Type 0, BuildingBlock: BETGAK_clean_sbu_0, # of connection points: 6
#     Node 31, Type 0, BuildingBlock: BETGAK_clean_sbu_0, # of connection points: 6
#     Edge 32, Type (0, 0), BuildingBlock: UVAHIK_clean_linker_0, # of connection points: 2
#     Edge 33, Type (0, 0), BuildingBlock: UVAHIK_clean_linker_0, # of connection points: 2
#     Edge 34, Type (0, 0), BuildingBlock: UVAHIK_clean_linker_0, # of connection points: 2
#     Edge 35, Type (0, 0), BuildingBlock: UVAHIK_clean_linker_0, # of connection points: 2
#     Edge 36, Type (0, 0), BuildingBlock: UVAHIK_clean_linker_0, # of connection points: 2
#     Edge 37, Type (0, 0), BuildingBlock: UVAHIK_clean_linker_0, # of connection points: 2
#     Edge 38, Type (0, 0), BuildingBlock: UVAHIK_clean_linker_0, # of connection points: 2
#     Edge 39, Type (0, 0), BuildingBlock: UVAHIK_clean_linker_0, # of connection points: 2
#     Edge 40, Type (0, 0), BuildingBlock: UVAHIK_clean_linker_0, # of connection points: 2
#     Edge 41, Type (0, 0), BuildingBlock: UVAHIK_clean_linker_0, # of connection points: 2
#     Edge 42, Type (0, 0), BuildingBlock: UVAHIK_clean_linker_0, # of connection points: 2
#     Edge 43, Type (0, 0), BuildingBlock: UVAHIK_clean_linker_0, # of connection points: 2
#     Edge 44, Type (0, 0), BuildingBlock: UVAHIK_clean_linker_0, # of connection points: 2
#     Edge 45, Type (0, 0), BuildingBlock: UVAHIK_clean_linker_0, # of connection points: 2
#     Edge 46, Type (0, 0), BuildingBlock: UVAHIK_clean_linker_0, # of connection points: 2
#     Edge 47, Type (0, 0), BuildingBlock: UVAHIK_clean_linker_0, # of connection points: 2
#     Edge 48, Type (0, 0), BuildingBlock: UVAHIK_clean_linker_0, # of connection points: 2
#     Edge 49, Type (0, 0), BuildingBlock: UVAHIK_clean_linker_0, # of connection points: 2
#     Edge 50, Type (0, 0), BuildingBlock: UVAHIK_clean_linker_0, # of connection points: 2
#     Edge 51, Type (0, 0), BuildingBlock: UVAHIK_clean_linker_0, # of connection points: 2
#     Edge 52, Type (0, 0), BuildingBlock: UVAHIK_clean_linker_0, # of connection points: 2
#     Edge 53, Type (0, 0), BuildingBlock: UVAHIK_clean_linker_0, # of connection points: 2
#     Edge 54, Type (0, 0), BuildingBlock: UVAHIK_clean_linker_0, # of connection points: 2
#     Edge 55, Type (0, 0), BuildingBlock: UVAHIK_clean_linker_0, # of connection points: 2
#     Edge 56, Type (0, 0), BuildingBlock: UVAHIK_clean_linker_0, # of connection points: 2
#     Edge 57, Type (0, 0), BuildingBlock: UVAHIK_clean_linker_0, # of connection points: 2
#     Edge 58, Type (0, 0), BuildingBlock: UVAHIK_clean_linker_0, # of connection points: 2
#     Edge 59, Type (0, 0), BuildingBlock: UVAHIK_clean_linker_0, # of connection points: 2
#     Edge 60, Type (0, 0), BuildingBlock: UVAHIK_clean_linker_0, # of connection points: 2
#     Edge 61, Type (0, 0), BuildingBlock: UVAHIK_clean_linker_0, # of connection points: 2
#     Edge 62, Type (0, 0), BuildingBlock: UVAHIK_clean_linker_0, # of connection points: 2
#     Edge 63, Type (0, 0), BuildingBlock: UVAHIK_clean_linker_0, # of connection points: 2
#     Edge 64, Type (0, 0), BuildingBlock: UVAHIK_clean_linker_0, # of connection points: 2
#     Edge 65, Type (0, 0), BuildingBlock: UVAHIK_clean_linker_0, # of connection points: 2
#     Edge 66, Type (0, 0), BuildingBlock: UVAHIK_clean_linker_0, # of connection points: 2
#     Edge 67, Type (0, 0), BuildingBlock: UVAHIK_clean_linker_0, # of connection points: 2
#     Edge 68, Type (0, 0), BuildingBlock: UVAHIK_clean_linker_0, # of connection points: 2
#     Edge 69, Type (0, 0), BuildingBlock: UVAHIK_clean_linker_0, # of connection points: 2
#     Edge 70, Type (0, 0), BuildingBlock: UVAHIK_clean_linker_0, # of connection points: 2
#     Edge 71, Type (0, 0), BuildingBlock: UVAHIK_clean_linker_0, # of connection points: 2
#     Edge 72, Type (0, 0), BuildingBlock: UVAHIK_clean_linker_0, # of connection points: 2
#     Edge 73, Type (0, 0), BuildingBlock: UVAHIK_clean_linker_0, # of connection points: 2
#     Edge 74, Type (0, 0), BuildingBlock: UVAHIK_clean_linker_0, # of connection points: 2
#     Edge 75, Type (0, 0), BuildingBlock: UVAHIK_clean_linker_0, # of connection points: 2
#     Edge 76, Type (0, 0), BuildingBlock: UVAHIK_clean_linker_0, # of connection points: 2
#     Edge 77, Type (0, 0), BuildingBlock: UVAHIK_clean_linker_0, # of connection points: 2
#     Edge 78, Type (0, 0), BuildingBlock: UVAHIK_clean_linker_0, # of connection points: 2
#     Edge 79, Type (0, 0), BuildingBlock: UVAHIK_clean_linker_0, # of connection points: 2
#     Edge 80, Type (0, 0), BuildingBlock: UVAHIK_clean_linker_0, # of connection points: 2
#     Edge 81, Type (0, 0), BuildingBlock: UVAHIK_clean_linker_0, # of connection points: 2
#     Edge 82, Type (0, 0), BuildingBlock: UVAHIK_clean_linker_0, # of connection points: 2
#     Edge 83, Type (0, 0), BuildingBlock: UVAHIK_clean_linker_0, # of connection points: 2
#     Edge 84, Type (0, 0), BuildingBlock: UVAHIK_clean_linker_0, # of connection points: 2
#     Edge 85, Type (0, 0), BuildingBlock: UVAHIK_clean_linker_0, # of connection points: 2
#     Edge 86, Type (0, 0), BuildingBlock: UVAHIK_clean_linker_0, # of connection points: 2
#     Edge 87, Type (0, 0), BuildingBlock: UVAHIK_clean_linker_0, # of connection points: 2
#     Edge 88, Type (0, 0), BuildingBlock: UVAHIK_clean_linker_0, # of connection points: 2
#     Edge 89, Type (0, 0), BuildingBlock: UVAHIK_clean_linker_0, # of connection points: 2
#     Edge 90, Type (0, 0), BuildingBlock: UVAHIK_clean_linker_0, # of connection points: 2
#     Edge 91, Type (0, 0), BuildingBlock: UVAHIK_clean_linker_0, # of connection points: 2
#     Edge 92, Type (0, 0), BuildingBlock: UVAHIK_clean_linker_0, # of connection points: 2
#     Edge 93, Type (0, 0), BuildingBlock: UVAHIK_clean_linker_0, # of connection points: 2
#     Edge 94, Type (0, 0), BuildingBlock: UVAHIK_clean_linker_0, # of connection points: 2
#     Edge 95, Type (0, 0), BuildingBlock: UVAHIK_clean_linker_0, # of connection points: 2
#     Edge 96, Type (0, 0), BuildingBlock: UVAHIK_clean_linker_0, # of connection points: 2
#     Edge 97, Type (0, 0), BuildingBlock: UVAHIK_clean_linker_0, # of connection points: 2
#     Edge 98, Type (0, 0), BuildingBlock: UVAHIK_clean_linker_0, # of connection points: 2
#     Edge 99, Type (0, 0), BuildingBlock: UVAHIK_clean_linker_0, # of connection points: 2
#     Edge 100, Type (0, 0), BuildingBlock: UVAHIK_clean_linker_0, # of connection points: 2
#     Edge 101, Type (0, 0), BuildingBlock: UVAHIK_clean_linker_0, # of connection points: 2
#     Edge 102, Type (0, 0), BuildingBlock: UVAHIK_clean_linker_0, # of connection points: 2
#     Edge 103, Type (0, 0), BuildingBlock: UVAHIK_clean_linker_0, # of connection points: 2
#     Edge 104, Type (0, 0), BuildingBlock: UVAHIK_clean_linker_0, # of connection points: 2
#     Edge 105, Type (0, 0), BuildingBlock: UVAHIK_clean_linker_0, # of connection points: 2
#     Edge 106, Type (0, 0), BuildingBlock: UVAHIK_clean_linker_0, # of connection points: 2
#     Edge 107, Type (0, 0), BuildingBlock: UVAHIK_clean_linker_0, # of connection points: 2
#     Edge 108, Type (0, 0), BuildingBlock: UVAHIK_clean_linker_0, # of connection points: 2
#     Edge 109, Type (0, 0), BuildingBlock: UVAHIK_clean_linker_0, # of connection points: 2
#     Edge 110, Type (0, 0), BuildingBlock: UVAHIK_clean_linker_0, # of connection points: 2
#     Edge 111, Type (0, 0), BuildingBlock: UVAHIK_clean_linker_0, # of connection points: 2
#     Edge 112, Type (0, 0), BuildingBlock: UVAHIK_clean_linker_0, # of connection points: 2
#     Edge 113, Type (0, 0), BuildingBlock: UVAHIK_clean_linker_0, # of connection points: 2
#     Edge 114, Type (0, 0), BuildingBlock: UVAHIK_clean_linker_0, # of connection points: 2
#     Edge 115, Type (0, 0), BuildingBlock: UVAHIK_clean_linker_0, # of connection points: 2
#     Edge 116, Type (0, 0), BuildingBlock: UVAHIK_clean_linker_0, # of connection points: 2
#     Edge 117, Type (0, 0), BuildingBlock: UVAHIK_clean_linker_0, # of connection points: 2
#     Edge 118, Type (0, 0), BuildingBlock: UVAHIK_clean_linker_0, # of connection points: 2
#     Edge 119, Type (0, 0), BuildingBlock: UVAHIK_clean_linker_0, # of connection points: 2
#     Edge 120, Type (0, 0), BuildingBlock: UVAHIK_clean_linker_0, # of connection points: 2
#     Edge 121, Type (0, 0), BuildingBlock: UVAHIK_clean_linker_0, # of connection points: 2
#     Edge 122, Type (0, 0), BuildingBlock: UVAHIK_clean_linker_0, # of connection points: 2
#     Edge 123, Type (0, 0), BuildingBlock: UVAHIK_clean_linker_0, # of connection points: 2
#     Edge 124, Type (0, 0), BuildingBlock: UVAHIK_clean_linker_0, # of connection points: 2
#     Edge 125, Type (0, 0), BuildingBlock: UVAHIK_clean_linker_0, # of connection points: 2
#     Edge 126, Type (0, 0), BuildingBlock: UVAHIK_clean_linker_0, # of connection points: 2
#     Edge 127, Type (0, 0), BuildingBlock: UVAHIK_clean_linker_0, # of connection points: 2
# Relax obj value: 0.193
# Max RMSD: 0.229
# Mean RMSD: 0.229
data_MOF--net-wio--node1-BETGAK_clean_sbu_0--edge1-UVAHIK_clean_linker_0
_symmetry_space_group_name_H-M    P1
_symmetry_Int_Tables_number       1
_symmetry_cell_setting            triclinic
loop_
_symmetry_equiv_pos_as_xyz
'x, y, z'
_cell_length_a     76.533461
_cell_length_b     76.579188
_cell_length_c     67.674091
_cell_angle_alpha  89.9885
_cell_angle_beta   90.023205
_cell_angle_gamma 90.015863
loop_
_atom_site_label
_atom_site_type_symbol
_atom_site_fract_x
_atom_site_fract_y
_atom_site_fract_z
_atom_type_partial_charge
La0 La 0.15565 0.1218 0.29046 0.0
La1 La 0.11703 0.12817 0.2969 0.0
C2 C 0.18561 0.11328 0.27784 0.0
C3 C 0.19765 0.11595 0.26089 0.0
C4 C 0.21437 0.12281 0.2645 0.0
C5 C 0.22664 0.12428 0.24926 0.0
C6 C 0.22257 0.11882 0.22995 0.0
C7 C 0.2057 0.11217 0.22625 0.0
C8 C 0.19336 0.11078 0.24153 0.0
C9 C 0.14781 0.15053 0.30988 0.0
C10 C 0.13189 0.13668 0.25496 0.0
C11 C 0.08863 0.13951 0.31116 0.0
C12 C 0.07658 0.13706 0.3281 0.0
C13 C 0.07074 0.12046 0.33401 0.0
C14 C 0.05795 0.11877 0.34876 0.0
C15 C 0.05076 0.13364 0.35797 0.0
C16 C 0.05709 0.15018 0.35242 0.0
C17 C 0.06981 0.15186 0.33765 0.0
C18 C 0.1248 0.09817 0.27971 0.0
C19 C 0.13953 0.10714 0.32988 0.0
O20 O 0.18265 0.12679 0.28917 0.0
O21 O 0.17148 0.10391 0.27508 0.0
O22 O 0.16136 0.14089 0.31327 0.0
O23 O 0.13955 0.14455 0.29513 0.0
O24 O 0.14669 0.12937 0.2609 0.0
O25 O 0.11884 0.13972 0.26738 0.0
O26 O 0.08964 0.12694 0.29811 0.0
O27 O 0.10393 0.14642 0.3149 0.0
O28 O 0.11034 0.10667 0.27675 0.0
O29 O 0.13316 0.10589 0.29304 0.0
O30 O 0.12498 0.11586 0.32534 0.0
O31 O 0.1528 0.10626 0.31729 0.0
H32 H 0.2181 0.12673 0.2793 0.0
H33 H 0.23953 0.12923 0.25278 0.0
H34 H 0.20203 0.10802 0.21153 0.0
H35 H 0.18059 0.10544 0.23823 0.0
H36 H 0.07579 0.10879 0.32699 0.0
H37 H 0.0536 0.10581 0.35284 0.0
H38 H 0.05177 0.16193 0.35898 0.0
H39 H 0.07403 0.16481 0.3333 0.0
La40 La 0.13886 0.90336 0.53908 0.0
La41 La 0.13139 0.86515 0.54703 0.0
C42 C 0.14823 0.9326 0.52504 0.0
C43 C 0.14438 0.94514 0.50877 0.0
C44 C 0.13532 0.96069 0.51291 0.0
C45 C 0.13333 0.97363 0.49844 0.0
C46 C 0.14047 0.97148 0.47942 0.0
C47 C 0.14918 0.95571 0.47514 0.0
C48 C 0.15115 0.94273 0.48963 0.0
C49 C 0.10975 0.89688 0.5586 0.0
C50 C 0.12268 0.87934 0.50466 0.0
C51 C 0.11915 0.83753 0.56231 0.0
C52 C 0.12161 0.82548 0.57923 0.0
C53 C 0.1382 0.82178 0.58707 0.0
C54 C 0.14014 0.80915 0.60199 0.0
C55 C 0.12554 0.80001 0.60941 0.0
C56 C 0.10893 0.80417 0.60181 0.0
C57 C 0.10701 0.81673 0.58691 0.0
C58 C 0.16144 0.87126 0.52912 0.0
C59 C 0.15377 0.88779 0.57866 0.0
O60 O 0.13642 0.93073 0.53885 0.0
O61 O 0.15563 0.9177 0.52052 0.0
O62 O 0.11963 0.91036 0.56138 0.0
O63 O 0.11566 0.88802 0.54431 0.0
O64 O 0.13012 0.89418 0.51012 0.0
O65 O 0.11977 0.86649 0.51742 0.0
O66 O 0.13134 0.83778 0.54876 0.0
O67 O 0.11324 0.85319 0.56619 0.0
O68 O 0.15247 0.85696 0.52722 0.0
O69 O 0.15421 0.88046 0.54213 0.0
O70 O 0.14429 0.87353 0.57499 0.0
O71 O 0.15512 0.90046 0.56537 0.0
H72 H 0.1301 0.96306 0.52754 0.0
H73 H 0.12629 0.98542 0.50225 0.0
H74 H 0.15504 0.95361 0.46078 0.0
H75 H 0.15839 0.93104 0.48595 0.0
H76 H 0.14967 0.82842 0.58147 0.0
H77 H 0.15311 0.80652 0.60766 0.0
H78 H 0.0974 0.79732 0.60692 0.0
H79 H 0.0941 0.81932 0.58104 0.0
La80 La 0.35654 0.88728 0.78931 0.0
La81 La 0.39515 0.88149 0.79704 0.0
C82 C 0.32683 0.89569 0.77583 0.0
C83 C 0.31476 0.89256 0.75896 0.0
C84 C 0.29853 0.88458 0.76255 0.0
C85 C 0.28609 0.88294 0.74747 0.0
C86 C 0.28948 0.88936 0.72837 0.0
C87 C 0.30588 0.89707 0.72467 0.0
C88 C 0.31838 0.89865 0.73977 0.0
C89 C 0.36432 0.85864 0.80893 0.0
C90 C 0.38127 0.87245 0.75472 0.0
C91 C 0.4235 0.87058 0.81193 0.0
C92 C 0.43539 0.87298 0.82905 0.0
C93 C 0.44071 0.88959 0.83553 0.0
C94 C 0.45343 0.89129 0.85038 0.0
C95 C 0.46109 0.87642 0.85912 0.0
C96 C 0.45527 0.85984 0.85299 0.0
C97 C 0.44261 0.85817 0.83814 0.0
C98 C 0.38728 0.91141 0.77962 0.0
C99 C 0.37162 0.90209 0.82926 0.0
O100 O 0.32948 0.88267 0.78797 0.0
O101 O 0.34114 0.90469 0.77268 0.0
O102 O 0.35045 0.86796 0.81174 0.0
O103 O 0.3729 0.86481 0.79453 0.0
O104 O 0.36614 0.87936 0.76011 0.0
O105 O 0.39416 0.86991 0.76751 0.0
O106 O 0.42248 0.88326 0.799 0.0
O107 O 0.40827 0.8634 0.81529 0.0
O108 O 0.40194 0.90316 0.77713 0.0
O109 O 0.37874 0.9035 0.79266 0.0
O110 O 0.38632 0.89343 0.82528 0.0
O111 O 0.35873 0.90295 0.81615 0.0
H112 H 0.29525 0.87998 0.77722 0.0
H113 H 0.27356 0.87715 0.75101 0.0
H114 H 0.30905 0.90197 0.71009 0.0
H115 H 0.33073 0.90492 0.73648 0.0
H116 H 0.43531 0.90127 0.82887 0.0
H117 H 0.45736 0.90427 0.85491 0.0
H118 H 0.46095 0.84809 0.85915 0.0
H119 H 0.43881 0.84521 0.83334 0.0
La120 La 0.37136 0.10551 0.03857 0.0
La121 La 0.3787 0.14364 0.0473 0.0
C122 C 0.36189 0.07646 0.0242 0.0
C123 C 0.3656 0.06412 1.00774 0.0
C124 C 0.3732 0.04783 1.01194 0.0
C125 C 0.37506 0.03516 0.99716 0.0
C126 C 0.36922 0.03838 0.97778 0.0
C127 C 0.36195 0.05485 0.97347 0.0
C128 C 0.36016 0.06756 0.98826 0.0
C129 C 0.40055 0.11184 0.058 0.0
C130 C 0.38737 0.13014 1.00465 0.0
C131 C 0.391 0.17107 0.06292 0.0
C132 C 0.38857 0.18297 0.07994 0.0
C133 C 0.37197 0.18676 0.08769 0.0
C134 C 0.37006 0.19928 0.10269 0.0
C135 C 0.3847 0.20825 0.11029 0.0
C136 C 0.40132 0.204 0.1028 0.0
C137 C 0.4032 0.19153 0.08781 0.0
C138 C 0.34854 0.13765 0.02951 0.0
C139 C 0.3567 0.12044 0.07863 0.0
O140 O 0.37384 0.07815 0.03789 0.0
O141 O 0.35446 0.0914 1.01997 0.0
O142 O 0.39078 0.09825 0.06057 0.0
O143 O 0.39448 0.12089 0.04396 0.0
O144 O 0.37998 0.11516 1.0097 0.0
O145 O 0.39026 0.14274 1.01771 0.0
O146 O 0.37884 0.171 0.04933 0.0
O147 O 0.39683 0.15535 0.06668 0.0
O148 O 0.35737 0.15207 0.0279 0.0
O149 O 0.35595 0.12829 0.04225 0.0
O150 O 0.36613 0.13477 0.0752 0.0
O151 O 0.35526 0.108 0.06507 0.0
H152 H 0.37728 0.04466 0.02685 0.0
H153 H 0.38051 0.02258 1.00112 0.0
H154 H 0.35751 0.05788 0.95867 0.0
H155 H 0.35416 0.07993 0.98448 0.0
H156 H 0.36047 0.18025 0.08195 0.0
H157 H 0.35708 0.202 0.10828 0.0
H158 H 0.41288 0.21071 0.10806 0.0
H159 H 0.41613 0.18887 0.08201 0.0
La160 La 0.1554 0.88778 0.25627 0.0
La161 La 0.11685 0.88148 0.24969 0.0
C162 C 0.18531 0.89632 0.26908 0.0
C163 C 0.1974 0.89355 0.28599 0.0
C164 C 0.21407 0.88661 0.28231 0.0
C165 C 0.22641 0.88511 0.29749 0.0
C166 C 0.22247 0.89063 0.31681 0.0
C167 C 0.20565 0.89734 0.32059 0.0
C168 C 0.19324 0.89877 0.30536 0.0
C169 C 0.14762 0.85896 0.23693 0.0
C170 C 0.13168 0.87266 0.29156 0.0
C171 C 0.08826 0.87061 0.23539 0.0
C172 C 0.07536 0.87426 0.21947 0.0
C173 C 0.05806 0.87825 0.22468 0.0
C174 C 0.04518 0.88038 0.21018 0.0
C175 C 0.04921 0.87848 0.19 0.0
C176 C 0.06661 0.87462 0.18475 0.0
C177 C 0.07954 0.87256 0.19931 0.0
C178 C 0.12462 0.91158 0.26677 0.0
C179 C 0.13945 0.90246 0.21676 0.0
O180 O 0.18244 0.88294 0.25753 0.0
O181 O 0.17113 0.90557 0.27197 0.0
O182 O 0.1612 0.86858 0.23364 0.0
O183 O 0.13928 0.86496 0.2516 0.0
O184 O 0.14638 0.88023 0.28579 0.0
O185 O 0.11878 0.86946 0.27898 0.0
O186 O 0.08935 0.88194 0.24981 0.0
O187 O 0.10362 0.86452 0.23035 0.0
O188 O 0.11013 0.90314 0.26963 0.0
O189 O 0.13299 0.90378 0.25353 0.0
O190 O 0.12485 0.89383 0.22129 0.0
O191 O 0.1527 0.90329 0.22939 0.0
H192 H 0.21772 0.88267 0.2675 0.0
H193 H 0.23927 0.88012 0.29391 0.0
H194 H 0.20207 0.90153 0.33532 0.0
H195 H 0.18051 0.90418 0.30872 0.0
H196 H 0.05438 0.8794 0.24009 0.0
H197 H 0.03192 0.88308 0.21486 0.0
H198 H 0.07025 0.87324 0.16937 0.0
H199 H 0.09274 0.86941 0.19476 0.0
La200 La 0.37086 0.90379 0.50866 0.0
La201 La 0.37873 0.86584 0.49964 0.0
C202 C 0.3609 0.93253 0.5234 0.0
C203 C 0.3648 0.94504 0.53967 0.0
C204 C 0.37288 0.96108 0.53534 0.0
C205 C 0.37485 0.97391 0.54993 0.0
C206 C 0.36864 0.97112 0.56925 0.0
C207 C 0.36089 0.9549 0.5737 0.0
C208 C 0.35898 0.94203 0.5591 0.0
C209 C 0.40031 0.89804 0.48949 0.0
C210 C 0.38726 0.87922 0.54242 0.0
C211 C 0.39142 0.83869 0.48383 0.0
C212 C 0.38898 0.82668 0.46691 0.0
C213 C 0.3724 0.82295 0.45907 0.0
C214 C 0.37048 0.81037 0.44412 0.0
C215 C 0.38511 0.80131 0.43666 0.0
C216 C 0.40172 0.8055 0.44425 0.0
C217 C 0.4036 0.81801 0.45918 0.0
C218 C 0.34843 0.87129 0.5173 0.0
C219 C 0.35646 0.88892 0.46842 0.0
O220 O 0.37235 0.93123 0.50912 0.0
O221 O 0.35418 0.91734 0.52801 0.0
O222 O 0.39045 0.91159 0.48709 0.0
O223 O 0.39423 0.88876 0.50333 0.0
O224 O 0.37969 0.89414 0.53745 0.0
O225 O 0.39028 0.86673 0.52926 0.0
O226 O 0.37949 0.83849 0.49767 0.0
O227 O 0.39678 0.85454 0.47989 0.0
O228 O 0.35739 0.85696 0.51877 0.0
O229 O 0.35576 0.88085 0.50471 0.0
O230 O 0.36611 0.87473 0.47176 0.0
O231 O 0.3548 0.90122 0.48212 0.0
H232 H 0.37724 0.96395 0.52046 0.0
H233 H 0.38066 0.98629 0.54585 0.0
H234 H 0.35615 0.95219 0.58846 0.0
H235 H 0.35258 0.92989 0.56298 0.0
H236 H 0.36091 0.82954 0.46472 0.0
H237 H 0.35752 0.8077 0.43846 0.0
H238 H 0.41326 0.7987 0.4391 0.0
H239 H 0.41652 0.82064 0.46505 0.0
La240 La 0.3564 0.12248 0.75719 0.0
La241 La 0.39511 0.12764 0.7502 0.0
C242 C 0.32628 0.1148 0.77004 0.0
C243 C 0.31425 0.11767 0.78699 0.0
C244 C 0.29815 0.12596 0.78362 0.0
C245 C 0.28573 0.12743 0.79871 0.0
C246 C 0.28901 0.12053 0.81762 0.0
C247 C 0.30529 0.1125 0.82112 0.0
C248 C 0.31778 0.11108 0.80599 0.0
C249 C 0.36494 0.15076 0.73731 0.0
C250 C 0.38097 0.13685 0.79226 0.0
C251 C 0.42391 0.13781 0.7358 0.0
C252 C 0.43545 0.13587 0.71823 0.0
C253 C 0.44496 0.12045 0.7147 0.0
C254 C 0.45745 0.11972 0.69954 0.0
C255 C 0.46084 0.13442 0.68763 0.0
C256 C 0.45092 0.14963 0.6908 0.0
C257 C 0.43842 0.15035 0.70591 0.0
C258 C 0.38657 0.09802 0.76784 0.0
C259 C 0.37168 0.10743 0.71758 0.0
O260 O 0.32957 0.12826 0.75873 0.0
O261 O 0.34015 0.10505 0.77272 0.0
O262 O 0.3511 0.14148 0.73413 0.0
O263 O 0.37312 0.14469 0.75205 0.0
O264 O 0.36581 0.13012 0.78661 0.0
O265 O 0.39403 0.13923 0.77967 0.0
O266 O 0.42229 0.12447 0.74774 0.0
O267 O 0.40911 0.14613 0.73343 0.0
O268 O 0.40117 0.10627 0.77076 0.0
O269 O 0.37836 0.10583 0.75444 0.0
O270 O 0.38638 0.11602 0.72176 0.0
O271 O 0.35864 0.10667 0.73048 0.0
H272 H 0.29497 0.13095 0.76907 0.0
H273 H 0.2733 0.13347 0.79532 0.0
H274 H 0.30837 0.10721 0.83555 0.0
H275 H 0.33004 0.10458 0.80911 0.0
H276 H 0.44315 0.10909 0.724 0.0
H277 H 0.46494 0.10784 0.69768 0.0
H278 H 0.45297 0.16112 0.68175 0.0
H279 H 0.43139 0.16245 0.70831 0.0
La280 La 0.13874 0.10547 1.0069 0.0
La281 La 0.13158 0.14378 0.99948 0.0
C282 C 0.14755 0.07587 1.0204 0.0
C283 C 0.14414 0.06361 0.03703 0.0
C284 C 0.1361 0.04747 0.03314 0.0
C285 C 0.13434 0.03486 0.048 0.0
C286 C 0.14072 0.03797 0.06718 0.0
C287 C 0.14846 0.05429 0.07121 0.0
C288 C 0.15014 0.06697 0.05633 0.0
C289 C 0.10978 0.11248 0.98733 0.0
C290 C 0.12305 0.12937 0.04171 0.0
C291 C 0.1196 0.17159 0.98439 0.0
C292 C 0.12212 0.18367 0.96748 0.0
C293 C 0.13879 0.1893 0.96149 0.0
C294 C 0.14057 0.20212 0.94678 0.0
C295 C 0.12575 0.20956 0.93769 0.0
C296 C 0.10914 0.20343 0.94333 0.0
C297 C 0.10737 0.19068 0.95805 0.0
C298 C 0.16161 0.13729 1.01729 0.0
C299 C 0.15365 0.12123 0.96748 0.0
O300 O 0.13495 0.07825 1.00763 0.0
O301 O 0.15596 0.0904 0.02414 0.0
O302 O 0.11969 0.09909 0.98415 0.0
O303 O 0.11567 0.12103 1.00188 0.0
O304 O 0.13052 0.11459 0.0361 0.0
O305 O 0.11998 0.14226 0.02906 0.0
O306 O 0.13179 0.17117 0.99795 0.0
O307 O 0.11343 0.15602 0.98052 0.0
O308 O 0.15272 0.15162 1.01942 0.0
O309 O 0.1543 0.12828 1.00415 0.0
O310 O 0.14438 0.13556 0.97143 0.0
O311 O 0.15487 0.10835 0.98053 0.0
H312 H 0.13156 0.04439 1.01837 0.0
H313 H 0.12853 0.0224 0.04423 0.0
H314 H 0.15333 0.05725 0.08585 0.0
H315 H 0.15646 0.07923 0.05987 0.0
H316 H 0.15042 0.18406 0.96842 0.0
H317 H 0.15358 0.2063 0.94263 0.0
H318 H 0.09741 0.20893 0.93688 0.0
H319 H 0.09438 0.18662 0.96246 0.0
La320 La 0.89442 0.88125 0.74974 0.0
La321 La 0.85608 0.88818 0.75744 0.0
C322 C 0.92216 0.86934 0.73442 0.0
C323 C 0.93428 0.87198 0.71758 0.0
C324 C 0.93981 0.88868 0.71163 0.0
C325 C 0.95264 0.89057 0.69694 0.0
C326 C 0.96018 0.87582 0.68783 0.0
C327 C 0.95415 0.85917 0.69344 0.0
C328 C 0.94139 0.8573 0.70814 0.0
C329 C 0.88796 0.91122 0.76757 0.0
C330 C 0.87156 0.90326 0.71793 0.0
C331 C 0.82648 0.89681 0.77107 0.0
C332 C 0.8143 0.89339 0.78776 0.0
C333 C 0.79769 0.88643 0.78372 0.0
C334 C 0.78522 0.88464 0.79872 0.0
C335 C 0.78895 0.88988 0.8182 0.0
C336 C 0.80574 0.89653 0.82233 0.0
C337 C 0.81827 0.89825 0.8073 0.0
C338 C 0.86322 0.85934 0.73774 0.0
C339 C 0.88024 0.87245 0.79201 0.0
O340 O 0.92182 0.88134 0.74818 0.0
O341 O 0.90654 0.86334 0.73044 0.0
O342 O 0.90236 0.90242 0.76953 0.0
O343 O 0.8788 0.9039 0.75456 0.0
O344 O 0.88603 0.89416 0.72181 0.0
O345 O 0.85869 0.90429 0.73102 0.0
O346 O 0.82888 0.88418 0.75836 0.0
O347 O 0.84098 0.90531 0.77471 0.0
O348 O 0.84975 0.86915 0.73463 0.0
O349 O 0.87174 0.86526 0.75228 0.0
O350 O 0.86541 0.87992 0.78654 0.0
O351 O 0.89307 0.8695 0.77925 0.0
H352 H 0.93449 0.90025 0.71858 0.0
H353 H 0.95674 0.9036 0.69282 0.0
H354 H 0.95973 0.8475 0.68699 0.0
H355 H 0.9374 0.84428 0.71252 0.0
H356 H 0.79417 0.88277 0.76877 0.0
H357 H 0.7724 0.87969 0.79487 0.0
H358 H 0.80917 0.90051 0.83719 0.0
H359 H 0.83093 0.90369 0.81095 0.0
La360 La 0.87931 0.14277 0.49969 0.0
La361 La 0.8727 0.10416 0.50627 0.0
C362 C 0.89088 0.17101 0.48527 0.0
C363 C 0.88836 0.18316 0.46843 0.0
C364 C 0.8717 0.18875 0.46238 0.0
C365 C 0.86993 0.20157 0.44768 0.0
C366 C 0.88476 0.20904 0.43865 0.0
C367 C 0.90137 0.20296 0.44435 0.0
C368 C 0.90313 0.19021 0.45907 0.0
C369 C 0.84922 0.13529 0.51685 0.0
C370 C 0.85829 0.12021 0.4667 0.0
C371 C 0.86413 0.07418 0.51873 0.0
C372 C 0.86476 0.06294 0.53654 0.0
C373 C 0.87937 0.06254 0.54913 0.0
C374 C 0.88027 0.05039 0.56466 0.0
C375 C 0.86656 0.03844 0.56796 0.0
C376 C 0.85178 0.03927 0.5556 0.0
C377 C 0.85092 0.05134 0.54008 0.0
C378 C 0.90127 0.11194 0.4865 0.0
C379 C 0.88738 0.12799 0.54171 0.0
O380 O 0.87849 0.17016 0.49857 0.0
O381 O 0.89747 0.15563 0.48133 0.0
O382 O 0.85779 0.14972 0.51968 0.0
O383 O 0.85692 0.12675 0.50365 0.0
O384 O 0.86678 0.13485 0.47138 0.0
O385 O 0.85761 0.1068 0.4791 0.0
O386 O 0.879 0.07773 0.51008 0.0
O387 O 0.85367 0.08771 0.51907 0.0
O388 O 0.89148 0.09849 0.48308 0.0
O389 O 0.89547 0.12012 0.50138 0.0
O390 O 0.87953 0.11344 0.53591 0.0
O391 O 0.89096 0.1408 0.52915 0.0
H392 H 0.86007 0.18347 0.46926 0.0
H393 H 0.85692 0.20572 0.44348 0.0
H394 H 0.91309 0.20849 0.43794 0.0
H395 H 0.91611 0.18617 0.46352 0.0
H396 H 0.89023 0.07137 0.54676 0.0
H397 H 0.89174 0.05031 0.57403 0.0
H398 H 0.84105 0.03019 0.55748 0.0
H399 H 0.83958 0.05131 0.53049 0.0
La400 La 0.61608 0.12854 0.24947 0.0
La401 La 0.65426 0.12131 0.25778 0.0
C402 C 0.58839 0.14031 0.23387 0.0
C403 C 0.57522 0.13646 0.21828 0.0
C404 C 0.55786 0.13316 0.22387 0.0
C405 C 0.54476 0.13099 0.20965 0.0
C406 C 0.5486 0.13215 0.18935 0.0
C407 C 0.56605 0.1353 0.18371 0.0
C408 C 0.57922 0.13742 0.198 0.0
C409 C 0.62205 0.09849 0.26741 0.0
C410 C 0.63896 0.10615 0.21812 0.0
C411 C 0.68361 0.11226 0.2718 0.0
C412 C 0.69592 0.11581 0.28836 0.0
C413 C 0.71174 0.12452 0.28456 0.0
C414 C 0.72447 0.12626 0.29931 0.0
C415 C 0.72181 0.1192 0.31827 0.0
C416 C 0.7058 0.1108 0.32222 0.0
C417 C 0.69302 0.10911 0.30746 0.0
C418 C 0.64761 0.15024 0.23795 0.0
C419 C 0.63004 0.13763 0.29178 0.0
O420 O 0.58864 0.13001 0.2493 0.0
O421 O 0.60416 0.14491 0.22841 0.0
O422 O 0.60764 0.1073 0.2689 0.0
O423 O 0.63145 0.10577 0.25462 0.0
O424 O 0.62456 0.11542 0.22174 0.0
O425 O 0.65167 0.10504 0.23142 0.0
O426 O 0.68155 0.12455 0.25857 0.0
O427 O 0.66888 0.10429 0.27575 0.0
O428 O 0.66111 0.14038 0.23521 0.0
O429 O 0.63883 0.14438 0.25231 0.0
O430 O 0.64482 0.12985 0.28674 0.0
O431 O 0.61752 0.14077 0.27869 0.0
H432 H 0.55431 0.13263 0.23936 0.0
H433 H 0.53148 0.12889 0.21463 0.0
H434 H 0.56955 0.13611 0.16824 0.0
H435 H 0.59244 0.14005 0.19315 0.0
H436 H 0.71451 0.12958 0.26994 0.0
H437 H 0.73669 0.1326 0.2956 0.0
H438 H 0.70319 0.10538 0.3367 0.0
H439 H 0.68105 0.10222 0.31092 0.0
La440 La 0.63195 0.8642 0.99989 0.0
La441 La 0.63949 0.90224 1.00893 0.0
C442 C 0.61959 0.83696 0.98389 0.0
C443 C 0.62223 0.8249 0.96701 0.0
C444 C 0.63895 0.81962 0.96085 0.0
C445 C 0.64086 0.80686 0.9461 0.0
C446 C 0.62611 0.79913 0.93715 0.0
C447 C 0.60943 0.8049 0.94301 0.0
C448 C 0.60754 0.8176 0.95776 0.0
C449 C 0.66215 0.86981 1.01773 0.0
C450 C 0.65426 0.88741 0.96886 0.0
C451 C 0.64911 0.93113 0.02361 0.0
C452 C 0.64505 0.94379 0.03969 0.0
C453 C 0.63678 0.95968 0.03511 0.0
C454 C 0.63471 0.97268 0.04948 0.0
C455 C 0.64099 0.97025 0.06884 0.0
C456 C 0.64888 0.95415 0.07356 0.0
C457 C 0.65093 0.94112 0.05917 0.0
C458 C 0.61025 0.89615 0.98938 0.0
C459 C 0.62307 0.87758 0.04259 0.0
O460 O 0.63133 0.83685 0.99795 0.0
O461 O 0.61415 0.85277 0.9799 0.0
O462 O 0.65326 0.85542 1.01909 0.0
O463 O 0.65482 0.87941 1.00515 0.0
O464 O 0.64466 0.87317 0.97211 0.0
O465 O 0.6558 0.89971 0.98258 0.0
O466 O 0.63782 0.92966 1.00919 0.0
O467 O 0.65586 0.91601 0.02846 0.0
O468 O 0.62002 0.90977 0.98704 0.0
O469 O 0.6163 0.88702 1.00337 0.0
O470 O 0.63053 0.89256 0.03765 0.0
O471 O 0.62023 0.86503 0.02944 0.0
H472 H 0.65052 0.82511 0.96767 0.0
H473 H 0.65391 0.80297 0.94179 0.0
H474 H 0.59776 0.79917 0.9367 0.0
H475 H 0.59451 0.8214 0.96232 0.0
H476 H 0.63226 0.96225 1.02022 0.0
H477 H 0.62831 0.98474 0.04531 0.0
H478 H 0.65407 0.95183 0.08821 0.0
H479 H 0.65756 0.92914 0.06321 0.0
La480 La 0.89414 0.1281 0.79722 0.0
La481 La 0.8559 0.12092 0.78944 0.0
C482 C 0.92195 0.14036 0.81207 0.0
C483 C 0.93421 0.13868 0.82892 0.0
C484 C 0.93813 0.1225 0.83769 0.0
C485 C 0.95115 0.1213 0.8523 0.0
C486 C 0.96054 0.13623 0.85835 0.0
C487 C 0.95607 0.15244 0.84994 0.0
C488 C 0.94309 0.15362 0.83543 0.0
C489 C 0.88785 0.09809 0.77937 0.0
C490 C 0.87144 0.10606 0.82904 0.0
C491 C 0.82643 0.11195 0.77566 0.0
C492 C 0.81415 0.11553 0.75907 0.0
C493 C 0.79802 0.12357 0.76304 0.0
C494 C 0.7854 0.12545 0.74819 0.0
C495 C 0.7885 0.1192 0.72895 0.0
C496 C 0.80481 0.11147 0.72487 0.0
C497 C 0.81748 0.10965 0.73973 0.0
C498 C 0.86271 0.14991 0.80903 0.0
C499 C 0.87997 0.13665 0.75483 0.0
O500 O 0.92152 0.12763 0.79919 0.0
O501 O 0.90637 0.14659 0.81572 0.0
O502 O 0.90216 0.10704 0.77733 0.0
O503 O 0.87867 0.10533 0.79241 0.0
O504 O 0.88579 0.11536 0.82526 0.0
O505 O 0.85866 0.10482 0.81584 0.0
O506 O 0.82861 0.12429 0.78878 0.0
O507 O 0.84109 0.10384 0.77174 0.0
O508 O 0.84925 0.14003 0.81198 0.0
O509 O 0.87137 0.14401 0.79458 0.0
O510 O 0.8651 0.1293 0.76035 0.0
O511 O 0.89285 0.13956 0.76755 0.0
H512 H 0.93144 0.11076 0.83293 0.0
H513 H 0.95427 0.10859 0.85835 0.0
H514 H 0.96273 0.16426 0.85445 0.0
H515 H 0.94025 0.16625 0.82893 0.0
H516 H 0.79495 0.128 0.77784 0.0
H517 H 0.77295 0.13126 0.752 0.0
H518 H 0.80774 0.10669 0.71018 0.0
H519 H 0.82973 0.10333 0.73613 0.0
La520 La 0.63278 0.14542 0.54633 0.0
La521 La 0.63812 0.1067 0.53951 0.0
C522 C 0.62207 0.17403 0.56068 0.0
C523 C 0.62425 0.1857 0.578 0.0
C524 C 0.64069 0.18901 0.5865 0.0
C525 C 0.64246 0.20142 0.60166 0.0
C526 C 0.62784 0.21075 0.60871 0.0
C527 C 0.61136 0.20696 0.6005 0.0
C528 C 0.60962 0.19463 0.58533 0.0
C529 C 0.66252 0.13708 0.52892 0.0
C530 C 0.65319 0.1222 0.57905 0.0
C531 C 0.64566 0.07646 0.52693 0.0
C532 C 0.64288 0.06427 0.5101 0.0
C533 C 0.63475 0.04813 0.51369 0.0
C534 C 0.63344 0.03552 0.49878 0.0
C535 C 0.64035 0.03861 0.47983 0.0
C536 C 0.64812 0.05498 0.47607 0.0
C537 C 0.6494 0.06765 0.49104 0.0
C538 C 0.60975 0.11542 0.55914 0.0
C539 C 0.62388 0.13114 0.50425 0.0
O540 O 0.63524 0.17266 0.54845 0.0
O541 O 0.6143 0.15902 0.56361 0.0
O542 O 0.6543 0.15171 0.5261 0.0
O543 O 0.65469 0.12874 0.5422 0.0
O544 O 0.64461 0.13687 0.57477 0.0
O545 O 0.65393 0.10909 0.56623 0.0
O546 O 0.63212 0.07992 0.53806 0.0
O547 O 0.65553 0.09024 0.52422 0.0
O548 O 0.61912 0.10174 0.56277 0.0
O549 O 0.61588 0.12334 0.54428 0.0
O550 O 0.63071 0.11605 0.50997 0.0
O551 O 0.62129 0.14417 0.51681 0.0
H552 H 0.6522 0.18224 0.58121 0.0
H553 H 0.65531 0.20376 0.60781 0.0
H554 H 0.59983 0.21396 0.60532 0.0
H555 H 0.59682 0.19236 0.57896 0.0
H556 H 0.62967 0.0451 0.52824 0.0
H557 H 0.62706 0.02326 0.5022 0.0
H558 H 0.65372 0.05783 0.46174 0.0
H559 H 0.65585 0.07991 0.48778 0.0
La560 La 0.61509 0.88197 0.29707 0.0
La561 La 0.65334 0.88871 0.28875 0.0
C562 C 0.58728 0.87065 0.31283 0.0
C563 C 0.57453 0.87452 0.32887 0.0
C564 C 0.55754 0.87991 0.3239 0.0
C565 C 0.54475 0.88208 0.33848 0.0
C566 C 0.54853 0.87881 0.3585 0.0
C567 C 0.56561 0.87357 0.36353 0.0
C568 C 0.57846 0.87144 0.3489 0.0
C569 C 0.62145 0.91177 0.27877 0.0
C570 C 0.63823 0.90434 0.32824 0.0
C571 C 0.68285 0.89722 0.27473 0.0
C572 C 0.695 0.89361 0.25805 0.0
C573 C 0.71107 0.8854 0.26189 0.0
C574 C 0.72364 0.88356 0.24699 0.0
C575 C 0.72055 0.89002 0.22784 0.0
C576 C 0.70428 0.89791 0.22388 0.0
C577 C 0.69166 0.89968 0.23879 0.0
C578 C 0.64634 0.86006 0.30893 0.0
C579 C 0.62888 0.87246 0.25483 0.0
O580 O 0.58762 0.88132 0.29772 0.0
O581 O 0.60298 0.86541 0.31778 0.0
O582 O 0.60696 0.90307 0.27726 0.0
O583 O 0.63072 0.90452 0.29171 0.0
O584 O 0.62375 0.89518 0.3247 0.0
O585 O 0.65097 0.90521 0.31495 0.0
O586 O 0.68055 0.88481 0.28774 0.0
O587 O 0.6683 0.90558 0.27096 0.0
O588 O 0.6599 0.86985 0.31165 0.0
O589 O 0.63766 0.86585 0.29444 0.0
O590 O 0.64375 0.88012 0.25982 0.0
O591 O 0.61632 0.86955 0.26793 0.0
H592 H 0.55399 0.88208 0.30859 0.0
H593 H 0.53171 0.88586 0.33394 0.0
H594 H 0.56907 0.8711 0.37879 0.0
H595 H 0.59136 0.86712 0.35329 0.0
H596 H 0.71415 0.88081 0.27663 0.0
H597 H 0.73606 0.87763 0.2507 0.0
H598 H 0.70134 0.90284 0.20925 0.0
H599 H 0.67947 0.90615 0.23529 0.0
La600 La 0.87933 0.86596 0.04724 0.0
La601 La 0.87169 0.90408 0.0396 0.0
C602 C 0.89179 0.83848 0.0626 0.0
C603 C 0.88915 0.82618 0.07925 0.0
C604 C 0.87246 0.82042 0.08497 0.0
C605 C 0.8706 0.80751 0.09957 0.0
C606 C 0.88538 0.80012 0.10881 0.0
C607 C 0.90201 0.80635 0.10341 0.0
C608 C 0.90385 0.81919 0.08881 0.0
C609 C 0.84924 0.87175 0.02932 0.0
C610 C 0.85691 0.88837 0.07912 0.0
C611 C 0.86275 0.93379 0.02654 0.0
C612 C 0.8639 0.94522 1.00894 0.0
C613 C 0.87897 0.94606 0.99712 0.0
C614 C 0.88017 0.95833 0.98173 0.0
C615 C 0.8663 0.96994 0.97781 0.0
C616 C 0.8511 0.9687 0.98944 0.0
C617 C 0.84994 0.95651 1.00479 0.0
C618 C 0.90041 0.89745 0.05976 0.0
C619 C 0.8875 0.88025 1.00495 0.0
O620 O 0.88007 0.83857 0.04851 0.0
O621 O 0.89719 0.85424 0.06693 0.0
O622 O 0.85838 0.85757 0.02738 0.0
O623 O 0.85636 0.88107 0.04233 0.0
O624 O 0.86598 0.87394 0.07505 0.0
O625 O 0.856 0.90145 0.0663 0.0
O626 O 0.87721 0.93076 0.03626 0.0
O627 O 0.85293 0.91984 0.02528 0.0
O628 O 0.89012 0.91055 0.06296 0.0
O629 O 0.89493 0.88892 0.045 0.0
O630 O 0.87923 0.89467 1.01031 0.0
O631 O 0.89123 0.86774 1.01785 0.0
H632 H 0.86088 0.82566 0.07793 0.0
H633 H 0.85758 0.80325 0.10353 0.0
H634 H 0.9137 0.80088 0.10996 0.0
H635 H 0.91686 0.82337 0.0846 0.0
H636 H 0.88993 0.93747 0.99998 0.0
H637 H 0.89198 0.95873 0.97293 0.0
H638 H 0.84024 0.97752 0.98709 0.0
H639 H 0.83824 0.95619 1.0138 0.0
La640 La 0.65287 0.62097 0.78755 0.0
La641 La 0.61479 0.6284 0.79645 0.0
C642 C 0.68186 0.61149 0.77297 0.0
C643 C 0.69425 0.61534 0.75658 0.0
C644 C 0.71074 0.62244 0.76097 0.0
C645 C 0.72343 0.62442 0.74621 0.0
C646 C 0.72002 0.6192 0.72665 0.0
C647 C 0.70336 0.61245 0.72216 0.0
C648 C 0.69063 0.61054 0.73693 0.0
C649 C 0.64674 0.6501 0.80714 0.0
C650 C 0.62822 0.63734 0.75383 0.0
C651 C 0.58745 0.64061 0.81238 0.0
C652 C 0.57539 0.63786 0.82924 0.0
C653 C 0.56967 0.62115 0.83488 0.0
C654 C 0.55688 0.6192 0.8496 0.0
C655 C 0.54957 0.63391 0.85903 0.0
C656 C 0.5558 0.65056 0.85372 0.0
C657 C 0.56852 0.65249 0.839 0.0
C658 C 0.62057 0.59827 0.77855 0.0
C659 C 0.638 0.60618 0.82759 0.0
O660 O 0.68028 0.62324 0.78689 0.0
O661 O 0.66684 0.60426 0.7686 0.0
O662 O 0.66032 0.64029 0.80957 0.0
O663 O 0.6376 0.64412 0.79311 0.0
O664 O 0.64317 0.6298 0.75877 0.0
O665 O 0.6157 0.64024 0.76699 0.0
O666 O 0.58741 0.62891 0.79828 0.0
O667 O 0.60325 0.64612 0.81641 0.0
O668 O 0.60618 0.60714 0.77707 0.0
O669 O 0.63003 0.60561 0.79124 0.0
O670 O 0.62369 0.61566 0.82423 0.0
O671 O 0.65041 0.60475 0.81398 0.0
H672 H 0.71404 0.62603 0.776 0.0
H673 H 0.73614 0.62946 0.75032 0.0
H674 H 0.70018 0.6085 0.70722 0.0
H675 H 0.6781 0.60495 0.73299 0.0
H676 H 0.57481 0.60962 0.82767 0.0
H677 H 0.55262 0.60616 0.85348 0.0
H678 H 0.5504 0.6622 0.86044 0.0
H679 H 0.57266 0.66552 0.83485 0.0
La680 La 0.63862 0.40349 0.03825 0.0
La681 La 0.63126 0.36543 0.04713 0.0
C682 C 0.64816 0.43245 0.02367 0.0
C683 C 0.64421 0.445 1.00745 0.0
C684 C 0.63616 0.46102 1.0119 0.0
C685 C 0.63416 0.47393 0.9974 0.0
C686 C 0.6403 0.47126 0.97802 0.0
C687 C 0.64796 0.45502 0.97344 0.0
C688 C 0.64993 0.44208 0.98797 0.0
C689 C 0.60943 0.3973 0.05781 0.0
C690 C 0.62232 0.37886 1.00449 0.0
C691 C 0.61909 0.33801 0.06292 0.0
C692 C 0.6218 0.32592 0.07975 0.0
C693 C 0.63855 0.32084 0.08602 0.0
C694 C 0.64055 0.30803 0.1007 0.0
C695 C 0.62585 0.30005 0.10946 0.0
C696 C 0.60912 0.30564 0.10351 0.0
C697 C 0.60715 0.31838 0.08884 0.0
C698 C 0.6614 0.3713 0.02923 0.0
C699 C 0.65344 0.38862 0.07829 0.0
O700 O 0.63663 0.4309 0.03783 0.0
O701 O 0.65516 0.4174 1.01903 0.0
O702 O 0.6192 0.41092 0.06019 0.0
O703 O 0.61546 0.38817 0.0438 0.0
O704 O 0.62976 0.39384 1.00946 0.0
O705 O 0.61948 0.3663 1.01762 0.0
O706 O 0.63088 0.33806 0.04893 0.0
O707 O 0.6135 0.35376 0.06697 0.0
O708 O 0.65254 0.3569 0.02773 0.0
O709 O 0.65405 0.38072 0.04194 0.0
O710 O 0.64393 0.37433 0.07495 0.0
O711 O 0.6549 0.401 0.06464 0.0
H712 H 0.63175 0.46378 0.02679 0.0
H713 H 0.62793 0.4861 1.00146 0.0
H714 H 0.65303 0.45251 0.95878 0.0
H715 H 0.65638 0.42999 0.98402 0.0
H716 H 0.65008 0.32651 0.07932 0.0
H717 H 0.65363 0.30427 0.10508 0.0
H718 H 0.59749 0.29971 0.10969 0.0
H719 H 0.5941 0.32203 0.08419 0.0
La720 La 0.85432 0.38716 0.29056 0.0
La721 La 0.89294 0.38084 0.29697 0.0
C722 C 0.82431 0.39555 0.27797 0.0
C723 C 0.81227 0.39297 0.26098 0.0
C724 C 0.79556 0.38609 0.26454 0.0
C725 C 0.78329 0.38468 0.24928 0.0
C726 C 0.78735 0.39022 0.23 0.0
C727 C 0.80422 0.39689 0.22635 0.0
C728 C 0.81656 0.39823 0.24165 0.0
C729 C 0.86224 0.35853 0.31016 0.0
C730 C 0.8779 0.37194 0.25524 0.0
C731 C 0.92151 0.36977 0.31107 0.0
C732 C 0.93468 0.37329 0.32671 0.0
C733 C 0.95221 0.37552 0.32119 0.0
C734 C 0.96528 0.37745 0.33548 0.0
C735 C 0.96121 0.37714 0.35576 0.0
C736 C 0.94358 0.37508 0.36131 0.0
C737 C 0.93044 0.3732 0.34695 0.0
C738 C 0.88517 0.41086 0.27968 0.0
C739 C 0.87054 0.40205 0.32985 0.0
O740 O 0.82737 0.38196 0.28913 0.0
O741 O 0.83836 0.40506 0.27534 0.0
O742 O 0.8487 0.36819 0.31352 0.0
O743 O 0.87046 0.36442 0.29535 0.0
O744 O 0.86326 0.37962 0.26102 0.0
O745 O 0.8908 0.36868 0.2678 0.0
O746 O 0.92045 0.38101 0.29656 0.0
O747 O 0.90612 0.36397 0.31643 0.0
O748 O 0.89968 0.40242 0.27692 0.0
O749 O 0.87681 0.40313 0.29299 0.0
O750 O 0.88515 0.39346 0.32526 0.0
O751 O 0.85719 0.40276 0.31736 0.0
H752 H 0.79183 0.3821 0.27931 0.0
H753 H 0.7704 0.37972 0.25277 0.0
H754 H 0.80789 0.4011 0.21165 0.0
H755 H 0.82934 0.40358 0.2384 0.0
H756 H 0.95588 0.37542 0.30573 0.0
H757 H 0.97869 0.37871 0.33058 0.0
H758 H 0.93992 0.37495 0.37677 0.0
H759 H 0.91704 0.37145 0.35171 0.0
La760 La 0.87103 0.60676 0.53784 0.0
La761 La 0.87852 0.64481 0.54665 0.0
C762 C 0.86131 0.57784 0.52328 0.0
C763 C 0.86537 0.56517 0.50722 0.0
C764 C 0.87472 0.54982 0.51151 0.0
C765 C 0.87683 0.53675 0.49722 0.0
C766 C 0.86953 0.53857 0.47823 0.0
C767 C 0.86053 0.55413 0.47379 0.0
C768 C 0.85843 0.56723 0.4881 0.0
C769 C 0.90028 0.61283 0.5573 0.0
C770 C 0.88725 0.63131 0.50396 0.0
C771 C 0.891 0.6723 0.56198 0.0
C772 C 0.88938 0.68438 0.57896 0.0
C773 C 0.8732 0.68838 0.58769 0.0
C774 C 0.87206 0.7013 0.6024 0.0
C775 C 0.88706 0.71052 0.60858 0.0
C776 C 0.90328 0.70596 0.60023 0.0
C777 C 0.9044 0.69307 0.58563 0.0
C778 C 0.84842 0.63897 0.52866 0.0
C779 C 0.85631 0.62176 0.57785 0.0
O780 O 0.87259 0.57933 0.53772 0.0
O781 O 0.85461 0.59297 0.51836 0.0
O782 O 0.89049 0.59922 0.55966 0.0
O783 O 0.89426 0.622 0.54331 0.0
O784 O 0.87998 0.61627 0.50905 0.0
O785 O 0.88997 0.64398 0.51698 0.0
O786 O 0.87831 0.67215 0.54902 0.0
O787 O 0.89707 0.65662 0.56545 0.0
O788 O 0.85737 0.65331 0.52703 0.0
O789 O 0.8557 0.62958 0.54147 0.0
O790 O 0.86596 0.63597 0.57457 0.0
O791 O 0.85475 0.60944 0.56417 0.0
H792 H 0.88008 0.54768 0.52613 0.0
H793 H 0.88408 0.52511 0.50115 0.0
H794 H 0.85452 0.55597 0.45945 0.0
H795 H 0.85093 0.57874 0.48431 0.0
H796 H 0.86141 0.68184 0.58281 0.0
H797 H 0.85935 0.70449 0.6084 0.0
H798 H 0.91515 0.71249 0.60485 0.0
H799 H 0.91702 0.69018 0.57916 0.0
La800 La 0.65353 0.38885 0.75847 0.0
La801 La 0.61561 0.38094 0.74964 0.0
C802 C 0.6824 0.39868 0.77304 0.0
C803 C 0.6948 0.39477 0.78939 0.0
C804 C 0.71113 0.38729 0.78504 0.0
C805 C 0.72381 0.38521 0.79978 0.0
C806 C 0.72058 0.3907 0.81928 0.0
C807 C 0.70408 0.39785 0.82373 0.0
C808 C 0.69135 0.39986 0.80899 0.0
C809 C 0.64776 0.35946 0.73918 0.0
C810 C 0.62912 0.37241 0.79233 0.0
C811 C 0.58848 0.36826 0.73374 0.0
C812 C 0.57633 0.3709 0.71696 0.0
C813 C 0.57017 0.38754 0.71162 0.0
C814 C 0.55732 0.38934 0.69695 0.0
C815 C 0.55041 0.37457 0.68726 0.0
C816 C 0.55708 0.35802 0.69224 0.0
C817 C 0.56986 0.35623 0.70693 0.0
C818 C 0.62099 0.41123 0.76733 0.0
C819 C 0.63849 0.40336 0.71837 0.0
O820 O 0.68096 0.38707 0.75895 0.0
O821 O 0.66728 0.40565 0.77752 0.0
O822 O 0.66122 0.36942 0.73668 0.0
O823 O 0.63854 0.36543 0.75313 0.0
O824 O 0.64397 0.38009 0.78734 0.0
O825 O 0.61663 0.36928 0.77919 0.0
O826 O 0.58824 0.37983 0.74797 0.0
O827 O 0.60437 0.36313 0.72956 0.0
O828 O 0.60671 0.40219 0.76884 0.0
O829 O 0.63055 0.40397 0.75469 0.0
O830 O 0.62427 0.39377 0.7218 0.0
O831 O 0.65092 0.40493 0.73195 0.0
H832 H 0.7143 0.38348 0.77005 0.0
H833 H 0.73641 0.37986 0.79571 0.0
H834 H 0.70104 0.40203 0.83863 0.0
H835 H 0.67896 0.40575 0.81289 0.0
H836 H 0.57501 0.3991 0.71905 0.0
H837 H 0.5527 0.40231 0.69331 0.0
H838 H 0.55199 0.34634 0.68531 0.0
H839 H 0.57436 0.34326 0.71083 0.0
La840 La 0.87134 0.40311 1.00791 0.0
La841 La 0.87868 0.3649 0.99985 0.0
C842 C 0.86189 0.43231 1.02195 0.0
C843 C 0.86565 0.44489 0.03819 0.0
C844 C 0.87416 0.46071 0.03389 0.0
C845 C 0.87603 0.47368 0.04834 0.0
C846 C 0.8693 0.47127 0.06751 0.0
C847 C 0.86116 0.45523 0.07196 0.0
C848 C 0.85932 0.44223 0.05748 0.0
C849 C 0.9005 0.39661 0.98853 0.0
C850 C 0.88733 0.37894 0.04228 0.0
C851 C 0.8908 0.33726 0.98451 0.0
C852 C 0.88821 0.32523 0.9676 0.0
C853 C 0.87152 0.32114 0.96027 0.0
C854 C 0.8695 0.30852 0.94538 0.0
C855 C 0.88411 0.29976 0.93745 0.0
C856 C 0.90081 0.30431 0.94451 0.0
C857 C 0.90281 0.31686 0.9594 0.0
C858 C 0.8485 0.37108 1.0175 0.0
C859 C 0.85667 0.38774 0.96813 0.0
O860 O 0.87374 0.43048 1.00817 0.0
O861 O 0.85453 0.41739 0.02647 0.0
O862 O 0.89072 0.41016 0.98581 0.0
O863 O 0.89449 0.3877 1.00273 0.0
O864 O 0.87995 0.39382 0.03687 0.0
O865 O 0.89024 0.36613 0.02949 0.0
O866 O 0.8787 0.33752 0.99816 0.0
O867 O 0.89672 0.35292 0.98059 0.0
O868 O 0.85737 0.35673 1.0194 0.0
O869 O 0.85589 0.38029 1.00461 0.0
O870 O 0.86606 0.37344 0.97181 0.0
O871 O 0.85524 0.40034 0.98149 0.0
H872 H 0.87904 0.46327 1.01914 0.0
H873 H 0.88264 0.48568 0.0444 0.0
H874 H 0.85563 0.45292 0.08645 0.0
H875 H 0.85251 0.4303 0.0613 0.0
H876 H 0.86003 0.32748 0.96627 0.0
H877 H 0.85646 0.30558 0.94013 0.0
H878 H 0.91236 0.29776 0.93899 0.0
H879 H 0.91581 0.31975 0.96486 0.0
La880 La 0.85568 0.62174 0.25688 0.0
La881 La 0.89427 0.62782 0.24933 0.0
C882 C 0.82598 0.6132 0.27027 0.0
C883 C 0.81388 0.61626 0.28711 0.0
C884 C 0.79728 0.62333 0.28332 0.0
C885 C 0.78489 0.62494 0.29843 0.0
C886 C 0.78871 0.6194 0.31778 0.0
C887 C 0.80548 0.61259 0.32167 0.0
C888 C 0.81793 0.61105 0.30652 0.0
C889 C 0.86334 0.65042 0.23722 0.0
C890 C 0.88021 0.63687 0.29154 0.0
C891 C 0.92253 0.63893 0.23447 0.0
C892 C 0.9345 0.63637 0.21748 0.0
C893 C 0.93995 0.6197 0.21136 0.0
C894 C 0.95272 0.61787 0.1966 0.0
C895 C 0.96029 0.63266 0.18759 0.0
C896 C 0.95433 0.64929 0.19336 0.0
C897 C 0.94163 0.6511 0.20812 0.0
C898 C 0.88659 0.59794 0.26689 0.0
C899 C 0.871 0.60686 0.2171 0.0
O900 O 0.82859 0.62625 0.25817 0.0
O901 O 0.84031 0.60427 0.27346 0.0
O902 O 0.84957 0.64096 0.23432 0.0
O903 O 0.87189 0.64434 0.25169 0.0
O904 O 0.86516 0.62976 0.28612 0.0
O905 O 0.89307 0.63955 0.27876 0.0
O906 O 0.92163 0.62648 0.24768 0.0
O907 O 0.90721 0.64581 0.23081 0.0
O908 O 0.90122 0.60629 0.26933 0.0
O909 O 0.87801 0.6057 0.25377 0.0
O910 O 0.88564 0.61561 0.22114 0.0
O911 O 0.85805 0.60598 0.23011 0.0
H912 H 0.7937 0.62725 0.26847 0.0
H913 H 0.77208 0.63001 0.29476 0.0
H914 H 0.80897 0.60839 0.33643 0.0
H915 H 0.83059 0.60552 0.30997 0.0
H916 H 0.93462 0.60809 0.21823 0.0
H917 H 0.95676 0.60485 0.19235 0.0
H918 H 0.95994 0.66099 0.18698 0.0
H919 H 0.93772 0.6641 0.21264 0.0
La920 La 0.63902 0.60643 0.50838 0.0
La921 La 0.63108 0.64434 0.49906 0.0
C922 C 0.64933 0.57784 0.52318 0.0
C923 C 0.64521 0.56461 0.53858 0.0
C924 C 0.64269 0.54718 0.53284 0.0
C925 C 0.64072 0.53396 0.54696 0.0
C926 C 0.64133 0.53778 0.5673 0.0
C927 C 0.64332 0.55537 0.57306 0.0
C928 C 0.64527 0.56863 0.55888 0.0
C929 C 0.60951 0.61199 0.48914 0.0
C930 C 0.62226 0.631 0.54183 0.0
C931 C 0.6184 0.67139 0.48299 0.0
C932 C 0.6211 0.68365 0.46632 0.0
C933 C 0.63783 0.68914 0.46043 0.0
C934 C 0.63977 0.70208 0.44588 0.0
C935 C 0.62504 0.70978 0.43687 0.0
C936 C 0.60835 0.70381 0.44245 0.0
C937 C 0.60643 0.69093 0.45699 0.0
C938 C 0.66136 0.63908 0.51693 0.0
C939 C 0.65369 0.6213 0.46821 0.0
O940 O 0.63871 0.57893 0.50808 0.0
O941 O 0.65491 0.59321 0.52886 0.0
O942 O 0.61928 0.59835 0.48705 0.0
O943 O 0.61563 0.6214 0.50285 0.0
O944 O 0.62987 0.61607 0.53702 0.0
O945 O 0.61932 0.64345 0.52859 0.0
O946 O 0.62984 0.67168 0.49735 0.0
O947 O 0.61345 0.65547 0.47868 0.0
O948 O 0.65238 0.65342 0.51814 0.0
O949 O 0.65407 0.62942 0.5044 0.0
O950 O 0.64392 0.63544 0.47132 0.0
O951 O 0.65536 0.60913 0.48206 0.0
H952 H 0.64265 0.54367 0.51733 0.0
H953 H 0.63887 0.52068 0.54189 0.0
H954 H 0.64398 0.55884 0.58856 0.0
H955 H 0.64726 0.58193 0.56383 0.0
H956 H 0.64938 0.68367 0.46732 0.0
H957 H 0.65283 0.70613 0.44178 0.0
H958 H 0.5967 0.70951 0.43608 0.0
H959 H 0.59339 0.68697 0.46134 0.0
La960 La 0.394 0.38134 0.24932 0.0
La961 La 0.35544 0.38775 0.25614 0.0
C962 C 0.42233 0.37002 0.23478 0.0
C963 C 0.43446 0.37255 0.2179 0.0
C964 C 0.43959 0.38923 0.21142 0.0
C965 C 0.45242 0.39107 0.19671 0.0
C966 C 0.46037 0.3763 0.18811 0.0
C967 C 0.45477 0.35965 0.19428 0.0
C968 C 0.44201 0.35783 0.20899 0.0
C969 C 0.38646 0.41143 0.26638 0.0
C970 C 0.3712 0.40222 0.2165 0.0
C971 C 0.32561 0.39633 0.26915 0.0
C972 C 0.31352 0.39342 0.28605 0.0
C973 C 0.29725 0.38549 0.28254 0.0
C974 C 0.28484 0.38395 0.29765 0.0
C975 C 0.28829 0.39042 0.31672 0.0
C976 C 0.30472 0.39811 0.32034 0.0
C977 C 0.3172 0.39958 0.3052 0.0
C978 C 0.36314 0.35886 0.23691 0.0
C979 C 0.3794 0.37289 0.29143 0.0
O980 O 0.42139 0.38247 0.24799 0.0
O981 O 0.40699 0.36325 0.23096 0.0
O982 O 0.40093 0.40293 0.2692 0.0
O983 O 0.3779 0.40369 0.25322 0.0
O984 O 0.38576 0.39347 0.2209 0.0
O985 O 0.35809 0.40324 0.22927 0.0
O986 O 0.32837 0.38311 0.25734 0.0
O987 O 0.33986 0.40545 0.27216 0.0
O988 O 0.34953 0.36845 0.23362 0.0
O989 O 0.37149 0.36496 0.25153 0.0
O990 O 0.36457 0.38015 0.28558 0.0
O991 O 0.39241 0.36987 0.27893 0.0
H992 H 0.43394 0.40083 0.21795 0.0
H993 H 0.45617 0.4041 0.19216 0.0
H994 H 0.46067 0.34796 0.18824 0.0
H995 H 0.43835 0.34483 0.21379 0.0
H996 H 0.29393 0.38082 0.2679 0.0
H997 H 0.27229 0.37817 0.29418 0.0
H998 H 0.30794 0.40306 0.33488 0.0
H999 H 0.32958 0.4058 0.30844 0.0
La1000 La 0.37865 0.64387 0.99989 0.0
La1001 La 0.37105 0.6057 1.00763 0.0
C1002 C 0.3911 0.67139 0.98463 0.0
C1003 C 0.38871 0.6835 0.96775 0.0
C1004 C 0.37211 0.68922 0.96166 0.0
C1005 C 0.37047 0.70201 0.94691 0.0
C1006 C 0.38538 0.70933 0.93789 0.0
C1007 C 0.40193 0.70311 0.94363 0.0
C1008 C 0.40355 0.69038 0.95839 0.0
C1009 C 0.34848 0.63791 1.01754 0.0
C1010 C 0.35636 0.62138 0.96802 0.0
C1011 C 0.36179 0.57634 1.02137 0.0
C1012 C 0.36546 0.56397 0.03783 0.0
C1013 C 0.37349 0.54787 0.03369 0.0
C1014 C 0.37542 0.53517 0.04843 0.0
C1015 C 0.36922 0.53815 0.06771 0.0
C1016 C 0.36151 0.55443 0.07197 0.0
C1017 C 0.35965 0.56718 0.05722 0.0
C1018 C 0.40019 0.61228 0.9882 0.0
C1019 C 0.38709 0.62959 0.04225 0.0
O1020 O 0.37902 0.67125 0.99832 0.0
O1021 O 0.39685 0.65568 0.98069 0.0
O1022 O 0.35748 0.65218 1.01949 0.0
O1023 O 0.35572 0.62863 1.0046 0.0
O1024 O 0.36583 0.63561 0.97184 0.0
O1025 O 0.35493 0.60865 0.98124 0.0
O1026 O 0.37398 0.57838 1.00803 0.0
O1027 O 0.35398 0.59109 0.02554 0.0
O1028 O 0.39023 0.5989 0.98517 0.0
O1029 O 0.39428 0.62097 1.00261 0.0
O1030 O 0.3795 0.61483 0.03674 0.0
O1031 O 0.39021 0.64239 0.02951 0.0
H1032 H 0.36042 0.68406 0.96855 0.0
H1033 H 0.35751 0.70627 0.94268 0.0
H1034 H 0.41371 0.70852 0.93723 0.0
H1035 H 0.41649 0.68623 0.96288 0.0
H1036 H 0.37787 0.54489 1.01885 0.0
H1037 H 0.38121 0.52275 0.0445 0.0
H1038 H 0.35677 0.55727 0.0867 0.0
H1039 H 0.35333 0.5794 0.06095 0.0
La1040 La 0.11542 0.62816 0.74967 0.0
La1041 La 0.15364 0.62114 0.75749 0.0
C1042 C 0.08751 0.63963 0.73422 0.0
C1043 C 0.07466 0.63589 0.71824 0.0
C1044 C 0.05754 0.631 0.72332 0.0
C1045 C 0.04467 0.62891 0.70878 0.0
C1046 C 0.0485 0.63177 0.6887 0.0
C1047 C 0.06571 0.63653 0.68357 0.0
C1048 C 0.07863 0.63856 0.69815 0.0
C1049 C 0.12174 0.59807 0.76742 0.0
C1050 C 0.13826 0.6061 0.71793 0.0
C1051 C 0.18314 0.61236 0.77133 0.0
C1052 C 0.19539 0.61596 0.78794 0.0
C1053 C 0.21166 0.6237 0.78392 0.0
C1054 C 0.22425 0.62556 0.79879 0.0
C1055 C 0.22099 0.61961 0.81812 0.0
C1056 C 0.20453 0.6122 0.82226 0.0
C1057 C 0.19188 0.6104 0.80736 0.0
C1058 C 0.14673 0.65007 0.73777 0.0
C1059 C 0.12961 0.63719 0.79188 0.0
O1060 O 0.08793 0.62887 0.74924 0.0
O1061 O 0.1032 0.64488 0.72921 0.0
O1062 O 0.10735 0.60687 0.76926 0.0
O1063 O 0.13094 0.60542 0.7545 0.0
O1064 O 0.12385 0.61529 0.72174 0.0
O1065 O 0.15104 0.60496 0.73112 0.0
O1066 O 0.1809 0.62475 0.75826 0.0
O1067 O 0.16853 0.60415 0.7752 0.0
O1068 O 0.16022 0.64023 0.73487 0.0
O1069 O 0.13808 0.6442 0.75225 0.0
O1070 O 0.14433 0.62946 0.78654 0.0
O1071 O 0.11691 0.64031 0.77899 0.0
H1072 H 0.05396 0.62915 0.73867 0.0
H1073 H 0.03156 0.62552 0.7134 0.0
H1074 H 0.06921 0.63866 0.66826 0.0
H1075 H 0.09164 0.64247 0.69368 0.0
H1076 H 0.21486 0.62789 0.76906 0.0
H1077 H 0.23682 0.63112 0.79494 0.0
H1078 H 0.20146 0.60766 0.83701 0.0
H1079 H 0.17951 0.60433 0.811 0.0
La1080 La 0.1314 0.36648 0.4992 0.0
La1081 La 0.13795 0.405 0.50616 0.0
C1082 C 0.11984 0.33834 0.48451 0.0
C1083 C 0.12236 0.32625 0.46761 0.0
C1084 C 0.13898 0.32031 0.4619 0.0
C1085 C 0.14071 0.30749 0.4472 0.0
C1086 C 0.12587 0.30034 0.43786 0.0
C1087 C 0.1093 0.30678 0.44321 0.0
C1088 C 0.10759 0.31954 0.45792 0.0
C1089 C 0.16143 0.37384 0.51656 0.0
C1090 C 0.15279 0.38917 0.46667 0.0
C1091 C 0.14654 0.43479 0.51921 0.0
C1092 C 0.14359 0.44683 0.53611 0.0
C1093 C 0.13618 0.4633 0.53248 0.0
C1094 C 0.13454 0.47562 0.54764 0.0
C1095 C 0.1404 0.47186 0.56689 0.0
C1096 C 0.14758 0.45523 0.57062 0.0
C1097 C 0.14914 0.44284 0.55542 0.0
C1098 C 0.10918 0.39737 0.48662 0.0
C1099 C 0.1228 0.38104 0.5413 0.0
O1100 O 0.1322 0.33909 0.49786 0.0
O1101 O 0.11328 0.35375 0.48066 0.0
O1102 O 0.15285 0.35938 0.51921 0.0
O1103 O 0.15378 0.38247 0.50338 0.0
O1104 O 0.14397 0.37462 0.47095 0.0
O1105 O 0.15366 0.4023 0.47944 0.0
O1106 O 0.13331 0.43205 0.50738 0.0
O1107 O 0.15566 0.42054 0.52222 0.0
O1108 O 0.11884 0.41093 0.48338 0.0
O1109 O 0.11516 0.38904 0.50129 0.0
O1110 O 0.13015 0.39586 0.53555 0.0
O1111 O 0.11979 0.36808 0.52873 0.0
H1112 H 0.15062 0.32531 0.46903 0.0
H1113 H 0.15369 0.30306 0.44328 0.0
H1114 H 0.09757 0.30151 0.43655 0.0
H1115 H 0.09463 0.32384 0.46212 0.0
H1116 H 0.13198 0.46682 0.51771 0.0
H1117 H 0.12919 0.48833 0.5441 0.0
H1118 H 0.15204 0.4518 0.5853 0.0
H1119 H 0.15493 0.43028 0.55875 0.0
La1120 La 0.39398 0.62797 0.2973 0.0
La1121 La 0.35542 0.6219 0.29064 0.0
C1122 C 0.42257 0.63867 0.31183 0.0
C1123 C 0.43532 0.63499 0.32793 0.0
C1124 C 0.45225 0.62939 0.32301 0.0
C1125 C 0.46508 0.62731 0.3376 0.0
C1126 C 0.46138 0.63087 0.35758 0.0
C1127 C 0.44435 0.63632 0.36255 0.0
C1128 C 0.43148 0.63835 0.34792 0.0
C1129 C 0.38619 0.59798 0.28005 0.0
C1130 C 0.37121 0.60695 0.33006 0.0
C1131 C 0.32541 0.61375 0.2778 0.0
C1132 C 0.31341 0.61659 0.26081 0.0
C1133 C 0.29692 0.62403 0.26431 0.0
C1134 C 0.28464 0.6256 0.24907 0.0
C1135 C 0.28844 0.61964 0.22989 0.0
C1136 C 0.30509 0.61242 0.22629 0.0
C1137 C 0.31744 0.61093 0.24156 0.0
C1138 C 0.36344 0.65056 0.31019 0.0
C1139 C 0.37928 0.63689 0.25541 0.0
O1140 O 0.42148 0.62729 0.29746 0.0
O1141 O 0.40722 0.64493 0.31665 0.0
O1142 O 0.4007 0.60642 0.27728 0.0
O1143 O 0.37774 0.60571 0.29329 0.0
O1144 O 0.38587 0.61551 0.32559 0.0
O1145 O 0.35797 0.60625 0.31742 0.0
O1146 O 0.32848 0.62718 0.28921 0.0
O1147 O 0.33943 0.60424 0.27507 0.0
O1148 O 0.34984 0.64096 0.31351 0.0
O1149 O 0.37164 0.64459 0.29541 0.0
O1150 O 0.36454 0.6294 0.26116 0.0
O1151 O 0.39221 0.63999 0.26799 0.0
H1152 H 0.45573 0.62697 0.30774 0.0
H1153 H 0.47806 0.62336 0.3331 0.0
H1154 H 0.44095 0.63901 0.37778 0.0
H1155 H 0.41861 0.6428 0.35226 0.0
H1156 H 0.29337 0.62833 0.27902 0.0
H1157 H 0.27192 0.63099 0.25252 0.0
H1158 H 0.30857 0.60788 0.21166 0.0
H1159 H 0.33002 0.60512 0.23834 0.0
La1160 La 0.13137 0.6438 0.04721 0.0
La1161 La 0.13908 0.6057 0.03905 0.0
C1162 C 0.11884 0.6712 0.06267 0.0
C1163 C 0.12133 0.68327 0.07954 0.0
C1164 C 0.13791 0.68684 0.08748 0.0
C1165 C 0.13989 0.69943 0.10241 0.0
C1166 C 0.12532 0.70867 0.10975 0.0
C1167 C 0.10871 0.70465 0.10204 0.0
C1168 C 0.10677 0.69213 0.08713 0.0
C1169 C 0.16149 0.63809 0.02934 0.0
C1170 C 0.15392 0.6212 0.07871 0.0
C1171 C 0.14856 0.57657 0.02488 0.0
C1172 C 0.14459 0.56403 1.00867 0.0
C1173 C 0.13627 0.54813 1.01307 0.0
C1174 C 0.13414 0.53526 0.99856 0.0
C1175 C 0.14043 0.53783 0.97923 0.0
C1176 C 0.1484 0.55394 0.9747 0.0
C1177 C 0.15049 0.56685 0.98923 0.0
C1178 C 0.1099 0.61198 0.05854 0.0
C1179 C 0.12265 0.62973 1.00479 0.0
O1180 O 0.13085 0.67118 0.04892 0.0
O1181 O 0.11329 0.65543 0.06668 0.0
O1182 O 0.15244 0.65235 0.0276 0.0
O1183 O 0.15432 0.62868 0.04222 0.0
O1184 O 0.14433 0.63539 0.07513 0.0
O1185 O 0.15537 0.60861 0.06532 0.0
O1186 O 0.1369 0.57831 0.03888 0.0
O1187 O 0.15577 0.59153 1.02026 0.0
O1188 O 0.11983 0.59855 0.06132 0.0
O1189 O 0.11582 0.62085 0.04428 0.0
O1190 O 0.13027 0.61495 1.01013 0.0
O1191 O 0.11964 0.64247 1.01764 0.0
H1192 H 0.14935 0.6801 0.08195 0.0
H1193 H 0.15284 0.70196 0.10816 0.0
H1194 H 0.09721 0.71158 0.10709 0.0
H1195 H 0.09385 0.68963 0.08118 0.0
H1196 H 0.13171 0.54546 0.02792 0.0
H1197 H 0.12768 0.5232 1.00259 0.0
H1198 H 0.15359 0.55638 0.96008 0.0
H1199 H 0.15714 0.57885 0.98532 0.0
La1200 La 0.11538 0.38107 0.79683 0.0
La1201 La 0.15366 0.38822 0.78919 0.0
C1202 C 0.08763 0.36907 0.81208 0.0
C1203 C 0.07554 0.37166 0.82896 0.0
C1204 C 0.07016 0.38835 0.8351 0.0
C1205 C 0.05737 0.39022 0.84983 0.0
C1206 C 0.04971 0.37545 0.8588 0.0
C1207 C 0.05558 0.3588 0.85298 0.0
C1208 C 0.0683 0.35696 0.83824 0.0
C1209 C 0.1217 0.41113 0.77909 0.0
C1210 C 0.13809 0.40311 0.82871 0.0
C1211 C 0.18323 0.39704 0.77557 0.0
C1212 C 0.19548 0.3935 0.75897 0.0
C1213 C 0.2117 0.38566 0.76296 0.0
C1214 C 0.22429 0.3838 0.74808 0.0
C1215 C 0.22107 0.38988 0.7288 0.0
C1216 C 0.20467 0.39742 0.7247 0.0
C1217 C 0.19202 0.39921 0.73959 0.0
C1218 C 0.14673 0.35928 0.80883 0.0
C1219 C 0.12963 0.37248 0.75452 0.0
O1220 O 0.08798 0.38113 0.79838 0.0
O1221 O 0.10326 0.36307 0.81604 0.0
O1222 O 0.10736 0.40225 0.77709 0.0
O1223 O 0.13089 0.40383 0.79209 0.0
O1224 O 0.12374 0.39383 0.82485 0.0
O1225 O 0.1509 0.40435 0.81557 0.0
O1226 O 0.18091 0.38456 0.78851 0.0
O1227 O 0.16866 0.40533 0.77173 0.0
O1228 O 0.16016 0.36916 0.81187 0.0
O1229 O 0.13813 0.36517 0.79431 0.0
O1230 O 0.14444 0.37995 0.76005 0.0
O1231 O 0.11678 0.36945 0.76724 0.0
H1232 H 0.07558 0.39994 0.82827 0.0
H1233 H 0.0534 0.40325 0.85411 0.0
H1234 H 0.04991 0.34712 0.85932 0.0
H1235 H 0.07218 0.34395 0.83371 0.0
H1236 H 0.21486 0.38135 0.77779 0.0
H1237 H 0.23681 0.37814 0.7519 0.0
H1238 H 0.20163 0.40206 0.70998 0.0
H1239 H 0.17969 0.40537 0.73597 0.0
La1240 La 0.37789 0.36566 0.54685 0.0
La1241 La 0.37166 0.40432 0.54025 0.0
C1242 C 0.38922 0.33706 0.56061 0.0
C1243 C 0.38839 0.32529 0.578 0.0
C1244 C 0.37253 0.32078 0.58716 0.0
C1245 C 0.37211 0.30803 0.60209 0.0
C1246 C 0.38754 0.29947 0.60812 0.0
C1247 C 0.40344 0.30457 0.59939 0.0
C1248 C 0.40384 0.31728 0.58453 0.0
C1249 C 0.34804 0.37352 0.52941 0.0
C1250 C 0.35707 0.38829 0.57972 0.0
C1251 C 0.36311 0.43423 0.52755 0.0
C1252 C 0.36623 0.44659 0.51094 0.0
C1253 C 0.37482 0.46246 0.51474 0.0
C1254 C 0.37644 0.47519 0.5 0.0
C1255 C 0.36938 0.4725 0.48103 0.0
C1256 C 0.36114 0.4564 0.47708 0.0
C1257 C 0.35955 0.44361 0.49186 0.0
C1258 C 0.40034 0.39636 0.55975 0.0
C1259 C 0.38645 0.38046 0.50479 0.0
O1260 O 0.37523 0.33847 0.54959 0.0
O1261 O 0.39726 0.35202 0.56277 0.0
O1262 O 0.35662 0.35913 0.52636 0.0
O1263 O 0.35565 0.3819 0.54283 0.0
O1264 O 0.36609 0.37387 0.57546 0.0
O1265 O 0.35591 0.40134 0.56687 0.0
O1266 O 0.37614 0.4314 0.53964 0.0
O1267 O 0.35414 0.41997 0.52406 0.0
O1268 O 0.39083 0.41001 0.56304 0.0
O1269 O 0.39429 0.38815 0.54502 0.0
O1270 O 0.37961 0.39544 0.5108 0.0
O1271 O 0.38901 0.36721 0.51709 0.0
H1272 H 0.3604 0.32676 0.58243 0.0
H1273 H 0.35962 0.30441 0.60837 0.0
H1274 H 0.41562 0.29856 0.60387 0.0
H1275 H 0.41624 0.32055 0.57774 0.0
H1276 H 0.38001 0.4652 0.52931 0.0
H1277 H 0.38316 0.48723 0.50357 0.0
H1278 H 0.35539 0.45387 0.46274 0.0
H1279 H 0.35274 0.43159 0.48843 0.0
C1280 C 0.23806 0.10571 0.20054 0.0
C1281 C 0.23612 0.11956 0.21402 0.0
C1282 C 0.25133 0.10598 0.18626 0.0
C1283 C 0.29401 0.12716 0.17448 0.0
H1284 H 0.28547 0.10811 0.12232 0.0
C1285 C 0.3432 0.13408 0.10902 0.0
C1286 C 0.3449 0.11974 0.09614 0.0
C1287 C 0.33051 0.13406 0.12401 0.0
C1288 C 0.28817 0.11331 0.13689 0.0
H1289 H 0.24642 0.14484 0.22252 0.0
H1290 H 0.26937 0.14543 0.19756 0.0
H1291 H 0.26203 0.10836 0.14662 0.0
H1292 H 0.33492 0.09384 0.0896 0.0
H1293 H 0.31309 0.09376 0.1157 0.0
H1294 H 0.32017 0.13221 0.1646 0.0
C1295 C 0.2609 0.13413 0.19828 0.0
C1296 C 0.27469 0.11345 0.15087 0.0
C1297 C 0.24766 0.13382 0.2126 0.0
C1298 C 0.33399 0.10517 0.09912 0.0
C1299 C 0.32132 0.10517 0.11402 0.0
C1300 C 0.3075 0.12707 0.16045 0.0
C1301 C 0.26302 0.12016 0.18497 0.0
C1302 C 0.2774 0.1203 0.16993 0.0
C1303 C 0.31916 0.11973 0.12646 0.0
C1304 C 0.3048 0.12005 0.14148 0.0
H1305 H 0.22962 0.09438 0.20136 0.0
H1306 H 0.25267 0.09485 0.17652 0.0
H1307 H 0.29673 0.13232 0.18906 0.0
H1308 H 0.3513 0.14556 0.10716 0.0
H1309 H 0.3292 0.14553 0.13323 0.0
C1310 C 0.15475 0.08545 0.35179 0.0
C1311 C 0.13978 0.09543 0.3475 0.0
C1312 C 0.15449 0.07276 0.36667 0.0
C1313 C 0.13015 0.05727 0.4109 0.0
H1314 H 0.15334 0.01346 0.39916 0.0
C1315 C 0.14113 1.00346 0.47018 0.0
C1316 C 0.1394 0.98586 0.46443 0.0
C1317 C 0.14055 0.01694 0.45618 0.0
C1318 C 0.14666 0.02554 0.40266 0.0
H1319 H 0.11291 0.10017 0.35616 0.0
H1320 H 0.11248 0.07801 0.38217 0.0
H1321 H 0.15349 0.03686 0.37479 0.0
H1322 H 0.13533 0.96886 0.43921 0.0
H1323 H 0.1344 0.99232 0.41484 0.0
H1324 H 0.12311 0.04579 0.43869 0.0
C1325 C 0.12447 0.08008 0.37402 0.0
C1326 C 0.14694 0.03909 0.38875 0.0
C1327 C 0.12472 0.09281 0.35906 0.0
C1328 C 0.13698 0.98219 0.44423 0.0
C1329 C 0.13644 0.99568 0.43021 0.0
C1330 C 0.12992 0.04371 0.42487 0.0
C1331 C 0.13926 0.06963 0.37776 0.0
C1332 C 0.13876 0.05519 0.39268 0.0
C1333 C 0.13828 0.01326 0.43597 0.0
C1334 C 0.13821 0.02765 0.42096 0.0
H1335 H 0.16663 0.08711 0.34331 0.0
H1336 H 0.16625 0.06526 0.36937 0.0
H1337 H 0.12378 0.06948 0.41451 0.0
H1338 H 0.14334 0.00686 0.4855 0.0
H1339 H 0.14231 0.03026 0.46117 0.0
C1340 C 0.26475 0.87386 0.71082 0.0
C1341 C 0.27568 0.88856 0.71269 0.0
C1342 C 0.25133 0.87345 0.6967 0.0
C1343 C 0.23616 0.89507 0.65036 0.0
H1344 H 0.19159 0.87406 0.66372 0.0
C1345 C 0.17615 0.90302 0.59963 0.0
C1346 C 0.16567 0.88823 0.59611 0.0
C1347 C 0.18894 0.90291 0.61441 0.0
C1348 C 0.204 0.87983 0.65966 0.0
H1349 H 0.28082 0.91445 0.70108 0.0
H1350 H 0.2575 0.91378 0.67659 0.0
H1351 H 0.21528 0.87402 0.6879 0.0
H1352 H 0.16016 0.86187 0.60604 0.0
H1353 H 0.1825 0.86169 0.6319 0.0
H1354 H 0.22489 0.90095 0.62218 0.0
C1355 C 0.25946 0.90239 0.6858 0.0
C1356 C 0.21763 0.87979 0.67354 0.0
C1357 C 0.2729 0.90278 0.69989 0.0
C1358 C 0.16791 0.87353 0.60835 0.0
C1359 C 0.18074 0.87343 0.62321 0.0
C1360 C 0.22253 0.89515 0.63653 0.0
C1361 C 0.24842 0.88775 0.68403 0.0
C1362 C 0.23391 0.88747 0.66913 0.0
C1363 C 0.19167 0.88801 0.62617 0.0
C1364 C 0.20621 0.88763 0.64099 0.0
H1365 H 0.26663 0.86256 0.72021 0.0
H1366 H 0.24335 0.86182 0.69559 0.0
H1367 H 0.24856 0.9008 0.6462 0.0
H1368 H 0.17477 0.91464 0.59064 0.0
H1369 H 0.19681 0.91451 0.61651 0.0
C1370 C 0.38547 0.91608 0.85923 0.0
C1371 C 0.37088 0.91383 0.84681 0.0
C1372 C 0.38541 0.92888 0.87409 0.0
C1373 C 0.36385 0.97074 0.88679 0.0
H1374 H 0.38413 0.96355 0.93863 0.0
C1375 C 0.356 0.02165 0.94935 0.0
C1376 C 0.37005 0.02435 0.96241 0.0
C1377 C 0.3564 0.00807 0.93548 0.0
C1378 C 0.37861 0.96588 0.92414 0.0
H1379 H 0.3445 0.9229 0.84097 0.0
H1380 H 0.34438 0.94493 0.86684 0.0
H1381 H 0.38414 0.93972 0.91464 0.0
H1382 H 0.39575 0.01497 0.97071 0.0
H1383 H 0.39656 0.99145 0.94639 0.0
H1384 H 0.35844 0.99688 0.89609 0.0
C1385 C 0.356 0.93705 0.86491 0.0
C1386 C 0.37858 0.95217 0.91038 0.0
C1387 C 0.35603 0.92426 0.85014 0.0
C1388 C 0.3846 0.01316 0.96107 0.0
C1389 C 0.38503 0.99961 0.94713 0.0
C1390 C 0.36393 0.98444 0.90048 0.0
C1391 C 0.3708 0.93979 0.87684 0.0
C1392 C 0.37109 0.95437 0.89155 0.0
C1393 C 0.37091 0.99681 0.93417 0.0
C1394 C 0.37121 0.98222 0.91942 0.0
H1395 H 0.39717 0.90836 0.85708 0.0
H1396 H 0.39707 0.93066 0.88294 0.0
H1397 H 0.35829 0.97306 0.8723 0.0
H1398 H 0.34444 0.02977 0.95016 0.0
H1399 H 0.34513 0.0062 0.92604 0.0
C1400 C 0.33369 0.90404 0.44784 0.0
C1401 C 0.34476 0.8896 0.4508 0.0
C1402 C 0.32126 0.90406 0.43265 0.0
C1403 C 0.29616 0.87399 0.4002 0.0
H1404 H 0.28439 0.91668 0.37243 0.0
C1405 C 0.24765 0.87562 0.33402 0.0
C1406 C 0.23611 0.88989 0.33267 0.0
C1407 C 0.26102 0.87534 0.3482 0.0
C1408 C 0.28735 0.90467 0.38019 0.0
H1409 H 0.35166 0.864 0.43954 0.0
H1410 H 0.33018 0.86417 0.41281 0.0
H1411 H 0.30801 0.91677 0.39658 0.0
H1412 H 0.22967 0.91504 0.34544 0.0
H1413 H 0.25277 0.91445 0.3703 0.0
H1414 H 0.27548 0.86191 0.38375 0.0
C1415 C 0.33092 0.87539 0.4225 0.0
C1416 C 0.30096 0.90471 0.39406 0.0
C1417 C 0.34339 0.87537 0.43774 0.0
C1418 C 0.23818 0.90376 0.34611 0.0
C1419 C 0.25159 0.90352 0.36024 0.0
C1420 C 0.28258 0.87395 0.38627 0.0
C1421 C 0.31951 0.88966 0.41989 0.0
C1422 C 0.30551 0.8894 0.40439 0.0
C1423 C 0.26329 0.88936 0.3614 0.0
C1424 C 0.2779 0.88932 0.37614 0.0
H1425 H 0.33427 0.91523 0.45761 0.0
H1426 H 0.31263 0.9152 0.43135 0.0
H1427 H 0.29904 0.86201 0.40804 0.0
H1428 H 0.24638 0.86462 0.32407 0.0
H1429 H 0.26981 0.86426 0.34853 0.0
C1430 C 0.38433 0.99625 0.58579 0.0
C1431 C 0.36955 0.98536 0.58437 0.0
C1432 C 0.38483 0.01004 0.59942 0.0
C1433 C 0.35584 0.03866 0.6292 0.0
H1434 H 0.39794 0.04861 0.659 0.0
C1435 C 0.35613 0.08549 0.69629 0.0
C1436 C 0.37099 0.09584 0.6999 0.0
C1437 C 0.35607 0.07301 0.68117 0.0
C1438 C 0.38614 0.04622 0.6506 0.0
H1439 H 0.34369 0.98061 0.5963 0.0
H1440 H 0.34466 1.00442 0.62018 0.0
H1441 H 0.39777 0.0247 0.63518 0.0
H1442 H 0.39732 0.10143 0.68985 0.0
H1443 H 0.3971 0.07987 0.66324 0.0
H1444 H 0.34418 0.06012 0.64457 0.0
C1445 C 0.35583 1.0024 0.61063 0.0
C1446 C 0.38603 0.03244 0.63694 0.0
C1447 C 0.35536 0.98857 0.59709 0.0
C1448 C 0.38562 0.09373 0.68753 0.0
C1449 C 0.38556 0.08121 0.67237 0.0
C1450 C 0.35595 0.05245 0.6428 0.0
C1451 C 0.37053 0.01341 0.61193 0.0
C1452 C 0.37083 0.02837 0.62616 0.0
C1453 C 0.37086 0.07049 0.66915 0.0
C1454 C 0.37105 0.05636 0.65384 0.0
H1455 H 0.39556 0.9941 0.57638 0.0
H1456 H 0.39632 0.01829 0.59989 0.0
H1457 H 0.34399 0.03615 0.62091 0.0
H1458 H 0.34463 0.08664 0.70552 0.0
H1459 H 0.34458 0.06491 0.67938 0.0
C1460 C 0.16753 0.13566 0.93779 0.0
C1461 C 0.1654 0.12087 0.94991 0.0
C1462 C 0.1801 0.13581 0.92267 0.0
C1463 C 0.20882 0.10662 0.89257 0.0
H1464 H 0.23665 0.14847 0.88562 0.0
C1465 C 0.27212 0.10671 0.84563 0.0
C1466 C 0.2752 0.12118 0.83328 0.0
C1467 C 0.25854 0.10694 0.85953 0.0
C1468 C 0.22889 0.13672 0.88718 0.0
H1469 H 0.17462 0.09447 0.95512 0.0
H1470 H 0.19642 0.09479 0.92905 0.0
H1471 H 0.21283 0.14831 0.90955 0.0
H1472 H 0.26655 0.14746 0.82643 0.0
H1473 H 0.24281 0.14778 0.85047 0.0
H1474 H 0.22496 0.09498 0.87033 0.0
C1475 C 0.18831 0.10624 0.93102 0.0
C1476 C 0.21516 0.13664 0.90092 0.0
C1477 C 0.1758 0.1061 0.9461 0.0
C1478 C 0.26449 0.136 0.83551 0.0
C1479 C 0.25095 0.13625 0.84947 0.0
C1480 C 0.22255 0.10669 0.87888 0.0
C1481 C 0.19084 0.12118 0.91923 0.0
C1482 C 0.20497 0.12155 0.9039 0.0
C1483 C 0.24766 0.12166 0.86156 0.0
C1484 C 0.23287 0.1217 0.87605 0.0
H1485 H 0.1598 0.1473 0.94027 0.0
H1486 H 0.18146 0.14747 0.91373 0.0
H1487 H 0.20111 0.09484 0.89416 0.0
H1488 H 0.27995 0.095 0.84425 0.0
H1489 H 0.25659 0.09554 0.86875 0.0
C1490 C 0.12502 0.91614 0.18693 0.0
C1491 C 0.13982 0.91406 0.19906 0.0
C1492 C 0.12486 0.92863 0.17172 0.0
C1493 C 0.15415 0.95732 0.14157 0.0
H1494 H 0.11221 0.98495 0.1342 0.0
C1495 C 0.15422 0.02091 0.09524 0.0
C1496 C 0.13994 0.02396 0.0826 0.0
C1497 C 0.15389 0.00721 0.10898 0.0
C1498 C 0.12398 0.97724 0.13589 0.0
H1499 H 0.16625 0.92331 0.20418 0.0
H1500 H 0.16592 0.94497 0.178 0.0
H1501 H 0.1123 0.96114 0.15817 0.0
H1502 H 0.11387 0.0151 0.07501 0.0
H1503 H 0.11334 0.99116 0.09885 0.0
H1504 H 0.16589 0.97355 0.11947 0.0
C1505 C 0.15446 0.93687 0.18 0.0
C1506 C 0.12402 0.96352 0.14964 0.0
C1507 C 0.15461 0.92443 0.19515 0.0
C1508 C 0.12518 0.01307 0.08434 0.0
C1509 C 0.12481 0.99942 0.09817 0.0
C1510 C 0.15412 0.97106 0.12789 0.0
C1511 C 0.13951 0.93935 0.1682 0.0
C1512 C 0.13915 0.95342 0.15279 0.0
C1513 C 0.13923 0.99619 0.11057 0.0
C1514 C 0.13908 0.98131 0.12494 0.0
H1515 H 0.11337 0.90842 0.18947 0.0
H1516 H 0.1132 0.92994 0.16278 0.0
H1517 H 0.16595 0.94968 0.14326 0.0
H1518 H 0.16588 0.02888 0.09422 0.0
H1519 H 0.16515 0.00529 0.11843 0.0
C1520 C 0.76352 0.87478 0.83485 0.0
C1521 C 0.77514 0.88902 0.83384 0.0
C1522 C 0.75005 0.8744 0.84889 0.0
C1523 C 0.72362 0.9035 0.88102 0.0
H1524 H 0.71171 0.86067 0.90841 0.0
C1525 C 0.67718 0.90257 0.94852 0.0
C1526 C 0.66604 0.88815 0.95132 0.0
C1527 C 0.68964 0.90264 0.93337 0.0
C1528 C 0.71465 0.8727 0.9007 0.0
H1529 H 0.78157 0.91401 0.84702 0.0
H1530 H 0.75829 0.91324 0.87161 0.0
H1531 H 0.73533 0.86068 0.88421 0.0
H1532 H 0.65906 0.86265 0.93982 0.0
H1533 H 0.6806 0.8629 0.91317 0.0
H1534 H 0.70298 0.91554 0.89745 0.0
C1535 C 0.75949 0.90241 0.86141 0.0
C1536 C 0.72827 0.87272 0.88682 0.0
C1537 C 0.77302 0.90275 0.84744 0.0
C1538 C 0.66738 0.87399 0.93815 0.0
C1539 C 0.67988 0.87407 0.92295 0.0
C1540 C 0.70999 0.90348 0.89484 0.0
C1541 C 0.74773 0.88828 0.86226 0.0
C1542 C 0.73303 0.88815 0.87687 0.0
C1543 C 0.69135 0.88831 0.92049 0.0
C1544 C 0.70537 0.88811 0.90501 0.0
H1545 H 0.76483 0.86388 0.82477 0.0
H1546 H 0.74121 0.86335 0.84898 0.0
H1547 H 0.72666 0.91557 0.8734 0.0
H1548 H 0.67663 0.9137 0.95837 0.0
H1549 H 0.69832 0.91376 0.93219 0.0
C1550 C 0.853 0.02029 0.59508 0.0
C1551 C 0.86776 0.02482 0.58379 0.0
C1552 C 0.85386 0.00699 0.60927 0.0
C1553 C 0.87961 0.96788 0.62377 0.0
H1554 H 0.8548 0.97307 0.67333 0.0
C1555 C 0.88601 0.91833 0.68901 0.0
C1556 C 0.871 0.91508 0.70044 0.0
C1557 C 0.88588 0.93117 0.67418 0.0
C1558 C 0.86162 0.97126 0.65947 0.0
H1559 H 0.89507 0.01877 0.57876 0.0
H1560 H 0.89665 0.99577 0.60372 0.0
H1561 H 0.85429 0.99669 0.64929 0.0
H1562 H 0.84383 0.92232 0.70448 0.0
H1563 H 0.84352 0.94431 0.67857 0.0
H1564 H 0.88691 0.94239 0.63401 0.0
C1565 C 0.88433 1.00242 0.60144 0.0
C1566 C 0.86136 0.98487 0.64565 0.0
C1567 C 0.88348 0.01578 0.58728 0.0
C1568 C 0.85569 0.92452 0.69612 0.0
C1569 C 0.85555 0.93729 0.68132 0.0
C1570 C 0.87987 0.95422 0.63761 0.0
C1571 C 0.86951 0.99778 0.6126 0.0
C1572 C 0.87025 0.98337 0.62754 0.0
C1573 C 0.87073 0.94108 0.6704 0.0
C1574 C 0.87077 0.95566 0.65562 0.0
H1575 H 0.84071 0.02705 0.59297 0.0
H1576 H 0.84212 1.00372 0.6174 0.0
H1577 H 0.88645 0.96614 0.60991 0.0
H1578 H 0.89807 0.9114 0.69195 0.0
H1579 H 0.89785 0.93376 0.66617 0.0
C1580 C 0.7396 0.10537 0.34552 0.0
C1581 C 0.736 0.11993 0.3335 0.0
C1582 C 0.75343 0.1057 0.35911 0.0
C1583 C 0.78274 0.13566 0.38684 0.0
H1584 H 0.81154 0.09432 0.39245 0.0
C1585 C 0.84419 0.13493 0.43732 0.0
C1586 C 0.84669 0.11991 0.44898 0.0
C1587 C 0.83164 0.13513 0.42218 0.0
C1588 C 0.80355 0.10594 0.39124 0.0
H1589 H 0.74401 0.14645 0.32681 0.0
H1590 H 0.76819 0.14697 0.35037 0.0
H1591 H 0.7875 0.09439 0.36884 0.0
H1592 H 0.83817 0.09315 0.45331 0.0
H1593 H 0.8164 0.09354 0.42722 0.0
H1594 H 0.79867 0.14714 0.40941 0.0
C1595 C 0.76026 0.13529 0.34934 0.0
C1596 C 0.78971 0.10597 0.37767 0.0
C1597 C 0.74647 0.13493 0.33568 0.0
C1598 C 0.83671 0.10495 0.44465 0.0
C1599 C 0.82421 0.10515 0.42955 0.0
C1600 C 0.79656 0.13561 0.40046 0.0
C1601 C 0.76403 0.12062 0.36113 0.0
C1602 C 0.77902 0.12078 0.37536 0.0
C1603 C 0.82128 0.1203 0.41826 0.0
C1604 C 0.80711 0.1207 0.40298 0.0
H1605 H 0.73197 0.09352 0.34415 0.0
H1606 H 0.75576 0.09424 0.3681 0.0
H1607 H 0.77469 0.14724 0.38564 0.0
H1608 H 0.85159 0.14672 0.44021 0.0
H1609 H 0.82998 0.14696 0.41362 0.0
C1610 C 0.6426 1.00218 0.07816 0.0
C1611 C 0.63989 0.98467 0.08378 0.0
C1612 C 0.642 0.01567 0.09214 0.0
C1613 C 0.64608 0.02401 0.14598 0.0
H1614 H 0.62567 0.06889 0.13284 0.0
C1615 C 0.6542 0.08356 0.19744 0.0
C1616 C 0.63951 0.09423 0.2007 0.0
C1617 C 0.65412 0.07084 0.18259 0.0
C1618 C 0.63133 0.05641 0.13682 0.0
H1619 H 0.63405 0.96785 0.10871 0.0
H1620 H 0.63306 0.99133 0.13305 0.0
H1621 H 0.62511 0.04524 0.10862 0.0
H1622 H 0.61338 0.10017 0.19025 0.0
H1623 H 0.61325 0.07794 0.16433 0.0
H1624 H 0.65206 0.03503 0.17424 0.0
C1625 C 0.63589 0.9946 0.11781 0.0
C1626 C 0.63117 0.04288 0.12283 0.0
C1627 C 0.63646 0.9811 0.10382 0.0
C1628 C 0.62496 0.09224 0.18817 0.0
C1629 C 0.62489 0.07949 0.17326 0.0
C1630 C 0.64628 0.03754 0.15991 0.0
C1631 C 0.63872 0.01209 0.11219 0.0
C1632 C 0.63858 0.02648 0.12719 0.0
C1633 C 0.63936 0.06838 0.1705 0.0
C1634 C 0.63898 0.05397 0.15553 0.0
H1635 H 0.6456 0.00548 0.06298 0.0
H1636 H 0.64453 0.0289 0.08726 0.0
H1637 H 0.65207 0.01167 0.14985 0.0
H1638 H 0.6657 0.08473 0.20668 0.0
H1639 H 0.66565 0.06282 0.18067 0.0
C1640 C 0.76364 0.13491 0.71189 0.0
C1641 C 0.77448 0.12012 0.71354 0.0
C1642 C 0.75001 0.13541 0.69803 0.0
C1643 C 0.72161 0.10644 0.66794 0.0
H1644 H 0.71198 0.1485 0.63797 0.0
C1645 C 0.67505 0.10671 0.60053 0.0
C1646 C 0.66478 0.12159 0.59676 0.0
C1647 C 0.68748 0.10666 0.61571 0.0
C1648 C 0.71428 0.13671 0.64641 0.0
H1649 H 0.77933 0.09425 0.70173 0.0
H1650 H 0.75578 0.09522 0.67746 0.0
H1651 H 0.73572 0.14831 0.66204 0.0
H1652 H 0.65932 0.14798 0.60659 0.0
H1653 H 0.68079 0.14779 0.63332 0.0
H1654 H 0.7002 0.09482 0.65238 0.0
C1655 C 0.75772 0.1064 0.68701 0.0
C1656 C 0.72796 0.13659 0.66022 0.0
C1657 C 0.7714 0.10593 0.70078 0.0
C1658 C 0.66695 0.13627 0.60903 0.0
C1659 C 0.67942 0.13622 0.62426 0.0
C1660 C 0.7079 0.10657 0.6542 0.0
C1661 C 0.74675 0.12111 0.68551 0.0
C1662 C 0.73192 0.12141 0.67106 0.0
C1663 C 0.69004 0.12149 0.62765 0.0
C1664 C 0.7041 0.12166 0.64309 0.0
H1665 H 0.76569 0.14615 0.72132 0.0
H1666 H 0.74179 0.14691 0.69742 0.0
H1667 H 0.72401 0.09461 0.67627 0.0
H1668 H 0.67386 0.09516 0.59138 0.0
H1669 H 0.6955 0.09514 0.61762 0.0
C1670 C 0.63684 0.02859 0.44434 0.0
C1671 C 0.63988 0.02458 0.46436 0.0
C1672 C 0.63643 0.01536 0.42997 0.0
C1673 C 0.6312 0.96718 0.42397 0.0
H1674 H 0.65202 0.97551 0.37265 0.0
C1675 C 0.62445 0.91836 0.35824 0.0
C1676 C 0.6389 0.91636 0.34559 0.0
C1677 C 0.62451 0.93109 0.37319 0.0
C1678 C 0.64626 0.97287 0.38695 0.0
H1679 H 0.64529 1.00334 0.48468 0.0
H1680 H 0.64453 0.98043 0.45979 0.0
H1681 H 0.65231 0.99857 0.39745 0.0
H1682 H 0.66503 0.92591 0.33936 0.0
H1683 H 0.66521 0.94777 0.36544 0.0
H1684 H 0.62544 0.94136 0.41357 0.0
C1685 C 0.64212 0.99376 0.4552 0.0
C1686 C 0.64622 0.98622 0.40113 0.0
C1687 C 0.64255 0.00696 0.46953 0.0
C1688 C 0.6536 0.92707 0.34871 0.0
C1689 C 0.65366 0.93977 0.3636 0.0
C1690 C 0.6312 0.95383 0.40977 0.0
C1691 C 0.63904 0.99774 0.43519 0.0
C1692 C 0.63875 0.98357 0.41989 0.0
C1693 C 0.63901 0.94218 0.37588 0.0
C1694 C 0.63881 0.95644 0.39107 0.0
H1695 H 0.63451 0.04194 0.43977 0.0
H1696 H 0.63379 0.01895 0.41478 0.0
H1697 H 0.62513 0.96467 0.43814 0.0
H1698 H 0.61286 0.91043 0.35628 0.0
H1699 H 0.61293 0.9326 0.38223 0.0
C1700 C 0.8348 0.90365 0.10038 0.0
C1701 C 0.84502 0.88875 0.09657 0.0
C1702 C 0.82197 0.9035 0.11511 0.0
C1703 C 0.80639 0.88001 0.1598 0.0
H1704 H 0.76215 0.90161 0.14631 0.0
C1705 C 0.74531 0.87438 0.21053 0.0
C1706 C 0.73452 0.88918 0.21238 0.0
C1707 C 0.75882 0.87391 0.19653 0.0
C1708 C 0.77446 0.89571 0.15048 0.0
H1709 H 0.85005 0.86213 0.10594 0.0
H1710 H 0.82766 0.86189 0.13173 0.0
H1711 H 0.78593 0.90177 0.12247 0.0
H1712 H 0.72977 0.9152 0.20094 0.0
H1713 H 0.75326 0.91444 0.1767 0.0
H1714 H 0.79492 0.87404 0.18789 0.0
C1715 C 0.82964 0.87374 0.12329 0.0
C1716 C 0.78815 0.89579 0.13676 0.0
C1717 C 0.8425 0.87388 0.10847 0.0
C1718 C 0.73757 0.90345 0.19974 0.0
C1719 C 0.7511 0.90301 0.1858 0.0
C1720 C 0.79269 0.87998 0.17359 0.0
C1721 C 0.81895 0.88845 0.12652 0.0
C1722 C 0.80435 0.88804 0.14123 0.0
C1723 C 0.76197 0.88825 0.18399 0.0
C1724 C 0.77653 0.88791 0.16917 0.0
H1725 H 0.83639 0.9154 0.09165 0.0
H1726 H 0.81429 0.91519 0.11743 0.0
H1727 H 0.81871 0.87406 0.16385 0.0
H1728 H 0.74323 0.86305 0.21982 0.0
H1729 H 0.76668 0.8622 0.19541 0.0
C1730 C 0.85575 0.0845 0.8506 0.0
C1731 C 0.87093 0.09421 0.84651 0.0
C1732 C 0.85571 0.07163 0.86528 0.0
C1733 C 0.87975 0.05479 0.90915 0.0
H1734 H 0.85538 0.01185 0.89634 0.0
C1735 C 0.88332 0.99305 0.95926 0.0
C1736 C 0.86771 0.98363 0.96208 0.0
C1737 C 0.8843 0.0065 0.94521 0.0
C1738 C 0.8621 0.0238 0.9003 0.0
H1739 H 0.89788 0.09831 0.85531 0.0
H1740 H 0.89782 0.07579 0.88095 0.0
H1741 H 0.85582 0.03569 0.87259 0.0
H1742 H 0.84103 0.98081 0.95176 0.0
H1743 H 0.84264 1.00429 0.92758 0.0
H1744 H 0.88601 0.04281 0.93692 0.0
C1745 C 0.88588 0.07822 0.87282 0.0
C1746 C 0.86234 0.03753 0.88664 0.0
C1747 C 0.88591 0.09116 0.85808 0.0
C1748 C 0.85322 0.98786 0.9502 0.0
C1749 C 0.8542 1.00125 0.93614 0.0
C1750 C 0.87951 0.04102 0.92285 0.0
C1751 C 0.87087 0.06801 0.87632 0.0
C1752 C 0.87103 0.0533 0.89091 0.0
C1753 C 0.86972 0.01084 0.93349 0.0
C1754 C 0.87056 0.02536 0.91868 0.0
H1755 H 0.84391 0.08653 0.84213 0.0
H1756 H 0.84378 0.06436 0.86783 0.0
H1757 H 0.88646 0.06676 0.91305 0.0
H1758 H 0.89471 0.9903 0.96824 0.0
H1759 H 0.89653 0.01344 0.94346 0.0
C1760 C 0.73635 0.60646 0.69764 0.0
C1761 C 0.73404 0.62015 0.71125 0.0
C1762 C 0.74989 0.60695 0.68372 0.0
C1763 C 0.79262 0.62845 0.67295 0.0
H1764 H 0.78473 0.60978 0.62048 0.0
C1765 C 0.84265 0.63544 0.60814 0.0
C1766 C 0.84441 0.6211 0.59528 0.0
C1767 C 0.82981 0.63546 0.62299 0.0
C1768 C 0.78725 0.61487 0.63513 0.0
H1769 H 0.74412 0.64533 0.72048 0.0
H1770 H 0.76759 0.6463 0.69609 0.0
H1771 H 0.76099 0.60988 0.64438 0.0
H1772 H 0.83444 0.59521 0.58866 0.0
H1773 H 0.81238 0.5952 0.61448 0.0
H1774 H 0.81891 0.63356 0.66352 0.0
C1775 C 0.75912 0.63497 0.69643 0.0
C1776 C 0.77359 0.61492 0.64889 0.0
C1777 C 0.7456 0.63444 0.71041 0.0
C1778 C 0.83345 0.60656 0.59815 0.0
C1779 C 0.82065 0.6066 0.6129 0.0
C1780 C 0.8063 0.62846 0.65912 0.0
C1781 C 0.76152 0.6212 0.6829 0.0
C1782 C 0.77607 0.62159 0.66807 0.0
C1783 C 0.8184 0.62116 0.6253 0.0
C1784 C 0.80384 0.62154 0.64006 0.0
H1785 H 0.72793 0.59509 0.69804 0.0
H1786 H 0.75144 0.59594 0.67384 0.0
H1787 H 0.79516 0.63349 0.68762 0.0
H1788 H 0.85078 0.64691 0.60635 0.0
H1789 H 0.82843 0.64694 0.6322 0.0
C1790 C 0.65332 0.58359 0.84822 0.0
C1791 C 0.63868 0.59436 0.84508 0.0
C1792 C 0.65332 0.57096 0.86318 0.0
C1793 C 0.6309 0.55699 0.90935 0.0
H1794 H 0.65117 0.512 0.89647 0.0
C1795 C 0.64222 0.50308 0.96835 0.0
C1796 C 0.63928 0.48556 0.96293 0.0
C1797 C 0.64165 0.51647 0.95425 0.0
C1798 C 0.64531 0.52442 0.9003 0.0
H1799 H 0.6127 0.60051 0.85581 0.0
H1800 H 0.61269 0.57844 0.88189 0.0
H1801 H 0.65111 0.53521 0.87187 0.0
H1802 H 0.63307 0.46862 0.93823 0.0
H1803 H 0.63214 0.49193 0.91367 0.0
H1804 H 0.62486 0.54605 0.9377 0.0
C1805 C 0.62425 0.57986 0.87282 0.0
C1806 C 0.64549 0.53785 0.88625 0.0
C1807 C 0.62425 0.59253 0.85781 0.0
C1808 C 0.63567 0.48187 0.94296 0.0
C1809 C 0.63513 0.49528 0.92884 0.0
C1810 C 0.63077 0.54355 0.92345 0.0
C1811 C 0.63867 0.56867 0.87547 0.0
C1812 C 0.63835 0.55436 0.89057 0.0
C1813 C 0.63817 0.51278 0.93427 0.0
C1814 C 0.63801 0.52707 0.91914 0.0
H1815 H 0.66473 0.58464 0.83883 0.0
H1816 H 0.66481 0.56287 0.86501 0.0
H1817 H 0.62537 0.56953 0.91328 0.0
H1818 H 0.64538 0.50646 0.98347 0.0
H1819 H 0.64436 0.52971 0.95897 0.0
C1820 C 0.66662 0.37513 0.10893 0.0
C1821 C 0.66522 0.38934 0.09584 0.0
C1822 C 0.67914 0.37517 0.12412 0.0
C1823 C 0.70917 0.4045 0.15242 0.0
H1824 H 0.73458 0.36167 0.16274 0.0
C1825 C 0.77182 0.40342 0.20062 0.0
C1826 C 0.7738 0.38953 0.21405 0.0
C1827 C 0.75846 0.40322 0.18642 0.0
C1828 C 0.72751 0.37371 0.16022 0.0
H1829 H 0.67571 0.41496 0.08892 0.0
H1830 H 0.69743 0.41497 0.11511 0.0
H1831 H 0.71104 0.36179 0.13844 0.0
H1832 H 0.76345 0.36425 0.22254 0.0
H1833 H 0.74013 0.36397 0.19797 0.0
H1834 H 0.72574 0.41645 0.17407 0.0
C1835 C 0.68879 0.40383 0.11386 0.0
C1836 C 0.71394 0.37378 0.14628 0.0
C1837 C 0.67631 0.40378 0.09871 0.0
C1838 C 0.76224 0.37527 0.21261 0.0
C1839 C 0.74894 0.37503 0.19836 0.0
C1840 C 0.72277 0.40444 0.16631 0.0
C1841 C 0.69056 0.38944 0.12664 0.0
C1842 C 0.7046 0.38919 0.1421 0.0
C1843 C 0.74674 0.38907 0.18517 0.0
C1844 C 0.73219 0.38907 0.17037 0.0
H1845 H 0.65834 0.36376 0.10719 0.0
H1846 H 0.6799 0.36396 0.13383 0.0
H1847 H 0.70214 0.41656 0.1499 0.0
H1848 H 0.78034 0.41469 0.20136 0.0
H1849 H 0.75735 0.41416 0.17637 0.0
C1850 C 0.87299 0.52757 0.44317 0.0
C1851 C 0.87072 0.52405 0.46343 0.0
C1852 C 0.87355 0.51396 0.42931 0.0
C1853 C 0.88027 0.46592 0.42443 0.0
H1854 H 0.85636 0.47235 0.37446 0.0
C1855 C 0.88536 0.41649 0.35897 0.0
C1856 C 0.87028 0.4138 0.34743 0.0
C1857 C 0.88559 0.42926 0.37386 0.0
C1858 C 0.863 0.47023 0.3884 0.0
H1859 H 0.86712 0.50322 0.48479 0.0
H1860 H 0.86816 0.47961 0.46073 0.0
H1861 H 0.85654 0.49589 0.39862 0.0
H1862 H 0.84339 0.42199 0.34327 0.0
H1863 H 0.84375 0.44391 0.36925 0.0
H1864 H 0.88646 0.44011 0.41426 0.0
C1865 C 0.86978 0.4929 0.45556 0.0
C1866 C 0.8633 0.48387 0.40218 0.0
C1867 C 0.8692 0.5065 0.46941 0.0
C1868 C 0.85528 0.42372 0.35172 0.0
C1869 C 0.85553 0.43645 0.36655 0.0
C1870 C 0.88001 0.45227 0.41058 0.0
C1871 C 0.87186 0.49642 0.43529 0.0
C1872 C 0.87189 0.48192 0.42044 0.0
C1873 C 0.87078 0.43968 0.37759 0.0
C1874 C 0.87128 0.4542 0.3924 0.0
H1875 H 0.87448 0.54087 0.43799 0.0
H1876 H 0.87545 0.51721 0.41389 0.0
H1877 H 0.88717 0.46396 0.43822 0.0
H1878 H 0.89718 0.40916 0.35608 0.0
H1879 H 0.89761 0.4314 0.38197 0.0
C1880 C 0.74581 0.37511 0.83573 0.0
C1881 C 0.73461 0.38966 0.83463 0.0
C1882 C 0.75933 0.37446 0.84971 0.0
C1883 C 0.77429 0.39489 0.89683 0.0
H1884 H 0.81918 0.37505 0.88261 0.0
C1885 C 0.83433 0.40304 0.94723 0.0
C1886 C 0.84488 0.38829 0.95061 0.0
C1887 C 0.82157 0.40297 0.93244 0.0
C1888 C 0.80668 0.38049 0.88689 0.0
H1889 H 0.72916 0.41507 0.84732 0.0
H1890 H 0.75268 0.41403 0.8715 0.0
H1891 H 0.79541 0.37523 0.8585 0.0
H1892 H 0.85062 0.36207 0.94037 0.0
H1893 H 0.82832 0.36199 0.91443 0.0
H1894 H 0.78557 0.40028 0.92512 0.0
C1895 C 0.75083 0.4029 0.86186 0.0
C1896 C 0.793 0.38057 0.87306 0.0
C1897 C 0.73729 0.40351 0.84794 0.0
C1898 C 0.84279 0.37369 0.93818 0.0
C1899 C 0.82999 0.37365 0.92328 0.0
C1900 C 0.78796 0.39488 0.91058 0.0
C1901 C 0.76209 0.38838 0.86295 0.0
C1902 C 0.77662 0.38786 0.87779 0.0
C1903 C 0.81896 0.38817 0.92051 0.0
C1904 C 0.80439 0.3878 0.90578 0.0
H1905 H 0.74403 0.36411 0.82588 0.0
H1906 H 0.76751 0.36294 0.85028 0.0
H1907 H 0.76181 0.40027 0.90124 0.0
H1908 H 0.8356 0.41459 0.95637 0.0
H1909 H 0.81359 0.41453 0.93048 0.0
C1910 C 0.85551 0.58482 0.19586 0.0
C1911 C 0.8704 0.59512 0.19953 0.0
C1912 C 0.85554 0.57214 0.18096 0.0
C1913 C 0.87886 0.55724 0.13575 0.0
H1914 H 0.85699 0.5129 0.14823 0.0
C1915 C 0.86784 0.5032 0.07683 0.0
C1916 C 0.87021 0.48566 0.08251 0.0
C1917 C 0.86833 0.51668 0.09082 0.0
C1918 C 0.86329 0.52513 0.14451 0.0
H1919 H 0.89687 0.6004 0.18976 0.0
H1920 H 0.89692 0.57828 0.16376 0.0
H1921 H 0.85695 0.53628 0.17261 0.0
H1922 H 0.87528 0.46876 0.10758 0.0
H1923 H 0.87606 0.49223 0.13195 0.0
H1924 H 0.88543 0.54595 0.10773 0.0
C1925 C 0.88515 0.58009 0.17239 0.0
C1926 C 0.86307 0.53867 0.15844 0.0
C1927 C 0.88513 0.5928 0.18735 0.0
C1928 C 0.87314 0.48204 0.10263 0.0
C1929 C 0.8736 0.49553 0.11665 0.0
C1930 C 0.87903 0.5437 0.12177 0.0
C1931 C 0.87046 0.56935 0.16924 0.0
C1932 C 0.8708 0.55495 0.15426 0.0
C1933 C 0.87115 0.51306 0.11095 0.0
C1934 C 0.87123 0.52745 0.12594 0.0
H1935 H 0.84388 0.58624 0.20483 0.0
H1936 H 0.84386 0.56441 0.17873 0.0
H1937 H 0.88486 0.5696 0.13193 0.0
H1938 H 0.86521 0.50654 0.06156 0.0
H1939 H 0.8661 0.52995 0.08588 0.0
C1940 C 0.77293 0.60637 0.34706 0.0
C1941 C 0.77501 0.62019 0.33356 0.0
C1942 C 0.75957 0.6067 0.36124 0.0
C1943 C 0.71687 0.62793 0.37269 0.0
H1944 H 0.72522 0.6091 0.425 0.0
C1945 C 0.66725 0.63486 0.43779 0.0
C1946 C 0.66561 0.6206 0.45079 0.0
C1947 C 0.68003 0.63484 0.42288 0.0
C1948 C 0.72256 0.61423 0.41039 0.0
H1949 H 0.7648 0.64547 0.32489 0.0
H1950 H 0.74167 0.64614 0.34965 0.0
H1951 H 0.74875 0.60928 0.40082 0.0
H1952 H 0.67575 0.59483 0.45764 0.0
H1953 H 0.6977 0.59475 0.43168 0.0
H1954 H 0.69066 0.63297 0.38241 0.0
C1955 C 0.75014 0.63482 0.34903 0.0
C1956 C 0.7361 0.61434 0.39647 0.0
C1957 C 0.76347 0.63446 0.33482 0.0
C1958 C 0.67665 0.60611 0.44803 0.0
C1959 C 0.68939 0.60611 0.4332 0.0
C1960 C 0.70331 0.62787 0.38666 0.0
C1961 C 0.74791 0.6209 0.36239 0.0
C1962 C 0.73347 0.62111 0.37737 0.0
C1963 C 0.6915 0.62059 0.42063 0.0
C1964 C 0.70593 0.62092 0.40568 0.0
H1965 H 0.78135 0.59502 0.34636 0.0
H1966 H 0.75816 0.5956 0.37101 0.0
H1967 H 0.71421 0.63304 0.35808 0.0
H1968 H 0.65905 0.64629 0.4395 0.0
H1969 H 0.6813 0.64627 0.41356 0.0
C1970 C 0.62455 0.41697 0.68822 0.0
C1971 C 0.6391 0.41508 0.70077 0.0
C1972 C 0.62458 0.42945 0.673 0.0
C1973 C 0.65416 0.45787 0.64318 0.0
H1974 H 0.61227 0.48525 0.63439 0.0
C1975 C 0.64906 0.50738 0.57876 0.0
C1976 C 0.64054 0.52338 0.58228 0.0
C1977 C 0.64854 0.49388 0.59271 0.0
C1978 C 0.62413 0.47782 0.63672 0.0
H1979 H 0.66527 0.42465 0.70669 0.0
H1980 H 0.6653 0.44627 0.68039 0.0
H1981 H 0.61218 0.4621 0.65919 0.0
H1982 H 0.62466 0.5375 0.60345 0.0
H1983 H 0.62402 0.51407 0.62795 0.0
H1984 H 0.66626 0.47382 0.6211 0.0
C1985 C 0.65388 0.43805 0.68213 0.0
C1986 C 0.62401 0.46435 0.65079 0.0
C1987 C 0.65383 0.42564 0.69733 0.0
C1988 C 0.63148 0.52545 0.60024 0.0
C1989 C 0.63095 0.5119 0.61422 0.0
C1990 C 0.65427 0.47129 0.6291 0.0
C1991 C 0.63919 0.44031 0.66988 0.0
C1992 C 0.63905 0.45423 0.6543 0.0
C1993 C 0.63953 0.49592 0.61068 0.0
C1994 C 0.63928 0.48152 0.62568 0.0
H1995 H 0.61294 0.40911 0.69042 0.0
H1996 H 0.61312 0.43062 0.66372 0.0
H1997 H 0.66595 0.45028 0.64527 0.0
H1998 H 0.65639 0.50532 0.56528 0.0
H1999 H 0.65514 0.48174 0.5893 0.0
C2000 C 0.17492 0.40445 0.44538 0.0
C2001 C 0.16463 0.38958 0.44916 0.0
C2002 C 0.18772 0.4043 0.43061 0.0
C2003 C 0.20298 0.38092 0.38569 0.0
H2004 H 0.24739 0.40237 0.39886 0.0
C2005 C 0.26363 0.37497 0.33443 0.0
C2006 C 0.27453 0.38968 0.33244 0.0
C2007 C 0.25025 0.37459 0.34859 0.0
C2008 C 0.23503 0.3965 0.39478 0.0
H2009 H 0.15947 0.36302 0.43968 0.0
H2010 H 0.18178 0.3628 0.4138 0.0
H2011 H 0.22373 0.40257 0.42289 0.0
H2012 H 0.27967 0.41561 0.3439 0.0
H2013 H 0.25639 0.41503 0.36843 0.0
H2014 H 0.21427 0.37494 0.35751 0.0
C2015 C 0.17988 0.37462 0.4223 0.0
C2016 C 0.22141 0.39661 0.40861 0.0
C2017 C 0.16706 0.37475 0.43718 0.0
C2018 C 0.27176 0.40394 0.34517 0.0
C2019 C 0.25835 0.40359 0.35929 0.0
C2020 C 0.2166 0.38086 0.3718 0.0
C2021 C 0.19063 0.3893 0.41909 0.0
C2022 C 0.20515 0.38891 0.40426 0.0
C2023 C 0.24733 0.38894 0.36117 0.0
C2024 C 0.23283 0.38871 0.3761 0.0
H2025 H 0.17343 0.41616 0.45419 0.0
H2026 H 0.19545 0.41597 0.42832 0.0
H2027 H 0.19062 0.375 0.38172 0.0
H2028 H 0.2655 0.36363 0.3251 0.0
H2029 H 0.2423 0.36295 0.34978 0.0
C2030 C 0.3856 0.41594 0.1867 0.0
C2031 C 0.37078 0.41377 0.19877 0.0
C2032 C 0.38572 0.42842 0.17149 0.0
C2033 C 0.35634 0.45696 0.1413 0.0
H2034 H 0.39809 0.48495 0.13428 0.0
C2035 C 0.3559 0.52086 0.09564 0.0
C2036 C 0.37013 0.52404 0.08297 0.0
C2037 C 0.35633 0.50707 0.10925 0.0
C2038 C 0.38638 0.47714 0.13588 0.0
H2039 H 0.34428 0.42283 0.20379 0.0
H2040 H 0.34454 0.44449 0.17762 0.0
H2041 H 0.39812 0.46104 0.15812 0.0
H2042 H 0.39619 0.51535 0.07518 0.0
H2043 H 0.3969 0.49126 0.09883 0.0
H2044 H 0.34454 0.4732 0.11925 0.0
C2045 C 0.35605 0.43647 0.17966 0.0
C2046 C 0.3864 0.46336 0.14954 0.0
C2047 C 0.35593 0.42402 0.19481 0.0
C2048 C 0.38493 0.51321 0.08455 0.0
C2049 C 0.3854 0.49947 0.09825 0.0
C2050 C 0.35631 0.47076 0.12771 0.0
C2051 C 0.37101 0.43904 0.16793 0.0
C2052 C 0.37133 0.45314 0.15257 0.0
C2053 C 0.37104 0.4961 0.11067 0.0
C2054 C 0.37127 0.48114 0.1249 0.0
H2055 H 0.3973 0.40832 0.1893 0.0
H2056 H 0.39739 0.42982 0.16261 0.0
H2057 H 0.34459 0.44921 0.14289 0.0
H2058 H 0.34421 0.52878 0.09474 0.0
H2059 H 0.34511 0.50503 0.11872 0.0
C2060 C 0.23777 0.60641 0.84657 0.0
C2061 C 0.23498 0.62049 0.83357 0.0
C2062 C 0.25144 0.6068 0.86036 0.0
C2063 C 0.28183 0.63672 0.88666 0.0
H2064 H 0.30869 0.59448 0.89517 0.0
C2065 C 0.34286 0.63558 0.93794 0.0
C2066 C 0.34465 0.62097 0.95041 0.0
C2067 C 0.33037 0.63569 0.92271 0.0
C2068 C 0.30124 0.60637 0.89316 0.0
H2069 H 0.24427 0.64625 0.82539 0.0
H2070 H 0.26815 0.64687 0.84931 0.0
H2071 H 0.28488 0.59448 0.87128 0.0
H2072 H 0.33489 0.59485 0.95615 0.0
H2073 H 0.31323 0.59511 0.92994 0.0
H2074 H 0.29807 0.64856 0.90872 0.0
C2075 C 0.25971 0.63552 0.84888 0.0
C2076 C 0.28753 0.60636 0.87942 0.0
C2077 C 0.24609 0.63509 0.83501 0.0
C2078 C 0.33398 0.60633 0.94686 0.0
C2079 C 0.32155 0.60644 0.93169 0.0
C2080 C 0.29552 0.63672 0.90047 0.0
C2081 C 0.26269 0.62131 0.86164 0.0
C2082 C 0.27754 0.62149 0.87606 0.0
C2083 C 0.31938 0.62119 0.91952 0.0
C2084 C 0.30536 0.6215 0.90404 0.0
H2085 H 0.22962 0.59487 0.84581 0.0
H2086 H 0.25315 0.59571 0.8701 0.0
H2087 H 0.27432 0.64858 0.88465 0.0
H2088 H 0.35081 0.64711 0.94021 0.0
H2089 H 0.32929 0.6472 0.91349 0.0
C2090 C 0.12437 0.59265 0.68765 0.0
C2091 C 0.13883 0.59436 0.70036 0.0
C2092 C 0.12437 0.58017 0.67245 0.0
C2093 C 0.15384 0.5509 0.64336 0.0
H2094 H 0.11148 0.52434 0.6342 0.0
C2095 C 0.15359 0.48796 0.59585 0.0
C2096 C 0.13956 0.48552 0.5827 0.0
C2097 C 0.15325 0.50141 0.60991 0.0
C2098 C 0.12339 0.53174 0.6364 0.0
H2099 H 0.16484 0.58447 0.70654 0.0
H2100 H 0.16478 0.56281 0.68035 0.0
H2101 H 0.11146 0.54796 0.65839 0.0
H2102 H 0.1139 0.49512 0.57454 0.0
H2103 H 0.11336 0.51861 0.59889 0.0
H2104 H 0.16581 0.53457 0.62152 0.0
C2105 C 0.15347 0.57119 0.68191 0.0
C2106 C 0.12336 0.54536 0.65027 0.0
C2107 C 0.15346 0.58362 0.69707 0.0
C2108 C 0.12502 0.4967 0.58427 0.0
C2109 C 0.12464 0.51009 0.59839 0.0
C2110 C 0.15388 0.53727 0.62955 0.0
C2111 C 0.13885 0.5691 0.66951 0.0
C2112 C 0.13862 0.55508 0.65405 0.0
C2113 C 0.13882 0.51276 0.61129 0.0
C2114 C 0.13868 0.52742 0.62593 0.0
H2115 H 0.11286 0.60068 0.68971 0.0
H2116 H 0.11297 0.57916 0.66303 0.0
H2117 H 0.16577 0.55825 0.64555 0.0
H2118 H 0.16508 0.47974 0.595 0.0
H2119 H 0.16431 0.50289 0.61975 0.0
C2120 C 0.16776 0.6353 0.10867 0.0
C2121 C 0.1658 0.62073 0.09618 0.0
C2122 C 0.18051 0.6354 0.12363 0.0
C2123 C 0.22253 0.61415 0.13699 0.0
H2124 H 0.21448 0.63433 0.18869 0.0
C2125 C 0.2725 0.60643 0.2008 0.0
C2126 C 0.27484 0.62044 0.21398 0.0
C2127 C 0.25921 0.6068 0.18653 0.0
C2128 C 0.21707 0.62884 0.17425 0.0
H2129 H 0.17536 0.59456 0.09031 0.0
H2130 H 0.19726 0.59469 0.11633 0.0
H2131 H 0.19102 0.6343 0.16423 0.0
H2132 H 0.26519 0.64611 0.22196 0.0
H2133 H 0.2422 0.64685 0.19702 0.0
H2134 H 0.24856 0.60878 0.14685 0.0
C2135 C 0.18922 0.60619 0.11438 0.0
C2136 C 0.20355 0.6288 0.16021 0.0
C2137 C 0.17651 0.60608 0.09951 0.0
C2138 C 0.26365 0.63496 0.21228 0.0
C2139 C 0.25039 0.63536 0.19797 0.0
C2140 C 0.23603 0.61424 0.15098 0.0
C2141 C 0.19165 0.62096 0.12643 0.0
C2142 C 0.20606 0.62134 0.14141 0.0
C2143 C 0.24789 0.62124 0.18494 0.0
C2144 C 0.23351 0.62149 0.16987 0.0
H2145 H 0.15983 0.64686 0.10653 0.0
H2146 H 0.18203 0.64704 0.13255 0.0
H2147 H 0.2251 0.60862 0.12256 0.0
H2148 H 0.28065 0.5949 0.20184 0.0
H2149 H 0.25758 0.59554 0.17703 0.0
C2150 C 0.12381 0.417 0.85848 0.0
C2151 C 0.13854 0.41487 0.84626 0.0
C2152 C 0.1237 0.42965 0.87351 0.0
C2153 C 0.14544 0.47121 0.88757 0.0
H2154 H 0.12376 0.4634 0.93856 0.0
C2155 C 0.13588 0.52732 0.94412 0.0
C2156 C 0.13924 0.52355 0.96413 0.0
C2157 C 0.1352 0.51393 0.92999 0.0
C2158 C 0.12996 0.46579 0.92443 0.0
H2159 H 0.16496 0.42402 0.84094 0.0
H2160 H 0.16482 0.44576 0.86712 0.0
H2161 H 0.1242 0.43992 0.91411 0.0
H2162 H 0.14474 0.50253 0.98473 0.0
H2163 H 0.14346 0.47931 0.9602 0.0
H2164 H 0.15146 0.49694 0.89794 0.0
C2165 C 0.15321 0.43792 0.86488 0.0
C2166 C 0.13005 0.45235 0.91032 0.0
C2167 C 0.15333 0.4253 0.84993 0.0
C2168 C 0.14178 0.50598 0.96957 0.0
C2169 C 0.14107 0.4926 0.95546 0.0
C2170 C 0.14529 0.48464 0.90163 0.0
C2171 C 0.13829 0.44052 0.87666 0.0
C2172 C 0.1379 0.45484 0.89173 0.0
C2173 C 0.13785 0.49638 0.93544 0.0
C2174 C 0.13761 0.48212 0.9203 0.0
H2175 H 0.11214 0.40927 0.85607 0.0
H2176 H 0.11194 0.43132 0.8822 0.0
H2177 H 0.15138 0.47374 0.87334 0.0
H2178 H 0.13359 0.54062 0.93936 0.0
H2179 H 0.13243 0.51735 0.91478 0.0
C2180 C 0.33509 0.40349 0.60119 0.0
C2181 C 0.34537 0.38864 0.59733 0.0
C2182 C 0.32231 0.40328 0.61597 0.0
C2183 C 0.30694 0.3799 0.66076 0.0
H2184 H 0.26248 0.40096 0.64706 0.0
C2185 C 0.246 0.3743 0.71175 0.0
C2186 C 0.23503 0.38899 0.71334 0.0
C2187 C 0.2595 0.37379 0.69774 0.0
C2188 C 0.27485 0.39521 0.6513 0.0
H2189 H 0.35059 0.36206 0.60671 0.0
H2190 H 0.32829 0.36174 0.63264 0.0
H2191 H 0.28625 0.40114 0.62321 0.0
H2192 H 0.22994 0.41477 0.70143 0.0
H2193 H 0.25342 0.41397 0.67719 0.0
H2194 H 0.29555 0.37408 0.68894 0.0
C2195 C 0.33018 0.37358 0.62417 0.0
C2196 C 0.28853 0.3953 0.63756 0.0
C2197 C 0.34299 0.37377 0.60928 0.0
C2198 C 0.23789 0.40311 0.70043 0.0
C2199 C 0.25142 0.40264 0.68648 0.0
C2200 C 0.29325 0.37987 0.67457 0.0
C2201 C 0.31941 0.38822 0.62741 0.0
C2202 C 0.30481 0.38775 0.64212 0.0
C2203 C 0.26247 0.38799 0.68493 0.0
C2204 C 0.27702 0.38761 0.67009 0.0
H2205 H 0.33656 0.41523 0.59242 0.0
H2206 H 0.31455 0.41492 0.61829 0.0
H2207 H 0.31932 0.37409 0.66485 0.0
H2208 H 0.24408 0.36309 0.72126 0.0
H2209 H 0.26749 0.36216 0.69682 0.0
C2210 C 0.36802 0.50429 0.47115 0.0
C2211 C 0.37016 0.48665 0.46575 0.0
C2212 C 0.3686 0.51759 0.45695 0.0
C2213 C 0.36345 0.52558 0.40319 0.0
H2214 H 0.38578 0.56981 0.41514 0.0
C2215 C 0.35582 0.58513 0.35164 0.0
C2216 C 0.37078 0.59524 0.34767 0.0
C2217 C 0.35593 0.57248 0.36658 0.0
C2218 C 0.37958 0.55751 0.4115 0.0
H2219 H 0.37482 0.46938 0.44091 0.0
H2220 H 0.37574 0.49255 0.41615 0.0
H2221 H 0.38617 0.54633 0.43958 0.0
H2222 H 0.39745 0.60025 0.35693 0.0
H2223 H 0.39762 0.57817 0.38303 0.0
H2224 H 0.35707 0.53662 0.37504 0.0
C2225 C 0.37342 0.49607 0.43142 0.0
C2226 C 0.37964 0.54408 0.42561 0.0
C2227 C 0.37288 0.48274 0.44565 0.0
C2228 C 0.38566 0.59278 0.35958 0.0
C2229 C 0.38575 0.5801 0.37459 0.0
C2230 C 0.36334 0.53901 0.38913 0.0
C2231 C 0.37127 0.51369 0.43686 0.0
C2232 C 0.37154 0.52793 0.42168 0.0
C2233 C 0.37098 0.56954 0.37804 0.0
C2234 C 0.37132 0.55521 0.39309 0.0
H2235 H 0.36555 0.50785 0.48638 0.0
H2236 H 0.36658 0.53094 0.4617 0.0
H2237 H 0.35694 0.51342 0.39966 0.0
H2238 H 0.34407 0.58666 0.34289 0.0
H2239 H 0.34418 0.5649 0.36905 0.0
C2240 C 0.13944 0.272 0.42667 0.0
C2241 C 0.12752 0.28567 0.42334 0.0
C2242 C 0.14035 0.25773 0.41377 0.0
C2243 C 0.12901 0.24272 0.36311 0.0
H2244 H 0.13498 0.19686 0.38638 0.0
C2245 C 0.13045 0.17817 0.31641 0.0
C2246 C 0.14335 0.16607 0.322 0.0
C2247 C 0.127 0.1929 0.32826 0.0
C2248 C 0.13344 0.20957 0.37958 0.0
H2249 H 0.10751 0.29511 0.4033 0.0
H2250 H 0.10901 0.27013 0.38088 0.0
H2251 H 0.13238 0.2223 0.40769 0.0
H2252 H 0.16276 0.16 0.34431 0.0
H2253 H 0.15694 0.18539 0.36462 0.0
H2254 H 0.13027 0.22987 0.33493 0.0
C2255 C 0.11771 0.2705 0.3935 0.0
C2256 C 0.13199 0.2242 0.39184 0.0
C2257 C 0.11674 0.28477 0.40648 0.0
C2258 C 0.15267 0.169 0.33958 0.0
C2259 C 0.14923 0.18355 0.35137 0.0
C2260 C 0.1305 0.22802 0.35079 0.0
C2261 C 0.12939 0.25667 0.3971 0.0
C2262 C 0.13004 0.24104 0.38382 0.0
C2263 C 0.13634 0.19572 0.34597 0.0
C2264 C 0.13305 0.21127 0.35887 0.0
H2265 H 0.14783 0.27209 0.43957 0.0
H2266 H 0.1497 0.24748 0.4169 0.0
H2267 H 0.1276 0.25547 0.35638 0.0
H2268 H 0.12314 0.17632 0.30286 0.0
H2269 H 0.11693 0.20196 0.32367 0.0
C2270 C 0.09112 0.90302 0.58793 0.0
C2271 C 0.09411 0.89301 0.57086 0.0
C2272 C 0.07656 0.89997 0.59988 0.0
C2273 C 0.03224 0.88055 0.60039 0.0
H2274 H 0.03803 0.88452 0.65714 0.0
C2275 C 0.97599 0.86663 0.65663 0.0
C2276 C 0.9748 0.87767 0.67323 0.0
C2277 C 0.99021 0.86778 0.64359 0.0
C2278 C 0.03609 0.88356 0.64133 0.0
H2279 H 0.08391 0.87205 0.55277 0.0
H2280 H 0.05831 0.86653 0.57387 0.0
H2281 H 0.06335 0.88712 0.63564 0.0
H2282 H 0.9878 0.89867 0.68891 0.0
H2283 H 0.01231 0.90089 0.66611 0.0
H2284 H 1.00488 0.87705 0.6062 0.0
C2285 C 0.06732 0.87682 0.57794 0.0
C2286 C 0.05067 0.88502 0.62895 0.0
C2287 C 0.08203 0.87988 0.56592 0.0
C2288 C 0.98811 0.89006 0.67623 0.0
C2289 C 1.00234 0.89117 0.66325 0.0
C2290 C 0.0176 0.87907 0.61282 0.0
C2291 C 0.06445 0.8868 0.59517 0.0
C2292 C 0.04895 0.88382 0.60828 0.0
C2293 C 1.00371 0.87995 0.64684 0.0
C2294 C 0.0193 0.8808 0.63347 0.0
H2295 H 0.1001 0.91331 0.59214 0.0
H2296 H 0.07468 0.90817 0.61275 0.0
H2297 H 0.03036 0.8797 0.58456 0.0
H2298 H 0.96592 0.85704 0.65369 0.0
H2299 H 0.99082 0.85886 0.6312 0.0
C2300 C 0.38198 0.83131 0.81613 0.0
C2301 C 0.36873 0.84319 0.82124 0.0
C2302 C 0.38534 0.81665 0.82812 0.0
C2303 C 0.37785 0.79991 0.8792 0.0
H2304 H 0.38482 0.75406 0.85628 0.0
C2305 C 0.37165 0.73746 0.92626 0.0
C2306 C 0.38381 0.72395 0.92328 0.0
C2307 C 0.37082 0.75171 0.9133 0.0
C2308 C 0.38309 0.7668 0.86294 0.0
H2309 H 0.34863 0.84896 0.84284 0.0
H2310 H 0.35433 0.82368 0.86341 0.0
H2311 H 0.38234 0.77962 0.8347 0.0
H2312 H 0.40431 0.71472 0.90378 0.0
H2313 H 0.40297 0.73965 0.88129 0.0
H2314 H 0.37841 0.78722 0.90736 0.0
C2315 C 0.36236 0.82565 0.85042 0.0
C2316 C 0.38171 0.78147 0.85055 0.0
C2317 C 0.35899 0.84013 0.83849 0.0
C2318 C 0.3949 0.72495 0.9067 0.0
C2319 C 0.39402 0.73919 0.89367 0.0
C2320 C 0.3792 0.7853 0.89153 0.0
C2321 C 0.37558 0.81368 0.84549 0.0
C2322 C 0.37876 0.79819 0.85851 0.0
C2323 C 0.3821 0.75288 0.89693 0.0
C2324 C 0.38155 0.76849 0.8836 0.0
H2325 H 0.38962 0.83327 0.80284 0.0
H2326 H 0.39567 0.80774 0.8239 0.0
H2327 H 0.37599 0.8126 0.88593 0.0
H2328 H 0.36301 0.73729 0.93893 0.0
H2329 H 0.36128 0.76185 0.91616 0.0
C2330 C 0.42813 0.12896 0.06554 0.0
C2331 C 0.41613 0.11572 0.07035 0.0
C2332 C 0.44278 0.13206 0.07765 0.0
C2333 C 0.45905 0.12406 0.12876 0.0
H2334 H 0.50513 0.13153 0.10659 0.0
C2335 C 0.52074 0.1183 0.17703 0.0
C2336 C 0.53431 0.13047 0.17433 0.0
C2337 C 0.50676 0.11738 0.16372 0.0
C2338 C 0.49233 0.12966 0.11305 0.0
H2339 H 0.4102 0.09528 0.09147 0.0
H2340 H 0.43548 0.10054 0.11228 0.0
H2341 H 0.47983 0.129 0.08461 0.0
H2342 H 0.54379 0.15106 0.1551 0.0
H2343 H 0.51938 0.14941 0.13184 0.0
H2344 H 0.47139 0.12461 0.15711 0.0
C2345 C 0.4336 0.10876 0.09943 0.0
C2346 C 0.4778 0.12824 0.10042 0.0
C2347 C 0.41912 0.10565 0.08737 0.0
C2348 C 0.53369 0.1414 0.15759 0.0
C2349 C 0.51966 0.14047 0.14424 0.0
C2350 C 0.4735 0.12548 0.14132 0.0
C2351 C 0.44563 0.12204 0.09485 0.0
C2352 C 0.46099 0.12511 0.10811 0.0
C2353 C 0.50586 0.1286 0.14727 0.0
C2354 C 0.49041 0.12801 0.13367 0.0
H2355 H 0.42624 0.13685 0.05242 0.0
H2356 H 0.45174 0.14243 0.0737 0.0
H2357 H 0.44628 0.12206 0.13528 0.0
H2358 H 0.52091 0.10941 0.18947 0.0
H2359 H 0.49663 0.10777 0.16633 0.0
C2360 C 0.15465 0.83854 0.2095 0.0
C2361 C 0.14384 0.84278 0.22558 0.0
C2362 C 0.15197 0.82328 0.19863 0.0
C2363 C 0.11941 0.78976 0.18544 0.0
H2364 H 0.16055 0.76387 0.16927 0.0
C2365 C 0.11502 0.72524 0.13996 0.0
C2366 C 0.12742 0.72286 0.12481 0.0
C2367 C 0.11663 0.73901 0.15353 0.0
C2368 C 0.14891 0.771 0.17345 0.0
H2369 H 0.12154 0.8343 0.24276 0.0
H2370 H 0.11667 0.80744 0.22349 0.0
H2371 H 0.16368 0.78922 0.19065 0.0
H2372 H 0.15119 0.73341 0.11212 0.0
H2373 H 0.15399 0.7573 0.13561 0.0
H2374 H 0.10466 0.77164 0.16791 0.0
C2375 C 0.12726 0.81607 0.21935 0.0
C2376 C 0.1507 0.78555 0.18579 0.0
C2377 C 0.13004 0.83142 0.2304 0.0
C2378 C 0.14155 0.73458 0.12375 0.0
C2379 C 0.14315 0.74834 0.13728 0.0
C2380 C 0.11761 0.77517 0.17299 0.0
C2381 C 0.13835 0.81173 0.20343 0.0
C2382 C 0.13603 0.79533 0.1917 0.0
C2383 C 0.1307 0.75081 0.15235 0.0
C2384 C 0.13237 0.76574 0.16657 0.0
H2385 H 0.16533 0.84703 0.20526 0.0
H2386 H 0.16055 0.82062 0.18626 0.0
H2387 H 0.10784 0.79703 0.18957 0.0
H2388 H 0.10408 0.71636 0.14145 0.0
H2389 H 0.10692 0.74028 0.16506 0.0
C2390 C 0.5223 0.89424 0.37287 0.0
C2391 C 0.53456 0.88057 0.37388 0.0
C2392 C 0.50882 0.89559 0.38678 0.0
C2393 C 0.4835 0.86989 0.42356 0.0
H2394 H 0.46893 0.91576 0.44122 0.0
C2395 C 0.42807 0.88117 0.48211 0.0
C2396 C 0.41641 0.89483 0.47777 0.0
C2397 C 0.44325 0.87875 0.47067 0.0
C2398 C 0.47272 0.90284 0.43635 0.0
H2399 H 0.54209 0.85758 0.39056 0.0
H2400 H 0.51873 0.86012 0.41502 0.0
H2401 H 0.49389 0.91299 0.41921 0.0
H2402 H 0.4115 0.91655 0.45799 0.0
H2403 H 0.43763 0.91239 0.43825 0.0
H2404 H 0.46213 0.8598 0.4407 0.0
C2405 C 0.51947 0.86972 0.4033 0.0
C2406 C 0.48707 0.90125 0.42367 0.0
C2407 C 0.53302 0.86838 0.38938 0.0
C2408 C 0.42023 0.90595 0.46183 0.0
C2409 C 0.43532 0.90362 0.45054 0.0
C2410 C 0.4691 0.87148 0.43632 0.0
C2411 C 0.50716 0.88334 0.40218 0.0
C2412 C 0.49251 0.88479 0.4168 0.0
C2413 C 0.44713 0.89007 0.45481 0.0
C2414 C 0.46332 0.88802 0.44261 0.0
H2415 H 0.52313 0.90398 0.36131 0.0
H2416 H 0.49951 0.90614 0.38523 0.0
H2417 H 0.4872 0.857 0.4185 0.0
H2418 H 0.42555 0.87247 0.49439 0.0
H2419 H 0.45209 0.86824 0.47445 0.0
C2420 C 0.37603 0.28524 0.63935 0.0
C2421 C 0.38705 0.28475 0.62271 0.0
C2422 C 0.37539 0.27116 0.65264 0.0
C2423 C 0.38407 0.22365 0.65519 0.0
H2424 H 0.38005 0.23008 0.71185 0.0
C2425 C 0.36134 0.16847 0.70676 0.0
C2426 C 0.36982 0.16605 0.72497 0.0
C2427 C 0.36503 0.18293 0.69491 0.0
C2428 C 0.38135 0.22806 0.69608 0.0
H2429 H 0.40598 0.26881 0.60709 0.0
H2430 H 0.40501 0.24451 0.63023 0.0
H2431 H 0.38339 0.25556 0.69024 0.0
H2432 H 0.38889 0.177 0.74509 0.0
H2433 H 0.39534 0.20263 0.72429 0.0
H2434 H 0.38191 0.19623 0.66091 0.0
C2435 C 0.39679 0.25575 0.63302 0.0
C2436 C 0.38306 0.24268 0.68366 0.0
C2437 C 0.39748 0.26982 0.61983 0.0
C2438 C 0.3822 0.17849 0.73109 0.0
C2439 C 0.3858 0.19319 0.71924 0.0
C2440 C 0.38223 0.2091 0.66754 0.0
C2441 C 0.38565 0.25614 0.64955 0.0
C2442 C 0.38433 0.24067 0.66302 0.0
C2443 C 0.37725 0.19555 0.70096 0.0
C2444 C 0.38066 0.21109 0.68814 0.0
H2445 H 0.36791 0.29655 0.64217 0.0
H2446 H 0.36655 0.27188 0.6651 0.0
H2447 H 0.38486 0.22154 0.63939 0.0
H2448 H 0.35171 0.15914 0.70162 0.0
H2449 H 0.35801 0.1844 0.68111 0.0
C2450 C 0.08172 0.12912 0.98089 0.0
C2451 C 0.09422 0.11669 0.97509 0.0
C2452 C 0.06695 0.13237 0.96902 0.0
C2453 C 0.05106 0.12771 0.91742 0.0
H2454 H 1.00462 0.13065 0.94004 0.0
C2455 C 0.99081 0.14465 0.86959 0.0
C2456 C 0.97542 0.13493 0.87267 0.0
C2457 C 1.00492 0.14339 0.88268 0.0
C2458 C 0.0175 0.12979 0.93348 0.0
H2459 H 0.10105 0.098 0.95232 0.0
H2460 H 0.07563 0.10367 0.93178 0.0
H2461 H 0.03001 0.12704 0.96176 0.0
H2462 H 0.9629 0.1164 0.89231 0.0
H2463 H 0.98764 0.11408 0.91511 0.0
H2464 H 0.03869 0.13015 0.8892 0.0
C2465 C 0.07714 0.11102 0.94534 0.0
C2466 C 0.03207 0.12792 0.94596 0.0
C2467 C 0.0917 0.10769 0.95722 0.0
C2468 C 0.97455 0.12398 0.88936 0.0
C2469 C 0.98868 0.1228 0.90256 0.0
C2470 C 0.03656 0.1297 0.90501 0.0
C2471 C 0.06454 0.12339 0.95102 0.0
C2472 C 0.04903 0.12665 0.93806 0.0
C2473 C 1.00412 0.1324 0.89932 0.0
C2474 C 0.01955 0.13065 0.91281 0.0
H2475 H 0.08328 0.1362 0.99464 0.0
H2476 H 0.05754 0.14204 0.97379 0.0
H2477 H 0.06392 0.12694 0.91081 0.0
H2478 H 0.9921 0.15306 0.85681 0.0
H2479 H 0.01649 0.15111 0.87977 0.0
C2480 C 0.87999 0.83138 0.73129 0.0
C2481 C 0.86752 0.84384 0.72548 0.0
C2482 C 0.8833 0.81665 0.71941 0.0
C2483 C 0.87874 0.80082 0.66782 0.0
H2484 H 0.88155 0.75437 0.69039 0.0
C2485 C 0.89566 0.74066 0.61998 0.0
C2486 C 0.88584 0.72533 0.62297 0.0
C2487 C 0.89444 0.75473 0.63311 0.0
C2488 C 0.88074 0.76725 0.68385 0.0
H2489 H 0.8488 0.85063 0.7027 0.0
H2490 H 0.85457 0.82527 0.68214 0.0
H2491 H 0.87793 0.77972 0.71212 0.0
H2492 H 0.86716 0.71286 0.64247 0.0
H2493 H 0.8649 0.73753 0.66534 0.0
H2494 H 0.88123 0.7885 0.63959 0.0
C2495 C 0.86191 0.82679 0.69572 0.0
C2496 C 0.87886 0.7818 0.69633 0.0
C2497 C 0.85853 0.84132 0.7076 0.0
C2498 C 0.87482 0.72447 0.6396 0.0
C2499 C 0.87367 0.73856 0.65284 0.0
C2500 C 0.88075 0.78635 0.6554 0.0
C2501 C 0.87432 0.81423 0.70141 0.0
C2502 C 0.87762 0.79876 0.68844 0.0
C2503 C 0.88338 0.75394 0.64968 0.0
C2504 C 0.88164 0.76934 0.66319 0.0
H2505 H 0.88706 0.83295 0.74505 0.0
H2506 H 0.893 0.80727 0.72419 0.0
H2507 H 0.878 0.81369 0.66122 0.0
H2508 H 0.90412 0.74194 0.60724 0.0
H2509 H 0.90224 0.76626 0.63026 0.0
C2510 C 0.03527 0.14284 0.38934 0.0
C2511 C 0.03613 0.13201 0.37254 0.0
C2512 C 0.02104 0.14189 0.40238 0.0
C2513 C 0.97474 0.12767 0.40424 0.0
H2514 H 0.9806 0.12923 0.46113 0.0
C2515 C 0.91955 0.10713 0.45664 0.0
C2516 C 0.91678 0.11636 0.4743 0.0
C2517 C 0.93408 0.11054 0.4448 0.0
C2518 C 0.9787 0.12905 0.44528 0.0
H2519 H 0.02253 0.11164 0.35645 0.0
H2520 H 0.99795 0.10981 0.37921 0.0
H2521 H 0.00616 0.13189 0.43958 0.0
H2522 H 0.92728 0.13639 0.49351 0.0
H2523 H 0.95286 0.14255 0.47259 0.0
H2524 H 0.94739 0.12476 0.40979 0.0
C2525 C 0.00822 0.11917 0.38225 0.0
C2526 C 0.99337 0.13053 0.43291 0.0
C2527 C 0.02246 0.12006 0.3693 0.0
C2528 C 0.929 0.12915 0.47991 0.0
C2529 C 0.9437 0.13257 0.46799 0.0
C2530 C 0.96013 0.12624 0.41655 0.0
C2531 C 0.0072 0.13018 0.39888 0.0
C2532 C 0.99161 0.12955 0.41221 0.0
C2533 C 0.94638 0.12332 0.45021 0.0
C2534 C 0.9619 0.12657 0.43726 0.0
H2535 H 0.04562 0.15209 0.39243 0.0
H2536 H 0.02069 0.15061 0.41496 0.0
H2537 H 0.97279 0.12731 0.38839 0.0
H2538 H 0.91045 0.09713 0.45191 0.0
H2539 H 0.93581 0.10289 0.43148 0.0
C2540 C 0.64062 0.27248 0.12123 0.0
C2541 C 0.62783 0.28545 0.12402 0.0
C2542 C 0.64184 0.25821 0.13412 0.0
C2543 C 0.62909 0.2423 0.18409 0.0
H2544 H 0.63857 0.19694 0.16107 0.0
C2545 C 0.63017 0.17757 0.23034 0.0
C2546 C 0.64371 0.16587 0.22571 0.0
C2547 C 0.62707 0.19229 0.21837 0.0
C2548 C 0.63606 0.20952 0.16781 0.0
H2549 H 0.60664 0.29369 0.14314 0.0
H2550 H 0.60864 0.26871 0.16547 0.0
H2551 H 0.63587 0.22236 0.13973 0.0
H2552 H 0.66466 0.16051 0.20503 0.0
H2553 H 0.65943 0.18595 0.18449 0.0
H2554 H 0.6294 0.22933 0.21224 0.0
C2555 C 0.61779 0.26962 0.15331 0.0
C2556 C 0.63455 0.22415 0.15553 0.0
C2557 C 0.61653 0.28389 0.14036 0.0
C2558 C 0.65406 0.1692 0.20898 0.0
C2559 C 0.65096 0.18377 0.19707 0.0
C2560 C 0.63063 0.22761 0.19642 0.0
C2561 C 0.63033 0.25646 0.15024 0.0
C2562 C 0.63128 0.24081 0.16348 0.0
C2563 C 0.63741 0.19553 0.20149 0.0
C2564 C 0.63439 0.21105 0.18846 0.0
H2565 H 0.64945 0.27309 0.10875 0.0
H2566 H 0.65184 0.2485 0.13142 0.0
H2567 H 0.62667 0.25491 0.19078 0.0
H2568 H 0.62203 0.17537 0.24319 0.0
H2569 H 0.61646 0.20101 0.22218 0.0
C2570 C 0.47694 0.86669 0.89011 0.0
C2571 C 0.47565 0.8781 0.87384 0.0
C2572 C 0.49113 0.8677 0.90323 0.0
C2573 C 0.53681 0.88398 0.90613 0.0
H2574 H 0.53105 0.87865 0.96274 0.0
C2575 C 0.59152 0.90283 0.96027 0.0
C2576 C 0.59463 0.89243 0.97701 0.0
C2577 C 0.577 0.8999 0.9482 0.0
C2578 C 0.53294 0.87992 0.94695 0.0
H2579 H 0.48843 0.89963 0.85885 0.0
H2580 H 0.51286 0.9016 0.88179 0.0
H2581 H 0.50564 0.87621 0.94095 0.0
H2582 H 0.58471 0.87087 0.9944 0.0
H2583 H 0.55918 0.86557 0.97309 0.0
H2584 H 0.56401 0.88776 0.91201 0.0
C2585 C 0.50301 0.8917 0.88433 0.0
C2586 C 0.51834 0.87855 0.93442 0.0
C2587 C 0.48882 0.89072 0.87127 0.0
C2588 C 0.58272 0.87903 0.98151 0.0
C2589 C 0.56805 0.87609 0.96937 0.0
C2590 C 0.55135 0.88533 0.91859 0.0
C2591 C 0.50448 0.8801 0.9004 0.0
C2592 C 0.52004 0.88082 0.91384 0.0
C2593 C 0.56506 0.88646 0.95246 0.0
C2594 C 0.54962 0.8836 0.93922 0.0
H2595 H 0.46699 0.85691 0.89272 0.0
H2596 H 0.49182 0.85849 0.91535 0.0
H2597 H 0.53876 0.88536 0.89036 0.0
H2598 H 0.60036 0.91334 0.95641 0.0
H2599 H 0.57502 0.9084 0.9356 0.0
C2600 C 0.86828 0.27335 0.92405 0.0
C2601 C 0.88199 0.28551 0.92245 0.0
C2602 C 0.86667 0.25957 0.91054 0.0
C2603 C 0.89183 0.2337 0.87354 0.0
H2604 H 0.84567 0.21829 0.85772 0.0
C2605 C 0.87952 0.17789 0.81567 0.0
C2606 C 0.86622 0.16601 0.82065 0.0
C2607 C 0.8821 0.19312 0.82698 0.0
C2608 C 0.85868 0.22232 0.86207 0.0
H2609 H 0.90457 0.29276 0.9049 0.0
H2610 H 0.9017 0.26882 0.88131 0.0
H2611 H 0.8487 0.24352 0.87928 0.0
H2612 H 0.84534 0.16075 0.84147 0.0
H2613 H 0.84978 0.18699 0.86094 0.0
H2614 H 0.90173 0.21235 0.85625 0.0
C2615 C 0.89234 0.26976 0.89325 0.0
C2616 C 0.86042 0.23682 0.87452 0.0
C2617 C 0.89397 0.28354 0.9068 0.0
C2618 C 0.85565 0.16966 0.83712 0.0
C2619 C 0.85813 0.1848 0.84827 0.0
C2620 C 0.89008 0.21918 0.86099 0.0
C2621 C 0.87869 0.25752 0.89495 0.0
C2622 C 0.877 0.24259 0.88071 0.0
C2623 C 0.87129 0.19684 0.84333 0.0
C2624 C 0.87345 0.21312 0.85536 0.0
H2625 H 0.85899 0.2742 0.93607 0.0
H2626 H 0.85617 0.25027 0.91262 0.0
H2627 H 0.90482 0.23761 0.87809 0.0
H2628 H 0.88779 0.1755 0.80297 0.0
H2629 H 0.89232 0.20214 0.82269 0.0
C2630 C 0.47823 0.11946 0.66069 0.0
C2631 C 0.47524 0.1342 0.67266 0.0
C2632 C 0.49214 0.11914 0.64718 0.0
C2633 C 0.53549 0.13843 0.6385 0.0
H2634 H 0.53062 0.11981 0.58547 0.0
C2635 C 0.59364 0.11502 0.59104 0.0
C2636 C 0.59453 0.12064 0.5713 0.0
C2637 C 0.57897 0.11862 0.60263 0.0
C2638 C 0.53213 0.1252 0.60017 0.0
H2639 H 0.48475 0.16015 0.67972 0.0
H2640 H 0.50893 0.15957 0.65625 0.0
H2641 H 0.50491 0.12194 0.607 0.0
H2642 H 0.5808 0.13456 0.5482 0.0
H2643 H 0.55465 0.14043 0.56843 0.0
H2644 H 0.56277 0.14121 0.6319 0.0
C2645 C 0.50048 0.14826 0.6573 0.0
C2646 C 0.51745 0.12626 0.61257 0.0
C2647 C 0.48649 0.14864 0.67063 0.0
C2648 C 0.58046 0.13015 0.56341 0.0
C2649 C 0.56551 0.13341 0.57493 0.0
C2650 C 0.55018 0.1371 0.62624 0.0
C2651 C 0.50356 0.13348 0.64546 0.0
C2652 C 0.51897 0.13282 0.63193 0.0
C2653 C 0.56461 0.12762 0.59467 0.0
C2654 C 0.5487 0.13037 0.60699 0.0
H2655 H 0.46979 0.10814 0.66174 0.0
H2656 H 0.49422 0.1075 0.63842 0.0
H2657 H 0.53717 0.14343 0.65335 0.0
H2658 H 0.60431 0.10769 0.59753 0.0
H2659 H 0.57865 0.11391 0.61772 0.0
C2660 C 0.62897 0.83264 0.3164 0.0
C2661 C 0.64237 0.84447 0.3212 0.0
C2662 C 0.62588 0.8179 0.32834 0.0
C2663 C 0.63451 0.80069 0.37899 0.0
H2664 H 0.62601 0.75522 0.35578 0.0
C2665 C 0.63944 0.73769 0.4255 0.0
C2666 C 0.62694 0.7245 0.42242 0.0
C2667 C 0.64058 0.75203 0.41268 0.0
C2668 C 0.62818 0.76785 0.36254 0.0
H2669 H 0.66303 0.85004 0.3422 0.0
H2670 H 0.65779 0.82458 0.3627 0.0
H2671 H 0.62862 0.78087 0.33443 0.0
H2672 H 0.60615 0.71593 0.40289 0.0
H2673 H 0.60799 0.74102 0.38071 0.0
H2674 H 0.63419 0.78779 0.40704 0.0
C2675 C 0.64945 0.82666 0.34998 0.0
C2676 C 0.62964 0.78259 0.35027 0.0
C2677 C 0.65254 0.84125 0.3381 0.0
C2678 C 0.61582 0.72591 0.4059 0.0
C2679 C 0.61699 0.74024 0.39303 0.0
C2680 C 0.63306 0.78601 0.39121 0.0
C2681 C 0.63606 0.81476 0.34536 0.0
C2682 C 0.63309 0.79918 0.35832 0.0
C2683 C 0.62925 0.75362 0.39637 0.0
C2684 C 0.63012 0.76933 0.38318 0.0
H2685 H 0.62096 0.83474 0.30342 0.0
H2686 H 0.6154 0.80906 0.32437 0.0
H2687 H 0.63678 0.81329 0.3858 0.0
H2688 H 0.64812 0.73721 0.43813 0.0
H2689 H 0.65038 0.7619 0.4156 0.0
C2690 C 0.91977 0.90448 0.08823 0.0
C2691 C 0.91648 0.89411 0.07151 0.0
C2692 C 0.93492 0.90218 0.09944 0.0
C2693 C 0.97023 0.87102 0.11156 0.0
H2694 H 0.99304 0.91277 0.13126 0.0
C2695 C 0.03435 0.86885 0.15838 0.0
C2696 C 0.0352 0.88027 0.17467 0.0
C2697 C 0.02075 0.87017 0.14451 0.0
C2698 C 0.98678 0.90095 0.12606 0.0
H2699 H 0.92656 0.87305 0.05348 0.0
H2700 H 0.95324 0.8689 0.07325 0.0
H2701 H 0.96792 0.91541 0.10944 0.0
H2702 H 0.0225 0.90232 0.18873 0.0
H2703 H 0.99882 0.90446 0.16486 0.0
H2704 H 0.98907 0.85657 0.12845 0.0
C2705 C 0.94395 0.8788 0.0777 0.0
C2706 C 0.97234 0.90247 0.11349 0.0
C2707 C 0.9287 0.88118 0.06635 0.0
C2708 C 0.02222 0.89317 0.17653 0.0
C2709 C 0.0087 0.89452 0.16266 0.0
C2710 C 0.98473 0.8695 0.1242 0.0
C2711 C 0.94733 0.88944 0.09429 0.0
C2712 C 0.96364 0.88755 0.10633 0.0
C2713 C 0.00771 0.88302 0.14647 0.0
C2714 C 0.99302 0.88446 0.1319 0.0
H2715 H 0.9106 0.91449 0.09272 0.0
H2716 H 0.93684 0.91037 0.1123 0.0
H2717 H 0.96382 0.85925 0.10644 0.0
H2718 H 0.044 0.85865 0.15654 0.0
H2719 H 0.02053 0.86117 0.13217 0.0
C2720 C 0.6534 0.66881 0.83627 0.0
C2721 C 0.64302 0.6657 0.8195 0.0
C2722 C 0.65045 0.68332 0.84832 0.0
C2723 C 0.63047 0.72734 0.84945 0.0
H2724 H 0.63565 0.72155 0.90608 0.0
C2725 C 0.61673 0.78327 0.90606 0.0
C2726 C 0.62799 0.78459 0.92247 0.0
C2727 C 0.6179 0.76909 0.89297 0.0
C2728 C 0.63434 0.72349 0.89029 0.0
H2729 H 0.62148 0.67561 0.80206 0.0
H2730 H 0.61614 0.70112 0.82333 0.0
H2731 H 0.63819 0.69631 0.88446 0.0
H2732 H 0.64943 0.7719 0.93773 0.0
H2733 H 0.65168 0.74749 0.91482 0.0
H2734 H 0.62669 0.75462 0.85539 0.0
C2735 C 0.62666 0.69226 0.82708 0.0
C2736 C 0.63577 0.70896 0.87785 0.0
C2737 C 0.62961 0.6776 0.81496 0.0
C2738 C 0.64063 0.77147 0.9252 0.0
C2739 C 0.64177 0.7573 0.91217 0.0
C2740 C 0.62902 0.74193 0.86194 0.0
C2741 C 0.63701 0.69525 0.84401 0.0
C2742 C 0.63412 0.71068 0.85722 0.0
C2743 C 0.63031 0.75579 0.89596 0.0
C2744 C 0.63118 0.74024 0.88254 0.0
H2745 H 0.6639 0.65997 0.84016 0.0
H2746 H 0.65892 0.6853 0.86094 0.0
H2747 H 0.62926 0.72922 0.83365 0.0
H2748 H 0.60695 0.79319 0.90331 0.0
H2749 H 0.60879 0.76838 0.88075 0.0
C2750 C 0.59063 0.40402 0.08686 0.0
C2751 C 0.59382 0.39356 0.07019 0.0
C2752 C 0.57613 0.40104 0.09895 0.0
C2753 C 0.53224 0.38057 0.10036 0.0
H2754 H 0.53798 0.38653 0.1569 0.0
C2755 C 0.47647 0.36669 0.15724 0.0
C2756 C 0.47495 0.37815 0.17344 0.0
C2757 C 0.49064 0.3679 0.14414 0.0
C2758 C 0.53604 0.385 0.14114 0.0
H2759 H 0.58403 0.37185 0.05295 0.0
H2760 H 0.55856 0.36646 0.07429 0.0
H2761 H 0.56318 0.38917 0.13524 0.0
H2762 H 0.48735 0.39996 0.18833 0.0
H2763 H 0.51177 0.40225 0.16541 0.0
H2764 H 0.50501 0.37644 0.10639 0.0
C2765 C 0.56735 0.37707 0.07794 0.0
C2766 C 0.55056 0.38649 0.12867 0.0
C2767 C 0.58199 0.38005 0.06578 0.0
C2768 C 0.48791 0.39101 0.17596 0.0
C2769 C 0.50209 0.39217 0.16292 0.0
C2770 C 0.51767 0.37905 0.11289 0.0
C2771 C 0.56429 0.38749 0.09478 0.0
C2772 C 0.54887 0.38456 0.10806 0.0
C2773 C 0.50378 0.38054 0.14691 0.0
C2774 C 0.51932 0.38149 0.13346 0.0
H2775 H 0.59941 0.4146 0.09066 0.0
H2776 H 0.5741 0.40959 0.11149 0.0
H2777 H 0.53037 0.37914 0.08459 0.0
H2778 H 0.46668 0.35674 0.15466 0.0
H2779 H 0.4915 0.35865 0.13207 0.0
C2780 C 0.8571 0.33989 0.33968 0.0
C2781 C 0.8667 0.34301 0.32234 0.0
C2782 C 0.86057 0.32538 0.35153 0.0
C2783 C 0.88013 0.28126 0.35142 0.0
H2784 H 0.87709 0.28692 0.40826 0.0
C2785 C 0.89405 0.22479 0.40745 0.0
C2786 C 0.88303 0.22367 0.42407 0.0
C2787 C 0.893 0.23903 0.39444 0.0
C2788 C 0.87781 0.28503 0.39243 0.0
H2789 H 0.88749 0.33318 0.30374 0.0
H2790 H 0.89372 0.30759 0.32466 0.0
H2791 H 0.87439 0.31231 0.38689 0.0
H2792 H 0.86216 0.23682 0.43983 0.0
H2793 H 0.86015 0.26139 0.4171 0.0
H2794 H 0.88347 0.25387 0.35709 0.0
C2795 C 0.8834 0.31647 0.32899 0.0
C2796 C 0.8763 0.29963 0.38013 0.0
C2797 C 0.87993 0.33116 0.31707 0.0
C2798 C 0.87076 0.23708 0.42713 0.0
C2799 C 0.86976 0.25133 0.41419 0.0
C2800 C 0.88168 0.26658 0.36378 0.0
C2801 C 0.87378 0.31345 0.34645 0.0
C2802 C 0.8771 0.29795 0.35943 0.0
C2803 C 0.88098 0.25262 0.39776 0.0
C2804 C 0.88024 0.26824 0.38446 0.0
H2805 H 0.84676 0.3487 0.34416 0.0
H2806 H 0.85264 0.32338 0.36459 0.0
H2807 H 0.88069 0.27942 0.33557 0.0
H2808 H 0.90355 0.21464 0.40448 0.0
H2809 H 0.9019 0.23959 0.38202 0.0
C2810 C 0.92816 0.62959 0.56465 0.0
C2811 C 0.91631 0.61613 0.56915 0.0
C2812 C 0.94332 0.63199 0.57617 0.0
C2813 C 0.97227 0.60797 0.61116 0.0
H2814 H 0.98762 0.65383 0.62803 0.0
C2815 C 0.02191 0.61671 0.67464 0.0
C2816 C 0.03448 0.63007 0.67334 0.0
C2817 C 0.00841 0.6154 0.66073 0.0
C2818 C 0.98367 0.64093 0.62325 0.0
H2819 H 0.91101 0.59479 0.58934 0.0
H2820 H 0.93708 0.59895 0.6092 0.0
H2821 H 0.96254 0.65111 0.60578 0.0
H2822 H 0.04252 0.6526 0.65616 0.0
H2823 H 0.01911 0.65015 0.63172 0.0
H2824 H 0.9932 0.59772 0.62864 0.0
C2825 C 0.93496 0.60755 0.59673 0.0
C2826 C 0.96927 0.63938 0.61046 0.0
C2827 C 0.9199 0.60523 0.58535 0.0
C2828 C 0.03321 0.64202 0.65757 0.0
C2829 C 0.01964 0.64074 0.64365 0.0
C2830 C 0.98662 0.60951 0.62388 0.0
C2831 C 0.94698 0.62086 0.59227 0.0
C2832 C 0.96318 0.62284 0.60452 0.0
C2833 C 0.00702 0.62741 0.64505 0.0
C2834 C 0.99238 0.62598 0.6304 0.0
H2835 H 0.92583 0.63812 0.55216 0.0
H2836 H 0.95232 0.64233 0.57224 0.0
H2837 H 0.96826 0.59503 0.60657 0.0
H2838 H 0.02251 0.60715 0.68642 0.0
H2839 H 0.99887 0.60507 0.6625 0.0
C2840 C 0.65588 0.33942 0.71168 0.0
C2841 C 0.6446 0.34334 0.72745 0.0
C2842 C 0.65355 0.32435 0.70035 0.0
C2843 C 0.62118 0.29109 0.68541 0.0
H2844 H 0.6625 0.26545 0.6694 0.0
C2845 C 0.61713 0.22718 0.63884 0.0
C2846 C 0.62978 0.22481 0.62396 0.0
C2847 C 0.61863 0.24083 0.65259 0.0
C2848 C 0.65081 0.27252 0.67351 0.0
H2849 H 0.62199 0.33435 0.74376 0.0
H2850 H 0.61772 0.30789 0.72369 0.0
H2851 H 0.66538 0.29047 0.69131 0.0
H2852 H 0.65387 0.23525 0.61193 0.0
H2853 H 0.65645 0.25894 0.63572 0.0
H2854 H 0.60664 0.27326 0.66731 0.0
C2855 C 0.62837 0.31664 0.72009 0.0
C2856 C 0.65246 0.28689 0.68617 0.0
C2857 C 0.63081 0.33177 0.7316 0.0
C2858 C 0.64403 0.23641 0.62335 0.0
C2859 C 0.64551 0.25006 0.63706 0.0
C2860 C 0.61952 0.2767 0.67265 0.0
C2861 C 0.63983 0.31268 0.70438 0.0
C2862 C 0.63771 0.29655 0.69209 0.0
C2863 C 0.63281 0.25253 0.65187 0.0
C2864 C 0.63436 0.26733 0.6663 0.0
H2865 H 0.6666 0.34807 0.708 0.0
H2866 H 0.66244 0.32196 0.6882 0.0
H2867 H 0.60955 0.29829 0.68951 0.0
H2868 H 0.60609 0.2184 0.63997 0.0
H2869 H 0.60872 0.24208 0.66392 0.0
C2870 C 0.92809 0.37945 0.98105 0.0
C2871 C 0.91613 0.39272 0.97624 0.0
C2872 C 0.94277 0.37637 0.96898 0.0
C2873 C 0.95942 0.38483 0.91801 0.0
H2874 H 0.00518 0.37631 0.94058 0.0
C2875 C 0.02193 0.38982 0.87065 0.0
C2876 C 0.03514 0.37729 0.87346 0.0
C2877 C 0.00774 0.39093 0.88367 0.0
C2878 C 0.99247 0.37849 0.934 0.0
H2879 H 0.91031 0.41323 0.95516 0.0
H2880 H 0.93565 0.40805 0.93449 0.0
H2881 H 0.97976 0.37897 0.9623 0.0
H2882 H 0.04388 0.35641 0.89275 0.0
H2883 H 0.01905 0.35823 0.91533 0.0
H2884 H 0.97201 0.38448 0.88979 0.0
C2885 C 0.93372 0.39976 0.94727 0.0
C2886 C 0.97786 0.37998 0.94649 0.0
C2887 C 0.91919 0.40283 0.95927 0.0
C2888 C 0.03389 0.36611 0.88995 0.0
C2889 C 0.01971 0.36726 0.90304 0.0
C2890 C 0.97397 0.38336 0.90559 0.0
C2891 C 0.94571 0.38645 0.95184 0.0
C2892 C 0.96116 0.38344 0.93867 0.0
C2893 C 0.00631 0.37956 0.89996 0.0
C2894 C 0.99075 0.38042 0.91338 0.0
H2895 H 0.92615 0.37153 0.99412 0.0
H2896 H 0.95169 0.36596 0.97294 0.0
H2897 H 0.94675 0.38709 0.91137 0.0
H2898 H 0.02229 0.39854 0.85806 0.0
H2899 H 0.99785 0.40075 0.88095 0.0
C2900 C 0.8945 0.78434 0.14006 0.0
C2901 C 0.88359 0.78544 0.12332 0.0
C2902 C 0.89343 0.77007 0.15302 0.0
C2903 C 0.87829 0.724 0.15485 0.0
H2904 H 0.88129 0.72955 0.21171 0.0
C2905 C 0.85797 0.66899 0.20769 0.0
C2906 C 0.86769 0.66592 0.22496 0.0
C2907 C 0.86132 0.68351 0.19581 0.0
C2908 C 0.88069 0.72773 0.19585 0.0
H2909 H 0.86289 0.77223 0.10733 0.0
H2910 H 0.86081 0.74762 0.12999 0.0
H2911 H 0.88395 0.75513 0.19022 0.0
H2912 H 0.88852 0.67587 0.24345 0.0
H2913 H 0.89455 0.70146 0.22247 0.0
H2914 H 0.87493 0.6967 0.16036 0.0
C2915 C 0.87037 0.7577 0.13302 0.0
C2916 C 0.88218 0.74242 0.18351 0.0
C2917 C 0.87139 0.77198 0.12012 0.0
C2918 C 0.8809 0.67783 0.23015 0.0
C2919 C 0.88424 0.69253 0.2182 0.0
C2920 C 0.87682 0.70938 0.16713 0.0
C2921 C 0.88148 0.75643 0.14955 0.0
C2922 C 0.88072 0.74079 0.16283 0.0
C2923 C 0.87451 0.69551 0.2008 0.0
C2924 C 0.8777 0.71103 0.18783 0.0
H2925 H 0.90393 0.79453 0.14315 0.0
H2926 H 0.90225 0.76953 0.16551 0.0
H2927 H 0.87755 0.72212 0.13901 0.0
H2928 H 0.84765 0.66012 0.20329 0.0
H2929 H 0.85332 0.68547 0.1828 0.0
C2930 C 0.58191 0.62901 0.48132 0.0
C2931 C 0.59343 0.61515 0.47733 0.0
C2932 C 0.56678 0.6314 0.46978 0.0
C2933 C 0.5371 0.6071 0.43581 0.0
H2934 H 0.52304 0.65285 0.41721 0.0
C2935 C 0.48752 0.6154 0.37217 0.0
C2936 C 0.47538 0.62918 0.37297 0.0
C2937 C 0.501 0.61409 0.38609 0.0
C2938 C 0.52662 0.63999 0.42248 0.0
H2939 H 0.5981 0.59302 0.45808 0.0
H2940 H 0.57204 0.59714 0.43817 0.0
H2941 H 0.54807 0.65009 0.4395 0.0
H2942 H 0.46809 0.65244 0.38929 0.0
H2943 H 0.49147 0.64999 0.41376 0.0
H2944 H 0.51584 0.59694 0.41879 0.0
C2945 C 0.57443 0.6061 0.45026 0.0
C2946 C 0.541 0.63841 0.43529 0.0
C2947 C 0.58948 0.60379 0.46165 0.0
C2948 C 0.47706 0.64154 0.38827 0.0
C2949 C 0.49062 0.64026 0.4022 0.0
C2950 C 0.52277 0.60867 0.42307 0.0
C2951 C 0.56277 0.61986 0.45418 0.0
C2952 C 0.54662 0.6219 0.44186 0.0
C2953 C 0.50282 0.62651 0.40129 0.0
C2954 C 0.51746 0.6251 0.41593 0.0
H2955 H 0.58453 0.63791 0.4934 0.0
H2956 H 0.55806 0.64209 0.47331 0.0
H2957 H 0.54076 0.5942 0.44089 0.0
H2958 H 0.48658 0.60552 0.36076 0.0
H2959 H 0.51022 0.60343 0.3847 0.0
C2960 C 0.36877 0.2344 0.12406 0.0
C2961 C 0.38267 0.22244 0.12535 0.0
C2962 C 0.36724 0.24818 0.13757 0.0
C2963 C 0.39278 0.27454 0.17373 0.0
H2964 H 0.34672 0.28935 0.19056 0.0
C2965 C 0.3804 0.33106 0.23082 0.0
C2966 C 0.3669 0.34264 0.22564 0.0
C2967 C 0.38312 0.31565 0.21985 0.0
C2968 C 0.3597 0.28546 0.18594 0.0
H2969 H 0.40567 0.21551 0.14236 0.0
H2970 H 0.40296 0.23946 0.16597 0.0
H2971 H 0.3497 0.26392 0.1693 0.0
H2972 H 0.34587 0.34724 0.20479 0.0
H2973 H 0.35053 0.32072 0.18596 0.0
H2974 H 0.40269 0.29627 0.19043 0.0
C2975 C 0.39338 0.23836 0.15427 0.0
C2976 C 0.36141 0.27087 0.17366 0.0
C2977 C 0.39491 0.22458 0.14071 0.0
C2978 C 0.35632 0.33857 0.2093 0.0
C2979 C 0.35893 0.32326 0.19852 0.0
C2980 C 0.39106 0.28917 0.18611 0.0
C2981 C 0.37954 0.25041 0.15286 0.0
C2982 C 0.37794 0.26534 0.16706 0.0
C2983 C 0.37224 0.31148 0.20369 0.0
C2984 C 0.37445 0.29501 0.19207 0.0
H2985 H 0.35926 0.23342 0.11225 0.0
H2986 H 0.35659 0.25733 0.13572 0.0
H2987 H 0.40572 0.2708 0.16887 0.0
H2988 H 0.3887 0.33379 0.24341 0.0
H2989 H 0.39347 0.30684 0.22427 0.0
C2990 C 0.52147 0.61988 0.87042 0.0
C2991 C 0.53498 0.63203 0.87364 0.0
C2992 C 0.50726 0.61877 0.88341 0.0
C2993 C 0.49231 0.6302 0.93412 0.0
H2994 H 0.4464 0.62327 0.91125 0.0
C2995 C 0.42799 0.62922 0.98119 0.0
C2996 C 0.41581 0.61627 0.97597 0.0
C2997 C 0.44269 0.63239 0.96919 0.0
C2998 C 0.45913 0.62506 0.91795 0.0
H2999 H 0.54422 0.65219 0.89359 0.0
H3000 H 0.51934 0.65036 0.91611 0.0
H3001 H 0.47171 0.62593 0.88974 0.0
H3002 H 0.40959 0.59644 0.95423 0.0
H3003 H 0.43498 0.60178 0.93365 0.0
H3004 H 0.47961 0.62918 0.9624 0.0
C3005 C 0.51979 0.64164 0.90353 0.0
C3006 C 0.47369 0.62656 0.90557 0.0
C3007 C 0.53399 0.6428 0.89048 0.0
C3008 C 0.41866 0.60658 0.95865 0.0
C3009 C 0.4332 0.60974 0.94672 0.0
C3010 C 0.47769 0.62868 0.94656 0.0
C3011 C 0.50611 0.62974 0.90006 0.0
C3012 C 0.49054 0.62889 0.91345 0.0
C3013 C 0.44543 0.62272 0.95171 0.0
C3014 C 0.46092 0.62581 0.93864 0.0
H3015 H 0.52163 0.61148 0.85755 0.0
H3016 H 0.49714 0.60926 0.88037 0.0
H3017 H 0.50508 0.63189 0.94076 0.0
H3018 H 0.4262 0.63682 0.99453 0.0
H3019 H 0.45179 0.64254 0.97348 0.0
C3020 C 0.11524 0.78346 0.63966 0.0
C3021 C 0.12761 0.78578 0.62445 0.0
C3022 C 0.11682 0.76967 0.6532 0.0
C3023 C 0.14894 0.73745 0.673 0.0
H3024 H 0.10772 0.71183 0.68947 0.0
C3025 C 0.15425 0.67023 0.71019 0.0
C3026 C 0.14324 0.66619 0.72617 0.0
C3027 C 0.15175 0.68538 0.69906 0.0
C3028 C 0.11934 0.71898 0.68524 0.0
H3029 H 0.15126 0.7751 0.61165 0.0
H3030 H 0.154 0.75117 0.63512 0.0
H3031 H 0.10468 0.73712 0.66766 0.0
H3032 H 0.1208 0.67494 0.74293 0.0
H3033 H 0.11627 0.70161 0.72326 0.0
H3034 H 0.16363 0.71922 0.69029 0.0
C3035 C 0.14322 0.76019 0.63684 0.0
C3036 C 0.11761 0.73352 0.67271 0.0
C3037 C 0.14166 0.77398 0.62333 0.0
C3038 C 0.12946 0.67766 0.73065 0.0
C3039 C 0.12686 0.6929 0.71936 0.0
C3040 C 0.15066 0.72294 0.68544 0.0
C3041 C 0.1308 0.75778 0.65196 0.0
C3042 C 0.13243 0.74283 0.66618 0.0
C3043 C 0.13812 0.69703 0.70352 0.0
C3044 C 0.13593 0.71332 0.69151 0.0
H3045 H 0.10437 0.7924 0.6412 0.0
H3046 H 0.10714 0.76844 0.66479 0.0
H3047 H 0.16063 0.74448 0.66874 0.0
H3048 H 0.16493 0.66163 0.70622 0.0
H3049 H 0.16046 0.68788 0.68678 0.0
C3050 C 0.98961 0.39001 0.3678 0.0
C3051 C 0.97545 0.3786 0.37086 0.0
C3052 C 1.00356 0.39063 0.38115 0.0
C3053 C 0.01725 0.3794 0.43231 0.0
H3054 H 0.06363 0.38381 0.40984 0.0
C3055 C 0.08146 0.38013 0.47993 0.0
C3056 C 0.09369 0.39293 0.47438 0.0
C3057 C 0.06679 0.37673 0.46795 0.0
C3058 C 0.05077 0.38268 0.41641 0.0
H3059 H 0.96487 0.35912 0.3908 0.0
H3060 H 0.98924 0.36027 0.41418 0.0
H3061 H 0.03844 0.3815 0.38809 0.0
H3062 H 0.10007 0.41219 0.45202 0.0
H3063 H 0.07479 0.40638 0.43145 0.0
H3064 H 0.02975 0.38077 0.46072 0.0
C3065 C 0.98945 0.36882 0.40143 0.0
C3066 C 0.03628 0.3814 0.4039 0.0
C3067 C 0.97544 0.36818 0.38802 0.0
C3068 C 0.09096 0.40218 0.45671 0.0
C3069 C 0.07648 0.39876 0.4448 0.0
C3070 C 0.03182 0.38069 0.44489 0.0
C3071 C 1.00384 0.37987 0.39801 0.0
C3072 C 0.01927 0.38009 0.41162 0.0
C3073 C 0.06418 0.38598 0.45016 0.0
C3074 C 0.04875 0.38271 0.43708 0.0
H3075 H 0.98993 0.39852 0.35502 0.0
H3076 H 0.01417 0.39964 0.37824 0.0
H3077 H 1.00436 0.37846 0.4388 0.0
H3078 H 0.08317 0.37288 0.49353 0.0
H3079 H 0.05759 0.36676 0.4725 0.0
C3080 C 0.39541 0.78484 0.40638 0.0
C3081 C 0.38307 0.78709 0.42162 0.0
C3082 C 0.39387 0.77104 0.39286 0.0
C3083 C 0.36184 0.73868 0.37322 0.0
H3084 H 0.40307 0.71296 0.35701 0.0
C3085 C 0.35652 0.67096 0.33766 0.0
C3086 C 0.36723 0.66676 0.32148 0.0
C3087 C 0.35916 0.68627 0.34843 0.0
C3088 C 0.39146 0.72015 0.36117 0.0
H3089 H 0.3595 0.77629 0.43452 0.0
H3090 H 0.35682 0.75234 0.41108 0.0
H3091 H 0.40612 0.73846 0.37853 0.0
H3092 H 0.38935 0.67534 0.30406 0.0
H3093 H 0.39414 0.70232 0.32316 0.0
H3094 H 0.34716 0.72027 0.35619 0.0
C3095 C 0.36755 0.76143 0.40931 0.0
C3096 C 0.39319 0.7348 0.37353 0.0
C3097 C 0.36908 0.77522 0.42281 0.0
C3098 C 0.38091 0.6782 0.31649 0.0
C3099 C 0.38365 0.69361 0.32745 0.0
C3100 C 0.36013 0.72407 0.36096 0.0
C3101 C 0.37995 0.75908 0.39416 0.0
C3102 C 0.37836 0.74411 0.37999 0.0
C3103 C 0.37263 0.69792 0.34343 0.0
C3104 C 0.37486 0.7144 0.35503 0.0
H3105 H 0.40624 0.79384 0.40481 0.0
H3106 H 0.40353 0.76985 0.38125 0.0
H3107 H 0.35015 0.74572 0.37742 0.0
H3108 H 0.34594 0.6624 0.34203 0.0
H3109 H 0.35064 0.68892 0.36086 0.0
C3110 C 0.09124 0.60578 0.08783 0.0
C3111 C 0.09423 0.61579 0.07076 0.0
C3112 C 0.07667 0.60881 0.09976 0.0
C3113 C 0.03234 0.62816 0.10019 0.0
H3114 H 0.0381 0.62422 0.15695 0.0
C3115 C 0.97608 0.64197 0.15643 0.0
C3116 C 0.97488 0.63087 0.17298 0.0
C3117 C 0.99031 0.64087 0.1434 0.0
C3118 C 0.03617 0.62518 0.14114 0.0
H3119 H 0.08404 0.63674 0.05264 0.0
H3120 H 0.05841 0.64222 0.0737 0.0
H3121 H 0.06344 0.62167 0.13548 0.0
H3122 H 0.98787 0.6098 0.18857 0.0
H3123 H 0.01238 0.60767 0.16578 0.0
H3124 H 1.00497 0.63161 0.10597 0.0
C3125 C 0.06742 0.63194 0.07778 0.0
C3126 C 0.05076 0.62375 0.12878 0.0
C3127 C 0.08214 0.6289 0.06579 0.0
C3128 C 0.98819 0.61846 0.17593 0.0
C3129 C 1.00242 0.6174 0.16296 0.0
C3130 C 0.01769 0.62962 0.11261 0.0
C3131 C 0.06455 0.62196 0.09502 0.0
C3132 C 0.04905 0.62493 0.1081 0.0
C3133 C 1.00379 0.62869 0.14661 0.0
C3134 C 0.01938 0.62789 0.13325 0.0
H3135 H 0.10023 0.59551 0.09205 0.0
H3136 H 0.07479 0.60061 0.11262 0.0
H3137 H 0.03047 0.629 0.08436 0.0
H3138 H 0.96602 0.65158 0.15355 0.0
H3139 H 0.99092 0.64984 0.13105 0.0
C3140 C 0.12965 0.33155 0.81589 0.0
C3141 C 0.1427 0.34365 0.82104 0.0
C3142 C 0.1265 0.31682 0.82786 0.0
C3143 C 0.13426 0.30014 0.87898 0.0
H3144 H 0.12688 0.25435 0.85609 0.0
C3145 C 0.13978 0.23761 0.92614 0.0
C3146 C 0.12749 0.2242 0.9231 0.0
C3147 C 0.14079 0.25185 0.91319 0.0
C3148 C 0.12873 0.26707 0.86275 0.0
H3149 H 0.16274 0.34968 0.84264 0.0
H3150 H 0.15744 0.32426 0.86315 0.0
H3151 H 0.12948 0.27988 0.83451 0.0
H3152 H 0.10694 0.21518 0.90351 0.0
H3153 H 0.1086 0.24011 0.88104 0.0
H3154 H 0.13368 0.28746 0.90715 0.0
C3155 C 0.14938 0.32612 0.85017 0.0
C3156 C 0.13019 0.28174 0.85035 0.0
C3157 C 0.15251 0.34069 0.83827 0.0
C3158 C 0.11645 0.22532 0.90648 0.0
C3159 C 0.11751 0.23956 0.89345 0.0
C3160 C 0.13284 0.28554 0.89132 0.0
C3161 C 0.1363 0.31397 0.84524 0.0
C3162 C 0.13326 0.29845 0.85829 0.0
C3163 C 0.12956 0.25314 0.89675 0.0
C3164 C 0.13031 0.26875 0.88341 0.0
H3165 H 0.12196 0.33342 0.80262 0.0
H3166 H 0.11628 0.30779 0.82363 0.0
H3167 H 0.13621 0.31283 0.88571 0.0
H3168 H 0.14838 0.23734 0.93885 0.0
H3169 H 0.15042 0.26189 0.91609 0.0
C3170 C 0.52184 0.38785 0.67639 0.0
C3171 C 0.53573 0.37626 0.67277 0.0
C3172 C 0.50753 0.38873 0.66352 0.0
C3173 C 0.49271 0.37809 0.61264 0.0
H3174 H 0.44673 0.38252 0.63609 0.0
C3175 C 0.42814 0.3792 0.56599 0.0
C3176 C 0.41584 0.3918 0.57188 0.0
C3177 C 0.4429 0.37574 0.5778 0.0
C3178 C 0.45947 0.38141 0.62924 0.0
H3179 H 0.54556 0.35685 0.65226 0.0
H3180 H 0.52052 0.35828 0.62989 0.0
H3181 H 0.47227 0.38004 0.65731 0.0
H3182 H 0.40941 0.41064 0.59464 0.0
H3183 H 0.43487 0.40479 0.6149 0.0
H3184 H 0.4798 0.37967 0.58451 0.0
C3185 C 0.52074 0.36674 0.64271 0.0
C3186 C 0.47416 0.38002 0.64145 0.0
C3187 C 0.53504 0.36581 0.65565 0.0
C3188 C 0.41858 0.40079 0.5897 0.0
C3189 C 0.43316 0.39732 0.60144 0.0
C3190 C 0.47796 0.37951 0.60037 0.0
C3191 C 0.50668 0.37806 0.6466 0.0
C3192 C 0.49102 0.37863 0.63336 0.0
C3193 C 0.44555 0.38476 0.59574 0.0
C3194 C 0.46117 0.38151 0.60853 0.0
H3195 H 0.52178 0.39598 0.68948 0.0
H3196 H 0.49709 0.3978 0.66687 0.0
H3197 H 0.50549 0.37711 0.60587 0.0
H3198 H 0.42645 0.37218 0.55224 0.0
H3199 H 0.45214 0.36593 0.57298 0.0
C3200 C 0.11509 0.07041 0.26348 0.0
C3201 C 0.12681 0.07932 0.27587 0.0
C3202 C 0.11574 0.05219 0.26202 0.0
C3203 C 0.12774 0.01401 0.29101 0.0
H3204 H 0.12767 0.98887 0.24128 0.0
C3205 C 0.11495 0.93939 0.28286 0.0
C3206 C 0.12665 0.93044 0.27052 0.0
C3207 C 0.11563 0.95762 0.28428 0.0
C3208 C 0.12773 0.99575 0.25527 0.0
H3209 H 0.14886 0.07628 0.29575 0.0
H3210 H 0.14977 0.04454 0.29342 0.0
H3211 H 0.12764 0.02086 0.2412 0.0
H3212 H 0.14871 0.93341 0.25065 0.0
H3213 H 0.14967 0.96516 0.25289 0.0
H3214 H 0.1276 0.98891 0.30508 0.0
C3215 C 0.14007 0.05161 0.28493 0.0
C3216 C 0.1276 0.014 0.2552 0.0
C3217 C 0.13959 0.06978 0.28615 0.0
C3218 C 0.13945 0.93995 0.26021 0.0
C3219 C 0.13995 0.95812 0.26138 0.0
C3220 C 0.12757 0.99577 0.29107 0.0
C3221 C 0.12796 0.04262 0.27314 0.0
C3222 C 0.12775 0.02329 0.27308 0.0
C3223 C 0.12787 0.96715 0.27315 0.0
C3224 C 0.12771 0.98648 0.2732 0.0
H3225 H 0.10513 0.07748 0.25539 0.0
H3226 H 0.10627 0.04553 0.25281 0.0
H3227 H 0.12771 0.0209 0.305 0.0
H3228 H 0.10497 0.93236 0.29097 0.0
H3229 H 0.10617 0.96431 0.29346 0.0
C3230 C 0.18959 0.85746 0.5189 0.0
C3231 C 0.1803 0.87236 0.52491 0.0
C3232 C 0.20783 0.85782 0.51781 0.0
C3233 C 0.24572 0.88434 0.51011 0.0
H3234 H 0.27 0.85435 0.54725 0.0
C3235 C 0.32046 0.88795 0.51797 0.0
C3236 C 0.32954 0.87234 0.52143 0.0
C3237 C 0.30227 0.88851 0.51949 0.0
C3238 C 0.26352 0.86261 0.53653 0.0
H3239 H 0.18269 0.89945 0.53377 0.0
H3240 H 0.21457 0.90028 0.5309 0.0
H3241 H 0.23816 0.85383 0.54572 0.0
H3242 H 0.32683 0.84511 0.52951 0.0
H3243 H 0.29511 0.84576 0.53126 0.0
H3244 H 0.27083 0.89263 0.50015 0.0
C3245 C 0.2077 0.88832 0.52733 0.0
C3246 C 0.24527 0.86234 0.53577 0.0
C3247 C 0.1895 0.88785 0.52888 0.0
C3248 C 0.32016 0.85738 0.52693 0.0
C3249 C 0.30192 0.85781 0.52802 0.0
C3250 C 0.26397 0.88434 0.51052 0.0
C3251 C 0.217 0.8732 0.52225 0.0
C3252 C 0.23627 0.87323 0.5226 0.0
C3253 C 0.29268 0.87333 0.52402 0.0
C3254 C 0.27317 0.87352 0.52381 0.0
H3255 H 0.18285 0.84531 0.51586 0.0
H3256 H 0.21481 0.84604 0.5138 0.0
H3257 H 0.23896 0.89281 0.49979 0.0
H3258 H 0.32736 0.89967 0.51362 0.0
H3259 H 0.29575 0.90082 0.51682 0.0
C3260 C 0.39698 0.93942 0.76393 0.0
C3261 C 0.38509 0.93026 0.77585 0.0
C3262 C 0.39612 0.95765 0.7626 0.0
C3263 C 0.38305 0.99544 0.79156 0.0
H3264 H 0.38386 0.02099 0.74209 0.0
C3265 C 0.39585 0.07016 0.78417 0.0
C3266 C 0.38433 0.07917 0.77164 0.0
C3267 C 0.39511 0.05193 0.78552 0.0
C3268 C 0.3836 0.01399 0.75601 0.0
H3269 H 0.36251 0.93287 0.79503 0.0
H3270 H 0.36125 0.96462 0.79297 0.0
H3271 H 0.38418 0.989 0.7417 0.0
H3272 H 0.36251 0.0763 0.7514 0.0
H3273 H 0.36146 0.04454 0.75353 0.0
H3274 H 0.38274 0.02044 0.80587 0.0
C3275 C 0.37125 0.95774 0.78473 0.0
C3276 C 0.38389 0.99574 0.75577 0.0
C3277 C 0.37193 0.93956 0.7858 0.0
C3278 C 0.37163 0.06972 0.76112 0.0
C3279 C 0.37107 0.05154 0.76223 0.0
C3280 C 0.38307 0.01369 0.7918 0.0
C3281 C 0.38351 0.96697 0.77341 0.0
C3282 C 0.38349 0.98631 0.77354 0.0
C3283 C 0.383 0.04245 0.77415 0.0
C3284 C 0.38321 0.02312 0.77403 0.0
H3285 H 0.40723 0.93255 0.75611 0.0
H3286 H 0.40572 0.9645 0.75376 0.0
H3287 H 0.38288 0.98844 0.80547 0.0
H3288 H 0.40575 0.07715 0.79244 0.0
H3289 H 0.40444 0.04519 0.79484 0.0
C3290 C 0.18964 0.12066 1.01703 0.0
C3291 C 0.18047 0.13606 1.02148 0.0
C3292 C 0.20784 0.12012 1.01859 0.0
C3293 C 0.2454 0.14561 1.01034 0.0
H3294 H 0.27099 0.11635 0.04703 0.0
C3295 C 0.32023 0.15116 1.01934 0.0
C3296 C 0.32968 0.13639 0.02533 0.0
C3297 C 0.302 0.15061 1.01818 0.0
C3298 C 0.26413 0.12434 0.03637 0.0
H3299 H 0.18307 0.16286 0.03142 0.0
H3300 H 0.21503 0.16203 0.03351 0.0
H3301 H 0.23911 0.11609 0.04732 0.0
H3302 H 0.3276 0.10924 0.03397 0.0
H3303 H 0.296 0.10785 0.03069 0.0
H3304 H 0.27012 0.15338 0.99867 0.0
C3305 C 0.20803 0.15036 0.02912 0.0
C3306 C 0.24587 0.12429 0.03674 0.0
C3307 C 0.18979 0.15079 0.028 0.0
C3308 C 0.32065 0.12082 0.02923 0.0
C3309 C 0.30247 0.12013 0.02766 0.0
C3310 C 0.26365 0.14538 1.00964 0.0
C3311 C 0.21716 0.13509 0.0242 0.0
C3312 C 0.23641 0.13505 0.02386 0.0
C3313 C 0.29282 0.13514 1.02262 0.0
C3314 C 0.27331 0.13485 1.02275 0.0
H3315 H 0.18282 0.1092 1.01174 0.0
H3316 H 0.2147 0.10825 1.01465 0.0
H3317 H 0.23827 0.15384 1.00011 0.0
H3318 H 0.32684 0.1634 1.0164 0.0
H3319 H 0.29513 0.16253 1.01454 0.0
C3320 C 0.90155 0.06992 0.769 0.0
C3321 C 0.8867 0.07923 0.77516 0.0
C3322 C 0.90114 0.0517 0.7679 0.0
C3323 C 0.87503 0.01387 0.75985 0.0
H3324 H 0.90365 0.98964 0.79841 0.0
C3325 C 0.87119 0.93915 0.76756 0.0
C3326 C 0.88669 0.93009 0.77174 0.0
C3327 C 0.87056 0.95733 0.76907 0.0
C3328 C 0.89579 0.9961 0.7873 0.0
H3329 H 0.85965 0.07688 0.78426 0.0
H3330 H 0.85873 0.04503 0.78136 0.0
H3331 H 0.90425 0.02146 0.79684 0.0
H3332 H 0.91361 0.93285 0.78111 0.0
H3333 H 0.91284 0.96455 0.78286 0.0
H3334 H 0.8671 0.98875 0.74955 0.0
C3335 C 0.87069 0.05188 0.77769 0.0
C3336 C 0.89609 0.01433 0.78652 0.0
C3337 C 0.87121 0.07007 0.77925 0.0
C3338 C 0.90143 0.93949 0.77796 0.0
C3339 C 0.90093 0.95772 0.77904 0.0
C3340 C 0.87501 0.99562 0.76029 0.0
C3341 C 0.88576 0.04257 0.77246 0.0
C3342 C 0.88569 0.02332 0.77284 0.0
C3343 C 0.88555 0.96694 0.77431 0.0
C3344 C 0.88535 0.98644 0.77409 0.0
H3345 H 0.91369 0.07664 0.76587 0.0
H3346 H 0.91289 0.04469 0.7638 0.0
H3347 H 0.86695 0.02061 0.74914 0.0
H3348 H 0.85966 0.93223 0.76264 0.0
H3349 H 0.85833 0.96382 0.76581 0.0
C3350 C 0.69046 0.14649 0.51283 0.0
C3351 C 0.68135 0.13481 0.52507 0.0
C3352 C 0.70869 0.14563 0.51146 0.0
C3353 C 0.7466 0.13308 0.5406 0.0
H3354 H 0.77202 0.13312 0.49105 0.0
C3355 C 0.82071 0.12075 0.5102 0.0
C3356 C 0.83032 0.13343 0.52057 0.0
C3357 C 0.80252 0.12043 0.5113 0.0
C3358 C 0.76506 0.13308 0.50498 0.0
H3359 H 0.68406 0.11259 0.54475 0.0
H3360 H 0.71581 0.11131 0.54258 0.0
H3361 H 0.74001 0.13347 0.49074 0.0
H3362 H 0.82857 0.15509 0.54106 0.0
H3363 H 0.79657 0.1542 0.54343 0.0
H3364 H 0.77165 0.13294 0.55484 0.0
C3365 C 0.70889 0.12115 0.53414 0.0
C3366 C 0.7468 0.13338 0.50479 0.0
C3367 C 0.69071 0.12183 0.53527 0.0
C3368 C 0.82145 0.1452 0.53291 0.0
C3369 C 0.8032 0.1447 0.53425 0.0
C3370 C 0.76486 0.13309 0.54079 0.0
C3371 C 0.71807 0.13323 0.52252 0.0
C3372 C 0.73741 0.13324 0.5226 0.0
C3373 C 0.79358 0.13258 0.52305 0.0
C3374 C 0.77424 0.13294 0.52298 0.0
H3375 H 0.68355 0.1566 0.50481 0.0
H3376 H 0.71551 0.15508 0.50238 0.0
H3377 H 0.73963 0.13313 0.55453 0.0
H3378 H 0.82718 0.11147 0.50062 0.0
H3379 H 0.79541 0.1108 0.50275 0.0
C3380 C 0.6082 0.07028 0.27732 0.0
C3381 C 0.62316 0.07963 0.27158 0.0
C3382 C 0.60859 0.05205 0.27829 0.0
C3383 C 0.63488 0.0142 0.28626 0.0
H3384 H 0.60585 0.99021 0.2479 0.0
C3385 C 0.6384 0.93956 0.27823 0.0
C3386 C 0.62279 0.93058 0.27439 0.0
C3387 C 0.63912 0.95773 0.27665 0.0
C3388 C 0.61383 0.99661 0.25894 0.0
H3389 H 0.65038 0.07736 0.26312 0.0
H3390 H 0.65124 0.04549 0.2658 0.0
H3391 H 0.60532 0.02202 0.24968 0.0
H3392 H 0.59575 0.93345 0.26549 0.0
H3393 H 0.59667 0.96513 0.26362 0.0
H3394 H 0.64287 0.98902 0.2963 0.0
C3395 C 0.63922 0.05231 0.26923 0.0
C3396 C 0.61357 0.01483 0.25985 0.0
C3397 C 0.63873 0.0705 0.2678 0.0
C3398 C 0.60802 0.94004 0.26839 0.0
C3399 C 0.6086 0.95825 0.26723 0.0
C3400 C 0.63487 0.99595 0.28569 0.0
C3401 C 0.62405 0.04296 0.27402 0.0
C3402 C 0.62411 0.02372 0.27348 0.0
C3403 C 0.6241 0.96739 0.27167 0.0
C3404 C 0.62438 0.98688 0.27197 0.0
H3405 H 0.596 0.07697 0.28021 0.0
H3406 H 0.59677 0.04502 0.28207 0.0
H3407 H 0.64307 0.02087 0.29692 0.0
H3408 H 0.64996 0.93261 0.28298 0.0
H3409 H 0.65142 0.96418 0.27967 0.0
C3410 C 0.69004 0.88661 1.01877 0.0
C3411 C 0.68104 0.87089 1.02186 0.0
C3412 C 0.70823 0.88723 1.0202 0.0
C3413 C 0.74722 0.8612 0.03632 0.0
H3414 H 0.7714 0.89247 1.00043 0.0
C3415 C 0.82133 0.85763 1.0186 0.0
C3416 C 0.83033 0.87255 0.02516 0.0
C3417 C 0.80309 0.85766 1.01747 0.0
C3418 C 0.76476 0.88369 1.0105 0.0
H3419 H 0.68393 0.84352 0.02922 0.0
H3420 H 0.71565 0.8443 0.03081 0.0
H3421 H 0.73955 0.89196 1.00083 0.0
H3422 H 0.82735 0.89929 0.03508 0.0
H3423 H 0.7955 0.89958 0.0321 0.0
H3424 H 0.77268 0.85248 0.04521 0.0
C3425 C 0.70877 0.85637 0.02792 0.0
C3426 C 0.7465 0.8835 1.01094 0.0
C3427 C 0.69052 0.85587 0.02693 0.0
C3428 C 0.82081 0.88771 0.0297 0.0
C3429 C 0.80261 0.88786 0.02811 0.0
C3430 C 0.76547 0.86112 0.03551 0.0
C3431 C 0.71792 0.87201 0.02427 0.0
C3432 C 0.73744 0.87232 0.02395 0.0
C3433 C 0.79361 0.87272 1.02242 0.0
C3434 C 0.77434 0.87242 1.02266 0.0
H3435 H 0.68305 0.89838 1.01476 0.0
H3436 H 0.71467 0.89963 1.01781 0.0
H3437 H 0.74084 0.85265 0.04681 0.0
H3438 H 0.82832 0.84573 1.01513 0.0
H3439 H 0.79634 0.84586 1.01301 0.0
C3440 C 0.60671 0.56998 0.7689 0.0
C3441 C 0.62166 0.57938 0.77445 0.0
C3442 C 0.60714 0.55175 0.76787 0.0
C3443 C 0.63362 0.51384 0.78559 0.0
H3444 H 0.60318 0.48798 0.75034 0.0
C3445 C 0.63745 0.43937 0.76796 0.0
C3446 C 0.62188 0.43014 0.7714 0.0
C3447 C 0.63782 0.45756 0.76943 0.0
C3448 C 0.61167 0.4951 0.76031 0.0
H3449 H 0.64897 0.57722 0.78241 0.0
H3450 H 0.65013 0.54561 0.77933 0.0
H3451 H 0.60372 0.51979 0.74874 0.0
H3452 H 0.59456 0.43263 0.77939 0.0
H3453 H 0.59512 0.46458 0.78132 0.0
H3454 H 0.64206 0.48887 0.79641 0.0
C3455 C 0.63782 0.55212 0.77656 0.0
C3456 C 0.61194 0.51334 0.75951 0.0
C3457 C 0.63727 0.57031 0.77802 0.0
C3458 C 0.60677 0.4394 0.77677 0.0
C3459 C 0.60704 0.45763 0.77778 0.0
C3460 C 0.63362 0.49559 0.78605 0.0
C3461 C 0.62265 0.54252 0.77198 0.0
C3462 C 0.62283 0.52301 0.77224 0.0
C3463 C 0.62253 0.46684 0.7739 0.0
C3464 C 0.62254 0.48611 0.77353 0.0
H3465 H 0.59445 0.57664 0.76622 0.0
H3466 H 0.5951 0.54494 0.76458 0.0
H3467 H 0.64189 0.52071 0.79598 0.0
H3468 H 0.64923 0.43258 0.76357 0.0
H3469 H 0.64988 0.46445 0.7663 0.0
C3470 C 0.82051 0.38782 1.01757 0.0
C3471 C 0.8296 0.37226 1.02153 0.0
C3472 C 0.8023 0.38839 1.01901 0.0
C3473 C 0.76455 0.36264 1.01037 0.0
H3474 H 0.73909 0.39286 0.04614 0.0
C3475 C 0.6897 0.35757 1.0194 0.0
C3476 C 0.68028 0.37247 0.02505 0.0
C3477 C 0.70793 0.35806 1.01824 0.0
C3478 C 0.74592 0.3846 0.03572 0.0
H3479 H 0.82683 0.3452 0.03044 0.0
H3480 H 0.79486 0.3461 0.03231 0.0
H3481 H 0.77097 0.39298 0.04645 0.0
H3482 H 0.68241 0.39975 0.03305 0.0
H3483 H 0.71403 0.40102 0.02975 0.0
H3484 H 0.73979 0.35474 0.9989 0.0
C3485 C 0.80194 0.35786 0.02839 0.0
C3486 C 0.76418 0.38457 0.03611 0.0
C3487 C 0.82018 0.35739 0.02741 0.0
C3488 C 0.68934 0.38808 0.02859 0.0
C3489 C 0.70753 0.3887 0.02701 0.0
C3490 C 0.7463 0.36295 1.00964 0.0
C3491 C 0.79288 0.37331 0.02398 0.0
C3492 C 0.7736 0.37346 0.02358 0.0
C3493 C 0.71716 0.37359 1.02231 0.0
C3494 C 0.73668 0.37382 1.02243 0.0
H3495 H 0.82742 0.3994 1.01279 0.0
H3496 H 0.79553 0.40041 1.01547 0.0
H3497 H 0.77162 0.35414 1.0004 0.0
H3498 H 0.68306 0.3453 1.01675 0.0
H3499 H 0.71476 0.34605 1.01488 0.0
C3500 C 0.87078 0.56987 0.26188 0.0
C3501 C 0.88438 0.57916 0.27103 0.0
C3502 C 0.86993 0.55172 0.26331 0.0
C3503 C 0.86647 0.5137 0.27436 0.0
H3504 H 0.91028 0.48835 0.27293 0.0
C3505 C 0.87001 0.43916 0.28555 0.0
C3506 C 0.88314 0.4297 0.27579 0.0
C3507 C 0.86944 0.45733 0.2843 0.0
C3508 C 0.8979 0.4952 0.27305 0.0
H3509 H 0.90719 0.57691 0.28978 0.0
H3510 H 0.90539 0.54514 0.29294 0.0
H3511 H 0.91056 0.52008 0.2732 0.0
H3512 H 0.90536 0.43168 0.25614 0.0
H3513 H 0.90403 0.46348 0.25328 0.0
H3514 H 0.8538 0.48885 0.27337 0.0
C3515 C 0.89568 0.55183 0.28411 0.0
C3516 C 0.89807 0.51344 0.2736 0.0
C3517 C 0.89662 0.57004 0.2825 0.0
C3518 C 0.89516 0.43869 0.2639 0.0
C3519 C 0.89449 0.45691 0.26246 0.0
C3520 C 0.8663 0.49547 0.2736 0.0
C3521 C 0.88254 0.5424 0.27415 0.0
C3522 C 0.88236 0.52295 0.27429 0.0
C3523 C 0.88186 0.4665 0.27302 0.0
C3524 C 0.88201 0.48596 0.27299 0.0
H3525 H 0.86114 0.57654 0.25292 0.0
H3526 H 0.85975 0.54497 0.25523 0.0
H3527 H 0.8541 0.52053 0.2751 0.0
H3528 H 0.86056 0.43259 0.29486 0.0
H3529 H 0.85965 0.4642 0.29283 0.0
C3530 C 0.68965 0.65332 0.52589 0.0
C3531 C 0.68025 0.63815 0.52104 0.0
C3532 C 0.70789 0.65294 0.52687 0.0
C3533 C 0.74569 0.62617 0.53575 0.0
H3534 H 0.77006 0.65557 0.49809 0.0
C3535 C 0.82045 0.62228 0.52803 0.0
C3536 C 0.82956 0.63785 0.5244 0.0
C3537 C 0.80225 0.62173 0.52646 0.0
C3538 C 0.76356 0.64748 0.50895 0.0
H3539 H 0.68245 0.6106 0.51418 0.0
H3540 H 0.71434 0.60979 0.51684 0.0
H3541 H 0.73824 0.65624 0.49962 0.0
H3542 H 0.82689 0.66499 0.51591 0.0
H3543 H 0.79517 0.66434 0.51403 0.0
H3544 H 0.77079 0.61791 0.54583 0.0
C3545 C 0.70756 0.62197 0.51958 0.0
C3546 C 0.74531 0.64783 0.50972 0.0
C3547 C 0.68935 0.62243 0.51814 0.0
C3548 C 0.8202 0.65276 0.51864 0.0
C3549 C 0.80197 0.65232 0.51748 0.0
C3550 C 0.76395 0.62609 0.53532 0.0
C3551 C 0.71697 0.6373 0.52349 0.0
C3552 C 0.73626 0.63715 0.52309 0.0
C3553 C 0.79269 0.63686 0.52168 0.0
C3554 C 0.77318 0.63671 0.52185 0.0
H3555 H 0.68297 0.66564 0.52809 0.0
H3556 H 0.71494 0.6649 0.52999 0.0
H3557 H 0.73893 0.61788 0.54623 0.0
H3558 H 0.82733 0.61061 0.53257 0.0
H3559 H 0.79571 0.60945 0.52929 0.0
C3560 C 0.39591 0.57026 0.2638 0.0
C3561 C 0.38421 0.57913 0.27622 0.0
C3562 C 0.39529 0.55203 0.26232 0.0
C3563 C 0.38344 0.51377 0.2912 0.0
H3564 H 0.38331 0.48879 0.24137 0.0
C3565 C 0.39629 0.43917 0.28254 0.0
C3566 C 0.38448 0.43028 0.27026 0.0
C3567 C 0.39562 0.4574 0.28408 0.0
C3568 C 0.38332 0.49563 0.25538 0.0
H3569 H 0.36221 0.57602 0.29615 0.0
H3570 H 0.36135 0.54427 0.29377 0.0
H3571 H 0.38331 0.52078 0.24142 0.0
H3572 H 0.36225 0.43333 0.25065 0.0
H3573 H 0.3613 0.46506 0.25309 0.0
H3574 H 0.38369 0.48861 0.30516 0.0
C3575 C 0.37102 0.55137 0.28528 0.0
C3576 C 0.38342 0.51387 0.2554 0.0
C3577 C 0.37146 0.56954 0.28652 0.0
C3578 C 0.37159 0.43982 0.26015 0.0
C3579 C 0.37109 0.45799 0.26144 0.0
C3580 C 0.38364 0.49552 0.29119 0.0
C3581 C 0.38311 0.54243 0.27344 0.0
C3582 C 0.38334 0.5231 0.27331 0.0
C3583 C 0.38328 0.46697 0.27314 0.0
C3584 C 0.38343 0.48629 0.27328 0.0
H3585 H 0.40585 0.57735 0.2557 0.0
H3586 H 0.40475 0.54541 0.25307 0.0
H3587 H 0.38354 0.52061 0.30521 0.0
H3588 H 0.40634 0.43211 0.2905 0.0
H3589 H 0.40515 0.46405 0.2932 0.0
C3590 C 0.32042 0.62136 1.01773 0.0
C3591 C 0.3296 0.63683 1.0217 0.0
C3592 C 0.30223 0.62086 1.01922 0.0
C3593 C 0.26359 0.6465 0.03704 0.0
H3594 H 0.23896 0.61736 0.99929 0.0
C3595 C 0.18963 0.65216 1.01948 0.0
C3596 C 0.18035 0.63712 0.02511 0.0
C3597 C 0.20787 0.65183 1.01838 0.0
C3598 C 0.24573 0.62553 1.00988 0.0
H3599 H 0.32703 0.66385 0.03069 0.0
H3600 H 0.2953 0.66331 0.03242 0.0
H3601 H 0.27082 0.61741 0.99969 0.0
H3602 H 0.18277 0.60986 0.03328 0.0
H3603 H 0.21464 0.60912 0.03038 0.0
H3604 H 0.23826 0.65512 0.04648 0.0
C3605 C 0.30205 0.65132 0.02877 0.0
C3606 C 0.26399 0.62546 1.01032 0.0
C3607 C 0.32029 0.65169 0.0277 0.0
C3608 C 0.18956 0.62157 0.02869 0.0
C3609 C 0.20776 0.62115 0.02712 0.0
C3610 C 0.24535 0.64685 0.03626 0.0
C3611 C 0.29272 0.63596 0.02424 0.0
C3612 C 0.27321 0.63588 0.02398 0.0
C3613 C 0.21705 0.63638 1.02241 0.0
C3614 C 0.23631 0.63633 1.02273 0.0
H3615 H 0.32726 0.60973 1.01297 0.0
H3616 H 0.29565 0.60865 1.01614 0.0
H3617 H 0.2701 0.65444 0.04804 0.0
H3618 H 0.18288 0.66435 1.01676 0.0
H3619 H 0.21485 0.6637 1.01467 0.0
C3620 C 0.10803 0.43938 0.76891 0.0
C3621 C 0.12288 0.43001 0.77496 0.0
C3622 C 0.10847 0.45761 0.76787 0.0
C3623 C 0.13479 0.49539 0.75993 0.0
H3624 H 0.10584 0.51965 0.7981 0.0
C3625 C 0.13852 0.57014 0.76755 0.0
C3626 C 0.12299 0.57919 0.77156 0.0
C3627 C 0.13916 0.55196 0.76907 0.0
C3628 C 0.11379 0.51318 0.7871 0.0
H3629 H 0.14997 0.43228 0.78398 0.0
H3630 H 0.15094 0.46414 0.78118 0.0
H3631 H 0.10522 0.48784 0.79656 0.0
H3632 H 0.096 0.57641 0.78066 0.0
H3633 H 0.09678 0.54472 0.78243 0.0
H3634 H 0.14283 0.52049 0.7497 0.0
C3635 C 0.13895 0.45733 0.77754 0.0
C3636 C 0.11348 0.49495 0.78634 0.0
C3637 C 0.1384 0.43914 0.77904 0.0
C3638 C 0.10821 0.56977 0.77763 0.0
C3639 C 0.10872 0.55155 0.77873 0.0
C3640 C 0.13482 0.51364 0.76036 0.0
C3641 C 0.12388 0.46669 0.77239 0.0
C3642 C 0.124 0.48595 0.77279 0.0
C3643 C 0.12414 0.54234 0.77418 0.0
C3644 C 0.12436 0.52283 0.774 0.0
H3645 H 0.09586 0.43269 0.76579 0.0
H3646 H 0.09672 0.46464 0.76382 0.0
H3647 H 0.14296 0.48864 0.74933 0.0
H3648 H 0.15009 0.57707 0.76275 0.0
H3649 H 0.15142 0.54547 0.76595 0.0
C3650 C 0.1899 0.38859 0.51043 0.0
C3651 C 0.1803 0.37567 0.52043 0.0
C3652 C 0.20809 0.3889 0.51158 0.0
C3653 C 0.24569 0.37587 0.54083 0.0
H3654 H 0.27063 0.3763 0.49086 0.0
C3655 C 0.32033 0.36369 0.51313 0.0
C3656 C 0.3292 0.37549 0.52545 0.0
C3657 C 0.30209 0.36426 0.51166 0.0
C3658 C 0.26381 0.37615 0.50489 0.0
H3659 H 0.18205 0.3536 0.54035 0.0
H3660 H 0.21404 0.35448 0.54283 0.0
H3661 H 0.23861 0.37641 0.49107 0.0
H3662 H 0.32607 0.39762 0.54517 0.0
H3663 H 0.29432 0.39838 0.54285 0.0
H3664 H 0.27089 0.37589 0.55465 0.0
C3665 C 0.20741 0.36416 0.53388 0.0
C3666 C 0.24556 0.37631 0.50503 0.0
C3667 C 0.18916 0.36367 0.53249 0.0
C3668 C 0.31961 0.38828 0.53564 0.0
C3669 C 0.30143 0.38867 0.53442 0.0
C3670 C 0.26395 0.37602 0.5407 0.0
C3671 C 0.21702 0.37651 0.52302 0.0
C3672 C 0.23635 0.37619 0.523 0.0
C3673 C 0.29248 0.37648 0.52272 0.0
C3674 C 0.27316 0.37617 0.52273 0.0
H3675 H 0.18344 0.39808 0.5011 0.0
H3676 H 0.2152 0.39871 0.50331 0.0
H3677 H 0.23887 0.37581 0.55486 0.0
H3678 H 0.32743 0.35372 0.50512 0.0
H3679 H 0.29545 0.35473 0.50252 0.0
C3680 C 0.11762 0.14816 0.07204 0.0
C3681 C 0.11953 0.13157 0.06333 0.0
C3682 C 0.11723 0.15004 0.09277 0.0
C3683 C 0.13203 0.1265 0.13791 0.0
H3684 H 0.10421 0.16038 0.16653 0.0
C3685 C 0.14435 0.13861 0.22066 0.0
C3686 C 0.1298 0.14005 0.23329 0.0
C3687 C 0.1424 0.13925 0.20009 0.0
C3688 C 0.11202 0.15078 0.15879 0.0
H3689 H 0.12142 0.10387 0.06981 0.0
H3690 H 0.12039 0.1071 0.10545 0.0
H3691 H 0.10119 0.15786 0.13055 0.0
H3692 H 0.10177 0.14401 0.23388 0.0
H3693 H 0.09834 0.14506 0.19786 0.0
H3694 H 0.1427 0.11917 0.1659 0.0
C3695 C 0.11967 0.11876 0.09644 0.0
C3696 C 0.1104 0.14944 0.13809 0.0
C3697 C 0.12011 0.1169 0.07587 0.0
C3698 C 0.11329 0.14294 0.22468 0.0
C3699 C 0.11133 0.14354 0.20397 0.0
C3700 C 0.1337 0.12787 0.15846 0.0
C3701 C 0.11874 0.13537 0.10528 0.0
C3702 C 0.12034 0.13719 0.12735 0.0
C3703 C 0.12582 0.14126 0.19136 0.0
C3704 C 0.12377 0.14004 0.16929 0.0
H3705 H 0.11725 0.15977 0.0629 0.0
H3706 H 0.11653 0.16305 0.09897 0.0
H3707 H 0.14014 0.11709 0.13027 0.0
H3708 H 0.15732 0.13653 0.22662 0.0
H3709 H 0.15396 0.13789 0.191 0.0
C3710 C 0.11742 0.86043 0.47438 0.0
C3711 C 0.11899 0.87706 0.4831 0.0
C3712 C 0.11699 0.85856 0.45365 0.0
C3713 C 0.13125 0.88247 0.40857 0.0
H3714 H 0.10412 0.84811 0.37979 0.0
C3715 C 0.14402 0.87069 0.32591 0.0
C3716 C 0.12953 0.86913 0.31318 0.0
C3717 C 0.14201 0.86994 0.34646 0.0
C3718 C 0.11173 0.85784 0.38758 0.0
H3719 H 0.12016 0.9048 0.47664 0.0
H3720 H 0.11906 0.90158 0.441 0.0
H3721 H 0.10101 0.85049 0.41579 0.0
H3722 H 0.10156 0.8648 0.31242 0.0
H3723 H 0.09802 0.86353 0.34842 0.0
H3724 H 0.14182 0.89005 0.38063 0.0
C3725 C 0.11865 0.88989 0.45 0.0
C3726 C 0.11006 0.8591 0.40828 0.0
C3727 C 0.11914 0.89175 0.47057 0.0
C3728 C 0.11303 0.86598 0.32169 0.0
C3729 C 0.11101 0.86525 0.34238 0.0
C3730 C 0.13297 0.88116 0.38803 0.0
C3731 C 0.11811 0.87328 0.44115 0.0
C3732 C 0.11975 0.87152 0.41908 0.0
C3733 C 0.12543 0.86768 0.35509 0.0
C3734 C 0.12329 0.86882 0.37715 0.0
H3735 H 0.11739 0.84882 0.48351 0.0
H3736 H 0.11659 0.84554 0.44743 0.0
H3737 H 0.13916 0.89202 0.41626 0.0
H3738 H 0.15698 0.87297 0.32003 0.0
H3739 H 0.15351 0.87142 0.35562 0.0
C3740 C 0.36951 0.86778 0.72037 0.0
C3741 C 0.38396 0.86877 0.73323 0.0
C3742 C 0.37183 0.86653 0.69986 0.0
C3743 C 0.40295 0.87817 0.6605 0.0
H3744 H 0.37333 0.8492 0.62751 0.0
C3745 C 0.39233 0.89075 0.57673 0.0
C3746 C 0.39122 0.87638 0.5638 0.0
C3747 C 0.39365 0.88834 0.59722 0.0
C3748 C 0.38185 0.85726 0.63648 0.0
H3749 H 0.41225 0.8689 0.73437 0.0
H3750 H 0.4163 0.86688 0.6985 0.0
H3751 H 0.37125 0.84708 0.6635 0.0
H3752 H 0.39096 0.84812 0.56249 0.0
H3753 H 0.3931 0.84389 0.59836 0.0
H3754 H 0.41324 0.88866 0.63348 0.0
C3755 C 0.40314 0.86703 0.70438 0.0
C3756 C 0.38054 0.85614 0.65715 0.0
C3757 C 0.40082 0.86803 0.72498 0.0
C3758 C 0.39195 0.85948 0.57195 0.0
C3759 C 0.393 0.85707 0.59254 0.0
C3760 C 0.40409 0.87945 0.63983 0.0
C3761 C 0.38867 0.86648 0.69151 0.0
C3762 C 0.39096 0.86671 0.66948 0.0
C3763 C 0.39365 0.87148 0.60548 0.0
C3764 C 0.39343 0.86914 0.62751 0.0
H3765 H 0.35631 0.86838 0.72611 0.0
H3766 H 0.36037 0.86629 0.69047 0.0
H3767 H 0.41109 0.88661 0.66947 0.0
H3768 H 0.39175 0.90397 0.57106 0.0
H3769 H 0.39397 0.89976 0.60665 0.0
C3770 C 0.36907 0.14119 0.8266 0.0
C3771 C 0.38355 0.14041 0.81379 0.0
C3772 C 0.37134 0.14241 0.84713 0.0
C3773 C 0.4026 0.13111 0.88652 0.0
H3774 H 0.37271 0.15974 0.91954 0.0
C3775 C 0.39241 0.11857 0.97035 0.0
C3776 C 0.39122 0.13296 0.98324 0.0
C3777 C 0.39361 0.12094 0.94985 0.0
C3778 C 0.3813 0.15178 0.91056 0.0
H3779 H 0.41185 0.14063 0.81275 0.0
H3780 H 0.41581 0.1426 0.84861 0.0
H3781 H 0.37051 0.1618 0.88354 0.0
H3782 H 0.39066 0.16123 0.98445 0.0
H3783 H 0.39259 0.16538 0.94856 0.0
H3784 H 0.41309 0.12079 0.91353 0.0
C3785 C 0.40267 0.14229 0.8427 0.0
C3786 C 0.37993 0.15285 0.88988 0.0
C3787 C 0.40039 0.14132 0.8221 0.0
C3788 C 0.39173 0.14985 0.97503 0.0
C3789 C 0.39265 0.15222 0.95443 0.0
C3790 C 0.4038 0.12987 0.90718 0.0
C3791 C 0.38817 0.14264 0.85553 0.0
C3792 C 0.39045 0.14242 0.87755 0.0
C3793 C 0.39339 0.13778 0.94154 0.0
C3794 C 0.39306 0.14007 0.91952 0.0
H3795 H 0.35589 0.14046 0.82081 0.0
H3796 H 0.35986 0.1425 0.85649 0.0
H3797 H 0.41082 0.12277 0.87755 0.0
H3798 H 0.39199 0.10536 0.97608 0.0
H3799 H 0.394 0.1095 0.94045 0.0
C3800 C 0.89916 0.86665 0.82217 0.0
C3801 C 0.88253 0.86871 0.81356 0.0
C3802 C 0.90111 0.866 0.84289 0.0
C3803 C 0.87783 0.88056 0.8882 0.0
H3804 H 0.91146 0.8522 0.91657 0.0
C3805 C 0.8903 0.89257 0.97074 0.0
C3806 C 0.89126 0.87801 0.98341 0.0
C3807 C 0.89106 0.8906 0.9502 0.0
C3808 C 0.90194 0.86015 0.90888 0.0
H3809 H 0.85484 0.87058 0.82018 0.0
H3810 H 0.8582 0.86914 0.85579 0.0
H3811 H 0.90884 0.84943 0.88054 0.0
H3812 H 0.89457 0.84992 0.98413 0.0
H3813 H 0.89584 0.84644 0.94808 0.0
H3814 H 0.87069 0.89115 0.91627 0.0
C3815 C 0.86983 0.86848 0.84671 0.0
C3816 C 0.90054 0.85868 0.88818 0.0
C3817 C 0.86789 0.86917 0.82616 0.0
C3818 C 0.89388 0.86144 0.97488 0.0
C3819 C 0.89459 0.85945 0.95417 0.0
C3820 C 0.87927 0.88209 0.90874 0.0
C3821 C 0.88648 0.86741 0.85547 0.0
C3822 C 0.88838 0.86882 0.87753 0.0
C3823 C 0.89269 0.87398 0.94152 0.0
C3824 C 0.89137 0.87198 0.91947 0.0
H3825 H 0.91073 0.86636 0.81298 0.0
H3826 H 0.91415 0.8652 0.84904 0.0
H3827 H 0.86848 0.88881 0.88063 0.0
H3828 H 0.88849 0.90558 0.97668 0.0
H3829 H 0.89002 0.90217 0.94108 0.0
C3830 C 0.89889 0.14199 0.72458 0.0
C3831 C 0.88225 0.14025 0.73325 0.0
C3832 C 0.9008 0.14244 0.70386 0.0
C3833 C 0.87714 0.12803 0.65867 0.0
H3834 H 0.91134 0.15554 0.63012 0.0
C3835 C 0.88926 0.1156 0.57602 0.0
C3836 C 0.89076 0.13012 0.56336 0.0
C3837 C 0.88993 0.11756 0.59658 0.0
C3838 C 0.90166 0.14782 0.63785 0.0
H3839 H 0.85452 0.13876 0.72671 0.0
H3840 H 0.85781 0.13989 0.69108 0.0
H3841 H 0.90882 0.15854 0.66611 0.0
H3842 H 0.89491 0.1581 0.5627 0.0
H3843 H 0.89601 0.16156 0.59872 0.0
H3844 H 0.86972 0.11747 0.63067 0.0
C3845 C 0.86948 0.14043 0.70012 0.0
C3846 C 0.90032 0.14943 0.65854 0.0
C3847 C 0.86758 0.13992 0.72068 0.0
C3848 C 0.89377 0.14661 0.57193 0.0
C3849 C 0.8944 0.14858 0.59264 0.0
C3850 C 0.87852 0.12638 0.63813 0.0
C3851 C 0.88612 0.14117 0.69132 0.0
C3852 C 0.88795 0.1396 0.66926 0.0
C3853 C 0.89204 0.13412 0.60527 0.0
C3854 C 0.89081 0.13619 0.62734 0.0
H3855 H 0.91049 0.14216 0.73375 0.0
H3856 H 0.91384 0.14299 0.69768 0.0
H3857 H 0.86763 0.12001 0.6663 0.0
H3858 H 0.88712 0.10264 0.57007 0.0
H3859 H 0.88851 0.10602 0.60569 0.0
C3860 C 0.61939 0.1505 0.47437 0.0
C3861 C 0.62041 0.13368 0.48269 0.0
C3862 C 0.61843 0.15277 0.45377 0.0
C3863 C 0.60791 0.13005 0.40659 0.0
H3864 H 0.63981 0.16335 0.3829 0.0
C3865 C 0.61048 0.14213 0.32148 0.0
C3866 C 0.62734 0.14157 0.31318 0.0
C3867 C 0.60821 0.14302 0.3421 0.0
C3868 C 0.63077 0.15403 0.38927 0.0
H3869 H 0.62059 0.10604 0.47565 0.0
H3870 H 0.61856 0.11 0.43996 0.0
H3871 H 0.63796 0.16101 0.41889 0.0
H3872 H 0.65499 0.14225 0.32019 0.0
H3873 H 0.65102 0.14425 0.35585 0.0
H3874 H 0.60092 0.12289 0.37695 0.0
C3875 C 0.61856 0.12147 0.44933 0.0
C3876 C 0.62961 0.15278 0.40993 0.0
C3877 C 0.61978 0.1192 0.46986 0.0
C3878 C 0.6418 0.14271 0.32599 0.0
C3879 C 0.63953 0.1439 0.3465 0.0
C3880 C 0.60889 0.13147 0.38592 0.0
C3881 C 0.61819 0.13828 0.44094 0.0
C3882 C 0.61836 0.14058 0.41891 0.0
C3883 C 0.62272 0.14369 0.35491 0.0
C3884 C 0.62054 0.1433 0.37695 0.0
H3885 H 0.61998 0.16196 0.48373 0.0
H3886 H 0.61803 0.16591 0.44786 0.0
H3887 H 0.59902 0.12059 0.41295 0.0
H3888 H 0.59905 0.14109 0.31211 0.0
H3889 H 0.59507 0.14297 0.34804 0.0
C3890 C 0.61845 0.85788 0.07219 0.0
C3891 C 0.619 0.87476 0.06396 0.0
C3892 C 0.61733 0.85553 0.09279 0.0
C3893 C 0.6058 0.87799 0.13994 0.0
H3894 H 0.63892 0.84609 0.16394 0.0
C3895 C 0.60925 0.86729 0.22527 0.0
C3896 C 0.62613 0.86833 0.23345 0.0
C3897 C 0.60688 0.86605 0.20468 0.0
C3898 C 0.62954 0.85502 0.1575 0.0
H3899 H 0.61808 0.90236 0.07108 0.0
H3900 H 0.61573 0.89826 0.10668 0.0
H3901 H 0.63689 0.84801 0.12793 0.0
H3902 H 0.65375 0.86816 0.22625 0.0
H3903 H 0.64963 0.86562 0.19067 0.0
H3904 H 0.59868 0.88523 0.16951 0.0
C3905 C 0.61624 0.88681 0.09731 0.0
C3906 C 0.62827 0.85601 0.13681 0.0
C3907 C 0.61764 0.88916 0.07682 0.0
C3908 C 0.64055 0.86734 0.22056 0.0
C3909 C 0.63818 0.86583 0.20008 0.0
C3910 C 0.60691 0.87683 0.16063 0.0
C3911 C 0.61643 0.86998 0.10567 0.0
C3912 C 0.61659 0.86773 0.12771 0.0
C3913 C 0.62133 0.86552 0.19177 0.0
C3914 C 0.61901 0.86554 0.16973 0.0
H3915 H 0.61964 0.8465 0.0628 0.0
H3916 H 0.61737 0.84238 0.09868 0.0
H3917 H 0.59657 0.88707 0.1335 0.0
H3918 H 0.59785 0.86818 0.23468 0.0
H3919 H 0.59371 0.86571 0.19884 0.0
C3920 C 0.60846 0.64225 0.72435 0.0
C3921 C 0.62537 0.64139 0.73247 0.0
C3922 C 0.60601 0.64339 0.70377 0.0
C3923 C 0.62842 0.65442 0.65645 0.0
H3924 H 0.59581 0.62179 0.6328 0.0
C3925 C 0.6173 0.65082 0.57123 0.0
C3926 C 0.61812 0.6339 0.56316 0.0
C3927 C 0.61613 0.65331 0.5918 0.0
C3928 C 0.60493 0.63104 0.63915 0.0
H3929 H 0.65297 0.6418 0.72516 0.0
H3930 H 0.64871 0.64417 0.68959 0.0
H3931 H 0.59795 0.62389 0.66879 0.0
H3932 H 0.61759 0.60634 0.57054 0.0
H3933 H 0.61516 0.61066 0.6061 0.0
H3934 H 0.63564 0.66133 0.62681 0.0
C3935 C 0.6373 0.64388 0.69904 0.0
C3936 C 0.60605 0.63235 0.65982 0.0
C3937 C 0.63974 0.64247 0.71952 0.0
C3938 C 0.61695 0.61957 0.57615 0.0
C3939 C 0.6155 0.62205 0.59661 0.0
C3940 C 0.62713 0.65328 0.63578 0.0
C3941 C 0.62042 0.644 0.6908 0.0
C3942 C 0.61803 0.64384 0.66878 0.0
C3943 C 0.61544 0.63893 0.6048 0.0
C3944 C 0.61558 0.64135 0.62681 0.0
H3945 H 0.59709 0.64129 0.73382 0.0
H3946 H 0.59282 0.64358 0.69797 0.0
H3947 H 0.6377 0.6635 0.6628 0.0
H3948 H 0.61834 0.66216 0.56173 0.0
H3949 H 0.61598 0.6665 0.59756 0.0
C3950 C 0.60938 0.36746 0.82182 0.0
C3951 C 0.62629 0.36846 0.81373 0.0
C3952 C 0.60693 0.36639 0.8424 0.0
C3953 C 0.62935 0.35572 0.88982 0.0
H3954 H 0.59636 0.38804 0.91329 0.0
C3955 C 0.61774 0.35908 0.97497 0.0
C3956 C 0.61836 0.37599 0.9831 0.0
C3957 C 0.61673 0.35664 0.95438 0.0
C3958 C 0.60559 0.37889 0.907 0.0
H3959 H 0.65388 0.36842 0.8211 0.0
H3960 H 0.64961 0.36616 0.85669 0.0
H3961 H 0.59864 0.38595 0.87731 0.0
H3962 H 0.61766 0.40356 0.97581 0.0
H3963 H 0.61549 0.39931 0.9402 0.0
H3964 H 0.63652 0.34888 0.9195 0.0
C3965 C 0.63821 0.36628 0.84721 0.0
C3966 C 0.6068 0.37758 0.88633 0.0
C3967 C 0.64066 0.36762 0.82672 0.0
C3968 C 0.61716 0.39034 0.97015 0.0
C3969 C 0.61587 0.3879 0.94966 0.0
C3970 C 0.62797 0.35685 0.91048 0.0
C3971 C 0.62132 0.366 0.85541 0.0
C3972 C 0.6189 0.36619 0.87742 0.0
C3973 C 0.616 0.37104 0.94141 0.0
C3974 C 0.61628 0.36867 0.91939 0.0
H3975 H 0.59801 0.36824 0.81232 0.0
H3976 H 0.59373 0.36608 0.84817 0.0
H3977 H 0.63873 0.34672 0.88352 0.0
H3978 H 0.61881 0.34773 0.98444 0.0
H3979 H 0.61672 0.34346 0.94858 0.0
C3980 C 0.89242 0.35993 0.0725 0.0
C3981 C 0.891 0.37659 0.06383 0.0
C3982 C 0.8928 0.358 0.09323 0.0
C3983 C 0.87858 0.38188 0.13829 0.0
H3984 H 0.9054 0.34728 0.16708 0.0
C3985 C 0.86557 0.37005 0.22089 0.0
C3986 C 0.88003 0.36839 0.23363 0.0
C3987 C 0.8676 0.36929 0.20035 0.0
C3988 C 0.89788 0.35708 0.15928 0.0
H3989 H 0.89002 0.40432 0.07036 0.0
H3990 H 0.89103 0.401 0.10599 0.0
H3991 H 0.90863 0.34973 0.1311 0.0
H3992 H 0.90797 0.36388 0.23444 0.0
H3993 H 0.91155 0.36262 0.19845 0.0
H3994 H 0.86799 0.38946 0.16622 0.0
C3995 C 0.89137 0.38934 0.09695 0.0
C3996 C 0.89962 0.35838 0.1386 0.0
C3997 C 0.89094 0.39125 0.07639 0.0
C3998 C 0.89652 0.36514 0.22515 0.0
C3999 C 0.89856 0.36441 0.20447 0.0
C4000 C 0.87679 0.38053 0.15883 0.0
C4001 C 0.89176 0.37269 0.10576 0.0
C4002 C 0.89005 0.37089 0.1278 0.0
C4003 C 0.88418 0.36694 0.19175 0.0
C4004 C 0.88636 0.36811 0.1697 0.0
H4005 H 0.89238 0.34834 0.06334 0.0
H4006 H 0.89309 0.34496 0.09941 0.0
H4007 H 0.87076 0.3915 0.1306 0.0
H4008 H 0.85261 0.37241 0.22675 0.0
H4009 H 0.85612 0.37086 0.19116 0.0
C4010 C 0.86844 0.64126 0.32594 0.0
C4011 C 0.88286 0.64061 0.31303 0.0
C4012 C 0.87079 0.64261 0.34644 0.0
C4013 C 0.90235 0.63194 0.38576 0.0
H4014 H 0.87217 0.66031 0.41871 0.0
C4015 C 0.89256 0.61966 0.46974 0.0
C4016 C 0.89111 0.63409 0.48254 0.0
C4017 C 0.89371 0.62195 0.44922 0.0
C4018 C 0.88084 0.65243 0.40975 0.0
H4019 H 0.91115 0.64117 0.31182 0.0
H4020 H 0.91526 0.64337 0.34766 0.0
H4021 H 0.86984 0.66217 0.38271 0.0
H4022 H 0.89008 0.66234 0.48358 0.0
H4023 H 0.89193 0.66636 0.44766 0.0
H4024 H 0.91306 0.62189 0.4128 0.0
C4025 C 0.90209 0.64287 0.34182 0.0
C4026 C 0.8794 0.65338 0.38908 0.0
C4027 C 0.89973 0.64178 0.32123 0.0
C4028 C 0.89135 0.65094 0.47423 0.0
C4029 C 0.89223 0.65323 0.4536 0.0
C4030 C 0.90363 0.63081 0.40643 0.0
C4031 C 0.88765 0.64311 0.35474 0.0
C4032 C 0.89002 0.64303 0.37677 0.0
C4033 C 0.8932 0.63874 0.44079 0.0
C4034 C 0.89278 0.64092 0.41875 0.0
H4035 H 0.85524 0.64033 0.32024 0.0
H4036 H 0.85935 0.6426 0.35586 0.0
H4037 H 0.91066 0.62367 0.37681 0.0
H4038 H 0.89236 0.60648 0.47554 0.0
H4039 H 0.89429 0.61048 0.43989 0.0
C4040 C 0.36683 0.37044 0.32559 0.0
C4041 C 0.3815 0.36949 0.31308 0.0
C4042 C 0.36865 0.36991 0.34616 0.0
C4043 C 0.39898 0.35952 0.38781 0.0
H4044 H 0.36961 0.39249 0.41581 0.0
C4045 C 0.39224 0.36192 0.47437 0.0
C4046 C 0.38987 0.37843 0.48313 0.0
C4047 C 0.39287 0.3601 0.45366 0.0
C4048 C 0.37806 0.38329 0.40831 0.0
H4049 H 0.40965 0.36649 0.31273 0.0
H4050 H 0.41287 0.36561 0.3488 0.0
H4051 H 0.36753 0.39026 0.38014 0.0
H4052 H 0.3873 0.40609 0.47671 0.0
H4053 H 0.38869 0.40297 0.44106 0.0
H4054 H 0.40965 0.35279 0.41623 0.0
C4055 C 0.39988 0.36668 0.34256 0.0
C4056 C 0.37668 0.38183 0.38775 0.0
C4057 C 0.39804 0.36717 0.32183 0.0
C4058 C 0.38897 0.39311 0.47063 0.0
C4059 C 0.38963 0.39131 0.45005 0.0
C4060 C 0.40031 0.36094 0.40852 0.0
C4061 C 0.38522 0.36851 0.35504 0.0
C4062 C 0.38705 0.3699 0.37712 0.0
C4063 C 0.39112 0.37475 0.44117 0.0
C4064 C 0.3899 0.37292 0.41908 0.0
H4065 H 0.35383 0.37207 0.31951 0.0
H4066 H 0.35699 0.37091 0.35516 0.0
H4067 H 0.40713 0.35013 0.38021 0.0
H4068 H 0.39288 0.3503 0.48347 0.0
H4069 H 0.39398 0.34713 0.44743 0.0
C4070 C 0.36682 0.63929 0.22117 0.0
C4071 C 0.38141 0.64043 0.23378 0.0
C4072 C 0.36873 0.63998 0.20061 0.0
C4073 C 0.39911 0.65106 0.15922 0.0
H4074 H 0.37046 0.61766 0.13088 0.0
C4075 C 0.39288 0.64841 0.07248 0.0
C4076 C 0.39077 0.63181 0.06383 0.0
C4077 C 0.39344 0.65032 0.0932 0.0
C4078 C 0.37871 0.62698 0.13847 0.0
H4079 H 0.40951 0.64393 0.23436 0.0
H4080 H 0.41288 0.64507 0.19832 0.0
H4081 H 0.36811 0.61979 0.16653 0.0
H4082 H 0.38874 0.60414 0.07039 0.0
H4083 H 0.39006 0.60742 0.10601 0.0
H4084 H 0.40987 0.658 0.1309 0.0
C4085 C 0.39988 0.64375 0.20445 0.0
C4086 C 0.37717 0.62839 0.15903 0.0
C4087 C 0.39795 0.6431 0.22516 0.0
C4088 C 0.39019 0.61717 0.0764 0.0
C4089 C 0.3908 0.61907 0.09696 0.0
C4090 C 0.40061 0.64969 0.13851 0.0
C4091 C 0.38532 0.64173 0.19186 0.0
C4092 C 0.38729 0.64046 0.16978 0.0
C4093 C 0.39192 0.63568 0.10576 0.0
C4094 C 0.39047 0.63755 0.12783 0.0
H4095 H 0.35383 0.6374 0.22714 0.0
H4096 H 0.35713 0.63883 0.19153 0.0
H4097 H 0.40707 0.66057 0.16691 0.0
H4098 H 0.39326 0.65999 0.06331 0.0
H4099 H 0.39428 0.66334 0.09937 0.0
C4100 C 0.11071 0.64333 0.82197 0.0
C4101 C 0.12732 0.64107 0.8134 0.0
C4102 C 0.10874 0.64404 0.84268 0.0
C4103 C 0.13179 0.62919 0.88803 0.0
H4104 H 0.09874 0.65818 0.91643 0.0
C4105 C 0.11927 0.61746 0.97061 0.0
C4106 C 0.11874 0.63204 0.98327 0.0
C4107 C 0.11846 0.61944 0.95007 0.0
C4108 C 0.10809 0.65004 0.90873 0.0
H4109 H 0.15498 0.63893 0.82009 0.0
H4110 H 0.1516 0.64046 0.85568 0.0
H4111 H 0.10132 0.66086 0.88037 0.0
H4112 H 0.11609 0.6602 0.98396 0.0
H4113 H 0.1147 0.66369 0.94792 0.0
H4114 H 0.13878 0.61849 0.9161 0.0
C4115 C 0.13999 0.64123 0.84658 0.0
C4116 C 0.10946 0.65147 0.88801 0.0
C4117 C 0.14194 0.64049 0.82604 0.0
C4118 C 0.11646 0.64866 0.97473 0.0
C4119 C 0.11568 0.65066 0.95402 0.0
C4120 C 0.13035 0.6277 0.90858 0.0
C4121 C 0.12335 0.64249 0.8553 0.0
C4122 C 0.12143 0.64112 0.87736 0.0
C4123 C 0.11717 0.63608 0.94138 0.0
C4124 C 0.11847 0.63804 0.91931 0.0
H4125 H 0.09915 0.64372 0.81275 0.0
H4126 H 0.09571 0.645 0.84881 0.0
H4127 H 0.14097 0.62078 0.88045 0.0
H4128 H 0.12084 0.60441 0.97654 0.0
H4129 H 0.1192 0.60784 0.94095 0.0
C4130 C 0.11079 0.36695 0.7242 0.0
C4131 C 0.1274 0.36886 0.73292 0.0
C4132 C 0.10892 0.36648 0.70346 0.0
C4133 C 0.13252 0.38114 0.65834 0.0
H4134 H 0.09878 0.35316 0.62963 0.0
C4135 C 0.12051 0.39339 0.5756 0.0
C4136 C 0.11928 0.37886 0.56293 0.0
C4137 C 0.11978 0.39142 0.59616 0.0
C4138 C 0.10834 0.36101 0.63741 0.0
H4139 H 0.15512 0.37063 0.72645 0.0
H4140 H 0.1519 0.36947 0.69082 0.0
H4141 H 0.1012 0.35023 0.66566 0.0
H4142 H 0.11559 0.35081 0.56226 0.0
H4143 H 0.11437 0.34733 0.59828 0.0
H4144 H 0.13989 0.39178 0.63035 0.0
C4145 C 0.14023 0.36882 0.69983 0.0
C4146 C 0.10962 0.35944 0.65812 0.0
C4147 C 0.14208 0.36934 0.72039 0.0
C4148 C 0.1165 0.36232 0.5715 0.0
C4149 C 0.1158 0.36033 0.5922 0.0
C4150 C 0.13119 0.38276 0.63778 0.0
C4151 C 0.12361 0.3679 0.69096 0.0
C4152 C 0.12182 0.36944 0.66889 0.0
C4153 C 0.11789 0.37482 0.60485 0.0
C4154 C 0.11907 0.37278 0.62693 0.0
H4155 H 0.09918 0.36666 0.73333 0.0
H4156 H 0.09591 0.36578 0.69724 0.0
H4157 H 0.14189 0.38929 0.666 0.0
H4158 H 0.1225 0.40639 0.56968 0.0
H4159 H 0.121 0.40297 0.60528 0.0
loop_
_geom_bond_atom_site_label_1
_geom_bond_atom_site_label_2
_geom_bond_distance
_geom_bond_site_symmetry_2
_ccdc_geom_bond_type
La0 C2 2.928 . S
La0 O20 2.521 . S
La0 O21 2.628 . S
La0 O22 2.554 . S
La0 O23 2.757 . S
La0 O24 2.470 . S
La0 O29 2.482 . S
La0 O31 2.503 . S
La1 C11 2.928 . S
La1 O23 2.482 . S
La1 O25 2.503 . S
La1 O26 2.521 . S
La1 O27 2.628 . S
La1 O28 2.554 . S
La1 O29 2.757 . S
La1 O30 2.470 . S
C2 La0 2.928 . S
C2 C3 1.503 . S
C2 O20 1.261 . S
C2 O21 1.243 . S
C3 C2 1.503 . S
C3 C4 1.394 . S
C3 C8 1.373 . S
C4 C3 1.394 . S
C4 C5 1.380 . S
C4 H32 0.930 . S
C5 C4 1.380 . S
C5 C6 1.376 . S
C5 H33 0.930 . S
C6 C5 1.376 . S
C6 C7 1.370 . S
C7 C6 1.370 . S
C7 C8 1.396 . S
C7 H34 0.929 . S
C8 C3 1.373 . S
C8 C7 1.396 . S
C8 H35 0.929 . S
C9 O22 1.240 . S
C9 O23 1.289 . S
C10 O24 1.258 . S
C10 O25 1.256 . S
C11 La1 2.928 . S
C11 C12 1.503 . S
C11 O26 1.261 . S
C11 O27 1.243 . S
C12 C11 1.503 . S
C12 C13 1.394 . S
C12 C17 1.373 . S
C13 C12 1.394 . S
C13 C14 1.380 . S
C13 H36 0.930 . S
C14 C13 1.380 . S
C14 C15 1.376 . S
C14 H37 0.930 . S
C15 C14 1.376 . S
C15 C16 1.370 . S
C16 C15 1.370 . S
C16 C17 1.396 . S
C16 H38 0.929 . S
C17 C12 1.373 . S
C17 C16 1.396 . S
C17 H39 0.929 . S
C18 O28 1.240 . S
C18 O29 1.289 . S
C19 O30 1.258 . S
C19 O31 1.256 . S
O20 La0 2.521 . S
O20 C2 1.261 . S
O21 La0 2.628 . S
O21 C2 1.243 . S
O22 La0 2.554 . S
O22 C9 1.240 . S
O23 La0 2.757 . S
O23 La1 2.482 . S
O23 C9 1.289 . S
O24 La0 2.470 . S
O24 C10 1.258 . S
O25 La1 2.503 . S
O25 C10 1.256 . S
O26 La1 2.521 . S
O26 C11 1.261 . S
O27 La1 2.628 . S
O27 C11 1.243 . S
O28 La1 2.554 . S
O28 C18 1.240 . S
O29 La0 2.482 . S
O29 La1 2.757 . S
O29 C18 1.289 . S
O30 La1 2.470 . S
O30 C19 1.258 . S
O31 La0 2.503 . S
O31 C19 1.256 . S
H32 C4 0.930 . S
H33 C5 0.930 . S
H34 C7 0.929 . S
H35 C8 0.929 . S
H36 C13 0.930 . S
H37 C14 0.930 . S
H38 C16 0.929 . S
H39 C17 0.929 . S
La40 C42 2.928 . S
La40 O60 2.521 . S
La40 O61 2.628 . S
La40 O62 2.554 . S
La40 O63 2.757 . S
La40 O64 2.470 . S
La40 O69 2.482 . S
La40 O71 2.503 . S
La41 C51 2.928 . S
La41 O63 2.482 . S
La41 O65 2.503 . S
La41 O66 2.521 . S
La41 O67 2.628 . S
La41 O68 2.554 . S
La41 O69 2.757 . S
La41 O70 2.470 . S
C42 La40 2.928 . S
C42 C43 1.503 . S
C42 O60 1.261 . S
C42 O61 1.243 . S
C43 C42 1.503 . S
C43 C44 1.394 . S
C43 C48 1.373 . S
C44 C43 1.394 . S
C44 C45 1.380 . S
C44 H72 0.930 . S
C45 C44 1.380 . S
C45 C46 1.376 . S
C45 H73 0.930 . S
C46 C45 1.376 . S
C46 C47 1.370 . S
C47 C46 1.370 . S
C47 C48 1.396 . S
C47 H74 0.929 . S
C48 C43 1.373 . S
C48 C47 1.396 . S
C48 H75 0.929 . S
C49 O62 1.240 . S
C49 O63 1.289 . S
C50 O64 1.258 . S
C50 O65 1.256 . S
C51 La41 2.928 . S
C51 C52 1.503 . S
C51 O66 1.261 . S
C51 O67 1.243 . S
C52 C51 1.503 . S
C52 C53 1.394 . S
C52 C57 1.373 . S
C53 C52 1.394 . S
C53 C54 1.380 . S
C53 H76 0.930 . S
C54 C53 1.380 . S
C54 C55 1.376 . S
C54 H77 0.930 . S
C55 C54 1.376 . S
C55 C56 1.370 . S
C56 C55 1.370 . S
C56 C57 1.396 . S
C56 H78 0.929 . S
C57 C52 1.373 . S
C57 C56 1.396 . S
C57 H79 0.929 . S
C58 O68 1.240 . S
C58 O69 1.289 . S
C59 O70 1.258 . S
C59 O71 1.256 . S
O60 La40 2.521 . S
O60 C42 1.261 . S
O61 La40 2.628 . S
O61 C42 1.243 . S
O62 La40 2.554 . S
O62 C49 1.240 . S
O63 La40 2.757 . S
O63 La41 2.482 . S
O63 C49 1.289 . S
O64 La40 2.470 . S
O64 C50 1.258 . S
O65 La41 2.503 . S
O65 C50 1.256 . S
O66 La41 2.521 . S
O66 C51 1.261 . S
O67 La41 2.628 . S
O67 C51 1.243 . S
O68 La41 2.554 . S
O68 C58 1.240 . S
O69 La40 2.482 . S
O69 La41 2.757 . S
O69 C58 1.289 . S
O70 La41 2.470 . S
O70 C59 1.258 . S
O71 La40 2.503 . S
O71 C59 1.256 . S
H72 C44 0.930 . S
H73 C45 0.930 . S
H74 C47 0.929 . S
H75 C48 0.929 . S
H76 C53 0.930 . S
H77 C54 0.930 . S
H78 C56 0.929 . S
H79 C57 0.929 . S
La80 C82 2.928 . S
La80 O100 2.521 . S
La80 O101 2.628 . S
La80 O102 2.554 . S
La80 O103 2.757 . S
La80 O104 2.470 . S
La80 O109 2.482 . S
La80 O111 2.503 . S
La81 C91 2.928 . S
La81 O103 2.482 . S
La81 O105 2.503 . S
La81 O106 2.521 . S
La81 O107 2.628 . S
La81 O108 2.554 . S
La81 O109 2.757 . S
La81 O110 2.470 . S
C82 La80 2.928 . S
C82 C83 1.503 . S
C82 O100 1.261 . S
C82 O101 1.243 . S
C83 C82 1.503 . S
C83 C84 1.394 . S
C83 C88 1.373 . S
C84 C83 1.394 . S
C84 C85 1.380 . S
C84 H112 0.930 . S
C85 C84 1.380 . S
C85 C86 1.376 . S
C85 H113 0.930 . S
C86 C85 1.376 . S
C86 C87 1.370 . S
C87 C86 1.370 . S
C87 C88 1.396 . S
C87 H114 0.929 . S
C88 C83 1.373 . S
C88 C87 1.396 . S
C88 H115 0.929 . S
C89 O102 1.240 . S
C89 O103 1.289 . S
C90 O104 1.258 . S
C90 O105 1.256 . S
C91 La81 2.928 . S
C91 C92 1.503 . S
C91 O106 1.261 . S
C91 O107 1.243 . S
C92 C91 1.503 . S
C92 C93 1.394 . S
C92 C97 1.373 . S
C93 C92 1.394 . S
C93 C94 1.380 . S
C93 H116 0.930 . S
C94 C93 1.380 . S
C94 C95 1.376 . S
C94 H117 0.930 . S
C95 C94 1.376 . S
C95 C96 1.370 . S
C96 C95 1.370 . S
C96 C97 1.396 . S
C96 H118 0.929 . S
C97 C92 1.373 . S
C97 C96 1.396 . S
C97 H119 0.929 . S
C98 O108 1.240 . S
C98 O109 1.289 . S
C99 O110 1.258 . S
C99 O111 1.256 . S
O100 La80 2.521 . S
O100 C82 1.261 . S
O101 La80 2.628 . S
O101 C82 1.243 . S
O102 La80 2.554 . S
O102 C89 1.240 . S
O103 La80 2.757 . S
O103 La81 2.482 . S
O103 C89 1.289 . S
O104 La80 2.470 . S
O104 C90 1.258 . S
O105 La81 2.503 . S
O105 C90 1.256 . S
O106 La81 2.521 . S
O106 C91 1.261 . S
O107 La81 2.628 . S
O107 C91 1.243 . S
O108 La81 2.554 . S
O108 C98 1.240 . S
O109 La80 2.482 . S
O109 La81 2.757 . S
O109 C98 1.289 . S
O110 La81 2.470 . S
O110 C99 1.258 . S
O111 La80 2.503 . S
O111 C99 1.256 . S
H112 C84 0.930 . S
H113 C85 0.930 . S
H114 C87 0.929 . S
H115 C88 0.929 . S
H116 C93 0.930 . S
H117 C94 0.930 . S
H118 C96 0.929 . S
H119 C97 0.929 . S
La120 C122 2.928 1_554 S
La120 O140 2.521 . S
La120 O141 2.628 1_554 S
La120 O142 2.554 . S
La120 O143 2.757 . S
La120 O144 2.470 . S
La120 O149 2.482 . S
La120 O151 2.503 . S
La121 C131 2.928 . S
La121 O143 2.482 . S
La121 O145 2.519 . S
La121 O146 2.521 . S
La121 O147 2.628 . S
La121 O148 2.554 . S
La121 O149 2.757 . S
La121 O150 2.470 . S
C122 La120 2.928 1_556 S
C122 C123 1.503 . S
C122 O140 1.261 1_556 S
C122 O141 1.243 . S
C123 C122 1.503 . S
C123 C124 1.394 . S
C123 C128 1.373 . S
C124 C123 1.394 . S
C124 C125 1.380 . S
C124 H152 0.930 . S
C125 C124 1.380 . S
C125 C126 1.376 . S
C125 H153 0.930 . S
C126 C125 1.376 . S
C126 C127 1.370 . S
C127 C126 1.370 . S
C127 C128 1.396 . S
C127 H154 0.929 . S
C128 C123 1.373 . S
C128 C127 1.396 . S
C128 H155 0.929 . S
C129 O142 1.240 . S
C129 O143 1.289 . S
C130 O144 1.258 1_556 S
C130 O145 1.249 1_556 S
C131 La121 2.928 . S
C131 C132 1.503 . S
C131 O146 1.261 . S
C131 O147 1.243 . S
C132 C131 1.503 . S
C132 C133 1.394 . S
C132 C137 1.373 . S
C133 C132 1.394 . S
C133 C134 1.380 . S
C133 H156 0.930 . S
C134 C133 1.380 . S
C134 C135 1.376 . S
C134 H157 0.930 . S
C135 C134 1.376 . S
C135 C136 1.370 . S
C136 C135 1.370 . S
C136 C137 1.396 . S
C136 H158 0.929 . S
C137 C132 1.373 . S
C137 C136 1.396 . S
C137 H159 0.929 . S
C138 O148 1.240 . S
C138 O149 1.289 . S
C139 O150 1.258 . S
C139 O151 1.256 . S
O140 La120 2.521 . S
O140 C122 1.261 1_554 S
O141 La120 2.628 1_556 S
O141 C122 1.243 . S
O142 La120 2.554 . S
O142 C129 1.240 . S
O143 La120 2.757 . S
O143 La121 2.482 . S
O143 C129 1.289 . S
O144 La120 2.470 . S
O144 C130 1.258 1_554 S
O145 La121 2.519 . S
O145 C130 1.249 1_554 S
O146 La121 2.521 . S
O146 C131 1.261 . S
O147 La121 2.628 . S
O147 C131 1.243 . S
O148 La121 2.554 . S
O148 C138 1.240 . S
O149 La120 2.482 . S
O149 La121 2.757 . S
O149 C138 1.289 . S
O150 La121 2.470 . S
O150 C139 1.258 . S
O151 La120 2.503 . S
O151 C139 1.256 . S
H152 C124 0.930 . S
H153 C125 0.930 . S
H154 C127 0.929 . S
H155 C128 0.929 . S
H156 C133 0.930 . S
H157 C134 0.930 . S
H158 C136 0.929 . S
H159 C137 0.929 . S
La160 C162 2.928 . S
La160 O180 2.521 . S
La160 O181 2.628 . S
La160 O182 2.554 . S
La160 O183 2.757 . S
La160 O184 2.470 . S
La160 O189 2.482 . S
La160 O191 2.503 . S
La161 C171 2.928 . S
La161 O183 2.482 . S
La161 O185 2.503 . S
La161 O186 2.521 . S
La161 O187 2.628 . S
La161 O188 2.554 . S
La161 O189 2.757 . S
La161 O190 2.470 . S
C162 La160 2.928 . S
C162 C163 1.503 . S
C162 O180 1.261 . S
C162 O181 1.243 . S
C163 C162 1.503 . S
C163 C164 1.394 . S
C163 C168 1.373 . S
C164 C163 1.394 . S
C164 C165 1.380 . S
C164 H192 0.930 . S
C165 C164 1.380 . S
C165 C166 1.376 . S
C165 H193 0.930 . S
C166 C165 1.376 . S
C166 C167 1.370 . S
C167 C166 1.370 . S
C167 C168 1.396 . S
C167 H194 0.929 . S
C168 C163 1.373 . S
C168 C167 1.396 . S
C168 H195 0.929 . S
C169 O182 1.240 . S
C169 O183 1.289 . S
C170 O184 1.258 . S
C170 O185 1.256 . S
C171 La161 2.928 . S
C171 C172 1.503 . S
C171 O186 1.261 . S
C171 O187 1.243 . S
C172 C171 1.503 . S
C172 C173 1.394 . S
C172 C177 1.373 . S
C173 C172 1.394 . S
C173 C174 1.380 . S
C173 H196 0.930 . S
C174 C173 1.380 . S
C174 C175 1.376 . S
C174 H197 0.930 . S
C175 C174 1.376 . S
C175 C176 1.370 . S
C176 C175 1.370 . S
C176 C177 1.396 . S
C176 H198 0.929 . S
C177 C172 1.373 . S
C177 C176 1.396 . S
C177 H199 0.929 . S
C178 O188 1.240 . S
C178 O189 1.289 . S
C179 O190 1.258 . S
C179 O191 1.256 . S
O180 La160 2.521 . S
O180 C162 1.261 . S
O181 La160 2.628 . S
O181 C162 1.243 . S
O182 La160 2.554 . S
O182 C169 1.240 . S
O183 La160 2.757 . S
O183 La161 2.482 . S
O183 C169 1.289 . S
O184 La160 2.470 . S
O184 C170 1.258 . S
O185 La161 2.503 . S
O185 C170 1.256 . S
O186 La161 2.521 . S
O186 C171 1.261 . S
O187 La161 2.628 . S
O187 C171 1.243 . S
O188 La161 2.554 . S
O188 C178 1.240 . S
O189 La160 2.482 . S
O189 La161 2.757 . S
O189 C178 1.289 . S
O190 La161 2.470 . S
O190 C179 1.258 . S
O191 La160 2.503 . S
O191 C179 1.256 . S
H192 C164 0.930 . S
H193 C165 0.930 . S
H194 C167 0.929 . S
H195 C168 0.929 . S
H196 C173 0.930 . S
H197 C174 0.930 . S
H198 C176 0.929 . S
H199 C177 0.929 . S
La200 C202 2.928 . S
La200 O220 2.521 . S
La200 O221 2.628 . S
La200 O222 2.554 . S
La200 O223 2.757 . S
La200 O224 2.470 . S
La200 O229 2.482 . S
La200 O231 2.503 . S
La201 C211 2.928 . S
La201 O223 2.482 . S
La201 O225 2.503 . S
La201 O226 2.521 . S
La201 O227 2.628 . S
La201 O228 2.554 . S
La201 O229 2.757 . S
La201 O230 2.470 . S
C202 La200 2.928 . S
C202 C203 1.503 . S
C202 O220 1.261 . S
C202 O221 1.243 . S
C203 C202 1.503 . S
C203 C204 1.394 . S
C203 C208 1.373 . S
C204 C203 1.394 . S
C204 C205 1.380 . S
C204 H232 0.930 . S
C205 C204 1.380 . S
C205 C206 1.376 . S
C205 H233 0.930 . S
C206 C205 1.376 . S
C206 C207 1.370 . S
C207 C206 1.370 . S
C207 C208 1.396 . S
C207 H234 0.929 . S
C208 C203 1.373 . S
C208 C207 1.396 . S
C208 H235 0.929 . S
C209 O222 1.240 . S
C209 O223 1.289 . S
C210 O224 1.258 . S
C210 O225 1.256 . S
C211 La201 2.928 . S
C211 C212 1.503 . S
C211 O226 1.261 . S
C211 O227 1.243 . S
C212 C211 1.503 . S
C212 C213 1.394 . S
C212 C217 1.373 . S
C213 C212 1.394 . S
C213 C214 1.380 . S
C213 H236 0.930 . S
C214 C213 1.380 . S
C214 C215 1.376 . S
C214 H237 0.930 . S
C215 C214 1.376 . S
C215 C216 1.370 . S
C216 C215 1.370 . S
C216 C217 1.396 . S
C216 H238 0.929 . S
C217 C212 1.373 . S
C217 C216 1.396 . S
C217 H239 0.929 . S
C218 O228 1.240 . S
C218 O229 1.289 . S
C219 O230 1.258 . S
C219 O231 1.256 . S
O220 La200 2.521 . S
O220 C202 1.261 . S
O221 La200 2.628 . S
O221 C202 1.243 . S
O222 La200 2.554 . S
O222 C209 1.240 . S
O223 La200 2.757 . S
O223 La201 2.482 . S
O223 C209 1.289 . S
O224 La200 2.470 . S
O224 C210 1.258 . S
O225 La201 2.503 . S
O225 C210 1.256 . S
O226 La201 2.521 . S
O226 C211 1.261 . S
O227 La201 2.628 . S
O227 C211 1.243 . S
O228 La201 2.554 . S
O228 C218 1.240 . S
O229 La200 2.482 . S
O229 La201 2.757 . S
O229 C218 1.289 . S
O230 La201 2.470 . S
O230 C219 1.258 . S
O231 La200 2.503 . S
O231 C219 1.256 . S
H232 C204 0.930 . S
H233 C205 0.930 . S
H234 C207 0.929 . S
H235 C208 0.929 . S
H236 C213 0.930 . S
H237 C214 0.930 . S
H238 C216 0.929 . S
H239 C217 0.929 . S
La240 C242 2.928 . S
La240 O260 2.521 . S
La240 O261 2.628 . S
La240 O262 2.554 . S
La240 O263 2.757 . S
La240 O264 2.470 . S
La240 O269 2.482 . S
La240 O271 2.503 . S
La241 C251 2.928 . S
La241 O263 2.482 . S
La241 O265 2.503 . S
La241 O266 2.521 . S
La241 O267 2.628 . S
La241 O268 2.554 . S
La241 O269 2.757 . S
La241 O270 2.470 . S
C242 La240 2.928 . S
C242 C243 1.503 . S
C242 O260 1.261 . S
C242 O261 1.243 . S
C243 C242 1.503 . S
C243 C244 1.394 . S
C243 C248 1.373 . S
C244 C243 1.394 . S
C244 C245 1.380 . S
C244 H272 0.930 . S
C245 C244 1.380 . S
C245 C246 1.376 . S
C245 H273 0.930 . S
C246 C245 1.376 . S
C246 C247 1.370 . S
C247 C246 1.370 . S
C247 C248 1.396 . S
C247 H274 0.929 . S
C248 C243 1.373 . S
C248 C247 1.396 . S
C248 H275 0.929 . S
C249 O262 1.240 . S
C249 O263 1.289 . S
C250 O264 1.258 . S
C250 O265 1.256 . S
C251 La241 2.928 . S
C251 C252 1.503 . S
C251 O266 1.261 . S
C251 O267 1.243 . S
C252 C251 1.503 . S
C252 C253 1.394 . S
C252 C257 1.373 . S
C253 C252 1.394 . S
C253 C254 1.380 . S
C253 H276 0.930 . S
C254 C253 1.380 . S
C254 C255 1.376 . S
C254 H277 0.930 . S
C255 C254 1.376 . S
C255 C256 1.370 . S
C256 C255 1.370 . S
C256 C257 1.396 . S
C256 H278 0.929 . S
C257 C252 1.373 . S
C257 C256 1.396 . S
C257 H279 0.929 . S
C258 O268 1.240 . S
C258 O269 1.289 . S
C259 O270 1.258 . S
C259 O271 1.256 . S
O260 La240 2.521 . S
O260 C242 1.261 . S
O261 La240 2.628 . S
O261 C242 1.243 . S
O262 La240 2.554 . S
O262 C249 1.240 . S
O263 La240 2.757 . S
O263 La241 2.482 . S
O263 C249 1.289 . S
O264 La240 2.470 . S
O264 C250 1.258 . S
O265 La241 2.503 . S
O265 C250 1.256 . S
O266 La241 2.521 . S
O266 C251 1.261 . S
O267 La241 2.628 . S
O267 C251 1.243 . S
O268 La241 2.554 . S
O268 C258 1.240 . S
O269 La240 2.482 . S
O269 La241 2.757 . S
O269 C258 1.289 . S
O270 La241 2.470 . S
O270 C259 1.258 . S
O271 La240 2.503 . S
O271 C259 1.256 . S
H272 C244 0.930 . S
H273 C245 0.930 . S
H274 C247 0.929 . S
H275 C248 0.929 . S
H276 C253 0.930 . S
H277 C254 0.930 . S
H278 C256 0.929 . S
H279 C257 0.929 . S
La280 C282 2.928 1_556 S
La280 O300 2.521 . S
La280 O301 2.628 1_556 S
La280 O302 2.554 . S
La280 O303 2.757 . S
La280 O304 2.470 . S
La280 O309 2.482 . S
La280 O311 2.503 . S
La281 C291 2.928 . S
La281 O303 2.482 . S
La281 O305 2.519 . S
La281 O306 2.521 . S
La281 O307 2.628 . S
La281 O308 2.554 . S
La281 O309 2.757 . S
La281 O310 2.470 . S
C282 La280 2.928 1_554 S
C282 C283 1.503 . S
C282 O300 1.261 1_554 S
C282 O301 1.243 . S
C283 C282 1.503 . S
C283 C284 1.394 . S
C283 C288 1.373 . S
C284 C283 1.394 . S
C284 C285 1.380 . S
C284 H312 0.930 . S
C285 C284 1.380 . S
C285 C286 1.376 . S
C285 H313 0.930 . S
C286 C285 1.376 . S
C286 C287 1.370 . S
C287 C286 1.370 . S
C287 C288 1.396 . S
C287 H314 0.929 . S
C288 C283 1.373 . S
C288 C287 1.396 . S
C288 H315 0.929 . S
C289 O302 1.240 . S
C289 O303 1.289 . S
C290 O304 1.258 1_554 S
C290 O305 1.249 1_554 S
C291 La281 2.928 . S
C291 C292 1.503 . S
C291 O306 1.261 . S
C291 O307 1.243 . S
C292 C291 1.503 . S
C292 C293 1.394 . S
C292 C297 1.373 . S
C293 C292 1.394 . S
C293 C294 1.380 . S
C293 H316 0.930 . S
C294 C293 1.380 . S
C294 C295 1.376 . S
C294 H317 0.930 . S
C295 C294 1.376 . S
C295 C296 1.370 . S
C296 C295 1.370 . S
C296 C297 1.396 . S
C296 H318 0.929 . S
C297 C292 1.373 . S
C297 C296 1.396 . S
C297 H319 0.929 . S
C298 O308 1.240 . S
C298 O309 1.289 . S
C299 O310 1.258 . S
C299 O311 1.256 . S
O300 La280 2.521 . S
O300 C282 1.261 1_556 S
O301 La280 2.628 1_554 S
O301 C282 1.243 . S
O302 La280 2.554 . S
O302 C289 1.240 . S
O303 La280 2.757 . S
O303 La281 2.482 . S
O303 C289 1.289 . S
O304 La280 2.470 . S
O304 C290 1.258 1_556 S
O305 La281 2.519 . S
O305 C290 1.249 1_556 S
O306 La281 2.521 . S
O306 C291 1.261 . S
O307 La281 2.628 . S
O307 C291 1.243 . S
O308 La281 2.554 . S
O308 C298 1.240 . S
O309 La280 2.482 . S
O309 La281 2.757 . S
O309 C298 1.289 . S
O310 La281 2.470 . S
O310 C299 1.258 . S
O311 La280 2.503 . S
O311 C299 1.256 . S
H312 C284 0.930 . S
H313 C285 0.930 . S
H314 C287 0.929 . S
H315 C288 0.929 . S
H316 C293 0.930 . S
H317 C294 0.930 . S
H318 C296 0.929 . S
H319 C297 0.929 . S
La320 C322 2.928 . S
La320 O340 2.521 . S
La320 O341 2.628 . S
La320 O342 2.554 . S
La320 O343 2.757 . S
La320 O344 2.470 . S
La320 O349 2.482 . S
La320 O351 2.503 . S
La321 C331 2.928 . S
La321 O343 2.482 . S
La321 O345 2.503 . S
La321 O346 2.521 . S
La321 O347 2.628 . S
La321 O348 2.554 . S
La321 O349 2.757 . S
La321 O350 2.470 . S
C322 La320 2.928 . S
C322 C323 1.503 . S
C322 O340 1.261 . S
C322 O341 1.243 . S
C323 C322 1.503 . S
C323 C324 1.394 . S
C323 C328 1.373 . S
C324 C323 1.394 . S
C324 C325 1.380 . S
C324 H352 0.930 . S
C325 C324 1.380 . S
C325 C326 1.376 . S
C325 H353 0.930 . S
C326 C325 1.376 . S
C326 C327 1.370 . S
C327 C326 1.370 . S
C327 C328 1.396 . S
C327 H354 0.929 . S
C328 C323 1.373 . S
C328 C327 1.396 . S
C328 H355 0.929 . S
C329 O342 1.240 . S
C329 O343 1.289 . S
C330 O344 1.258 . S
C330 O345 1.256 . S
C331 La321 2.928 . S
C331 C332 1.503 . S
C331 O346 1.261 . S
C331 O347 1.243 . S
C332 C331 1.503 . S
C332 C333 1.394 . S
C332 C337 1.373 . S
C333 C332 1.394 . S
C333 C334 1.380 . S
C333 H356 0.930 . S
C334 C333 1.380 . S
C334 C335 1.376 . S
C334 H357 0.930 . S
C335 C334 1.376 . S
C335 C336 1.370 . S
C336 C335 1.370 . S
C336 C337 1.396 . S
C336 H358 0.929 . S
C337 C332 1.373 . S
C337 C336 1.396 . S
C337 H359 0.929 . S
C338 O348 1.240 . S
C338 O349 1.289 . S
C339 O350 1.258 . S
C339 O351 1.256 . S
O340 La320 2.521 . S
O340 C322 1.261 . S
O341 La320 2.628 . S
O341 C322 1.243 . S
O342 La320 2.554 . S
O342 C329 1.240 . S
O343 La320 2.757 . S
O343 La321 2.482 . S
O343 C329 1.289 . S
O344 La320 2.470 . S
O344 C330 1.258 . S
O345 La321 2.503 . S
O345 C330 1.256 . S
O346 La321 2.521 . S
O346 C331 1.261 . S
O347 La321 2.628 . S
O347 C331 1.243 . S
O348 La321 2.554 . S
O348 C338 1.240 . S
O349 La320 2.482 . S
O349 La321 2.757 . S
O349 C338 1.289 . S
O350 La321 2.470 . S
O350 C339 1.258 . S
O351 La320 2.503 . S
O351 C339 1.256 . S
H352 C324 0.930 . S
H353 C325 0.930 . S
H354 C327 0.929 . S
H355 C328 0.929 . S
H356 C333 0.930 . S
H357 C334 0.930 . S
H358 C336 0.929 . S
H359 C337 0.929 . S
La360 C362 2.928 . S
La360 O380 2.521 . S
La360 O381 2.628 . S
La360 O382 2.554 . S
La360 O383 2.757 . S
La360 O384 2.470 . S
La360 O389 2.482 . S
La360 O391 2.503 . S
La361 C371 2.928 . S
La361 O383 2.482 . S
La361 O385 2.503 . S
La361 O386 2.521 . S
La361 O387 2.628 . S
La361 O388 2.554 . S
La361 O389 2.757 . S
La361 O390 2.470 . S
C362 La360 2.928 . S
C362 C363 1.503 . S
C362 O380 1.261 . S
C362 O381 1.243 . S
C363 C362 1.503 . S
C363 C364 1.394 . S
C363 C368 1.373 . S
C364 C363 1.394 . S
C364 C365 1.380 . S
C364 H392 0.930 . S
C365 C364 1.380 . S
C365 C366 1.376 . S
C365 H393 0.930 . S
C366 C365 1.376 . S
C366 C367 1.370 . S
C367 C366 1.370 . S
C367 C368 1.396 . S
C367 H394 0.929 . S
C368 C363 1.373 . S
C368 C367 1.396 . S
C368 H395 0.929 . S
C369 O382 1.240 . S
C369 O383 1.289 . S
C370 O384 1.258 . S
C370 O385 1.256 . S
C371 La361 2.928 . S
C371 C372 1.503 . S
C371 O386 1.261 . S
C371 O387 1.243 . S
C372 C371 1.503 . S
C372 C373 1.394 . S
C372 C377 1.373 . S
C373 C372 1.394 . S
C373 C374 1.380 . S
C373 H396 0.930 . S
C374 C373 1.380 . S
C374 C375 1.376 . S
C374 H397 0.930 . S
C375 C374 1.376 . S
C375 C376 1.370 . S
C376 C375 1.370 . S
C376 C377 1.396 . S
C376 H398 0.929 . S
C377 C372 1.373 . S
C377 C376 1.396 . S
C377 H399 0.929 . S
C378 O388 1.240 . S
C378 O389 1.289 . S
C379 O390 1.258 . S
C379 O391 1.256 . S
O380 La360 2.521 . S
O380 C362 1.261 . S
O381 La360 2.628 . S
O381 C362 1.243 . S
O382 La360 2.554 . S
O382 C369 1.240 . S
O383 La360 2.757 . S
O383 La361 2.482 . S
O383 C369 1.289 . S
O384 La360 2.470 . S
O384 C370 1.258 . S
O385 La361 2.503 . S
O385 C370 1.256 . S
O386 La361 2.521 . S
O386 C371 1.261 . S
O387 La361 2.628 . S
O387 C371 1.243 . S
O388 La361 2.554 . S
O388 C378 1.240 . S
O389 La360 2.482 . S
O389 La361 2.757 . S
O389 C378 1.289 . S
O390 La361 2.470 . S
O390 C379 1.258 . S
O391 La360 2.503 . S
O391 C379 1.256 . S
H392 C364 0.930 . S
H393 C365 0.930 . S
H394 C367 0.929 . S
H395 C368 0.929 . S
H396 C373 0.930 . S
H397 C374 0.930 . S
H398 C376 0.929 . S
H399 C377 0.929 . S
La400 C402 2.928 . S
La400 O420 2.521 . S
La400 O421 2.628 . S
La400 O422 2.554 . S
La400 O423 2.757 . S
La400 O424 2.470 . S
La400 O429 2.482 . S
La400 O431 2.503 . S
La401 C411 2.928 . S
La401 O423 2.482 . S
La401 O425 2.503 . S
La401 O426 2.521 . S
La401 O427 2.628 . S
La401 O428 2.554 . S
La401 O429 2.757 . S
La401 O430 2.470 . S
C402 La400 2.928 . S
C402 C403 1.503 . S
C402 O420 1.261 . S
C402 O421 1.243 . S
C403 C402 1.503 . S
C403 C404 1.394 . S
C403 C408 1.373 . S
C404 C403 1.394 . S
C404 C405 1.380 . S
C404 H432 0.930 . S
C405 C404 1.380 . S
C405 C406 1.376 . S
C405 H433 0.930 . S
C406 C405 1.376 . S
C406 C407 1.370 . S
C407 C406 1.370 . S
C407 C408 1.396 . S
C407 H434 0.929 . S
C408 C403 1.373 . S
C408 C407 1.396 . S
C408 H435 0.929 . S
C409 O422 1.240 . S
C409 O423 1.289 . S
C410 O424 1.258 . S
C410 O425 1.256 . S
C411 La401 2.928 . S
C411 C412 1.503 . S
C411 O426 1.261 . S
C411 O427 1.243 . S
C412 C411 1.503 . S
C412 C413 1.394 . S
C412 C417 1.373 . S
C413 C412 1.394 . S
C413 C414 1.380 . S
C413 H436 0.930 . S
C414 C413 1.380 . S
C414 C415 1.376 . S
C414 H437 0.930 . S
C415 C414 1.376 . S
C415 C416 1.370 . S
C416 C415 1.370 . S
C416 C417 1.396 . S
C416 H438 0.929 . S
C417 C412 1.373 . S
C417 C416 1.396 . S
C417 H439 0.929 . S
C418 O428 1.240 . S
C418 O429 1.289 . S
C419 O430 1.258 . S
C419 O431 1.256 . S
O420 La400 2.521 . S
O420 C402 1.261 . S
O421 La400 2.628 . S
O421 C402 1.243 . S
O422 La400 2.554 . S
O422 C409 1.240 . S
O423 La400 2.757 . S
O423 La401 2.482 . S
O423 C409 1.289 . S
O424 La400 2.470 . S
O424 C410 1.258 . S
O425 La401 2.503 . S
O425 C410 1.256 . S
O426 La401 2.521 . S
O426 C411 1.261 . S
O427 La401 2.628 . S
O427 C411 1.243 . S
O428 La401 2.554 . S
O428 C418 1.240 . S
O429 La400 2.482 . S
O429 La401 2.757 . S
O429 C418 1.289 . S
O430 La401 2.470 . S
O430 C419 1.258 . S
O431 La400 2.503 . S
O431 C419 1.256 . S
H432 C404 0.930 . S
H433 C405 0.930 . S
H434 C407 0.929 . S
H435 C408 0.929 . S
H436 C413 0.930 . S
H437 C414 0.930 . S
H438 C416 0.929 . S
H439 C417 0.929 . S
La440 C442 2.928 . S
La440 O460 2.521 . S
La440 O461 2.628 . S
La440 O462 2.554 . S
La440 O463 2.757 . S
La440 O464 2.470 . S
La440 O469 2.482 . S
La440 O471 2.519 . S
La441 C451 2.928 1_556 S
La441 O463 2.482 . S
La441 O465 2.503 . S
La441 O466 2.521 . S
La441 O467 2.628 1_556 S
La441 O468 2.554 . S
La441 O469 2.757 . S
La441 O470 2.470 . S
C442 La440 2.928 . S
C442 C443 1.503 . S
C442 O460 1.261 . S
C442 O461 1.243 . S
C443 C442 1.503 . S
C443 C444 1.394 . S
C443 C448 1.373 . S
C444 C443 1.394 . S
C444 C445 1.380 . S
C444 H472 0.930 . S
C445 C444 1.380 . S
C445 C446 1.376 . S
C445 H473 0.930 . S
C446 C445 1.376 . S
C446 C447 1.370 . S
C447 C446 1.370 . S
C447 C448 1.396 . S
C447 H474 0.929 . S
C448 C443 1.373 . S
C448 C447 1.396 . S
C448 H475 0.929 . S
C449 O462 1.240 . S
C449 O463 1.289 . S
C450 O464 1.258 . S
C450 O465 1.256 . S
C451 La441 2.928 1_554 S
C451 C452 1.503 . S
C451 O466 1.261 1_554 S
C451 O467 1.243 . S
C452 C451 1.503 . S
C452 C453 1.394 . S
C452 C457 1.373 . S
C453 C452 1.394 . S
C453 C454 1.380 . S
C453 H476 0.930 . S
C454 C453 1.380 . S
C454 C455 1.376 . S
C454 H477 0.930 . S
C455 C454 1.376 . S
C455 C456 1.370 . S
C456 C455 1.370 . S
C456 C457 1.396 . S
C456 H478 0.929 . S
C457 C452 1.373 . S
C457 C456 1.396 . S
C457 H479 0.929 . S
C458 O468 1.240 . S
C458 O469 1.289 . S
C459 O470 1.258 1_554 S
C459 O471 1.249 1_554 S
O460 La440 2.521 . S
O460 C442 1.261 . S
O461 La440 2.628 . S
O461 C442 1.243 . S
O462 La440 2.554 . S
O462 C449 1.240 . S
O463 La440 2.757 . S
O463 La441 2.482 . S
O463 C449 1.289 . S
O464 La440 2.470 . S
O464 C450 1.258 . S
O465 La441 2.503 . S
O465 C450 1.256 . S
O466 La441 2.521 . S
O466 C451 1.261 1_556 S
O467 La441 2.628 1_554 S
O467 C451 1.243 . S
O468 La441 2.554 . S
O468 C458 1.240 . S
O469 La440 2.482 . S
O469 La441 2.757 . S
O469 C458 1.289 . S
O470 La441 2.470 . S
O470 C459 1.258 1_556 S
O471 La440 2.519 . S
O471 C459 1.249 1_556 S
H472 C444 0.930 . S
H473 C445 0.930 . S
H474 C447 0.929 . S
H475 C448 0.929 . S
H476 C453 0.930 . S
H477 C454 0.930 . S
H478 C456 0.929 . S
H479 C457 0.929 . S
La480 C482 2.928 . S
La480 O500 2.521 . S
La480 O501 2.628 . S
La480 O502 2.554 . S
La480 O503 2.757 . S
La480 O504 2.470 . S
La480 O509 2.482 . S
La480 O511 2.503 . S
La481 C491 2.928 . S
La481 O503 2.482 . S
La481 O505 2.503 . S
La481 O506 2.521 . S
La481 O507 2.628 . S
La481 O508 2.554 . S
La481 O509 2.757 . S
La481 O510 2.470 . S
C482 La480 2.928 . S
C482 C483 1.503 . S
C482 O500 1.261 . S
C482 O501 1.243 . S
C483 C482 1.503 . S
C483 C484 1.394 . S
C483 C488 1.373 . S
C484 C483 1.394 . S
C484 C485 1.380 . S
C484 H512 0.930 . S
C485 C484 1.380 . S
C485 C486 1.376 . S
C485 H513 0.930 . S
C486 C485 1.376 . S
C486 C487 1.370 . S
C487 C486 1.370 . S
C487 C488 1.396 . S
C487 H514 0.929 . S
C488 C483 1.373 . S
C488 C487 1.396 . S
C488 H515 0.929 . S
C489 O502 1.240 . S
C489 O503 1.289 . S
C490 O504 1.258 . S
C490 O505 1.256 . S
C491 La481 2.928 . S
C491 C492 1.503 . S
C491 O506 1.261 . S
C491 O507 1.243 . S
C492 C491 1.503 . S
C492 C493 1.394 . S
C492 C497 1.373 . S
C493 C492 1.394 . S
C493 C494 1.380 . S
C493 H516 0.930 . S
C494 C493 1.380 . S
C494 C495 1.376 . S
C494 H517 0.930 . S
C495 C494 1.376 . S
C495 C496 1.370 . S
C496 C495 1.370 . S
C496 C497 1.396 . S
C496 H518 0.929 . S
C497 C492 1.373 . S
C497 C496 1.396 . S
C497 H519 0.929 . S
C498 O508 1.240 . S
C498 O509 1.289 . S
C499 O510 1.258 . S
C499 O511 1.256 . S
O500 La480 2.521 . S
O500 C482 1.261 . S
O501 La480 2.628 . S
O501 C482 1.243 . S
O502 La480 2.554 . S
O502 C489 1.240 . S
O503 La480 2.757 . S
O503 La481 2.482 . S
O503 C489 1.289 . S
O504 La480 2.470 . S
O504 C490 1.258 . S
O505 La481 2.503 . S
O505 C490 1.256 . S
O506 La481 2.521 . S
O506 C491 1.261 . S
O507 La481 2.628 . S
O507 C491 1.243 . S
O508 La481 2.554 . S
O508 C498 1.240 . S
O509 La480 2.482 . S
O509 La481 2.757 . S
O509 C498 1.289 . S
O510 La481 2.470 . S
O510 C499 1.258 . S
O511 La480 2.503 . S
O511 C499 1.256 . S
H512 C484 0.930 . S
H513 C485 0.930 . S
H514 C487 0.929 . S
H515 C488 0.929 . S
H516 C493 0.930 . S
H517 C494 0.930 . S
H518 C496 0.929 . S
H519 C497 0.929 . S
La520 C522 2.928 . S
La520 O540 2.521 . S
La520 O541 2.628 . S
La520 O542 2.554 . S
La520 O543 2.757 . S
La520 O544 2.470 . S
La520 O549 2.482 . S
La520 O551 2.503 . S
La521 C531 2.928 . S
La521 O543 2.482 . S
La521 O545 2.503 . S
La521 O546 2.521 . S
La521 O547 2.628 . S
La521 O548 2.554 . S
La521 O549 2.757 . S
La521 O550 2.470 . S
C522 La520 2.928 . S
C522 C523 1.503 . S
C522 O540 1.261 . S
C522 O541 1.243 . S
C523 C522 1.503 . S
C523 C524 1.394 . S
C523 C528 1.373 . S
C524 C523 1.394 . S
C524 C525 1.380 . S
C524 H552 0.930 . S
C525 C524 1.380 . S
C525 C526 1.376 . S
C525 H553 0.930 . S
C526 C525 1.376 . S
C526 C527 1.370 . S
C527 C526 1.370 . S
C527 C528 1.396 . S
C527 H554 0.929 . S
C528 C523 1.373 . S
C528 C527 1.396 . S
C528 H555 0.929 . S
C529 O542 1.240 . S
C529 O543 1.289 . S
C530 O544 1.258 . S
C530 O545 1.256 . S
C531 La521 2.928 . S
C531 C532 1.503 . S
C531 O546 1.261 . S
C531 O547 1.243 . S
C532 C531 1.503 . S
C532 C533 1.394 . S
C532 C537 1.373 . S
C533 C532 1.394 . S
C533 C534 1.380 . S
C533 H556 0.930 . S
C534 C533 1.380 . S
C534 C535 1.376 . S
C534 H557 0.930 . S
C535 C534 1.376 . S
C535 C536 1.370 . S
C536 C535 1.370 . S
C536 C537 1.396 . S
C536 H558 0.929 . S
C537 C532 1.373 . S
C537 C536 1.396 . S
C537 H559 0.929 . S
C538 O548 1.240 . S
C538 O549 1.289 . S
C539 O550 1.258 . S
C539 O551 1.256 . S
O540 La520 2.521 . S
O540 C522 1.261 . S
O541 La520 2.628 . S
O541 C522 1.243 . S
O542 La520 2.554 . S
O542 C529 1.240 . S
O543 La520 2.757 . S
O543 La521 2.482 . S
O543 C529 1.289 . S
O544 La520 2.470 . S
O544 C530 1.258 . S
O545 La521 2.503 . S
O545 C530 1.256 . S
O546 La521 2.521 . S
O546 C531 1.261 . S
O547 La521 2.628 . S
O547 C531 1.243 . S
O548 La521 2.554 . S
O548 C538 1.240 . S
O549 La520 2.482 . S
O549 La521 2.757 . S
O549 C538 1.289 . S
O550 La521 2.470 . S
O550 C539 1.258 . S
O551 La520 2.503 . S
O551 C539 1.256 . S
H552 C524 0.930 . S
H553 C525 0.930 . S
H554 C527 0.929 . S
H555 C528 0.929 . S
H556 C533 0.930 . S
H557 C534 0.930 . S
H558 C536 0.929 . S
H559 C537 0.929 . S
La560 C562 2.928 . S
La560 O580 2.521 . S
La560 O581 2.628 . S
La560 O582 2.554 . S
La560 O583 2.757 . S
La560 O584 2.470 . S
La560 O589 2.482 . S
La560 O591 2.503 . S
La561 C571 2.928 . S
La561 O583 2.482 . S
La561 O585 2.503 . S
La561 O586 2.521 . S
La561 O587 2.628 . S
La561 O588 2.554 . S
La561 O589 2.757 . S
La561 O590 2.470 . S
C562 La560 2.928 . S
C562 C563 1.503 . S
C562 O580 1.261 . S
C562 O581 1.243 . S
C563 C562 1.503 . S
C563 C564 1.394 . S
C563 C568 1.373 . S
C564 C563 1.394 . S
C564 C565 1.380 . S
C564 H592 0.930 . S
C565 C564 1.380 . S
C565 C566 1.376 . S
C565 H593 0.930 . S
C566 C565 1.376 . S
C566 C567 1.370 . S
C567 C566 1.370 . S
C567 C568 1.396 . S
C567 H594 0.929 . S
C568 C563 1.373 . S
C568 C567 1.396 . S
C568 H595 0.929 . S
C569 O582 1.240 . S
C569 O583 1.289 . S
C570 O584 1.258 . S
C570 O585 1.256 . S
C571 La561 2.928 . S
C571 C572 1.503 . S
C571 O586 1.261 . S
C571 O587 1.243 . S
C572 C571 1.503 . S
C572 C573 1.394 . S
C572 C577 1.373 . S
C573 C572 1.394 . S
C573 C574 1.380 . S
C573 H596 0.930 . S
C574 C573 1.380 . S
C574 C575 1.376 . S
C574 H597 0.930 . S
C575 C574 1.376 . S
C575 C576 1.370 . S
C576 C575 1.370 . S
C576 C577 1.396 . S
C576 H598 0.929 . S
C577 C572 1.373 . S
C577 C576 1.396 . S
C577 H599 0.929 . S
C578 O588 1.240 . S
C578 O589 1.289 . S
C579 O590 1.258 . S
C579 O591 1.256 . S
O580 La560 2.521 . S
O580 C562 1.261 . S
O581 La560 2.628 . S
O581 C562 1.243 . S
O582 La560 2.554 . S
O582 C569 1.240 . S
O583 La560 2.757 . S
O583 La561 2.482 . S
O583 C569 1.289 . S
O584 La560 2.470 . S
O584 C570 1.258 . S
O585 La561 2.503 . S
O585 C570 1.256 . S
O586 La561 2.521 . S
O586 C571 1.261 . S
O587 La561 2.628 . S
O587 C571 1.243 . S
O588 La561 2.554 . S
O588 C578 1.240 . S
O589 La560 2.482 . S
O589 La561 2.757 . S
O589 C578 1.289 . S
O590 La561 2.470 . S
O590 C579 1.258 . S
O591 La560 2.503 . S
O591 C579 1.256 . S
H592 C564 0.930 . S
H593 C565 0.930 . S
H594 C567 0.929 . S
H595 C568 0.929 . S
H596 C573 0.930 . S
H597 C574 0.930 . S
H598 C576 0.929 . S
H599 C577 0.929 . S
La600 C602 2.928 . S
La600 O620 2.521 . S
La600 O621 2.628 . S
La600 O622 2.554 . S
La600 O623 2.757 . S
La600 O624 2.470 . S
La600 O629 2.482 . S
La600 O631 2.519 . S
La601 C611 2.928 1_554 S
La601 O623 2.482 . S
La601 O625 2.503 . S
La601 O626 2.521 . S
La601 O627 2.628 1_554 S
La601 O628 2.554 . S
La601 O629 2.757 . S
La601 O630 2.470 . S
C602 La600 2.928 . S
C602 C603 1.503 . S
C602 O620 1.261 . S
C602 O621 1.243 . S
C603 C602 1.503 . S
C603 C604 1.394 . S
C603 C608 1.373 . S
C604 C603 1.394 . S
C604 C605 1.380 . S
C604 H632 0.930 . S
C605 C604 1.380 . S
C605 C606 1.376 . S
C605 H633 0.930 . S
C606 C605 1.376 . S
C606 C607 1.370 . S
C607 C606 1.370 . S
C607 C608 1.396 . S
C607 H634 0.929 . S
C608 C603 1.373 . S
C608 C607 1.396 . S
C608 H635 0.929 . S
C609 O622 1.240 . S
C609 O623 1.289 . S
C610 O624 1.258 . S
C610 O625 1.256 . S
C611 La601 2.928 1_556 S
C611 C612 1.503 . S
C611 O626 1.261 1_556 S
C611 O627 1.243 . S
C612 C611 1.503 . S
C612 C613 1.394 . S
C612 C617 1.373 . S
C613 C612 1.394 . S
C613 C614 1.380 . S
C613 H636 0.930 . S
C614 C613 1.380 . S
C614 C615 1.376 . S
C614 H637 0.930 . S
C615 C614 1.376 . S
C615 C616 1.370 . S
C616 C615 1.370 . S
C616 C617 1.396 . S
C616 H638 0.929 . S
C617 C612 1.373 . S
C617 C616 1.396 . S
C617 H639 0.929 . S
C618 O628 1.240 . S
C618 O629 1.289 . S
C619 O630 1.258 1_556 S
C619 O631 1.249 1_556 S
O620 La600 2.521 . S
O620 C602 1.261 . S
O621 La600 2.628 . S
O621 C602 1.243 . S
O622 La600 2.554 . S
O622 C609 1.240 . S
O623 La600 2.757 . S
O623 La601 2.482 . S
O623 C609 1.289 . S
O624 La600 2.470 . S
O624 C610 1.258 . S
O625 La601 2.503 . S
O625 C610 1.256 . S
O626 La601 2.521 . S
O626 C611 1.261 1_554 S
O627 La601 2.628 1_556 S
O627 C611 1.243 . S
O628 La601 2.554 . S
O628 C618 1.240 . S
O629 La600 2.482 . S
O629 La601 2.757 . S
O629 C618 1.289 . S
O630 La601 2.470 . S
O630 C619 1.258 1_554 S
O631 La600 2.519 . S
O631 C619 1.249 1_554 S
H632 C604 0.930 . S
H633 C605 0.930 . S
H634 C607 0.929 . S
H635 C608 0.929 . S
H636 C613 0.930 . S
H637 C614 0.930 . S
H638 C616 0.929 . S
H639 C617 0.929 . S
La640 C642 2.928 . S
La640 O660 2.521 . S
La640 O661 2.628 . S
La640 O662 2.554 . S
La640 O663 2.757 . S
La640 O664 2.470 . S
La640 O669 2.482 . S
La640 O671 2.503 . S
La641 C651 2.928 . S
La641 O663 2.482 . S
La641 O665 2.503 . S
La641 O666 2.521 . S
La641 O667 2.628 . S
La641 O668 2.554 . S
La641 O669 2.757 . S
La641 O670 2.470 . S
C642 La640 2.928 . S
C642 C643 1.503 . S
C642 O660 1.261 . S
C642 O661 1.243 . S
C643 C642 1.503 . S
C643 C644 1.394 . S
C643 C648 1.373 . S
C644 C643 1.394 . S
C644 C645 1.380 . S
C644 H672 0.930 . S
C645 C644 1.380 . S
C645 C646 1.376 . S
C645 H673 0.930 . S
C646 C645 1.376 . S
C646 C647 1.370 . S
C647 C646 1.370 . S
C647 C648 1.396 . S
C647 H674 0.929 . S
C648 C643 1.373 . S
C648 C647 1.396 . S
C648 H675 0.929 . S
C649 O662 1.240 . S
C649 O663 1.289 . S
C650 O664 1.258 . S
C650 O665 1.256 . S
C651 La641 2.928 . S
C651 C652 1.503 . S
C651 O666 1.261 . S
C651 O667 1.243 . S
C652 C651 1.503 . S
C652 C653 1.394 . S
C652 C657 1.373 . S
C653 C652 1.394 . S
C653 C654 1.380 . S
C653 H676 0.930 . S
C654 C653 1.380 . S
C654 C655 1.376 . S
C654 H677 0.930 . S
C655 C654 1.376 . S
C655 C656 1.370 . S
C656 C655 1.370 . S
C656 C657 1.396 . S
C656 H678 0.929 . S
C657 C652 1.373 . S
C657 C656 1.396 . S
C657 H679 0.929 . S
C658 O668 1.240 . S
C658 O669 1.289 . S
C659 O670 1.258 . S
C659 O671 1.256 . S
O660 La640 2.521 . S
O660 C642 1.261 . S
O661 La640 2.628 . S
O661 C642 1.243 . S
O662 La640 2.554 . S
O662 C649 1.240 . S
O663 La640 2.757 . S
O663 La641 2.482 . S
O663 C649 1.289 . S
O664 La640 2.470 . S
O664 C650 1.258 . S
O665 La641 2.503 . S
O665 C650 1.256 . S
O666 La641 2.521 . S
O666 C651 1.261 . S
O667 La641 2.628 . S
O667 C651 1.243 . S
O668 La641 2.554 . S
O668 C658 1.240 . S
O669 La640 2.482 . S
O669 La641 2.757 . S
O669 C658 1.289 . S
O670 La641 2.470 . S
O670 C659 1.258 . S
O671 La640 2.503 . S
O671 C659 1.256 . S
H672 C644 0.930 . S
H673 C645 0.930 . S
H674 C647 0.929 . S
H675 C648 0.929 . S
H676 C653 0.930 . S
H677 C654 0.930 . S
H678 C656 0.929 . S
H679 C657 0.929 . S
La680 C682 2.928 1_554 S
La680 O700 2.521 . S
La680 O701 2.628 1_554 S
La680 O702 2.554 . S
La680 O703 2.757 . S
La680 O704 2.470 . S
La680 O709 2.482 . S
La680 O711 2.503 . S
La681 C691 2.928 . S
La681 O703 2.482 . S
La681 O705 2.519 . S
La681 O706 2.521 . S
La681 O707 2.628 . S
La681 O708 2.554 . S
La681 O709 2.757 . S
La681 O710 2.470 . S
C682 La680 2.928 1_556 S
C682 C683 1.503 . S
C682 O700 1.261 1_556 S
C682 O701 1.243 . S
C683 C682 1.503 . S
C683 C684 1.394 . S
C683 C688 1.373 . S
C684 C683 1.394 . S
C684 C685 1.380 . S
C684 H712 0.930 . S
C685 C684 1.380 . S
C685 C686 1.376 . S
C685 H713 0.930 . S
C686 C685 1.376 . S
C686 C687 1.370 . S
C687 C686 1.370 . S
C687 C688 1.396 . S
C687 H714 0.929 . S
C688 C683 1.373 . S
C688 C687 1.396 . S
C688 H715 0.929 . S
C689 O702 1.240 . S
C689 O703 1.289 . S
C690 O704 1.258 1_556 S
C690 O705 1.249 1_556 S
C691 La681 2.928 . S
C691 C692 1.503 . S
C691 O706 1.261 . S
C691 O707 1.243 . S
C692 C691 1.503 . S
C692 C693 1.394 . S
C692 C697 1.373 . S
C693 C692 1.394 . S
C693 C694 1.380 . S
C693 H716 0.930 . S
C694 C693 1.380 . S
C694 C695 1.376 . S
C694 H717 0.930 . S
C695 C694 1.376 . S
C695 C696 1.370 . S
C696 C695 1.370 . S
C696 C697 1.396 . S
C696 H718 0.929 . S
C697 C692 1.373 . S
C697 C696 1.396 . S
C697 H719 0.929 . S
C698 O708 1.240 . S
C698 O709 1.289 . S
C699 O710 1.258 . S
C699 O711 1.256 . S
O700 La680 2.521 . S
O700 C682 1.261 1_554 S
O701 La680 2.628 1_556 S
O701 C682 1.243 . S
O702 La680 2.554 . S
O702 C689 1.240 . S
O703 La680 2.757 . S
O703 La681 2.482 . S
O703 C689 1.289 . S
O704 La680 2.470 . S
O704 C690 1.258 1_554 S
O705 La681 2.519 . S
O705 C690 1.249 1_554 S
O706 La681 2.521 . S
O706 C691 1.261 . S
O707 La681 2.628 . S
O707 C691 1.243 . S
O708 La681 2.554 . S
O708 C698 1.240 . S
O709 La680 2.482 . S
O709 La681 2.757 . S
O709 C698 1.289 . S
O710 La681 2.470 . S
O710 C699 1.258 . S
O711 La680 2.503 . S
O711 C699 1.256 . S
H712 C684 0.930 . S
H713 C685 0.930 . S
H714 C687 0.929 . S
H715 C688 0.929 . S
H716 C693 0.930 . S
H717 C694 0.930 . S
H718 C696 0.929 . S
H719 C697 0.929 . S
La720 C722 2.928 . S
La720 O740 2.521 . S
La720 O741 2.628 . S
La720 O742 2.554 . S
La720 O743 2.757 . S
La720 O744 2.470 . S
La720 O749 2.482 . S
La720 O751 2.503 . S
La721 C731 2.928 . S
La721 O743 2.482 . S
La721 O745 2.503 . S
La721 O746 2.521 . S
La721 O747 2.628 . S
La721 O748 2.554 . S
La721 O749 2.757 . S
La721 O750 2.470 . S
C722 La720 2.928 . S
C722 C723 1.503 . S
C722 O740 1.261 . S
C722 O741 1.243 . S
C723 C722 1.503 . S
C723 C724 1.394 . S
C723 C728 1.373 . S
C724 C723 1.394 . S
C724 C725 1.380 . S
C724 H752 0.930 . S
C725 C724 1.380 . S
C725 C726 1.376 . S
C725 H753 0.930 . S
C726 C725 1.376 . S
C726 C727 1.370 . S
C727 C726 1.370 . S
C727 C728 1.396 . S
C727 H754 0.929 . S
C728 C723 1.373 . S
C728 C727 1.396 . S
C728 H755 0.929 . S
C729 O742 1.240 . S
C729 O743 1.289 . S
C730 O744 1.258 . S
C730 O745 1.256 . S
C731 La721 2.928 . S
C731 C732 1.503 . S
C731 O746 1.261 . S
C731 O747 1.243 . S
C732 C731 1.503 . S
C732 C733 1.394 . S
C732 C737 1.373 . S
C733 C732 1.394 . S
C733 C734 1.380 . S
C733 H756 0.930 . S
C734 C733 1.380 . S
C734 C735 1.376 . S
C734 H757 0.930 . S
C735 C734 1.376 . S
C735 C736 1.370 . S
C736 C735 1.370 . S
C736 C737 1.396 . S
C736 H758 0.929 . S
C737 C732 1.373 . S
C737 C736 1.396 . S
C737 H759 0.929 . S
C738 O748 1.240 . S
C738 O749 1.289 . S
C739 O750 1.258 . S
C739 O751 1.256 . S
O740 La720 2.521 . S
O740 C722 1.261 . S
O741 La720 2.628 . S
O741 C722 1.243 . S
O742 La720 2.554 . S
O742 C729 1.240 . S
O743 La720 2.757 . S
O743 La721 2.482 . S
O743 C729 1.289 . S
O744 La720 2.470 . S
O744 C730 1.258 . S
O745 La721 2.503 . S
O745 C730 1.256 . S
O746 La721 2.521 . S
O746 C731 1.261 . S
O747 La721 2.628 . S
O747 C731 1.243 . S
O748 La721 2.554 . S
O748 C738 1.240 . S
O749 La720 2.482 . S
O749 La721 2.757 . S
O749 C738 1.289 . S
O750 La721 2.470 . S
O750 C739 1.258 . S
O751 La720 2.503 . S
O751 C739 1.256 . S
H752 C724 0.930 . S
H753 C725 0.930 . S
H754 C727 0.929 . S
H755 C728 0.929 . S
H756 C733 0.930 . S
H757 C734 0.930 . S
H758 C736 0.929 . S
H759 C737 0.929 . S
La760 C762 2.928 . S
La760 O780 2.521 . S
La760 O781 2.628 . S
La760 O782 2.554 . S
La760 O783 2.757 . S
La760 O784 2.470 . S
La760 O789 2.482 . S
La760 O791 2.503 . S
La761 C771 2.928 . S
La761 O783 2.482 . S
La761 O785 2.503 . S
La761 O786 2.521 . S
La761 O787 2.628 . S
La761 O788 2.554 . S
La761 O789 2.757 . S
La761 O790 2.470 . S
C762 La760 2.928 . S
C762 C763 1.503 . S
C762 O780 1.261 . S
C762 O781 1.243 . S
C763 C762 1.503 . S
C763 C764 1.394 . S
C763 C768 1.373 . S
C764 C763 1.394 . S
C764 C765 1.380 . S
C764 H792 0.930 . S
C765 C764 1.380 . S
C765 C766 1.376 . S
C765 H793 0.930 . S
C766 C765 1.376 . S
C766 C767 1.370 . S
C767 C766 1.370 . S
C767 C768 1.396 . S
C767 H794 0.929 . S
C768 C763 1.373 . S
C768 C767 1.396 . S
C768 H795 0.929 . S
C769 O782 1.240 . S
C769 O783 1.289 . S
C770 O784 1.258 . S
C770 O785 1.256 . S
C771 La761 2.928 . S
C771 C772 1.503 . S
C771 O786 1.261 . S
C771 O787 1.243 . S
C772 C771 1.503 . S
C772 C773 1.394 . S
C772 C777 1.373 . S
C773 C772 1.394 . S
C773 C774 1.380 . S
C773 H796 0.930 . S
C774 C773 1.380 . S
C774 C775 1.376 . S
C774 H797 0.930 . S
C775 C774 1.376 . S
C775 C776 1.370 . S
C776 C775 1.370 . S
C776 C777 1.396 . S
C776 H798 0.929 . S
C777 C772 1.373 . S
C777 C776 1.396 . S
C777 H799 0.929 . S
C778 O788 1.240 . S
C778 O789 1.289 . S
C779 O790 1.258 . S
C779 O791 1.256 . S
O780 La760 2.521 . S
O780 C762 1.261 . S
O781 La760 2.628 . S
O781 C762 1.243 . S
O782 La760 2.554 . S
O782 C769 1.240 . S
O783 La760 2.757 . S
O783 La761 2.482 . S
O783 C769 1.289 . S
O784 La760 2.470 . S
O784 C770 1.258 . S
O785 La761 2.503 . S
O785 C770 1.256 . S
O786 La761 2.521 . S
O786 C771 1.261 . S
O787 La761 2.628 . S
O787 C771 1.243 . S
O788 La761 2.554 . S
O788 C778 1.240 . S
O789 La760 2.482 . S
O789 La761 2.757 . S
O789 C778 1.289 . S
O790 La761 2.470 . S
O790 C779 1.258 . S
O791 La760 2.503 . S
O791 C779 1.256 . S
H792 C764 0.930 . S
H793 C765 0.930 . S
H794 C767 0.929 . S
H795 C768 0.929 . S
H796 C773 0.930 . S
H797 C774 0.930 . S
H798 C776 0.929 . S
H799 C777 0.929 . S
La800 C802 2.928 . S
La800 O820 2.521 . S
La800 O821 2.628 . S
La800 O822 2.554 . S
La800 O823 2.757 . S
La800 O824 2.470 . S
La800 O829 2.482 . S
La800 O831 2.503 . S
La801 C811 2.928 . S
La801 O823 2.482 . S
La801 O825 2.503 . S
La801 O826 2.521 . S
La801 O827 2.628 . S
La801 O828 2.554 . S
La801 O829 2.757 . S
La801 O830 2.470 . S
C802 La800 2.928 . S
C802 C803 1.503 . S
C802 O820 1.261 . S
C802 O821 1.243 . S
C803 C802 1.503 . S
C803 C804 1.394 . S
C803 C808 1.373 . S
C804 C803 1.394 . S
C804 C805 1.380 . S
C804 H832 0.930 . S
C805 C804 1.380 . S
C805 C806 1.376 . S
C805 H833 0.930 . S
C806 C805 1.376 . S
C806 C807 1.370 . S
C807 C806 1.370 . S
C807 C808 1.396 . S
C807 H834 0.929 . S
C808 C803 1.373 . S
C808 C807 1.396 . S
C808 H835 0.929 . S
C809 O822 1.240 . S
C809 O823 1.289 . S
C810 O824 1.258 . S
C810 O825 1.256 . S
C811 La801 2.928 . S
C811 C812 1.503 . S
C811 O826 1.261 . S
C811 O827 1.243 . S
C812 C811 1.503 . S
C812 C813 1.394 . S
C812 C817 1.373 . S
C813 C812 1.394 . S
C813 C814 1.380 . S
C813 H836 0.930 . S
C814 C813 1.380 . S
C814 C815 1.376 . S
C814 H837 0.930 . S
C815 C814 1.376 . S
C815 C816 1.370 . S
C816 C815 1.370 . S
C816 C817 1.396 . S
C816 H838 0.929 . S
C817 C812 1.373 . S
C817 C816 1.396 . S
C817 H839 0.929 . S
C818 O828 1.240 . S
C818 O829 1.289 . S
C819 O830 1.258 . S
C819 O831 1.256 . S
O820 La800 2.521 . S
O820 C802 1.261 . S
O821 La800 2.628 . S
O821 C802 1.243 . S
O822 La800 2.554 . S
O822 C809 1.240 . S
O823 La800 2.757 . S
O823 La801 2.482 . S
O823 C809 1.289 . S
O824 La800 2.470 . S
O824 C810 1.258 . S
O825 La801 2.503 . S
O825 C810 1.256 . S
O826 La801 2.521 . S
O826 C811 1.261 . S
O827 La801 2.628 . S
O827 C811 1.243 . S
O828 La801 2.554 . S
O828 C818 1.240 . S
O829 La800 2.482 . S
O829 La801 2.757 . S
O829 C818 1.289 . S
O830 La801 2.470 . S
O830 C819 1.258 . S
O831 La800 2.503 . S
O831 C819 1.256 . S
H832 C804 0.930 . S
H833 C805 0.930 . S
H834 C807 0.929 . S
H835 C808 0.929 . S
H836 C813 0.930 . S
H837 C814 0.930 . S
H838 C816 0.929 . S
H839 C817 0.929 . S
La840 C842 2.928 1_556 S
La840 O860 2.521 . S
La840 O861 2.628 1_556 S
La840 O862 2.554 . S
La840 O863 2.757 . S
La840 O864 2.470 . S
La840 O869 2.482 . S
La840 O871 2.503 . S
La841 C851 2.928 . S
La841 O863 2.482 . S
La841 O865 2.519 . S
La841 O866 2.521 . S
La841 O867 2.628 . S
La841 O868 2.554 . S
La841 O869 2.757 . S
La841 O870 2.470 . S
C842 La840 2.928 1_554 S
C842 C843 1.503 . S
C842 O860 1.261 1_554 S
C842 O861 1.243 . S
C843 C842 1.503 . S
C843 C844 1.394 . S
C843 C848 1.373 . S
C844 C843 1.394 . S
C844 C845 1.380 . S
C844 H872 0.930 . S
C845 C844 1.380 . S
C845 C846 1.376 . S
C845 H873 0.930 . S
C846 C845 1.376 . S
C846 C847 1.370 . S
C847 C846 1.370 . S
C847 C848 1.396 . S
C847 H874 0.929 . S
C848 C843 1.373 . S
C848 C847 1.396 . S
C848 H875 0.929 . S
C849 O862 1.240 . S
C849 O863 1.289 . S
C850 O864 1.258 1_554 S
C850 O865 1.249 1_554 S
C851 La841 2.928 . S
C851 C852 1.503 . S
C851 O866 1.261 . S
C851 O867 1.243 . S
C852 C851 1.503 . S
C852 C853 1.394 . S
C852 C857 1.373 . S
C853 C852 1.394 . S
C853 C854 1.380 . S
C853 H876 0.930 . S
C854 C853 1.380 . S
C854 C855 1.376 . S
C854 H877 0.930 . S
C855 C854 1.376 . S
C855 C856 1.370 . S
C856 C855 1.370 . S
C856 C857 1.396 . S
C856 H878 0.929 . S
C857 C852 1.373 . S
C857 C856 1.396 . S
C857 H879 0.929 . S
C858 O868 1.240 . S
C858 O869 1.289 . S
C859 O870 1.258 . S
C859 O871 1.256 . S
O860 La840 2.521 . S
O860 C842 1.261 1_556 S
O861 La840 2.628 1_554 S
O861 C842 1.243 . S
O862 La840 2.554 . S
O862 C849 1.240 . S
O863 La840 2.757 . S
O863 La841 2.482 . S
O863 C849 1.289 . S
O864 La840 2.470 . S
O864 C850 1.258 1_556 S
O865 La841 2.519 . S
O865 C850 1.249 1_556 S
O866 La841 2.521 . S
O866 C851 1.261 . S
O867 La841 2.628 . S
O867 C851 1.243 . S
O868 La841 2.554 . S
O868 C858 1.240 . S
O869 La840 2.482 . S
O869 La841 2.757 . S
O869 C858 1.289 . S
O870 La841 2.470 . S
O870 C859 1.258 . S
O871 La840 2.503 . S
O871 C859 1.256 . S
H872 C844 0.930 . S
H873 C845 0.930 . S
H874 C847 0.929 . S
H875 C848 0.929 . S
H876 C853 0.930 . S
H877 C854 0.930 . S
H878 C856 0.929 . S
H879 C857 0.929 . S
La880 C882 2.928 . S
La880 O900 2.521 . S
La880 O901 2.628 . S
La880 O902 2.554 . S
La880 O903 2.757 . S
La880 O904 2.470 . S
La880 O909 2.482 . S
La880 O911 2.503 . S
La881 C891 2.928 . S
La881 O903 2.482 . S
La881 O905 2.503 . S
La881 O906 2.521 . S
La881 O907 2.628 . S
La881 O908 2.554 . S
La881 O909 2.757 . S
La881 O910 2.470 . S
C882 La880 2.928 . S
C882 C883 1.503 . S
C882 O900 1.261 . S
C882 O901 1.243 . S
C883 C882 1.503 . S
C883 C884 1.394 . S
C883 C888 1.373 . S
C884 C883 1.394 . S
C884 C885 1.380 . S
C884 H912 0.930 . S
C885 C884 1.380 . S
C885 C886 1.376 . S
C885 H913 0.930 . S
C886 C885 1.376 . S
C886 C887 1.370 . S
C887 C886 1.370 . S
C887 C888 1.396 . S
C887 H914 0.929 . S
C888 C883 1.373 . S
C888 C887 1.396 . S
C888 H915 0.929 . S
C889 O902 1.240 . S
C889 O903 1.289 . S
C890 O904 1.258 . S
C890 O905 1.256 . S
C891 La881 2.928 . S
C891 C892 1.503 . S
C891 O906 1.261 . S
C891 O907 1.243 . S
C892 C891 1.503 . S
C892 C893 1.394 . S
C892 C897 1.373 . S
C893 C892 1.394 . S
C893 C894 1.380 . S
C893 H916 0.930 . S
C894 C893 1.380 . S
C894 C895 1.376 . S
C894 H917 0.930 . S
C895 C894 1.376 . S
C895 C896 1.370 . S
C896 C895 1.370 . S
C896 C897 1.396 . S
C896 H918 0.929 . S
C897 C892 1.373 . S
C897 C896 1.396 . S
C897 H919 0.929 . S
C898 O908 1.240 . S
C898 O909 1.289 . S
C899 O910 1.258 . S
C899 O911 1.256 . S
O900 La880 2.521 . S
O900 C882 1.261 . S
O901 La880 2.628 . S
O901 C882 1.243 . S
O902 La880 2.554 . S
O902 C889 1.240 . S
O903 La880 2.757 . S
O903 La881 2.482 . S
O903 C889 1.289 . S
O904 La880 2.470 . S
O904 C890 1.258 . S
O905 La881 2.503 . S
O905 C890 1.256 . S
O906 La881 2.521 . S
O906 C891 1.261 . S
O907 La881 2.628 . S
O907 C891 1.243 . S
O908 La881 2.554 . S
O908 C898 1.240 . S
O909 La880 2.482 . S
O909 La881 2.757 . S
O909 C898 1.289 . S
O910 La881 2.470 . S
O910 C899 1.258 . S
O911 La880 2.503 . S
O911 C899 1.256 . S
H912 C884 0.930 . S
H913 C885 0.930 . S
H914 C887 0.929 . S
H915 C888 0.929 . S
H916 C893 0.930 . S
H917 C894 0.930 . S
H918 C896 0.929 . S
H919 C897 0.929 . S
La920 C922 2.928 . S
La920 O940 2.521 . S
La920 O941 2.628 . S
La920 O942 2.554 . S
La920 O943 2.757 . S
La920 O944 2.470 . S
La920 O949 2.482 . S
La920 O951 2.503 . S
La921 C931 2.928 . S
La921 O943 2.482 . S
La921 O945 2.503 . S
La921 O946 2.521 . S
La921 O947 2.628 . S
La921 O948 2.554 . S
La921 O949 2.757 . S
La921 O950 2.470 . S
C922 La920 2.928 . S
C922 C923 1.503 . S
C922 O940 1.261 . S
C922 O941 1.243 . S
C923 C922 1.503 . S
C923 C924 1.394 . S
C923 C928 1.373 . S
C924 C923 1.394 . S
C924 C925 1.380 . S
C924 H952 0.930 . S
C925 C924 1.380 . S
C925 C926 1.376 . S
C925 H953 0.930 . S
C926 C925 1.376 . S
C926 C927 1.370 . S
C927 C926 1.370 . S
C927 C928 1.396 . S
C927 H954 0.929 . S
C928 C923 1.373 . S
C928 C927 1.396 . S
C928 H955 0.929 . S
C929 O942 1.240 . S
C929 O943 1.289 . S
C930 O944 1.258 . S
C930 O945 1.256 . S
C931 La921 2.928 . S
C931 C932 1.503 . S
C931 O946 1.261 . S
C931 O947 1.243 . S
C932 C931 1.503 . S
C932 C933 1.394 . S
C932 C937 1.373 . S
C933 C932 1.394 . S
C933 C934 1.380 . S
C933 H956 0.930 . S
C934 C933 1.380 . S
C934 C935 1.376 . S
C934 H957 0.930 . S
C935 C934 1.376 . S
C935 C936 1.370 . S
C936 C935 1.370 . S
C936 C937 1.396 . S
C936 H958 0.929 . S
C937 C932 1.373 . S
C937 C936 1.396 . S
C937 H959 0.929 . S
C938 O948 1.240 . S
C938 O949 1.289 . S
C939 O950 1.258 . S
C939 O951 1.256 . S
O940 La920 2.521 . S
O940 C922 1.261 . S
O941 La920 2.628 . S
O941 C922 1.243 . S
O942 La920 2.554 . S
O942 C929 1.240 . S
O943 La920 2.757 . S
O943 La921 2.482 . S
O943 C929 1.289 . S
O944 La920 2.470 . S
O944 C930 1.258 . S
O945 La921 2.503 . S
O945 C930 1.256 . S
O946 La921 2.521 . S
O946 C931 1.261 . S
O947 La921 2.628 . S
O947 C931 1.243 . S
O948 La921 2.554 . S
O948 C938 1.240 . S
O949 La920 2.482 . S
O949 La921 2.757 . S
O949 C938 1.289 . S
O950 La921 2.470 . S
O950 C939 1.258 . S
O951 La920 2.503 . S
O951 C939 1.256 . S
H952 C924 0.930 . S
H953 C925 0.930 . S
H954 C927 0.929 . S
H955 C928 0.929 . S
H956 C933 0.930 . S
H957 C934 0.930 . S
H958 C936 0.929 . S
H959 C937 0.929 . S
La960 C962 2.928 . S
La960 O980 2.521 . S
La960 O981 2.628 . S
La960 O982 2.554 . S
La960 O983 2.757 . S
La960 O984 2.470 . S
La960 O989 2.482 . S
La960 O991 2.503 . S
La961 C971 2.928 . S
La961 O983 2.482 . S
La961 O985 2.503 . S
La961 O986 2.521 . S
La961 O987 2.628 . S
La961 O988 2.554 . S
La961 O989 2.757 . S
La961 O990 2.470 . S
C962 La960 2.928 . S
C962 C963 1.503 . S
C962 O980 1.261 . S
C962 O981 1.243 . S
C963 C962 1.503 . S
C963 C964 1.394 . S
C963 C968 1.373 . S
C964 C963 1.394 . S
C964 C965 1.380 . S
C964 H992 0.930 . S
C965 C964 1.380 . S
C965 C966 1.376 . S
C965 H993 0.930 . S
C966 C965 1.376 . S
C966 C967 1.370 . S
C967 C966 1.370 . S
C967 C968 1.396 . S
C967 H994 0.929 . S
C968 C963 1.373 . S
C968 C967 1.396 . S
C968 H995 0.929 . S
C969 O982 1.240 . S
C969 O983 1.289 . S
C970 O984 1.258 . S
C970 O985 1.256 . S
C971 La961 2.928 . S
C971 C972 1.503 . S
C971 O986 1.261 . S
C971 O987 1.243 . S
C972 C971 1.503 . S
C972 C973 1.394 . S
C972 C977 1.373 . S
C973 C972 1.394 . S
C973 C974 1.380 . S
C973 H996 0.930 . S
C974 C973 1.380 . S
C974 C975 1.376 . S
C974 H997 0.930 . S
C975 C974 1.376 . S
C975 C976 1.370 . S
C976 C975 1.370 . S
C976 C977 1.396 . S
C976 H998 0.929 . S
C977 C972 1.373 . S
C977 C976 1.396 . S
C977 H999 0.929 . S
C978 O988 1.240 . S
C978 O989 1.289 . S
C979 O990 1.258 . S
C979 O991 1.256 . S
O980 La960 2.521 . S
O980 C962 1.261 . S
O981 La960 2.628 . S
O981 C962 1.243 . S
O982 La960 2.554 . S
O982 C969 1.240 . S
O983 La960 2.757 . S
O983 La961 2.482 . S
O983 C969 1.289 . S
O984 La960 2.470 . S
O984 C970 1.258 . S
O985 La961 2.503 . S
O985 C970 1.256 . S
O986 La961 2.521 . S
O986 C971 1.261 . S
O987 La961 2.628 . S
O987 C971 1.243 . S
O988 La961 2.554 . S
O988 C978 1.240 . S
O989 La960 2.482 . S
O989 La961 2.757 . S
O989 C978 1.289 . S
O990 La961 2.470 . S
O990 C979 1.258 . S
O991 La960 2.503 . S
O991 C979 1.256 . S
H992 C964 0.930 . S
H993 C965 0.930 . S
H994 C967 0.929 . S
H995 C968 0.929 . S
H996 C973 0.930 . S
H997 C974 0.930 . S
H998 C976 0.929 . S
H999 C977 0.929 . S
La1000 C1002 2.928 . S
La1000 O1020 2.521 . S
La1000 O1021 2.628 . S
La1000 O1022 2.554 . S
La1000 O1023 2.757 . S
La1000 O1024 2.470 . S
La1000 O1029 2.482 . S
La1000 O1031 2.519 . S
La1001 C1011 2.928 1_556 S
La1001 O1023 2.482 . S
La1001 O1025 2.503 . S
La1001 O1026 2.521 . S
La1001 O1027 2.628 1_556 S
La1001 O1028 2.554 . S
La1001 O1029 2.757 . S
La1001 O1030 2.470 . S
C1002 La1000 2.928 . S
C1002 C1003 1.503 . S
C1002 O1020 1.261 . S
C1002 O1021 1.243 . S
C1003 C1002 1.503 . S
C1003 C1004 1.394 . S
C1003 C1008 1.373 . S
C1004 C1003 1.394 . S
C1004 C1005 1.380 . S
C1004 H1032 0.930 . S
C1005 C1004 1.380 . S
C1005 C1006 1.376 . S
C1005 H1033 0.930 . S
C1006 C1005 1.376 . S
C1006 C1007 1.370 . S
C1007 C1006 1.370 . S
C1007 C1008 1.396 . S
C1007 H1034 0.929 . S
C1008 C1003 1.373 . S
C1008 C1007 1.396 . S
C1008 H1035 0.929 . S
C1009 O1022 1.240 . S
C1009 O1023 1.289 . S
C1010 O1024 1.258 . S
C1010 O1025 1.256 . S
C1011 La1001 2.928 1_554 S
C1011 C1012 1.503 . S
C1011 O1026 1.261 1_554 S
C1011 O1027 1.243 . S
C1012 C1011 1.503 . S
C1012 C1013 1.394 . S
C1012 C1017 1.373 . S
C1013 C1012 1.394 . S
C1013 C1014 1.380 . S
C1013 H1036 0.930 . S
C1014 C1013 1.380 . S
C1014 C1015 1.376 . S
C1014 H1037 0.930 . S
C1015 C1014 1.376 . S
C1015 C1016 1.370 . S
C1016 C1015 1.370 . S
C1016 C1017 1.396 . S
C1016 H1038 0.929 . S
C1017 C1012 1.373 . S
C1017 C1016 1.396 . S
C1017 H1039 0.929 . S
C1018 O1028 1.240 . S
C1018 O1029 1.289 . S
C1019 O1030 1.258 1_554 S
C1019 O1031 1.249 1_554 S
O1020 La1000 2.521 . S
O1020 C1002 1.261 . S
O1021 La1000 2.628 . S
O1021 C1002 1.243 . S
O1022 La1000 2.554 . S
O1022 C1009 1.240 . S
O1023 La1000 2.757 . S
O1023 La1001 2.482 . S
O1023 C1009 1.289 . S
O1024 La1000 2.470 . S
O1024 C1010 1.258 . S
O1025 La1001 2.503 . S
O1025 C1010 1.256 . S
O1026 La1001 2.521 . S
O1026 C1011 1.261 1_556 S
O1027 La1001 2.628 1_554 S
O1027 C1011 1.243 . S
O1028 La1001 2.554 . S
O1028 C1018 1.240 . S
O1029 La1000 2.482 . S
O1029 La1001 2.757 . S
O1029 C1018 1.289 . S
O1030 La1001 2.470 . S
O1030 C1019 1.258 1_556 S
O1031 La1000 2.519 . S
O1031 C1019 1.249 1_556 S
H1032 C1004 0.930 . S
H1033 C1005 0.930 . S
H1034 C1007 0.929 . S
H1035 C1008 0.929 . S
H1036 C1013 0.930 . S
H1037 C1014 0.930 . S
H1038 C1016 0.929 . S
H1039 C1017 0.929 . S
La1040 C1042 2.928 . S
La1040 O1060 2.521 . S
La1040 O1061 2.628 . S
La1040 O1062 2.554 . S
La1040 O1063 2.757 . S
La1040 O1064 2.470 . S
La1040 O1069 2.482 . S
La1040 O1071 2.503 . S
La1041 C1051 2.928 . S
La1041 O1063 2.482 . S
La1041 O1065 2.503 . S
La1041 O1066 2.521 . S
La1041 O1067 2.628 . S
La1041 O1068 2.554 . S
La1041 O1069 2.757 . S
La1041 O1070 2.470 . S
C1042 La1040 2.928 . S
C1042 C1043 1.503 . S
C1042 O1060 1.261 . S
C1042 O1061 1.243 . S
C1043 C1042 1.503 . S
C1043 C1044 1.394 . S
C1043 C1048 1.373 . S
C1044 C1043 1.394 . S
C1044 C1045 1.380 . S
C1044 H1072 0.930 . S
C1045 C1044 1.380 . S
C1045 C1046 1.376 . S
C1045 H1073 0.930 . S
C1046 C1045 1.376 . S
C1046 C1047 1.370 . S
C1047 C1046 1.370 . S
C1047 C1048 1.396 . S
C1047 H1074 0.929 . S
C1048 C1043 1.373 . S
C1048 C1047 1.396 . S
C1048 H1075 0.929 . S
C1049 O1062 1.240 . S
C1049 O1063 1.289 . S
C1050 O1064 1.258 . S
C1050 O1065 1.256 . S
C1051 La1041 2.928 . S
C1051 C1052 1.503 . S
C1051 O1066 1.261 . S
C1051 O1067 1.243 . S
C1052 C1051 1.503 . S
C1052 C1053 1.394 . S
C1052 C1057 1.373 . S
C1053 C1052 1.394 . S
C1053 C1054 1.380 . S
C1053 H1076 0.930 . S
C1054 C1053 1.380 . S
C1054 C1055 1.376 . S
C1054 H1077 0.930 . S
C1055 C1054 1.376 . S
C1055 C1056 1.370 . S
C1056 C1055 1.370 . S
C1056 C1057 1.396 . S
C1056 H1078 0.929 . S
C1057 C1052 1.373 . S
C1057 C1056 1.396 . S
C1057 H1079 0.929 . S
C1058 O1068 1.240 . S
C1058 O1069 1.289 . S
C1059 O1070 1.258 . S
C1059 O1071 1.256 . S
O1060 La1040 2.521 . S
O1060 C1042 1.261 . S
O1061 La1040 2.628 . S
O1061 C1042 1.243 . S
O1062 La1040 2.554 . S
O1062 C1049 1.240 . S
O1063 La1040 2.757 . S
O1063 La1041 2.482 . S
O1063 C1049 1.289 . S
O1064 La1040 2.470 . S
O1064 C1050 1.258 . S
O1065 La1041 2.503 . S
O1065 C1050 1.256 . S
O1066 La1041 2.521 . S
O1066 C1051 1.261 . S
O1067 La1041 2.628 . S
O1067 C1051 1.243 . S
O1068 La1041 2.554 . S
O1068 C1058 1.240 . S
O1069 La1040 2.482 . S
O1069 La1041 2.757 . S
O1069 C1058 1.289 . S
O1070 La1041 2.470 . S
O1070 C1059 1.258 . S
O1071 La1040 2.503 . S
O1071 C1059 1.256 . S
H1072 C1044 0.930 . S
H1073 C1045 0.930 . S
H1074 C1047 0.929 . S
H1075 C1048 0.929 . S
H1076 C1053 0.930 . S
H1077 C1054 0.930 . S
H1078 C1056 0.929 . S
H1079 C1057 0.929 . S
La1080 C1082 2.928 . S
La1080 O1100 2.521 . S
La1080 O1101 2.628 . S
La1080 O1102 2.554 . S
La1080 O1103 2.757 . S
La1080 O1104 2.470 . S
La1080 O1109 2.482 . S
La1080 O1111 2.503 . S
La1081 C1091 2.928 . S
La1081 O1103 2.482 . S
La1081 O1105 2.503 . S
La1081 O1106 2.521 . S
La1081 O1107 2.628 . S
La1081 O1108 2.554 . S
La1081 O1109 2.757 . S
La1081 O1110 2.470 . S
C1082 La1080 2.928 . S
C1082 C1083 1.503 . S
C1082 O1100 1.261 . S
C1082 O1101 1.243 . S
C1083 C1082 1.503 . S
C1083 C1084 1.394 . S
C1083 C1088 1.373 . S
C1084 C1083 1.394 . S
C1084 C1085 1.380 . S
C1084 H1112 0.930 . S
C1085 C1084 1.380 . S
C1085 C1086 1.376 . S
C1085 H1113 0.930 . S
C1086 C1085 1.376 . S
C1086 C1087 1.370 . S
C1087 C1086 1.370 . S
C1087 C1088 1.396 . S
C1087 H1114 0.929 . S
C1088 C1083 1.373 . S
C1088 C1087 1.396 . S
C1088 H1115 0.929 . S
C1089 O1102 1.240 . S
C1089 O1103 1.289 . S
C1090 O1104 1.258 . S
C1090 O1105 1.256 . S
C1091 La1081 2.928 . S
C1091 C1092 1.503 . S
C1091 O1106 1.261 . S
C1091 O1107 1.243 . S
C1092 C1091 1.503 . S
C1092 C1093 1.394 . S
C1092 C1097 1.373 . S
C1093 C1092 1.394 . S
C1093 C1094 1.380 . S
C1093 H1116 0.930 . S
C1094 C1093 1.380 . S
C1094 C1095 1.376 . S
C1094 H1117 0.930 . S
C1095 C1094 1.376 . S
C1095 C1096 1.370 . S
C1096 C1095 1.370 . S
C1096 C1097 1.396 . S
C1096 H1118 0.929 . S
C1097 C1092 1.373 . S
C1097 C1096 1.396 . S
C1097 H1119 0.929 . S
C1098 O1108 1.240 . S
C1098 O1109 1.289 . S
C1099 O1110 1.258 . S
C1099 O1111 1.256 . S
O1100 La1080 2.521 . S
O1100 C1082 1.261 . S
O1101 La1080 2.628 . S
O1101 C1082 1.243 . S
O1102 La1080 2.554 . S
O1102 C1089 1.240 . S
O1103 La1080 2.757 . S
O1103 La1081 2.482 . S
O1103 C1089 1.289 . S
O1104 La1080 2.470 . S
O1104 C1090 1.258 . S
O1105 La1081 2.503 . S
O1105 C1090 1.256 . S
O1106 La1081 2.521 . S
O1106 C1091 1.261 . S
O1107 La1081 2.628 . S
O1107 C1091 1.243 . S
O1108 La1081 2.554 . S
O1108 C1098 1.240 . S
O1109 La1080 2.482 . S
O1109 La1081 2.757 . S
O1109 C1098 1.289 . S
O1110 La1081 2.470 . S
O1110 C1099 1.258 . S
O1111 La1080 2.503 . S
O1111 C1099 1.256 . S
H1112 C1084 0.930 . S
H1113 C1085 0.930 . S
H1114 C1087 0.929 . S
H1115 C1088 0.929 . S
H1116 C1093 0.930 . S
H1117 C1094 0.930 . S
H1118 C1096 0.929 . S
H1119 C1097 0.929 . S
La1120 C1122 2.928 . S
La1120 O1140 2.521 . S
La1120 O1141 2.628 . S
La1120 O1142 2.554 . S
La1120 O1143 2.757 . S
La1120 O1144 2.470 . S
La1120 O1149 2.482 . S
La1120 O1151 2.503 . S
La1121 C1131 2.928 . S
La1121 O1143 2.482 . S
La1121 O1145 2.503 . S
La1121 O1146 2.521 . S
La1121 O1147 2.628 . S
La1121 O1148 2.554 . S
La1121 O1149 2.757 . S
La1121 O1150 2.470 . S
C1122 La1120 2.928 . S
C1122 C1123 1.503 . S
C1122 O1140 1.261 . S
C1122 O1141 1.243 . S
C1123 C1122 1.503 . S
C1123 C1124 1.394 . S
C1123 C1128 1.373 . S
C1124 C1123 1.394 . S
C1124 C1125 1.380 . S
C1124 H1152 0.930 . S
C1125 C1124 1.380 . S
C1125 C1126 1.376 . S
C1125 H1153 0.930 . S
C1126 C1125 1.376 . S
C1126 C1127 1.370 . S
C1127 C1126 1.370 . S
C1127 C1128 1.396 . S
C1127 H1154 0.929 . S
C1128 C1123 1.373 . S
C1128 C1127 1.396 . S
C1128 H1155 0.929 . S
C1129 O1142 1.240 . S
C1129 O1143 1.289 . S
C1130 O1144 1.258 . S
C1130 O1145 1.256 . S
C1131 La1121 2.928 . S
C1131 C1132 1.503 . S
C1131 O1146 1.261 . S
C1131 O1147 1.243 . S
C1132 C1131 1.503 . S
C1132 C1133 1.394 . S
C1132 C1137 1.373 . S
C1133 C1132 1.394 . S
C1133 C1134 1.380 . S
C1133 H1156 0.930 . S
C1134 C1133 1.380 . S
C1134 C1135 1.376 . S
C1134 H1157 0.930 . S
C1135 C1134 1.376 . S
C1135 C1136 1.370 . S
C1136 C1135 1.370 . S
C1136 C1137 1.396 . S
C1136 H1158 0.929 . S
C1137 C1132 1.373 . S
C1137 C1136 1.396 . S
C1137 H1159 0.929 . S
C1138 O1148 1.240 . S
C1138 O1149 1.289 . S
C1139 O1150 1.258 . S
C1139 O1151 1.256 . S
O1140 La1120 2.521 . S
O1140 C1122 1.261 . S
O1141 La1120 2.628 . S
O1141 C1122 1.243 . S
O1142 La1120 2.554 . S
O1142 C1129 1.240 . S
O1143 La1120 2.757 . S
O1143 La1121 2.482 . S
O1143 C1129 1.289 . S
O1144 La1120 2.470 . S
O1144 C1130 1.258 . S
O1145 La1121 2.503 . S
O1145 C1130 1.256 . S
O1146 La1121 2.521 . S
O1146 C1131 1.261 . S
O1147 La1121 2.628 . S
O1147 C1131 1.243 . S
O1148 La1121 2.554 . S
O1148 C1138 1.240 . S
O1149 La1120 2.482 . S
O1149 La1121 2.757 . S
O1149 C1138 1.289 . S
O1150 La1121 2.470 . S
O1150 C1139 1.258 . S
O1151 La1120 2.503 . S
O1151 C1139 1.256 . S
H1152 C1124 0.930 . S
H1153 C1125 0.930 . S
H1154 C1127 0.929 . S
H1155 C1128 0.929 . S
H1156 C1133 0.930 . S
H1157 C1134 0.930 . S
H1158 C1136 0.929 . S
H1159 C1137 0.929 . S
La1160 C1162 2.928 . S
La1160 O1180 2.521 . S
La1160 O1181 2.628 . S
La1160 O1182 2.554 . S
La1160 O1183 2.757 . S
La1160 O1184 2.470 . S
La1160 O1189 2.482 . S
La1160 O1191 2.519 . S
La1161 C1171 2.928 1_554 S
La1161 O1183 2.482 . S
La1161 O1185 2.503 . S
La1161 O1186 2.521 . S
La1161 O1187 2.628 1_554 S
La1161 O1188 2.554 . S
La1161 O1189 2.757 . S
La1161 O1190 2.470 . S
C1162 La1160 2.928 . S
C1162 C1163 1.503 . S
C1162 O1180 1.261 . S
C1162 O1181 1.243 . S
C1163 C1162 1.503 . S
C1163 C1164 1.394 . S
C1163 C1168 1.373 . S
C1164 C1163 1.394 . S
C1164 C1165 1.380 . S
C1164 H1192 0.930 . S
C1165 C1164 1.380 . S
C1165 C1166 1.376 . S
C1165 H1193 0.930 . S
C1166 C1165 1.376 . S
C1166 C1167 1.370 . S
C1167 C1166 1.370 . S
C1167 C1168 1.396 . S
C1167 H1194 0.929 . S
C1168 C1163 1.373 . S
C1168 C1167 1.396 . S
C1168 H1195 0.929 . S
C1169 O1182 1.240 . S
C1169 O1183 1.289 . S
C1170 O1184 1.258 . S
C1170 O1185 1.256 . S
C1171 La1161 2.928 1_556 S
C1171 C1172 1.503 . S
C1171 O1186 1.261 1_556 S
C1171 O1187 1.243 . S
C1172 C1171 1.503 . S
C1172 C1173 1.394 . S
C1172 C1177 1.373 . S
C1173 C1172 1.394 . S
C1173 C1174 1.380 . S
C1173 H1196 0.930 . S
C1174 C1173 1.380 . S
C1174 C1175 1.376 . S
C1174 H1197 0.930 . S
C1175 C1174 1.376 . S
C1175 C1176 1.370 . S
C1176 C1175 1.370 . S
C1176 C1177 1.396 . S
C1176 H1198 0.929 . S
C1177 C1172 1.373 . S
C1177 C1176 1.396 . S
C1177 H1199 0.929 . S
C1178 O1188 1.240 . S
C1178 O1189 1.289 . S
C1179 O1190 1.258 1_556 S
C1179 O1191 1.249 1_556 S
O1180 La1160 2.521 . S
O1180 C1162 1.261 . S
O1181 La1160 2.628 . S
O1181 C1162 1.243 . S
O1182 La1160 2.554 . S
O1182 C1169 1.240 . S
O1183 La1160 2.757 . S
O1183 La1161 2.482 . S
O1183 C1169 1.289 . S
O1184 La1160 2.470 . S
O1184 C1170 1.258 . S
O1185 La1161 2.503 . S
O1185 C1170 1.256 . S
O1186 La1161 2.521 . S
O1186 C1171 1.261 1_554 S
O1187 La1161 2.628 1_556 S
O1187 C1171 1.243 . S
O1188 La1161 2.554 . S
O1188 C1178 1.240 . S
O1189 La1160 2.482 . S
O1189 La1161 2.757 . S
O1189 C1178 1.289 . S
O1190 La1161 2.470 . S
O1190 C1179 1.258 1_554 S
O1191 La1160 2.519 . S
O1191 C1179 1.249 1_554 S
H1192 C1164 0.930 . S
H1193 C1165 0.930 . S
H1194 C1167 0.929 . S
H1195 C1168 0.929 . S
H1196 C1173 0.930 . S
H1197 C1174 0.930 . S
H1198 C1176 0.929 . S
H1199 C1177 0.929 . S
La1200 C1202 2.928 . S
La1200 O1220 2.521 . S
La1200 O1221 2.628 . S
La1200 O1222 2.554 . S
La1200 O1223 2.757 . S
La1200 O1224 2.470 . S
La1200 O1229 2.482 . S
La1200 O1231 2.503 . S
La1201 C1211 2.928 . S
La1201 O1223 2.482 . S
La1201 O1225 2.503 . S
La1201 O1226 2.521 . S
La1201 O1227 2.628 . S
La1201 O1228 2.554 . S
La1201 O1229 2.757 . S
La1201 O1230 2.470 . S
C1202 La1200 2.928 . S
C1202 C1203 1.503 . S
C1202 O1220 1.261 . S
C1202 O1221 1.243 . S
C1203 C1202 1.503 . S
C1203 C1204 1.394 . S
C1203 C1208 1.373 . S
C1204 C1203 1.394 . S
C1204 C1205 1.380 . S
C1204 H1232 0.930 . S
C1205 C1204 1.380 . S
C1205 C1206 1.376 . S
C1205 H1233 0.930 . S
C1206 C1205 1.376 . S
C1206 C1207 1.370 . S
C1207 C1206 1.370 . S
C1207 C1208 1.396 . S
C1207 H1234 0.929 . S
C1208 C1203 1.373 . S
C1208 C1207 1.396 . S
C1208 H1235 0.929 . S
C1209 O1222 1.240 . S
C1209 O1223 1.289 . S
C1210 O1224 1.258 . S
C1210 O1225 1.256 . S
C1211 La1201 2.928 . S
C1211 C1212 1.503 . S
C1211 O1226 1.261 . S
C1211 O1227 1.243 . S
C1212 C1211 1.503 . S
C1212 C1213 1.394 . S
C1212 C1217 1.373 . S
C1213 C1212 1.394 . S
C1213 C1214 1.380 . S
C1213 H1236 0.930 . S
C1214 C1213 1.380 . S
C1214 C1215 1.376 . S
C1214 H1237 0.930 . S
C1215 C1214 1.376 . S
C1215 C1216 1.370 . S
C1216 C1215 1.370 . S
C1216 C1217 1.396 . S
C1216 H1238 0.929 . S
C1217 C1212 1.373 . S
C1217 C1216 1.396 . S
C1217 H1239 0.929 . S
C1218 O1228 1.240 . S
C1218 O1229 1.289 . S
C1219 O1230 1.258 . S
C1219 O1231 1.256 . S
O1220 La1200 2.521 . S
O1220 C1202 1.261 . S
O1221 La1200 2.628 . S
O1221 C1202 1.243 . S
O1222 La1200 2.554 . S
O1222 C1209 1.240 . S
O1223 La1200 2.757 . S
O1223 La1201 2.482 . S
O1223 C1209 1.289 . S
O1224 La1200 2.470 . S
O1224 C1210 1.258 . S
O1225 La1201 2.503 . S
O1225 C1210 1.256 . S
O1226 La1201 2.521 . S
O1226 C1211 1.261 . S
O1227 La1201 2.628 . S
O1227 C1211 1.243 . S
O1228 La1201 2.554 . S
O1228 C1218 1.240 . S
O1229 La1200 2.482 . S
O1229 La1201 2.757 . S
O1229 C1218 1.289 . S
O1230 La1201 2.470 . S
O1230 C1219 1.258 . S
O1231 La1200 2.503 . S
O1231 C1219 1.256 . S
H1232 C1204 0.930 . S
H1233 C1205 0.930 . S
H1234 C1207 0.929 . S
H1235 C1208 0.929 . S
H1236 C1213 0.930 . S
H1237 C1214 0.930 . S
H1238 C1216 0.929 . S
H1239 C1217 0.929 . S
La1240 C1242 2.928 . S
La1240 O1260 2.521 . S
La1240 O1261 2.628 . S
La1240 O1262 2.554 . S
La1240 O1263 2.757 . S
La1240 O1264 2.470 . S
La1240 O1269 2.482 . S
La1240 O1271 2.503 . S
La1241 C1251 2.928 . S
La1241 O1263 2.482 . S
La1241 O1265 2.503 . S
La1241 O1266 2.521 . S
La1241 O1267 2.628 . S
La1241 O1268 2.554 . S
La1241 O1269 2.757 . S
La1241 O1270 2.470 . S
C1242 La1240 2.928 . S
C1242 C1243 1.503 . S
C1242 O1260 1.261 . S
C1242 O1261 1.243 . S
C1243 C1242 1.503 . S
C1243 C1244 1.394 . S
C1243 C1248 1.373 . S
C1244 C1243 1.394 . S
C1244 C1245 1.380 . S
C1244 H1272 0.930 . S
C1245 C1244 1.380 . S
C1245 C1246 1.376 . S
C1245 H1273 0.930 . S
C1246 C1245 1.376 . S
C1246 C1247 1.370 . S
C1247 C1246 1.370 . S
C1247 C1248 1.396 . S
C1247 H1274 0.929 . S
C1248 C1243 1.373 . S
C1248 C1247 1.396 . S
C1248 H1275 0.929 . S
C1249 O1262 1.240 . S
C1249 O1263 1.289 . S
C1250 O1264 1.258 . S
C1250 O1265 1.256 . S
C1251 La1241 2.928 . S
C1251 C1252 1.503 . S
C1251 O1266 1.261 . S
C1251 O1267 1.243 . S
C1252 C1251 1.503 . S
C1252 C1253 1.394 . S
C1252 C1257 1.373 . S
C1253 C1252 1.394 . S
C1253 C1254 1.380 . S
C1253 H1276 0.930 . S
C1254 C1253 1.380 . S
C1254 C1255 1.376 . S
C1254 H1277 0.930 . S
C1255 C1254 1.376 . S
C1255 C1256 1.370 . S
C1256 C1255 1.370 . S
C1256 C1257 1.396 . S
C1256 H1278 0.929 . S
C1257 C1252 1.373 . S
C1257 C1256 1.396 . S
C1257 H1279 0.929 . S
C1258 O1268 1.240 . S
C1258 O1269 1.289 . S
C1259 O1270 1.258 . S
C1259 O1271 1.256 . S
O1260 La1240 2.521 . S
O1260 C1242 1.261 . S
O1261 La1240 2.628 . S
O1261 C1242 1.243 . S
O1262 La1240 2.554 . S
O1262 C1249 1.240 . S
O1263 La1240 2.757 . S
O1263 La1241 2.482 . S
O1263 C1249 1.289 . S
O1264 La1240 2.470 . S
O1264 C1250 1.258 . S
O1265 La1241 2.503 . S
O1265 C1250 1.256 . S
O1266 La1241 2.521 . S
O1266 C1251 1.261 . S
O1267 La1241 2.628 . S
O1267 C1251 1.243 . S
O1268 La1241 2.554 . S
O1268 C1258 1.240 . S
O1269 La1240 2.482 . S
O1269 La1241 2.757 . S
O1269 C1258 1.289 . S
O1270 La1241 2.470 . S
O1270 C1259 1.258 . S
O1271 La1240 2.503 . S
O1271 C1259 1.256 . S
H1272 C1244 0.930 . S
H1273 C1245 0.930 . S
H1274 C1247 0.929 . S
H1275 C1248 0.929 . S
H1276 C1253 0.930 . S
H1277 C1254 0.930 . S
H1278 C1256 0.929 . S
H1279 C1257 0.929 . S
C1280 C1281 1.349 . S
C1280 C1282 1.327 . S
C1280 H1305 0.950 . S
C1281 C1280 1.349 . S
C1281 C1297 1.349 . S
C1282 C1280 1.327 . S
C1282 C1301 1.429 . S
C1282 H1306 0.950 . S
C1283 C1300 1.574 . S
C1283 C1302 1.368 . S
C1283 H1307 0.949 . S
H1284 C1288 0.949 . S
C1285 C1286 1.349 . S
C1285 C1287 1.327 . S
C1285 H1308 0.950 . S
C1286 C1285 1.349 . S
C1286 C1298 1.349 . S
C1287 C1285 1.327 . S
C1287 C1303 1.429 . S
C1287 H1309 0.950 . S
C1288 H1284 0.949 . S
C1288 C1296 1.574 . S
C1288 C1304 1.368 . S
H1289 C1297 0.950 . S
H1290 C1295 0.950 . S
H1291 C1296 0.949 . S
H1292 C1298 0.950 . S
H1293 C1299 0.950 . S
H1294 C1300 0.949 . S
C1295 H1290 0.950 . S
C1295 C1297 1.327 . S
C1295 C1301 1.429 . S
C1296 C1288 1.574 . S
C1296 H1291 0.949 . S
C1296 C1302 1.368 . S
C1297 C1281 1.349 . S
C1297 H1289 0.950 . S
C1297 C1295 1.327 . S
C1298 C1286 1.349 . S
C1298 H1292 0.950 . S
C1298 C1299 1.327 . S
C1299 H1293 0.950 . S
C1299 C1298 1.327 . S
C1299 C1303 1.429 . S
C1300 C1283 1.574 . S
C1300 H1294 0.949 . S
C1300 C1304 1.368 . S
C1301 C1282 1.429 . S
C1301 C1295 1.429 . S
C1301 C1302 1.523 . S
C1302 C1283 1.368 . S
C1302 C1296 1.368 . S
C1302 C1301 1.523 . S
C1303 C1287 1.429 . S
C1303 C1299 1.429 . S
C1303 C1304 1.523 . S
C1304 C1288 1.368 . S
C1304 C1300 1.368 . S
C1304 C1303 1.523 . S
H1305 C1280 0.950 . S
H1306 C1282 0.950 . S
H1307 C1283 0.949 . S
H1308 C1285 0.950 . S
H1309 C1287 0.950 . S
C1310 C1311 1.349 . S
C1310 C1312 1.327 . S
C1310 H1335 0.950 . S
C1311 C1310 1.349 . S
C1311 C1327 1.349 . S
C1312 C1310 1.327 . S
C1312 C1331 1.429 . S
C1312 H1336 0.950 . S
C1313 C1330 1.574 . S
C1313 C1332 1.368 . S
C1313 H1337 0.949 . S
H1314 C1318 0.949 . S
C1315 C1316 1.349 . S
C1315 C1317 1.327 1_565 S
C1315 H1338 0.950 1_565 S
C1316 C1315 1.349 . S
C1316 C1328 1.349 . S
C1317 C1315 1.327 1_545 S
C1317 C1333 1.429 . S
C1317 H1339 0.950 . S
C1318 H1314 0.949 . S
C1318 C1326 1.574 . S
C1318 C1334 1.368 . S
H1319 C1327 0.950 . S
H1320 C1325 0.950 . S
H1321 C1326 0.949 . S
H1322 C1328 0.950 . S
H1323 C1329 0.950 . S
H1324 C1330 0.949 . S
C1325 H1320 0.950 . S
C1325 C1327 1.327 . S
C1325 C1331 1.429 . S
C1326 C1318 1.574 . S
C1326 H1321 0.949 . S
C1326 C1332 1.368 . S
C1327 C1311 1.349 . S
C1327 H1319 0.950 . S
C1327 C1325 1.327 . S
C1328 C1316 1.349 . S
C1328 H1322 0.950 . S
C1328 C1329 1.327 . S
C1329 H1323 0.950 . S
C1329 C1328 1.327 . S
C1329 C1333 1.429 1_565 S
C1330 C1313 1.574 . S
C1330 H1324 0.949 . S
C1330 C1334 1.368 . S
C1331 C1312 1.429 . S
C1331 C1325 1.429 . S
C1331 C1332 1.523 . S
C1332 C1313 1.368 . S
C1332 C1326 1.368 . S
C1332 C1331 1.523 . S
C1333 C1317 1.429 . S
C1333 C1329 1.429 1_545 S
C1333 C1334 1.523 . S
C1334 C1318 1.368 . S
C1334 C1330 1.368 . S
C1334 C1333 1.523 . S
H1335 C1310 0.950 . S
H1336 C1312 0.950 . S
H1337 C1313 0.949 . S
H1338 C1315 0.950 1_545 S
H1339 C1317 0.950 . S
C1340 C1341 1.349 . S
C1340 C1342 1.327 . S
C1340 H1365 0.950 . S
C1341 C1340 1.349 . S
C1341 C1357 1.349 . S
C1342 C1340 1.327 . S
C1342 C1361 1.429 . S
C1342 H1366 0.950 . S
C1343 C1360 1.574 . S
C1343 C1362 1.368 . S
C1343 H1367 0.949 . S
H1344 C1348 0.949 . S
C1345 C1346 1.349 . S
C1345 C1347 1.327 . S
C1345 H1368 0.950 . S
C1346 C1345 1.349 . S
C1346 C1358 1.349 . S
C1347 C1345 1.327 . S
C1347 C1363 1.429 . S
C1347 H1369 0.950 . S
C1348 H1344 0.949 . S
C1348 C1356 1.574 . S
C1348 C1364 1.368 . S
H1349 C1357 0.950 . S
H1350 C1355 0.950 . S
H1351 C1356 0.949 . S
H1352 C1358 0.950 . S
H1353 C1359 0.950 . S
H1354 C1360 0.949 . S
C1355 H1350 0.950 . S
C1355 C1357 1.327 . S
C1355 C1361 1.429 . S
C1356 C1348 1.574 . S
C1356 H1351 0.949 . S
C1356 C1362 1.368 . S
C1357 C1341 1.349 . S
C1357 H1349 0.950 . S
C1357 C1355 1.327 . S
C1358 C1346 1.349 . S
C1358 H1352 0.950 . S
C1358 C1359 1.327 . S
C1359 H1353 0.950 . S
C1359 C1358 1.327 . S
C1359 C1363 1.429 . S
C1360 C1343 1.574 . S
C1360 H1354 0.949 . S
C1360 C1364 1.368 . S
C1361 C1342 1.429 . S
C1361 C1355 1.429 . S
C1361 C1362 1.523 . S
C1362 C1343 1.368 . S
C1362 C1356 1.368 . S
C1362 C1361 1.523 . S
C1363 C1347 1.429 . S
C1363 C1359 1.429 . S
C1363 C1364 1.523 . S
C1364 C1348 1.368 . S
C1364 C1360 1.368 . S
C1364 C1363 1.523 . S
H1365 C1340 0.950 . S
H1366 C1342 0.950 . S
H1367 C1343 0.949 . S
H1368 C1345 0.950 . S
H1369 C1347 0.950 . S
C1370 C1371 1.349 . S
C1370 C1372 1.327 . S
C1370 H1395 0.950 . S
C1371 C1370 1.349 . S
C1371 C1387 1.349 . S
C1372 C1370 1.327 . S
C1372 C1391 1.429 . S
C1372 H1396 0.950 . S
C1373 C1390 1.574 . S
C1373 C1392 1.368 . S
C1373 H1397 0.949 . S
H1374 C1378 0.949 . S
C1375 C1376 1.349 . S
C1375 C1377 1.327 . S
C1375 H1398 0.950 . S
C1376 C1375 1.349 . S
C1376 C1388 1.349 . S
C1377 C1375 1.327 . S
C1377 C1393 1.429 1_545 S
C1377 H1399 0.950 . S
C1378 H1374 0.949 . S
C1378 C1386 1.574 . S
C1378 C1394 1.368 . S
H1379 C1387 0.950 . S
H1380 C1385 0.950 . S
H1381 C1386 0.949 . S
H1382 C1388 0.950 . S
H1383 C1389 0.950 . S
H1384 C1390 0.949 . S
C1385 H1380 0.950 . S
C1385 C1387 1.327 . S
C1385 C1391 1.429 . S
C1386 C1378 1.574 . S
C1386 H1381 0.949 . S
C1386 C1392 1.368 . S
C1387 C1371 1.349 . S
C1387 H1379 0.950 . S
C1387 C1385 1.327 . S
C1388 C1376 1.349 . S
C1388 H1382 0.950 . S
C1388 C1389 1.327 1_545 S
C1389 H1383 0.950 . S
C1389 C1388 1.327 1_565 S
C1389 C1393 1.429 . S
C1390 C1373 1.574 . S
C1390 H1384 0.949 . S
C1390 C1394 1.368 . S
C1391 C1372 1.429 . S
C1391 C1385 1.429 . S
C1391 C1392 1.523 . S
C1392 C1373 1.368 . S
C1392 C1386 1.368 . S
C1392 C1391 1.523 . S
C1393 C1377 1.429 1_565 S
C1393 C1389 1.429 . S
C1393 C1394 1.523 . S
C1394 C1378 1.368 . S
C1394 C1390 1.368 . S
C1394 C1393 1.523 . S
H1395 C1370 0.950 . S
H1396 C1372 0.950 . S
H1397 C1373 0.949 . S
H1398 C1375 0.950 . S
H1399 C1377 0.950 . S
C1400 C1401 1.349 . S
C1400 C1402 1.327 . S
C1400 H1425 0.950 . S
C1401 C1400 1.349 . S
C1401 C1417 1.349 . S
C1402 C1400 1.327 . S
C1402 C1421 1.429 . S
C1402 H1426 0.950 . S
C1403 C1420 1.574 . S
C1403 C1422 1.368 . S
C1403 H1427 0.949 . S
H1404 C1408 0.949 . S
C1405 C1406 1.349 . S
C1405 C1407 1.327 . S
C1405 H1428 0.950 . S
C1406 C1405 1.349 . S
C1406 C1418 1.349 . S
C1407 C1405 1.327 . S
C1407 C1423 1.429 . S
C1407 H1429 0.950 . S
C1408 H1404 0.949 . S
C1408 C1416 1.574 . S
C1408 C1424 1.368 . S
H1409 C1417 0.950 . S
H1410 C1415 0.950 . S
H1411 C1416 0.949 . S
H1412 C1418 0.950 . S
H1413 C1419 0.950 . S
H1414 C1420 0.949 . S
C1415 H1410 0.950 . S
C1415 C1417 1.327 . S
C1415 C1421 1.429 . S
C1416 C1408 1.574 . S
C1416 H1411 0.949 . S
C1416 C1422 1.368 . S
C1417 C1401 1.349 . S
C1417 H1409 0.950 . S
C1417 C1415 1.327 . S
C1418 C1406 1.349 . S
C1418 H1412 0.950 . S
C1418 C1419 1.327 . S
C1419 H1413 0.950 . S
C1419 C1418 1.327 . S
C1419 C1423 1.429 . S
C1420 C1403 1.574 . S
C1420 H1414 0.949 . S
C1420 C1424 1.368 . S
C1421 C1402 1.429 . S
C1421 C1415 1.429 . S
C1421 C1422 1.523 . S
C1422 C1403 1.368 . S
C1422 C1416 1.368 . S
C1422 C1421 1.523 . S
C1423 C1407 1.429 . S
C1423 C1419 1.429 . S
C1423 C1424 1.523 . S
C1424 C1408 1.368 . S
C1424 C1420 1.368 . S
C1424 C1423 1.523 . S
H1425 C1400 0.950 . S
H1426 C1402 0.950 . S
H1427 C1403 0.949 . S
H1428 C1405 0.950 . S
H1429 C1407 0.950 . S
C1430 C1431 1.349 . S
C1430 C1432 1.327 . S
C1430 H1455 0.950 . S
C1431 C1430 1.349 . S
C1431 C1447 1.349 . S
C1432 C1430 1.327 . S
C1432 C1451 1.429 1_565 S
C1432 H1456 0.950 . S
C1433 C1450 1.574 . S
C1433 C1452 1.368 . S
C1433 H1457 0.949 . S
H1434 C1438 0.949 . S
C1435 C1436 1.349 . S
C1435 C1437 1.327 . S
C1435 H1458 0.950 . S
C1436 C1435 1.349 . S
C1436 C1448 1.349 . S
C1437 C1435 1.327 . S
C1437 C1453 1.429 . S
C1437 H1459 0.950 . S
C1438 H1434 0.949 . S
C1438 C1446 1.574 . S
C1438 C1454 1.368 . S
H1439 C1447 0.950 . S
H1440 C1445 0.950 . S
H1441 C1446 0.949 . S
H1442 C1448 0.950 . S
H1443 C1449 0.950 . S
H1444 C1450 0.949 . S
C1445 H1440 0.950 . S
C1445 C1447 1.327 1_545 S
C1445 C1451 1.429 . S
C1446 C1438 1.574 . S
C1446 H1441 0.949 . S
C1446 C1452 1.368 . S
C1447 C1431 1.349 . S
C1447 H1439 0.950 . S
C1447 C1445 1.327 1_565 S
C1448 C1436 1.349 . S
C1448 H1442 0.950 . S
C1448 C1449 1.327 . S
C1449 H1443 0.950 . S
C1449 C1448 1.327 . S
C1449 C1453 1.429 . S
C1450 C1433 1.574 . S
C1450 H1444 0.949 . S
C1450 C1454 1.368 . S
C1451 C1432 1.429 1_545 S
C1451 C1445 1.429 . S
C1451 C1452 1.523 . S
C1452 C1433 1.368 . S
C1452 C1446 1.368 . S
C1452 C1451 1.523 . S
C1453 C1437 1.429 . S
C1453 C1449 1.429 . S
C1453 C1454 1.523 . S
C1454 C1438 1.368 . S
C1454 C1450 1.368 . S
C1454 C1453 1.523 . S
H1455 C1430 0.950 . S
H1456 C1432 0.950 . S
H1457 C1433 0.949 . S
H1458 C1435 0.950 . S
H1459 C1437 0.950 . S
C1460 C1461 1.349 . S
C1460 C1462 1.327 . S
C1460 H1485 0.950 . S
C1461 C1460 1.349 . S
C1461 C1477 1.349 . S
C1462 C1460 1.327 . S
C1462 C1481 1.429 . S
C1462 H1486 0.950 . S
C1463 C1480 1.574 . S
C1463 C1482 1.368 . S
C1463 H1487 0.949 . S
H1464 C1468 0.949 . S
C1465 C1466 1.349 . S
C1465 C1467 1.327 . S
C1465 H1488 0.950 . S
C1466 C1465 1.349 . S
C1466 C1478 1.349 . S
C1467 C1465 1.327 . S
C1467 C1483 1.429 . S
C1467 H1489 0.950 . S
C1468 H1464 0.949 . S
C1468 C1476 1.574 . S
C1468 C1484 1.368 . S
H1469 C1477 0.950 . S
H1470 C1475 0.950 . S
H1471 C1476 0.949 . S
H1472 C1478 0.950 . S
H1473 C1479 0.950 . S
H1474 C1480 0.949 . S
C1475 H1470 0.950 . S
C1475 C1477 1.327 . S
C1475 C1481 1.429 . S
C1476 C1468 1.574 . S
C1476 H1471 0.949 . S
C1476 C1482 1.368 . S
C1477 C1461 1.349 . S
C1477 H1469 0.950 . S
C1477 C1475 1.327 . S
C1478 C1466 1.349 . S
C1478 H1472 0.950 . S
C1478 C1479 1.327 . S
C1479 H1473 0.950 . S
C1479 C1478 1.327 . S
C1479 C1483 1.429 . S
C1480 C1463 1.574 . S
C1480 H1474 0.949 . S
C1480 C1484 1.368 . S
C1481 C1462 1.429 . S
C1481 C1475 1.429 . S
C1481 C1482 1.523 . S
C1482 C1463 1.368 . S
C1482 C1476 1.368 . S
C1482 C1481 1.523 . S
C1483 C1467 1.429 . S
C1483 C1479 1.429 . S
C1483 C1484 1.523 . S
C1484 C1468 1.368 . S
C1484 C1480 1.368 . S
C1484 C1483 1.523 . S
H1485 C1460 0.950 . S
H1486 C1462 0.950 . S
H1487 C1463 0.949 . S
H1488 C1465 0.950 . S
H1489 C1467 0.950 . S
C1490 C1491 1.349 . S
C1490 C1492 1.327 . S
C1490 H1515 0.950 . S
C1491 C1490 1.349 . S
C1491 C1507 1.349 . S
C1492 C1490 1.327 . S
C1492 C1511 1.429 . S
C1492 H1516 0.950 . S
C1493 C1510 1.574 . S
C1493 C1512 1.368 . S
C1493 H1517 0.949 . S
H1494 C1498 0.949 . S
C1495 C1496 1.349 . S
C1495 C1497 1.327 1_545 S
C1495 H1518 0.950 . S
C1496 C1495 1.349 . S
C1496 C1508 1.349 . S
C1497 C1495 1.327 1_565 S
C1497 C1513 1.429 . S
C1497 H1519 0.950 . S
C1498 H1494 0.949 . S
C1498 C1506 1.574 . S
C1498 C1514 1.368 . S
H1499 C1507 0.950 . S
H1500 C1505 0.950 . S
H1501 C1506 0.949 . S
H1502 C1508 0.950 . S
H1503 C1509 0.942 1_565 S
H1504 C1510 0.949 . S
C1505 H1500 0.950 . S
C1505 C1507 1.327 . S
C1505 C1511 1.429 . S
C1506 C1498 1.574 . S
C1506 H1501 0.949 . S
C1506 C1512 1.368 . S
C1507 C1491 1.349 . S
C1507 H1499 0.950 . S
C1507 C1505 1.327 . S
C1508 C1496 1.349 . S
C1508 H1502 0.950 . S
C1508 C1509 1.327 . S
C1509 H1503 0.942 1_545 S
C1509 C1508 1.327 . S
C1509 C1513 1.429 1_545 S
C1510 C1493 1.574 . S
C1510 H1504 0.949 . S
C1510 C1514 1.368 . S
C1511 C1492 1.429 . S
C1511 C1505 1.429 . S
C1511 C1512 1.523 . S
C1512 C1493 1.368 . S
C1512 C1506 1.368 . S
C1512 C1511 1.523 . S
C1513 C1497 1.429 . S
C1513 C1509 1.429 1_565 S
C1513 C1514 1.523 . S
C1514 C1498 1.368 . S
C1514 C1510 1.368 . S
C1514 C1513 1.523 . S
H1515 C1490 0.950 . S
H1516 C1492 0.950 . S
H1517 C1493 0.949 . S
H1518 C1495 0.950 . S
H1519 C1497 0.950 . S
C1520 C1521 1.349 . S
C1520 C1522 1.327 . S
C1520 H1545 0.950 . S
C1521 C1520 1.349 . S
C1521 C1537 1.349 . S
C1522 C1520 1.327 . S
C1522 C1541 1.429 . S
C1522 H1546 0.950 . S
C1523 C1540 1.574 . S
C1523 C1542 1.368 . S
C1523 H1547 0.949 . S
H1524 C1528 0.949 . S
C1525 C1526 1.349 . S
C1525 C1527 1.327 . S
C1525 H1548 0.950 . S
C1526 C1525 1.349 . S
C1526 C1538 1.349 . S
C1527 C1525 1.327 . S
C1527 C1543 1.429 . S
C1527 H1549 0.950 . S
C1528 H1524 0.949 . S
C1528 C1536 1.574 . S
C1528 C1544 1.368 . S
H1529 C1537 0.950 . S
H1530 C1535 0.950 . S
H1531 C1536 0.949 . S
H1532 C1538 0.950 . S
H1533 C1539 0.950 . S
H1534 C1540 0.949 . S
C1535 H1530 0.950 . S
C1535 C1537 1.327 . S
C1535 C1541 1.429 . S
C1536 C1528 1.574 . S
C1536 H1531 0.949 . S
C1536 C1542 1.368 . S
C1537 C1521 1.349 . S
C1537 H1529 0.950 . S
C1537 C1535 1.327 . S
C1538 C1526 1.349 . S
C1538 H1532 0.950 . S
C1538 C1539 1.327 . S
C1539 H1533 0.950 . S
C1539 C1538 1.327 . S
C1539 C1543 1.429 . S
C1540 C1523 1.574 . S
C1540 H1534 0.949 . S
C1540 C1544 1.368 . S
C1541 C1522 1.429 . S
C1541 C1535 1.429 . S
C1541 C1542 1.523 . S
C1542 C1523 1.368 . S
C1542 C1536 1.368 . S
C1542 C1541 1.523 . S
C1543 C1527 1.429 . S
C1543 C1539 1.429 . S
C1543 C1544 1.523 . S
C1544 C1528 1.368 . S
C1544 C1540 1.368 . S
C1544 C1543 1.523 . S
H1545 C1520 0.950 . S
H1546 C1522 0.950 . S
H1547 C1523 0.949 . S
H1548 C1525 0.950 . S
H1549 C1527 0.950 . S
C1550 C1551 1.349 . S
C1550 C1552 1.327 . S
C1550 H1575 0.950 . S
C1551 C1550 1.349 . S
C1551 C1567 1.353 . S
C1552 C1550 1.327 . S
C1552 C1571 1.429 1_545 S
C1552 H1576 0.950 . S
C1553 C1570 1.574 . S
C1553 C1572 1.368 . S
C1553 H1577 0.949 . S
H1554 C1558 0.949 . S
C1555 C1556 1.349 . S
C1555 C1557 1.327 . S
C1555 H1578 0.950 . S
C1556 C1555 1.349 . S
C1556 C1568 1.349 . S
C1557 C1555 1.327 . S
C1557 C1573 1.429 . S
C1557 H1579 0.950 . S
C1558 H1554 0.949 . S
C1558 C1566 1.574 . S
C1558 C1574 1.368 . S
H1559 C1567 0.948 1_565 S
H1560 C1565 0.950 . S
H1561 C1566 0.949 . S
H1562 C1568 0.950 . S
H1563 C1569 0.950 . S
H1564 C1570 0.949 . S
C1565 H1560 0.950 . S
C1565 C1567 1.324 1_565 S
C1565 C1571 1.429 . S
C1566 C1558 1.574 . S
C1566 H1561 0.949 . S
C1566 C1572 1.368 . S
C1567 C1551 1.353 . S
C1567 H1559 0.948 1_545 S
C1567 C1565 1.324 1_545 S
C1568 C1556 1.349 . S
C1568 H1562 0.950 . S
C1568 C1569 1.327 . S
C1569 H1563 0.950 . S
C1569 C1568 1.327 . S
C1569 C1573 1.429 . S
C1570 C1553 1.574 . S
C1570 H1564 0.949 . S
C1570 C1574 1.368 . S
C1571 C1552 1.429 1_565 S
C1571 C1565 1.429 . S
C1571 C1572 1.523 . S
C1572 C1553 1.368 . S
C1572 C1566 1.368 . S
C1572 C1571 1.523 . S
C1573 C1557 1.429 . S
C1573 C1569 1.429 . S
C1573 C1574 1.523 . S
C1574 C1558 1.368 . S
C1574 C1570 1.368 . S
C1574 C1573 1.523 . S
H1575 C1550 0.950 . S
H1576 C1552 0.950 . S
H1577 C1553 0.949 . S
H1578 C1555 0.950 . S
H1579 C1557 0.950 . S
C1580 C1581 1.349 . S
C1580 C1582 1.327 . S
C1580 H1605 0.950 . S
C1581 C1580 1.349 . S
C1581 C1597 1.349 . S
C1582 C1580 1.327 . S
C1582 C1601 1.429 . S
C1582 H1606 0.950 . S
C1583 C1600 1.574 . S
C1583 C1602 1.368 . S
C1583 H1607 0.949 . S
H1584 C1588 0.949 . S
C1585 C1586 1.349 . S
C1585 C1587 1.327 . S
C1585 H1608 0.950 . S
C1586 C1585 1.349 . S
C1586 C1598 1.349 . S
C1587 C1585 1.327 . S
C1587 C1603 1.429 . S
C1587 H1609 0.950 . S
C1588 H1584 0.949 . S
C1588 C1596 1.574 . S
C1588 C1604 1.368 . S
H1589 C1597 0.950 . S
H1590 C1595 0.950 . S
H1591 C1596 0.949 . S
H1592 C1598 0.950 . S
H1593 C1599 0.950 . S
H1594 C1600 0.949 . S
C1595 H1590 0.950 . S
C1595 C1597 1.327 . S
C1595 C1601 1.429 . S
C1596 C1588 1.574 . S
C1596 H1591 0.949 . S
C1596 C1602 1.368 . S
C1597 C1581 1.349 . S
C1597 H1589 0.950 . S
C1597 C1595 1.327 . S
C1598 C1586 1.349 . S
C1598 H1592 0.950 . S
C1598 C1599 1.327 . S
C1599 H1593 0.950 . S
C1599 C1598 1.327 . S
C1599 C1603 1.429 . S
C1600 C1583 1.574 . S
C1600 H1594 0.949 . S
C1600 C1604 1.368 . S
C1601 C1582 1.429 . S
C1601 C1595 1.429 . S
C1601 C1602 1.523 . S
C1602 C1583 1.368 . S
C1602 C1596 1.368 . S
C1602 C1601 1.523 . S
C1603 C1587 1.429 . S
C1603 C1599 1.429 . S
C1603 C1604 1.523 . S
C1604 C1588 1.368 . S
C1604 C1600 1.368 . S
C1604 C1603 1.523 . S
H1605 C1580 0.950 . S
H1606 C1582 0.950 . S
H1607 C1583 0.949 . S
H1608 C1585 0.950 . S
H1609 C1587 0.950 . S
C1610 C1611 1.387 . S
C1610 C1612 1.299 1_565 S
C1610 H1635 0.940 1_565 S
C1611 C1610 1.387 . S
C1611 C1627 1.349 . S
C1612 C1610 1.299 1_545 S
C1612 C1631 1.429 . S
C1612 H1636 0.950 . S
C1613 C1630 1.574 . S
C1613 C1632 1.368 . S
C1613 H1637 0.949 . S
H1614 C1618 0.949 . S
C1615 C1616 1.349 . S
C1615 C1617 1.327 . S
C1615 H1638 0.950 . S
C1616 C1615 1.349 . S
C1616 C1628 1.349 . S
C1617 C1615 1.327 . S
C1617 C1633 1.429 . S
C1617 H1639 0.950 . S
C1618 H1614 0.949 . S
C1618 C1626 1.574 . S
C1618 C1634 1.368 . S
H1619 C1627 0.950 . S
H1620 C1625 0.950 . S
H1621 C1626 0.949 . S
H1622 C1628 0.950 . S
H1623 C1629 0.950 . S
H1624 C1630 0.949 . S
C1625 H1620 0.950 . S
C1625 C1627 1.327 . S
C1625 C1631 1.429 1_565 S
C1626 C1618 1.574 . S
C1626 H1621 0.949 . S
C1626 C1632 1.368 . S
C1627 C1611 1.349 . S
C1627 H1619 0.950 . S
C1627 C1625 1.327 . S
C1628 C1616 1.349 . S
C1628 H1622 0.950 . S
C1628 C1629 1.327 . S
C1629 H1623 0.950 . S
C1629 C1628 1.327 . S
C1629 C1633 1.429 . S
C1630 C1613 1.574 . S
C1630 H1624 0.949 . S
C1630 C1634 1.368 . S
C1631 C1612 1.429 . S
C1631 C1625 1.429 1_545 S
C1631 C1632 1.523 . S
C1632 C1613 1.368 . S
C1632 C1626 1.368 . S
C1632 C1631 1.523 . S
C1633 C1617 1.429 . S
C1633 C1629 1.429 . S
C1633 C1634 1.523 . S
C1634 C1618 1.368 . S
C1634 C1630 1.368 . S
C1634 C1633 1.523 . S
H1635 C1610 0.940 1_545 S
H1636 C1612 0.950 . S
H1637 C1613 0.949 . S
H1638 C1615 0.950 . S
H1639 C1617 0.950 . S
C1640 C1641 1.349 . S
C1640 C1642 1.327 . S
C1640 H1665 0.950 . S
C1641 C1640 1.349 . S
C1641 C1657 1.349 . S
C1642 C1640 1.327 . S
C1642 C1661 1.429 . S
C1642 H1666 0.950 . S
C1643 C1660 1.574 . S
C1643 C1662 1.368 . S
C1643 H1667 0.949 . S
H1644 C1648 0.949 . S
C1645 C1646 1.349 . S
C1645 C1647 1.327 . S
C1645 H1668 0.950 . S
C1646 C1645 1.349 . S
C1646 C1658 1.349 . S
C1647 C1645 1.327 . S
C1647 C1663 1.429 . S
C1647 H1669 0.950 . S
C1648 H1644 0.949 . S
C1648 C1656 1.574 . S
C1648 C1664 1.368 . S
H1649 C1657 0.950 . S
H1650 C1655 0.950 . S
H1651 C1656 0.949 . S
H1652 C1658 0.950 . S
H1653 C1659 0.950 . S
H1654 C1660 0.949 . S
C1655 H1650 0.950 . S
C1655 C1657 1.327 . S
C1655 C1661 1.429 . S
C1656 C1648 1.574 . S
C1656 H1651 0.949 . S
C1656 C1662 1.368 . S
C1657 C1641 1.349 . S
C1657 H1649 0.950 . S
C1657 C1655 1.327 . S
C1658 C1646 1.349 . S
C1658 H1652 0.950 . S
C1658 C1659 1.327 . S
C1659 H1653 0.950 . S
C1659 C1658 1.327 . S
C1659 C1663 1.429 . S
C1660 C1643 1.574 . S
C1660 H1654 0.949 . S
C1660 C1664 1.368 . S
C1661 C1642 1.429 . S
C1661 C1655 1.429 . S
C1661 C1662 1.523 . S
C1662 C1643 1.368 . S
C1662 C1656 1.368 . S
C1662 C1661 1.523 . S
C1663 C1647 1.429 . S
C1663 C1659 1.429 . S
C1663 C1664 1.523 . S
C1664 C1648 1.368 . S
C1664 C1660 1.368 . S
C1664 C1663 1.523 . S
H1665 C1640 0.950 . S
H1666 C1642 0.950 . S
H1667 C1643 0.949 . S
H1668 C1645 0.950 . S
H1669 C1647 0.950 . S
C1670 C1671 1.349 . S
C1670 C1672 1.327 . S
C1670 H1695 0.950 . S
C1671 C1670 1.349 . S
C1671 C1687 1.393 . S
C1672 C1670 1.327 . S
C1672 C1691 1.429 1_545 S
C1672 H1696 0.950 . S
C1673 C1690 1.574 . S
C1673 C1692 1.368 . S
C1673 H1697 0.949 . S
H1674 C1678 0.949 . S
C1675 C1676 1.349 . S
C1675 C1677 1.327 . S
C1675 H1698 0.950 . S
C1676 C1675 1.349 . S
C1676 C1688 1.349 . S
C1677 C1675 1.327 . S
C1677 C1693 1.429 . S
C1677 H1699 0.950 . S
C1678 H1674 0.949 . S
C1678 C1686 1.574 . S
C1678 C1694 1.368 . S
H1679 C1687 0.939 1_565 S
H1680 C1685 0.950 . S
H1681 C1686 0.949 . S
H1682 C1688 0.950 . S
H1683 C1689 0.950 . S
H1684 C1690 0.949 . S
C1685 H1680 0.950 . S
C1685 C1687 1.295 1_565 S
C1685 C1691 1.429 . S
C1686 C1678 1.574 . S
C1686 H1681 0.949 . S
C1686 C1692 1.368 . S
C1687 C1671 1.393 . S
C1687 H1679 0.939 1_545 S
C1687 C1685 1.295 1_545 S
C1688 C1676 1.349 . S
C1688 H1682 0.950 . S
C1688 C1689 1.327 . S
C1689 H1683 0.950 . S
C1689 C1688 1.327 . S
C1689 C1693 1.429 . S
C1690 C1673 1.574 . S
C1690 H1684 0.949 . S
C1690 C1694 1.368 . S
C1691 C1672 1.429 1_565 S
C1691 C1685 1.429 . S
C1691 C1692 1.523 . S
C1692 C1673 1.368 . S
C1692 C1686 1.368 . S
C1692 C1691 1.523 . S
C1693 C1677 1.429 . S
C1693 C1689 1.429 . S
C1693 C1694 1.523 . S
C1694 C1678 1.368 . S
C1694 C1690 1.368 . S
C1694 C1693 1.523 . S
H1695 C1670 0.950 . S
H1696 C1672 0.950 . S
H1697 C1673 0.949 . S
H1698 C1675 0.950 . S
H1699 C1677 0.950 . S
C1700 C1701 1.349 . S
C1700 C1702 1.327 . S
C1700 H1725 0.950 . S
C1701 C1700 1.349 . S
C1701 C1717 1.349 . S
C1702 C1700 1.327 . S
C1702 C1721 1.429 . S
C1702 H1726 0.950 . S
C1703 C1720 1.574 . S
C1703 C1722 1.368 . S
C1703 H1727 0.949 . S
H1704 C1708 0.949 . S
C1705 C1706 1.349 . S
C1705 C1707 1.327 . S
C1705 H1728 0.950 . S
C1706 C1705 1.349 . S
C1706 C1718 1.349 . S
C1707 C1705 1.327 . S
C1707 C1723 1.429 . S
C1707 H1729 0.950 . S
C1708 H1704 0.949 . S
C1708 C1716 1.574 . S
C1708 C1724 1.368 . S
H1709 C1717 0.950 . S
H1710 C1715 0.950 . S
H1711 C1716 0.949 . S
H1712 C1718 0.950 . S
H1713 C1719 0.950 . S
H1714 C1720 0.949 . S
C1715 H1710 0.950 . S
C1715 C1717 1.327 . S
C1715 C1721 1.429 . S
C1716 C1708 1.574 . S
C1716 H1711 0.949 . S
C1716 C1722 1.368 . S
C1717 C1701 1.349 . S
C1717 H1709 0.950 . S
C1717 C1715 1.327 . S
C1718 C1706 1.349 . S
C1718 H1712 0.950 . S
C1718 C1719 1.327 . S
C1719 H1713 0.950 . S
C1719 C1718 1.327 . S
C1719 C1723 1.429 . S
C1720 C1703 1.574 . S
C1720 H1714 0.949 . S
C1720 C1724 1.368 . S
C1721 C1702 1.429 . S
C1721 C1715 1.429 . S
C1721 C1722 1.523 . S
C1722 C1703 1.368 . S
C1722 C1716 1.368 . S
C1722 C1721 1.523 . S
C1723 C1707 1.429 . S
C1723 C1719 1.429 . S
C1723 C1724 1.523 . S
C1724 C1708 1.368 . S
C1724 C1720 1.368 . S
C1724 C1723 1.523 . S
H1725 C1700 0.950 . S
H1726 C1702 0.950 . S
H1727 C1703 0.949 . S
H1728 C1705 0.950 . S
H1729 C1707 0.950 . S
C1730 C1731 1.349 . S
C1730 C1732 1.327 . S
C1730 H1755 0.950 . S
C1731 C1730 1.349 . S
C1731 C1747 1.349 . S
C1732 C1730 1.327 . S
C1732 C1751 1.429 . S
C1732 H1756 0.950 . S
C1733 C1750 1.574 . S
C1733 C1752 1.368 . S
C1733 H1757 0.949 . S
H1734 C1738 0.949 . S
C1735 C1736 1.398 . S
C1735 C1737 1.291 1_565 S
C1735 H1758 0.938 1_565 S
C1736 C1735 1.398 . S
C1736 C1748 1.349 . S
C1737 C1735 1.291 1_545 S
C1737 C1753 1.429 . S
C1737 H1759 0.950 . S
C1738 H1734 0.949 . S
C1738 C1746 1.574 . S
C1738 C1754 1.368 . S
H1739 C1747 0.950 . S
H1740 C1745 0.950 . S
H1741 C1746 0.949 . S
H1742 C1748 0.950 . S
H1743 C1749 0.950 . S
H1744 C1750 0.949 . S
C1745 H1740 0.950 . S
C1745 C1747 1.327 . S
C1745 C1751 1.429 . S
C1746 C1738 1.574 . S
C1746 H1741 0.949 . S
C1746 C1752 1.368 . S
C1747 C1731 1.349 . S
C1747 H1739 0.950 . S
C1747 C1745 1.327 . S
C1748 C1736 1.349 . S
C1748 H1742 0.950 . S
C1748 C1749 1.327 . S
C1749 H1743 0.950 . S
C1749 C1748 1.327 . S
C1749 C1753 1.429 1_565 S
C1750 C1733 1.574 . S
C1750 H1744 0.949 . S
C1750 C1754 1.368 . S
C1751 C1732 1.429 . S
C1751 C1745 1.429 . S
C1751 C1752 1.523 . S
C1752 C1733 1.368 . S
C1752 C1746 1.368 . S
C1752 C1751 1.523 . S
C1753 C1737 1.429 . S
C1753 C1749 1.429 1_545 S
C1753 C1754 1.523 . S
C1754 C1738 1.368 . S
C1754 C1750 1.368 . S
C1754 C1753 1.523 . S
H1755 C1730 0.950 . S
H1756 C1732 0.950 . S
H1757 C1733 0.949 . S
H1758 C1735 0.938 1_545 S
H1759 C1737 0.950 . S
C1760 C1761 1.349 . S
C1760 C1762 1.327 . S
C1760 H1785 0.950 . S
C1761 C1760 1.349 . S
C1761 C1777 1.349 . S
C1762 C1760 1.327 . S
C1762 C1781 1.429 . S
C1762 H1786 0.950 . S
C1763 C1780 1.574 . S
C1763 C1782 1.368 . S
C1763 H1787 0.949 . S
H1764 C1768 0.949 . S
C1765 C1766 1.349 . S
C1765 C1767 1.327 . S
C1765 H1788 0.950 . S
C1766 C1765 1.349 . S
C1766 C1778 1.349 . S
C1767 C1765 1.327 . S
C1767 C1783 1.429 . S
C1767 H1789 0.950 . S
C1768 H1764 0.949 . S
C1768 C1776 1.574 . S
C1768 C1784 1.368 . S
H1769 C1777 0.950 . S
H1770 C1775 0.950 . S
H1771 C1776 0.949 . S
H1772 C1778 0.950 . S
H1773 C1779 0.950 . S
H1774 C1780 0.949 . S
C1775 H1770 0.950 . S
C1775 C1777 1.327 . S
C1775 C1781 1.429 . S
C1776 C1768 1.574 . S
C1776 H1771 0.949 . S
C1776 C1782 1.368 . S
C1777 C1761 1.349 . S
C1777 H1769 0.950 . S
C1777 C1775 1.327 . S
C1778 C1766 1.349 . S
C1778 H1772 0.950 . S
C1778 C1779 1.327 . S
C1779 H1773 0.950 . S
C1779 C1778 1.327 . S
C1779 C1783 1.429 . S
C1780 C1763 1.574 . S
C1780 H1774 0.949 . S
C1780 C1784 1.368 . S
C1781 C1762 1.429 . S
C1781 C1775 1.429 . S
C1781 C1782 1.523 . S
C1782 C1763 1.368 . S
C1782 C1776 1.368 . S
C1782 C1781 1.523 . S
C1783 C1767 1.429 . S
C1783 C1779 1.429 . S
C1783 C1784 1.523 . S
C1784 C1768 1.368 . S
C1784 C1780 1.368 . S
C1784 C1783 1.523 . S
H1785 C1760 0.950 . S
H1786 C1762 0.950 . S
H1787 C1763 0.949 . S
H1788 C1765 0.950 . S
H1789 C1767 0.950 . S
C1790 C1791 1.349 . S
C1790 C1792 1.327 . S
C1790 H1815 0.950 . S
C1791 C1790 1.349 . S
C1791 C1807 1.349 . S
C1792 C1790 1.327 . S
C1792 C1811 1.429 . S
C1792 H1816 0.950 . S
C1793 C1810 1.574 . S
C1793 C1812 1.368 . S
C1793 H1817 0.949 . S
H1794 C1798 0.949 . S
C1795 C1796 1.349 . S
C1795 C1797 1.327 . S
C1795 H1818 0.950 . S
C1796 C1795 1.349 . S
C1796 C1808 1.349 . S
C1797 C1795 1.327 . S
C1797 C1813 1.429 . S
C1797 H1819 0.950 . S
C1798 H1794 0.949 . S
C1798 C1806 1.574 . S
C1798 C1814 1.368 . S
H1799 C1807 0.950 . S
H1800 C1805 0.950 . S
H1801 C1806 0.949 . S
H1802 C1808 0.950 . S
H1803 C1809 0.950 . S
H1804 C1810 0.949 . S
C1805 H1800 0.950 . S
C1805 C1807 1.327 . S
C1805 C1811 1.429 . S
C1806 C1798 1.574 . S
C1806 H1801 0.949 . S
C1806 C1812 1.368 . S
C1807 C1791 1.349 . S
C1807 H1799 0.950 . S
C1807 C1805 1.327 . S
C1808 C1796 1.349 . S
C1808 H1802 0.950 . S
C1808 C1809 1.327 . S
C1809 H1803 0.950 . S
C1809 C1808 1.327 . S
C1809 C1813 1.429 . S
C1810 C1793 1.574 . S
C1810 H1804 0.949 . S
C1810 C1814 1.368 . S
C1811 C1792 1.429 . S
C1811 C1805 1.429 . S
C1811 C1812 1.523 . S
C1812 C1793 1.368 . S
C1812 C1806 1.368 . S
C1812 C1811 1.523 . S
C1813 C1797 1.429 . S
C1813 C1809 1.429 . S
C1813 C1814 1.523 . S
C1814 C1798 1.368 . S
C1814 C1810 1.368 . S
C1814 C1813 1.523 . S
H1815 C1790 0.950 . S
H1816 C1792 0.950 . S
H1817 C1793 0.949 . S
H1818 C1795 0.950 . S
H1819 C1797 0.950 . S
C1820 C1821 1.349 . S
C1820 C1822 1.327 . S
C1820 H1845 0.950 . S
C1821 C1820 1.349 . S
C1821 C1837 1.349 . S
C1822 C1820 1.327 . S
C1822 C1841 1.429 . S
C1822 H1846 0.950 . S
C1823 C1840 1.574 . S
C1823 C1842 1.368 . S
C1823 H1847 0.949 . S
H1824 C1828 0.949 . S
C1825 C1826 1.349 . S
C1825 C1827 1.327 . S
C1825 H1848 0.950 . S
C1826 C1825 1.349 . S
C1826 C1838 1.349 . S
C1827 C1825 1.327 . S
C1827 C1843 1.429 . S
C1827 H1849 0.950 . S
C1828 H1824 0.949 . S
C1828 C1836 1.574 . S
C1828 C1844 1.368 . S
H1829 C1837 0.950 . S
H1830 C1835 0.950 . S
H1831 C1836 0.949 . S
H1832 C1838 0.950 . S
H1833 C1839 0.950 . S
H1834 C1840 0.949 . S
C1835 H1830 0.950 . S
C1835 C1837 1.327 . S
C1835 C1841 1.429 . S
C1836 C1828 1.574 . S
C1836 H1831 0.949 . S
C1836 C1842 1.368 . S
C1837 C1821 1.349 . S
C1837 H1829 0.950 . S
C1837 C1835 1.327 . S
C1838 C1826 1.349 . S
C1838 H1832 0.950 . S
C1838 C1839 1.327 . S
C1839 H1833 0.950 . S
C1839 C1838 1.327 . S
C1839 C1843 1.429 . S
C1840 C1823 1.574 . S
C1840 H1834 0.949 . S
C1840 C1844 1.368 . S
C1841 C1822 1.429 . S
C1841 C1835 1.429 . S
C1841 C1842 1.523 . S
C1842 C1823 1.368 . S
C1842 C1836 1.368 . S
C1842 C1841 1.523 . S
C1843 C1827 1.429 . S
C1843 C1839 1.429 . S
C1843 C1844 1.523 . S
C1844 C1828 1.368 . S
C1844 C1840 1.368 . S
C1844 C1843 1.523 . S
H1845 C1820 0.950 . S
H1846 C1822 0.950 . S
H1847 C1823 0.949 . S
H1848 C1825 0.950 . S
H1849 C1827 0.950 . S
C1850 C1851 1.349 . S
C1850 C1852 1.327 . S
C1850 H1875 0.950 . S
C1851 C1850 1.349 . S
C1851 C1867 1.349 . S
C1852 C1850 1.327 . S
C1852 C1871 1.429 . S
C1852 H1876 0.950 . S
C1853 C1870 1.574 . S
C1853 C1872 1.368 . S
C1853 H1877 0.949 . S
H1854 C1858 0.949 . S
C1855 C1856 1.349 . S
C1855 C1857 1.327 . S
C1855 H1878 0.950 . S
C1856 C1855 1.349 . S
C1856 C1868 1.349 . S
C1857 C1855 1.327 . S
C1857 C1873 1.429 . S
C1857 H1879 0.950 . S
C1858 H1854 0.949 . S
C1858 C1866 1.574 . S
C1858 C1874 1.368 . S
H1859 C1867 0.950 . S
H1860 C1865 0.950 . S
H1861 C1866 0.949 . S
H1862 C1868 0.950 . S
H1863 C1869 0.950 . S
H1864 C1870 0.949 . S
C1865 H1860 0.950 . S
C1865 C1867 1.327 . S
C1865 C1871 1.429 . S
C1866 C1858 1.574 . S
C1866 H1861 0.949 . S
C1866 C1872 1.368 . S
C1867 C1851 1.349 . S
C1867 H1859 0.950 . S
C1867 C1865 1.327 . S
C1868 C1856 1.349 . S
C1868 H1862 0.950 . S
C1868 C1869 1.327 . S
C1869 H1863 0.950 . S
C1869 C1868 1.327 . S
C1869 C1873 1.429 . S
C1870 C1853 1.574 . S
C1870 H1864 0.949 . S
C1870 C1874 1.368 . S
C1871 C1852 1.429 . S
C1871 C1865 1.429 . S
C1871 C1872 1.523 . S
C1872 C1853 1.368 . S
C1872 C1866 1.368 . S
C1872 C1871 1.523 . S
C1873 C1857 1.429 . S
C1873 C1869 1.429 . S
C1873 C1874 1.523 . S
C1874 C1858 1.368 . S
C1874 C1870 1.368 . S
C1874 C1873 1.523 . S
H1875 C1850 0.950 . S
H1876 C1852 0.950 . S
H1877 C1853 0.949 . S
H1878 C1855 0.950 . S
H1879 C1857 0.950 . S
C1880 C1881 1.349 . S
C1880 C1882 1.327 . S
C1880 H1905 0.950 . S
C1881 C1880 1.349 . S
C1881 C1897 1.349 . S
C1882 C1880 1.327 . S
C1882 C1901 1.429 . S
C1882 H1906 0.950 . S
C1883 C1900 1.574 . S
C1883 C1902 1.368 . S
C1883 H1907 0.949 . S
H1884 C1888 0.949 . S
C1885 C1886 1.349 . S
C1885 C1887 1.327 . S
C1885 H1908 0.950 . S
C1886 C1885 1.349 . S
C1886 C1898 1.349 . S
C1887 C1885 1.327 . S
C1887 C1903 1.429 . S
C1887 H1909 0.950 . S
C1888 H1884 0.949 . S
C1888 C1896 1.574 . S
C1888 C1904 1.368 . S
H1889 C1897 0.950 . S
H1890 C1895 0.950 . S
H1891 C1896 0.949 . S
H1892 C1898 0.950 . S
H1893 C1899 0.950 . S
H1894 C1900 0.949 . S
C1895 H1890 0.950 . S
C1895 C1897 1.327 . S
C1895 C1901 1.429 . S
C1896 C1888 1.574 . S
C1896 H1891 0.949 . S
C1896 C1902 1.368 . S
C1897 C1881 1.349 . S
C1897 H1889 0.950 . S
C1897 C1895 1.327 . S
C1898 C1886 1.349 . S
C1898 H1892 0.950 . S
C1898 C1899 1.327 . S
C1899 H1893 0.950 . S
C1899 C1898 1.327 . S
C1899 C1903 1.429 . S
C1900 C1883 1.574 . S
C1900 H1894 0.949 . S
C1900 C1904 1.368 . S
C1901 C1882 1.429 . S
C1901 C1895 1.429 . S
C1901 C1902 1.523 . S
C1902 C1883 1.368 . S
C1902 C1896 1.368 . S
C1902 C1901 1.523 . S
C1903 C1887 1.429 . S
C1903 C1899 1.429 . S
C1903 C1904 1.523 . S
C1904 C1888 1.368 . S
C1904 C1900 1.368 . S
C1904 C1903 1.523 . S
H1905 C1880 0.950 . S
H1906 C1882 0.950 . S
H1907 C1883 0.949 . S
H1908 C1885 0.950 . S
H1909 C1887 0.950 . S
C1910 C1911 1.349 . S
C1910 C1912 1.327 . S
C1910 H1935 0.950 . S
C1911 C1910 1.349 . S
C1911 C1927 1.349 . S
C1912 C1910 1.327 . S
C1912 C1931 1.429 . S
C1912 H1936 0.950 . S
C1913 C1930 1.574 . S
C1913 C1932 1.368 . S
C1913 H1937 0.949 . S
H1914 C1918 0.949 . S
C1915 C1916 1.349 . S
C1915 C1917 1.327 . S
C1915 H1938 0.950 . S
C1916 C1915 1.349 . S
C1916 C1928 1.349 . S
C1917 C1915 1.327 . S
C1917 C1933 1.429 . S
C1917 H1939 0.950 . S
C1918 H1914 0.949 . S
C1918 C1926 1.574 . S
C1918 C1934 1.368 . S
H1919 C1927 0.950 . S
H1920 C1925 0.950 . S
H1921 C1926 0.949 . S
H1922 C1928 0.950 . S
H1923 C1929 0.950 . S
H1924 C1930 0.949 . S
C1925 H1920 0.950 . S
C1925 C1927 1.327 . S
C1925 C1931 1.429 . S
C1926 C1918 1.574 . S
C1926 H1921 0.949 . S
C1926 C1932 1.368 . S
C1927 C1911 1.349 . S
C1927 H1919 0.950 . S
C1927 C1925 1.327 . S
C1928 C1916 1.349 . S
C1928 H1922 0.950 . S
C1928 C1929 1.327 . S
C1929 H1923 0.950 . S
C1929 C1928 1.327 . S
C1929 C1933 1.429 . S
C1930 C1913 1.574 . S
C1930 H1924 0.949 . S
C1930 C1934 1.368 . S
C1931 C1912 1.429 . S
C1931 C1925 1.429 . S
C1931 C1932 1.523 . S
C1932 C1913 1.368 . S
C1932 C1926 1.368 . S
C1932 C1931 1.523 . S
C1933 C1917 1.429 . S
C1933 C1929 1.429 . S
C1933 C1934 1.523 . S
C1934 C1918 1.368 . S
C1934 C1930 1.368 . S
C1934 C1933 1.523 . S
H1935 C1910 0.950 . S
H1936 C1912 0.950 . S
H1937 C1913 0.949 . S
H1938 C1915 0.950 . S
H1939 C1917 0.950 . S
C1940 C1941 1.349 . S
C1940 C1942 1.327 . S
C1940 H1965 0.950 . S
C1941 C1940 1.349 . S
C1941 C1957 1.349 . S
C1942 C1940 1.327 . S
C1942 C1961 1.429 . S
C1942 H1966 0.950 . S
C1943 C1960 1.574 . S
C1943 C1962 1.368 . S
C1943 H1967 0.949 . S
H1944 C1948 0.949 . S
C1945 C1946 1.349 . S
C1945 C1947 1.327 . S
C1945 H1968 0.950 . S
C1946 C1945 1.349 . S
C1946 C1958 1.349 . S
C1947 C1945 1.327 . S
C1947 C1963 1.429 . S
C1947 H1969 0.950 . S
C1948 H1944 0.949 . S
C1948 C1956 1.574 . S
C1948 C1964 1.368 . S
H1949 C1957 0.950 . S
H1950 C1955 0.950 . S
H1951 C1956 0.949 . S
H1952 C1958 0.950 . S
H1953 C1959 0.950 . S
H1954 C1960 0.949 . S
C1955 H1950 0.950 . S
C1955 C1957 1.327 . S
C1955 C1961 1.429 . S
C1956 C1948 1.574 . S
C1956 H1951 0.949 . S
C1956 C1962 1.368 . S
C1957 C1941 1.349 . S
C1957 H1949 0.950 . S
C1957 C1955 1.327 . S
C1958 C1946 1.349 . S
C1958 H1952 0.950 . S
C1958 C1959 1.327 . S
C1959 H1953 0.950 . S
C1959 C1958 1.327 . S
C1959 C1963 1.429 . S
C1960 C1943 1.574 . S
C1960 H1954 0.949 . S
C1960 C1964 1.368 . S
C1961 C1942 1.429 . S
C1961 C1955 1.429 . S
C1961 C1962 1.523 . S
C1962 C1943 1.368 . S
C1962 C1956 1.368 . S
C1962 C1961 1.523 . S
C1963 C1947 1.429 . S
C1963 C1959 1.429 . S
C1963 C1964 1.523 . S
C1964 C1948 1.368 . S
C1964 C1960 1.368 . S
C1964 C1963 1.523 . S
H1965 C1940 0.950 . S
H1966 C1942 0.950 . S
H1967 C1943 0.949 . S
H1968 C1945 0.950 . S
H1969 C1947 0.950 . S
C1970 C1971 1.349 . S
C1970 C1972 1.327 . S
C1970 H1995 0.950 . S
C1971 C1970 1.349 . S
C1971 C1987 1.349 . S
C1972 C1970 1.327 . S
C1972 C1991 1.429 . S
C1972 H1996 0.950 . S
C1973 C1990 1.574 . S
C1973 C1992 1.368 . S
C1973 H1997 0.949 . S
H1974 C1978 0.949 . S
C1975 C1976 1.349 . S
C1975 C1977 1.327 . S
C1975 H1998 0.950 . S
C1976 C1975 1.349 . S
C1976 C1988 1.349 . S
C1977 C1975 1.327 . S
C1977 C1993 1.429 . S
C1977 H1999 0.950 . S
C1978 H1974 0.949 . S
C1978 C1986 1.574 . S
C1978 C1994 1.368 . S
H1979 C1987 0.950 . S
H1980 C1985 0.950 . S
H1981 C1986 0.949 . S
H1982 C1988 0.950 . S
H1983 C1989 0.950 . S
H1984 C1990 0.949 . S
C1985 H1980 0.950 . S
C1985 C1987 1.327 . S
C1985 C1991 1.429 . S
C1986 C1978 1.574 . S
C1986 H1981 0.949 . S
C1986 C1992 1.368 . S
C1987 C1971 1.349 . S
C1987 H1979 0.950 . S
C1987 C1985 1.327 . S
C1988 C1976 1.349 . S
C1988 H1982 0.950 . S
C1988 C1989 1.327 . S
C1989 H1983 0.950 . S
C1989 C1988 1.327 . S
C1989 C1993 1.429 . S
C1990 C1973 1.574 . S
C1990 H1984 0.949 . S
C1990 C1994 1.368 . S
C1991 C1972 1.429 . S
C1991 C1985 1.429 . S
C1991 C1992 1.523 . S
C1992 C1973 1.368 . S
C1992 C1986 1.368 . S
C1992 C1991 1.523 . S
C1993 C1977 1.429 . S
C1993 C1989 1.429 . S
C1993 C1994 1.523 . S
C1994 C1978 1.368 . S
C1994 C1990 1.368 . S
C1994 C1993 1.523 . S
H1995 C1970 0.950 . S
H1996 C1972 0.950 . S
H1997 C1973 0.949 . S
H1998 C1975 0.950 . S
H1999 C1977 0.950 . S
C2000 C2001 1.349 . S
C2000 C2002 1.327 . S
C2000 H2025 0.950 . S
C2001 C2000 1.349 . S
C2001 C2017 1.349 . S
C2002 C2000 1.327 . S
C2002 C2021 1.429 . S
C2002 H2026 0.950 . S
C2003 C2020 1.574 . S
C2003 C2022 1.368 . S
C2003 H2027 0.949 . S
H2004 C2008 0.949 . S
C2005 C2006 1.349 . S
C2005 C2007 1.327 . S
C2005 H2028 0.950 . S
C2006 C2005 1.349 . S
C2006 C2018 1.349 . S
C2007 C2005 1.327 . S
C2007 C2023 1.429 . S
C2007 H2029 0.950 . S
C2008 H2004 0.949 . S
C2008 C2016 1.574 . S
C2008 C2024 1.368 . S
H2009 C2017 0.950 . S
H2010 C2015 0.950 . S
H2011 C2016 0.949 . S
H2012 C2018 0.950 . S
H2013 C2019 0.950 . S
H2014 C2020 0.949 . S
C2015 H2010 0.950 . S
C2015 C2017 1.327 . S
C2015 C2021 1.429 . S
C2016 C2008 1.574 . S
C2016 H2011 0.949 . S
C2016 C2022 1.368 . S
C2017 C2001 1.349 . S
C2017 H2009 0.950 . S
C2017 C2015 1.327 . S
C2018 C2006 1.349 . S
C2018 H2012 0.950 . S
C2018 C2019 1.327 . S
C2019 H2013 0.950 . S
C2019 C2018 1.327 . S
C2019 C2023 1.429 . S
C2020 C2003 1.574 . S
C2020 H2014 0.949 . S
C2020 C2024 1.368 . S
C2021 C2002 1.429 . S
C2021 C2015 1.429 . S
C2021 C2022 1.523 . S
C2022 C2003 1.368 . S
C2022 C2016 1.368 . S
C2022 C2021 1.523 . S
C2023 C2007 1.429 . S
C2023 C2019 1.429 . S
C2023 C2024 1.523 . S
C2024 C2008 1.368 . S
C2024 C2020 1.368 . S
C2024 C2023 1.523 . S
H2025 C2000 0.950 . S
H2026 C2002 0.950 . S
H2027 C2003 0.949 . S
H2028 C2005 0.950 . S
H2029 C2007 0.950 . S
C2030 C2031 1.349 . S
C2030 C2032 1.327 . S
C2030 H2055 0.950 . S
C2031 C2030 1.349 . S
C2031 C2047 1.349 . S
C2032 C2030 1.327 . S
C2032 C2051 1.429 . S
C2032 H2056 0.950 . S
C2033 C2050 1.574 . S
C2033 C2052 1.368 . S
C2033 H2057 0.949 . S
H2034 C2038 0.949 . S
C2035 C2036 1.349 . S
C2035 C2037 1.327 . S
C2035 H2058 0.950 . S
C2036 C2035 1.349 . S
C2036 C2048 1.349 . S
C2037 C2035 1.327 . S
C2037 C2053 1.429 . S
C2037 H2059 0.950 . S
C2038 H2034 0.949 . S
C2038 C2046 1.574 . S
C2038 C2054 1.368 . S
H2039 C2047 0.950 . S
H2040 C2045 0.950 . S
H2041 C2046 0.949 . S
H2042 C2048 0.950 . S
H2043 C2049 0.950 . S
H2044 C2050 0.949 . S
C2045 H2040 0.950 . S
C2045 C2047 1.327 . S
C2045 C2051 1.429 . S
C2046 C2038 1.574 . S
C2046 H2041 0.949 . S
C2046 C2052 1.368 . S
C2047 C2031 1.349 . S
C2047 H2039 0.950 . S
C2047 C2045 1.327 . S
C2048 C2036 1.349 . S
C2048 H2042 0.950 . S
C2048 C2049 1.327 . S
C2049 H2043 0.950 . S
C2049 C2048 1.327 . S
C2049 C2053 1.429 . S
C2050 C2033 1.574 . S
C2050 H2044 0.949 . S
C2050 C2054 1.368 . S
C2051 C2032 1.429 . S
C2051 C2045 1.429 . S
C2051 C2052 1.523 . S
C2052 C2033 1.368 . S
C2052 C2046 1.368 . S
C2052 C2051 1.523 . S
C2053 C2037 1.429 . S
C2053 C2049 1.429 . S
C2053 C2054 1.523 . S
C2054 C2038 1.368 . S
C2054 C2050 1.368 . S
C2054 C2053 1.523 . S
H2055 C2030 0.950 . S
H2056 C2032 0.950 . S
H2057 C2033 0.949 . S
H2058 C2035 0.950 . S
H2059 C2037 0.950 . S
C2060 C2061 1.349 . S
C2060 C2062 1.327 . S
C2060 H2085 0.950 . S
C2061 C2060 1.349 . S
C2061 C2077 1.349 . S
C2062 C2060 1.327 . S
C2062 C2081 1.429 . S
C2062 H2086 0.950 . S
C2063 C2080 1.574 . S
C2063 C2082 1.368 . S
C2063 H2087 0.949 . S
H2064 C2068 0.949 . S
C2065 C2066 1.349 . S
C2065 C2067 1.327 . S
C2065 H2088 0.950 . S
C2066 C2065 1.349 . S
C2066 C2078 1.349 . S
C2067 C2065 1.327 . S
C2067 C2083 1.429 . S
C2067 H2089 0.950 . S
C2068 H2064 0.949 . S
C2068 C2076 1.574 . S
C2068 C2084 1.368 . S
H2069 C2077 0.950 . S
H2070 C2075 0.950 . S
H2071 C2076 0.949 . S
H2072 C2078 0.950 . S
H2073 C2079 0.950 . S
H2074 C2080 0.949 . S
C2075 H2070 0.950 . S
C2075 C2077 1.327 . S
C2075 C2081 1.429 . S
C2076 C2068 1.574 . S
C2076 H2071 0.949 . S
C2076 C2082 1.368 . S
C2077 C2061 1.349 . S
C2077 H2069 0.950 . S
C2077 C2075 1.327 . S
C2078 C2066 1.349 . S
C2078 H2072 0.950 . S
C2078 C2079 1.327 . S
C2079 H2073 0.950 . S
C2079 C2078 1.327 . S
C2079 C2083 1.429 . S
C2080 C2063 1.574 . S
C2080 H2074 0.949 . S
C2080 C2084 1.368 . S
C2081 C2062 1.429 . S
C2081 C2075 1.429 . S
C2081 C2082 1.523 . S
C2082 C2063 1.368 . S
C2082 C2076 1.368 . S
C2082 C2081 1.523 . S
C2083 C2067 1.429 . S
C2083 C2079 1.429 . S
C2083 C2084 1.523 . S
C2084 C2068 1.368 . S
C2084 C2080 1.368 . S
C2084 C2083 1.523 . S
H2085 C2060 0.950 . S
H2086 C2062 0.950 . S
H2087 C2063 0.949 . S
H2088 C2065 0.950 . S
H2089 C2067 0.950 . S
C2090 C2091 1.349 . S
C2090 C2092 1.327 . S
C2090 H2115 0.950 . S
C2091 C2090 1.349 . S
C2091 C2107 1.349 . S
C2092 C2090 1.327 . S
C2092 C2111 1.429 . S
C2092 H2116 0.950 . S
C2093 C2110 1.574 . S
C2093 C2112 1.368 . S
C2093 H2117 0.949 . S
H2094 C2098 0.949 . S
C2095 C2096 1.349 . S
C2095 C2097 1.327 . S
C2095 H2118 0.950 . S
C2096 C2095 1.349 . S
C2096 C2108 1.349 . S
C2097 C2095 1.327 . S
C2097 C2113 1.429 . S
C2097 H2119 0.950 . S
C2098 H2094 0.949 . S
C2098 C2106 1.574 . S
C2098 C2114 1.368 . S
H2099 C2107 0.950 . S
H2100 C2105 0.950 . S
H2101 C2106 0.949 . S
H2102 C2108 0.950 . S
H2103 C2109 0.950 . S
H2104 C2110 0.949 . S
C2105 H2100 0.950 . S
C2105 C2107 1.327 . S
C2105 C2111 1.429 . S
C2106 C2098 1.574 . S
C2106 H2101 0.949 . S
C2106 C2112 1.368 . S
C2107 C2091 1.349 . S
C2107 H2099 0.950 . S
C2107 C2105 1.327 . S
C2108 C2096 1.349 . S
C2108 H2102 0.950 . S
C2108 C2109 1.327 . S
C2109 H2103 0.950 . S
C2109 C2108 1.327 . S
C2109 C2113 1.429 . S
C2110 C2093 1.574 . S
C2110 H2104 0.949 . S
C2110 C2114 1.368 . S
C2111 C2092 1.429 . S
C2111 C2105 1.429 . S
C2111 C2112 1.523 . S
C2112 C2093 1.368 . S
C2112 C2106 1.368 . S
C2112 C2111 1.523 . S
C2113 C2097 1.429 . S
C2113 C2109 1.429 . S
C2113 C2114 1.523 . S
C2114 C2098 1.368 . S
C2114 C2110 1.368 . S
C2114 C2113 1.523 . S
H2115 C2090 0.950 . S
H2116 C2092 0.950 . S
H2117 C2093 0.949 . S
H2118 C2095 0.950 . S
H2119 C2097 0.950 . S
C2120 C2121 1.349 . S
C2120 C2122 1.327 . S
C2120 H2145 0.950 . S
C2121 C2120 1.349 . S
C2121 C2137 1.349 . S
C2122 C2120 1.327 . S
C2122 C2141 1.429 . S
C2122 H2146 0.950 . S
C2123 C2140 1.574 . S
C2123 C2142 1.368 . S
C2123 H2147 0.949 . S
H2124 C2128 0.949 . S
C2125 C2126 1.349 . S
C2125 C2127 1.327 . S
C2125 H2148 0.950 . S
C2126 C2125 1.349 . S
C2126 C2138 1.349 . S
C2127 C2125 1.327 . S
C2127 C2143 1.429 . S
C2127 H2149 0.950 . S
C2128 H2124 0.949 . S
C2128 C2136 1.574 . S
C2128 C2144 1.368 . S
H2129 C2137 0.950 . S
H2130 C2135 0.950 . S
H2131 C2136 0.949 . S
H2132 C2138 0.950 . S
H2133 C2139 0.950 . S
H2134 C2140 0.949 . S
C2135 H2130 0.950 . S
C2135 C2137 1.327 . S
C2135 C2141 1.429 . S
C2136 C2128 1.574 . S
C2136 H2131 0.949 . S
C2136 C2142 1.368 . S
C2137 C2121 1.349 . S
C2137 H2129 0.950 . S
C2137 C2135 1.327 . S
C2138 C2126 1.349 . S
C2138 H2132 0.950 . S
C2138 C2139 1.327 . S
C2139 H2133 0.950 . S
C2139 C2138 1.327 . S
C2139 C2143 1.429 . S
C2140 C2123 1.574 . S
C2140 H2134 0.949 . S
C2140 C2144 1.368 . S
C2141 C2122 1.429 . S
C2141 C2135 1.429 . S
C2141 C2142 1.523 . S
C2142 C2123 1.368 . S
C2142 C2136 1.368 . S
C2142 C2141 1.523 . S
C2143 C2127 1.429 . S
C2143 C2139 1.429 . S
C2143 C2144 1.523 . S
C2144 C2128 1.368 . S
C2144 C2140 1.368 . S
C2144 C2143 1.523 . S
H2145 C2120 0.950 . S
H2146 C2122 0.950 . S
H2147 C2123 0.949 . S
H2148 C2125 0.950 . S
H2149 C2127 0.950 . S
C2150 C2151 1.349 . S
C2150 C2152 1.327 . S
C2150 H2175 0.950 . S
C2151 C2150 1.349 . S
C2151 C2167 1.349 . S
C2152 C2150 1.327 . S
C2152 C2171 1.429 . S
C2152 H2176 0.950 . S
C2153 C2170 1.574 . S
C2153 C2172 1.368 . S
C2153 H2177 0.949 . S
H2154 C2158 0.949 . S
C2155 C2156 1.349 . S
C2155 C2157 1.327 . S
C2155 H2178 0.950 . S
C2156 C2155 1.349 . S
C2156 C2168 1.349 . S
C2157 C2155 1.327 . S
C2157 C2173 1.429 . S
C2157 H2179 0.950 . S
C2158 H2154 0.949 . S
C2158 C2166 1.574 . S
C2158 C2174 1.368 . S
H2159 C2167 0.950 . S
H2160 C2165 0.950 . S
H2161 C2166 0.949 . S
H2162 C2168 0.950 . S
H2163 C2169 0.950 . S
H2164 C2170 0.949 . S
C2165 H2160 0.950 . S
C2165 C2167 1.327 . S
C2165 C2171 1.429 . S
C2166 C2158 1.574 . S
C2166 H2161 0.949 . S
C2166 C2172 1.368 . S
C2167 C2151 1.349 . S
C2167 H2159 0.950 . S
C2167 C2165 1.327 . S
C2168 C2156 1.349 . S
C2168 H2162 0.950 . S
C2168 C2169 1.327 . S
C2169 H2163 0.950 . S
C2169 C2168 1.327 . S
C2169 C2173 1.429 . S
C2170 C2153 1.574 . S
C2170 H2164 0.949 . S
C2170 C2174 1.368 . S
C2171 C2152 1.429 . S
C2171 C2165 1.429 . S
C2171 C2172 1.523 . S
C2172 C2153 1.368 . S
C2172 C2166 1.368 . S
C2172 C2171 1.523 . S
C2173 C2157 1.429 . S
C2173 C2169 1.429 . S
C2173 C2174 1.523 . S
C2174 C2158 1.368 . S
C2174 C2170 1.368 . S
C2174 C2173 1.523 . S
H2175 C2150 0.950 . S
H2176 C2152 0.950 . S
H2177 C2153 0.949 . S
H2178 C2155 0.950 . S
H2179 C2157 0.950 . S
C2180 C2181 1.349 . S
C2180 C2182 1.327 . S
C2180 H2205 0.950 . S
C2181 C2180 1.349 . S
C2181 C2197 1.349 . S
C2182 C2180 1.327 . S
C2182 C2201 1.429 . S
C2182 H2206 0.950 . S
C2183 C2200 1.574 . S
C2183 C2202 1.368 . S
C2183 H2207 0.949 . S
H2184 C2188 0.949 . S
C2185 C2186 1.349 . S
C2185 C2187 1.327 . S
C2185 H2208 0.950 . S
C2186 C2185 1.349 . S
C2186 C2198 1.349 . S
C2187 C2185 1.327 . S
C2187 C2203 1.429 . S
C2187 H2209 0.950 . S
C2188 H2184 0.949 . S
C2188 C2196 1.574 . S
C2188 C2204 1.368 . S
H2189 C2197 0.950 . S
H2190 C2195 0.950 . S
H2191 C2196 0.949 . S
H2192 C2198 0.950 . S
H2193 C2199 0.950 . S
H2194 C2200 0.949 . S
C2195 H2190 0.950 . S
C2195 C2197 1.327 . S
C2195 C2201 1.429 . S
C2196 C2188 1.574 . S
C2196 H2191 0.949 . S
C2196 C2202 1.368 . S
C2197 C2181 1.349 . S
C2197 H2189 0.950 . S
C2197 C2195 1.327 . S
C2198 C2186 1.349 . S
C2198 H2192 0.950 . S
C2198 C2199 1.327 . S
C2199 H2193 0.950 . S
C2199 C2198 1.327 . S
C2199 C2203 1.429 . S
C2200 C2183 1.574 . S
C2200 H2194 0.949 . S
C2200 C2204 1.368 . S
C2201 C2182 1.429 . S
C2201 C2195 1.429 . S
C2201 C2202 1.523 . S
C2202 C2183 1.368 . S
C2202 C2196 1.368 . S
C2202 C2201 1.523 . S
C2203 C2187 1.429 . S
C2203 C2199 1.429 . S
C2203 C2204 1.523 . S
C2204 C2188 1.368 . S
C2204 C2200 1.368 . S
C2204 C2203 1.523 . S
H2205 C2180 0.950 . S
H2206 C2182 0.950 . S
H2207 C2183 0.949 . S
H2208 C2185 0.950 . S
H2209 C2187 0.950 . S
C2210 C2211 1.349 . S
C2210 C2212 1.327 . S
C2210 H2235 0.950 . S
C2211 C2210 1.349 . S
C2211 C2227 1.349 . S
C2212 C2210 1.327 . S
C2212 C2231 1.429 . S
C2212 H2236 0.950 . S
C2213 C2230 1.574 . S
C2213 C2232 1.368 . S
C2213 H2237 0.949 . S
H2214 C2218 0.949 . S
C2215 C2216 1.349 . S
C2215 C2217 1.327 . S
C2215 H2238 0.950 . S
C2216 C2215 1.349 . S
C2216 C2228 1.349 . S
C2217 C2215 1.327 . S
C2217 C2233 1.429 . S
C2217 H2239 0.950 . S
C2218 H2214 0.949 . S
C2218 C2226 1.574 . S
C2218 C2234 1.368 . S
H2219 C2227 0.950 . S
H2220 C2225 0.950 . S
H2221 C2226 0.949 . S
H2222 C2228 0.950 . S
H2223 C2229 0.950 . S
H2224 C2230 0.949 . S
C2225 H2220 0.950 . S
C2225 C2227 1.327 . S
C2225 C2231 1.429 . S
C2226 C2218 1.574 . S
C2226 H2221 0.949 . S
C2226 C2232 1.368 . S
C2227 C2211 1.349 . S
C2227 H2219 0.950 . S
C2227 C2225 1.327 . S
C2228 C2216 1.349 . S
C2228 H2222 0.950 . S
C2228 C2229 1.327 . S
C2229 H2223 0.950 . S
C2229 C2228 1.327 . S
C2229 C2233 1.429 . S
C2230 C2213 1.574 . S
C2230 H2224 0.949 . S
C2230 C2234 1.368 . S
C2231 C2212 1.429 . S
C2231 C2225 1.429 . S
C2231 C2232 1.523 . S
C2232 C2213 1.368 . S
C2232 C2226 1.368 . S
C2232 C2231 1.523 . S
C2233 C2217 1.429 . S
C2233 C2229 1.429 . S
C2233 C2234 1.523 . S
C2234 C2218 1.368 . S
C2234 C2230 1.368 . S
C2234 C2233 1.523 . S
H2235 C2210 0.950 . S
H2236 C2212 0.950 . S
H2237 C2213 0.949 . S
H2238 C2215 0.950 . S
H2239 C2217 0.950 . S
C2240 C2241 1.349 . S
C2240 C2242 1.327 . S
C2240 H2265 0.950 . S
C2241 C2240 1.349 . S
C2241 C2257 1.349 . S
C2242 C2240 1.327 . S
C2242 C2261 1.429 . S
C2242 H2266 0.950 . S
C2243 C2260 1.574 . S
C2243 C2262 1.368 . S
C2243 H2267 0.949 . S
H2244 C2248 0.949 . S
C2245 C2246 1.349 . S
C2245 C2247 1.327 . S
C2245 H2268 0.950 . S
C2246 C2245 1.349 . S
C2246 C2258 1.349 . S
C2247 C2245 1.327 . S
C2247 C2263 1.429 . S
C2247 H2269 0.950 . S
C2248 H2244 0.949 . S
C2248 C2256 1.574 . S
C2248 C2264 1.368 . S
H2249 C2257 0.950 . S
H2250 C2255 0.950 . S
H2251 C2256 0.949 . S
H2252 C2258 0.950 . S
H2253 C2259 0.950 . S
H2254 C2260 0.949 . S
C2255 H2250 0.950 . S
C2255 C2257 1.327 . S
C2255 C2261 1.429 . S
C2256 C2248 1.574 . S
C2256 H2251 0.949 . S
C2256 C2262 1.368 . S
C2257 C2241 1.349 . S
C2257 H2249 0.950 . S
C2257 C2255 1.327 . S
C2258 C2246 1.349 . S
C2258 H2252 0.950 . S
C2258 C2259 1.327 . S
C2259 H2253 0.950 . S
C2259 C2258 1.327 . S
C2259 C2263 1.429 . S
C2260 C2243 1.574 . S
C2260 H2254 0.949 . S
C2260 C2264 1.368 . S
C2261 C2242 1.429 . S
C2261 C2255 1.429 . S
C2261 C2262 1.523 . S
C2262 C2243 1.368 . S
C2262 C2256 1.368 . S
C2262 C2261 1.523 . S
C2263 C2247 1.429 . S
C2263 C2259 1.429 . S
C2263 C2264 1.523 . S
C2264 C2248 1.368 . S
C2264 C2260 1.368 . S
C2264 C2263 1.523 . S
H2265 C2240 0.950 . S
H2266 C2242 0.950 . S
H2267 C2243 0.949 . S
H2268 C2245 0.950 . S
H2269 C2247 0.950 . S
C2270 C2271 1.349 . S
C2270 C2272 1.327 . S
C2270 H2295 0.950 . S
C2271 C2270 1.349 . S
C2271 C2287 1.349 . S
C2272 C2270 1.327 . S
C2272 C2291 1.429 . S
C2272 H2296 0.950 . S
C2273 C2290 1.574 . S
C2273 C2292 1.368 . S
C2273 H2297 0.949 . S
H2274 C2278 0.949 . S
C2275 C2276 1.349 . S
C2275 C2277 1.327 . S
C2275 H2298 0.950 . S
C2276 C2275 1.349 . S
C2276 C2288 1.349 . S
C2277 C2275 1.327 . S
C2277 C2293 1.429 1_655 S
C2277 H2299 0.950 . S
C2278 H2274 0.949 . S
C2278 C2286 1.574 . S
C2278 C2294 1.368 . S
H2279 C2287 0.950 . S
H2280 C2285 0.950 . S
H2281 C2286 0.949 . S
H2282 C2288 0.950 . S
H2283 C2289 0.950 . S
H2284 C2290 0.949 . S
C2285 H2280 0.950 . S
C2285 C2287 1.327 . S
C2285 C2291 1.429 . S
C2286 C2278 1.574 . S
C2286 H2281 0.949 . S
C2286 C2292 1.368 . S
C2287 C2271 1.349 . S
C2287 H2279 0.950 . S
C2287 C2285 1.327 . S
C2288 C2276 1.349 . S
C2288 H2282 0.950 . S
C2288 C2289 1.327 1_655 S
C2289 H2283 0.950 . S
C2289 C2288 1.327 1_455 S
C2289 C2293 1.429 . S
C2290 C2273 1.574 . S
C2290 H2284 0.949 . S
C2290 C2294 1.368 . S
C2291 C2272 1.429 . S
C2291 C2285 1.429 . S
C2291 C2292 1.523 . S
C2292 C2273 1.368 . S
C2292 C2286 1.368 . S
C2292 C2291 1.523 . S
C2293 C2277 1.429 1_455 S
C2293 C2289 1.429 . S
C2293 C2294 1.523 . S
C2294 C2278 1.368 . S
C2294 C2290 1.368 . S
C2294 C2293 1.523 . S
H2295 C2270 0.950 . S
H2296 C2272 0.950 . S
H2297 C2273 0.949 . S
H2298 C2275 0.950 . S
H2299 C2277 0.950 . S
C2300 C2301 1.349 . S
C2300 C2302 1.327 . S
C2300 H2325 0.950 . S
C2301 C2300 1.349 . S
C2301 C2317 1.349 . S
C2302 C2300 1.327 . S
C2302 C2321 1.429 . S
C2302 H2326 0.950 . S
C2303 C2320 1.574 . S
C2303 C2322 1.368 . S
C2303 H2327 0.949 . S
H2304 C2308 0.949 . S
C2305 C2306 1.349 . S
C2305 C2307 1.327 . S
C2305 H2328 0.950 . S
C2306 C2305 1.349 . S
C2306 C2318 1.349 . S
C2307 C2305 1.327 . S
C2307 C2323 1.429 . S
C2307 H2329 0.950 . S
C2308 H2304 0.949 . S
C2308 C2316 1.574 . S
C2308 C2324 1.368 . S
H2309 C2317 0.950 . S
H2310 C2315 0.950 . S
H2311 C2316 0.949 . S
H2312 C2318 0.950 . S
H2313 C2319 0.950 . S
H2314 C2320 0.949 . S
C2315 H2310 0.950 . S
C2315 C2317 1.327 . S
C2315 C2321 1.429 . S
C2316 C2308 1.574 . S
C2316 H2311 0.949 . S
C2316 C2322 1.368 . S
C2317 C2301 1.349 . S
C2317 H2309 0.950 . S
C2317 C2315 1.327 . S
C2318 C2306 1.349 . S
C2318 H2312 0.950 . S
C2318 C2319 1.327 . S
C2319 H2313 0.950 . S
C2319 C2318 1.327 . S
C2319 C2323 1.429 . S
C2320 C2303 1.574 . S
C2320 H2314 0.949 . S
C2320 C2324 1.368 . S
C2321 C2302 1.429 . S
C2321 C2315 1.429 . S
C2321 C2322 1.523 . S
C2322 C2303 1.368 . S
C2322 C2316 1.368 . S
C2322 C2321 1.523 . S
C2323 C2307 1.429 . S
C2323 C2319 1.429 . S
C2323 C2324 1.523 . S
C2324 C2308 1.368 . S
C2324 C2320 1.368 . S
C2324 C2323 1.523 . S
H2325 C2300 0.950 . S
H2326 C2302 0.950 . S
H2327 C2303 0.949 . S
H2328 C2305 0.950 . S
H2329 C2307 0.950 . S
C2330 C2331 1.349 . S
C2330 C2332 1.327 . S
C2330 H2355 0.950 . S
C2331 C2330 1.349 . S
C2331 C2347 1.349 . S
C2332 C2330 1.327 . S
C2332 C2351 1.429 . S
C2332 H2356 0.950 . S
C2333 C2350 1.574 . S
C2333 C2352 1.368 . S
C2333 H2357 0.949 . S
H2334 C2338 0.949 . S
C2335 C2336 1.349 . S
C2335 C2337 1.327 . S
C2335 H2358 0.950 . S
C2336 C2335 1.349 . S
C2336 C2348 1.349 . S
C2337 C2335 1.327 . S
C2337 C2353 1.429 . S
C2337 H2359 0.950 . S
C2338 H2334 0.949 . S
C2338 C2346 1.574 . S
C2338 C2354 1.368 . S
H2339 C2347 0.950 . S
H2340 C2345 0.950 . S
H2341 C2346 0.949 . S
H2342 C2348 0.950 . S
H2343 C2349 0.950 . S
H2344 C2350 0.949 . S
C2345 H2340 0.950 . S
C2345 C2347 1.327 . S
C2345 C2351 1.429 . S
C2346 C2338 1.574 . S
C2346 H2341 0.949 . S
C2346 C2352 1.368 . S
C2347 C2331 1.349 . S
C2347 H2339 0.950 . S
C2347 C2345 1.327 . S
C2348 C2336 1.349 . S
C2348 H2342 0.950 . S
C2348 C2349 1.327 . S
C2349 H2343 0.950 . S
C2349 C2348 1.327 . S
C2349 C2353 1.429 . S
C2350 C2333 1.574 . S
C2350 H2344 0.949 . S
C2350 C2354 1.368 . S
C2351 C2332 1.429 . S
C2351 C2345 1.429 . S
C2351 C2352 1.523 . S
C2352 C2333 1.368 . S
C2352 C2346 1.368 . S
C2352 C2351 1.523 . S
C2353 C2337 1.429 . S
C2353 C2349 1.429 . S
C2353 C2354 1.523 . S
C2354 C2338 1.368 . S
C2354 C2350 1.368 . S
C2354 C2353 1.523 . S
H2355 C2330 0.950 . S
H2356 C2332 0.950 . S
H2357 C2333 0.949 . S
H2358 C2335 0.950 . S
H2359 C2337 0.950 . S
C2360 C2361 1.349 . S
C2360 C2362 1.327 . S
C2360 H2385 0.950 . S
C2361 C2360 1.349 . S
C2361 C2377 1.349 . S
C2362 C2360 1.327 . S
C2362 C2381 1.429 . S
C2362 H2386 0.950 . S
C2363 C2380 1.574 . S
C2363 C2382 1.368 . S
C2363 H2387 0.949 . S
H2364 C2368 0.949 . S
C2365 C2366 1.349 . S
C2365 C2367 1.327 . S
C2365 H2388 0.950 . S
C2366 C2365 1.349 . S
C2366 C2378 1.349 . S
C2367 C2365 1.327 . S
C2367 C2383 1.429 . S
C2367 H2389 0.950 . S
C2368 H2364 0.949 . S
C2368 C2376 1.574 . S
C2368 C2384 1.368 . S
H2369 C2377 0.950 . S
H2370 C2375 0.950 . S
H2371 C2376 0.949 . S
H2372 C2378 0.950 . S
H2373 C2379 0.950 . S
H2374 C2380 0.949 . S
C2375 H2370 0.950 . S
C2375 C2377 1.327 . S
C2375 C2381 1.429 . S
C2376 C2368 1.574 . S
C2376 H2371 0.949 . S
C2376 C2382 1.368 . S
C2377 C2361 1.349 . S
C2377 H2369 0.950 . S
C2377 C2375 1.327 . S
C2378 C2366 1.349 . S
C2378 H2372 0.950 . S
C2378 C2379 1.327 . S
C2379 H2373 0.950 . S
C2379 C2378 1.327 . S
C2379 C2383 1.429 . S
C2380 C2363 1.574 . S
C2380 H2374 0.949 . S
C2380 C2384 1.368 . S
C2381 C2362 1.429 . S
C2381 C2375 1.429 . S
C2381 C2382 1.523 . S
C2382 C2363 1.368 . S
C2382 C2376 1.368 . S
C2382 C2381 1.523 . S
C2383 C2367 1.429 . S
C2383 C2379 1.429 . S
C2383 C2384 1.523 . S
C2384 C2368 1.368 . S
C2384 C2380 1.368 . S
C2384 C2383 1.523 . S
H2385 C2360 0.950 . S
H2386 C2362 0.950 . S
H2387 C2363 0.949 . S
H2388 C2365 0.950 . S
H2389 C2367 0.950 . S
C2390 C2391 1.349 . S
C2390 C2392 1.327 . S
C2390 H2415 0.950 . S
C2391 C2390 1.349 . S
C2391 C2407 1.349 . S
C2392 C2390 1.327 . S
C2392 C2411 1.429 . S
C2392 H2416 0.950 . S
C2393 C2410 1.574 . S
C2393 C2412 1.368 . S
C2393 H2417 0.949 . S
H2394 C2398 0.949 . S
C2395 C2396 1.349 . S
C2395 C2397 1.327 . S
C2395 H2418 0.950 . S
C2396 C2395 1.349 . S
C2396 C2408 1.349 . S
C2397 C2395 1.327 . S
C2397 C2413 1.429 . S
C2397 H2419 0.950 . S
C2398 H2394 0.949 . S
C2398 C2406 1.574 . S
C2398 C2414 1.368 . S
H2399 C2407 0.950 . S
H2400 C2405 0.950 . S
H2401 C2406 0.949 . S
H2402 C2408 0.950 . S
H2403 C2409 0.950 . S
H2404 C2410 0.949 . S
C2405 H2400 0.950 . S
C2405 C2407 1.327 . S
C2405 C2411 1.429 . S
C2406 C2398 1.574 . S
C2406 H2401 0.949 . S
C2406 C2412 1.368 . S
C2407 C2391 1.349 . S
C2407 H2399 0.950 . S
C2407 C2405 1.327 . S
C2408 C2396 1.349 . S
C2408 H2402 0.950 . S
C2408 C2409 1.327 . S
C2409 H2403 0.950 . S
C2409 C2408 1.327 . S
C2409 C2413 1.429 . S
C2410 C2393 1.574 . S
C2410 H2404 0.949 . S
C2410 C2414 1.368 . S
C2411 C2392 1.429 . S
C2411 C2405 1.429 . S
C2411 C2412 1.523 . S
C2412 C2393 1.368 . S
C2412 C2406 1.368 . S
C2412 C2411 1.523 . S
C2413 C2397 1.429 . S
C2413 C2409 1.429 . S
C2413 C2414 1.523 . S
C2414 C2398 1.368 . S
C2414 C2410 1.368 . S
C2414 C2413 1.523 . S
H2415 C2390 0.950 . S
H2416 C2392 0.950 . S
H2417 C2393 0.949 . S
H2418 C2395 0.950 . S
H2419 C2397 0.950 . S
C2420 C2421 1.349 . S
C2420 C2422 1.327 . S
C2420 H2445 0.950 . S
C2421 C2420 1.349 . S
C2421 C2437 1.349 . S
C2422 C2420 1.327 . S
C2422 C2441 1.429 . S
C2422 H2446 0.950 . S
C2423 C2440 1.574 . S
C2423 C2442 1.368 . S
C2423 H2447 0.949 . S
H2424 C2428 0.949 . S
C2425 C2426 1.349 . S
C2425 C2427 1.327 . S
C2425 H2448 0.950 . S
C2426 C2425 1.349 . S
C2426 C2438 1.349 . S
C2427 C2425 1.327 . S
C2427 C2443 1.429 . S
C2427 H2449 0.950 . S
C2428 H2424 0.949 . S
C2428 C2436 1.574 . S
C2428 C2444 1.368 . S
H2429 C2437 0.950 . S
H2430 C2435 0.950 . S
H2431 C2436 0.949 . S
H2432 C2438 0.950 . S
H2433 C2439 0.950 . S
H2434 C2440 0.949 . S
C2435 H2430 0.950 . S
C2435 C2437 1.327 . S
C2435 C2441 1.429 . S
C2436 C2428 1.574 . S
C2436 H2431 0.949 . S
C2436 C2442 1.368 . S
C2437 C2421 1.349 . S
C2437 H2429 0.950 . S
C2437 C2435 1.327 . S
C2438 C2426 1.349 . S
C2438 H2432 0.950 . S
C2438 C2439 1.327 . S
C2439 H2433 0.950 . S
C2439 C2438 1.327 . S
C2439 C2443 1.429 . S
C2440 C2423 1.574 . S
C2440 H2434 0.949 . S
C2440 C2444 1.368 . S
C2441 C2422 1.429 . S
C2441 C2435 1.429 . S
C2441 C2442 1.523 . S
C2442 C2423 1.368 . S
C2442 C2436 1.368 . S
C2442 C2441 1.523 . S
C2443 C2427 1.429 . S
C2443 C2439 1.429 . S
C2443 C2444 1.523 . S
C2444 C2428 1.368 . S
C2444 C2440 1.368 . S
C2444 C2443 1.523 . S
H2445 C2420 0.950 . S
H2446 C2422 0.950 . S
H2447 C2423 0.949 . S
H2448 C2425 0.950 . S
H2449 C2427 0.950 . S
C2450 C2451 1.349 . S
C2450 C2452 1.327 . S
C2450 H2475 0.950 . S
C2451 C2450 1.349 . S
C2451 C2467 1.349 . S
C2452 C2450 1.327 . S
C2452 C2471 1.429 . S
C2452 H2476 0.950 . S
C2453 C2470 1.574 . S
C2453 C2472 1.368 . S
C2453 H2477 0.949 . S
H2454 C2458 0.949 . S
C2455 C2456 1.349 . S
C2455 C2457 1.327 1_655 S
C2455 H2478 0.950 . S
C2456 C2455 1.349 . S
C2456 C2468 1.349 . S
C2457 C2455 1.327 1_455 S
C2457 C2473 1.429 . S
C2457 H2479 0.950 . S
C2458 H2454 0.949 . S
C2458 C2466 1.574 . S
C2458 C2474 1.368 . S
H2459 C2467 0.950 . S
H2460 C2465 0.950 . S
H2461 C2466 0.949 . S
H2462 C2468 0.950 . S
H2463 C2469 0.950 . S
H2464 C2470 0.949 . S
C2465 H2460 0.950 . S
C2465 C2467 1.327 . S
C2465 C2471 1.429 . S
C2466 C2458 1.574 . S
C2466 H2461 0.949 . S
C2466 C2472 1.368 . S
C2467 C2451 1.349 . S
C2467 H2459 0.950 . S
C2467 C2465 1.327 . S
C2468 C2456 1.349 . S
C2468 H2462 0.950 . S
C2468 C2469 1.327 . S
C2469 H2463 0.950 . S
C2469 C2468 1.327 . S
C2469 C2473 1.429 1_655 S
C2470 C2453 1.574 . S
C2470 H2464 0.949 . S
C2470 C2474 1.368 . S
C2471 C2452 1.429 . S
C2471 C2465 1.429 . S
C2471 C2472 1.523 . S
C2472 C2453 1.368 . S
C2472 C2466 1.368 . S
C2472 C2471 1.523 . S
C2473 C2457 1.429 . S
C2473 C2469 1.429 1_455 S
C2473 C2474 1.523 . S
C2474 C2458 1.368 . S
C2474 C2470 1.368 . S
C2474 C2473 1.523 . S
H2475 C2450 0.950 . S
H2476 C2452 0.950 . S
H2477 C2453 0.949 . S
H2478 C2455 0.950 . S
H2479 C2457 0.950 . S
C2480 C2481 1.349 . S
C2480 C2482 1.327 . S
C2480 H2505 0.950 . S
C2481 C2480 1.349 . S
C2481 C2497 1.349 . S
C2482 C2480 1.327 . S
C2482 C2501 1.429 . S
C2482 H2506 0.950 . S
C2483 C2500 1.574 . S
C2483 C2502 1.368 . S
C2483 H2507 0.949 . S
H2484 C2488 0.949 . S
C2485 C2486 1.349 . S
C2485 C2487 1.327 . S
C2485 H2508 0.950 . S
C2486 C2485 1.349 . S
C2486 C2498 1.349 . S
C2487 C2485 1.327 . S
C2487 C2503 1.429 . S
C2487 H2509 0.950 . S
C2488 H2484 0.949 . S
C2488 C2496 1.574 . S
C2488 C2504 1.368 . S
H2489 C2497 0.950 . S
H2490 C2495 0.950 . S
H2491 C2496 0.949 . S
H2492 C2498 0.950 . S
H2493 C2499 0.950 . S
H2494 C2500 0.949 . S
C2495 H2490 0.950 . S
C2495 C2497 1.327 . S
C2495 C2501 1.429 . S
C2496 C2488 1.574 . S
C2496 H2491 0.949 . S
C2496 C2502 1.368 . S
C2497 C2481 1.349 . S
C2497 H2489 0.950 . S
C2497 C2495 1.327 . S
C2498 C2486 1.349 . S
C2498 H2492 0.950 . S
C2498 C2499 1.327 . S
C2499 H2493 0.950 . S
C2499 C2498 1.327 . S
C2499 C2503 1.429 . S
C2500 C2483 1.574 . S
C2500 H2494 0.949 . S
C2500 C2504 1.368 . S
C2501 C2482 1.429 . S
C2501 C2495 1.429 . S
C2501 C2502 1.523 . S
C2502 C2483 1.368 . S
C2502 C2496 1.368 . S
C2502 C2501 1.523 . S
C2503 C2487 1.429 . S
C2503 C2499 1.429 . S
C2503 C2504 1.523 . S
C2504 C2488 1.368 . S
C2504 C2500 1.368 . S
C2504 C2503 1.523 . S
H2505 C2480 0.950 . S
H2506 C2482 0.950 . S
H2507 C2483 0.949 . S
H2508 C2485 0.950 . S
H2509 C2487 0.950 . S
C2510 C2511 1.349 . S
C2510 C2512 1.327 . S
C2510 H2535 0.950 . S
C2511 C2510 1.349 . S
C2511 C2527 1.349 . S
C2512 C2510 1.327 . S
C2512 C2531 1.429 1_455 S
C2512 H2536 0.950 . S
C2513 C2530 1.574 . S
C2513 C2532 1.368 . S
C2513 H2537 0.949 . S
H2514 C2518 0.949 . S
C2515 C2516 1.349 . S
C2515 C2517 1.327 . S
C2515 H2538 0.950 . S
C2516 C2515 1.349 . S
C2516 C2528 1.349 . S
C2517 C2515 1.327 . S
C2517 C2533 1.429 . S
C2517 H2539 0.950 . S
C2518 H2514 0.949 . S
C2518 C2526 1.574 . S
C2518 C2534 1.368 . S
H2519 C2527 0.950 . S
H2520 C2525 0.950 . S
H2521 C2526 0.949 . S
H2522 C2528 0.950 . S
H2523 C2529 0.950 . S
H2524 C2530 0.949 . S
C2525 H2520 0.950 . S
C2525 C2527 1.327 1_655 S
C2525 C2531 1.429 . S
C2526 C2518 1.574 . S
C2526 H2521 0.949 . S
C2526 C2532 1.368 . S
C2527 C2511 1.349 . S
C2527 H2519 0.950 . S
C2527 C2525 1.327 1_455 S
C2528 C2516 1.349 . S
C2528 H2522 0.950 . S
C2528 C2529 1.327 . S
C2529 H2523 0.950 . S
C2529 C2528 1.327 . S
C2529 C2533 1.429 . S
C2530 C2513 1.574 . S
C2530 H2524 0.949 . S
C2530 C2534 1.368 . S
C2531 C2512 1.429 1_655 S
C2531 C2525 1.429 . S
C2531 C2532 1.523 . S
C2532 C2513 1.368 . S
C2532 C2526 1.368 . S
C2532 C2531 1.523 . S
C2533 C2517 1.429 . S
C2533 C2529 1.429 . S
C2533 C2534 1.523 . S
C2534 C2518 1.368 . S
C2534 C2530 1.368 . S
C2534 C2533 1.523 . S
H2535 C2510 0.950 . S
H2536 C2512 0.950 . S
H2537 C2513 0.949 . S
H2538 C2515 0.950 . S
H2539 C2517 0.950 . S
C2540 C2541 1.349 . S
C2540 C2542 1.327 . S
C2540 H2565 0.950 . S
C2541 C2540 1.349 . S
C2541 C2557 1.349 . S
C2542 C2540 1.327 . S
C2542 C2561 1.429 . S
C2542 H2566 0.950 . S
C2543 C2560 1.574 . S
C2543 C2562 1.368 . S
C2543 H2567 0.949 . S
H2544 C2548 0.949 . S
C2545 C2546 1.349 . S
C2545 C2547 1.327 . S
C2545 H2568 0.950 . S
C2546 C2545 1.349 . S
C2546 C2558 1.349 . S
C2547 C2545 1.327 . S
C2547 C2563 1.429 . S
C2547 H2569 0.950 . S
C2548 H2544 0.949 . S
C2548 C2556 1.574 . S
C2548 C2564 1.368 . S
H2549 C2557 0.950 . S
H2550 C2555 0.950 . S
H2551 C2556 0.949 . S
H2552 C2558 0.950 . S
H2553 C2559 0.950 . S
H2554 C2560 0.949 . S
C2555 H2550 0.950 . S
C2555 C2557 1.327 . S
C2555 C2561 1.429 . S
C2556 C2548 1.574 . S
C2556 H2551 0.949 . S
C2556 C2562 1.368 . S
C2557 C2541 1.349 . S
C2557 H2549 0.950 . S
C2557 C2555 1.327 . S
C2558 C2546 1.349 . S
C2558 H2552 0.950 . S
C2558 C2559 1.327 . S
C2559 H2553 0.950 . S
C2559 C2558 1.327 . S
C2559 C2563 1.429 . S
C2560 C2543 1.574 . S
C2560 H2554 0.949 . S
C2560 C2564 1.368 . S
C2561 C2542 1.429 . S
C2561 C2555 1.429 . S
C2561 C2562 1.523 . S
C2562 C2543 1.368 . S
C2562 C2556 1.368 . S
C2562 C2561 1.523 . S
C2563 C2547 1.429 . S
C2563 C2559 1.429 . S
C2563 C2564 1.523 . S
C2564 C2548 1.368 . S
C2564 C2560 1.368 . S
C2564 C2563 1.523 . S
H2565 C2540 0.950 . S
H2566 C2542 0.950 . S
H2567 C2543 0.949 . S
H2568 C2545 0.950 . S
H2569 C2547 0.950 . S
C2570 C2571 1.349 . S
C2570 C2572 1.327 . S
C2570 H2595 0.950 . S
C2571 C2570 1.349 . S
C2571 C2587 1.349 . S
C2572 C2570 1.327 . S
C2572 C2591 1.429 . S
C2572 H2596 0.950 . S
C2573 C2590 1.574 . S
C2573 C2592 1.368 . S
C2573 H2597 0.949 . S
H2574 C2578 0.949 . S
C2575 C2576 1.349 . S
C2575 C2577 1.327 . S
C2575 H2598 0.950 . S
C2576 C2575 1.349 . S
C2576 C2588 1.349 . S
C2577 C2575 1.327 . S
C2577 C2593 1.429 . S
C2577 H2599 0.950 . S
C2578 H2574 0.949 . S
C2578 C2586 1.574 . S
C2578 C2594 1.368 . S
H2579 C2587 0.950 . S
H2580 C2585 0.950 . S
H2581 C2586 0.949 . S
H2582 C2588 0.950 . S
H2583 C2589 0.950 . S
H2584 C2590 0.949 . S
C2585 H2580 0.950 . S
C2585 C2587 1.327 . S
C2585 C2591 1.429 . S
C2586 C2578 1.574 . S
C2586 H2581 0.949 . S
C2586 C2592 1.368 . S
C2587 C2571 1.349 . S
C2587 H2579 0.950 . S
C2587 C2585 1.327 . S
C2588 C2576 1.349 . S
C2588 H2582 0.950 . S
C2588 C2589 1.327 . S
C2589 H2583 0.950 . S
C2589 C2588 1.327 . S
C2589 C2593 1.429 . S
C2590 C2573 1.574 . S
C2590 H2584 0.949 . S
C2590 C2594 1.368 . S
C2591 C2572 1.429 . S
C2591 C2585 1.429 . S
C2591 C2592 1.523 . S
C2592 C2573 1.368 . S
C2592 C2586 1.368 . S
C2592 C2591 1.523 . S
C2593 C2577 1.429 . S
C2593 C2589 1.429 . S
C2593 C2594 1.523 . S
C2594 C2578 1.368 . S
C2594 C2590 1.368 . S
C2594 C2593 1.523 . S
H2595 C2570 0.950 . S
H2596 C2572 0.950 . S
H2597 C2573 0.949 . S
H2598 C2575 0.950 . S
H2599 C2577 0.950 . S
C2600 C2601 1.349 . S
C2600 C2602 1.327 . S
C2600 H2625 0.950 . S
C2601 C2600 1.349 . S
C2601 C2617 1.349 . S
C2602 C2600 1.327 . S
C2602 C2621 1.429 . S
C2602 H2626 0.950 . S
C2603 C2620 1.574 . S
C2603 C2622 1.368 . S
C2603 H2627 0.949 . S
H2604 C2608 0.949 . S
C2605 C2606 1.349 . S
C2605 C2607 1.327 . S
C2605 H2628 0.950 . S
C2606 C2605 1.349 . S
C2606 C2618 1.349 . S
C2607 C2605 1.327 . S
C2607 C2623 1.429 . S
C2607 H2629 0.950 . S
C2608 H2604 0.949 . S
C2608 C2616 1.574 . S
C2608 C2624 1.368 . S
H2609 C2617 0.950 . S
H2610 C2615 0.950 . S
H2611 C2616 0.949 . S
H2612 C2618 0.950 . S
H2613 C2619 0.950 . S
H2614 C2620 0.949 . S
C2615 H2610 0.950 . S
C2615 C2617 1.327 . S
C2615 C2621 1.429 . S
C2616 C2608 1.574 . S
C2616 H2611 0.949 . S
C2616 C2622 1.368 . S
C2617 C2601 1.349 . S
C2617 H2609 0.950 . S
C2617 C2615 1.327 . S
C2618 C2606 1.349 . S
C2618 H2612 0.950 . S
C2618 C2619 1.327 . S
C2619 H2613 0.950 . S
C2619 C2618 1.327 . S
C2619 C2623 1.429 . S
C2620 C2603 1.574 . S
C2620 H2614 0.949 . S
C2620 C2624 1.368 . S
C2621 C2602 1.429 . S
C2621 C2615 1.429 . S
C2621 C2622 1.523 . S
C2622 C2603 1.368 . S
C2622 C2616 1.368 . S
C2622 C2621 1.523 . S
C2623 C2607 1.429 . S
C2623 C2619 1.429 . S
C2623 C2624 1.523 . S
C2624 C2608 1.368 . S
C2624 C2620 1.368 . S
C2624 C2623 1.523 . S
H2625 C2600 0.950 . S
H2626 C2602 0.950 . S
H2627 C2603 0.949 . S
H2628 C2605 0.950 . S
H2629 C2607 0.950 . S
C2630 C2631 1.349 . S
C2630 C2632 1.327 . S
C2630 H2655 0.950 . S
C2631 C2630 1.349 . S
C2631 C2647 1.349 . S
C2632 C2630 1.327 . S
C2632 C2651 1.429 . S
C2632 H2656 0.950 . S
C2633 C2650 1.574 . S
C2633 C2652 1.368 . S
C2633 H2657 0.949 . S
H2634 C2638 0.949 . S
C2635 C2636 1.349 . S
C2635 C2637 1.327 . S
C2635 H2658 0.950 . S
C2636 C2635 1.349 . S
C2636 C2648 1.349 . S
C2637 C2635 1.327 . S
C2637 C2653 1.429 . S
C2637 H2659 0.950 . S
C2638 H2634 0.949 . S
C2638 C2646 1.574 . S
C2638 C2654 1.368 . S
H2639 C2647 0.950 . S
H2640 C2645 0.950 . S
H2641 C2646 0.949 . S
H2642 C2648 0.950 . S
H2643 C2649 0.950 . S
H2644 C2650 0.949 . S
C2645 H2640 0.950 . S
C2645 C2647 1.327 . S
C2645 C2651 1.429 . S
C2646 C2638 1.574 . S
C2646 H2641 0.949 . S
C2646 C2652 1.368 . S
C2647 C2631 1.349 . S
C2647 H2639 0.950 . S
C2647 C2645 1.327 . S
C2648 C2636 1.349 . S
C2648 H2642 0.950 . S
C2648 C2649 1.327 . S
C2649 H2643 0.950 . S
C2649 C2648 1.327 . S
C2649 C2653 1.429 . S
C2650 C2633 1.574 . S
C2650 H2644 0.949 . S
C2650 C2654 1.368 . S
C2651 C2632 1.429 . S
C2651 C2645 1.429 . S
C2651 C2652 1.523 . S
C2652 C2633 1.368 . S
C2652 C2646 1.368 . S
C2652 C2651 1.523 . S
C2653 C2637 1.429 . S
C2653 C2649 1.429 . S
C2653 C2654 1.523 . S
C2654 C2638 1.368 . S
C2654 C2650 1.368 . S
C2654 C2653 1.523 . S
H2655 C2630 0.950 . S
H2656 C2632 0.950 . S
H2657 C2633 0.949 . S
H2658 C2635 0.950 . S
H2659 C2637 0.950 . S
C2660 C2661 1.349 . S
C2660 C2662 1.327 . S
C2660 H2685 0.950 . S
C2661 C2660 1.349 . S
C2661 C2677 1.349 . S
C2662 C2660 1.327 . S
C2662 C2681 1.429 . S
C2662 H2686 0.950 . S
C2663 C2680 1.574 . S
C2663 C2682 1.368 . S
C2663 H2687 0.949 . S
H2664 C2668 0.949 . S
C2665 C2666 1.349 . S
C2665 C2667 1.327 . S
C2665 H2688 0.950 . S
C2666 C2665 1.349 . S
C2666 C2678 1.349 . S
C2667 C2665 1.327 . S
C2667 C2683 1.429 . S
C2667 H2689 0.950 . S
C2668 H2664 0.949 . S
C2668 C2676 1.574 . S
C2668 C2684 1.368 . S
H2669 C2677 0.950 . S
H2670 C2675 0.950 . S
H2671 C2676 0.949 . S
H2672 C2678 0.950 . S
H2673 C2679 0.950 . S
H2674 C2680 0.949 . S
C2675 H2670 0.950 . S
C2675 C2677 1.327 . S
C2675 C2681 1.429 . S
C2676 C2668 1.574 . S
C2676 H2671 0.949 . S
C2676 C2682 1.368 . S
C2677 C2661 1.349 . S
C2677 H2669 0.950 . S
C2677 C2675 1.327 . S
C2678 C2666 1.349 . S
C2678 H2672 0.950 . S
C2678 C2679 1.327 . S
C2679 H2673 0.950 . S
C2679 C2678 1.327 . S
C2679 C2683 1.429 . S
C2680 C2663 1.574 . S
C2680 H2674 0.949 . S
C2680 C2684 1.368 . S
C2681 C2662 1.429 . S
C2681 C2675 1.429 . S
C2681 C2682 1.523 . S
C2682 C2663 1.368 . S
C2682 C2676 1.368 . S
C2682 C2681 1.523 . S
C2683 C2667 1.429 . S
C2683 C2679 1.429 . S
C2683 C2684 1.523 . S
C2684 C2668 1.368 . S
C2684 C2680 1.368 . S
C2684 C2683 1.523 . S
H2685 C2660 0.950 . S
H2686 C2662 0.950 . S
H2687 C2663 0.949 . S
H2688 C2665 0.950 . S
H2689 C2667 0.950 . S
C2690 C2691 1.349 . S
C2690 C2692 1.327 . S
C2690 H2715 0.950 . S
C2691 C2690 1.349 . S
C2691 C2707 1.349 . S
C2692 C2690 1.327 . S
C2692 C2711 1.429 . S
C2692 H2716 0.950 . S
C2693 C2710 1.574 . S
C2693 C2712 1.368 . S
C2693 H2717 0.949 . S
H2694 C2698 0.949 . S
C2695 C2696 1.349 . S
C2695 C2697 1.327 . S
C2695 H2718 0.950 . S
C2696 C2695 1.349 . S
C2696 C2708 1.349 . S
C2697 C2695 1.327 . S
C2697 C2713 1.429 1_455 S
C2697 H2719 0.950 . S
C2698 H2694 0.949 . S
C2698 C2706 1.574 . S
C2698 C2714 1.368 . S
H2699 C2707 0.950 . S
H2700 C2705 0.950 . S
H2701 C2706 0.949 . S
H2702 C2708 0.950 . S
H2703 C2709 0.950 . S
H2704 C2710 0.949 . S
C2705 H2700 0.950 . S
C2705 C2707 1.327 . S
C2705 C2711 1.429 . S
C2706 C2698 1.574 . S
C2706 H2701 0.949 . S
C2706 C2712 1.368 . S
C2707 C2691 1.349 . S
C2707 H2699 0.950 . S
C2707 C2705 1.327 . S
C2708 C2696 1.349 . S
C2708 H2702 0.950 . S
C2708 C2709 1.327 1_455 S
C2709 H2703 0.950 . S
C2709 C2708 1.327 1_655 S
C2709 C2713 1.429 . S
C2710 C2693 1.574 . S
C2710 H2704 0.949 . S
C2710 C2714 1.368 . S
C2711 C2692 1.429 . S
C2711 C2705 1.429 . S
C2711 C2712 1.523 . S
C2712 C2693 1.368 . S
C2712 C2706 1.368 . S
C2712 C2711 1.523 . S
C2713 C2697 1.429 1_655 S
C2713 C2709 1.429 . S
C2713 C2714 1.523 . S
C2714 C2698 1.368 . S
C2714 C2710 1.368 . S
C2714 C2713 1.523 . S
H2715 C2690 0.950 . S
H2716 C2692 0.950 . S
H2717 C2693 0.949 . S
H2718 C2695 0.950 . S
H2719 C2697 0.950 . S
C2720 C2721 1.349 . S
C2720 C2722 1.327 . S
C2720 H2745 0.950 . S
C2721 C2720 1.349 . S
C2721 C2737 1.349 . S
C2722 C2720 1.327 . S
C2722 C2741 1.429 . S
C2722 H2746 0.950 . S
C2723 C2740 1.574 . S
C2723 C2742 1.368 . S
C2723 H2747 0.949 . S
H2724 C2728 0.949 . S
C2725 C2726 1.349 . S
C2725 C2727 1.327 . S
C2725 H2748 0.950 . S
C2726 C2725 1.349 . S
C2726 C2738 1.349 . S
C2727 C2725 1.327 . S
C2727 C2743 1.429 . S
C2727 H2749 0.950 . S
C2728 H2724 0.949 . S
C2728 C2736 1.574 . S
C2728 C2744 1.368 . S
H2729 C2737 0.950 . S
H2730 C2735 0.950 . S
H2731 C2736 0.949 . S
H2732 C2738 0.950 . S
H2733 C2739 0.950 . S
H2734 C2740 0.949 . S
C2735 H2730 0.950 . S
C2735 C2737 1.327 . S
C2735 C2741 1.429 . S
C2736 C2728 1.574 . S
C2736 H2731 0.949 . S
C2736 C2742 1.368 . S
C2737 C2721 1.349 . S
C2737 H2729 0.950 . S
C2737 C2735 1.327 . S
C2738 C2726 1.349 . S
C2738 H2732 0.950 . S
C2738 C2739 1.327 . S
C2739 H2733 0.950 . S
C2739 C2738 1.327 . S
C2739 C2743 1.429 . S
C2740 C2723 1.574 . S
C2740 H2734 0.949 . S
C2740 C2744 1.368 . S
C2741 C2722 1.429 . S
C2741 C2735 1.429 . S
C2741 C2742 1.523 . S
C2742 C2723 1.368 . S
C2742 C2736 1.368 . S
C2742 C2741 1.523 . S
C2743 C2727 1.429 . S
C2743 C2739 1.429 . S
C2743 C2744 1.523 . S
C2744 C2728 1.368 . S
C2744 C2740 1.368 . S
C2744 C2743 1.523 . S
H2745 C2720 0.950 . S
H2746 C2722 0.950 . S
H2747 C2723 0.949 . S
H2748 C2725 0.950 . S
H2749 C2727 0.950 . S
C2750 C2751 1.349 . S
C2750 C2752 1.327 . S
C2750 H2775 0.950 . S
C2751 C2750 1.349 . S
C2751 C2767 1.349 . S
C2752 C2750 1.327 . S
C2752 C2771 1.429 . S
C2752 H2776 0.950 . S
C2753 C2770 1.574 . S
C2753 C2772 1.368 . S
C2753 H2777 0.949 . S
H2754 C2758 0.949 . S
C2755 C2756 1.349 . S
C2755 C2757 1.327 . S
C2755 H2778 0.950 . S
C2756 C2755 1.349 . S
C2756 C2768 1.349 . S
C2757 C2755 1.327 . S
C2757 C2773 1.429 . S
C2757 H2779 0.950 . S
C2758 H2754 0.949 . S
C2758 C2766 1.574 . S
C2758 C2774 1.368 . S
H2759 C2767 0.950 . S
H2760 C2765 0.950 . S
H2761 C2766 0.949 . S
H2762 C2768 0.950 . S
H2763 C2769 0.950 . S
H2764 C2770 0.949 . S
C2765 H2760 0.950 . S
C2765 C2767 1.327 . S
C2765 C2771 1.429 . S
C2766 C2758 1.574 . S
C2766 H2761 0.949 . S
C2766 C2772 1.368 . S
C2767 C2751 1.349 . S
C2767 H2759 0.950 . S
C2767 C2765 1.327 . S
C2768 C2756 1.349 . S
C2768 H2762 0.950 . S
C2768 C2769 1.327 . S
C2769 H2763 0.950 . S
C2769 C2768 1.327 . S
C2769 C2773 1.429 . S
C2770 C2753 1.574 . S
C2770 H2764 0.949 . S
C2770 C2774 1.368 . S
C2771 C2752 1.429 . S
C2771 C2765 1.429 . S
C2771 C2772 1.523 . S
C2772 C2753 1.368 . S
C2772 C2766 1.368 . S
C2772 C2771 1.523 . S
C2773 C2757 1.429 . S
C2773 C2769 1.429 . S
C2773 C2774 1.523 . S
C2774 C2758 1.368 . S
C2774 C2770 1.368 . S
C2774 C2773 1.523 . S
H2775 C2750 0.950 . S
H2776 C2752 0.950 . S
H2777 C2753 0.949 . S
H2778 C2755 0.950 . S
H2779 C2757 0.950 . S
C2780 C2781 1.349 . S
C2780 C2782 1.327 . S
C2780 H2805 0.950 . S
C2781 C2780 1.349 . S
C2781 C2797 1.349 . S
C2782 C2780 1.327 . S
C2782 C2801 1.429 . S
C2782 H2806 0.950 . S
C2783 C2800 1.574 . S
C2783 C2802 1.368 . S
C2783 H2807 0.949 . S
H2784 C2788 0.949 . S
C2785 C2786 1.349 . S
C2785 C2787 1.327 . S
C2785 H2808 0.950 . S
C2786 C2785 1.349 . S
C2786 C2798 1.349 . S
C2787 C2785 1.327 . S
C2787 C2803 1.429 . S
C2787 H2809 0.950 . S
C2788 H2784 0.949 . S
C2788 C2796 1.574 . S
C2788 C2804 1.368 . S
H2789 C2797 0.950 . S
H2790 C2795 0.950 . S
H2791 C2796 0.949 . S
H2792 C2798 0.950 . S
H2793 C2799 0.950 . S
H2794 C2800 0.949 . S
C2795 H2790 0.950 . S
C2795 C2797 1.327 . S
C2795 C2801 1.429 . S
C2796 C2788 1.574 . S
C2796 H2791 0.949 . S
C2796 C2802 1.368 . S
C2797 C2781 1.349 . S
C2797 H2789 0.950 . S
C2797 C2795 1.327 . S
C2798 C2786 1.349 . S
C2798 H2792 0.950 . S
C2798 C2799 1.327 . S
C2799 H2793 0.950 . S
C2799 C2798 1.327 . S
C2799 C2803 1.429 . S
C2800 C2783 1.574 . S
C2800 H2794 0.949 . S
C2800 C2804 1.368 . S
C2801 C2782 1.429 . S
C2801 C2795 1.429 . S
C2801 C2802 1.523 . S
C2802 C2783 1.368 . S
C2802 C2796 1.368 . S
C2802 C2801 1.523 . S
C2803 C2787 1.429 . S
C2803 C2799 1.429 . S
C2803 C2804 1.523 . S
C2804 C2788 1.368 . S
C2804 C2800 1.368 . S
C2804 C2803 1.523 . S
H2805 C2780 0.950 . S
H2806 C2782 0.950 . S
H2807 C2783 0.949 . S
H2808 C2785 0.950 . S
H2809 C2787 0.950 . S
C2810 C2811 1.349 . S
C2810 C2812 1.327 . S
C2810 H2835 0.950 . S
C2811 C2810 1.349 . S
C2811 C2827 1.349 . S
C2812 C2810 1.327 . S
C2812 C2831 1.429 . S
C2812 H2836 0.950 . S
C2813 C2830 1.574 . S
C2813 C2832 1.368 . S
C2813 H2837 0.949 . S
H2814 C2818 0.949 . S
C2815 C2816 1.349 . S
C2815 C2817 1.327 1_455 S
C2815 H2838 0.950 . S
C2816 C2815 1.349 . S
C2816 C2828 1.349 . S
C2817 C2815 1.327 1_655 S
C2817 C2833 1.429 . S
C2817 H2839 0.950 . S
C2818 H2814 0.949 . S
C2818 C2826 1.574 . S
C2818 C2834 1.368 . S
H2819 C2827 0.950 . S
H2820 C2825 0.950 . S
H2821 C2826 0.949 . S
H2822 C2828 0.950 . S
H2823 C2829 0.950 . S
H2824 C2830 0.949 . S
C2825 H2820 0.950 . S
C2825 C2827 1.327 . S
C2825 C2831 1.429 . S
C2826 C2818 1.574 . S
C2826 H2821 0.949 . S
C2826 C2832 1.368 . S
C2827 C2811 1.349 . S
C2827 H2819 0.950 . S
C2827 C2825 1.327 . S
C2828 C2816 1.349 . S
C2828 H2822 0.950 . S
C2828 C2829 1.327 . S
C2829 H2823 0.950 . S
C2829 C2828 1.327 . S
C2829 C2833 1.429 1_455 S
C2830 C2813 1.574 . S
C2830 H2824 0.949 . S
C2830 C2834 1.368 . S
C2831 C2812 1.429 . S
C2831 C2825 1.429 . S
C2831 C2832 1.523 . S
C2832 C2813 1.368 . S
C2832 C2826 1.368 . S
C2832 C2831 1.523 . S
C2833 C2817 1.429 . S
C2833 C2829 1.429 1_655 S
C2833 C2834 1.523 . S
C2834 C2818 1.368 . S
C2834 C2830 1.368 . S
C2834 C2833 1.523 . S
H2835 C2810 0.950 . S
H2836 C2812 0.950 . S
H2837 C2813 0.949 . S
H2838 C2815 0.950 . S
H2839 C2817 0.950 . S
C2840 C2841 1.349 . S
C2840 C2842 1.327 . S
C2840 H2865 0.950 . S
C2841 C2840 1.349 . S
C2841 C2857 1.349 . S
C2842 C2840 1.327 . S
C2842 C2861 1.429 . S
C2842 H2866 0.950 . S
C2843 C2860 1.574 . S
C2843 C2862 1.368 . S
C2843 H2867 0.949 . S
H2844 C2848 0.949 . S
C2845 C2846 1.349 . S
C2845 C2847 1.327 . S
C2845 H2868 0.950 . S
C2846 C2845 1.349 . S
C2846 C2858 1.349 . S
C2847 C2845 1.327 . S
C2847 C2863 1.429 . S
C2847 H2869 0.950 . S
C2848 H2844 0.949 . S
C2848 C2856 1.574 . S
C2848 C2864 1.368 . S
H2849 C2857 0.950 . S
H2850 C2855 0.950 . S
H2851 C2856 0.949 . S
H2852 C2858 0.950 . S
H2853 C2859 0.950 . S
H2854 C2860 0.949 . S
C2855 H2850 0.950 . S
C2855 C2857 1.327 . S
C2855 C2861 1.429 . S
C2856 C2848 1.574 . S
C2856 H2851 0.949 . S
C2856 C2862 1.368 . S
C2857 C2841 1.349 . S
C2857 H2849 0.950 . S
C2857 C2855 1.327 . S
C2858 C2846 1.349 . S
C2858 H2852 0.950 . S
C2858 C2859 1.327 . S
C2859 H2853 0.950 . S
C2859 C2858 1.327 . S
C2859 C2863 1.429 . S
C2860 C2843 1.574 . S
C2860 H2854 0.949 . S
C2860 C2864 1.368 . S
C2861 C2842 1.429 . S
C2861 C2855 1.429 . S
C2861 C2862 1.523 . S
C2862 C2843 1.368 . S
C2862 C2856 1.368 . S
C2862 C2861 1.523 . S
C2863 C2847 1.429 . S
C2863 C2859 1.429 . S
C2863 C2864 1.523 . S
C2864 C2848 1.368 . S
C2864 C2860 1.368 . S
C2864 C2863 1.523 . S
H2865 C2840 0.950 . S
H2866 C2842 0.950 . S
H2867 C2843 0.949 . S
H2868 C2845 0.950 . S
H2869 C2847 0.950 . S
C2870 C2871 1.349 . S
C2870 C2872 1.327 . S
C2870 H2895 0.950 . S
C2871 C2870 1.349 . S
C2871 C2887 1.349 . S
C2872 C2870 1.327 . S
C2872 C2891 1.429 . S
C2872 H2896 0.950 . S
C2873 C2890 1.574 . S
C2873 C2892 1.368 . S
C2873 H2897 0.949 . S
H2874 C2878 0.949 . S
C2875 C2876 1.349 . S
C2875 C2877 1.327 1_455 S
C2875 H2898 0.950 . S
C2876 C2875 1.349 . S
C2876 C2888 1.349 . S
C2877 C2875 1.327 1_655 S
C2877 C2893 1.429 . S
C2877 H2899 0.950 . S
C2878 H2874 0.949 . S
C2878 C2886 1.574 . S
C2878 C2894 1.368 . S
H2879 C2887 0.950 . S
H2880 C2885 0.950 . S
H2881 C2886 0.949 . S
H2882 C2888 0.950 . S
H2883 C2889 0.950 . S
H2884 C2890 0.949 . S
C2885 H2880 0.950 . S
C2885 C2887 1.327 . S
C2885 C2891 1.429 . S
C2886 C2878 1.574 . S
C2886 H2881 0.949 . S
C2886 C2892 1.368 . S
C2887 C2871 1.349 . S
C2887 H2879 0.950 . S
C2887 C2885 1.327 . S
C2888 C2876 1.349 . S
C2888 H2882 0.950 . S
C2888 C2889 1.327 . S
C2889 H2883 0.950 . S
C2889 C2888 1.327 . S
C2889 C2893 1.429 1_455 S
C2890 C2873 1.574 . S
C2890 H2884 0.949 . S
C2890 C2894 1.368 . S
C2891 C2872 1.429 . S
C2891 C2885 1.429 . S
C2891 C2892 1.523 . S
C2892 C2873 1.368 . S
C2892 C2886 1.368 . S
C2892 C2891 1.523 . S
C2893 C2877 1.429 . S
C2893 C2889 1.429 1_655 S
C2893 C2894 1.523 . S
C2894 C2878 1.368 . S
C2894 C2890 1.368 . S
C2894 C2893 1.523 . S
H2895 C2870 0.950 . S
H2896 C2872 0.950 . S
H2897 C2873 0.949 . S
H2898 C2875 0.950 . S
H2899 C2877 0.950 . S
C2900 C2901 1.349 . S
C2900 C2902 1.327 . S
C2900 H2925 0.950 . S
C2901 C2900 1.349 . S
C2901 C2917 1.349 . S
C2902 C2900 1.327 . S
C2902 C2921 1.429 . S
C2902 H2926 0.950 . S
C2903 C2920 1.574 . S
C2903 C2922 1.368 . S
C2903 H2927 0.949 . S
H2904 C2908 0.949 . S
C2905 C2906 1.349 . S
C2905 C2907 1.327 . S
C2905 H2928 0.950 . S
C2906 C2905 1.349 . S
C2906 C2918 1.349 . S
C2907 C2905 1.327 . S
C2907 C2923 1.429 . S
C2907 H2929 0.950 . S
C2908 H2904 0.949 . S
C2908 C2916 1.574 . S
C2908 C2924 1.368 . S
H2909 C2917 0.950 . S
H2910 C2915 0.950 . S
H2911 C2916 0.949 . S
H2912 C2918 0.950 . S
H2913 C2919 0.950 . S
H2914 C2920 0.949 . S
C2915 H2910 0.950 . S
C2915 C2917 1.327 . S
C2915 C2921 1.429 . S
C2916 C2908 1.574 . S
C2916 H2911 0.949 . S
C2916 C2922 1.368 . S
C2917 C2901 1.349 . S
C2917 H2909 0.950 . S
C2917 C2915 1.327 . S
C2918 C2906 1.349 . S
C2918 H2912 0.950 . S
C2918 C2919 1.327 . S
C2919 H2913 0.950 . S
C2919 C2918 1.327 . S
C2919 C2923 1.429 . S
C2920 C2903 1.574 . S
C2920 H2914 0.949 . S
C2920 C2924 1.368 . S
C2921 C2902 1.429 . S
C2921 C2915 1.429 . S
C2921 C2922 1.523 . S
C2922 C2903 1.368 . S
C2922 C2916 1.368 . S
C2922 C2921 1.523 . S
C2923 C2907 1.429 . S
C2923 C2919 1.429 . S
C2923 C2924 1.523 . S
C2924 C2908 1.368 . S
C2924 C2920 1.368 . S
C2924 C2923 1.523 . S
H2925 C2900 0.950 . S
H2926 C2902 0.950 . S
H2927 C2903 0.949 . S
H2928 C2905 0.950 . S
H2929 C2907 0.950 . S
C2930 C2931 1.349 . S
C2930 C2932 1.327 . S
C2930 H2955 0.950 . S
C2931 C2930 1.349 . S
C2931 C2947 1.349 . S
C2932 C2930 1.327 . S
C2932 C2951 1.429 . S
C2932 H2956 0.950 . S
C2933 C2950 1.574 . S
C2933 C2952 1.368 . S
C2933 H2957 0.949 . S
H2934 C2938 0.949 . S
C2935 C2936 1.349 . S
C2935 C2937 1.327 . S
C2935 H2958 0.950 . S
C2936 C2935 1.349 . S
C2936 C2948 1.349 . S
C2937 C2935 1.327 . S
C2937 C2953 1.429 . S
C2937 H2959 0.950 . S
C2938 H2934 0.949 . S
C2938 C2946 1.574 . S
C2938 C2954 1.368 . S
H2939 C2947 0.950 . S
H2940 C2945 0.950 . S
H2941 C2946 0.949 . S
H2942 C2948 0.950 . S
H2943 C2949 0.950 . S
H2944 C2950 0.949 . S
C2945 H2940 0.950 . S
C2945 C2947 1.327 . S
C2945 C2951 1.429 . S
C2946 C2938 1.574 . S
C2946 H2941 0.949 . S
C2946 C2952 1.368 . S
C2947 C2931 1.349 . S
C2947 H2939 0.950 . S
C2947 C2945 1.327 . S
C2948 C2936 1.349 . S
C2948 H2942 0.950 . S
C2948 C2949 1.327 . S
C2949 H2943 0.950 . S
C2949 C2948 1.327 . S
C2949 C2953 1.429 . S
C2950 C2933 1.574 . S
C2950 H2944 0.949 . S
C2950 C2954 1.368 . S
C2951 C2932 1.429 . S
C2951 C2945 1.429 . S
C2951 C2952 1.523 . S
C2952 C2933 1.368 . S
C2952 C2946 1.368 . S
C2952 C2951 1.523 . S
C2953 C2937 1.429 . S
C2953 C2949 1.429 . S
C2953 C2954 1.523 . S
C2954 C2938 1.368 . S
C2954 C2950 1.368 . S
C2954 C2953 1.523 . S
H2955 C2930 0.950 . S
H2956 C2932 0.950 . S
H2957 C2933 0.949 . S
H2958 C2935 0.950 . S
H2959 C2937 0.950 . S
C2960 C2961 1.349 . S
C2960 C2962 1.327 . S
C2960 H2985 0.950 . S
C2961 C2960 1.349 . S
C2961 C2977 1.349 . S
C2962 C2960 1.327 . S
C2962 C2981 1.429 . S
C2962 H2986 0.950 . S
C2963 C2980 1.574 . S
C2963 C2982 1.368 . S
C2963 H2987 0.949 . S
H2964 C2968 0.949 . S
C2965 C2966 1.349 . S
C2965 C2967 1.327 . S
C2965 H2988 0.950 . S
C2966 C2965 1.349 . S
C2966 C2978 1.349 . S
C2967 C2965 1.327 . S
C2967 C2983 1.429 . S
C2967 H2989 0.950 . S
C2968 H2964 0.949 . S
C2968 C2976 1.574 . S
C2968 C2984 1.368 . S
H2969 C2977 0.950 . S
H2970 C2975 0.950 . S
H2971 C2976 0.949 . S
H2972 C2978 0.950 . S
H2973 C2979 0.950 . S
H2974 C2980 0.949 . S
C2975 H2970 0.950 . S
C2975 C2977 1.327 . S
C2975 C2981 1.429 . S
C2976 C2968 1.574 . S
C2976 H2971 0.949 . S
C2976 C2982 1.368 . S
C2977 C2961 1.349 . S
C2977 H2969 0.950 . S
C2977 C2975 1.327 . S
C2978 C2966 1.349 . S
C2978 H2972 0.950 . S
C2978 C2979 1.327 . S
C2979 H2973 0.950 . S
C2979 C2978 1.327 . S
C2979 C2983 1.429 . S
C2980 C2963 1.574 . S
C2980 H2974 0.949 . S
C2980 C2984 1.368 . S
C2981 C2962 1.429 . S
C2981 C2975 1.429 . S
C2981 C2982 1.523 . S
C2982 C2963 1.368 . S
C2982 C2976 1.368 . S
C2982 C2981 1.523 . S
C2983 C2967 1.429 . S
C2983 C2979 1.429 . S
C2983 C2984 1.523 . S
C2984 C2968 1.368 . S
C2984 C2980 1.368 . S
C2984 C2983 1.523 . S
H2985 C2960 0.950 . S
H2986 C2962 0.950 . S
H2987 C2963 0.949 . S
H2988 C2965 0.950 . S
H2989 C2967 0.950 . S
C2990 C2991 1.349 . S
C2990 C2992 1.327 . S
C2990 H3015 0.950 . S
C2991 C2990 1.349 . S
C2991 C3007 1.349 . S
C2992 C2990 1.327 . S
C2992 C3011 1.429 . S
C2992 H3016 0.950 . S
C2993 C3010 1.574 . S
C2993 C3012 1.368 . S
C2993 H3017 0.949 . S
H2994 C2998 0.949 . S
C2995 C2996 1.349 . S
C2995 C2997 1.327 . S
C2995 H3018 0.950 . S
C2996 C2995 1.349 . S
C2996 C3008 1.349 . S
C2997 C2995 1.327 . S
C2997 C3013 1.429 . S
C2997 H3019 0.950 . S
C2998 H2994 0.949 . S
C2998 C3006 1.574 . S
C2998 C3014 1.368 . S
H2999 C3007 0.950 . S
H3000 C3005 0.950 . S
H3001 C3006 0.949 . S
H3002 C3008 0.950 . S
H3003 C3009 0.950 . S
H3004 C3010 0.949 . S
C3005 H3000 0.950 . S
C3005 C3007 1.327 . S
C3005 C3011 1.429 . S
C3006 C2998 1.574 . S
C3006 H3001 0.949 . S
C3006 C3012 1.368 . S
C3007 C2991 1.349 . S
C3007 H2999 0.950 . S
C3007 C3005 1.327 . S
C3008 C2996 1.349 . S
C3008 H3002 0.950 . S
C3008 C3009 1.327 . S
C3009 H3003 0.950 . S
C3009 C3008 1.327 . S
C3009 C3013 1.429 . S
C3010 C2993 1.574 . S
C3010 H3004 0.949 . S
C3010 C3014 1.368 . S
C3011 C2992 1.429 . S
C3011 C3005 1.429 . S
C3011 C3012 1.523 . S
C3012 C2993 1.368 . S
C3012 C3006 1.368 . S
C3012 C3011 1.523 . S
C3013 C2997 1.429 . S
C3013 C3009 1.429 . S
C3013 C3014 1.523 . S
C3014 C2998 1.368 . S
C3014 C3010 1.368 . S
C3014 C3013 1.523 . S
H3015 C2990 0.950 . S
H3016 C2992 0.950 . S
H3017 C2993 0.949 . S
H3018 C2995 0.950 . S
H3019 C2997 0.950 . S
C3020 C3021 1.349 . S
C3020 C3022 1.327 . S
C3020 H3045 0.950 . S
C3021 C3020 1.349 . S
C3021 C3037 1.349 . S
C3022 C3020 1.327 . S
C3022 C3041 1.429 . S
C3022 H3046 0.950 . S
C3023 C3040 1.574 . S
C3023 C3042 1.368 . S
C3023 H3047 0.949 . S
H3024 C3028 0.949 . S
C3025 C3026 1.349 . S
C3025 C3027 1.327 . S
C3025 H3048 0.950 . S
C3026 C3025 1.349 . S
C3026 C3038 1.349 . S
C3027 C3025 1.327 . S
C3027 C3043 1.429 . S
C3027 H3049 0.950 . S
C3028 H3024 0.949 . S
C3028 C3036 1.574 . S
C3028 C3044 1.368 . S
H3029 C3037 0.950 . S
H3030 C3035 0.950 . S
H3031 C3036 0.949 . S
H3032 C3038 0.950 . S
H3033 C3039 0.950 . S
H3034 C3040 0.949 . S
C3035 H3030 0.950 . S
C3035 C3037 1.327 . S
C3035 C3041 1.429 . S
C3036 C3028 1.574 . S
C3036 H3031 0.949 . S
C3036 C3042 1.368 . S
C3037 C3021 1.349 . S
C3037 H3029 0.950 . S
C3037 C3035 1.327 . S
C3038 C3026 1.349 . S
C3038 H3032 0.950 . S
C3038 C3039 1.327 . S
C3039 H3033 0.950 . S
C3039 C3038 1.327 . S
C3039 C3043 1.429 . S
C3040 C3023 1.574 . S
C3040 H3034 0.949 . S
C3040 C3044 1.368 . S
C3041 C3022 1.429 . S
C3041 C3035 1.429 . S
C3041 C3042 1.523 . S
C3042 C3023 1.368 . S
C3042 C3036 1.368 . S
C3042 C3041 1.523 . S
C3043 C3027 1.429 . S
C3043 C3039 1.429 . S
C3043 C3044 1.523 . S
C3044 C3028 1.368 . S
C3044 C3040 1.368 . S
C3044 C3043 1.523 . S
H3045 C3020 0.950 . S
H3046 C3022 0.950 . S
H3047 C3023 0.949 . S
H3048 C3025 0.950 . S
H3049 C3027 0.950 . S
C3050 C3051 1.349 . S
C3050 C3052 1.327 . S
C3050 H3075 0.950 . S
C3051 C3050 1.349 . S
C3051 C3067 1.349 . S
C3052 C3050 1.327 . S
C3052 C3071 1.429 1_655 S
C3052 H3076 0.950 . S
C3053 C3070 1.574 . S
C3053 C3072 1.368 . S
C3053 H3077 0.949 . S
H3054 C3058 0.949 . S
C3055 C3056 1.349 . S
C3055 C3057 1.327 . S
C3055 H3078 0.950 . S
C3056 C3055 1.349 . S
C3056 C3068 1.349 . S
C3057 C3055 1.327 . S
C3057 C3073 1.429 . S
C3057 H3079 0.950 . S
C3058 H3054 0.949 . S
C3058 C3066 1.574 . S
C3058 C3074 1.368 . S
H3059 C3067 0.950 . S
H3060 C3065 0.950 . S
H3061 C3066 0.949 . S
H3062 C3068 0.950 . S
H3063 C3069 0.950 . S
H3064 C3070 0.949 . S
C3065 H3060 0.950 . S
C3065 C3067 1.327 1_455 S
C3065 C3071 1.429 . S
C3066 C3058 1.574 . S
C3066 H3061 0.949 . S
C3066 C3072 1.368 . S
C3067 C3051 1.349 . S
C3067 H3059 0.950 . S
C3067 C3065 1.327 1_655 S
C3068 C3056 1.349 . S
C3068 H3062 0.950 . S
C3068 C3069 1.327 . S
C3069 H3063 0.950 . S
C3069 C3068 1.327 . S
C3069 C3073 1.429 . S
C3070 C3053 1.574 . S
C3070 H3064 0.949 . S
C3070 C3074 1.368 . S
C3071 C3052 1.429 1_455 S
C3071 C3065 1.429 . S
C3071 C3072 1.523 . S
C3072 C3053 1.368 . S
C3072 C3066 1.368 . S
C3072 C3071 1.523 . S
C3073 C3057 1.429 . S
C3073 C3069 1.429 . S
C3073 C3074 1.523 . S
C3074 C3058 1.368 . S
C3074 C3070 1.368 . S
C3074 C3073 1.523 . S
H3075 C3050 0.950 . S
H3076 C3052 0.950 . S
H3077 C3053 0.949 . S
H3078 C3055 0.950 . S
H3079 C3057 0.950 . S
C3080 C3081 1.349 . S
C3080 C3082 1.327 . S
C3080 H3105 0.950 . S
C3081 C3080 1.349 . S
C3081 C3097 1.349 . S
C3082 C3080 1.327 . S
C3082 C3101 1.429 . S
C3082 H3106 0.950 . S
C3083 C3100 1.574 . S
C3083 C3102 1.368 . S
C3083 H3107 0.949 . S
H3084 C3088 0.949 . S
C3085 C3086 1.349 . S
C3085 C3087 1.327 . S
C3085 H3108 0.950 . S
C3086 C3085 1.349 . S
C3086 C3098 1.349 . S
C3087 C3085 1.327 . S
C3087 C3103 1.429 . S
C3087 H3109 0.950 . S
C3088 H3084 0.949 . S
C3088 C3096 1.574 . S
C3088 C3104 1.368 . S
H3089 C3097 0.950 . S
H3090 C3095 0.950 . S
H3091 C3096 0.949 . S
H3092 C3098 0.950 . S
H3093 C3099 0.950 . S
H3094 C3100 0.949 . S
C3095 H3090 0.950 . S
C3095 C3097 1.327 . S
C3095 C3101 1.429 . S
C3096 C3088 1.574 . S
C3096 H3091 0.949 . S
C3096 C3102 1.368 . S
C3097 C3081 1.349 . S
C3097 H3089 0.950 . S
C3097 C3095 1.327 . S
C3098 C3086 1.349 . S
C3098 H3092 0.950 . S
C3098 C3099 1.327 . S
C3099 H3093 0.950 . S
C3099 C3098 1.327 . S
C3099 C3103 1.429 . S
C3100 C3083 1.574 . S
C3100 H3094 0.949 . S
C3100 C3104 1.368 . S
C3101 C3082 1.429 . S
C3101 C3095 1.429 . S
C3101 C3102 1.523 . S
C3102 C3083 1.368 . S
C3102 C3096 1.368 . S
C3102 C3101 1.523 . S
C3103 C3087 1.429 . S
C3103 C3099 1.429 . S
C3103 C3104 1.523 . S
C3104 C3088 1.368 . S
C3104 C3100 1.368 . S
C3104 C3103 1.523 . S
H3105 C3080 0.950 . S
H3106 C3082 0.950 . S
H3107 C3083 0.949 . S
H3108 C3085 0.950 . S
H3109 C3087 0.950 . S
C3110 C3111 1.349 . S
C3110 C3112 1.327 . S
C3110 H3135 0.950 . S
C3111 C3110 1.349 . S
C3111 C3127 1.349 . S
C3112 C3110 1.327 . S
C3112 C3131 1.429 . S
C3112 H3136 0.950 . S
C3113 C3130 1.574 . S
C3113 C3132 1.368 . S
C3113 H3137 0.949 . S
H3114 C3118 0.949 . S
C3115 C3116 1.349 . S
C3115 C3117 1.327 . S
C3115 H3138 0.950 . S
C3116 C3115 1.349 . S
C3116 C3128 1.349 . S
C3117 C3115 1.327 . S
C3117 C3133 1.429 1_655 S
C3117 H3139 0.950 . S
C3118 H3114 0.949 . S
C3118 C3126 1.574 . S
C3118 C3134 1.368 . S
H3119 C3127 0.950 . S
H3120 C3125 0.950 . S
H3121 C3126 0.949 . S
H3122 C3128 0.950 . S
H3123 C3129 0.950 . S
H3124 C3130 0.949 . S
C3125 H3120 0.950 . S
C3125 C3127 1.327 . S
C3125 C3131 1.429 . S
C3126 C3118 1.574 . S
C3126 H3121 0.949 . S
C3126 C3132 1.368 . S
C3127 C3111 1.349 . S
C3127 H3119 0.950 . S
C3127 C3125 1.327 . S
C3128 C3116 1.349 . S
C3128 H3122 0.950 . S
C3128 C3129 1.327 1_655 S
C3129 H3123 0.950 . S
C3129 C3128 1.327 1_455 S
C3129 C3133 1.429 . S
C3130 C3113 1.574 . S
C3130 H3124 0.949 . S
C3130 C3134 1.368 . S
C3131 C3112 1.429 . S
C3131 C3125 1.429 . S
C3131 C3132 1.523 . S
C3132 C3113 1.368 . S
C3132 C3126 1.368 . S
C3132 C3131 1.523 . S
C3133 C3117 1.429 1_455 S
C3133 C3129 1.429 . S
C3133 C3134 1.523 . S
C3134 C3118 1.368 . S
C3134 C3130 1.368 . S
C3134 C3133 1.523 . S
H3135 C3110 0.950 . S
H3136 C3112 0.950 . S
H3137 C3113 0.949 . S
H3138 C3115 0.950 . S
H3139 C3117 0.950 . S
C3140 C3141 1.349 . S
C3140 C3142 1.327 . S
C3140 H3165 0.950 . S
C3141 C3140 1.349 . S
C3141 C3157 1.349 . S
C3142 C3140 1.327 . S
C3142 C3161 1.429 . S
C3142 H3166 0.950 . S
C3143 C3160 1.574 . S
C3143 C3162 1.368 . S
C3143 H3167 0.949 . S
H3144 C3148 0.949 . S
C3145 C3146 1.349 . S
C3145 C3147 1.327 . S
C3145 H3168 0.950 . S
C3146 C3145 1.349 . S
C3146 C3158 1.349 . S
C3147 C3145 1.327 . S
C3147 C3163 1.429 . S
C3147 H3169 0.950 . S
C3148 H3144 0.949 . S
C3148 C3156 1.574 . S
C3148 C3164 1.368 . S
H3149 C3157 0.950 . S
H3150 C3155 0.950 . S
H3151 C3156 0.949 . S
H3152 C3158 0.950 . S
H3153 C3159 0.950 . S
H3154 C3160 0.949 . S
C3155 H3150 0.950 . S
C3155 C3157 1.327 . S
C3155 C3161 1.429 . S
C3156 C3148 1.574 . S
C3156 H3151 0.949 . S
C3156 C3162 1.368 . S
C3157 C3141 1.349 . S
C3157 H3149 0.950 . S
C3157 C3155 1.327 . S
C3158 C3146 1.349 . S
C3158 H3152 0.950 . S
C3158 C3159 1.327 . S
C3159 H3153 0.950 . S
C3159 C3158 1.327 . S
C3159 C3163 1.429 . S
C3160 C3143 1.574 . S
C3160 H3154 0.949 . S
C3160 C3164 1.368 . S
C3161 C3142 1.429 . S
C3161 C3155 1.429 . S
C3161 C3162 1.523 . S
C3162 C3143 1.368 . S
C3162 C3156 1.368 . S
C3162 C3161 1.523 . S
C3163 C3147 1.429 . S
C3163 C3159 1.429 . S
C3163 C3164 1.523 . S
C3164 C3148 1.368 . S
C3164 C3160 1.368 . S
C3164 C3163 1.523 . S
H3165 C3140 0.950 . S
H3166 C3142 0.950 . S
H3167 C3143 0.949 . S
H3168 C3145 0.950 . S
H3169 C3147 0.950 . S
C3170 C3171 1.349 . S
C3170 C3172 1.327 . S
C3170 H3195 0.950 . S
C3171 C3170 1.349 . S
C3171 C3187 1.349 . S
C3172 C3170 1.327 . S
C3172 C3191 1.429 . S
C3172 H3196 0.950 . S
C3173 C3190 1.574 . S
C3173 C3192 1.368 . S
C3173 H3197 0.949 . S
H3174 C3178 0.949 . S
C3175 C3176 1.349 . S
C3175 C3177 1.327 . S
C3175 H3198 0.950 . S
C3176 C3175 1.349 . S
C3176 C3188 1.349 . S
C3177 C3175 1.327 . S
C3177 C3193 1.429 . S
C3177 H3199 0.950 . S
C3178 H3174 0.949 . S
C3178 C3186 1.574 . S
C3178 C3194 1.368 . S
H3179 C3187 0.950 . S
H3180 C3185 0.950 . S
H3181 C3186 0.949 . S
H3182 C3188 0.950 . S
H3183 C3189 0.950 . S
H3184 C3190 0.949 . S
C3185 H3180 0.950 . S
C3185 C3187 1.327 . S
C3185 C3191 1.429 . S
C3186 C3178 1.574 . S
C3186 H3181 0.949 . S
C3186 C3192 1.368 . S
C3187 C3171 1.349 . S
C3187 H3179 0.950 . S
C3187 C3185 1.327 . S
C3188 C3176 1.349 . S
C3188 H3182 0.950 . S
C3188 C3189 1.327 . S
C3189 H3183 0.950 . S
C3189 C3188 1.327 . S
C3189 C3193 1.429 . S
C3190 C3173 1.574 . S
C3190 H3184 0.949 . S
C3190 C3194 1.368 . S
C3191 C3172 1.429 . S
C3191 C3185 1.429 . S
C3191 C3192 1.523 . S
C3192 C3173 1.368 . S
C3192 C3186 1.368 . S
C3192 C3191 1.523 . S
C3193 C3177 1.429 . S
C3193 C3189 1.429 . S
C3193 C3194 1.523 . S
C3194 C3178 1.368 . S
C3194 C3190 1.368 . S
C3194 C3193 1.523 . S
H3195 C3170 0.950 . S
H3196 C3172 0.950 . S
H3197 C3173 0.949 . S
H3198 C3175 0.950 . S
H3199 C3177 0.950 . S
C3200 C3201 1.349 . S
C3200 C3202 1.327 . S
C3200 H3225 0.950 . S
C3201 C3200 1.349 . S
C3201 C3217 1.349 . S
C3202 C3200 1.327 . S
C3202 C3221 1.429 . S
C3202 H3226 0.950 . S
C3203 C3220 1.574 1_545 S
C3203 C3222 1.368 . S
C3203 H3227 0.949 . S
H3204 C3208 0.949 . S
C3205 C3206 1.349 . S
C3205 C3207 1.327 . S
C3205 H3228 0.950 . S
C3206 C3205 1.349 . S
C3206 C3218 1.349 . S
C3207 C3205 1.327 . S
C3207 C3223 1.429 . S
C3207 H3229 0.950 . S
C3208 H3204 0.949 . S
C3208 C3216 1.574 1_565 S
C3208 C3224 1.368 . S
H3209 C3217 0.950 . S
H3210 C3215 0.950 . S
H3211 C3216 0.949 . S
H3212 C3218 0.950 . S
H3213 C3219 0.950 . S
H3214 C3220 0.949 . S
C3215 H3210 0.950 . S
C3215 C3217 1.327 . S
C3215 C3221 1.429 . S
C3216 C3208 1.574 1_545 S
C3216 H3211 0.949 . S
C3216 C3222 1.368 . S
C3217 C3201 1.349 . S
C3217 H3209 0.950 . S
C3217 C3215 1.327 . S
C3218 C3206 1.349 . S
C3218 H3212 0.950 . S
C3218 C3219 1.327 . S
C3219 H3213 0.950 . S
C3219 C3218 1.327 . S
C3219 C3223 1.429 . S
C3220 C3203 1.574 1_565 S
C3220 H3214 0.949 . S
C3220 C3224 1.368 . S
C3221 C3202 1.429 . S
C3221 C3215 1.429 . S
C3221 C3222 1.523 . S
C3222 C3203 1.368 . S
C3222 C3216 1.368 . S
C3222 C3221 1.523 . S
C3223 C3207 1.429 . S
C3223 C3219 1.429 . S
C3223 C3224 1.523 . S
C3224 C3208 1.368 . S
C3224 C3220 1.368 . S
C3224 C3223 1.523 . S
H3225 C3200 0.950 . S
H3226 C3202 0.950 . S
H3227 C3203 0.949 . S
H3228 C3205 0.950 . S
H3229 C3207 0.950 . S
C3230 C3231 1.349 . S
C3230 C3232 1.327 . S
C3230 H3255 0.950 . S
C3231 C3230 1.349 . S
C3231 C3247 1.349 . S
C3232 C3230 1.327 . S
C3232 C3251 1.429 . S
C3232 H3256 0.950 . S
C3233 C3250 1.574 . S
C3233 C3252 1.368 . S
C3233 H3257 0.949 . S
H3234 C3238 0.949 . S
C3235 C3236 1.349 . S
C3235 C3237 1.327 . S
C3235 H3258 0.950 . S
C3236 C3235 1.349 . S
C3236 C3248 1.349 . S
C3237 C3235 1.327 . S
C3237 C3253 1.429 . S
C3237 H3259 0.950 . S
C3238 H3234 0.949 . S
C3238 C3246 1.574 . S
C3238 C3254 1.368 . S
H3239 C3247 0.950 . S
H3240 C3245 0.950 . S
H3241 C3246 0.949 . S
H3242 C3248 0.950 . S
H3243 C3249 0.950 . S
H3244 C3250 0.949 . S
C3245 H3240 0.950 . S
C3245 C3247 1.327 . S
C3245 C3251 1.429 . S
C3246 C3238 1.574 . S
C3246 H3241 0.949 . S
C3246 C3252 1.368 . S
C3247 C3231 1.349 . S
C3247 H3239 0.950 . S
C3247 C3245 1.327 . S
C3248 C3236 1.349 . S
C3248 H3242 0.950 . S
C3248 C3249 1.327 . S
C3249 H3243 0.950 . S
C3249 C3248 1.327 . S
C3249 C3253 1.429 . S
C3250 C3233 1.574 . S
C3250 H3244 0.949 . S
C3250 C3254 1.368 . S
C3251 C3232 1.429 . S
C3251 C3245 1.429 . S
C3251 C3252 1.523 . S
C3252 C3233 1.368 . S
C3252 C3246 1.368 . S
C3252 C3251 1.523 . S
C3253 C3237 1.429 . S
C3253 C3249 1.429 . S
C3253 C3254 1.523 . S
C3254 C3238 1.368 . S
C3254 C3250 1.368 . S
C3254 C3253 1.523 . S
H3255 C3230 0.950 . S
H3256 C3232 0.950 . S
H3257 C3233 0.949 . S
H3258 C3235 0.950 . S
H3259 C3237 0.950 . S
C3260 C3261 1.349 . S
C3260 C3262 1.327 . S
C3260 H3285 0.950 . S
C3261 C3260 1.349 . S
C3261 C3277 1.349 . S
C3262 C3260 1.327 . S
C3262 C3281 1.429 . S
C3262 H3286 0.950 . S
C3263 C3280 1.574 1_565 S
C3263 C3282 1.368 . S
C3263 H3287 0.949 . S
H3264 C3268 0.949 . S
C3265 C3266 1.349 . S
C3265 C3267 1.327 . S
C3265 H3288 0.950 . S
C3266 C3265 1.349 . S
C3266 C3278 1.349 . S
C3267 C3265 1.327 . S
C3267 C3283 1.429 . S
C3267 H3289 0.950 . S
C3268 H3264 0.949 . S
C3268 C3276 1.574 1_545 S
C3268 C3284 1.368 . S
H3269 C3277 0.950 . S
H3270 C3275 0.950 . S
H3271 C3276 0.949 . S
H3272 C3278 0.950 . S
H3273 C3279 0.950 . S
H3274 C3280 0.949 . S
C3275 H3270 0.950 . S
C3275 C3277 1.327 . S
C3275 C3281 1.429 . S
C3276 C3268 1.574 1_565 S
C3276 H3271 0.949 . S
C3276 C3282 1.368 . S
C3277 C3261 1.349 . S
C3277 H3269 0.950 . S
C3277 C3275 1.327 . S
C3278 C3266 1.349 . S
C3278 H3272 0.950 . S
C3278 C3279 1.327 . S
C3279 H3273 0.950 . S
C3279 C3278 1.327 . S
C3279 C3283 1.429 . S
C3280 C3263 1.574 1_545 S
C3280 H3274 0.949 . S
C3280 C3284 1.368 . S
C3281 C3262 1.429 . S
C3281 C3275 1.429 . S
C3281 C3282 1.523 . S
C3282 C3263 1.368 . S
C3282 C3276 1.368 . S
C3282 C3281 1.523 . S
C3283 C3267 1.429 . S
C3283 C3279 1.429 . S
C3283 C3284 1.523 . S
C3284 C3268 1.368 . S
C3284 C3280 1.368 . S
C3284 C3283 1.523 . S
H3285 C3260 0.950 . S
H3286 C3262 0.950 . S
H3287 C3263 0.949 . S
H3288 C3265 0.950 . S
H3289 C3267 0.950 . S
C3290 C3291 1.349 . S
C3290 C3292 1.327 . S
C3290 H3315 0.950 . S
C3291 C3290 1.349 . S
C3291 C3307 1.349 . S
C3292 C3290 1.327 . S
C3292 C3311 1.429 . S
C3292 H3316 0.950 . S
C3293 C3310 1.574 . S
C3293 C3312 1.368 1_554 S
C3293 H3317 0.949 . S
H3294 C3298 0.949 . S
C3295 C3296 1.349 . S
C3295 C3297 1.327 . S
C3295 H3318 0.950 . S
C3296 C3295 1.349 . S
C3296 C3308 1.349 . S
C3297 C3295 1.327 . S
C3297 C3313 1.429 . S
C3297 H3319 0.950 . S
C3298 H3294 0.949 . S
C3298 C3306 1.574 . S
C3298 C3314 1.368 1_556 S
H3299 C3307 0.950 1_554 S
H3300 C3305 0.950 . S
H3301 C3306 0.949 . S
H3302 C3308 0.950 1_556 S
H3303 C3309 0.950 . S
H3304 C3310 0.949 . S
C3305 H3300 0.950 . S
C3305 C3307 1.327 1_554 S
C3305 C3311 1.429 1_554 S
C3306 C3298 1.574 . S
C3306 H3301 0.949 . S
C3306 C3312 1.368 . S
C3307 C3291 1.349 . S
C3307 H3299 0.950 1_556 S
C3307 C3305 1.327 1_556 S
C3308 C3296 1.349 . S
C3308 H3302 0.950 1_554 S
C3308 C3309 1.327 1_554 S
C3309 H3303 0.950 . S
C3309 C3308 1.327 1_556 S
C3309 C3313 1.429 1_556 S
C3310 C3293 1.574 . S
C3310 H3304 0.949 . S
C3310 C3314 1.368 . S
C3311 C3292 1.429 . S
C3311 C3305 1.429 1_556 S
C3311 C3312 1.523 . S
C3312 C3293 1.368 1_556 S
C3312 C3306 1.368 . S
C3312 C3311 1.523 . S
C3313 C3297 1.429 . S
C3313 C3309 1.429 1_554 S
C3313 C3314 1.523 . S
C3314 C3298 1.368 1_554 S
C3314 C3310 1.368 . S
C3314 C3313 1.523 . S
H3315 C3290 0.950 . S
H3316 C3292 0.950 . S
H3317 C3293 0.949 . S
H3318 C3295 0.950 . S
H3319 C3297 0.950 . S
C3320 C3321 1.349 . S
C3320 C3322 1.327 . S
C3320 H3345 0.950 . S
C3321 C3320 1.349 . S
C3321 C3337 1.349 . S
C3322 C3320 1.327 . S
C3322 C3341 1.429 . S
C3322 H3346 0.950 . S
C3323 C3340 1.574 1_545 S
C3323 C3342 1.368 . S
C3323 H3347 0.949 . S
H3324 C3328 0.949 . S
C3325 C3326 1.349 . S
C3325 C3327 1.327 . S
C3325 H3348 0.950 . S
C3326 C3325 1.349 . S
C3326 C3338 1.349 . S
C3327 C3325 1.327 . S
C3327 C3343 1.429 . S
C3327 H3349 0.950 . S
C3328 H3324 0.949 . S
C3328 C3336 1.574 1_565 S
C3328 C3344 1.368 . S
H3329 C3337 0.950 . S
H3330 C3335 0.950 . S
H3331 C3336 0.949 . S
H3332 C3338 0.950 . S
H3333 C3339 0.950 . S
H3334 C3340 0.949 . S
C3335 H3330 0.950 . S
C3335 C3337 1.327 . S
C3335 C3341 1.429 . S
C3336 C3328 1.574 1_545 S
C3336 H3331 0.949 . S
C3336 C3342 1.368 . S
C3337 C3321 1.349 . S
C3337 H3329 0.950 . S
C3337 C3335 1.327 . S
C3338 C3326 1.349 . S
C3338 H3332 0.950 . S
C3338 C3339 1.327 . S
C3339 H3333 0.950 . S
C3339 C3338 1.327 . S
C3339 C3343 1.429 . S
C3340 C3323 1.574 1_565 S
C3340 H3334 0.949 . S
C3340 C3344 1.368 . S
C3341 C3322 1.429 . S
C3341 C3335 1.429 . S
C3341 C3342 1.523 . S
C3342 C3323 1.368 . S
C3342 C3336 1.368 . S
C3342 C3341 1.523 . S
C3343 C3327 1.429 . S
C3343 C3339 1.429 . S
C3343 C3344 1.523 . S
C3344 C3328 1.368 . S
C3344 C3340 1.368 . S
C3344 C3343 1.523 . S
H3345 C3320 0.950 . S
H3346 C3322 0.950 . S
H3347 C3323 0.949 . S
H3348 C3325 0.950 . S
H3349 C3327 0.950 . S
C3350 C3351 1.349 . S
C3350 C3352 1.327 . S
C3350 H3375 0.950 . S
C3351 C3350 1.349 . S
C3351 C3367 1.349 . S
C3352 C3350 1.327 . S
C3352 C3371 1.429 . S
C3352 H3376 0.950 . S
C3353 C3370 1.574 . S
C3353 C3372 1.368 . S
C3353 H3377 0.949 . S
H3354 C3358 0.949 . S
C3355 C3356 1.349 . S
C3355 C3357 1.327 . S
C3355 H3378 0.950 . S
C3356 C3355 1.349 . S
C3356 C3368 1.349 . S
C3357 C3355 1.327 . S
C3357 C3373 1.429 . S
C3357 H3379 0.950 . S
C3358 H3354 0.949 . S
C3358 C3366 1.574 . S
C3358 C3374 1.368 . S
H3359 C3367 0.950 . S
H3360 C3365 0.950 . S
H3361 C3366 0.949 . S
H3362 C3368 0.950 . S
H3363 C3369 0.950 . S
H3364 C3370 0.949 . S
C3365 H3360 0.950 . S
C3365 C3367 1.327 . S
C3365 C3371 1.429 . S
C3366 C3358 1.574 . S
C3366 H3361 0.949 . S
C3366 C3372 1.368 . S
C3367 C3351 1.349 . S
C3367 H3359 0.950 . S
C3367 C3365 1.327 . S
C3368 C3356 1.349 . S
C3368 H3362 0.950 . S
C3368 C3369 1.327 . S
C3369 H3363 0.950 . S
C3369 C3368 1.327 . S
C3369 C3373 1.429 . S
C3370 C3353 1.574 . S
C3370 H3364 0.949 . S
C3370 C3374 1.368 . S
C3371 C3352 1.429 . S
C3371 C3365 1.429 . S
C3371 C3372 1.523 . S
C3372 C3353 1.368 . S
C3372 C3366 1.368 . S
C3372 C3371 1.523 . S
C3373 C3357 1.429 . S
C3373 C3369 1.429 . S
C3373 C3374 1.523 . S
C3374 C3358 1.368 . S
C3374 C3370 1.368 . S
C3374 C3373 1.523 . S
H3375 C3350 0.950 . S
H3376 C3352 0.950 . S
H3377 C3353 0.949 . S
H3378 C3355 0.950 . S
H3379 C3357 0.950 . S
C3380 C3381 1.349 . S
C3380 C3382 1.327 . S
C3380 H3405 0.950 . S
C3381 C3380 1.349 . S
C3381 C3397 1.349 . S
C3382 C3380 1.327 . S
C3382 C3401 1.429 . S
C3382 H3406 0.950 . S
C3383 C3400 1.574 1_545 S
C3383 C3402 1.368 . S
C3383 H3407 0.949 . S
H3384 C3388 0.949 . S
C3385 C3386 1.349 . S
C3385 C3387 1.327 . S
C3385 H3408 0.950 . S
C3386 C3385 1.349 . S
C3386 C3398 1.349 . S
C3387 C3385 1.327 . S
C3387 C3403 1.429 . S
C3387 H3409 0.950 . S
C3388 H3384 0.949 . S
C3388 C3396 1.574 1_565 S
C3388 C3404 1.368 . S
H3389 C3397 0.950 . S
H3390 C3395 0.950 . S
H3391 C3396 0.949 . S
H3392 C3398 0.950 . S
H3393 C3399 0.950 . S
H3394 C3400 0.949 . S
C3395 H3390 0.950 . S
C3395 C3397 1.327 . S
C3395 C3401 1.429 . S
C3396 C3388 1.574 1_545 S
C3396 H3391 0.949 . S
C3396 C3402 1.368 . S
C3397 C3381 1.349 . S
C3397 H3389 0.950 . S
C3397 C3395 1.327 . S
C3398 C3386 1.349 . S
C3398 H3392 0.950 . S
C3398 C3399 1.327 . S
C3399 H3393 0.950 . S
C3399 C3398 1.327 . S
C3399 C3403 1.429 . S
C3400 C3383 1.574 1_565 S
C3400 H3394 0.949 . S
C3400 C3404 1.368 . S
C3401 C3382 1.429 . S
C3401 C3395 1.429 . S
C3401 C3402 1.523 . S
C3402 C3383 1.368 . S
C3402 C3396 1.368 . S
C3402 C3401 1.523 . S
C3403 C3387 1.429 . S
C3403 C3399 1.429 . S
C3403 C3404 1.523 . S
C3404 C3388 1.368 . S
C3404 C3400 1.368 . S
C3404 C3403 1.523 . S
H3405 C3380 0.950 . S
H3406 C3382 0.950 . S
H3407 C3383 0.949 . S
H3408 C3385 0.950 . S
H3409 C3387 0.950 . S
C3410 C3411 1.349 . S
C3410 C3412 1.327 1_556 S
C3410 H3435 0.950 1_556 S
C3411 C3410 1.349 . S
C3411 C3427 1.349 . S
C3412 C3410 1.327 1_554 S
C3412 C3431 1.429 1_554 S
C3412 H3436 0.950 . S
C3413 C3430 1.574 . S
C3413 C3432 1.368 . S
C3413 H3437 0.949 . S
H3414 C3418 0.949 . S
C3415 C3416 1.349 . S
C3415 C3417 1.327 1_554 S
C3415 H3438 0.950 1_554 S
C3416 C3415 1.349 . S
C3416 C3428 1.349 . S
C3417 C3415 1.327 1_556 S
C3417 C3433 1.429 1_556 S
C3417 H3439 0.950 . S
C3418 H3414 0.949 . S
C3418 C3426 1.574 . S
C3418 C3434 1.368 . S
H3419 C3427 0.950 . S
H3420 C3425 0.950 . S
H3421 C3426 0.949 . S
H3422 C3428 0.950 . S
H3423 C3429 0.950 . S
H3424 C3430 0.949 . S
C3425 H3420 0.950 . S
C3425 C3427 1.327 . S
C3425 C3431 1.429 . S
C3426 C3418 1.574 . S
C3426 H3421 0.949 . S
C3426 C3432 1.368 1_554 S
C3427 C3411 1.349 . S
C3427 H3419 0.950 . S
C3427 C3425 1.327 . S
C3428 C3416 1.349 . S
C3428 H3422 0.950 . S
C3428 C3429 1.327 . S
C3429 H3423 0.950 . S
C3429 C3428 1.327 . S
C3429 C3433 1.429 . S
C3430 C3413 1.574 . S
C3430 H3424 0.949 . S
C3430 C3434 1.368 1_556 S
C3431 C3412 1.429 1_556 S
C3431 C3425 1.429 . S
C3431 C3432 1.523 . S
C3432 C3413 1.368 . S
C3432 C3426 1.368 1_556 S
C3432 C3431 1.523 . S
C3433 C3417 1.429 1_554 S
C3433 C3429 1.429 . S
C3433 C3434 1.523 . S
C3434 C3418 1.368 . S
C3434 C3430 1.368 1_554 S
C3434 C3433 1.523 . S
H3435 C3410 0.950 1_554 S
H3436 C3412 0.950 . S
H3437 C3413 0.949 . S
H3438 C3415 0.950 1_556 S
H3439 C3417 0.950 . S
C3440 C3441 1.349 . S
C3440 C3442 1.327 . S
C3440 H3465 0.950 . S
C3441 C3440 1.349 . S
C3441 C3457 1.349 . S
C3442 C3440 1.327 . S
C3442 C3461 1.429 . S
C3442 H3466 0.950 . S
C3443 C3460 1.574 . S
C3443 C3462 1.368 . S
C3443 H3467 0.949 . S
H3444 C3448 0.949 . S
C3445 C3446 1.349 . S
C3445 C3447 1.327 . S
C3445 H3468 0.950 . S
C3446 C3445 1.349 . S
C3446 C3458 1.349 . S
C3447 C3445 1.327 . S
C3447 C3463 1.429 . S
C3447 H3469 0.950 . S
C3448 H3444 0.949 . S
C3448 C3456 1.574 . S
C3448 C3464 1.368 . S
H3449 C3457 0.950 . S
H3450 C3455 0.950 . S
H3451 C3456 0.949 . S
H3452 C3458 0.950 . S
H3453 C3459 0.950 . S
H3454 C3460 0.949 . S
C3455 H3450 0.950 . S
C3455 C3457 1.327 . S
C3455 C3461 1.429 . S
C3456 C3448 1.574 . S
C3456 H3451 0.949 . S
C3456 C3462 1.368 . S
C3457 C3441 1.349 . S
C3457 H3449 0.950 . S
C3457 C3455 1.327 . S
C3458 C3446 1.349 . S
C3458 H3452 0.950 . S
C3458 C3459 1.327 . S
C3459 H3453 0.950 . S
C3459 C3458 1.327 . S
C3459 C3463 1.429 . S
C3460 C3443 1.574 . S
C3460 H3454 0.949 . S
C3460 C3464 1.368 . S
C3461 C3442 1.429 . S
C3461 C3455 1.429 . S
C3461 C3462 1.523 . S
C3462 C3443 1.368 . S
C3462 C3456 1.368 . S
C3462 C3461 1.523 . S
C3463 C3447 1.429 . S
C3463 C3459 1.429 . S
C3463 C3464 1.523 . S
C3464 C3448 1.368 . S
C3464 C3460 1.368 . S
C3464 C3463 1.523 . S
H3465 C3440 0.950 . S
H3466 C3442 0.950 . S
H3467 C3443 0.949 . S
H3468 C3445 0.950 . S
H3469 C3447 0.950 . S
C3470 C3471 1.349 . S
C3470 C3472 1.327 . S
C3470 H3495 0.950 . S
C3471 C3470 1.349 . S
C3471 C3487 1.349 . S
C3472 C3470 1.327 . S
C3472 C3491 1.429 . S
C3472 H3496 0.950 . S
C3473 C3490 1.574 . S
C3473 C3492 1.368 1_554 S
C3473 H3497 0.949 . S
H3474 C3478 0.949 . S
C3475 C3476 1.349 . S
C3475 C3477 1.327 . S
C3475 H3498 0.950 . S
C3476 C3475 1.349 . S
C3476 C3488 1.349 . S
C3477 C3475 1.327 . S
C3477 C3493 1.429 . S
C3477 H3499 0.950 . S
C3478 H3474 0.949 . S
C3478 C3486 1.574 . S
C3478 C3494 1.368 1_556 S
H3479 C3487 0.950 1_554 S
H3480 C3485 0.950 . S
H3481 C3486 0.949 . S
H3482 C3488 0.950 1_556 S
H3483 C3489 0.950 . S
H3484 C3490 0.949 . S
C3485 H3480 0.950 . S
C3485 C3487 1.327 1_554 S
C3485 C3491 1.429 1_554 S
C3486 C3478 1.574 . S
C3486 H3481 0.949 . S
C3486 C3492 1.368 . S
C3487 C3471 1.349 . S
C3487 H3479 0.950 1_556 S
C3487 C3485 1.327 1_556 S
C3488 C3476 1.349 . S
C3488 H3482 0.950 1_554 S
C3488 C3489 1.327 1_554 S
C3489 H3483 0.950 . S
C3489 C3488 1.327 1_556 S
C3489 C3493 1.429 1_556 S
C3490 C3473 1.574 . S
C3490 H3484 0.949 . S
C3490 C3494 1.368 . S
C3491 C3472 1.429 . S
C3491 C3485 1.429 1_556 S
C3491 C3492 1.523 . S
C3492 C3473 1.368 1_556 S
C3492 C3486 1.368 . S
C3492 C3491 1.523 . S
C3493 C3477 1.429 . S
C3493 C3489 1.429 1_554 S
C3493 C3494 1.523 . S
C3494 C3478 1.368 1_554 S
C3494 C3490 1.368 . S
C3494 C3493 1.523 . S
H3495 C3470 0.950 . S
H3496 C3472 0.950 . S
H3497 C3473 0.949 . S
H3498 C3475 0.950 . S
H3499 C3477 0.950 . S
C3500 C3501 1.349 . S
C3500 C3502 1.327 . S
C3500 H3525 0.950 . S
C3501 C3500 1.349 . S
C3501 C3517 1.349 . S
C3502 C3500 1.327 . S
C3502 C3521 1.429 . S
C3502 H3526 0.950 . S
C3503 C3520 1.574 . S
C3503 C3522 1.368 . S
C3503 H3527 0.949 . S
H3504 C3508 0.949 . S
C3505 C3506 1.349 . S
C3505 C3507 1.327 . S
C3505 H3528 0.950 . S
C3506 C3505 1.349 . S
C3506 C3518 1.349 . S
C3507 C3505 1.327 . S
C3507 C3523 1.429 . S
C3507 H3529 0.950 . S
C3508 H3504 0.949 . S
C3508 C3516 1.574 . S
C3508 C3524 1.368 . S
H3509 C3517 0.950 . S
H3510 C3515 0.950 . S
H3511 C3516 0.949 . S
H3512 C3518 0.950 . S
H3513 C3519 0.950 . S
H3514 C3520 0.949 . S
C3515 H3510 0.950 . S
C3515 C3517 1.327 . S
C3515 C3521 1.429 . S
C3516 C3508 1.574 . S
C3516 H3511 0.949 . S
C3516 C3522 1.368 . S
C3517 C3501 1.349 . S
C3517 H3509 0.950 . S
C3517 C3515 1.327 . S
C3518 C3506 1.349 . S
C3518 H3512 0.950 . S
C3518 C3519 1.327 . S
C3519 H3513 0.950 . S
C3519 C3518 1.327 . S
C3519 C3523 1.429 . S
C3520 C3503 1.574 . S
C3520 H3514 0.949 . S
C3520 C3524 1.368 . S
C3521 C3502 1.429 . S
C3521 C3515 1.429 . S
C3521 C3522 1.523 . S
C3522 C3503 1.368 . S
C3522 C3516 1.368 . S
C3522 C3521 1.523 . S
C3523 C3507 1.429 . S
C3523 C3519 1.429 . S
C3523 C3524 1.523 . S
C3524 C3508 1.368 . S
C3524 C3520 1.368 . S
C3524 C3523 1.523 . S
H3525 C3500 0.950 . S
H3526 C3502 0.950 . S
H3527 C3503 0.949 . S
H3528 C3505 0.950 . S
H3529 C3507 0.950 . S
C3530 C3531 1.349 . S
C3530 C3532 1.327 . S
C3530 H3555 0.950 . S
C3531 C3530 1.349 . S
C3531 C3547 1.349 . S
C3532 C3530 1.327 . S
C3532 C3551 1.429 . S
C3532 H3556 0.950 . S
C3533 C3550 1.574 . S
C3533 C3552 1.368 . S
C3533 H3557 0.949 . S
H3534 C3538 0.949 . S
C3535 C3536 1.349 . S
C3535 C3537 1.327 . S
C3535 H3558 0.950 . S
C3536 C3535 1.349 . S
C3536 C3548 1.349 . S
C3537 C3535 1.327 . S
C3537 C3553 1.429 . S
C3537 H3559 0.950 . S
C3538 H3534 0.949 . S
C3538 C3546 1.574 . S
C3538 C3554 1.368 . S
H3539 C3547 0.950 . S
H3540 C3545 0.950 . S
H3541 C3546 0.949 . S
H3542 C3548 0.950 . S
H3543 C3549 0.950 . S
H3544 C3550 0.949 . S
C3545 H3540 0.950 . S
C3545 C3547 1.327 . S
C3545 C3551 1.429 . S
C3546 C3538 1.574 . S
C3546 H3541 0.949 . S
C3546 C3552 1.368 . S
C3547 C3531 1.349 . S
C3547 H3539 0.950 . S
C3547 C3545 1.327 . S
C3548 C3536 1.349 . S
C3548 H3542 0.950 . S
C3548 C3549 1.327 . S
C3549 H3543 0.950 . S
C3549 C3548 1.327 . S
C3549 C3553 1.429 . S
C3550 C3533 1.574 . S
C3550 H3544 0.949 . S
C3550 C3554 1.368 . S
C3551 C3532 1.429 . S
C3551 C3545 1.429 . S
C3551 C3552 1.523 . S
C3552 C3533 1.368 . S
C3552 C3546 1.368 . S
C3552 C3551 1.523 . S
C3553 C3537 1.429 . S
C3553 C3549 1.429 . S
C3553 C3554 1.523 . S
C3554 C3538 1.368 . S
C3554 C3550 1.368 . S
C3554 C3553 1.523 . S
H3555 C3530 0.950 . S
H3556 C3532 0.950 . S
H3557 C3533 0.949 . S
H3558 C3535 0.950 . S
H3559 C3537 0.950 . S
C3560 C3561 1.349 . S
C3560 C3562 1.327 . S
C3560 H3585 0.950 . S
C3561 C3560 1.349 . S
C3561 C3577 1.349 . S
C3562 C3560 1.327 . S
C3562 C3581 1.429 . S
C3562 H3586 0.950 . S
C3563 C3580 1.574 . S
C3563 C3582 1.368 . S
C3563 H3587 0.949 . S
H3564 C3568 0.949 . S
C3565 C3566 1.349 . S
C3565 C3567 1.327 . S
C3565 H3588 0.950 . S
C3566 C3565 1.349 . S
C3566 C3578 1.349 . S
C3567 C3565 1.327 . S
C3567 C3583 1.429 . S
C3567 H3589 0.950 . S
C3568 H3564 0.949 . S
C3568 C3576 1.574 . S
C3568 C3584 1.368 . S
H3569 C3577 0.950 . S
H3570 C3575 0.950 . S
H3571 C3576 0.949 . S
H3572 C3578 0.950 . S
H3573 C3579 0.950 . S
H3574 C3580 0.949 . S
C3575 H3570 0.950 . S
C3575 C3577 1.327 . S
C3575 C3581 1.429 . S
C3576 C3568 1.574 . S
C3576 H3571 0.949 . S
C3576 C3582 1.368 . S
C3577 C3561 1.349 . S
C3577 H3569 0.950 . S
C3577 C3575 1.327 . S
C3578 C3566 1.349 . S
C3578 H3572 0.950 . S
C3578 C3579 1.327 . S
C3579 H3573 0.950 . S
C3579 C3578 1.327 . S
C3579 C3583 1.429 . S
C3580 C3563 1.574 . S
C3580 H3574 0.949 . S
C3580 C3584 1.368 . S
C3581 C3562 1.429 . S
C3581 C3575 1.429 . S
C3581 C3582 1.523 . S
C3582 C3563 1.368 . S
C3582 C3576 1.368 . S
C3582 C3581 1.523 . S
C3583 C3567 1.429 . S
C3583 C3579 1.429 . S
C3583 C3584 1.523 . S
C3584 C3568 1.368 . S
C3584 C3580 1.368 . S
C3584 C3583 1.523 . S
H3585 C3560 0.950 . S
H3586 C3562 0.950 . S
H3587 C3563 0.949 . S
H3588 C3565 0.950 . S
H3589 C3567 0.950 . S
C3590 C3591 1.349 . S
C3590 C3592 1.327 1_556 S
C3590 H3615 0.950 1_556 S
C3591 C3590 1.349 . S
C3591 C3607 1.349 . S
C3592 C3590 1.327 1_554 S
C3592 C3611 1.429 1_554 S
C3592 H3616 0.950 . S
C3593 C3610 1.574 . S
C3593 C3612 1.368 . S
C3593 H3617 0.949 . S
H3594 C3598 0.949 . S
C3595 C3596 1.349 . S
C3595 C3597 1.327 1_554 S
C3595 H3618 0.950 1_554 S
C3596 C3595 1.349 . S
C3596 C3608 1.349 . S
C3597 C3595 1.327 1_556 S
C3597 C3613 1.429 1_556 S
C3597 H3619 0.950 . S
C3598 H3594 0.949 . S
C3598 C3606 1.574 . S
C3598 C3614 1.368 . S
H3599 C3607 0.950 . S
H3600 C3605 0.950 . S
H3601 C3606 0.949 . S
H3602 C3608 0.950 . S
H3603 C3609 0.950 . S
H3604 C3610 0.949 . S
C3605 H3600 0.950 . S
C3605 C3607 1.327 . S
C3605 C3611 1.429 . S
C3606 C3598 1.574 . S
C3606 H3601 0.949 . S
C3606 C3612 1.368 1_554 S
C3607 C3591 1.349 . S
C3607 H3599 0.950 . S
C3607 C3605 1.327 . S
C3608 C3596 1.349 . S
C3608 H3602 0.950 . S
C3608 C3609 1.327 . S
C3609 H3603 0.950 . S
C3609 C3608 1.327 . S
C3609 C3613 1.429 . S
C3610 C3593 1.574 . S
C3610 H3604 0.949 . S
C3610 C3614 1.368 1_556 S
C3611 C3592 1.429 1_556 S
C3611 C3605 1.429 . S
C3611 C3612 1.523 . S
C3612 C3593 1.368 . S
C3612 C3606 1.368 1_556 S
C3612 C3611 1.523 . S
C3613 C3597 1.429 1_554 S
C3613 C3609 1.429 . S
C3613 C3614 1.523 . S
C3614 C3598 1.368 . S
C3614 C3610 1.368 1_554 S
C3614 C3613 1.523 . S
H3615 C3590 0.950 1_554 S
H3616 C3592 0.950 . S
H3617 C3593 0.949 . S
H3618 C3595 0.950 1_556 S
H3619 C3597 0.950 . S
C3620 C3621 1.349 . S
C3620 C3622 1.327 . S
C3620 H3645 0.950 . S
C3621 C3620 1.349 . S
C3621 C3637 1.349 . S
C3622 C3620 1.327 . S
C3622 C3641 1.429 . S
C3622 H3646 0.950 . S
C3623 C3640 1.574 . S
C3623 C3642 1.368 . S
C3623 H3647 0.949 . S
H3624 C3628 0.949 . S
C3625 C3626 1.349 . S
C3625 C3627 1.327 . S
C3625 H3648 0.950 . S
C3626 C3625 1.349 . S
C3626 C3638 1.349 . S
C3627 C3625 1.327 . S
C3627 C3643 1.429 . S
C3627 H3649 0.950 . S
C3628 H3624 0.949 . S
C3628 C3636 1.574 . S
C3628 C3644 1.368 . S
H3629 C3637 0.950 . S
H3630 C3635 0.950 . S
H3631 C3636 0.949 . S
H3632 C3638 0.950 . S
H3633 C3639 0.950 . S
H3634 C3640 0.949 . S
C3635 H3630 0.950 . S
C3635 C3637 1.327 . S
C3635 C3641 1.429 . S
C3636 C3628 1.574 . S
C3636 H3631 0.949 . S
C3636 C3642 1.368 . S
C3637 C3621 1.349 . S
C3637 H3629 0.950 . S
C3637 C3635 1.327 . S
C3638 C3626 1.349 . S
C3638 H3632 0.950 . S
C3638 C3639 1.327 . S
C3639 H3633 0.950 . S
C3639 C3638 1.327 . S
C3639 C3643 1.429 . S
C3640 C3623 1.574 . S
C3640 H3634 0.949 . S
C3640 C3644 1.368 . S
C3641 C3622 1.429 . S
C3641 C3635 1.429 . S
C3641 C3642 1.523 . S
C3642 C3623 1.368 . S
C3642 C3636 1.368 . S
C3642 C3641 1.523 . S
C3643 C3627 1.429 . S
C3643 C3639 1.429 . S
C3643 C3644 1.523 . S
C3644 C3628 1.368 . S
C3644 C3640 1.368 . S
C3644 C3643 1.523 . S
H3645 C3620 0.950 . S
H3646 C3622 0.950 . S
H3647 C3623 0.949 . S
H3648 C3625 0.950 . S
H3649 C3627 0.950 . S
C3650 C3651 1.349 . S
C3650 C3652 1.327 . S
C3650 H3675 0.950 . S
C3651 C3650 1.349 . S
C3651 C3667 1.349 . S
C3652 C3650 1.327 . S
C3652 C3671 1.429 . S
C3652 H3676 0.950 . S
C3653 C3670 1.574 . S
C3653 C3672 1.368 . S
C3653 H3677 0.949 . S
H3654 C3658 0.949 . S
C3655 C3656 1.349 . S
C3655 C3657 1.327 . S
C3655 H3678 0.950 . S
C3656 C3655 1.349 . S
C3656 C3668 1.349 . S
C3657 C3655 1.327 . S
C3657 C3673 1.429 . S
C3657 H3679 0.950 . S
C3658 H3654 0.949 . S
C3658 C3666 1.574 . S
C3658 C3674 1.368 . S
H3659 C3667 0.950 . S
H3660 C3665 0.950 . S
H3661 C3666 0.949 . S
H3662 C3668 0.950 . S
H3663 C3669 0.950 . S
H3664 C3670 0.949 . S
C3665 H3660 0.950 . S
C3665 C3667 1.327 . S
C3665 C3671 1.429 . S
C3666 C3658 1.574 . S
C3666 H3661 0.949 . S
C3666 C3672 1.368 . S
C3667 C3651 1.349 . S
C3667 H3659 0.950 . S
C3667 C3665 1.327 . S
C3668 C3656 1.349 . S
C3668 H3662 0.950 . S
C3668 C3669 1.327 . S
C3669 H3663 0.950 . S
C3669 C3668 1.327 . S
C3669 C3673 1.429 . S
C3670 C3653 1.574 . S
C3670 H3664 0.949 . S
C3670 C3674 1.368 . S
C3671 C3652 1.429 . S
C3671 C3665 1.429 . S
C3671 C3672 1.523 . S
C3672 C3653 1.368 . S
C3672 C3666 1.368 . S
C3672 C3671 1.523 . S
C3673 C3657 1.429 . S
C3673 C3669 1.429 . S
C3673 C3674 1.523 . S
C3674 C3658 1.368 . S
C3674 C3670 1.368 . S
C3674 C3673 1.523 . S
H3675 C3650 0.950 . S
H3676 C3652 0.950 . S
H3677 C3653 0.949 . S
H3678 C3655 0.950 . S
H3679 C3657 0.950 . S
C3680 C3681 1.349 . S
C3680 C3682 1.327 . S
C3680 H3705 0.950 . S
C3681 C3680 1.349 . S
C3681 C3697 1.349 . S
C3682 C3680 1.327 . S
C3682 C3701 1.429 . S
C3682 H3706 0.950 . S
C3683 C3700 1.574 . S
C3683 C3702 1.368 . S
C3683 H3707 0.949 . S
H3684 C3688 0.949 . S
C3685 C3686 1.349 . S
C3685 C3687 1.327 . S
C3685 H3708 0.950 . S
C3686 C3685 1.349 . S
C3686 C3698 1.349 . S
C3687 C3685 1.327 . S
C3687 C3703 1.429 . S
C3687 H3709 0.950 . S
C3688 H3684 0.949 . S
C3688 C3696 1.574 . S
C3688 C3704 1.368 . S
H3689 C3697 0.950 . S
H3690 C3695 0.950 . S
H3691 C3696 0.949 . S
H3692 C3698 0.950 . S
H3693 C3699 0.950 . S
H3694 C3700 0.949 . S
C3695 H3690 0.950 . S
C3695 C3697 1.327 . S
C3695 C3701 1.429 . S
C3696 C3688 1.574 . S
C3696 H3691 0.949 . S
C3696 C3702 1.368 . S
C3697 C3681 1.349 . S
C3697 H3689 0.950 . S
C3697 C3695 1.327 . S
C3698 C3686 1.349 . S
C3698 H3692 0.950 . S
C3698 C3699 1.327 . S
C3699 H3693 0.950 . S
C3699 C3698 1.327 . S
C3699 C3703 1.429 . S
C3700 C3683 1.574 . S
C3700 H3694 0.949 . S
C3700 C3704 1.368 . S
C3701 C3682 1.429 . S
C3701 C3695 1.429 . S
C3701 C3702 1.523 . S
C3702 C3683 1.368 . S
C3702 C3696 1.368 . S
C3702 C3701 1.523 . S
C3703 C3687 1.429 . S
C3703 C3699 1.429 . S
C3703 C3704 1.523 . S
C3704 C3688 1.368 . S
C3704 C3700 1.368 . S
C3704 C3703 1.523 . S
H3705 C3680 0.950 . S
H3706 C3682 0.950 . S
H3707 C3683 0.949 . S
H3708 C3685 0.950 . S
H3709 C3687 0.950 . S
C3710 C3711 1.349 . S
C3710 C3712 1.327 . S
C3710 H3735 0.950 . S
C3711 C3710 1.349 . S
C3711 C3727 1.349 . S
C3712 C3710 1.327 . S
C3712 C3731 1.429 . S
C3712 H3736 0.950 . S
C3713 C3730 1.574 . S
C3713 C3732 1.368 . S
C3713 H3737 0.949 . S
H3714 C3718 0.949 . S
C3715 C3716 1.349 . S
C3715 C3717 1.327 . S
C3715 H3738 0.950 . S
C3716 C3715 1.349 . S
C3716 C3728 1.349 . S
C3717 C3715 1.327 . S
C3717 C3733 1.429 . S
C3717 H3739 0.950 . S
C3718 H3714 0.949 . S
C3718 C3726 1.574 . S
C3718 C3734 1.368 . S
H3719 C3727 0.950 . S
H3720 C3725 0.950 . S
H3721 C3726 0.949 . S
H3722 C3728 0.950 . S
H3723 C3729 0.950 . S
H3724 C3730 0.949 . S
C3725 H3720 0.950 . S
C3725 C3727 1.327 . S
C3725 C3731 1.429 . S
C3726 C3718 1.574 . S
C3726 H3721 0.949 . S
C3726 C3732 1.368 . S
C3727 C3711 1.349 . S
C3727 H3719 0.950 . S
C3727 C3725 1.327 . S
C3728 C3716 1.349 . S
C3728 H3722 0.950 . S
C3728 C3729 1.327 . S
C3729 H3723 0.950 . S
C3729 C3728 1.327 . S
C3729 C3733 1.429 . S
C3730 C3713 1.574 . S
C3730 H3724 0.949 . S
C3730 C3734 1.368 . S
C3731 C3712 1.429 . S
C3731 C3725 1.429 . S
C3731 C3732 1.523 . S
C3732 C3713 1.368 . S
C3732 C3726 1.368 . S
C3732 C3731 1.523 . S
C3733 C3717 1.429 . S
C3733 C3729 1.429 . S
C3733 C3734 1.523 . S
C3734 C3718 1.368 . S
C3734 C3730 1.368 . S
C3734 C3733 1.523 . S
H3735 C3710 0.950 . S
H3736 C3712 0.950 . S
H3737 C3713 0.949 . S
H3738 C3715 0.950 . S
H3739 C3717 0.950 . S
C3740 C3741 1.349 . S
C3740 C3742 1.327 . S
C3740 H3765 0.950 . S
C3741 C3740 1.349 . S
C3741 C3757 1.349 . S
C3742 C3740 1.327 . S
C3742 C3761 1.429 . S
C3742 H3766 0.950 . S
C3743 C3760 1.574 . S
C3743 C3762 1.368 . S
C3743 H3767 0.949 . S
H3744 C3748 0.949 . S
C3745 C3746 1.349 . S
C3745 C3747 1.327 . S
C3745 H3768 0.950 . S
C3746 C3745 1.349 . S
C3746 C3758 1.349 . S
C3747 C3745 1.327 . S
C3747 C3763 1.429 . S
C3747 H3769 0.950 . S
C3748 H3744 0.949 . S
C3748 C3756 1.574 . S
C3748 C3764 1.368 . S
H3749 C3757 0.950 . S
H3750 C3755 0.950 . S
H3751 C3756 0.949 . S
H3752 C3758 0.950 . S
H3753 C3759 0.950 . S
H3754 C3760 0.949 . S
C3755 H3750 0.950 . S
C3755 C3757 1.327 . S
C3755 C3761 1.429 . S
C3756 C3748 1.574 . S
C3756 H3751 0.949 . S
C3756 C3762 1.368 . S
C3757 C3741 1.349 . S
C3757 H3749 0.950 . S
C3757 C3755 1.327 . S
C3758 C3746 1.349 . S
C3758 H3752 0.950 . S
C3758 C3759 1.327 . S
C3759 H3753 0.950 . S
C3759 C3758 1.327 . S
C3759 C3763 1.429 . S
C3760 C3743 1.574 . S
C3760 H3754 0.949 . S
C3760 C3764 1.368 . S
C3761 C3742 1.429 . S
C3761 C3755 1.429 . S
C3761 C3762 1.523 . S
C3762 C3743 1.368 . S
C3762 C3756 1.368 . S
C3762 C3761 1.523 . S
C3763 C3747 1.429 . S
C3763 C3759 1.429 . S
C3763 C3764 1.523 . S
C3764 C3748 1.368 . S
C3764 C3760 1.368 . S
C3764 C3763 1.523 . S
H3765 C3740 0.950 . S
H3766 C3742 0.950 . S
H3767 C3743 0.949 . S
H3768 C3745 0.950 . S
H3769 C3747 0.950 . S
C3770 C3771 1.349 . S
C3770 C3772 1.327 . S
C3770 H3795 0.950 . S
C3771 C3770 1.349 . S
C3771 C3787 1.349 . S
C3772 C3770 1.327 . S
C3772 C3791 1.429 . S
C3772 H3796 0.950 . S
C3773 C3790 1.574 . S
C3773 C3792 1.368 . S
C3773 H3797 0.949 . S
H3774 C3778 0.949 . S
C3775 C3776 1.349 . S
C3775 C3777 1.327 . S
C3775 H3798 0.950 . S
C3776 C3775 1.349 . S
C3776 C3788 1.349 . S
C3777 C3775 1.327 . S
C3777 C3793 1.429 . S
C3777 H3799 0.950 . S
C3778 H3774 0.949 . S
C3778 C3786 1.574 . S
C3778 C3794 1.368 . S
H3779 C3787 0.950 . S
H3780 C3785 0.950 . S
H3781 C3786 0.949 . S
H3782 C3788 0.950 . S
H3783 C3789 0.950 . S
H3784 C3790 0.949 . S
C3785 H3780 0.950 . S
C3785 C3787 1.327 . S
C3785 C3791 1.429 . S
C3786 C3778 1.574 . S
C3786 H3781 0.949 . S
C3786 C3792 1.368 . S
C3787 C3771 1.349 . S
C3787 H3779 0.950 . S
C3787 C3785 1.327 . S
C3788 C3776 1.349 . S
C3788 H3782 0.950 . S
C3788 C3789 1.327 . S
C3789 H3783 0.950 . S
C3789 C3788 1.327 . S
C3789 C3793 1.429 . S
C3790 C3773 1.574 . S
C3790 H3784 0.949 . S
C3790 C3794 1.368 . S
C3791 C3772 1.429 . S
C3791 C3785 1.429 . S
C3791 C3792 1.523 . S
C3792 C3773 1.368 . S
C3792 C3786 1.368 . S
C3792 C3791 1.523 . S
C3793 C3777 1.429 . S
C3793 C3789 1.429 . S
C3793 C3794 1.523 . S
C3794 C3778 1.368 . S
C3794 C3790 1.368 . S
C3794 C3793 1.523 . S
H3795 C3770 0.950 . S
H3796 C3772 0.950 . S
H3797 C3773 0.949 . S
H3798 C3775 0.950 . S
H3799 C3777 0.950 . S
C3800 C3801 1.349 . S
C3800 C3802 1.327 . S
C3800 H3825 0.950 . S
C3801 C3800 1.349 . S
C3801 C3817 1.349 . S
C3802 C3800 1.327 . S
C3802 C3821 1.429 . S
C3802 H3826 0.950 . S
C3803 C3820 1.574 . S
C3803 C3822 1.368 . S
C3803 H3827 0.949 . S
H3804 C3808 0.949 . S
C3805 C3806 1.349 . S
C3805 C3807 1.327 . S
C3805 H3828 0.950 . S
C3806 C3805 1.349 . S
C3806 C3818 1.349 . S
C3807 C3805 1.327 . S
C3807 C3823 1.429 . S
C3807 H3829 0.950 . S
C3808 H3804 0.949 . S
C3808 C3816 1.574 . S
C3808 C3824 1.368 . S
H3809 C3817 0.950 . S
H3810 C3815 0.950 . S
H3811 C3816 0.949 . S
H3812 C3818 0.950 . S
H3813 C3819 0.950 . S
H3814 C3820 0.949 . S
C3815 H3810 0.950 . S
C3815 C3817 1.327 . S
C3815 C3821 1.429 . S
C3816 C3808 1.574 . S
C3816 H3811 0.949 . S
C3816 C3822 1.368 . S
C3817 C3801 1.349 . S
C3817 H3809 0.950 . S
C3817 C3815 1.327 . S
C3818 C3806 1.349 . S
C3818 H3812 0.950 . S
C3818 C3819 1.327 . S
C3819 H3813 0.950 . S
C3819 C3818 1.327 . S
C3819 C3823 1.429 . S
C3820 C3803 1.574 . S
C3820 H3814 0.949 . S
C3820 C3824 1.368 . S
C3821 C3802 1.429 . S
C3821 C3815 1.429 . S
C3821 C3822 1.523 . S
C3822 C3803 1.368 . S
C3822 C3816 1.368 . S
C3822 C3821 1.523 . S
C3823 C3807 1.429 . S
C3823 C3819 1.429 . S
C3823 C3824 1.523 . S
C3824 C3808 1.368 . S
C3824 C3820 1.368 . S
C3824 C3823 1.523 . S
H3825 C3800 0.950 . S
H3826 C3802 0.950 . S
H3827 C3803 0.949 . S
H3828 C3805 0.950 . S
H3829 C3807 0.950 . S
C3830 C3831 1.349 . S
C3830 C3832 1.327 . S
C3830 H3855 0.950 . S
C3831 C3830 1.349 . S
C3831 C3847 1.349 . S
C3832 C3830 1.327 . S
C3832 C3851 1.429 . S
C3832 H3856 0.950 . S
C3833 C3850 1.574 . S
C3833 C3852 1.368 . S
C3833 H3857 0.949 . S
H3834 C3838 0.949 . S
C3835 C3836 1.349 . S
C3835 C3837 1.327 . S
C3835 H3858 0.950 . S
C3836 C3835 1.349 . S
C3836 C3848 1.349 . S
C3837 C3835 1.327 . S
C3837 C3853 1.429 . S
C3837 H3859 0.950 . S
C3838 H3834 0.949 . S
C3838 C3846 1.574 . S
C3838 C3854 1.368 . S
H3839 C3847 0.950 . S
H3840 C3845 0.950 . S
H3841 C3846 0.949 . S
H3842 C3848 0.950 . S
H3843 C3849 0.950 . S
H3844 C3850 0.949 . S
C3845 H3840 0.950 . S
C3845 C3847 1.327 . S
C3845 C3851 1.429 . S
C3846 C3838 1.574 . S
C3846 H3841 0.949 . S
C3846 C3852 1.368 . S
C3847 C3831 1.349 . S
C3847 H3839 0.950 . S
C3847 C3845 1.327 . S
C3848 C3836 1.349 . S
C3848 H3842 0.950 . S
C3848 C3849 1.327 . S
C3849 H3843 0.950 . S
C3849 C3848 1.327 . S
C3849 C3853 1.429 . S
C3850 C3833 1.574 . S
C3850 H3844 0.949 . S
C3850 C3854 1.368 . S
C3851 C3832 1.429 . S
C3851 C3845 1.429 . S
C3851 C3852 1.523 . S
C3852 C3833 1.368 . S
C3852 C3846 1.368 . S
C3852 C3851 1.523 . S
C3853 C3837 1.429 . S
C3853 C3849 1.429 . S
C3853 C3854 1.523 . S
C3854 C3838 1.368 . S
C3854 C3850 1.368 . S
C3854 C3853 1.523 . S
H3855 C3830 0.950 . S
H3856 C3832 0.950 . S
H3857 C3833 0.949 . S
H3858 C3835 0.950 . S
H3859 C3837 0.950 . S
C3860 C3861 1.349 . S
C3860 C3862 1.327 . S
C3860 H3885 0.950 . S
C3861 C3860 1.349 . S
C3861 C3877 1.349 . S
C3862 C3860 1.327 . S
C3862 C3881 1.429 . S
C3862 H3886 0.950 . S
C3863 C3880 1.574 . S
C3863 C3882 1.368 . S
C3863 H3887 0.949 . S
H3864 C3868 0.949 . S
C3865 C3866 1.349 . S
C3865 C3867 1.327 . S
C3865 H3888 0.950 . S
C3866 C3865 1.349 . S
C3866 C3878 1.349 . S
C3867 C3865 1.327 . S
C3867 C3883 1.429 . S
C3867 H3889 0.950 . S
C3868 H3864 0.949 . S
C3868 C3876 1.574 . S
C3868 C3884 1.368 . S
H3869 C3877 0.950 . S
H3870 C3875 0.950 . S
H3871 C3876 0.949 . S
H3872 C3878 0.950 . S
H3873 C3879 0.950 . S
H3874 C3880 0.949 . S
C3875 H3870 0.950 . S
C3875 C3877 1.327 . S
C3875 C3881 1.429 . S
C3876 C3868 1.574 . S
C3876 H3871 0.949 . S
C3876 C3882 1.368 . S
C3877 C3861 1.349 . S
C3877 H3869 0.950 . S
C3877 C3875 1.327 . S
C3878 C3866 1.349 . S
C3878 H3872 0.950 . S
C3878 C3879 1.327 . S
C3879 H3873 0.950 . S
C3879 C3878 1.327 . S
C3879 C3883 1.429 . S
C3880 C3863 1.574 . S
C3880 H3874 0.949 . S
C3880 C3884 1.368 . S
C3881 C3862 1.429 . S
C3881 C3875 1.429 . S
C3881 C3882 1.523 . S
C3882 C3863 1.368 . S
C3882 C3876 1.368 . S
C3882 C3881 1.523 . S
C3883 C3867 1.429 . S
C3883 C3879 1.429 . S
C3883 C3884 1.523 . S
C3884 C3868 1.368 . S
C3884 C3880 1.368 . S
C3884 C3883 1.523 . S
H3885 C3860 0.950 . S
H3886 C3862 0.950 . S
H3887 C3863 0.949 . S
H3888 C3865 0.950 . S
H3889 C3867 0.950 . S
C3890 C3891 1.349 . S
C3890 C3892 1.327 . S
C3890 H3915 0.950 . S
C3891 C3890 1.349 . S
C3891 C3907 1.349 . S
C3892 C3890 1.327 . S
C3892 C3911 1.429 . S
C3892 H3916 0.950 . S
C3893 C3910 1.574 . S
C3893 C3912 1.368 . S
C3893 H3917 0.949 . S
H3894 C3898 0.949 . S
C3895 C3896 1.349 . S
C3895 C3897 1.327 . S
C3895 H3918 0.950 . S
C3896 C3895 1.349 . S
C3896 C3908 1.349 . S
C3897 C3895 1.327 . S
C3897 C3913 1.429 . S
C3897 H3919 0.950 . S
C3898 H3894 0.949 . S
C3898 C3906 1.574 . S
C3898 C3914 1.368 . S
H3899 C3907 0.950 . S
H3900 C3905 0.950 . S
H3901 C3906 0.949 . S
H3902 C3908 0.950 . S
H3903 C3909 0.950 . S
H3904 C3910 0.949 . S
C3905 H3900 0.950 . S
C3905 C3907 1.327 . S
C3905 C3911 1.429 . S
C3906 C3898 1.574 . S
C3906 H3901 0.949 . S
C3906 C3912 1.368 . S
C3907 C3891 1.349 . S
C3907 H3899 0.950 . S
C3907 C3905 1.327 . S
C3908 C3896 1.349 . S
C3908 H3902 0.950 . S
C3908 C3909 1.327 . S
C3909 H3903 0.950 . S
C3909 C3908 1.327 . S
C3909 C3913 1.429 . S
C3910 C3893 1.574 . S
C3910 H3904 0.949 . S
C3910 C3914 1.368 . S
C3911 C3892 1.429 . S
C3911 C3905 1.429 . S
C3911 C3912 1.523 . S
C3912 C3893 1.368 . S
C3912 C3906 1.368 . S
C3912 C3911 1.523 . S
C3913 C3897 1.429 . S
C3913 C3909 1.429 . S
C3913 C3914 1.523 . S
C3914 C3898 1.368 . S
C3914 C3910 1.368 . S
C3914 C3913 1.523 . S
H3915 C3890 0.950 . S
H3916 C3892 0.950 . S
H3917 C3893 0.949 . S
H3918 C3895 0.950 . S
H3919 C3897 0.950 . S
C3920 C3921 1.349 . S
C3920 C3922 1.327 . S
C3920 H3945 0.950 . S
C3921 C3920 1.349 . S
C3921 C3937 1.349 . S
C3922 C3920 1.327 . S
C3922 C3941 1.429 . S
C3922 H3946 0.950 . S
C3923 C3940 1.574 . S
C3923 C3942 1.368 . S
C3923 H3947 0.949 . S
H3924 C3928 0.949 . S
C3925 C3926 1.349 . S
C3925 C3927 1.327 . S
C3925 H3948 0.950 . S
C3926 C3925 1.349 . S
C3926 C3938 1.349 . S
C3927 C3925 1.327 . S
C3927 C3943 1.429 . S
C3927 H3949 0.950 . S
C3928 H3924 0.949 . S
C3928 C3936 1.574 . S
C3928 C3944 1.368 . S
H3929 C3937 0.950 . S
H3930 C3935 0.950 . S
H3931 C3936 0.949 . S
H3932 C3938 0.950 . S
H3933 C3939 0.950 . S
H3934 C3940 0.949 . S
C3935 H3930 0.950 . S
C3935 C3937 1.327 . S
C3935 C3941 1.429 . S
C3936 C3928 1.574 . S
C3936 H3931 0.949 . S
C3936 C3942 1.368 . S
C3937 C3921 1.349 . S
C3937 H3929 0.950 . S
C3937 C3935 1.327 . S
C3938 C3926 1.349 . S
C3938 H3932 0.950 . S
C3938 C3939 1.327 . S
C3939 H3933 0.950 . S
C3939 C3938 1.327 . S
C3939 C3943 1.429 . S
C3940 C3923 1.574 . S
C3940 H3934 0.949 . S
C3940 C3944 1.368 . S
C3941 C3922 1.429 . S
C3941 C3935 1.429 . S
C3941 C3942 1.523 . S
C3942 C3923 1.368 . S
C3942 C3936 1.368 . S
C3942 C3941 1.523 . S
C3943 C3927 1.429 . S
C3943 C3939 1.429 . S
C3943 C3944 1.523 . S
C3944 C3928 1.368 . S
C3944 C3940 1.368 . S
C3944 C3943 1.523 . S
H3945 C3920 0.950 . S
H3946 C3922 0.950 . S
H3947 C3923 0.949 . S
H3948 C3925 0.950 . S
H3949 C3927 0.950 . S
C3950 C3951 1.349 . S
C3950 C3952 1.327 . S
C3950 H3975 0.950 . S
C3951 C3950 1.349 . S
C3951 C3967 1.349 . S
C3952 C3950 1.327 . S
C3952 C3971 1.429 . S
C3952 H3976 0.950 . S
C3953 C3970 1.574 . S
C3953 C3972 1.368 . S
C3953 H3977 0.949 . S
H3954 C3958 0.949 . S
C3955 C3956 1.349 . S
C3955 C3957 1.327 . S
C3955 H3978 0.950 . S
C3956 C3955 1.349 . S
C3956 C3968 1.349 . S
C3957 C3955 1.327 . S
C3957 C3973 1.429 . S
C3957 H3979 0.950 . S
C3958 H3954 0.949 . S
C3958 C3966 1.574 . S
C3958 C3974 1.368 . S
H3959 C3967 0.950 . S
H3960 C3965 0.950 . S
H3961 C3966 0.949 . S
H3962 C3968 0.950 . S
H3963 C3969 0.950 . S
H3964 C3970 0.949 . S
C3965 H3960 0.950 . S
C3965 C3967 1.327 . S
C3965 C3971 1.429 . S
C3966 C3958 1.574 . S
C3966 H3961 0.949 . S
C3966 C3972 1.368 . S
C3967 C3951 1.349 . S
C3967 H3959 0.950 . S
C3967 C3965 1.327 . S
C3968 C3956 1.349 . S
C3968 H3962 0.950 . S
C3968 C3969 1.327 . S
C3969 H3963 0.950 . S
C3969 C3968 1.327 . S
C3969 C3973 1.429 . S
C3970 C3953 1.574 . S
C3970 H3964 0.949 . S
C3970 C3974 1.368 . S
C3971 C3952 1.429 . S
C3971 C3965 1.429 . S
C3971 C3972 1.523 . S
C3972 C3953 1.368 . S
C3972 C3966 1.368 . S
C3972 C3971 1.523 . S
C3973 C3957 1.429 . S
C3973 C3969 1.429 . S
C3973 C3974 1.523 . S
C3974 C3958 1.368 . S
C3974 C3970 1.368 . S
C3974 C3973 1.523 . S
H3975 C3950 0.950 . S
H3976 C3952 0.950 . S
H3977 C3953 0.949 . S
H3978 C3955 0.950 . S
H3979 C3957 0.950 . S
C3980 C3981 1.349 . S
C3980 C3982 1.327 . S
C3980 H4005 0.950 . S
C3981 C3980 1.349 . S
C3981 C3997 1.349 . S
C3982 C3980 1.327 . S
C3982 C4001 1.429 . S
C3982 H4006 0.950 . S
C3983 C4000 1.574 . S
C3983 C4002 1.368 . S
C3983 H4007 0.949 . S
H3984 C3988 0.949 . S
C3985 C3986 1.349 . S
C3985 C3987 1.327 . S
C3985 H4008 0.950 . S
C3986 C3985 1.349 . S
C3986 C3998 1.349 . S
C3987 C3985 1.327 . S
C3987 C4003 1.429 . S
C3987 H4009 0.950 . S
C3988 H3984 0.949 . S
C3988 C3996 1.574 . S
C3988 C4004 1.368 . S
H3989 C3997 0.950 . S
H3990 C3995 0.950 . S
H3991 C3996 0.949 . S
H3992 C3998 0.950 . S
H3993 C3999 0.950 . S
H3994 C4000 0.949 . S
C3995 H3990 0.950 . S
C3995 C3997 1.327 . S
C3995 C4001 1.429 . S
C3996 C3988 1.574 . S
C3996 H3991 0.949 . S
C3996 C4002 1.368 . S
C3997 C3981 1.349 . S
C3997 H3989 0.950 . S
C3997 C3995 1.327 . S
C3998 C3986 1.349 . S
C3998 H3992 0.950 . S
C3998 C3999 1.327 . S
C3999 H3993 0.950 . S
C3999 C3998 1.327 . S
C3999 C4003 1.429 . S
C4000 C3983 1.574 . S
C4000 H3994 0.949 . S
C4000 C4004 1.368 . S
C4001 C3982 1.429 . S
C4001 C3995 1.429 . S
C4001 C4002 1.523 . S
C4002 C3983 1.368 . S
C4002 C3996 1.368 . S
C4002 C4001 1.523 . S
C4003 C3987 1.429 . S
C4003 C3999 1.429 . S
C4003 C4004 1.523 . S
C4004 C3988 1.368 . S
C4004 C4000 1.368 . S
C4004 C4003 1.523 . S
H4005 C3980 0.950 . S
H4006 C3982 0.950 . S
H4007 C3983 0.949 . S
H4008 C3985 0.950 . S
H4009 C3987 0.950 . S
C4010 C4011 1.349 . S
C4010 C4012 1.327 . S
C4010 H4035 0.950 . S
C4011 C4010 1.349 . S
C4011 C4027 1.349 . S
C4012 C4010 1.327 . S
C4012 C4031 1.429 . S
C4012 H4036 0.950 . S
C4013 C4030 1.574 . S
C4013 C4032 1.368 . S
C4013 H4037 0.949 . S
H4014 C4018 0.949 . S
C4015 C4016 1.349 . S
C4015 C4017 1.327 . S
C4015 H4038 0.950 . S
C4016 C4015 1.349 . S
C4016 C4028 1.349 . S
C4017 C4015 1.327 . S
C4017 C4033 1.429 . S
C4017 H4039 0.950 . S
C4018 H4014 0.949 . S
C4018 C4026 1.574 . S
C4018 C4034 1.368 . S
H4019 C4027 0.950 . S
H4020 C4025 0.950 . S
H4021 C4026 0.949 . S
H4022 C4028 0.950 . S
H4023 C4029 0.950 . S
H4024 C4030 0.949 . S
C4025 H4020 0.950 . S
C4025 C4027 1.327 . S
C4025 C4031 1.429 . S
C4026 C4018 1.574 . S
C4026 H4021 0.949 . S
C4026 C4032 1.368 . S
C4027 C4011 1.349 . S
C4027 H4019 0.950 . S
C4027 C4025 1.327 . S
C4028 C4016 1.349 . S
C4028 H4022 0.950 . S
C4028 C4029 1.327 . S
C4029 H4023 0.950 . S
C4029 C4028 1.327 . S
C4029 C4033 1.429 . S
C4030 C4013 1.574 . S
C4030 H4024 0.949 . S
C4030 C4034 1.368 . S
C4031 C4012 1.429 . S
C4031 C4025 1.429 . S
C4031 C4032 1.523 . S
C4032 C4013 1.368 . S
C4032 C4026 1.368 . S
C4032 C4031 1.523 . S
C4033 C4017 1.429 . S
C4033 C4029 1.429 . S
C4033 C4034 1.523 . S
C4034 C4018 1.368 . S
C4034 C4030 1.368 . S
C4034 C4033 1.523 . S
H4035 C4010 0.950 . S
H4036 C4012 0.950 . S
H4037 C4013 0.949 . S
H4038 C4015 0.950 . S
H4039 C4017 0.950 . S
C4040 C4041 1.349 . S
C4040 C4042 1.327 . S
C4040 H4065 0.950 . S
C4041 C4040 1.349 . S
C4041 C4057 1.349 . S
C4042 C4040 1.327 . S
C4042 C4061 1.429 . S
C4042 H4066 0.950 . S
C4043 C4060 1.574 . S
C4043 C4062 1.368 . S
C4043 H4067 0.949 . S
H4044 C4048 0.949 . S
C4045 C4046 1.349 . S
C4045 C4047 1.327 . S
C4045 H4068 0.950 . S
C4046 C4045 1.349 . S
C4046 C4058 1.349 . S
C4047 C4045 1.327 . S
C4047 C4063 1.429 . S
C4047 H4069 0.950 . S
C4048 H4044 0.949 . S
C4048 C4056 1.574 . S
C4048 C4064 1.368 . S
H4049 C4057 0.950 . S
H4050 C4055 0.950 . S
H4051 C4056 0.949 . S
H4052 C4058 0.950 . S
H4053 C4059 0.950 . S
H4054 C4060 0.949 . S
C4055 H4050 0.950 . S
C4055 C4057 1.327 . S
C4055 C4061 1.429 . S
C4056 C4048 1.574 . S
C4056 H4051 0.949 . S
C4056 C4062 1.368 . S
C4057 C4041 1.349 . S
C4057 H4049 0.950 . S
C4057 C4055 1.327 . S
C4058 C4046 1.349 . S
C4058 H4052 0.950 . S
C4058 C4059 1.327 . S
C4059 H4053 0.950 . S
C4059 C4058 1.327 . S
C4059 C4063 1.429 . S
C4060 C4043 1.574 . S
C4060 H4054 0.949 . S
C4060 C4064 1.368 . S
C4061 C4042 1.429 . S
C4061 C4055 1.429 . S
C4061 C4062 1.523 . S
C4062 C4043 1.368 . S
C4062 C4056 1.368 . S
C4062 C4061 1.523 . S
C4063 C4047 1.429 . S
C4063 C4059 1.429 . S
C4063 C4064 1.523 . S
C4064 C4048 1.368 . S
C4064 C4060 1.368 . S
C4064 C4063 1.523 . S
H4065 C4040 0.950 . S
H4066 C4042 0.950 . S
H4067 C4043 0.949 . S
H4068 C4045 0.950 . S
H4069 C4047 0.950 . S
C4070 C4071 1.349 . S
C4070 C4072 1.327 . S
C4070 H4095 0.950 . S
C4071 C4070 1.349 . S
C4071 C4087 1.349 . S
C4072 C4070 1.327 . S
C4072 C4091 1.429 . S
C4072 H4096 0.950 . S
C4073 C4090 1.574 . S
C4073 C4092 1.368 . S
C4073 H4097 0.949 . S
H4074 C4078 0.949 . S
C4075 C4076 1.349 . S
C4075 C4077 1.327 . S
C4075 H4098 0.950 . S
C4076 C4075 1.349 . S
C4076 C4088 1.349 . S
C4077 C4075 1.327 . S
C4077 C4093 1.429 . S
C4077 H4099 0.950 . S
C4078 H4074 0.949 . S
C4078 C4086 1.574 . S
C4078 C4094 1.368 . S
H4079 C4087 0.950 . S
H4080 C4085 0.950 . S
H4081 C4086 0.949 . S
H4082 C4088 0.950 . S
H4083 C4089 0.950 . S
H4084 C4090 0.949 . S
C4085 H4080 0.950 . S
C4085 C4087 1.327 . S
C4085 C4091 1.429 . S
C4086 C4078 1.574 . S
C4086 H4081 0.949 . S
C4086 C4092 1.368 . S
C4087 C4071 1.349 . S
C4087 H4079 0.950 . S
C4087 C4085 1.327 . S
C4088 C4076 1.349 . S
C4088 H4082 0.950 . S
C4088 C4089 1.327 . S
C4089 H4083 0.950 . S
C4089 C4088 1.327 . S
C4089 C4093 1.429 . S
C4090 C4073 1.574 . S
C4090 H4084 0.949 . S
C4090 C4094 1.368 . S
C4091 C4072 1.429 . S
C4091 C4085 1.429 . S
C4091 C4092 1.523 . S
C4092 C4073 1.368 . S
C4092 C4086 1.368 . S
C4092 C4091 1.523 . S
C4093 C4077 1.429 . S
C4093 C4089 1.429 . S
C4093 C4094 1.523 . S
C4094 C4078 1.368 . S
C4094 C4090 1.368 . S
C4094 C4093 1.523 . S
H4095 C4070 0.950 . S
H4096 C4072 0.950 . S
H4097 C4073 0.949 . S
H4098 C4075 0.950 . S
H4099 C4077 0.950 . S
C4100 C4101 1.349 . S
C4100 C4102 1.327 . S
C4100 H4125 0.950 . S
C4101 C4100 1.349 . S
C4101 C4117 1.349 . S
C4102 C4100 1.327 . S
C4102 C4121 1.429 . S
C4102 H4126 0.950 . S
C4103 C4120 1.574 . S
C4103 C4122 1.368 . S
C4103 H4127 0.949 . S
H4104 C4108 0.949 . S
C4105 C4106 1.349 . S
C4105 C4107 1.327 . S
C4105 H4128 0.950 . S
C4106 C4105 1.349 . S
C4106 C4118 1.349 . S
C4107 C4105 1.327 . S
C4107 C4123 1.429 . S
C4107 H4129 0.950 . S
C4108 H4104 0.949 . S
C4108 C4116 1.574 . S
C4108 C4124 1.368 . S
H4109 C4117 0.950 . S
H4110 C4115 0.950 . S
H4111 C4116 0.949 . S
H4112 C4118 0.950 . S
H4113 C4119 0.950 . S
H4114 C4120 0.949 . S
C4115 H4110 0.950 . S
C4115 C4117 1.327 . S
C4115 C4121 1.429 . S
C4116 C4108 1.574 . S
C4116 H4111 0.949 . S
C4116 C4122 1.368 . S
C4117 C4101 1.349 . S
C4117 H4109 0.950 . S
C4117 C4115 1.327 . S
C4118 C4106 1.349 . S
C4118 H4112 0.950 . S
C4118 C4119 1.327 . S
C4119 H4113 0.950 . S
C4119 C4118 1.327 . S
C4119 C4123 1.429 . S
C4120 C4103 1.574 . S
C4120 H4114 0.949 . S
C4120 C4124 1.368 . S
C4121 C4102 1.429 . S
C4121 C4115 1.429 . S
C4121 C4122 1.523 . S
C4122 C4103 1.368 . S
C4122 C4116 1.368 . S
C4122 C4121 1.523 . S
C4123 C4107 1.429 . S
C4123 C4119 1.429 . S
C4123 C4124 1.523 . S
C4124 C4108 1.368 . S
C4124 C4120 1.368 . S
C4124 C4123 1.523 . S
H4125 C4100 0.950 . S
H4126 C4102 0.950 . S
H4127 C4103 0.949 . S
H4128 C4105 0.950 . S
H4129 C4107 0.950 . S
C4130 C4131 1.349 . S
C4130 C4132 1.327 . S
C4130 H4155 0.950 . S
C4131 C4130 1.349 . S
C4131 C4147 1.349 . S
C4132 C4130 1.327 . S
C4132 C4151 1.429 . S
C4132 H4156 0.950 . S
C4133 C4150 1.574 . S
C4133 C4152 1.368 . S
C4133 H4157 0.949 . S
H4134 C4138 0.949 . S
C4135 C4136 1.349 . S
C4135 C4137 1.327 . S
C4135 H4158 0.950 . S
C4136 C4135 1.349 . S
C4136 C4148 1.349 . S
C4137 C4135 1.327 . S
C4137 C4153 1.429 . S
C4137 H4159 0.950 . S
C4138 H4134 0.949 . S
C4138 C4146 1.574 . S
C4138 C4154 1.368 . S
H4139 C4147 0.950 . S
H4140 C4145 0.950 . S
H4141 C4146 0.949 . S
H4142 C4148 0.950 . S
H4143 C4149 0.950 . S
H4144 C4150 0.949 . S
C4145 H4140 0.950 . S
C4145 C4147 1.327 . S
C4145 C4151 1.429 . S
C4146 C4138 1.574 . S
C4146 H4141 0.949 . S
C4146 C4152 1.368 . S
C4147 C4131 1.349 . S
C4147 H4139 0.950 . S
C4147 C4145 1.327 . S
C4148 C4136 1.349 . S
C4148 H4142 0.950 . S
C4148 C4149 1.327 . S
C4149 H4143 0.950 . S
C4149 C4148 1.327 . S
C4149 C4153 1.429 . S
C4150 C4133 1.574 . S
C4150 H4144 0.949 . S
C4150 C4154 1.368 . S
C4151 C4132 1.429 . S
C4151 C4145 1.429 . S
C4151 C4152 1.523 . S
C4152 C4133 1.368 . S
C4152 C4146 1.368 . S
C4152 C4151 1.523 . S
C4153 C4137 1.429 . S
C4153 C4149 1.429 . S
C4153 C4154 1.523 . S
C4154 C4138 1.368 . S
C4154 C4150 1.368 . S
C4154 C4153 1.523 . S
H4155 C4130 0.950 . S
H4156 C4132 0.950 . S
H4157 C4133 0.949 . S
H4158 C4135 0.950 . S
H4159 C4137 0.950 . S
C1281 C6 1.099 . S
C1286 C139 1.046 . S
C1311 C19 1.046 . S
C1316 C46 1.099 . S
C1341 C86 1.099 . S
C1346 C59 1.046 . S
C1371 C99 1.046 . S
C1376 C126 1.099 . S
C1401 C219 1.046 . S
C1406 C166 1.099 . S
C1431 C206 1.099 . S
C1436 C259 1.046 . S
C1461 C299 1.046 . S
C1466 C246 1.099 . S
C1491 C179 1.046 . S
C1496 C286 1.099 . S
C1521 C335 1.099 . S
C1526 C450 1.046 . S
C1551 C375 1.099 . S
C1556 C330 1.046 . S
C1581 C415 1.099 . S
C1586 C370 1.046 . S
C1611 C455 1.099 . S
C1616 C410 1.046 . S
C1641 C495 1.099 . S
C1646 C530 1.046 . S
C1671 C535 1.099 . S
C1676 C570 1.046 . S
C1701 C610 1.046 . S
C1706 C575 1.099 . S
C1731 C490 1.046 . S
C1736 C615 1.099 . S
C1761 C646 1.099 . S
C1766 C779 1.046 . S
C1791 C659 1.046 . S
C1796 C686 1.099 . S
C1821 C699 1.046 . S
C1826 C726 1.099 . S
C1851 C766 1.099 . S
C1856 C739 1.046 . S
C1881 C806 1.099 . S
C1886 C859 1.046 . S
C1911 C899 1.046 . S
C1916 C846 1.099 . S
C1941 C886 1.099 . S
C1946 C939 1.046 . S
C1971 C819 1.046 . S
C1976 C926 1.099 . S
C2001 C1090 1.046 . S
C2006 C975 1.099 . S
C2031 C970 1.046 . S
C2036 C1015 1.099 . S
C2061 C1055 1.099 . S
C2066 C1010 1.046 . S
C2091 C1050 1.046 . S
C2096 C1095 1.099 . S
C2121 C1170 1.046 . S
C2126 C1135 1.099 . S
C2151 C1210 1.046 . S
C2156 C1175 1.099 . S
C2181 C1250 1.046 . S
C2186 C1215 1.099 . S
C2211 C1255 1.099 . S
C2216 C1130 1.046 . S
C2241 C1086 1.566 . S
C2246 C9 1.517 . S
C2271 C49 1.516 . S
C2276 C326 1.565 . S
C2301 C89 1.517 . S
C2306 C1006 1.566 . S
C2331 C129 1.516 . S
C2336 C406 1.565 . S
C2361 C169 1.517 . S
C2366 C1166 1.566 . S
C2391 C566 1.565 . S
C2396 C209 1.516 . S
C2421 C1246 1.566 . S
C2426 C249 1.517 . S
C2451 C289 1.516 . S
C2456 C486 1.565 . S
C2481 C338 1.517 . S
C2486 C775 1.566 . S
C2511 C15 1.565 . S
C2516 C378 1.516 . S
C2541 C695 1.566 . S
C2546 C418 1.517 . S
C2571 C95 1.565 . S
C2576 C458 1.516 . S
C2601 C855 1.566 . S
C2606 C498 1.517 . S
C2631 C255 1.565 . S
C2636 C538 1.516 . S
C2661 C578 1.517 . S
C2666 C935 1.566 . S
C2691 C618 1.516 . S
C2696 C175 1.565 . S
C2721 C649 1.517 . S
C2726 C446 1.566 . S
C2751 C689 1.516 . S
C2756 C966 1.565 . S
C2781 C729 1.517 . S
C2786 C366 1.566 . S
C2811 C769 1.516 . S
C2816 C1046 1.565 . S
C2841 C809 1.517 . S
C2846 C526 1.566 . S
C2871 C849 1.516 . S
C2876 C1206 1.565 . S
C2901 C606 1.566 . S
C2906 C889 1.517 . S
C2931 C929 1.516 . S
C2936 C1126 1.565 . S
C2961 C135 1.566 . S
C2966 C978 1.517 . S
C2991 C655 1.565 . S
C2996 C1018 1.516 . S
C3021 C55 1.566 . S
C3026 C1058 1.517 . S
C3051 C735 1.565 . S
C3056 C1098 1.516 . S
C3081 C215 1.566 . S
C3086 C1138 1.517 . S
C3111 C1178 1.516 . S
C3116 C895 1.565 . S
C3141 C1218 1.517 . S
C3146 C295 1.566 . S
C3171 C815 1.565 . S
C3176 C1258 1.516 . S
C3201 C18 0.368 . S
C3206 C178 0.368 . S
C3231 C58 0.368 . S
C3236 C218 0.368 . S
C3261 C98 0.368 . S
C3266 C258 0.368 . S
C3291 C298 0.368 . S
C3296 C138 0.368 . S
C3321 C489 0.368 . S
C3326 C329 0.368 . S
C3351 C529 0.368 . S
C3356 C369 0.368 . S
C3381 C409 0.368 . S
C3386 C569 0.368 . S
C3411 C449 0.368 . S
C3416 C609 0.368 . S
C3441 C658 0.368 . S
C3446 C818 0.368 . S
C3471 C858 0.368 . S
C3476 C698 0.368 . S
C3501 C898 0.368 . S
C3506 C738 0.368 . S
C3531 C938 0.368 . S
C3536 C778 0.368 . S
C3561 C1129 0.368 . S
C3566 C969 0.368 . S
C3591 C1009 0.368 . S
C3596 C1169 0.368 . S
C3621 C1209 0.368 . S
C3626 C1049 0.368 . S
C3651 C1089 0.368 . S
C3656 C1249 0.368 . S
C3681 C290 2.786 . S
C3686 C10 2.786 . S
C3711 C50 2.786 . S
C3716 C170 2.786 . S
C3741 C90 2.786 . S
C3746 C210 2.786 . S
C3771 C250 2.786 . S
C3776 C130 2.786 . S
C3801 C339 2.786 . S
C3806 C619 2.786 . S
C3831 C499 2.786 . S
C3836 C379 2.786 . S
C3861 C539 2.786 . S
C3866 C419 2.786 . S
C3891 C459 2.786 . S
C3896 C579 2.786 . S
C3921 C650 2.786 . S
C3926 C930 2.786 . S
C3951 C810 2.786 . S
C3956 C690 2.786 . S
C3981 C850 2.786 . S
C3986 C730 2.786 . S
C4011 C890 2.786 . S
C4016 C770 2.786 . S
C4041 C979 2.786 . S
C4046 C1259 2.786 . S
C4071 C1139 2.786 . S
C4076 C1019 2.786 . S
C4101 C1059 2.786 . S
C4106 C1179 2.786 . S
C4131 C1219 2.786 . S
C4136 C1099 2.786 . S
