# Generated by pormake.
# Topology crb, (4)-cn, num edge types: 1
# Building blocks:
#     Node 0, Type 0, BuildingBlock: UXUYUI_clean_sbu_0, # of connection points: 4
#     Node 1, Type 0, BuildingBlock: UXUYUI_clean_sbu_0, # of connection points: 4
#     Node 2, Type 0, BuildingBlock: UXUYUI_clean_sbu_0, # of connection points: 4
#     Node 3, Type 0, BuildingBlock: UXUYUI_clean_sbu_0, # of connection points: 4
#     Node 4, Type 0, BuildingBlock: UXUYUI_clean_sbu_0, # of connection points: 4
#     Node 5, Type 0, BuildingBlock: UXUYUI_clean_sbu_0, # of connection points: 4
#     Node 6, Type 0, BuildingBlock: UXUYUI_clean_sbu_0, # of connection points: 4
#     Node 7, Type 0, BuildingBlock: UXUYUI_clean_sbu_0, # of connection points: 4
#     Edge 8, Type (0, 0), BuildingBlock: CIFDUS_clean_linker_0, # of connection points: 2
#     Edge 9, Type (0, 0), BuildingBlock: CIFDUS_clean_linker_0, # of connection points: 2
#     Edge 10, Type (0, 0), BuildingBlock: CIFDUS_clean_linker_0, # of connection points: 2
#     Edge 11, Type (0, 0), BuildingBlock: CIFDUS_clean_linker_0, # of connection points: 2
#     Edge 12, Type (0, 0), BuildingBlock: CIFDUS_clean_linker_0, # of connection points: 2
#     Edge 13, Type (0, 0), BuildingBlock: CIFDUS_clean_linker_0, # of connection points: 2
#     Edge 14, Type (0, 0), BuildingBlock: CIFDUS_clean_linker_0, # of connection points: 2
#     Edge 15, Type (0, 0), BuildingBlock: CIFDUS_clean_linker_0, # of connection points: 2
#     Edge 16, Type (0, 0), BuildingBlock: CIFDUS_clean_linker_0, # of connection points: 2
#     Edge 17, Type (0, 0), BuildingBlock: CIFDUS_clean_linker_0, # of connection points: 2
#     Edge 18, Type (0, 0), BuildingBlock: CIFDUS_clean_linker_0, # of connection points: 2
#     Edge 19, Type (0, 0), BuildingBlock: CIFDUS_clean_linker_0, # of connection points: 2
#     Edge 20, Type (0, 0), BuildingBlock: CIFDUS_clean_linker_0, # of connection points: 2
#     Edge 21, Type (0, 0), BuildingBlock: CIFDUS_clean_linker_0, # of connection points: 2
#     Edge 22, Type (0, 0), BuildingBlock: CIFDUS_clean_linker_0, # of connection points: 2
#     Edge 23, Type (0, 0), BuildingBlock: CIFDUS_clean_linker_0, # of connection points: 2
# Relax obj value: 0.060
# Max RMSD: 0.078
# Mean RMSD: 0.078
data_MOF--net-crb--node1-UXUYUI_clean_sbu_0--edge1-CIFDUS_clean_linker_0
_symmetry_space_group_name_H-M    P1
_symmetry_Int_Tables_number       1
_symmetry_cell_setting            triclinic
loop_
_symmetry_equiv_pos_as_xyz
'x, y, z'
_cell_length_a     56.71605
_cell_length_b     56.663422
_cell_length_c     33.792505
_cell_angle_alpha  90.093857
_cell_angle_beta   89.944189
_cell_angle_gamma 90.110076
loop_
_atom_site_label
_atom_site_type_symbol
_atom_site_fract_x
_atom_site_fract_y
_atom_site_fract_z
_atom_type_partial_charge
Li0 Li 0.32028 0.31776 0.04009 0.0
Li1 Li 0.35664 0.32318 1.00129 0.0
Li2 Li 0.32522 0.35487 1.00444 0.0
Li3 Li 0.31906 0.31858 0.96535 0.0
C4 C 0.34915 0.34329 0.08708 0.0
N5 N 0.35646 0.34577 0.16779 0.0
C6 C 0.36804 0.33129 0.10427 0.0
C7 C 0.3342 0.35684 0.11083 0.0
C8 C 0.37138 0.33269 0.14516 0.0
C9 C 0.33812 0.35779 0.1516 0.0
C10 C 0.34792 0.27565 0.99448 0.0
C11 C 0.37261 0.25222 0.9516 0.0
N12 N 0.37465 0.23574 0.9806 0.0
C13 C 0.35005 0.25836 0.0237 0.0
C14 C 0.3591 0.27246 0.958 0.0
C15 C 0.36371 0.23835 0.01618 0.0
C16 C 0.28435 0.30507 0.09494 0.0
N17 N 0.30777 0.30335 0.0868 0.0
C18 C 0.3139 0.28026 0.14508 0.0
C19 C 0.32254 0.29122 0.11102 0.0
C20 C 0.28981 0.28179 0.15437 0.0
C21 C 0.27497 0.29448 0.12883 0.0
H22 H 0.27288 0.31445 0.07493 0.0
H23 H 0.34105 0.28993 0.10377 0.0
C24 C 0.40237 0.3354 0.97916 0.0
N25 N 0.38993 0.31859 0.99881 0.0
C26 C 0.42684 0.33379 0.976 0.0
C27 C 0.4254 0.29764 0.01375 0.0
C28 C 0.40092 0.30005 0.0164 0.0
C29 C 0.43874 0.31466 0.99329 0.0
H30 H 0.39326 0.35024 0.96618 0.0
H31 H 0.39077 0.28722 0.03277 0.0
C32 C 0.27809 0.34833 1.00583 0.0
N33 N 0.23999 0.37861 0.0088 0.0
C34 C 0.26357 0.35106 0.97277 0.0
C35 C 0.27307 0.36079 0.04055 0.0
C36 C 0.24443 0.3665 0.97483 0.0
C37 C 0.25378 0.37608 0.04142 0.0
C38 C 0.34699 0.3479 0.91909 0.0
C39 C 0.33521 0.36672 0.90123 0.0
C40 C 0.36249 0.33415 0.89667 0.0
C41 C 0.33867 0.3711 0.86097 0.0
C42 C 0.36549 0.33909 0.85649 0.0
N43 N 0.35359 0.35728 0.8396 0.0
C44 C 0.33813 0.39994 0.02924 0.0
C45 C 0.30549 0.40073 0.98561 0.0
C46 C 0.33858 0.42454 0.03092 0.0
N47 N 0.32184 0.38853 1.00674 0.0
C48 C 0.30527 0.42543 0.98647 0.0
C49 C 0.3222 0.43766 0.00896 0.0
H50 H 0.35116 0.38992 0.04534 0.0
H51 H 0.29304 0.39139 0.96716 0.0
C52 C 0.30454 0.281 0.91588 0.0
N53 N 0.30533 0.30493 0.91866 0.0
C54 C 0.29636 0.2701 0.88143 0.0
C55 C 0.28862 0.30863 0.85393 0.0
C56 C 0.29715 0.31879 0.88884 0.0
C57 C 0.28851 0.28396 0.84969 0.0
H58 H 0.31038 0.27028 0.94035 0.0
H59 H 0.29732 0.33774 0.89202 0.0
O60 O 0.3455 0.34199 0.04713 0.0
O61 O 0.33485 0.29551 1.00149 0.0
O62 O 0.29694 0.33334 1.00433 0.0
O63 O 0.34374 0.34332 0.95849 0.0
H64 H 0.37985 0.32083 0.08629 0.0
H65 H 0.31977 0.36659 0.09792 0.0
H66 H 0.38582 0.32334 0.15891 0.0
H67 H 0.32662 0.36813 0.17037 0.0
H68 H 0.38143 0.2496 0.92354 0.0
H69 H 0.34124 0.26031 0.05187 0.0
H70 H 0.35725 0.28541 0.93483 0.0
H71 H 0.3656 0.22489 0.0386 0.0
H72 H 0.32601 0.27083 0.16411 0.0
H73 H 0.25623 0.29582 0.13457 0.0
H74 H 0.43635 0.34766 0.96078 0.0
H75 H 0.43373 0.28253 0.0274 0.0
H76 H 0.26702 0.34136 0.94583 0.0
H77 H 0.28394 0.35868 0.06652 0.0
H78 H 0.2331 0.36885 0.94941 0.0
H79 H 0.24977 0.38592 0.06804 0.0
H80 H 0.32328 0.37764 0.91812 0.0
H81 H 0.37228 0.31995 0.91015 0.0
H82 H 0.32948 0.38547 0.84671 0.0
H83 H 0.37735 0.32851 0.83877 0.0
H84 H 0.35177 0.43319 0.04903 0.0
H85 H 0.29252 0.43483 0.96866 0.0
H86 H 0.29608 0.25102 0.87972 0.0
H87 H 0.28267 0.31997 0.8302 0.0
Li88 Li 0.68955 0.34957 1.00732 0.0
Li89 Li 0.69751 0.31495 0.0465 0.0
Li90 Li 0.69604 0.31295 0.97114 0.0
Li91 Li 0.66054 0.31965 0.01203 0.0
C92 C 0.73853 0.34073 0.99213 0.0
N93 N 0.77906 0.36176 0.96331 0.0
C94 C 0.75676 0.34698 0.01795 0.0
C95 C 0.74103 0.34499 0.9516 0.0
C96 C 0.77706 0.35767 1.00282 0.0
C97 C 0.76163 0.35567 0.93762 0.0
C98 C 0.6795 0.35234 0.08788 0.0
C99 C 0.67027 0.37229 0.14909 0.0
N100 N 0.69314 0.37933 0.15218 0.0
C101 C 0.70289 0.35983 0.09166 0.0
C102 C 0.66304 0.35866 0.1168 0.0
C103 C 0.70944 0.37344 0.12436 0.0
C104 C 0.67302 0.39502 0.02076 0.0
N105 N 0.69209 0.38357 1.00569 0.0
C106 C 0.71022 0.42047 0.98918 0.0
C107 C 0.71059 0.3958 0.99019 0.0
C108 C 0.69057 0.43267 1.00405 0.0
C109 C 0.67187 0.41959 0.02021 0.0
H110 H 0.65846 0.385 0.03278 0.0
H111 H 0.72554 0.38663 0.97813 0.0
C112 C 0.73569 0.29699 0.0908 0.0
N113 N 0.71242 0.30256 0.09219 0.0
C114 C 0.74705 0.28837 0.12446 0.0
C115 C 0.71019 0.2912 0.16015 0.0
C116 C 0.69957 0.29978 0.12583 0.0
C117 C 0.73428 0.28541 0.1598 0.0
H118 H 0.74542 0.29927 0.06352 0.0
H119 H 0.68108 0.30443 0.12605 0.0
C120 C 0.66254 0.35547 0.94446 0.0
N121 N 0.6474 0.39631 0.90799 0.0
C122 C 0.64128 0.36592 0.95585 0.0
C123 C 0.67595 0.3656 0.9142 0.0
C124 C 0.63396 0.38661 0.93711 0.0
C125 C 0.66803 0.38631 0.89622 0.0
C126 C 0.66547 0.27389 0.01301 0.0
C127 C 0.65837 0.2626 0.97822 0.0
C128 C 0.65509 0.2677 0.04905 0.0
C129 C 0.64078 0.24533 0.98003 0.0
C130 C 0.63753 0.25037 0.04961 0.0
N131 N 0.63079 0.23965 0.01538 0.0
C132 C 0.72973 0.28784 0.92544 0.0
C133 C 0.69415 0.29726 0.89227 0.0
C134 C 0.73861 0.27701 0.89137 0.0
N135 N 0.70793 0.29778 0.92512 0.0
C136 C 0.70221 0.28639 0.8577 0.0
C137 C 0.72476 0.27616 0.85692 0.0
H138 H 0.74025 0.28849 0.9521 0.0
H139 H 0.67688 0.30532 0.89296 0.0
C140 C 0.61597 0.31712 0.04894 0.0
N141 N 0.62764 0.31336 0.01441 0.0
C142 C 0.59156 0.31415 0.05086 0.0
C143 C 0.59177 0.30271 0.9819 0.0
C144 C 0.61616 0.30616 0.98124 0.0
C145 C 0.57903 0.30706 0.01692 0.0
H146 H 0.6256 0.32282 0.07483 0.0
H147 H 0.62595 0.30335 0.95415 0.0
O148 O 0.71873 0.32981 1.0064 0.0
O149 O 0.6726 0.33893 0.05615 0.0
O150 O 0.67031 0.33558 0.96318 0.0
O151 O 0.68218 0.29128 0.0117 0.0
H152 H 0.7553 0.34356 0.04936 0.0
H153 H 0.72714 0.34037 0.93117 0.0
H154 H 0.79127 0.36266 0.02249 0.0
H155 H 0.76373 0.35916 0.90635 0.0
H156 H 0.6577 0.37728 0.17169 0.0
H157 H 0.71584 0.35526 0.06962 0.0
H158 H 0.64483 0.35312 0.11435 0.0
H159 H 0.72749 0.37932 0.1276 0.0
H160 H 0.72493 0.42986 0.9761 0.0
H161 H 0.65649 0.42825 0.03245 0.0
H162 H 0.76557 0.28385 0.12271 0.0
H163 H 0.69974 0.28948 0.18683 0.0
H164 H 0.63073 0.35837 0.97933 0.0
H165 H 0.69234 0.35764 0.90482 0.0
H166 H 0.61765 0.39501 0.94586 0.0
H167 H 0.67831 0.39443 0.87294 0.0
H168 H 0.66621 0.26727 0.95008 0.0
H169 H 0.66032 0.27639 0.07619 0.0
H170 H 0.63501 0.23651 0.95332 0.0
H171 H 0.62921 0.2455 0.07724 0.0
H172 H 0.75599 0.26914 0.89209 0.0
H173 H 0.69108 0.28632 0.83167 0.0
H174 H 0.58256 0.31805 0.07836 0.0
H175 H 0.583 0.29684 0.95519 0.0
Li176 Li 0.65879 0.68575 1.00554 0.0
Li177 Li 0.69465 0.69374 0.04459 0.0
Li178 Li 0.69544 0.69173 0.9705 0.0
Li179 Li 0.69131 0.6554 0.00926 0.0
C180 C 0.66266 0.73246 1.0077 0.0
N181 N 0.62926 0.76776 0.01288 0.0
C182 C 0.65954 0.74479 0.04317 0.0
C183 C 0.64897 0.73823 0.97476 0.0
C184 C 0.64253 0.76255 0.04521 0.0
C185 C 0.63212 0.75608 0.97801 0.0
C186 C 0.66701 0.66079 0.09 0.0
C187 C 0.67788 0.63718 0.14646 0.0
N188 N 0.65873 0.64542 0.16638 0.0
C189 C 0.64727 0.66876 0.11086 0.0
C190 C 0.6823 0.64465 0.10778 0.0
C191 C 0.64346 0.66089 0.14951 0.0
C192 C 0.61384 0.67495 0.9762 0.0
N193 N 0.62512 0.68835 1.00372 0.0
C194 C 0.58817 0.70147 0.02996 0.0
C195 C 0.61283 0.7016 0.03023 0.0
C196 C 0.57605 0.68739 1.00235 0.0
C197 C 0.58926 0.67426 0.97489 0.0
H198 H 0.62394 0.66433 0.95573 0.0
H199 H 0.62213 0.71182 0.05229 0.0
C200 C 0.73 0.71838 0.08569 0.0
N201 N 0.70793 0.70929 0.0898 0.0
C202 C 0.74109 0.72955 0.11752 0.0
C203 C 0.70635 0.72234 0.15712 0.0
C204 C 0.69592 0.71131 0.12449 0.0
C205 C 0.7293 0.73155 0.15396 0.0
H206 H 0.73909 0.71678 0.05766 0.0
H207 H 0.67817 0.70463 0.12682 0.0
C208 C 0.67296 0.66233 0.92306 0.0
N209 N 0.67522 0.65627 0.84202 0.0
C210 C 0.68545 0.64334 0.90702 0.0
C211 C 0.66139 0.67807 0.89794 0.0
C212 C 0.68643 0.64061 0.86596 0.0
C213 C 0.66282 0.67476 0.85703 0.0
C214 C 0.73873 0.66822 0.02202 0.0
C215 C 0.75757 0.66496 0.99589 0.0
C216 C 0.74119 0.6617 0.06166 0.0
C217 C 0.77842 0.65481 0.00973 0.0
C218 C 0.76232 0.65164 0.07438 0.0
N219 N 0.78034 0.64839 0.04836 0.0
C220 C 0.70593 0.72688 0.91286 0.0
C221 C 0.72438 0.68988 0.90267 0.0
C222 C 0.7167 0.736 0.87892 0.0
N223 N 0.70992 0.70419 0.92397 0.0
C224 C 0.73545 0.69822 0.86853 0.0
C225 C 0.73177 0.72162 0.85628 0.0
H226 H 0.69455 0.73796 0.93053 0.0
H227 H 0.72724 0.67191 0.91216 0.0
C228 C 0.67907 0.60878 0.02548 0.0
N229 N 0.69694 0.62229 0.01116 0.0
C230 C 0.68112 0.58426 0.02635 0.0
C231 C 0.71991 0.58789 0.99732 0.0
C232 C 0.71711 0.6124 0.99707 0.0
C233 C 0.70169 0.57346 0.01189 0.0
H234 H 0.66309 0.6171 0.03599 0.0
H235 H 0.73079 0.62344 0.98474 0.0
O236 O 0.67914 0.71493 1.0052 0.0
O237 O 0.67089 0.66822 0.05199 0.0
O238 O 0.67216 0.66554 0.96316 0.0
O239 O 0.71816 0.67806 0.00885 0.0
H240 H 0.67006 0.74063 0.06889 0.0
H241 H 0.65123 0.72893 0.94705 0.0
H242 H 0.63985 0.77217 0.07252 0.0
H243 H 0.6213 0.76063 0.95282 0.0
H244 H 0.68961 0.62475 0.16057 0.0
H245 H 0.63512 0.68105 0.09754 0.0
H246 H 0.69726 0.6377 0.0918 0.0
H247 H 0.62835 0.66708 0.16608 0.0
H248 H 0.57872 0.71165 0.05199 0.0
H249 H 0.58068 0.66337 0.95279 0.0
H250 H 0.75886 0.73623 0.11378 0.0
H251 H 0.6964 0.72391 0.18437 0.0
H252 H 0.69446 0.63097 0.92605 0.0
H253 H 0.65154 0.69276 0.9099 0.0
H254 H 0.69615 0.62608 0.85311 0.0
H255 H 0.65409 0.6869 0.83722 0.0
H256 H 0.75611 0.67013 0.96521 0.0
H257 H 0.72708 0.66465 0.08251 0.0
H258 H 0.79309 0.65206 0.98977 0.0
H259 H 0.76443 0.6465 0.10499 0.0
H260 H 0.7136 0.75423 0.87093 0.0
H261 H 0.74664 0.68639 0.85176 0.0
H262 H 0.66672 0.57387 0.03826 0.0
H263 H 0.7359 0.58031 0.98528 0.0
Li264 Li 0.31945 0.66118 0.0092 0.0
Li265 Li 0.31552 0.69733 0.0433 0.0
Li266 Li 0.31527 0.69716 0.97017 0.0
Li267 Li 0.35314 0.68902 0.01111 0.0
C268 C 0.27166 0.67149 1.00012 0.0
N269 N 0.22972 0.648 0.98642 0.0
C270 C 0.25869 0.66235 0.03177 0.0
C271 C 0.26311 0.66902 0.96153 0.0
C272 C 0.23759 0.65041 0.02421 0.0
C273 C 0.24191 0.65701 0.95521 0.0
C274 C 0.33606 0.66533 0.09338 0.0
C275 C 0.35147 0.66315 0.15973 0.0
N276 N 0.33113 0.65262 0.17182 0.0
C277 C 0.31539 0.65435 0.10636 0.0
C278 C 0.35433 0.66965 0.12015 0.0
C279 C 0.3132 0.64811 0.14617 0.0
C280 C 0.32892 0.61448 0.03189 0.0
N281 N 0.31359 0.62753 0.0101 0.0
C282 C 0.29381 0.5924 0.98856 0.0
C283 C 0.29631 0.61695 0.98845 0.0
C284 C 0.30941 0.57851 0.01081 0.0
C285 C 0.3271 0.58991 0.0328 0.0
H286 H 0.34291 0.62313 0.04806 0.0
H287 H 0.28492 0.62736 0.96999 0.0
C288 C 0.27834 0.71698 0.08856 0.0
N289 N 0.30183 0.71233 0.08898 0.0
C290 C 0.26735 0.72685 0.12171 0.0
C291 C 0.305 0.72731 0.15504 0.0
C292 C 0.31528 0.71769 0.12107 0.0
C293 C 0.28062 0.73185 0.15591 0.0
H294 H 0.26808 0.71292 0.06246 0.0
H295 H 0.33401 0.7143 0.12049 0.0
C296 C 0.34325 0.651 0.94534 0.0
N297 N 0.34943 0.60742 0.91015 0.0
C298 C 0.36271 0.63712 0.95521 0.0
C299 C 0.32699 0.64279 0.91745 0.0
C300 C 0.3655 0.6151 0.93713 0.0
C301 C 0.33043 0.6207 0.89999 0.0
C302 C 0.33339 0.7388 0.02808 0.0
C303 C 0.31406 0.75395 0.0251 0.0
C304 C 0.35174 0.74422 0.05415 0.0
C305 C 0.31335 0.77428 0.04852 0.0
C306 C 0.35038 0.76474 0.07701 0.0
N307 N 0.33137 0.7792 0.07378 0.0
C308 C 0.28594 0.7266 0.92285 0.0
C309 C 0.3148 0.70481 0.88777 0.0
C310 C 0.27775 0.73658 0.8876 0.0
N311 N 0.30417 0.71106 0.92226 0.0
C312 C 0.30697 0.71406 0.85183 0.0
C313 C 0.28822 0.73028 0.85127 0.0
H314 H 0.27772 0.7312 0.95069 0.0
H315 H 0.32933 0.6925 0.88812 0.0
C316 C 0.39967 0.67627 0.03143 0.0
N317 N 0.38642 0.6925 0.01205 0.0
C318 C 0.42423 0.67826 0.03185 0.0
C319 C 0.42098 0.71376 0.99266 0.0
C320 C 0.39648 0.71103 0.99288 0.0
C321 C 0.43522 0.69717 0.01219 0.0
H322 H 0.39115 0.66169 0.04636 0.0
H323 H 0.38545 0.72362 0.9776 0.0
O324 O 0.29217 0.68355 1.00698 0.0
O325 O 0.33846 0.67178 0.05461 0.0
O326 O 0.3398 0.67223 0.96373 0.0
O327 O 0.33411 0.71848 1.00627 0.0
H328 H 0.26475 0.66457 0.06188 0.0
H329 H 0.27286 0.676 0.93665 0.0
H330 H 0.22742 0.64316 0.04842 0.0
H331 H 0.23518 0.6548 0.92549 0.0
H332 H 0.3654 0.66651 0.18085 0.0
H333 H 0.30123 0.65067 0.08589 0.0
H334 H 0.37045 0.67816 0.11052 0.0
H335 H 0.29726 0.63967 0.15666 0.0
H336 H 0.28024 0.58435 0.97048 0.0
H337 H 0.33945 0.57995 0.05056 0.0
H338 H 0.24865 0.73052 0.12045 0.0
H339 H 0.31601 0.73063 0.1806 0.0
H340 H 0.37535 0.64315 0.97694 0.0
H341 H 0.31166 0.65319 0.90989 0.0
H342 H 0.38039 0.6041 0.94466 0.0
H343 H 0.3179 0.61404 0.87857 0.0
H344 H 0.29965 0.7499 1.00528 0.0
H345 H 0.36671 0.73255 0.05709 0.0
H346 H 0.29843 0.78609 0.04671 0.0
H347 H 0.36439 0.76911 0.09746 0.0
H348 H 0.26353 0.74926 0.88898 0.0
H349 H 0.3154 0.70827 0.82477 0.0
H350 H 0.43449 0.66522 0.04765 0.0
H351 H 0.4287 0.72845 0.97675 0.0
Li352 Li 0.81633 0.81433 0.54529 0.0
Li353 Li 0.85333 0.81966 0.50795 0.0
Li354 Li 0.8221 0.85126 0.50715 0.0
Li355 Li 0.81741 0.81409 0.47047 0.0
C356 C 0.84203 0.8474 0.59045 0.0
N357 N 0.84415 0.86432 0.66715 0.0
C358 C 0.86162 0.84255 0.61414 0.0
C359 C 0.82372 0.8612 0.6056 0.0
C360 C 0.86231 0.85116 0.65289 0.0
C361 C 0.82506 0.8695 0.64447 0.0
C362 C 0.84753 0.77336 0.51282 0.0
C363 C 0.87693 0.74727 0.48557 0.0
N364 N 0.87961 0.73713 0.52174 0.0
C365 C 0.85042 0.76255 0.54963 0.0
C366 C 0.86073 0.76554 0.48043 0.0
C367 C 0.86678 0.7443 0.55357 0.0
C368 C 0.77901 0.79345 0.5879 0.0
N369 N 0.80174 0.80086 0.5911 0.0
C370 C 0.80269 0.78949 0.65922 0.0
C371 C 0.81377 0.79872 0.6257 0.0
C372 C 0.77904 0.78214 0.65707 0.0
C373 C 0.76724 0.78409 0.62066 0.0
H374 H 0.76996 0.79495 0.55985 0.0
H375 H 0.83201 0.80408 0.62733 0.0
C376 C 0.90019 0.82347 0.47964 0.0
N377 N 0.8867 0.81472 0.5095 0.0
C378 C 0.92474 0.82166 0.48114 0.0
C379 C 0.9211 0.80171 0.54399 0.0
C380 C 0.89662 0.80382 0.54118 0.0
C381 C 0.93553 0.81094 0.5139 0.0
H382 H 0.89195 0.83243 0.4551 0.0
H383 H 0.88555 0.79716 0.5647 0.0
C384 C 0.7736 0.8414 0.51145 0.0
N385 N 0.73139 0.86512 0.52076 0.0
C386 C 0.75951 0.84634 0.47858 0.0
C387 C 0.76594 0.8481 0.54914 0.0
C388 C 0.73832 0.85847 0.48386 0.0
C389 C 0.74463 0.86018 0.55322 0.0
C390 C 0.84323 0.84131 0.42273 0.0
C391 C 0.83398 0.86127 0.40414 0.0
C392 C 0.8538 0.82364 0.39996 0.0
C393 C 0.83512 0.86302 0.36295 0.0
C394 C 0.85457 0.82602 0.35884 0.0
N395 N 0.84527 0.84549 0.34133 0.0
C396 C 0.83235 0.89795 0.52914 0.0
C397 C 0.80009 0.89495 0.48502 0.0
C398 C 0.83014 0.92245 0.53035 0.0
N399 N 0.81725 0.88469 0.50714 0.0
C400 C 0.79744 0.91948 0.48488 0.0
C401 C 0.81261 0.93364 0.50779 0.0
H402 H 0.84627 0.88951 0.54566 0.0
H403 H 0.78882 0.88417 0.46665 0.0
C404 C 0.80426 0.77592 0.42126 0.0
N405 N 0.8038 0.79984 0.42439 0.0
C406 C 0.79413 0.76468 0.38859 0.0
C407 C 0.78322 0.80288 0.36283 0.0
C408 C 0.79354 0.81337 0.39603 0.0
C409 C 0.78332 0.77818 0.35885 0.0
H410 H 0.81238 0.76553 0.4443 0.0
H411 H 0.79321 0.83233 0.39926 0.0
O412 O 0.84102 0.83896 0.55248 0.0
O413 O 0.83182 0.79146 0.50851 0.0
O414 O 0.79441 0.82946 0.50677 0.0
O415 O 0.84203 0.83916 0.46301 0.0
H416 H 0.87612 0.83219 0.60285 0.0
H417 H 0.80882 0.86578 0.58736 0.0
H418 H 0.87729 0.84741 0.67162 0.0
H419 H 0.81097 0.88017 0.65654 0.0
H420 H 0.88737 0.74114 0.4608 0.0
H421 H 0.84027 0.76827 0.57495 0.0
H422 H 0.85854 0.77354 0.45166 0.0
H423 H 0.8693 0.73587 0.58194 0.0
H424 H 0.81248 0.78844 0.68665 0.0
H425 H 0.74916 0.77824 0.61738 0.0
H426 H 0.93518 0.82934 0.45758 0.0
H427 H 0.92867 0.79314 0.56962 0.0
H428 H 0.76494 0.84104 0.44926 0.0
H429 H 0.77614 0.8438 0.57509 0.0
H430 H 0.72736 0.86258 0.45861 0.0
H431 H 0.73856 0.86553 0.58224 0.0
H432 H 0.82593 0.8752 0.42129 0.0
H433 H 0.86121 0.80819 0.41387 0.0
H434 H 0.82792 0.87831 0.34816 0.0
H435 H 0.86255 0.8124 0.34085 0.0
H436 H 0.84209 0.93246 0.5489 0.0
H437 H 0.78402 0.92725 0.46627 0.0
H438 H 0.79486 0.74562 0.38658 0.0
H439 H 0.77483 0.81398 0.34094 0.0
Li440 Li 0.18712 0.85563 0.50881 0.0
Li441 Li 0.19391 0.8205 0.54634 0.0
Li442 Li 0.1978 0.82161 0.47032 0.0
Li443 Li 0.15808 0.82544 0.50482 0.0
C444 C 0.23403 0.85275 0.52337 0.0
N445 N 0.26818 0.88472 0.54638 0.0
C446 C 0.23283 0.86339 0.56065 0.0
C447 C 0.25266 0.85822 0.49787 0.0
C448 C 0.25024 0.87956 0.5717 0.0
C449 C 0.26975 0.87447 0.51005 0.0
C450 C 0.15394 0.83667 0.58443 0.0
C451 C 0.1328 0.80649 0.62023 0.0
N452 N 0.12667 0.82269 0.64811 0.0
C453 C 0.14739 0.85303 0.61342 0.0
C454 C 0.14656 0.81321 0.58785 0.0
C455 C 0.13362 0.84561 0.64539 0.0
C456 C 0.1746 0.90123 0.53336 0.0
N457 N 0.19047 0.88941 0.51068 0.0
C458 C 0.2091 0.92571 0.49227 0.0
C459 C 0.20739 0.90113 0.48992 0.0
C460 C 0.19311 0.93839 0.51594 0.0
C461 C 0.17558 0.92577 0.5364 0.0
H462 H 0.16096 0.89157 0.54877 0.0
H463 H 0.21949 0.89143 0.47134 0.0
C464 C 0.21929 0.78642 0.59121 0.0
N465 N 0.20669 0.80678 0.59354 0.0
C466 C 0.22818 0.7759 0.62557 0.0
C467 C 0.21104 0.80754 0.66395 0.0
C468 C 0.20292 0.81765 0.62891 0.0
C469 C 0.22374 0.78635 0.66254 0.0
H470 H 0.22227 0.77825 0.56269 0.0
H471 H 0.19357 0.83421 0.63006 0.0
C472 C 0.16833 0.864 0.43995 0.0
N473 N 0.16283 0.90657 0.40141 0.0
C474 C 0.14864 0.87806 0.44772 0.0
C475 C 0.18513 0.87147 0.41239 0.0
C476 C 0.14622 0.89957 0.428 0.0
C477 C 0.18204 0.89307 0.39323 0.0
C478 C 0.17459 0.77563 0.49884 0.0
C479 C 0.17082 0.76781 0.46011 0.0
C480 C 0.1723 0.75973 0.53024 0.0
C481 C 0.16451 0.7443 0.45345 0.0
C482 C 0.16597 0.73636 0.52236 0.0
N483 N 0.16223 0.72919 0.48445 0.0
C484 C 0.23645 0.80199 0.4275 0.0
C485 C 0.20172 0.80857 0.39019 0.0
C486 C 0.24804 0.79329 0.39394 0.0
N487 N 0.21371 0.80937 0.42499 0.0
C488 C 0.21251 0.79978 0.35607 0.0
C489 C 0.23599 0.792 0.35764 0.0
H490 H 0.24558 0.8029 0.45556 0.0
H491 H 0.1837 0.81475 0.38901 0.0
C492 C 0.11033 0.83559 0.51715 0.0
N493 N 0.12487 0.81924 0.50064 0.0
C494 C 0.0859 0.8327 0.51562 0.0
C495 C 0.09166 0.79648 0.47912 0.0
C496 C 0.11603 0.79999 0.48163 0.0
C497 C 0.07625 0.81294 0.49641 0.0
H498 H 0.11772 0.85101 0.5314 0.0
H499 H 0.12779 0.78741 0.46815 0.0
O500 O 0.21703 0.83709 0.51185 0.0
O501 O 0.16752 0.84374 0.55305 0.0
O502 O 0.17133 0.8432 0.45969 0.0
O503 O 0.18122 0.79849 0.50592 0.0
H504 H 0.21842 0.85943 0.58058 0.0
H505 H 0.25379 0.85012 0.46889 0.0
H506 H 0.24947 0.88805 0.60036 0.0
H507 H 0.28422 0.87896 0.49059 0.0
H508 H 0.12695 0.78839 0.62315 0.0
H509 H 0.153 0.87125 0.6114 0.0
H510 H 0.15121 0.80038 0.56563 0.0
H511 H 0.12848 0.85809 0.66807 0.0
H512 H 0.22297 0.93463 0.47607 0.0
H513 H 0.1625 0.93476 0.55422 0.0
H514 H 0.23795 0.75954 0.62339 0.0
H515 H 0.20763 0.81631 0.69188 0.0
H516 H 0.13553 0.87255 0.46909 0.0
H517 H 0.20055 0.86084 0.40627 0.0
H518 H 0.13116 0.91073 0.43392 0.0
H519 H 0.19497 0.89916 0.37201 0.0
H520 H 0.17238 0.77985 0.43551 0.0
H521 H 0.17542 0.76534 0.5604 0.0
H522 H 0.16139 0.73807 0.42362 0.0
H523 H 0.16409 0.7239 0.54638 0.0
H524 H 0.26611 0.78734 0.39646 0.0
H525 H 0.20269 0.79939 0.32861 0.0
H526 H 0.07468 0.84606 0.5287 0.0
H527 H 0.08495 0.78097 0.46408 0.0
Li528 Li 0.1957 0.19871 0.53837 0.0
Li529 Li 0.16018 0.19315 0.5051 0.0
Li530 Li 0.1897 0.16132 0.5043 0.0
Li531 Li 0.19522 0.20083 0.46564 0.0
C532 C 0.17289 0.17122 0.58937 0.0
N533 N 0.1754 0.16614 0.67058 0.0
C534 C 0.16199 0.18766 0.61423 0.0
C535 C 0.18489 0.15208 0.60581 0.0
C536 C 0.16353 0.18483 0.6552 0.0
C537 C 0.18598 0.14984 0.64694 0.0
C538 C 0.16369 0.23953 0.50216 0.0
C539 C 0.1419 0.26846 0.46488 0.0
N540 N 0.13002 0.27465 0.4983 0.0
C541 C 0.15139 0.2463 0.53619 0.0
C542 C 0.159 0.25076 0.46622 0.0
C543 C 0.13438 0.26403 0.53361 0.0
C544 C 0.20855 0.23695 0.58749 0.0
N545 N 0.21035 0.21312 0.58396 0.0
C546 C 0.23061 0.21093 0.64596 0.0
C547 C 0.22162 0.20012 0.61196 0.0
C548 C 0.22832 0.23545 0.65102 0.0
C549 C 0.21742 0.24851 0.62083 0.0
H550 H 0.20008 0.24705 0.56448 0.0
H551 H 0.22334 0.18129 0.60831 0.0
C552 C 0.11487 0.18704 0.53747 0.0
N553 N 0.12651 0.19752 0.50701 0.0
C554 C 0.09047 0.18922 0.54106 0.0
C555 C 0.09022 0.2126 0.48137 0.0
C556 C 0.11467 0.20997 0.47897 0.0
C557 C 0.0778 0.20221 0.51286 0.0
H558 H 0.12448 0.17672 0.55886 0.0
H559 H 0.12413 0.21779 0.45456 0.0
C560 C 0.2389 0.18577 0.51813 0.0
N561 N 0.28139 0.19284 0.55617 0.0
C562 C 0.25028 0.20761 0.5156 0.0
C563 C 0.24917 0.16746 0.53967 0.0
C564 C 0.27173 0.21086 0.53517 0.0
C565 C 0.27067 0.1714 0.55875 0.0
C566 C 0.15182 0.17055 0.43743 0.0
C567 C 0.13655 0.15258 0.44957 0.0
C568 C 0.14616 0.18424 0.40443 0.0
C569 C 0.11564 0.14876 0.42866 0.0
C570 C 0.12511 0.17983 0.38425 0.0
N571 N 0.1104 0.16236 0.39672 0.0
C572 C 0.17737 0.11436 0.51966 0.0
C573 C 0.21266 0.11845 0.48264 0.0
C574 C 0.1791 0.08981 0.51818 0.0
N575 N 0.19404 0.12809 0.50218 0.0
C576 C 0.215 0.09391 0.48016 0.0
C577 C 0.19806 0.07926 0.49812 0.0
H578 H 0.1626 0.12254 0.5346 0.0
H579 H 0.22557 0.12983 0.46878 0.0
C580 C 0.21628 0.23749 0.42197 0.0
N581 N 0.20859 0.21479 0.41972 0.0
C582 C 0.22561 0.24863 0.38861 0.0
C583 C 0.21961 0.2126 0.35151 0.0
C584 C 0.21021 0.2022 0.38556 0.0
C585 C 0.22729 0.2362 0.35271 0.0
H586 H 0.21493 0.247 0.44967 0.0
H587 H 0.20401 0.18414 0.38472 0.0
O588 O 0.17159 0.17372 0.54916 0.0
O589 O 0.18036 0.22215 0.50411 0.0
O590 O 0.2177 0.18239 0.49982 0.0
O591 O 0.17213 0.17485 0.45794 0.0
H592 H 0.1525 0.20249 0.60202 0.0
H593 H 0.19363 0.1393 0.5871 0.0
H594 H 0.15529 0.19749 0.67478 0.0
H595 H 0.19535 0.1352 0.66007 0.0
H596 H 0.13798 0.27719 0.43721 0.0
H597 H 0.1549 0.23791 0.56427 0.0
H598 H 0.16816 0.24562 0.4395 0.0
H599 H 0.12465 0.26935 0.55967 0.0
H600 H 0.23874 0.20005 0.66842 0.0
H601 H 0.21576 0.26751 0.62287 0.0
H602 H 0.08158 0.18046 0.56533 0.0
H603 H 0.08118 0.22281 0.459 0.0
H604 H 0.24248 0.22196 0.49909 0.0
H605 H 0.2405 0.15048 0.54196 0.0
H606 H 0.28068 0.22771 0.53373 0.0
H607 H 0.27879 0.15744 0.57573 0.0
H608 H 0.14066 0.14191 0.47516 0.0
H609 H 0.15774 0.19831 0.39482 0.0
H610 H 0.10356 0.13504 0.43787 0.0
H611 H 0.12041 0.19037 0.3588 0.0
H612 H 0.16546 0.07921 0.53189 0.0
H613 H 0.22995 0.08648 0.46459 0.0
H614 H 0.23162 0.26674 0.39096 0.0
H615 H 0.22043 0.20245 0.32436 0.0
Li616 Li 0.81998 0.1944 0.54624 0.0
Li617 Li 0.82565 0.15754 0.50948 0.0
Li618 Li 0.85541 0.19058 0.50715 0.0
Li619 Li 0.81763 0.19418 0.47184 0.0
C620 C 0.84662 0.16817 0.59274 0.0
N621 N 0.84774 0.16363 0.67411 0.0
C622 C 0.83598 0.14875 0.61095 0.0
C623 C 0.85806 0.18514 0.61587 0.0
C624 C 0.8367 0.14679 0.65214 0.0
C625 C 0.85836 0.18258 0.65698 0.0
C626 C 0.77696 0.16469 0.50437 0.0
C627 C 0.75102 0.14399 0.45957 0.0
N628 N 0.73672 0.13833 0.49046 0.0
C629 C 0.76181 0.15893 0.53558 0.0
C630 C 0.77136 0.15739 0.46598 0.0
C631 C 0.74163 0.14549 0.52798 0.0
C632 C 0.81071 0.23122 0.60075 0.0
N633 N 0.80726 0.20783 0.59371 0.0
C634 C 0.78684 0.20359 0.6553 0.0
C635 C 0.7955 0.194 0.62005 0.0
C636 C 0.79044 0.22763 0.66359 0.0
C637 C 0.80252 0.2415 0.63573 0.0
H638 H 0.81987 0.24191 0.57923 0.0
H639 H 0.79314 0.17543 0.61398 0.0
C640 C 0.84147 0.11258 0.49094 0.0
N641 N 0.82342 0.12388 0.50934 0.0
C642 C 0.84229 0.08801 0.48992 0.0
C643 C 0.80619 0.08692 0.52788 0.0
C644 C 0.80593 0.11162 0.52773 0.0
C645 C 0.82464 0.07475 0.50892 0.0
H646 H 0.85542 0.1227 0.4772 0.0
H647 H 0.79214 0.12094 0.54323 0.0
C648 C 0.84772 0.23658 0.50307 0.0
N649 N 0.87811 0.27431 0.49334 0.0
C650 C 0.84795 0.24917 0.46754 0.0
C651 C 0.86275 0.24337 0.53383 0.0
C652 C 0.86349 0.26815 0.46316 0.0
C653 C 0.87805 0.26243 0.52828 0.0
C654 C 0.84507 0.16224 0.42571 0.0
C655 C 0.86378 0.16941 0.40156 0.0
C656 C 0.82877 0.14581 0.41133 0.0
C657 C 0.8655 0.16051 0.36309 0.0
C658 C 0.8311 0.13728 0.37272 0.0
N659 N 0.84924 0.14478 0.34956 0.0
C660 C 0.90259 0.18656 0.53159 0.0
C661 C 0.89765 0.20938 0.4735 0.0
C662 C 0.92704 0.18905 0.52924 0.0
N663 N 0.88847 0.1966 0.50388 0.0
C664 C 0.92202 0.21231 0.46997 0.0
C665 C 0.93709 0.20189 0.4979 0.0
H666 H 0.89491 0.17613 0.55504 0.0
H667 H 0.88606 0.21699 0.45161 0.0
C668 C 0.77923 0.21261 0.42819 0.0
N669 N 0.80251 0.20707 0.42622 0.0
C670 C 0.76762 0.22166 0.39507 0.0
C671 C 0.80433 0.21979 0.35886 0.0
C672 C 0.81519 0.21078 0.39264 0.0
C673 C 0.78018 0.22526 0.35969 0.0
H674 H 0.76964 0.20993 0.4555 0.0
H675 H 0.83382 0.20697 0.39212 0.0
O676 O 0.84575 0.1706 0.55249 0.0
O677 O 0.79682 0.17784 0.51135 0.0
O678 O 0.83277 0.2178 0.50777 0.0
O679 O 0.84316 0.17079 0.46353 0.0
H680 H 0.8271 0.13543 0.59352 0.0
H681 H 0.86651 0.2002 0.60226 0.0
H682 H 0.82842 0.13192 0.66665 0.0
H683 H 0.86701 0.19567 0.67526 0.0
H684 H 0.74655 0.13819 0.42999 0.0
H685 H 0.76562 0.16466 0.56539 0.0
H686 H 0.78243 0.16224 0.44128 0.0
H687 H 0.72987 0.14078 0.55193 0.0
H688 H 0.77782 0.19223 0.67617 0.0
H689 H 0.8054 0.26017 0.64074 0.0
H690 H 0.85668 0.07953 0.4744 0.0
H691 H 0.79244 0.07752 0.54358 0.0
H692 H 0.83629 0.24434 0.44358 0.0
H693 H 0.86274 0.23391 0.56156 0.0
H694 H 0.86392 0.27798 0.43575 0.0
H695 H 0.88989 0.26776 0.55174 0.0
H696 H 0.87675 0.18185 0.41226 0.0
H697 H 0.81468 0.13936 0.42993 0.0
H698 H 0.87978 0.16608 0.34401 0.0
H699 H 0.81857 0.1246 0.36124 0.0
H700 H 0.93797 0.18036 0.55104 0.0
H701 H 0.929 0.22251 0.44552 0.0
H702 H 0.74909 0.22603 0.3973 0.0
H703 H 0.8147 0.22217 0.33224 0.0
H704 H 0.28578 0.46919 0.01209 0.0
H705 H 0.36163 0.46515 1.00425 0.0
H706 H 0.36431 0.50808 1.00437 0.0
H707 H 0.34527 0.54682 1.00624 0.0
H708 H 0.26948 0.55129 0.01413 0.0
H709 H 0.26662 0.50822 0.01352 0.0
C710 C 0.30287 0.47771 0.01011 0.0
C711 C 0.32347 0.4639 1.00846 0.0
C712 C 0.30431 0.50251 0.01002 0.0
C713 C 0.3455 0.47529 1.00627 0.0
C714 C 0.34706 0.49987 1.00608 0.0
C715 C 0.32812 0.53839 1.00824 0.0
C716 C 0.30763 0.5523 0.01039 0.0
C717 C 0.32661 0.51365 1.0081 0.0
C718 C 0.28553 0.54104 0.0121 0.0
C719 C 0.28388 0.5164 0.01196 0.0
H720 H 0.46951 0.29967 0.05012 0.0
H721 H 0.46694 0.32564 0.93012 0.0
H722 H 0.50986 0.32528 0.92679 0.0
H723 H 0.54809 0.31915 0.95865 0.0
H724 H 0.5508 0.29092 0.07719 0.0
H725 H 0.50783 0.29058 0.08019 0.0
C726 C 0.47827 0.30488 0.02297 0.0
C727 C 0.46489 0.31289 0.99058 0.0
C728 C 0.50302 0.30437 0.02102 0.0
C729 C 0.47671 0.31987 0.95586 0.0
C730 C 0.50129 0.31953 0.95379 0.0
C731 C 0.53937 0.31247 0.98492 0.0
C732 C 0.55281 0.30521 0.01771 0.0
C733 C 0.51463 0.31204 0.98632 0.0
C734 C 0.54101 0.29705 0.05172 0.0
C735 C 0.51639 0.2967 0.05341 0.0
H736 H 0.72537 0.46446 0.02087 0.0
H737 H 0.65284 0.45964 0.98315 0.0
H738 H 0.64999 0.50259 0.98207 0.0
H739 H 0.66793 0.54147 0.99196 0.0
H740 H 0.74032 0.54665 0.03024 0.0
H741 H 0.74355 0.50363 0.03002 0.0
C742 C 0.70902 0.47282 0.01205 0.0
C743 C 0.68931 0.45884 1.00233 0.0
C744 C 0.70749 0.49759 0.01145 0.0
C745 C 0.66816 0.46997 0.99138 0.0
C746 C 0.66655 0.49453 0.99054 0.0
C747 C 0.68437 0.53321 1.00063 0.0
C748 C 0.70381 0.5473 0.0113 0.0
C749 C 0.68604 0.5085 1.00076 0.0
C750 C 0.72513 0.53626 0.02158 0.0
C751 C 0.72695 0.51165 0.02167 0.0
H752 H 0.46742 0.66222 1.00147 0.0
H753 H 0.46178 0.73723 0.02133 0.0
H754 H 0.50472 0.74093 0.01977 0.0
H755 H 0.54397 0.7228 0.01274 0.0
H756 H 0.54929 0.64762 0.99407 0.0
H757 H 0.50645 0.64409 0.99524 0.0
C758 C 0.47558 0.67935 1.00587 0.0
C759 C 0.46137 0.69939 0.01159 0.0
C760 C 0.50026 0.68135 1.005 0.0
C761 C 0.47226 0.72153 0.01648 0.0
C762 C 0.49683 0.72365 0.01578 0.0
C763 C 0.53575 0.70563 0.00921 0.0
C764 C 0.54988 0.68554 1.00314 0.0
C765 C 0.51102 0.70368 0.01006 0.0
C766 C 0.53889 0.66345 0.99815 0.0
C767 C 0.51436 0.66137 0.99907 0.0
H768 H 0.84829 0.96592 0.51076 0.0
H769 H 0.77243 0.96066 0.50395 0.0
H770 H 0.76943 1.00363 0.5029 0.0
H771 H 0.7884 0.04279 0.50405 0.0
H772 H 0.86409 0.04743 0.51622 0.0
H773 H 0.86695 1.00462 0.51541 0.0
C774 C 0.83102 0.97406 0.50971 0.0
C775 C 0.81063 0.95989 0.50751 0.0
C776 C 0.82936 0.99876 0.50998 0.0
C777 C 0.78849 0.97099 0.5051 0.0
C778 C 0.78673 0.99562 0.5048 0.0
C779 C 0.80551 0.03447 0.507 0.0
C780 C 0.826 0.04849 0.50974 0.0
C781 C 0.80706 0.00969 0.50728 0.0
C782 C 0.84803 0.03725 0.5131 0.0
C783 C 0.8497 0.0127 0.51296 0.0
H784 H 0.04393 0.81926 0.55495 0.0
H785 H 0.05022 0.79976 0.43195 0.0
H786 H 0.00734 0.79654 0.42679 0.0
H787 H 0.96793 0.80065 0.45669 0.0
H788 H 0.96182 0.82065 0.57954 0.0
H789 H 1.00469 0.82218 0.58531 0.0
C790 C 0.0359 0.81437 0.52698 0.0
C791 C 0.05025 0.80988 0.49384 0.0
C792 C 0.01125 0.81263 0.5242 0.0
C793 C 0.0396 0.80314 0.458 0.0
C794 C 0.01507 0.80143 0.45496 0.0
C795 C 0.976 0.80538 0.48469 0.0
C796 C 0.96166 0.81056 0.5176 0.0
C797 C 1.0007 0.80634 0.48778 0.0
C798 C 0.97241 0.81631 0.55385 0.0
C799 C 0.99694 0.81735 0.55712 0.0
H800 H 0.19107 0.04733 0.55694 0.0
H801 H 0.2088 0.05252 0.43311 0.0
H802 H 0.20952 0.00947 0.42782 0.0
H803 H 0.20326 0.97038 0.45774 0.0
H804 H 0.18626 0.96544 0.58204 0.0
H805 H 0.18661 0.00833 0.58749 0.0
C806 C 0.19503 0.03903 0.52877 0.0
C807 C 0.19975 0.05312 0.49544 0.0
C808 C 0.19533 0.0143 0.52591 0.0
C809 C 0.20528 0.04209 0.4593 0.0
C810 C 0.20555 0.01748 0.4562 0.0
C811 C 0.19995 0.97864 0.48616 0.0
C812 C 0.19452 0.96459 0.51932 0.0
C813 C 0.20041 1.0034 0.48925 0.0
C814 C 0.19001 0.97574 0.55579 0.0
C815 C 0.19036 1.0003 0.55905 0.0
H816 H 0.96961 0.20918 0.55592 0.0
H817 H 0.96311 0.19786 0.43008 0.0
H818 H 1.00597 0.19808 0.4233 0.0
H819 H 0.04533 0.19927 0.45363 0.0
H820 H 0.05176 0.21023 0.57958 0.0
H821 H 0.00892 0.21185 0.58586 0.0
C822 C 0.97757 0.2067 0.52702 0.0
C823 C 0.96314 0.20345 0.4936 0.0
C824 C 1.00223 0.20655 0.52339 0.0
C825 C 0.97376 0.20067 0.45626 0.0
C826 C 0.99829 0.20061 0.45238 0.0
C827 C 0.03738 0.20235 0.48237 0.0
C828 C 0.05176 0.20448 0.5161 0.0
C829 C 0.0127 0.20329 0.4858 0.0
C830 C 0.04111 0.20815 0.55321 0.0
C831 C 0.01661 0.2092 0.55682 0.0
H832 H 0.25861 0.21842 0.29932 0.0
H833 H 0.21723 0.28034 0.32535 0.0
H834 H 0.23282 0.29987 0.26645 0.0
H835 H 0.25833 0.29944 0.20759 0.0
H836 H 0.29975 0.23754 0.18155 0.0
H837 H 0.28408 0.21797 0.24035 0.0
C838 C 0.25288 0.23612 0.29191 0.0
C839 C 0.23678 0.2479 0.3167 0.0
C840 C 0.26198 0.24729 0.25805 0.0
C841 C 0.22979 0.27097 0.30701 0.0
C842 C 0.23862 0.28212 0.27323 0.0
C843 C 0.26378 0.2816 0.21463 0.0
C844 C 0.28018 0.26998 0.19018 0.0
C845 C 0.25473 0.27045 0.24854 0.0
C846 C 0.28734 0.24699 0.20008 0.0
C847 C 0.2783 0.23573 0.2336 0.0
H848 H 0.71718 0.25355 0.21296 0.0
H849 H 0.77783 0.29724 0.1883 0.0
H850 H 0.7973 0.28255 0.24775 0.0
H851 H 0.79695 0.25765 0.30711 0.0
H852 H 0.73641 0.21376 0.3316 0.0
H853 H 0.7168 0.22869 0.27245 0.0
C854 C 0.73457 0.26003 0.22077 0.0
C855 C 0.74602 0.27646 0.19612 0.0
C856 C 0.74563 0.25159 0.25512 0.0
C857 C 0.76872 0.28437 0.20641 0.0
C858 C 0.77982 0.27608 0.24055 0.0
C859 C 0.77955 0.25118 0.29935 0.0
C860 C 0.7682 0.23459 0.32384 0.0
C861 C 0.76846 0.25967 0.26509 0.0
C862 C 0.74546 0.22674 0.31363 0.0
C863 C 0.73428 0.23515 0.27964 0.0
H864 H 0.7846 0.79191 0.28151 0.0
H865 H 0.75615 0.73826 0.35858 0.0
H866 H 0.73718 0.7191 0.30222 0.0
H867 H 0.72855 0.71756 0.23107 0.0
H868 H 0.75614 0.77174 0.15419 0.0
H869 H 0.77549 0.79069 0.21043 0.0
C870 C 0.77408 0.77615 0.28605 0.0
C871 C 0.77187 0.76656 0.32429 0.0
C872 C 0.76307 0.76527 0.25351 0.0
C873 C 0.75846 0.74587 0.32945 0.0
C874 C 0.74746 0.73497 0.29726 0.0
C875 C 0.7386 0.73365 0.22666 0.0
C876 C 0.74086 0.74319 0.1884 0.0
C877 C 0.74962 0.74452 0.25917 0.0
C878 C 0.75432 0.76383 0.18318 0.0
C879 C 0.7653 0.77476 0.21539 0.0
H880 H 0.21833 0.76085 0.30395 0.0
H881 H 0.28019 0.80235 0.33028 0.0
H882 H 0.29935 0.78773 0.27018 0.0
H883 H 0.29819 0.76374 0.20953 0.0
H884 H 0.23685 0.72083 0.1851 0.0
H885 H 0.21765 0.73596 0.24438 0.0
C886 C 0.23596 0.76678 0.2964 0.0
C887 C 0.24779 0.78272 0.3215 0.0
C888 C 0.2469 0.75823 0.26192 0.0
C889 C 0.27078 0.78995 0.31164 0.0
C890 C 0.28169 0.78168 0.27717 0.0
C891 C 0.28074 0.75744 0.2173 0.0
C892 C 0.26903 0.74121 0.19242 0.0
C893 C 0.26991 0.76583 0.25205 0.0
C894 C 0.2462 0.73365 0.20297 0.0
C895 C 0.23524 0.74214 0.23717 0.0
H896 H 0.26833 0.77261 0.68071 0.0
H897 H 0.19771 0.77556 0.7276 0.0
H898 H 0.21119 0.75806 0.78973 0.0
H899 H 0.24301 0.74194 0.83057 0.0
H900 H 0.31433 0.74191 0.78553 0.0
H901 H 0.30055 0.75775 0.72277 0.0
C902 C 0.25593 0.76926 0.70453 0.0
C903 C 0.23208 0.77525 0.69966 0.0
C904 C 0.26391 0.75964 0.74045 0.0
C905 C 0.21618 0.77114 0.73082 0.0
C906 C 0.22388 0.76112 0.76628 0.0
C907 C 0.25567 0.74568 0.80735 0.0
C908 C 0.27973 0.74051 0.81309 0.0
C909 C 0.24773 0.75541 0.77151 0.0
C910 C 0.29565 0.74516 0.78201 0.0
C911 C 0.28782 0.75443 0.74606 0.0
H912 H 0.24954 0.29457 0.80621 0.0
H913 H 0.30958 0.24799 0.80934 0.0
H914 H 0.29651 0.22908 0.74812 0.0
H915 H 0.26818 0.22593 0.69349 0.0
H916 H 0.20734 0.27162 0.69167 0.0
H917 H 0.2209 0.29105 0.75192 0.0
C918 C 0.25984 0.28039 0.7933 0.0
C919 C 0.28048 0.27269 0.81232 0.0
C920 C 0.25216 0.26952 0.75818 0.0
C921 C 0.29348 0.25408 0.79552 0.0
C922 C 0.28608 0.24333 0.76042 0.0
C923 C 0.25773 0.23997 0.70642 0.0
C924 C 0.23679 0.24729 0.68779 0.0
C925 C 0.26541 0.25085 0.74154 0.0
C926 C 0.22374 0.26583 0.70482 0.0
C927 C 0.23138 0.27687 0.73952 0.0
H928 H 0.76816 0.28114 0.82364 0.0
H929 H 0.70143 0.24572 0.80793 0.0
H930 H 0.71591 0.22733 0.74711 0.0
H931 H 0.74744 0.22164 0.69796 0.0
H932 H 0.81399 0.25745 0.71328 0.0
H933 H 0.79972 0.27533 0.77464 0.0
C934 C 0.75688 0.26923 0.80706 0.0
C935 C 0.73378 0.26477 0.8203 0.0
C936 C 0.76527 0.25885 0.77199 0.0
C937 C 0.71922 0.2496 0.79817 0.0
C938 C 0.72752 0.239 0.76349 0.0
C939 C 0.75886 0.23321 0.71494 0.0
C940 C 0.78173 0.2382 0.7011 0.0
C941 C 0.75049 0.24354 0.75006 0.0
C942 C 0.79623 0.25351 0.7231 0.0
C943 C 0.78812 0.26366 0.75826 0.0
H944 H 0.71366 0.75057 0.79945 0.0
H945 H 0.77721 0.71378 0.8326 0.0
H946 H 0.79716 0.72879 0.7738 0.0
H947 H 0.79669 0.75239 0.71303 0.0
H948 H 0.73366 0.7904 0.68101 0.0
H949 H 0.71344 0.77483 0.73921 0.0
C950 C 0.73195 0.74601 0.79403 0.0
C951 C 0.74386 0.73101 0.82046 0.0
C952 C 0.74342 0.75486 0.76026 0.0
C953 C 0.76746 0.725 0.81254 0.0
C954 C 0.77896 0.73369 0.77901 0.0
C955 C 0.77861 0.75748 0.71895 0.0
C956 C 0.76676 0.77256 0.69257 0.0
C957 C 0.76712 0.74864 0.75269 0.0
C958 C 0.74315 0.77858 0.70044 0.0
C959 C 0.7316 0.76981 0.73389 0.0
loop_
_geom_bond_atom_site_label_1
_geom_bond_atom_site_label_2
_geom_bond_distance
_geom_bond_site_symmetry_2
_ccdc_geom_bond_type
Li0 N17 1.990 . S
Li0 O60 1.956 . S
Li0 O61 1.981 . S
Li0 O62 1.955 1_554 S
Li1 N25 1.991 . S
Li1 O60 1.960 1_556 S
Li1 O61 1.956 1_556 S
Li1 O63 1.971 . S
Li2 N47 1.991 . S
Li2 O60 1.976 . S
Li2 O62 1.956 1_554 S
Li2 O63 1.955 1_554 S
Li3 N53 1.990 . S
Li3 O61 1.950 1_556 S
Li3 O62 1.976 . S
Li3 O63 1.956 . S
C4 C6 1.348 . S
C4 C7 1.356 . S
C4 O60 1.325 . S
N5 C8 1.314 . S
N5 C9 1.279 . S
C6 C4 1.348 . S
C6 C8 1.353 . S
C6 H64 0.929 . S
C7 C4 1.356 . S
C7 C9 1.358 . S
C7 H65 0.930 . S
C8 N5 1.314 . S
C8 C6 1.353 . S
C8 H66 0.930 . S
C9 N5 1.279 . S
C9 C7 1.358 . S
C9 H67 0.930 . S
C10 C13 1.345 . S
C10 C14 1.358 1_554 S
C10 O61 1.325 . S
C11 N12 1.279 . S
C11 C14 1.358 . S
C11 H68 0.930 . S
N12 C11 1.279 . S
N12 C15 1.314 1_556 S
C13 C10 1.345 . S
C13 C15 1.353 . S
C13 H69 0.929 . S
C14 C10 1.358 1_556 S
C14 C11 1.358 . S
C14 H70 0.930 . S
C15 N12 1.314 1_554 S
C15 C13 1.353 . S
C15 H71 0.930 . S
C16 N17 1.314 . S
C16 C21 1.353 . S
C16 H22 0.930 . S
N17 Li0 1.990 . S
N17 C16 1.314 . S
N17 C19 1.279 . S
C18 C19 1.358 . S
C18 C20 1.356 . S
C18 H72 0.930 . S
C19 N17 1.279 . S
C19 C18 1.358 . S
C19 H23 0.930 . S
C20 C18 1.356 . S
C20 C21 1.348 . S
C21 C16 1.353 . S
C21 C20 1.348 . S
C21 H73 0.929 . S
H22 C16 0.930 . S
H23 C19 0.930 . S
C24 N25 1.314 . S
C24 C26 1.353 . S
C24 H30 0.930 . S
N25 Li1 1.991 . S
N25 C24 1.314 . S
N25 C28 1.279 1_556 S
C26 C24 1.353 . S
C26 C29 1.346 1_556 S
C26 H74 0.929 . S
C27 C28 1.358 . S
C27 C29 1.357 . S
C27 H75 0.930 . S
C28 N25 1.279 1_554 S
C28 C27 1.358 . S
C28 H31 0.930 . S
C29 C26 1.346 1_554 S
C29 C27 1.357 . S
H30 C24 0.930 . S
H31 C28 0.930 . S
C32 C34 1.345 1_554 S
C32 C35 1.358 . S
C32 O62 1.325 1_554 S
N33 C36 1.314 1_554 S
N33 C37 1.279 . S
C34 C32 1.345 1_556 S
C34 C36 1.353 . S
C34 H76 0.929 . S
C35 C32 1.358 . S
C35 C37 1.358 . S
C35 H77 0.930 . S
C36 N33 1.314 1_556 S
C36 C34 1.353 . S
C36 H78 0.930 . S
C37 N33 1.279 . S
C37 C35 1.358 . S
C37 H79 0.930 . S
C38 C39 1.348 . S
C38 C40 1.356 . S
C38 O63 1.325 . S
C39 C38 1.348 . S
C39 C41 1.353 . S
C39 H80 0.929 . S
C40 C38 1.356 . S
C40 C42 1.358 . S
C40 H81 0.930 . S
C41 C39 1.353 . S
C41 N43 1.314 . S
C41 H82 0.930 . S
C42 C40 1.358 . S
C42 N43 1.279 . S
C42 H83 0.930 . S
N43 C41 1.314 . S
N43 C42 1.279 . S
C44 C46 1.353 . S
C44 N47 1.314 . S
C44 H50 0.930 . S
C45 N47 1.279 1_556 S
C45 C48 1.358 . S
C45 H51 0.930 . S
C46 C44 1.353 . S
C46 C49 1.348 1_554 S
C46 H84 0.929 . S
N47 Li2 1.991 . S
N47 C44 1.314 . S
N47 C45 1.279 1_554 S
C48 C45 1.358 . S
C48 C49 1.356 . S
C48 H85 0.930 . S
C49 C46 1.348 1_556 S
C49 C48 1.356 . S
H50 C44 0.930 . S
H51 C45 0.930 . S
C52 N53 1.314 . S
C52 C54 1.353 . S
C52 H58 0.930 . S
N53 Li3 1.990 . S
N53 C52 1.314 . S
N53 C56 1.279 . S
C54 C52 1.353 . S
C54 C57 1.348 . S
C54 H86 0.929 . S
C55 C56 1.358 . S
C55 C57 1.356 . S
C55 H87 0.930 . S
C56 N53 1.279 . S
C56 C55 1.358 . S
C56 H59 0.930 . S
C57 C54 1.348 . S
C57 C55 1.356 . S
H58 C52 0.930 . S
H59 C56 0.930 . S
O60 Li0 1.956 . S
O60 Li1 1.960 1_554 S
O60 Li2 1.976 . S
O60 C4 1.325 . S
O61 Li0 1.981 . S
O61 Li1 1.956 1_554 S
O61 Li3 1.950 1_554 S
O61 C10 1.325 . S
O62 Li0 1.955 1_556 S
O62 Li2 1.956 1_556 S
O62 Li3 1.976 . S
O62 C32 1.325 1_556 S
O63 Li1 1.971 . S
O63 Li2 1.955 1_556 S
O63 Li3 1.956 . S
O63 C38 1.325 . S
H64 C6 0.929 . S
H65 C7 0.930 . S
H66 C8 0.930 . S
H67 C9 0.930 . S
H68 C11 0.930 . S
H69 C13 0.929 . S
H70 C14 0.930 . S
H71 C15 0.930 . S
H72 C18 0.930 . S
H73 C21 0.929 . S
H74 C26 0.929 . S
H75 C27 0.930 . S
H76 C34 0.929 . S
H77 C35 0.930 . S
H78 C36 0.930 . S
H79 C37 0.930 . S
H80 C39 0.929 . S
H81 C40 0.930 . S
H82 C41 0.930 . S
H83 C42 0.930 . S
H84 C46 0.929 . S
H85 C48 0.930 . S
H86 C54 0.929 . S
H87 C55 0.930 . S
Li88 N105 1.991 . S
Li88 O148 1.956 1_556 S
Li88 O149 1.960 1_556 S
Li88 O150 1.971 . S
Li89 N113 1.990 . S
Li89 O148 1.981 . S
Li89 O149 1.956 . S
Li89 O151 1.955 1_554 S
Li90 N135 1.990 . S
Li90 O148 1.950 1_556 S
Li90 O150 1.956 . S
Li90 O151 1.976 . S
Li91 N141 1.991 . S
Li91 O149 1.976 . S
Li91 O150 1.955 1_554 S
Li91 O151 1.956 1_554 S
C92 C94 1.345 . S
C92 C95 1.358 1_554 S
C92 O148 1.325 . S
N93 C96 1.314 1_556 S
N93 C97 1.279 . S
C94 C92 1.345 . S
C94 C96 1.353 . S
C94 H152 0.929 . S
C95 C92 1.358 1_556 S
C95 C97 1.358 . S
C95 H153 0.930 . S
C96 N93 1.314 1_554 S
C96 C94 1.353 . S
C96 H154 0.930 . S
C97 N93 1.279 . S
C97 C95 1.358 . S
C97 H155 0.930 . S
C98 C101 1.348 . S
C98 C102 1.356 . S
C98 O149 1.325 . S
C99 N100 1.279 . S
C99 C102 1.358 . S
C99 H156 0.930 . S
N100 C99 1.279 . S
N100 C103 1.314 . S
C101 C98 1.348 . S
C101 C103 1.353 . S
C101 H157 0.929 . S
C102 C98 1.356 . S
C102 C99 1.358 . S
C102 H158 0.930 . S
C103 N100 1.314 . S
C103 C101 1.353 . S
C103 H159 0.930 . S
C104 N105 1.314 . S
C104 C109 1.353 . S
C104 H110 0.930 . S
N105 Li88 1.991 . S
N105 C104 1.314 . S
N105 C107 1.279 1_556 S
C106 C107 1.358 . S
C106 C108 1.357 . S
C106 H160 0.930 . S
C107 N105 1.279 1_554 S
C107 C106 1.358 . S
C107 H111 0.930 . S
C108 C106 1.357 . S
C108 C109 1.346 1_554 S
C109 C104 1.353 . S
C109 C108 1.346 1_556 S
C109 H161 0.929 . S
H110 C104 0.930 . S
H111 C107 0.930 . S
C112 N113 1.314 . S
C112 C114 1.353 . S
C112 H118 0.930 . S
N113 Li89 1.990 . S
N113 C112 1.314 . S
N113 C116 1.279 . S
C114 C112 1.353 . S
C114 C117 1.348 . S
C114 H162 0.929 . S
C115 C116 1.358 . S
C115 C117 1.356 . S
C115 H163 0.930 . S
C116 N113 1.279 . S
C116 C115 1.358 . S
C116 H119 0.930 . S
C117 C114 1.348 . S
C117 C115 1.356 . S
H118 C112 0.930 . S
H119 C116 0.930 . S
C120 C122 1.348 . S
C120 C123 1.356 . S
C120 O150 1.325 . S
N121 C124 1.314 . S
N121 C125 1.279 . S
C122 C120 1.348 . S
C122 C124 1.353 . S
C122 H164 0.929 . S
C123 C120 1.356 . S
C123 C125 1.358 . S
C123 H165 0.930 . S
C124 N121 1.314 . S
C124 C122 1.353 . S
C124 H166 0.930 . S
C125 N121 1.279 . S
C125 C123 1.358 . S
C125 H167 0.930 . S
C126 C127 1.345 1_554 S
C126 C128 1.358 . S
C126 O151 1.325 1_554 S
C127 C126 1.345 1_556 S
C127 C129 1.353 . S
C127 H168 0.929 . S
C128 C126 1.358 . S
C128 C130 1.358 . S
C128 H169 0.930 . S
C129 C127 1.353 . S
C129 N131 1.314 1_556 S
C129 H170 0.930 . S
C130 C128 1.358 . S
C130 N131 1.279 . S
C130 H171 0.930 . S
N131 C129 1.314 1_554 S
N131 C130 1.279 . S
C132 C134 1.353 . S
C132 N135 1.314 . S
C132 H138 0.930 . S
C133 N135 1.279 . S
C133 C136 1.358 . S
C133 H139 0.930 . S
C134 C132 1.353 . S
C134 C137 1.348 . S
C134 H172 0.929 . S
N135 Li90 1.990 . S
N135 C132 1.314 . S
N135 C133 1.279 . S
C136 C133 1.358 . S
C136 C137 1.356 . S
C136 H173 0.930 . S
C137 C134 1.348 . S
C137 C136 1.356 . S
H138 C132 0.930 . S
H139 C133 0.930 . S
C140 N141 1.314 . S
C140 C142 1.353 . S
C140 H146 0.930 . S
N141 Li91 1.991 . S
N141 C140 1.314 . S
N141 C144 1.279 1_554 S
C142 C140 1.353 . S
C142 C145 1.348 1_554 S
C142 H174 0.929 . S
C143 C144 1.358 . S
C143 C145 1.356 . S
C143 H175 0.930 . S
C144 N141 1.279 1_556 S
C144 C143 1.358 . S
C144 H147 0.930 . S
C145 C142 1.348 1_556 S
C145 C143 1.356 . S
H146 C140 0.930 . S
H147 C144 0.930 . S
O148 Li88 1.956 1_554 S
O148 Li89 1.981 . S
O148 Li90 1.950 1_554 S
O148 C92 1.325 . S
O149 Li88 1.960 1_554 S
O149 Li89 1.956 . S
O149 Li91 1.976 . S
O149 C98 1.325 . S
O150 Li88 1.971 . S
O150 Li90 1.956 . S
O150 Li91 1.955 1_556 S
O150 C120 1.325 . S
O151 Li89 1.955 1_556 S
O151 Li90 1.976 . S
O151 Li91 1.956 1_556 S
O151 C126 1.325 1_556 S
H152 C94 0.929 . S
H153 C95 0.930 . S
H154 C96 0.930 . S
H155 C97 0.930 . S
H156 C99 0.930 . S
H157 C101 0.929 . S
H158 C102 0.930 . S
H159 C103 0.930 . S
H160 C106 0.930 . S
H161 C109 0.929 . S
H162 C114 0.929 . S
H163 C115 0.930 . S
H164 C122 0.929 . S
H165 C123 0.930 . S
H166 C124 0.930 . S
H167 C125 0.930 . S
H168 C127 0.929 . S
H169 C128 0.930 . S
H170 C129 0.930 . S
H171 C130 0.930 . S
H172 C134 0.929 . S
H173 C136 0.930 . S
H174 C142 0.929 . S
H175 C143 0.930 . S
Li176 N193 1.991 . S
Li176 O236 1.956 1_556 S
Li176 O237 1.960 1_556 S
Li176 O238 1.971 . S
Li177 N201 1.990 . S
Li177 O236 1.981 . S
Li177 O237 1.956 . S
Li177 O239 1.955 1_554 S
Li178 N223 1.990 . S
Li178 O236 1.950 1_556 S
Li178 O238 1.956 . S
Li178 O239 1.976 . S
Li179 N229 1.991 . S
Li179 O237 1.976 . S
Li179 O238 1.955 1_554 S
Li179 O239 1.956 1_554 S
C180 C182 1.345 . S
C180 C183 1.358 1_554 S
C180 O236 1.325 . S
N181 C184 1.314 1_556 S
N181 C185 1.279 . S
C182 C180 1.345 . S
C182 C184 1.353 . S
C182 H240 0.929 . S
C183 C180 1.358 1_556 S
C183 C185 1.358 . S
C183 H241 0.930 . S
C184 N181 1.314 1_554 S
C184 C182 1.353 . S
C184 H242 0.930 . S
C185 N181 1.279 . S
C185 C183 1.358 . S
C185 H243 0.930 . S
C186 C189 1.348 . S
C186 C190 1.356 . S
C186 O237 1.325 . S
C187 N188 1.279 . S
C187 C190 1.358 . S
C187 H244 0.930 . S
N188 C187 1.279 . S
N188 C191 1.314 . S
C189 C186 1.348 . S
C189 C191 1.353 . S
C189 H245 0.929 . S
C190 C186 1.356 . S
C190 C187 1.358 . S
C190 H246 0.930 . S
C191 N188 1.314 . S
C191 C189 1.353 . S
C191 H247 0.930 . S
C192 N193 1.314 . S
C192 C197 1.353 . S
C192 H198 0.930 . S
N193 Li176 1.991 . S
N193 C192 1.314 . S
N193 C195 1.279 1_556 S
C194 C195 1.358 . S
C194 C196 1.357 . S
C194 H248 0.930 . S
C195 N193 1.279 1_554 S
C195 C194 1.358 . S
C195 H199 0.930 . S
C196 C194 1.357 . S
C196 C197 1.346 1_554 S
C197 C192 1.353 . S
C197 C196 1.346 1_556 S
C197 H249 0.929 . S
H198 C192 0.930 . S
H199 C195 0.930 . S
C200 N201 1.314 . S
C200 C202 1.353 . S
C200 H206 0.930 . S
N201 Li177 1.990 . S
N201 C200 1.314 . S
N201 C204 1.279 . S
C202 C200 1.353 . S
C202 C205 1.348 . S
C202 H250 0.929 . S
C203 C204 1.358 . S
C203 C205 1.356 . S
C203 H251 0.930 . S
C204 N201 1.279 . S
C204 C203 1.358 . S
C204 H207 0.930 . S
C205 C202 1.348 . S
C205 C203 1.356 . S
H206 C200 0.930 . S
H207 C204 0.930 . S
C208 C210 1.348 . S
C208 C211 1.356 . S
C208 O238 1.325 . S
N209 C212 1.314 . S
N209 C213 1.279 . S
C210 C208 1.348 . S
C210 C212 1.353 . S
C210 H252 0.929 . S
C211 C208 1.356 . S
C211 C213 1.358 . S
C211 H253 0.930 . S
C212 N209 1.314 . S
C212 C210 1.353 . S
C212 H254 0.930 . S
C213 N209 1.279 . S
C213 C211 1.358 . S
C213 H255 0.930 . S
C214 C215 1.345 1_554 S
C214 C216 1.358 . S
C214 O239 1.325 1_554 S
C215 C214 1.345 1_556 S
C215 C217 1.353 . S
C215 H256 0.929 . S
C216 C214 1.358 . S
C216 C218 1.358 . S
C216 H257 0.930 . S
C217 C215 1.353 . S
C217 N219 1.314 1_556 S
C217 H258 0.930 . S
C218 C216 1.358 . S
C218 N219 1.279 . S
C218 H259 0.930 . S
N219 C217 1.314 1_554 S
N219 C218 1.279 . S
C220 C222 1.353 . S
C220 N223 1.314 . S
C220 H226 0.930 . S
C221 N223 1.279 . S
C221 C224 1.358 . S
C221 H227 0.930 . S
C222 C220 1.353 . S
C222 C225 1.348 . S
C222 H260 0.929 . S
N223 Li178 1.990 . S
N223 C220 1.314 . S
N223 C221 1.279 . S
C224 C221 1.358 . S
C224 C225 1.356 . S
C224 H261 0.930 . S
C225 C222 1.348 . S
C225 C224 1.356 . S
H226 C220 0.930 . S
H227 C221 0.930 . S
C228 N229 1.314 . S
C228 C230 1.353 . S
C228 H234 0.930 . S
N229 Li179 1.991 . S
N229 C228 1.314 . S
N229 C232 1.279 1_554 S
C230 C228 1.353 . S
C230 C233 1.348 1_554 S
C230 H262 0.929 . S
C231 C232 1.358 . S
C231 C233 1.356 . S
C231 H263 0.930 . S
C232 N229 1.279 1_556 S
C232 C231 1.358 . S
C232 H235 0.930 . S
C233 C230 1.348 1_556 S
C233 C231 1.356 . S
H234 C228 0.930 . S
H235 C232 0.930 . S
O236 Li176 1.956 1_554 S
O236 Li177 1.981 . S
O236 Li178 1.950 1_554 S
O236 C180 1.325 . S
O237 Li176 1.960 1_554 S
O237 Li177 1.956 . S
O237 Li179 1.976 . S
O237 C186 1.325 . S
O238 Li176 1.971 . S
O238 Li178 1.956 . S
O238 Li179 1.955 1_556 S
O238 C208 1.325 . S
O239 Li177 1.955 1_556 S
O239 Li178 1.976 . S
O239 Li179 1.956 1_556 S
O239 C214 1.325 1_556 S
H240 C182 0.929 . S
H241 C183 0.930 . S
H242 C184 0.930 . S
H243 C185 0.930 . S
H244 C187 0.930 . S
H245 C189 0.929 . S
H246 C190 0.930 . S
H247 C191 0.930 . S
H248 C194 0.930 . S
H249 C197 0.929 . S
H250 C202 0.929 . S
H251 C203 0.930 . S
H252 C210 0.929 . S
H253 C211 0.930 . S
H254 C212 0.930 . S
H255 C213 0.930 . S
H256 C215 0.929 . S
H257 C216 0.930 . S
H258 C217 0.930 . S
H259 C218 0.930 . S
H260 C222 0.929 . S
H261 C224 0.930 . S
H262 C230 0.929 . S
H263 C231 0.930 . S
Li264 N281 1.991 . S
Li264 O324 1.956 1_556 S
Li264 O325 1.960 1_556 S
Li264 O326 1.971 . S
Li265 N289 1.990 . S
Li265 O324 1.981 . S
Li265 O325 1.956 . S
Li265 O327 1.955 1_554 S
Li266 N311 1.990 . S
Li266 O324 1.950 1_556 S
Li266 O326 1.956 . S
Li266 O327 1.976 . S
Li267 N317 1.991 . S
Li267 O325 1.976 . S
Li267 O326 1.955 1_554 S
Li267 O327 1.956 1_554 S
C268 C270 1.345 . S
C268 C271 1.358 1_554 S
C268 O324 1.325 . S
N269 C272 1.314 1_556 S
N269 C273 1.279 . S
C270 C268 1.345 . S
C270 C272 1.353 . S
C270 H328 0.929 . S
C271 C268 1.358 1_556 S
C271 C273 1.358 . S
C271 H329 0.930 . S
C272 N269 1.314 1_554 S
C272 C270 1.353 . S
C272 H330 0.930 . S
C273 N269 1.279 . S
C273 C271 1.358 . S
C273 H331 0.930 . S
C274 C277 1.348 . S
C274 C278 1.356 . S
C274 O325 1.325 . S
C275 N276 1.279 . S
C275 C278 1.358 . S
C275 H332 0.930 . S
N276 C275 1.279 . S
N276 C279 1.314 . S
C277 C274 1.348 . S
C277 C279 1.353 . S
C277 H333 0.929 . S
C278 C274 1.356 . S
C278 C275 1.358 . S
C278 H334 0.930 . S
C279 N276 1.314 . S
C279 C277 1.353 . S
C279 H335 0.930 . S
C280 N281 1.314 . S
C280 C285 1.353 . S
C280 H286 0.930 . S
N281 Li264 1.991 . S
N281 C280 1.314 . S
N281 C283 1.279 1_556 S
C282 C283 1.358 . S
C282 C284 1.357 . S
C282 H336 0.930 . S
C283 N281 1.279 1_554 S
C283 C282 1.358 . S
C283 H287 0.930 . S
C284 C282 1.357 . S
C284 C285 1.346 1_554 S
C285 C280 1.353 . S
C285 C284 1.346 1_556 S
C285 H337 0.929 . S
H286 C280 0.930 . S
H287 C283 0.930 . S
C288 N289 1.314 . S
C288 C290 1.353 . S
C288 H294 0.930 . S
N289 Li265 1.990 . S
N289 C288 1.314 . S
N289 C292 1.279 . S
C290 C288 1.353 . S
C290 C293 1.348 . S
C290 H338 0.929 . S
C291 C292 1.358 . S
C291 C293 1.356 . S
C291 H339 0.930 . S
C292 N289 1.279 . S
C292 C291 1.358 . S
C292 H295 0.930 . S
C293 C290 1.348 . S
C293 C291 1.356 . S
H294 C288 0.930 . S
H295 C292 0.930 . S
C296 C298 1.348 . S
C296 C299 1.356 . S
C296 O326 1.325 . S
N297 C300 1.314 . S
N297 C301 1.279 . S
C298 C296 1.348 . S
C298 C300 1.353 . S
C298 H340 0.929 . S
C299 C296 1.356 . S
C299 C301 1.358 . S
C299 H341 0.930 . S
C300 N297 1.314 . S
C300 C298 1.353 . S
C300 H342 0.930 . S
C301 N297 1.279 . S
C301 C299 1.358 . S
C301 H343 0.930 . S
C302 C303 1.345 1_554 S
C302 C304 1.358 . S
C302 O327 1.325 1_554 S
C303 C302 1.345 1_556 S
C303 C305 1.353 . S
C303 H344 0.929 . S
C304 C302 1.358 . S
C304 C306 1.358 . S
C304 H345 0.930 . S
C305 C303 1.353 . S
C305 N307 1.314 1_556 S
C305 H346 0.930 . S
C306 C304 1.358 . S
C306 N307 1.279 . S
C306 H347 0.930 . S
N307 C305 1.314 1_554 S
N307 C306 1.279 . S
C308 C310 1.353 . S
C308 N311 1.314 . S
C308 H314 0.930 . S
C309 N311 1.279 . S
C309 C312 1.358 . S
C309 H315 0.930 . S
C310 C308 1.353 . S
C310 C313 1.348 . S
C310 H348 0.929 . S
N311 Li266 1.990 . S
N311 C308 1.314 . S
N311 C309 1.279 . S
C312 C309 1.358 . S
C312 C313 1.356 . S
C312 H349 0.930 . S
C313 C310 1.348 . S
C313 C312 1.356 . S
H314 C308 0.930 . S
H315 C309 0.930 . S
C316 N317 1.314 . S
C316 C318 1.353 . S
C316 H322 0.930 . S
N317 Li267 1.991 . S
N317 C316 1.314 . S
N317 C320 1.279 1_554 S
C318 C316 1.353 . S
C318 C321 1.348 1_554 S
C318 H350 0.929 . S
C319 C320 1.358 . S
C319 C321 1.356 . S
C319 H351 0.930 . S
C320 N317 1.279 1_556 S
C320 C319 1.358 . S
C320 H323 0.930 . S
C321 C318 1.348 1_556 S
C321 C319 1.356 . S
H322 C316 0.930 . S
H323 C320 0.930 . S
O324 Li264 1.956 1_554 S
O324 Li265 1.981 . S
O324 Li266 1.950 1_554 S
O324 C268 1.325 . S
O325 Li264 1.960 1_554 S
O325 Li265 1.956 . S
O325 Li267 1.976 . S
O325 C274 1.325 . S
O326 Li264 1.971 . S
O326 Li266 1.956 . S
O326 Li267 1.955 1_556 S
O326 C296 1.325 . S
O327 Li265 1.955 1_556 S
O327 Li266 1.976 . S
O327 Li267 1.956 1_556 S
O327 C302 1.325 1_556 S
H328 C270 0.929 . S
H329 C271 0.930 . S
H330 C272 0.930 . S
H331 C273 0.930 . S
H332 C275 0.930 . S
H333 C277 0.929 . S
H334 C278 0.930 . S
H335 C279 0.930 . S
H336 C282 0.930 . S
H337 C285 0.929 . S
H338 C290 0.929 . S
H339 C291 0.930 . S
H340 C298 0.929 . S
H341 C299 0.930 . S
H342 C300 0.930 . S
H343 C301 0.930 . S
H344 C303 0.929 . S
H345 C304 0.930 . S
H346 C305 0.930 . S
H347 C306 0.930 . S
H348 C310 0.929 . S
H349 C312 0.930 . S
H350 C318 0.929 . S
H351 C319 0.930 . S
Li352 N369 1.990 . S
Li352 O412 1.956 . S
Li352 O413 1.970 . S
Li352 O414 1.961 . S
Li353 N377 1.990 . S
Li353 O412 1.970 . S
Li353 O413 1.956 . S
Li353 O415 1.961 . S
Li354 N399 1.990 . S
Li354 O412 1.961 . S
Li354 O414 1.956 . S
Li354 O415 1.970 . S
Li355 N405 1.990 . S
Li355 O413 1.961 . S
Li355 O414 1.970 . S
Li355 O415 1.956 . S
C356 C358 1.348 . S
C356 C359 1.356 . S
C356 O412 1.325 . S
N357 C360 1.314 . S
N357 C361 1.279 . S
C358 C356 1.348 . S
C358 C360 1.353 . S
C358 H416 0.929 . S
C359 C356 1.356 . S
C359 C361 1.358 . S
C359 H417 0.930 . S
C360 N357 1.314 . S
C360 C358 1.353 . S
C360 H418 0.930 . S
C361 N357 1.279 . S
C361 C359 1.358 . S
C361 H419 0.930 . S
C362 C365 1.348 . S
C362 C366 1.356 . S
C362 O413 1.325 . S
C363 N364 1.279 . S
C363 C366 1.358 . S
C363 H420 0.930 . S
N364 C363 1.279 . S
N364 C367 1.314 . S
C365 C362 1.348 . S
C365 C367 1.353 . S
C365 H421 0.929 . S
C366 C362 1.356 . S
C366 C363 1.358 . S
C366 H422 0.930 . S
C367 N364 1.314 . S
C367 C365 1.353 . S
C367 H423 0.930 . S
C368 N369 1.314 . S
C368 C373 1.353 . S
C368 H374 0.930 . S
N369 Li352 1.990 . S
N369 C368 1.314 . S
N369 C371 1.279 . S
C370 C371 1.358 . S
C370 C372 1.356 . S
C370 H424 0.930 . S
C371 N369 1.279 . S
C371 C370 1.358 . S
C371 H375 0.930 . S
C372 C370 1.356 . S
C372 C373 1.348 . S
C373 C368 1.353 . S
C373 C372 1.348 . S
C373 H425 0.929 . S
H374 C368 0.930 . S
H375 C371 0.930 . S
C376 N377 1.314 . S
C376 C378 1.353 . S
C376 H382 0.930 . S
N377 Li353 1.990 . S
N377 C376 1.314 . S
N377 C380 1.279 . S
C378 C376 1.353 . S
C378 C381 1.348 . S
C378 H426 0.929 . S
C379 C380 1.358 . S
C379 C381 1.356 . S
C379 H427 0.930 . S
C380 N377 1.279 . S
C380 C379 1.358 . S
C380 H383 0.930 . S
C381 C378 1.348 . S
C381 C379 1.356 . S
H382 C376 0.930 . S
H383 C380 0.930 . S
C384 C386 1.348 . S
C384 C387 1.356 . S
C384 O414 1.325 . S
N385 C388 1.314 . S
N385 C389 1.279 . S
C386 C384 1.348 . S
C386 C388 1.353 . S
C386 H428 0.929 . S
C387 C384 1.356 . S
C387 C389 1.358 . S
C387 H429 0.930 . S
C388 N385 1.314 . S
C388 C386 1.353 . S
C388 H430 0.930 . S
C389 N385 1.279 . S
C389 C387 1.358 . S
C389 H431 0.930 . S
C390 C391 1.348 . S
C390 C392 1.356 . S
C390 O415 1.325 . S
C391 C390 1.348 . S
C391 C393 1.353 . S
C391 H432 0.929 . S
C392 C390 1.356 . S
C392 C394 1.358 . S
C392 H433 0.930 . S
C393 C391 1.353 . S
C393 N395 1.314 . S
C393 H434 0.930 . S
C394 C392 1.358 . S
C394 N395 1.279 . S
C394 H435 0.930 . S
N395 C393 1.314 . S
N395 C394 1.279 . S
C396 C398 1.353 . S
C396 N399 1.314 . S
C396 H402 0.930 . S
C397 N399 1.279 . S
C397 C400 1.358 . S
C397 H403 0.930 . S
C398 C396 1.353 . S
C398 C401 1.348 . S
C398 H436 0.929 . S
N399 Li354 1.990 . S
N399 C396 1.314 . S
N399 C397 1.279 . S
C400 C397 1.358 . S
C400 C401 1.356 . S
C400 H437 0.930 . S
C401 C398 1.348 . S
C401 C400 1.356 . S
H402 C396 0.930 . S
H403 C397 0.930 . S
C404 N405 1.314 . S
C404 C406 1.353 . S
C404 H410 0.930 . S
N405 Li355 1.990 . S
N405 C404 1.314 . S
N405 C408 1.279 . S
C406 C404 1.353 . S
C406 C409 1.348 . S
C406 H438 0.929 . S
C407 C408 1.358 . S
C407 C409 1.356 . S
C407 H439 0.930 . S
C408 N405 1.279 . S
C408 C407 1.358 . S
C408 H411 0.930 . S
C409 C406 1.348 . S
C409 C407 1.356 . S
H410 C404 0.930 . S
H411 C408 0.930 . S
O412 Li352 1.956 . S
O412 Li353 1.970 . S
O412 Li354 1.961 . S
O412 C356 1.325 . S
O413 Li352 1.970 . S
O413 Li353 1.956 . S
O413 Li355 1.961 . S
O413 C362 1.325 . S
O414 Li352 1.961 . S
O414 Li354 1.956 . S
O414 Li355 1.970 . S
O414 C384 1.325 . S
O415 Li353 1.961 . S
O415 Li354 1.970 . S
O415 Li355 1.956 . S
O415 C390 1.325 . S
H416 C358 0.929 . S
H417 C359 0.930 . S
H418 C360 0.930 . S
H419 C361 0.930 . S
H420 C363 0.930 . S
H421 C365 0.929 . S
H422 C366 0.930 . S
H423 C367 0.930 . S
H424 C370 0.930 . S
H425 C373 0.929 . S
H426 C378 0.929 . S
H427 C379 0.930 . S
H428 C386 0.929 . S
H429 C387 0.930 . S
H430 C388 0.930 . S
H431 C389 0.930 . S
H432 C391 0.929 . S
H433 C392 0.930 . S
H434 C393 0.930 . S
H435 C394 0.930 . S
H436 C398 0.929 . S
H437 C400 0.930 . S
H438 C406 0.929 . S
H439 C407 0.930 . S
Li440 N457 1.990 . S
Li440 O500 1.956 . S
Li440 O501 1.970 . S
Li440 O502 1.961 . S
Li441 N465 1.990 . S
Li441 O500 1.970 . S
Li441 O501 1.956 . S
Li441 O503 1.961 . S
Li442 N487 1.990 . S
Li442 O500 1.961 . S
Li442 O502 1.956 . S
Li442 O503 1.970 . S
Li443 N493 1.990 . S
Li443 O501 1.961 . S
Li443 O502 1.970 . S
Li443 O503 1.956 . S
C444 C446 1.348 . S
C444 C447 1.356 . S
C444 O500 1.325 . S
N445 C448 1.314 . S
N445 C449 1.279 . S
C446 C444 1.348 . S
C446 C448 1.353 . S
C446 H504 0.929 . S
C447 C444 1.356 . S
C447 C449 1.358 . S
C447 H505 0.930 . S
C448 N445 1.314 . S
C448 C446 1.353 . S
C448 H506 0.930 . S
C449 N445 1.279 . S
C449 C447 1.358 . S
C449 H507 0.930 . S
C450 C453 1.348 . S
C450 C454 1.356 . S
C450 O501 1.325 . S
C451 N452 1.279 . S
C451 C454 1.358 . S
C451 H508 0.930 . S
N452 C451 1.279 . S
N452 C455 1.314 . S
C453 C450 1.348 . S
C453 C455 1.353 . S
C453 H509 0.929 . S
C454 C450 1.356 . S
C454 C451 1.358 . S
C454 H510 0.930 . S
C455 N452 1.314 . S
C455 C453 1.353 . S
C455 H511 0.930 . S
C456 N457 1.314 . S
C456 C461 1.353 . S
C456 H462 0.930 . S
N457 Li440 1.990 . S
N457 C456 1.314 . S
N457 C459 1.279 . S
C458 C459 1.358 . S
C458 C460 1.356 . S
C458 H512 0.930 . S
C459 N457 1.279 . S
C459 C458 1.358 . S
C459 H463 0.930 . S
C460 C458 1.356 . S
C460 C461 1.348 . S
C461 C456 1.353 . S
C461 C460 1.348 . S
C461 H513 0.929 . S
H462 C456 0.930 . S
H463 C459 0.930 . S
C464 N465 1.314 . S
C464 C466 1.353 . S
C464 H470 0.930 . S
N465 Li441 1.990 . S
N465 C464 1.314 . S
N465 C468 1.279 . S
C466 C464 1.353 . S
C466 C469 1.348 . S
C466 H514 0.929 . S
C467 C468 1.358 . S
C467 C469 1.356 . S
C467 H515 0.930 . S
C468 N465 1.279 . S
C468 C467 1.358 . S
C468 H471 0.930 . S
C469 C466 1.348 . S
C469 C467 1.356 . S
H470 C464 0.930 . S
H471 C468 0.930 . S
C472 C474 1.348 . S
C472 C475 1.356 . S
C472 O502 1.325 . S
N473 C476 1.314 . S
N473 C477 1.279 . S
C474 C472 1.348 . S
C474 C476 1.353 . S
C474 H516 0.929 . S
C475 C472 1.356 . S
C475 C477 1.358 . S
C475 H517 0.930 . S
C476 N473 1.314 . S
C476 C474 1.353 . S
C476 H518 0.930 . S
C477 N473 1.279 . S
C477 C475 1.358 . S
C477 H519 0.930 . S
C478 C479 1.348 . S
C478 C480 1.356 . S
C478 O503 1.325 . S
C479 C478 1.348 . S
C479 C481 1.353 . S
C479 H520 0.929 . S
C480 C478 1.356 . S
C480 C482 1.358 . S
C480 H521 0.930 . S
C481 C479 1.353 . S
C481 N483 1.314 . S
C481 H522 0.930 . S
C482 C480 1.358 . S
C482 N483 1.279 . S
C482 H523 0.930 . S
N483 C481 1.314 . S
N483 C482 1.279 . S
C484 C486 1.353 . S
C484 N487 1.314 . S
C484 H490 0.930 . S
C485 N487 1.279 . S
C485 C488 1.358 . S
C485 H491 0.930 . S
C486 C484 1.353 . S
C486 C489 1.348 . S
C486 H524 0.929 . S
N487 Li442 1.990 . S
N487 C484 1.314 . S
N487 C485 1.279 . S
C488 C485 1.358 . S
C488 C489 1.356 . S
C488 H525 0.930 . S
C489 C486 1.348 . S
C489 C488 1.356 . S
H490 C484 0.930 . S
H491 C485 0.930 . S
C492 N493 1.314 . S
C492 C494 1.353 . S
C492 H498 0.930 . S
N493 Li443 1.990 . S
N493 C492 1.314 . S
N493 C496 1.279 . S
C494 C492 1.353 . S
C494 C497 1.348 . S
C494 H526 0.929 . S
C495 C496 1.358 . S
C495 C497 1.356 . S
C495 H527 0.930 . S
C496 N493 1.279 . S
C496 C495 1.358 . S
C496 H499 0.930 . S
C497 C494 1.348 . S
C497 C495 1.356 . S
H498 C492 0.930 . S
H499 C496 0.930 . S
O500 Li440 1.956 . S
O500 Li441 1.970 . S
O500 Li442 1.961 . S
O500 C444 1.325 . S
O501 Li440 1.970 . S
O501 Li441 1.956 . S
O501 Li443 1.961 . S
O501 C450 1.325 . S
O502 Li440 1.961 . S
O502 Li442 1.956 . S
O502 Li443 1.970 . S
O502 C472 1.325 . S
O503 Li441 1.961 . S
O503 Li442 1.970 . S
O503 Li443 1.956 . S
O503 C478 1.325 . S
H504 C446 0.929 . S
H505 C447 0.930 . S
H506 C448 0.930 . S
H507 C449 0.930 . S
H508 C451 0.930 . S
H509 C453 0.929 . S
H510 C454 0.930 . S
H511 C455 0.930 . S
H512 C458 0.930 . S
H513 C461 0.929 . S
H514 C466 0.929 . S
H515 C467 0.930 . S
H516 C474 0.929 . S
H517 C475 0.930 . S
H518 C476 0.930 . S
H519 C477 0.930 . S
H520 C479 0.929 . S
H521 C480 0.930 . S
H522 C481 0.930 . S
H523 C482 0.930 . S
H524 C486 0.929 . S
H525 C488 0.930 . S
H526 C494 0.929 . S
H527 C495 0.930 . S
Li528 N545 1.990 . S
Li528 O588 1.956 . S
Li528 O589 1.970 . S
Li528 O590 1.961 . S
Li529 N553 1.990 . S
Li529 O588 1.970 . S
Li529 O589 1.956 . S
Li529 O591 1.961 . S
Li530 N575 1.990 . S
Li530 O588 1.961 . S
Li530 O590 1.956 . S
Li530 O591 1.970 . S
Li531 N581 1.990 . S
Li531 O589 1.961 . S
Li531 O590 1.970 . S
Li531 O591 1.956 . S
C532 C534 1.348 . S
C532 C535 1.356 . S
C532 O588 1.325 . S
N533 C536 1.314 . S
N533 C537 1.279 . S
C534 C532 1.348 . S
C534 C536 1.353 . S
C534 H592 0.929 . S
C535 C532 1.356 . S
C535 C537 1.358 . S
C535 H593 0.930 . S
C536 N533 1.314 . S
C536 C534 1.353 . S
C536 H594 0.930 . S
C537 N533 1.279 . S
C537 C535 1.358 . S
C537 H595 0.930 . S
C538 C541 1.348 . S
C538 C542 1.356 . S
C538 O589 1.325 . S
C539 N540 1.279 . S
C539 C542 1.358 . S
C539 H596 0.930 . S
N540 C539 1.279 . S
N540 C543 1.314 . S
C541 C538 1.348 . S
C541 C543 1.353 . S
C541 H597 0.929 . S
C542 C538 1.356 . S
C542 C539 1.358 . S
C542 H598 0.930 . S
C543 N540 1.314 . S
C543 C541 1.353 . S
C543 H599 0.930 . S
C544 N545 1.314 . S
C544 C549 1.353 . S
C544 H550 0.930 . S
N545 Li528 1.990 . S
N545 C544 1.314 . S
N545 C547 1.279 . S
C546 C547 1.358 . S
C546 C548 1.356 . S
C546 H600 0.930 . S
C547 N545 1.279 . S
C547 C546 1.358 . S
C547 H551 0.930 . S
C548 C546 1.356 . S
C548 C549 1.348 . S
C549 C544 1.353 . S
C549 C548 1.348 . S
C549 H601 0.929 . S
H550 C544 0.930 . S
H551 C547 0.930 . S
C552 N553 1.314 . S
C552 C554 1.353 . S
C552 H558 0.930 . S
N553 Li529 1.990 . S
N553 C552 1.314 . S
N553 C556 1.279 . S
C554 C552 1.353 . S
C554 C557 1.348 . S
C554 H602 0.929 . S
C555 C556 1.358 . S
C555 C557 1.356 . S
C555 H603 0.930 . S
C556 N553 1.279 . S
C556 C555 1.358 . S
C556 H559 0.930 . S
C557 C554 1.348 . S
C557 C555 1.356 . S
H558 C552 0.930 . S
H559 C556 0.930 . S
C560 C562 1.348 . S
C560 C563 1.356 . S
C560 O590 1.325 . S
N561 C564 1.314 . S
N561 C565 1.279 . S
C562 C560 1.348 . S
C562 C564 1.353 . S
C562 H604 0.929 . S
C563 C560 1.356 . S
C563 C565 1.358 . S
C563 H605 0.930 . S
C564 N561 1.314 . S
C564 C562 1.353 . S
C564 H606 0.930 . S
C565 N561 1.279 . S
C565 C563 1.358 . S
C565 H607 0.930 . S
C566 C567 1.348 . S
C566 C568 1.356 . S
C566 O591 1.325 . S
C567 C566 1.348 . S
C567 C569 1.353 . S
C567 H608 0.929 . S
C568 C566 1.356 . S
C568 C570 1.358 . S
C568 H609 0.930 . S
C569 C567 1.353 . S
C569 N571 1.314 . S
C569 H610 0.930 . S
C570 C568 1.358 . S
C570 N571 1.279 . S
C570 H611 0.930 . S
N571 C569 1.314 . S
N571 C570 1.279 . S
C572 C574 1.353 . S
C572 N575 1.314 . S
C572 H578 0.930 . S
C573 N575 1.279 . S
C573 C576 1.358 . S
C573 H579 0.930 . S
C574 C572 1.353 . S
C574 C577 1.348 . S
C574 H612 0.929 . S
N575 Li530 1.990 . S
N575 C572 1.314 . S
N575 C573 1.279 . S
C576 C573 1.358 . S
C576 C577 1.356 . S
C576 H613 0.930 . S
C577 C574 1.348 . S
C577 C576 1.356 . S
H578 C572 0.930 . S
H579 C573 0.930 . S
C580 N581 1.314 . S
C580 C582 1.353 . S
C580 H586 0.930 . S
N581 Li531 1.990 . S
N581 C580 1.314 . S
N581 C584 1.279 . S
C582 C580 1.353 . S
C582 C585 1.348 . S
C582 H614 0.929 . S
C583 C584 1.358 . S
C583 C585 1.356 . S
C583 H615 0.930 . S
C584 N581 1.279 . S
C584 C583 1.358 . S
C584 H587 0.930 . S
C585 C582 1.348 . S
C585 C583 1.356 . S
H586 C580 0.930 . S
H587 C584 0.930 . S
O588 Li528 1.956 . S
O588 Li529 1.970 . S
O588 Li530 1.961 . S
O588 C532 1.325 . S
O589 Li528 1.970 . S
O589 Li529 1.956 . S
O589 Li531 1.961 . S
O589 C538 1.325 . S
O590 Li528 1.961 . S
O590 Li530 1.956 . S
O590 Li531 1.970 . S
O590 C560 1.325 . S
O591 Li529 1.961 . S
O591 Li530 1.970 . S
O591 Li531 1.956 . S
O591 C566 1.325 . S
H592 C534 0.929 . S
H593 C535 0.930 . S
H594 C536 0.930 . S
H595 C537 0.930 . S
H596 C539 0.930 . S
H597 C541 0.929 . S
H598 C542 0.930 . S
H599 C543 0.930 . S
H600 C546 0.930 . S
H601 C549 0.929 . S
H602 C554 0.929 . S
H603 C555 0.930 . S
H604 C562 0.929 . S
H605 C563 0.930 . S
H606 C564 0.930 . S
H607 C565 0.930 . S
H608 C567 0.929 . S
H609 C568 0.930 . S
H610 C569 0.930 . S
H611 C570 0.930 . S
H612 C574 0.929 . S
H613 C576 0.930 . S
H614 C582 0.929 . S
H615 C583 0.930 . S
Li616 N633 1.990 . S
Li616 O676 1.956 . S
Li616 O677 1.970 . S
Li616 O678 1.961 . S
Li617 N641 1.990 . S
Li617 O676 1.970 . S
Li617 O677 1.956 . S
Li617 O679 1.961 . S
Li618 N663 1.990 . S
Li618 O676 1.961 . S
Li618 O678 1.956 . S
Li618 O679 1.970 . S
Li619 N669 1.990 . S
Li619 O677 1.961 . S
Li619 O678 1.970 . S
Li619 O679 1.956 . S
C620 C622 1.348 . S
C620 C623 1.356 . S
C620 O676 1.325 . S
N621 C624 1.314 . S
N621 C625 1.279 . S
C622 C620 1.348 . S
C622 C624 1.353 . S
C622 H680 0.929 . S
C623 C620 1.356 . S
C623 C625 1.358 . S
C623 H681 0.930 . S
C624 N621 1.314 . S
C624 C622 1.353 . S
C624 H682 0.930 . S
C625 N621 1.279 . S
C625 C623 1.358 . S
C625 H683 0.930 . S
C626 C629 1.348 . S
C626 C630 1.356 . S
C626 O677 1.325 . S
C627 N628 1.279 . S
C627 C630 1.358 . S
C627 H684 0.930 . S
N628 C627 1.279 . S
N628 C631 1.314 . S
C629 C626 1.348 . S
C629 C631 1.353 . S
C629 H685 0.929 . S
C630 C626 1.356 . S
C630 C627 1.358 . S
C630 H686 0.930 . S
C631 N628 1.314 . S
C631 C629 1.353 . S
C631 H687 0.930 . S
C632 N633 1.314 . S
C632 C637 1.353 . S
C632 H638 0.930 . S
N633 Li616 1.990 . S
N633 C632 1.314 . S
N633 C635 1.279 . S
C634 C635 1.358 . S
C634 C636 1.356 . S
C634 H688 0.930 . S
C635 N633 1.279 . S
C635 C634 1.358 . S
C635 H639 0.930 . S
C636 C634 1.356 . S
C636 C637 1.348 . S
C637 C632 1.353 . S
C637 C636 1.348 . S
C637 H689 0.929 . S
H638 C632 0.930 . S
H639 C635 0.930 . S
C640 N641 1.314 . S
C640 C642 1.353 . S
C640 H646 0.930 . S
N641 Li617 1.990 . S
N641 C640 1.314 . S
N641 C644 1.279 . S
C642 C640 1.353 . S
C642 C645 1.348 . S
C642 H690 0.929 . S
C643 C644 1.358 . S
C643 C645 1.356 . S
C643 H691 0.930 . S
C644 N641 1.279 . S
C644 C643 1.358 . S
C644 H647 0.930 . S
C645 C642 1.348 . S
C645 C643 1.356 . S
H646 C640 0.930 . S
H647 C644 0.930 . S
C648 C650 1.348 . S
C648 C651 1.356 . S
C648 O678 1.325 . S
N649 C652 1.314 . S
N649 C653 1.279 . S
C650 C648 1.348 . S
C650 C652 1.353 . S
C650 H692 0.929 . S
C651 C648 1.356 . S
C651 C653 1.358 . S
C651 H693 0.930 . S
C652 N649 1.314 . S
C652 C650 1.353 . S
C652 H694 0.930 . S
C653 N649 1.279 . S
C653 C651 1.358 . S
C653 H695 0.930 . S
C654 C655 1.348 . S
C654 C656 1.356 . S
C654 O679 1.325 . S
C655 C654 1.348 . S
C655 C657 1.353 . S
C655 H696 0.929 . S
C656 C654 1.356 . S
C656 C658 1.358 . S
C656 H697 0.930 . S
C657 C655 1.353 . S
C657 N659 1.314 . S
C657 H698 0.930 . S
C658 C656 1.358 . S
C658 N659 1.279 . S
C658 H699 0.930 . S
N659 C657 1.314 . S
N659 C658 1.279 . S
C660 C662 1.353 . S
C660 N663 1.314 . S
C660 H666 0.930 . S
C661 N663 1.279 . S
C661 C664 1.358 . S
C661 H667 0.930 . S
C662 C660 1.353 . S
C662 C665 1.348 . S
C662 H700 0.929 . S
N663 Li618 1.990 . S
N663 C660 1.314 . S
N663 C661 1.279 . S
C664 C661 1.358 . S
C664 C665 1.356 . S
C664 H701 0.930 . S
C665 C662 1.348 . S
C665 C664 1.356 . S
H666 C660 0.930 . S
H667 C661 0.930 . S
C668 N669 1.314 . S
C668 C670 1.353 . S
C668 H674 0.930 . S
N669 Li619 1.990 . S
N669 C668 1.314 . S
N669 C672 1.279 . S
C670 C668 1.353 . S
C670 C673 1.348 . S
C670 H702 0.929 . S
C671 C672 1.358 . S
C671 C673 1.356 . S
C671 H703 0.930 . S
C672 N669 1.279 . S
C672 C671 1.358 . S
C672 H675 0.930 . S
C673 C670 1.348 . S
C673 C671 1.356 . S
H674 C668 0.930 . S
H675 C672 0.930 . S
O676 Li616 1.956 . S
O676 Li617 1.970 . S
O676 Li618 1.961 . S
O676 C620 1.325 . S
O677 Li616 1.970 . S
O677 Li617 1.956 . S
O677 Li619 1.961 . S
O677 C626 1.325 . S
O678 Li616 1.961 . S
O678 Li618 1.956 . S
O678 Li619 1.970 . S
O678 C648 1.325 . S
O679 Li617 1.961 . S
O679 Li618 1.970 . S
O679 Li619 1.956 . S
O679 C654 1.325 . S
H680 C622 0.929 . S
H681 C623 0.930 . S
H682 C624 0.930 . S
H683 C625 0.930 . S
H684 C627 0.930 . S
H685 C629 0.929 . S
H686 C630 0.930 . S
H687 C631 0.930 . S
H688 C634 0.930 . S
H689 C637 0.929 . S
H690 C642 0.929 . S
H691 C643 0.930 . S
H692 C650 0.929 . S
H693 C651 0.930 . S
H694 C652 0.930 . S
H695 C653 0.930 . S
H696 C655 0.929 . S
H697 C656 0.930 . S
H698 C657 0.930 . S
H699 C658 0.930 . S
H700 C662 0.929 . S
H701 C664 0.930 . S
H702 C670 0.929 . S
H703 C671 0.930 . S
H704 C710 0.930 . S
H705 C713 0.930 . S
H706 C714 0.930 . S
H707 C715 0.930 . S
H708 C718 0.930 . S
H709 C719 0.930 . S
C710 H704 0.930 . S
C710 C711 1.355 1_554 S
C710 C712 1.415 . S
C711 C710 1.355 1_556 S
C711 C713 1.419 . S
C712 C710 1.415 . S
C712 C717 1.425 1_554 S
C712 C719 1.409 . S
C713 H705 0.930 . S
C713 C711 1.419 . S
C713 C714 1.362 . S
C714 H706 0.930 . S
C714 C713 1.362 . S
C714 C717 1.409 . S
C715 H707 0.930 . S
C715 C716 1.355 1_556 S
C715 C717 1.415 . S
C716 C715 1.355 1_554 S
C716 C718 1.419 . S
C717 C712 1.425 1_556 S
C717 C714 1.409 . S
C717 C715 1.415 . S
C718 H708 0.930 . S
C718 C716 1.419 . S
C718 C719 1.362 . S
C719 H709 0.930 . S
C719 C712 1.409 . S
C719 C718 1.362 . S
H720 C726 0.930 . S
H721 C729 0.930 . S
H722 C730 0.930 . S
H723 C731 0.930 . S
H724 C734 0.930 . S
H725 C735 0.930 . S
C726 H720 0.930 . S
C726 C727 1.355 1_554 S
C726 C728 1.415 . S
C727 C726 1.355 1_556 S
C727 C729 1.419 . S
C728 C726 1.415 . S
C728 C733 1.425 1_554 S
C728 C735 1.409 . S
C729 H721 0.930 . S
C729 C727 1.419 . S
C729 C730 1.362 . S
C730 H722 0.930 . S
C730 C729 1.362 . S
C730 C733 1.409 . S
C731 H723 0.930 . S
C731 C732 1.355 1_556 S
C731 C733 1.415 . S
C732 C731 1.355 1_554 S
C732 C734 1.419 . S
C733 C728 1.425 1_556 S
C733 C730 1.409 . S
C733 C731 1.415 . S
C734 H724 0.930 . S
C734 C732 1.419 . S
C734 C735 1.362 . S
C735 H725 0.930 . S
C735 C728 1.409 . S
C735 C734 1.362 . S
H736 C742 0.930 . S
H737 C745 0.930 . S
H738 C746 0.930 . S
H739 C747 0.930 . S
H740 C750 0.930 . S
H741 C751 0.930 . S
C742 H736 0.930 . S
C742 C743 1.355 1_554 S
C742 C744 1.415 . S
C743 C742 1.355 1_556 S
C743 C745 1.419 . S
C744 C742 1.415 . S
C744 C749 1.425 1_554 S
C744 C751 1.409 . S
C745 H737 0.930 . S
C745 C743 1.419 . S
C745 C746 1.362 . S
C746 H738 0.930 . S
C746 C745 1.362 . S
C746 C749 1.409 . S
C747 H739 0.930 . S
C747 C748 1.355 1_556 S
C747 C749 1.415 . S
C748 C747 1.355 1_554 S
C748 C750 1.419 . S
C749 C744 1.425 1_556 S
C749 C746 1.409 . S
C749 C747 1.415 . S
C750 H740 0.930 . S
C750 C748 1.419 . S
C750 C751 1.362 . S
C751 H741 0.930 . S
C751 C744 1.409 . S
C751 C750 1.362 . S
H752 C758 0.930 . S
H753 C761 0.930 . S
H754 C762 0.930 . S
H755 C763 0.930 . S
H756 C766 0.930 . S
H757 C767 0.930 . S
C758 H752 0.930 . S
C758 C759 1.356 . S
C758 C760 1.415 . S
C759 C758 1.356 . S
C759 C761 1.418 1_554 S
C760 C758 1.415 . S
C760 C765 1.425 1_554 S
C760 C767 1.409 . S
C761 H753 0.930 . S
C761 C759 1.418 1_556 S
C761 C762 1.362 . S
C762 H754 0.930 . S
C762 C761 1.362 . S
C762 C765 1.409 . S
C763 H755 0.930 . S
C763 C764 1.355 . S
C763 C765 1.415 . S
C764 C763 1.355 . S
C764 C766 1.419 1_556 S
C765 C760 1.425 1_556 S
C765 C762 1.409 . S
C765 C763 1.415 . S
C766 H756 0.930 . S
C766 C764 1.419 1_554 S
C766 C767 1.362 . S
C767 H757 0.930 . S
C767 C760 1.409 . S
C767 C766 1.362 . S
H768 C774 0.930 . S
H769 C777 0.930 . S
H770 C778 0.930 . S
H771 C779 0.930 . S
H772 C782 0.930 . S
H773 C783 0.930 . S
C774 H768 0.930 . S
C774 C775 1.355 . S
C774 C776 1.415 . S
C775 C774 1.355 . S
C775 C777 1.419 . S
C776 C774 1.415 . S
C776 C781 1.425 1_565 S
C776 C783 1.409 1_565 S
C777 H769 0.930 . S
C777 C775 1.419 . S
C777 C778 1.362 . S
C778 H770 0.930 . S
C778 C777 1.362 . S
C778 C781 1.409 1_565 S
C779 H771 0.930 . S
C779 C780 1.355 . S
C779 C781 1.415 . S
C780 C779 1.355 . S
C780 C782 1.419 . S
C781 C776 1.425 1_545 S
C781 C778 1.409 1_545 S
C781 C779 1.415 . S
C782 H772 0.930 . S
C782 C780 1.419 . S
C782 C783 1.362 . S
C783 H773 0.930 . S
C783 C776 1.409 1_545 S
C783 C782 1.362 . S
H784 C790 0.930 . S
H785 C793 0.930 . S
H786 C794 0.930 . S
H787 C795 0.930 . S
H788 C798 0.930 . S
H789 C799 0.930 . S
C790 H784 0.930 . S
C790 C791 1.355 . S
C790 C792 1.415 . S
C791 C790 1.355 . S
C791 C793 1.419 . S
C792 C790 1.415 . S
C792 C797 1.425 1_455 S
C792 C799 1.409 1_455 S
C793 H785 0.930 . S
C793 C791 1.419 . S
C793 C794 1.362 . S
C794 H786 0.930 . S
C794 C793 1.362 . S
C794 C797 1.409 1_455 S
C795 H787 0.930 . S
C795 C796 1.355 . S
C795 C797 1.415 . S
C796 C795 1.355 . S
C796 C798 1.419 . S
C797 C792 1.425 1_655 S
C797 C794 1.409 1_655 S
C797 C795 1.415 . S
C798 H788 0.930 . S
C798 C796 1.419 . S
C798 C799 1.362 . S
C799 H789 0.930 . S
C799 C792 1.409 1_655 S
C799 C798 1.362 . S
H800 C806 0.930 . S
H801 C809 0.930 . S
H802 C810 0.930 . S
H803 C811 0.930 . S
H804 C814 0.930 . S
H805 C815 0.930 . S
C806 H800 0.930 . S
C806 C807 1.355 . S
C806 C808 1.415 . S
C807 C806 1.355 . S
C807 C809 1.419 . S
C808 C806 1.415 . S
C808 C813 1.425 1_545 S
C808 C815 1.409 1_545 S
C809 H801 0.930 . S
C809 C807 1.419 . S
C809 C810 1.362 . S
C810 H802 0.930 . S
C810 C809 1.362 . S
C810 C813 1.409 1_545 S
C811 H803 0.930 . S
C811 C812 1.355 . S
C811 C813 1.415 . S
C812 C811 1.355 . S
C812 C814 1.419 . S
C813 C808 1.425 1_565 S
C813 C810 1.409 1_565 S
C813 C811 1.415 . S
C814 H804 0.930 . S
C814 C812 1.419 . S
C814 C815 1.362 . S
C815 H805 0.930 . S
C815 C808 1.409 1_565 S
C815 C814 1.362 . S
H816 C822 0.930 . S
H817 C825 0.930 . S
H818 C826 0.930 . S
H819 C827 0.930 . S
H820 C830 0.930 . S
H821 C831 0.930 . S
C822 H816 0.930 . S
C822 C823 1.355 . S
C822 C824 1.415 . S
C823 C822 1.355 . S
C823 C825 1.419 . S
C824 C822 1.415 . S
C824 C829 1.425 1_655 S
C824 C831 1.409 1_655 S
C825 H817 0.930 . S
C825 C823 1.419 . S
C825 C826 1.362 . S
C826 H818 0.930 . S
C826 C825 1.362 . S
C826 C829 1.409 1_655 S
C827 H819 0.930 . S
C827 C828 1.355 . S
C827 C829 1.415 . S
C828 C827 1.355 . S
C828 C830 1.419 . S
C829 C824 1.425 1_455 S
C829 C826 1.409 1_455 S
C829 C827 1.415 . S
C830 H820 0.930 . S
C830 C828 1.419 . S
C830 C831 1.362 . S
C831 H821 0.930 . S
C831 C824 1.409 1_455 S
C831 C830 1.362 . S
H832 C838 0.930 . S
H833 C841 0.930 . S
H834 C842 0.930 . S
H835 C843 0.930 . S
H836 C846 0.930 . S
H837 C847 0.930 . S
C838 H832 0.930 . S
C838 C839 1.355 . S
C838 C840 1.415 . S
C839 C838 1.355 . S
C839 C841 1.419 . S
C840 C838 1.415 . S
C840 C845 1.425 . S
C840 C847 1.409 . S
C841 H833 0.930 . S
C841 C839 1.419 . S
C841 C842 1.362 . S
C842 H834 0.930 . S
C842 C841 1.362 . S
C842 C845 1.409 . S
C843 H835 0.930 . S
C843 C844 1.355 . S
C843 C845 1.415 . S
C844 C843 1.355 . S
C844 C846 1.419 . S
C845 C840 1.425 . S
C845 C842 1.409 . S
C845 C843 1.415 . S
C846 H836 0.930 . S
C846 C844 1.419 . S
C846 C847 1.362 . S
C847 H837 0.930 . S
C847 C840 1.409 . S
C847 C846 1.362 . S
H848 C854 0.930 . S
H849 C857 0.930 . S
H850 C858 0.930 . S
H851 C859 0.930 . S
H852 C862 0.930 . S
H853 C863 0.930 . S
C854 H848 0.930 . S
C854 C855 1.355 . S
C854 C856 1.415 . S
C855 C854 1.355 . S
C855 C857 1.419 . S
C856 C854 1.415 . S
C856 C861 1.425 . S
C856 C863 1.409 . S
C857 H849 0.930 . S
C857 C855 1.419 . S
C857 C858 1.362 . S
C858 H850 0.930 . S
C858 C857 1.362 . S
C858 C861 1.409 . S
C859 H851 0.930 . S
C859 C860 1.355 . S
C859 C861 1.415 . S
C860 C859 1.355 . S
C860 C862 1.419 . S
C861 C856 1.425 . S
C861 C858 1.409 . S
C861 C859 1.415 . S
C862 H852 0.930 . S
C862 C860 1.419 . S
C862 C863 1.362 . S
C863 H853 0.930 . S
C863 C856 1.409 . S
C863 C862 1.362 . S
H864 C870 0.930 . S
H865 C873 0.930 . S
H866 C874 0.930 . S
H867 C875 0.930 . S
H868 C878 0.930 . S
H869 C879 0.930 . S
C870 H864 0.930 . S
C870 C871 1.355 . S
C870 C872 1.415 . S
C871 C870 1.355 . S
C871 C873 1.419 . S
C872 C870 1.415 . S
C872 C877 1.425 . S
C872 C879 1.409 . S
C873 H865 0.930 . S
C873 C871 1.419 . S
C873 C874 1.362 . S
C874 H866 0.930 . S
C874 C873 1.362 . S
C874 C877 1.409 . S
C875 H867 0.930 . S
C875 C876 1.355 . S
C875 C877 1.415 . S
C876 C875 1.355 . S
C876 C878 1.419 . S
C877 C872 1.425 . S
C877 C874 1.409 . S
C877 C875 1.415 . S
C878 H868 0.930 . S
C878 C876 1.419 . S
C878 C879 1.362 . S
C879 H869 0.930 . S
C879 C872 1.409 . S
C879 C878 1.362 . S
H880 C886 0.930 . S
H881 C889 0.930 . S
H882 C890 0.930 . S
H883 C891 0.930 . S
H884 C894 0.930 . S
H885 C895 0.930 . S
C886 H880 0.930 . S
C886 C887 1.355 . S
C886 C888 1.415 . S
C887 C886 1.355 . S
C887 C889 1.419 . S
C888 C886 1.415 . S
C888 C893 1.425 . S
C888 C895 1.409 . S
C889 H881 0.930 . S
C889 C887 1.419 . S
C889 C890 1.362 . S
C890 H882 0.930 . S
C890 C889 1.362 . S
C890 C893 1.409 . S
C891 H883 0.930 . S
C891 C892 1.355 . S
C891 C893 1.415 . S
C892 C891 1.355 . S
C892 C894 1.419 . S
C893 C888 1.425 . S
C893 C890 1.409 . S
C893 C891 1.415 . S
C894 H884 0.930 . S
C894 C892 1.419 . S
C894 C895 1.362 . S
C895 H885 0.930 . S
C895 C888 1.409 . S
C895 C894 1.362 . S
H896 C902 0.930 . S
H897 C905 0.930 . S
H898 C906 0.930 . S
H899 C907 0.930 . S
H900 C910 0.930 . S
H901 C911 0.930 . S
C902 H896 0.930 . S
C902 C903 1.355 . S
C902 C904 1.415 . S
C903 C902 1.355 . S
C903 C905 1.419 . S
C904 C902 1.415 . S
C904 C909 1.425 . S
C904 C911 1.409 . S
C905 H897 0.930 . S
C905 C903 1.419 . S
C905 C906 1.362 . S
C906 H898 0.930 . S
C906 C905 1.362 . S
C906 C909 1.409 . S
C907 H899 0.930 . S
C907 C908 1.355 . S
C907 C909 1.415 . S
C908 C907 1.355 . S
C908 C910 1.419 . S
C909 C904 1.425 . S
C909 C906 1.409 . S
C909 C907 1.415 . S
C910 H900 0.930 . S
C910 C908 1.419 . S
C910 C911 1.362 . S
C911 H901 0.930 . S
C911 C904 1.409 . S
C911 C910 1.362 . S
H912 C918 0.930 . S
H913 C921 0.930 . S
H914 C922 0.930 . S
H915 C923 0.930 . S
H916 C926 0.930 . S
H917 C927 0.930 . S
C918 H912 0.930 . S
C918 C919 1.355 . S
C918 C920 1.415 . S
C919 C918 1.355 . S
C919 C921 1.419 . S
C920 C918 1.415 . S
C920 C925 1.425 . S
C920 C927 1.409 . S
C921 H913 0.930 . S
C921 C919 1.419 . S
C921 C922 1.362 . S
C922 H914 0.930 . S
C922 C921 1.362 . S
C922 C925 1.409 . S
C923 H915 0.930 . S
C923 C924 1.355 . S
C923 C925 1.415 . S
C924 C923 1.355 . S
C924 C926 1.419 . S
C925 C920 1.425 . S
C925 C922 1.409 . S
C925 C923 1.415 . S
C926 H916 0.930 . S
C926 C924 1.419 . S
C926 C927 1.362 . S
C927 H917 0.930 . S
C927 C920 1.409 . S
C927 C926 1.362 . S
H928 C934 0.930 . S
H929 C937 0.930 . S
H930 C938 0.930 . S
H931 C939 0.930 . S
H932 C942 0.930 . S
H933 C943 0.930 . S
C934 H928 0.930 . S
C934 C935 1.355 . S
C934 C936 1.415 . S
C935 C934 1.355 . S
C935 C937 1.419 . S
C936 C934 1.415 . S
C936 C941 1.425 . S
C936 C943 1.409 . S
C937 H929 0.930 . S
C937 C935 1.419 . S
C937 C938 1.362 . S
C938 H930 0.930 . S
C938 C937 1.362 . S
C938 C941 1.409 . S
C939 H931 0.930 . S
C939 C940 1.355 . S
C939 C941 1.415 . S
C940 C939 1.355 . S
C940 C942 1.419 . S
C941 C936 1.425 . S
C941 C938 1.409 . S
C941 C939 1.415 . S
C942 H932 0.930 . S
C942 C940 1.419 . S
C942 C943 1.362 . S
C943 H933 0.930 . S
C943 C936 1.409 . S
C943 C942 1.362 . S
H944 C950 0.930 . S
H945 C953 0.930 . S
H946 C954 0.930 . S
H947 C955 0.930 . S
H948 C958 0.930 . S
H949 C959 0.930 . S
C950 H944 0.930 . S
C950 C951 1.355 . S
C950 C952 1.415 . S
C951 C950 1.355 . S
C951 C953 1.419 . S
C952 C950 1.415 . S
C952 C957 1.425 . S
C952 C959 1.409 . S
C953 H945 0.930 . S
C953 C951 1.419 . S
C953 C954 1.362 . S
C954 H946 0.930 . S
C954 C953 1.362 . S
C954 C957 1.409 . S
C955 H947 0.930 . S
C955 C956 1.355 . S
C955 C957 1.415 . S
C956 C955 1.355 . S
C956 C958 1.419 . S
C957 C952 1.425 . S
C957 C954 1.409 . S
C957 C955 1.415 . S
C958 H948 0.930 . S
C958 C956 1.419 . S
C958 C959 1.362 . S
C959 H949 0.930 . S
C959 C952 1.409 . S
C959 C958 1.362 . S
C711 C49 1.501 . S
C716 C284 1.506 . S
C727 C29 1.497 1_556 S
C732 C145 1.501 1_554 S
C743 C108 1.492 1_556 S
C748 C233 1.508 1_554 S
C759 C321 1.510 1_554 S
C764 C196 1.492 1_556 S
C775 C401 1.510 . S
C780 C645 1.492 . S
C791 C497 1.505 . S
C796 C381 1.502 . S
C807 C577 1.509 . S
C812 C460 1.497 . S
C823 C665 1.511 . S
C828 C557 1.493 . S
C839 C585 1.362 . S
C844 C20 1.362 . S
C855 C117 1.361 . S
C860 C673 1.354 . S
C871 C409 1.368 . S
C876 C205 1.364 . S
C887 C489 1.365 . S
C892 C293 1.364 . S
C903 C469 1.352 . S
C908 C313 1.359 . S
C919 C57 1.366 . S
C924 C548 1.371 . S
C935 C137 1.352 . S
C940 C636 1.352 . S
C951 C225 1.357 . S
C956 C372 1.356 . S
