# Generated by pormake.
# Topology snk, (6)-cn, num edge types: 1
# Building blocks:
#     Node 0, Type 0, BuildingBlock: CUKXOW_clean_sbu_0, # of connection points: 6
#     Node 1, Type 0, BuildingBlock: CUKXOW_clean_sbu_0, # of connection points: 6
#     Node 2, Type 0, BuildingBlock: CUKXOW_clean_sbu_0, # of connection points: 6
#     Node 3, Type 0, BuildingBlock: CUKXOW_clean_sbu_0, # of connection points: 6
#     Node 4, Type 0, BuildingBlock: CUKXOW_clean_sbu_0, # of connection points: 6
#     Node 5, Type 0, BuildingBlock: CUKXOW_clean_sbu_0, # of connection points: 6
#     Node 6, Type 0, BuildingBlock: CUKXOW_clean_sbu_0, # of connection points: 6
#     Node 7, Type 0, BuildingBlock: CUKXOW_clean_sbu_0, # of connection points: 6
#     Edge 8, Type (0, 0), BuildingBlock: AJUNOK_clean_linker_0, # of connection points: 2
#     Edge 9, Type (0, 0), BuildingBlock: AJUNOK_clean_linker_0, # of connection points: 2
#     Edge 10, Type (0, 0), BuildingBlock: AJUNOK_clean_linker_0, # of connection points: 2
#     Edge 11, Type (0, 0), BuildingBlock: AJUNOK_clean_linker_0, # of connection points: 2
#     Edge 12, Type (0, 0), BuildingBlock: AJUNOK_clean_linker_0, # of connection points: 2
#     Edge 13, Type (0, 0), BuildingBlock: AJUNOK_clean_linker_0, # of connection points: 2
#     Edge 14, Type (0, 0), BuildingBlock: AJUNOK_clean_linker_0, # of connection points: 2
#     Edge 15, Type (0, 0), BuildingBlock: AJUNOK_clean_linker_0, # of connection points: 2
#     Edge 16, Type (0, 0), BuildingBlock: AJUNOK_clean_linker_0, # of connection points: 2
#     Edge 17, Type (0, 0), BuildingBlock: AJUNOK_clean_linker_0, # of connection points: 2
#     Edge 18, Type (0, 0), BuildingBlock: AJUNOK_clean_linker_0, # of connection points: 2
#     Edge 19, Type (0, 0), BuildingBlock: AJUNOK_clean_linker_0, # of connection points: 2
#     Edge 20, Type (0, 0), BuildingBlock: AJUNOK_clean_linker_0, # of connection points: 2
#     Edge 21, Type (0, 0), BuildingBlock: AJUNOK_clean_linker_0, # of connection points: 2
#     Edge 22, Type (0, 0), BuildingBlock: AJUNOK_clean_linker_0, # of connection points: 2
#     Edge 23, Type (0, 0), BuildingBlock: AJUNOK_clean_linker_0, # of connection points: 2
#     Edge 24, Type (0, 0), BuildingBlock: AJUNOK_clean_linker_0, # of connection points: 2
#     Edge 25, Type (0, 0), BuildingBlock: AJUNOK_clean_linker_0, # of connection points: 2
#     Edge 26, Type (0, 0), BuildingBlock: AJUNOK_clean_linker_0, # of connection points: 2
#     Edge 27, Type (0, 0), BuildingBlock: AJUNOK_clean_linker_0, # of connection points: 2
#     Edge 28, Type (0, 0), BuildingBlock: AJUNOK_clean_linker_0, # of connection points: 2
#     Edge 29, Type (0, 0), BuildingBlock: AJUNOK_clean_linker_0, # of connection points: 2
#     Edge 30, Type (0, 0), BuildingBlock: AJUNOK_clean_linker_0, # of connection points: 2
#     Edge 31, Type (0, 0), BuildingBlock: AJUNOK_clean_linker_0, # of connection points: 2
# Relax obj value: 0.086
# Max RMSD: 0.192
# Mean RMSD: 0.132
data_MOF--net-snk--node1-CUKXOW_clean_sbu_0--edge1-AJUNOK_clean_linker_0
_symmetry_space_group_name_H-M    P1
_symmetry_Int_Tables_number       1
_symmetry_cell_setting            triclinic
loop_
_symmetry_equiv_pos_as_xyz
'x, y, z'
_cell_length_a     34.803204
_cell_length_b     34.811163
_cell_length_c     10.412449
_cell_angle_alpha  103.60502
_cell_angle_beta   104.27418
_cell_angle_gamma 91.41585
loop_
_atom_site_label
_atom_site_type_symbol
_atom_site_fract_x
_atom_site_fract_y
_atom_site_fract_z
_atom_type_partial_charge
Tb0 Tb 0.03427 0.01966 0.48497 0.0
C1 C 0.05011 0.93209 0.48639 0.0
Tb2 Tb 0.9604 0.95622 0.40348 0.0
O3 O 0.04404 0.03163 0.71009 0.0
O4 O 0.99921 0.99239 0.57887 0.0
O5 O 0.06422 0.96572 0.4694 0.0
C6 C 0.90559 0.91415 0.45952 0.0
O7 O 0.01176 0.92421 0.47866 0.0
C8 C 0.97912 0.96803 0.18261 0.0
C9 C 0.94746 0.04684 0.41541 0.0
O10 O 0.93492 0.89975 0.41252 0.0
O11 O 0.90569 0.95164 0.46339 0.0
O12 O 0.95026 0.94257 0.17758 0.0
O13 O 0.99512 0.98328 0.30758 0.0
O14 O 0.93247 0.01256 0.42663 0.0
O15 O 0.98512 0.05322 0.4151 0.0
C16 C 0.09138 0.06868 0.47973 0.0
O17 O 0.06087 0.07921 0.52574 0.0
O18 O 0.08968 0.03044 0.43469 0.0
C19 C 0.01466 1.00698 0.70401 0.0
Tb20 Tb 0.22906 0.79091 0.79922 0.0
C21 C 0.32109 0.82577 0.89619 0.0
Tb22 Tb 0.29154 0.73466 0.83901 0.0
O23 O 0.21001 0.78542 0.97894 0.0
O24 O 0.26877 0.77815 0.97513 0.0
O25 O 0.28308 0.83257 0.85122 0.0
C26 C 0.34056 0.68029 0.90894 0.0
O27 O 0.33115 0.78994 0.90941 0.0
C28 C 0.27599 0.75154 0.59763 0.0
C29 C 0.20047 0.70216 0.75919 0.0
O30 O 0.34121 0.71625 0.98144 0.0
O31 O 0.31205 0.67485 0.79788 0.0
O32 O 0.31036 0.74288 0.66078 0.0
O33 O 0.25119 0.74674 0.66445 0.0
O34 O 0.23722 0.69816 0.82783 0.0
O35 O 0.19253 0.73426 0.71297 0.0
C36 C 0.17436 0.83757 0.70319 0.0
O37 O 0.17416 0.82023 0.80005 0.0
O38 O 0.2065 0.82998 0.66311 0.0
C39 C 0.24333 0.77458 1.04115 0.0
Tb40 Tb 0.4802 0.04775 0.11549 0.0
C41 C 0.45154 0.95463 1.03647 0.0
Tb42 Tb 0.54367 0.98332 0.08687 0.0
O43 O 0.46742 0.05454 0.90339 0.0
O44 O 0.5076 0.0169 0.96857 0.0
O45 O 0.44488 0.99183 0.09152 0.0
C46 C 0.59702 0.93599 1.00628 0.0
O47 O 0.48677 0.94514 1.01312 0.0
C48 C 0.52991 1.00045 0.33501 0.0
C49 C 0.57094 0.07673 0.1551 0.0
O50 O 0.55866 0.93012 0.9532 0.0
O51 O 0.60495 0.96845 0.10314 0.0
O52 O 0.55426 0.97507 0.29787 0.0
O53 O 0.51627 0.01428 0.23334 0.0
O54 O 0.57812 0.03944 0.10435 0.0
O55 O 0.53628 0.08585 0.18175 0.0
C56 C 0.43601 0.1024 0.21723 0.0
O57 O 0.47457 0.10397 0.2547 0.0
O58 O 0.42227 0.06956 0.12489 0.0
C59 C 0.49218 0.02966 0.86576 0.0
Tb60 Tb 0.24514 0.23915 0.38712 0.0
C61 C 0.33329 0.22156 0.39343 0.0
Tb62 Tb 0.3109 0.31091 0.47005 0.0
O63 O 0.23239 0.2299 0.1624 0.0
O64 O 0.2738 0.27313 0.29322 0.0
O65 O 0.29852 0.20817 0.40386 0.0
C66 C 0.35635 0.364 0.42054 0.0
O67 O 0.34259 0.25954 0.40218 0.0
C68 C 0.29762 0.29297 0.69011 0.0
C69 C 0.22049 0.3264 0.44869 0.0
O70 O 0.36873 0.33309 0.46237 0.0
O71 O 0.31895 0.36624 0.41608 0.0
O72 O 0.32402 0.32102 0.69569 0.0
O73 O 0.28225 0.27723 0.56514 0.0
O74 O 0.2557 0.3403 0.4419 0.0
O75 O 0.21248 0.28919 0.45106 0.0
C76 C 0.19766 0.181 0.39441 0.0
O77 O 0.18587 0.21175 0.35059 0.0
O78 O 0.23611 0.18333 0.43713 0.0
C79 C 0.25818 0.25826 0.16819 0.0
Tb80 Tb 0.73299 0.29477 0.3214 0.0
C81 C 0.82628 0.32178 0.41509 0.0
Tb82 Tb 0.79285 0.2301 0.33877 0.0
O83 O 0.72415 0.30551 0.52922 0.0
O84 O 0.7613 0.26446 0.46585 0.0
O85 O 0.78964 0.33078 0.36256 0.0
C86 C 0.84751 0.17874 0.39017 0.0
O87 O 0.83359 0.28518 0.42907 0.0
C88 C 0.76213 0.24071 0.09123 0.0
C89 C 0.70038 0.20361 0.26537 0.0
O90 O 0.84741 0.20284 0.31214 0.0
O91 O 0.81742 0.18455 0.4432 0.0
O92 O 0.77299 0.20732 0.11648 0.0
O93 O 0.77117 0.26681 0.2032 0.0
O94 O 0.73727 0.19462 0.3131 0.0
O95 O 0.69271 0.23949 0.24554 0.0
C96 C 0.68278 0.34535 0.23057 0.0
O97 O 0.68056 0.30751 0.17451 0.0
O98 O 0.71334 0.35445 0.33624 0.0
C99 C 0.74732 0.27919 0.56556 0.0
Tb100 Tb 0.74337 0.74123 0.8544 0.0
C101 C 0.83194 0.72299 0.86464 0.0
Tb102 Tb 0.80964 0.81287 0.93746 0.0
O103 O 0.7311 0.73169 0.6296 0.0
O104 O 0.77302 0.77446 0.76116 0.0
O105 O 0.79646 0.70977 0.86972 0.0
C106 C 0.85345 0.8661 0.88069 0.0
O107 O 0.84192 0.76106 0.87558 0.0
C108 C 0.79581 0.79536 0.15713 0.0
C109 C 0.71903 0.82897 0.91951 0.0
O110 O 0.86726 0.83806 0.93751 0.0
O111 O 0.81537 0.86562 0.86629 0.0
O112 O 0.82263 0.82309 0.16304 0.0
O113 O 0.78025 0.77978 1.03197 0.0
O114 O 0.75482 0.84326 0.91878 0.0
O115 O 0.71015 0.79126 0.91403 0.0
C116 C 0.69742 0.68324 0.87229 0.0
O117 O 0.68481 0.71152 0.81509 0.0
O118 O 0.73574 0.68795 0.92068 0.0
C119 C 0.75743 0.7597 0.63594 0.0
Tb120 Tb 0.5439 0.54348 0.09732 0.0
C121 C 0.56477 0.45523 0.09244 0.0
Tb122 Tb 0.47433 0.4751 1.01309 0.0
O123 O 0.55302 0.55671 0.32255 0.0
O124 O 0.51172 0.51286 0.19079 0.0
O125 O 0.57699 0.49121 0.08804 0.0
C126 C 0.41825 0.43271 1.06056 0.0
O127 O 0.52678 0.44364 0.07664 0.0
C128 C 0.49303 0.48889 0.79563 0.0
C129 C 0.4542 0.56386 1.01258 0.0
O130 O 0.4447 0.41795 0.99831 0.0
O131 O 0.42299 0.4711 0.09132 0.0
O132 O 0.46605 0.4612 0.78855 0.0
O133 O 0.50687 0.50555 0.92061 0.0
O134 O 0.44085 0.52752 1.01066 0.0
O135 O 0.49233 0.57476 1.02997 0.0
C136 C 0.59936 0.5887 1.06245 0.0
O137 O 0.56968 0.60183 0.10968 0.0
O138 O 0.5981 0.55041 1.03681 0.0
C139 C 0.52641 0.52883 0.31612 0.0
Tb140 Tb 0.9815 0.54559 0.62784 0.0
C141 C 0.95548 0.45167 0.55447 0.0
Tb142 Tb 0.04647 0.48271 0.60268 0.0
O143 O 0.96818 0.55156 0.41493 0.0
O144 O 1.00929 0.51494 0.48167 0.0
O145 O 0.94736 0.48872 0.60617 0.0
C146 C 0.09917 0.43482 0.52215 0.0
O147 O 0.99078 0.44344 0.53025 0.0
C148 C 0.03286 0.50021 0.8509 0.0
C149 C 0.07236 0.57561 0.66518 0.0
O150 O 0.06073 0.42842 0.47322 0.0
O151 O 0.10764 0.46822 0.61455 0.0
O152 O 0.05781 0.47541 0.81485 0.0
O153 O 0.01867 0.51349 0.74839 0.0
O154 O 0.0801 0.53851 0.61611 0.0
O155 O 0.03747 0.58439 0.69127 0.0
C156 C 0.93653 0.60086 0.72306 0.0
O157 O 0.97512 0.60288 0.7606 0.0
O158 O 0.92323 0.56708 0.63538 0.0
C159 C 0.9935 0.52728 0.37826 0.0
C160 C 0.10805 0.13408 0.4504 0.0
C161 C 0.11973 0.09648 0.4611 0.0
C162 C 0.13323 0.16082 0.42325 0.0
C163 C 0.17118 0.15107 0.41111 0.0
H164 H 0.07893 0.1426 0.45982 0.0
H165 H 0.1233 0.18965 0.41537 0.0
S166 S 0.21562 0.05647 0.43225 0.0
N167 N 0.17087 0.05022 0.45578 0.0
N168 N 0.21958 0.10182 0.41093 0.0
C169 C 0.18344 0.11373 0.42276 0.0
C170 C 0.15727 0.086 0.44657 0.0
C171 C 0.11737 0.90602 0.50319 0.0
C172 C 0.07969 0.90449 0.53066 0.0
C173 C 0.14763 0.88378 0.55708 0.0
C174 C 0.14169 0.85973 0.64274 0.0
H175 H 0.12379 0.925 0.44086 0.0
H176 H 0.17616 0.88617 0.53397 0.0
S177 S 0.04836 0.84388 0.74279 0.0
N178 N 0.03797 0.87549 0.64576 0.0
N179 N 0.09485 0.83427 0.74812 0.0
C180 C 0.10398 0.85718 0.66872 0.0
C181 C 0.07298 0.87935 0.6123 0.0
C182 C 0.394 0.85118 0.9457 0.0
C183 C 0.35377 0.85926 0.93301 0.0
C184 C 0.42506 0.88175 0.97757 0.0
C185 C 0.4178 0.92224 1.00069 0.0
H186 H 0.40172 0.82079 0.92947 0.0
H187 H 0.45517 0.87344 0.98528 0.0
S188 S 0.3179 0.9601 0.98145 0.0
N189 N 0.30879 0.91148 0.94668 0.0
N190 N 0.36646 0.96835 1.00769 0.0
C191 C 0.37769 0.93075 0.98907 0.0
C192 C 0.34603 0.89959 0.95501 0.0
C193 C 0.37102 0.1231 0.25481 0.0
C194 C 0.41143 0.13312 0.26966 0.0
C195 C 0.34647 0.15175 0.29915 0.0
C196 C 0.36121 0.19179 0.35785 0.0
H197 H 0.35817 0.09284 0.20828 0.0
H198 H 0.31539 0.14245 0.28372 0.0
S199 S 0.46538 0.23314 0.41942 0.0
N200 N 0.46561 0.18542 0.34881 0.0
N201 N 0.41928 0.23971 0.42964 0.0
C202 C 0.40179 0.20214 0.37403 0.0
C203 C 0.42697 0.17269 0.33075 0.0
C204 C 0.86338 0.92032 0.61989 0.0
C205 C 0.88966 0.89825 0.55545 0.0
C206 C 0.8542 0.91154 0.73325 0.0
C207 C 0.87117 0.88058 0.78617 0.0
H208 H 0.8504 0.94512 0.58425 0.0
H209 H 0.83296 0.92854 0.77796 0.0
S210 S 0.94028 0.8126 0.65051 0.0
N211 N 0.93167 0.84331 0.54965 0.0
N212 N 0.91447 0.82686 0.7641 0.0
C213 C 0.89751 0.85818 0.72288 0.0
C214 C 0.9065 0.86682 0.60629 0.0
C215 C 0.88818 0.08282 0.45921 0.0
C216 C 0.92175 0.08022 0.40575 0.0
C217 C 0.86494 0.11533 0.45736 0.0
C218 C 0.87406 0.14622 0.40046 0.0
H219 H 0.88009 0.05988 0.50467 0.0
H220 H 0.83931 0.11596 0.49918 0.0
S221 S 0.95811 0.15341 0.24416 0.0
N222 N 0.96246 0.11152 0.29257 0.0
N223 N 0.91875 0.17201 0.28851 0.0
C224 C 0.90735 0.14392 0.34615 0.0
C225 C 0.93116 0.1111 0.34889 0.0
C226 C 0.67391 0.13161 0.21722 0.0
C227 C 0.66652 0.172 0.23452 0.0
C228 C 0.64308 0.10133 0.19053 0.0
C229 C 0.60318 0.10977 0.18198 0.0
H230 H 0.70391 0.12309 0.22358 0.0
H231 H 0.65083 0.07098 0.17813 0.0
S232 S 0.56732 0.21065 0.22078 0.0
N233 N 0.61566 0.21854 0.24085 0.0
N234 N 0.55824 0.16222 0.19311 0.0
C235 C 0.59533 0.15009 0.19959 0.0
C236 C 0.6267 0.18089 0.22497 0.0
C237 C 0.69745 0.89658 1.00088 0.0
C238 C 0.68741 0.85644 0.931 0.0
C239 C 0.66788 0.92224 1.02209 0.0
C240 C 0.62717 0.90894 0.97203 0.0
H241 H 0.72837 0.908 1.04344 0.0
H242 H 0.67704 0.95266 0.07984 0.0
S243 S 0.585 0.80739 0.77296 0.0
N244 N 0.63367 0.80509 0.80549 0.0
N245 N 0.57831 0.85358 0.84366 0.0
C246 C 0.61667 0.86932 0.8975 0.0
C247 C 0.64673 0.843 0.87758 0.0
C248 C 0.61004 0.644 0.96376 0.0
C249 C 0.62513 0.61225 1.01579 0.0
C250 C 0.63299 0.66533 0.90795 0.0
C251 C 0.67189 0.65602 0.90683 0.0
H252 H 0.58019 0.65205 0.96444 0.0
H253 H 0.6208 0.69026 0.87114 0.0
S254 S 0.72399 0.57439 1.0266 0.0
N255 N 0.67987 0.57096 1.05751 0.0
N256 N 0.72413 0.6124 0.95703 0.0
C257 C 0.68703 0.62386 0.9564 0.0
C258 C 0.6633 0.6016 1.01039 0.0
C259 C 0.61456 0.35949 0.11176 0.0
C260 C 0.65373 0.37338 0.18863 0.0
C261 C 0.58586 0.38604 0.08077 0.0
C262 C 0.59557 0.42741 0.12293 0.0
H263 H 0.60571 0.32793 0.07837 0.0
H264 H 0.5559 0.37404 1.02324 0.0
S265 S 0.69464 0.47863 0.32363 0.0
N266 N 0.70094 0.43097 0.30451 0.0
N267 N 0.64769 0.48073 0.24462 0.0
C268 C 0.635 0.4415 0.19752 0.0
C269 C 0.66388 0.41453 0.23079 0.0
C270 C 0.88315 0.42544 0.51039 0.0
C271 C 0.92339 0.41784 0.52194 0.0
C272 C 0.85247 0.3945 0.47692 0.0
C273 C 0.86022 0.35411 0.45529 0.0
H274 H 0.875 0.45569 0.52535 0.0
H275 H 0.82223 0.40251 0.46826 0.0
S276 S 0.96042 0.31736 0.47579 0.0
N277 N 0.96904 0.36604 0.50983 0.0
N278 N 0.91192 0.30855 0.44961 0.0
C279 C 0.90038 0.34602 0.4685 0.0
C280 C 0.93164 0.37754 0.5008 0.0
C281 C 0.84584 0.65243 0.78392 0.0
C282 C 0.8603 0.69278 0.83596 0.0
C283 C 0.87085 0.62303 0.74928 0.0
C284 C 0.91154 0.63251 0.7672 0.0
H285 H 0.81462 0.64332 0.76674 0.0
H286 H 0.85811 0.59257 0.70768 0.0
S287 S 0.96505 0.73308 0.90138 0.0
N288 N 0.91852 0.7404 0.90432 0.0
N289 N 0.96565 0.6848 0.84144 0.0
C290 C 0.9268 0.67245 0.82131 0.0
C291 C 0.90116 0.70264 0.85487 0.0
C292 C 0.36322 0.41839 0.31283 0.0
C293 C 0.37425 0.38147 0.33322 0.0
C294 C 0.37497 0.43347 0.21467 0.0
C295 C 0.39758 0.41173 0.13288 0.0
H296 H 0.34549 0.43575 0.37339 0.0
H297 H 0.36744 0.46295 0.2062 0.0
S298 S 0.42971 0.31115 0.13567 0.0
N299 N 0.40635 0.32195 0.25796 0.0
N300 N 0.42751 0.34999 1.06951 0.0
C301 C 0.40678 0.37369 0.14663 0.0
C302 C 0.39568 0.35875 0.24909 0.0
C303 C 0.38603 0.58209 0.91003 0.0
C304 C 0.42514 0.59385 0.99177 0.0
C305 C 0.35876 0.61024 0.88403 0.0
C306 C 0.36927 0.65108 0.94183 0.0
H307 H 0.37667 0.55098 0.86297 0.0
H308 H 0.32921 0.59993 0.81835 0.0
S309 S 0.46735 0.69741 0.16684 0.0
N310 N 0.47268 0.64937 0.1319 0.0
N311 N 0.42112 0.70188 0.08604 0.0
C312 C 0.4079 0.6632 1.02616 0.0
C313 C 0.43592 0.63469 1.05024 0.0
C314 C 0.17545 0.63076 0.73164 0.0
C315 C 0.16736 0.67044 0.73519 0.0
C316 C 0.14475 0.60058 0.7083 0.0
C317 C 0.10442 0.60863 0.69051 0.0
H318 H 0.2058 0.62274 0.74522 0.0
H319 H 0.15289 0.57062 0.70554 0.0
S320 S 0.06707 0.70801 0.69589 0.0
N321 N 0.11561 0.71612 0.7209 0.0
N322 N 0.05851 0.66005 0.68046 0.0
C323 C 0.09599 0.64836 0.696 0.0
C324 C 0.12718 0.67896 0.71725 0.0
C325 C 0.19882 0.39474 0.51249 0.0
C326 C 0.18876 0.35377 0.45727 0.0
C327 C 0.16943 0.42085 0.52996 0.0
C328 C 0.12887 0.40708 0.49042 0.0
H329 H 0.2297 0.40664 0.54642 0.0
H330 H 0.17863 0.45202 0.57653 0.0
S331 S 0.08644 0.30305 0.33216 0.0
N332 N 0.13499 0.30092 0.35733 0.0
N333 N 0.0799 0.35025 0.38847 0.0
C334 C 0.11821 0.36649 0.43053 0.0
C335 C 0.14813 0.33976 0.41458 0.0
C336 C 0.98176 0.96224 0.81316 0.0
C337 C 1.00423 0.99759 0.82441 0.0
C338 C 0.97397 0.95287 0.92964 0.0
C339 C 0.98859 0.97833 1.06177 0.0
H340 H 0.97078 0.9414 0.71445 0.0
H341 H 0.9567 0.92524 0.91624 0.0
S342 S 0.04578 0.07614 0.14334 0.0
N343 N 0.03889 0.05915 0.97683 0.0
N344 N 0.02445 0.04152 0.19379 0.0
C345 C 1.01047 0.01397 1.07329 0.0
C346 C 0.01822 0.02356 0.9552 0.0
C347 C 0.29764 0.75974 0.39125 0.0
C348 C 0.26671 0.75738 0.45578 0.0
C349 C 0.29009 0.7649 0.25715 0.0
C350 C 0.25125 0.76812 0.18204 0.0
H351 H 0.32812 0.75763 0.44487 0.0
H352 H 0.3149 0.76668 0.21258 0.0
S353 S 0.15948 0.76288 0.30211 0.0
N354 N 0.19558 0.75776 0.43197 0.0
N355 N 0.18128 0.76787 0.18221 0.0
C356 C 0.22002 0.76558 0.24518 0.0
C357 C 0.22774 0.76016 0.38128 0.0
C358 C 0.5344 1.00156 0.7063 0.0
C359 C 0.50074 0.02076 0.72892 0.0
C360 C 0.5435 0.99536 0.57864 0.0
C361 C 0.5194 1.00819 0.4688 0.0
H362 H 0.55415 0.99179 0.78815 0.0
H363 H 0.56989 0.98064 0.56632 0.0
S364 S 0.4258 0.05645 0.47169 0.0
N365 N 0.44192 0.05041 0.62795 0.0
N366 N 0.45898 0.03845 0.38963 0.0
C367 C 0.48525 0.02657 0.48951 0.0
C368 C 0.47596 0.03289 0.61905 0.0
C369 C 0.30258 0.2913 1.05949 0.0
C370 C 0.26738 0.26853 1.04743 0.0
C371 C 0.31209 0.29892 0.94323 0.0
C372 C 0.28687 0.2839 0.81052 0.0
H373 H 0.32311 0.30269 0.15895 0.0
H374 H 0.33961 0.31646 0.95724 0.0
S375 S 0.18908 0.22628 0.72627 0.0
N376 N 0.20592 0.23338 0.89337 0.0
N377 N 0.22374 0.24775 0.67663 0.0
C378 C 0.25118 0.26193 0.798 0.0
C379 C 0.24149 0.25425 0.91594 0.0
C380 C 0.75111 0.28788 0.93929 0.0
C381 C 0.75737 0.2493 0.95493 0.0
C382 C 0.7486 0.29713 0.81328 0.0
C383 C 0.753 0.26844 0.69847 0.0
H384 H 0.74813 0.31116 1.02505 0.0
H385 H 0.74331 0.32718 0.80589 0.0
S386 S 0.76759 0.16252 0.68249 0.0
N387 N 0.76626 0.18167 0.84211 0.0
N388 N 0.76197 0.19949 0.607 0.0
C389 C 0.75899 0.22976 0.71224 0.0
C390 C 0.76099 0.22009 0.83993 0.0
C391 C 0.803 0.79058 0.52543 0.0
C392 C 0.76652 0.77031 0.51541 0.0
C393 C 0.8122 0.79833 0.40877 0.0
C394 C 0.7854 0.78594 0.27772 0.0
H395 H 0.82484 0.79976 0.62326 0.0
H396 H 0.84076 0.81372 0.42096 0.0
S397 S 0.68421 0.73577 0.20007 0.0
N398 N 0.7024 0.74046 0.36554 0.0
N399 N 0.71967 0.75509 0.14823 0.0
C400 C 0.74856 0.76646 0.2674 0.0
C401 C 0.73917 0.75865 0.38571 0.0
C402 C 0.51728 0.53723 0.67999 0.0
C403 C 0.50371 0.49847 0.67605 0.0
C404 C 0.5241 0.54677 0.56253 0.0
C405 C 0.51746 0.51799 0.43674 0.0
H406 H 0.52189 0.56049 0.77343 0.0
H407 H 0.53432 0.57706 0.57 0.0
S408 S 0.49032 0.41077 0.38233 0.0
N409 N 0.48899 0.43027 0.54156 0.0
N410 N 0.50183 0.44817 0.3224 0.0
C411 C 0.50549 0.47891 0.43365 0.0
C412 C 0.49865 0.46919 0.5529 0.0
C413 C 0.04554 0.49388 0.09283 0.0
C414 C 0.02202 0.50752 0.98393 0.0
C415 C 0.03603 0.49955 0.21965 0.0
C416 C 1.00252 0.51901 0.24226 0.0
H417 H 0.07177 0.47886 0.08039 0.0
H418 H 0.05531 0.4891 0.3008 0.0
S419 S 0.9294 0.55751 0.9877 0.0
N420 N 0.96256 0.5393 0.90589 0.0
N421 N 0.94468 0.55025 0.14258 0.0
C422 C 0.97838 0.53211 0.13338 0.0
C423 C 0.98811 0.52633 1.00473 0.0
loop_
_geom_bond_atom_site_label_1
_geom_bond_atom_site_label_2
_geom_bond_distance
_geom_bond_site_symmetry_2
_ccdc_geom_bond_type
Tb0 O3 2.453 . S
Tb0 O4 2.596 1_445 S
Tb0 O5 2.374 1_545 S
Tb0 O13 2.343 . S
Tb0 O15 2.353 1_455 S
Tb0 O17 2.427 . S
Tb0 O18 2.513 . S
C1 O5 1.251 . S
C1 O7 1.263 . S
Tb2 O4 2.343 . S
Tb2 O7 2.353 1_655 S
Tb2 O10 2.427 . S
Tb2 O11 2.513 . S
Tb2 O12 2.453 . S
Tb2 O13 2.596 1_665 S
Tb2 O14 2.374 1_565 S
O3 Tb0 2.453 . S
O3 C19 1.245 . S
O4 Tb0 2.596 1_665 S
O4 Tb2 2.343 . S
O4 C19 1.259 1_665 S
O5 Tb0 2.374 1_565 S
O5 C1 1.251 . S
C6 O10 1.275 . S
C6 O11 1.246 . S
O7 C1 1.263 . S
O7 Tb2 2.353 1_455 S
C8 O12 1.257 . S
C8 O13 1.256 1_665 S
C9 O14 1.250 . S
C9 O15 1.263 . S
O10 Tb2 2.427 . S
O10 C6 1.275 . S
O11 Tb2 2.513 . S
O11 C6 1.246 . S
O12 Tb2 2.453 . S
O12 C8 1.257 . S
O13 Tb0 2.343 . S
O13 Tb2 2.596 1_445 S
O13 C8 1.256 1_445 S
O14 Tb2 2.374 1_545 S
O14 C9 1.250 . S
O15 Tb0 2.353 1_655 S
O15 C9 1.263 . S
C16 O17 1.275 . S
C16 O18 1.246 . S
O17 Tb0 2.427 . S
O17 C16 1.275 . S
O18 Tb0 2.513 . S
O18 C16 1.246 . S
C19 O3 1.245 . S
C19 O4 1.259 1_445 S
Tb20 O23 2.453 . S
Tb20 O24 2.596 . S
Tb20 O25 2.374 . S
Tb20 O33 2.343 . S
Tb20 O35 2.353 . S
Tb20 O37 2.427 . S
Tb20 O38 2.513 . S
C21 O25 1.251 . S
C21 O27 1.263 . S
Tb22 O24 2.343 . S
Tb22 O27 2.353 . S
Tb22 O30 2.427 . S
Tb22 O31 2.513 . S
Tb22 O32 2.453 . S
Tb22 O33 2.596 . S
Tb22 O34 2.374 . S
O23 Tb20 2.453 . S
O23 C39 1.245 . S
O24 Tb20 2.596 . S
O24 Tb22 2.343 . S
O24 C39 1.259 . S
O25 Tb20 2.374 . S
O25 C21 1.251 . S
C26 O30 1.275 . S
C26 O31 1.246 . S
O27 C21 1.263 . S
O27 Tb22 2.353 . S
C28 O32 1.245 . S
C28 O33 1.259 . S
C29 O34 1.250 . S
C29 O35 1.263 . S
O30 Tb22 2.427 . S
O30 C26 1.275 . S
O31 Tb22 2.513 . S
O31 C26 1.246 . S
O32 Tb22 2.453 . S
O32 C28 1.245 . S
O33 Tb20 2.343 . S
O33 Tb22 2.596 . S
O33 C28 1.259 . S
O34 Tb22 2.374 . S
O34 C29 1.250 . S
O35 Tb20 2.353 . S
O35 C29 1.263 . S
C36 O37 1.275 . S
C36 O38 1.246 . S
O37 Tb20 2.427 . S
O37 C36 1.275 . S
O38 Tb20 2.513 . S
O38 C36 1.246 . S
C39 O23 1.245 . S
C39 O24 1.259 . S
Tb40 O43 2.453 . S
Tb40 O44 2.596 1_545 S
Tb40 O45 2.374 1_545 S
Tb40 O53 2.343 1_556 S
Tb40 O55 2.353 1_556 S
Tb40 O57 2.427 1_556 S
Tb40 O58 2.513 1_556 S
C41 O45 1.251 . S
C41 O47 1.263 . S
Tb42 O44 2.343 1_554 S
Tb42 O47 2.353 1_554 S
Tb42 O50 2.427 1_554 S
Tb42 O51 2.513 1_554 S
Tb42 O52 2.453 . S
Tb42 O53 2.596 1_565 S
Tb42 O54 2.374 1_565 S
O43 Tb40 2.453 . S
O43 C59 1.245 1_545 S
O44 Tb40 2.596 1_565 S
O44 Tb42 2.343 1_556 S
O44 C59 1.259 . S
O45 Tb40 2.374 1_565 S
O45 C41 1.251 . S
C46 O50 1.275 . S
C46 O51 1.246 . S
O47 C41 1.263 . S
O47 Tb42 2.353 1_556 S
C48 O52 1.245 1_545 S
C48 O53 1.259 . S
C49 O54 1.250 . S
C49 O55 1.263 . S
O50 Tb42 2.427 1_556 S
O50 C46 1.275 . S
O51 Tb42 2.513 1_556 S
O51 C46 1.246 . S
O52 Tb42 2.453 . S
O52 C48 1.245 1_565 S
O53 Tb40 2.343 1_554 S
O53 Tb42 2.596 1_545 S
O53 C48 1.259 . S
O54 Tb42 2.374 1_545 S
O54 C49 1.250 . S
O55 Tb40 2.353 1_554 S
O55 C49 1.263 . S
C56 O57 1.275 . S
C56 O58 1.246 . S
O57 Tb40 2.427 1_554 S
O57 C56 1.275 . S
O58 Tb40 2.513 1_554 S
O58 C56 1.246 . S
C59 O43 1.245 1_565 S
C59 O44 1.259 . S
Tb60 O63 2.453 1_554 S
Tb60 O64 2.596 . S
Tb60 O65 2.374 . S
Tb60 O73 2.343 . S
Tb60 O75 2.353 . S
Tb60 O77 2.427 . S
Tb60 O78 2.513 . S
C61 O65 1.251 . S
C61 O67 1.263 . S
Tb62 O64 2.343 . S
Tb62 O67 2.353 . S
Tb62 O70 2.427 . S
Tb62 O71 2.513 . S
Tb62 O72 2.453 . S
Tb62 O73 2.596 . S
Tb62 O74 2.374 . S
O63 Tb60 2.453 1_556 S
O63 C79 1.245 1_556 S
O64 Tb60 2.596 . S
O64 Tb62 2.343 . S
O64 C79 1.259 . S
O65 Tb60 2.374 . S
O65 C61 1.251 . S
C66 O70 1.275 . S
C66 O71 1.246 . S
O67 C61 1.263 . S
O67 Tb62 2.353 . S
C68 O72 1.245 . S
C68 O73 1.259 . S
C69 O74 1.250 . S
C69 O75 1.263 . S
O70 Tb62 2.427 . S
O70 C66 1.275 . S
O71 Tb62 2.513 . S
O71 C66 1.246 . S
O72 Tb62 2.453 . S
O72 C68 1.245 . S
O73 Tb60 2.343 . S
O73 Tb62 2.596 . S
O73 C68 1.259 . S
O74 Tb62 2.374 . S
O74 C69 1.250 . S
O75 Tb60 2.353 . S
O75 C69 1.263 . S
C76 O77 1.275 . S
C76 O78 1.246 . S
O77 Tb60 2.427 . S
O77 C76 1.275 . S
O78 Tb60 2.513 . S
O78 C76 1.246 . S
C79 O63 1.245 1_554 S
C79 O64 1.259 . S
Tb80 O83 2.453 . S
Tb80 O84 2.596 . S
Tb80 O85 2.374 . S
Tb80 O93 2.343 . S
Tb80 O95 2.353 . S
Tb80 O97 2.427 . S
Tb80 O98 2.513 . S
C81 O85 1.251 . S
C81 O87 1.263 . S
Tb82 O84 2.343 . S
Tb82 O87 2.353 . S
Tb82 O90 2.427 . S
Tb82 O91 2.513 . S
Tb82 O92 2.453 . S
Tb82 O93 2.596 . S
Tb82 O94 2.374 . S
O83 Tb80 2.453 . S
O83 C99 1.245 . S
O84 Tb80 2.596 . S
O84 Tb82 2.343 . S
O84 C99 1.259 . S
O85 Tb80 2.374 . S
O85 C81 1.251 . S
C86 O90 1.275 . S
C86 O91 1.246 . S
O87 C81 1.263 . S
O87 Tb82 2.353 . S
C88 O92 1.245 . S
C88 O93 1.259 . S
C89 O94 1.250 . S
C89 O95 1.263 . S
O90 Tb82 2.427 . S
O90 C86 1.275 . S
O91 Tb82 2.513 . S
O91 C86 1.246 . S
O92 Tb82 2.453 . S
O92 C88 1.245 . S
O93 Tb80 2.343 . S
O93 Tb82 2.596 . S
O93 C88 1.259 . S
O94 Tb82 2.374 . S
O94 C89 1.250 . S
O95 Tb80 2.353 . S
O95 C89 1.263 . S
C96 O97 1.275 . S
C96 O98 1.246 . S
O97 Tb80 2.427 . S
O97 C96 1.275 . S
O98 Tb80 2.513 . S
O98 C96 1.246 . S
C99 O83 1.245 . S
C99 O84 1.259 . S
Tb100 O103 2.453 . S
Tb100 O104 2.596 . S
Tb100 O105 2.374 . S
Tb100 O113 2.343 . S
Tb100 O115 2.353 . S
Tb100 O117 2.427 . S
Tb100 O118 2.513 . S
C101 O105 1.251 . S
C101 O107 1.263 . S
Tb102 O104 2.343 . S
Tb102 O107 2.353 . S
Tb102 O110 2.427 . S
Tb102 O111 2.513 . S
Tb102 O112 2.453 1_556 S
Tb102 O113 2.596 . S
Tb102 O114 2.374 . S
O103 Tb100 2.453 . S
O103 C119 1.245 . S
O104 Tb100 2.596 . S
O104 Tb102 2.343 . S
O104 C119 1.259 . S
O105 Tb100 2.374 . S
O105 C101 1.251 . S
C106 O110 1.275 . S
C106 O111 1.246 . S
O107 C101 1.263 . S
O107 Tb102 2.353 . S
C108 O112 1.245 1_556 S
C108 O113 1.259 . S
C109 O114 1.250 . S
C109 O115 1.263 . S
O110 Tb102 2.427 . S
O110 C106 1.275 . S
O111 Tb102 2.513 . S
O111 C106 1.246 . S
O112 Tb102 2.453 1_554 S
O112 C108 1.245 1_554 S
O113 Tb100 2.343 . S
O113 Tb102 2.596 . S
O113 C108 1.259 . S
O114 Tb102 2.374 . S
O114 C109 1.250 . S
O115 Tb100 2.353 . S
O115 C109 1.263 . S
C116 O117 1.275 . S
C116 O118 1.246 . S
O117 Tb100 2.427 . S
O117 C116 1.275 . S
O118 Tb100 2.513 . S
O118 C116 1.246 . S
C119 O103 1.245 . S
C119 O104 1.259 . S
Tb120 O123 2.453 . S
Tb120 O124 2.596 . S
Tb120 O125 2.374 . S
Tb120 O133 2.343 1_554 S
Tb120 O135 2.353 . S
Tb120 O137 2.427 1_554 S
Tb120 O138 2.513 1_554 S
C121 O125 1.251 . S
C121 O127 1.263 1_554 S
Tb122 O124 2.343 1_556 S
Tb122 O127 2.353 . S
Tb122 O130 2.427 1_556 S
Tb122 O131 2.513 1_556 S
Tb122 O132 2.453 . S
Tb122 O133 2.596 . S
Tb122 O134 2.374 . S
O123 Tb120 2.453 . S
O123 C139 1.245 . S
O124 Tb120 2.596 . S
O124 Tb122 2.343 1_554 S
O124 C139 1.259 . S
O125 Tb120 2.374 . S
O125 C121 1.251 . S
C126 O130 1.275 . S
C126 O131 1.246 . S
O127 C121 1.263 1_556 S
O127 Tb122 2.353 . S
C128 O132 1.245 . S
C128 O133 1.259 . S
C129 O134 1.250 . S
C129 O135 1.263 1_556 S
O130 Tb122 2.427 1_554 S
O130 C126 1.275 . S
O131 Tb122 2.513 1_554 S
O131 C126 1.246 . S
O132 Tb122 2.453 . S
O132 C128 1.245 . S
O133 Tb120 2.343 1_556 S
O133 Tb122 2.596 . S
O133 C128 1.259 . S
O134 Tb122 2.374 . S
O134 C129 1.250 . S
O135 Tb120 2.353 . S
O135 C129 1.263 1_554 S
C136 O137 1.275 . S
C136 O138 1.246 . S
O137 Tb120 2.427 1_556 S
O137 C136 1.275 . S
O138 Tb120 2.513 1_556 S
O138 C136 1.246 . S
C139 O123 1.245 . S
C139 O124 1.259 . S
Tb140 O143 2.453 . S
Tb140 O144 2.596 1_655 S
Tb140 O145 2.374 . S
Tb140 O153 2.343 . S
Tb140 O155 2.353 1_655 S
Tb140 O157 2.427 . S
Tb140 O158 2.513 . S
C141 O145 1.251 . S
C141 O147 1.263 . S
Tb142 O144 2.343 . S
Tb142 O147 2.353 1_455 S
Tb142 O150 2.427 . S
Tb142 O151 2.513 . S
Tb142 O152 2.453 . S
Tb142 O153 2.596 1_455 S
Tb142 O154 2.374 . S
O143 Tb140 2.453 . S
O143 C159 1.245 . S
O144 Tb140 2.596 1_455 S
O144 Tb142 2.343 . S
O144 C159 1.259 1_455 S
O145 Tb140 2.374 . S
O145 C141 1.251 . S
C146 O150 1.275 . S
C146 O151 1.246 . S
O147 C141 1.263 . S
O147 Tb142 2.353 1_655 S
C148 O152 1.245 . S
C148 O153 1.259 1_455 S
C149 O154 1.250 . S
C149 O155 1.263 . S
O150 Tb142 2.427 . S
O150 C146 1.275 . S
O151 Tb142 2.513 . S
O151 C146 1.246 . S
O152 Tb142 2.453 . S
O152 C148 1.245 . S
O153 Tb140 2.343 . S
O153 Tb142 2.596 1_655 S
O153 C148 1.259 1_655 S
O154 Tb142 2.374 . S
O154 C149 1.250 . S
O155 Tb140 2.353 1_455 S
O155 C149 1.263 . S
C156 O157 1.275 . S
C156 O158 1.246 . S
O157 Tb140 2.427 . S
O157 C156 1.275 . S
O158 Tb140 2.513 . S
O158 C156 1.246 . S
C159 O143 1.245 . S
C159 O144 1.259 1_655 S
C160 C161 1.369 . S
C160 C162 1.419 . S
C160 H164 0.930 . S
C161 C160 1.369 . S
C161 C170 1.429 . S
C162 C160 1.419 . S
C162 C163 1.363 . S
C162 H165 0.929 . S
C163 C162 1.363 . S
C163 C169 1.428 . S
H164 C160 0.930 . S
H165 C162 0.929 . S
S166 N167 1.613 . S
S166 N168 1.610 . S
N167 S166 1.613 . S
N167 C170 1.350 . S
N168 S166 1.610 . S
N168 C169 1.351 . S
C169 C163 1.428 . S
C169 N168 1.351 . S
C169 C170 1.434 . S
C170 C161 1.429 . S
C170 N167 1.350 . S
C170 C169 1.434 . S
C171 C172 1.369 . S
C171 C173 1.419 . S
C171 H175 0.930 . S
C172 C171 1.369 . S
C172 C181 1.429 . S
C173 C171 1.419 . S
C173 C174 1.363 . S
C173 H176 0.929 . S
C174 C173 1.363 . S
C174 C180 1.428 . S
H175 C171 0.930 . S
H176 C173 0.929 . S
S177 N178 1.613 . S
S177 N179 1.610 . S
N178 S177 1.613 . S
N178 C181 1.350 . S
N179 S177 1.610 . S
N179 C180 1.351 . S
C180 C174 1.428 . S
C180 N179 1.351 . S
C180 C181 1.434 . S
C181 C172 1.429 . S
C181 N178 1.350 . S
C181 C180 1.434 . S
C182 C183 1.369 . S
C182 C184 1.419 . S
C182 H186 0.930 . S
C183 C182 1.369 . S
C183 C192 1.429 . S
C184 C182 1.419 . S
C184 C185 1.363 . S
C184 H187 0.929 . S
C185 C184 1.363 . S
C185 C191 1.428 . S
H186 C182 0.930 . S
H187 C184 0.929 . S
S188 N189 1.613 . S
S188 N190 1.610 . S
N189 S188 1.613 . S
N189 C192 1.350 . S
N190 S188 1.610 . S
N190 C191 1.351 . S
C191 C185 1.428 . S
C191 N190 1.351 . S
C191 C192 1.434 . S
C192 C183 1.429 . S
C192 N189 1.350 . S
C192 C191 1.434 . S
C193 C194 1.369 . S
C193 C195 1.419 . S
C193 H197 0.930 . S
C194 C193 1.369 . S
C194 C203 1.429 . S
C195 C193 1.419 . S
C195 C196 1.363 . S
C195 H198 0.929 . S
C196 C195 1.363 . S
C196 C202 1.428 . S
H197 C193 0.930 . S
H198 C195 0.929 . S
S199 N200 1.613 . S
S199 N201 1.610 . S
N200 S199 1.613 . S
N200 C203 1.350 . S
N201 S199 1.610 . S
N201 C202 1.351 . S
C202 C196 1.428 . S
C202 N201 1.351 . S
C202 C203 1.434 . S
C203 C194 1.429 . S
C203 N200 1.350 . S
C203 C202 1.434 . S
C204 C205 1.369 . S
C204 C206 1.419 . S
C204 H208 0.930 . S
C205 C204 1.369 . S
C205 C214 1.429 . S
C206 C204 1.419 . S
C206 C207 1.363 . S
C206 H209 0.929 . S
C207 C206 1.363 . S
C207 C213 1.428 . S
H208 C204 0.930 . S
H209 C206 0.929 . S
S210 N211 1.613 . S
S210 N212 1.610 . S
N211 S210 1.613 . S
N211 C214 1.350 . S
N212 S210 1.610 . S
N212 C213 1.351 . S
C213 C207 1.428 . S
C213 N212 1.351 . S
C213 C214 1.434 . S
C214 C205 1.429 . S
C214 N211 1.350 . S
C214 C213 1.434 . S
C215 C216 1.369 . S
C215 C217 1.419 . S
C215 H219 0.930 . S
C216 C215 1.369 . S
C216 C225 1.429 . S
C217 C215 1.419 . S
C217 C218 1.363 . S
C217 H220 0.929 . S
C218 C217 1.363 . S
C218 C224 1.428 . S
H219 C215 0.930 . S
H220 C217 0.929 . S
S221 N222 1.613 . S
S221 N223 1.610 . S
N222 S221 1.613 . S
N222 C225 1.350 . S
N223 S221 1.610 . S
N223 C224 1.351 . S
C224 C218 1.428 . S
C224 N223 1.351 . S
C224 C225 1.434 . S
C225 C216 1.429 . S
C225 N222 1.350 . S
C225 C224 1.434 . S
C226 C227 1.369 . S
C226 C228 1.419 . S
C226 H230 0.930 . S
C227 C226 1.369 . S
C227 C236 1.429 . S
C228 C226 1.419 . S
C228 C229 1.363 . S
C228 H231 0.929 . S
C229 C228 1.363 . S
C229 C235 1.428 . S
H230 C226 0.930 . S
H231 C228 0.929 . S
S232 N233 1.613 . S
S232 N234 1.610 . S
N233 S232 1.613 . S
N233 C236 1.350 . S
N234 S232 1.610 . S
N234 C235 1.351 . S
C235 C229 1.428 . S
C235 N234 1.351 . S
C235 C236 1.434 . S
C236 C227 1.429 . S
C236 N233 1.350 . S
C236 C235 1.434 . S
C237 C238 1.369 . S
C237 C239 1.419 . S
C237 H241 0.930 . S
C238 C237 1.369 . S
C238 C247 1.429 . S
C239 C237 1.419 . S
C239 C240 1.363 . S
C239 H242 0.929 . S
C240 C239 1.363 . S
C240 C246 1.428 . S
H241 C237 0.930 . S
H242 C239 0.929 . S
S243 N244 1.613 . S
S243 N245 1.610 . S
N244 S243 1.613 . S
N244 C247 1.350 . S
N245 S243 1.610 . S
N245 C246 1.351 . S
C246 C240 1.428 . S
C246 N245 1.351 . S
C246 C247 1.434 . S
C247 C238 1.429 . S
C247 N244 1.350 . S
C247 C246 1.434 . S
C248 C249 1.369 . S
C248 C250 1.419 . S
C248 H252 0.930 . S
C249 C248 1.369 . S
C249 C258 1.429 . S
C250 C248 1.419 . S
C250 C251 1.363 . S
C250 H253 0.929 . S
C251 C250 1.363 . S
C251 C257 1.428 . S
H252 C248 0.930 . S
H253 C250 0.929 . S
S254 N255 1.613 . S
S254 N256 1.610 . S
N255 S254 1.613 . S
N255 C258 1.350 . S
N256 S254 1.610 . S
N256 C257 1.351 . S
C257 C251 1.428 . S
C257 N256 1.351 . S
C257 C258 1.434 . S
C258 C249 1.429 . S
C258 N255 1.350 . S
C258 C257 1.434 . S
C259 C260 1.369 1_556 S
C259 C261 1.419 . S
C259 H263 0.930 . S
C260 C259 1.369 1_554 S
C260 C269 1.429 . S
C261 C259 1.419 . S
C261 C262 1.363 1_556 S
C261 H264 0.929 . S
C262 C261 1.363 1_554 S
C262 C268 1.428 . S
H263 C259 0.930 . S
H264 C261 0.929 . S
S265 N266 1.613 . S
S265 N267 1.610 . S
N266 S265 1.613 . S
N266 C269 1.350 . S
N267 S265 1.610 . S
N267 C268 1.351 . S
C268 C262 1.428 . S
C268 N267 1.351 . S
C268 C269 1.434 . S
C269 C260 1.429 . S
C269 N266 1.350 . S
C269 C268 1.434 . S
C270 C271 1.369 . S
C270 C272 1.419 . S
C270 H274 0.930 . S
C271 C270 1.369 . S
C271 C280 1.429 . S
C272 C270 1.419 . S
C272 C273 1.363 . S
C272 H275 0.929 . S
C273 C272 1.363 . S
C273 C279 1.428 . S
H274 C270 0.930 . S
H275 C272 0.929 . S
S276 N277 1.613 . S
S276 N278 1.610 . S
N277 S276 1.613 . S
N277 C280 1.350 . S
N278 S276 1.610 . S
N278 C279 1.351 . S
C279 C273 1.428 . S
C279 N278 1.351 . S
C279 C280 1.434 . S
C280 C271 1.429 . S
C280 N277 1.350 . S
C280 C279 1.434 . S
C281 C282 1.369 . S
C281 C283 1.419 . S
C281 H285 0.930 . S
C282 C281 1.369 . S
C282 C291 1.429 . S
C283 C281 1.419 . S
C283 C284 1.363 . S
C283 H286 0.929 . S
C284 C283 1.363 . S
C284 C290 1.428 . S
H285 C281 0.930 . S
H286 C283 0.929 . S
S287 N288 1.613 . S
S287 N289 1.610 . S
N288 S287 1.613 . S
N288 C291 1.350 . S
N289 S287 1.610 . S
N289 C290 1.351 . S
C290 C284 1.428 . S
C290 N289 1.351 . S
C290 C291 1.434 . S
C291 C282 1.429 . S
C291 N288 1.350 . S
C291 C290 1.434 . S
C292 C293 1.369 . S
C292 C294 1.419 . S
C292 H296 0.930 . S
C293 C292 1.369 . S
C293 C302 1.429 . S
C294 C292 1.419 . S
C294 C295 1.363 . S
C294 H297 0.929 . S
C295 C294 1.363 . S
C295 C301 1.428 . S
H296 C292 0.930 . S
H297 C294 0.929 . S
S298 N299 1.613 . S
S298 N300 1.610 . S
N299 S298 1.613 . S
N299 C302 1.350 . S
N300 S298 1.610 . S
N300 C301 1.351 . S
C301 C295 1.428 . S
C301 N300 1.351 . S
C301 C302 1.434 . S
C302 C293 1.429 . S
C302 N299 1.350 . S
C302 C301 1.434 . S
C303 C304 1.369 . S
C303 C305 1.419 . S
C303 H307 0.930 . S
C304 C303 1.369 . S
C304 C313 1.429 . S
C305 C303 1.419 . S
C305 C306 1.363 . S
C305 H308 0.929 . S
C306 C305 1.363 . S
C306 C312 1.428 . S
H307 C303 0.930 . S
H308 C305 0.929 . S
S309 N310 1.613 . S
S309 N311 1.610 . S
N310 S309 1.613 . S
N310 C313 1.350 . S
N311 S309 1.610 . S
N311 C312 1.351 . S
C312 C306 1.428 . S
C312 N311 1.351 . S
C312 C313 1.434 . S
C313 C304 1.429 . S
C313 N310 1.350 . S
C313 C312 1.434 . S
C314 C315 1.369 . S
C314 C316 1.419 . S
C314 H318 0.930 . S
C315 C314 1.369 . S
C315 C324 1.429 . S
C316 C314 1.419 . S
C316 C317 1.363 . S
C316 H319 0.929 . S
C317 C316 1.363 . S
C317 C323 1.428 . S
H318 C314 0.930 . S
H319 C316 0.929 . S
S320 N321 1.613 . S
S320 N322 1.610 . S
N321 S320 1.613 . S
N321 C324 1.350 . S
N322 S320 1.610 . S
N322 C323 1.351 . S
C323 C317 1.428 . S
C323 N322 1.351 . S
C323 C324 1.434 . S
C324 C315 1.429 . S
C324 N321 1.350 . S
C324 C323 1.434 . S
C325 C326 1.369 . S
C325 C327 1.419 . S
C325 H329 0.930 . S
C326 C325 1.369 . S
C326 C335 1.429 . S
C327 C325 1.419 . S
C327 C328 1.363 . S
C327 H330 0.929 . S
C328 C327 1.363 . S
C328 C334 1.428 . S
H329 C325 0.930 . S
H330 C327 0.929 . S
S331 N332 1.613 . S
S331 N333 1.610 . S
N332 S331 1.613 . S
N332 C335 1.350 . S
N333 S331 1.610 . S
N333 C334 1.351 . S
C334 C328 1.428 . S
C334 N333 1.351 . S
C334 C335 1.434 . S
C335 C326 1.429 . S
C335 N332 1.350 . S
C335 C334 1.434 . S
C336 C337 1.369 1_545 S
C336 C338 1.419 1_556 S
C336 H340 0.930 . S
C337 C336 1.369 1_565 S
C337 C346 1.429 1_655 S
C338 C336 1.419 1_554 S
C338 C339 1.363 1_655 S
C338 H341 0.929 . S
C339 C338 1.363 1_455 S
C339 C345 1.428 1_545 S
H340 C336 0.930 . S
H341 C338 0.929 . S
S342 N343 1.613 1_554 S
S342 N344 1.610 . S
N343 S342 1.613 1_556 S
N343 C346 1.350 . S
N344 S342 1.610 . S
N344 C345 1.351 . S
C345 C339 1.428 1_565 S
C345 N344 1.351 . S
C345 C346 1.434 1_554 S
C346 C337 1.429 1_455 S
C346 N343 1.350 . S
C346 C345 1.434 1_556 S
C347 C348 1.369 . S
C347 C349 1.419 . S
C347 H351 0.930 . S
C348 C347 1.369 . S
C348 C357 1.429 . S
C349 C347 1.419 . S
C349 C350 1.363 . S
C349 H352 0.929 . S
C350 C349 1.363 . S
C350 C356 1.428 . S
H351 C347 0.930 . S
H352 C349 0.929 . S
S353 N354 1.613 . S
S353 N355 1.610 . S
N354 S353 1.613 . S
N354 C357 1.350 . S
N355 S353 1.610 . S
N355 C356 1.351 . S
C356 C350 1.428 . S
C356 N355 1.351 . S
C356 C357 1.434 . S
C357 C348 1.429 . S
C357 N354 1.350 . S
C357 C356 1.434 . S
C358 C359 1.369 . S
C358 C360 1.419 . S
C358 H362 0.930 . S
C359 C358 1.369 . S
C359 C368 1.429 1_565 S
C360 C358 1.419 . S
C360 C361 1.363 1_565 S
C360 H363 0.929 . S
C361 C360 1.363 1_545 S
C361 C367 1.428 . S
H362 C358 0.930 . S
H363 C360 0.929 . S
S364 N365 1.613 . S
S364 N366 1.610 . S
N365 S364 1.613 . S
N365 C368 1.350 . S
N366 S364 1.610 . S
N366 C367 1.351 . S
C367 C361 1.428 . S
C367 N366 1.351 . S
C367 C368 1.434 . S
C368 C359 1.429 1_545 S
C368 N365 1.350 . S
C368 C367 1.434 . S
C369 C370 1.369 . S
C369 C371 1.419 . S
C369 H373 0.930 . S
C370 C369 1.369 . S
C370 C379 1.429 . S
C371 C369 1.419 . S
C371 C372 1.363 . S
C371 H374 0.929 . S
C372 C371 1.363 . S
C372 C378 1.428 . S
H373 C369 0.930 . S
H374 C371 0.929 . S
S375 N376 1.613 . S
S375 N377 1.610 . S
N376 S375 1.613 . S
N376 C379 1.350 . S
N377 S375 1.610 . S
N377 C378 1.351 . S
C378 C372 1.428 . S
C378 N377 1.351 . S
C378 C379 1.434 . S
C379 C370 1.429 . S
C379 N376 1.350 . S
C379 C378 1.434 . S
C380 C381 1.369 . S
C380 C382 1.419 . S
C380 H384 0.930 . S
C381 C380 1.369 . S
C381 C390 1.429 . S
C382 C380 1.419 . S
C382 C383 1.363 . S
C382 H385 0.929 . S
C383 C382 1.363 . S
C383 C389 1.428 . S
H384 C380 0.930 . S
H385 C382 0.929 . S
S386 N387 1.613 . S
S386 N388 1.610 . S
N387 S386 1.613 . S
N387 C390 1.350 . S
N388 S386 1.610 . S
N388 C389 1.351 . S
C389 C383 1.428 . S
C389 N388 1.351 . S
C389 C390 1.434 . S
C390 C381 1.429 . S
C390 N387 1.350 . S
C390 C389 1.434 . S
C391 C392 1.369 . S
C391 C393 1.419 . S
C391 H395 0.930 . S
C392 C391 1.369 . S
C392 C401 1.429 . S
C393 C391 1.419 . S
C393 C394 1.363 . S
C393 H396 0.929 . S
C394 C393 1.363 . S
C394 C400 1.428 . S
H395 C391 0.930 . S
H396 C393 0.929 . S
S397 N398 1.613 . S
S397 N399 1.610 . S
N398 S397 1.613 . S
N398 C401 1.350 . S
N399 S397 1.610 . S
N399 C400 1.351 . S
C400 C394 1.428 . S
C400 N399 1.351 . S
C400 C401 1.434 . S
C401 C392 1.429 . S
C401 N398 1.350 . S
C401 C400 1.434 . S
C402 C403 1.369 . S
C402 C404 1.419 . S
C402 H406 0.930 . S
C403 C402 1.369 . S
C403 C412 1.429 . S
C404 C402 1.419 . S
C404 C405 1.363 . S
C404 H407 0.929 . S
C405 C404 1.363 . S
C405 C411 1.428 . S
H406 C402 0.930 . S
H407 C404 0.929 . S
S408 N409 1.613 . S
S408 N410 1.610 . S
N409 S408 1.613 . S
N409 C412 1.350 . S
N410 S408 1.610 . S
N410 C411 1.351 . S
C411 C405 1.428 . S
C411 N410 1.351 . S
C411 C412 1.434 . S
C412 C403 1.429 . S
C412 N409 1.350 . S
C412 C411 1.434 . S
C413 C414 1.369 1_455 S
C413 C415 1.419 1_556 S
C413 H417 0.930 . S
C414 C413 1.369 1_655 S
C414 C423 1.429 . S
C415 C413 1.419 1_554 S
C415 C416 1.363 . S
C415 H418 0.929 . S
C416 C415 1.363 . S
C416 C422 1.428 1_455 S
H417 C413 0.930 . S
H418 C415 0.929 . S
S419 N420 1.613 1_554 S
S419 N421 1.610 . S
N420 S419 1.613 1_556 S
N420 C423 1.350 . S
N421 S419 1.610 . S
N421 C422 1.351 . S
C422 C416 1.428 1_655 S
C422 N421 1.351 . S
C422 C423 1.434 1_554 S
C423 C414 1.429 . S
C423 N420 1.350 . S
C423 C422 1.434 1_556 S
C161 C16 1.142 . S
C163 C76 1.147 . S
C172 C1 1.558 . S
C174 C36 1.482 . S
C183 C21 1.918 . S
C185 C41 1.922 . S
C194 C56 1.490 . S
C196 C61 1.554 . S
C205 C6 1.141 . S
C207 C106 1.148 . S
C216 C9 1.558 . S
C218 C86 1.483 . S
C227 C89 1.919 . S
C229 C49 1.923 . S
C238 C109 1.552 . S
C240 C46 1.490 . S
C249 C136 1.141 . S
C251 C116 1.149 . S
C260 C96 1.480 . S
C262 C121 1.557 . S
C271 C141 1.924 . S
C273 C81 1.919 . S
C282 C101 1.553 . S
C284 C156 1.490 . S
C293 C66 1.145 . S
C295 C126 1.144 . S
C304 C129 1.553 . S
C306 C26 1.489 . S
C315 C29 1.918 . S
C317 C149 1.924 . S
C326 C69 1.558 . S
C328 C146 1.482 . S
C337 C19 1.803 1_665 S
C339 C8 1.793 1_445 S
C348 C28 1.835 . S
C350 C39 1.827 1_554 S
C359 C59 1.825 . S
C361 C48 1.834 . S
C370 C79 1.796 1_556 S
C372 C68 1.804 . S
C381 C88 1.824 1_556 S
C383 C99 1.835 . S
C392 C119 1.795 . S
C394 C108 1.804 1_554 S
C403 C128 1.799 . S
C405 C139 1.801 . S
C414 C148 1.836 1_655 S
C416 C159 1.825 1_455 S
