# Generated by pormake.
# Topology upb, (4)-cn, num edge types: 1
# Building blocks:
#     Node 0, Type 0, BuildingBlock: QUQFOY_clean_sbu_1, # of connection points: 4
#     Node 1, Type 0, BuildingBlock: QUQFOY_clean_sbu_1, # of connection points: 4
#     Node 2, Type 0, BuildingBlock: QUQFOY_clean_sbu_1, # of connection points: 4
#     Node 3, Type 0, BuildingBlock: QUQFOY_clean_sbu_1, # of connection points: 4
#     Node 4, Type 0, BuildingBlock: QUQFOY_clean_sbu_1, # of connection points: 4
#     Node 5, Type 0, BuildingBlock: QUQFOY_clean_sbu_1, # of connection points: 4
#     Node 6, Type 0, BuildingBlock: QUQFOY_clean_sbu_1, # of connection points: 4
#     Node 7, Type 0, BuildingBlock: QUQFOY_clean_sbu_1, # of connection points: 4
#     Node 8, Type 0, BuildingBlock: QUQFOY_clean_sbu_1, # of connection points: 4
#     Node 9, Type 0, BuildingBlock: QUQFOY_clean_sbu_1, # of connection points: 4
#     Node 10, Type 0, BuildingBlock: QUQFOY_clean_sbu_1, # of connection points: 4
#     Node 11, Type 0, BuildingBlock: QUQFOY_clean_sbu_1, # of connection points: 4
#     Node 12, Type 0, BuildingBlock: QUQFOY_clean_sbu_1, # of connection points: 4
#     Node 13, Type 0, BuildingBlock: QUQFOY_clean_sbu_1, # of connection points: 4
#     Node 14, Type 0, BuildingBlock: QUQFOY_clean_sbu_1, # of connection points: 4
#     Node 15, Type 0, BuildingBlock: QUQFOY_clean_sbu_1, # of connection points: 4
#     Edge 16, Type (0, 0), BuildingBlock: AJUNOK_clean_linker_0, # of connection points: 2
#     Edge 17, Type (0, 0), BuildingBlock: AJUNOK_clean_linker_0, # of connection points: 2
#     Edge 18, Type (0, 0), BuildingBlock: AJUNOK_clean_linker_0, # of connection points: 2
#     Edge 19, Type (0, 0), BuildingBlock: AJUNOK_clean_linker_0, # of connection points: 2
#     Edge 20, Type (0, 0), BuildingBlock: AJUNOK_clean_linker_0, # of connection points: 2
#     Edge 21, Type (0, 0), BuildingBlock: AJUNOK_clean_linker_0, # of connection points: 2
#     Edge 22, Type (0, 0), BuildingBlock: AJUNOK_clean_linker_0, # of connection points: 2
#     Edge 23, Type (0, 0), BuildingBlock: AJUNOK_clean_linker_0, # of connection points: 2
#     Edge 24, Type (0, 0), BuildingBlock: AJUNOK_clean_linker_0, # of connection points: 2
#     Edge 25, Type (0, 0), BuildingBlock: AJUNOK_clean_linker_0, # of connection points: 2
#     Edge 26, Type (0, 0), BuildingBlock: AJUNOK_clean_linker_0, # of connection points: 2
#     Edge 27, Type (0, 0), BuildingBlock: AJUNOK_clean_linker_0, # of connection points: 2
#     Edge 28, Type (0, 0), BuildingBlock: AJUNOK_clean_linker_0, # of connection points: 2
#     Edge 29, Type (0, 0), BuildingBlock: AJUNOK_clean_linker_0, # of connection points: 2
#     Edge 30, Type (0, 0), BuildingBlock: AJUNOK_clean_linker_0, # of connection points: 2
#     Edge 31, Type (0, 0), BuildingBlock: AJUNOK_clean_linker_0, # of connection points: 2
#     Edge 32, Type (0, 0), BuildingBlock: AJUNOK_clean_linker_0, # of connection points: 2
#     Edge 33, Type (0, 0), BuildingBlock: AJUNOK_clean_linker_0, # of connection points: 2
#     Edge 34, Type (0, 0), BuildingBlock: AJUNOK_clean_linker_0, # of connection points: 2
#     Edge 35, Type (0, 0), BuildingBlock: AJUNOK_clean_linker_0, # of connection points: 2
#     Edge 36, Type (0, 0), BuildingBlock: AJUNOK_clean_linker_0, # of connection points: 2
#     Edge 37, Type (0, 0), BuildingBlock: AJUNOK_clean_linker_0, # of connection points: 2
#     Edge 38, Type (0, 0), BuildingBlock: AJUNOK_clean_linker_0, # of connection points: 2
#     Edge 39, Type (0, 0), BuildingBlock: AJUNOK_clean_linker_0, # of connection points: 2
#     Edge 40, Type (0, 0), BuildingBlock: AJUNOK_clean_linker_0, # of connection points: 2
#     Edge 41, Type (0, 0), BuildingBlock: AJUNOK_clean_linker_0, # of connection points: 2
#     Edge 42, Type (0, 0), BuildingBlock: AJUNOK_clean_linker_0, # of connection points: 2
#     Edge 43, Type (0, 0), BuildingBlock: AJUNOK_clean_linker_0, # of connection points: 2
#     Edge 44, Type (0, 0), BuildingBlock: AJUNOK_clean_linker_0, # of connection points: 2
#     Edge 45, Type (0, 0), BuildingBlock: AJUNOK_clean_linker_0, # of connection points: 2
#     Edge 46, Type (0, 0), BuildingBlock: AJUNOK_clean_linker_0, # of connection points: 2
#     Edge 47, Type (0, 0), BuildingBlock: AJUNOK_clean_linker_0, # of connection points: 2
# Relax obj value: 0.224
# Max RMSD: 0.124
# Mean RMSD: 0.124
data_MOF--net-upb--node1-QUQFOY_clean_sbu_1--edge1-AJUNOK_clean_linker_0
_symmetry_space_group_name_H-M    P1
_symmetry_Int_Tables_number       1
_symmetry_cell_setting            triclinic
loop_
_symmetry_equiv_pos_as_xyz
'x, y, z'
_cell_length_a     33.387716
_cell_length_b     33.370663
_cell_length_c     32.801843
_cell_angle_alpha  89.975109
_cell_angle_beta   90.019213
_cell_angle_gamma 90.197686
loop_
_atom_site_label
_atom_site_type_symbol
_atom_site_fract_x
_atom_site_fract_y
_atom_site_fract_z
_atom_type_partial_charge
O0 O 0.09777 0.19249 0.26294 0.0
Cd1 Cd 0.05797 0.2396 0.26507 0.0
Cd2 Cd 0.05381 0.219 0.34846 0.0
O3 O 0.10544 0.18945 0.32973 0.0
O4 O 0.07694 0.28315 0.22784 0.0
O5 O 0.07793 0.28795 0.29517 0.0
C6 C 0.08709 0.30312 0.26005 0.0
C7 C 0.0421 0.22642 0.41903 0.0
C8 C 0.11598 0.17882 0.29399 0.0
C9 C 0.98081 0.20723 0.29105 0.0
O10 O 0.99979 0.20203 0.32411 0.0
O11 O 0.99747 0.22505 0.26122 0.0
O12 O 0.04521 0.19202 0.40188 0.0
O13 O 0.04911 0.2575 0.39671 0.0
O14 O 0.82067 0.09462 0.26471 0.0
Cd15 Cd 0.77225 0.05615 0.26642 0.0
Cd16 Cd 0.79522 0.04762 0.34981 0.0
O17 O 0.82754 0.09807 0.33159 0.0
O18 O 0.72931 0.07722 0.22987 0.0
O19 O 0.72472 0.07667 0.29721 0.0
C20 C 0.70975 0.08705 0.26238 0.0
C21 C 0.78952 0.03429 0.42034 0.0
C22 C 0.83701 0.11015 0.29596 0.0
C23 C 0.80082 0.97644 0.28891 0.0
O24 O 0.80715 0.99351 0.32284 0.0
O25 O 0.78432 0.99545 0.25983 0.0
O26 O 0.82339 0.03527 0.40187 0.0
O27 O 0.75833 0.04417 0.39946 0.0
O28 O 0.91337 0.81842 0.26 0.0
Cd29 Cd 0.95296 0.77116 0.26291 0.0
Cd30 Cd 0.95593 0.79217 0.34661 0.0
O31 O 0.90454 0.82125 0.32658 0.0
O32 O 0.93517 0.72871 0.22387 0.0
O33 O 0.93181 0.72202 0.29094 0.0
C34 C 0.92385 0.70787 0.25507 0.0
C35 C 0.96472 0.78657 0.41782 0.0
C36 C 0.89474 0.83217 0.2907 0.0
C37 C 0.02983 0.80372 0.29045 0.0
O38 O 0.01043 0.80913 0.32321 0.0
O39 O 0.01356 0.78568 0.26053 0.0
O40 O 0.96231 0.82049 0.39962 0.0
O41 O 0.95971 0.75482 0.39598 0.0
O42 O 0.18937 0.91676 0.26304 0.0
Cd43 Cd 0.23756 0.95566 0.26355 0.0
Cd44 Cd 0.21693 0.96291 0.34776 0.0
O45 O 0.18437 0.91247 0.33003 0.0
O46 O 0.2797 0.93541 0.22563 0.0
O47 O 0.28615 0.93531 0.29283 0.0
C48 C 0.30032 0.92561 0.25746 0.0
C49 C 0.22345 0.97699 0.41794 0.0
C50 C 0.17398 0.90074 0.29455 0.0
C51 C 0.20984 0.03495 0.28802 0.0
O52 O 0.20434 0.01718 0.32169 0.0
O53 O 0.22515 0.01645 0.25798 0.0
O54 O 0.18933 0.97513 0.40002 0.0
O55 O 0.25447 0.96705 0.39685 0.0
O56 O 0.09784 0.82291 0.73475 0.0
Cd57 Cd 0.05884 0.77493 0.73768 0.0
Cd58 Cd 0.04741 0.79436 0.65218 0.0
O59 O 0.09843 0.82717 0.6675 0.0
O60 O 0.08033 0.73481 0.77719 0.0
O61 O 0.07802 0.72468 0.71052 0.0
C62 C 0.08896 0.71243 0.74627 0.0
C63 C 0.02957 0.78978 0.58262 0.0
C64 C 0.11214 0.83783 0.70215 0.0
C65 C 0.97866 0.8027 0.71619 0.0
O66 O 0.99463 0.80664 0.68137 0.0
O67 O 0.99857 0.7882 0.74572 0.0
O68 O 0.03196 0.82331 0.60154 0.0
O69 O 0.04123 0.75827 0.602 0.0
O70 O 0.19267 0.09834 0.73844 0.0
Cd71 Cd 0.24016 0.05901 0.73443 0.0
Cd72 Cd 0.21809 0.05768 0.65173 0.0
O73 O 0.18925 0.10903 0.67214 0.0
O74 O 0.28322 0.07663 0.77285 0.0
O75 O 0.28856 0.08092 0.70572 0.0
C76 C 0.30337 0.08848 0.74139 0.0
C77 C 0.225 0.04666 0.58111 0.0
C78 C 0.17864 0.11783 0.70838 0.0
C79 C 0.20757 0.98271 0.70621 0.0
O80 O 0.20072 1.00323 0.67449 0.0
O81 O 0.22646 0.9981 0.73606 0.0
O82 O 0.19073 0.05057 0.59835 0.0
O83 O 0.25628 0.053 0.60332 0.0
O84 O 0.91689 0.19308 0.73938 0.0
Cd85 Cd 0.95591 0.24112 0.73896 0.0
Cd86 Cd 0.96346 0.221 0.65463 0.0
O87 O 0.91255 0.18916 0.6723 0.0
O88 O 0.93517 0.28387 0.77592 0.0
O89 O 0.93603 0.28921 0.70862 0.0
C90 C 0.92566 0.30389 0.74357 0.0
C91 C 0.97682 0.22699 0.58416 0.0
C92 C 0.90057 0.17853 0.70761 0.0
C93 C 0.03504 0.21271 0.71492 0.0
O94 O 0.01755 0.20779 0.68098 0.0
O95 O 0.01651 0.2283 0.74479 0.0
O96 O 0.9751 0.19301 0.60241 0.0
O97 O 0.96757 0.25826 0.60522 0.0
O98 O 0.82178 0.91765 0.74397 0.0
Cd99 Cd 0.77421 0.95685 0.74103 0.0
Cd100 Cd 0.7959 0.96017 0.65712 0.0
O101 O 0.82587 0.90925 0.67732 0.0
O102 O 0.73162 0.93849 0.77964 0.0
O103 O 0.72552 0.93534 0.7125 0.0
C104 C 0.71113 0.92716 0.74821 0.0
C105 C 0.7893 0.97081 0.58629 0.0
C106 C 0.83622 0.89937 0.71337 0.0
C107 C 0.80497 0.03437 0.71349 0.0
O108 O 0.81099 0.01498 0.68086 0.0
O109 O 0.78779 0.01769 0.74368 0.0
O110 O 0.82353 0.96857 0.60396 0.0
O111 O 0.75808 0.96346 0.60825 0.0
O112 O 0.59777 0.69332 0.76351 0.0
Cd113 Cd 0.55859 0.74081 0.76802 0.0
Cd114 Cd 0.55676 0.71848 0.85073 0.0
O115 O 0.60769 0.68907 0.82991 0.0
O116 O 0.57697 0.78514 0.73142 0.0
O117 O 0.58003 0.78811 0.79879 0.0
C118 C 0.5883 0.80413 0.76383 0.0
C119 C 0.5471 0.72589 0.92155 0.0
C120 C 0.61682 0.67885 0.79363 0.0
C121 C 0.48184 0.7089 0.79591 0.0
O122 O 0.50189 0.70221 0.82799 0.0
O123 O 0.49776 0.72718 0.76595 0.0
O124 O 0.54983 0.69144 0.9044 0.0
O125 O 0.55346 0.75696 0.89901 0.0
O126 O 0.32226 0.59854 0.76806 0.0
Cd127 Cd 0.27418 0.55961 0.76691 0.0
Cd128 Cd 0.295 0.5483 0.85109 0.0
O129 O 0.32755 0.59937 0.8352 0.0
O130 O 0.23211 0.58147 0.7298 0.0
O131 O 0.22554 0.57862 0.79691 0.0
C132 C 0.21148 0.58998 0.762 0.0
C133 C 0.28896 0.53256 0.9211 0.0
C134 C 0.3376 0.61303 0.80034 0.0
C135 C 0.30214 0.47923 0.78763 0.0
O136 O 0.30713 0.49509 0.82239 0.0
O137 O 0.28692 0.49928 0.75857 0.0
O138 O 0.32289 0.53402 0.90277 0.0
O139 O 0.25789 0.54328 0.90049 0.0
O140 O 0.4163 0.32229 0.75872 0.0
Cd141 Cd 0.45559 0.27479 0.76268 0.0
Cd142 Cd 0.45565 0.29398 0.84556 0.0
O143 O 0.40484 0.32359 0.82493 0.0
O144 O 0.43765 0.23065 0.72561 0.0
O145 O 0.43406 0.22724 0.79294 0.0
C146 C 0.42613 0.21142 0.75782 0.0
C147 C 0.46368 0.2848 0.91632 0.0
C148 C 0.39644 0.33534 0.78895 0.0
C149 C 0.53161 0.30622 0.79301 0.0
O150 O 0.51081 0.31181 0.8248 0.0
O151 O 0.51644 0.28866 0.76222 0.0
O152 O 0.46087 0.31963 0.89998 0.0
O153 O 0.45845 0.25421 0.89286 0.0
O154 O 0.6917 0.41666 0.7688 0.0
Cd155 Cd 0.73979 0.45565 0.76684 0.0
Cd156 Cd 0.7188 0.46621 0.85211 0.0
O157 O 0.68612 0.4153 0.83597 0.0
O158 O 0.78035 0.43445 0.72769 0.0
O159 O 0.78973 0.43624 0.79448 0.0
C160 C 0.80241 0.42563 0.7588 0.0
C161 C 0.72279 0.48464 0.9214 0.0
C162 C 0.67614 0.40201 0.80093 0.0
C163 C 0.71196 0.53563 0.78847 0.0
O164 O 0.70731 0.51919 0.82296 0.0
O165 O 0.72688 0.51606 0.75895 0.0
O166 O 0.68937 0.48203 0.90229 0.0
O167 O 0.7544 0.47241 0.9026 0.0
O168 O 0.59468 0.32089 0.23335 0.0
Cd169 Cd 0.55671 0.27215 0.23761 0.0
Cd170 Cd 0.543 0.28951 0.15206 0.0
O171 O 0.59236 0.32512 0.1662 0.0
O172 O 0.57936 0.23291 0.27739 0.0
O173 O 0.57616 0.22174 0.21094 0.0
C174 C 0.5877 0.21012 0.24671 0.0
C175 C 0.52644 0.28366 0.08217 0.0
C176 C 0.60696 0.33646 0.20022 0.0
C177 C 0.4751 0.29704 0.21685 0.0
O178 O 0.48996 0.30014 0.18143 0.0
O179 O 0.49634 0.28452 0.24638 0.0
O180 O 0.5265 0.31728 0.10107 0.0
O181 O 0.53878 0.25278 0.10213 0.0
O182 O 0.69024 0.59725 0.24273 0.0
Cd183 Cd 0.7367 0.55715 0.23505 0.0
Cd184 Cd 0.71382 0.56067 0.15486 0.0
O185 O 0.68879 0.61301 0.17751 0.0
O186 O 0.78252 0.57284 0.27103 0.0
O187 O 0.78332 0.57933 0.20384 0.0
C188 C 0.80058 0.58559 0.2386 0.0
C189 C 0.72315 0.55371 0.0841 0.0
C190 C 0.67788 0.61971 0.21409 0.0
C191 C 0.69997 0.48382 0.20425 0.0
O192 O 0.69176 0.50667 0.17456 0.0
O193 O 0.72181 0.49648 0.23336 0.0
O194 O 0.68849 0.55925 0.1 0.0
O195 O 0.75375 0.55528 0.1081 0.0
O196 O 0.41749 0.69274 0.24048 0.0
Cd197 Cd 0.45537 0.74164 0.24122 0.0
Cd198 Cd 0.46711 0.72038 0.15705 0.0
O199 O 0.41751 0.68588 0.17349 0.0
O200 O 0.43265 0.78372 0.27773 0.0
O201 O 0.43572 0.78965 0.21056 0.0
C202 C 0.42403 0.80392 0.24525 0.0
C203 C 0.48246 0.72583 0.08687 0.0
C204 C 0.40401 0.67598 0.20848 0.0
C205 C 0.53637 0.71567 0.22061 0.0
O206 O 0.52071 0.71047 0.1858 0.0
O207 O 0.51588 0.73001 0.24979 0.0
O208 O 0.48234 0.69219 0.10582 0.0
O209 O 0.47067 0.75684 0.10697 0.0
O210 O 0.3203 0.41444 0.24325 0.0
Cd211 Cd 0.27361 0.45456 0.23848 0.0
Cd212 Cd 0.29644 0.45575 0.15653 0.0
O213 O 0.32362 0.40345 0.17701 0.0
O214 O 0.22987 0.43763 0.2764 0.0
O215 O 0.22523 0.43338 0.2092 0.0
C216 C 0.20995 0.42598 0.24471 0.0
C217 C 0.28858 0.46615 0.08582 0.0
C218 C 0.33388 0.39449 0.21332 0.0
C219 C 0.30889 0.5301 0.21127 0.0
O220 O 0.31567 0.50966 0.17946 0.0
O221 O 0.28857 0.51513 0.24037 0.0
O222 O 0.32305 0.46173 0.10254 0.0
O223 O 0.25756 0.46106 0.10872 0.0
C224 C 0.14815 0.12355 0.2534 0.0
C225 C 0.14693 0.1472 0.28908 0.0
C226 C 0.17177 0.08874 0.25134 0.0
C227 C 0.19496 0.07656 0.28485 0.0
H228 H 0.12881 0.13046 0.22786 0.0
H229 H 0.16947 0.06976 0.22464 0.0
S230 S 0.20871 0.13202 0.38192 0.0
N231 N 0.17592 0.15891 0.35612 0.0
N232 N 0.21993 0.09377 0.35221 0.0
C233 C 0.19683 0.10189 0.31908 0.0
C234 C 0.17291 0.13712 0.32123 0.0
C235 C 0.9182 0.18446 0.32485 0.0
C236 C 0.93999 0.18969 0.28848 0.0
C237 C 0.88381 0.1605 0.3263 0.0
C238 C 0.86955 0.14051 0.29143 0.0
H239 H 0.92882 0.19763 0.35307 0.0
H240 H 0.86926 0.15641 0.35553 0.0
S241 S 0.91311 0.148 0.18738 0.0
N242 N 0.94298 0.17589 0.21588 0.0
N243 N 0.87801 0.13072 0.21829 0.0
C244 C 0.88941 0.14774 0.2541 0.0
C245 C 0.92465 0.17239 0.25268 0.0
C246 C 0.81813 0.91062 0.31915 0.0
C247 C 0.81616 0.93508 0.28425 0.0
C248 C 0.84144 0.87591 0.31987 0.0
C249 C 0.86406 0.86412 0.28576 0.0
H250 H 0.80323 0.91957 0.34703 0.0
H251 H 0.84328 0.85936 0.34824 0.0
S252 S 0.86473 0.91488 0.18485 0.0
N253 N 0.83519 0.94298 0.21327 0.0
N254 N 0.87921 0.87747 0.21433 0.0
C255 C 0.85968 0.88647 0.24946 0.0
C256 C 0.83566 0.922 0.24877 0.0
C257 C 0.09173 0.82799 0.32473 0.0
C258 C 0.07065 0.82138 0.28814 0.0
C259 C 0.12622 0.85183 0.32593 0.0
C260 C 0.1413 0.87039 0.29057 0.0
H261 H 0.08052 0.81596 0.35324 0.0
H262 H 0.14018 0.85699 0.35529 0.0
S263 S 0.09997 0.85872 0.18594 0.0
N264 N 0.06933 0.8322 0.21494 0.0
N265 N 0.13444 0.87716 0.21689 0.0
C266 C 0.12215 0.86176 0.25315 0.0
C267 C 0.08682 0.83721 0.252 0.0
C268 C 0.14939 0.89113 0.74147 0.0
C269 C 0.1426 0.87051 0.70448 0.0
C270 C 0.1732 0.92603 0.7429 0.0
C271 C 0.19098 0.94146 0.70737 0.0
H272 H 0.13455 0.88154 0.76918 0.0
H273 H 0.17553 0.94232 0.77136 0.0
S274 S 0.18874 0.89513 0.60446 0.0
N275 N 0.16034 0.86554 0.63268 0.0
N276 N 0.2047 0.93073 0.63541 0.0
C277 C 0.18703 0.91941 0.67099 0.0
C278 C 0.16294 0.88407 0.6695 0.0
C279 C 0.13467 0.17204 0.68123 0.0
C280 C 0.14685 0.14847 0.71455 0.0
C281 C 0.10018 0.1956 0.68316 0.0
C282 C 0.07631 0.19684 0.71849 0.0
H283 H 0.15075 0.17084 0.65258 0.0
H284 H 0.09093 0.21132 0.65583 0.0
S285 S 0.09779 0.14556 0.81625 0.0
N286 N 0.13457 0.13157 0.78579 0.0
N287 N 0.06945 0.17602 0.78907 0.0
C288 C 0.08981 0.17631 0.75322 0.0
C289 C 0.12512 0.15206 0.75131 0.0
C290 C 0.86609 0.12411 0.74789 0.0
C291 C 0.86979 0.14634 0.71142 0.0
C292 C 0.84212 0.08935 0.74984 0.0
C293 C 0.82106 0.07574 0.71539 0.0
H294 H 0.88359 0.13222 0.77446 0.0
H295 H 0.84232 0.07163 0.77752 0.0
S296 S 0.81436 0.127 0.61519 0.0
N297 N 0.84553 0.15502 0.64199 0.0
N298 N 0.80092 0.08999 0.6457 0.0
C299 C 0.82185 0.09951 0.67996 0.0
C300 C 0.8461 0.13471 0.67794 0.0
C301 C 0.87845 0.84421 0.68552 0.0
C302 C 0.86786 0.86847 0.71884 0.0
C303 C 0.91256 0.82005 0.68665 0.0
C304 C 0.93769 0.819 0.7211 0.0
H305 H 0.86135 0.84523 0.65747 0.0
H306 H 0.92056 0.80374 0.65927 0.0
S307 S 0.92068 0.87244 0.81853 0.0
N308 N 0.88301 0.88646 0.7892 0.0
N309 N 0.94749 0.841 0.79095 0.0
C310 C 0.9258 0.84036 0.75592 0.0
C311 C 0.89082 0.86515 0.75484 0.0
C312 C 0.67205 0.63604 0.82039 0.0
C313 C 0.64753 0.64717 0.78743 0.0
C314 C 0.69584 0.60169 0.8187 0.0
C315 C 0.69629 0.57689 0.78399 0.0
H316 H 0.67145 0.65283 0.84864 0.0
H317 H 0.71229 0.5932 0.84585 0.0
S318 S 0.64215 0.59542 0.68724 0.0
N319 N 0.62877 0.63293 0.71707 0.0
N320 N 0.67358 0.56801 0.71426 0.0
C321 C 0.67476 0.58936 0.74949 0.0
C322 C 0.65032 0.62456 0.75115 0.0
C323 C 0.42617 0.67312 0.75918 0.0
C324 C 0.44058 0.69249 0.7943 0.0
C325 C 0.39142 0.64913 0.76073 0.0
C326 C 0.36998 0.64372 0.79745 0.0
H327 H 0.44321 0.67431 0.7311 0.0
H328 H 0.38264 0.633 0.73349 0.0
S329 S 0.3916 0.69439 0.89586 0.0
N330 N 0.42793 0.70924 0.86522 0.0
N331 N 0.36295 0.66454 0.86818 0.0
C332 C 0.38245 0.66568 0.83181 0.0
C333 C 0.41764 0.68996 0.8302 0.0
C334 C 0.31791 0.41229 0.8161 0.0
C335 C 0.31769 0.43806 0.78214 0.0
C336 C 0.34136 0.37767 0.81677 0.0
C337 C 0.36585 0.3673 0.78354 0.0
H338 H 0.30151 0.42014 0.84345 0.0
H339 H 0.34178 0.36006 0.84452 0.0
S340 S 0.3717 0.42189 0.68491 0.0
N341 N 0.34048 0.44875 0.7127 0.0
N342 N 0.38477 0.38342 0.71365 0.0
C343 C 0.36329 0.39098 0.74794 0.0
C344 C 0.33913 0.42641 0.7473 0.0
C345 C 0.62311 0.36588 0.76024 0.0
C346 C 0.64353 0.37157 0.79753 0.0
C347 C 0.58832 0.34201 0.75787 0.0
C348 C 0.57278 0.32304 0.79273 0.0
H349 H 0.63277 0.38162 0.73306 0.0
H350 H 0.57219 0.34052 0.72925 0.0
S351 S 0.61874 0.32208 0.89583 0.0
N352 N 0.6483 0.35153 0.86872 0.0
N353 N 0.58329 0.30703 0.86424 0.0
C354 C 0.59464 0.32592 0.82933 0.0
C355 C 0.62989 0.35009 0.83177 0.0
C356 C 0.66982 0.42402 0.23993 0.0
C357 C 0.6825 0.44286 0.20383 0.0
C358 C 0.64689 0.38854 0.23866 0.0
C359 C 0.636 0.37053 0.20126 0.0
H360 H 0.6758 0.43785 0.26919 0.0
H361 H 0.63627 0.37612 0.2672 0.0
S362 S 0.66754 0.4051 0.09835 0.0
N363 N 0.68659 0.43857 0.12992 0.0
N364 N 0.64395 0.37231 0.12745 0.0
C365 C 0.65098 0.38781 0.16514 0.0
C366 C 0.67408 0.42382 0.16646 0.0
C367 C 0.60395 0.70263 0.19267 0.0
C368 C 0.57767 0.70065 0.22612 0.0
C369 C 0.63806 0.67852 0.1906 0.0
C370 C 0.6473 0.65118 0.22186 0.0
H371 H 0.59663 0.72105 0.16649 0.0
H372 H 0.65595 0.6797 0.16308 0.0
S373 S 0.5914 0.63912 0.31908 0.0
N374 N 0.56559 0.67296 0.29346 0.0
N375 N 0.62997 0.62746 0.28992 0.0
C376 C 0.62337 0.65171 0.25734 0.0
C377 C 0.58848 0.67652 0.25941 0.0
C378 C 0.35906 0.62549 0.17552 0.0
C379 C 0.37453 0.64243 0.21152 0.0
C380 C 0.33584 0.59057 0.17636 0.0
C381 C 0.32678 0.57087 0.21322 0.0
H382 H 0.36606 0.63842 0.14607 0.0
H383 H 0.32606 0.57811 0.14751 0.0
S384 S 0.35601 0.60484 0.31662 0.0
N385 N 0.37607 0.63848 0.28574 0.0
N386 N 0.33225 0.57255 0.28701 0.0
C387 C 0.33971 0.58868 0.24974 0.0
C388 C 0.36364 0.62446 0.24896 0.0
C389 C 0.37394 0.33681 0.18753 0.0
C390 C 0.36472 0.363 0.21974 0.0
C391 C 0.40782 0.31232 0.18891 0.0
C392 C 0.43407 0.31292 0.22251 0.0
H393 H 0.35604 0.33667 0.15998 0.0
H394 H 0.41491 0.29462 0.16218 0.0
S395 S 0.42047 0.37143 0.31747 0.0
N396 N 0.38207 0.38433 0.28858 0.0
N397 N 0.44612 0.33831 0.2908 0.0
C398 C 0.42336 0.33607 0.25654 0.0
C399 C 0.38862 0.36116 0.25521 0.0
C400 C 0.12744 0.35161 0.21819 0.0
C401 C 0.11261 0.33978 0.2566 0.0
C402 C 0.15709 0.38134 0.21446 0.0
C403 C 0.1733 0.40059 0.24895 0.0
H404 H 0.11751 0.3365 0.19076 0.0
H405 H 0.16874 0.38777 0.18433 0.0
S406 S 0.14043 0.38521 0.35607 0.0
N407 N 0.11321 0.35312 0.32951 0.0
N408 N 0.16879 0.40886 0.32253 0.0
C409 C 0.15668 0.39114 0.2873 0.0
C410 C 0.12643 0.36082 0.2911 0.0
C411 C 0.65982 0.12585 0.22108 0.0
C412 C 0.67368 0.11318 0.25957 0.0
C413 C 0.63033 0.15552 0.21728 0.0
C414 C 0.61346 0.17401 0.25178 0.0
H415 H 0.673 0.11397 0.19346 0.0
H416 H 0.62213 0.16528 0.18692 0.0
S417 S 0.63522 0.14803 0.35969 0.0
N418 N 0.66509 0.11873 0.33302 0.0
N419 N 0.60989 0.17445 0.32588 0.0
C420 C 0.62515 0.15986 0.29048 0.0
C421 C 0.65513 0.12949 0.29437 0.0
C422 C 0.85067 0.62391 0.28044 0.0
C423 C 0.83737 0.61091 0.24186 0.0
C424 C 0.88045 0.65348 0.28445 0.0
C425 C 0.89832 0.6714 0.25004 0.0
H426 H 0.83664 0.61264 0.30794 0.0
H427 H 0.88804 0.66369 0.31483 0.0
S428 S 0.87882 0.64361 0.14212 0.0
N429 N 0.84785 0.61504 0.16858 0.0
N430 N 0.90372 0.67042 0.17604 0.0
C431 C 0.88742 0.65658 0.21133 0.0
C432 C 0.85702 0.62645 0.20725 0.0
C433 C 0.35297 0.88182 0.28878 0.0
C434 C 0.33674 0.90009 0.2538 0.0
C435 C 0.38278 0.85238 0.2858 0.0
C436 C 0.39781 0.83996 0.24772 0.0
H437 H 0.3413 0.88886 0.31873 0.0
H438 H 0.39284 0.8381 0.31362 0.0
S439 S 0.36959 0.88252 0.1471 0.0
N440 N 0.3411 0.9066 0.18004 0.0
N441 N 0.39705 0.85148 0.17446 0.0
C442 C 0.38381 0.85993 0.21267 0.0
C443 C 0.35333 0.88988 0.2157 0.0
C444 C 0.16202 0.62909 0.72044 0.0
C445 C 0.17517 0.61577 0.75894 0.0
C446 C 0.13235 0.65858 0.71661 0.0
C447 C 0.11462 0.67624 0.75112 0.0
H448 H 0.17589 0.6179 0.69287 0.0
H449 H 0.12474 0.66893 0.68629 0.0
S450 S 0.13427 0.64818 0.85891 0.0
N451 N 0.16495 0.61968 0.83229 0.0
N452 N 0.10944 0.67508 0.82512 0.0
C453 C 0.12558 0.66136 0.78976 0.0
C454 C 0.15572 0.63116 0.79366 0.0
C455 C 0.38624 0.16279 0.71567 0.0
C456 C 0.4005 0.17486 0.75422 0.0
C457 C 0.35659 0.13309 0.71168 0.0
C458 C 0.33984 0.11408 0.74605 0.0
H459 H 0.39663 0.1777 0.68829 0.0
H460 H 0.34542 0.12643 0.68141 0.0
S461 S 0.37105 0.1302 0.85359 0.0
N462 N 0.39872 0.16206 0.82722 0.0
N463 N 0.34318 0.10634 0.81977 0.0
C464 C 0.35585 0.1238 0.7846 0.0
C465 C 0.38608 0.15411 0.78866 0.0
C466 C 0.88604 0.35298 0.78504 0.0
C467 C 0.89971 0.34009 0.74659 0.0
C468 C 0.85631 0.38242 0.78875 0.0
C469 C 0.83878 0.4002 0.75416 0.0
H470 H 0.8971 0.33904 0.81264 0.0
H471 H 0.84568 0.38981 0.81901 0.0
S472 S 0.86786 0.3814 0.64655 0.0
N473 N 0.89633 0.35073 0.67327 0.0
N474 N 0.84051 0.40583 0.68021 0.0
C475 C 0.85404 0.38956 0.71561 0.0
C476 C 0.88445 0.35963 0.71183 0.0
C477 C 0.65759 0.88306 0.71833 0.0
C478 C 0.67471 0.90148 0.75283 0.0
C479 C 0.62793 0.85334 0.72213 0.0
C480 C 0.61403 0.84066 0.76061 0.0
H481 H 0.66845 0.89021 0.68806 0.0
H482 H 0.61724 0.83892 0.6946 0.0
S483 S 0.64462 0.88356 0.8604 0.0
N484 N 0.67217 0.90795 0.8267 0.0
N485 N 0.61661 0.85221 0.8338 0.0
C486 C 0.62885 0.86079 0.79525 0.0
C487 C 0.6591 0.89112 0.79138 0.0
C488 C 0.02008 0.19316 0.48319 0.0
C489 C 0.02733 0.229 0.46176 0.0
C490 C 1.00293 0.19322 0.52201 0.0
C491 C 0.99224 0.22911 0.54164 0.0
H492 H 0.02731 0.16443 0.46978 0.0
H493 H 0.99828 0.16454 0.53678 0.0
S494 S 1.00521 0.33153 0.49926 0.0
N495 N 0.02252 0.30173 0.46318 0.0
N496 N 0.99058 0.30185 0.53677 0.0
C497 C 0.99946 0.26539 0.52084 0.0
C498 C 0.01699 0.26533 0.48088 0.0
C499 C 0.82283 0.99084 0.52157 0.0
C500 C 0.78697 0.98493 0.54331 0.0
C501 C 0.82301 0.00753 0.4825 0.0
C502 C 0.78732 0.01912 0.46299 0.0
H503 H 0.8514 0.98288 0.53493 0.0
H504 H 0.85168 0.01115 0.46747 0.0
S505 S 0.68495 0.00986 0.50624 0.0
N506 N 0.71447 0.99197 0.54231 0.0
N507 N 0.71477 0.02311 0.46834 0.0
C508 C 0.75104 0.01321 0.4841 0.0
C509 C 0.75086 0.99612 0.52427 0.0
C510 C 0.01539 0.75381 0.51638 0.0
C511 C 0.01123 0.78792 0.5413 0.0
C512 C 0.99845 0.75245 0.47704 0.0
C513 C 0.97667 0.7851 0.46137 0.0
H514 H 0.03256 0.72837 0.52694 0.0
H515 H 1.00377 0.72632 0.45825 0.0
S516 S 0.95214 0.87903 0.51639 0.0
N517 N 0.9801 0.85349 0.54863 0.0
N518 N 0.94858 0.85074 0.47532 0.0
C519 C 0.97068 0.81846 0.48675 0.0
C520 C 0.98789 0.81994 0.5265 0.0
C521 C 0.1911 0.02462 0.51734 0.0
C522 C 0.22712 0.03119 0.53863 0.0
C523 C 0.19058 1.00627 0.4791 0.0
C524 C 0.22607 0.99366 0.45993 0.0
H525 H 0.16264 0.03324 0.53048 0.0
H526 H 0.16179 1.00221 0.46442 0.0
S527 S 0.32878 1.00433 0.50206 0.0
N528 N 0.29959 0.0238 0.53751 0.0
N529 N 0.29865 0.98964 0.46496 0.0
C530 C 0.26254 1.00031 0.48052 0.0
C531 C 0.26306 0.01904 0.5199 0.0
C532 C 0.52985 0.69299 0.98739 0.0
C533 C 0.5333 0.72854 0.96458 0.0
C534 C 0.51289 0.69274 0.02632 0.0
C535 C 0.49853 0.72805 0.04459 0.0
H536 H 0.53986 0.66468 0.97492 0.0
H537 H 0.51111 0.66431 0.04216 0.0
S538 S 0.50115 0.82962 0.99839 0.0
N539 N 0.52135 0.80042 0.96338 0.0
N540 N 0.48968 0.80002 0.03708 0.0
C541 C 0.50224 0.7641 0.02251 0.0
C542 C 0.51962 0.76435 0.9825 0.0
C543 C 0.32197 0.50209 0.98171 0.0
C544 C 0.28663 0.51609 0.96324 0.0
C545 C 0.32167 0.4847 0.02045 0.0
C546 C 0.28601 0.48052 0.04293 0.0
H547 H 0.35052 0.50443 0.96613 0.0
H548 H 0.34999 0.475 0.03303 0.0
S549 S 0.18478 0.51146 0.00845 0.0
N550 N 0.21451 0.52377 0.97015 0.0
N551 N 0.21398 0.49138 0.04357 0.0
C552 C 0.25018 0.49387 0.02482 0.0
C553 C 0.25047 0.51164 0.98495 0.0
C554 C 0.49382 0.31636 0.02266 0.0
C555 C 0.51013 0.28144 0.04001 0.0
C556 C 0.47734 0.31631 0.98355 0.0
C557 C 0.47638 0.28138 0.9596 0.0
H558 H 0.49378 0.34437 0.03932 0.0
H559 H 0.46587 0.34436 0.97177 0.0
S560 S 0.51385 0.18135 0.99084 0.0
N561 N 0.52313 0.21035 0.03057 0.0
N562 N 0.49238 0.21037 0.95642 0.0
C563 C 0.49174 0.24585 0.97667 0.0
C564 C 0.50861 0.24588 0.01692 0.0
C565 C 0.75672 0.49795 0.9889 0.0
C566 C 0.7245 0.50436 0.96199 0.0
C567 C 0.75751 0.51594 0.02777 0.0
C568 C 0.72627 0.54115 0.04084 0.0
H569 H 0.78086 0.47806 0.98038 0.0
H570 H 0.78187 0.50867 0.04828 0.0
S571 S 0.63849 0.57277 0.97945 0.0
N572 N 0.66292 0.54141 0.94966 0.0
N573 N 0.66463 0.57497 0.02208 0.0
C574 C 0.69516 0.54952 0.0133 0.0
C575 C 0.69421 0.53118 0.97407 0.0
loop_
_geom_bond_atom_site_label_1
_geom_bond_atom_site_label_2
_geom_bond_distance
_geom_bond_site_symmetry_2
_ccdc_geom_bond_type
O0 Cd1 2.223 . S
O0 C8 1.315 . S
Cd1 O0 2.223 . S
Cd1 O4 2.297 . S
Cd1 O5 2.439 . S
Cd1 O11 2.240 1_455 S
Cd2 O3 2.240 . S
Cd2 O10 2.223 1_455 S
Cd2 O12 2.297 1_455 S
Cd2 O13 2.439 . S
O3 Cd2 2.240 . S
O3 C8 1.279 . S
O4 Cd1 2.297 . S
O4 C6 1.247 . S
O5 Cd1 2.439 . S
O5 C6 1.208 . S
C6 O4 1.247 . S
C6 O5 1.208 . S
C7 O12 1.247 1_455 S
C7 O13 1.208 . S
C8 O0 1.315 . S
C8 O3 1.279 . S
C9 O10 1.315 . S
C9 O11 1.279 . S
O10 Cd2 2.223 1_655 S
O10 C9 1.315 . S
O11 Cd1 2.240 1_655 S
O11 C9 1.279 . S
O12 Cd2 2.297 1_655 S
O12 C7 1.247 1_655 S
O13 Cd2 2.439 . S
O13 C7 1.208 . S
O14 Cd15 2.223 . S
O14 C22 1.315 . S
Cd15 O14 2.223 . S
Cd15 O18 2.297 . S
Cd15 O19 2.439 . S
Cd15 O25 2.240 1_545 S
Cd16 O17 2.240 . S
Cd16 O24 2.223 1_545 S
Cd16 O26 2.297 1_545 S
Cd16 O27 2.439 . S
O17 Cd16 2.240 . S
O17 C22 1.279 . S
O18 Cd15 2.297 . S
O18 C20 1.247 . S
O19 Cd15 2.439 . S
O19 C20 1.208 . S
C20 O18 1.247 . S
C20 O19 1.208 . S
C21 O26 1.247 1_545 S
C21 O27 1.208 . S
C22 O14 1.315 . S
C22 O17 1.279 . S
C23 O24 1.315 . S
C23 O25 1.279 . S
O24 Cd16 2.223 1_565 S
O24 C23 1.315 . S
O25 Cd15 2.240 1_565 S
O25 C23 1.279 . S
O26 Cd16 2.297 1_565 S
O26 C21 1.247 1_565 S
O27 Cd16 2.439 . S
O27 C21 1.208 . S
O28 Cd29 2.223 . S
O28 C36 1.315 . S
Cd29 O28 2.223 . S
Cd29 O32 2.297 . S
Cd29 O33 2.439 . S
Cd29 O39 2.240 1_655 S
Cd30 O31 2.240 . S
Cd30 O38 2.223 1_655 S
Cd30 O40 2.297 1_655 S
Cd30 O41 2.439 . S
O31 Cd30 2.240 . S
O31 C36 1.279 . S
O32 Cd29 2.297 . S
O32 C34 1.247 . S
O33 Cd29 2.439 . S
O33 C34 1.208 . S
C34 O32 1.247 . S
C34 O33 1.208 . S
C35 O40 1.247 1_655 S
C35 O41 1.208 . S
C36 O28 1.315 . S
C36 O31 1.279 . S
C37 O38 1.315 . S
C37 O39 1.279 . S
O38 Cd30 2.223 1_455 S
O38 C37 1.315 . S
O39 Cd29 2.240 1_455 S
O39 C37 1.279 . S
O40 Cd30 2.297 1_455 S
O40 C35 1.247 1_455 S
O41 Cd30 2.439 . S
O41 C35 1.208 . S
O42 Cd43 2.223 . S
O42 C50 1.315 . S
Cd43 O42 2.223 . S
Cd43 O46 2.297 . S
Cd43 O47 2.439 . S
Cd43 O53 2.240 1_565 S
Cd44 O45 2.240 . S
Cd44 O52 2.223 1_565 S
Cd44 O54 2.297 1_565 S
Cd44 O55 2.439 . S
O45 Cd44 2.240 . S
O45 C50 1.279 . S
O46 Cd43 2.297 . S
O46 C48 1.247 . S
O47 Cd43 2.439 . S
O47 C48 1.208 . S
C48 O46 1.247 . S
C48 O47 1.208 . S
C49 O54 1.247 1_565 S
C49 O55 1.208 . S
C50 O42 1.315 . S
C50 O45 1.279 . S
C51 O52 1.315 . S
C51 O53 1.279 . S
O52 Cd44 2.223 1_545 S
O52 C51 1.315 . S
O53 Cd43 2.240 1_545 S
O53 C51 1.279 . S
O54 Cd44 2.297 1_545 S
O54 C49 1.247 1_545 S
O55 Cd44 2.439 . S
O55 C49 1.208 . S
O56 Cd57 2.223 . S
O56 C64 1.315 . S
Cd57 O56 2.223 . S
Cd57 O60 2.297 . S
Cd57 O61 2.439 . S
Cd57 O67 2.240 1_455 S
Cd58 O59 2.240 . S
Cd58 O66 2.223 1_455 S
Cd58 O68 2.297 1_455 S
Cd58 O69 2.439 . S
O59 Cd58 2.240 . S
O59 C64 1.279 . S
O60 Cd57 2.297 . S
O60 C62 1.247 . S
O61 Cd57 2.439 . S
O61 C62 1.208 . S
C62 O60 1.247 . S
C62 O61 1.208 . S
C63 O68 1.247 1_455 S
C63 O69 1.208 . S
C64 O56 1.315 . S
C64 O59 1.279 . S
C65 O66 1.315 . S
C65 O67 1.279 . S
O66 Cd58 2.223 1_655 S
O66 C65 1.315 . S
O67 Cd57 2.240 1_655 S
O67 C65 1.279 . S
O68 Cd58 2.297 1_655 S
O68 C63 1.247 1_655 S
O69 Cd58 2.439 . S
O69 C63 1.208 . S
O70 Cd71 2.223 . S
O70 C78 1.315 . S
Cd71 O70 2.223 . S
Cd71 O74 2.297 . S
Cd71 O75 2.439 . S
Cd71 O81 2.240 1_545 S
Cd72 O73 2.240 . S
Cd72 O80 2.223 1_545 S
Cd72 O82 2.297 1_545 S
Cd72 O83 2.439 . S
O73 Cd72 2.240 . S
O73 C78 1.279 . S
O74 Cd71 2.297 . S
O74 C76 1.247 . S
O75 Cd71 2.439 . S
O75 C76 1.208 . S
C76 O74 1.247 . S
C76 O75 1.208 . S
C77 O82 1.247 1_545 S
C77 O83 1.208 . S
C78 O70 1.315 . S
C78 O73 1.279 . S
C79 O80 1.315 . S
C79 O81 1.279 . S
O80 Cd72 2.223 1_565 S
O80 C79 1.315 . S
O81 Cd71 2.240 1_565 S
O81 C79 1.279 . S
O82 Cd72 2.297 1_565 S
O82 C77 1.247 1_565 S
O83 Cd72 2.439 . S
O83 C77 1.208 . S
O84 Cd85 2.223 . S
O84 C92 1.315 . S
Cd85 O84 2.223 . S
Cd85 O88 2.297 . S
Cd85 O89 2.439 . S
Cd85 O95 2.240 1_655 S
Cd86 O87 2.240 . S
Cd86 O94 2.223 1_655 S
Cd86 O96 2.297 1_655 S
Cd86 O97 2.439 . S
O87 Cd86 2.240 . S
O87 C92 1.279 . S
O88 Cd85 2.297 . S
O88 C90 1.247 . S
O89 Cd85 2.439 . S
O89 C90 1.208 . S
C90 O88 1.247 . S
C90 O89 1.208 . S
C91 O96 1.247 1_655 S
C91 O97 1.208 . S
C92 O84 1.315 . S
C92 O87 1.279 . S
C93 O94 1.315 . S
C93 O95 1.279 . S
O94 Cd86 2.223 1_455 S
O94 C93 1.315 . S
O95 Cd85 2.240 1_455 S
O95 C93 1.279 . S
O96 Cd86 2.297 1_455 S
O96 C91 1.247 1_455 S
O97 Cd86 2.439 . S
O97 C91 1.208 . S
O98 Cd99 2.223 . S
O98 C106 1.315 . S
Cd99 O98 2.223 . S
Cd99 O102 2.297 . S
Cd99 O103 2.439 . S
Cd99 O109 2.240 1_565 S
Cd100 O101 2.240 . S
Cd100 O108 2.223 1_565 S
Cd100 O110 2.297 1_565 S
Cd100 O111 2.439 . S
O101 Cd100 2.240 . S
O101 C106 1.279 . S
O102 Cd99 2.297 . S
O102 C104 1.247 . S
O103 Cd99 2.439 . S
O103 C104 1.208 . S
C104 O102 1.247 . S
C104 O103 1.208 . S
C105 O110 1.247 1_565 S
C105 O111 1.208 . S
C106 O98 1.315 . S
C106 O101 1.279 . S
C107 O108 1.315 . S
C107 O109 1.279 . S
O108 Cd100 2.223 1_545 S
O108 C107 1.315 . S
O109 Cd99 2.240 1_545 S
O109 C107 1.279 . S
O110 Cd100 2.297 1_545 S
O110 C105 1.247 1_545 S
O111 Cd100 2.439 . S
O111 C105 1.208 . S
O112 Cd113 2.223 . S
O112 C120 1.315 . S
Cd113 O112 2.223 . S
Cd113 O116 2.297 . S
Cd113 O117 2.439 . S
Cd113 O123 2.240 . S
Cd114 O115 2.240 . S
Cd114 O122 2.223 . S
Cd114 O124 2.297 . S
Cd114 O125 2.439 . S
O115 Cd114 2.240 . S
O115 C120 1.279 . S
O116 Cd113 2.297 . S
O116 C118 1.247 . S
O117 Cd113 2.439 . S
O117 C118 1.208 . S
C118 O116 1.247 . S
C118 O117 1.208 . S
C119 O124 1.247 . S
C119 O125 1.208 . S
C120 O112 1.315 . S
C120 O115 1.279 . S
C121 O122 1.315 . S
C121 O123 1.279 . S
O122 Cd114 2.223 . S
O122 C121 1.315 . S
O123 Cd113 2.240 . S
O123 C121 1.279 . S
O124 Cd114 2.297 . S
O124 C119 1.247 . S
O125 Cd114 2.439 . S
O125 C119 1.208 . S
O126 Cd127 2.223 . S
O126 C134 1.315 . S
Cd127 O126 2.223 . S
Cd127 O130 2.297 . S
Cd127 O131 2.439 . S
Cd127 O137 2.240 . S
Cd128 O129 2.240 . S
Cd128 O136 2.223 . S
Cd128 O138 2.297 . S
Cd128 O139 2.439 . S
O129 Cd128 2.240 . S
O129 C134 1.279 . S
O130 Cd127 2.297 . S
O130 C132 1.247 . S
O131 Cd127 2.439 . S
O131 C132 1.208 . S
C132 O130 1.247 . S
C132 O131 1.208 . S
C133 O138 1.247 . S
C133 O139 1.208 . S
C134 O126 1.315 . S
C134 O129 1.279 . S
C135 O136 1.315 . S
C135 O137 1.279 . S
O136 Cd128 2.223 . S
O136 C135 1.315 . S
O137 Cd127 2.240 . S
O137 C135 1.279 . S
O138 Cd128 2.297 . S
O138 C133 1.247 . S
O139 Cd128 2.439 . S
O139 C133 1.208 . S
O140 Cd141 2.223 . S
O140 C148 1.315 . S
Cd141 O140 2.223 . S
Cd141 O144 2.297 . S
Cd141 O145 2.439 . S
Cd141 O151 2.240 . S
Cd142 O143 2.240 . S
Cd142 O150 2.223 . S
Cd142 O152 2.297 . S
Cd142 O153 2.439 . S
O143 Cd142 2.240 . S
O143 C148 1.279 . S
O144 Cd141 2.297 . S
O144 C146 1.247 . S
O145 Cd141 2.439 . S
O145 C146 1.208 . S
C146 O144 1.247 . S
C146 O145 1.208 . S
C147 O152 1.247 . S
C147 O153 1.208 . S
C148 O140 1.315 . S
C148 O143 1.279 . S
C149 O150 1.315 . S
C149 O151 1.279 . S
O150 Cd142 2.223 . S
O150 C149 1.315 . S
O151 Cd141 2.240 . S
O151 C149 1.279 . S
O152 Cd142 2.297 . S
O152 C147 1.247 . S
O153 Cd142 2.439 . S
O153 C147 1.208 . S
O154 Cd155 2.223 . S
O154 C162 1.315 . S
Cd155 O154 2.223 . S
Cd155 O158 2.297 . S
Cd155 O159 2.439 . S
Cd155 O165 2.240 . S
Cd156 O157 2.240 . S
Cd156 O164 2.223 . S
Cd156 O166 2.297 . S
Cd156 O167 2.439 . S
O157 Cd156 2.240 . S
O157 C162 1.279 . S
O158 Cd155 2.297 . S
O158 C160 1.247 . S
O159 Cd155 2.439 . S
O159 C160 1.208 . S
C160 O158 1.247 . S
C160 O159 1.208 . S
C161 O166 1.247 . S
C161 O167 1.208 . S
C162 O154 1.315 . S
C162 O157 1.279 . S
C163 O164 1.315 . S
C163 O165 1.279 . S
O164 Cd156 2.223 . S
O164 C163 1.315 . S
O165 Cd155 2.240 . S
O165 C163 1.279 . S
O166 Cd156 2.297 . S
O166 C161 1.247 . S
O167 Cd156 2.439 . S
O167 C161 1.208 . S
O168 Cd169 2.223 . S
O168 C176 1.315 . S
Cd169 O168 2.223 . S
Cd169 O172 2.297 . S
Cd169 O173 2.439 . S
Cd169 O179 2.240 . S
Cd170 O171 2.240 . S
Cd170 O178 2.223 . S
Cd170 O180 2.297 . S
Cd170 O181 2.439 . S
O171 Cd170 2.240 . S
O171 C176 1.279 . S
O172 Cd169 2.297 . S
O172 C174 1.247 . S
O173 Cd169 2.439 . S
O173 C174 1.208 . S
C174 O172 1.247 . S
C174 O173 1.208 . S
C175 O180 1.247 . S
C175 O181 1.208 . S
C176 O168 1.315 . S
C176 O171 1.279 . S
C177 O178 1.315 . S
C177 O179 1.279 . S
O178 Cd170 2.223 . S
O178 C177 1.315 . S
O179 Cd169 2.240 . S
O179 C177 1.279 . S
O180 Cd170 2.297 . S
O180 C175 1.247 . S
O181 Cd170 2.439 . S
O181 C175 1.208 . S
O182 Cd183 2.223 . S
O182 C190 1.315 . S
Cd183 O182 2.223 . S
Cd183 O186 2.297 . S
Cd183 O187 2.439 . S
Cd183 O193 2.240 . S
Cd184 O185 2.240 . S
Cd184 O192 2.223 . S
Cd184 O194 2.297 . S
Cd184 O195 2.439 . S
O185 Cd184 2.240 . S
O185 C190 1.279 . S
O186 Cd183 2.297 . S
O186 C188 1.247 . S
O187 Cd183 2.439 . S
O187 C188 1.208 . S
C188 O186 1.247 . S
C188 O187 1.208 . S
C189 O194 1.247 . S
C189 O195 1.208 . S
C190 O182 1.315 . S
C190 O185 1.279 . S
C191 O192 1.315 . S
C191 O193 1.279 . S
O192 Cd184 2.223 . S
O192 C191 1.315 . S
O193 Cd183 2.240 . S
O193 C191 1.279 . S
O194 Cd184 2.297 . S
O194 C189 1.247 . S
O195 Cd184 2.439 . S
O195 C189 1.208 . S
O196 Cd197 2.223 . S
O196 C204 1.315 . S
Cd197 O196 2.223 . S
Cd197 O200 2.297 . S
Cd197 O201 2.439 . S
Cd197 O207 2.240 . S
Cd198 O199 2.240 . S
Cd198 O206 2.223 . S
Cd198 O208 2.297 . S
Cd198 O209 2.439 . S
O199 Cd198 2.240 . S
O199 C204 1.279 . S
O200 Cd197 2.297 . S
O200 C202 1.247 . S
O201 Cd197 2.439 . S
O201 C202 1.208 . S
C202 O200 1.247 . S
C202 O201 1.208 . S
C203 O208 1.247 . S
C203 O209 1.208 . S
C204 O196 1.315 . S
C204 O199 1.279 . S
C205 O206 1.315 . S
C205 O207 1.279 . S
O206 Cd198 2.223 . S
O206 C205 1.315 . S
O207 Cd197 2.240 . S
O207 C205 1.279 . S
O208 Cd198 2.297 . S
O208 C203 1.247 . S
O209 Cd198 2.439 . S
O209 C203 1.208 . S
O210 Cd211 2.223 . S
O210 C218 1.315 . S
Cd211 O210 2.223 . S
Cd211 O214 2.297 . S
Cd211 O215 2.439 . S
Cd211 O221 2.240 . S
Cd212 O213 2.240 . S
Cd212 O220 2.223 . S
Cd212 O222 2.297 . S
Cd212 O223 2.439 . S
O213 Cd212 2.240 . S
O213 C218 1.279 . S
O214 Cd211 2.297 . S
O214 C216 1.247 . S
O215 Cd211 2.439 . S
O215 C216 1.208 . S
C216 O214 1.247 . S
C216 O215 1.208 . S
C217 O222 1.247 . S
C217 O223 1.208 . S
C218 O210 1.315 . S
C218 O213 1.279 . S
C219 O220 1.315 . S
C219 O221 1.279 . S
O220 Cd212 2.223 . S
O220 C219 1.315 . S
O221 Cd211 2.240 . S
O221 C219 1.279 . S
O222 Cd212 2.297 . S
O222 C217 1.247 . S
O223 Cd212 2.439 . S
O223 C217 1.208 . S
C224 C225 1.369 . S
C224 C226 1.419 . S
C224 H228 0.930 . S
C225 C224 1.369 . S
C225 C234 1.429 . S
C226 C224 1.419 . S
C226 C227 1.363 . S
C226 H229 0.929 . S
C227 C226 1.363 . S
C227 C233 1.428 . S
H228 C224 0.930 . S
H229 C226 0.929 . S
S230 N231 1.613 . S
S230 N232 1.610 . S
N231 S230 1.613 . S
N231 C234 1.350 . S
N232 S230 1.610 . S
N232 C233 1.351 . S
C233 C227 1.428 . S
C233 N232 1.351 . S
C233 C234 1.434 . S
C234 C225 1.429 . S
C234 N231 1.350 . S
C234 C233 1.434 . S
C235 C236 1.369 . S
C235 C237 1.419 . S
C235 H239 0.930 . S
C236 C235 1.369 . S
C236 C245 1.429 . S
C237 C235 1.419 . S
C237 C238 1.363 . S
C237 H240 0.929 . S
C238 C237 1.363 . S
C238 C244 1.428 . S
H239 C235 0.930 . S
H240 C237 0.929 . S
S241 N242 1.613 . S
S241 N243 1.610 . S
N242 S241 1.613 . S
N242 C245 1.350 . S
N243 S241 1.610 . S
N243 C244 1.351 . S
C244 C238 1.428 . S
C244 N243 1.351 . S
C244 C245 1.434 . S
C245 C236 1.429 . S
C245 N242 1.350 . S
C245 C244 1.434 . S
C246 C247 1.369 . S
C246 C248 1.419 . S
C246 H250 0.930 . S
C247 C246 1.369 . S
C247 C256 1.429 . S
C248 C246 1.419 . S
C248 C249 1.363 . S
C248 H251 0.929 . S
C249 C248 1.363 . S
C249 C255 1.428 . S
H250 C246 0.930 . S
H251 C248 0.929 . S
S252 N253 1.613 . S
S252 N254 1.610 . S
N253 S252 1.613 . S
N253 C256 1.350 . S
N254 S252 1.610 . S
N254 C255 1.351 . S
C255 C249 1.428 . S
C255 N254 1.351 . S
C255 C256 1.434 . S
C256 C247 1.429 . S
C256 N253 1.350 . S
C256 C255 1.434 . S
C257 C258 1.369 . S
C257 C259 1.419 . S
C257 H261 0.930 . S
C258 C257 1.369 . S
C258 C267 1.429 . S
C259 C257 1.419 . S
C259 C260 1.363 . S
C259 H262 0.929 . S
C260 C259 1.363 . S
C260 C266 1.428 . S
H261 C257 0.930 . S
H262 C259 0.929 . S
S263 N264 1.613 . S
S263 N265 1.610 . S
N264 S263 1.613 . S
N264 C267 1.350 . S
N265 S263 1.610 . S
N265 C266 1.351 . S
C266 C260 1.428 . S
C266 N265 1.351 . S
C266 C267 1.434 . S
C267 C258 1.429 . S
C267 N264 1.350 . S
C267 C266 1.434 . S
C268 C269 1.369 . S
C268 C270 1.419 . S
C268 H272 0.930 . S
C269 C268 1.369 . S
C269 C278 1.429 . S
C270 C268 1.419 . S
C270 C271 1.363 . S
C270 H273 0.929 . S
C271 C270 1.363 . S
C271 C277 1.428 . S
H272 C268 0.930 . S
H273 C270 0.929 . S
S274 N275 1.613 . S
S274 N276 1.610 . S
N275 S274 1.613 . S
N275 C278 1.350 . S
N276 S274 1.610 . S
N276 C277 1.351 . S
C277 C271 1.428 . S
C277 N276 1.351 . S
C277 C278 1.434 . S
C278 C269 1.429 . S
C278 N275 1.350 . S
C278 C277 1.434 . S
C279 C280 1.369 . S
C279 C281 1.419 . S
C279 H283 0.930 . S
C280 C279 1.369 . S
C280 C289 1.429 . S
C281 C279 1.419 . S
C281 C282 1.363 . S
C281 H284 0.929 . S
C282 C281 1.363 . S
C282 C288 1.428 . S
H283 C279 0.930 . S
H284 C281 0.929 . S
S285 N286 1.613 . S
S285 N287 1.610 . S
N286 S285 1.613 . S
N286 C289 1.350 . S
N287 S285 1.610 . S
N287 C288 1.351 . S
C288 C282 1.428 . S
C288 N287 1.351 . S
C288 C289 1.434 . S
C289 C280 1.429 . S
C289 N286 1.350 . S
C289 C288 1.434 . S
C290 C291 1.369 . S
C290 C292 1.419 . S
C290 H294 0.930 . S
C291 C290 1.369 . S
C291 C300 1.429 . S
C292 C290 1.419 . S
C292 C293 1.363 . S
C292 H295 0.929 . S
C293 C292 1.363 . S
C293 C299 1.428 . S
H294 C290 0.930 . S
H295 C292 0.929 . S
S296 N297 1.613 . S
S296 N298 1.610 . S
N297 S296 1.613 . S
N297 C300 1.350 . S
N298 S296 1.610 . S
N298 C299 1.351 . S
C299 C293 1.428 . S
C299 N298 1.351 . S
C299 C300 1.434 . S
C300 C291 1.429 . S
C300 N297 1.350 . S
C300 C299 1.434 . S
C301 C302 1.369 . S
C301 C303 1.419 . S
C301 H305 0.930 . S
C302 C301 1.369 . S
C302 C311 1.429 . S
C303 C301 1.419 . S
C303 C304 1.363 . S
C303 H306 0.929 . S
C304 C303 1.363 . S
C304 C310 1.428 . S
H305 C301 0.930 . S
H306 C303 0.929 . S
S307 N308 1.613 . S
S307 N309 1.610 . S
N308 S307 1.613 . S
N308 C311 1.350 . S
N309 S307 1.610 . S
N309 C310 1.351 . S
C310 C304 1.428 . S
C310 N309 1.351 . S
C310 C311 1.434 . S
C311 C302 1.429 . S
C311 N308 1.350 . S
C311 C310 1.434 . S
C312 C313 1.369 . S
C312 C314 1.419 . S
C312 H316 0.930 . S
C313 C312 1.369 . S
C313 C322 1.429 . S
C314 C312 1.419 . S
C314 C315 1.363 . S
C314 H317 0.929 . S
C315 C314 1.363 . S
C315 C321 1.428 . S
H316 C312 0.930 . S
H317 C314 0.929 . S
S318 N319 1.613 . S
S318 N320 1.610 . S
N319 S318 1.613 . S
N319 C322 1.350 . S
N320 S318 1.610 . S
N320 C321 1.351 . S
C321 C315 1.428 . S
C321 N320 1.351 . S
C321 C322 1.434 . S
C322 C313 1.429 . S
C322 N319 1.350 . S
C322 C321 1.434 . S
C323 C324 1.369 . S
C323 C325 1.419 . S
C323 H327 0.930 . S
C324 C323 1.369 . S
C324 C333 1.429 . S
C325 C323 1.419 . S
C325 C326 1.363 . S
C325 H328 0.929 . S
C326 C325 1.363 . S
C326 C332 1.428 . S
H327 C323 0.930 . S
H328 C325 0.929 . S
S329 N330 1.613 . S
S329 N331 1.610 . S
N330 S329 1.613 . S
N330 C333 1.350 . S
N331 S329 1.610 . S
N331 C332 1.351 . S
C332 C326 1.428 . S
C332 N331 1.351 . S
C332 C333 1.434 . S
C333 C324 1.429 . S
C333 N330 1.350 . S
C333 C332 1.434 . S
C334 C335 1.369 . S
C334 C336 1.419 . S
C334 H338 0.930 . S
C335 C334 1.369 . S
C335 C344 1.429 . S
C336 C334 1.419 . S
C336 C337 1.363 . S
C336 H339 0.929 . S
C337 C336 1.363 . S
C337 C343 1.428 . S
H338 C334 0.930 . S
H339 C336 0.929 . S
S340 N341 1.613 . S
S340 N342 1.610 . S
N341 S340 1.613 . S
N341 C344 1.350 . S
N342 S340 1.610 . S
N342 C343 1.351 . S
C343 C337 1.428 . S
C343 N342 1.351 . S
C343 C344 1.434 . S
C344 C335 1.429 . S
C344 N341 1.350 . S
C344 C343 1.434 . S
C345 C346 1.369 . S
C345 C347 1.419 . S
C345 H349 0.930 . S
C346 C345 1.369 . S
C346 C355 1.429 . S
C347 C345 1.419 . S
C347 C348 1.363 . S
C347 H350 0.929 . S
C348 C347 1.363 . S
C348 C354 1.428 . S
H349 C345 0.930 . S
H350 C347 0.929 . S
S351 N352 1.613 . S
S351 N353 1.610 . S
N352 S351 1.613 . S
N352 C355 1.350 . S
N353 S351 1.610 . S
N353 C354 1.351 . S
C354 C348 1.428 . S
C354 N353 1.351 . S
C354 C355 1.434 . S
C355 C346 1.429 . S
C355 N352 1.350 . S
C355 C354 1.434 . S
C356 C357 1.369 . S
C356 C358 1.419 . S
C356 H360 0.930 . S
C357 C356 1.369 . S
C357 C366 1.429 . S
C358 C356 1.419 . S
C358 C359 1.363 . S
C358 H361 0.929 . S
C359 C358 1.363 . S
C359 C365 1.428 . S
H360 C356 0.930 . S
H361 C358 0.929 . S
S362 N363 1.613 . S
S362 N364 1.610 . S
N363 S362 1.613 . S
N363 C366 1.350 . S
N364 S362 1.610 . S
N364 C365 1.351 . S
C365 C359 1.428 . S
C365 N364 1.351 . S
C365 C366 1.434 . S
C366 C357 1.429 . S
C366 N363 1.350 . S
C366 C365 1.434 . S
C367 C368 1.369 . S
C367 C369 1.419 . S
C367 H371 0.930 . S
C368 C367 1.369 . S
C368 C377 1.429 . S
C369 C367 1.419 . S
C369 C370 1.363 . S
C369 H372 0.929 . S
C370 C369 1.363 . S
C370 C376 1.428 . S
H371 C367 0.930 . S
H372 C369 0.929 . S
S373 N374 1.613 . S
S373 N375 1.610 . S
N374 S373 1.613 . S
N374 C377 1.350 . S
N375 S373 1.610 . S
N375 C376 1.351 . S
C376 C370 1.428 . S
C376 N375 1.351 . S
C376 C377 1.434 . S
C377 C368 1.429 . S
C377 N374 1.350 . S
C377 C376 1.434 . S
C378 C379 1.369 . S
C378 C380 1.419 . S
C378 H382 0.930 . S
C379 C378 1.369 . S
C379 C388 1.429 . S
C380 C378 1.419 . S
C380 C381 1.363 . S
C380 H383 0.929 . S
C381 C380 1.363 . S
C381 C387 1.428 . S
H382 C378 0.930 . S
H383 C380 0.929 . S
S384 N385 1.613 . S
S384 N386 1.610 . S
N385 S384 1.613 . S
N385 C388 1.350 . S
N386 S384 1.610 . S
N386 C387 1.351 . S
C387 C381 1.428 . S
C387 N386 1.351 . S
C387 C388 1.434 . S
C388 C379 1.429 . S
C388 N385 1.350 . S
C388 C387 1.434 . S
C389 C390 1.369 . S
C389 C391 1.419 . S
C389 H393 0.930 . S
C390 C389 1.369 . S
C390 C399 1.429 . S
C391 C389 1.419 . S
C391 C392 1.363 . S
C391 H394 0.929 . S
C392 C391 1.363 . S
C392 C398 1.428 . S
H393 C389 0.930 . S
H394 C391 0.929 . S
S395 N396 1.613 . S
S395 N397 1.610 . S
N396 S395 1.613 . S
N396 C399 1.350 . S
N397 S395 1.610 . S
N397 C398 1.351 . S
C398 C392 1.428 . S
C398 N397 1.351 . S
C398 C399 1.434 . S
C399 C390 1.429 . S
C399 N396 1.350 . S
C399 C398 1.434 . S
C400 C401 1.369 . S
C400 C402 1.419 . S
C400 H404 0.930 . S
C401 C400 1.369 . S
C401 C410 1.429 . S
C402 C400 1.419 . S
C402 C403 1.363 . S
C402 H405 0.929 . S
C403 C402 1.363 . S
C403 C409 1.428 . S
H404 C400 0.930 . S
H405 C402 0.929 . S
S406 N407 1.613 . S
S406 N408 1.610 . S
N407 S406 1.613 . S
N407 C410 1.350 . S
N408 S406 1.610 . S
N408 C409 1.351 . S
C409 C403 1.428 . S
C409 N408 1.351 . S
C409 C410 1.434 . S
C410 C401 1.429 . S
C410 N407 1.350 . S
C410 C409 1.434 . S
C411 C412 1.369 . S
C411 C413 1.419 . S
C411 H415 0.930 . S
C412 C411 1.369 . S
C412 C421 1.429 . S
C413 C411 1.419 . S
C413 C414 1.363 . S
C413 H416 0.929 . S
C414 C413 1.363 . S
C414 C420 1.428 . S
H415 C411 0.930 . S
H416 C413 0.929 . S
S417 N418 1.613 . S
S417 N419 1.610 . S
N418 S417 1.613 . S
N418 C421 1.350 . S
N419 S417 1.610 . S
N419 C420 1.351 . S
C420 C414 1.428 . S
C420 N419 1.351 . S
C420 C421 1.434 . S
C421 C412 1.429 . S
C421 N418 1.350 . S
C421 C420 1.434 . S
C422 C423 1.369 . S
C422 C424 1.419 . S
C422 H426 0.930 . S
C423 C422 1.369 . S
C423 C432 1.429 . S
C424 C422 1.419 . S
C424 C425 1.363 . S
C424 H427 0.929 . S
C425 C424 1.363 . S
C425 C431 1.428 . S
H426 C422 0.930 . S
H427 C424 0.929 . S
S428 N429 1.613 . S
S428 N430 1.610 . S
N429 S428 1.613 . S
N429 C432 1.350 . S
N430 S428 1.610 . S
N430 C431 1.351 . S
C431 C425 1.428 . S
C431 N430 1.351 . S
C431 C432 1.434 . S
C432 C423 1.429 . S
C432 N429 1.350 . S
C432 C431 1.434 . S
C433 C434 1.369 . S
C433 C435 1.419 . S
C433 H437 0.930 . S
C434 C433 1.369 . S
C434 C443 1.429 . S
C435 C433 1.419 . S
C435 C436 1.363 . S
C435 H438 0.929 . S
C436 C435 1.363 . S
C436 C442 1.428 . S
H437 C433 0.930 . S
H438 C435 0.929 . S
S439 N440 1.613 . S
S439 N441 1.610 . S
N440 S439 1.613 . S
N440 C443 1.350 . S
N441 S439 1.610 . S
N441 C442 1.351 . S
C442 C436 1.428 . S
C442 N441 1.351 . S
C442 C443 1.434 . S
C443 C434 1.429 . S
C443 N440 1.350 . S
C443 C442 1.434 . S
C444 C445 1.369 . S
C444 C446 1.419 . S
C444 H448 0.930 . S
C445 C444 1.369 . S
C445 C454 1.429 . S
C446 C444 1.419 . S
C446 C447 1.363 . S
C446 H449 0.929 . S
C447 C446 1.363 . S
C447 C453 1.428 . S
H448 C444 0.930 . S
H449 C446 0.929 . S
S450 N451 1.613 . S
S450 N452 1.610 . S
N451 S450 1.613 . S
N451 C454 1.350 . S
N452 S450 1.610 . S
N452 C453 1.351 . S
C453 C447 1.428 . S
C453 N452 1.351 . S
C453 C454 1.434 . S
C454 C445 1.429 . S
C454 N451 1.350 . S
C454 C453 1.434 . S
C455 C456 1.369 . S
C455 C457 1.419 . S
C455 H459 0.930 . S
C456 C455 1.369 . S
C456 C465 1.429 . S
C457 C455 1.419 . S
C457 C458 1.363 . S
C457 H460 0.929 . S
C458 C457 1.363 . S
C458 C464 1.428 . S
H459 C455 0.930 . S
H460 C457 0.929 . S
S461 N462 1.613 . S
S461 N463 1.610 . S
N462 S461 1.613 . S
N462 C465 1.350 . S
N463 S461 1.610 . S
N463 C464 1.351 . S
C464 C458 1.428 . S
C464 N463 1.351 . S
C464 C465 1.434 . S
C465 C456 1.429 . S
C465 N462 1.350 . S
C465 C464 1.434 . S
C466 C467 1.369 . S
C466 C468 1.419 . S
C466 H470 0.930 . S
C467 C466 1.369 . S
C467 C476 1.429 . S
C468 C466 1.419 . S
C468 C469 1.363 . S
C468 H471 0.929 . S
C469 C468 1.363 . S
C469 C475 1.428 . S
H470 C466 0.930 . S
H471 C468 0.929 . S
S472 N473 1.613 . S
S472 N474 1.610 . S
N473 S472 1.613 . S
N473 C476 1.350 . S
N474 S472 1.610 . S
N474 C475 1.351 . S
C475 C469 1.428 . S
C475 N474 1.351 . S
C475 C476 1.434 . S
C476 C467 1.429 . S
C476 N473 1.350 . S
C476 C475 1.434 . S
C477 C478 1.369 . S
C477 C479 1.419 . S
C477 H481 0.930 . S
C478 C477 1.369 . S
C478 C487 1.429 . S
C479 C477 1.419 . S
C479 C480 1.363 . S
C479 H482 0.929 . S
C480 C479 1.363 . S
C480 C486 1.428 . S
H481 C477 0.930 . S
H482 C479 0.929 . S
S483 N484 1.613 . S
S483 N485 1.610 . S
N484 S483 1.613 . S
N484 C487 1.350 . S
N485 S483 1.610 . S
N485 C486 1.351 . S
C486 C480 1.428 . S
C486 N485 1.351 . S
C486 C487 1.434 . S
C487 C478 1.429 . S
C487 N484 1.350 . S
C487 C486 1.434 . S
C488 C489 1.369 1_455 S
C488 C490 1.419 . S
C488 H492 0.930 . S
C489 C488 1.369 1_655 S
C489 C498 1.429 . S
C490 C488 1.419 . S
C490 C491 1.363 . S
C490 H493 0.929 . S
C491 C490 1.363 . S
C491 C497 1.428 1_455 S
H492 C488 0.930 . S
H493 C490 0.929 . S
S494 N495 1.613 . S
S494 N496 1.610 . S
N495 S494 1.613 . S
N495 C498 1.350 . S
N496 S494 1.610 . S
N496 C497 1.351 . S
C497 C491 1.428 1_655 S
C497 N496 1.351 . S
C497 C498 1.434 . S
C498 C489 1.429 . S
C498 N495 1.350 . S
C498 C497 1.434 . S
C499 C500 1.369 1_565 S
C499 C501 1.419 . S
C499 H503 0.930 . S
C500 C499 1.369 1_545 S
C500 C509 1.429 . S
C501 C499 1.419 . S
C501 C502 1.363 . S
C501 H504 0.929 . S
C502 C501 1.363 . S
C502 C508 1.428 1_565 S
H503 C499 0.930 . S
H504 C501 0.929 . S
S505 N506 1.613 . S
S505 N507 1.610 . S
N506 S505 1.613 . S
N506 C509 1.350 . S
N507 S505 1.610 . S
N507 C508 1.351 . S
C508 C502 1.428 1_545 S
C508 N507 1.351 . S
C508 C509 1.434 . S
C509 C500 1.429 . S
C509 N506 1.350 . S
C509 C508 1.434 . S
C510 C511 1.369 1_455 S
C510 C512 1.419 . S
C510 H514 0.930 . S
C511 C510 1.369 1_655 S
C511 C520 1.429 . S
C512 C510 1.419 . S
C512 C513 1.363 . S
C512 H515 0.929 . S
C513 C512 1.363 . S
C513 C519 1.428 1_455 S
H514 C510 0.930 . S
H515 C512 0.929 . S
S516 N517 1.613 . S
S516 N518 1.610 . S
N517 S516 1.613 . S
N517 C520 1.350 . S
N518 S516 1.610 . S
N518 C519 1.351 . S
C519 C513 1.428 1_655 S
C519 N518 1.351 . S
C519 C520 1.434 . S
C520 C511 1.429 . S
C520 N517 1.350 . S
C520 C519 1.434 . S
C521 C522 1.369 . S
C521 C523 1.419 . S
C521 H525 0.930 . S
C522 C521 1.369 . S
C522 C531 1.429 1_565 S
C523 C521 1.419 . S
C523 C524 1.363 1_565 S
C523 H526 0.929 . S
C524 C523 1.363 1_545 S
C524 C530 1.428 . S
H525 C521 0.930 . S
H526 C523 0.929 . S
S527 N528 1.613 . S
S527 N529 1.610 . S
N528 S527 1.613 . S
N528 C531 1.350 . S
N529 S527 1.610 . S
N529 C530 1.351 . S
C530 C524 1.428 . S
C530 N529 1.351 . S
C530 C531 1.434 . S
C531 C522 1.429 1_545 S
C531 N528 1.350 . S
C531 C530 1.434 . S
C532 C533 1.369 . S
C532 C534 1.419 1_556 S
C532 H536 0.930 . S
C533 C532 1.369 . S
C533 C542 1.429 . S
C534 C532 1.419 1_554 S
C534 C535 1.363 . S
C534 H537 0.929 . S
C535 C534 1.363 . S
C535 C541 1.428 . S
H536 C532 0.930 . S
H537 C534 0.929 . S
S538 N539 1.624 . S
S538 N540 1.600 1_556 S
N539 S538 1.624 . S
N539 C542 1.350 . S
N540 S538 1.600 1_554 S
N540 C541 1.351 . S
C541 C535 1.428 . S
C541 N540 1.351 . S
C541 C542 1.434 1_554 S
C542 C533 1.429 . S
C542 N539 1.350 . S
C542 C541 1.434 1_556 S
C543 C544 1.369 . S
C543 C545 1.419 1_556 S
C543 H547 0.930 . S
C544 C543 1.369 . S
C544 C553 1.429 . S
C545 C543 1.419 1_554 S
C545 C546 1.363 . S
C545 H548 0.929 . S
C546 C545 1.363 . S
C546 C552 1.428 . S
H547 C543 0.930 . S
H548 C545 0.929 . S
S549 N550 1.613 1_554 S
S549 N551 1.610 . S
N550 S549 1.613 1_556 S
N550 C553 1.350 . S
N551 S549 1.610 . S
N551 C552 1.351 . S
C552 C546 1.428 . S
C552 N551 1.351 . S
C552 C553 1.434 1_554 S
C553 C544 1.429 . S
C553 N550 1.350 . S
C553 C552 1.434 1_556 S
C554 C555 1.369 . S
C554 C556 1.419 1_554 S
C554 H558 0.930 . S
C555 C554 1.369 . S
C555 C564 1.429 . S
C556 C554 1.419 1_556 S
C556 C557 1.363 . S
C556 H559 0.929 . S
C557 C556 1.363 . S
C557 C563 1.428 . S
H558 C554 0.930 . S
H559 C556 0.929 . S
S560 N561 1.613 1_556 S
S560 N562 1.610 . S
N561 S560 1.613 1_554 S
N561 C564 1.350 . S
N562 S560 1.610 . S
N562 C563 1.351 . S
C563 C557 1.428 . S
C563 N562 1.351 . S
C563 C564 1.434 1_556 S
C564 C555 1.429 . S
C564 N561 1.350 . S
C564 C563 1.434 1_554 S
C565 C566 1.369 . S
C565 C567 1.419 1_556 S
C565 H569 0.930 . S
C566 C565 1.369 . S
C566 C575 1.429 . S
C567 C565 1.419 1_554 S
C567 C568 1.363 . S
C567 H570 0.929 . S
C568 C567 1.363 . S
C568 C574 1.428 . S
H569 C565 0.930 . S
H570 C567 0.929 . S
S571 N572 1.613 1_554 S
S571 N573 1.610 . S
N572 S571 1.613 1_556 S
N572 C575 1.350 . S
N573 S571 1.610 . S
N573 C574 1.351 . S
C574 C568 1.428 . S
C574 N573 1.351 . S
C574 C575 1.434 1_554 S
C575 C566 1.429 . S
C575 N572 1.350 . S
C575 C574 1.434 1_556 S
C225 C8 1.589 . S
C227 C51 1.542 . S
C236 C9 1.545 . S
C238 C22 1.592 . S
C247 C23 1.548 . S
C249 C36 1.590 . S
C258 C37 1.549 . S
C260 C50 1.592 . S
C269 C64 1.591 . S
C271 C79 1.542 . S
C280 C78 1.591 . S
C282 C93 1.548 . S
C291 C92 1.589 . S
C293 C107 1.545 . S
C302 C106 1.592 . S
C304 C65 1.548 . S
C313 C120 1.591 . S
C315 C163 1.548 . S
C324 C121 1.541 . S
C326 C134 1.591 . S
C335 C135 1.549 . S
C337 C148 1.591 . S
C346 C162 1.589 . S
C348 C149 1.542 . S
C357 C191 1.544 . S
C359 C176 1.592 . S
C368 C205 1.547 . S
C370 C190 1.592 . S
C379 C204 1.592 . S
C381 C219 1.548 . S
C390 C218 1.592 . S
C392 C177 1.545 . S
C401 C6 1.391 . S
C403 C216 1.391 . S
C412 C20 1.391 . S
C414 C174 1.391 . S
C423 C188 1.391 . S
C425 C34 1.391 . S
C434 C48 1.390 . S
C436 C202 1.391 . S
C445 C132 1.391 . S
C447 C62 1.391 . S
C456 C146 1.391 . S
C458 C76 1.391 . S
C467 C90 1.391 . S
C469 C160 1.391 . S
C478 C104 1.390 . S
C480 C118 1.391 . S
C489 C7 1.639 1_655 S
C491 C91 1.636 1_455 S
C500 C105 1.639 1_545 S
C502 C21 1.633 1_565 S
C511 C63 1.637 1_655 S
C513 C35 1.631 1_455 S
C522 C77 1.631 1_565 S
C524 C49 1.637 1_545 S
C533 C119 1.636 . S
C535 C203 1.638 . S
C544 C133 1.639 . S
C546 C217 1.633 . S
C555 C175 1.639 . S
C557 C147 1.636 . S
C566 C161 1.636 . S
C568 C189 1.630 . S
