# Generated by pormake.
# Topology uov, (4)-cn, num edge types: 1
# Building blocks:
#     Node 0, Type 0, BuildingBlock: NAHDIM_clean_sbu_0, # of connection points: 4
#     Node 1, Type 0, BuildingBlock: NAHDIM_clean_sbu_0, # of connection points: 4
#     Node 2, Type 0, BuildingBlock: NAHDIM_clean_sbu_0, # of connection points: 4
#     Node 3, Type 0, BuildingBlock: NAHDIM_clean_sbu_0, # of connection points: 4
#     Node 4, Type 0, BuildingBlock: NAHDIM_clean_sbu_0, # of connection points: 4
#     Node 5, Type 0, BuildingBlock: NAHDIM_clean_sbu_0, # of connection points: 4
#     Node 6, Type 0, BuildingBlock: NAHDIM_clean_sbu_0, # of connection points: 4
#     Node 7, Type 0, BuildingBlock: NAHDIM_clean_sbu_0, # of connection points: 4
#     Edge 8, Type (0, 0), BuildingBlock: XIVTED_clean_linker_0, # of connection points: 2
#     Edge 9, Type (0, 0), BuildingBlock: XIVTED_clean_linker_0, # of connection points: 2
#     Edge 10, Type (0, 0), BuildingBlock: XIVTED_clean_linker_0, # of connection points: 2
#     Edge 11, Type (0, 0), BuildingBlock: XIVTED_clean_linker_0, # of connection points: 2
#     Edge 12, Type (0, 0), BuildingBlock: XIVTED_clean_linker_0, # of connection points: 2
#     Edge 13, Type (0, 0), BuildingBlock: XIVTED_clean_linker_0, # of connection points: 2
#     Edge 14, Type (0, 0), BuildingBlock: XIVTED_clean_linker_0, # of connection points: 2
#     Edge 15, Type (0, 0), BuildingBlock: XIVTED_clean_linker_0, # of connection points: 2
#     Edge 16, Type (0, 0), BuildingBlock: XIVTED_clean_linker_0, # of connection points: 2
#     Edge 17, Type (0, 0), BuildingBlock: XIVTED_clean_linker_0, # of connection points: 2
#     Edge 18, Type (0, 0), BuildingBlock: XIVTED_clean_linker_0, # of connection points: 2
#     Edge 19, Type (0, 0), BuildingBlock: XIVTED_clean_linker_0, # of connection points: 2
#     Edge 20, Type (0, 0), BuildingBlock: XIVTED_clean_linker_0, # of connection points: 2
#     Edge 21, Type (0, 0), BuildingBlock: XIVTED_clean_linker_0, # of connection points: 2
#     Edge 22, Type (0, 0), BuildingBlock: XIVTED_clean_linker_0, # of connection points: 2
#     Edge 23, Type (0, 0), BuildingBlock: XIVTED_clean_linker_0, # of connection points: 2
# Relax obj value: 0.256
# Max RMSD: 0.233
# Mean RMSD: 0.233
data_MOF--net-uov--node1-NAHDIM_clean_sbu_0--edge1-XIVTED_clean_linker_0
_symmetry_space_group_name_H-M    P1
_symmetry_Int_Tables_number       1
_symmetry_cell_setting            triclinic
loop_
_symmetry_equiv_pos_as_xyz
'x, y, z'
_cell_length_a     30.35576
_cell_length_b     30.338749
_cell_length_c     41.288807
_cell_angle_alpha  89.969697
_cell_angle_beta   89.972537
_cell_angle_gamma 90.035322
loop_
_atom_site_label
_atom_site_type_symbol
_atom_site_fract_x
_atom_site_fract_y
_atom_site_fract_z
_atom_type_partial_charge
C0 C 0.97745 0.32863 0.63684 0.0
O1 O 0.9414 0.31202 0.64958 0.0
O2 O 0.92759 0.22898 0.60707 0.0
Zn3 Zn 0.99172 0.23892 0.61657 0.0
O4 O 0.01141 0.20634 0.65659 0.0
C5 C 0.06298 0.22934 0.56952 0.0
O6 O 0.08402 0.2577 0.58793 0.0
O7 O 0.0038 0.30341 0.62179 0.0
C8 C 0.03142 0.16962 0.65474 0.0
O9 O 0.03852 0.15201 0.62616 0.0
C10 C 0.90472 0.19835 0.61966 0.0
O11 O 0.92234 0.17337 0.64218 0.0
O12 O 0.02443 0.21705 0.57742 0.0
C13 C 0.3051 0.95862 0.34231 0.0
O14 O 0.28763 0.91938 0.33824 0.0
O15 O 0.18643 0.03359 0.37684 0.0
Zn16 Zn 0.21659 0.97933 0.35966 0.0
O17 O 0.18523 0.95413 0.32114 0.0
C18 C 0.22996 0.94063 0.42262 0.0
O19 O 0.25307 0.97661 0.42756 0.0
O20 O 0.28038 0.99053 0.3504 0.0
C21 C 0.17723 0.97383 0.29464 0.0
O22 O 0.19019 0.01483 0.29077 0.0
C23 C 0.20815 0.06413 0.39061 0.0
O24 O 0.25139 0.06238 0.39051 0.0
O25 O 0.21245 0.93426 0.39507 0.0
C26 C 0.02148 0.65459 0.62318 0.0
O27 O 0.05914 0.67071 0.61288 0.0
O28 O 0.04582 0.75847 0.58875 0.0
Zn29 Zn 0.9905 0.74385 0.61326 0.0
O30 O 0.98343 0.78241 0.65246 0.0
C31 C 0.94226 0.74826 0.55327 0.0
O32 O 0.97741 0.72825 0.54196 0.0
O33 O 0.98834 0.67991 0.62566 0.0
C34 C 0.97098 0.82199 0.64817 0.0
O35 O 0.96538 0.83655 0.61848 0.0
C36 C 0.07597 0.7845 0.59819 0.0
O37 O 0.07326 0.80257 0.62702 0.0
O38 O 0.93993 0.75687 0.58334 0.0
C39 C 0.62997 0.98069 0.37533 0.0
O40 O 0.65755 0.94973 0.3662 0.0
O41 O 0.72789 0.95844 0.42546 0.0
Zn42 Zn 0.70696 0.01593 0.40669 0.0
O43 O 0.74508 0.03461 0.36933 0.0
C44 C 0.70428 0.05143 0.47098 0.0
O45 O 0.68737 0.01253 0.47745 0.0
O46 O 0.64386 0.01216 0.39285 0.0
C47 C 0.78533 0.04404 0.3743 0.0
O48 O 0.80146 0.03998 0.40368 0.0
C49 C 0.75316 0.93113 0.41138 0.0
O50 O 0.76535 0.9385 0.38132 0.0
O51 O 0.71354 0.06114 0.44181 0.0
C52 C 0.00287 0.31419 0.15836 0.0
O53 O 0.03259 0.29152 0.1744 0.0
O54 O 0.03112 0.20314 0.12338 0.0
Zn55 Zn 0.97186 0.22849 0.13534 0.0
O56 O 0.9455 0.19874 0.17419 0.0
C57 C 0.93584 0.23425 0.07048 0.0
O58 O 0.96688 0.26388 0.06636 0.0
O59 O 0.9745 0.29397 0.14133 0.0
C60 C 0.96579 0.18569 0.19931 0.0
O61 O 0.00847 0.19213 0.20169 0.0
C62 C 0.05813 0.22565 0.10659 0.0
O63 O 0.04886 0.26697 0.10001 0.0
O64 O 0.93148 0.21578 0.09794 0.0
C65 C 0.33979 0.00418 0.86013 0.0
O66 O 0.31882 0.96911 0.8496 0.0
O67 O 0.24696 0.96173 0.90621 0.0
Zn68 Zn 0.25597 0.023 0.8888 0.0
O69 O 0.21849 0.03415 0.84943 0.0
C70 C 0.24265 0.05495 0.9537 0.0
O71 O 0.25898 0.01619 0.96123 0.0
O72 O 0.31934 0.03204 0.87744 0.0
C73 C 0.18008 0.05036 0.85221 0.0
O74 O 0.16442 0.05863 0.88124 0.0
C75 C 0.22253 0.93234 0.89367 0.0
O76 O 0.20241 0.94054 0.86617 0.0
O77 O 0.23919 0.06572 0.92405 0.0
C78 C 0.0289 0.63814 0.11801 0.0
O79 O 0.06199 0.66116 0.12962 0.0
O80 O 0.95048 0.73974 0.06554 0.0
Zn81 Zn 0.0076 0.71935 0.0848 0.0
O82 O 0.02549 0.75765 0.12231 0.0
C83 C 0.09316 0.73237 0.05411 0.0
O84 O 0.10847 0.73141 0.08386 0.0
O85 O 0.00206 0.65631 0.09855 0.0
C86 C 0.03518 0.79792 0.11761 0.0
O87 O 0.03188 0.81435 0.08826 0.0
C88 C 0.92251 0.76503 0.07887 0.0
O89 O 0.92911 0.77853 0.10871 0.0
O90 O 0.05234 0.72597 0.04928 0.0
C91 C 0.66619 0.03257 0.8537 0.0
O92 O 0.68631 0.07005 0.85965 0.0
O93 O 0.76746 0.04878 0.89439 0.0
Zn94 Zn 0.75109 -0.00503 0.86885 0.0
O95 O 0.79066 0.9863 0.83038 0.0
C96 C 0.7475 0.94655 0.92833 0.0
O97 O 0.72677 0.98218 0.93805 0.0
O98 O 0.68769 -0.00323 0.85552 0.0
C99 C 0.82896 0.9707 0.83516 0.0
O100 O 0.84192 0.963 0.86499 0.0
C101 C 0.79567 0.07783 0.88662 0.0
O102 O 0.81554 0.07535 0.85841 0.0
O103 O 0.75973 0.94373 0.89896 0.0
H104 H 0.94955 0.61122 0.64742 0.0
H105 H 0.05149 0.37232 0.61692 0.0
H106 H 0.08234 0.58931 0.61354 0.0
H107 H 0.92405 0.39384 0.66063 0.0
H108 H 0.06427 0.4517 0.61721 0.0
H109 H 0.94049 0.53182 0.65428 0.0
C110 C 0.97692 0.58974 0.64159 0.0
C111 C 0.01668 0.60693 0.62966 0.0
C112 C 0.03361 0.43908 0.62692 0.0
C113 C 0.00642 0.51594 0.63732 0.0
C114 C 0.02624 0.39373 0.62671 0.0
C115 C 0.98648 0.37642 0.63858 0.0
C116 C 0.00089 0.46744 0.63887 0.0
C117 C 0.9551 0.40574 0.65114 0.0
C118 C 0.97171 0.54438 0.64555 0.0
C119 C 0.05105 0.57752 0.62269 0.0
N120 N 0.96286 0.44986 0.65075 0.0
N121 N 0.04501 0.53343 0.6264 0.0
H122 H 0.58657 0.91387 0.34397 0.0
H123 H 0.35213 0.03349 0.35531 0.0
H124 H 0.56633 0.04282 0.3856 0.0
H125 H 0.36818 0.89719 0.32763 0.0
H126 H 0.43197 0.04057 0.35934 0.0
H127 H 0.50794 0.91016 0.3312 0.0
C128 C 0.56567 0.94148 0.35028 0.0
C129 C 0.58299 0.97857 0.3661 0.0
C130 C 0.41807 0.00918 0.35218 0.0
C131 C 0.49314 0.97458 0.35148 0.0
C132 C 0.37245 0.00513 0.34976 0.0
C133 C 0.35341 0.96454 0.3414 0.0
C134 C 0.44492 0.97241 0.34618 0.0
C135 C 0.38143 0.92901 0.33439 0.0
C136 C 0.5208 0.93932 0.343 0.0
C137 C 0.55438 0.01343 0.37361 0.0
N138 N 0.42581 0.93369 0.33713 0.0
N139 N 0.51088 0.01051 0.36631 0.0
H140 H 0.06558 0.36928 0.18424 0.0
H141 H 0.96146 0.58336 0.10094 0.0
H142 H 0.94453 0.36993 0.12934 0.0
H143 H 0.08278 0.58626 0.15547 0.0
H144 H 0.95305 0.50569 0.11424 0.0
H145 H 0.07057 0.44937 0.1774 0.0
C146 C 0.03987 0.38626 0.17102 0.0
C147 C 0.00475 0.36283 0.15715 0.0
C148 C 0.98148 0.52325 0.12343 0.0
C149 C 0.01037 0.45419 0.14912 0.0
C150 C 0.98634 0.56768 0.11579 0.0
C151 C 0.02304 0.59133 0.12694 0.0
C152 C 0.0136 0.50206 0.14229 0.0
C153 C 0.05405 0.56925 0.14626 0.0
C154 C 0.0428 0.43194 0.16706 0.0
C155 C 0.97237 0.38653 0.14028 0.0
N156 N 0.04875 0.52573 0.15321 0.0
N157 N 0.97611 0.43079 0.13662 0.0
H158 H 0.39692 0.94572 0.832 0.0
H159 H 0.60733 0.10066 0.85841 0.0
H160 H 0.39064 0.07647 0.87301 0.0
H161 H 0.61553 0.96169 0.83668 0.0
H162 H 0.5271 0.09598 0.85479 0.0
H163 H 0.47639 0.95478 0.82481 0.0
C164 C 0.41217 0.97645 0.83927 0.0
C165 C 0.3872 0.01021 0.85345 0.0
C166 C 0.54651 0.0666 0.85058 0.0
C167 C 0.47796 0.02079 0.84524 0.0
C168 C 0.59231 0.06927 0.85254 0.0
C169 C 0.61813 0.0314 0.84821 0.0
C170 C 0.52644 0.02582 0.84412 0.0
C171 C 0.59688 0.99163 0.84054 0.0
C172 C 0.45753 0.98156 0.8352 0.0
C173 C 0.40868 0.04939 0.86228 0.0
N174 N 0.55225 0.98983 0.83893 0.0
N175 N 0.45286 0.05352 0.85816 0.0
H176 H 0.11932 0.07297 0.4003 0.0
H177 H 0.14754 0.24188 0.5477 0.0
H178 H 0.24445 0.12837 0.4289 0.0
H179 H 0.0261 0.17496 0.52428 0.0
H180 H 0.18196 0.20815 0.50015 0.0
H181 H 0.0829 0.11863 0.44087 0.0
C182 C 0.13912 0.09515 0.41481 0.0
C183 C 0.18511 0.09643 0.41143 0.0
C184 C 0.14771 0.20108 0.50536 0.0
C185 C 0.14358 0.14853 0.45823 0.0
C186 C 0.12805 0.2203 0.5325 0.0
C187 C 0.08398 0.21094 0.54016 0.0
C188 C 0.12307 0.17241 0.48571 0.0
C189 C 0.06027 0.18286 0.5195 0.0
C190 C 0.11829 0.12111 0.43809 0.0
C191 C 0.20896 0.12603 0.43082 0.0
N192 N 0.08016 0.16449 0.49334 0.0
N193 N 0.18797 0.1506 0.45362 0.0
H194 H 0.24662 0.95279 0.48728 0.0
H195 H 0.09256 0.75107 0.53801 0.0
H196 H 0.18858 0.8607 0.41997 0.0
H197 H 0.13642 0.85125 0.6049 0.0
H198 H 0.14025 0.78254 0.49654 0.0
H199 H 0.21897 0.90797 0.5322 0.0
C200 C 0.22865 0.92281 0.48192 0.0
C201 C 0.21927 0.91082 0.44983 0.0
C202 C 0.13986 0.79739 0.52038 0.0
C203 C 0.18752 0.85957 0.50105 0.0
C204 C 0.11265 0.77939 0.54413 0.0
C205 C 0.10991 0.79904 0.57483 0.0
C206 C 0.16439 0.83549 0.52726 0.0
C207 C 0.13716 0.83533 0.58146 0.0
C208 C 0.21279 0.89732 0.50759 0.0
C209 C 0.19604 0.87155 0.44433 0.0
N210 N 0.16284 0.85279 0.5577 0.0
N211 N 0.18061 0.84758 0.46968 0.0
H212 H 0.73484 0.9071 0.47377 0.0
H213 H 0.94206 0.74591 0.48687 0.0
H214 H 0.81778 0.87326 0.39252 0.0
H215 H 0.86532 0.79028 0.56867 0.0
H216 H 0.89004 0.7826 0.45057 0.0
H217 H 0.77515 0.85458 0.50715 0.0
C218 C 0.76122 0.88826 0.46281 0.0
C219 C 0.77333 0.89505 0.43037 0.0
C220 C 0.88436 0.7839 0.47645 0.0
C221 C 0.81992 0.83498 0.46864 0.0
C222 C 0.914 0.76289 0.4972 0.0
C223 C 0.90834 0.76547 0.5309 0.0
C224 C 0.84882 0.80762 0.48949 0.0
C225 C 0.87126 0.78777 0.54288 0.0
C226 C 0.7843 0.85828 0.48194 0.0
C227 C 0.80755 0.86937 0.41747 0.0
N228 N 0.84316 0.80828 0.52221 0.0
N229 N 0.82999 0.8408 0.43675 0.0
H230 H 0.7073 0.03317 0.53595 0.0
H231 H 0.86091 0.2408 0.57086 0.0
H232 H 0.73636 0.13549 0.46643 0.0
H233 H 0.85226 0.1271 0.6335 0.0
H234 H 0.79985 0.21185 0.53894 0.0
H235 H 0.74479 0.07629 0.57769 0.0
C236 C 0.72083 0.06506 0.52957 0.0
C237 C 0.71945 0.08039 0.4975 0.0
C238 C 0.81087 0.19355 0.55995 0.0
C239 C 0.76243 0.12973 0.5451 0.0
C240 C 0.84571 0.21009 0.57826 0.0
C241 C 0.86241 0.18582 0.60448 0.0
C242 C 0.79265 0.15238 0.56783 0.0
C243 C 0.84092 0.14658 0.61318 0.0
C244 C 0.74233 0.08959 0.55341 0.0
C245 C 0.73727 0.12207 0.49072 0.0
N246 N 0.80757 0.1307 0.59457 0.0
N247 N 0.75849 0.14503 0.51422 0.0
H248 H 0.86151 0.13978 0.88199 0.0
H249 H 0.86193 0.18293 0.07201 0.0
H250 H 0.76277 0.08923 0.94758 0.0
H251 H 0.94852 0.25136 0.00595 0.0
H252 H 0.82215 0.15246 0.0259 0.0
H253 H 0.89069 0.18543 0.92591 0.0
C254 C 0.8456 0.1387 0.90546 0.0
C255 C 0.81002 0.11018 0.91122 0.0
C256 C 0.84956 0.17449 0.02142 0.0
C257 C 0.84342 0.16196 0.96156 0.0
C258 C 0.87236 0.19183 0.04777 0.0
C259 C 0.90886 0.21937 0.04281 0.0
C260 C 0.86366 0.18427 0.98981 0.0
C261 C 0.92066 0.23009 0.01088 0.0
C262 C 0.86229 0.16474 0.93053 0.0
C263 C 0.79058 0.11032 0.94208 0.0
N264 N 0.89845 0.21207 0.98554 0.0
N265 N 0.80784 0.13536 0.96614 0.0
H266 H 0.21657 0.14095 0.94816 0.0
H267 H 0.08911 0.14158 0.11554 0.0
H268 H 0.22687 0.03459 0.01724 0.0
H269 H 0.11057 0.25918 0.05872 0.0
H270 H 0.142 0.1025 0.08132 0.0
H271 H 0.17979 0.18563 0.98926 0.0
C272 C 0.21145 0.12714 0.97207 0.0
C273 C 0.22445 0.08385 0.9792 0.0
C274 C 0.1356 0.13704 0.07665 0.0
C275 C 0.18203 0.13465 0.02627 0.0
C276 C 0.1054 0.15936 0.09618 0.0
C277 C 0.095 0.20357 0.08975 0.0
C278 C 0.15503 0.15892 0.05027 0.0
C279 C 0.11731 0.22502 0.06445 0.0
C280 C 0.19057 0.15271 0.99556 0.0
C281 C 0.21723 0.06775 0.01065 0.0
N282 N 0.14577 0.20232 0.04534 0.0
N283 N 0.19597 0.09295 0.03291 0.0
H284 H 0.17734 0.76498 0.05712 0.0
H285 H 0.16167 0.86819 0.87975 0.0
H286 H 0.0719 0.73791 0.98984 0.0
H287 H 0.25947 0.90505 0.95066 0.0
H288 H 0.13742 0.8087 0.91554 0.0
H289 H 0.21668 0.80419 0.01423 0.0
C290 C 0.16279 0.76659 0.0332 0.0
C291 C 0.12089 0.74883 0.02724 0.0
C292 C 0.16457 0.82946 0.92307 0.0
C293 C 0.16555 0.79398 0.97813 0.0
C294 C 0.1785 0.86339 0.9026 0.0
C295 C 0.21212 0.89214 0.91246 0.0
C296 C 0.18439 0.82432 0.95359 0.0
C297 C 0.23296 0.8841 0.94225 0.0
C298 C 0.18522 0.78912 0.00874 0.0
C299 C 0.10382 0.75169 0.99569 0.0
N300 N 0.2184 0.8513 0.96192 0.0
N301 N 0.12595 0.77438 0.97245 0.0
H302 H 0.74015 0.9491 0.99448 0.0
H303 H 0.89814 0.74128 0.01765 0.0
H304 H 0.78836 0.86793 0.91627 0.0
H305 H 0.86482 0.83131 0.09483 0.0
H306 H 0.84614 0.7791 0.98239 0.0
H307 H 0.77378 0.89834 0.03328 0.0
C308 C 0.75724 0.92028 0.98546 0.0
C309 C 0.762 0.91308 0.95205 0.0
C310 C 0.84982 0.79035 0.00713 0.0
C311 C 0.80062 0.85503 0.99631 0.0
C312 C 0.87951 0.76873 0.02733 0.0
C313 C 0.8864 0.78361 0.05912 0.0
C314 C 0.8269 0.82732 0.01867 0.0
C315 C 0.86088 0.81898 0.0704 0.0
C316 C 0.77652 0.89139 0.00764 0.0
C317 C 0.78431 0.87508 0.94178 0.0
N318 N 0.83263 0.84002 0.05005 0.0
N319 N 0.80313 0.84774 0.96382 0.0
H320 H 0.01478 0.1913 0.71796 0.0
H321 H 0.198 0.03 0.78894 0.0
H322 H 0.08772 0.09943 0.65883 0.0
H323 H 0.10441 0.09917 0.84905 0.0
H324 H 0.15832 0.05526 0.74092 0.0
H325 H 0.04747 0.15833 0.76632 0.0
C326 C 0.03751 0.16406 0.71515 0.0
C327 C 0.04875 0.14827 0.68429 0.0
C328 C 0.14627 0.06463 0.76462 0.0
C329 C 0.08647 0.11057 0.73953 0.0
C330 C 0.16897 0.0503 0.79205 0.0
C331 C 0.15466 0.06272 0.82306 0.0
C332 C 0.10928 0.09199 0.76818 0.0
C333 C 0.11668 0.08887 0.82562 0.0
C334 C 0.05608 0.14518 0.74278 0.0
C335 C 0.07819 0.11273 0.68213 0.0
N336 N 0.09554 0.10297 0.79853 0.0
N337 N 0.09632 0.09533 0.70936 0.0
H338 H 0.04757 0.7737 0.18077 0.0
H339 H 0.15642 0.00339 0.23354 0.0
H340 H 0.06252 0.88406 0.1156 0.0
H341 H 0.14468 0.88996 0.29618 0.0
H342 H 0.11897 0.96205 0.19064 0.0
H343 H 0.07967 0.81777 0.22409 0.0
C344 C 0.05742 0.80729 0.17558 0.0
C345 C 0.05248 0.82514 0.14445 0.0
C346 C 0.12454 0.94632 0.21382 0.0
C347 C 0.08954 0.87587 0.19403 0.0
C348 C 0.14591 0.96989 0.23831 0.0
C349 C 0.15388 0.95009 0.26847 0.0
C350 C 0.11103 0.90268 0.21959 0.0
C351 C 0.13944 0.90659 0.27331 0.0
C352 C 0.07583 0.83247 0.20036 0.0
C353 C 0.0658 0.86892 0.13922 0.0
N354 N 0.11884 0.88441 0.24914 0.0
N355 N 0.08387 0.89276 0.16374 0.0
H356 H 0.98604 0.80638 0.71257 0.0
H357 H 0.81716 0.98928 0.77083 0.0
H358 H 0.92676 0.90046 0.64735 0.0
H359 H 0.90317 0.91971 0.83653 0.0
H360 H 0.85837 0.95873 0.72521 0.0
H361 H 0.95772 0.84872 0.75843 0.0
C362 C 0.96741 0.83616 0.7079 0.0
C363 C 0.95836 0.84967 0.67609 0.0
C364 C 0.86855 0.95056 0.74961 0.0
C365 C 0.92554 0.89801 0.7284 0.0
C366 C 0.84497 0.96791 0.77566 0.0
C367 C 0.85647 0.95666 0.80751 0.0
C368 C 0.90347 0.92126 0.75545 0.0
C369 C 0.89301 0.92909 0.81237 0.0
C370 C 0.95135 0.86038 0.73408 0.0
C371 C 0.93434 0.88869 0.67146 0.0
N372 N 0.91486 0.91186 0.7866 0.0
N373 N 0.91827 0.91118 0.69733 0.0
H374 H 0.76112 0.0603 0.31162 0.0
H375 H -0.004 0.15711 0.25853 0.0
H376 H 0.8725 0.06773 0.3764 0.0
H377 H 0.87902 0.16209 0.19917 0.0
H378 H 0.95332 0.11988 0.30091 0.0
H379 H 0.80608 0.09262 0.26881 0.0
C380 C 0.7951 0.06856 0.31682 0.0
C381 C 0.81298 0.06149 0.34771 0.0
C382 C 0.93709 0.12913 0.27857 0.0
C383 C 0.86474 0.09871 0.29873 0.0
C384 C 0.96143 0.15036 0.25438 0.0
C385 C 0.94105 0.1629 0.22529 0.0
C386 C 0.89217 0.12025 0.27353 0.0
C387 C 0.89615 0.15324 0.22122 0.0
C388 C 0.82078 0.08712 0.29236 0.0
C389 C 0.8573 0.07276 0.35298 0.0
N390 N 0.87329 0.13254 0.24503 0.0
N391 N 0.88165 0.09093 0.32875 0.0
loop_
_geom_bond_atom_site_label_1
_geom_bond_atom_site_label_2
_geom_bond_distance
_geom_bond_site_symmetry_2
_ccdc_geom_bond_type
C0 O1 1.180 . S
C0 O7 1.185 . S
O1 C0 1.180 . S
O2 Zn3 1.899 1_655 S
O2 C10 1.284 . S
Zn3 O2 1.899 1_455 S
Zn3 O4 2.032 . S
Zn3 O7 2.086 . S
Zn3 O12 1.977 . S
O4 Zn3 2.032 . S
O4 C8 1.278 . S
C5 O6 1.203 . S
C5 O12 1.267 . S
O6 C5 1.203 . S
O7 C0 1.185 . S
O7 Zn3 2.086 . S
C8 O4 1.278 . S
C8 O9 1.211 . S
O9 C8 1.211 . S
C10 O2 1.284 . S
C10 O11 1.273 . S
O11 C10 1.273 . S
O12 Zn3 1.977 . S
O12 C5 1.267 . S
C13 O14 1.180 . S
C13 O20 1.185 . S
O14 C13 1.180 . S
O15 Zn16 1.899 1_545 S
O15 C23 1.284 . S
Zn16 O15 1.899 1_565 S
Zn16 O17 2.032 . S
Zn16 O20 2.086 . S
Zn16 O25 1.977 . S
O17 Zn16 2.032 . S
O17 C21 1.278 . S
C18 O19 1.203 . S
C18 O25 1.267 . S
O19 C18 1.203 . S
O20 C13 1.185 . S
O20 Zn16 2.086 . S
C21 O17 1.278 . S
C21 O22 1.211 . S
O22 C21 1.211 . S
C23 O15 1.284 . S
C23 O24 1.273 . S
O24 C23 1.273 . S
O25 Zn16 1.977 . S
O25 C18 1.267 . S
C26 O27 1.180 . S
C26 O33 1.185 . S
O27 C26 1.180 . S
O28 Zn29 1.899 1_455 S
O28 C36 1.284 . S
Zn29 O28 1.899 1_655 S
Zn29 O30 2.032 . S
Zn29 O33 2.086 . S
Zn29 O38 1.977 . S
O30 Zn29 2.032 . S
O30 C34 1.278 . S
C31 O32 1.203 . S
C31 O38 1.267 . S
O32 C31 1.203 . S
O33 C26 1.185 . S
O33 Zn29 2.086 . S
C34 O30 1.278 . S
C34 O35 1.211 . S
O35 C34 1.211 . S
C36 O28 1.284 . S
C36 O37 1.273 . S
O37 C36 1.273 . S
O38 Zn29 1.977 . S
O38 C31 1.267 . S
C39 O40 1.180 . S
C39 O46 1.185 . S
O40 C39 1.180 . S
O41 Zn42 1.899 1_565 S
O41 C49 1.284 . S
Zn42 O41 1.899 1_545 S
Zn42 O43 2.032 . S
Zn42 O46 2.086 . S
Zn42 O51 1.977 . S
O43 Zn42 2.032 . S
O43 C47 1.278 . S
C44 O45 1.203 . S
C44 O51 1.267 . S
O45 C44 1.203 . S
O46 C39 1.185 . S
O46 Zn42 2.086 . S
C47 O43 1.278 . S
C47 O48 1.211 . S
O48 C47 1.211 . S
C49 O41 1.284 . S
C49 O50 1.273 . S
O50 C49 1.273 . S
O51 Zn42 1.977 . S
O51 C44 1.267 . S
C52 O53 1.180 . S
C52 O59 1.185 . S
O53 C52 1.180 . S
O54 Zn55 1.899 1_455 S
O54 C62 1.284 . S
Zn55 O54 1.899 1_655 S
Zn55 O56 2.032 . S
Zn55 O59 2.086 . S
Zn55 O64 1.977 . S
O56 Zn55 2.032 . S
O56 C60 1.278 . S
C57 O58 1.203 . S
C57 O64 1.267 . S
O58 C57 1.203 . S
O59 C52 1.185 . S
O59 Zn55 2.086 . S
C60 O56 1.278 . S
C60 O61 1.211 . S
O61 C60 1.211 . S
C62 O54 1.284 . S
C62 O63 1.273 . S
O63 C62 1.273 . S
O64 Zn55 1.977 . S
O64 C57 1.267 . S
C65 O66 1.180 . S
C65 O72 1.185 . S
O66 C65 1.180 . S
O67 Zn68 1.899 1_565 S
O67 C75 1.284 . S
Zn68 O67 1.899 1_545 S
Zn68 O69 2.032 . S
Zn68 O72 2.086 . S
Zn68 O77 1.977 . S
O69 Zn68 2.032 . S
O69 C73 1.278 . S
C70 O71 1.203 . S
C70 O77 1.267 . S
O71 C70 1.203 . S
O72 C65 1.185 . S
O72 Zn68 2.086 . S
C73 O69 1.278 . S
C73 O74 1.211 . S
O74 C73 1.211 . S
C75 O67 1.284 . S
C75 O76 1.273 . S
O76 C75 1.273 . S
O77 Zn68 1.977 . S
O77 C70 1.267 . S
C78 O79 1.180 . S
C78 O85 1.185 . S
O79 C78 1.180 . S
O80 Zn81 1.899 1_655 S
O80 C88 1.284 . S
Zn81 O80 1.899 1_455 S
Zn81 O82 2.032 . S
Zn81 O85 2.086 . S
Zn81 O90 1.977 . S
O82 Zn81 2.032 . S
O82 C86 1.278 . S
C83 O84 1.203 . S
C83 O90 1.267 . S
O84 C83 1.203 . S
O85 C78 1.185 . S
O85 Zn81 2.086 . S
C86 O82 1.278 . S
C86 O87 1.211 . S
O87 C86 1.211 . S
C88 O80 1.284 . S
C88 O89 1.273 . S
O89 C88 1.273 . S
O90 Zn81 1.977 . S
O90 C83 1.267 . S
C91 O92 1.180 . S
C91 O98 1.185 . S
O92 C91 1.180 . S
O93 Zn94 1.899 1_545 S
O93 C101 1.284 . S
Zn94 O93 1.899 1_565 S
Zn94 O95 2.032 . S
Zn94 O98 2.086 . S
Zn94 O103 1.977 . S
O95 Zn94 2.032 . S
O95 C99 1.278 . S
C96 O97 1.203 . S
C96 O103 1.267 . S
O97 C96 1.203 . S
O98 C91 1.185 . S
O98 Zn94 2.086 . S
C99 O95 1.278 . S
C99 O100 1.211 . S
O100 C99 1.211 . S
C101 O93 1.284 . S
C101 O102 1.273 . S
O102 C101 1.273 . S
O103 Zn94 1.977 . S
O103 C96 1.267 . S
H104 C110 0.930 . S
H105 C114 0.930 . S
H106 C119 0.922 1_455 S
H107 C117 0.922 1_655 S
H108 C112 0.929 . S
H109 C118 0.929 . S
C110 H104 0.930 . S
C110 C111 1.367 . S
C110 C118 1.378 . S
C111 C110 1.367 . S
C111 C119 1.446 . S
C112 H108 0.929 . S
C112 C114 1.378 . S
C112 C116 1.350 . S
C113 C116 1.463 1_655 S
C113 C118 1.350 . S
C113 N121 1.427 1_655 S
C114 H105 0.930 . S
C114 C112 1.378 . S
C114 C115 1.367 . S
C115 C114 1.367 . S
C115 C117 1.446 . S
C116 C112 1.350 . S
C116 C113 1.463 1_455 S
C116 N120 1.427 1_455 S
C117 H107 0.922 1_455 S
C117 C115 1.446 . S
C117 N120 1.379 1_455 S
C118 H109 0.929 . S
C118 C110 1.378 . S
C118 C113 1.350 . S
C119 H106 0.922 1_655 S
C119 C111 1.446 . S
C119 N121 1.379 1_655 S
N120 C116 1.427 1_655 S
N120 C117 1.379 1_655 S
N121 C113 1.427 1_455 S
N121 C119 1.379 1_455 S
H122 C128 0.930 . S
H123 C132 0.930 . S
H124 C137 0.929 . S
H125 C135 0.929 . S
H126 C130 0.929 . S
H127 C136 0.929 . S
C128 H122 0.930 . S
C128 C129 1.367 1_565 S
C128 C136 1.378 . S
C129 C128 1.367 1_545 S
C129 C137 1.433 . S
C130 H126 0.929 . S
C130 C132 1.378 . S
C130 C134 1.350 1_545 S
C131 C134 1.463 1_545 S
C131 C136 1.350 1_545 S
C131 N139 1.427 . S
C132 H123 0.930 . S
C132 C130 1.378 . S
C132 C133 1.367 1_545 S
C133 C132 1.367 1_565 S
C133 C135 1.433 . S
C134 C130 1.350 1_565 S
C134 C131 1.463 1_565 S
C134 N138 1.427 . S
C135 H125 0.929 . S
C135 C133 1.433 . S
C135 N138 1.384 . S
C136 H127 0.929 . S
C136 C128 1.378 . S
C136 C131 1.350 1_565 S
C137 H124 0.929 . S
C137 C129 1.433 . S
C137 N139 1.384 . S
N138 C134 1.427 . S
N138 C135 1.384 . S
N139 C131 1.427 . S
N139 C137 1.384 . S
H140 C146 0.930 1_455 S
H141 C150 0.930 1_655 S
H142 C155 0.929 . S
H143 C153 0.929 . S
H144 C148 0.929 . S
H145 C154 0.929 . S
C146 H140 0.930 1_655 S
C146 C147 1.367 . S
C146 C154 1.378 1_655 S
C147 C146 1.367 . S
C147 C155 1.433 . S
C148 H144 0.929 . S
C148 C150 1.378 1_655 S
C148 C152 1.350 1_655 S
C149 C152 1.463 1_655 S
C149 C154 1.350 1_655 S
C149 N157 1.427 . S
C150 H141 0.930 1_455 S
C150 C148 1.378 1_455 S
C150 C151 1.367 . S
C151 C150 1.367 . S
C151 C153 1.433 . S
C152 C148 1.350 1_455 S
C152 C149 1.463 1_455 S
C152 N156 1.427 . S
C153 H143 0.929 . S
C153 C151 1.433 . S
C153 N156 1.384 . S
C154 H145 0.929 . S
C154 C146 1.378 1_455 S
C154 C149 1.350 1_455 S
C155 H142 0.929 . S
C155 C147 1.433 . S
C155 N157 1.384 . S
N156 C152 1.427 . S
N156 C153 1.384 . S
N157 C149 1.427 . S
N157 C155 1.384 . S
H158 C164 0.930 . S
H159 C168 0.930 . S
H160 C173 0.929 . S
H161 C171 0.929 . S
H162 C166 0.929 . S
H163 C172 0.929 . S
C164 H158 0.930 . S
C164 C165 1.367 1_565 S
C164 C172 1.378 . S
C165 C164 1.367 1_545 S
C165 C173 1.433 . S
C166 H162 0.929 . S
C166 C168 1.378 . S
C166 C170 1.350 1_545 S
C167 C170 1.463 1_545 S
C167 C172 1.350 1_545 S
C167 N175 1.427 . S
C168 H159 0.930 . S
C168 C166 1.378 . S
C168 C169 1.367 1_545 S
C169 C168 1.367 1_565 S
C169 C171 1.433 . S
C170 C166 1.350 1_565 S
C170 C167 1.463 1_565 S
C170 N174 1.427 . S
C171 H161 0.929 . S
C171 C169 1.433 . S
C171 N174 1.384 . S
C172 H163 0.929 . S
C172 C164 1.378 . S
C172 C167 1.350 1_565 S
C173 H160 0.929 . S
C173 C165 1.433 . S
C173 N175 1.384 . S
N174 C170 1.427 . S
N174 C171 1.384 . S
N175 C167 1.427 . S
N175 C173 1.384 . S
H176 C182 0.930 . S
H177 C186 0.930 . S
H178 C191 0.929 . S
H179 C189 0.929 . S
H180 C184 0.929 . S
H181 C190 0.929 . S
C182 H176 0.930 . S
C182 C183 1.367 . S
C182 C190 1.378 . S
C183 C182 1.367 . S
C183 C191 1.433 . S
C184 H180 0.929 . S
C184 C186 1.378 . S
C184 C188 1.350 . S
C185 C188 1.463 . S
C185 C190 1.350 . S
C185 N193 1.427 . S
C186 H177 0.930 . S
C186 C184 1.378 . S
C186 C187 1.367 . S
C187 C186 1.367 . S
C187 C189 1.433 . S
C188 C184 1.350 . S
C188 C185 1.463 . S
C188 N192 1.427 . S
C189 H179 0.929 . S
C189 C187 1.433 . S
C189 N192 1.384 . S
C190 H181 0.929 . S
C190 C182 1.378 . S
C190 C185 1.350 . S
C191 H178 0.929 . S
C191 C183 1.433 . S
C191 N193 1.384 . S
N192 C188 1.427 . S
N192 C189 1.384 . S
N193 C185 1.427 . S
N193 C191 1.384 . S
H194 C200 0.930 . S
H195 C204 0.930 . S
H196 C209 0.929 . S
H197 C207 0.929 . S
H198 C202 0.929 . S
H199 C208 0.929 . S
C200 H194 0.930 . S
C200 C201 1.367 . S
C200 C208 1.378 . S
C201 C200 1.367 . S
C201 C209 1.433 . S
C202 H198 0.929 . S
C202 C204 1.378 . S
C202 C206 1.350 . S
C203 C206 1.463 . S
C203 C208 1.350 . S
C203 N211 1.427 . S
C204 H195 0.930 . S
C204 C202 1.378 . S
C204 C205 1.367 . S
C205 C204 1.367 . S
C205 C207 1.433 . S
C206 C202 1.350 . S
C206 C203 1.463 . S
C206 N210 1.427 . S
C207 H197 0.929 . S
C207 C205 1.433 . S
C207 N210 1.384 . S
C208 H199 0.929 . S
C208 C200 1.378 . S
C208 C203 1.350 . S
C209 H196 0.929 . S
C209 C201 1.433 . S
C209 N211 1.384 . S
N210 C206 1.427 . S
N210 C207 1.384 . S
N211 C203 1.427 . S
N211 C209 1.384 . S
H212 C218 0.930 . S
H213 C222 0.930 . S
H214 C227 0.929 . S
H215 C225 0.929 . S
H216 C220 0.929 . S
H217 C226 0.929 . S
C218 H212 0.930 . S
C218 C219 1.367 . S
C218 C226 1.378 . S
C219 C218 1.367 . S
C219 C227 1.433 . S
C220 H216 0.929 . S
C220 C222 1.378 . S
C220 C224 1.350 . S
C221 C224 1.463 . S
C221 C226 1.350 . S
C221 N229 1.427 . S
C222 H213 0.930 . S
C222 C220 1.378 . S
C222 C223 1.367 . S
C223 C222 1.367 . S
C223 C225 1.433 . S
C224 C220 1.350 . S
C224 C221 1.463 . S
C224 N228 1.427 . S
C225 H215 0.929 . S
C225 C223 1.433 . S
C225 N228 1.384 . S
C226 H217 0.929 . S
C226 C218 1.378 . S
C226 C221 1.350 . S
C227 H214 0.929 . S
C227 C219 1.433 . S
C227 N229 1.384 . S
N228 C224 1.427 . S
N228 C225 1.384 . S
N229 C221 1.427 . S
N229 C227 1.384 . S
H230 C236 0.930 . S
H231 C240 0.930 . S
H232 C245 0.929 . S
H233 C243 0.929 . S
H234 C238 0.929 . S
H235 C244 0.929 . S
C236 H230 0.930 . S
C236 C237 1.367 . S
C236 C244 1.378 . S
C237 C236 1.367 . S
C237 C245 1.433 . S
C238 H234 0.929 . S
C238 C240 1.378 . S
C238 C242 1.350 . S
C239 C242 1.463 . S
C239 C244 1.350 . S
C239 N247 1.427 . S
C240 H231 0.930 . S
C240 C238 1.378 . S
C240 C241 1.367 . S
C241 C240 1.367 . S
C241 C243 1.433 . S
C242 C238 1.350 . S
C242 C239 1.463 . S
C242 N246 1.427 . S
C243 H233 0.929 . S
C243 C241 1.433 . S
C243 N246 1.384 . S
C244 H235 0.929 . S
C244 C236 1.378 . S
C244 C239 1.350 . S
C245 H232 0.929 . S
C245 C237 1.433 . S
C245 N247 1.384 . S
N246 C242 1.427 . S
N246 C243 1.384 . S
N247 C239 1.427 . S
N247 C245 1.384 . S
H248 C254 0.930 . S
H249 C258 0.930 . S
H250 C263 0.929 . S
H251 C261 0.929 . S
H252 C256 0.929 . S
H253 C262 0.929 . S
C254 H248 0.930 . S
C254 C255 1.367 . S
C254 C262 1.378 . S
C255 C254 1.367 . S
C255 C263 1.433 . S
C256 H252 0.929 . S
C256 C258 1.378 . S
C256 C260 1.325 1_554 S
C257 C260 1.482 . S
C257 C262 1.350 . S
C257 N265 1.427 . S
C258 H249 0.930 . S
C258 C256 1.378 . S
C258 C259 1.367 . S
C259 C258 1.367 . S
C259 C261 1.433 . S
C260 C256 1.325 1_556 S
C260 C257 1.482 . S
C260 N264 1.436 . S
C261 H251 0.929 . S
C261 C259 1.433 . S
C261 N264 1.384 1_554 S
C262 H253 0.929 . S
C262 C254 1.378 . S
C262 C257 1.350 . S
C263 H250 0.929 . S
C263 C255 1.433 . S
C263 N265 1.384 . S
N264 C260 1.436 . S
N264 C261 1.384 1_556 S
N265 C257 1.427 . S
N265 C263 1.384 . S
H266 C272 0.930 . S
H267 C276 0.930 . S
H268 C281 0.929 . S
H269 C279 0.929 . S
H270 C274 0.929 . S
H271 C280 0.949 . S
C272 H266 0.930 . S
C272 C273 1.367 . S
C272 C280 1.357 1_556 S
C273 C272 1.367 . S
C273 C281 1.433 . S
C274 H270 0.929 . S
C274 C276 1.378 . S
C274 C278 1.350 . S
C275 C278 1.463 . S
C275 C280 1.351 . S
C275 N283 1.427 1_554 S
C276 H267 0.930 . S
C276 C274 1.378 . S
C276 C277 1.367 . S
C277 C276 1.367 . S
C277 C279 1.433 . S
C278 C274 1.350 . S
C278 C275 1.463 . S
C278 N282 1.427 . S
C279 H269 0.929 . S
C279 C277 1.433 . S
C279 N282 1.384 . S
C280 H271 0.949 . S
C280 C272 1.357 1_554 S
C280 C275 1.351 . S
C281 H268 0.929 . S
C281 C273 1.433 . S
C281 N283 1.384 . S
N282 C278 1.427 . S
N282 C279 1.384 . S
N283 C275 1.427 1_556 S
N283 C281 1.384 . S
H284 C290 0.930 . S
H285 C294 0.930 . S
H286 C299 0.929 . S
H287 C297 0.929 . S
H288 C292 0.929 . S
H289 C298 0.929 . S
C290 H284 0.930 . S
C290 C291 1.367 . S
C290 C298 1.378 . S
C291 C290 1.367 . S
C291 C299 1.433 . S
C292 H288 0.929 . S
C292 C294 1.378 . S
C292 C296 1.350 . S
C293 C296 1.482 . S
C293 C298 1.324 1_556 S
C293 N301 1.436 . S
C294 H285 0.930 . S
C294 C292 1.378 . S
C294 C295 1.367 . S
C295 C294 1.367 . S
C295 C297 1.433 . S
C296 C292 1.350 . S
C296 C293 1.482 . S
C296 N300 1.427 . S
C297 H287 0.929 . S
C297 C295 1.433 . S
C297 N300 1.384 . S
C298 H289 0.929 . S
C298 C290 1.378 . S
C298 C293 1.324 1_554 S
C299 H286 0.929 . S
C299 C291 1.433 . S
C299 N301 1.384 1_554 S
N300 C296 1.427 . S
N300 C297 1.384 . S
N301 C293 1.436 . S
N301 C299 1.384 1_556 S
H302 C308 0.930 . S
H303 C312 0.930 . S
H304 C317 0.929 . S
H305 C315 0.929 . S
H306 C310 0.929 . S
H307 C316 0.929 . S
C308 H302 0.930 . S
C308 C309 1.367 . S
C308 C316 1.378 1_556 S
C309 C308 1.367 . S
C309 C317 1.433 . S
C310 H306 0.929 . S
C310 C312 1.378 . S
C310 C314 1.350 . S
C311 C314 1.463 . S
C311 C316 1.350 . S
C311 N319 1.427 1_554 S
C312 H303 0.930 . S
C312 C310 1.378 . S
C312 C313 1.367 . S
C313 C312 1.367 . S
C313 C315 1.433 . S
C314 C310 1.350 . S
C314 C311 1.463 . S
C314 N318 1.427 . S
C315 H305 0.929 . S
C315 C313 1.433 . S
C315 N318 1.384 . S
C316 H307 0.929 . S
C316 C308 1.378 1_554 S
C316 C311 1.350 . S
C317 H304 0.929 . S
C317 C309 1.433 . S
C317 N319 1.384 . S
N318 C314 1.427 . S
N318 C315 1.384 . S
N319 C311 1.427 1_556 S
N319 C317 1.384 . S
H320 C326 0.930 . S
H321 C330 0.930 . S
H322 C335 0.929 . S
H323 C333 0.929 . S
H324 C328 0.929 . S
H325 C334 0.929 . S
C326 H320 0.930 . S
C326 C327 1.367 . S
C326 C334 1.378 . S
C327 C326 1.367 . S
C327 C335 1.433 . S
C328 H324 0.929 . S
C328 C330 1.378 . S
C328 C332 1.350 . S
C329 C332 1.463 . S
C329 C334 1.350 . S
C329 N337 1.427 . S
C330 H321 0.930 . S
C330 C328 1.378 . S
C330 C331 1.367 . S
C331 C330 1.367 . S
C331 C333 1.433 . S
C332 C328 1.350 . S
C332 C329 1.463 . S
C332 N336 1.427 . S
C333 H323 0.929 . S
C333 C331 1.433 . S
C333 N336 1.384 . S
C334 H325 0.929 . S
C334 C326 1.378 . S
C334 C329 1.350 . S
C335 H322 0.929 . S
C335 C327 1.433 . S
C335 N337 1.384 . S
N336 C332 1.427 . S
N336 C333 1.384 . S
N337 C329 1.427 . S
N337 C335 1.384 . S
H338 C344 0.930 . S
H339 C348 0.930 . S
H340 C353 0.929 . S
H341 C351 0.929 . S
H342 C346 0.929 . S
H343 C352 0.929 . S
C344 H338 0.930 . S
C344 C345 1.367 . S
C344 C352 1.378 . S
C345 C344 1.367 . S
C345 C353 1.433 . S
C346 H342 0.929 . S
C346 C348 1.378 . S
C346 C350 1.350 . S
C347 C350 1.463 . S
C347 C352 1.350 . S
C347 N355 1.427 . S
C348 H339 0.930 . S
C348 C346 1.378 . S
C348 C349 1.367 . S
C349 C348 1.367 . S
C349 C351 1.433 . S
C350 C346 1.350 . S
C350 C347 1.463 . S
C350 N354 1.427 . S
C351 H341 0.929 . S
C351 C349 1.433 . S
C351 N354 1.384 . S
C352 H343 0.929 . S
C352 C344 1.378 . S
C352 C347 1.350 . S
C353 H340 0.929 . S
C353 C345 1.433 . S
C353 N355 1.384 . S
N354 C350 1.427 . S
N354 C351 1.384 . S
N355 C347 1.427 . S
N355 C353 1.384 . S
H356 C362 0.930 . S
H357 C366 0.930 . S
H358 C371 0.929 . S
H359 C369 0.929 . S
H360 C364 0.929 . S
H361 C370 0.929 . S
C362 H356 0.930 . S
C362 C363 1.367 . S
C362 C370 1.378 . S
C363 C362 1.367 . S
C363 C371 1.433 . S
C364 H360 0.929 . S
C364 C366 1.378 . S
C364 C368 1.350 . S
C365 C368 1.463 . S
C365 C370 1.350 . S
C365 N373 1.427 . S
C366 H357 0.930 . S
C366 C364 1.378 . S
C366 C367 1.367 . S
C367 C366 1.367 . S
C367 C369 1.433 . S
C368 C364 1.350 . S
C368 C365 1.463 . S
C368 N372 1.427 . S
C369 H359 0.929 . S
C369 C367 1.433 . S
C369 N372 1.384 . S
C370 H361 0.929 . S
C370 C362 1.378 . S
C370 C365 1.350 . S
C371 H358 0.929 . S
C371 C363 1.433 . S
C371 N373 1.384 . S
N372 C368 1.427 . S
N372 C369 1.384 . S
N373 C365 1.427 . S
N373 C371 1.384 . S
H374 C380 0.930 . S
H375 C384 0.930 . S
H376 C389 0.929 . S
H377 C387 0.929 . S
H378 C382 0.929 . S
H379 C388 0.929 . S
C380 H374 0.930 . S
C380 C381 1.367 . S
C380 C388 1.378 . S
C381 C380 1.367 . S
C381 C389 1.433 . S
C382 H378 0.929 . S
C382 C384 1.378 . S
C382 C386 1.350 . S
C383 C386 1.463 . S
C383 C388 1.350 . S
C383 N391 1.427 . S
C384 H375 0.930 . S
C384 C382 1.378 . S
C384 C385 1.367 . S
C385 C384 1.367 . S
C385 C387 1.433 . S
C386 C382 1.350 . S
C386 C383 1.463 . S
C386 N390 1.427 . S
C387 H377 0.929 . S
C387 C385 1.433 . S
C387 N390 1.384 . S
C388 H379 0.929 . S
C388 C380 1.378 . S
C388 C383 1.350 . S
C389 H376 0.929 . S
C389 C381 1.433 . S
C389 N391 1.384 . S
N390 C386 1.427 . S
N390 C387 1.384 . S
N391 C383 1.427 . S
N391 C389 1.384 . S
C111 C26 1.271 . S
C115 C0 1.267 . S
C129 C39 1.255 . S
C133 C13 1.252 . S
C147 C52 1.257 . S
C151 C78 1.253 . S
C165 C65 1.251 . S
C169 C91 1.253 . S
C183 C23 0.848 . S
C187 C5 0.844 . S
C201 C18 0.813 . S
C205 C36 0.854 . S
C219 C49 0.853 . S
C223 C31 0.815 . S
C237 C44 0.820 . S
C241 C10 0.851 . S
C255 C101 0.857 . S
C259 C57 0.830 . S
C273 C70 0.844 . S
C277 C62 0.848 . S
C291 C83 0.820 . S
C295 C75 0.859 . S
C309 C96 0.816 . S
C313 C88 0.853 . S
C327 C8 1.638 . S
C331 C73 1.638 . S
C345 C86 1.626 . S
C349 C21 1.627 . S
C363 C34 1.637 . S
C367 C99 1.638 . S
C381 C47 1.622 . S
C385 C60 1.623 . S
