# Generated by pormake.
# Topology ukk, (4)-cn, num edge types: 1
# Building blocks:
#     Node 0, Type 0, BuildingBlock: GALJAG_clean_sbu_0, # of connection points: 4
#     Node 1, Type 0, BuildingBlock: GALJAG_clean_sbu_0, # of connection points: 4
#     Node 2, Type 0, BuildingBlock: GALJAG_clean_sbu_0, # of connection points: 4
#     Node 3, Type 0, BuildingBlock: GALJAG_clean_sbu_0, # of connection points: 4
#     Node 4, Type 0, BuildingBlock: GALJAG_clean_sbu_0, # of connection points: 4
#     Node 5, Type 0, BuildingBlock: GALJAG_clean_sbu_0, # of connection points: 4
#     Node 6, Type 0, BuildingBlock: GALJAG_clean_sbu_0, # of connection points: 4
#     Node 7, Type 0, BuildingBlock: GALJAG_clean_sbu_0, # of connection points: 4
#     Node 8, Type 0, BuildingBlock: GALJAG_clean_sbu_0, # of connection points: 4
#     Node 9, Type 0, BuildingBlock: GALJAG_clean_sbu_0, # of connection points: 4
#     Node 10, Type 0, BuildingBlock: GALJAG_clean_sbu_0, # of connection points: 4
#     Node 11, Type 0, BuildingBlock: GALJAG_clean_sbu_0, # of connection points: 4
#     Node 12, Type 0, BuildingBlock: GALJAG_clean_sbu_0, # of connection points: 4
#     Node 13, Type 0, BuildingBlock: GALJAG_clean_sbu_0, # of connection points: 4
#     Node 14, Type 0, BuildingBlock: GALJAG_clean_sbu_0, # of connection points: 4
#     Node 15, Type 0, BuildingBlock: GALJAG_clean_sbu_0, # of connection points: 4
#     Edge 16, Type (0, 0), BuildingBlock: ZUJKAS_clean_linker_0, # of connection points: 2
#     Edge 17, Type (0, 0), BuildingBlock: ZUJKAS_clean_linker_0, # of connection points: 2
#     Edge 18, Type (0, 0), BuildingBlock: ZUJKAS_clean_linker_0, # of connection points: 2
#     Edge 19, Type (0, 0), BuildingBlock: ZUJKAS_clean_linker_0, # of connection points: 2
#     Edge 20, Type (0, 0), BuildingBlock: ZUJKAS_clean_linker_0, # of connection points: 2
#     Edge 21, Type (0, 0), BuildingBlock: ZUJKAS_clean_linker_0, # of connection points: 2
#     Edge 22, Type (0, 0), BuildingBlock: ZUJKAS_clean_linker_0, # of connection points: 2
#     Edge 23, Type (0, 0), BuildingBlock: ZUJKAS_clean_linker_0, # of connection points: 2
#     Edge 24, Type (0, 0), BuildingBlock: ZUJKAS_clean_linker_0, # of connection points: 2
#     Edge 25, Type (0, 0), BuildingBlock: ZUJKAS_clean_linker_0, # of connection points: 2
#     Edge 26, Type (0, 0), BuildingBlock: ZUJKAS_clean_linker_0, # of connection points: 2
#     Edge 27, Type (0, 0), BuildingBlock: ZUJKAS_clean_linker_0, # of connection points: 2
#     Edge 28, Type (0, 0), BuildingBlock: ZUJKAS_clean_linker_0, # of connection points: 2
#     Edge 29, Type (0, 0), BuildingBlock: ZUJKAS_clean_linker_0, # of connection points: 2
#     Edge 30, Type (0, 0), BuildingBlock: ZUJKAS_clean_linker_0, # of connection points: 2
#     Edge 31, Type (0, 0), BuildingBlock: ZUJKAS_clean_linker_0, # of connection points: 2
#     Edge 32, Type (0, 0), BuildingBlock: ZUJKAS_clean_linker_0, # of connection points: 2
#     Edge 33, Type (0, 0), BuildingBlock: ZUJKAS_clean_linker_0, # of connection points: 2
#     Edge 34, Type (0, 0), BuildingBlock: ZUJKAS_clean_linker_0, # of connection points: 2
#     Edge 35, Type (0, 0), BuildingBlock: ZUJKAS_clean_linker_0, # of connection points: 2
#     Edge 36, Type (0, 0), BuildingBlock: ZUJKAS_clean_linker_0, # of connection points: 2
#     Edge 37, Type (0, 0), BuildingBlock: ZUJKAS_clean_linker_0, # of connection points: 2
#     Edge 38, Type (0, 0), BuildingBlock: ZUJKAS_clean_linker_0, # of connection points: 2
#     Edge 39, Type (0, 0), BuildingBlock: ZUJKAS_clean_linker_0, # of connection points: 2
#     Edge 40, Type (0, 0), BuildingBlock: ZUJKAS_clean_linker_0, # of connection points: 2
#     Edge 41, Type (0, 0), BuildingBlock: ZUJKAS_clean_linker_0, # of connection points: 2
#     Edge 42, Type (0, 0), BuildingBlock: ZUJKAS_clean_linker_0, # of connection points: 2
#     Edge 43, Type (0, 0), BuildingBlock: ZUJKAS_clean_linker_0, # of connection points: 2
#     Edge 44, Type (0, 0), BuildingBlock: ZUJKAS_clean_linker_0, # of connection points: 2
#     Edge 45, Type (0, 0), BuildingBlock: ZUJKAS_clean_linker_0, # of connection points: 2
#     Edge 46, Type (0, 0), BuildingBlock: ZUJKAS_clean_linker_0, # of connection points: 2
#     Edge 47, Type (0, 0), BuildingBlock: ZUJKAS_clean_linker_0, # of connection points: 2
# Relax obj value: 0.105
# Max RMSD: 0.246
# Mean RMSD: 0.246
data_MOF--net-ukk--node1-GALJAG_clean_sbu_0--edge1-ZUJKAS_clean_linker_0
_symmetry_space_group_name_H-M    P1
_symmetry_Int_Tables_number       1
_symmetry_cell_setting            triclinic
loop_
_symmetry_equiv_pos_as_xyz
'x, y, z'
_cell_length_a     69.31065
_cell_length_b     69.331113
_cell_length_c     23.950309
_cell_angle_alpha  90.015056
_cell_angle_beta   90.014335
_cell_angle_gamma 89.998637
loop_
_atom_site_label
_atom_site_type_symbol
_atom_site_fract_x
_atom_site_fract_y
_atom_site_fract_z
_atom_type_partial_charge
In0 In 0.35557 0.11048 0.12232 0.0
O1 O 0.34632 0.09863 0.03716 0.0
O2 O 0.32517 0.10127 0.10125 0.0
C3 C 0.39369 0.11709 0.11606 0.0
C4 C 0.34425 0.14752 0.12247 0.0
C5 C 0.35764 0.08206 0.19839 0.0
O6 O 0.38463 0.10879 0.07686 0.0
O7 O 0.38349 0.12182 0.15756 0.0
O8 O 0.35066 0.09841 0.21054 0.0
O9 O 0.36315 0.08025 0.14845 0.0
C10 C 0.32886 0.09656 0.05151 0.0
O11 O 0.34011 0.1363 0.16246 0.0
O12 O 0.35378 0.13994 0.08335 0.0
In13 In 0.11252 0.64424 0.86637 0.0
O14 O 0.10277 0.65362 0.95371 0.0
O15 O 0.10624 0.67504 0.89068 0.0
C16 C 0.1171 0.60578 0.86782 0.0
C17 C 0.15003 0.65367 0.86104 0.0
C18 C 0.08215 0.64455 0.79662 0.0
O19 O 0.11071 0.61484 0.90993 0.0
O20 O 0.121 0.61617 0.82599 0.0
O21 O 0.09864 0.65033 0.78105 0.0
O22 O 0.08121 0.63908 0.8468 0.0
C23 C 0.102 0.67132 0.94075 0.0
O24 O 0.13827 0.65892 0.8235 0.0
O25 O 0.1428 0.64383 0.90007 0.0
In26 In 0.63857 0.88615 0.11863 0.0
O27 O 0.6509 0.86097 0.16907 0.0
O28 O 0.64581 0.85707 0.08197 0.0
C29 C 0.63609 0.91589 0.19039 0.0
C30 C 0.66617 0.89919 0.04941 0.0
C31 C 0.60068 0.87844 0.10744 0.0
O32 O 0.64359 0.89997 0.20447 0.0
O33 O 0.63008 0.91661 0.1407 0.0
O34 O 0.61001 0.88724 0.0698 0.0
O35 O 0.61051 0.87367 0.14955 0.0
C36 C 0.65158 0.84979 0.12728 0.0
O37 O 0.64913 0.89601 0.03272 0.0
O38 O 0.66897 0.89617 0.10074 0.0
In39 In 0.88903 0.35576 0.86202 0.0
O40 O 0.86318 0.34062 0.8209 0.0
O41 O 0.8596 0.35362 0.901 0.0
C42 C 0.91757 0.35805 0.78648 0.0
C43 C 0.90297 0.32854 0.93105 0.0
C44 C 0.88246 0.39383 0.8696 0.0
O45 O 0.90129 0.35092 0.77409 0.0
O46 O 0.91923 0.36368 0.83637 0.0
O47 O 0.8905 0.38455 0.90882 0.0
O48 O 0.87797 0.38386 0.82739 0.0
C49 C 0.852 0.34439 0.8613 0.0
O50 O 0.90055 0.34578 0.94698 0.0
O51 O 0.89861 0.32535 0.88076 0.0
In52 In 0.35734 0.38828 0.11823 0.0
O53 O 0.34206 0.36311 0.07397 0.0
O54 O 0.35562 0.35818 0.15268 0.0
C55 C 0.36039 0.41776 0.04578 0.0
C56 C 0.33001 0.40091 0.18904 0.0
C57 C 0.3953 0.38145 0.12816 0.0
O58 O 0.35348 0.40163 0.03104 0.0
O59 O 0.3653 0.41882 0.09641 0.0
O60 O 0.38576 0.38945 0.16691 0.0
O61 O 0.38566 0.37717 0.08513 0.0
C62 C 0.34621 0.35125 0.11236 0.0
O63 O 0.34738 0.39879 0.20409 0.0
O64 O 0.32669 0.39693 0.13855 0.0
In65 In 0.3902 0.64285 0.87508 0.0
O66 O 0.36421 0.65756 0.91668 0.0
O67 O 0.36083 0.64514 0.83572 0.0
C68 C 0.41878 0.64042 0.9506 0.0
C69 C 0.40355 0.67086 0.8078 0.0
C70 C 0.38399 0.60477 0.86497 0.0
O71 O 0.40217 0.64649 0.96392 0.0
O72 O 0.42072 0.63586 0.89987 0.0
O73 O 0.39272 0.61425 0.82742 0.0
O74 O 0.37871 0.61454 0.90679 0.0
C75 C 0.35312 0.65404 0.87585 0.0
O76 O 0.40111 0.65377 0.79046 0.0
O77 O 0.39953 0.67349 0.8586 0.0
In78 In 0.64097 0.60942 0.13688 0.0
O79 O 0.65261 0.63571 0.08979 0.0
O80 O 0.64961 0.63729 0.17832 0.0
C81 C 0.63689 0.58108 0.06115 0.0
C82 C 0.66884 0.59435 0.20151 0.0
C83 C 0.60344 0.61803 0.15105 0.0
O84 O 0.64571 0.59658 0.04963 0.0
O85 O 0.63044 0.58007 0.11033 0.0
O86 O 0.61264 0.60821 0.18684 0.0
O87 O 0.61324 0.62335 0.10943 0.0
C88 C 0.65438 0.64573 0.13374 0.0
O89 O 0.6521 0.59778 0.2203 0.0
O90 O 0.67115 0.59812 0.15038 0.0
In91 In 0.61162 0.35672 0.8768 0.0
O92 O 0.63706 0.34146 0.91963 0.0
O93 O 0.64147 0.35504 0.84066 0.0
C94 C 0.58238 0.35946 0.94989 0.0
C95 C 0.59866 0.32922 0.80716 0.0
C96 C 0.61807 0.39478 0.86941 0.0
O97 O 0.59853 0.3524 0.96397 0.0
O98 O 0.58119 0.36472 0.89956 0.0
O99 O 0.60995 0.38554 0.83022 0.0
O100 O 0.62272 0.38477 0.91138 0.0
C101 C 0.64866 0.34559 0.88054 0.0
O102 O 0.60142 0.34636 0.79082 0.0
O103 O 0.60215 0.32628 0.85814 0.0
In104 In 0.85758 0.61306 0.62969 0.0
O105 O 0.84787 0.60151 0.54485 0.0
O106 O 0.82755 0.60193 0.61168 0.0
C107 C 0.89479 0.62301 0.61554 0.0
C108 C 0.8436 0.64912 0.63665 0.0
C109 C 0.86168 0.58374 0.7024 0.0
O110 O 0.88571 0.61343 0.57896 0.0
O111 O 0.88508 0.62736 0.65825 0.0
O112 O 0.85177 0.59852 0.71431 0.0
O113 O 0.86926 0.58397 0.65454 0.0
C114 C 0.83081 0.59812 0.56099 0.0
O115 O 0.84745 0.6409 0.591 0.0
O116 O 0.84647 0.63897 0.67982 0.0
In117 In 0.6119 0.14179 0.36919 0.0
O118 O 0.63742 0.15435 0.32031 0.0
O119 O 0.64087 0.14853 0.40717 0.0
C120 C 0.58215 0.13859 0.29768 0.0
C121 C 0.59823 0.16895 0.43869 0.0
C122 C 0.61984 0.104 0.37935 0.0
O123 O 0.59764 0.14704 0.28391 0.0
O124 O 0.58185 0.13214 0.34692 0.0
O125 O 0.61136 0.11326 0.41777 0.0
O126 O 0.62425 0.11388 0.33698 0.0
C127 C 0.64843 0.15456 0.36255 0.0
O128 O 0.60133 0.15183 0.45473 0.0
O129 O 0.60169 0.17209 0.38775 0.0
In130 In 0.14069 0.3848 0.61787 0.0
O131 O 0.15251 0.35939 0.66889 0.0
O132 O 0.14933 0.35621 0.58081 0.0
C133 C 0.13613 0.41477 0.68804 0.0
C134 C 0.16871 0.39892 0.55212 0.0
C135 C 0.10332 0.37588 0.60235 0.0
O136 O 0.14474 0.39951 0.7031 0.0
O137 O 0.13002 0.41466 0.63841 0.0
O138 O 0.1129 0.38491 0.56571 0.0
O139 O 0.11264 0.37151 0.64582 0.0
C140 C 0.15423 0.34859 0.62649 0.0
O141 O 0.15208 0.39501 0.53334 0.0
O142 O 0.17089 0.396 0.60376 0.0
In143 In 0.38757 0.86042 0.38306 0.0
O144 O 0.36044 0.84846 0.34036 0.0
O145 O 0.36011 0.853 0.42844 0.0
C146 C 0.41535 0.86344 0.30506 0.0
C147 C 0.40304 0.83317 0.44904 0.0
C148 C 0.37941 0.89808 0.39575 0.0
O149 O 0.3996 0.85482 0.29507 0.0
O150 O 0.41684 0.87025 0.35373 0.0
O151 O 0.38934 0.88896 0.43145 0.0
O152 O 0.37385 0.88817 0.35457 0.0
C153 C 0.35098 0.84765 0.38558 0.0
O154 O 0.40044 0.85029 0.46585 0.0
O155 O 0.39821 0.83009 0.39898 0.0
In156 In 0.8617 0.89159 0.63225 0.0
O157 O 0.84897 0.9023 0.71496 0.0
O158 O 0.82989 0.89576 0.64765 0.0
C159 C 0.90031 0.89158 0.64539 0.0
C160 C 0.85434 0.85353 0.62648 0.0
C161 C 0.85919 0.92049 0.55802 0.0
O162 O 0.88908 0.89484 0.68599 0.0
O163 O 0.89201 0.88844 0.59944 0.0
O164 O 0.85842 0.903 0.54304 0.0
O165 O 0.86113 0.9232 0.60987 0.0
C166 C 0.83173 0.9014 0.69747 0.0
O167 O 0.85136 0.86464 0.58548 0.0
O168 O 0.8612 0.86162 0.66923 0.0
In169 In 0.88924 0.14372 0.37359 0.0
O170 O 0.90162 0.15299 0.28945 0.0
O171 O 0.89969 0.17389 0.35463 0.0
C172 C 0.88088 0.10599 0.36458 0.0
C173 C 0.85278 0.15689 0.37334 0.0
C174 C 0.91782 0.14097 0.4491 0.0
O175 O 0.88995 0.11485 0.32652 0.0
O176 O 0.87616 0.11621 0.40597 0.0
O177 O 0.90223 0.1497 0.4602 0.0
O178 O 0.91881 0.13405 0.40046 0.0
C179 C 0.90422 0.1703 0.30462 0.0
O180 O 0.86265 0.15617 0.41786 0.0
O181 O 0.86142 0.15116 0.33006 0.0
In182 In 0.14056 0.10812 0.62235 0.0
O183 O 0.15156 0.0968 0.70615 0.0
O184 O 0.17071 0.09683 0.63636 0.0
C185 C 0.10312 0.11716 0.63572 0.0
C186 C 0.15424 0.14437 0.61988 0.0
C187 C 0.13666 0.0788 0.54962 0.0
O188 O 0.11231 0.10778 0.67252 0.0
O189 O 0.11285 0.12173 0.5932 0.0
O190 O 0.1452 0.09428 0.53614 0.0
O191 O 0.13026 0.0784 0.59895 0.0
C192 C 0.16831 0.09325 0.68759 0.0
O193 O 0.15238 0.13452 0.57559 0.0
O194 O 0.14943 0.13579 0.66417 0.0
In195 In 0.11014 0.85597 0.39714 0.0
O196 O 0.13619 0.83607 0.39216 0.0
O197 O 0.13811 0.85977 0.44766 0.0
C198 C 0.08444 0.85547 0.48213 0.0
C199 C 0.09893 0.82883 0.32356 0.0
C200 C 0.11113 0.89237 0.35544 0.0
O201 O 0.10187 0.86008 0.48967 0.0
O202 O 0.08031 0.85083 0.43274 0.0
O203 O 0.12474 0.88055 0.34894 0.0
O204 O 0.0966 0.88546 0.37986 0.0
C205 C 0.14645 0.84544 0.42593 0.0
O206 O 0.10253 0.84596 0.30852 0.0
O207 O 0.10074 0.82571 0.37521 0.0
H208 H 0.39314 0.92443 0.47182 0.0
H209 H 0.38766 0.95948 0.47144 0.0
H210 H 0.35082 0.95339 0.32727 0.0
H211 H 0.35595 0.91874 0.32792 0.0
H212 H 0.39801 0.98353 0.38884 0.0
H213 H 0.31967 0.99065 0.41891 0.0
H214 H 0.3325 0.96874 0.43604 0.0
H215 H 0.32427 0.97309 0.36569 0.0
C216 C 0.38358 0.9306 0.44081 0.0
C217 C 0.37502 0.91888 0.39981 0.0
C218 C 0.38044 0.95058 0.4407 0.0
C219 C 0.3685 0.95903 0.40004 0.0
C220 C 0.3596 0.9472 0.36011 0.0
H221 H 0.37501 0.04763 0.18068 0.0
H222 H 0.37837 0.0208 0.2452 0.0
C223 C 0.36275 0.92736 0.36012 0.0
C224 C 0.36712 0.98027 0.39385 0.0
H225 H 0.3347 0.01524 0.35849 0.0
C226 C 0.38417 0.99064 0.38395 0.0
C227 C 0.34913 0.98977 0.38868 0.0
C228 C 0.3304 0.97998 0.40358 0.0
C229 C 0.3836 0.00952 0.3631 0.0
C230 C 0.36555 0.01806 0.35096 0.0
C231 C 0.34855 0.00853 0.36672 0.0
C232 C 0.36405 0.03511 0.31399 0.0
C233 C 0.40236 0.01977 0.35133 0.0
C234 C 0.35437 0.05195 0.33073 0.0
C235 C 0.35233 0.06745 0.2935 0.0
C236 C 0.3597 0.06612 0.23891 0.0
C237 C 0.36923 0.04916 0.22246 0.0
C238 C 0.37133 0.03385 0.25951 0.0
H239 H 0.41387 0.01489 0.38035 0.0
H240 H 0.40711 0.01633 0.30821 0.0
H241 H 0.40074 0.03566 0.35507 0.0
H242 H 0.34842 0.05308 0.37241 0.0
H243 H 0.34488 0.08034 0.30719 0.0
H244 H 0.04716 0.62947 0.82134 0.0
H245 H 0.01892 0.6271 0.76143 0.0
H246 H 0.04997 0.65491 0.62783 0.0
H247 H 0.07868 0.65734 0.68818 0.0
H248 H 0.01157 0.66993 0.6503 0.0
H249 H 0.01146 0.59067 0.62583 0.0
H250 H 0.01466 0.5978 0.69729 0.0
H251 H 0.03271 0.60404 0.64637 0.0
C252 C 0.04809 0.63505 0.77918 0.0
C253 C 0.06518 0.64355 0.75939 0.0
C254 C 0.03196 0.63356 0.74486 0.0
C255 C 0.0325 0.64048 0.68992 0.0
C256 C 0.04939 0.64928 0.66998 0.0
H257 H 0.92106 0.6111 0.53679 0.0
H258 H 0.95597 0.61743 0.53648 0.0
C259 C 0.06572 0.65068 0.70442 0.0
C260 C 0.01486 0.63909 0.65532 0.0
H261 H 0.98033 0.60647 0.61847 0.0
C262 C 0.00492 0.65607 0.64179 0.0
C263 C 0.00639 0.62103 0.64312 0.0
C264 C 0.01696 0.60234 0.65337 0.0
C265 C 0.98592 0.65541 0.62149 0.0
C266 C 0.97665 0.63733 0.61556 0.0
C267 C 0.98731 0.62036 0.62371 0.0
C268 C 0.9554 0.63566 0.60987 0.0
C269 C 0.9757 0.67411 0.60895 0.0
C270 C 0.94355 0.6438 0.65106 0.0
C271 C 0.92378 0.64016 0.65145 0.0
C272 C 0.91541 0.62816 0.61086 0.0
C273 C 0.92714 0.62044 0.5685 0.0
C274 C 0.94704 0.62406 0.56824 0.0
H275 H 0.98606 0.68525 0.59437 0.0
H276 H 0.96434 0.67218 0.57672 0.0
H277 H 0.96885 0.6796 0.64771 0.0
H278 H 0.9497 0.65232 0.68455 0.0
H279 H 0.91515 0.64631 0.68468 0.0
H280 H 0.6202 0.95065 0.16676 0.0
H281 H 0.61825 0.97894 0.22665 0.0
H282 H 0.64603 0.9476 0.35987 0.0
H283 H 0.64829 0.91901 0.29933 0.0
H284 H 0.60042 0.98355 0.33178 0.0
H285 H 0.67981 0.99628 0.33988 0.0
H286 H 0.66911 0.98012 0.28955 0.0
H287 H 0.67086 0.97309 0.36144 0.0
C288 C 0.62589 0.9497 0.20881 0.0
C289 C 0.63452 0.93264 0.22824 0.0
C290 C 0.62469 0.96587 0.24308 0.0
C291 C 0.6321 0.96541 0.29753 0.0
C292 C 0.64042 0.94831 0.31771 0.0
H293 H 0.60897 0.07803 0.46025 0.0
H294 H 0.61304 0.04279 0.45752 0.0
C295 C 0.64165 0.93201 0.28321 0.0
C296 C 0.63145 0.98328 0.33133 0.0
H297 H 0.65974 0.02098 0.37238 0.0
C298 C 0.61336 0.9916 0.34205 0.0
C299 C 0.6484 0.99366 0.34454 0.0
C300 C 0.66819 0.98548 0.33318 0.0
C301 C 0.61174 0.01062 0.36153 0.0
C302 C 0.62871 0.02144 0.37142 0.0
C303 C 0.64679 0.01259 0.36486 0.0
C304 C 0.62804 0.04267 0.37824 0.0
C305 C 0.59193 0.01948 0.36693 0.0
C306 C 0.63571 0.05425 0.33571 0.0
C307 C 0.63351 0.0742 0.3373 0.0
C308 C 0.62358 0.08305 0.38154 0.0
C309 C 0.61659 0.07156 0.42549 0.0
C310 C 0.61883 0.05147 0.42388 0.0
H311 H 0.5804 0.00982 0.35087 0.0
H312 H 0.5889 0.02252 0.41155 0.0
H313 H 0.59123 0.03335 0.34382 0.0
H314 H 0.64285 0.04777 0.30007 0.0
H315 H 0.63918 0.08264 0.30297 0.0
H316 H 0.08176 0.35401 0.67224 0.0
H317 H 0.04707 0.34904 0.6704 0.0
H318 H 0.04292 0.38247 0.51895 0.0
H319 H 0.07799 0.38778 0.52102 0.0
H320 H 0.01806 0.39489 0.59736 0.0
H321 H 0.0106 0.3161 0.58111 0.0
H322 H 0.02761 0.3218 0.63495 0.0
H323 H 0.03279 0.32839 0.56365 0.0
C324 C 0.07356 0.36006 0.63794 0.0
C325 C 0.08258 0.37135 0.59686 0.0
C326 C 0.05371 0.357 0.63657 0.0
C327 C 0.0424 0.36503 0.59389 0.0
C328 C 0.05141 0.37594 0.55187 0.0
H329 H 0.92019 0.34357 0.6797 0.0
H330 H 0.94799 0.34605 0.61606 0.0
C331 C 0.07141 0.37898 0.55313 0.0
C332 C 0.02109 0.36394 0.59829 0.0
H333 H 0.98544 0.33262 0.63598 0.0
C334 C 0.01077 0.38124 0.60405 0.0
C335 C 0.01138 0.34617 0.60579 0.0
C336 C 0.02118 0.32709 0.59537 0.0
C337 C 0.99164 0.38127 0.62309 0.0
C338 C 0.9828 0.36358 0.6376 0.0
C339 C 0.99236 0.34621 0.62591 0.0
C340 C 0.96531 0.36298 0.67308 0.0
C341 C 0.98143 0.40031 0.63043 0.0
C342 C 0.966 0.37143 0.72624 0.0
C343 C 0.95037 0.36992 0.76244 0.0
C344 C 0.93367 0.35986 0.74643 0.0
C345 C 0.93286 0.35147 0.69301 0.0
C346 C 0.94868 0.35289 0.65668 0.0
H347 H 0.98673 0.41111 0.59978 0.0
H348 H 0.96558 0.39872 0.62555 0.0
H349 H 0.98445 0.40599 0.67286 0.0
H350 H 0.97887 0.37883 0.74036 0.0
H351 H 0.95148 0.37651 0.80333 0.0
H352 H 0.34824 0.42143 0.93676 0.0
H353 H 0.35255 0.44965 0.8755 0.0
H354 H 0.38258 0.47925 0.00794 0.0
H355 H 0.37844 0.45146 0.06863 0.0
H356 H 0.33928 0.48748 0.89546 0.0
H357 H 0.41852 0.48694 0.87419 0.0
H358 H 0.40501 0.46595 0.89597 0.0
H359 H 0.41152 0.48428 0.94586 0.0
C360 C 0.35589 0.43393 0.95244 0.0
C361 C 0.36302 0.43424 0.00744 0.0
C362 C 0.35837 0.44997 0.91746 0.0
C363 C 0.36825 0.46635 0.93684 0.0
C364 C 0.37536 0.46658 0.99163 0.0
H365 H 0.36232 0.5834 0.93584 0.0
H366 H 0.35737 0.54869 0.93526 0.0
C367 C 0.3728 0.45072 0.02648 0.0
C368 C 0.37008 0.484 0.90243 0.0
H369 H 0.40311 0.51856 0.86891 0.0
C370 C 0.35324 0.49407 0.88806 0.0
C371 C 0.38828 0.49244 0.89156 0.0
C372 C 0.40685 0.48171 0.90216 0.0
C373 C 0.35414 0.51314 0.86859 0.0
C374 C 0.37229 0.52238 0.86438 0.0
C375 C 0.38917 0.51161 0.87304 0.0
C376 C 0.37399 0.54364 0.86012 0.0
C377 C 0.33558 0.52353 0.85531 0.0
C378 C 0.38533 0.55239 0.81861 0.0
C379 C 0.38831 0.5724 0.81904 0.0
C380 C 0.38021 0.58383 0.8615 0.0
C381 C 0.36873 0.57501 0.9025 0.0
C382 C 0.3657 0.55515 0.90188 0.0
H383 H 0.32443 0.51329 0.84007 0.0
H384 H 0.32995 0.53038 0.89389 0.0
H385 H 0.3378 0.53491 0.82333 0.0
H386 H 0.39207 0.54371 0.78645 0.0
H387 H 0.39726 0.57883 0.78701 0.0
H388 H 0.41937 0.64899 0.06296 0.0
H389 H 0.44685 0.64545 0.1274 0.0
H390 H 0.48187 0.62409 0.99199 0.0
H391 H 0.45477 0.62737 0.92819 0.0
H392 H 0.48375 0.60183 0.09269 0.0
H393 H 0.4959 0.68045 0.12723 0.0
H394 H 0.47223 0.67058 0.13935 0.0
H395 H 0.48153 0.67178 0.06959 0.0
C396 C 0.43296 0.64354 0.04715 0.0
C397 C 0.43494 0.63851 0.99052 0.0
C398 C 0.44861 0.64157 0.0839 0.0
C399 C 0.46638 0.63457 0.06432 0.0
C400 C 0.46825 0.62944 0.00798 0.0
H401 H 0.58262 0.64079 0.08176 0.0
H402 H 0.54783 0.64513 0.07947 0.0
C403 C 0.45274 0.6314 0.9715 0.0
C404 C 0.48348 0.63271 0.10101 0.0
H405 H 0.52055 0.65934 0.15435 0.0
C406 C 0.49163 0.61432 0.10771 0.0
C407 C 0.49361 0.64908 0.12044 0.0
C408 C 0.48551 0.66915 0.11385 0.0
C409 C 0.51036 0.61198 0.12886 0.0
C410 C 0.52107 0.62849 0.14458 0.0
C411 C 0.51227 0.64673 0.14235 0.0
C412 C 0.54227 0.62754 0.15236 0.0
C413 C 0.51913 0.59204 0.1295 0.0
C414 C 0.55082 0.61657 0.19507 0.0
C415 C 0.57089 0.61392 0.19626 0.0
C416 C 0.58259 0.62227 0.15483 0.0
C417 C 0.57401 0.63402 0.11402 0.0
C418 C 0.5541 0.63662 0.11283 0.0
H419 H 0.50961 0.58113 0.10963 0.0
H420 H 0.53321 0.59205 0.10735 0.0
H421 H 0.52176 0.58756 0.1733 0.0
H422 H 0.54196 0.60967 0.22648 0.0
H423 H 0.57714 0.60489 0.22841 0.0
H424 H 0.60668 0.42099 0.78976 0.0
H425 H 0.6115 0.45614 0.79183 0.0
H426 H 0.64201 0.45076 0.94806 0.0
H427 H 0.6375 0.416 0.94597 0.0
H428 H 0.59803 0.48093 0.87125 0.0
H429 H 0.67723 0.48671 0.86286 0.0
H430 H 0.66459 0.465 0.84268 0.0
H431 H 0.67029 0.46952 0.91498 0.0
C432 C 0.61466 0.42734 0.82403 0.0
C433 C 0.62171 0.41577 0.8677 0.0
C434 C 0.61742 0.44737 0.82512 0.0
C435 C 0.62748 0.45602 0.86949 0.0
C436 C 0.63471 0.44438 0.91257 0.0
H437 H 0.61585 0.54859 0.07643 0.0
H438 H 0.61285 0.52104 0.01419 0.0
C439 C 0.63193 0.4245 0.9116 0.0
C440 C 0.62889 0.47727 0.87484 0.0
H441 H 0.66061 0.51225 0.91495 0.0
C442 C 0.61176 0.48794 0.8792 0.0
C443 C 0.64679 0.48659 0.88391 0.0
C444 C 0.66575 0.47636 0.8752 0.0
C445 C 0.61196 0.5071 0.89807 0.0
C446 C 0.6297 0.5156 0.91388 0.0
C447 C 0.64696 0.50561 0.90386 0.0
C448 C 0.63043 0.53331 0.94845 0.0
C449 C 0.59307 0.51775 0.90336 0.0
C450 C 0.64167 0.54928 0.93276 0.0
C451 C 0.64353 0.56513 0.96873 0.0
C452 C 0.63438 0.56506 0.02114 0.0
C453 C 0.62304 0.54911 0.03631 0.0
C454 C 0.62114 0.53341 0.00047 0.0
H455 H 0.58256 0.51271 0.8715 0.0
H456 H 0.58676 0.51483 0.94509 0.0
H457 H 0.59507 0.53356 0.89876 0.0
H458 H 0.64916 0.54936 0.89307 0.0
H459 H 0.65241 0.57721 0.95607 0.0
H460 H 0.41689 0.36117 0.05433 0.0
H461 H 0.45157 0.35587 0.05573 0.0
H462 H 0.45593 0.38718 0.21089 0.0
H463 H 0.42088 0.39271 0.20957 0.0
H464 H 0.48156 0.39983 0.13153 0.0
H465 H 0.48621 0.32066 0.14666 0.0
H466 H 0.46941 0.32745 0.09326 0.0
H467 H 0.46459 0.33382 0.1649 0.0
C468 C 0.42514 0.36675 0.08919 0.0
C469 C 0.41618 0.3774 0.1318 0.0
C470 C 0.44497 0.36351 0.09025 0.0
C471 C 0.45629 0.37075 0.13404 0.0
C472 C 0.44739 0.38124 0.17713 0.0
H473 H 0.57857 0.34567 0.05712 0.0
H474 H 0.55031 0.34916 0.11868 0.0
C475 C 0.42742 0.38442 0.17625 0.0
C476 C 0.47755 0.369 0.1305 0.0
H477 H 0.51242 0.33647 0.09525 0.0
C478 C 0.48846 0.38595 0.1253 0.0
C479 C 0.4867 0.35091 0.12356 0.0
C480 C 0.47612 0.33219 0.13305 0.0
C481 C 0.50772 0.38532 0.10747 0.0
C482 C 0.5161 0.36732 0.0938 0.0
C483 C 0.50587 0.35029 0.10482 0.0
C484 C 0.53384 0.36609 0.0596 0.0
C485 C 0.5186 0.404 0.10043 0.0
C486 C 0.53376 0.3742 0.006 0.0
C487 C 0.54964 0.3721 0.97096 0.0
C488 C 0.56598 0.36179 0.98864 0.0
C489 C 0.56617 0.35373 0.04253 0.0
C490 C 0.55011 0.35574 0.07768 0.0
H491 H 0.51331 0.41512 0.13014 0.0
H492 H 0.53433 0.40193 0.10687 0.0
H493 H 0.51626 0.40955 0.0575 0.0
H494 H 0.52118 0.38181 0.99066 0.0
H495 H 0.54901 0.37845 0.92968 0.0
H496 H 0.89112 0.41942 0.95368 0.0
H497 H 0.88533 0.45442 0.95398 0.0
H498 H 0.8598 0.45025 0.79013 0.0
H499 H 0.8652 0.4156 0.78991 0.0
H500 H 0.89989 0.48105 0.88254 0.0
H501 H 0.82057 0.48325 0.86981 0.0
H502 H 0.83353 0.46171 0.88979 0.0
H503 H 0.82999 0.46751 0.81711 0.0
C504 C 0.88407 0.426 0.91811 0.0
C505 C 0.87858 0.41478 0.87183 0.0
C506 C 0.88074 0.44595 0.91837 0.0
C507 C 0.87172 0.45488 0.87263 0.0
C508 C 0.86622 0.44362 0.82664 0.0
H509 H 0.88525 0.55304 0.6873 0.0
H510 H 0.88785 0.52419 0.74445 0.0
C511 C 0.86952 0.4238 0.82634 0.0
C512 C 0.86951 0.47613 0.86971 0.0
H513 H 0.83752 0.51058 0.82756 0.0
C514 C 0.88616 0.48761 0.87201 0.0
C515 C 0.85154 0.48486 0.85738 0.0
C516 C 0.83288 0.47368 0.85904 0.0
C517 C 0.88561 0.50716 0.85687 0.0
C518 C 0.86805 0.51525 0.83793 0.0
C519 C 0.85107 0.50429 0.84107 0.0
C520 C 0.86751 0.5338 0.80717 0.0
C521 C 0.90402 0.51872 0.85905 0.0
C522 C 0.85491 0.54873 0.82278 0.0
C523 C 0.85329 0.56534 0.78969 0.0
C524 C 0.86405 0.56707 0.74018 0.0
C525 C 0.87679 0.55218 0.72524 0.0
C526 C 0.87845 0.53573 0.75823 0.0
H527 H 0.91369 0.51337 0.89267 0.0
H528 H 0.91181 0.51713 0.81883 0.0
H529 H 0.90109 0.53428 0.86616 0.0
H530 H 0.84615 0.54741 0.86003 0.0
H531 H 0.8433 0.57658 0.80206 0.0
H532 H 0.54968 0.11802 0.31776 0.0
H533 H 0.52131 0.11478 0.25876 0.0
H534 H 0.54803 0.15047 0.13318 0.0
H535 H 0.57676 0.15392 0.19284 0.0
H536 H 0.51066 0.1617 0.15921 0.0
H537 H 0.51228 0.08351 0.11735 0.0
H538 H 0.51524 0.08818 0.19048 0.0
H539 H 0.53319 0.09659 0.14181 0.0
C540 C 0.54966 0.12506 0.27739 0.0
C541 C 0.56546 0.13623 0.25991 0.0
C542 C 0.53349 0.12303 0.24343 0.0
C543 C 0.53272 0.13203 0.19106 0.0
C544 C 0.54846 0.1432 0.17319 0.0
H545 H 0.4201 0.10608 0.03657 0.0
H546 H 0.45518 0.11146 0.03861 0.0
C547 C 0.56481 0.14518 0.20726 0.0
C548 C 0.51466 0.13088 0.15812 0.0
H549 H 0.48036 0.09844 0.11798 0.0
C550 C 0.50422 0.14791 0.14871 0.0
C551 C 0.50641 0.11294 0.14319 0.0
C552 C 0.51749 0.0943 0.14817 0.0
C553 C 0.48505 0.1473 0.12995 0.0
C554 C 0.47606 0.1292 0.12144 0.0
C555 C 0.48712 0.11231 0.12546 0.0
C556 C 0.45483 0.12734 0.11644 0.0
C557 C 0.47434 0.16602 0.12174 0.0
C558 C 0.44309 0.13429 0.15968 0.0
C559 C 0.42324 0.13119 0.15873 0.0
C560 C 0.41465 0.12093 0.11468 0.0
C561 C 0.42634 0.11409 0.07096 0.0
C562 C 0.44633 0.11718 0.07202 0.0
H563 H 0.48437 0.17777 0.10928 0.0
H564 H 0.46291 0.16463 0.08949 0.0
H565 H 0.4675 0.17033 0.16173 0.0
H566 H 0.44937 0.14167 0.19519 0.0
H567 H 0.41466 0.13659 0.19315 0.0
H568 H 0.13119 0.58453 0.78201 0.0
H569 H 0.13497 0.54967 0.77682 0.0
H570 H 0.11335 0.54405 0.94488 0.0
H571 H 0.10926 0.57926 0.95025 0.0
H572 H 0.15685 0.5245 0.84505 0.0
H573 H 0.0781 0.5083 0.85118 0.0
H574 H 0.08709 0.53229 0.83783 0.0
H575 H 0.0881 0.52247 0.90707 0.0
C576 C 0.12724 0.57594 0.81802 0.0
C577 C 0.11981 0.58463 0.86645 0.0
C578 C 0.12949 0.556 0.81504 0.0
C579 C 0.12433 0.54427 0.86029 0.0
C580 C 0.11721 0.55286 0.90926 0.0
H581 H 0.15068 0.42097 0.7935 0.0
H582 H 0.14775 0.45055 0.8497 0.0
C583 C 0.11494 0.57293 0.91231 0.0
C584 C 0.12601 0.52306 0.85421 0.0
H585 H 0.09895 0.48287 0.82898 0.0
C586 C 0.14427 0.51523 0.84277 0.0
C587 C 0.10952 0.5111 0.85115 0.0
C588 C 0.08954 0.51887 0.86213 0.0
C589 C 0.14636 0.49607 0.82478 0.0
C590 C 0.12975 0.4844 0.81887 0.0
C591 C 0.11164 0.49186 0.83382 0.0
C592 C 0.13046 0.46576 0.78865 0.0
C593 C 0.16612 0.48891 0.80832 0.0
C594 C 0.12131 0.46437 0.73661 0.0
C595 C 0.12292 0.44764 0.70477 0.0
C596 C 0.13368 0.43185 0.72433 0.0
C597 C 0.14237 0.43296 0.77731 0.0
C598 C 0.14076 0.44983 0.8093 0.0
H599 H 0.17711 0.50058 0.80893 0.0
H600 H 0.17077 0.47748 0.83782 0.0
H601 H 0.16572 0.48252 0.76581 0.0
H602 H 0.11331 0.47649 0.71985 0.0
H603 H 0.11596 0.44722 0.66428 0.0
H604 H 0.44859 0.88346 0.31809 0.0
H605 H 0.47576 0.88554 0.25429 0.0
H606 H 0.44553 0.84994 0.13523 0.0
H607 H 0.41804 0.84758 0.19994 0.0
H608 H 0.48242 0.83759 0.1534 0.0
H609 H 0.48387 0.91565 0.1118 0.0
H610 H 0.48235 0.91148 0.1855 0.0
H611 H 0.46293 0.90374 0.14066 0.0
C612 C 0.44756 0.87623 0.27811 0.0
C613 C 0.43116 0.86536 0.26402 0.0
C614 C 0.46306 0.8776 0.24136 0.0
C615 C 0.46253 0.86828 0.18941 0.0
C616 C 0.44613 0.85746 0.17483 0.0
H617 H 0.57456 0.89081 0.02868 0.0
H618 H 0.53935 0.88634 0.03053 0.0
C619 C 0.43047 0.85611 0.21178 0.0
C620 C 0.47999 0.86858 0.15363 0.0
H621 H 0.51528 0.89936 0.10999 0.0
C622 C 0.48938 0.85107 0.14239 0.0
C623 C 0.4889 0.8861 0.13775 0.0
C624 C 0.47884 0.90527 0.14401 0.0
C625 C 0.50827 0.85076 0.12125 0.0
C626 C 0.51808 0.8684 0.11236 0.0
C627 C 0.50793 0.88581 0.11785 0.0
C628 C 0.53937 0.86924 0.10616 0.0
C629 C 0.5178 0.83153 0.111 0.0
C630 C 0.55102 0.86117 0.14798 0.0
C631 C 0.57095 0.86373 0.14707 0.0
C632 C 0.57973 0.87457 0.10456 0.0
C633 C 0.56817 0.88233 0.06185 0.0
C634 C 0.5481 0.87978 0.06285 0.0
H635 H 0.507 0.82057 0.09791 0.0
H636 H 0.52916 0.83255 0.07846 0.0
H637 H 0.52449 0.82638 0.15037 0.0
H638 H 0.54463 0.8535 0.18276 0.0
H639 H 0.57943 0.8576 0.18069 0.0
H640 H 0.85088 0.95772 0.58208 0.0
H641 H 0.8519 0.98541 0.51929 0.0
H642 H 0.86745 0.94816 0.38231 0.0
H643 H 0.8661 0.92007 0.4452 0.0
H644 H 0.89278 0.98369 0.41103 0.0
H645 H 0.81499 0.99912 0.38084 0.0
H646 H 0.82164 0.99276 0.45107 0.0
H647 H 0.82412 0.97525 0.39621 0.0
C648 C 0.85428 0.95535 0.53846 0.0
C649 C 0.85844 0.93677 0.51846 0.0
C650 C 0.85477 0.97116 0.50263 0.0
C651 C 0.85959 0.96875 0.44624 0.0
C652 C 0.86354 0.95021 0.42569 0.0
H653 H 0.89101 0.07945 0.2842 0.0
H654 H 0.88514 0.04445 0.28655 0.0
C655 C 0.86275 0.93424 0.46154 0.0
C656 C 0.86185 0.98607 0.41101 0.0
H657 H 0.83674 0.02588 0.37014 0.0
C658 C 0.88058 0.99275 0.40024 0.0
C659 C 0.84585 0.99771 0.39718 0.0
C660 C 0.82547 0.99082 0.40642 0.0
C661 C 0.88378 0.01163 0.38102 0.0
C662 C 0.86776 0.02387 0.37154 0.0
C663 C 0.849 0.0165 0.37758 0.0
C664 C 0.87009 0.04501 0.36574 0.0
C665 C 0.90424 0.01885 0.37581 0.0
C666 C 0.86309 0.05692 0.40849 0.0
C667 C 0.86628 0.07673 0.40709 0.0
C668 C 0.87658 0.08513 0.36284 0.0
C669 C 0.88312 0.07333 0.31897 0.0
C670 C 0.87985 0.05336 0.32036 0.0
H671 H 0.91495 0.00816 0.39114 0.0
H672 H 0.90745 0.02194 0.33133 0.0
H673 H 0.9061 0.03245 0.39969 0.0
H674 H 0.85555 0.05078 0.44394 0.0
H675 H 0.86098 0.08541 0.44142 0.0
H676 H 0.95057 0.12035 0.43398 0.0
H677 H 0.97789 0.1172 0.49688 0.0
H678 H 0.94924 0.15329 0.61791 0.0
H679 H 0.92155 0.15669 0.55418 0.0
H680 H 0.98693 0.16426 0.59834 0.0
H681 H 0.9846 0.08613 0.6391 0.0
H682 H 0.9828 0.09059 0.56558 0.0
H683 H 0.96412 0.09919 0.61167 0.0
C684 C 0.94992 0.12751 0.47415 0.0
C685 C 0.93389 0.13877 0.48916 0.0
C686 C 0.9655 0.12552 0.51037 0.0
C687 C 0.96542 0.13463 0.56265 0.0
C688 C 0.94945 0.14592 0.57803 0.0
H689 H 0.07713 0.10599 0.71628 0.0
H690 H 0.04222 0.11239 0.71736 0.0
C691 C 0.9337 0.14788 0.54164 0.0
C692 C 0.98291 0.13343 0.59808 0.0
H693 H 0.01678 0.10081 0.63983 0.0
C694 C 0.99324 0.15042 0.609 0.0
C695 C 0.99097 0.11546 0.61349 0.0
C696 C 0.9799 0.09684 0.6074 0.0
C697 C 0.01224 0.14973 0.62919 0.0
C698 C 0.02118 0.13159 0.63743 0.0
C699 C 0.0101 0.11473 0.63247 0.0
C700 C 0.04244 0.12962 0.64198 0.0
C701 C 0.02284 0.16842 0.63896 0.0
C702 C 0.05409 0.1371 0.59929 0.0
C703 C 0.07385 0.13344 0.59852 0.0
C704 C 0.08243 0.12205 0.64017 0.0
C705 C 0.07089 0.11485 0.68372 0.0
C706 C 0.05099 0.11852 0.68443 0.0
H707 H 0.01274 0.17989 0.65293 0.0
H708 H 0.03441 0.16677 0.67067 0.0
H709 H 0.02944 0.1733 0.59918 0.0
H710 H 0.0478 0.14517 0.56513 0.0
H711 H 0.08231 0.13917 0.56431 0.0
H712 H 0.14232 0.91116 0.31135 0.0
H713 H 0.14895 0.94582 0.31684 0.0
H714 H 0.09225 0.95539 0.38556 0.0
H715 H 0.08538 0.92093 0.37908 0.0
H716 H 0.10504 0.98588 0.31618 0.0
H717 H 0.15971 0.96495 0.4758 0.0
H718 H 0.163 0.95511 0.40709 0.0
H719 H 0.14251 0.94797 0.44809 0.0
C720 C 0.13107 0.92073 0.32607 0.0
C721 C 0.11344 0.9133 0.34562 0.0
C722 C 0.13491 0.94051 0.32944 0.0
C723 C 0.12126 0.9531 0.35285 0.0
C724 C 0.10303 0.94592 0.36761 0.0
H725 H 0.1178 0.04542 0.57152 0.0
H726 H 0.11569 0.01668 0.51328 0.0
C727 C 0.09913 0.92619 0.36396 0.0
C728 C 0.12659 0.97303 0.36923 0.0
H729 H 0.15309 0.99779 0.46583 0.0
C730 C 0.11584 0.98858 0.34801 0.0
C731 C 0.14055 0.97646 0.4113 0.0
C732 C 0.15205 0.96029 0.43735 0.0
C733 C 0.11819 0.00734 0.36934 0.0
C734 C 0.13158 0.01052 0.41278 0.0
C735 C 0.14295 0.99522 0.43212 0.0
C736 C 0.13198 0.02876 0.44475 0.0
C737 C 0.10562 0.02345 0.3479 0.0
C738 C 0.14177 0.04513 0.42511 0.0
C739 C 0.14306 0.06171 0.45856 0.0
C740 C 0.13462 0.06201 0.51199 0.0
C741 C 0.12452 0.04566 0.53069 0.0
C742 C 0.12326 0.02922 0.49746 0.0
H743 H 0.0961 0.01871 0.31319 0.0
H744 H 0.09651 0.02907 0.3824 0.0
H745 H 0.1148 0.03553 0.33302 0.0
H746 H 0.14869 0.04493 0.38457 0.0
H747 H 0.15094 0.0741 0.44313 0.0
H748 H 0.92242 0.88751 0.7401 0.0
H749 H 0.95776 0.88368 0.74446 0.0
H750 H 0.96098 0.8903 0.56568 0.0
H751 H 0.92608 0.89391 0.56098 0.0
H752 H 0.97897 0.85377 0.68374 0.0
H753 H 0.00336 0.92713 0.62715 0.0
H754 H 0.97973 0.92233 0.65601 0.0
H755 H 0.98426 0.91867 0.58277 0.0
C756 C 0.93077 0.88842 0.70197 0.0
C757 C 0.92154 0.89098 0.65019 0.0
C758 C 0.95088 0.88622 0.70451 0.0
C759 C 0.96196 0.88699 0.65546 0.0
C760 C 0.95274 0.89002 0.60412 0.0
H761 H 0.04915 0.83874 0.48143 0.0
H762 H 0.02209 0.84559 0.54315 0.0
C763 C 0.93276 0.89195 0.60147 0.0
C764 C 0.98295 0.88303 0.65576 0.0
H765 H 0.02479 0.90085 0.60163 0.0
C766 C 0.98918 0.86421 0.66746 0.0
C767 C 0.99631 0.89672 0.63539 0.0
C768 C 0.99063 0.91741 0.62514 0.0
C769 C 0.00796 0.85822 0.65385 0.0
C770 C 0.02064 0.87136 0.62748 0.0
C771 C 0.01501 0.8907 0.6213 0.0
C772 C 0.03812 0.86478 0.59736 0.0
C773 C 0.01372 0.83762 0.66505 0.0
C774 C 0.05624 0.87319 0.60744 0.0
C775 C 0.07185 0.8692 0.57204 0.0
C776 C 0.06939 0.85709 0.5255 0.0
C777 C 0.05147 0.84811 0.517 0.0
C778 C 0.03602 0.8519 0.55258 0.0
H779 H 0.00593 0.83178 0.70191 0.0
H780 H 0.00982 0.8286 0.62845 0.0
H781 H 0.02949 0.83633 0.67229 0.0
H782 H 0.05809 0.88335 0.64139 0.0
H783 H 0.08549 0.87642 0.57926 0.0
H784 H 0.36525 0.32234 0.1635 0.0
H785 H 0.35771 0.28809 0.16279 0.0
H786 H 0.30774 0.29919 0.05997 0.0
H787 H 0.31604 0.33368 0.05794 0.0
H788 H 0.32852 0.26911 0.20171 0.0
H789 H 0.3317 0.2569 0.97237 0.0
H790 H 0.33924 0.27927 0.00374 0.0
H791 H 0.31399 0.27414 0.99461 0.0
C792 C 0.35272 0.31748 0.14039 0.0
C793 C 0.34128 0.33059 0.11049 0.0
C794 C 0.34836 0.29789 0.14019 0.0
C795 C 0.33224 0.29094 0.11095 0.0
C796 C 0.32053 0.30408 0.08169 0.0
H797 H 0.31511 0.16611 0.17855 0.0
H798 H 0.30731 0.20068 0.17472 0.0
C799 C 0.3252 0.32377 0.08075 0.0
C800 C 0.32817 0.26989 0.11184 0.0
H801 H 0.32596 0.22994 0.02884 0.0
C802 C 0.32782 0.26053 0.16389 0.0
C803 C 0.32715 0.25872 0.06246 0.0
C804 C 0.32819 0.2677 0.00511 0.0
C805 C 0.32799 0.24034 0.16803 0.0
C806 C 0.32752 0.22914 0.11861 0.0
C807 C 0.32638 0.23853 0.06667 0.0
C808 C 0.33087 0.20796 0.11904 0.0
C809 C 0.33007 0.23134 0.22514 0.0
C810 C 0.34615 0.20041 0.08739 0.0
C811 C 0.3502 0.18075 0.08828 0.0
C812 C 0.33929 0.16818 0.1216 0.0
C813 C 0.32388 0.17558 0.15309 0.0
C814 C 0.3195 0.19532 0.15113 0.0
H815 H 0.3347 0.24203 0.25703 0.0
H816 H 0.31594 0.22541 0.23848 0.0
H817 H 0.34074 0.2194 0.2245 0.0
H818 H 0.35519 0.20981 0.06248 0.0
H819 H 0.36219 0.17545 0.06365 0.0
H820 H 0.17854 0.63452 0.91427 0.0
H821 H 0.21275 0.64223 0.91673 0.0
H822 H 0.20269 0.69174 0.81141 0.0
H823 H 0.16824 0.68338 0.80654 0.0
H824 H 0.23359 0.67463 0.77876 0.0
H825 H 0.24005 0.68147 0.00639 0.0
H826 H 0.22995 0.65831 0.99116 0.0
H827 H 0.21689 0.67989 0.97233 0.0
C828 C 0.18359 0.64709 0.89173 0.0
C829 C 0.17075 0.65844 0.86052 0.0
C830 C 0.20314 0.65164 0.89373 0.0
C831 C 0.21025 0.66799 0.86601 0.0
C832 C 0.1975 0.67921 0.83386 0.0
H833 H 0.33434 0.68174 0.93728 0.0
H834 H 0.29994 0.69025 0.93228 0.0
C835 C 0.17787 0.67441 0.83092 0.0
C836 C 0.23122 0.67239 0.86829 0.0
H837 H 0.26954 0.6716 0.95766 0.0
C838 C 0.2414 0.6744 0.818 0.0
C839 C 0.2415 0.67288 0.91941 0.0
C840 C 0.23144 0.67327 0.97527 0.0
C841 C 0.26163 0.67515 0.81727 0.0
C842 C 0.27196 0.67296 0.86797 0.0
C843 C 0.26173 0.67272 0.91854 0.0
C844 C 0.29302 0.66896 0.86907 0.0
C845 C 0.27165 0.67799 0.76195 0.0
C846 C 0.30053 0.654 0.83608 0.0
C847 C 0.32008 0.64943 0.83817 0.0
C848 C 0.33251 0.65928 0.87462 0.0
C849 C 0.32503 0.67394 0.9088 0.0
C850 C 0.30543 0.67882 0.90583 0.0
H851 H 0.26286 0.68727 0.73392 0.0
H852 H 0.28609 0.68469 0.76712 0.0
H853 H 0.27335 0.66382 0.74097 0.0
H854 H 0.29121 0.64556 0.80927 0.0
H855 H 0.32539 0.63785 0.81195 0.0
H856 H 0.65961 0.82872 0.22117 0.0
H857 H 0.66628 0.794 0.22619 0.0
H858 H 0.66326 0.79025 0.04664 0.0
H859 H 0.65677 0.82478 0.04126 0.0
H860 H 0.64041 0.7664 0.18615 0.0
H861 H 0.71145 0.75841 0.08251 0.0
H862 H 0.70284 0.78122 0.10922 0.0
H863 H 0.69446 0.77237 0.04292 0.0
C864 C 0.66074 0.82053 0.18279 0.0
C865 C 0.6576 0.82941 0.13086 0.0
C866 C 0.66455 0.80074 0.1857 0.0
C867 C 0.66552 0.78963 0.13673 0.0
C868 C 0.663 0.79862 0.08483 0.0
H869 H 0.65792 0.66993 0.04389 0.0
H870 H 0.66283 0.70499 0.04651 0.0
C871 C 0.65912 0.81833 0.0819 0.0
C872 C 0.66693 0.76837 0.13979 0.0
H873 H 0.69257 0.72962 0.09226 0.0
C874 C 0.65196 0.75834 0.1664 0.0
C875 C 0.68192 0.75795 0.11336 0.0
C876 C 0.69868 0.76803 0.08581 0.0
C877 C 0.65121 0.73815 0.16577 0.0
C878 C 0.66607 0.72771 0.13878 0.0
C879 C 0.68122 0.7377 0.11287 0.0
C880 C 0.66574 0.7064 0.13639 0.0
C881 C 0.63413 0.72819 0.19223 0.0
C882 C 0.66648 0.69561 0.1858 0.0
C883 C 0.66356 0.67571 0.18445 0.0
C884 C 0.66006 0.66624 0.13356 0.0
C885 C 0.66053 0.67688 0.08368 0.0
C886 C 0.66334 0.69687 0.08512 0.0
H887 H 0.62191 0.73828 0.19924 0.0
H888 H 0.62901 0.71607 0.16578 0.0
H889 H 0.63849 0.72223 0.23333 0.0
H890 H 0.66867 0.70268 0.22565 0.0
H891 H 0.66349 0.66784 0.22352 0.0
H892 H 0.66639 0.31508 0.93273 0.0
H893 H 0.70081 0.30657 0.92839 0.0
H894 H 0.71154 0.35696 0.8271 0.0
H895 H 0.67733 0.36472 0.82864 0.0
H896 H 0.73013 0.32783 0.786 0.0
H897 H 0.74372 0.32988 0.01487 0.0
H898 H 0.72628 0.31237 0.99259 0.0
H899 H 0.72119 0.33768 0.98496 0.0
C900 C 0.6762 0.32429 0.90977 0.0
C901 C 0.6693 0.34055 0.88112 0.0
C902 C 0.69585 0.31949 0.90749 0.0
C903 C 0.70887 0.33126 0.878 0.0
C904 C 0.70183 0.34756 0.84984 0.0
H905 H 0.82405 0.36187 0.92112 0.0
H906 H 0.78978 0.35444 0.92316 0.0
C907 C 0.68227 0.35205 0.85095 0.0
C908 C 0.72989 0.32711 0.87588 0.0
H909 H 0.77034 0.32468 0.95679 0.0
C910 C 0.73895 0.32699 0.82336 0.0
C911 C 0.74136 0.32587 0.92465 0.0
C912 C 0.73271 0.3266 0.98248 0.0
C913 C 0.75911 0.32727 0.81822 0.0
C914 C 0.77059 0.32668 0.86707 0.0
C915 C 0.76152 0.32522 0.9194 0.0
C916 C 0.79171 0.33034 0.8658 0.0
C917 C 0.76776 0.32961 0.76076 0.0
C918 C 0.80437 0.31927 0.83286 0.0
C919 C 0.82405 0.32391 0.8304 0.0
C920 C 0.83137 0.33927 0.86221 0.0
C921 C 0.81879 0.34992 0.89624 0.0
C922 C 0.79919 0.34561 0.89763 0.0
H923 H 0.75685 0.33418 0.72945 0.0
H924 H 0.77956 0.34044 0.76114 0.0
H925 H 0.77383 0.3156 0.74684 0.0
H926 H 0.79907 0.3071 0.80906 0.0
H927 H 0.83354 0.31534 0.80441 0.0
H928 H 0.84494 0.6737 0.72602 0.0
H929 H 0.84143 0.70886 0.72356 0.0
H930 H 0.82656 0.70597 0.54881 0.0
H931 H 0.8305 0.67099 0.55072 0.0
H932 H 0.85633 0.72999 0.56808 0.0
H933 H 0.79699 0.74676 0.71526 0.0
H934 H 0.81533 0.73173 0.74532 0.0
H935 H 0.80104 0.72279 0.68817 0.0
C936 C 0.84045 0.68055 0.68751 0.0
C937 C 0.83811 0.66967 0.6385 0.0
C938 C 0.83835 0.70063 0.68617 0.0
C939 C 0.8336 0.71003 0.63605 0.0
C940 C 0.83022 0.69902 0.58791 0.0
H941 H 0.83935 0.83218 0.54041 0.0
H942 H 0.83248 0.79744 0.5402 0.0
C943 C 0.83248 0.67903 0.58909 0.0
C944 C 0.83446 0.73135 0.63189 0.0
H945 H 0.81735 0.77315 0.68864 0.0
C946 C 0.8476 0.73943 0.59389 0.0
C947 C 0.82313 0.74362 0.66577 0.0
C948 C 0.80819 0.7358 0.70555 0.0
C949 C 0.85019 0.75944 0.59007 0.0
C950 C 0.83914 0.7717 0.6247 0.0
C951 C 0.82576 0.76367 0.66208 0.0
C952 C 0.84219 0.79281 0.62506 0.0
C953 C 0.86525 0.76725 0.55057 0.0
C954 C 0.84953 0.8017 0.67313 0.0
C955 C 0.85342 0.82144 0.67336 0.0
C956 C 0.84997 0.83268 0.62555 0.0
C957 C 0.84228 0.82384 0.57768 0.0
C958 C 0.83838 0.80403 0.57749 0.0
H959 H 0.87512 0.75578 0.53528 0.0
H960 H 0.85799 0.77378 0.51387 0.0
H961 H 0.87398 0.77865 0.57117 0.0
H962 H 0.85256 0.79328 0.71022 0.0
H963 H 0.85926 0.82785 0.711 0.0
H964 H 0.83136 0.1644 0.28107 0.0
H965 H 0.79666 0.17008 0.27593 0.0
H966 H 0.79296 0.16733 0.45556 0.0
H967 H 0.82789 0.16202 0.46105 0.0
H968 H 0.77031 0.144 0.31148 0.0
H969 H 0.75889 0.21361 0.42049 0.0
H970 H 0.78234 0.20586 0.3964 0.0
H971 H 0.77257 0.1965 0.46047 0.0
C972 C 0.82322 0.16536 0.31959 0.0
C973 C 0.8323 0.16269 0.3715 0.0
C974 C 0.8034 0.16863 0.31655 0.0
C975 C 0.79224 0.16929 0.36531 0.0
C976 C 0.80135 0.16729 0.41743 0.0
H977 H 0.67339 0.15739 0.44958 0.0
H978 H 0.70807 0.16329 0.44592 0.0
C979 C 0.82128 0.16414 0.42054 0.0
C980 C 0.77091 0.16993 0.36101 0.0
H981 H 0.7308 0.1943 0.40428 0.0
C982 C 0.76168 0.15515 0.33112 0.0
C983 C 0.75971 0.18445 0.38681 0.0
C984 C 0.76887 0.20111 0.41742 0.0
C985 C 0.74151 0.15411 0.32789 0.0
C986 C 0.73028 0.16843 0.35454 0.0
C987 C 0.73949 0.18341 0.38364 0.0
C988 C 0.70898 0.1671 0.35634 0.0
C989 C 0.7324 0.13724 0.29797 0.0
C990 C 0.69791 0.16781 0.30723 0.0
C991 C 0.67801 0.16437 0.30912 0.0
C992 C 0.66896 0.16022 0.36021 0.0
C993 C 0.67998 0.16042 0.40951 0.0
C994 C 0.69979 0.16386 0.40757 0.0
H995 H 0.74297 0.12557 0.28937 0.0
H996 H 0.72034 0.13115 0.3229 0.0
H997 H 0.72644 0.14221 0.25744 0.0
H998 H 0.70473 0.17057 0.26735 0.0
H999 H 0.66986 0.16441 0.27055 0.0
H1000 H 0.16078 0.32662 0.71986 0.0
H1001 H 0.16703 0.29178 0.72306 0.0
H1002 H 0.16665 0.28969 0.54307 0.0
H1003 H 0.16071 0.3243 0.53955 0.0
H1004 H 0.14195 0.26485 0.68032 0.0
H1005 H 0.21335 0.25665 0.57952 0.0
H1006 H 0.20474 0.27949 0.60588 0.0
H1007 H 0.19691 0.27084 0.53874 0.0
C1008 C 0.16244 0.31877 0.68106 0.0
C1009 C 0.1602 0.32816 0.62949 0.0
C1010 C 0.166 0.2989 0.68292 0.0
C1011 C 0.16758 0.28819 0.63328 0.0
C1012 C 0.16596 0.2977 0.58185 0.0
H1013 H 0.15769 0.16928 0.53139 0.0
H1014 H 0.16307 0.20428 0.53625 0.0
C1015 C 0.16238 0.31749 0.57996 0.0
C1016 C 0.16864 0.26685 0.63478 0.0
H1017 H 0.1937 0.22811 0.58444 0.0
C1018 C 0.15342 0.25681 0.66014 0.0
C1019 C 0.18353 0.25641 0.60788 0.0
C1020 C 0.20065 0.2664 0.58192 0.0
C1021 C 0.15231 0.23665 0.65775 0.0
C1022 C 0.16702 0.22621 0.63007 0.0
C1023 C 0.18244 0.23619 0.60546 0.0
C1024 C 0.16635 0.20492 0.62609 0.0
C1025 C 0.13505 0.22671 0.68323 0.0
C1026 C 0.16713 0.19371 0.6747 0.0
C1027 C 0.16397 0.17387 0.67207 0.0
C1028 C 0.16016 0.16483 0.62068 0.0
C1029 C 0.16056 0.17588 0.57153 0.0
C1030 C 0.16362 0.19584 0.57426 0.0
H1031 H 0.12302 0.23693 0.6913 0.0
H1032 H 0.12971 0.21501 0.65558 0.0
H1033 H 0.1393 0.22016 0.72367 0.0
H1034 H 0.16956 0.20042 0.71495 0.0
H1035 H 0.16397 0.16569 0.71061 0.0
H1036 H 0.17326 0.86718 0.4813 0.0
H1037 H 0.20841 0.86362 0.47688 0.0
H1038 H 0.20184 0.81182 0.37903 0.0
H1039 H 0.16675 0.81516 0.38359 0.0
H1040 H 0.23197 0.81013 0.4612 0.0
H1041 H 0.23596 0.87523 0.32644 0.0
H1042 H 0.2239 0.87883 0.39203 0.0
H1043 H 0.21357 0.86291 0.34091 0.0
C1044 C 0.1793 0.85482 0.45987 0.0
C1045 C 0.16728 0.84155 0.43236 0.0
C1046 C 0.19936 0.85288 0.45705 0.0
C1047 C 0.20766 0.83767 0.42668 0.0
C1048 C 0.19569 0.82372 0.40234 0.0
H1049 H 0.32577 0.84131 0.29919 0.0
H1050 H 0.29082 0.83599 0.30618 0.0
C1051 C 0.17565 0.82566 0.40503 0.0
C1052 C 0.22874 0.83699 0.41709 0.0
H1053 H 0.26567 0.86181 0.35617 0.0
C1054 C 0.23937 0.82138 0.43813 0.0
C1055 C 0.23823 0.85145 0.38578 0.0
C1056 C 0.22735 0.86798 0.35947 0.0
C1057 C 0.25943 0.82021 0.43031 0.0
C1058 C 0.26903 0.83514 0.40119 0.0
C1059 C 0.25828 0.85041 0.37863 0.0
C1060 C 0.29032 0.83596 0.39656 0.0
C1061 C 0.27014 0.80299 0.45311 0.0
C1062 C 0.30158 0.83754 0.44496 0.0
C1063 C 0.32142 0.8406 0.44107 0.0
C1064 C 0.3304 0.84223 0.38865 0.0
C1065 C 0.31924 0.84004 0.3401 0.0
C1066 C 0.2993 0.83704 0.34405 0.0
H1067 H 0.2604 0.79041 0.45872 0.0
H1068 H 0.28219 0.79875 0.42514 0.0
H1069 H 0.27627 0.80671 0.49454 0.0
H1070 H 0.29491 0.83717 0.48585 0.0
H1071 H 0.32963 0.84225 0.47926 0.0
H1072 H 0.16918 0.09098 0.80168 0.0
H1073 H 0.19767 0.08577 0.86057 0.0
H1074 H 0.23242 0.07672 0.71356 0.0
H1075 H 0.20417 0.08216 0.65454 0.0
H1076 H 0.22601 0.05497 0.86918 0.0
H1077 H 0.25691 0.124 0.79156 0.0
H1078 H 0.23197 0.11752 0.78102 0.0
H1079 H 0.25047 0.10684 0.73854 0.0
C1080 C 0.18283 0.08757 0.782 0.0
C1081 C 0.18453 0.08722 0.72355 0.0
C1082 C 0.19907 0.08459 0.81564 0.0
C1083 C 0.21717 0.08121 0.79126 0.0
C1084 C 0.21863 0.07965 0.73306 0.0
H1085 H 0.33207 0.08841 0.93997 0.0
H1086 H 0.30574 0.08131 0.87463 0.0
C1087 C 0.20246 0.08271 0.69947 0.0
C1088 C 0.23474 0.08082 0.8263 0.0
H1089 H 0.27582 0.10613 0.85449 0.0
C1090 C 0.23697 0.06608 0.86591 0.0
C1091 C 0.24899 0.09534 0.82173 0.0
C1092 C 0.24698 0.11193 0.78129 0.0
C1093 C 0.25313 0.06552 0.9013 0.0
C1094 C 0.26718 0.08027 0.89747 0.0
C1095 C 0.2651 0.09477 0.85706 0.0
C1096 C 0.28335 0.08197 0.93761 0.0
C1097 C 0.25503 0.04912 0.94232 0.0
C1098 C 0.27949 0.08456 0.99458 0.0
C1099 C 0.29444 0.08861 0.03179 0.0
C1100 C 0.31354 0.0903 0.01267 0.0
C1101 C 0.3175 0.08716 0.95587 0.0
C1102 C 0.30249 0.0831 0.91857 0.0
H1103 H 0.24691 0.0362 0.92817 0.0
H1104 H 0.27038 0.04506 0.9486 0.0
H1105 H 0.24899 0.05365 0.98316 0.0
H1106 H 0.26481 0.08424 0.01 0.0
H1107 H 0.29092 0.09101 0.07531 0.0
H1108 H 0.09863 0.8302 0.20919 0.0
H1109 H 0.09481 0.80294 0.14483 0.0
H1110 H 0.08556 0.76478 0.28445 0.0
H1111 H 0.08955 0.79179 0.34883 0.0
H1112 H 0.11441 0.7526 0.21178 0.0
H1113 H 0.04755 0.77122 0.09605 0.0
H1114 H 0.06531 0.79008 0.09828 0.0
H1115 H 0.05389 0.78234 0.16178 0.0
C1116 C 0.09545 0.81606 0.22603 0.0
C1117 C 0.09445 0.81311 0.284 0.0
C1118 C 0.09317 0.80052 0.18925 0.0
C1119 C 0.08972 0.78188 0.20992 0.0
C1120 C 0.08814 0.77906 0.26768 0.0
H1121 H 0.09325 0.6678 0.05197 0.0
H1122 H 0.08839 0.69402 0.11938 0.0
C1123 C 0.09043 0.79452 0.30437 0.0
C1124 C 0.08949 0.76502 0.17195 0.0
H1125 H 0.06633 0.74532 0.05981 0.0
C1126 C 0.10379 0.75089 0.17887 0.0
C1127 C 0.07566 0.76291 0.12902 0.0
C1128 C 0.05961 0.77734 0.12095 0.0
C1129 C 0.10499 0.73495 0.14301 0.0
C1130 C 0.09124 0.73287 0.09977 0.0
C1131 C 0.07678 0.7469 0.09321 0.0
C1132 C 0.09238 0.71688 0.05888 0.0
C1133 C 0.12141 0.72087 0.15045 0.0
C1134 C 0.09547 0.72105 0.00234 0.0
C1135 C 0.09807 0.70617 0.96387 0.0
C1136 C 0.09761 0.68679 0.9812 0.0
C1137 C 0.09381 0.68259 0.03752 0.0
C1138 C 0.09114 0.69754 0.07606 0.0
H1139 H 0.13311 0.72691 0.17694 0.0
H1140 H 0.11593 0.70762 0.17104 0.0
H1141 H 0.12764 0.7167 0.10947 0.0
H1142 H 0.09642 0.73586 0.98819 0.0
H1143 H 0.10089 0.70988 0.92071 0.0
H1144 H 0.66504 0.90339 0.93575 0.0
H1145 H 0.69255 0.90828 0.87294 0.0
H1146 H 0.73082 0.91123 0.01468 0.0
H1147 H 0.70347 0.90662 0.07759 0.0
H1148 H 0.73928 0.93854 0.92944 0.0
H1149 H 0.73118 0.8639 0.84753 0.0
H1150 H 0.71008 0.87881 0.8417 0.0
H1151 H 0.71891 0.87214 0.90953 0.0
C1152 C 0.67928 0.90535 0.95349 0.0
C1153 C 0.68214 0.90443 0.01151 0.0
C1154 C 0.69497 0.90806 0.91761 0.0
C1155 C 0.71373 0.90978 0.93923 0.0
C1156 C 0.71646 0.90985 0.99721 0.0
H1157 H 0.83076 0.90906 0.8098 0.0
H1158 H 0.80198 0.91314 0.86827 0.0
C1159 C 0.70082 0.90717 0.03305 0.0
C1160 C 0.73069 0.91026 0.90171 0.0
H1161 H 0.75568 0.88299 0.80778 0.0
C1162 C 0.74287 0.92644 0.90264 0.0
C1163 C 0.73538 0.89437 0.86727 0.0
C1164 C 0.72333 0.87623 0.86658 0.0
C1165 C 0.75954 0.92725 0.86931 0.0
C1166 C 0.76423 0.91133 0.835 0.0
C1167 C 0.75199 0.8952 0.83401 0.0
C1168 C 0.78176 0.91086 0.79965 0.0
C1169 C 0.77182 0.9452 0.87049 0.0
C1170 C 0.77992 0.90815 0.74189 0.0
C1171 C 0.79625 0.90564 0.70869 0.0
C1172 C 0.81477 0.90574 0.7326 0.0
C1173 C 0.81667 0.909 0.79025 0.0
C1174 C 0.80025 0.91145 0.8236 0.0
H1175 H 0.76377 0.95777 0.88736 0.0
H1176 H 0.78452 0.94267 0.89774 0.0
H1177 H 0.77715 0.94883 0.82804 0.0
H1178 H 0.76578 0.90758 0.72263 0.0
H1179 H 0.79431 0.90322 0.66435 0.0
H1180 H 0.90912 0.2084 0.32815 0.0
H1181 H 0.91437 0.23464 0.26187 0.0
H1182 H 0.91829 0.19348 0.1273 0.0
H1183 H 0.91267 0.16707 0.19338 0.0
H1184 H 0.9433 0.24362 0.18277 0.0
H1185 H 0.87247 0.22788 0.08354 0.0
H1186 H 0.87963 0.21739 0.14926 0.0
H1187 H 0.88906 0.20799 0.08487 0.0
C1188 C 0.91135 0.20489 0.28455 0.0
C1189 C 0.91023 0.1857 0.26578 0.0
C1190 C 0.9144 0.21991 0.24679 0.0
C1191 C 0.91637 0.21601 0.18965 0.0
C1192 C 0.91645 0.19678 0.17118 0.0
H1193 H 0.91119 0.29154 0.90241 0.0
H1194 H 0.91739 0.26441 0.96478 0.0
C1195 C 0.91333 0.18172 0.20896 0.0
C1196 C 0.91682 0.23217 0.1493 0.0
H1197 H 0.89078 0.25308 0.04472 0.0
C1198 C 0.93189 0.24568 0.15235 0.0
C1199 C 0.90179 0.23487 0.11012 0.0
C1200 C 0.88472 0.22139 0.10685 0.0
C1201 C 0.93239 0.26178 0.11674 0.0
C1202 C 0.91732 0.26448 0.07778 0.0
C1203 C 0.90237 0.25089 0.0745 0.0
C1204 C 0.91635 0.28145 0.04038 0.0
C1205 C 0.94909 0.27565 0.12069 0.0
C1206 C 0.91401 0.3001 0.06223 0.0
C1207 C 0.91047 0.31571 0.02658 0.0
C1208 C 0.90906 0.3128 0.96866 0.0
C1209 C 0.91213 0.29422 0.94689 0.0
C1210 C 0.9157 0.2787 0.98242 0.0
H1211 H 0.96169 0.26907 0.14215 0.0
H1212 H 0.95364 0.28057 0.07858 0.0
H1213 H 0.94457 0.28851 0.14499 0.0
H1214 H 0.91409 0.30247 0.10693 0.0
H1215 H 0.90809 0.32986 0.04448 0.0
H1216 H 0.16962 0.40112 0.43804 0.0
H1217 H 0.19803 0.40677 0.37919 0.0
H1218 H 0.23277 0.41571 0.5263 0.0
H1219 H 0.20461 0.40989 0.58529 0.0
H1220 H 0.22579 0.4383 0.37231 0.0
H1221 H 0.25801 0.36927 0.44545 0.0
H1222 H 0.23293 0.37519 0.45628 0.0
H1223 H 0.25121 0.38591 0.49951 0.0
C1224 C 0.18325 0.40456 0.45775 0.0
C1225 C 0.18496 0.40484 0.51621 0.0
C1226 C 0.19944 0.4078 0.42414 0.0
C1227 C 0.21751 0.41133 0.44856 0.0
C1228 C 0.219 0.41269 0.50678 0.0
H1229 H 0.33264 0.40792 0.30129 0.0
H1230 H 0.30594 0.41367 0.3664 0.0
C1231 C 0.20288 0.4094 0.54036 0.0
C1232 C 0.23502 0.41228 0.41342 0.0
H1233 H 0.27659 0.388 0.38375 0.0
C1234 C 0.23696 0.42737 0.37484 0.0
C1235 C 0.24953 0.39799 0.41705 0.0
C1236 C 0.24784 0.38107 0.45643 0.0
C1237 C 0.25312 0.42855 0.33962 0.0
C1238 C 0.26746 0.41405 0.34255 0.0
C1239 C 0.26564 0.39917 0.38187 0.0
C1240 C 0.28377 0.41311 0.30273 0.0
C1241 C 0.25473 0.44533 0.29984 0.0
C1242 C 0.28015 0.41102 0.24544 0.0
C1243 C 0.29532 0.40776 0.20833 0.0
C1244 C 0.31439 0.40635 0.22788 0.0
C1245 C 0.31809 0.40897 0.28506 0.0
C1246 C 0.30287 0.41225 0.32223 0.0
H1247 H 0.24629 0.45795 0.31474 0.0
H1248 H 0.27 0.44979 0.29417 0.0
H1249 H 0.24888 0.44102 0.25856 0.0
H1250 H 0.26551 0.41114 0.22963 0.0
H1251 H 0.29201 0.40573 0.16451 0.0
H1252 H 0.41026 0.83483 0.56124 0.0
H1253 H 0.41651 0.8076 0.62396 0.0
H1254 H 0.41574 0.76869 0.48342 0.0
H1255 H 0.40976 0.79575 0.42062 0.0
H1256 H 0.39065 0.77758 0.6351 0.0
H1257 H 0.46218 0.74929 0.57177 0.0
H1258 H 0.45397 0.77318 0.55322 0.0
H1259 H 0.44581 0.75252 0.51442 0.0
C1260 C 0.41187 0.82053 0.54363 0.0
C1261 C 0.40946 0.8174 0.4861 0.0
C1262 C 0.41543 0.805 0.57946 0.0
C1263 C 0.4168 0.78616 0.55826 0.0
C1264 C 0.41517 0.78314 0.50056 0.0
H1265 H 0.40699 0.671 0.69376 0.0
H1266 H 0.41218 0.69922 0.63364 0.0
C1267 C 0.41159 0.79862 0.46477 0.0
C1268 C 0.41753 0.76946 0.59674 0.0
H1269 H 0.44262 0.72841 0.62788 0.0
C1270 C 0.40214 0.76697 0.63406 0.0
C1271 C 0.43243 0.75552 0.59473 0.0
C1272 C 0.44963 0.75781 0.55673 0.0
C1273 C 0.40097 0.75069 0.66852 0.0
C1274 C 0.4158 0.73669 0.66634 0.0
C1275 C 0.43129 0.7392 0.62936 0.0
C1276 C 0.41519 0.71933 0.70219 0.0
C1277 C 0.38357 0.74833 0.70582 0.0
C1278 C 0.41584 0.72127 0.76041 0.0
C1279 C 0.41279 0.70528 0.79463 0.0
C1280 C 0.4092 0.68703 0.77122 0.0
C1281 C 0.40967 0.6849 0.71289 0.0
C1282 C 0.41265 0.70097 0.67857 0.0
H1283 H 0.37149 0.75789 0.69299 0.0
H1284 H 0.37839 0.73317 0.70549 0.0
H1285 H 0.38759 0.75209 0.74932 0.0
H1286 H 0.4181 0.73527 0.77937 0.0
H1287 H 0.41271 0.70735 0.83946 0.0
H1288 H 0.70532 0.58568 0.16824 0.0
H1289 H 0.73349 0.58015 0.22733 0.0
H1290 H 0.69771 0.5843 0.37413 0.0
H1291 H 0.66932 0.58972 0.3151 0.0
H1292 H 0.74545 0.60794 0.30465 0.0
H1293 H 0.7326 0.53737 0.40765 0.0
H1294 H 0.7202 0.54461 0.34465 0.0
H1295 H 0.71271 0.55397 0.41116 0.0
C1296 C 0.70335 0.58503 0.21307 0.0
C1297 C 0.68513 0.58823 0.23711 0.0
C1298 C 0.71947 0.58185 0.24673 0.0
C1299 C 0.71767 0.58167 0.30502 0.0
C1300 C 0.69935 0.58403 0.32917 0.0
H1301 H 0.79301 0.59215 0.58646 0.0
H1302 H 0.7665 0.58598 0.5217 0.0
C1303 C 0.68317 0.58722 0.29544 0.0
C1304 C 0.73521 0.58134 0.34028 0.0
H1305 H 0.75793 0.55679 0.44488 0.0
C1306 C 0.74832 0.59664 0.33487 0.0
C1307 C 0.73878 0.56665 0.37982 0.0
C1308 C 0.72543 0.54961 0.38603 0.0
C1309 C 0.76466 0.59798 0.36912 0.0
C1310 C 0.76821 0.58336 0.40903 0.0
C1311 C 0.75523 0.5679 0.41398 0.0
C1312 C 0.78466 0.58467 0.44836 0.0
C1313 C 0.77752 0.61547 0.36381 0.0
C1314 C 0.80375 0.58533 0.42877 0.0
C1315 C 0.81896 0.589 0.46568 0.0
C1316 C 0.81529 0.59188 0.52278 0.0
C1317 C 0.79629 0.5901 0.54263 0.0
C1318 C 0.78111 0.58652 0.50573 0.0
H1319 H 0.77037 0.62734 0.34048 0.0
H1320 H 0.7818 0.62097 0.40556 0.0
H1321 H 0.79082 0.61143 0.34083 0.0
H1322 H 0.80681 0.58356 0.38473 0.0
H1323 H 0.83347 0.59015 0.44928 0.0
H1324 H 0.59277 0.16689 0.55165 0.0
H1325 H 0.58717 0.19383 0.61591 0.0
H1326 H 0.58605 0.2333 0.47674 0.0
H1327 H 0.59134 0.20651 0.41243 0.0
H1328 H 0.61254 0.22406 0.62682 0.0
H1329 H 0.54024 0.25171 0.56866 0.0
H1330 H 0.54867 0.22808 0.5483 0.0
H1331 H 0.55624 0.24912 0.51021 0.0
C1332 C 0.59093 0.18126 0.53473 0.0
C1333 C 0.59254 0.18461 0.47708 0.0
C1334 C 0.58773 0.19662 0.57143 0.0
C1335 C 0.58596 0.21553 0.55102 0.0
C1336 C 0.58693 0.21879 0.49331 0.0
H1337 H 0.5956 0.32991 0.69303 0.0
H1338 H 0.59067 0.30212 0.631 0.0
C1339 C 0.59011 0.20347 0.45665 0.0
C1340 C 0.58532 0.23205 0.59015 0.0
H1341 H 0.5599 0.27258 0.62454 0.0
C1342 C 0.60091 0.23453 0.62682 0.0
C1343 C 0.57023 0.2458 0.58955 0.0
C1344 C 0.5528 0.24349 0.55243 0.0
C1345 C 0.60205 0.25061 0.66209 0.0
C1346 C 0.58704 0.26442 0.66127 0.0
C1347 C 0.57137 0.26194 0.62491 0.0
C1348 C 0.58758 0.2815 0.6982 0.0
C1349 C 0.61958 0.25296 0.69893 0.0
C1350 C 0.58682 0.27911 0.75624 0.0
C1351 C 0.58969 0.29484 0.79154 0.0
C1352 C 0.59324 0.31328 0.7694 0.0
C1353 C 0.59294 0.31585 0.7112 0.0
C1354 C 0.59011 0.30003 0.6758 0.0
H1355 H 0.63167 0.24352 0.68549 0.0
H1356 H 0.62464 0.26816 0.69888 0.0
H1357 H 0.61574 0.24905 0.74246 0.0
H1358 H 0.5846 0.26494 0.77423 0.0
H1359 H 0.58967 0.29244 0.83623 0.0
loop_
_geom_bond_atom_site_label_1
_geom_bond_atom_site_label_2
_geom_bond_distance
_geom_bond_site_symmetry_2
_ccdc_geom_bond_type
In0 O1 2.294 . S
In0 O2 2.326 . S
In0 O6 2.266 . S
In0 O7 2.326 . S
In0 O8 2.266 . S
In0 O9 2.326 . S
In0 O11 2.294 . S
In0 O12 2.326 . S
O1 In0 2.294 . S
O1 C10 1.240 . S
O2 In0 2.326 . S
O2 C10 1.252 . S
C3 O6 1.252 . S
C3 O7 1.260 . S
C4 O11 1.240 . S
C4 O12 1.252 . S
C5 O8 1.252 . S
C5 O9 1.260 . S
O6 In0 2.266 . S
O6 C3 1.252 . S
O7 In0 2.326 . S
O7 C3 1.260 . S
O8 In0 2.266 . S
O8 C5 1.252 . S
O9 In0 2.326 . S
O9 C5 1.260 . S
C10 O1 1.240 . S
C10 O2 1.252 . S
O11 In0 2.294 . S
O11 C4 1.240 . S
O12 In0 2.326 . S
O12 C4 1.252 . S
In13 O14 2.294 . S
In13 O15 2.326 . S
In13 O19 2.266 . S
In13 O20 2.326 . S
In13 O21 2.266 . S
In13 O22 2.326 . S
In13 O24 2.294 . S
In13 O25 2.326 . S
O14 In13 2.294 . S
O14 C23 1.240 . S
O15 In13 2.326 . S
O15 C23 1.252 . S
C16 O19 1.252 . S
C16 O20 1.260 . S
C17 O24 1.240 . S
C17 O25 1.252 . S
C18 O21 1.252 . S
C18 O22 1.260 . S
O19 In13 2.266 . S
O19 C16 1.252 . S
O20 In13 2.326 . S
O20 C16 1.260 . S
O21 In13 2.266 . S
O21 C18 1.252 . S
O22 In13 2.326 . S
O22 C18 1.260 . S
C23 O14 1.240 . S
C23 O15 1.252 . S
O24 In13 2.294 . S
O24 C17 1.240 . S
O25 In13 2.326 . S
O25 C17 1.252 . S
In26 O27 2.294 . S
In26 O28 2.326 . S
In26 O32 2.266 . S
In26 O33 2.326 . S
In26 O34 2.266 . S
In26 O35 2.326 . S
In26 O37 2.294 . S
In26 O38 2.326 . S
O27 In26 2.294 . S
O27 C36 1.240 . S
O28 In26 2.326 . S
O28 C36 1.252 . S
C29 O32 1.252 . S
C29 O33 1.260 . S
C30 O37 1.240 . S
C30 O38 1.252 . S
C31 O34 1.252 . S
C31 O35 1.260 . S
O32 In26 2.266 . S
O32 C29 1.252 . S
O33 In26 2.326 . S
O33 C29 1.260 . S
O34 In26 2.266 . S
O34 C31 1.252 . S
O35 In26 2.326 . S
O35 C31 1.260 . S
C36 O27 1.240 . S
C36 O28 1.252 . S
O37 In26 2.294 . S
O37 C30 1.240 . S
O38 In26 2.326 . S
O38 C30 1.252 . S
In39 O40 2.294 . S
In39 O41 2.326 . S
In39 O45 2.266 . S
In39 O46 2.326 . S
In39 O47 2.266 . S
In39 O48 2.326 . S
In39 O50 2.294 . S
In39 O51 2.326 . S
O40 In39 2.294 . S
O40 C49 1.240 . S
O41 In39 2.326 . S
O41 C49 1.252 . S
C42 O45 1.252 . S
C42 O46 1.260 . S
C43 O50 1.240 . S
C43 O51 1.252 . S
C44 O47 1.252 . S
C44 O48 1.260 . S
O45 In39 2.266 . S
O45 C42 1.252 . S
O46 In39 2.326 . S
O46 C42 1.260 . S
O47 In39 2.266 . S
O47 C44 1.252 . S
O48 In39 2.326 . S
O48 C44 1.260 . S
C49 O40 1.240 . S
C49 O41 1.252 . S
O50 In39 2.294 . S
O50 C43 1.240 . S
O51 In39 2.326 . S
O51 C43 1.252 . S
In52 O53 2.294 . S
In52 O54 2.326 . S
In52 O58 2.266 . S
In52 O59 2.326 . S
In52 O60 2.266 . S
In52 O61 2.326 . S
In52 O63 2.294 . S
In52 O64 2.326 . S
O53 In52 2.294 . S
O53 C62 1.240 . S
O54 In52 2.326 . S
O54 C62 1.252 . S
C55 O58 1.252 . S
C55 O59 1.260 . S
C56 O63 1.240 . S
C56 O64 1.252 . S
C57 O60 1.252 . S
C57 O61 1.260 . S
O58 In52 2.266 . S
O58 C55 1.252 . S
O59 In52 2.326 . S
O59 C55 1.260 . S
O60 In52 2.266 . S
O60 C57 1.252 . S
O61 In52 2.326 . S
O61 C57 1.260 . S
C62 O53 1.240 . S
C62 O54 1.252 . S
O63 In52 2.294 . S
O63 C56 1.240 . S
O64 In52 2.326 . S
O64 C56 1.252 . S
In65 O66 2.294 . S
In65 O67 2.326 . S
In65 O71 2.266 . S
In65 O72 2.326 . S
In65 O73 2.266 . S
In65 O74 2.326 . S
In65 O76 2.294 . S
In65 O77 2.326 . S
O66 In65 2.294 . S
O66 C75 1.240 . S
O67 In65 2.326 . S
O67 C75 1.252 . S
C68 O71 1.252 . S
C68 O72 1.260 . S
C69 O76 1.240 . S
C69 O77 1.252 . S
C70 O73 1.252 . S
C70 O74 1.260 . S
O71 In65 2.266 . S
O71 C68 1.252 . S
O72 In65 2.326 . S
O72 C68 1.260 . S
O73 In65 2.266 . S
O73 C70 1.252 . S
O74 In65 2.326 . S
O74 C70 1.260 . S
C75 O66 1.240 . S
C75 O67 1.252 . S
O76 In65 2.294 . S
O76 C69 1.240 . S
O77 In65 2.326 . S
O77 C69 1.252 . S
In78 O79 2.294 . S
In78 O80 2.326 . S
In78 O84 2.266 . S
In78 O85 2.326 . S
In78 O86 2.266 . S
In78 O87 2.326 . S
In78 O89 2.294 . S
In78 O90 2.326 . S
O79 In78 2.294 . S
O79 C88 1.240 . S
O80 In78 2.326 . S
O80 C88 1.252 . S
C81 O84 1.252 . S
C81 O85 1.260 . S
C82 O89 1.240 . S
C82 O90 1.252 . S
C83 O86 1.252 . S
C83 O87 1.260 . S
O84 In78 2.266 . S
O84 C81 1.252 . S
O85 In78 2.326 . S
O85 C81 1.260 . S
O86 In78 2.266 . S
O86 C83 1.252 . S
O87 In78 2.326 . S
O87 C83 1.260 . S
C88 O79 1.240 . S
C88 O80 1.252 . S
O89 In78 2.294 . S
O89 C82 1.240 . S
O90 In78 2.326 . S
O90 C82 1.252 . S
In91 O92 2.294 . S
In91 O93 2.326 . S
In91 O97 2.266 . S
In91 O98 2.326 . S
In91 O99 2.266 . S
In91 O100 2.326 . S
In91 O102 2.294 . S
In91 O103 2.326 . S
O92 In91 2.294 . S
O92 C101 1.240 . S
O93 In91 2.326 . S
O93 C101 1.252 . S
C94 O97 1.252 . S
C94 O98 1.260 . S
C95 O102 1.240 . S
C95 O103 1.252 . S
C96 O99 1.252 . S
C96 O100 1.260 . S
O97 In91 2.266 . S
O97 C94 1.252 . S
O98 In91 2.326 . S
O98 C94 1.260 . S
O99 In91 2.266 . S
O99 C96 1.252 . S
O100 In91 2.326 . S
O100 C96 1.260 . S
C101 O92 1.240 . S
C101 O93 1.252 . S
O102 In91 2.294 . S
O102 C95 1.240 . S
O103 In91 2.326 . S
O103 C95 1.252 . S
In104 O105 2.294 . S
In104 O106 2.326 . S
In104 O110 2.266 . S
In104 O111 2.326 . S
In104 O112 2.266 . S
In104 O113 2.326 . S
In104 O115 2.294 . S
In104 O116 2.326 . S
O105 In104 2.294 . S
O105 C114 1.240 . S
O106 In104 2.326 . S
O106 C114 1.252 . S
C107 O110 1.252 . S
C107 O111 1.260 . S
C108 O115 1.240 . S
C108 O116 1.252 . S
C109 O112 1.252 . S
C109 O113 1.260 . S
O110 In104 2.266 . S
O110 C107 1.252 . S
O111 In104 2.326 . S
O111 C107 1.260 . S
O112 In104 2.266 . S
O112 C109 1.252 . S
O113 In104 2.326 . S
O113 C109 1.260 . S
C114 O105 1.240 . S
C114 O106 1.252 . S
O115 In104 2.294 . S
O115 C108 1.240 . S
O116 In104 2.326 . S
O116 C108 1.252 . S
In117 O118 2.294 . S
In117 O119 2.326 . S
In117 O123 2.266 . S
In117 O124 2.326 . S
In117 O125 2.266 . S
In117 O126 2.326 . S
In117 O128 2.294 . S
In117 O129 2.326 . S
O118 In117 2.294 . S
O118 C127 1.240 . S
O119 In117 2.326 . S
O119 C127 1.252 . S
C120 O123 1.252 . S
C120 O124 1.260 . S
C121 O128 1.240 . S
C121 O129 1.252 . S
C122 O125 1.252 . S
C122 O126 1.260 . S
O123 In117 2.266 . S
O123 C120 1.252 . S
O124 In117 2.326 . S
O124 C120 1.260 . S
O125 In117 2.266 . S
O125 C122 1.252 . S
O126 In117 2.326 . S
O126 C122 1.260 . S
C127 O118 1.240 . S
C127 O119 1.252 . S
O128 In117 2.294 . S
O128 C121 1.240 . S
O129 In117 2.326 . S
O129 C121 1.252 . S
In130 O131 2.294 . S
In130 O132 2.326 . S
In130 O136 2.266 . S
In130 O137 2.326 . S
In130 O138 2.266 . S
In130 O139 2.326 . S
In130 O141 2.294 . S
In130 O142 2.326 . S
O131 In130 2.294 . S
O131 C140 1.240 . S
O132 In130 2.326 . S
O132 C140 1.252 . S
C133 O136 1.252 . S
C133 O137 1.260 . S
C134 O141 1.240 . S
C134 O142 1.252 . S
C135 O138 1.252 . S
C135 O139 1.260 . S
O136 In130 2.266 . S
O136 C133 1.252 . S
O137 In130 2.326 . S
O137 C133 1.260 . S
O138 In130 2.266 . S
O138 C135 1.252 . S
O139 In130 2.326 . S
O139 C135 1.260 . S
C140 O131 1.240 . S
C140 O132 1.252 . S
O141 In130 2.294 . S
O141 C134 1.240 . S
O142 In130 2.326 . S
O142 C134 1.252 . S
In143 O144 2.294 . S
In143 O145 2.326 . S
In143 O149 2.266 . S
In143 O150 2.326 . S
In143 O151 2.266 . S
In143 O152 2.326 . S
In143 O154 2.294 . S
In143 O155 2.326 . S
O144 In143 2.294 . S
O144 C153 1.240 . S
O145 In143 2.326 . S
O145 C153 1.252 . S
C146 O149 1.252 . S
C146 O150 1.260 . S
C147 O154 1.240 . S
C147 O155 1.252 . S
C148 O151 1.252 . S
C148 O152 1.260 . S
O149 In143 2.266 . S
O149 C146 1.252 . S
O150 In143 2.326 . S
O150 C146 1.260 . S
O151 In143 2.266 . S
O151 C148 1.252 . S
O152 In143 2.326 . S
O152 C148 1.260 . S
C153 O144 1.240 . S
C153 O145 1.252 . S
O154 In143 2.294 . S
O154 C147 1.240 . S
O155 In143 2.326 . S
O155 C147 1.252 . S
In156 O157 2.294 . S
In156 O158 2.326 . S
In156 O162 2.266 . S
In156 O163 2.326 . S
In156 O164 2.266 . S
In156 O165 2.326 . S
In156 O167 2.294 . S
In156 O168 2.326 . S
O157 In156 2.294 . S
O157 C166 1.240 . S
O158 In156 2.326 . S
O158 C166 1.252 . S
C159 O162 1.252 . S
C159 O163 1.260 . S
C160 O167 1.240 . S
C160 O168 1.252 . S
C161 O164 1.252 . S
C161 O165 1.260 . S
O162 In156 2.266 . S
O162 C159 1.252 . S
O163 In156 2.326 . S
O163 C159 1.260 . S
O164 In156 2.266 . S
O164 C161 1.252 . S
O165 In156 2.326 . S
O165 C161 1.260 . S
C166 O157 1.240 . S
C166 O158 1.252 . S
O167 In156 2.294 . S
O167 C160 1.240 . S
O168 In156 2.326 . S
O168 C160 1.252 . S
In169 O170 2.294 . S
In169 O171 2.326 . S
In169 O175 2.266 . S
In169 O176 2.326 . S
In169 O177 2.266 . S
In169 O178 2.326 . S
In169 O180 2.294 . S
In169 O181 2.326 . S
O170 In169 2.294 . S
O170 C179 1.240 . S
O171 In169 2.326 . S
O171 C179 1.252 . S
C172 O175 1.252 . S
C172 O176 1.260 . S
C173 O180 1.240 . S
C173 O181 1.252 . S
C174 O177 1.252 . S
C174 O178 1.260 . S
O175 In169 2.266 . S
O175 C172 1.252 . S
O176 In169 2.326 . S
O176 C172 1.260 . S
O177 In169 2.266 . S
O177 C174 1.252 . S
O178 In169 2.326 . S
O178 C174 1.260 . S
C179 O170 1.240 . S
C179 O171 1.252 . S
O180 In169 2.294 . S
O180 C173 1.240 . S
O181 In169 2.326 . S
O181 C173 1.252 . S
In182 O183 2.294 . S
In182 O184 2.326 . S
In182 O188 2.266 . S
In182 O189 2.326 . S
In182 O190 2.266 . S
In182 O191 2.326 . S
In182 O193 2.294 . S
In182 O194 2.326 . S
O183 In182 2.294 . S
O183 C192 1.240 . S
O184 In182 2.326 . S
O184 C192 1.252 . S
C185 O188 1.252 . S
C185 O189 1.260 . S
C186 O193 1.240 . S
C186 O194 1.252 . S
C187 O190 1.252 . S
C187 O191 1.260 . S
O188 In182 2.266 . S
O188 C185 1.252 . S
O189 In182 2.326 . S
O189 C185 1.260 . S
O190 In182 2.266 . S
O190 C187 1.252 . S
O191 In182 2.326 . S
O191 C187 1.260 . S
C192 O183 1.240 . S
C192 O184 1.252 . S
O193 In182 2.294 . S
O193 C186 1.240 . S
O194 In182 2.326 . S
O194 C186 1.252 . S
In195 O196 2.294 . S
In195 O197 2.326 . S
In195 O201 2.266 . S
In195 O202 2.326 . S
In195 O203 2.266 . S
In195 O204 2.326 . S
In195 O206 2.294 . S
In195 O207 2.326 . S
O196 In195 2.294 . S
O196 C205 1.240 . S
O197 In195 2.326 . S
O197 C205 1.252 . S
C198 O201 1.252 . S
C198 O202 1.260 . S
C199 O206 1.240 . S
C199 O207 1.252 . S
C200 O203 1.252 . S
C200 O204 1.260 . S
O201 In195 2.266 . S
O201 C198 1.252 . S
O202 In195 2.326 . S
O202 C198 1.260 . S
O203 In195 2.266 . S
O203 C200 1.252 . S
O204 In195 2.326 . S
O204 C200 1.260 . S
C205 O196 1.240 . S
C205 O197 1.252 . S
O206 In195 2.294 . S
O206 C199 1.240 . S
O207 In195 2.326 . S
O207 C199 1.252 . S
H208 C216 0.929 . S
H209 C218 0.930 . S
H210 C220 0.930 . S
H211 C223 0.929 . S
H212 C226 0.930 . S
H213 C228 0.960 . S
H214 C228 0.960 . S
H215 C228 0.960 . S
C216 H208 0.929 . S
C216 C217 1.377 . S
C216 C218 1.384 . S
C217 C216 1.377 . S
C217 C223 1.390 . S
C218 H209 0.930 . S
C218 C216 1.384 . S
C218 C219 1.372 . S
C219 C218 1.372 . S
C219 C220 1.400 . S
C219 C224 1.490 . S
C220 H210 0.930 . S
C220 C219 1.400 . S
C220 C223 1.386 . S
H221 C237 0.930 . S
H222 C238 0.931 . S
C223 H211 0.929 . S
C223 C217 1.390 . S
C223 C220 1.386 . S
C224 C219 1.490 . S
C224 C226 1.395 . S
C224 C227 1.403 . S
H225 C231 0.930 1_545 S
C226 H212 0.930 . S
C226 C224 1.395 . S
C226 C229 1.403 1_565 S
C227 C224 1.403 . S
C227 C228 1.524 . S
C227 C231 1.400 . S
C228 H213 0.960 . S
C228 H214 0.960 . S
C228 H215 0.960 . S
C228 C227 1.524 . S
C229 C226 1.403 1_545 S
C229 C230 1.392 . S
C229 C233 1.495 . S
C230 C229 1.392 . S
C230 C231 1.385 1_545 S
C230 C232 1.478 . S
C231 H225 0.930 1_565 S
C231 C227 1.400 . S
C231 C230 1.385 1_565 S
C232 C230 1.478 . S
C232 C234 1.381 . S
C232 C238 1.383 . S
C233 C229 1.495 . S
C233 H239 0.959 . S
C233 H240 0.961 . S
C233 H241 0.960 . S
C234 C232 1.381 . S
C234 C235 1.394 . S
C234 H242 0.930 . S
C235 C234 1.394 . S
C235 C236 1.383 . S
C235 H243 0.929 . S
C236 C235 1.383 . S
C236 C237 1.377 . S
C237 H221 0.930 . S
C237 C236 1.377 . S
C237 C238 1.379 . S
C238 H222 0.931 . S
C238 C232 1.383 . S
C238 C237 1.379 . S
H239 C233 0.959 . S
H240 C233 0.961 . S
H241 C233 0.960 . S
H242 C234 0.930 . S
H243 C235 0.929 . S
H244 C252 0.929 . S
H245 C254 0.930 . S
H246 C256 0.930 . S
H247 C259 0.929 . S
H248 C262 0.930 1_455 S
H249 C264 0.960 . S
H250 C264 0.960 . S
H251 C264 0.960 . S
C252 H244 0.929 . S
C252 C253 1.377 . S
C252 C254 1.384 . S
C253 C252 1.377 . S
C253 C259 1.390 . S
C254 H245 0.930 . S
C254 C252 1.384 . S
C254 C255 1.372 . S
C255 C254 1.372 . S
C255 C256 1.400 . S
C255 C260 1.490 . S
C256 H246 0.930 . S
C256 C255 1.400 . S
C256 C259 1.386 . S
H257 C273 0.930 . S
H258 C274 0.931 . S
C259 H247 0.929 . S
C259 C253 1.390 . S
C259 C256 1.386 . S
C260 C255 1.490 . S
C260 C262 1.395 1_455 S
C260 C263 1.403 . S
H261 C267 0.930 . S
C262 H248 0.930 1_655 S
C262 C260 1.395 1_655 S
C262 C265 1.403 . S
C263 C260 1.403 . S
C263 C264 1.524 . S
C263 C267 1.400 1_455 S
C264 H249 0.960 . S
C264 H250 0.960 . S
C264 H251 0.960 . S
C264 C263 1.524 . S
C265 C262 1.403 . S
C265 C266 1.392 . S
C265 C269 1.495 . S
C266 C265 1.392 . S
C266 C267 1.385 . S
C266 C268 1.478 . S
C267 H261 0.930 . S
C267 C263 1.400 1_655 S
C267 C266 1.385 . S
C268 C266 1.478 . S
C268 C270 1.381 . S
C268 C274 1.383 . S
C269 C265 1.495 . S
C269 H275 0.959 . S
C269 H276 0.961 . S
C269 H277 0.960 . S
C270 C268 1.381 . S
C270 C271 1.394 . S
C270 H278 0.930 . S
C271 C270 1.394 . S
C271 C272 1.383 . S
C271 H279 0.929 . S
C272 C271 1.383 . S
C272 C273 1.377 . S
C273 H257 0.930 . S
C273 C272 1.377 . S
C273 C274 1.379 . S
C274 H258 0.931 . S
C274 C268 1.383 . S
C274 C273 1.379 . S
H275 C269 0.959 . S
H276 C269 0.961 . S
H277 C269 0.960 . S
H278 C270 0.930 . S
H279 C271 0.929 . S
H280 C288 0.929 . S
H281 C290 0.930 . S
H282 C292 0.930 . S
H283 C295 0.929 . S
H284 C298 0.930 1_565 S
H285 C300 0.960 . S
H286 C300 0.960 . S
H287 C300 0.960 . S
C288 H280 0.929 . S
C288 C289 1.377 . S
C288 C290 1.384 . S
C289 C288 1.377 . S
C289 C295 1.390 . S
C290 H281 0.930 . S
C290 C288 1.384 . S
C290 C291 1.372 . S
C291 C290 1.372 . S
C291 C292 1.400 . S
C291 C296 1.490 . S
C292 H282 0.930 . S
C292 C291 1.400 . S
C292 C295 1.386 . S
H293 C309 0.930 . S
H294 C310 0.931 . S
C295 H283 0.929 . S
C295 C289 1.390 . S
C295 C292 1.386 . S
C296 C291 1.490 . S
C296 C298 1.395 1_565 S
C296 C299 1.403 . S
H297 C303 0.930 . S
C298 H284 0.930 1_545 S
C298 C296 1.395 1_545 S
C298 C301 1.403 . S
C299 C296 1.403 . S
C299 C300 1.524 . S
C299 C303 1.400 1_565 S
C300 H285 0.960 . S
C300 H286 0.960 . S
C300 H287 0.960 . S
C300 C299 1.524 . S
C301 C298 1.403 . S
C301 C302 1.392 . S
C301 C305 1.495 . S
C302 C301 1.392 . S
C302 C303 1.385 . S
C302 C304 1.478 . S
C303 H297 0.930 . S
C303 C299 1.400 1_545 S
C303 C302 1.385 . S
C304 C302 1.478 . S
C304 C306 1.381 . S
C304 C310 1.383 . S
C305 C301 1.495 . S
C305 H311 0.959 . S
C305 H312 0.961 . S
C305 H313 0.960 . S
C306 C304 1.381 . S
C306 C307 1.394 . S
C306 H314 0.930 . S
C307 C306 1.394 . S
C307 C308 1.383 . S
C307 H315 0.929 . S
C308 C307 1.383 . S
C308 C309 1.377 . S
C309 H293 0.930 . S
C309 C308 1.377 . S
C309 C310 1.379 . S
C310 H294 0.931 . S
C310 C304 1.383 . S
C310 C309 1.379 . S
H311 C305 0.959 . S
H312 C305 0.961 . S
H313 C305 0.960 . S
H314 C306 0.930 . S
H315 C307 0.929 . S
H316 C324 0.929 . S
H317 C326 0.930 . S
H318 C328 0.930 . S
H319 C331 0.929 . S
H320 C334 0.930 . S
H321 C336 0.960 . S
H322 C336 0.960 . S
H323 C336 0.960 . S
C324 H316 0.929 . S
C324 C325 1.377 . S
C324 C326 1.384 . S
C325 C324 1.377 . S
C325 C331 1.390 . S
C326 H317 0.930 . S
C326 C324 1.384 . S
C326 C327 1.372 . S
C327 C326 1.372 . S
C327 C328 1.400 . S
C327 C332 1.490 . S
C328 H318 0.930 . S
C328 C327 1.400 . S
C328 C331 1.386 . S
H329 C345 0.930 . S
H330 C346 0.931 . S
C331 H319 0.929 . S
C331 C325 1.390 . S
C331 C328 1.386 . S
C332 C327 1.490 . S
C332 C334 1.395 . S
C332 C335 1.403 . S
H333 C339 0.930 1_655 S
C334 H320 0.930 . S
C334 C332 1.395 . S
C334 C337 1.403 1_455 S
C335 C332 1.403 . S
C335 C336 1.524 . S
C335 C339 1.400 . S
C336 H321 0.960 . S
C336 H322 0.960 . S
C336 H323 0.960 . S
C336 C335 1.524 . S
C337 C334 1.403 1_655 S
C337 C338 1.392 . S
C337 C341 1.495 . S
C338 C337 1.392 . S
C338 C339 1.385 1_655 S
C338 C340 1.478 . S
C339 H333 0.930 1_455 S
C339 C335 1.400 . S
C339 C338 1.385 1_455 S
C340 C338 1.478 . S
C340 C342 1.381 . S
C340 C346 1.383 . S
C341 C337 1.495 . S
C341 H347 0.959 . S
C341 H348 0.961 . S
C341 H349 0.960 . S
C342 C340 1.381 . S
C342 C343 1.394 . S
C342 H350 0.930 . S
C343 C342 1.394 . S
C343 C344 1.383 . S
C343 H351 0.929 . S
C344 C343 1.383 . S
C344 C345 1.377 . S
C345 H329 0.930 . S
C345 C344 1.377 . S
C345 C346 1.379 . S
C346 H330 0.931 . S
C346 C340 1.383 . S
C346 C345 1.379 . S
H347 C341 0.959 . S
H348 C341 0.961 . S
H349 C341 0.960 . S
H350 C342 0.930 . S
H351 C343 0.929 . S
H352 C360 0.929 . S
H353 C362 0.930 . S
H354 C364 0.930 . S
H355 C367 0.929 . S
H356 C370 0.930 . S
H357 C372 0.960 . S
H358 C372 0.960 . S
H359 C372 0.960 . S
C360 H352 0.929 . S
C360 C361 1.377 1_556 S
C360 C362 1.384 . S
C361 C360 1.377 1_554 S
C361 C367 1.390 . S
C362 H353 0.930 . S
C362 C360 1.384 . S
C362 C363 1.372 . S
C363 C362 1.372 . S
C363 C364 1.400 1_556 S
C363 C368 1.490 . S
C364 H354 0.930 . S
C364 C363 1.400 1_554 S
C364 C367 1.386 . S
H365 C381 0.930 . S
H366 C382 0.931 1_554 S
C367 H355 0.929 . S
C367 C361 1.390 . S
C367 C364 1.386 . S
C368 C363 1.490 . S
C368 C370 1.395 1_556 S
C368 C371 1.403 . S
H369 C375 0.930 . S
C370 H356 0.930 . S
C370 C368 1.395 1_554 S
C370 C373 1.403 1_554 S
C371 C368 1.403 . S
C371 C372 1.524 . S
C371 C375 1.400 . S
C372 H357 0.960 . S
C372 H358 0.960 . S
C372 H359 0.960 . S
C372 C371 1.524 . S
C373 C370 1.403 1_556 S
C373 C374 1.392 . S
C373 C377 1.495 1_556 S
C374 C373 1.392 . S
C374 C375 1.385 . S
C374 C376 1.478 . S
C375 H369 0.930 . S
C375 C371 1.400 . S
C375 C374 1.385 . S
C376 C374 1.478 . S
C376 C378 1.381 . S
C376 C382 1.383 . S
C377 C373 1.495 1_554 S
C377 H383 0.959 . S
C377 H384 0.961 . S
C377 H385 0.960 1_554 S
C378 C376 1.381 . S
C378 C379 1.394 . S
C378 H386 0.930 . S
C379 C378 1.394 . S
C379 C380 1.383 . S
C379 H387 0.929 . S
C380 C379 1.383 . S
C380 C381 1.377 . S
C381 H365 0.930 . S
C381 C380 1.377 . S
C381 C382 1.379 . S
C382 H366 0.931 1_556 S
C382 C376 1.383 . S
C382 C381 1.379 . S
H383 C377 0.959 . S
H384 C377 0.961 . S
H385 C377 0.960 1_556 S
H386 C378 0.930 . S
H387 C379 0.929 . S
H388 C396 0.929 . S
H389 C398 0.930 . S
H390 C400 0.930 . S
H391 C403 0.929 . S
H392 C406 0.930 . S
H393 C408 0.960 . S
H394 C408 0.960 1_554 S
H395 C408 0.960 . S
C396 H388 0.929 . S
C396 C397 1.377 1_554 S
C396 C398 1.384 . S
C397 C396 1.377 1_556 S
C397 C403 1.390 . S
C398 H389 0.930 . S
C398 C396 1.384 . S
C398 C399 1.372 . S
C399 C398 1.372 . S
C399 C400 1.400 1_554 S
C399 C404 1.490 . S
C400 H390 0.930 . S
C400 C399 1.400 1_556 S
C400 C403 1.386 . S
H401 C417 0.930 1_556 S
H402 C418 0.931 1_556 S
C403 H391 0.929 . S
C403 C397 1.390 . S
C403 C400 1.386 . S
C404 C399 1.490 . S
C404 C406 1.395 . S
C404 C407 1.403 . S
H405 C411 0.930 . S
C406 H392 0.930 . S
C406 C404 1.395 . S
C406 C409 1.403 . S
C407 C404 1.403 . S
C407 C408 1.524 1_554 S
C407 C411 1.400 . S
C408 H393 0.960 . S
C408 H394 0.960 1_556 S
C408 H395 0.960 . S
C408 C407 1.524 1_556 S
C409 C406 1.403 . S
C409 C410 1.392 . S
C409 C413 1.495 . S
C410 C409 1.392 . S
C410 C411 1.385 . S
C410 C412 1.478 . S
C411 H405 0.930 . S
C411 C407 1.400 . S
C411 C410 1.385 . S
C412 C410 1.478 . S
C412 C414 1.381 . S
C412 C418 1.383 . S
C413 C409 1.495 . S
C413 H419 0.959 . S
C413 H420 0.961 . S
C413 H421 0.960 . S
C414 C412 1.381 . S
C414 C415 1.394 . S
C414 H422 0.930 . S
C415 C414 1.394 . S
C415 C416 1.383 . S
C415 H423 0.929 . S
C416 C415 1.383 . S
C416 C417 1.377 . S
C417 H401 0.930 1_554 S
C417 C416 1.377 . S
C417 C418 1.379 . S
C418 H402 0.931 1_554 S
C418 C412 1.383 . S
C418 C417 1.379 . S
H419 C413 0.959 . S
H420 C413 0.961 . S
H421 C413 0.960 . S
H422 C414 0.930 . S
H423 C415 0.929 . S
H424 C432 0.929 . S
H425 C434 0.930 . S
H426 C436 0.930 . S
H427 C439 0.929 . S
H428 C442 0.930 . S
H429 C444 0.960 . S
H430 C444 0.960 . S
H431 C444 0.960 . S
C432 H424 0.929 . S
C432 C433 1.377 . S
C432 C434 1.384 . S
C433 C432 1.377 . S
C433 C439 1.390 . S
C434 H425 0.930 . S
C434 C432 1.384 . S
C434 C435 1.372 . S
C435 C434 1.372 . S
C435 C436 1.400 . S
C435 C440 1.490 . S
C436 H426 0.930 . S
C436 C435 1.400 . S
C436 C439 1.386 . S
H437 C453 0.930 . S
H438 C454 0.931 . S
C439 H427 0.929 . S
C439 C433 1.390 . S
C439 C436 1.386 . S
C440 C435 1.490 . S
C440 C442 1.395 . S
C440 C443 1.403 . S
H441 C447 0.930 . S
C442 H428 0.930 . S
C442 C440 1.395 . S
C442 C445 1.407 . S
C443 C440 1.403 . S
C443 C444 1.524 . S
C443 C447 1.400 . S
C444 H429 0.960 . S
C444 H430 0.960 . S
C444 H431 0.960 . S
C444 C443 1.524 . S
C445 C442 1.407 . S
C445 C446 1.395 . S
C445 C449 1.490 1_556 S
C446 C445 1.395 . S
C446 C447 1.385 . S
C446 C448 1.478 1_556 S
C447 H441 0.930 . S
C447 C443 1.400 . S
C447 C446 1.385 . S
C448 C446 1.478 1_554 S
C448 C450 1.381 1_554 S
C448 C454 1.383 . S
C449 C445 1.490 1_554 S
C449 H455 0.959 . S
C449 H456 0.961 . S
C449 H457 0.960 . S
C450 C448 1.381 1_556 S
C450 C451 1.394 . S
C450 H458 0.930 . S
C451 C450 1.394 . S
C451 C452 1.383 1_556 S
C451 H459 0.929 . S
C452 C451 1.383 1_554 S
C452 C453 1.377 . S
C453 H437 0.930 . S
C453 C452 1.377 . S
C453 C454 1.379 . S
C454 H438 0.931 . S
C454 C448 1.383 . S
C454 C453 1.379 . S
H455 C449 0.959 . S
H456 C449 0.961 . S
H457 C449 0.960 . S
H458 C450 0.930 . S
H459 C451 0.929 . S
H460 C468 0.929 . S
H461 C470 0.930 . S
H462 C472 0.930 . S
H463 C475 0.929 . S
H464 C478 0.930 . S
H465 C480 0.960 . S
H466 C480 0.960 . S
H467 C480 0.960 . S
C468 H460 0.929 . S
C468 C469 1.377 . S
C468 C470 1.384 . S
C469 C468 1.377 . S
C469 C475 1.390 . S
C470 H461 0.930 . S
C470 C468 1.384 . S
C470 C471 1.372 . S
C471 C470 1.372 . S
C471 C472 1.400 . S
C471 C476 1.490 . S
C472 H462 0.930 . S
C472 C471 1.400 . S
C472 C475 1.386 . S
H473 C489 0.930 . S
H474 C490 0.931 . S
C475 H463 0.929 . S
C475 C469 1.390 . S
C475 C472 1.386 . S
C476 C471 1.490 . S
C476 C478 1.395 . S
C476 C479 1.405 . S
H477 C483 0.930 . S
C478 H464 0.930 . S
C478 C476 1.395 . S
C478 C481 1.403 . S
C479 C476 1.405 . S
C479 C480 1.522 1_554 S
C479 C483 1.399 1_554 S
C480 H465 0.960 . S
C480 H466 0.960 . S
C480 H467 0.960 . S
C480 C479 1.522 1_556 S
C481 C478 1.403 . S
C481 C482 1.392 . S
C481 C485 1.495 . S
C482 C481 1.392 . S
C482 C483 1.385 1_554 S
C482 C484 1.478 . S
C483 H477 0.930 . S
C483 C479 1.399 1_556 S
C483 C482 1.385 1_556 S
C484 C482 1.478 . S
C484 C486 1.381 1_554 S
C484 C490 1.383 . S
C485 C481 1.495 . S
C485 H491 0.959 . S
C485 H492 0.961 . S
C485 H493 0.960 . S
C486 C484 1.381 1_556 S
C486 C487 1.394 . S
C486 H494 0.930 . S
C487 C486 1.394 . S
C487 C488 1.383 . S
C487 H495 0.929 . S
C488 C487 1.383 . S
C488 C489 1.377 1_556 S
C489 H473 0.930 . S
C489 C488 1.377 1_554 S
C489 C490 1.379 . S
C490 H474 0.931 . S
C490 C484 1.383 . S
C490 C489 1.379 . S
H491 C485 0.959 . S
H492 C485 0.961 . S
H493 C485 0.960 . S
H494 C486 0.930 . S
H495 C487 0.929 . S
H496 C504 0.929 . S
H497 C506 0.930 . S
H498 C508 0.930 . S
H499 C511 0.929 . S
H500 C514 0.930 . S
H501 C516 0.960 . S
H502 C516 0.960 . S
H503 C516 0.960 . S
C504 H496 0.929 . S
C504 C505 1.377 . S
C504 C506 1.384 . S
C505 C504 1.377 . S
C505 C511 1.390 . S
C506 H497 0.930 . S
C506 C504 1.384 . S
C506 C507 1.372 . S
C507 C506 1.372 . S
C507 C508 1.400 . S
C507 C512 1.490 . S
C508 H498 0.930 . S
C508 C507 1.400 . S
C508 C511 1.386 . S
H509 C525 0.930 . S
H510 C526 0.931 . S
C511 H499 0.929 . S
C511 C505 1.390 . S
C511 C508 1.386 . S
C512 C507 1.490 . S
C512 C514 1.395 . S
C512 C515 1.403 . S
H513 C519 0.930 . S
C514 H500 0.930 . S
C514 C512 1.395 . S
C514 C517 1.403 . S
C515 C512 1.403 . S
C515 C516 1.524 . S
C515 C519 1.400 . S
C516 H501 0.960 . S
C516 H502 0.960 . S
C516 H503 0.960 . S
C516 C515 1.524 . S
C517 C514 1.403 . S
C517 C518 1.392 . S
C517 C521 1.495 . S
C518 C517 1.392 . S
C518 C519 1.385 . S
C518 C520 1.478 . S
C519 H513 0.930 . S
C519 C515 1.400 . S
C519 C518 1.385 . S
C520 C518 1.478 . S
C520 C522 1.381 . S
C520 C526 1.383 . S
C521 C517 1.495 . S
C521 H527 0.959 . S
C521 H528 0.961 . S
C521 H529 0.960 . S
C522 C520 1.381 . S
C522 C523 1.394 . S
C522 H530 0.930 . S
C523 C522 1.394 . S
C523 C524 1.383 . S
C523 H531 0.929 . S
C524 C523 1.383 . S
C524 C525 1.377 . S
C525 H509 0.930 . S
C525 C524 1.377 . S
C525 C526 1.379 . S
C526 H510 0.931 . S
C526 C520 1.383 . S
C526 C525 1.379 . S
H527 C521 0.959 . S
H528 C521 0.961 . S
H529 C521 0.960 . S
H530 C522 0.930 . S
H531 C523 0.929 . S
H532 C540 0.929 . S
H533 C542 0.930 . S
H534 C544 0.930 . S
H535 C547 0.929 . S
H536 C550 0.930 . S
H537 C552 0.960 . S
H538 C552 0.960 . S
H539 C552 0.960 . S
C540 H532 0.929 . S
C540 C541 1.377 . S
C540 C542 1.384 . S
C541 C540 1.377 . S
C541 C547 1.390 . S
C542 H533 0.930 . S
C542 C540 1.384 . S
C542 C543 1.372 . S
C543 C542 1.372 . S
C543 C544 1.400 . S
C543 C548 1.490 . S
C544 H534 0.930 . S
C544 C543 1.400 . S
C544 C547 1.386 . S
H545 C561 0.930 . S
H546 C562 0.931 . S
C547 H535 0.929 . S
C547 C541 1.390 . S
C547 C544 1.386 . S
C548 C543 1.490 . S
C548 C550 1.395 . S
C548 C551 1.403 . S
H549 C555 0.930 . S
C550 H536 0.930 . S
C550 C548 1.395 . S
C550 C553 1.403 . S
C551 C548 1.403 . S
C551 C552 1.524 . S
C551 C555 1.400 . S
C552 H537 0.960 . S
C552 H538 0.960 . S
C552 H539 0.960 . S
C552 C551 1.524 . S
C553 C550 1.403 . S
C553 C554 1.392 . S
C553 C557 1.495 . S
C554 C553 1.392 . S
C554 C555 1.385 . S
C554 C556 1.478 . S
C555 H549 0.930 . S
C555 C551 1.400 . S
C555 C554 1.385 . S
C556 C554 1.478 . S
C556 C558 1.381 . S
C556 C562 1.383 . S
C557 C553 1.495 . S
C557 H563 0.959 . S
C557 H564 0.961 . S
C557 H565 0.960 . S
C558 C556 1.381 . S
C558 C559 1.394 . S
C558 H566 0.930 . S
C559 C558 1.394 . S
C559 C560 1.383 . S
C559 H567 0.929 . S
C560 C559 1.383 . S
C560 C561 1.377 . S
C561 H545 0.930 . S
C561 C560 1.377 . S
C561 C562 1.379 . S
C562 H546 0.931 . S
C562 C556 1.383 . S
C562 C561 1.379 . S
H563 C557 0.959 . S
H564 C557 0.961 . S
H565 C557 0.960 . S
H566 C558 0.930 . S
H567 C559 0.929 . S
H568 C576 0.929 . S
H569 C578 0.930 . S
H570 C580 0.930 . S
H571 C583 0.929 . S
H572 C586 0.930 . S
H573 C588 0.960 . S
H574 C588 0.960 . S
H575 C588 0.960 . S
C576 H568 0.929 . S
C576 C577 1.377 . S
C576 C578 1.384 . S
C577 C576 1.377 . S
C577 C583 1.390 . S
C578 H569 0.930 . S
C578 C576 1.384 . S
C578 C579 1.372 . S
C579 C578 1.372 . S
C579 C580 1.400 . S
C579 C584 1.490 . S
C580 H570 0.930 . S
C580 C579 1.400 . S
C580 C583 1.386 . S
H581 C597 0.930 . S
H582 C598 0.931 . S
C583 H571 0.929 . S
C583 C577 1.390 . S
C583 C580 1.386 . S
C584 C579 1.490 . S
C584 C586 1.395 . S
C584 C587 1.403 . S
H585 C591 0.930 . S
C586 H572 0.930 . S
C586 C584 1.395 . S
C586 C589 1.403 . S
C587 C584 1.403 . S
C587 C588 1.524 . S
C587 C591 1.400 . S
C588 H573 0.960 . S
C588 H574 0.960 . S
C588 H575 0.960 . S
C588 C587 1.524 . S
C589 C586 1.403 . S
C589 C590 1.392 . S
C589 C593 1.495 . S
C590 C589 1.392 . S
C590 C591 1.385 . S
C590 C592 1.478 . S
C591 H585 0.930 . S
C591 C587 1.400 . S
C591 C590 1.385 . S
C592 C590 1.478 . S
C592 C594 1.381 . S
C592 C598 1.383 . S
C593 C589 1.495 . S
C593 H599 0.959 . S
C593 H600 0.961 . S
C593 H601 0.960 . S
C594 C592 1.381 . S
C594 C595 1.394 . S
C594 H602 0.930 . S
C595 C594 1.394 . S
C595 C596 1.383 . S
C595 H603 0.929 . S
C596 C595 1.383 . S
C596 C597 1.377 . S
C597 H581 0.930 . S
C597 C596 1.377 . S
C597 C598 1.379 . S
C598 H582 0.931 . S
C598 C592 1.383 . S
C598 C597 1.379 . S
H599 C593 0.959 . S
H600 C593 0.961 . S
H601 C593 0.960 . S
H602 C594 0.930 . S
H603 C595 0.929 . S
H604 C612 0.929 . S
H605 C614 0.930 . S
H606 C616 0.930 . S
H607 C619 0.929 . S
H608 C622 0.930 . S
H609 C624 0.960 . S
H610 C624 0.960 . S
H611 C624 0.960 . S
C612 H604 0.929 . S
C612 C613 1.377 . S
C612 C614 1.384 . S
C613 C612 1.377 . S
C613 C619 1.390 . S
C614 H605 0.930 . S
C614 C612 1.384 . S
C614 C615 1.372 . S
C615 C614 1.372 . S
C615 C616 1.400 . S
C615 C620 1.490 . S
C616 H606 0.930 . S
C616 C615 1.400 . S
C616 C619 1.386 . S
H617 C633 0.930 . S
H618 C634 0.931 . S
C619 H607 0.929 . S
C619 C613 1.390 . S
C619 C616 1.386 . S
C620 C615 1.490 . S
C620 C622 1.395 . S
C620 C623 1.403 . S
H621 C627 0.930 . S
C622 H608 0.930 . S
C622 C620 1.395 . S
C622 C625 1.403 . S
C623 C620 1.403 . S
C623 C624 1.524 . S
C623 C627 1.400 . S
C624 H609 0.960 . S
C624 H610 0.960 . S
C624 H611 0.960 . S
C624 C623 1.524 . S
C625 C622 1.403 . S
C625 C626 1.392 . S
C625 C629 1.495 . S
C626 C625 1.392 . S
C626 C627 1.385 . S
C626 C628 1.478 . S
C627 H621 0.930 . S
C627 C623 1.400 . S
C627 C626 1.385 . S
C628 C626 1.478 . S
C628 C630 1.381 . S
C628 C634 1.383 . S
C629 C625 1.495 . S
C629 H635 0.959 . S
C629 H636 0.961 . S
C629 H637 0.960 . S
C630 C628 1.381 . S
C630 C631 1.394 . S
C630 H638 0.930 . S
C631 C630 1.394 . S
C631 C632 1.383 . S
C631 H639 0.929 . S
C632 C631 1.383 . S
C632 C633 1.377 . S
C633 H617 0.930 . S
C633 C632 1.377 . S
C633 C634 1.379 . S
C634 H618 0.931 . S
C634 C628 1.383 . S
C634 C633 1.379 . S
H635 C629 0.959 . S
H636 C629 0.961 . S
H637 C629 0.960 . S
H638 C630 0.930 . S
H639 C631 0.929 . S
H640 C648 0.929 . S
H641 C650 0.930 . S
H642 C652 0.930 . S
H643 C655 0.929 . S
H644 C658 0.930 1_565 S
H645 C660 0.960 . S
H646 C660 0.960 . S
H647 C660 0.960 . S
C648 H640 0.929 . S
C648 C649 1.377 . S
C648 C650 1.384 . S
C649 C648 1.377 . S
C649 C655 1.390 . S
C650 H641 0.930 . S
C650 C648 1.384 . S
C650 C651 1.372 . S
C651 C650 1.372 . S
C651 C652 1.400 . S
C651 C656 1.490 . S
C652 H642 0.930 . S
C652 C651 1.400 . S
C652 C655 1.386 . S
H653 C669 0.930 . S
H654 C670 0.931 . S
C655 H643 0.929 . S
C655 C649 1.390 . S
C655 C652 1.386 . S
C656 C651 1.490 . S
C656 C658 1.395 1_565 S
C656 C659 1.403 . S
H657 C663 0.930 . S
C658 H644 0.930 1_545 S
C658 C656 1.395 1_545 S
C658 C661 1.403 . S
C659 C656 1.403 . S
C659 C660 1.524 . S
C659 C663 1.400 1_565 S
C660 H645 0.960 . S
C660 H646 0.960 . S
C660 H647 0.960 . S
C660 C659 1.524 . S
C661 C658 1.403 . S
C661 C662 1.392 . S
C661 C665 1.495 . S
C662 C661 1.392 . S
C662 C663 1.385 . S
C662 C664 1.478 . S
C663 H657 0.930 . S
C663 C659 1.400 1_545 S
C663 C662 1.385 . S
C664 C662 1.478 . S
C664 C666 1.381 . S
C664 C670 1.383 . S
C665 C661 1.495 . S
C665 H671 0.959 . S
C665 H672 0.961 . S
C665 H673 0.960 . S
C666 C664 1.381 . S
C666 C667 1.394 . S
C666 H674 0.930 . S
C667 C666 1.394 . S
C667 C668 1.383 . S
C667 H675 0.929 . S
C668 C667 1.383 . S
C668 C669 1.377 . S
C669 H653 0.930 . S
C669 C668 1.377 . S
C669 C670 1.379 . S
C670 H654 0.931 . S
C670 C664 1.383 . S
C670 C669 1.379 . S
H671 C665 0.959 . S
H672 C665 0.961 . S
H673 C665 0.960 . S
H674 C666 0.930 . S
H675 C667 0.929 . S
H676 C684 0.929 . S
H677 C686 0.930 . S
H678 C688 0.930 . S
H679 C691 0.929 . S
H680 C694 0.920 1_655 S
H681 C696 0.960 . S
H682 C696 0.960 . S
H683 C696 0.960 . S
C684 H676 0.929 . S
C684 C685 1.377 . S
C684 C686 1.384 . S
C685 C684 1.377 . S
C685 C691 1.390 . S
C686 H677 0.930 . S
C686 C684 1.384 . S
C686 C687 1.372 . S
C687 C686 1.372 . S
C687 C688 1.400 . S
C687 C692 1.490 . S
C688 H678 0.930 . S
C688 C687 1.400 . S
C688 C691 1.386 . S
H689 C705 0.930 . S
H690 C706 0.931 . S
C691 H679 0.929 . S
C691 C685 1.390 . S
C691 C688 1.386 . S
C692 C687 1.490 . S
C692 C694 1.395 1_655 S
C692 C695 1.403 . S
H693 C699 0.930 . S
C694 H680 0.920 1_455 S
C694 C692 1.395 1_455 S
C694 C697 1.403 . S
C695 C692 1.403 . S
C695 C696 1.524 . S
C695 C699 1.400 1_655 S
C696 H681 0.960 . S
C696 H682 0.960 . S
C696 H683 0.960 . S
C696 C695 1.524 . S
C697 C694 1.403 . S
C697 C698 1.392 . S
C697 C701 1.495 . S
C698 C697 1.392 . S
C698 C699 1.385 . S
C698 C700 1.478 . S
C699 H693 0.930 . S
C699 C695 1.400 1_455 S
C699 C698 1.385 . S
C700 C698 1.478 . S
C700 C702 1.381 . S
C700 C706 1.383 . S
C701 C697 1.495 . S
C701 H707 0.959 . S
C701 H708 0.961 . S
C701 H709 0.960 . S
C702 C700 1.381 . S
C702 C703 1.394 . S
C702 H710 0.930 . S
C703 C702 1.394 . S
C703 C704 1.383 . S
C703 H711 0.929 . S
C704 C703 1.383 . S
C704 C705 1.377 . S
C705 H689 0.930 . S
C705 C704 1.377 . S
C705 C706 1.379 . S
C706 H690 0.931 . S
C706 C700 1.383 . S
C706 C705 1.379 . S
H707 C701 0.959 . S
H708 C701 0.961 . S
H709 C701 0.960 . S
H710 C702 0.930 . S
H711 C703 0.929 . S
H712 C720 0.929 . S
H713 C722 0.930 . S
H714 C724 0.930 . S
H715 C727 0.929 . S
H716 C730 0.930 . S
H717 C732 0.960 . S
H718 C732 0.960 . S
H719 C732 0.960 . S
C720 H712 0.929 . S
C720 C721 1.377 . S
C720 C722 1.384 . S
C721 C720 1.377 . S
C721 C727 1.390 . S
C722 H713 0.930 . S
C722 C720 1.384 . S
C722 C723 1.372 . S
C723 C722 1.372 . S
C723 C724 1.400 . S
C723 C728 1.490 . S
C724 H714 0.930 . S
C724 C723 1.400 . S
C724 C727 1.386 . S
H725 C741 0.930 . S
H726 C742 0.931 . S
C727 H715 0.929 . S
C727 C721 1.390 . S
C727 C724 1.386 . S
C728 C723 1.490 . S
C728 C730 1.395 . S
C728 C731 1.403 . S
H729 C735 0.909 1_545 S
C730 H716 0.930 . S
C730 C728 1.395 . S
C730 C733 1.403 1_565 S
C731 C728 1.403 . S
C731 C732 1.524 . S
C731 C735 1.454 . S
C732 H717 0.960 . S
C732 H718 0.960 . S
C732 H719 0.960 . S
C732 C731 1.524 . S
C733 C730 1.403 1_545 S
C733 C734 1.392 . S
C733 C737 1.495 . S
C734 C733 1.392 . S
C734 C735 1.353 1_545 S
C734 C736 1.478 . S
C735 H729 0.909 1_565 S
C735 C731 1.454 . S
C735 C734 1.353 1_565 S
C736 C734 1.478 . S
C736 C738 1.381 . S
C736 C742 1.383 . S
C737 C733 1.495 . S
C737 H743 0.959 . S
C737 H744 0.961 . S
C737 H745 0.960 . S
C738 C736 1.381 . S
C738 C739 1.394 . S
C738 H746 0.930 . S
C739 C738 1.394 . S
C739 C740 1.383 . S
C739 H747 0.929 . S
C740 C739 1.383 . S
C740 C741 1.377 . S
C741 H725 0.930 . S
C741 C740 1.377 . S
C741 C742 1.379 . S
C742 H726 0.931 . S
C742 C736 1.383 . S
C742 C741 1.379 . S
H743 C737 0.959 . S
H744 C737 0.961 . S
H745 C737 0.960 . S
H746 C738 0.930 . S
H747 C739 0.929 . S
H748 C756 0.929 . S
H749 C758 0.930 . S
H750 C760 0.930 . S
H751 C763 0.929 . S
H752 C766 0.930 . S
H753 C768 0.960 . S
H754 C768 0.960 . S
H755 C768 0.960 . S
C756 H748 0.929 . S
C756 C757 1.377 . S
C756 C758 1.384 . S
C757 C756 1.377 . S
C757 C763 1.390 . S
C758 H749 0.930 . S
C758 C756 1.384 . S
C758 C759 1.372 . S
C759 C758 1.372 . S
C759 C760 1.400 . S
C759 C764 1.490 . S
C760 H750 0.930 . S
C760 C759 1.400 . S
C760 C763 1.386 . S
H761 C777 0.930 . S
H762 C778 0.931 . S
C763 H751 0.929 . S
C763 C757 1.390 . S
C763 C760 1.386 . S
C764 C759 1.490 . S
C764 C766 1.395 . S
C764 C767 1.403 . S
H765 C771 0.930 1_455 S
C766 H752 0.930 . S
C766 C764 1.395 . S
C766 C769 1.403 1_655 S
C767 C764 1.403 . S
C767 C768 1.524 . S
C767 C771 1.400 . S
C768 H753 0.960 . S
C768 H754 0.960 . S
C768 H755 0.960 . S
C768 C767 1.524 . S
C769 C766 1.403 1_455 S
C769 C770 1.392 . S
C769 C773 1.495 . S
C770 C769 1.392 . S
C770 C771 1.385 1_455 S
C770 C772 1.478 . S
C771 H765 0.930 1_655 S
C771 C767 1.400 . S
C771 C770 1.385 1_655 S
C772 C770 1.478 . S
C772 C774 1.381 . S
C772 C778 1.383 . S
C773 C769 1.495 . S
C773 H779 0.959 . S
C773 H780 0.961 . S
C773 H781 0.960 . S
C774 C772 1.381 . S
C774 C775 1.394 . S
C774 H782 0.930 . S
C775 C774 1.394 . S
C775 C776 1.383 . S
C775 H783 0.929 . S
C776 C775 1.383 . S
C776 C777 1.377 . S
C777 H761 0.930 . S
C777 C776 1.377 . S
C777 C778 1.379 . S
C778 H762 0.931 . S
C778 C772 1.383 . S
C778 C777 1.379 . S
H779 C773 0.959 . S
H780 C773 0.961 . S
H781 C773 0.960 . S
H782 C774 0.930 . S
H783 C775 0.929 . S
H784 C792 0.929 . S
H785 C794 0.930 . S
H786 C796 0.930 . S
H787 C799 0.929 . S
H788 C802 0.930 . S
H789 C804 0.960 1_556 S
H790 C804 0.960 . S
H791 C804 0.960 . S
C792 H784 0.929 . S
C792 C793 1.377 . S
C792 C794 1.384 . S
C793 C792 1.377 . S
C793 C799 1.390 . S
C794 H785 0.930 . S
C794 C792 1.384 . S
C794 C795 1.372 . S
C795 C794 1.372 . S
C795 C796 1.400 . S
C795 C800 1.490 . S
C796 H786 0.930 . S
C796 C795 1.400 . S
C796 C799 1.386 . S
H797 C813 0.930 . S
H798 C814 0.931 . S
C799 H787 0.929 . S
C799 C793 1.390 . S
C799 C796 1.386 . S
C800 C795 1.490 . S
C800 C802 1.395 . S
C800 C803 1.403 . S
H801 C807 0.930 . S
C802 H788 0.930 . S
C802 C800 1.395 . S
C802 C805 1.403 . S
C803 C800 1.403 . S
C803 C804 1.524 . S
C803 C807 1.400 . S
C804 H789 0.960 1_554 S
C804 H790 0.960 . S
C804 H791 0.960 . S
C804 C803 1.524 . S
C805 C802 1.403 . S
C805 C806 1.392 . S
C805 C809 1.495 . S
C806 C805 1.392 . S
C806 C807 1.385 . S
C806 C808 1.478 . S
C807 H801 0.930 . S
C807 C803 1.400 . S
C807 C806 1.385 . S
C808 C806 1.478 . S
C808 C810 1.381 . S
C808 C814 1.383 . S
C809 C805 1.495 . S
C809 H815 0.959 . S
C809 H816 0.961 . S
C809 H817 0.960 . S
C810 C808 1.381 . S
C810 C811 1.394 . S
C810 H818 0.930 . S
C811 C810 1.394 . S
C811 C812 1.383 . S
C811 H819 0.929 . S
C812 C811 1.383 . S
C812 C813 1.377 . S
C813 H797 0.930 . S
C813 C812 1.377 . S
C813 C814 1.379 . S
C814 H798 0.931 . S
C814 C808 1.383 . S
C814 C813 1.379 . S
H815 C809 0.959 . S
H816 C809 0.961 . S
H817 C809 0.960 . S
H818 C810 0.930 . S
H819 C811 0.929 . S
H820 C828 0.929 . S
H821 C830 0.930 . S
H822 C832 0.930 . S
H823 C835 0.929 . S
H824 C838 0.930 . S
H825 C840 0.960 . S
H826 C840 0.960 . S
H827 C840 0.960 . S
C828 H820 0.929 . S
C828 C829 1.377 . S
C828 C830 1.384 . S
C829 C828 1.377 . S
C829 C835 1.390 . S
C830 H821 0.930 . S
C830 C828 1.384 . S
C830 C831 1.372 . S
C831 C830 1.372 . S
C831 C832 1.400 . S
C831 C836 1.490 . S
C832 H822 0.930 . S
C832 C831 1.400 . S
C832 C835 1.386 . S
H833 C849 0.930 . S
H834 C850 0.931 . S
C835 H823 0.929 . S
C835 C829 1.390 . S
C835 C832 1.386 . S
C836 C831 1.490 . S
C836 C838 1.395 . S
C836 C839 1.403 . S
H837 C843 0.930 . S
C838 H824 0.930 . S
C838 C836 1.395 . S
C838 C841 1.403 . S
C839 C836 1.403 . S
C839 C840 1.524 . S
C839 C843 1.400 . S
C840 H825 0.960 . S
C840 H826 0.960 . S
C840 H827 0.960 . S
C840 C839 1.524 . S
C841 C838 1.403 . S
C841 C842 1.392 . S
C841 C845 1.495 . S
C842 C841 1.392 . S
C842 C843 1.385 . S
C842 C844 1.478 . S
C843 H837 0.930 . S
C843 C839 1.400 . S
C843 C842 1.385 . S
C844 C842 1.478 . S
C844 C846 1.381 . S
C844 C850 1.383 . S
C845 C841 1.495 . S
C845 H851 0.959 . S
C845 H852 0.961 . S
C845 H853 0.960 . S
C846 C844 1.381 . S
C846 C847 1.394 . S
C846 H854 0.930 . S
C847 C846 1.394 . S
C847 C848 1.383 . S
C847 H855 0.929 . S
C848 C847 1.383 . S
C848 C849 1.377 . S
C849 H833 0.930 . S
C849 C848 1.377 . S
C849 C850 1.379 . S
C850 H834 0.931 . S
C850 C844 1.383 . S
C850 C849 1.379 . S
H851 C845 0.959 . S
H852 C845 0.961 . S
H853 C845 0.960 . S
H854 C846 0.930 . S
H855 C847 0.929 . S
H856 C864 0.929 . S
H857 C866 0.930 . S
H858 C868 0.930 . S
H859 C871 0.929 . S
H860 C874 0.930 . S
H861 C876 0.960 . S
H862 C876 0.960 . S
H863 C876 0.960 . S
C864 H856 0.929 . S
C864 C865 1.377 . S
C864 C866 1.384 . S
C865 C864 1.377 . S
C865 C871 1.390 . S
C866 H857 0.930 . S
C866 C864 1.384 . S
C866 C867 1.372 . S
C867 C866 1.372 . S
C867 C868 1.400 . S
C867 C872 1.490 . S
C868 H858 0.930 . S
C868 C867 1.400 . S
C868 C871 1.386 . S
H869 C885 0.930 1_556 S
H870 C886 0.931 . S
C871 H859 0.929 . S
C871 C865 1.390 . S
C871 C868 1.386 . S
C872 C867 1.490 . S
C872 C874 1.395 . S
C872 C875 1.403 . S
H873 C879 0.930 . S
C874 H860 0.930 . S
C874 C872 1.395 . S
C874 C877 1.403 . S
C875 C872 1.403 . S
C875 C876 1.524 . S
C875 C879 1.400 . S
C876 H861 0.960 . S
C876 H862 0.960 . S
C876 H863 0.960 . S
C876 C875 1.524 . S
C877 C874 1.403 . S
C877 C878 1.392 . S
C877 C881 1.495 . S
C878 C877 1.392 . S
C878 C879 1.385 . S
C878 C880 1.478 . S
C879 H873 0.930 . S
C879 C875 1.400 . S
C879 C878 1.385 . S
C880 C878 1.478 . S
C880 C882 1.381 . S
C880 C886 1.383 . S
C881 C877 1.495 . S
C881 H887 0.959 . S
C881 H888 0.961 . S
C881 H889 0.960 . S
C882 C880 1.381 . S
C882 C883 1.394 . S
C882 H890 0.930 . S
C883 C882 1.394 . S
C883 C884 1.383 . S
C883 H891 0.929 . S
C884 C883 1.383 . S
C884 C885 1.377 . S
C885 H869 0.930 1_554 S
C885 C884 1.377 . S
C885 C886 1.379 . S
C886 H870 0.931 . S
C886 C880 1.383 . S
C886 C885 1.379 . S
H887 C881 0.959 . S
H888 C881 0.961 . S
H889 C881 0.960 . S
H890 C882 0.930 . S
H891 C883 0.929 . S
H892 C900 0.929 . S
H893 C902 0.930 . S
H894 C904 0.930 . S
H895 C907 0.929 . S
H896 C910 0.930 . S
H897 C912 0.960 1_554 S
H898 C912 0.960 . S
H899 C912 0.960 1_554 S
C900 H892 0.929 . S
C900 C901 1.377 . S
C900 C902 1.384 . S
C901 C900 1.377 . S
C901 C907 1.390 . S
C902 H893 0.930 . S
C902 C900 1.384 . S
C902 C903 1.372 . S
C903 C902 1.372 . S
C903 C904 1.400 . S
C903 C908 1.490 . S
C904 H894 0.930 . S
C904 C903 1.400 . S
C904 C907 1.386 . S
H905 C921 0.930 . S
H906 C922 0.931 . S
C907 H895 0.929 . S
C907 C901 1.390 . S
C907 C904 1.386 . S
C908 C903 1.490 . S
C908 C910 1.395 . S
C908 C911 1.403 . S
H909 C915 0.930 . S
C910 H896 0.930 . S
C910 C908 1.395 . S
C910 C913 1.403 . S
C911 C908 1.403 . S
C911 C912 1.524 . S
C911 C915 1.400 . S
C912 H897 0.960 1_556 S
C912 H898 0.960 . S
C912 H899 0.960 1_556 S
C912 C911 1.524 . S
C913 C910 1.403 . S
C913 C914 1.392 . S
C913 C917 1.495 . S
C914 C913 1.392 . S
C914 C915 1.385 . S
C914 C916 1.478 . S
C915 H909 0.930 . S
C915 C911 1.400 . S
C915 C914 1.385 . S
C916 C914 1.478 . S
C916 C918 1.381 . S
C916 C922 1.383 . S
C917 C913 1.495 . S
C917 H923 0.959 . S
C917 H924 0.961 . S
C917 H925 0.960 . S
C918 C916 1.381 . S
C918 C919 1.394 . S
C918 H926 0.930 . S
C919 C918 1.394 . S
C919 C920 1.383 . S
C919 H927 0.929 . S
C920 C919 1.383 . S
C920 C921 1.377 . S
C921 H905 0.930 . S
C921 C920 1.377 . S
C921 C922 1.379 . S
C922 H906 0.931 . S
C922 C916 1.383 . S
C922 C921 1.379 . S
H923 C917 0.959 . S
H924 C917 0.961 . S
H925 C917 0.960 . S
H926 C918 0.930 . S
H927 C919 0.929 . S
H928 C936 0.929 . S
H929 C938 0.930 . S
H930 C940 0.930 . S
H931 C943 0.929 . S
H932 C946 0.930 . S
H933 C948 0.960 . S
H934 C948 0.960 . S
H935 C948 0.960 . S
C936 H928 0.929 . S
C936 C937 1.377 . S
C936 C938 1.384 . S
C937 C936 1.377 . S
C937 C943 1.390 . S
C938 H929 0.930 . S
C938 C936 1.384 . S
C938 C939 1.372 . S
C939 C938 1.372 . S
C939 C940 1.400 . S
C939 C944 1.490 . S
C940 H930 0.930 . S
C940 C939 1.400 . S
C940 C943 1.386 . S
H941 C957 0.930 . S
H942 C958 0.931 . S
C943 H931 0.929 . S
C943 C937 1.390 . S
C943 C940 1.386 . S
C944 C939 1.490 . S
C944 C946 1.395 . S
C944 C947 1.403 . S
H945 C951 0.930 . S
C946 H932 0.930 . S
C946 C944 1.395 . S
C946 C949 1.403 . S
C947 C944 1.403 . S
C947 C948 1.524 . S
C947 C951 1.400 . S
C948 H933 0.960 . S
C948 H934 0.960 . S
C948 H935 0.960 . S
C948 C947 1.524 . S
C949 C946 1.403 . S
C949 C950 1.392 . S
C949 C953 1.495 . S
C950 C949 1.392 . S
C950 C951 1.385 . S
C950 C952 1.478 . S
C951 H945 0.930 . S
C951 C947 1.400 . S
C951 C950 1.385 . S
C952 C950 1.478 . S
C952 C954 1.381 . S
C952 C958 1.383 . S
C953 C949 1.495 . S
C953 H959 0.959 . S
C953 H960 0.961 . S
C953 H961 0.960 . S
C954 C952 1.381 . S
C954 C955 1.394 . S
C954 H962 0.930 . S
C955 C954 1.394 . S
C955 C956 1.383 . S
C955 H963 0.929 . S
C956 C955 1.383 . S
C956 C957 1.377 . S
C957 H941 0.930 . S
C957 C956 1.377 . S
C957 C958 1.379 . S
C958 H942 0.931 . S
C958 C952 1.383 . S
C958 C957 1.379 . S
H959 C953 0.959 . S
H960 C953 0.961 . S
H961 C953 0.960 . S
H962 C954 0.930 . S
H963 C955 0.929 . S
H964 C972 0.929 . S
H965 C974 0.930 . S
H966 C976 0.930 . S
H967 C979 0.929 . S
H968 C982 0.930 . S
H969 C984 0.960 . S
H970 C984 0.960 . S
H971 C984 0.960 . S
C972 H964 0.929 . S
C972 C973 1.377 . S
C972 C974 1.384 . S
C973 C972 1.377 . S
C973 C979 1.390 . S
C974 H965 0.930 . S
C974 C972 1.384 . S
C974 C975 1.372 . S
C975 C974 1.372 . S
C975 C976 1.400 . S
C975 C980 1.490 . S
C976 H966 0.930 . S
C976 C975 1.400 . S
C976 C979 1.386 . S
H977 C993 0.930 . S
H978 C994 0.931 . S
C979 H967 0.929 . S
C979 C973 1.390 . S
C979 C976 1.386 . S
C980 C975 1.490 . S
C980 C982 1.395 . S
C980 C983 1.403 . S
H981 C987 0.930 . S
C982 H968 0.930 . S
C982 C980 1.395 . S
C982 C985 1.403 . S
C983 C980 1.403 . S
C983 C984 1.524 . S
C983 C987 1.400 . S
C984 H969 0.960 . S
C984 H970 0.960 . S
C984 H971 0.960 . S
C984 C983 1.524 . S
C985 C982 1.403 . S
C985 C986 1.392 . S
C985 C989 1.495 . S
C986 C985 1.392 . S
C986 C987 1.385 . S
C986 C988 1.478 . S
C987 H981 0.930 . S
C987 C983 1.400 . S
C987 C986 1.385 . S
C988 C986 1.478 . S
C988 C990 1.381 . S
C988 C994 1.383 . S
C989 C985 1.495 . S
C989 H995 0.959 . S
C989 H996 0.961 . S
C989 H997 0.960 . S
C990 C988 1.381 . S
C990 C991 1.394 . S
C990 H998 0.930 . S
C991 C990 1.394 . S
C991 C992 1.383 . S
C991 H999 0.929 . S
C992 C991 1.383 . S
C992 C993 1.377 . S
C993 H977 0.930 . S
C993 C992 1.377 . S
C993 C994 1.379 . S
C994 H978 0.931 . S
C994 C988 1.383 . S
C994 C993 1.379 . S
H995 C989 0.959 . S
H996 C989 0.961 . S
H997 C989 0.960 . S
H998 C990 0.930 . S
H999 C991 0.929 . S
H1000 C1008 0.929 . S
H1001 C1010 0.930 . S
H1002 C1012 0.930 . S
H1003 C1015 0.929 . S
H1004 C1018 0.930 . S
H1005 C1020 0.960 . S
H1006 C1020 0.960 . S
H1007 C1020 0.960 . S
C1008 H1000 0.929 . S
C1008 C1009 1.377 . S
C1008 C1010 1.384 . S
C1009 C1008 1.377 . S
C1009 C1015 1.390 . S
C1010 H1001 0.930 . S
C1010 C1008 1.384 . S
C1010 C1011 1.372 . S
C1011 C1010 1.372 . S
C1011 C1012 1.400 . S
C1011 C1016 1.490 . S
C1012 H1002 0.930 . S
C1012 C1011 1.400 . S
C1012 C1015 1.386 . S
H1013 C1029 0.930 . S
H1014 C1030 0.931 . S
C1015 H1003 0.929 . S
C1015 C1009 1.390 . S
C1015 C1012 1.386 . S
C1016 C1011 1.490 . S
C1016 C1018 1.395 . S
C1016 C1019 1.403 . S
H1017 C1023 0.930 . S
C1018 H1004 0.930 . S
C1018 C1016 1.395 . S
C1018 C1021 1.403 . S
C1019 C1016 1.403 . S
C1019 C1020 1.524 . S
C1019 C1023 1.400 . S
C1020 H1005 0.960 . S
C1020 H1006 0.960 . S
C1020 H1007 0.960 . S
C1020 C1019 1.524 . S
C1021 C1018 1.403 . S
C1021 C1022 1.392 . S
C1021 C1025 1.495 . S
C1022 C1021 1.392 . S
C1022 C1023 1.385 . S
C1022 C1024 1.478 . S
C1023 H1017 0.930 . S
C1023 C1019 1.400 . S
C1023 C1022 1.385 . S
C1024 C1022 1.478 . S
C1024 C1026 1.381 . S
C1024 C1030 1.383 . S
C1025 C1021 1.495 . S
C1025 H1031 0.959 . S
C1025 H1032 0.961 . S
C1025 H1033 0.960 . S
C1026 C1024 1.381 . S
C1026 C1027 1.394 . S
C1026 H1034 0.930 . S
C1027 C1026 1.394 . S
C1027 C1028 1.383 . S
C1027 H1035 0.929 . S
C1028 C1027 1.383 . S
C1028 C1029 1.377 . S
C1029 H1013 0.930 . S
C1029 C1028 1.377 . S
C1029 C1030 1.379 . S
C1030 H1014 0.931 . S
C1030 C1024 1.383 . S
C1030 C1029 1.379 . S
H1031 C1025 0.959 . S
H1032 C1025 0.961 . S
H1033 C1025 0.960 . S
H1034 C1026 0.930 . S
H1035 C1027 0.929 . S
H1036 C1044 0.929 . S
H1037 C1046 0.930 . S
H1038 C1048 0.930 . S
H1039 C1051 0.929 . S
H1040 C1054 0.930 . S
H1041 C1056 0.960 . S
H1042 C1056 0.960 . S
H1043 C1056 0.960 . S
C1044 H1036 0.929 . S
C1044 C1045 1.377 . S
C1044 C1046 1.384 . S
C1045 C1044 1.377 . S
C1045 C1051 1.390 . S
C1046 H1037 0.930 . S
C1046 C1044 1.384 . S
C1046 C1047 1.372 . S
C1047 C1046 1.372 . S
C1047 C1048 1.400 . S
C1047 C1052 1.490 . S
C1048 H1038 0.930 . S
C1048 C1047 1.400 . S
C1048 C1051 1.386 . S
H1049 C1065 0.930 . S
H1050 C1066 0.931 . S
C1051 H1039 0.929 . S
C1051 C1045 1.390 . S
C1051 C1048 1.386 . S
C1052 C1047 1.490 . S
C1052 C1054 1.395 . S
C1052 C1055 1.403 . S
H1053 C1059 0.930 . S
C1054 H1040 0.930 . S
C1054 C1052 1.395 . S
C1054 C1057 1.403 . S
C1055 C1052 1.403 . S
C1055 C1056 1.524 . S
C1055 C1059 1.400 . S
C1056 H1041 0.960 . S
C1056 H1042 0.960 . S
C1056 H1043 0.960 . S
C1056 C1055 1.524 . S
C1057 C1054 1.403 . S
C1057 C1058 1.392 . S
C1057 C1061 1.495 . S
C1058 C1057 1.392 . S
C1058 C1059 1.385 . S
C1058 C1060 1.478 . S
C1059 H1053 0.930 . S
C1059 C1055 1.400 . S
C1059 C1058 1.385 . S
C1060 C1058 1.478 . S
C1060 C1062 1.381 . S
C1060 C1066 1.383 . S
C1061 C1057 1.495 . S
C1061 H1067 0.959 . S
C1061 H1068 0.961 . S
C1061 H1069 0.960 . S
C1062 C1060 1.381 . S
C1062 C1063 1.394 . S
C1062 H1070 0.930 . S
C1063 C1062 1.394 . S
C1063 C1064 1.383 . S
C1063 H1071 0.929 . S
C1064 C1063 1.383 . S
C1064 C1065 1.377 . S
C1065 H1049 0.930 . S
C1065 C1064 1.377 . S
C1065 C1066 1.379 . S
C1066 H1050 0.931 . S
C1066 C1060 1.383 . S
C1066 C1065 1.379 . S
H1067 C1061 0.959 . S
H1068 C1061 0.961 . S
H1069 C1061 0.960 . S
H1070 C1062 0.930 . S
H1071 C1063 0.929 . S
H1072 C1080 0.929 . S
H1073 C1082 0.930 . S
H1074 C1084 0.930 . S
H1075 C1087 0.929 . S
H1076 C1090 0.930 . S
H1077 C1092 0.960 . S
H1078 C1092 0.960 . S
H1079 C1092 0.960 . S
C1080 H1072 0.929 . S
C1080 C1081 1.377 . S
C1080 C1082 1.384 . S
C1081 C1080 1.377 . S
C1081 C1087 1.390 . S
C1082 H1073 0.930 . S
C1082 C1080 1.384 . S
C1082 C1083 1.372 . S
C1083 C1082 1.372 . S
C1083 C1084 1.400 . S
C1083 C1088 1.490 . S
C1084 H1074 0.930 . S
C1084 C1083 1.400 . S
C1084 C1087 1.386 . S
H1085 C1101 0.930 . S
H1086 C1102 0.931 . S
C1087 H1075 0.929 . S
C1087 C1081 1.390 . S
C1087 C1084 1.386 . S
C1088 C1083 1.490 . S
C1088 C1090 1.395 . S
C1088 C1091 1.403 . S
H1089 C1095 0.930 . S
C1090 H1076 0.930 . S
C1090 C1088 1.395 . S
C1090 C1093 1.403 . S
C1091 C1088 1.403 . S
C1091 C1092 1.524 . S
C1091 C1095 1.400 . S
C1092 H1077 0.960 . S
C1092 H1078 0.960 . S
C1092 H1079 0.960 . S
C1092 C1091 1.524 . S
C1093 C1090 1.403 . S
C1093 C1094 1.392 . S
C1093 C1097 1.495 . S
C1094 C1093 1.392 . S
C1094 C1095 1.385 . S
C1094 C1096 1.478 . S
C1095 H1089 0.930 . S
C1095 C1091 1.400 . S
C1095 C1094 1.385 . S
C1096 C1094 1.478 . S
C1096 C1098 1.381 1_556 S
C1096 C1102 1.383 . S
C1097 C1093 1.495 . S
C1097 H1103 0.959 . S
C1097 H1104 0.961 1_556 S
C1097 H1105 0.960 1_556 S
C1098 C1096 1.381 1_554 S
C1098 C1099 1.394 . S
C1098 H1106 0.930 . S
C1099 C1098 1.394 . S
C1099 C1100 1.383 . S
C1099 H1107 0.929 . S
C1100 C1099 1.383 . S
C1100 C1101 1.377 1_554 S
C1101 H1085 0.930 . S
C1101 C1100 1.377 1_556 S
C1101 C1102 1.379 . S
C1102 H1086 0.931 . S
C1102 C1096 1.383 . S
C1102 C1101 1.379 . S
H1103 C1097 0.959 . S
H1104 C1097 0.961 1_554 S
H1105 C1097 0.960 1_554 S
H1106 C1098 0.930 . S
H1107 C1099 0.929 . S
H1108 C1116 0.929 . S
H1109 C1118 0.930 . S
H1110 C1120 0.930 . S
H1111 C1123 0.929 . S
H1112 C1126 0.930 . S
H1113 C1128 0.960 . S
H1114 C1128 0.960 . S
H1115 C1128 0.960 . S
C1116 H1108 0.929 . S
C1116 C1117 1.377 . S
C1116 C1118 1.384 . S
C1117 C1116 1.377 . S
C1117 C1123 1.390 . S
C1118 H1109 0.930 . S
C1118 C1116 1.384 . S
C1118 C1119 1.372 . S
C1119 C1118 1.372 . S
C1119 C1120 1.400 . S
C1119 C1124 1.490 . S
C1120 H1110 0.930 . S
C1120 C1119 1.400 . S
C1120 C1123 1.386 . S
H1121 C1137 0.930 . S
H1122 C1138 0.931 . S
C1123 H1111 0.929 . S
C1123 C1117 1.390 . S
C1123 C1120 1.386 . S
C1124 C1119 1.490 . S
C1124 C1126 1.395 . S
C1124 C1127 1.403 . S
H1125 C1131 0.930 . S
C1126 H1112 0.930 . S
C1126 C1124 1.395 . S
C1126 C1129 1.403 . S
C1127 C1124 1.403 . S
C1127 C1128 1.524 . S
C1127 C1131 1.400 . S
C1128 H1113 0.960 . S
C1128 H1114 0.960 . S
C1128 H1115 0.960 . S
C1128 C1127 1.524 . S
C1129 C1126 1.403 . S
C1129 C1130 1.392 . S
C1129 C1133 1.495 . S
C1130 C1129 1.392 . S
C1130 C1131 1.385 . S
C1130 C1132 1.478 . S
C1131 H1125 0.930 . S
C1131 C1127 1.400 . S
C1131 C1130 1.385 . S
C1132 C1130 1.478 . S
C1132 C1134 1.381 . S
C1132 C1138 1.383 . S
C1133 C1129 1.495 . S
C1133 H1139 0.959 . S
C1133 H1140 0.961 . S
C1133 H1141 0.960 . S
C1134 C1132 1.381 . S
C1134 C1135 1.394 1_554 S
C1134 H1142 0.930 . S
C1135 C1134 1.394 1_556 S
C1135 C1136 1.383 . S
C1135 H1143 0.929 . S
C1136 C1135 1.383 . S
C1136 C1137 1.377 1_556 S
C1137 H1121 0.930 . S
C1137 C1136 1.377 1_554 S
C1137 C1138 1.379 . S
C1138 H1122 0.931 . S
C1138 C1132 1.383 . S
C1138 C1137 1.379 . S
H1139 C1133 0.959 . S
H1140 C1133 0.961 . S
H1141 C1133 0.960 . S
H1142 C1134 0.930 . S
H1143 C1135 0.929 . S
H1144 C1152 0.931 . S
H1145 C1154 0.930 . S
H1146 C1156 0.930 . S
H1147 C1159 0.929 . S
H1148 C1162 0.930 . S
H1149 C1164 0.960 . S
H1150 C1164 0.960 . S
H1151 C1164 0.960 . S
C1152 H1144 0.931 . S
C1152 C1153 1.377 1_556 S
C1152 C1154 1.384 . S
C1153 C1152 1.377 1_554 S
C1153 C1159 1.390 . S
C1154 H1145 0.930 . S
C1154 C1152 1.384 . S
C1154 C1155 1.372 . S
C1155 C1154 1.372 . S
C1155 C1156 1.400 . S
C1155 C1160 1.490 . S
C1156 H1146 0.930 . S
C1156 C1155 1.400 . S
C1156 C1159 1.386 1_556 S
H1157 C1173 0.930 . S
H1158 C1174 0.931 . S
C1159 H1147 0.929 . S
C1159 C1153 1.390 . S
C1159 C1156 1.386 1_554 S
C1160 C1155 1.490 . S
C1160 C1162 1.395 . S
C1160 C1163 1.403 . S
H1161 C1167 0.930 . S
C1162 H1148 0.930 . S
C1162 C1160 1.395 . S
C1162 C1165 1.403 . S
C1163 C1160 1.403 . S
C1163 C1164 1.524 . S
C1163 C1167 1.400 . S
C1164 H1149 0.960 . S
C1164 H1150 0.960 . S
C1164 H1151 0.960 . S
C1164 C1163 1.524 . S
C1165 C1162 1.403 . S
C1165 C1166 1.392 . S
C1165 C1169 1.495 . S
C1166 C1165 1.392 . S
C1166 C1167 1.385 . S
C1166 C1168 1.478 . S
C1167 H1161 0.930 . S
C1167 C1163 1.400 . S
C1167 C1166 1.385 . S
C1168 C1166 1.478 . S
C1168 C1170 1.381 . S
C1168 C1174 1.383 . S
C1169 C1165 1.495 . S
C1169 H1175 0.959 . S
C1169 H1176 0.961 . S
C1169 H1177 0.960 . S
C1170 C1168 1.381 . S
C1170 C1171 1.394 . S
C1170 H1178 0.930 . S
C1171 C1170 1.394 . S
C1171 C1172 1.383 . S
C1171 H1179 0.929 . S
C1172 C1171 1.383 . S
C1172 C1173 1.377 . S
C1173 H1157 0.930 . S
C1173 C1172 1.377 . S
C1173 C1174 1.379 . S
C1174 H1158 0.931 . S
C1174 C1168 1.383 . S
C1174 C1173 1.379 . S
H1175 C1169 0.959 . S
H1176 C1169 0.961 . S
H1177 C1169 0.960 . S
H1178 C1170 0.930 . S
H1179 C1171 0.929 . S
H1180 C1188 0.929 . S
H1181 C1190 0.930 . S
H1182 C1192 0.930 . S
H1183 C1195 0.929 . S
H1184 C1198 0.930 . S
H1185 C1200 0.960 . S
H1186 C1200 0.960 . S
H1187 C1200 0.960 . S
C1188 H1180 0.929 . S
C1188 C1189 1.377 . S
C1188 C1190 1.384 . S
C1189 C1188 1.377 . S
C1189 C1195 1.390 . S
C1190 H1181 0.930 . S
C1190 C1188 1.384 . S
C1190 C1191 1.372 . S
C1191 C1190 1.372 . S
C1191 C1192 1.400 . S
C1191 C1196 1.490 . S
C1192 H1182 0.930 . S
C1192 C1191 1.400 . S
C1192 C1195 1.386 . S
H1193 C1209 0.930 . S
H1194 C1210 0.931 . S
C1195 H1183 0.929 . S
C1195 C1189 1.390 . S
C1195 C1192 1.386 . S
C1196 C1191 1.490 . S
C1196 C1198 1.395 . S
C1196 C1199 1.403 . S
H1197 C1203 0.930 . S
C1198 H1184 0.930 . S
C1198 C1196 1.395 . S
C1198 C1201 1.403 . S
C1199 C1196 1.403 . S
C1199 C1200 1.524 . S
C1199 C1203 1.400 . S
C1200 H1185 0.960 . S
C1200 H1186 0.960 . S
C1200 H1187 0.960 . S
C1200 C1199 1.524 . S
C1201 C1198 1.403 . S
C1201 C1202 1.392 . S
C1201 C1205 1.495 . S
C1202 C1201 1.392 . S
C1202 C1203 1.385 . S
C1202 C1204 1.478 . S
C1203 H1197 0.930 . S
C1203 C1199 1.400 . S
C1203 C1202 1.385 . S
C1204 C1202 1.478 . S
C1204 C1206 1.381 . S
C1204 C1210 1.383 1_554 S
C1205 C1201 1.495 . S
C1205 H1211 0.959 . S
C1205 H1212 0.961 . S
C1205 H1213 0.960 . S
C1206 C1204 1.381 . S
C1206 C1207 1.394 . S
C1206 H1214 0.930 . S
C1207 C1206 1.394 . S
C1207 C1208 1.383 1_554 S
C1207 H1215 0.929 . S
C1208 C1207 1.383 1_556 S
C1208 C1209 1.377 . S
C1209 H1193 0.930 . S
C1209 C1208 1.377 . S
C1209 C1210 1.379 . S
C1210 H1194 0.931 . S
C1210 C1204 1.383 1_556 S
C1210 C1209 1.379 . S
H1211 C1205 0.959 . S
H1212 C1205 0.961 . S
H1213 C1205 0.960 . S
H1214 C1206 0.930 . S
H1215 C1207 0.929 . S
H1216 C1224 0.929 . S
H1217 C1226 0.930 . S
H1218 C1228 0.930 . S
H1219 C1231 0.929 . S
H1220 C1234 0.930 . S
H1221 C1236 0.960 . S
H1222 C1236 0.960 . S
H1223 C1236 0.960 . S
C1224 H1216 0.929 . S
C1224 C1225 1.377 . S
C1224 C1226 1.384 . S
C1225 C1224 1.377 . S
C1225 C1231 1.390 . S
C1226 H1217 0.930 . S
C1226 C1224 1.384 . S
C1226 C1227 1.372 . S
C1227 C1226 1.372 . S
C1227 C1228 1.400 . S
C1227 C1232 1.490 . S
C1228 H1218 0.930 . S
C1228 C1227 1.400 . S
C1228 C1231 1.386 . S
H1229 C1245 0.930 . S
H1230 C1246 0.931 . S
C1231 H1219 0.929 . S
C1231 C1225 1.390 . S
C1231 C1228 1.386 . S
C1232 C1227 1.490 . S
C1232 C1234 1.395 . S
C1232 C1235 1.403 . S
H1233 C1239 0.930 . S
C1234 H1220 0.930 . S
C1234 C1232 1.395 . S
C1234 C1237 1.403 . S
C1235 C1232 1.403 . S
C1235 C1236 1.524 . S
C1235 C1239 1.400 . S
C1236 H1221 0.960 . S
C1236 H1222 0.960 . S
C1236 H1223 0.960 . S
C1236 C1235 1.524 . S
C1237 C1234 1.403 . S
C1237 C1238 1.392 . S
C1237 C1241 1.495 . S
C1238 C1237 1.392 . S
C1238 C1239 1.385 . S
C1238 C1240 1.478 . S
C1239 H1233 0.930 . S
C1239 C1235 1.400 . S
C1239 C1238 1.385 . S
C1240 C1238 1.478 . S
C1240 C1242 1.381 . S
C1240 C1246 1.383 . S
C1241 C1237 1.495 . S
C1241 H1247 0.959 . S
C1241 H1248 0.961 . S
C1241 H1249 0.960 . S
C1242 C1240 1.381 . S
C1242 C1243 1.394 . S
C1242 H1250 0.930 . S
C1243 C1242 1.394 . S
C1243 C1244 1.383 . S
C1243 H1251 0.929 . S
C1244 C1243 1.383 . S
C1244 C1245 1.377 . S
C1245 H1229 0.930 . S
C1245 C1244 1.377 . S
C1245 C1246 1.379 . S
C1246 H1230 0.931 . S
C1246 C1240 1.383 . S
C1246 C1245 1.379 . S
H1247 C1241 0.959 . S
H1248 C1241 0.961 . S
H1249 C1241 0.960 . S
H1250 C1242 0.930 . S
H1251 C1243 0.929 . S
H1252 C1260 0.929 . S
H1253 C1262 0.930 . S
H1254 C1264 0.930 . S
H1255 C1267 0.929 . S
H1256 C1270 0.930 . S
H1257 C1272 0.960 . S
H1258 C1272 0.960 . S
H1259 C1272 0.960 . S
C1260 H1252 0.929 . S
C1260 C1261 1.377 . S
C1260 C1262 1.384 . S
C1261 C1260 1.377 . S
C1261 C1267 1.390 . S
C1262 H1253 0.930 . S
C1262 C1260 1.384 . S
C1262 C1263 1.372 . S
C1263 C1262 1.372 . S
C1263 C1264 1.400 . S
C1263 C1268 1.490 . S
C1264 H1254 0.930 . S
C1264 C1263 1.400 . S
C1264 C1267 1.386 . S
H1265 C1281 0.930 . S
H1266 C1282 0.931 . S
C1267 H1255 0.929 . S
C1267 C1261 1.390 . S
C1267 C1264 1.386 . S
C1268 C1263 1.490 . S
C1268 C1270 1.395 . S
C1268 C1271 1.403 . S
H1269 C1275 0.930 . S
C1270 H1256 0.930 . S
C1270 C1268 1.395 . S
C1270 C1273 1.403 . S
C1271 C1268 1.403 . S
C1271 C1272 1.524 . S
C1271 C1275 1.400 . S
C1272 H1257 0.960 . S
C1272 H1258 0.960 . S
C1272 H1259 0.960 . S
C1272 C1271 1.524 . S
C1273 C1270 1.403 . S
C1273 C1274 1.392 . S
C1273 C1277 1.495 . S
C1274 C1273 1.392 . S
C1274 C1275 1.385 . S
C1274 C1276 1.478 . S
C1275 H1269 0.930 . S
C1275 C1271 1.400 . S
C1275 C1274 1.385 . S
C1276 C1274 1.478 . S
C1276 C1278 1.381 . S
C1276 C1282 1.383 . S
C1277 C1273 1.495 . S
C1277 H1283 0.959 . S
C1277 H1284 0.961 . S
C1277 H1285 0.960 . S
C1278 C1276 1.381 . S
C1278 C1279 1.394 . S
C1278 H1286 0.930 . S
C1279 C1278 1.394 . S
C1279 C1280 1.383 . S
C1279 H1287 0.929 . S
C1280 C1279 1.383 . S
C1280 C1281 1.377 . S
C1281 H1265 0.930 . S
C1281 C1280 1.377 . S
C1281 C1282 1.379 . S
C1282 H1266 0.931 . S
C1282 C1276 1.383 . S
C1282 C1281 1.379 . S
H1283 C1277 0.959 . S
H1284 C1277 0.961 . S
H1285 C1277 0.960 . S
H1286 C1278 0.930 . S
H1287 C1279 0.929 . S
H1288 C1296 0.929 . S
H1289 C1298 0.930 . S
H1290 C1300 0.930 . S
H1291 C1303 0.929 . S
H1292 C1306 0.930 . S
H1293 C1308 0.960 . S
H1294 C1308 0.960 . S
H1295 C1308 0.960 . S
C1296 H1288 0.929 . S
C1296 C1297 1.377 . S
C1296 C1298 1.384 . S
C1297 C1296 1.377 . S
C1297 C1303 1.390 . S
C1298 H1289 0.930 . S
C1298 C1296 1.384 . S
C1298 C1299 1.372 . S
C1299 C1298 1.372 . S
C1299 C1300 1.400 . S
C1299 C1304 1.490 . S
C1300 H1290 0.930 . S
C1300 C1299 1.400 . S
C1300 C1303 1.386 . S
H1301 C1317 0.930 . S
H1302 C1318 0.931 . S
C1303 H1291 0.929 . S
C1303 C1297 1.390 . S
C1303 C1300 1.386 . S
C1304 C1299 1.490 . S
C1304 C1306 1.395 . S
C1304 C1307 1.403 . S
H1305 C1311 0.930 . S
C1306 H1292 0.930 . S
C1306 C1304 1.395 . S
C1306 C1309 1.403 . S
C1307 C1304 1.403 . S
C1307 C1308 1.524 . S
C1307 C1311 1.400 . S
C1308 H1293 0.960 . S
C1308 H1294 0.960 . S
C1308 H1295 0.960 . S
C1308 C1307 1.524 . S
C1309 C1306 1.403 . S
C1309 C1310 1.392 . S
C1309 C1313 1.495 . S
C1310 C1309 1.392 . S
C1310 C1311 1.385 . S
C1310 C1312 1.478 . S
C1311 H1305 0.930 . S
C1311 C1307 1.400 . S
C1311 C1310 1.385 . S
C1312 C1310 1.478 . S
C1312 C1314 1.381 . S
C1312 C1318 1.383 . S
C1313 C1309 1.495 . S
C1313 H1319 0.959 . S
C1313 H1320 0.961 . S
C1313 H1321 0.960 . S
C1314 C1312 1.381 . S
C1314 C1315 1.394 . S
C1314 H1322 0.930 . S
C1315 C1314 1.394 . S
C1315 C1316 1.383 . S
C1315 H1323 0.929 . S
C1316 C1315 1.383 . S
C1316 C1317 1.377 . S
C1317 H1301 0.930 . S
C1317 C1316 1.377 . S
C1317 C1318 1.379 . S
C1318 H1302 0.931 . S
C1318 C1312 1.383 . S
C1318 C1317 1.379 . S
H1319 C1313 0.959 . S
H1320 C1313 0.961 . S
H1321 C1313 0.960 . S
H1322 C1314 0.930 . S
H1323 C1315 0.929 . S
H1324 C1332 0.929 . S
H1325 C1334 0.930 . S
H1326 C1336 0.930 . S
H1327 C1339 0.929 . S
H1328 C1342 0.930 . S
H1329 C1344 0.960 . S
H1330 C1344 0.960 . S
H1331 C1344 0.960 . S
C1332 H1324 0.929 . S
C1332 C1333 1.377 . S
C1332 C1334 1.384 . S
C1333 C1332 1.377 . S
C1333 C1339 1.390 . S
C1334 H1325 0.930 . S
C1334 C1332 1.384 . S
C1334 C1335 1.372 . S
C1335 C1334 1.372 . S
C1335 C1336 1.400 . S
C1335 C1340 1.490 . S
C1336 H1326 0.930 . S
C1336 C1335 1.400 . S
C1336 C1339 1.386 . S
H1337 C1353 0.930 . S
H1338 C1354 0.931 . S
C1339 H1327 0.929 . S
C1339 C1333 1.390 . S
C1339 C1336 1.386 . S
C1340 C1335 1.490 . S
C1340 C1342 1.395 . S
C1340 C1343 1.403 . S
H1341 C1347 0.930 . S
C1342 H1328 0.930 . S
C1342 C1340 1.395 . S
C1342 C1345 1.403 . S
C1343 C1340 1.403 . S
C1343 C1344 1.524 . S
C1343 C1347 1.400 . S
C1344 H1329 0.960 . S
C1344 H1330 0.960 . S
C1344 H1331 0.960 . S
C1344 C1343 1.524 . S
C1345 C1342 1.403 . S
C1345 C1346 1.392 . S
C1345 C1349 1.495 . S
C1346 C1345 1.392 . S
C1346 C1347 1.385 . S
C1346 C1348 1.478 . S
C1347 H1341 0.930 . S
C1347 C1343 1.400 . S
C1347 C1346 1.385 . S
C1348 C1346 1.478 . S
C1348 C1350 1.381 . S
C1348 C1354 1.383 . S
C1349 C1345 1.495 . S
C1349 H1355 0.959 . S
C1349 H1356 0.961 . S
C1349 H1357 0.960 . S
C1350 C1348 1.381 . S
C1350 C1351 1.394 . S
C1350 H1358 0.930 . S
C1351 C1350 1.394 . S
C1351 C1352 1.383 . S
C1351 H1359 0.929 . S
C1352 C1351 1.383 . S
C1352 C1353 1.377 . S
C1353 H1337 0.930 . S
C1353 C1352 1.377 . S
C1353 C1354 1.379 . S
C1354 H1338 0.931 . S
C1354 C1348 1.383 . S
C1354 C1353 1.379 . S
H1355 C1349 0.959 . S
H1356 C1349 0.961 . S
H1357 C1349 0.960 . S
H1358 C1350 0.930 . S
H1359 C1351 0.929 . S
C217 C148 1.314 . S
C236 C5 1.302 . S
C253 C18 1.297 . S
C272 C107 1.304 . S
C289 C29 1.303 . S
C308 C122 1.304 . S
C325 C135 1.316 . S
C344 C42 1.304 . S
C361 C55 1.303 . S
C380 C70 1.298 . S
C397 C68 1.304 . S
C416 C83 1.328 . S
C433 C96 1.318 . S
C452 C81 1.274 . S
C469 C57 1.315 . S
C488 C94 1.301 . S
C505 C44 1.313 . S
C524 C109 1.315 . S
C541 C120 1.296 . S
C560 C3 1.311 . S
C577 C16 1.317 . S
C596 C133 1.306 . S
C613 C146 1.297 . S
C632 C31 1.314 . S
C649 C161 1.303 . S
C668 C172 1.308 . S
C685 C174 1.294 . S
C704 C185 1.298 . S
C721 C200 1.313 . S
C740 C187 1.316 . S
C757 C159 1.318 . S
C776 C198 1.316 . S
C793 C62 0.941 . S
C812 C4 0.974 . S
C829 C17 0.936 . S
C848 C75 0.911 . S
C865 C36 0.949 . S
C884 C88 0.919 . S
C901 C101 0.946 . S
C920 C49 0.966 . S
C937 C108 0.949 . S
C956 C160 0.934 . S
C973 C173 0.938 . S
C992 C127 0.927 . S
C1009 C140 0.948 . S
C1028 C186 0.906 . S
C1045 C205 0.940 . S
C1064 C153 0.933 . S
C1081 C192 1.572 . S
C1100 C10 1.562 . S
C1117 C199 1.574 . S
C1136 C23 1.575 . S
C1153 C30 1.575 . S
C1172 C166 1.579 . S
C1189 C179 1.571 . S
C1208 C43 1.572 . S
C1225 C134 1.571 . S
C1244 C56 1.560 . S
C1261 C147 1.574 . S
C1280 C69 1.566 . S
C1297 C82 1.570 . S
C1316 C114 1.562 . S
C1333 C121 1.574 . S
C1352 C95 1.569 . S
