# Generated by pormake.
# Topology yff, (5)-cn, num edge types: 1
# Building blocks:
#     Node 0, Type 0, BuildingBlock: BEQFEK_clean_sbu_0, # of connection points: 5
#     Node 1, Type 0, BuildingBlock: BEQFEK_clean_sbu_0, # of connection points: 5
#     Node 2, Type 0, BuildingBlock: BEQFEK_clean_sbu_0, # of connection points: 5
#     Node 3, Type 0, BuildingBlock: BEQFEK_clean_sbu_0, # of connection points: 5
#     Node 4, Type 0, BuildingBlock: BEQFEK_clean_sbu_0, # of connection points: 5
#     Node 5, Type 0, BuildingBlock: BEQFEK_clean_sbu_0, # of connection points: 5
#     Node 6, Type 0, BuildingBlock: BEQFEK_clean_sbu_0, # of connection points: 5
#     Node 7, Type 0, BuildingBlock: BEQFEK_clean_sbu_0, # of connection points: 5
#     Node 8, Type 0, BuildingBlock: BEQFEK_clean_sbu_0, # of connection points: 5
#     Node 9, Type 0, BuildingBlock: BEQFEK_clean_sbu_0, # of connection points: 5
#     Node 10, Type 0, BuildingBlock: BEQFEK_clean_sbu_0, # of connection points: 5
#     Node 11, Type 0, BuildingBlock: BEQFEK_clean_sbu_0, # of connection points: 5
#     Node 12, Type 0, BuildingBlock: BEQFEK_clean_sbu_0, # of connection points: 5
#     Node 13, Type 0, BuildingBlock: BEQFEK_clean_sbu_0, # of connection points: 5
#     Node 14, Type 0, BuildingBlock: BEQFEK_clean_sbu_0, # of connection points: 5
#     Node 15, Type 0, BuildingBlock: BEQFEK_clean_sbu_0, # of connection points: 5
#     Edge 16, Type (0, 0), BuildingBlock: MIFKUJ_clean_linker_0, # of connection points: 2
#     Edge 17, Type (0, 0), BuildingBlock: MIFKUJ_clean_linker_0, # of connection points: 2
#     Edge 18, Type (0, 0), BuildingBlock: MIFKUJ_clean_linker_0, # of connection points: 2
#     Edge 19, Type (0, 0), BuildingBlock: MIFKUJ_clean_linker_0, # of connection points: 2
#     Edge 20, Type (0, 0), BuildingBlock: MIFKUJ_clean_linker_0, # of connection points: 2
#     Edge 21, Type (0, 0), BuildingBlock: MIFKUJ_clean_linker_0, # of connection points: 2
#     Edge 22, Type (0, 0), BuildingBlock: MIFKUJ_clean_linker_0, # of connection points: 2
#     Edge 23, Type (0, 0), BuildingBlock: MIFKUJ_clean_linker_0, # of connection points: 2
#     Edge 24, Type (0, 0), BuildingBlock: MIFKUJ_clean_linker_0, # of connection points: 2
#     Edge 25, Type (0, 0), BuildingBlock: MIFKUJ_clean_linker_0, # of connection points: 2
#     Edge 26, Type (0, 0), BuildingBlock: MIFKUJ_clean_linker_0, # of connection points: 2
#     Edge 27, Type (0, 0), BuildingBlock: MIFKUJ_clean_linker_0, # of connection points: 2
#     Edge 28, Type (0, 0), BuildingBlock: MIFKUJ_clean_linker_0, # of connection points: 2
#     Edge 29, Type (0, 0), BuildingBlock: MIFKUJ_clean_linker_0, # of connection points: 2
#     Edge 30, Type (0, 0), BuildingBlock: MIFKUJ_clean_linker_0, # of connection points: 2
#     Edge 31, Type (0, 0), BuildingBlock: MIFKUJ_clean_linker_0, # of connection points: 2
#     Edge 32, Type (0, 0), BuildingBlock: MIFKUJ_clean_linker_0, # of connection points: 2
#     Edge 33, Type (0, 0), BuildingBlock: MIFKUJ_clean_linker_0, # of connection points: 2
#     Edge 34, Type (0, 0), BuildingBlock: MIFKUJ_clean_linker_0, # of connection points: 2
#     Edge 35, Type (0, 0), BuildingBlock: MIFKUJ_clean_linker_0, # of connection points: 2
#     Edge 36, Type (0, 0), BuildingBlock: MIFKUJ_clean_linker_0, # of connection points: 2
#     Edge 37, Type (0, 0), BuildingBlock: MIFKUJ_clean_linker_0, # of connection points: 2
#     Edge 38, Type (0, 0), BuildingBlock: MIFKUJ_clean_linker_0, # of connection points: 2
#     Edge 39, Type (0, 0), BuildingBlock: MIFKUJ_clean_linker_0, # of connection points: 2
#     Edge 40, Type (0, 0), BuildingBlock: MIFKUJ_clean_linker_0, # of connection points: 2
#     Edge 41, Type (0, 0), BuildingBlock: MIFKUJ_clean_linker_0, # of connection points: 2
#     Edge 42, Type (0, 0), BuildingBlock: MIFKUJ_clean_linker_0, # of connection points: 2
#     Edge 43, Type (0, 0), BuildingBlock: MIFKUJ_clean_linker_0, # of connection points: 2
#     Edge 44, Type (0, 0), BuildingBlock: MIFKUJ_clean_linker_0, # of connection points: 2
#     Edge 45, Type (0, 0), BuildingBlock: MIFKUJ_clean_linker_0, # of connection points: 2
#     Edge 46, Type (0, 0), BuildingBlock: MIFKUJ_clean_linker_0, # of connection points: 2
#     Edge 47, Type (0, 0), BuildingBlock: MIFKUJ_clean_linker_0, # of connection points: 2
#     Edge 48, Type (0, 0), BuildingBlock: MIFKUJ_clean_linker_0, # of connection points: 2
#     Edge 49, Type (0, 0), BuildingBlock: MIFKUJ_clean_linker_0, # of connection points: 2
#     Edge 50, Type (0, 0), BuildingBlock: MIFKUJ_clean_linker_0, # of connection points: 2
#     Edge 51, Type (0, 0), BuildingBlock: MIFKUJ_clean_linker_0, # of connection points: 2
#     Edge 52, Type (0, 0), BuildingBlock: MIFKUJ_clean_linker_0, # of connection points: 2
#     Edge 53, Type (0, 0), BuildingBlock: MIFKUJ_clean_linker_0, # of connection points: 2
#     Edge 54, Type (0, 0), BuildingBlock: MIFKUJ_clean_linker_0, # of connection points: 2
#     Edge 55, Type (0, 0), BuildingBlock: MIFKUJ_clean_linker_0, # of connection points: 2
# Relax obj value: 0.513
# Max RMSD: 0.284
# Mean RMSD: 0.274
data_MOF--net-yff--node1-BEQFEK_clean_sbu_0--edge1-MIFKUJ_clean_linker_0
_symmetry_space_group_name_H-M    P1
_symmetry_Int_Tables_number       1
_symmetry_cell_setting            triclinic
loop_
_symmetry_equiv_pos_as_xyz
'x, y, z'
_cell_length_a     84.257623
_cell_length_b     81.959804
_cell_length_c     35.317337
_cell_angle_alpha  89.399114
_cell_angle_beta   89.489416
_cell_angle_gamma 88.951571
loop_
_atom_site_label
_atom_site_type_symbol
_atom_site_fract_x
_atom_site_fract_y
_atom_site_fract_z
_atom_type_partial_charge
Co0 Co 0.07584 0.02498 0.32081 0.0
Co1 Co 0.1109 0.03081 0.29564 0.0
C2 C 0.0959 0.99879 0.28386 0.0
O3 O 0.08318 0.00414 0.29917 0.0
O4 O 0.10792 0.0078 0.27945 0.0
C5 C 0.05509 0.00746 0.36594 0.0
O6 O 0.06761 0.99767 0.3657 0.0
C7 C 0.14518 0.02609 0.29407 0.0
C8 C 0.15352 0.05039 0.27602 0.0
C9 C 0.15878 0.03492 0.2869 0.0
N10 N 0.13252 0.03589 0.28775 0.0
N11 N 0.13755 0.05035 0.27659 0.0
C12 C 0.14406 0.0092 0.31035 0.0
H13 H 0.13266 0.00776 0.32589 0.0
H14 H 0.15409 0.00652 0.32975 0.0
H15 H 0.14452 0.00027 0.28695 0.0
C16 C 0.08815 0.03643 0.39357 0.0
N17 N 0.0903 0.0322 0.35715 0.0
N18 N 0.10528 0.03412 0.34755 0.0
C19 C 0.1132 0.03953 0.37797 0.0
C20 C 0.1026 0.04096 0.40819 0.0
C21 C 0.07226 0.03789 0.41282 0.0
H22 H 0.06309 0.04198 0.39233 0.0
H23 H 0.06898 0.02584 0.42478 0.0
H24 H 0.07245 0.04676 0.43629 0.0
O25 O 0.07302 0.04141 0.28014 0.0
O26 O 0.09804 0.04576 0.26278 0.0
H27 H 0.13287 0.0531 0.35675 0.0
H28 H 0.13446 0.04736 0.40624 0.0
C29 C 0.13049 0.04338 0.37801 0.0
H30 H 0.13748 0.03236 0.37002 0.0
H31 H 0.13008 0.06029 0.27026 0.0
O32 O 0.05545 0.02056 0.34643 0.0
C33 C 0.08319 0.04869 0.25944 0.0
Co34 Co 0.46346 0.07502 0.81799 0.0
Co35 Co 0.45939 0.11183 0.79539 0.0
C36 C 0.49048 0.09455 0.7866 0.0
O37 O 0.48454 0.08147 0.79951 0.0
O38 O 0.48223 0.1076 0.78263 0.0
C39 C 0.47829 0.04449 0.83991 0.0
O40 O 0.48971 0.04891 0.81665 0.0
C41 C 0.46401 0.14699 0.79834 0.0
C42 C 0.44129 0.15654 0.7755 0.0
C43 C 0.45562 0.16133 0.79042 0.0
N44 N 0.45499 0.13438 0.78865 0.0
N45 N 0.4415 0.14015 0.77469 0.0
C46 C 0.47964 0.14511 0.81781 0.0
H47 H 0.48058 0.13301 0.8321 0.0
H48 H 0.48115 0.15492 0.83883 0.0
H49 H 0.48933 0.14594 0.79643 0.0
C50 C 0.45192 0.08747 0.89111 0.0
N51 N 0.4563 0.08991 0.85485 0.0
N52 N 0.45454 0.10548 0.8461 0.0
C53 C 0.44876 0.11343 0.87675 0.0
C54 C 0.44702 0.10224 0.90609 0.0
C55 C 0.45218 0.0712 0.91084 0.0
H56 H 0.44487 0.06256 0.89486 0.0
H57 H 0.46454 0.06631 0.9114 0.0
H58 H 0.44758 0.07202 0.94031 0.0
O59 O 0.44799 0.074 0.77637 0.0
O60 O 0.44536 0.10017 0.76026 0.0
H61 H 0.43666 0.13432 0.85319 0.0
H62 H 0.43798 0.13437 0.90432 0.0
C63 C 0.44432 0.13117 0.87765 0.0
H64 H 0.45522 0.13849 0.87543 0.0
H65 H 0.4323 0.13288 0.76542 0.0
O66 O 0.46581 0.05336 0.84262 0.0
C67 C 0.44176 0.08528 0.75597 0.0
Co68 Co 0.40865 0.46085 0.35644 0.0
Co69 Co 0.37448 0.4637 0.32348 0.0
C70 C 0.39626 0.49066 0.31356 0.0
O71 O 0.40676 0.48167 0.32919 0.0
O72 O 0.38201 0.48604 0.31068 0.0
C73 C 0.42657 0.4757 0.40908 0.0
O74 O 0.41325 0.4843 0.40916 0.0
C75 C 0.3413 0.47355 0.31404 0.0
C76 C 0.33116 0.45151 0.28883 0.0
C77 C 0.32723 0.46701 0.30157 0.0
N78 N 0.35293 0.46232 0.30931 0.0
N79 N 0.34685 0.44923 0.29394 0.0
C80 C 0.34406 0.49046 0.32795 0.0
H81 H 0.35207 0.49678 0.30773 0.0
H82 H 0.35018 0.48986 0.35561 0.0
H83 H 0.33291 0.49777 0.33036 0.0
C84 C 0.39068 0.45173 0.42463 0.0
N85 N 0.39111 0.45698 0.38854 0.0
N86 N 0.37651 0.45866 0.37596 0.0
C87 C 0.3663 0.45474 0.40433 0.0
C88 C 0.37507 0.45043 0.43605 0.0
C89 C 0.40496 0.44708 0.44732 0.0
H90 H 0.41459 0.44229 0.42873 0.0
H91 H 0.40907 0.45808 0.46198 0.0
H92 H 0.40207 0.43774 0.46911 0.0
O93 O 0.41064 0.44354 0.31909 0.0
O94 O 0.38682 0.44709 0.29313 0.0
H95 H 0.34561 0.44645 0.37617 0.0
H96 H 0.34307 0.44904 0.42672 0.0
C97 C 0.34866 0.45411 0.40067 0.0
H98 H 0.34382 0.46658 0.39546 0.0
H99 H 0.35336 0.43865 0.28755 0.0
O100 O 0.42793 0.46354 0.38713 0.0
C101 C 0.40043 0.43993 0.29429 0.0
Co102 Co 0.01775 0.37207 0.80259 0.0
Co103 Co 0.04453 0.36444 0.86149 0.0
C104 C 0.02149 0.33909 0.83864 0.0
O105 O 0.01414 0.34894 0.81658 0.0
O106 O 0.03351 0.34351 0.85725 0.0
C107 C 0.98549 0.37684 0.7798 0.0
O108 O 0.98246 0.36853 0.81098 0.0
C109 C 0.0587 0.35547 0.93473 0.0
C110 C 0.08065 0.36978 0.93275 0.0
C111 C 0.07158 0.35997 0.95635 0.0
N112 N 0.05988 0.36278 0.9006 0.0
N113 N 0.07325 0.37094 0.89925 0.0
C114 C 0.04551 0.34432 0.94583 0.0
H115 H 0.03431 0.35148 0.94939 0.0
H116 H 0.04824 0.33749 0.97234 0.0
H117 H 0.04365 0.33541 0.92298 0.0
C118 C 0.01021 0.39833 0.8581 0.0
N119 N 0.01882 0.38525 0.8465 0.0
N120 N 0.02989 0.38189 0.87168 0.0
C121 C 0.02855 0.39268 0.90024 0.0
C122 C 0.016 0.40337 0.89257 0.0
C123 C 0.99745 0.40668 0.83545 0.0
H124 H 0.00067 0.40664 0.80496 0.0
H125 H 0.98618 0.40009 0.83958 0.0
H126 H 0.99554 0.41949 0.84456 0.0
O127 O 0.03756 0.37409 0.77205 0.0
O128 O 0.05642 0.3689 0.81416 0.0
H129 H 0.05131 0.3941 0.92631 0.0
H130 H 0.0352 0.40207 0.95517 0.0
C131 C 0.03874 0.39245 0.93478 0.0
H132 H 0.03771 0.38051 0.94937 0.0
H133 H 0.07689 0.378 0.87613 0.0
O134 O -0.00017 0.37951 0.77054 0.0
C135 C 0.05218 0.37255 0.7806 0.0
Co136 Co 0.58559 0.95997 0.6575 0.0
Co137 Co 0.62068 0.96047 0.68494 0.0
C138 C 0.60177 0.99098 0.68043 0.0
O139 O 0.59018 0.98282 0.66878 0.0
O140 O 0.61493 0.98407 0.68869 0.0
C141 C 0.56576 0.97177 0.60234 0.0
O142 O 0.57904 0.97941 0.59505 0.0
C143 C 0.65421 0.96827 0.68494 0.0
C144 C 0.66485 0.94725 0.71592 0.0
C145 C 0.66854 0.9617 0.6974 0.0
N146 N 0.64263 0.95807 0.6953 0.0
N147 N 0.64902 0.94555 0.7139 0.0
C148 C 0.65119 0.98451 0.66626 0.0
H149 H 0.64544 0.9928 0.68714 0.0
H150 H 0.6428 0.98315 0.6425 0.0
H151 H 0.66222 0.99028 0.65606 0.0
C152 C 0.60049 0.9425 0.59399 0.0
N153 N 0.60149 0.95045 0.62687 0.0
N154 N 0.61651 0.95176 0.63605 0.0
C155 C 0.62556 0.94522 0.608 0.0
C156 C 0.61561 0.93908 0.58065 0.0
C157 C 0.58532 0.93845 0.57506 0.0
H158 H 0.57578 0.93648 0.59631 0.0
H159 H 0.58189 0.94871 0.55597 0.0
H160 H 0.58681 0.92729 0.55782 0.0
O161 O 0.58363 0.94742 0.7047 0.0
O162 O 0.6086 0.94804 0.72474 0.0
H163 H 0.64772 0.93834 0.63307 0.0
H164 H 0.64797 0.93839 0.58183 0.0
C165 C 0.64331 0.94474 0.60733 0.0
H166 H 0.64778 0.95737 0.60751 0.0
H167 H 0.64259 0.93583 0.725 0.0
O168 O 0.5654 0.96155 0.62966 0.0
C169 C 0.5942 0.9437 0.72905 0.0
Co170 Co 0.53973 0.57439 0.1567 0.0
Co171 Co 0.5383 0.61037 0.18495 0.0
C172 C 0.51094 0.58826 0.19632 0.0
O173 O 0.51875 0.57671 0.18076 0.0
O174 O 0.5168 0.60237 0.1995 0.0
C175 C 0.53133 0.54178 0.14066 0.0
O176 O 0.52405 0.54278 0.17362 0.0
C177 C 0.52798 0.64452 0.18281 0.0
C178 C 0.54582 0.65613 0.21872 0.0
C179 C 0.53243 0.65939 0.19724 0.0
N180 N 0.53837 0.63303 0.19495 0.0
N181 N 0.549 0.64003 0.21643 0.0
C182 C 0.51352 0.64106 0.1601 0.0
H183 H 0.51161 0.62776 0.15822 0.0
H184 H 0.51491 0.646 0.13098 0.0
H185 H 0.50296 0.64717 0.17305 0.0
C186 C 0.54745 0.59082 0.08496 0.0
N187 N 0.54317 0.59141 0.12165 0.0
N188 N 0.54323 0.60663 0.13307 0.0
C189 C 0.54804 0.61622 0.10392 0.0
C190 C 0.55074 0.60647 0.07262 0.0
C191 C 0.54864 0.57545 0.06242 0.0
H192 H 0.5582 0.56746 0.0742 0.0
H193 H 0.53731 0.56883 0.06481 0.0
H194 H 0.55117 0.57796 0.03205 0.0
O195 O 0.55622 0.57403 0.19579 0.0
O196 O 0.55469 0.59943 0.21727 0.0
H197 H 0.55712 0.63646 0.13463 0.0
H198 H 0.55995 0.63781 0.08384 0.0
C199 C 0.55173 0.63395 0.10683 0.0
H200 H 0.5406 0.64126 0.10421 0.0
H201 H 0.55837 0.6338 0.22959 0.0
O202 O 0.53977 0.55357 0.12931 0.0
C203 C 0.56076 0.58505 0.21822 0.0
Co204 Co 0.90522 0.54056 0.63198 0.0
Co205 Co 0.8709 0.53691 0.66404 0.0
C206 C 0.89164 0.50798 0.65477 0.0
O207 O 0.90236 0.5172 0.64189 0.0
O208 O 0.87833 0.51375 0.66585 0.0
C209 C 0.92537 0.5302 0.57631 0.0
O210 O 0.91193 0.52339 0.56736 0.0
C211 C 0.83842 0.52594 0.66674 0.0
C212 C 0.82631 0.54463 0.70185 0.0
C213 C 0.82381 0.53047 0.68187 0.0
N214 N 0.84906 0.53701 0.67704 0.0
N215 N 0.8418 0.54815 0.6981 0.0
C216 C 0.84271 0.5107 0.6456 0.0
H217 H 0.85154 0.51344 0.62303 0.0
H218 H 0.83223 0.50488 0.63325 0.0
H219 H 0.84831 0.50183 0.66557 0.0
C220 C 0.88803 0.557 0.56964 0.0
N221 N 0.88831 0.54921 0.6033 0.0
N222 N 0.87366 0.54669 0.61493 0.0
C223 C 0.86358 0.55237 0.58804 0.0
C224 C 0.87242 0.55912 0.5587 0.0
C225 C 0.90245 0.56178 0.54738 0.0
H226 H 0.9125 0.56401 0.56656 0.0
H227 H 0.90577 0.55183 0.52763 0.0
H228 H 0.90001 0.57294 0.53021 0.0
O229 O 0.90694 0.55217 0.68002 0.0
O230 O 0.88245 0.54955 0.70312 0.0
H231 H 0.84148 0.55647 0.61701 0.0
H232 H 0.84024 0.55796 0.56598 0.0
C233 C 0.8459 0.55128 0.58996 0.0
H234 H 0.84248 0.5383 0.58901 0.0
H235 H 0.8474 0.55811 0.7098 0.0
O236 O 0.92542 0.54024 0.60351 0.0
C237 C 0.8966 0.55471 0.70594 0.0
Co238 Co 0.96765 0.90777 0.14121 0.0
Co239 Co 0.96853 0.87195 0.17264 0.0
C240 C 0.99824 0.89081 0.16031 0.0
O241 O 0.9903 0.90287 0.14721 0.0
O242 O 0.9915 0.87801 0.17269 0.0
C243 C 0.97521 0.94044 0.12274 0.0
O244 O 0.98383 0.93901 0.15346 0.0
C245 C 0.97539 0.83646 0.17431 0.0
C246 C 0.95814 0.82836 0.21777 0.0
C247 C 0.97005 0.82274 0.19367 0.0
N248 N 0.96694 0.84952 0.18646 0.0
N249 N 0.95666 0.84457 0.21239 0.0
C250 C 0.98886 0.83732 0.14648 0.0
H251 H 0.99303 0.84999 0.1432 0.0
H252 H 0.98486 0.83318 0.11842 0.0
H253 H 0.99879 0.82916 0.15565 0.0
C254 C 0.95079 0.89221 0.07934 0.0
N255 N 0.95836 0.89131 0.11261 0.0
N256 N 0.95864 0.8761 0.12496 0.0
C257 C 0.95091 0.86683 0.0999 0.0
C258 C 0.94566 0.87678 0.07032 0.0
C259 C 0.94949 0.90747 0.05574 0.0
H260 H 0.96147 0.91264 0.0517 0.0
H261 H 0.94438 0.90523 0.02752 0.0
H262 H 0.94201 0.91661 0.0709 0.0
O263 O 0.95694 0.91014 0.19102 0.0
O264 O 0.95695 0.88452 0.2123 0.0
H265 H 0.94413 0.84647 0.13464 0.0
H266 H 0.93847 0.84494 0.0855 0.0
C267 C 0.94782 0.84903 0.105 0.0
H268 H 0.95889 0.84199 0.09899 0.0
H269 H 0.94867 0.85228 0.22656 0.0
O270 O 0.96653 0.92867 0.11327 0.0
C271 C 0.9533 0.89957 0.21618 0.0
Co272 Co 0.91694 0.95511 0.67442 0.0
Co273 Co 0.8801 0.95517 0.68469 0.0
C274 C 0.89849 0.98297 0.71058 0.0
O275 O 0.91109 0.97515 0.70157 0.0
O276 O 0.88482 0.97734 0.70404 0.0
C277 C 0.94756 0.96974 0.66458 0.0
O278 O 0.94255 0.97999 0.6906 0.0
C279 C 0.84647 0.96382 0.67663 0.0
C280 C 0.83506 0.94099 0.69538 0.0
C281 C 0.83185 0.95681 0.68322 0.0
N282 N 0.85781 0.9526 0.68453 0.0
N283 N 0.85093 0.93895 0.69543 0.0
C284 C 0.84977 0.98123 0.66667 0.0
H285 H 0.86154 0.98216 0.65252 0.0
H286 H 0.84044 0.98653 0.6481 0.0
H287 H 0.84996 0.98844 0.69307 0.0
C288 C 0.90815 0.95081 0.59498 0.0
N289 N 0.90408 0.9528 0.63151 0.0
N290 N 0.88855 0.95237 0.63509 0.0
C291 C 0.88222 0.94981 0.60066 0.0
C292 C 0.89447 0.94893 0.57412 0.0
C293 C 0.92494 0.94977 0.58086 0.0
H294 H 0.93174 0.94083 0.59837 0.0
H295 H 0.93044 0.9619 0.58357 0.0
H296 H 0.92574 0.94599 0.55091 0.0
O297 O 0.91484 0.93616 0.7084 0.0
O298 O 0.88887 0.938 0.71986 0.0
H299 H 0.85978 0.93897 0.61246 0.0
H300 H 0.86253 0.94523 0.56347 0.0
C301 C 0.86485 0.9484 0.59336 0.0
H302 H 0.85882 0.9602 0.59971 0.0
H303 H 0.85708 0.92836 0.7037 0.0
O304 O 0.93907 0.95763 0.65637 0.0
C305 C 0.90243 0.93128 0.72556 0.0
Co306 Co 0.529 0.91323 0.18043 0.0
Co307 Co 0.53206 0.87568 0.19659 0.0
C308 C 0.50254 0.89432 0.21622 0.0
O309 O 0.50881 0.90756 0.20535 0.0
O310 O 0.5099 0.88069 0.21379 0.0
C311 C 0.51395 0.9441 0.16112 0.0
O312 O 0.5023 0.93906 0.18297 0.0
C313 C 0.52549 0.84111 0.18684 0.0
C314 C 0.54543 0.8293 0.21752 0.0
C315 C 0.53177 0.82606 0.19762 0.0
N316 N 0.53506 0.85273 0.19969 0.0
N317 N 0.547 0.8456 0.21782 0.0
C318 C 0.51004 0.84451 0.16741 0.0
H319 H 0.50741 0.85779 0.16584 0.0
H320 H 0.51054 0.83974 0.13818 0.0
H321 H 0.50034 0.83817 0.18272 0.0
C322 C 0.53746 0.90227 0.10364 0.0
N323 N 0.53374 0.89896 0.13998 0.0
N324 N 0.53549 0.88317 0.14632 0.0
C325 C 0.54063 0.87598 0.11412 0.0
C326 C 0.54186 0.88786 0.08612 0.0
C327 C 0.53775 0.91906 0.08664 0.0
H328 H 0.54592 0.9267 0.10301 0.0
H329 H 0.52568 0.92466 0.08841 0.0
H330 H 0.54167 0.91891 0.05659 0.0
O331 O 0.54636 0.91231 0.21745 0.0
O332 O 0.54785 0.88575 0.23064 0.0
H333 H 0.55269 0.8547 0.13614 0.0
H334 H 0.5529 0.85634 0.08494 0.0
C335 C 0.5457 0.85846 0.11097 0.0
H336 H 0.53503 0.8508 0.10977 0.0
H337 H 0.55605 0.85188 0.231 0.0
O338 O 0.52664 0.93552 0.15872 0.0
C339 C 0.55255 0.90028 0.23548 0.0
Co340 Co 0.58215 0.53672 0.6604 0.0
Co341 Co 0.61671 0.53036 0.6874 0.0
C342 C 0.59237 0.50553 0.70016 0.0
O343 O 0.58216 0.51534 0.68593 0.0
O344 O 0.60696 0.50915 0.70151 0.0
C345 C 0.54845 0.53596 0.64629 0.0
O346 O 0.54653 0.5356 0.68324 0.0
C347 C 0.64874 0.51663 0.68666 0.0
C348 C 0.66196 0.53483 0.71899 0.0
C349 C 0.66371 0.52031 0.69952 0.0
N350 N 0.63862 0.52851 0.69781 0.0
N351 N 0.64653 0.5393 0.71736 0.0
C352 C 0.64378 0.50162 0.66645 0.0
H353 H 0.63218 0.50374 0.65244 0.0
H354 H 0.65281 0.49771 0.64527 0.0
H355 H 0.6425 0.49155 0.68744 0.0
C356 C 0.59843 0.54334 0.58883 0.0
N357 N 0.59884 0.53863 0.62529 0.0
N358 N 0.61364 0.53585 0.63537 0.0
C359 C 0.62317 0.53864 0.60499 0.0
C360 C 0.61374 0.5434 0.5747 0.0
C361 C 0.58359 0.54797 0.5681 0.0
H362 H 0.57636 0.55662 0.5853 0.0
H363 H 0.57658 0.53684 0.56368 0.0
H364 H 0.58618 0.55367 0.5402 0.0
O365 O 0.58335 0.55388 0.69822 0.0
O366 O 0.60754 0.54814 0.72003 0.0
H367 H 0.6455 0.54328 0.63108 0.0
H368 H 0.646 0.54383 0.57981 0.0
C369 C 0.64091 0.53762 0.6051 0.0
H370 H 0.64477 0.52463 0.60474 0.0
H371 H 0.64144 0.54979 0.72915 0.0
O372 O 0.56224 0.53748 0.63224 0.0
C373 C 0.59463 0.55655 0.72099 0.0
Co374 Co 0.95965 0.56442 0.16248 0.0
Co375 Co 0.96177 0.60185 0.17786 0.0
C376 C 0.98612 0.57928 0.20793 0.0
O377 O 0.97817 0.56753 0.19521 0.0
O378 O 0.98192 0.59408 0.20191 0.0
C379 C 0.97534 0.53769 0.13098 0.0
O380 O 0.98702 0.54799 0.13402 0.0
C381 C 0.97048 0.63673 0.17649 0.0
C382 C 0.94783 0.64801 0.19584 0.0
C383 C 0.96326 0.65154 0.18546 0.0
N384 N 0.95973 0.62493 0.18145 0.0
N385 N 0.94621 0.63181 0.19272 0.0
C386 C 0.9875 0.63373 0.16593 0.0
H387 H 0.98989 0.62054 0.16123 0.0
H388 H 0.99041 0.64065 0.13971 0.0
H389 H 0.99522 0.6382 0.18875 0.0
C390 C 0.95715 0.57676 0.08387 0.0
N391 N 0.95957 0.57925 0.12095 0.0
N392 N 0.96034 0.59504 0.12697 0.0
C393 C 0.95821 0.60309 0.09383 0.0
C394 C 0.95636 0.59174 0.06544 0.0
C395 C 0.95367 0.5605 0.06713 0.0
H396 H 0.94581 0.5535 0.08642 0.0
H397 H 0.96495 0.55352 0.0633 0.0
H398 H 0.94791 0.56185 0.03915 0.0
O399 O 0.94026 0.56715 0.19369 0.0
O400 O 0.94335 0.5933 0.20703 0.0
H401 H 0.94725 0.62589 0.10889 0.0
H402 H 0.95424 0.62503 0.06027 0.0
C403 C 0.95682 0.62125 0.08987 0.0
H404 H 0.96811 0.62675 0.09861 0.0
H405 H 0.93591 0.6254 0.1989 0.0
O406 O 0.9616 0.54195 0.14276 0.0
C407 C 0.93574 0.58007 0.21068 0.0
Co408 Co 0.40781 0.0252 0.32973 0.0
Co409 Co 0.37256 0.02523 0.30365 0.0
C410 C 0.39063 0.99447 0.30682 0.0
O411 O 0.40234 0.0027 0.31762 0.0
O412 O 0.37734 0.00133 0.29943 0.0
C413 C 0.42773 0.01228 0.38378 0.0
O414 O 0.41435 0.00487 0.39135 0.0
C415 C 0.33818 0.02039 0.30165 0.0
C416 C 0.32993 0.04383 0.27648 0.0
C417 C 0.32463 0.0292 0.2915 0.0
N418 N 0.35086 0.02946 0.29308 0.0
N419 N 0.34587 0.04337 0.27769 0.0
C420 C 0.3391 0.00436 0.32226 0.0
H421 H 0.35033 0.00325 0.33832 0.0
H422 H 0.32884 0.00302 0.3419 0.0
H423 H 0.33886 0.99436 0.30136 0.0
C424 C 0.39362 0.04224 0.39461 0.0
N425 N 0.39229 0.03475 0.36123 0.0
N426 N 0.37719 0.0335 0.3528 0.0
C427 C 0.36841 0.03962 0.38185 0.0
C428 C 0.37863 0.04541 0.40906 0.0
C429 C 0.40898 0.04588 0.41318 0.0
H430 H 0.41842 0.0479 0.39168 0.0
H431 H 0.41238 0.0354 0.43165 0.0
H432 H 0.40772 0.05689 0.43103 0.0
O433 O 0.40997 0.03818 0.28344 0.0
O434 O 0.38494 0.03755 0.26417 0.0
H435 H 0.34585 0.0468 0.35937 0.0
H436 H 0.34629 0.04547 0.41049 0.0
C437 C 0.35069 0.03982 0.38387 0.0
H438 H 0.34637 0.02716 0.38233 0.0
H439 H 0.35334 0.05273 0.26903 0.0
O440 O 0.42808 0.02274 0.35695 0.0
C441 C 0.39928 0.04201 0.25956 0.0
Co442 Co 0.45057 0.41786 0.84279 0.0
Co443 Co 0.45358 0.38071 0.82557 0.0
C444 C 0.48022 0.40183 0.80811 0.0
O445 O 0.47146 0.41375 0.81884 0.0
O446 O 0.4754 0.38721 0.81012 0.0
C447 C 0.46042 0.45063 0.84971 0.0
O448 O 0.46726 0.44781 0.81681 0.0
C449 C 0.46163 0.34551 0.8271 0.0
C450 C 0.43802 0.33537 0.81574 0.0
C451 C 0.4536 0.33096 0.82367 0.0
N452 N 0.45117 0.35788 0.82171 0.0
N453 N 0.43714 0.35173 0.81463 0.0
C454 C 0.47853 0.34775 0.83826 0.0
H455 H 0.47993 0.35972 0.85214 0.0
H456 H 0.48253 0.33777 0.85762 0.0
H457 H 0.48614 0.34753 0.81247 0.0
C458 C 0.44399 0.40522 0.91933 0.0
N459 N 0.44746 0.40288 0.88256 0.0
N460 N 0.44898 0.38714 0.87612 0.0
C461 C 0.44654 0.37893 0.90894 0.0
C462 C 0.44327 0.39015 0.93717 0.0
C463 C 0.44206 0.42165 0.93714 0.0
H464 H 0.43281 0.42884 0.92185 0.0
H465 H 0.45339 0.42827 0.93441 0.0
H466 H 0.43881 0.42072 0.96758 0.0
O467 O 0.43371 0.41644 0.80533 0.0
O468 O 0.43762 0.39047 0.78992 0.0
H469 H 0.43809 0.35547 0.89375 0.0
H470 H 0.44407 0.35687 0.94259 0.0
C471 C 0.44687 0.36075 0.91312 0.0
H472 H 0.4588 0.35596 0.90515 0.0
H473 H 0.42688 0.35874 0.80985 0.0
O474 O 0.45147 0.4399 0.86422 0.0
C475 C 0.43041 0.40416 0.78534 0.0
Co476 Co 0.08513 0.43911 0.38777 0.0
Co477 Co 0.11881 0.44649 0.35533 0.0
C478 C 0.09416 0.4721 0.35416 0.0
O479 O 0.0849 0.46152 0.36801 0.0
O480 O 0.10871 0.46858 0.34799 0.0
C481 C 0.06578 0.45008 0.44355 0.0
O482 O 0.07881 0.45845 0.4474 0.0
C483 C 0.15057 0.45969 0.34296 0.0
C484 C 0.16319 0.43853 0.31753 0.0
C485 C 0.16518 0.45451 0.32863 0.0
N486 N 0.14048 0.44724 0.34062 0.0
N487 N 0.14806 0.43466 0.32534 0.0
C488 C 0.14575 0.47641 0.35589 0.0
H489 H 0.13669 0.48153 0.33627 0.0
H490 H 0.14016 0.47561 0.3844 0.0
H491 H 0.15584 0.48487 0.35629 0.0
C492 C 0.10397 0.42846 0.45344 0.0
N493 N 0.10292 0.43496 0.41849 0.0
N494 N 0.11718 0.43886 0.40634 0.0
C495 C 0.12778 0.43517 0.43383 0.0
C496 C 0.11963 0.42864 0.46457 0.0
C497 C 0.0904 0.42126 0.47518 0.0
H498 H 0.08116 0.41703 0.45562 0.0
H499 H 0.08517 0.43064 0.49423 0.0
H500 H 0.09456 0.41085 0.49308 0.0
O501 O 0.08502 0.4241 0.34501 0.0
O502 O 0.10869 0.4304 0.32113 0.0
H503 H 0.15014 0.43008 0.40712 0.0
H504 H 0.15141 0.43419 0.45724 0.0
C505 C 0.14527 0.43762 0.43055 0.0
H506 H 0.14758 0.45059 0.42357 0.0
H507 H 0.1429 0.42342 0.3203 0.0
O508 O 0.06548 0.43903 0.41853 0.0
C509 C 0.09585 0.42239 0.31989 0.0
Co510 Co 0.03067 0.08248 0.81202 0.0
Co511 Co 0.02731 0.11999 0.79509 0.0
C512 C 0.00158 0.0977 0.77561 0.0
O513 O 0.01026 0.08573 0.78647 0.0
O514 O 0.00605 0.11239 0.77859 0.0
C515 C 0.02085 0.04947 0.82606 0.0
O516 O 0.01094 0.05221 0.79812 0.0
C517 C 0.01771 0.15509 0.79667 0.0
C518 C 0.04072 0.16625 0.78241 0.0
C519 C 0.02506 0.17001 0.79144 0.0
N520 N 0.02865 0.14312 0.79133 0.0
N521 N 0.04233 0.14992 0.78268 0.0
C522 C 0.00053 0.15222 0.80503 0.0
H523 H 0.99685 0.14035 0.79373 0.0
H524 H 0.99858 0.15199 0.83612 0.0
H525 H 0.99299 0.1621 0.79255 0.0
C526 C 0.03467 0.09448 0.88916 0.0
N527 N 0.03241 0.09729 0.85207 0.0
N528 N 0.03147 0.11312 0.84571 0.0
C529 C 0.03348 0.12092 0.87884 0.0
C530 C 0.03538 0.1093 0.90743 0.0
C531 C 0.03662 0.07782 0.90645 0.0
H532 H 0.0462 0.07105 0.89126 0.0
H533 H 0.02539 0.07111 0.90338 0.0
H534 H 0.03962 0.07826 0.93684 0.0
O535 O 0.04796 0.08503 0.7751 0.0
O536 O 0.04398 0.11112 0.75974 0.0
H537 H 0.0422 0.14446 0.86374 0.0
H538 H 0.03584 0.14259 0.91271 0.0
C539 C 0.03328 0.13904 0.88317 0.0
H540 H 0.02144 0.144 0.87521 0.0
H541 H 0.05283 0.14337 0.77725 0.0
O542 O 0.03092 0.06023 0.83406 0.0
C543 C 0.05136 0.09754 0.75522 0.0
H544 H 0.96571 0.99708 0.66689 0.0
H545 H 0.98402 0.00675 0.61768 0.0
H546 H 0.97717 0.96265 0.55483 0.0
H547 H 0.95931 0.95265 0.60417 0.0
H548 H 0.01218 0.99353 0.58351 0.0
H549 H 0.96917 0.97767 0.45893 0.0
H550 H 0.94039 0.9756 0.44858 0.0
H551 H 0.93099 0.00635 0.54401 0.0
H552 H 0.95965 0.00906 0.55436 0.0
H553 H 0.05187 0.98139 0.4134 0.0
H554 H 0.03298 0.97847 0.46554 0.0
H555 H 0.01046 0.02428 0.43437 0.0
H556 H 0.02945 0.0274 0.38188 0.0
H557 H 0.98896 -0.00022 0.45528 0.0
H558 H 0.03424 0.02527 0.50116 0.0
H559 H 0.06283 0.02962 0.5099 0.0
H560 H 0.06675 0.98457 0.57251 0.0
H561 H 0.03828 0.97968 0.56312 0.0
C562 C 0.96839 0.98926 0.64305 0.0
C563 C 0.96084 0.9742 0.63914 0.0
C564 C 0.97881 0.99484 0.61497 0.0
C565 C 0.98162 0.98554 0.58242 0.0
C566 C 0.9749 0.97009 0.57955 0.0
C567 C 0.96471 0.9644 0.60781 0.0
C568 C 0.99092 0.99218 0.55039 0.0
C569 C 0.00713 0.99495 0.5555 0.0
C570 C 0.98406 0.99464 0.51424 0.0
C571 C 0.96668 0.99324 0.50799 0.0
C572 C 0.96099 0.98398 0.4778 0.0
C573 C 0.94468 0.98273 0.47185 0.0
C574 C 0.93388 0.99074 0.49578 0.0
C575 C 0.93937 6e-05 0.52565 0.0
C576 C 0.95567 0.00144 0.5316 0.0
C577 C 0.04279 0.99077 0.41723 0.0
C578 C 0.04223 0.00469 0.39372 0.0
C579 C 0.03205 0.98909 0.44712 0.0
C580 C 0.02055 0.00129 0.45403 0.0
C581 C 0.01933 0.01479 0.42945 0.0
C582 C 0.03017 0.01653 0.39953 0.0
C583 C 0.01033 7e-05 0.48804 0.0
C584 C 0.99396 0.99845 0.48337 0.0
C585 C 0.01695 0.99905 0.52471 0.0
C586 C 0.03407 0.00207 0.53124 0.0
C587 C 0.0412 0.01624 0.5166 0.0
C588 C 0.05739 0.0188 0.52166 0.0
C589 C 0.06659 0.0074 0.54182 0.0
C590 C 0.05961 0.99341 0.55692 0.0
C591 C 0.04343 0.99072 0.55171 0.0
H592 H 0.07913 0.00941 0.54572 0.0
H593 H 0.92127 0.98987 0.49093 0.0
H594 H 0.457 0.03176 0.89039 0.0
H595 H 0.46287 0.0139 0.94441 0.0
H596 H 0.51181 0.01004 0.90822 0.0
H597 H 0.50601 0.02767 0.85366 0.0
H598 H 0.50124 0.98136 0.93818 0.0
H599 H 0.50146 0.03797 0.97346 0.0
H600 H 0.48945 0.06563 0.97453 0.0
H601 H 0.4496 0.04758 0.03775 0.0
H602 H 0.46139 0.0198 0.03717 0.0
H603 H 0.53509 0.95687 0.11019 0.0
H604 H 0.52895 0.97447 0.05593 0.0
H605 H 0.48024 0.97871 0.09379 0.0
H606 H 0.48635 0.96138 0.14865 0.0
H607 H 0.49038 0.00706 0.06275 0.0
H608 H 0.49141 0.95023 0.02995 0.0
H609 H 0.50317 0.92255 0.02527 0.0
H610 H 0.54075 0.94095 0.95483 0.0
H611 H 0.52935 0.96877 0.95952 0.0
C612 C 0.46895 0.02687 0.89348 0.0
C613 C 0.4811 0.03134 0.86809 0.0
C614 C 0.47229 0.01671 0.92444 0.0
C615 C 0.48785 0.01101 0.93076 0.0
C616 C 0.49975 0.01443 0.90396 0.0
C617 C 0.4964 0.02452 0.87281 0.0
C618 C 0.49197 0.0026 0.96673 0.0
C619 C 0.49904 0.98702 0.96542 0.0
C620 C 0.48887 0.00996 0.00221 0.0
C621 C 0.48225 0.0268 0.005 0.0
C622 C 0.49016 0.03992 0.98773 0.0
C623 C 0.48341 0.05562 0.98829 0.0
C624 C 0.46879 0.05837 0.00623 0.0
C625 C 0.46096 0.04545 0.02404 0.0
C626 C 0.4677 0.02973 0.02371 0.0
C627 C 0.52313 0.96178 0.10741 0.0
C628 C 0.51111 0.9574 0.13325 0.0
C629 C 0.51963 0.97178 0.07628 0.0
C630 C 0.50404 0.97748 0.07029 0.0
C631 C 0.49231 0.97426 0.09767 0.0
C632 C 0.49583 0.96432 0.12897 0.0
C633 C 0.49975 0.98578 0.03429 0.0
C634 C 0.49261 0.00137 0.03557 0.0
C635 C 0.50286 0.97843 0.99874 0.0
C636 C 0.50962 0.96163 0.99548 0.0
C637 C 0.50224 0.94839 0.01368 0.0
C638 C 0.50882 0.93267 0.01094 0.0
C639 C 0.52269 0.92999 0.98979 0.0
C640 C 0.52999 0.94302 0.97119 0.0
C641 C 0.52347 0.95878 0.97388 0.0
H642 H 0.52778 0.91781 0.98793 0.0
H643 H 0.46352 0.0705 0.00612 0.0
H644 H 0.55102 0.52425 0.57484 0.0
H645 H 0.5301 0.51408 0.53537 0.0
H646 H 0.49522 0.52768 0.62018 0.0
H647 H 0.51646 0.53721 0.66109 0.0
H648 H 0.48978 0.49854 0.59704 0.0
H649 H 0.50029 0.54905 0.53158 0.0
H650 H 0.51738 0.56953 0.50092 0.0
H651 H 0.53265 0.53434 0.41845 0.0
H652 H 0.51581 0.51358 0.4489 0.0
H653 H 0.42328 0.49185 0.47525 0.0
H654 H 0.44428 0.50078 0.51704 0.0
H655 H 0.4795 0.47842 0.44389 0.0
H656 H 0.4584 0.4691 0.4021 0.0
H657 H 0.48451 0.51195 0.46035 0.0
H658 H 0.47738 0.46119 0.52867 0.0
H659 H 0.4628 0.43936 0.56184 0.0
H660 H 0.4418 0.47459 0.63716 0.0
H661 H 0.45654 0.49658 0.6049 0.0
C662 C 0.53889 0.52537 0.58496 0.0
C663 C 0.53536 0.53165 0.62103 0.0
C664 C 0.52689 0.51959 0.56218 0.0
C665 C 0.51102 0.5204 0.57439 0.0
C666 C 0.50739 0.52699 0.61011 0.0
C667 C 0.51949 0.53249 0.63337 0.0
C668 C 0.49842 0.51341 0.55079 0.0
C669 C 0.48845 0.50174 0.56734 0.0
C670 C 0.49704 0.51712 0.51165 0.0
C671 C 0.50684 0.52973 0.49266 0.0
C672 C 0.50733 0.54567 0.50698 0.0
C673 C 0.51697 0.55732 0.48963 0.0
C674 C 0.52609 0.55323 0.45777 0.0
C675 C 0.52554 0.5375 0.44308 0.0
C676 C 0.51594 0.52579 0.46034 0.0
C677 C 0.43549 0.48867 0.46827 0.0
C678 C 0.43927 0.47988 0.43538 0.0
C679 C 0.44744 0.49369 0.49229 0.0
C680 C 0.46338 0.4902 0.48353 0.0
C681 C 0.46722 0.48115 0.45108 0.0
C682 C 0.4552 0.47584 0.42734 0.0
C683 C 0.47598 0.4972 0.50678 0.0
C684 C 0.48587 0.50888 0.49013 0.0
C685 C 0.47733 0.49351 0.54575 0.0
C686 C 0.46794 0.48051 0.56422 0.0
C687 C 0.46958 0.46427 0.55219 0.0
C688 C 0.46142 0.45186 0.57105 0.0
C689 C 0.45138 0.45558 0.60159 0.0
C690 C 0.44959 0.47172 0.61352 0.0
C691 C 0.45792 0.48415 0.59512 0.0
H692 H 0.44495 0.44598 0.6159 0.0
H693 H 0.5336 0.56225 0.44448 0.0
H694 H 0.00307 0.52607 0.10078 0.0
H695 H 0.00692 0.5025 0.06004 0.0
H696 H 0.95734 0.49113 0.0717 0.0
H697 H 0.95329 0.51487 0.11268 0.0
H698 H 0.97813 0.46333 0.07514 0.0
H699 H 0.96708 0.50892 0.9954 0.0
H700 H 0.96944 0.53725 0.97227 0.0
H701 H 0.01832 0.52812 0.94273 0.0
H702 H 0.01636 0.4998 0.96641 0.0
H703 H 0.98584 0.40875 0.91795 0.0
H704 H 0.97604 0.43129 0.95763 0.0
H705 H 0.02308 0.45124 0.95873 0.0
H706 H 0.03279 0.42888 0.9186 0.0
H707 H -0.00053 0.47472 0.94625 0.0
H708 H 0.0096 0.42864 0.03034 0.0
H709 H 0.00591 0.40039 0.053 0.0
H710 H 0.95642 0.41065 0.07313 0.0
H711 H 0.95974 0.43884 0.04959 0.0
C712 C 0.99298 0.5185 0.09505 0.0
C713 C 0.97784 0.52241 0.10973 0.0
C714 C 0.99521 0.50505 0.0717 0.0
C715 C 0.98237 0.49524 0.06253 0.0
C716 C 0.96737 0.49861 0.07844 0.0
C717 C 0.96509 0.51217 0.10177 0.0
C718 C 0.98468 0.48197 0.03487 0.0
C719 C 0.98251 0.46578 0.04671 0.0
C720 C 0.9904 0.48528 0.99786 0.0
C721 C 0.99161 0.50224 0.98297 0.0
C722 C 0.97838 0.51297 0.98423 0.0
C723 C 0.97963 0.52903 0.971 0.0
C724 C 0.99403 0.53449 0.95608 0.0
C725 C 0.00718 0.52388 0.95431 0.0
C726 C 0.006 0.50781 0.96762 0.0
C727 C 0.99401 0.41804 0.92657 0.0
C728 C 0.01006 0.41709 0.91575 0.0
C729 C 0.98844 0.43083 0.94924 0.0
C730 C 0.99888 0.44283 0.96133 0.0
C731 C 0.01485 0.44208 0.94971 0.0
C732 C 0.02041 0.42929 0.92712 0.0
C733 C 0.99336 0.45601 0.98683 0.0
C734 C 0.9949 0.47224 0.97451 0.0
C735 C 0.98682 0.45271 0.02315 0.0
C736 C 0.98489 0.43581 0.03777 0.0
C737 C 0.99791 0.42483 0.03927 0.0
C738 C 0.99588 0.40883 0.0523 0.0
C739 C 0.98094 0.40373 0.06447 0.0
C740 C 0.96799 0.41462 0.06364 0.0
C741 C 0.96993 0.4306 0.0504 0.0
H742 H 0.9794 0.39135 0.07461 0.0
H743 H 0.99498 0.54693 0.94585 0.0
H744 H 0.53602 0.95916 0.61051 0.0
H745 H 0.51274 0.96533 0.5716 0.0
H746 H 0.54072 0.9973 0.50102 0.0
H747 H 0.56387 0.9915 0.54007 0.0
H748 H 0.51403 0.01194 0.52181 0.0
H749 H 0.52641 0.95999 0.46004 0.0
H750 H 0.53258 0.93044 0.45743 0.0
H751 H 0.49127 0.92046 0.52523 0.0
H752 H 0.48466 0.94992 0.52735 0.0
H753 H 0.45758 0.02451 0.37498 0.0
H754 H 0.48103 0.01781 0.4128 0.0
H755 H 0.45319 0.98554 0.48294 0.0
H756 H 0.42985 0.99183 0.44482 0.0
H757 H 0.47987 0.97099 0.46217 0.0
H758 H 0.46821 0.023 0.52644 0.0
H759 H 0.46216 0.05258 0.52946 0.0
H760 H 0.50212 0.06237 0.45696 0.0
H761 H 0.50864 0.03288 0.45448 0.0
C762 C 0.53721 0.96744 0.5866 0.0
C763 C 0.55175 0.97491 0.57848 0.0
C764 C 0.52395 0.97083 0.56417 0.0
C765 C 0.52506 0.98163 0.53317 0.0
C766 C 0.53961 0.98893 0.52481 0.0
C767 C 0.55282 0.98562 0.54724 0.0
C768 C 0.51081 0.98635 0.51117 0.0
C769 C 0.50669 0.00298 0.5083 0.0
C770 C 0.50099 0.9747 0.49442 0.0
C771 C 0.50518 0.9571 0.49426 0.0
C772 C 0.51873 0.95148 0.47459 0.0
C773 C 0.52225 0.93476 0.47304 0.0
C774 C 0.51243 0.9236 0.49149 0.0
C775 C 0.49892 0.92912 0.51111 0.0
C776 C 0.49522 0.94581 0.51229 0.0
C777 C 0.45646 0.01603 0.39853 0.0
C778 C 0.44189 0.00866 0.40685 0.0
C779 C 0.46982 0.01234 0.42036 0.0
C780 C 0.46879 0.00135 0.45102 0.0
C781 C 0.45423 0.99406 0.45944 0.0
C782 C 0.44091 0.99767 0.43756 0.0
C783 C 0.48309 0.99658 0.47281 0.0
C784 C 0.48721 0.97994 0.47566 0.0
C785 C 0.49292 0.00822 0.48954 0.0
C786 C 0.48875 0.02581 0.48985 0.0
C787 C 0.47562 0.03148 0.51097 0.0
C788 C 0.47216 0.04821 0.51274 0.0
C789 C 0.48164 0.05933 0.49308 0.0
C790 C 0.49473 0.05375 0.47201 0.0
C791 C 0.49838 0.03705 0.47062 0.0
H792 H 0.47889 0.07226 0.49434 0.0
H793 H 0.51522 0.91067 0.49039 0.0
H794 H 0.54655 0.53347 0.07483 0.0
H795 H 0.53601 0.51699 0.02384 0.0
H796 H 0.49481 0.50636 0.09265 0.0
H797 H 0.50559 0.52217 0.1442 0.0
H798 H 0.50212 0.48112 0.05144 0.0
H799 H 0.49666 0.53928 0.02794 0.0
H800 H 0.50681 0.56712 0.0192 0.0
H801 H 0.53432 0.55139 0.92291 0.0
H802 H 0.52462 0.52335 0.93163 0.0
H803 H 0.44683 0.46217 0.91468 0.0
H804 H 0.4596 0.47871 0.96239 0.0
H805 H 0.50032 0.48428 0.88877 0.0
H806 H 0.48748 0.46811 0.84053 0.0
H807 H 0.49467 0.51148 0.93033 0.0
H808 H 0.49869 0.45376 0.95159 0.0
H809 H 0.48828 0.42602 0.95982 0.0
H810 H 0.463 0.44107 0.06001 0.0
H811 H 0.47306 0.469 0.05196 0.0
C812 C 0.53544 0.52727 0.07939 0.0
C813 C 0.52679 0.52927 0.11329 0.0
C814 C 0.52938 0.51796 0.05015 0.0
C815 C 0.51439 0.51089 0.05401 0.0
C816 C 0.50633 0.51184 0.0889 0.0
C817 C 0.51252 0.52088 0.11839 0.0
C818 C 0.50647 0.50356 0.02112 0.0
C819 C 0.50037 0.48782 0.0251 0.0
C820 C 0.50447 0.51221 0.98642 0.0
C821 C 0.51006 0.52916 0.98073 0.0
C822 C 0.50496 0.54173 0.00506 0.0
C823 C 0.51064 0.55754 0.00013 0.0
C824 C 0.52125 0.56101 0.97062 0.0
C825 C 0.52615 0.54868 0.94586 0.0
C826 C 0.52057 0.53282 0.95081 0.0
C827 C 0.45831 0.4673 0.90824 0.0
C828 C 0.46625 0.46367 0.87411 0.0
C829 C 0.46562 0.47667 0.93557 0.0
C830 C 0.48107 0.48231 0.92944 0.0
C831 C 0.48844 0.47993 0.89411 0.0
C832 C 0.48106 0.4707 0.86656 0.0
C833 C 0.4901 0.48921 0.96102 0.0
C834 C 0.49646 0.50481 0.95669 0.0
C835 C 0.4923 0.48045 0.99545 0.0
C836 C 0.48656 0.46353 0.00098 0.0
C837 C 0.49089 0.45117 0.97531 0.0
C838 C 0.48503 0.43542 0.97992 0.0
C839 C 0.47495 0.43179 0.01038 0.0
C840 C 0.47079 0.4439 0.03639 0.0
C841 C 0.47657 0.4597 0.03181 0.0
H842 H 0.47038 0.4196 0.01383 0.0
H843 H 0.52565 0.57325 0.96688 0.0
H844 H 0.95574 0.53694 0.59742 0.0
H845 H 0.98009 0.52304 0.57602 0.0
H846 H 0.95313 0.49535 0.4966 0.0
H847 H 0.92878 0.50906 0.51787 0.0
H848 H 0.97173 0.47593 0.54075 0.0
H849 H 0.97766 0.52443 0.46483 0.0
H850 H 0.97953 0.5539 0.45116 0.0
H851 H 0.01971 0.55677 0.52459 0.0
H852 H 0.01794 0.52735 0.53912 0.0
H853 H 0.03504 0.44171 0.42999 0.0
H854 H 0.01116 0.45443 0.45744 0.0
H855 H 0.04016 0.48262 0.53163 0.0
H856 H 0.06402 0.47015 0.50411 0.0
H857 H 0.02073 0.50176 0.49228 0.0
H858 H 0.01589 0.45342 0.56701 0.0
H859 H 0.0145 0.42395 0.58102 0.0
H860 H 0.97284 0.42071 0.51258 0.0
H861 H 0.9741 0.45013 0.49769 0.0
C862 C 0.95505 0.52815 0.57483 0.0
C863 C 0.94034 0.52404 0.55943 0.0
C864 C 0.96896 0.52022 0.56266 0.0
C865 C 0.96836 0.50817 0.5348 0.0
C866 C 0.9538 0.50457 0.51828 0.0
C867 C 0.93991 0.51247 0.53038 0.0
C868 C 0.98271 0.49853 0.52458 0.0
C869 C 0.98242 0.48153 0.5298 0.0
C870 C 0.99672 0.50595 0.51129 0.0
C871 C 0.99753 0.52373 0.50344 0.0
C872 C 0.98677 0.53138 0.47844 0.0
C873 C 0.98784 0.54807 0.47044 0.0
C874 C -0.0003 0.55721 0.4871 0.0
C875 C 0.0105 0.54969 0.51181 0.0
C876 C 0.00946 0.53301 0.51996 0.0
C877 C 0.03629 0.45032 0.45279 0.0
C878 C 0.05137 0.4551 0.46459 0.0
C879 C 0.02265 0.45755 0.4685 0.0
C880 C 0.02392 0.4695 0.49646 0.0
C881 C 0.03894 0.47349 0.50991 0.0
C882 C 0.05255 0.46634 0.49416 0.0
C883 C 0.00982 0.47913 0.50865 0.0
C884 C 0.01012 0.49614 0.50363 0.0
C885 C 0.99588 0.47173 0.52246 0.0
C886 C 0.9952 0.45397 0.53088 0.0
C887 C 0.00653 0.4464 0.55459 0.0
C888 C 0.00574 0.42971 0.56278 0.0
C889 C 0.99362 0.42046 0.54761 0.0
C890 C 0.98224 0.42789 0.52427 0.0
C891 C 0.98298 0.44458 0.51596 0.0
H892 H 0.99302 0.40754 0.55402 0.0
H893 H 0.00054 0.57012 0.48079 0.0
H894 H 0.96048 0.94597 0.05516 0.0
H895 H 0.96797 0.96555 0.006 0.0
H896 H 0.00319 0.98531 0.07965 0.0
H897 H 0.99575 0.96575 0.12927 0.0
H898 H 0.98812 0.00927 0.03468 0.0
H899 H 0.01587 0.95878 0.02074 0.0
H900 H 0.01891 0.92886 0.01784 0.0
H901 H 0.9893 0.92815 0.91956 0.0
H902 H 0.98591 0.95813 0.92218 0.0
H903 H 0.03765 0.04188 0.88996 0.0
H904 H 0.02964 0.02354 0.94129 0.0
H905 H 0.99004 0.00789 0.87528 0.0
H906 H 0.99764 0.02658 0.82403 0.0
H907 H 0.00789 0.98233 0.9176 0.0
H908 H 0.9834 0.03579 0.93193 0.0
H909 H 0.98389 0.06571 0.93758 0.0
H910 H 0.0107 0.06104 0.0399 0.0
H911 H 0.01093 0.03106 0.03424 0.0
C912 C 0.96961 0.95467 0.06126 0.0
C913 C 0.9777 0.95414 0.09593 0.0
C914 C 0.97388 0.96584 0.0331 0.0
C915 C 0.9863 0.97666 0.03905 0.0
C916 C 0.9936 0.97701 0.07455 0.0
C917 C 0.98936 0.96579 0.1028 0.0
C918 C 0.99264 0.98636 0.00698 0.0
C919 C 0.99258 0.00343 0.0092 0.0
C920 C 0.9985 0.97865 0.9739 0.0
C921 C 0.00053 0.96066 0.97186 0.0
C922 C 0.00991 0.95224 0.99867 0.0
C923 C 0.01171 0.93528 0.99706 0.0
C924 C 0.00429 0.92663 0.96856 0.0
C925 C 0.99504 0.9349 0.94161 0.0
C926 C 0.99319 0.95187 0.94312 0.0
C927 C 0.02732 0.03444 0.8861 0.0
C928 C 0.01808 0.03595 0.85322 0.0
C929 C 0.0228 0.02398 0.91548 0.0
C930 C 0.00912 0.01467 0.91219 0.0
C931 C 0.00058 0.01512 0.87829 0.0
C932 C 0.00497 0.02577 0.84905 0.0
C933 C 0.00315 0.00526 0.945 0.0
C934 C 0.00335 0.98821 0.94297 0.0
C935 C 0.9978 0.01304 0.97855 0.0
C936 C 0.99744 0.03111 0.98225 0.0
C937 C 0.98964 0.0411 0.95533 0.0
C938 C 0.98977 0.05809 0.95854 0.0
C939 C 0.99742 0.06526 0.98891 0.0
C940 C 0.00489 0.05545 0.01624 0.0
C941 C 0.00491 0.03846 0.01301 0.0
H942 H 0.99745 0.0784 0.99144 0.0
H943 H 0.0058 0.91352 0.96734 0.0
H944 H 0.10041 0.07132 0.21982 0.0
H945 H 0.09168 0.08764 0.16497 0.0
H946 H 0.04494 0.06743 0.17518 0.0
H947 H 0.05339 0.05134 0.23024 0.0
H948 H 0.06314 0.06303 0.10265 0.0
H949 H 0.04612 0.10374 0.19394 0.0
H950 H 0.05041 0.1227 0.24647 0.0
H951 H 0.08518 0.14804 0.17979 0.0
H952 H 0.08126 0.12906 0.12703 0.0
H953 H 0.0167 0.09934 0.96519 0.0
H954 H 0.02515 0.09442 0.03049 0.0
H955 H 0.06925 0.11851 0.00644 0.0
H956 H 0.06091 0.12305 0.94049 0.0
H957 H 0.05474 0.12276 0.08568 0.0
H958 H 0.07399 0.08365 0.99721 0.0
H959 H 0.07373 0.06407 0.94477 0.0
H960 H 0.03965 0.0352 0.00506 0.0
H961 H 0.0395 0.05477 0.05773 0.0
C962 C 0.0882 0.07057 0.21077 0.0
C963 C 0.07762 0.05995 0.22919 0.0
C964 C 0.08323 0.07996 0.17962 0.0
C965 C 0.06769 0.07872 0.16628 0.0
C966 C 0.05697 0.06858 0.18533 0.0
C967 C 0.06183 0.0594 0.21676 0.0
C968 C 0.06309 0.08638 0.12991 0.0
C969 C 0.06109 0.07606 0.09904 0.0
C970 C 0.06122 0.10345 0.12503 0.0
C971 C 0.06353 0.11486 0.1567 0.0
C972 C 0.05481 0.11324 0.19062 0.0
C973 C 0.05714 0.12402 0.2204 0.0
C974 C 0.06809 0.13653 0.21652 0.0
C975 C 0.07671 0.13832 0.18278 0.0
C976 C 0.07443 0.12757 0.15292 0.0
C977 C 0.02792 0.10413 0.97434 0.0
C978 C 0.03823 0.11145 0.94813 0.0
C979 C 0.03276 0.10128 0.01148 0.0
C980 C 0.04788 0.10595 0.02298 0.0
C981 C 0.05753 0.11486 0.99795 0.0
C982 C 0.05275 0.11751 0.96047 0.0
C983 C 0.05431 0.0993 0.05883 0.0
C984 C 0.05677 0.10974 0.08938 0.0
C985 C 0.05704 0.08232 0.06337 0.0
C986 C 0.05646 0.07089 0.03106 0.0
C987 C 0.06619 0.07331 0.999 0.0
C988 C 0.06622 0.06214 0.96936 0.0
C989 C 0.05657 0.04847 0.97146 0.0
C990 C 0.04696 0.04589 0.00331 0.0
C991 C 0.04693 0.05701 0.03309 0.0
H992 H 0.05663 0.03983 0.9485 0.0
H993 H 0.06988 0.14486 0.2396 0.0
H994 H 0.42492 0.10606 0.70946 0.0
H995 H 0.40747 0.09885 0.65761 0.0
H996 H 0.41485 0.04778 0.68387 0.0
H997 H 0.4324 0.05483 0.73561 0.0
H998 H 0.42186 0.05534 0.61105 0.0
H999 H 0.37872 0.06565 0.69728 0.0
H1000 H 0.36297 0.08159 0.74351 0.0
H1001 H 0.3549 0.1192 0.65997 0.0
H1002 H 0.3708 0.1036 0.61336 0.0
H1003 H 0.37415 0.02541 0.46896 0.0
H1004 H 0.37877 0.0324 0.53522 0.0
H1005 H 0.3822 0.08317 0.50357 0.0
H1006 H 0.37776 0.07612 0.43708 0.0
H1007 H 0.36718 0.07491 0.58184 0.0
H1008 H 0.41781 0.0713 0.51085 0.0
H1009 H 0.43728 0.05922 0.46607 0.0
H1010 H 0.43209 0.01237 0.51982 0.0
H1011 H 0.41284 0.02431 0.56551 0.0
C1012 C 0.4227 0.09329 0.70452 0.0
C1013 C 0.43023 0.08101 0.72642 0.0
C1014 C 0.41258 0.0892 0.6751 0.0
C1015 C 0.40977 0.07278 0.66711 0.0
C1016 C 0.41682 0.06053 0.68973 0.0
C1017 C 0.4269 0.06459 0.71919 0.0
C1018 C 0.40125 0.06835 0.63231 0.0
C1019 C 0.40975 0.05928 0.60527 0.0
C1020 C 0.3857 0.07411 0.62396 0.0
C1021 C 0.37607 0.0835 0.65189 0.0
C1022 C 0.3737 0.07738 0.68883 0.0
C1023 C 0.36472 0.08635 0.7151 0.0
C1024 C 0.35796 0.10141 0.7047 0.0
C1025 C 0.36014 0.10753 0.66799 0.0
C1026 C 0.36912 0.09862 0.64161 0.0
C1027 C 0.37507 0.03814 0.47655 0.0
C1028 C 0.37536 0.0503 0.44835 0.0
C1029 C 0.37782 0.0421 0.51424 0.0
C1030 C 0.38083 0.05829 0.52413 0.0
C1031 C 0.37971 0.07065 0.49647 0.0
C1032 C 0.37709 0.06665 0.45865 0.0
C1033 C 0.38781 0.06174 0.56138 0.0
C1034 C 0.37913 0.07069 0.58842 0.0
C1035 C 0.40332 0.05617 0.56986 0.0
C1036 C 0.4138 0.0486 0.54105 0.0
C1037 C 0.42072 0.05839 0.51279 0.0
C1038 C 0.43179 0.05162 0.48754 0.0
C1039 C 0.43581 0.03505 0.49001 0.0
C1040 C 0.42886 0.02519 0.51785 0.0
C1041 C 0.41794 0.03196 0.54355 0.0
H1042 H 0.44446 0.02993 0.47057 0.0
H1043 H 0.35101 0.10833 0.72508 0.0
H1044 H 0.42783 0.42157 0.28846 0.0
H1045 H 0.4365 0.40487 0.23497 0.0
H1046 H 0.39201 0.41499 0.17918 0.0
H1047 H 0.38309 0.43142 0.23272 0.0
H1048 H 0.40221 0.38413 0.16589 0.0
H1049 H 0.42435 0.43851 0.16247 0.0
H1050 H 0.43988 0.46122 0.18722 0.0
H1051 H 0.48145 0.43018 0.19162 0.0
H1052 H 0.46609 0.40721 0.16735 0.0
H1053 H 0.41485 0.39513 0.97106 0.0
H1054 H 0.40912 0.39472 0.03908 0.0
H1055 H 0.45728 0.37867 0.06105 0.0
H1056 H 0.46297 0.37907 0.99257 0.0
H1057 H 0.44914 0.40624 0.09833 0.0
H1058 H 0.42721 0.35387 0.08522 0.0
H1059 H 0.41109 0.33247 0.05681 0.0
H1060 H 0.3686 0.36046 0.08001 0.0
H1061 H 0.38447 0.38216 0.10804 0.0
C1062 C 0.41977 0.42004 0.2651 0.0
C1063 C 0.40486 0.42806 0.26458 0.0
C1064 C 0.42476 0.41048 0.23457 0.0
C1065 C 0.415 0.40893 0.20287 0.0
C1066 C 0.39973 0.41605 0.20336 0.0
C1067 C 0.39469 0.42553 0.23393 0.0
C1068 C 0.42114 0.40139 0.16763 0.0
C1069 C 0.41249 0.3889 0.15107 0.0
C1070 C 0.43482 0.40733 0.14889 0.0
C1071 C 0.44402 0.4211 0.16367 0.0
C1072 C 0.43676 0.43649 0.16906 0.0
C1073 C 0.44554 0.44941 0.18293 0.0
C1074 C 0.46163 0.44713 0.19113 0.0
C1075 C 0.46898 0.43192 0.18537 0.0
C1076 C 0.46024 0.41895 0.17158 0.0
C1077 C 0.42403 0.39107 0.99049 0.0
C1078 C 0.43929 0.38708 0.9771 0.0
C1079 C 0.42076 0.39075 0.02922 0.0
C1080 C 0.43274 0.38649 0.05508 0.0
C1081 C 0.44785 0.38183 0.0415 0.0
C1082 C 0.45109 0.38203 0.0026 0.0
C1083 C 0.42994 0.38929 0.09592 0.0
C1084 C 0.43919 0.401 0.11357 0.0
C1085 C 0.41672 0.38274 0.11536 0.0
C1086 C 0.40707 0.36969 0.09864 0.0
C1087 C 0.41444 0.35552 0.08405 0.0
C1088 C 0.40534 0.34333 0.06804 0.0
C1089 C 0.38883 0.34511 0.06658 0.0
C1090 C 0.38139 0.35909 0.08119 0.0
C1091 C 0.39043 0.37133 0.09721 0.0
H1092 H 0.38181 0.33566 0.05417 0.0
H1093 H 0.46841 0.45715 0.20183 0.0
H1094 H 0.11463 0.44389 0.5305 0.0
H1095 H 0.11356 0.43054 0.59221 0.0
H1096 H 0.13505 0.38706 0.54447 0.0
H1097 H 0.13566 0.40051 0.48203 0.0
H1098 H 0.1082 0.37994 0.57261 0.0
H1099 H 0.15159 0.40656 0.62389 0.0
H1100 H 0.16979 0.4289 0.63763 0.0
H1101 H 0.13256 0.45433 0.69782 0.0
H1102 H 0.11406 0.43228 0.68398 0.0
H1103 H 0.08452 0.37055 0.78837 0.0
H1104 H 0.10479 0.37591 0.74001 0.0
H1105 H 0.06811 0.38666 0.65856 0.0
H1106 H 0.04782 0.3811 0.70631 0.0
H1107 H 0.11142 0.40294 0.70157 0.0
H1108 H 0.07858 0.37506 0.57297 0.0
H1109 H 0.06174 0.35149 0.56022 0.0
H1110 H 0.08143 0.32591 0.65607 0.0
H1111 H 0.09857 0.34922 0.6691 0.0
C1112 C 0.11993 0.43181 0.53371 0.0
C1113 C 0.12532 0.42321 0.5019 0.0
C1114 C 0.11934 0.42413 0.56906 0.0
C1115 C 0.12422 0.40773 0.57319 0.0
C1116 C 0.13122 0.39971 0.54202 0.0
C1117 C 0.13174 0.40742 0.50647 0.0
C1118 C 0.11879 0.39836 0.60699 0.0
C1119 C 0.10919 0.3848 0.60091 0.0
C1120 C 0.12034 0.40437 0.6442 0.0
C1121 C 0.13141 0.41772 0.65284 0.0
C1122 C 0.14725 0.41695 0.63988 0.0
C1123 C 0.15763 0.42957 0.64771 0.0
C1124 C 0.15234 0.44302 0.66859 0.0
C1125 C 0.13666 0.44388 0.68171 0.0
C1126 C 0.12622 0.4313 0.67396 0.0
C1127 C 0.08076 0.37393 0.76006 0.0
C1128 C 0.06451 0.37535 0.75119 0.0
C1129 C 0.09238 0.37701 0.73251 0.0
C1130 C 0.08798 0.38146 0.69556 0.0
C1131 C 0.0718 0.3829 0.68669 0.0
C1132 C 0.06019 0.37981 0.71412 0.0
C1133 C 0.10014 0.38535 0.66636 0.0
C1134 C 0.1109 0.39781 0.67344 0.0
C1135 C 0.09994 0.37814 0.63018 0.0
C1136 C 0.08983 0.36394 0.62209 0.0
C1137 C 0.07941 0.36437 0.59117 0.0
C1138 C 0.06979 0.35106 0.58394 0.0
C1139 C 0.0705 0.33722 0.60735 0.0
C1140 C 0.08087 0.33665 0.63801 0.0
C1141 C 0.09052 0.34991 0.64536 0.0
H1142 H 0.06303 0.32694 0.60171 0.0
H1143 H 0.16039 0.45278 0.67461 0.0
H1144 H 0.56612 0.92848 0.74263 0.0
H1145 H 0.55776 0.91434 0.80029 0.0
H1146 H 0.60294 0.92402 0.85125 0.0
H1147 H 0.61157 0.93788 0.79318 0.0
H1148 H 0.59413 0.89418 0.86905 0.0
H1149 H 0.56962 0.94713 0.87126 0.0
H1150 H 0.55338 0.97082 0.85029 0.0
H1151 H 0.51211 0.94094 0.84725 0.0
H1152 H 0.52814 0.91699 0.86762 0.0
H1153 H 0.57178 0.89459 0.06405 0.0
H1154 H 0.58137 0.89819 0.99886 0.0
H1155 H 0.53621 0.88242 0.95717 0.0
H1156 H 0.52663 0.87893 0.02265 0.0
H1157 H 0.54399 0.91225 0.93138 0.0
H1158 H 0.56973 0.86008 0.93905 0.0
H1159 H 0.58669 0.83846 0.96733 0.0
H1160 H 0.62697 0.86969 0.95964 0.0
H1161 H 0.61021 0.89161 0.93182 0.0
C1162 C 0.57433 0.92757 0.76601 0.0
C1163 C 0.58947 0.93445 0.76341 0.0
C1164 C 0.5695 0.9195 0.79901 0.0
C1165 C 0.57962 0.91835 0.8303 0.0
C1166 C 0.59492 0.92479 0.82745 0.0
C1167 C 0.59982 0.93275 0.79428 0.0
C1168 C 0.57407 0.91085 0.8663 0.0
C1169 C 0.58325 0.89826 0.88294 0.0
C1170 C 0.55971 0.91594 0.88404 0.0
C1171 C 0.55015 0.93019 0.87034 0.0
C1172 C 0.55713 0.94555 0.86557 0.0
C1173 C 0.54796 0.95904 0.85393 0.0
C1174 C 0.53175 0.95737 0.84728 0.0
C1175 C 0.52468 0.9422 0.85227 0.0
C1176 C 0.53381 0.92866 0.86382 0.0
C1177 C 0.56417 0.89136 0.04083 0.0
C1178 C 0.5486 0.88636 0.04785 0.0
C1179 C 0.56962 0.89337 0.0037 0.0
C1180 C 0.55953 0.89044 0.97318 0.0
C1181 C 0.54421 0.8846 0.98035 0.0
C1182 C 0.53877 0.88256 0.01755 0.0
C1183 C 0.56415 0.89585 0.93458 0.0
C1184 C 0.55479 0.90808 0.91738 0.0
C1185 C 0.57851 0.89073 0.91703 0.0
C1186 C 0.58867 0.87753 0.93355 0.0
C1187 C 0.58218 0.86239 0.94364 0.0
C1188 C 0.59177 0.85007 0.95955 0.0
C1189 C 0.6079 0.85271 0.96533 0.0
C1190 C 0.61448 0.86767 0.95514 0.0
C1191 C 0.60494 0.88003 0.93924 0.0
H1192 H 0.6153 0.84315 0.97766 0.0
H1193 H 0.52466 0.96785 0.8384 0.0
H1194 H 0.57345 0.60498 0.27152 0.0
H1195 H 0.58987 0.59676 0.32535 0.0
H1196 H 0.59106 0.54715 0.28577 0.0
H1197 H 0.57462 0.55518 0.23197 0.0
H1198 H 0.57963 0.55 0.35781 0.0
H1199 H 0.62471 0.56833 0.28712 0.0
H1200 H 0.6402 0.58773 0.24864 0.0
H1201 H 0.6391 0.62187 0.34004 0.0
H1202 H 0.62339 0.60278 0.37891 0.0
H1203 H 0.61888 0.5218 0.51859 0.0
H1204 H 0.61667 0.52786 0.45067 0.0
H1205 H 0.61435 0.57938 0.47462 0.0
H1206 H 0.61672 0.57326 0.54245 0.0
H1207 H 0.62924 0.57349 0.40643 0.0
H1208 H 0.57868 0.56063 0.46653 0.0
H1209 H 0.55962 0.54443 0.50409 0.0
H1210 H 0.5692 0.50289 0.43392 0.0
H1211 H 0.58806 0.51898 0.39547 0.0
C1212 C 0.57744 0.59238 0.27384 0.0
C1213 C 0.57253 0.5807 0.24769 0.0
C1214 C 0.58693 0.58773 0.30449 0.0
C1215 C 0.5917 0.57136 0.30944 0.0
C1216 C 0.58751 0.55985 0.28236 0.0
C1217 C 0.57808 0.56448 0.25167 0.0
C1218 C 0.59913 0.56588 0.34529 0.0
C1219 C 0.59072 0.5548 0.36794 0.0
C1220 C 0.61325 0.57266 0.35907 0.0
C1221 C 0.62277 0.58415 0.33585 0.0
C1222 C 0.62766 0.58002 0.29893 0.0
C1223 C 0.6365 0.59096 0.27706 0.0
C1224 C 0.64061 0.60603 0.29186 0.0
C1225 C 0.63591 0.61019 0.32861 0.0
C1226 C 0.62705 0.5993 0.35059 0.0
C1227 C 0.61867 0.53441 0.50903 0.0
C1228 C 0.61814 0.54711 0.53528 0.0
C1229 C 0.61721 0.53787 0.4704 0.0
C1230 C 0.61505 0.55406 0.45776 0.0
C1231 C 0.61601 0.56682 0.48379 0.0
C1232 C 0.61748 0.56335 0.52242 0.0
C1233 C 0.60975 0.55757 0.41863 0.0
C1234 C 0.61841 0.56838 0.39567 0.0
C1235 C 0.59566 0.55083 0.4046 0.0
C1236 C 0.58495 0.54089 0.42861 0.0
C1237 C 0.57683 0.54799 0.45941 0.0
C1238 C 0.56602 0.53887 0.48071 0.0
C1239 C 0.56335 0.5226 0.47168 0.0
C1240 C 0.57136 0.51547 0.44104 0.0
C1241 C 0.58205 0.52459 0.41938 0.0
H1242 H 0.55498 0.51556 0.48822 0.0
H1243 H 0.64745 0.61448 0.27488 0.0
H1244 H 0.92765 0.60345 0.04327 0.0
H1245 H 0.91651 0.60204 0.97934 0.0
H1246 H 0.96153 0.58398 0.93663 0.0
H1247 H 0.97255 0.58496 0.00077 0.0
H1248 H 0.9402 0.61055 0.88923 0.0
H1249 H 0.94356 0.55499 0.94517 0.0
H1250 H 0.93956 0.53552 0.99807 0.0
H1251 H 0.89034 0.54982 0.00498 0.0
H1252 H 0.89408 0.56935 0.952 0.0
H1253 H 0.92598 0.566 0.723 0.0
H1254 H 0.93463 0.57742 0.78254 0.0
H1255 H 0.88702 0.57404 0.8276 0.0
H1256 H 0.87827 0.56226 0.76813 0.0
H1257 H 0.90774 0.56104 0.87531 0.0
H1258 H 0.90359 0.61132 0.80695 0.0
H1259 H 0.9077 0.63051 0.7537 0.0
H1260 H 0.95811 0.62747 0.77009 0.0
H1261 H 0.95432 0.60807 0.82312 0.0
C1262 C 0.93526 0.59971 0.0199 0.0
C1263 C 0.95095 0.59449 0.02642 0.0
C1264 C 0.92891 0.59886 0.98361 0.0
C1265 C 0.93826 0.59299 0.95349 0.0
C1266 C 0.95424 0.58872 0.95956 0.0
C1267 C 0.9605 0.5893 0.99599 0.0
C1268 C 0.93085 0.58929 0.91702 0.0
C1269 C 0.93317 0.59971 0.88588 0.0
C1270 C 0.92141 0.57537 0.91326 0.0
C1271 C 0.91912 0.5637 0.94501 0.0
C1272 C 0.93191 0.55403 0.95816 0.0
C1273 C 0.92968 0.54294 0.98801 0.0
C1274 C 0.91472 0.54148 0.00497 0.0
C1275 C 0.90193 0.551 0.99189 0.0
C1276 C 0.90408 0.56204 0.96188 0.0
C1277 C 0.91726 0.56785 0.74534 0.0
C1278 C 0.90143 0.56312 0.74081 0.0
C1279 C 0.92223 0.57451 0.77934 0.0
C1280 C 0.91145 0.57674 0.80942 0.0
C1281 C 0.89553 0.57245 0.8047 0.0
C1282 C 0.89055 0.56573 0.77068 0.0
C1283 C 0.91714 0.58222 0.84672 0.0
C1284 C 0.91455 0.57206 0.87832 0.0
C1285 C 0.92632 0.59643 0.85069 0.0
C1286 C 0.92866 0.60814 0.81886 0.0
C1287 C 0.91556 0.61464 0.79903 0.0
C1288 C 0.91783 0.62558 0.76891 0.0
C1289 C 0.93316 0.63018 0.75847 0.0
C1290 C 0.94624 0.62388 0.77819 0.0
C1291 C 0.94403 0.61293 0.80832 0.0
H1292 H 0.93489 0.63865 0.73514 0.0
H1293 H 0.91303 0.53295 0.02819 0.0
H1294 H 0.93511 0.88105 0.2638 0.0
H1295 H 0.92142 0.88979 0.32191 0.0
H1296 H 0.93882 0.93851 0.30537 0.0
H1297 H 0.95223 0.93002 0.24678 0.0
H1298 H 0.94423 0.92177 0.38082 0.0
H1299 H 0.90347 0.93545 0.28862 0.0
H1300 H 0.8854 0.92901 0.23654 0.0
H1301 H 0.86342 0.89228 0.30578 0.0
H1302 H 0.88154 0.89835 0.35811 0.0
H1303 H 0.90537 0.96801 0.51743 0.0
H1304 H 0.91201 0.95928 0.45299 0.0
H1305 H 0.88942 0.91327 0.47473 0.0
H1306 H 0.88318 0.9219 0.53979 0.0
H1307 H 0.88575 0.92677 0.3972 0.0
H1308 H 0.9242 0.91146 0.48797 0.0
H1309 H 0.94257 0.91418 0.54126 0.0
H1310 H 0.96975 0.94872 0.47719 0.0
H1311 H 0.95121 0.94667 0.42375 0.0
C1312 C 0.93595 0.89365 0.27245 0.0
C1313 C 0.94476 0.90486 0.25079 0.0
C1314 C 0.92809 0.89861 0.3055 0.0
C1315 C 0.92911 0.91478 0.31768 0.0
C1316 C 0.93788 0.92599 0.29622 0.0
C1317 C 0.94549 0.92113 0.26279 0.0
C1318 C 0.92159 0.91985 0.35371 0.0
C1319 C 0.93147 0.92312 0.3843 0.0
C1320 C 0.90492 0.92081 0.35849 0.0
C1321 C 0.89398 0.91723 0.32712 0.0
C1322 C 0.8949 0.92589 0.29261 0.0
C1323 C 0.88462 0.92233 0.26308 0.0
C1324 C 0.87331 0.91021 0.26781 0.0
C1325 C 0.87221 0.90165 0.30213 0.0
C1326 C 0.88247 0.90516 0.33175 0.0
C1327 C 0.9014 0.95627 0.5079 0.0
C1328 C 0.89391 0.94556 0.53327 0.0
C1329 C 0.90523 0.95127 0.4713 0.0
C1330 C 0.9014 0.93556 0.45945 0.0
C1331 C 0.89247 0.92544 0.4835 0.0
C1332 C 0.88884 0.93038 0.52046 0.0
C1333 C 0.90844 0.92916 0.42399 0.0
C1334 C 0.89852 0.92552 0.39368 0.0
C1335 C 0.92511 0.92743 0.41967 0.0
C1336 C 0.93607 0.92917 0.45209 0.0
C1337 C 0.93389 0.91991 0.48544 0.0
C1338 C 0.94438 0.92128 0.51563 0.0
C1339 C 0.95721 0.93178 0.51276 0.0
C1340 C 0.95966 0.94081 0.47952 0.0
C1341 C 0.94916 0.93954 0.44927 0.0
H1342 H 0.96531 0.93284 0.53617 0.0
H1343 H 0.86536 0.90748 0.24491 0.0
H1344 H 0.95506 0.85501 0.01652 0.0
H1345 H 0.94461 0.85356 0.95195 0.0
H1346 H 0.90717 0.8878 0.98188 0.0
H1347 H 0.91741 0.88897 0.04631 0.0
H1348 H 0.89789 0.86626 0.92564 0.0
H1349 H 0.94327 0.90198 0.95361 0.0
H1350 H 0.97065 0.90534 0.97637 0.0
H1351 H 0.98792 0.87115 0.89366 0.0
H1352 H 0.96063 0.8675 0.87074 0.0
H1353 H 0.88376 0.92653 0.78787 0.0
H1354 H 0.88869 0.90773 0.84047 0.0
H1355 H 0.92916 0.88724 0.78057 0.0
H1356 H 0.92478 0.90681 0.72881 0.0
H1357 H 0.93804 0.89384 0.84514 0.0
H1358 H 0.89378 0.86465 0.80403 0.0
H1359 H 0.86669 0.86006 0.78118 0.0
H1360 H 0.84721 0.87926 0.88461 0.0
H1361 H 0.87418 0.88421 0.90791 0.0
C1362 C 0.94423 0.86166 0.00957 0.0
C1363 C 0.93713 0.87231 0.03582 0.0
C1364 C 0.93829 0.86087 0.97277 0.0
C1365 C 0.92531 0.87084 0.96198 0.0
C1366 C 0.91721 0.88004 0.98955 0.0
C1367 C 0.9231 0.88078 0.02625 0.0
C1368 C 0.922 0.87432 0.92155 0.0
C1369 C 0.90662 0.87219 0.90772 0.0
C1370 C 0.93356 0.88161 0.89791 0.0
C1371 C 0.94996 0.88433 0.9108 0.0
C1372 C 0.95293 0.89518 0.94038 0.0
C1373 C 0.96841 0.89712 0.95331 0.0
C1374 C 0.98099 0.88839 0.93659 0.0
C1375 C 0.97815 0.87785 0.90665 0.0
C1376 C 0.9627 0.87585 0.89367 0.0
C1377 C 0.89353 0.91781 0.78563 0.0
C1378 C 0.90399 0.91823 0.75447 0.0
C1379 C 0.89626 0.90691 0.81561 0.0
C1380 C 0.90922 0.89585 0.8145 0.0
C1381 C 0.91912 0.89565 0.78225 0.0
C1382 C 0.91662 0.90684 0.75269 0.0
C1383 C 0.91366 0.88625 0.84894 0.0
C1384 C 0.92929 0.88738 0.86197 0.0
C1385 C 0.90233 0.87786 0.87142 0.0
C1386 C 0.88604 0.87486 0.85767 0.0
C1387 C 0.88373 0.86799 0.82183 0.0
C1388 C 0.86838 0.86531 0.8088 0.0
C1389 C 0.85524 0.86938 0.83141 0.0
C1390 C 0.85741 0.87611 0.86714 0.0
C1391 C 0.87273 0.87882 0.88031 0.0
H1392 H 0.84337 0.8673 0.82126 0.0
H1393 H 0.99295 0.88973 0.9468 0.0
H1394 H 0.62132 0.95781 0.51917 0.0
H1395 H 0.61711 0.94973 0.45347 0.0
H1396 H 0.61206 0.8997 0.48981 0.0
H1397 H 0.61611 0.90785 0.55575 0.0
H1398 H 0.62795 0.9067 0.41039 0.0
H1399 H 0.577 0.91113 0.47941 0.0
H1400 H 0.55696 0.92337 0.52251 0.0
H1401 H 0.56271 0.96998 0.46797 0.0
H1402 H 0.58255 0.95787 0.42398 0.0
H1403 H 0.56845 0.87801 0.28051 0.0
H1404 H 0.5866 0.88378 0.33223 0.0
H1405 H 0.58303 0.93521 0.30596 0.0
H1406 H 0.56493 0.92964 0.25444 0.0
H1407 H 0.5738 0.92709 0.37866 0.0
H1408 H 0.61766 0.9158 0.29451 0.0
H1409 H 0.63341 0.89933 0.24928 0.0
H1410 H 0.63962 0.86166 0.33353 0.0
H1411 H 0.62369 0.8778 0.37913 0.0
C1412 C 0.62017 0.94498 0.5128 0.0
C1413 C 0.61927 0.93338 0.54213 0.0
C1414 C 0.61764 0.94039 0.4754 0.0
C1415 C 0.61427 0.92414 0.46693 0.0
C1416 C 0.61484 0.91226 0.4958 0.0
C1417 C 0.61725 0.91689 0.53333 0.0
C1418 C 0.60739 0.92027 0.42983 0.0
C1419 C 0.61611 0.91107 0.40329 0.0
C1420 C 0.59198 0.92596 0.42072 0.0
C1421 C 0.58136 0.9337 0.44899 0.0
C1422 C 0.57411 0.92403 0.477 0.0
C1423 C 0.5627 0.93089 0.50126 0.0
C1424 C 0.55865 0.94744 0.49806 0.0
C1425 C 0.56595 0.95718 0.47052 0.0
C1426 C 0.57722 0.95032 0.44581 0.0
C1427 C 0.57174 0.89053 0.28531 0.0
C1428 C 0.56501 0.90339 0.26372 0.0
C1429 C 0.58224 0.89378 0.31466 0.0
C1430 C 0.58618 0.90991 0.32279 0.0
C1431 C 0.58016 0.92266 0.30001 0.0
C1432 C 0.56973 0.91944 0.27069 0.0
C1433 C 0.5944 0.91378 0.35836 0.0
C1434 C 0.5858 0.92292 0.38505 0.0
C1435 C 0.60974 0.90766 0.36749 0.0
C1436 C 0.61935 0.89796 0.34015 0.0
C1437 C 0.62226 0.90394 0.30331 0.0
C1438 C 0.63125 0.89468 0.27762 0.0
C1439 C 0.63748 0.87945 0.2885 0.0
C1440 C 0.63477 0.87346 0.32513 0.0
C1441 C 0.62578 0.88267 0.35093 0.0
H1442 H 0.64444 0.87229 0.26857 0.0
H1443 H 0.54973 0.95262 0.51669 0.0
H1444 H 0.57963 0.59796 0.04513 0.0
H1445 H 0.58841 0.59957 0.97908 0.0
H1446 H 0.5453 0.62598 0.95035 0.0
H1447 H 0.53654 0.62433 0.01689 0.0
H1448 H 0.54896 0.59767 0.91241 0.0
H1449 H 0.58087 0.64373 0.93431 0.0
H1450 H 0.60027 0.66039 0.9677 0.0
H1451 H 0.63652 0.62386 0.94836 0.0
H1452 H 0.6173 0.60685 0.91534 0.0
H1453 H 0.57119 0.57998 0.7254 0.0
H1454 H 0.56496 0.5976 0.77906 0.0
H1455 H 0.60587 0.57826 0.83819 0.0
H1456 H 0.61245 0.56094 0.78427 0.0
H1457 H 0.60134 0.60981 0.85445 0.0
H1458 H 0.56921 0.56151 0.8509 0.0
H1459 H 0.5504 0.54238 0.82307 0.0
H1460 H 0.5154 0.58092 0.81356 0.0
H1461 H 0.53409 0.60032 0.84099 0.0
C1462 C 0.57235 0.60462 0.02485 0.0
C1463 C 0.55746 0.611 0.03557 0.0
C1464 C 0.57738 0.60562 0.98723 0.0
C1465 C 0.56754 0.61298 0.95984 0.0
C1466 C 0.5531 0.62037 0.97115 0.0
C1467 C 0.54812 0.61946 0.00897 0.0
C1468 C 0.57104 0.61013 0.91931 0.0
C1469 C 0.5602 0.60083 0.89923 0.0
C1470 C 0.58593 0.61374 0.90275 0.0
C1471 C 0.5976 0.62398 0.9224 0.0
C1472 C 0.59295 0.63919 0.93736 0.0
C1473 C 0.60393 0.64871 0.95621 0.0
C1474 C 0.61961 0.64318 0.96017 0.0
C1475 C 0.62437 0.62814 0.94524 0.0
C1476 C 0.61344 0.61856 0.92638 0.0
C1477 C 0.57902 0.57967 0.74956 0.0
C1478 C 0.59216 0.56885 0.75088 0.0
C1479 C 0.57544 0.58976 0.78018 0.0
C1480 C 0.58477 0.58899 0.81289 0.0
C1481 C 0.59849 0.57902 0.81325 0.0
C1482 C 0.60219 0.56906 0.78246 0.0
C1483 C 0.57939 0.59711 0.84814 0.0
C1484 C 0.58988 0.60722 0.86718 0.0
C1485 C 0.56429 0.59399 0.8643 0.0
C1486 C 0.55311 0.5824 0.84743 0.0
C1487 C 0.55755 0.56592 0.84254 0.0
C1488 C 0.5469 0.55504 0.82692 0.0
C1489 C 0.53173 0.56045 0.81641 0.0
C1490 C 0.52717 0.57676 0.82161 0.0
C1491 C 0.53778 0.5877 0.83718 0.0
H1492 H 0.5235 0.552 0.80435 0.0
H1493 H 0.62809 0.65057 0.97478 0.0
H1494 H 0.92058 0.60597 0.24395 0.0
H1495 H 0.90136 0.60522 0.29587 0.0
H1496 H 0.90091 0.5527 0.29069 0.0
H1497 H 0.92009 0.5533 0.2382 0.0
H1498 H 0.87082 0.56706 0.31103 0.0
H1499 H 0.92611 0.56855 0.3472 0.0
H1500 H 0.95307 0.57979 0.34603 0.0
H1501 H 0.93467 0.62561 0.38681 0.0
H1502 H 0.90755 0.61469 0.38769 0.0
H1503 H 0.86569 0.53912 0.5012 0.0
H1504 H 0.86751 0.54629 0.43401 0.0
H1505 H 0.87083 0.59717 0.46286 0.0
H1506 H 0.86946 0.58982 0.53023 0.0
H1507 H 0.89624 0.58724 0.4273 0.0
H1508 H 0.84117 0.58317 0.40346 0.0
H1509 H 0.81458 0.57112 0.40551 0.0
H1510 H 0.83213 0.52969 0.34347 0.0
H1511 H 0.85889 0.54135 0.34153 0.0
C1512 C 0.91618 0.59425 0.25325 0.0
C1513 C 0.92212 0.57966 0.23743 0.0
C1514 C 0.90513 0.59387 0.28284 0.0
C1515 C 0.89991 0.5789 0.29741 0.0
C1516 C 0.9048 0.56437 0.27977 0.0
C1517 C 0.91584 0.56474 0.24995 0.0
C1518 C 0.8914 0.57832 0.33421 0.0
C1519 C 0.8763 0.57142 0.33659 0.0
C1520 C 0.89849 0.58434 0.36727 0.0
C1521 C 0.9148 0.59088 0.36706 0.0
C1522 C 0.92781 0.58107 0.35562 0.0
C1523 C 0.94311 0.58737 0.35506 0.0
C1524 C 0.94558 0.60343 0.36622 0.0
C1525 C 0.93274 0.61319 0.37809 0.0
C1526 C 0.9174 0.60695 0.37863 0.0
C1527 C 0.86598 0.55188 0.49296 0.0
C1528 C 0.86737 0.56397 0.52046 0.0
C1529 C 0.86702 0.55601 0.45457 0.0
C1530 C 0.86935 0.57229 0.4433 0.0
C1531 C 0.86903 0.58454 0.47089 0.0
C1532 C 0.86813 0.58038 0.50929 0.0
C1533 C 0.87549 0.57592 0.40466 0.0
C1534 C 0.89038 0.58326 0.40185 0.0
C1535 C 0.86818 0.57021 0.37149 0.0
C1536 C 0.85209 0.56311 0.37255 0.0
C1537 C 0.8394 0.57142 0.39051 0.0
C1538 C 0.82428 0.56467 0.3916 0.0
C1539 C 0.82167 0.54964 0.37468 0.0
C1540 C 0.83417 0.54134 0.35657 0.0
C1541 C 0.84931 0.54803 0.35541 0.0
H1542 H 0.80996 0.54444 0.37556 0.0
H1543 H 0.95743 0.60829 0.36576 0.0
H1544 H 0.41686 0.09779 0.92975 0.0
H1545 H 0.408 0.09426 0.9955 0.0
H1546 H 0.45445 0.10753 0.03408 0.0
H1547 H 0.4633 0.11087 0.9681 0.0
H1548 H 0.44647 0.07786 0.05726 0.0
H1549 H 0.42139 0.13038 0.05839 0.0
H1550 H 0.40423 0.15289 0.03482 0.0
H1551 H 0.36359 0.12217 0.04328 0.0
H1552 H 0.38053 0.09939 0.06637 0.0
H1553 H 0.42736 0.05713 0.24538 0.0
H1554 H 0.4349 0.07271 0.1891 0.0
H1555 H 0.38889 0.06462 0.14081 0.0
H1556 H 0.38106 0.0493 0.19754 0.0
H1557 H 0.39769 0.09494 0.12662 0.0
H1558 H 0.42146 0.04193 0.11438 0.0
H1559 H 0.43775 0.01745 0.12934 0.0
H1560 H 0.47947 0.04666 0.13335 0.0
H1561 H 0.46338 0.07137 0.11901 0.0
C1562 C 0.4249 0.10062 0.95245 0.0
C1563 C 0.44064 0.10475 0.94438 0.0
C1564 C 0.41986 0.09864 0.98993 0.0
C1565 C 0.43055 0.10074 0.01972 0.0
C1566 C 0.446 0.10599 0.01153 0.0
C1567 C 0.45102 0.10796 0.97401 0.0
C1568 C 0.42652 0.09458 0.05811 0.0
C1569 C 0.43601 0.08185 0.07283 0.0
C1570 C 0.41253 0.09943 0.07768 0.0
C1571 C 0.40227 0.11313 0.06391 0.0
C1572 C 0.40882 0.12838 0.05495 0.0
C1573 C 0.39912 0.14119 0.04173 0.0
C1574 C 0.38283 0.13895 0.0375 0.0
C1575 C 0.37621 0.12389 0.04657 0.0
C1576 C 0.38585 0.11103 0.05979 0.0
C1577 C 0.4188 0.05868 0.22286 0.0
C1578 C 0.40365 0.05183 0.2258 0.0
C1579 C 0.42316 0.06758 0.19068 0.0
C1580 C 0.41254 0.06963 0.16054 0.0
C1581 C 0.39726 0.06318 0.16375 0.0
C1582 C 0.39284 0.05436 0.19611 0.0
C1583 C 0.41758 0.07804 0.12522 0.0
C1584 C 0.40828 0.09112 0.11117 0.0
C1585 C 0.43158 0.07326 0.10554 0.0
C1586 C 0.44115 0.05856 0.11629 0.0
C1587 C 0.43406 0.04319 0.11911 0.0
C1588 C 0.44327 0.02925 0.1273 0.0
C1589 C 0.45963 0.03051 0.13246 0.0
C1590 C 0.46679 0.04572 0.12953 0.0
C1591 C 0.45763 0.05969 0.12142 0.0
H1592 H 0.46675 0.0197 0.13856 0.0
H1593 H 0.37535 0.14889 0.02725 0.0
H1594 H 0.40799 0.42843 0.77632 0.0
H1595 H 0.39131 0.43355 0.72085 0.0
H1596 H 0.41011 0.38984 0.66902 0.0
H1597 H 0.42659 0.3844 0.72453 0.0
H1598 H 0.41511 0.42189 0.63045 0.0
H1599 H 0.37482 0.38811 0.68597 0.0
H1600 H 0.35619 0.37954 0.73626 0.0
H1601 H 0.33215 0.42612 0.72986 0.0
H1602 H 0.3508 0.43507 0.6799 0.0
H1603 H 0.37055 0.41943 0.45998 0.0
H1604 H 0.37351 0.41 0.52574 0.0
H1605 H 0.37296 0.4599 0.56312 0.0
H1606 H 0.37031 0.46933 0.49727 0.0
H1607 H 0.35688 0.42393 0.60995 0.0
H1608 H 0.40344 0.45993 0.57716 0.0
H1609 H 0.42423 0.47028 0.53412 0.0
H1610 H 0.43662 0.42125 0.50204 0.0
H1611 H 0.41585 0.41064 0.54513 0.0
C1612 C 0.40832 0.41972 0.75345 0.0
C1613 C 0.41874 0.40611 0.75456 0.0
C1614 C 0.3987 0.42261 0.72198 0.0
C1615 C 0.39948 0.41202 0.6911 0.0
C1616 C 0.40929 0.39804 0.69284 0.0
C1617 C 0.41872 0.395 0.72452 0.0
C1618 C 0.39217 0.41692 0.65485 0.0
C1619 C 0.40238 0.42213 0.6259 0.0
C1620 C 0.37556 0.4177 0.64949 0.0
C1621 C 0.36432 0.41233 0.67945 0.0
C1622 C 0.36567 0.3966 0.69555 0.0
C1623 C 0.35508 0.39165 0.72394 0.0
C1624 C 0.34302 0.40229 0.73632 0.0
C1625 C 0.3415 0.41789 0.72027 0.0
C1626 C 0.35207 0.4229 0.69189 0.0
C1627 C 0.37014 0.4283 0.48251 0.0
C1628 C 0.36995 0.44505 0.47396 0.0
C1629 C 0.37197 0.42294 0.51993 0.0
C1630 C 0.37351 0.43429 0.54903 0.0
C1631 C 0.3717 0.451 0.54094 0.0
C1632 C 0.37002 0.45636 0.50348 0.0
C1633 C 0.3799 0.42887 0.58589 0.0
C1634 C 0.36958 0.42358 0.61472 0.0
C1635 C 0.39644 0.42828 0.59178 0.0
C1636 C 0.40792 0.43456 0.56356 0.0
C1637 C 0.41042 0.4514 0.56036 0.0
C1638 C 0.42225 0.4573 0.53617 0.0
C1639 C 0.43168 0.44644 0.5151 0.0
C1640 C 0.42928 0.42965 0.51825 0.0
C1641 C 0.41746 0.42369 0.54249 0.0
H1642 H 0.44086 0.45103 0.49643 0.0
H1643 H 0.33483 0.39844 0.7583 0.0
H1644 H 0.04841 0.3611 0.01135 0.0
H1645 H 0.05209 0.36543 0.07857 0.0
H1646 H 0.10289 0.36368 0.06239 0.0
H1647 H 0.09928 0.35825 0.99504 0.0
H1648 H 0.09495 0.35202 0.13182 0.0
H1649 H 0.08239 0.39847 0.05399 0.0
H1650 H 0.06675 0.41493 0.00842 0.0
H1651 H 0.02755 0.41661 0.08687 0.0
H1652 H 0.04268 0.39954 0.1322 0.0
H1653 H 0.11784 0.4111 0.26862 0.0
H1654 H 0.11302 0.39501 0.21209 0.0
H1655 H 0.06327 0.39303 0.24116 0.0
H1656 H 0.06795 0.40902 0.29793 0.0
H1657 H 0.06975 0.4049 0.16781 0.0
H1658 H 0.08439 0.35933 0.24764 0.0
H1659 H 0.10157 0.34393 0.29202 0.0
H1660 H 0.1392 0.34315 0.20924 0.0
H1661 H 0.12232 0.35876 0.16453 0.0
C1662 C 0.06036 0.36065 0.02221 0.0
C1663 C 0.07358 0.35901 0.99786 0.0
C1664 C 0.06245 0.36343 0.06071 0.0
C1665 C 0.07775 0.36518 0.07531 0.0
C1666 C 0.09097 0.36239 0.05168 0.0
C1667 C 0.0889 0.35937 0.01321 0.0
C1668 C 0.07991 0.37206 0.11348 0.0
C1669 C 0.0895 0.3636 0.13968 0.0
C1670 C 0.07275 0.38719 0.12367 0.0
C1671 C 0.0636 0.39748 0.0963 0.0
C1672 C 0.07035 0.40213 0.06131 0.0
C1673 C 0.06155 0.41155 0.03546 0.0
C1674 C 0.0461 0.4167 0.04456 0.0
C1675 C 0.03944 0.41246 0.0796 0.0
C1676 C 0.0481 0.40286 0.10535 0.0
C1677 C 0.1059 0.40708 0.26326 0.0
C1678 C 0.09325 0.41143 0.28763 0.0
C1679 C 0.1032 0.39781 0.23108 0.0
C1680 C 0.08781 0.39281 0.22264 0.0
C1681 C 0.07524 0.39676 0.24736 0.0
C1682 C 0.07795 0.40587 0.27977 0.0
C1683 C 0.08462 0.38478 0.18629 0.0
C1684 C 0.07497 0.39317 0.16019 0.0
C1685 C 0.09197 0.36979 0.17606 0.0
C1686 C 0.10213 0.36035 0.20285 0.0
C1687 C 0.09637 0.356 0.23901 0.0
C1688 C 0.10605 0.3472 0.2642 0.0
C1689 C 0.12148 0.34259 0.25349 0.0
C1690 C 0.12725 0.34674 0.21752 0.0
C1691 C 0.11763 0.35555 0.19222 0.0
H1692 H 0.12895 0.33578 0.27304 0.0
H1693 H 0.03935 0.42405 0.02456 0.0
H1694 H 0.09429 0.02674 0.47472 0.0
H1695 H 0.09197 0.04005 0.53627 0.0
H1696 H 0.11398 0.08297 0.48972 0.0
H1697 H 0.11579 0.0699 0.42749 0.0
H1698 H 0.12103 0.07006 0.57623 0.0
H1699 H 0.08153 0.0892 0.48434 0.0
H1700 H 0.06163 0.08469 0.43494 0.0
H1701 H 0.03471 0.05514 0.51229 0.0
H1702 H 0.05476 0.05897 0.56173 0.0
H1703 H 0.05636 0.11864 0.69598 0.0
H1704 H 0.07191 0.11331 0.63852 0.0
H1705 H 0.088 0.06719 0.68547 0.0
H1706 H 0.07242 0.07233 0.74292 0.0
H1707 H 0.06458 0.08672 0.59499 0.0
H1708 H 0.12454 0.05777 0.64382 0.0
H1709 H 0.1442 0.06142 0.69419 0.0
H1710 H 0.12963 0.11164 0.705 0.0
H1711 H 0.11005 0.10837 0.65432 0.0
C1712 C 0.09905 0.03884 0.47794 0.0
C1713 C 0.10514 0.04736 0.44652 0.0
C1714 C 0.09776 0.04638 0.51303 0.0
C1715 C 0.10276 0.06246 0.51727 0.0
C1716 C 0.11019 0.07049 0.48685 0.0
C1717 C 0.11126 0.06302 0.45146 0.0
C1718 C 0.09782 0.07152 0.55136 0.0
C1719 C 0.10874 0.07386 0.58042 0.0
C1720 C 0.08182 0.07656 0.55632 0.0
C1721 C 0.06977 0.0742 0.52656 0.0
C1722 C 0.0715 0.08152 0.49063 0.0
C1723 C 0.06018 0.07911 0.46264 0.0
C1724 C 0.04696 0.06954 0.47039 0.0
C1725 C 0.04501 0.06243 0.50622 0.0
C1726 C 0.05636 0.06471 0.53422 0.0
C1727 C 0.0635 0.10754 0.69451 0.0
C1728 C 0.06297 0.09579 0.72379 0.0
C1729 C 0.07238 0.10453 0.66165 0.0
C1730 C 0.08109 0.08988 0.65781 0.0
C1731 C 0.08148 0.07865 0.68805 0.0
C1732 C 0.07247 0.08156 0.72075 0.0
C1733 C 0.08771 0.08516 0.6205 0.0
C1734 C 0.07698 0.08336 0.59077 0.0
C1735 C 0.10386 0.08064 0.61515 0.0
C1736 C 0.11573 0.08277 0.64542 0.0
C1737 C 0.12558 0.06961 0.6568 0.0
C1738 C 0.13671 0.07161 0.68544 0.0
C1739 C 0.13814 0.08674 0.70285 0.0
C1740 C 0.12847 0.09991 0.69159 0.0
C1741 C 0.11733 0.09798 0.66295 0.0
H1742 H 0.14675 0.08825 0.72503 0.0
H1743 H 0.03821 0.06767 0.44869 0.0
H1744 H 0.01864 0.90118 0.10605 0.0
H1745 H 0.04518 0.91177 0.11608 0.0
H1746 H 0.04219 0.89744 0.23397 0.0
H1747 H 0.01614 0.88587 0.2231 0.0
H1748 H 0.04839 0.93663 0.15398 0.0
H1749 H 0.07598 0.89887 0.28013 0.0
H1750 H 0.08059 0.87001 0.29786 0.0
H1751 H 0.07836 0.8564 0.18099 0.0
H1752 H 0.07398 0.88519 0.16244 0.0
H1753 H 0.08324 0.97226 0.31761 0.0
H1754 H 0.0767 0.94669 0.28715 0.0
H1755 H 0.10108 0.96231 0.18554 0.0
H1756 H 0.10798 0.98793 0.21643 0.0
H1757 H 0.09104 0.92014 0.24315 0.0
H1758 H 0.07223 0.95858 0.11711 0.0
H1759 H 0.06729 0.9874 0.0989 0.0
H1760 H 0.05187 0.99805 0.21237 0.0
H1761 H 0.05647 0.96926 0.23097 0.0
C1762 C 0.02404 0.89963 0.13363 0.0
C1763 C 0.01546 0.89275 0.16385 0.0
C1764 C 0.03916 0.90575 0.13943 0.0
C1765 C 0.04576 0.90555 0.17585 0.0
C1766 C 0.03763 0.89749 0.2054 0.0
C1767 C 0.02267 0.89093 0.19929 0.0
C1768 C 0.05924 0.91638 0.18448 0.0
C1769 C 0.05803 0.93274 0.17233 0.0
C1770 C 0.07177 0.91159 0.20894 0.0
C1771 C 0.07458 0.89423 0.21991 0.0
C1772 C 0.07659 0.88975 0.25816 0.0
C1773 C 0.07913 0.87339 0.26836 0.0
C1774 C 0.07974 0.86138 0.24058 0.0
C1775 C 0.07784 0.86571 0.2025 0.0
C1776 C 0.0753 0.88205 0.19213 0.0
C1777 C 0.08773 0.96996 0.28928 0.0
C1778 C 0.09593 0.98207 0.26912 0.0
C1779 C 0.0841 0.9553 0.27201 0.0
C1780 C 0.0883 0.95269 0.23404 0.0
C1781 C 0.09779 0.96412 0.21494 0.0
C1782 C 0.1017 0.97872 0.23254 0.0
C1783 C 0.07978 0.94007 0.21305 0.0
C1784 C 0.08179 0.92357 0.22328 0.0
C1785 C 0.06803 0.94461 0.18648 0.0
C1786 C 0.06493 0.96187 0.1755 0.0
C1787 C 0.06776 0.96709 0.13809 0.0
C1788 C 0.06501 0.98341 0.12771 0.0
C1789 C 0.05934 0.99457 0.15451 0.0
C1790 C 0.05632 0.98941 0.19168 0.0
C1791 C 0.059 0.9731 0.20215 0.0
H1792 H 0.05725 0.00719 0.14644 0.0
H1793 H 0.0817 0.84872 0.24855 0.0
H1794 H 0.6141 0.00975 0.73634 0.0
H1795 H 0.60359 0.03644 0.75667 0.0
H1796 H 0.57251 0.03809 0.66025 0.0
H1797 H 0.5828 0.01156 0.64016 0.0
H1798 H 0.58236 0.06949 0.68266 0.0
H1799 H 0.5601 0.01892 0.73696 0.0
H1800 H 0.5629 0.99295 0.77252 0.0
H1801 H 0.58145 0.01852 0.86749 0.0
H1802 H 0.57893 0.04462 0.83223 0.0
H1803 H 0.50319 0.09238 0.71621 0.0
H1804 H 0.53032 0.08348 0.70082 0.0
H1805 H 0.54269 0.08611 0.81901 0.0
H1806 H 0.51529 0.0943 0.83435 0.0
H1807 H 0.54915 0.05774 0.79602 0.0
H1808 H 0.56219 0.10954 0.7473 0.0
H1809 H 0.55901 0.13533 0.71141 0.0
H1810 H 0.55816 0.10884 0.60724 0.0
H1811 H 0.56109 0.08286 0.64249 0.0
C1812 C 0.60547 0.01613 0.7188 0.0
C1813 C 0.59904 0.00853 0.68709 0.0
C1814 C 0.59948 0.03135 0.73041 0.0
C1815 C 0.58714 0.03912 0.71017 0.0
C1816 C 0.58203 0.03232 0.67623 0.0
C1817 C 0.58784 0.0171 0.66495 0.0
C1818 C 0.57731 0.05228 0.72737 0.0
C1819 C 0.57517 0.06711 0.70767 0.0
C1820 C 0.56826 0.04927 0.76052 0.0
C1821 C 0.56953 0.03365 0.78185 0.0
C1822 C 0.56486 0.01897 0.76535 0.0
C1823 C 0.56638 0.00424 0.78544 0.0
C1824 C 0.57241 0.00408 0.82218 0.0
C1825 C 0.57683 0.01866 0.83898 0.0
C1826 C 0.57536 0.03342 0.81897 0.0
C1827 C 0.51192 0.09168 0.73855 0.0
C1828 C 0.50735 0.09412 0.77631 0.0
C1829 C 0.52746 0.08665 0.72981 0.0
C1830 C 0.53867 0.0842 0.75873 0.0
C1831 C 0.53431 0.08793 0.7962 0.0
C1832 C 0.51871 0.09268 0.80496 0.0
C1833 C 0.5537 0.075 0.75075 0.0
C1834 C 0.55673 0.06071 0.77201 0.0
C1835 C 0.56355 0.07863 0.71915 0.0
C1836 C 0.56182 0.09422 0.69763 0.0
C1837 C 0.56122 0.10919 0.71676 0.0
C1838 C 0.55948 0.12385 0.69651 0.0
C1839 C 0.55837 0.12372 0.65707 0.0
C1840 C 0.55903 0.10893 0.63779 0.0
C1841 C 0.56077 0.09422 0.6579 0.0
H1842 H 0.55702 0.13509 0.64145 0.0
H1843 H 0.57365 0.99267 0.83766 0.0
H1844 H 0.42353 0.49616 0.2766 0.0
H1845 H 0.4353 0.52236 0.26192 0.0
H1846 H 0.39299 0.54729 0.30209 0.0
H1847 H 0.38089 0.52065 0.31678 0.0
H1848 H 0.41395 0.55883 0.2248 0.0
H1849 H 0.41409 0.55285 0.36044 0.0
H1850 H 0.41563 0.53714 0.42029 0.0
H1851 H 0.46244 0.51987 0.39041 0.0
H1852 H 0.4611 0.53526 0.33006 0.0
H1853 H 0.48608 0.60964 0.21184 0.0
H1854 H 0.45971 0.60262 0.23769 0.0
H1855 H 0.47424 0.55193 0.24319 0.0
H1856 H 0.50009 0.55865 0.21721 0.0
H1857 H 0.45923 0.56551 0.31183 0.0
H1858 H 0.45409 0.56227 0.17168 0.0
H1859 H 0.45364 0.57535 0.10843 0.0
H1860 H 0.41715 0.60885 0.14598 0.0
H1861 H 0.41754 0.59605 0.20961 0.0
C1862 C 0.41656 0.50719 0.28155 0.0
C1863 C 0.4014 0.50645 0.29812 0.0
C1864 C 0.42328 0.52213 0.27308 0.0
C1865 C 0.41506 0.53667 0.28134 0.0
C1866 C 0.39945 0.53611 0.29555 0.0
C1867 C 0.39258 0.52097 0.30381 0.0
C1868 C 0.42403 0.55194 0.27859 0.0
C1869 C 0.42346 0.56091 0.24459 0.0
C1870 C 0.4365 0.55447 0.3043 0.0
C1871 C 0.43748 0.54527 0.34073 0.0
C1872 C 0.42468 0.54564 0.36652 0.0
C1873 C 0.42552 0.53679 0.40054 0.0
C1874 C 0.43914 0.52756 0.40915 0.0
C1875 C 0.45193 0.52708 0.38371 0.0
C1876 C 0.45114 0.5359 0.34964 0.0
C1877 C 0.48359 0.59703 0.21873 0.0
C1878 C 0.49512 0.58468 0.21237 0.0
C1879 C 0.46858 0.59307 0.23342 0.0
C1880 C 0.46515 0.57679 0.24251 0.0
C1881 C 0.47673 0.56458 0.23658 0.0
C1882 C 0.49147 0.56845 0.22146 0.0
C1883 C 0.44952 0.57177 0.25735 0.0
C1884 C 0.44907 0.56447 0.29339 0.0
C1885 C 0.4362 0.57075 0.23352 0.0
C1886 C 0.436 0.57838 0.19541 0.0
C1887 C 0.44608 0.57252 0.1665 0.0
C1888 C 0.44582 0.57986 0.13059 0.0
C1889 C 0.43542 0.59297 0.12323 0.0
C1890 C 0.42523 0.59873 0.15175 0.0
C1891 C 0.42547 0.59144 0.18772 0.0
H1892 H 0.43522 0.59863 0.09541 0.0
H1893 H 0.43981 0.52083 0.43559 0.0
H1894 H 0.8838 0.48727 0.71284 0.0
H1895 H 0.89619 0.46045 0.72572 0.0
H1896 H 0.92026 0.46246 0.61744 0.0
H1897 H 0.90853 0.48946 0.60537 0.0
H1898 H 0.90016 0.4299 0.69508 0.0
H1899 H 0.95896 0.45159 0.62962 0.0
H1900 H 0.97188 0.4773 0.61124 0.0
H1901 H 0.94525 0.50289 0.69688 0.0
H1902 H 0.93251 0.47726 0.71656 0.0
H1903 H 0.98613 0.38873 0.70749 0.0
H1904 H 0.9663 0.40644 0.677 0.0
H1905 H 0.93649 0.40328 0.77678 0.0
H1906 H 0.95597 0.38501 0.80662 0.0
H1907 H 0.95872 0.43512 0.69777 0.0
H1908 H 0.89827 0.41293 0.75821 0.0
H1909 H 0.88529 0.38705 0.77474 0.0
H1910 H 0.91564 0.36149 0.69615 0.0
H1911 H 0.92866 0.38723 0.67875 0.0
C1912 C 0.89139 0.48173 0.69144 0.0
C1913 C 0.89548 0.49046 0.65848 0.0
C1914 C 0.89844 0.46643 0.69876 0.0
C1915 C 0.90946 0.45969 0.67294 0.0
C1916 C 0.91207 0.46762 0.63811 0.0
C1917 C 0.90535 0.48301 0.63122 0.0
C1918 C 0.91983 0.44574 0.6845 0.0
C1919 C 0.91297 0.431 0.6959 0.0
C1920 C 0.93657 0.44712 0.68472 0.0
C1921 C 0.94462 0.46253 0.67421 0.0
C1922 C 0.95593 0.46268 0.64468 0.0
C1923 C 0.96321 0.47724 0.63399 0.0
C1924 C 0.95929 0.49174 0.65263 0.0
C1925 C 0.94822 0.49167 0.68233 0.0
C1926 C 0.94099 0.47712 0.69333 0.0
C1927 C 0.97517 0.39151 0.72253 0.0
C1928 C 0.9726 0.38552 0.75943 0.0
C1929 C 0.96385 0.40166 0.70513 0.0
C1930 C 0.94984 0.4062 0.72446 0.0
C1931 C 0.94701 0.39972 0.76085 0.0
C1932 C 0.9582 0.38932 0.77801 0.0
C1933 C 0.93913 0.41907 0.70837 0.0
C1934 C 0.94595 0.43377 0.69641 0.0
C1935 C 0.92241 0.41755 0.70746 0.0
C1936 C 0.91454 0.40201 0.71743 0.0
C1937 C 0.90213 0.4018 0.74433 0.0
C1938 C 0.89477 0.38715 0.75388 0.0
C1939 C 0.89967 0.37263 0.73659 0.0
C1940 C 0.9119 0.37274 0.70963 0.0
C1941 C 0.91929 0.38735 0.69995 0.0
H1942 H 0.89396 0.3613 0.74404 0.0
H1943 H 0.96488 0.503 0.64417 0.0
H1944 H 0.97297 0.1128 0.791 0.0
H1945 H 0.94664 0.10162 0.77805 0.0
H1946 H 0.96891 0.06257 0.71465 0.0
H1947 H 0.99491 0.07352 0.72778 0.0
H1948 H 0.94059 0.07126 0.68412 0.0
H1949 H 0.96329 0.05705 0.80714 0.0
H1950 H 0.97392 0.06374 0.8698 0.0
H1951 H 0.9303 0.08887 0.89821 0.0
H1952 H 0.91949 0.08241 0.8354 0.0
H1953 H 0.92005 0.9917 0.76193 0.0
H1954 H 0.92847 0.01925 0.77533 0.0
H1955 H 0.89029 0.03894 0.70706 0.0
H1956 H 0.88173 0.01104 0.69362 0.0
H1957 H 0.91822 0.04805 0.80301 0.0
H1958 H 0.90741 0.0676 0.65048 0.0
H1959 H 0.90222 0.05558 0.58801 0.0
H1960 H 0.92931 0.01267 0.61913 0.0
H1961 H 0.93471 0.0245 0.68157 0.0
C1962 C 0.9721 0.10218 0.7732 0.0
C1963 C 0.98587 0.09391 0.76055 0.0
C1964 C 0.95712 0.09578 0.76593 0.0
C1965 C 0.95584 0.0812 0.74559 0.0
C1966 C 0.96958 0.07387 0.7302 0.0
C1967 C 0.98444 0.08008 0.73787 0.0
C1968 C 0.94092 0.07191 0.74505 0.0
C1969 C 0.93528 0.06661 0.71009 0.0
C1970 C 0.93426 0.06554 0.77891 0.0
C1971 C 0.94068 0.06946 0.81654 0.0
C1972 C 0.95602 0.0641 0.8267 0.0
C1973 C 0.96207 0.06782 0.86223 0.0
C1974 C 0.95281 0.07678 0.88795 0.0
C1975 C 0.93747 0.08198 0.87821 0.0
C1976 C 0.93138 0.07829 0.84266 0.0
C1977 C 0.91311 0.00192 0.75087 0.0
C1978 C 0.90036 0.99932 0.72653 0.0
C1979 C 0.91788 0.01768 0.75869 0.0
C1980 C 0.91012 0.03116 0.74188 0.0
C1981 C 0.89646 0.02868 0.72021 0.0
C1982 C 0.89154 0.01279 0.71269 0.0
C1983 C 0.91821 0.04707 0.74209 0.0
C1984 C 0.92266 0.05353 0.77699 0.0
C1985 C 0.92434 0.05397 0.7082 0.0
C1986 C 0.92126 0.04684 0.67071 0.0
C1987 C 0.91224 0.05561 0.6439 0.0
C1988 C 0.90927 0.04883 0.60854 0.0
C1989 C 0.91536 0.03335 0.59967 0.0
C1990 C 0.92452 0.02463 0.62607 0.0
C1991 C 0.92753 0.03136 0.66144 0.0
H1992 H 0.91301 0.02813 0.57232 0.0
H1993 H 0.95749 0.07967 0.91547 0.0
H1994 H 0.47671 0.87851 0.1901 0.0
H1995 H 0.44875 0.88495 0.20597 0.0
H1996 H 0.46405 0.91855 0.29089 0.0
H1997 H 0.49176 0.91265 0.27409 0.0
H1998 H 0.43532 0.89884 0.31015 0.0
H1999 H 0.46022 0.93291 0.20811 0.0
H2000 H 0.47238 0.93507 0.14447 0.0
H2001 H 0.43136 0.91346 0.09582 0.0
H2002 H 0.41913 0.9108 0.15935 0.0
H2003 H 0.41053 0.97532 0.34754 0.0
H2004 H 0.41989 0.94808 0.3328 0.0
H2005 H 0.38642 0.94581 0.24119 0.0
H2006 H 0.37712 0.97375 0.25569 0.0
H2007 H 0.41458 0.93891 0.21577 0.0
H2008 H 0.38578 0.91647 0.31584 0.0
H2009 H 0.37323 0.91396 0.37888 0.0
H2010 H 0.41913 0.91187 0.4307 0.0
H2011 H 0.43198 0.91464 0.36812 0.0
C2012 C 0.474 0.88687 0.21291 0.0
C2013 C 0.48623 0.89512 0.23102 0.0
C2014 C 0.4581 0.89053 0.22192 0.0
C2015 C 0.4544 0.90217 0.24968 0.0
C2016 C 0.46669 0.90941 0.26968 0.0
C2017 C 0.48248 0.9061 0.26002 0.0
C2018 C 0.43816 0.90903 0.25427 0.0
C2019 C 0.43053 0.90744 0.28949 0.0
C2020 C 0.43156 0.91961 0.22649 0.0
C2021 C 0.43886 0.92145 0.18843 0.0
C2022 C 0.45386 0.9285 0.18387 0.0
C2023 C 0.46076 0.92983 0.14784 0.0
C2024 C 0.45266 0.9244 0.11614 0.0
C2025 C 0.43764 0.91763 0.1204 0.0
C2026 C 0.43073 0.91617 0.15641 0.0
C2027 C 0.40483 0.96891 0.32483 0.0
C2028 C 0.39323 0.97672 0.30245 0.0
C2029 C 0.41007 0.95316 0.31668 0.0
C2030 C 0.40377 0.94469 0.2861 0.0
C2031 C 0.39138 0.95205 0.26511 0.0
C2032 C 0.38604 0.96796 0.27344 0.0
C2033 C 0.41225 0.92967 0.27299 0.0
C2034 C 0.41858 0.92973 0.23606 0.0
C2035 C 0.41744 0.91749 0.2991 0.0
C2036 C 0.40986 0.9157 0.33708 0.0
C2037 C 0.39321 0.91554 0.34066 0.0
C2038 C 0.38604 0.91407 0.37635 0.0
C2039 C 0.39538 0.91274 0.40876 0.0
C2040 C 0.41191 0.91286 0.40555 0.0
C2041 C 0.41915 0.91432 0.36993 0.0
H2042 H 0.3898 0.91162 0.43637 0.0
H2043 H 0.45802 0.92547 0.08828 0.0
H2044 H 0.60837 0.476 0.7071 0.0
H2045 H 0.59739 0.45011 0.73117 0.0
H2046 H 0.55279 0.4748 0.75476 0.0
H2047 H 0.56341 0.50023 0.73041 0.0
H2048 H 0.56377 0.45337 0.81425 0.0
H2049 H 0.55612 0.45598 0.67505 0.0
H2050 H 0.56669 0.45655 0.60967 0.0
H2051 H 0.59299 0.41207 0.63107 0.0
H2052 H 0.58268 0.41137 0.69676 0.0
H2053 H 0.48981 0.43021 0.77693 0.0
H2054 H 0.51678 0.43864 0.76374 0.0
H2055 H 0.53456 0.39076 0.79499 0.0
H2056 H 0.50716 0.38209 0.80889 0.0
H2057 H 0.54705 0.41349 0.71837 0.0
H2058 H 0.54603 0.40778 0.85412 0.0
H2059 H 0.53305 0.40857 0.91695 0.0
H2060 H 0.52217 0.45958 0.90141 0.0
H2061 H 0.53491 0.45903 0.83823 0.0
C2062 C 0.59629 0.47583 0.71781 0.0
C2063 C 0.58669 0.49006 0.71666 0.0
C2064 C 0.59006 0.4611 0.73149 0.0
C2065 C 0.57432 0.46062 0.74489 0.0
C2066 C 0.565 0.47495 0.74483 0.0
C2067 C 0.57105 0.48946 0.73062 0.0
C2068 C 0.56671 0.44526 0.75679 0.0
C2069 C 0.56049 0.44431 0.79369 0.0
C2070 C 0.56268 0.43329 0.73016 0.0
C2071 C 0.56883 0.43374 0.69082 0.0
C2072 C 0.56426 0.44641 0.66586 0.0
C2073 C 0.57018 0.44674 0.62876 0.0
C2074 C 0.58055 0.43439 0.61626 0.0
C2075 C 0.58499 0.42165 0.64082 0.0
C2076 C 0.57912 0.42128 0.67798 0.0
C2077 C 0.49938 0.42135 0.7807 0.0
C2078 C 0.49639 0.40556 0.7945 0.0
C2079 C 0.51478 0.42618 0.77293 0.0
C2080 C 0.52759 0.41536 0.77873 0.0
C2081 C 0.52474 0.39924 0.7904 0.0
C2082 C 0.50915 0.39433 0.79823 0.0
C2083 C 0.5437 0.42201 0.77539 0.0
C2084 C 0.55127 0.42166 0.73989 0.0
C2085 C 0.549 0.43281 0.80333 0.0
C2086 C 0.54144 0.43334 0.84145 0.0
C2087 C 0.5408 0.41914 0.86402 0.0
C2088 C 0.53349 0.41955 0.8997 0.0
C2089 C 0.52681 0.43412 0.91317 0.0
C2090 C 0.52739 0.44831 0.89096 0.0
C2091 C 0.53469 0.44796 0.85525 0.0
H2092 H 0.52124 0.43439 0.94088 0.0
H2093 H 0.58512 0.43466 0.58752 0.0
H2094 H 0.0147 0.59502 0.21024 0.0
H2095 H 0.03896 0.58522 0.24272 0.0
H2096 H 0.01311 0.54455 0.28907 0.0
H2097 H 0.98928 0.554 0.25657 0.0
H2098 H 0.03341 0.55874 0.34137 0.0
H2099 H 0.0331 0.53962 0.20947 0.0
H2100 H 0.03352 0.54455 0.14043 0.0
H2101 H 0.07692 0.5708 0.15027 0.0
H2102 H 0.07662 0.56617 0.2195 0.0
H2103 H 0.06334 0.48171 0.36119 0.0
H2104 H 0.05119 0.50759 0.34427 0.0
H2105 H 0.09677 0.5261 0.30993 0.0
H2106 H 0.10925 0.49951 0.326 0.0
H2107 H 0.07443 0.53323 0.25826 0.0
H2108 H 0.07733 0.54114 0.39165 0.0
H2109 H 0.07506 0.53345 0.45918 0.0
H2110 H 0.02506 0.52624 0.44641 0.0
H2111 H 0.02701 0.53371 0.37898 0.0
C2112 C 0.01423 0.58417 0.22796 0.0
C2113 C 0.00021 0.57517 0.23076 0.0
C2114 C 0.02804 0.57859 0.24636 0.0
C2115 C 0.02779 0.56416 0.26826 0.0
C2116 C 0.01355 0.55575 0.27251 0.0
C2117 C -4e-05 0.5611 0.25373 0.0
C2118 C 0.04237 0.55663 0.28444 0.0
C2119 C 0.04258 0.55335 0.32345 0.0
C2120 C 0.05454 0.55003 0.26108 0.0
C2121 C 0.05473 0.55276 0.21959 0.0
C2122 C 0.04266 0.54655 0.19691 0.0
C2123 C 0.04288 0.54927 0.15776 0.0
C2124 C 0.05521 0.55804 0.14099 0.0
C2125 C 0.06736 0.56406 0.16332 0.0
C2126 C 0.06716 0.5614 0.2025 0.0
C2127 C 0.07095 0.49123 0.35037 0.0
C2128 C 0.08734 0.48847 0.34503 0.0
C2129 C 0.06394 0.50618 0.34106 0.0
C2130 C 0.0731 0.51901 0.32686 0.0
C2131 C 0.08951 0.51643 0.3214 0.0
C2132 C 0.09661 0.50126 0.33054 0.0
C2133 C 0.0649 0.53443 0.31506 0.0
C2134 C 0.06587 0.53923 0.27682 0.0
C2135 C 0.05362 0.54224 0.33915 0.0
C2136 C 0.05234 0.53808 0.38015 0.0
C2137 C 0.06585 0.53791 0.40325 0.0
C2138 C 0.06461 0.53358 0.44157 0.0
C2139 C 0.04991 0.5294 0.45716 0.0
C2140 C 0.03642 0.52957 0.43447 0.0
C2141 C 0.03758 0.53391 0.3962 0.0
H2142 H 0.04898 0.52601 0.48679 0.0
H2143 H 0.05537 0.56012 0.11067 0.0
H2144 H 0.17306 0.00532 0.2714 0.0
H2145 H 0.20097 0.99751 0.2809 0.0
H2146 H 0.21019 0.04574 0.32229 0.0
H2147 H 0.18233 0.05343 0.31387 0.0
H2148 H 0.2268 0.01019 0.24782 0.0
H2149 H 0.23765 0.04464 0.38942 0.0
H2150 H 0.22335 0.05017 0.44927 0.0
H2151 H 0.19477 0.00801 0.43301 0.0
H2152 H 0.20905 0.00207 0.37339 0.0
H2153 H 0.30111 0.04973 0.31439 0.0
H2154 H 0.2729 0.04403 0.32125 0.0
H2155 H 0.28192 0.99398 0.28959 0.0
H2156 H 0.31028 -0.00029 0.28219 0.0
H2157 H 0.25599 0.02188 0.36561 0.0
H2158 H 0.24955 0.98399 0.23296 0.0
H2159 H 0.26347 0.97835 0.17254 0.0
H2160 H 0.28225 0.02671 0.17155 0.0
H2161 H 0.26829 0.03268 0.23166 0.0
C2162 C 0.18097 0.01411 0.28337 0.0
C2163 C 0.17549 0.02989 0.2926 0.0
C2164 C 0.19692 0.00967 0.28848 0.0
C2165 C 0.20756 0.02093 0.30302 0.0
C2166 C 0.2021 0.03673 0.31191 0.0
C2167 C 0.18622 0.04116 0.30672 0.0
C2168 C 0.22465 0.0168 0.30659 0.0
C2169 C 0.23314 0.01229 0.27387 0.0
C2170 C 0.23291 0.01956 0.34057 0.0
C2171 C 0.2244 0.02296 0.37676 0.0
C2172 C 0.22839 0.03648 0.39871 0.0
C2173 C 0.22027 0.0397 0.43259 0.0
C2174 C 0.20814 0.02947 0.4449 0.0
C2175 C 0.20414 0.01596 0.4234 0.0
C2176 C 0.21223 0.01267 0.38953 0.0
C2177 C 0.2971 0.03748 0.30918 0.0
C2178 C 0.30785 0.02514 0.29796 0.0
C2179 C 0.28103 0.0342 0.31342 0.0
C2180 C 0.27536 0.01859 0.30597 0.0
C2181 C 0.2861 0.0061 0.29553 0.0
C2182 C 0.30227 0.00936 0.29154 0.0
C2183 C 0.25805 0.01604 0.30648 0.0
C2184 C 0.24955 0.01927 0.33997 0.0
C2185 C 0.24977 0.01201 0.27332 0.0
C2186 C 0.25807 0.00868 0.237 0.0
C2187 C 0.25664 0.99341 0.21977 0.0
C2188 C 0.26453 0.99016 0.1856 0.0
C2189 C 0.27379 0.00214 0.16831 0.0
C2190 C 0.27513 0.01742 0.18506 0.0
C2191 C 0.26725 0.02073 0.21919 0.0
H2192 H 0.2799 -0.00041 0.14187 0.0
H2193 H 0.20186 0.03199 0.47111 0.0
H2194 H 0.43599 0.18546 0.81476 0.0
H2195 H 0.44197 0.21421 0.82248 0.0
H2196 H 0.49074 0.20462 0.79036 0.0
H2197 H 0.48479 0.17564 0.78242 0.0
H2198 H 0.48668 0.22773 0.85137 0.0
H2199 H 0.46918 0.21959 0.72524 0.0
H2200 H 0.45212 0.20869 0.67548 0.0
H2201 H 0.41197 0.23498 0.72153 0.0
H2202 H 0.42874 0.24584 0.77194 0.0
H2203 H 0.4824 0.31751 0.80137 0.0
H2204 H 0.48947 0.28831 0.79983 0.0
H2205 H 0.4445 0.27694 0.85191 0.0
H2206 H 0.4375 0.3059 0.85434 0.0
H2207 H 0.4532 0.26469 0.77199 0.0
H2208 H 0.47087 0.26936 0.90331 0.0
H2209 H 0.48832 0.28004 0.95258 0.0
H2210 H 0.52921 0.26072 0.89369 0.0
H2211 H 0.51198 0.25015 0.84374 0.0
C2212 C 0.44803 0.18943 0.80965 0.0
C2213 C 0.45993 0.17833 0.79808 0.0
C2214 C 0.45144 0.20582 0.81419 0.0
C2215 C 0.46675 0.21151 0.80663 0.0
C2216 C 0.47887 0.2004 0.79647 0.0
C2217 C 0.47546 0.18388 0.79207 0.0
C2218 C 0.46945 0.22926 0.80664 0.0
C2219 C 0.47964 0.23586 0.8335 0.0
C2220 C 0.46034 0.23979 0.78307 0.0
C2221 C 0.45022 0.23347 0.75248 0.0
C2222 C 0.4567 0.22297 0.72489 0.0
C2223 C 0.44708 0.21681 0.69655 0.0
C2224 C 0.43097 0.22113 0.69536 0.0
C2225 C 0.42446 0.23165 0.72247 0.0
C2226 C 0.43402 0.23784 0.7509 0.0
C2227 C 0.4743 0.30883 0.8138 0.0
C2228 C 0.4594 0.31395 0.82802 0.0
C2229 C 0.47834 0.29218 0.81275 0.0
C2230 C 0.46749 0.2806 0.82585 0.0
C2231 C 0.45302 0.28577 0.84185 0.0
C2232 C 0.44902 0.30229 0.84301 0.0
C2233 C 0.46981 0.26312 0.81789 0.0
C2234 C 0.46057 0.25659 0.78921 0.0
C2235 C 0.47987 0.25278 0.83954 0.0
C2236 C 0.49017 0.2592 0.86949 0.0
C2237 C 0.48359 0.26758 0.9006 0.0
C2238 C 0.49344 0.27356 0.92872 0.0
C2239 C 0.50987 0.27112 0.92618 0.0
C2240 C 0.51648 0.26265 0.89557 0.0
C2241 C 0.50668 0.25666 0.86736 0.0
H2242 H 0.51747 0.27575 0.948 0.0
H2243 H 0.42354 0.21634 0.67341 0.0
H2244 H 0.30418 0.46577 0.24895 0.0
H2245 H 0.27606 0.47269 0.25732 0.0
H2246 H 0.28525 0.48941 0.37039 0.0
H2247 H 0.31334 0.48195 0.36247 0.0
H2248 H 0.26249 0.468 0.37082 0.0
H2249 H 0.27211 0.51651 0.30175 0.0
H2250 H 0.28277 0.53393 0.25059 0.0
H2251 H 0.25494 0.50877 0.1692 0.0
H2252 H 0.24428 0.49102 0.21976 0.0
H2253 H 0.17886 0.47269 0.38358 0.0
H2254 H 0.20555 0.48406 0.38222 0.0
H2255 H 0.21272 0.46589 0.26899 0.0
H2256 H 0.18588 0.45504 0.26979 0.0
H2257 H 0.2268 0.49548 0.27809 0.0
H2258 H 0.22349 0.44315 0.34533 0.0
H2259 H 0.21327 0.425 0.39575 0.0
H2260 H 0.22993 0.45768 0.48031 0.0
H2261 H 0.24006 0.47612 0.43029 0.0
C2262 C 0.30023 0.47129 0.27522 0.0
C2263 C 0.31093 0.47366 0.30473 0.0
C2264 C 0.2842 0.47537 0.2799 0.0
C2265 C 0.27859 0.48185 0.31427 0.0
C2266 C 0.28937 0.48465 0.34346 0.0
C2267 C 0.30543 0.48055 0.33877 0.0
C2268 C 0.26127 0.48348 0.32114 0.0
C2269 C 0.25471 0.47445 0.35119 0.0
C2270 C 0.25111 0.49169 0.29524 0.0
C2271 C 0.25743 0.50238 0.26462 0.0
C2272 C 0.26833 0.51461 0.27292 0.0
C2273 C 0.27437 0.52456 0.24401 0.0
C2274 C 0.26955 0.52245 0.20667 0.0
C2275 C 0.25866 0.5104 0.19815 0.0
C2276 C 0.25259 0.50041 0.22695 0.0
C2277 C 0.18591 0.47172 0.35789 0.0
C2278 C 0.18028 0.46325 0.32651 0.0
C2279 C 0.20119 0.47806 0.35729 0.0
C2280 C 0.21112 0.47574 0.32557 0.0
C2281 C 0.20521 0.46791 0.29363 0.0
C2282 C 0.18995 0.46162 0.2942 0.0
C2283 C 0.22818 0.47958 0.32688 0.0
C2284 C 0.23465 0.48956 0.29838 0.0
C2285 C 0.23831 0.47223 0.35413 0.0
C2286 C 0.23234 0.46109 0.38413 0.0
C2287 C 0.22487 0.44651 0.37468 0.0
C2288 C 0.21911 0.43617 0.40317 0.0
C2289 C 0.22091 0.44022 0.44121 0.0
C2290 C 0.22851 0.45459 0.45084 0.0
C2291 C 0.23426 0.46498 0.42244 0.0
H2292 H 0.21644 0.4322 0.46324 0.0
H2293 H 0.27424 0.53016 0.18433 0.0
H2294 H 0.03873 0.31319 0.86591 0.0
H2295 H 0.03237 0.28443 0.86228 0.0
H2296 H 0.98677 0.29708 0.8143 0.0
H2297 H 0.9934 0.32602 0.81632 0.0
H2298 H 0.0118 0.26441 0.8887 0.0
H2299 H 0.97719 0.26846 0.75014 0.0
H2300 H 0.97372 0.28676 0.69472 0.0
H2301 H 0.02117 0.30398 0.70784 0.0
H2302 H 0.02495 0.28566 0.76305 0.0
H2303 H 0.00214 0.18145 0.84144 0.0
H2304 H 0.99389 0.20982 0.85117 0.0
H2305 H 0.02646 0.22508 0.76327 0.0
H2306 H 0.034 0.19674 0.75183 0.0
H2307 H 0.00109 0.24352 0.76026 0.0
H2308 H 0.03642 0.22362 0.85956 0.0
H2309 H 0.04409 0.20538 0.91259 0.0
H2310 H 0.00216 0.22007 0.97429 0.0
H2311 H 0.99415 0.23826 0.92137 0.0
C2312 C 0.02727 0.3099 0.85494 0.0
C2313 C 0.01667 0.32186 0.84082 0.0
C2314 C 0.0236 0.29342 0.85306 0.0
C2315 C 0.00919 0.28855 0.83747 0.0
C2316 C 0.99811 0.30053 0.8257 0.0
C2317 C 0.0019 0.31706 0.82692 0.0
C2318 C 0.00662 0.27096 0.8308 0.0
C2319 C 0.00923 0.25985 0.86072 0.0
C2320 C 0.00332 0.26495 0.79429 0.0
C2321 C 0.00126 0.27587 0.76094 0.0
C2322 C 0.98688 0.27614 0.74111 0.0
C2323 C 0.98486 0.28651 0.70976 0.0
C2324 C 0.99719 0.29657 0.69786 0.0
C2325 C 0.0116 0.29623 0.71717 0.0
C2326 C 0.01369 0.28587 0.74849 0.0
C2327 C 0.00707 0.19074 0.82312 0.0
C2328 C 0.01857 0.1868 0.79543 0.0
C2329 C 0.00251 0.20702 0.82914 0.0
C2330 C 0.00967 0.2196 0.80822 0.0
C2331 C 0.0207 0.21559 0.77966 0.0
C2332 C 0.0251 0.19939 0.77336 0.0
C2333 C 0.00694 0.237 0.8178 0.0
C2334 C 0.00319 0.24807 0.78849 0.0
C2335 C 0.00976 0.24298 0.85456 0.0
C2336 C 0.01459 0.23212 0.88638 0.0
C2337 C 0.02879 0.22287 0.88435 0.0
C2338 C 0.0332 0.21256 0.91438 0.0
C2339 C 0.02359 0.21153 0.94674 0.0
C2340 C 0.00957 0.22085 0.94917 0.0
C2341 C 0.00509 0.23116 0.91918 0.0
H2342 H 0.02703 0.20354 0.96996 0.0
H2343 H 0.9956 0.30461 0.67362 0.0
H2344 H 0.69168 0.96363 0.7496 0.0
H2345 H 0.71931 0.97116 0.73907 0.0
H2346 H 0.70953 0.98059 0.62099 0.0
H2347 H 0.68197 0.97247 0.6313 0.0
H2348 H 0.73463 0.96168 0.62798 0.0
H2349 H 0.71912 0.01222 0.67937 0.0
H2350 H 0.70601 0.03159 0.72301 0.0
H2351 H 0.73505 0.01366 0.81421 0.0
H2352 H 0.74819 0.99399 0.7713 0.0
H2353 H 0.81836 0.97254 0.62265 0.0
H2354 H 0.79062 0.98198 0.61725 0.0
H2355 H 0.78176 0.9665 0.73256 0.0
H2356 H 0.80941 0.95724 0.73806 0.0
H2357 H 0.76602 0.99605 0.71341 0.0
H2358 H 0.77524 0.94098 0.66249 0.0
H2359 H 0.78808 0.92167 0.61814 0.0
H2360 H 0.77027 0.94974 0.52381 0.0
H2361 H 0.75749 0.96933 0.5677 0.0
C2362 C 0.6954 0.96759 0.72158 0.0
C2363 C 0.68467 0.96788 0.69147 0.0
C2364 C 0.71112 0.97204 0.71562 0.0
C2365 C 0.71641 0.9768 0.67938 0.0
C2366 C 0.70564 0.97722 0.64928 0.0
C2367 C 0.68989 0.97275 0.65526 0.0
C2368 C 0.73354 0.97947 0.67257 0.0
C2369 C 0.74143 0.9696 0.64589 0.0
C2370 C 0.74245 0.98975 0.69596 0.0
C2371 C 0.73461 0.00157 0.72206 0.0
C2372 C 0.72265 0.01232 0.70879 0.0
C2373 C 0.71522 0.02337 0.7334 0.0
C2374 C 0.71969 0.02385 0.77136 0.0
C2375 C 0.73161 0.01329 0.78478 0.0
C2376 C 0.73908 0.0022 0.7603 0.0
C2377 C 0.81058 0.97167 0.64712 0.0
C2378 C 0.81594 0.96436 0.6809 0.0
C2379 C 0.79476 0.97696 0.64396 0.0
C2380 C 0.78419 0.97493 0.67453 0.0
C2381 C 0.78978 0.9683 0.70878 0.0
C2382 C 0.80549 0.96291 0.71182 0.0
C2383 C 0.76694 0.97778 0.6701 0.0
C2384 C 0.75908 0.98864 0.69466 0.0
C2385 C 0.75803 0.96854 0.64457 0.0
C2386 C 0.76561 0.95671 0.6183 0.0
C2387 C 0.77417 0.94309 0.63229 0.0
C2388 C 0.78141 0.93209 0.60725 0.0
C2389 C 0.78003 0.9345 0.56818 0.0
C2390 C 0.77136 0.9479 0.55407 0.0
C2391 C 0.76412 0.95896 0.57901 0.0
H2392 H 0.78565 0.92597 0.54883 0.0
H2393 H 0.71392 0.03242 0.79037 0.0
H2394 H 0.5273 0.68264 0.24986 0.0
H2395 H 0.51845 0.71083 0.23933 0.0
H2396 H 0.5128 0.70126 0.12032 0.0
H2397 H 0.52205 0.6731 0.13068 0.0
H2398 H 0.53084 0.72697 0.13118 0.0
H2399 H 0.48024 0.71146 0.17264 0.0
H2400 H 0.45995 0.69785 0.21177 0.0
H2401 H 0.47304 0.72625 0.30767 0.0
H2402 H 0.49359 0.73987 0.26932 0.0
H2403 H 0.52019 0.81337 0.13212 0.0
H2404 H 0.51164 0.78535 0.12206 0.0
H2405 H 0.52127 0.77372 0.23915 0.0
H2406 H 0.52947 0.80176 0.24949 0.0
H2407 H 0.49383 0.75893 0.21292 0.0
H2408 H 0.54922 0.76731 0.17308 0.0
H2409 H 0.56975 0.78049 0.13371 0.0
H2410 H 0.54654 0.76487 0.03293 0.0
H2411 H 0.52576 0.75176 0.07179 0.0
C2412 C 0.52385 0.68648 0.22162 0.0
C2413 C 0.5251 0.67565 0.19122 0.0
C2414 C 0.51865 0.70253 0.21565 0.0
C2415 C 0.5147 0.70807 0.17912 0.0
C2416 C 0.51556 0.69715 0.14881 0.0
C2417 C 0.52069 0.68102 0.15483 0.0
C2418 C 0.51185 0.72573 0.17241 0.0
C2419 C 0.52237 0.73393 0.14814 0.0
C2420 C 0.50086 0.7348 0.19463 0.0
C2421 C 0.48852 0.72667 0.21804 0.0
C2422 C 0.47888 0.71473 0.20214 0.0
C2423 C 0.46731 0.70702 0.22419 0.0
C2424 C 0.46521 0.71118 0.26219 0.0
C2425 C 0.47467 0.72306 0.27821 0.0
C2426 C 0.48627 0.7308 0.2563 0.0
C2427 C 0.51994 0.805 0.15597 0.0
C2428 C 0.52528 0.80973 0.19172 0.0
C2429 C 0.51519 0.78897 0.1501 0.0
C2430 C 0.51582 0.77751 0.17988 0.0
C2431 C 0.52057 0.78243 0.2159 0.0
C2432 C 0.52538 0.79838 0.22169 0.0
C2433 C 0.51331 0.75999 0.1732 0.0
C2434 C 0.50182 0.75188 0.19494 0.0
C2435 C 0.52333 0.75096 0.14852 0.0
C2436 C 0.53585 0.75876 0.12527 0.0
C2437 C 0.54845 0.7668 0.14252 0.0
C2438 C 0.56013 0.77424 0.12031 0.0
C2439 C 0.55942 0.77357 0.08084 0.0
C2440 C 0.54705 0.76541 0.0635 0.0
C2441 C 0.53532 0.75798 0.08559 0.0
H2442 H 0.56848 0.77933 0.06369 0.0
H2443 H 0.45625 0.70519 0.27921 0.0
H2444 H 0.81016 0.52132 0.61591 0.0
H2445 H 0.78349 0.51052 0.60784 0.0
H2446 H 0.77569 0.51261 0.72864 0.0
H2447 H 0.80252 0.52297 0.73683 0.0
H2448 H 0.76237 0.48504 0.69632 0.0
H2449 H 0.76477 0.5441 0.67352 0.0
H2450 H 0.77471 0.56846 0.63996 0.0
H2451 H 0.75884 0.54946 0.53424 0.0
H2452 H 0.74897 0.52487 0.5672 0.0
H2453 H 0.68662 0.51165 0.74919 0.0
H2454 H 0.71406 0.50384 0.7342 0.0
H2455 H 0.70301 0.50415 0.61508 0.0
H2456 H 0.67561 0.51235 0.63009 0.0
H2457 H 0.72629 0.52402 0.62965 0.0
H2458 H 0.71679 0.46892 0.65641 0.0
H2459 H 0.70643 0.44479 0.68994 0.0
H2460 H 0.73491 0.45542 0.78651 0.0
H2461 H 0.74527 0.47978 0.75384 0.0
C2462 C 0.80293 0.51892 0.64079 0.0
C2463 C 0.8084 0.52265 0.67707 0.0
C2464 C 0.7877 0.51287 0.63612 0.0
C2465 C 0.77767 0.51076 0.66766 0.0
C2466 C 0.78333 0.514 0.70401 0.0
C2467 C 0.79855 0.52004 0.70865 0.0
C2468 C 0.76071 0.50709 0.66285 0.0
C2469 C 0.75441 0.49348 0.6817 0.0
C2470 C 0.7505 0.51778 0.64242 0.0
C2471 C 0.75634 0.53258 0.62271 0.0
C2472 C 0.76351 0.54507 0.64309 0.0
C2473 C 0.76911 0.55892 0.62419 0.0
C2474 C 0.76746 0.56048 0.58497 0.0
C2475 C 0.76015 0.54821 0.5646 0.0
C2476 C 0.75455 0.53432 0.58336 0.0
C2477 C 0.68997 0.50951 0.71994 0.0
C2478 C 0.67902 0.51227 0.69085 0.0
C2479 C 0.70559 0.50493 0.71137 0.0
C2480 C 0.71054 0.5032 0.67351 0.0
C2481 C 0.69938 0.50519 0.64448 0.0
C2482 C 0.68371 0.50971 0.65309 0.0
C2483 C 0.72772 0.50231 0.66461 0.0
C2484 C 0.73415 0.51515 0.6432 0.0
C2485 C 0.73799 0.49086 0.68259 0.0
C2486 C 0.73178 0.47625 0.70264 0.0
C2487 C 0.72076 0.4662 0.68491 0.0
C2488 C 0.7149 0.45246 0.70375 0.0
C2489 C 0.72 0.44858 0.74034 0.0
C2490 C 0.73098 0.45843 0.75815 0.0
C2491 C 0.73688 0.4722 0.73944 0.0
H2492 H 0.71545 0.43793 0.75488 0.0
H2493 H 0.7718 0.57121 0.57039 0.0
H2494 H 0.97879 0.66767 0.12834 0.0
H2495 H 0.98519 0.69679 0.12669 0.0
H2496 H 0.96876 0.70136 0.24229 0.0
H2497 H 0.96204 0.67251 0.24355 0.0
H2498 H 0.95396 0.72236 0.19799 0.0
H2499 H 0.00854 0.70501 0.21564 0.0
H2500 H 0.03321 0.68985 0.19969 0.0
H2501 H 0.03532 0.71439 0.09179 0.0
H2502 H 0.01053 0.72954 0.1069 0.0
H2503 H 0.97208 0.80046 0.25044 0.0
H2504 H 0.97624 0.77103 0.24505 0.0
H2505 H 0.98324 0.7763 0.12451 0.0
H2506 H 0.9788 0.8058 0.12953 0.0
H2507 H 0.00359 0.75083 0.16349 0.0
H2508 H 0.94918 0.76792 0.14576 0.0
H2509 H 0.92472 0.78341 0.16184 0.0
H2510 H 0.92241 0.75887 0.26972 0.0
H2511 H 0.94702 0.74343 0.2545 0.0
C2512 C 0.97706 0.67483 0.15368 0.0
C2513 C 0.97002 0.66795 0.18615 0.0
C2514 C 0.98067 0.69145 0.15271 0.0
C2515 C 0.97744 0.70126 0.18438 0.0
C2516 C 0.97128 0.69405 0.21748 0.0
C2517 C 0.96748 0.6776 0.21824 0.0
C2518 C 0.9786 0.71927 0.18212 0.0
C2519 C 0.9649 0.72851 0.19086 0.0
C2520 C 0.99267 0.72736 0.17129 0.0
C2521 C 0.00758 0.71827 0.16224 0.0
C2522 C 0.01419 0.70707 0.18837 0.0
C2523 C 0.02821 0.6985 0.17951 0.0
C2524 C 0.03581 0.70112 0.1447 0.0
C2525 C 0.02941 0.71235 0.11872 0.0
C2526 C 0.01538 0.72094 0.12743 0.0
C2527 C 0.97482 0.79541 0.22286 0.0
C2528 C 0.97519 0.80547 0.19046 0.0
C2529 C 0.97728 0.77862 0.21988 0.0
C2530 C 0.98 0.77155 0.18438 0.0
C2531 C 0.98133 0.7816 0.15219 0.0
C2532 C 0.97885 0.79848 0.15516 0.0
C2533 C 0.97913 0.75365 0.18074 0.0
C2534 C 0.99273 0.74453 0.17051 0.0
C2535 C 0.96496 0.74555 0.1901 0.0
C2536 C 0.95001 0.75463 0.19912 0.0
C2537 C 0.94352 0.76592 0.17302 0.0
C2538 C 0.92962 0.77468 0.18197 0.0
C2539 C 0.92203 0.77215 0.21682 0.0
C2540 C 0.92831 0.76082 0.24275 0.0
C2541 C 0.94223 0.75206 0.23397 0.0
H2542 H 0.91127 0.77894 0.2237 0.0
H2543 H 0.04666 0.69448 0.1379 0.0
loop_
_geom_bond_atom_site_label_1
_geom_bond_atom_site_label_2
_geom_bond_distance
_geom_bond_site_symmetry_2
_ccdc_geom_bond_type
Co0 O3 1.970 . S
Co0 N17 1.989 . S
Co0 O25 1.967 . S
Co0 O32 1.920 . S
Co1 O4 1.966 . S
Co1 N10 2.022 . S
Co1 N18 1.993 . S
Co1 O26 1.941 . S
C2 O3 1.258 1_565 S
C2 O4 1.263 1_565 S
O3 Co0 1.970 . S
O3 C2 1.258 1_545 S
O4 Co1 1.966 . S
O4 C2 1.263 1_545 S
C5 O6 1.235 . S
C5 O32 1.289 . S
O6 C5 1.235 . S
C7 C9 1.400 . S
C7 N10 1.351 . S
C7 C12 1.463 1_545 S
C8 C9 1.387 . S
C8 N11 1.341 . S
C9 C7 1.400 . S
C9 C8 1.387 . S
N10 Co1 2.022 . S
N10 C7 1.351 . S
N10 N11 1.365 . S
N11 C8 1.341 . S
N11 N10 1.365 . S
N11 H31 0.862 . S
C12 C7 1.463 1_565 S
C12 H13 0.965 . S
C12 H14 0.981 . S
C12 H15 0.975 . S
H13 C12 0.965 . S
H14 C12 0.981 . S
H15 C12 0.975 . S
C16 N17 1.342 . S
C16 C20 1.401 . S
C16 C21 1.499 . S
N17 Co0 1.989 . S
N17 C16 1.342 . S
N17 N18 1.388 . S
N18 Co1 1.993 . S
N18 N17 1.388 . S
N18 C19 1.346 . S
C19 N18 1.346 . S
C19 C20 1.396 . S
C19 C29 1.510 . S
C20 C16 1.401 . S
C20 C19 1.396 . S
C21 C16 1.499 . S
C21 H22 0.959 . S
C21 H23 0.960 . S
C21 H24 0.961 . S
H22 C21 0.959 . S
H23 C21 0.960 . S
H24 C21 0.961 . S
O25 Co0 1.967 . S
O25 C33 1.258 . S
O26 Co1 1.941 . S
O26 C33 1.266 . S
H27 C29 0.959 . S
H28 C29 0.961 . S
C29 C19 1.510 . S
C29 H27 0.959 . S
C29 H28 0.961 . S
C29 H30 0.960 . S
H30 C29 0.960 . S
H31 N11 0.862 . S
O32 Co0 1.920 . S
O32 C5 1.289 . S
C33 O25 1.258 . S
C33 O26 1.266 . S
Co34 O37 1.970 . S
Co34 N51 1.989 . S
Co34 O59 1.967 . S
Co34 O66 1.920 . S
Co35 O38 1.966 . S
Co35 N44 2.022 . S
Co35 N52 1.993 . S
Co35 O60 1.941 . S
C36 O37 1.258 . S
C36 O38 1.263 . S
O37 Co34 1.970 . S
O37 C36 1.258 . S
O38 Co35 1.966 . S
O38 C36 1.263 . S
C39 O40 1.235 . S
C39 O66 1.289 . S
O40 C39 1.235 . S
C41 C43 1.400 . S
C41 N44 1.351 . S
C41 C46 1.501 . S
C42 C43 1.387 . S
C42 N45 1.341 . S
C43 C41 1.400 . S
C43 C42 1.387 . S
N44 Co35 2.022 . S
N44 C41 1.351 . S
N44 N45 1.365 . S
N45 C42 1.341 . S
N45 N44 1.365 . S
N45 H65 0.862 . S
C46 C41 1.501 . S
C46 H47 0.961 . S
C46 H48 0.961 . S
C46 H49 0.960 . S
H47 C46 0.961 . S
H48 C46 0.961 . S
H49 C46 0.960 . S
C50 N51 1.342 . S
C50 C54 1.401 . S
C50 C55 1.499 . S
N51 Co34 1.989 . S
N51 C50 1.342 . S
N51 N52 1.388 . S
N52 Co35 1.993 . S
N52 N51 1.388 . S
N52 C53 1.346 . S
C53 N52 1.346 . S
C53 C54 1.396 . S
C53 C63 1.510 . S
C54 C50 1.401 . S
C54 C53 1.396 . S
C55 C50 1.499 . S
C55 H56 0.959 . S
C55 H57 0.960 1_556 S
C55 H58 0.961 1_556 S
H56 C55 0.959 . S
H57 C55 0.960 1_554 S
H58 C55 0.961 1_554 S
O59 Co34 1.967 . S
O59 C67 1.258 . S
O60 Co35 1.941 . S
O60 C67 1.266 . S
H61 C63 0.959 . S
H62 C63 0.961 . S
C63 C53 1.510 . S
C63 H61 0.959 . S
C63 H62 0.961 . S
C63 H64 0.960 . S
H64 C63 0.960 . S
H65 N45 0.862 . S
O66 Co34 1.920 . S
O66 C39 1.289 . S
C67 O59 1.258 . S
C67 O60 1.266 . S
Co68 O71 1.970 . S
Co68 N85 1.989 . S
Co68 O93 1.967 . S
Co68 O100 1.920 . S
Co69 O72 1.966 . S
Co69 N78 2.022 . S
Co69 N86 1.993 . S
Co69 O94 1.941 . S
C70 O71 1.258 . S
C70 O72 1.263 . S
O71 Co68 1.970 . S
O71 C70 1.258 . S
O72 Co69 1.966 . S
O72 C70 1.263 . S
C73 O74 1.235 . S
C73 O100 1.289 . S
O74 C73 1.235 . S
C75 C77 1.400 . S
C75 N78 1.351 . S
C75 C80 1.501 . S
C76 C77 1.387 . S
C76 N79 1.341 . S
C77 C75 1.400 . S
C77 C76 1.387 . S
N78 Co69 2.022 . S
N78 C75 1.351 . S
N78 N79 1.365 . S
N79 C76 1.341 . S
N79 N78 1.365 . S
N79 H99 0.862 . S
C80 C75 1.501 . S
C80 H81 0.961 . S
C80 H82 0.961 . S
C80 H83 0.960 . S
H81 C80 0.961 . S
H82 C80 0.961 . S
H83 C80 0.960 . S
C84 N85 1.342 . S
C84 C88 1.401 . S
C84 C89 1.499 . S
N85 Co68 1.989 . S
N85 C84 1.342 . S
N85 N86 1.388 . S
N86 Co69 1.993 . S
N86 N85 1.388 . S
N86 C87 1.346 . S
C87 N86 1.346 . S
C87 C88 1.396 . S
C87 C97 1.510 . S
C88 C84 1.401 . S
C88 C87 1.396 . S
C89 C84 1.499 . S
C89 H90 0.959 . S
C89 H91 0.960 . S
C89 H92 0.961 . S
H90 C89 0.959 . S
H91 C89 0.960 . S
H92 C89 0.961 . S
O93 Co68 1.967 . S
O93 C101 1.258 . S
O94 Co69 1.941 . S
O94 C101 1.266 . S
H95 C97 0.959 . S
H96 C97 0.961 . S
C97 C87 1.510 . S
C97 H95 0.959 . S
C97 H96 0.961 . S
C97 H98 0.960 . S
H98 C97 0.960 . S
H99 N79 0.862 . S
O100 Co68 1.920 . S
O100 C73 1.289 . S
C101 O93 1.258 . S
C101 O94 1.266 . S
Co102 O105 1.970 . S
Co102 N119 1.989 . S
Co102 O127 1.967 . S
Co102 O134 1.920 1_455 S
Co103 O106 1.966 . S
Co103 N112 2.022 . S
Co103 N120 1.993 . S
Co103 O128 1.941 . S
C104 O105 1.258 . S
C104 O106 1.263 . S
O105 Co102 1.970 . S
O105 C104 1.258 . S
O106 Co103 1.966 . S
O106 C104 1.263 . S
C107 O108 1.235 . S
C107 O134 1.289 . S
O108 C107 1.235 . S
C109 C111 1.400 . S
C109 N112 1.351 1_554 S
C109 C114 1.501 . S
C110 C111 1.387 . S
C110 N113 1.341 1_554 S
C111 C109 1.400 . S
C111 C110 1.387 . S
N112 Co103 2.022 . S
N112 C109 1.351 1_556 S
N112 N113 1.365 . S
N113 C110 1.341 1_556 S
N113 N112 1.365 . S
N113 H133 0.862 . S
C114 C109 1.501 . S
C114 H115 0.961 1_554 S
C114 H116 0.961 . S
C114 H117 0.960 . S
H115 C114 0.961 1_556 S
H116 C114 0.961 . S
H117 C114 0.960 . S
C118 N119 1.352 . S
C118 C122 1.410 . S
C118 C123 1.484 1_455 S
N119 Co102 1.989 . S
N119 C118 1.352 . S
N119 N120 1.388 . S
N120 Co103 1.993 . S
N120 N119 1.388 . S
N120 C121 1.346 . S
C121 N120 1.346 . S
C121 C122 1.396 . S
C121 C131 1.510 1_556 S
C122 C118 1.410 . S
C122 C121 1.396 . S
C123 C118 1.484 1_655 S
C123 H124 0.959 . S
C123 H125 0.960 . S
C123 H126 0.961 . S
H124 C123 0.959 . S
H125 C123 0.960 . S
H126 C123 0.961 . S
O127 Co102 1.967 . S
O127 C135 1.258 . S
O128 Co103 1.941 . S
O128 C135 1.266 . S
H129 C131 0.959 . S
H130 C131 0.961 . S
C131 C121 1.510 1_554 S
C131 H129 0.959 . S
C131 H130 0.961 . S
C131 H132 0.960 . S
H132 C131 0.960 . S
H133 N113 0.862 . S
O134 Co102 1.920 1_655 S
O134 C107 1.289 . S
C135 O127 1.258 . S
C135 O128 1.266 . S
Co136 O139 1.970 . S
Co136 N153 1.989 . S
Co136 O161 1.967 . S
Co136 O168 1.920 . S
Co137 O140 1.966 . S
Co137 N146 2.022 . S
Co137 N154 1.993 . S
Co137 O162 1.941 . S
C138 O139 1.258 . S
C138 O140 1.263 . S
O139 Co136 1.970 . S
O139 C138 1.258 . S
O140 Co137 1.966 . S
O140 C138 1.263 . S
C141 O142 1.235 . S
C141 O168 1.289 . S
O142 C141 1.235 . S
C143 C145 1.400 . S
C143 N146 1.351 . S
C143 C148 1.501 . S
C144 C145 1.387 . S
C144 N147 1.341 . S
C145 C143 1.400 . S
C145 C144 1.387 . S
N146 Co137 2.022 . S
N146 C143 1.351 . S
N146 N147 1.365 . S
N147 C144 1.341 . S
N147 N146 1.365 . S
N147 H167 0.862 . S
C148 C143 1.501 . S
C148 H149 0.961 . S
C148 H150 0.961 1_565 S
C148 H151 0.960 1_565 S
H149 C148 0.961 . S
H150 C148 0.961 1_545 S
H151 C148 0.960 1_545 S
C152 N153 1.342 . S
C152 C156 1.401 . S
C152 C157 1.499 . S
N153 Co136 1.989 . S
N153 C152 1.342 . S
N153 N154 1.388 . S
N154 Co137 1.993 . S
N154 N153 1.388 . S
N154 C155 1.346 . S
C155 N154 1.346 . S
C155 C156 1.396 . S
C155 C165 1.510 . S
C156 C152 1.401 . S
C156 C155 1.396 . S
C157 C152 1.499 . S
C157 H158 0.959 . S
C157 H159 0.960 . S
C157 H160 0.961 . S
H158 C157 0.959 . S
H159 C157 0.960 . S
H160 C157 0.961 . S
O161 Co136 1.967 . S
O161 C169 1.258 . S
O162 Co137 1.941 . S
O162 C169 1.266 . S
H163 C165 0.959 . S
H164 C165 0.961 . S
C165 C155 1.510 . S
C165 H163 0.959 . S
C165 H164 0.961 . S
C165 H166 0.960 . S
H166 C165 0.960 . S
H167 N147 0.862 . S
O168 Co136 1.920 . S
O168 C141 1.289 . S
C169 O161 1.258 . S
C169 O162 1.266 . S
Co170 O173 1.970 . S
Co170 N187 1.989 . S
Co170 O195 1.967 . S
Co170 O202 1.920 . S
Co171 O174 1.966 . S
Co171 N180 2.022 . S
Co171 N188 1.993 . S
Co171 O196 1.941 . S
C172 O173 1.258 . S
C172 O174 1.263 . S
O173 Co170 1.970 . S
O173 C172 1.258 . S
O174 Co171 1.966 . S
O174 C172 1.263 . S
C175 O176 1.235 . S
C175 O202 1.289 . S
O176 C175 1.235 . S
C177 C179 1.400 . S
C177 N180 1.351 . S
C177 C182 1.501 . S
C178 C179 1.387 . S
C178 N181 1.341 . S
C179 C177 1.400 . S
C179 C178 1.387 . S
N180 Co171 2.022 . S
N180 C177 1.351 . S
N180 N181 1.365 . S
N181 C178 1.341 . S
N181 N180 1.365 . S
N181 H201 0.862 . S
C182 C177 1.501 . S
C182 H183 0.961 . S
C182 H184 0.961 . S
C182 H185 0.960 . S
H183 C182 0.961 . S
H184 C182 0.961 . S
H185 C182 0.960 . S
C186 N187 1.342 . S
C186 C190 1.410 . S
C186 C191 1.499 . S
N187 Co170 1.989 . S
N187 C186 1.342 . S
N187 N188 1.388 . S
N188 Co171 1.993 . S
N188 N187 1.388 . S
N188 C189 1.346 . S
C189 N188 1.346 . S
C189 C190 1.410 . S
C189 C199 1.510 . S
C190 C186 1.410 . S
C190 C189 1.410 . S
C191 C186 1.499 . S
C191 H192 0.959 . S
C191 H193 0.960 1_554 S
C191 H194 0.961 1_554 S
H192 C191 0.959 . S
H193 C191 0.960 1_556 S
H194 C191 0.961 1_556 S
O195 Co170 1.967 . S
O195 C203 1.258 . S
O196 Co171 1.941 . S
O196 C203 1.266 . S
H197 C199 0.959 . S
H198 C199 0.961 . S
C199 C189 1.510 . S
C199 H197 0.959 . S
C199 H198 0.961 . S
C199 H200 0.960 . S
H200 C199 0.960 . S
H201 N181 0.862 . S
O202 Co170 1.920 . S
O202 C175 1.289 . S
C203 O195 1.258 . S
C203 O196 1.266 . S
Co204 O207 1.970 . S
Co204 N221 1.989 . S
Co204 O229 1.967 . S
Co204 O236 1.920 . S
Co205 O208 1.966 . S
Co205 N214 2.022 . S
Co205 N222 1.993 . S
Co205 O230 1.941 . S
C206 O207 1.258 . S
C206 O208 1.263 . S
O207 Co204 1.970 . S
O207 C206 1.258 . S
O208 Co205 1.966 . S
O208 C206 1.263 . S
C209 O210 1.235 . S
C209 O236 1.289 . S
O210 C209 1.235 . S
C211 C213 1.400 . S
C211 N214 1.351 . S
C211 C216 1.501 . S
C212 C213 1.387 . S
C212 N215 1.341 . S
C213 C211 1.400 . S
C213 C212 1.387 . S
N214 Co205 2.022 . S
N214 C211 1.351 . S
N214 N215 1.365 . S
N215 C212 1.341 . S
N215 N214 1.365 . S
N215 H235 0.862 . S
C216 C211 1.501 . S
C216 H217 0.961 . S
C216 H218 0.961 . S
C216 H219 0.960 . S
H217 C216 0.961 . S
H218 C216 0.961 . S
H219 C216 0.960 . S
C220 N221 1.342 . S
C220 C224 1.401 . S
C220 C225 1.499 . S
N221 Co204 1.989 . S
N221 C220 1.342 . S
N221 N222 1.388 . S
N222 Co205 1.993 . S
N222 N221 1.388 . S
N222 C223 1.346 . S
C223 N222 1.346 . S
C223 C224 1.396 . S
C223 C233 1.510 . S
C224 C220 1.401 . S
C224 C223 1.396 . S
C225 C220 1.499 . S
C225 H226 0.959 . S
C225 H227 0.960 . S
C225 H228 0.961 . S
H226 C225 0.959 . S
H227 C225 0.960 . S
H228 C225 0.961 . S
O229 Co204 1.967 . S
O229 C237 1.258 . S
O230 Co205 1.941 . S
O230 C237 1.266 . S
H231 C233 0.959 . S
H232 C233 0.961 . S
C233 C223 1.510 . S
C233 H231 0.959 . S
C233 H232 0.961 . S
C233 H234 0.960 . S
H234 C233 0.960 . S
H235 N215 0.862 . S
O236 Co204 1.920 . S
O236 C209 1.289 . S
C237 O229 1.258 . S
C237 O230 1.266 . S
Co238 O241 1.970 . S
Co238 N255 1.989 . S
Co238 O263 1.967 . S
Co238 O270 1.920 . S
Co239 O242 1.966 . S
Co239 N248 2.022 . S
Co239 N256 1.993 . S
Co239 O264 1.941 . S
C240 O241 1.258 1_455 S
C240 O242 1.263 1_455 S
O241 Co238 1.970 . S
O241 C240 1.258 1_655 S
O242 Co239 1.966 . S
O242 C240 1.263 1_655 S
C243 O244 1.235 . S
C243 O270 1.289 . S
O244 C243 1.235 . S
C245 C247 1.400 . S
C245 N248 1.351 . S
C245 C250 1.501 1_655 S
C246 C247 1.387 . S
C246 N249 1.341 . S
C247 C245 1.400 . S
C247 C246 1.387 . S
N248 Co239 2.022 . S
N248 C245 1.351 . S
N248 N249 1.365 . S
N249 C246 1.341 . S
N249 N248 1.365 . S
N249 H269 0.862 . S
C250 C245 1.501 1_455 S
C250 H251 0.961 . S
C250 H252 0.961 . S
C250 H253 0.960 . S
H251 C250 0.961 . S
H252 C250 0.961 . S
H253 C250 0.960 . S
C254 N255 1.342 . S
C254 C258 1.401 1_554 S
C254 C259 1.499 1_554 S
N255 Co238 1.989 . S
N255 C254 1.342 . S
N255 N256 1.388 . S
N256 Co239 1.993 . S
N256 N255 1.388 . S
N256 C257 1.346 . S
C257 N256 1.346 . S
C257 C258 1.396 1_554 S
C257 C267 1.510 . S
C258 C254 1.401 1_556 S
C258 C257 1.396 1_556 S
C259 C254 1.499 1_556 S
C259 H260 0.959 1_556 S
C259 H261 0.960 . S
C259 H262 0.961 . S
H260 C259 0.959 1_554 S
H261 C259 0.960 . S
H262 C259 0.961 . S
O263 Co238 1.967 . S
O263 C271 1.258 . S
O264 Co239 1.941 . S
O264 C271 1.266 . S
H265 C267 0.959 . S
H266 C267 0.961 1_556 S
C267 C257 1.510 . S
C267 H265 0.959 . S
C267 H266 0.961 1_554 S
C267 H268 0.960 . S
H268 C267 0.960 . S
H269 N249 0.862 . S
O270 Co238 1.920 . S
O270 C243 1.289 . S
C271 O263 1.258 . S
C271 O264 1.266 . S
Co272 O275 1.970 . S
Co272 N289 1.989 . S
Co272 O297 1.967 . S
Co272 O304 1.920 . S
Co273 O276 1.966 . S
Co273 N282 2.022 . S
Co273 N290 1.993 . S
Co273 O298 1.941 . S
C274 O275 1.256 1_545 S
C274 O276 1.259 1_545 S
O275 Co272 1.970 . S
O275 C274 1.256 1_565 S
O276 Co273 1.966 . S
O276 C274 1.259 1_565 S
C277 O278 1.235 . S
C277 O304 1.289 . S
O278 C277 1.235 . S
C279 C281 1.400 . S
C279 N282 1.351 . S
C279 C284 1.501 . S
C280 C281 1.387 . S
C280 N283 1.341 . S
C281 C279 1.400 . S
C281 C280 1.387 . S
N282 Co273 2.022 . S
N282 C279 1.351 . S
N282 N283 1.365 . S
N283 C280 1.341 . S
N283 N282 1.365 . S
N283 H303 0.862 . S
C284 C279 1.501 . S
C284 H285 0.970 . S
C284 H286 0.961 1_565 S
C284 H287 0.960 1_565 S
H285 C284 0.970 . S
H286 C284 0.961 1_545 S
H287 C284 0.960 1_545 S
C288 N289 1.342 . S
C288 C292 1.401 . S
C288 C293 1.499 . S
N289 Co272 1.989 . S
N289 C288 1.342 . S
N289 N290 1.388 . S
N290 Co273 1.993 . S
N290 N289 1.388 . S
N290 C291 1.346 . S
C291 N290 1.346 . S
C291 C292 1.396 . S
C291 C301 1.510 . S
C292 C288 1.401 . S
C292 C291 1.396 . S
C293 C288 1.499 . S
C293 H294 0.959 . S
C293 H295 0.960 . S
C293 H296 0.961 . S
H294 C293 0.959 . S
H295 C293 0.960 . S
H296 C293 0.961 . S
O297 Co272 1.967 . S
O297 C305 1.258 . S
O298 Co273 1.941 . S
O298 C305 1.266 . S
H299 C301 0.959 . S
H300 C301 0.961 . S
C301 C291 1.510 . S
C301 H299 0.959 . S
C301 H300 0.961 . S
C301 H302 0.960 . S
H302 C301 0.960 . S
H303 N283 0.862 . S
O304 Co272 1.920 . S
O304 C277 1.289 . S
C305 O297 1.258 . S
C305 O298 1.266 . S
Co306 O309 1.970 . S
Co306 N323 1.989 . S
Co306 O331 1.967 . S
Co306 O338 1.920 . S
Co307 O310 1.966 . S
Co307 N316 2.022 . S
Co307 N324 1.993 . S
Co307 O332 1.941 . S
C308 O309 1.258 . S
C308 O310 1.263 . S
O309 Co306 1.970 . S
O309 C308 1.258 . S
O310 Co307 1.966 . S
O310 C308 1.263 . S
C311 O312 1.235 . S
C311 O338 1.289 . S
O312 C311 1.235 . S
C313 C315 1.400 . S
C313 N316 1.351 . S
C313 C318 1.501 . S
C314 C315 1.387 . S
C314 N317 1.341 . S
C315 C313 1.400 . S
C315 C314 1.387 . S
N316 Co307 2.022 . S
N316 C313 1.351 . S
N316 N317 1.365 . S
N317 C314 1.341 . S
N317 N316 1.365 . S
N317 H337 0.862 . S
C318 C313 1.501 . S
C318 H319 0.961 . S
C318 H320 0.961 . S
C318 H321 0.960 . S
H319 C318 0.961 . S
H320 C318 0.961 . S
H321 C318 0.960 . S
C322 N323 1.342 . S
C322 C326 1.401 1_554 S
C322 C327 1.490 1_554 S
N323 Co306 1.989 . S
N323 C322 1.342 . S
N323 N324 1.388 . S
N324 Co307 1.993 . S
N324 N323 1.388 . S
N324 C325 1.346 . S
C325 N324 1.346 . S
C325 C326 1.396 1_554 S
C325 C335 1.510 . S
C326 C322 1.401 1_556 S
C326 C325 1.396 1_556 S
C327 C322 1.490 1_556 S
C327 H328 0.942 1_556 S
C327 H329 0.981 . S
C327 H330 0.966 . S
H328 C327 0.942 1_554 S
H329 C327 0.981 . S
H330 C327 0.966 . S
O331 Co306 1.967 . S
O331 C339 1.258 . S
O332 Co307 1.941 . S
O332 C339 1.266 . S
H333 C335 0.959 . S
H334 C335 0.961 . S
C335 C325 1.510 . S
C335 H333 0.959 . S
C335 H334 0.961 . S
C335 H336 0.960 . S
H336 C335 0.960 . S
H337 N317 0.862 . S
O338 Co306 1.920 . S
O338 C311 1.289 . S
C339 O331 1.258 . S
C339 O332 1.266 . S
Co340 O343 1.970 . S
Co340 N357 1.989 . S
Co340 O365 1.967 . S
Co340 O372 1.920 . S
Co341 O344 1.966 . S
Co341 N350 2.022 . S
Co341 N358 1.993 . S
Co341 O366 1.941 . S
C342 O343 1.258 . S
C342 O344 1.263 . S
O343 Co340 1.970 . S
O343 C342 1.258 . S
O344 Co341 1.966 . S
O344 C342 1.263 . S
C345 O346 1.235 . S
C345 O372 1.289 . S
O346 C345 1.235 . S
C347 C349 1.400 . S
C347 N350 1.351 . S
C347 C352 1.501 . S
C348 C349 1.387 . S
C348 N351 1.341 . S
C349 C347 1.400 . S
C349 C348 1.387 . S
N350 Co341 2.022 . S
N350 C347 1.351 . S
N350 N351 1.365 . S
N351 C348 1.341 . S
N351 N350 1.365 . S
N351 H371 0.862 . S
C352 C347 1.501 . S
C352 H353 0.961 . S
C352 H354 0.961 . S
C352 H355 0.960 . S
H353 C352 0.961 . S
H354 C352 0.961 . S
H355 C352 0.960 . S
C356 N357 1.342 . S
C356 C360 1.401 . S
C356 C361 1.499 . S
N357 Co340 1.989 . S
N357 C356 1.342 . S
N357 N358 1.388 . S
N358 Co341 1.993 . S
N358 N357 1.388 . S
N358 C359 1.346 . S
C359 N358 1.346 . S
C359 C360 1.396 . S
C359 C369 1.510 . S
C360 C356 1.401 . S
C360 C359 1.396 . S
C361 C356 1.499 . S
C361 H362 0.959 . S
C361 H363 0.960 . S
C361 H364 0.961 . S
H362 C361 0.959 . S
H363 C361 0.960 . S
H364 C361 0.961 . S
O365 Co340 1.967 . S
O365 C373 1.258 . S
O366 Co341 1.941 . S
O366 C373 1.266 . S
H367 C369 0.959 . S
H368 C369 0.961 . S
C369 C359 1.510 . S
C369 H367 0.959 . S
C369 H368 0.961 . S
C369 H370 0.960 . S
H370 C369 0.960 . S
H371 N351 0.862 . S
O372 Co340 1.920 . S
O372 C345 1.289 . S
C373 O365 1.258 . S
C373 O366 1.266 . S
Co374 O377 1.970 . S
Co374 N391 1.989 . S
Co374 O399 1.967 . S
Co374 O406 1.920 . S
Co375 O378 1.966 . S
Co375 N384 2.022 . S
Co375 N392 1.993 . S
Co375 O400 1.941 . S
C376 O377 1.258 . S
C376 O378 1.263 . S
O377 Co374 1.970 . S
O377 C376 1.258 . S
O378 Co375 1.966 . S
O378 C376 1.263 . S
C379 O380 1.235 . S
C379 O406 1.289 . S
O380 C379 1.235 . S
C381 C383 1.400 . S
C381 N384 1.351 . S
C381 C386 1.501 . S
C382 C383 1.387 . S
C382 N385 1.341 . S
C383 C381 1.400 . S
C383 C382 1.387 . S
N384 Co375 2.022 . S
N384 C381 1.351 . S
N384 N385 1.365 . S
N385 C382 1.341 . S
N385 N384 1.365 . S
N385 H405 0.862 . S
C386 C381 1.501 . S
C386 H387 0.961 . S
C386 H388 0.961 1_655 S
C386 H389 0.962 1_655 S
H387 C386 0.961 . S
H388 C386 0.961 1_455 S
H389 C386 0.962 1_455 S
C390 N391 1.342 . S
C390 C394 1.401 . S
C390 C395 1.499 . S
N391 Co374 1.989 . S
N391 C390 1.342 . S
N391 N392 1.388 . S
N392 Co375 1.993 . S
N392 N391 1.388 . S
N392 C393 1.346 . S
C393 N392 1.346 . S
C393 C394 1.396 . S
C393 C403 1.510 . S
C394 C390 1.401 . S
C394 C393 1.396 . S
C395 C390 1.499 . S
C395 H396 0.959 . S
C395 H397 0.960 1_554 S
C395 H398 0.961 . S
H396 C395 0.959 . S
H397 C395 0.960 1_556 S
H398 C395 0.961 . S
O399 Co374 1.967 . S
O399 C407 1.258 . S
O400 Co375 1.941 . S
O400 C407 1.266 . S
H401 C403 0.959 . S
H402 C403 0.961 . S
C403 C393 1.510 . S
C403 H401 0.959 . S
C403 H402 0.961 . S
C403 H404 0.960 . S
H404 C403 0.960 . S
H405 N385 0.862 . S
O406 Co374 1.920 . S
O406 C379 1.289 . S
C407 O399 1.258 . S
C407 O400 1.266 . S
Co408 O411 1.970 1_545 S
Co408 N425 1.989 . S
Co408 O433 1.967 . S
Co408 O440 1.920 . S
Co409 O412 1.971 . S
Co409 N418 2.022 . S
Co409 N426 1.993 . S
Co409 O434 1.941 . S
C410 O411 1.258 . S
C410 O412 1.261 1_565 S
O411 Co408 1.970 1_565 S
O411 C410 1.258 . S
O412 Co409 1.971 . S
O412 C410 1.261 1_545 S
C413 O414 1.235 1_545 S
C413 O440 1.289 . S
O414 C413 1.235 1_565 S
C415 C417 1.400 . S
C415 N418 1.351 . S
C415 C420 1.501 1_545 S
C416 C417 1.387 . S
C416 N419 1.341 . S
C417 C415 1.400 . S
C417 C416 1.387 . S
N418 Co409 2.022 . S
N418 C415 1.351 . S
N418 N419 1.365 . S
N419 C416 1.341 . S
N419 N418 1.365 . S
N419 H439 0.862 . S
C420 C415 1.501 1_565 S
C420 H421 0.961 . S
C420 H422 0.961 . S
C420 H423 0.960 . S
H421 C420 0.961 . S
H422 C420 0.961 . S
H423 C420 0.960 . S
C424 N425 1.342 . S
C424 C428 1.401 . S
C424 C429 1.499 . S
N425 Co408 1.989 . S
N425 C424 1.342 . S
N425 N426 1.388 . S
N426 Co409 1.993 . S
N426 N425 1.388 . S
N426 C427 1.346 . S
C427 N426 1.346 . S
C427 C428 1.396 . S
C427 C437 1.510 . S
C428 C424 1.401 . S
C428 C427 1.396 . S
C429 C424 1.499 . S
C429 H430 0.959 . S
C429 H431 0.960 . S
C429 H432 0.961 . S
H430 C429 0.959 . S
H431 C429 0.960 . S
H432 C429 0.961 . S
O433 Co408 1.967 . S
O433 C441 1.258 . S
O434 Co409 1.941 . S
O434 C441 1.266 . S
H435 C437 0.959 . S
H436 C437 0.961 . S
C437 C427 1.510 . S
C437 H435 0.959 . S
C437 H436 0.961 . S
C437 H438 0.960 . S
H438 C437 0.960 . S
H439 N419 0.862 . S
O440 Co408 1.920 . S
O440 C413 1.289 . S
C441 O433 1.258 . S
C441 O434 1.266 . S
Co442 O445 1.970 . S
Co442 N459 1.989 . S
Co442 O467 1.967 . S
Co442 O474 1.920 . S
Co443 O446 1.966 . S
Co443 N452 2.022 . S
Co443 N460 1.993 . S
Co443 O468 1.941 . S
C444 O445 1.258 . S
C444 O446 1.263 . S
O445 Co442 1.970 . S
O445 C444 1.258 . S
O446 Co443 1.966 . S
O446 C444 1.263 . S
C447 O448 1.235 . S
C447 O474 1.289 . S
O448 C447 1.235 . S
C449 C451 1.400 . S
C449 N452 1.351 . S
C449 C454 1.501 . S
C450 C451 1.387 . S
C450 N453 1.341 . S
C451 C449 1.400 . S
C451 C450 1.387 . S
N452 Co443 2.022 . S
N452 C449 1.351 . S
N452 N453 1.365 . S
N453 C450 1.341 . S
N453 N452 1.365 . S
N453 H473 0.862 . S
C454 C449 1.501 . S
C454 H455 0.961 . S
C454 H456 0.961 . S
C454 H457 0.960 . S
H455 C454 0.961 . S
H456 C454 0.961 . S
H457 C454 0.960 . S
C458 N459 1.342 . S
C458 C462 1.401 1_556 S
C458 C463 1.499 1_556 S
N459 Co442 1.989 . S
N459 C458 1.342 . S
N459 N460 1.388 . S
N460 Co443 1.993 . S
N460 N459 1.388 . S
N460 C461 1.346 . S
C461 N460 1.346 . S
C461 C462 1.396 1_556 S
C461 C471 1.510 . S
C462 C458 1.401 1_554 S
C462 C461 1.396 1_554 S
C463 C458 1.499 1_554 S
C463 H464 0.959 1_554 S
C463 H465 0.960 . S
C463 H466 0.961 . S
H464 C463 0.959 1_556 S
H465 C463 0.960 . S
H466 C463 0.961 . S
O467 Co442 1.967 . S
O467 C475 1.258 . S
O468 Co443 1.941 . S
O468 C475 1.266 . S
H469 C471 0.959 . S
H470 C471 0.961 1_554 S
C471 C461 1.510 . S
C471 H469 0.959 . S
C471 H470 0.961 1_556 S
C471 H472 0.960 . S
H472 C471 0.960 . S
H473 N453 0.862 . S
O474 Co442 1.920 . S
O474 C447 1.289 . S
C475 O467 1.258 . S
C475 O468 1.266 . S
Co476 O479 1.970 . S
Co476 N493 1.989 . S
Co476 O501 1.967 . S
Co476 O508 1.920 . S
Co477 O480 1.966 . S
Co477 N486 2.022 . S
Co477 N494 1.993 . S
Co477 O502 1.941 . S
C478 O479 1.258 . S
C478 O480 1.263 . S
O479 Co476 1.970 . S
O479 C478 1.258 . S
O480 Co477 1.966 . S
O480 C478 1.263 . S
C481 O482 1.235 . S
C481 O508 1.289 . S
O482 C481 1.235 . S
C483 C485 1.400 . S
C483 N486 1.351 . S
C483 C488 1.501 . S
C484 C485 1.387 . S
C484 N487 1.341 . S
C485 C483 1.400 . S
C485 C484 1.387 . S
N486 Co477 2.022 . S
N486 C483 1.351 . S
N486 N487 1.365 . S
N487 C484 1.341 . S
N487 N486 1.365 . S
N487 H507 0.862 . S
C488 C483 1.501 . S
C488 H489 0.961 . S
C488 H490 0.961 . S
C488 H491 0.960 . S
H489 C488 0.961 . S
H490 C488 0.961 . S
H491 C488 0.960 . S
C492 N493 1.342 . S
C492 C496 1.401 . S
C492 C497 1.499 . S
N493 Co476 1.989 . S
N493 C492 1.342 . S
N493 N494 1.388 . S
N494 Co477 1.993 . S
N494 N493 1.388 . S
N494 C495 1.346 . S
C495 N494 1.346 . S
C495 C496 1.396 . S
C495 C505 1.510 . S
C496 C492 1.401 . S
C496 C495 1.396 . S
C497 C492 1.499 . S
C497 H498 0.959 . S
C497 H499 0.960 . S
C497 H500 0.961 . S
H498 C497 0.959 . S
H499 C497 0.960 . S
H500 C497 0.961 . S
O501 Co476 1.967 . S
O501 C509 1.258 . S
O502 Co477 1.941 . S
O502 C509 1.266 . S
H503 C505 0.959 . S
H504 C505 0.961 . S
C505 C495 1.510 . S
C505 H503 0.959 . S
C505 H504 0.961 . S
C505 H506 0.960 . S
H506 C505 0.960 . S
H507 N487 0.862 . S
O508 Co476 1.920 . S
O508 C481 1.289 . S
C509 O501 1.258 . S
C509 O502 1.266 . S
Co510 O513 1.970 1_455 S
Co510 N527 1.989 . S
Co510 O535 1.967 . S
Co510 O542 1.920 . S
Co511 O514 1.904 1_455 S
Co511 N520 2.022 . S
Co511 N528 1.993 . S
Co511 O536 1.941 . S
C512 O513 1.258 . S
C512 O514 1.303 . S
O513 Co510 1.970 1_655 S
O513 C512 1.258 . S
O514 Co511 1.904 1_655 S
O514 C512 1.303 . S
C515 O516 1.235 1_455 S
C515 O542 1.289 . S
O516 C515 1.235 1_655 S
C517 C519 1.400 . S
C517 N520 1.351 . S
C517 C522 1.501 1_455 S
C518 C519 1.387 . S
C518 N521 1.341 . S
C519 C517 1.400 . S
C519 C518 1.387 . S
N520 Co511 2.022 . S
N520 C517 1.351 . S
N520 N521 1.365 . S
N521 C518 1.341 . S
N521 N520 1.365 . S
N521 H541 0.862 . S
C522 C517 1.501 1_655 S
C522 H523 0.961 . S
C522 H524 0.961 . S
C522 H525 0.960 . S
H523 C522 0.961 . S
H524 C522 0.961 . S
H525 C522 0.960 . S
C526 N527 1.342 . S
C526 C530 1.401 . S
C526 C531 1.499 . S
N527 Co510 1.989 . S
N527 C526 1.342 . S
N527 N528 1.388 . S
N528 Co511 1.993 . S
N528 N527 1.388 . S
N528 C529 1.346 . S
C529 N528 1.346 . S
C529 C530 1.396 . S
C529 C539 1.510 . S
C530 C526 1.401 . S
C530 C529 1.396 . S
C531 C526 1.499 . S
C531 H532 0.959 . S
C531 H533 0.960 1_556 S
C531 H534 0.961 . S
H532 C531 0.959 . S
H533 C531 0.960 1_554 S
H534 C531 0.961 . S
O535 Co510 1.967 . S
O535 C543 1.258 . S
O536 Co511 1.941 . S
O536 C543 1.266 . S
H537 C539 0.959 . S
H538 C539 0.961 . S
C539 C529 1.510 . S
C539 H537 0.959 . S
C539 H538 0.961 . S
C539 H540 0.960 . S
H540 C539 0.960 . S
H541 N521 0.862 . S
O542 Co510 1.920 . S
O542 C515 1.289 . S
C543 O535 1.258 . S
C543 O536 1.266 . S
H544 C562 0.951 . S
H545 C564 0.951 . S
H546 C566 0.950 . S
H547 C567 0.950 . S
H548 C569 0.957 . S
H549 C572 0.950 . S
H550 C573 0.950 . S
H551 C575 0.950 . S
H552 C576 0.985 . S
H553 C577 0.951 . S
H554 C579 0.951 1_565 S
H555 C581 0.950 . S
H556 C582 0.950 . S
H557 C584 0.954 . S
H558 C587 0.950 . S
H559 C588 0.950 . S
H560 C590 0.950 . S
H561 C591 0.891 1_565 S
C562 H544 0.951 . S
C562 C563 1.366 . S
C562 C564 1.388 . S
C563 C562 1.366 . S
C563 C567 1.385 . S
C564 H545 0.951 . S
C564 C562 1.388 . S
C564 C565 1.366 . S
C565 C564 1.366 . S
C565 C566 1.414 . S
C565 C568 1.499 . S
C566 H546 0.950 . S
C566 C565 1.414 . S
C566 C567 1.374 . S
C567 H547 0.950 . S
C567 C563 1.385 . S
C567 C566 1.374 . S
C568 C565 1.499 . S
C568 C569 1.349 1_565 S
C568 C570 1.389 . S
C569 H548 0.957 . S
C569 C568 1.349 1_545 S
C569 C585 1.397 1_655 S
C570 C568 1.389 . S
C570 C571 1.524 . S
C570 C584 1.377 . S
C571 C570 1.524 . S
C571 C572 1.397 . S
C571 C576 1.363 . S
C572 H549 0.950 . S
C572 C571 1.397 . S
C572 C573 1.334 . S
C573 H550 0.950 . S
C573 C572 1.334 . S
C573 C574 1.287 . S
C574 C573 1.287 . S
C574 C575 1.524 . S
C574 H593 0.913 . S
C575 H551 0.950 . S
C575 C574 1.524 . S
C575 C576 1.415 . S
C576 H552 0.985 . S
C576 C571 1.363 . S
C576 C575 1.415 . S
C577 H553 0.951 . S
C577 C578 1.366 . S
C577 C579 1.388 . S
C578 C577 1.366 . S
C578 C582 1.385 . S
C579 H554 0.951 1_545 S
C579 C577 1.388 . S
C579 C580 1.366 . S
C580 C579 1.366 . S
C580 C581 1.414 . S
C580 C583 1.499 . S
C581 H555 0.950 . S
C581 C580 1.414 . S
C581 C582 1.374 . S
C582 H556 0.950 . S
C582 C578 1.385 . S
C582 C581 1.374 . S
C583 C580 1.499 . S
C583 C584 1.373 1_445 S
C583 C585 1.389 . S
C584 H557 0.954 . S
C584 C570 1.377 . S
C584 C583 1.373 1_665 S
C585 C569 1.397 1_455 S
C585 C583 1.389 . S
C585 C586 1.524 . S
C586 C585 1.524 . S
C586 C587 1.397 . S
C586 C591 1.363 . S
C587 H558 0.950 . S
C587 C586 1.397 . S
C587 C588 1.334 . S
C588 H559 0.950 . S
C588 C587 1.334 . S
C588 C589 1.287 . S
C589 C588 1.287 . S
C589 C590 1.524 . S
C589 H592 0.999 . S
C590 H560 0.950 . S
C590 C589 1.524 . S
C590 C591 1.415 . S
C591 H561 0.891 1_545 S
C591 C586 1.363 . S
C591 C590 1.415 . S
H592 C589 0.999 . S
H593 C574 0.913 . S
H594 C612 0.951 . S
H595 C614 0.951 . S
H596 C616 0.950 . S
H597 C617 0.950 . S
H598 C619 0.950 . S
H599 C622 0.950 . S
H600 C623 0.950 . S
H601 C625 0.950 1_565 S
H602 C626 0.950 . S
H603 C627 0.951 . S
H604 C629 0.951 . S
H605 C631 0.950 . S
H606 C632 0.950 . S
H607 C634 0.950 . S
H608 C637 0.950 . S
H609 C638 0.950 . S
H610 C640 0.950 . S
H611 C641 0.950 1_545 S
C612 H594 0.951 . S
C612 C613 1.366 . S
C612 C614 1.388 . S
C613 C612 1.366 . S
C613 C617 1.385 . S
C614 H595 0.951 . S
C614 C612 1.388 . S
C614 C615 1.366 . S
C615 C614 1.366 . S
C615 C616 1.414 . S
C615 C618 1.499 . S
C616 H596 0.950 . S
C616 C615 1.414 . S
C616 C617 1.374 . S
C617 H597 0.950 . S
C617 C613 1.385 . S
C617 C616 1.374 . S
C618 C615 1.499 . S
C618 C619 1.373 . S
C618 C620 1.400 1_556 S
C619 H598 0.950 . S
C619 C618 1.373 . S
C619 C635 1.377 1_545 S
C620 C618 1.400 1_554 S
C620 C621 1.531 . S
C620 C634 1.359 1_545 S
C621 C620 1.531 . S
C621 C622 1.397 . S
C621 C626 1.363 1_545 S
C622 H599 0.950 . S
C622 C621 1.397 . S
C622 C623 1.334 . S
C623 H600 0.950 . S
C623 C622 1.334 . S
C623 C624 1.287 . S
C624 C623 1.287 . S
C624 C625 1.524 . S
C624 H643 0.913 . S
C625 H601 0.950 1_545 S
C625 C624 1.524 . S
C625 C626 1.415 1_545 S
C626 H602 0.950 . S
C626 C621 1.363 1_565 S
C626 C625 1.415 1_565 S
C627 H603 0.951 . S
C627 C628 1.366 . S
C627 C629 1.388 . S
C628 C627 1.366 . S
C628 C632 1.385 . S
C629 H604 0.951 . S
C629 C627 1.388 . S
C629 C630 1.366 . S
C630 C629 1.366 . S
C630 C631 1.414 . S
C630 C633 1.499 . S
C631 H605 0.950 . S
C631 C630 1.414 . S
C631 C632 1.374 . S
C632 H606 0.950 . S
C632 C628 1.385 . S
C632 C631 1.374 . S
C633 C630 1.499 . S
C633 C634 1.373 . S
C633 C635 1.389 1_554 S
C634 H607 0.950 . S
C634 C620 1.359 1_565 S
C634 C633 1.373 . S
C635 C619 1.377 1_565 S
C635 C633 1.389 1_556 S
C635 C636 1.524 . S
C636 C635 1.524 . S
C636 C637 1.397 . S
C636 C641 1.363 . S
C637 H608 0.950 . S
C637 C636 1.397 . S
C637 C638 1.334 . S
C638 H609 0.950 . S
C638 C637 1.334 . S
C638 C639 1.287 . S
C639 C638 1.287 . S
C639 C640 1.524 . S
C639 H642 0.999 . S
C640 H610 0.950 . S
C640 C639 1.524 . S
C640 C641 1.415 . S
C641 H611 0.950 1_565 S
C641 C636 1.363 . S
C641 C640 1.415 . S
H642 C639 0.999 . S
H643 C624 0.913 . S
H644 C662 0.951 . S
H645 C664 0.951 . S
H646 C666 0.950 . S
H647 C667 0.950 . S
H648 C669 0.950 . S
H649 C672 0.950 . S
H650 C673 0.950 . S
H651 C675 0.950 . S
H652 C676 0.950 . S
H653 C677 0.951 . S
H654 C679 0.951 . S
H655 C681 0.950 . S
H656 C682 0.950 . S
H657 C684 0.950 . S
H658 C687 0.950 . S
H659 C688 0.950 . S
H660 C690 0.950 . S
H661 C691 0.950 . S
C662 H644 0.951 . S
C662 C663 1.366 . S
C662 C664 1.388 . S
C663 C662 1.366 . S
C663 C667 1.385 . S
C664 H645 0.951 . S
C664 C662 1.388 . S
C664 C665 1.366 . S
C665 C664 1.366 . S
C665 C666 1.414 . S
C665 C668 1.499 . S
C666 H646 0.950 . S
C666 C665 1.414 . S
C666 C667 1.374 . S
C667 H647 0.950 . S
C667 C663 1.385 . S
C667 C666 1.374 . S
C668 C665 1.499 . S
C668 C669 1.373 . S
C668 C670 1.389 . S
C669 H648 0.950 . S
C669 C668 1.373 . S
C669 C685 1.377 . S
C670 C668 1.389 . S
C670 C671 1.524 . S
C670 C684 1.377 . S
C671 C670 1.524 . S
C671 C672 1.397 . S
C671 C676 1.363 . S
C672 H649 0.950 . S
C672 C671 1.397 . S
C672 C673 1.334 . S
C673 H650 0.950 . S
C673 C672 1.334 . S
C673 C674 1.287 . S
C674 C673 1.287 . S
C674 C675 1.524 . S
C674 H693 0.913 . S
C675 H651 0.950 . S
C675 C674 1.524 . S
C675 C676 1.415 . S
C676 H652 0.950 . S
C676 C671 1.363 . S
C676 C675 1.415 . S
C677 H653 0.951 . S
C677 C678 1.366 . S
C677 C679 1.388 . S
C678 C677 1.366 . S
C678 C682 1.385 . S
C679 H654 0.951 . S
C679 C677 1.388 . S
C679 C680 1.366 . S
C680 C679 1.366 . S
C680 C681 1.414 . S
C680 C683 1.499 . S
C681 H655 0.950 . S
C681 C680 1.414 . S
C681 C682 1.374 . S
C682 H656 0.950 . S
C682 C678 1.385 . S
C682 C681 1.374 . S
C683 C680 1.499 . S
C683 C684 1.373 . S
C683 C685 1.389 . S
C684 H657 0.950 . S
C684 C670 1.377 . S
C684 C683 1.373 . S
C685 C669 1.377 . S
C685 C683 1.389 . S
C685 C686 1.524 . S
C686 C685 1.524 . S
C686 C687 1.397 . S
C686 C691 1.363 . S
C687 H658 0.950 . S
C687 C686 1.397 . S
C687 C688 1.334 . S
C688 H659 0.950 . S
C688 C687 1.334 . S
C688 C689 1.287 . S
C689 C688 1.287 . S
C689 C690 1.524 . S
C689 H692 0.999 . S
C690 H660 0.950 . S
C690 C689 1.524 . S
C690 C691 1.415 . S
C691 H661 0.950 . S
C691 C686 1.363 . S
C691 C690 1.415 . S
H692 C689 0.999 . S
H693 C674 0.913 . S
H694 C712 0.951 . S
H695 C714 0.951 1_455 S
H696 C716 0.950 . S
H697 C717 0.950 . S
H698 C719 0.950 . S
H699 C722 0.950 . S
H700 C723 0.950 . S
H701 C725 0.950 . S
H702 C726 0.950 . S
H703 C727 0.951 . S
H704 C729 0.951 1_554 S
H705 C731 0.950 . S
H706 C732 0.950 . S
H707 C734 0.950 1_455 S
H708 C737 0.996 . S
H709 C738 0.966 . S
H710 C740 0.950 . S
H711 C741 0.950 . S
C712 H694 0.951 . S
C712 C713 1.366 . S
C712 C714 1.388 . S
C713 C712 1.366 . S
C713 C717 1.385 . S
C714 H695 0.951 1_655 S
C714 C712 1.388 . S
C714 C715 1.366 . S
C715 C714 1.366 . S
C715 C716 1.414 . S
C715 C718 1.499 . S
C716 H696 0.950 . S
C716 C715 1.414 . S
C716 C717 1.374 . S
C717 H697 0.950 . S
C717 C713 1.385 . S
C717 C716 1.374 . S
C718 C715 1.499 . S
C718 C719 1.373 . S
C718 C720 1.389 1_554 S
C719 H698 0.950 . S
C719 C718 1.373 . S
C719 C735 1.377 . S
C720 C718 1.389 1_556 S
C720 C721 1.524 . S
C720 C734 1.377 . S
C721 C720 1.524 . S
C721 C722 1.397 . S
C721 C726 1.363 1_655 S
C722 H699 0.950 . S
C722 C721 1.397 . S
C722 C723 1.334 . S
C723 H700 0.950 . S
C723 C722 1.334 . S
C723 C724 1.287 . S
C724 C723 1.287 . S
C724 C725 1.524 1_655 S
C724 H743 0.913 . S
C725 H701 0.950 . S
C725 C724 1.524 1_455 S
C725 C726 1.415 . S
C726 H702 0.950 . S
C726 C721 1.363 1_455 S
C726 C725 1.415 . S
C727 H703 0.951 . S
C727 C728 1.366 1_655 S
C727 C729 1.388 . S
C728 C727 1.366 1_455 S
C728 C732 1.385 . S
C729 H704 0.951 1_556 S
C729 C727 1.388 . S
C729 C730 1.382 . S
C730 C729 1.382 . S
C730 C731 1.393 1_655 S
C730 C733 1.503 1_556 S
C731 H705 0.950 . S
C731 C730 1.393 1_455 S
C731 C732 1.374 . S
C732 H706 0.950 . S
C732 C728 1.385 . S
C732 C731 1.374 . S
C733 C730 1.503 1_554 S
C733 C734 1.373 1_554 S
C733 C735 1.389 . S
C734 H707 0.950 1_655 S
C734 C720 1.377 . S
C734 C733 1.373 1_556 S
C735 C719 1.377 . S
C735 C733 1.389 . S
C735 C736 1.524 . S
C736 C735 1.524 . S
C736 C737 1.353 1_655 S
C736 C741 1.363 . S
C737 H708 0.996 . S
C737 C736 1.353 1_455 S
C737 C738 1.333 . S
C738 H709 0.966 . S
C738 C737 1.333 . S
C738 C739 1.270 1_455 S
C739 C738 1.270 1_655 S
C739 C740 1.524 . S
C739 H742 0.999 . S
C740 H710 0.950 . S
C740 C739 1.524 . S
C740 C741 1.415 . S
C741 H711 0.950 . S
C741 C736 1.363 . S
C741 C740 1.415 . S
H742 C739 0.999 . S
H743 C724 0.913 . S
H744 C762 0.951 . S
H745 C764 0.951 . S
H746 C766 0.950 . S
H747 C767 0.950 . S
H748 C769 0.936 1_545 S
H749 C772 0.950 . S
H750 C773 0.950 . S
H751 C775 0.950 . S
H752 C776 0.950 . S
H753 C777 0.951 . S
H754 C779 0.933 1_565 S
H755 C781 0.950 . S
H756 C782 0.950 . S
H757 C784 0.950 . S
H758 C787 0.950 . S
H759 C788 0.950 . S
H760 C790 0.950 . S
H761 C791 0.950 . S
C762 H744 0.951 . S
C762 C763 1.366 . S
C762 C764 1.388 . S
C763 C762 1.366 . S
C763 C767 1.385 . S
C764 H745 0.951 . S
C764 C762 1.388 . S
C764 C765 1.366 . S
C765 C764 1.366 . S
C765 C766 1.414 . S
C765 C768 1.499 . S
C766 H746 0.950 . S
C766 C765 1.414 . S
C766 C767 1.374 . S
C767 H747 0.950 . S
C767 C763 1.385 . S
C767 C766 1.374 . S
C768 C765 1.499 . S
C768 C769 1.405 . S
C768 C770 1.389 . S
C769 H748 0.936 1_565 S
C769 C768 1.405 . S
C769 C785 1.361 1_565 S
C770 C768 1.389 . S
C770 C771 1.524 . S
C770 C784 1.377 . S
C771 C770 1.524 . S
C771 C772 1.397 . S
C771 C776 1.363 . S
C772 H749 0.950 . S
C772 C771 1.397 . S
C772 C773 1.334 . S
C773 H750 0.950 . S
C773 C772 1.334 . S
C773 C774 1.287 . S
C774 C773 1.287 . S
C774 C775 1.524 . S
C774 H793 0.913 . S
C775 H751 0.950 . S
C775 C774 1.524 . S
C775 C776 1.415 . S
C776 H752 0.950 . S
C776 C771 1.363 . S
C776 C775 1.415 . S
C777 H753 0.951 . S
C777 C778 1.366 . S
C777 C779 1.388 . S
C778 C777 1.366 . S
C778 C782 1.385 . S
C779 H754 0.933 1_545 S
C779 C777 1.388 . S
C779 C780 1.366 . S
C780 C779 1.366 . S
C780 C781 1.414 . S
C780 C783 1.502 . S
C781 H755 0.950 . S
C781 C780 1.414 . S
C781 C782 1.374 . S
C782 H756 0.950 . S
C782 C778 1.385 . S
C782 C781 1.374 . S
C783 C780 1.502 . S
C783 C784 1.366 1_545 S
C783 C785 1.393 . S
C784 H757 0.950 . S
C784 C770 1.377 . S
C784 C783 1.366 1_565 S
C785 C769 1.361 1_545 S
C785 C783 1.393 . S
C785 C786 1.524 . S
C786 C785 1.524 . S
C786 C787 1.397 . S
C786 C791 1.363 . S
C787 H758 0.950 . S
C787 C786 1.397 . S
C787 C788 1.334 . S
C788 H759 0.950 . S
C788 C787 1.334 . S
C788 C789 1.287 . S
C789 C788 1.287 . S
C789 C790 1.524 . S
C789 H792 0.999 . S
C790 H760 0.950 . S
C790 C789 1.524 . S
C790 C791 1.415 . S
C791 H761 0.950 . S
C791 C786 1.363 . S
C791 C790 1.415 . S
H792 C789 0.999 . S
H793 C774 0.913 . S
H794 C812 0.951 . S
H795 C814 0.951 1_556 S
H796 C816 0.950 . S
H797 C817 0.950 . S
H798 C819 0.950 . S
H799 C822 0.950 1_554 S
H800 C823 0.950 . S
H801 C825 0.950 . S
H802 C826 0.950 . S
H803 C827 0.951 . S
H804 C829 0.951 1_554 S
H805 C831 0.950 . S
H806 C832 0.950 . S
H807 C834 0.950 . S
H808 C837 0.931 1_556 S
H809 C838 0.950 . S
H810 C840 0.950 . S
H811 C841 0.950 . S
C812 H794 0.951 . S
C812 C813 1.366 . S
C812 C814 1.388 . S
C813 C812 1.366 . S
C813 C817 1.385 . S
C814 H795 0.951 1_554 S
C814 C812 1.388 . S
C814 C815 1.366 . S
C815 C814 1.366 . S
C815 C816 1.414 . S
C815 C818 1.499 . S
C816 H796 0.950 . S
C816 C815 1.414 . S
C816 C817 1.374 . S
C817 H797 0.950 . S
C817 C813 1.385 . S
C817 C816 1.374 . S
C818 C815 1.499 . S
C818 C819 1.373 . S
C818 C820 1.389 1_554 S
C819 H798 0.950 . S
C819 C818 1.373 . S
C819 C835 1.377 . S
C820 C818 1.389 1_556 S
C820 C821 1.524 . S
C820 C834 1.377 . S
C821 C820 1.524 . S
C821 C822 1.397 . S
C821 C826 1.363 . S
C822 H799 0.950 1_556 S
C822 C821 1.397 . S
C822 C823 1.334 . S
C823 H800 0.950 . S
C823 C822 1.334 . S
C823 C824 1.287 . S
C824 C823 1.287 . S
C824 C825 1.524 . S
C824 H843 0.913 . S
C825 H801 0.950 . S
C825 C824 1.524 . S
C825 C826 1.415 . S
C826 H802 0.950 . S
C826 C821 1.363 . S
C826 C825 1.415 . S
C827 H803 0.951 . S
C827 C828 1.366 . S
C827 C829 1.388 . S
C828 C827 1.366 . S
C828 C832 1.385 . S
C829 H804 0.951 1_556 S
C829 C827 1.388 . S
C829 C830 1.366 . S
C830 C829 1.366 . S
C830 C831 1.414 . S
C830 C833 1.499 . S
C831 H805 0.950 . S
C831 C830 1.414 . S
C831 C832 1.374 . S
C832 H806 0.950 . S
C832 C828 1.385 . S
C832 C831 1.374 . S
C833 C830 1.499 . S
C833 C834 1.373 . S
C833 C835 1.389 1_556 S
C834 H807 0.950 . S
C834 C820 1.377 . S
C834 C833 1.373 . S
C835 C819 1.377 . S
C835 C833 1.389 1_554 S
C835 C836 1.524 . S
C836 C835 1.524 . S
C836 C837 1.397 . S
C836 C841 1.363 . S
C837 H808 0.931 1_554 S
C837 C836 1.397 . S
C837 C838 1.334 . S
C838 H809 0.950 . S
C838 C837 1.334 . S
C838 C839 1.287 . S
C839 C838 1.287 . S
C839 C840 1.524 . S
C839 H842 0.999 . S
C840 H810 0.950 . S
C840 C839 1.524 . S
C840 C841 1.415 . S
C841 H811 0.950 . S
C841 C836 1.363 . S
C841 C840 1.415 . S
H842 C839 0.999 . S
H843 C824 0.913 . S
H844 C862 0.951 . S
H845 C864 0.951 . S
H846 C866 0.950 . S
H847 C867 0.950 . S
H848 C869 0.950 . S
H849 C872 0.950 . S
H850 C873 0.950 . S
H851 C875 0.950 . S
H852 C876 0.950 . S
H853 C877 0.951 . S
H854 C879 0.951 . S
H855 C881 0.950 . S
H856 C882 0.950 . S
H857 C884 0.950 . S
H858 C887 0.950 . S
H859 C888 0.950 . S
H860 C890 0.950 . S
H861 C891 0.950 . S
C862 H844 0.951 . S
C862 C863 1.366 . S
C862 C864 1.388 . S
C863 C862 1.366 . S
C863 C867 1.385 . S
C864 H845 0.951 . S
C864 C862 1.388 . S
C864 C865 1.366 . S
C865 C864 1.366 . S
C865 C866 1.414 . S
C865 C868 1.499 . S
C866 H846 0.950 . S
C866 C865 1.414 . S
C866 C867 1.374 . S
C867 H847 0.950 . S
C867 C863 1.385 . S
C867 C866 1.374 . S
C868 C865 1.499 . S
C868 C869 1.373 . S
C868 C870 1.389 . S
C869 H848 0.950 . S
C869 C868 1.373 . S
C869 C885 1.377 . S
C870 C868 1.389 . S
C870 C871 1.524 . S
C870 C884 1.377 1_655 S
C871 C870 1.524 . S
C871 C872 1.397 . S
C871 C876 1.363 1_655 S
C872 H849 0.950 . S
C872 C871 1.397 . S
C872 C873 1.334 . S
C873 H850 0.950 . S
C873 C872 1.334 . S
C873 C874 1.287 . S
C874 C873 1.287 . S
C874 C875 1.524 1_655 S
C874 H893 0.913 . S
C875 H851 0.950 . S
C875 C874 1.524 1_455 S
C875 C876 1.415 . S
C876 H852 0.950 . S
C876 C871 1.363 1_455 S
C876 C875 1.415 . S
C877 H853 0.951 . S
C877 C878 1.366 . S
C877 C879 1.388 . S
C878 C877 1.366 . S
C878 C882 1.385 . S
C879 H854 0.951 . S
C879 C877 1.388 . S
C879 C880 1.366 . S
C880 C879 1.366 . S
C880 C881 1.414 . S
C880 C883 1.499 . S
C881 H855 0.950 . S
C881 C880 1.414 . S
C881 C882 1.374 . S
C882 H856 0.950 . S
C882 C878 1.385 . S
C882 C881 1.374 . S
C883 C880 1.499 . S
C883 C884 1.373 . S
C883 C885 1.389 1_455 S
C884 H857 0.950 . S
C884 C870 1.377 1_455 S
C884 C883 1.373 . S
C885 C869 1.377 . S
C885 C883 1.389 1_655 S
C885 C886 1.524 . S
C886 C885 1.524 . S
C886 C887 1.397 1_655 S
C886 C891 1.363 . S
C887 H858 0.950 . S
C887 C886 1.397 1_455 S
C887 C888 1.334 . S
C888 H859 0.950 . S
C888 C887 1.334 . S
C888 C889 1.282 1_455 S
C889 C888 1.282 1_655 S
C889 C890 1.528 . S
C889 H892 0.999 . S
C890 H860 0.950 . S
C890 C889 1.528 . S
C890 C891 1.415 . S
C891 H861 0.950 . S
C891 C886 1.363 . S
C891 C890 1.415 . S
H892 C889 0.999 . S
H893 C874 0.913 . S
H894 C912 0.951 . S
H895 C914 0.951 1_556 S
H896 C916 0.950 1_455 S
H897 C917 0.931 1_455 S
H898 C919 0.949 . S
H899 C922 0.950 . S
H900 C923 0.950 . S
H901 C925 0.950 . S
H902 C926 0.950 . S
H903 C927 0.951 . S
H904 C929 0.951 . S
H905 C931 0.950 . S
H906 C932 0.950 . S
H907 C934 0.950 . S
H908 C937 0.950 . S
H909 C938 0.950 . S
H910 C940 0.950 . S
H911 C941 0.950 . S
C912 H894 0.951 . S
C912 C913 1.366 . S
C912 C914 1.388 . S
C913 C912 1.366 . S
C913 C917 1.385 . S
C914 H895 0.951 1_554 S
C914 C912 1.388 . S
C914 C915 1.366 . S
C915 C914 1.366 . S
C915 C916 1.414 . S
C915 C918 1.499 . S
C916 H896 0.950 1_655 S
C916 C915 1.414 . S
C916 C917 1.374 . S
C917 H897 0.931 1_655 S
C917 C913 1.385 . S
C917 C916 1.374 . S
C918 C915 1.499 . S
C918 C919 1.372 . S
C918 C920 1.389 1_554 S
C919 H898 0.949 . S
C919 C918 1.372 . S
C919 C935 1.378 1_565 S
C920 C918 1.389 1_556 S
C920 C921 1.524 . S
C920 C934 1.377 1_565 S
C921 C920 1.524 . S
C921 C922 1.397 1_655 S
C921 C926 1.363 . S
C922 H899 0.950 . S
C922 C921 1.397 1_455 S
C922 C923 1.334 . S
C923 H900 0.950 . S
C923 C922 1.334 . S
C923 C924 1.287 1_455 S
C924 C923 1.287 1_655 S
C924 C925 1.524 . S
C924 H943 0.913 . S
C925 H901 0.950 . S
C925 C924 1.524 . S
C925 C926 1.415 . S
C926 H902 0.950 . S
C926 C921 1.363 . S
C926 C925 1.415 . S
C927 H903 0.951 . S
C927 C928 1.366 . S
C927 C929 1.388 . S
C928 C927 1.366 . S
C928 C932 1.385 1_455 S
C929 H904 0.951 . S
C929 C927 1.388 . S
C929 C930 1.366 . S
C930 C929 1.366 . S
C930 C931 1.414 1_455 S
C930 C933 1.489 1_455 S
C931 H905 0.950 . S
C931 C930 1.414 1_655 S
C931 C932 1.374 . S
C932 H906 0.950 . S
C932 C928 1.385 1_655 S
C932 C931 1.374 . S
C933 C930 1.489 1_655 S
C933 C934 1.380 . S
C933 C935 1.392 1_556 S
C934 H907 0.950 . S
C934 C920 1.377 1_545 S
C934 C933 1.380 . S
C935 C919 1.378 1_545 S
C935 C933 1.392 1_554 S
C935 C936 1.527 . S
C936 C935 1.527 . S
C936 C937 1.415 . S
C936 C941 1.345 1_655 S
C937 H908 0.950 . S
C937 C936 1.415 . S
C937 C938 1.334 . S
C938 H909 0.950 . S
C938 C937 1.334 . S
C938 C939 1.287 . S
C939 C938 1.287 . S
C939 C940 1.524 1_655 S
C939 H942 0.999 . S
C940 H910 0.950 . S
C940 C939 1.524 1_455 S
C940 C941 1.415 . S
C941 H911 0.950 . S
C941 C936 1.345 1_455 S
C941 C940 1.415 . S
H942 C939 0.999 . S
H943 C924 0.913 . S
H944 C962 0.951 . S
H945 C964 0.951 . S
H946 C966 0.950 . S
H947 C967 0.950 . S
H948 C969 0.950 . S
H949 C972 0.950 . S
H950 C973 0.950 . S
H951 C975 0.950 . S
H952 C976 0.950 . S
H953 C977 0.951 . S
H954 C979 0.951 . S
H955 C981 0.950 . S
H956 C982 0.950 . S
H957 C984 0.950 . S
H958 C987 0.950 . S
H959 C988 0.950 . S
H960 C990 0.950 . S
H961 C991 0.950 . S
C962 H944 0.951 . S
C962 C963 1.366 . S
C962 C964 1.388 . S
C963 C962 1.366 . S
C963 C967 1.385 . S
C964 H945 0.951 . S
C964 C962 1.388 . S
C964 C965 1.366 . S
C965 C964 1.366 . S
C965 C966 1.414 . S
C965 C968 1.499 . S
C966 H946 0.950 . S
C966 C965 1.414 . S
C966 C967 1.374 . S
C967 H947 0.950 . S
C967 C963 1.385 . S
C967 C966 1.374 . S
C968 C965 1.499 . S
C968 C969 1.373 . S
C968 C970 1.389 . S
C969 H948 0.950 . S
C969 C968 1.373 . S
C969 C985 1.377 . S
C970 C968 1.389 . S
C970 C971 1.524 . S
C970 C984 1.377 . S
C971 C970 1.524 . S
C971 C972 1.397 . S
C971 C976 1.363 . S
C972 H949 0.950 . S
C972 C971 1.397 . S
C972 C973 1.334 . S
C973 H950 0.950 . S
C973 C972 1.334 . S
C973 C974 1.287 . S
C974 C973 1.287 . S
C974 C975 1.524 . S
C974 H993 0.913 . S
C975 H951 0.950 . S
C975 C974 1.524 . S
C975 C976 1.415 . S
C976 H952 0.950 . S
C976 C971 1.363 . S
C976 C975 1.415 . S
C977 H953 0.951 . S
C977 C978 1.366 . S
C977 C979 1.388 . S
C978 C977 1.366 . S
C978 C982 1.385 . S
C979 H954 0.951 . S
C979 C977 1.388 . S
C979 C980 1.366 . S
C980 C979 1.366 . S
C980 C981 1.414 . S
C980 C983 1.499 . S
C981 H955 0.950 . S
C981 C980 1.414 . S
C981 C982 1.374 . S
C982 H956 0.950 . S
C982 C978 1.385 . S
C982 C981 1.374 . S
C983 C980 1.499 . S
C983 C984 1.373 . S
C983 C985 1.389 . S
C984 H957 0.950 . S
C984 C970 1.377 . S
C984 C983 1.373 . S
C985 C969 1.377 . S
C985 C983 1.389 . S
C985 C986 1.524 . S
C986 C985 1.524 . S
C986 C987 1.397 . S
C986 C991 1.363 . S
C987 H958 0.950 . S
C987 C986 1.397 . S
C987 C988 1.334 . S
C988 H959 0.950 . S
C988 C987 1.334 . S
C988 C989 1.287 . S
C989 C988 1.287 . S
C989 C990 1.524 . S
C989 H992 0.999 . S
C990 H960 0.950 . S
C990 C989 1.524 . S
C990 C991 1.415 . S
C991 H961 0.950 . S
C991 C986 1.363 . S
C991 C990 1.415 . S
H992 C989 0.999 . S
H993 C974 0.913 . S
H994 C1012 0.951 . S
H995 C1014 0.951 . S
H996 C1016 0.950 . S
H997 C1017 0.950 . S
H998 C1019 0.950 . S
H999 C1022 0.950 . S
H1000 C1023 0.950 . S
H1001 C1025 0.950 . S
H1002 C1026 0.950 . S
H1003 C1027 0.951 . S
H1004 C1029 0.951 . S
H1005 C1031 0.950 . S
H1006 C1032 0.950 . S
H1007 C1034 0.950 . S
H1008 C1037 0.950 . S
H1009 C1038 0.950 . S
H1010 C1040 0.950 . S
H1011 C1041 0.950 . S
C1012 H994 0.951 . S
C1012 C1013 1.366 . S
C1012 C1014 1.388 . S
C1013 C1012 1.366 . S
C1013 C1017 1.385 . S
C1014 H995 0.951 . S
C1014 C1012 1.388 . S
C1014 C1015 1.366 . S
C1015 C1014 1.366 . S
C1015 C1016 1.414 . S
C1015 C1018 1.499 . S
C1016 H996 0.950 . S
C1016 C1015 1.414 . S
C1016 C1017 1.374 . S
C1017 H997 0.950 . S
C1017 C1013 1.385 . S
C1017 C1016 1.374 . S
C1018 C1015 1.499 . S
C1018 C1019 1.373 . S
C1018 C1020 1.389 . S
C1019 H998 0.950 . S
C1019 C1018 1.373 . S
C1019 C1035 1.377 . S
C1020 C1018 1.389 . S
C1020 C1021 1.524 . S
C1020 C1034 1.377 . S
C1021 C1020 1.524 . S
C1021 C1022 1.397 . S
C1021 C1026 1.363 . S
C1022 H999 0.950 . S
C1022 C1021 1.397 . S
C1022 C1023 1.334 . S
C1023 H1000 0.950 . S
C1023 C1022 1.334 . S
C1023 C1024 1.287 . S
C1024 C1023 1.287 . S
C1024 C1025 1.524 . S
C1024 H1043 0.913 . S
C1025 H1001 0.950 . S
C1025 C1024 1.524 . S
C1025 C1026 1.415 . S
C1026 H1002 0.950 . S
C1026 C1021 1.363 . S
C1026 C1025 1.415 . S
C1027 H1003 0.951 . S
C1027 C1028 1.366 . S
C1027 C1029 1.388 . S
C1028 C1027 1.366 . S
C1028 C1032 1.385 . S
C1029 H1004 0.951 . S
C1029 C1027 1.388 . S
C1029 C1030 1.366 . S
C1030 C1029 1.366 . S
C1030 C1031 1.414 . S
C1030 C1033 1.499 . S
C1031 H1005 0.950 . S
C1031 C1030 1.414 . S
C1031 C1032 1.374 . S
C1032 H1006 0.950 . S
C1032 C1028 1.385 . S
C1032 C1031 1.374 . S
C1033 C1030 1.499 . S
C1033 C1034 1.373 . S
C1033 C1035 1.389 . S
C1034 H1007 0.950 . S
C1034 C1020 1.377 . S
C1034 C1033 1.373 . S
C1035 C1019 1.377 . S
C1035 C1033 1.389 . S
C1035 C1036 1.524 . S
C1036 C1035 1.524 . S
C1036 C1037 1.397 . S
C1036 C1041 1.363 . S
C1037 H1008 0.950 . S
C1037 C1036 1.397 . S
C1037 C1038 1.334 . S
C1038 H1009 0.950 . S
C1038 C1037 1.334 . S
C1038 C1039 1.287 . S
C1039 C1038 1.287 . S
C1039 C1040 1.524 . S
C1039 H1042 0.999 . S
C1040 H1010 0.950 . S
C1040 C1039 1.524 . S
C1040 C1041 1.415 . S
C1041 H1011 0.950 . S
C1041 C1036 1.363 . S
C1041 C1040 1.415 . S
H1042 C1039 0.999 . S
H1043 C1024 0.913 . S
H1044 C1062 0.951 . S
H1045 C1064 0.951 . S
H1046 C1066 0.950 . S
H1047 C1067 0.950 . S
H1048 C1069 0.950 . S
H1049 C1072 0.950 . S
H1050 C1073 0.950 . S
H1051 C1075 0.950 . S
H1052 C1076 0.950 . S
H1053 C1077 0.951 . S
H1054 C1079 0.951 . S
H1055 C1081 0.950 . S
H1056 C1082 0.950 . S
H1057 C1084 0.950 . S
H1058 C1087 0.950 . S
H1059 C1088 0.950 . S
H1060 C1090 0.950 . S
H1061 C1091 0.950 . S
C1062 H1044 0.951 . S
C1062 C1063 1.366 . S
C1062 C1064 1.388 . S
C1063 C1062 1.366 . S
C1063 C1067 1.385 . S
C1064 H1045 0.951 . S
C1064 C1062 1.388 . S
C1064 C1065 1.366 . S
C1065 C1064 1.366 . S
C1065 C1066 1.414 . S
C1065 C1068 1.499 . S
C1066 H1046 0.950 . S
C1066 C1065 1.414 . S
C1066 C1067 1.374 . S
C1067 H1047 0.950 . S
C1067 C1063 1.385 . S
C1067 C1066 1.374 . S
C1068 C1065 1.499 . S
C1068 C1069 1.373 . S
C1068 C1070 1.389 . S
C1069 H1048 0.950 . S
C1069 C1068 1.373 . S
C1069 C1085 1.377 . S
C1070 C1068 1.389 . S
C1070 C1071 1.524 . S
C1070 C1084 1.377 . S
C1071 C1070 1.524 . S
C1071 C1072 1.397 . S
C1071 C1076 1.363 . S
C1072 H1049 0.950 . S
C1072 C1071 1.397 . S
C1072 C1073 1.334 . S
C1073 H1050 0.950 . S
C1073 C1072 1.334 . S
C1073 C1074 1.287 . S
C1074 C1073 1.287 . S
C1074 C1075 1.524 . S
C1074 H1093 0.913 . S
C1075 H1051 0.950 . S
C1075 C1074 1.524 . S
C1075 C1076 1.415 . S
C1076 H1052 0.950 . S
C1076 C1071 1.363 . S
C1076 C1075 1.415 . S
C1077 H1053 0.951 . S
C1077 C1078 1.366 . S
C1077 C1079 1.388 . S
C1078 C1077 1.366 . S
C1078 C1082 1.385 . S
C1079 H1054 0.951 . S
C1079 C1077 1.388 . S
C1079 C1080 1.366 . S
C1080 C1079 1.366 . S
C1080 C1081 1.414 . S
C1080 C1083 1.499 . S
C1081 H1055 0.950 . S
C1081 C1080 1.414 . S
C1081 C1082 1.374 . S
C1082 H1056 0.950 . S
C1082 C1078 1.385 . S
C1082 C1081 1.374 . S
C1083 C1080 1.499 . S
C1083 C1084 1.373 . S
C1083 C1085 1.389 . S
C1084 H1057 0.950 . S
C1084 C1070 1.377 . S
C1084 C1083 1.373 . S
C1085 C1069 1.377 . S
C1085 C1083 1.389 . S
C1085 C1086 1.524 . S
C1086 C1085 1.524 . S
C1086 C1087 1.397 . S
C1086 C1091 1.363 . S
C1087 H1058 0.950 . S
C1087 C1086 1.397 . S
C1087 C1088 1.334 . S
C1088 H1059 0.950 . S
C1088 C1087 1.334 . S
C1088 C1089 1.287 . S
C1089 C1088 1.287 . S
C1089 C1090 1.524 . S
C1089 H1092 0.999 . S
C1090 H1060 0.950 . S
C1090 C1089 1.524 . S
C1090 C1091 1.415 . S
C1091 H1061 0.950 . S
C1091 C1086 1.363 . S
C1091 C1090 1.415 . S
H1092 C1089 0.999 . S
H1093 C1074 0.913 . S
H1094 C1112 0.951 . S
H1095 C1114 0.951 . S
H1096 C1116 0.950 . S
H1097 C1117 0.950 . S
H1098 C1119 0.950 . S
H1099 C1122 0.950 . S
H1100 C1123 0.950 . S
H1101 C1125 0.950 . S
H1102 C1126 0.950 . S
H1103 C1127 0.951 . S
H1104 C1129 0.951 . S
H1105 C1131 0.950 . S
H1106 C1132 0.950 . S
H1107 C1134 0.950 . S
H1108 C1137 0.950 . S
H1109 C1138 0.950 . S
H1110 C1140 0.950 . S
H1111 C1141 0.950 . S
C1112 H1094 0.951 . S
C1112 C1113 1.366 . S
C1112 C1114 1.388 . S
C1113 C1112 1.366 . S
C1113 C1117 1.385 . S
C1114 H1095 0.951 . S
C1114 C1112 1.388 . S
C1114 C1115 1.366 . S
C1115 C1114 1.366 . S
C1115 C1116 1.414 . S
C1115 C1118 1.499 . S
C1116 H1096 0.950 . S
C1116 C1115 1.414 . S
C1116 C1117 1.374 . S
C1117 H1097 0.950 . S
C1117 C1113 1.385 . S
C1117 C1116 1.374 . S
C1118 C1115 1.499 . S
C1118 C1119 1.373 . S
C1118 C1120 1.389 . S
C1119 H1098 0.950 . S
C1119 C1118 1.373 . S
C1119 C1135 1.377 . S
C1120 C1118 1.389 . S
C1120 C1121 1.524 . S
C1120 C1134 1.377 . S
C1121 C1120 1.524 . S
C1121 C1122 1.397 . S
C1121 C1126 1.363 . S
C1122 H1099 0.950 . S
C1122 C1121 1.397 . S
C1122 C1123 1.334 . S
C1123 H1100 0.950 . S
C1123 C1122 1.334 . S
C1123 C1124 1.287 . S
C1124 C1123 1.287 . S
C1124 C1125 1.524 . S
C1124 H1143 0.913 . S
C1125 H1101 0.950 . S
C1125 C1124 1.524 . S
C1125 C1126 1.415 . S
C1126 H1102 0.950 . S
C1126 C1121 1.363 . S
C1126 C1125 1.415 . S
C1127 H1103 0.951 . S
C1127 C1128 1.366 . S
C1127 C1129 1.388 . S
C1128 C1127 1.366 . S
C1128 C1132 1.385 . S
C1129 H1104 0.951 . S
C1129 C1127 1.388 . S
C1129 C1130 1.366 . S
C1130 C1129 1.366 . S
C1130 C1131 1.414 . S
C1130 C1133 1.499 . S
C1131 H1105 0.950 . S
C1131 C1130 1.414 . S
C1131 C1132 1.374 . S
C1132 H1106 0.950 . S
C1132 C1128 1.385 . S
C1132 C1131 1.374 . S
C1133 C1130 1.499 . S
C1133 C1134 1.373 . S
C1133 C1135 1.389 . S
C1134 H1107 0.950 . S
C1134 C1120 1.377 . S
C1134 C1133 1.373 . S
C1135 C1119 1.377 . S
C1135 C1133 1.389 . S
C1135 C1136 1.524 . S
C1136 C1135 1.524 . S
C1136 C1137 1.397 . S
C1136 C1141 1.363 . S
C1137 H1108 0.950 . S
C1137 C1136 1.397 . S
C1137 C1138 1.334 . S
C1138 H1109 0.950 . S
C1138 C1137 1.334 . S
C1138 C1139 1.287 . S
C1139 C1138 1.287 . S
C1139 C1140 1.524 . S
C1139 H1142 0.999 . S
C1140 H1110 0.950 . S
C1140 C1139 1.524 . S
C1140 C1141 1.415 . S
C1141 H1111 0.950 . S
C1141 C1136 1.363 . S
C1141 C1140 1.415 . S
H1142 C1139 0.999 . S
H1143 C1124 0.913 . S
H1144 C1162 0.951 . S
H1145 C1164 0.951 . S
H1146 C1166 0.950 . S
H1147 C1167 0.950 . S
H1148 C1169 0.950 . S
H1149 C1172 0.950 . S
H1150 C1173 0.950 . S
H1151 C1175 0.950 . S
H1152 C1176 0.950 . S
H1153 C1177 0.951 . S
H1154 C1179 0.951 . S
H1155 C1181 0.950 . S
H1156 C1182 0.950 . S
H1157 C1184 0.950 . S
H1158 C1187 0.950 . S
H1159 C1188 0.950 . S
H1160 C1190 0.950 . S
H1161 C1191 0.950 . S
C1162 H1144 0.951 . S
C1162 C1163 1.366 . S
C1162 C1164 1.388 . S
C1163 C1162 1.366 . S
C1163 C1167 1.385 . S
C1164 H1145 0.951 . S
C1164 C1162 1.388 . S
C1164 C1165 1.366 . S
C1165 C1164 1.366 . S
C1165 C1166 1.414 . S
C1165 C1168 1.499 . S
C1166 H1146 0.950 . S
C1166 C1165 1.414 . S
C1166 C1167 1.374 . S
C1167 H1147 0.950 . S
C1167 C1163 1.385 . S
C1167 C1166 1.374 . S
C1168 C1165 1.499 . S
C1168 C1169 1.373 . S
C1168 C1170 1.389 . S
C1169 H1148 0.950 . S
C1169 C1168 1.373 . S
C1169 C1185 1.377 . S
C1170 C1168 1.389 . S
C1170 C1171 1.524 . S
C1170 C1184 1.377 . S
C1171 C1170 1.524 . S
C1171 C1172 1.397 . S
C1171 C1176 1.363 . S
C1172 H1149 0.950 . S
C1172 C1171 1.397 . S
C1172 C1173 1.334 . S
C1173 H1150 0.950 . S
C1173 C1172 1.334 . S
C1173 C1174 1.287 . S
C1174 C1173 1.287 . S
C1174 C1175 1.524 . S
C1174 H1193 0.913 . S
C1175 H1151 0.950 . S
C1175 C1174 1.524 . S
C1175 C1176 1.415 . S
C1176 H1152 0.950 . S
C1176 C1171 1.363 . S
C1176 C1175 1.415 . S
C1177 H1153 0.951 . S
C1177 C1178 1.366 . S
C1177 C1179 1.388 . S
C1178 C1177 1.366 . S
C1178 C1182 1.385 . S
C1179 H1154 0.951 . S
C1179 C1177 1.388 . S
C1179 C1180 1.366 . S
C1180 C1179 1.366 . S
C1180 C1181 1.414 . S
C1180 C1183 1.499 . S
C1181 H1155 0.950 . S
C1181 C1180 1.414 . S
C1181 C1182 1.374 . S
C1182 H1156 0.950 . S
C1182 C1178 1.385 . S
C1182 C1181 1.374 . S
C1183 C1180 1.499 . S
C1183 C1184 1.373 . S
C1183 C1185 1.389 . S
C1184 H1157 0.950 . S
C1184 C1170 1.377 . S
C1184 C1183 1.373 . S
C1185 C1169 1.377 . S
C1185 C1183 1.389 . S
C1185 C1186 1.524 . S
C1186 C1185 1.524 . S
C1186 C1187 1.397 . S
C1186 C1191 1.363 . S
C1187 H1158 0.950 . S
C1187 C1186 1.397 . S
C1187 C1188 1.334 . S
C1188 H1159 0.950 . S
C1188 C1187 1.334 . S
C1188 C1189 1.287 . S
C1189 C1188 1.287 . S
C1189 C1190 1.524 . S
C1189 H1192 0.999 . S
C1190 H1160 0.950 . S
C1190 C1189 1.524 . S
C1190 C1191 1.415 . S
C1191 H1161 0.950 . S
C1191 C1186 1.363 . S
C1191 C1190 1.415 . S
H1192 C1189 0.999 . S
H1193 C1174 0.913 . S
H1194 C1212 0.951 . S
H1195 C1214 0.951 . S
H1196 C1216 0.950 . S
H1197 C1217 0.950 . S
H1198 C1219 0.950 . S
H1199 C1222 0.950 . S
H1200 C1223 0.950 . S
H1201 C1225 0.950 . S
H1202 C1226 0.950 . S
H1203 C1227 0.951 . S
H1204 C1229 0.951 . S
H1205 C1231 0.950 . S
H1206 C1232 0.950 . S
H1207 C1234 0.950 . S
H1208 C1237 0.950 . S
H1209 C1238 0.950 . S
H1210 C1240 0.950 . S
H1211 C1241 0.950 . S
C1212 H1194 0.951 . S
C1212 C1213 1.366 . S
C1212 C1214 1.388 . S
C1213 C1212 1.366 . S
C1213 C1217 1.385 . S
C1214 H1195 0.951 . S
C1214 C1212 1.388 . S
C1214 C1215 1.366 . S
C1215 C1214 1.366 . S
C1215 C1216 1.414 . S
C1215 C1218 1.499 . S
C1216 H1196 0.950 . S
C1216 C1215 1.414 . S
C1216 C1217 1.374 . S
C1217 H1197 0.950 . S
C1217 C1213 1.385 . S
C1217 C1216 1.374 . S
C1218 C1215 1.499 . S
C1218 C1219 1.373 . S
C1218 C1220 1.389 . S
C1219 H1198 0.950 . S
C1219 C1218 1.373 . S
C1219 C1235 1.377 . S
C1220 C1218 1.389 . S
C1220 C1221 1.524 . S
C1220 C1234 1.377 . S
C1221 C1220 1.524 . S
C1221 C1222 1.397 . S
C1221 C1226 1.363 . S
C1222 H1199 0.950 . S
C1222 C1221 1.397 . S
C1222 C1223 1.334 . S
C1223 H1200 0.950 . S
C1223 C1222 1.334 . S
C1223 C1224 1.287 . S
C1224 C1223 1.287 . S
C1224 C1225 1.524 . S
C1224 H1243 0.913 . S
C1225 H1201 0.950 . S
C1225 C1224 1.524 . S
C1225 C1226 1.415 . S
C1226 H1202 0.950 . S
C1226 C1221 1.363 . S
C1226 C1225 1.415 . S
C1227 H1203 0.951 . S
C1227 C1228 1.366 . S
C1227 C1229 1.388 . S
C1228 C1227 1.366 . S
C1228 C1232 1.385 . S
C1229 H1204 0.951 . S
C1229 C1227 1.388 . S
C1229 C1230 1.366 . S
C1230 C1229 1.366 . S
C1230 C1231 1.414 . S
C1230 C1233 1.499 . S
C1231 H1205 0.950 . S
C1231 C1230 1.414 . S
C1231 C1232 1.374 . S
C1232 H1206 0.950 . S
C1232 C1228 1.385 . S
C1232 C1231 1.374 . S
C1233 C1230 1.499 . S
C1233 C1234 1.373 . S
C1233 C1235 1.389 . S
C1234 H1207 0.950 . S
C1234 C1220 1.377 . S
C1234 C1233 1.373 . S
C1235 C1219 1.377 . S
C1235 C1233 1.389 . S
C1235 C1236 1.524 . S
C1236 C1235 1.524 . S
C1236 C1237 1.397 . S
C1236 C1241 1.363 . S
C1237 H1208 0.950 . S
C1237 C1236 1.397 . S
C1237 C1238 1.334 . S
C1238 H1209 0.950 . S
C1238 C1237 1.334 . S
C1238 C1239 1.287 . S
C1239 C1238 1.287 . S
C1239 C1240 1.524 . S
C1239 H1242 0.999 . S
C1240 H1210 0.950 . S
C1240 C1239 1.524 . S
C1240 C1241 1.415 . S
C1241 H1211 0.950 . S
C1241 C1236 1.363 . S
C1241 C1240 1.415 . S
H1242 C1239 0.999 . S
H1243 C1224 0.913 . S
H1244 C1262 0.951 . S
H1245 C1264 0.951 . S
H1246 C1266 0.950 . S
H1247 C1267 0.950 . S
H1248 C1269 0.950 . S
H1249 C1272 0.950 . S
H1250 C1273 0.950 . S
H1251 C1275 0.950 . S
H1252 C1276 0.950 . S
H1253 C1277 0.951 . S
H1254 C1279 0.951 . S
H1255 C1281 0.950 . S
H1256 C1282 0.950 . S
H1257 C1284 0.950 . S
H1258 C1287 0.950 . S
H1259 C1288 0.950 . S
H1260 C1290 0.950 . S
H1261 C1291 0.950 . S
C1262 H1244 0.951 . S
C1262 C1263 1.366 . S
C1262 C1264 1.388 . S
C1263 C1262 1.366 . S
C1263 C1267 1.385 . S
C1264 H1245 0.951 . S
C1264 C1262 1.388 . S
C1264 C1265 1.366 . S
C1265 C1264 1.366 . S
C1265 C1266 1.414 . S
C1265 C1268 1.499 . S
C1266 H1246 0.950 . S
C1266 C1265 1.414 . S
C1266 C1267 1.374 . S
C1267 H1247 0.950 . S
C1267 C1263 1.385 . S
C1267 C1266 1.374 . S
C1268 C1265 1.499 . S
C1268 C1269 1.373 . S
C1268 C1270 1.389 . S
C1269 H1248 0.950 . S
C1269 C1268 1.373 . S
C1269 C1285 1.377 . S
C1270 C1268 1.389 . S
C1270 C1271 1.524 . S
C1270 C1284 1.377 . S
C1271 C1270 1.524 . S
C1271 C1272 1.397 . S
C1271 C1276 1.363 . S
C1272 H1249 0.950 . S
C1272 C1271 1.397 . S
C1272 C1273 1.334 . S
C1273 H1250 0.950 . S
C1273 C1272 1.334 . S
C1273 C1274 1.287 . S
C1274 C1273 1.287 . S
C1274 C1275 1.524 . S
C1274 H1293 0.913 . S
C1275 H1251 0.950 . S
C1275 C1274 1.524 . S
C1275 C1276 1.415 . S
C1276 H1252 0.950 . S
C1276 C1271 1.363 . S
C1276 C1275 1.415 . S
C1277 H1253 0.951 . S
C1277 C1278 1.366 . S
C1277 C1279 1.388 . S
C1278 C1277 1.366 . S
C1278 C1282 1.385 . S
C1279 H1254 0.951 . S
C1279 C1277 1.388 . S
C1279 C1280 1.366 . S
C1280 C1279 1.366 . S
C1280 C1281 1.414 . S
C1280 C1283 1.499 . S
C1281 H1255 0.950 . S
C1281 C1280 1.414 . S
C1281 C1282 1.374 . S
C1282 H1256 0.950 . S
C1282 C1278 1.385 . S
C1282 C1281 1.374 . S
C1283 C1280 1.499 . S
C1283 C1284 1.373 . S
C1283 C1285 1.389 . S
C1284 H1257 0.950 . S
C1284 C1270 1.377 . S
C1284 C1283 1.373 . S
C1285 C1269 1.377 . S
C1285 C1283 1.389 . S
C1285 C1286 1.524 . S
C1286 C1285 1.524 . S
C1286 C1287 1.397 . S
C1286 C1291 1.363 . S
C1287 H1258 0.950 . S
C1287 C1286 1.397 . S
C1287 C1288 1.334 . S
C1288 H1259 0.950 . S
C1288 C1287 1.334 . S
C1288 C1289 1.287 . S
C1289 C1288 1.287 . S
C1289 C1290 1.524 . S
C1289 H1292 0.999 . S
C1290 H1260 0.950 . S
C1290 C1289 1.524 . S
C1290 C1291 1.415 . S
C1291 H1261 0.950 . S
C1291 C1286 1.363 . S
C1291 C1290 1.415 . S
H1292 C1289 0.999 . S
H1293 C1274 0.913 . S
H1294 C1312 0.951 . S
H1295 C1314 0.951 . S
H1296 C1316 0.950 . S
H1297 C1317 0.950 . S
H1298 C1319 0.950 . S
H1299 C1322 0.950 . S
H1300 C1323 0.950 . S
H1301 C1325 0.950 . S
H1302 C1326 0.950 . S
H1303 C1327 0.951 . S
H1304 C1329 0.951 . S
H1305 C1331 0.950 . S
H1306 C1332 0.950 . S
H1307 C1334 0.950 . S
H1308 C1337 0.950 . S
H1309 C1338 0.950 . S
H1310 C1340 0.950 . S
H1311 C1341 0.950 . S
C1312 H1294 0.951 . S
C1312 C1313 1.366 . S
C1312 C1314 1.388 . S
C1313 C1312 1.366 . S
C1313 C1317 1.385 . S
C1314 H1295 0.951 . S
C1314 C1312 1.388 . S
C1314 C1315 1.366 . S
C1315 C1314 1.366 . S
C1315 C1316 1.414 . S
C1315 C1318 1.499 . S
C1316 H1296 0.950 . S
C1316 C1315 1.414 . S
C1316 C1317 1.374 . S
C1317 H1297 0.950 . S
C1317 C1313 1.385 . S
C1317 C1316 1.374 . S
C1318 C1315 1.499 . S
C1318 C1319 1.373 . S
C1318 C1320 1.389 . S
C1319 H1298 0.950 . S
C1319 C1318 1.373 . S
C1319 C1335 1.377 . S
C1320 C1318 1.389 . S
C1320 C1321 1.524 . S
C1320 C1334 1.377 . S
C1321 C1320 1.524 . S
C1321 C1322 1.397 . S
C1321 C1326 1.363 . S
C1322 H1299 0.950 . S
C1322 C1321 1.397 . S
C1322 C1323 1.334 . S
C1323 H1300 0.950 . S
C1323 C1322 1.334 . S
C1323 C1324 1.287 . S
C1324 C1323 1.287 . S
C1324 C1325 1.524 . S
C1324 H1343 0.913 . S
C1325 H1301 0.950 . S
C1325 C1324 1.524 . S
C1325 C1326 1.415 . S
C1326 H1302 0.950 . S
C1326 C1321 1.363 . S
C1326 C1325 1.415 . S
C1327 H1303 0.951 . S
C1327 C1328 1.366 . S
C1327 C1329 1.388 . S
C1328 C1327 1.366 . S
C1328 C1332 1.385 . S
C1329 H1304 0.951 . S
C1329 C1327 1.388 . S
C1329 C1330 1.366 . S
C1330 C1329 1.366 . S
C1330 C1331 1.414 . S
C1330 C1333 1.499 . S
C1331 H1305 0.950 . S
C1331 C1330 1.414 . S
C1331 C1332 1.374 . S
C1332 H1306 0.950 . S
C1332 C1328 1.385 . S
C1332 C1331 1.374 . S
C1333 C1330 1.499 . S
C1333 C1334 1.373 . S
C1333 C1335 1.389 . S
C1334 H1307 0.950 . S
C1334 C1320 1.377 . S
C1334 C1333 1.373 . S
C1335 C1319 1.377 . S
C1335 C1333 1.389 . S
C1335 C1336 1.524 . S
C1336 C1335 1.524 . S
C1336 C1337 1.397 . S
C1336 C1341 1.363 . S
C1337 H1308 0.950 . S
C1337 C1336 1.397 . S
C1337 C1338 1.334 . S
C1338 H1309 0.950 . S
C1338 C1337 1.334 . S
C1338 C1339 1.287 . S
C1339 C1338 1.287 . S
C1339 C1340 1.524 . S
C1339 H1342 0.999 . S
C1340 H1310 0.950 . S
C1340 C1339 1.524 . S
C1340 C1341 1.415 . S
C1341 H1311 0.950 . S
C1341 C1336 1.363 . S
C1341 C1340 1.415 . S
H1342 C1339 0.999 . S
H1343 C1324 0.913 . S
H1344 C1362 0.951 . S
H1345 C1364 0.951 . S
H1346 C1366 0.950 . S
H1347 C1367 0.950 . S
H1348 C1369 0.950 . S
H1349 C1372 0.950 . S
H1350 C1373 0.950 . S
H1351 C1375 0.950 . S
H1352 C1376 0.950 . S
H1353 C1377 0.951 . S
H1354 C1379 0.951 . S
H1355 C1381 0.950 . S
H1356 C1382 0.950 . S
H1357 C1384 0.950 . S
H1358 C1387 0.950 . S
H1359 C1388 0.950 . S
H1360 C1390 0.950 . S
H1361 C1391 0.950 . S
C1362 H1344 0.951 . S
C1362 C1363 1.366 . S
C1362 C1364 1.388 . S
C1363 C1362 1.366 . S
C1363 C1367 1.385 . S
C1364 H1345 0.951 . S
C1364 C1362 1.388 . S
C1364 C1365 1.366 . S
C1365 C1364 1.366 . S
C1365 C1366 1.414 . S
C1365 C1368 1.499 . S
C1366 H1346 0.950 . S
C1366 C1365 1.414 . S
C1366 C1367 1.374 . S
C1367 H1347 0.950 . S
C1367 C1363 1.385 . S
C1367 C1366 1.374 . S
C1368 C1365 1.499 . S
C1368 C1369 1.373 . S
C1368 C1370 1.389 . S
C1369 H1348 0.950 . S
C1369 C1368 1.373 . S
C1369 C1385 1.377 . S
C1370 C1368 1.389 . S
C1370 C1371 1.524 . S
C1370 C1384 1.377 . S
C1371 C1370 1.524 . S
C1371 C1372 1.397 . S
C1371 C1376 1.363 . S
C1372 H1349 0.950 . S
C1372 C1371 1.397 . S
C1372 C1373 1.334 . S
C1373 H1350 0.950 . S
C1373 C1372 1.334 . S
C1373 C1374 1.287 . S
C1374 C1373 1.287 . S
C1374 C1375 1.524 . S
C1374 H1393 0.913 . S
C1375 H1351 0.950 . S
C1375 C1374 1.524 . S
C1375 C1376 1.415 . S
C1376 H1352 0.950 . S
C1376 C1371 1.363 . S
C1376 C1375 1.415 . S
C1377 H1353 0.951 . S
C1377 C1378 1.366 . S
C1377 C1379 1.388 . S
C1378 C1377 1.366 . S
C1378 C1382 1.385 . S
C1379 H1354 0.951 . S
C1379 C1377 1.388 . S
C1379 C1380 1.366 . S
C1380 C1379 1.366 . S
C1380 C1381 1.414 . S
C1380 C1383 1.499 . S
C1381 H1355 0.950 . S
C1381 C1380 1.414 . S
C1381 C1382 1.374 . S
C1382 H1356 0.950 . S
C1382 C1378 1.385 . S
C1382 C1381 1.374 . S
C1383 C1380 1.499 . S
C1383 C1384 1.373 . S
C1383 C1385 1.389 . S
C1384 H1357 0.950 . S
C1384 C1370 1.377 . S
C1384 C1383 1.373 . S
C1385 C1369 1.377 . S
C1385 C1383 1.389 . S
C1385 C1386 1.524 . S
C1386 C1385 1.524 . S
C1386 C1387 1.397 . S
C1386 C1391 1.363 . S
C1387 H1358 0.950 . S
C1387 C1386 1.397 . S
C1387 C1388 1.334 . S
C1388 H1359 0.950 . S
C1388 C1387 1.334 . S
C1388 C1389 1.287 . S
C1389 C1388 1.287 . S
C1389 C1390 1.524 . S
C1389 H1392 0.999 . S
C1390 H1360 0.950 . S
C1390 C1389 1.524 . S
C1390 C1391 1.415 . S
C1391 H1361 0.950 . S
C1391 C1386 1.363 . S
C1391 C1390 1.415 . S
H1392 C1389 0.999 . S
H1393 C1374 0.913 . S
H1394 C1412 0.951 . S
H1395 C1414 0.951 . S
H1396 C1416 0.950 . S
H1397 C1417 0.950 . S
H1398 C1419 0.950 . S
H1399 C1422 0.950 . S
H1400 C1423 0.950 . S
H1401 C1425 0.950 . S
H1402 C1426 0.950 . S
H1403 C1427 0.951 . S
H1404 C1429 0.951 . S
H1405 C1431 0.950 . S
H1406 C1432 0.950 . S
H1407 C1434 0.950 . S
H1408 C1437 0.950 . S
H1409 C1438 0.950 . S
H1410 C1440 0.950 . S
H1411 C1441 0.950 . S
C1412 H1394 0.951 . S
C1412 C1413 1.366 . S
C1412 C1414 1.388 . S
C1413 C1412 1.366 . S
C1413 C1417 1.385 . S
C1414 H1395 0.951 . S
C1414 C1412 1.388 . S
C1414 C1415 1.366 . S
C1415 C1414 1.366 . S
C1415 C1416 1.414 . S
C1415 C1418 1.499 . S
C1416 H1396 0.950 . S
C1416 C1415 1.414 . S
C1416 C1417 1.374 . S
C1417 H1397 0.950 . S
C1417 C1413 1.385 . S
C1417 C1416 1.374 . S
C1418 C1415 1.499 . S
C1418 C1419 1.373 . S
C1418 C1420 1.389 . S
C1419 H1398 0.950 . S
C1419 C1418 1.373 . S
C1419 C1435 1.377 . S
C1420 C1418 1.389 . S
C1420 C1421 1.524 . S
C1420 C1434 1.377 . S
C1421 C1420 1.524 . S
C1421 C1422 1.397 . S
C1421 C1426 1.363 . S
C1422 H1399 0.950 . S
C1422 C1421 1.397 . S
C1422 C1423 1.334 . S
C1423 H1400 0.950 . S
C1423 C1422 1.334 . S
C1423 C1424 1.287 . S
C1424 C1423 1.287 . S
C1424 C1425 1.524 . S
C1424 H1443 0.913 . S
C1425 H1401 0.950 . S
C1425 C1424 1.524 . S
C1425 C1426 1.415 . S
C1426 H1402 0.950 . S
C1426 C1421 1.363 . S
C1426 C1425 1.415 . S
C1427 H1403 0.951 . S
C1427 C1428 1.366 . S
C1427 C1429 1.388 . S
C1428 C1427 1.366 . S
C1428 C1432 1.385 . S
C1429 H1404 0.951 . S
C1429 C1427 1.388 . S
C1429 C1430 1.366 . S
C1430 C1429 1.366 . S
C1430 C1431 1.414 . S
C1430 C1433 1.499 . S
C1431 H1405 0.950 . S
C1431 C1430 1.414 . S
C1431 C1432 1.374 . S
C1432 H1406 0.950 . S
C1432 C1428 1.385 . S
C1432 C1431 1.374 . S
C1433 C1430 1.499 . S
C1433 C1434 1.373 . S
C1433 C1435 1.389 . S
C1434 H1407 0.950 . S
C1434 C1420 1.377 . S
C1434 C1433 1.373 . S
C1435 C1419 1.377 . S
C1435 C1433 1.389 . S
C1435 C1436 1.524 . S
C1436 C1435 1.524 . S
C1436 C1437 1.397 . S
C1436 C1441 1.363 . S
C1437 H1408 0.950 . S
C1437 C1436 1.397 . S
C1437 C1438 1.334 . S
C1438 H1409 0.950 . S
C1438 C1437 1.334 . S
C1438 C1439 1.287 . S
C1439 C1438 1.287 . S
C1439 C1440 1.524 . S
C1439 H1442 0.999 . S
C1440 H1410 0.950 . S
C1440 C1439 1.524 . S
C1440 C1441 1.415 . S
C1441 H1411 0.950 . S
C1441 C1436 1.363 . S
C1441 C1440 1.415 . S
H1442 C1439 0.999 . S
H1443 C1424 0.913 . S
H1444 C1462 0.951 . S
H1445 C1464 0.951 . S
H1446 C1466 0.950 . S
H1447 C1467 0.950 . S
H1448 C1469 0.950 . S
H1449 C1472 0.950 . S
H1450 C1473 0.950 . S
H1451 C1475 0.950 . S
H1452 C1476 0.950 . S
H1453 C1477 0.951 . S
H1454 C1479 0.951 . S
H1455 C1481 0.950 . S
H1456 C1482 0.950 . S
H1457 C1484 0.950 . S
H1458 C1487 0.950 . S
H1459 C1488 0.950 . S
H1460 C1490 0.950 . S
H1461 C1491 0.950 . S
C1462 H1444 0.951 . S
C1462 C1463 1.366 . S
C1462 C1464 1.388 . S
C1463 C1462 1.366 . S
C1463 C1467 1.385 . S
C1464 H1445 0.951 . S
C1464 C1462 1.388 . S
C1464 C1465 1.366 . S
C1465 C1464 1.366 . S
C1465 C1466 1.414 . S
C1465 C1468 1.499 . S
C1466 H1446 0.950 . S
C1466 C1465 1.414 . S
C1466 C1467 1.374 . S
C1467 H1447 0.950 . S
C1467 C1463 1.385 . S
C1467 C1466 1.374 . S
C1468 C1465 1.499 . S
C1468 C1469 1.373 . S
C1468 C1470 1.389 . S
C1469 H1448 0.950 . S
C1469 C1468 1.373 . S
C1469 C1485 1.377 . S
C1470 C1468 1.389 . S
C1470 C1471 1.524 . S
C1470 C1484 1.377 . S
C1471 C1470 1.524 . S
C1471 C1472 1.397 . S
C1471 C1476 1.363 . S
C1472 H1449 0.950 . S
C1472 C1471 1.397 . S
C1472 C1473 1.334 . S
C1473 H1450 0.950 . S
C1473 C1472 1.334 . S
C1473 C1474 1.287 . S
C1474 C1473 1.287 . S
C1474 C1475 1.524 . S
C1474 H1493 0.913 . S
C1475 H1451 0.950 . S
C1475 C1474 1.524 . S
C1475 C1476 1.415 . S
C1476 H1452 0.950 . S
C1476 C1471 1.363 . S
C1476 C1475 1.415 . S
C1477 H1453 0.951 . S
C1477 C1478 1.366 . S
C1477 C1479 1.388 . S
C1478 C1477 1.366 . S
C1478 C1482 1.385 . S
C1479 H1454 0.951 . S
C1479 C1477 1.388 . S
C1479 C1480 1.366 . S
C1480 C1479 1.366 . S
C1480 C1481 1.414 . S
C1480 C1483 1.499 . S
C1481 H1455 0.950 . S
C1481 C1480 1.414 . S
C1481 C1482 1.374 . S
C1482 H1456 0.950 . S
C1482 C1478 1.385 . S
C1482 C1481 1.374 . S
C1483 C1480 1.499 . S
C1483 C1484 1.373 . S
C1483 C1485 1.389 . S
C1484 H1457 0.950 . S
C1484 C1470 1.377 . S
C1484 C1483 1.373 . S
C1485 C1469 1.377 . S
C1485 C1483 1.389 . S
C1485 C1486 1.524 . S
C1486 C1485 1.524 . S
C1486 C1487 1.397 . S
C1486 C1491 1.363 . S
C1487 H1458 0.950 . S
C1487 C1486 1.397 . S
C1487 C1488 1.334 . S
C1488 H1459 0.950 . S
C1488 C1487 1.334 . S
C1488 C1489 1.287 . S
C1489 C1488 1.287 . S
C1489 C1490 1.524 . S
C1489 H1492 0.999 . S
C1490 H1460 0.950 . S
C1490 C1489 1.524 . S
C1490 C1491 1.415 . S
C1491 H1461 0.950 . S
C1491 C1486 1.363 . S
C1491 C1490 1.415 . S
H1492 C1489 0.999 . S
H1493 C1474 0.913 . S
H1494 C1512 0.951 . S
H1495 C1514 0.951 . S
H1496 C1516 0.950 . S
H1497 C1517 0.950 . S
H1498 C1519 0.950 . S
H1499 C1522 0.950 . S
H1500 C1523 0.950 . S
H1501 C1525 0.950 . S
H1502 C1526 0.950 . S
H1503 C1527 0.951 . S
H1504 C1529 0.951 . S
H1505 C1531 0.950 . S
H1506 C1532 0.950 . S
H1507 C1534 0.950 . S
H1508 C1537 0.950 . S
H1509 C1538 0.950 . S
H1510 C1540 0.950 . S
H1511 C1541 0.950 . S
C1512 H1494 0.951 . S
C1512 C1513 1.366 . S
C1512 C1514 1.388 . S
C1513 C1512 1.366 . S
C1513 C1517 1.385 . S
C1514 H1495 0.951 . S
C1514 C1512 1.388 . S
C1514 C1515 1.366 . S
C1515 C1514 1.366 . S
C1515 C1516 1.414 . S
C1515 C1518 1.499 . S
C1516 H1496 0.950 . S
C1516 C1515 1.414 . S
C1516 C1517 1.374 . S
C1517 H1497 0.950 . S
C1517 C1513 1.385 . S
C1517 C1516 1.374 . S
C1518 C1515 1.499 . S
C1518 C1519 1.373 . S
C1518 C1520 1.389 . S
C1519 H1498 0.950 . S
C1519 C1518 1.373 . S
C1519 C1535 1.377 . S
C1520 C1518 1.389 . S
C1520 C1521 1.524 . S
C1520 C1534 1.377 . S
C1521 C1520 1.524 . S
C1521 C1522 1.397 . S
C1521 C1526 1.363 . S
C1522 H1499 0.950 . S
C1522 C1521 1.397 . S
C1522 C1523 1.334 . S
C1523 H1500 0.950 . S
C1523 C1522 1.334 . S
C1523 C1524 1.287 . S
C1524 C1523 1.287 . S
C1524 C1525 1.524 . S
C1524 H1543 0.913 . S
C1525 H1501 0.950 . S
C1525 C1524 1.524 . S
C1525 C1526 1.415 . S
C1526 H1502 0.950 . S
C1526 C1521 1.363 . S
C1526 C1525 1.415 . S
C1527 H1503 0.951 . S
C1527 C1528 1.366 . S
C1527 C1529 1.388 . S
C1528 C1527 1.366 . S
C1528 C1532 1.385 . S
C1529 H1504 0.951 . S
C1529 C1527 1.388 . S
C1529 C1530 1.366 . S
C1530 C1529 1.366 . S
C1530 C1531 1.414 . S
C1530 C1533 1.499 . S
C1531 H1505 0.950 . S
C1531 C1530 1.414 . S
C1531 C1532 1.374 . S
C1532 H1506 0.950 . S
C1532 C1528 1.385 . S
C1532 C1531 1.374 . S
C1533 C1530 1.499 . S
C1533 C1534 1.373 . S
C1533 C1535 1.389 . S
C1534 H1507 0.950 . S
C1534 C1520 1.377 . S
C1534 C1533 1.373 . S
C1535 C1519 1.377 . S
C1535 C1533 1.389 . S
C1535 C1536 1.524 . S
C1536 C1535 1.524 . S
C1536 C1537 1.397 . S
C1536 C1541 1.363 . S
C1537 H1508 0.950 . S
C1537 C1536 1.397 . S
C1537 C1538 1.334 . S
C1538 H1509 0.950 . S
C1538 C1537 1.334 . S
C1538 C1539 1.287 . S
C1539 C1538 1.287 . S
C1539 C1540 1.524 . S
C1539 H1542 0.999 . S
C1540 H1510 0.950 . S
C1540 C1539 1.524 . S
C1540 C1541 1.415 . S
C1541 H1511 0.950 . S
C1541 C1536 1.363 . S
C1541 C1540 1.415 . S
H1542 C1539 0.999 . S
H1543 C1524 0.913 . S
H1544 C1562 0.951 . S
H1545 C1564 0.951 . S
H1546 C1566 0.950 . S
H1547 C1567 0.950 . S
H1548 C1569 0.950 . S
H1549 C1572 0.950 . S
H1550 C1573 0.950 . S
H1551 C1575 0.950 . S
H1552 C1576 0.950 . S
H1553 C1577 0.951 . S
H1554 C1579 0.951 . S
H1555 C1581 0.950 . S
H1556 C1582 0.950 . S
H1557 C1584 0.950 . S
H1558 C1587 0.950 . S
H1559 C1588 0.950 . S
H1560 C1590 0.950 . S
H1561 C1591 0.950 . S
C1562 H1544 0.951 . S
C1562 C1563 1.366 . S
C1562 C1564 1.388 . S
C1563 C1562 1.366 . S
C1563 C1567 1.385 . S
C1564 H1545 0.951 . S
C1564 C1562 1.388 . S
C1564 C1565 1.366 . S
C1565 C1564 1.366 . S
C1565 C1566 1.414 . S
C1565 C1568 1.499 . S
C1566 H1546 0.950 . S
C1566 C1565 1.414 . S
C1566 C1567 1.374 . S
C1567 H1547 0.950 . S
C1567 C1563 1.385 . S
C1567 C1566 1.374 . S
C1568 C1565 1.499 . S
C1568 C1569 1.373 . S
C1568 C1570 1.389 . S
C1569 H1548 0.950 . S
C1569 C1568 1.373 . S
C1569 C1585 1.377 . S
C1570 C1568 1.389 . S
C1570 C1571 1.524 . S
C1570 C1584 1.377 . S
C1571 C1570 1.524 . S
C1571 C1572 1.397 . S
C1571 C1576 1.363 . S
C1572 H1549 0.950 . S
C1572 C1571 1.397 . S
C1572 C1573 1.334 . S
C1573 H1550 0.950 . S
C1573 C1572 1.334 . S
C1573 C1574 1.287 . S
C1574 C1573 1.287 . S
C1574 C1575 1.524 . S
C1574 H1593 0.913 . S
C1575 H1551 0.950 . S
C1575 C1574 1.524 . S
C1575 C1576 1.415 . S
C1576 H1552 0.950 . S
C1576 C1571 1.363 . S
C1576 C1575 1.415 . S
C1577 H1553 0.951 . S
C1577 C1578 1.366 . S
C1577 C1579 1.388 . S
C1578 C1577 1.366 . S
C1578 C1582 1.385 . S
C1579 H1554 0.951 . S
C1579 C1577 1.388 . S
C1579 C1580 1.366 . S
C1580 C1579 1.366 . S
C1580 C1581 1.414 . S
C1580 C1583 1.499 . S
C1581 H1555 0.950 . S
C1581 C1580 1.414 . S
C1581 C1582 1.374 . S
C1582 H1556 0.950 . S
C1582 C1578 1.385 . S
C1582 C1581 1.374 . S
C1583 C1580 1.499 . S
C1583 C1584 1.373 . S
C1583 C1585 1.389 . S
C1584 H1557 0.950 . S
C1584 C1570 1.377 . S
C1584 C1583 1.373 . S
C1585 C1569 1.377 . S
C1585 C1583 1.389 . S
C1585 C1586 1.524 . S
C1586 C1585 1.524 . S
C1586 C1587 1.397 . S
C1586 C1591 1.363 . S
C1587 H1558 0.950 . S
C1587 C1586 1.397 . S
C1587 C1588 1.334 . S
C1588 H1559 0.950 . S
C1588 C1587 1.334 . S
C1588 C1589 1.287 . S
C1589 C1588 1.287 . S
C1589 C1590 1.524 . S
C1589 H1592 0.999 . S
C1590 H1560 0.950 . S
C1590 C1589 1.524 . S
C1590 C1591 1.415 . S
C1591 H1561 0.950 . S
C1591 C1586 1.363 . S
C1591 C1590 1.415 . S
H1592 C1589 0.999 . S
H1593 C1574 0.913 . S
H1594 C1612 0.951 . S
H1595 C1614 0.951 . S
H1596 C1616 0.950 . S
H1597 C1617 0.950 . S
H1598 C1619 0.950 . S
H1599 C1622 0.950 . S
H1600 C1623 0.950 . S
H1601 C1625 0.950 . S
H1602 C1626 0.950 . S
H1603 C1627 0.951 . S
H1604 C1629 0.951 . S
H1605 C1631 0.950 . S
H1606 C1632 0.950 . S
H1607 C1634 0.950 . S
H1608 C1637 0.950 . S
H1609 C1638 0.950 . S
H1610 C1640 0.950 . S
H1611 C1641 0.950 . S
C1612 H1594 0.951 . S
C1612 C1613 1.366 . S
C1612 C1614 1.388 . S
C1613 C1612 1.366 . S
C1613 C1617 1.385 . S
C1614 H1595 0.951 . S
C1614 C1612 1.388 . S
C1614 C1615 1.366 . S
C1615 C1614 1.366 . S
C1615 C1616 1.414 . S
C1615 C1618 1.499 . S
C1616 H1596 0.950 . S
C1616 C1615 1.414 . S
C1616 C1617 1.374 . S
C1617 H1597 0.950 . S
C1617 C1613 1.385 . S
C1617 C1616 1.374 . S
C1618 C1615 1.499 . S
C1618 C1619 1.373 . S
C1618 C1620 1.389 . S
C1619 H1598 0.950 . S
C1619 C1618 1.373 . S
C1619 C1635 1.377 . S
C1620 C1618 1.389 . S
C1620 C1621 1.524 . S
C1620 C1634 1.377 . S
C1621 C1620 1.524 . S
C1621 C1622 1.397 . S
C1621 C1626 1.363 . S
C1622 H1599 0.950 . S
C1622 C1621 1.397 . S
C1622 C1623 1.334 . S
C1623 H1600 0.950 . S
C1623 C1622 1.334 . S
C1623 C1624 1.287 . S
C1624 C1623 1.287 . S
C1624 C1625 1.524 . S
C1624 H1643 0.913 . S
C1625 H1601 0.950 . S
C1625 C1624 1.524 . S
C1625 C1626 1.415 . S
C1626 H1602 0.950 . S
C1626 C1621 1.363 . S
C1626 C1625 1.415 . S
C1627 H1603 0.951 . S
C1627 C1628 1.366 . S
C1627 C1629 1.388 . S
C1628 C1627 1.366 . S
C1628 C1632 1.385 . S
C1629 H1604 0.951 . S
C1629 C1627 1.388 . S
C1629 C1630 1.366 . S
C1630 C1629 1.366 . S
C1630 C1631 1.414 . S
C1630 C1633 1.499 . S
C1631 H1605 0.950 . S
C1631 C1630 1.414 . S
C1631 C1632 1.374 . S
C1632 H1606 0.950 . S
C1632 C1628 1.385 . S
C1632 C1631 1.374 . S
C1633 C1630 1.499 . S
C1633 C1634 1.373 . S
C1633 C1635 1.389 . S
C1634 H1607 0.950 . S
C1634 C1620 1.377 . S
C1634 C1633 1.373 . S
C1635 C1619 1.377 . S
C1635 C1633 1.389 . S
C1635 C1636 1.524 . S
C1636 C1635 1.524 . S
C1636 C1637 1.397 . S
C1636 C1641 1.363 . S
C1637 H1608 0.950 . S
C1637 C1636 1.397 . S
C1637 C1638 1.334 . S
C1638 H1609 0.950 . S
C1638 C1637 1.334 . S
C1638 C1639 1.287 . S
C1639 C1638 1.287 . S
C1639 C1640 1.524 . S
C1639 H1642 0.999 . S
C1640 H1610 0.950 . S
C1640 C1639 1.524 . S
C1640 C1641 1.415 . S
C1641 H1611 0.950 . S
C1641 C1636 1.363 . S
C1641 C1640 1.415 . S
H1642 C1639 0.999 . S
H1643 C1624 0.913 . S
H1644 C1662 0.951 . S
H1645 C1664 0.951 . S
H1646 C1666 0.950 . S
H1647 C1667 0.950 . S
H1648 C1669 0.950 . S
H1649 C1672 0.950 . S
H1650 C1673 0.950 . S
H1651 C1675 0.950 . S
H1652 C1676 0.950 . S
H1653 C1677 0.951 . S
H1654 C1679 0.951 . S
H1655 C1681 0.950 . S
H1656 C1682 0.950 . S
H1657 C1684 0.950 . S
H1658 C1687 0.950 . S
H1659 C1688 0.950 . S
H1660 C1690 0.950 . S
H1661 C1691 0.950 . S
C1662 H1644 0.951 . S
C1662 C1663 1.366 . S
C1662 C1664 1.388 . S
C1663 C1662 1.366 . S
C1663 C1667 1.385 . S
C1664 H1645 0.951 . S
C1664 C1662 1.388 . S
C1664 C1665 1.366 . S
C1665 C1664 1.366 . S
C1665 C1666 1.414 . S
C1665 C1668 1.499 . S
C1666 H1646 0.950 . S
C1666 C1665 1.414 . S
C1666 C1667 1.374 . S
C1667 H1647 0.950 . S
C1667 C1663 1.385 . S
C1667 C1666 1.374 . S
C1668 C1665 1.499 . S
C1668 C1669 1.373 . S
C1668 C1670 1.389 . S
C1669 H1648 0.950 . S
C1669 C1668 1.373 . S
C1669 C1685 1.377 . S
C1670 C1668 1.389 . S
C1670 C1671 1.524 . S
C1670 C1684 1.377 . S
C1671 C1670 1.524 . S
C1671 C1672 1.397 . S
C1671 C1676 1.363 . S
C1672 H1649 0.950 . S
C1672 C1671 1.397 . S
C1672 C1673 1.334 . S
C1673 H1650 0.950 . S
C1673 C1672 1.334 . S
C1673 C1674 1.287 . S
C1674 C1673 1.287 . S
C1674 C1675 1.524 . S
C1674 H1693 0.913 . S
C1675 H1651 0.950 . S
C1675 C1674 1.524 . S
C1675 C1676 1.415 . S
C1676 H1652 0.950 . S
C1676 C1671 1.363 . S
C1676 C1675 1.415 . S
C1677 H1653 0.951 . S
C1677 C1678 1.366 . S
C1677 C1679 1.388 . S
C1678 C1677 1.366 . S
C1678 C1682 1.385 . S
C1679 H1654 0.951 . S
C1679 C1677 1.388 . S
C1679 C1680 1.366 . S
C1680 C1679 1.366 . S
C1680 C1681 1.414 . S
C1680 C1683 1.499 . S
C1681 H1655 0.950 . S
C1681 C1680 1.414 . S
C1681 C1682 1.374 . S
C1682 H1656 0.950 . S
C1682 C1678 1.385 . S
C1682 C1681 1.374 . S
C1683 C1680 1.499 . S
C1683 C1684 1.373 . S
C1683 C1685 1.389 . S
C1684 H1657 0.950 . S
C1684 C1670 1.377 . S
C1684 C1683 1.373 . S
C1685 C1669 1.377 . S
C1685 C1683 1.389 . S
C1685 C1686 1.524 . S
C1686 C1685 1.524 . S
C1686 C1687 1.397 . S
C1686 C1691 1.363 . S
C1687 H1658 0.950 . S
C1687 C1686 1.397 . S
C1687 C1688 1.334 . S
C1688 H1659 0.950 . S
C1688 C1687 1.334 . S
C1688 C1689 1.287 . S
C1689 C1688 1.287 . S
C1689 C1690 1.524 . S
C1689 H1692 0.999 . S
C1690 H1660 0.950 . S
C1690 C1689 1.524 . S
C1690 C1691 1.415 . S
C1691 H1661 0.950 . S
C1691 C1686 1.363 . S
C1691 C1690 1.415 . S
H1692 C1689 0.999 . S
H1693 C1674 0.913 . S
H1694 C1712 0.951 . S
H1695 C1714 0.951 . S
H1696 C1716 0.950 . S
H1697 C1717 0.950 . S
H1698 C1719 0.950 . S
H1699 C1722 0.950 . S
H1700 C1723 0.950 . S
H1701 C1725 0.950 . S
H1702 C1726 0.950 . S
H1703 C1727 0.951 . S
H1704 C1729 0.951 . S
H1705 C1731 0.950 . S
H1706 C1732 0.950 . S
H1707 C1734 0.950 . S
H1708 C1737 0.950 . S
H1709 C1738 0.950 . S
H1710 C1740 0.950 . S
H1711 C1741 0.950 . S
C1712 H1694 0.951 . S
C1712 C1713 1.366 . S
C1712 C1714 1.388 . S
C1713 C1712 1.366 . S
C1713 C1717 1.385 . S
C1714 H1695 0.951 . S
C1714 C1712 1.388 . S
C1714 C1715 1.366 . S
C1715 C1714 1.366 . S
C1715 C1716 1.414 . S
C1715 C1718 1.499 . S
C1716 H1696 0.950 . S
C1716 C1715 1.414 . S
C1716 C1717 1.374 . S
C1717 H1697 0.950 . S
C1717 C1713 1.385 . S
C1717 C1716 1.374 . S
C1718 C1715 1.499 . S
C1718 C1719 1.373 . S
C1718 C1720 1.389 . S
C1719 H1698 0.950 . S
C1719 C1718 1.373 . S
C1719 C1735 1.377 . S
C1720 C1718 1.389 . S
C1720 C1721 1.524 . S
C1720 C1734 1.377 . S
C1721 C1720 1.524 . S
C1721 C1722 1.397 . S
C1721 C1726 1.363 . S
C1722 H1699 0.950 . S
C1722 C1721 1.397 . S
C1722 C1723 1.334 . S
C1723 H1700 0.950 . S
C1723 C1722 1.334 . S
C1723 C1724 1.287 . S
C1724 C1723 1.287 . S
C1724 C1725 1.524 . S
C1724 H1743 0.913 . S
C1725 H1701 0.950 . S
C1725 C1724 1.524 . S
C1725 C1726 1.415 . S
C1726 H1702 0.950 . S
C1726 C1721 1.363 . S
C1726 C1725 1.415 . S
C1727 H1703 0.951 . S
C1727 C1728 1.366 . S
C1727 C1729 1.388 . S
C1728 C1727 1.366 . S
C1728 C1732 1.385 . S
C1729 H1704 0.951 . S
C1729 C1727 1.388 . S
C1729 C1730 1.366 . S
C1730 C1729 1.366 . S
C1730 C1731 1.414 . S
C1730 C1733 1.499 . S
C1731 H1705 0.950 . S
C1731 C1730 1.414 . S
C1731 C1732 1.374 . S
C1732 H1706 0.950 . S
C1732 C1728 1.385 . S
C1732 C1731 1.374 . S
C1733 C1730 1.499 . S
C1733 C1734 1.373 . S
C1733 C1735 1.389 . S
C1734 H1707 0.950 . S
C1734 C1720 1.377 . S
C1734 C1733 1.373 . S
C1735 C1719 1.377 . S
C1735 C1733 1.389 . S
C1735 C1736 1.524 . S
C1736 C1735 1.524 . S
C1736 C1737 1.397 . S
C1736 C1741 1.363 . S
C1737 H1708 0.950 . S
C1737 C1736 1.397 . S
C1737 C1738 1.334 . S
C1738 H1709 0.950 . S
C1738 C1737 1.334 . S
C1738 C1739 1.287 . S
C1739 C1738 1.287 . S
C1739 C1740 1.524 . S
C1739 H1742 0.999 . S
C1740 H1710 0.950 . S
C1740 C1739 1.524 . S
C1740 C1741 1.415 . S
C1741 H1711 0.950 . S
C1741 C1736 1.363 . S
C1741 C1740 1.415 . S
H1742 C1739 0.999 . S
H1743 C1724 0.913 . S
H1744 C1762 0.951 . S
H1745 C1764 0.951 . S
H1746 C1766 0.950 . S
H1747 C1767 0.950 1_655 S
H1748 C1769 0.950 . S
H1749 C1772 0.950 . S
H1750 C1773 0.950 . S
H1751 C1775 0.950 . S
H1752 C1776 0.950 . S
H1753 C1777 0.951 . S
H1754 C1779 0.951 . S
H1755 C1781 0.950 . S
H1756 C1782 0.950 . S
H1757 C1784 0.950 . S
H1758 C1787 0.950 . S
H1759 C1788 0.950 . S
H1760 C1790 0.950 1_545 S
H1761 C1791 0.950 . S
C1762 H1744 0.951 . S
C1762 C1763 1.366 . S
C1762 C1764 1.388 . S
C1763 C1762 1.366 . S
C1763 C1767 1.385 . S
C1764 H1745 0.951 . S
C1764 C1762 1.388 . S
C1764 C1765 1.366 . S
C1765 C1764 1.366 . S
C1765 C1766 1.414 . S
C1765 C1768 1.499 . S
C1766 H1746 0.950 . S
C1766 C1765 1.414 . S
C1766 C1767 1.374 . S
C1767 H1747 0.950 1_455 S
C1767 C1763 1.385 . S
C1767 C1766 1.374 . S
C1768 C1765 1.499 . S
C1768 C1769 1.373 . S
C1768 C1770 1.389 . S
C1769 H1748 0.950 . S
C1769 C1768 1.373 . S
C1769 C1785 1.377 . S
C1770 C1768 1.389 . S
C1770 C1771 1.524 . S
C1770 C1784 1.377 . S
C1771 C1770 1.524 . S
C1771 C1772 1.397 . S
C1771 C1776 1.363 . S
C1772 H1749 0.950 . S
C1772 C1771 1.397 . S
C1772 C1773 1.334 . S
C1773 H1750 0.950 . S
C1773 C1772 1.334 . S
C1773 C1774 1.287 . S
C1774 C1773 1.287 . S
C1774 C1775 1.524 . S
C1774 H1793 0.913 . S
C1775 H1751 0.950 . S
C1775 C1774 1.524 . S
C1775 C1776 1.415 . S
C1776 H1752 0.950 . S
C1776 C1771 1.363 . S
C1776 C1775 1.415 . S
C1777 H1753 0.951 . S
C1777 C1778 1.366 . S
C1777 C1779 1.388 . S
C1778 C1777 1.366 . S
C1778 C1782 1.385 . S
C1779 H1754 0.951 . S
C1779 C1777 1.388 . S
C1779 C1780 1.366 . S
C1780 C1779 1.366 . S
C1780 C1781 1.414 . S
C1780 C1783 1.499 . S
C1781 H1755 0.950 . S
C1781 C1780 1.414 . S
C1781 C1782 1.374 . S
C1782 H1756 0.950 . S
C1782 C1778 1.385 . S
C1782 C1781 1.374 . S
C1783 C1780 1.499 . S
C1783 C1784 1.373 . S
C1783 C1785 1.389 . S
C1784 H1757 0.950 . S
C1784 C1770 1.377 . S
C1784 C1783 1.373 . S
C1785 C1769 1.377 . S
C1785 C1783 1.389 . S
C1785 C1786 1.524 . S
C1786 C1785 1.524 . S
C1786 C1787 1.397 . S
C1786 C1791 1.363 . S
C1787 H1758 0.950 . S
C1787 C1786 1.397 . S
C1787 C1788 1.334 1_565 S
C1788 H1759 0.950 . S
C1788 C1787 1.334 1_545 S
C1788 C1789 1.287 . S
C1789 C1788 1.287 . S
C1789 C1790 1.524 1_545 S
C1789 H1792 0.999 . S
C1790 H1760 0.950 1_565 S
C1790 C1789 1.524 1_565 S
C1790 C1791 1.415 . S
C1791 H1761 0.950 . S
C1791 C1786 1.363 . S
C1791 C1790 1.415 . S
H1792 C1789 0.999 . S
H1793 C1774 0.913 . S
H1794 C1812 0.951 . S
H1795 C1814 0.951 . S
H1796 C1816 0.950 . S
H1797 C1817 0.950 . S
H1798 C1819 0.950 . S
H1799 C1822 0.950 . S
H1800 C1823 0.950 . S
H1801 C1825 0.950 . S
H1802 C1826 0.950 . S
H1803 C1827 0.951 . S
H1804 C1829 0.951 . S
H1805 C1831 0.950 . S
H1806 C1832 0.950 . S
H1807 C1834 0.950 . S
H1808 C1837 0.950 . S
H1809 C1838 0.950 . S
H1810 C1840 0.950 . S
H1811 C1841 0.950 . S
C1812 H1794 0.951 . S
C1812 C1813 1.366 . S
C1812 C1814 1.388 . S
C1813 C1812 1.366 . S
C1813 C1817 1.385 . S
C1814 H1795 0.951 . S
C1814 C1812 1.388 . S
C1814 C1815 1.366 . S
C1815 C1814 1.366 . S
C1815 C1816 1.414 . S
C1815 C1818 1.499 . S
C1816 H1796 0.950 . S
C1816 C1815 1.414 . S
C1816 C1817 1.374 . S
C1817 H1797 0.950 . S
C1817 C1813 1.385 . S
C1817 C1816 1.374 . S
C1818 C1815 1.499 . S
C1818 C1819 1.373 . S
C1818 C1820 1.389 . S
C1819 H1798 0.950 . S
C1819 C1818 1.373 . S
C1819 C1835 1.377 . S
C1820 C1818 1.389 . S
C1820 C1821 1.524 . S
C1820 C1834 1.377 . S
C1821 C1820 1.524 . S
C1821 C1822 1.397 . S
C1821 C1826 1.363 . S
C1822 H1799 0.950 . S
C1822 C1821 1.397 . S
C1822 C1823 1.334 1_545 S
C1823 H1800 0.950 . S
C1823 C1822 1.334 1_565 S
C1823 C1824 1.287 . S
C1824 C1823 1.287 . S
C1824 C1825 1.524 . S
C1824 H1843 0.913 . S
C1825 H1801 0.950 . S
C1825 C1824 1.524 . S
C1825 C1826 1.415 1_565 S
C1826 H1802 0.950 . S
C1826 C1821 1.363 . S
C1826 C1825 1.415 1_545 S
C1827 H1803 0.951 . S
C1827 C1828 1.366 . S
C1827 C1829 1.388 . S
C1828 C1827 1.366 . S
C1828 C1832 1.385 . S
C1829 H1804 0.951 . S
C1829 C1827 1.388 . S
C1829 C1830 1.366 . S
C1830 C1829 1.366 . S
C1830 C1831 1.414 . S
C1830 C1833 1.499 . S
C1831 H1805 0.950 . S
C1831 C1830 1.414 . S
C1831 C1832 1.374 . S
C1832 H1806 0.950 . S
C1832 C1828 1.385 . S
C1832 C1831 1.374 . S
C1833 C1830 1.499 . S
C1833 C1834 1.373 . S
C1833 C1835 1.389 . S
C1834 H1807 0.950 . S
C1834 C1820 1.377 . S
C1834 C1833 1.373 . S
C1835 C1819 1.377 . S
C1835 C1833 1.389 . S
C1835 C1836 1.524 . S
C1836 C1835 1.524 . S
C1836 C1837 1.397 . S
C1836 C1841 1.363 . S
C1837 H1808 0.950 . S
C1837 C1836 1.397 . S
C1837 C1838 1.334 . S
C1838 H1809 0.950 . S
C1838 C1837 1.334 . S
C1838 C1839 1.287 . S
C1839 C1838 1.287 . S
C1839 C1840 1.524 . S
C1839 H1842 0.999 . S
C1840 H1810 0.950 . S
C1840 C1839 1.524 . S
C1840 C1841 1.415 . S
C1841 H1811 0.950 . S
C1841 C1836 1.363 . S
C1841 C1840 1.415 . S
H1842 C1839 0.999 . S
H1843 C1824 0.913 . S
H1844 C1862 0.951 . S
H1845 C1864 0.951 . S
H1846 C1866 0.950 . S
H1847 C1867 0.950 . S
H1848 C1869 0.950 . S
H1849 C1872 0.950 . S
H1850 C1873 0.950 . S
H1851 C1875 0.950 . S
H1852 C1876 0.950 . S
H1853 C1877 0.951 . S
H1854 C1879 0.951 . S
H1855 C1881 0.950 . S
H1856 C1882 0.950 . S
H1857 C1884 0.950 . S
H1858 C1887 0.950 . S
H1859 C1888 0.950 . S
H1860 C1890 0.950 . S
H1861 C1891 0.950 . S
C1862 H1844 0.951 . S
C1862 C1863 1.366 . S
C1862 C1864 1.388 . S
C1863 C1862 1.366 . S
C1863 C1867 1.385 . S
C1864 H1845 0.951 . S
C1864 C1862 1.388 . S
C1864 C1865 1.366 . S
C1865 C1864 1.366 . S
C1865 C1866 1.414 . S
C1865 C1868 1.499 . S
C1866 H1846 0.950 . S
C1866 C1865 1.414 . S
C1866 C1867 1.374 . S
C1867 H1847 0.950 . S
C1867 C1863 1.385 . S
C1867 C1866 1.374 . S
C1868 C1865 1.499 . S
C1868 C1869 1.373 . S
C1868 C1870 1.389 . S
C1869 H1848 0.950 . S
C1869 C1868 1.373 . S
C1869 C1885 1.377 . S
C1870 C1868 1.389 . S
C1870 C1871 1.524 . S
C1870 C1884 1.377 . S
C1871 C1870 1.524 . S
C1871 C1872 1.397 . S
C1871 C1876 1.363 . S
C1872 H1849 0.950 . S
C1872 C1871 1.397 . S
C1872 C1873 1.334 . S
C1873 H1850 0.950 . S
C1873 C1872 1.334 . S
C1873 C1874 1.287 . S
C1874 C1873 1.287 . S
C1874 C1875 1.524 . S
C1874 H1893 0.913 . S
C1875 H1851 0.950 . S
C1875 C1874 1.524 . S
C1875 C1876 1.415 . S
C1876 H1852 0.950 . S
C1876 C1871 1.363 . S
C1876 C1875 1.415 . S
C1877 H1853 0.951 . S
C1877 C1878 1.366 . S
C1877 C1879 1.388 . S
C1878 C1877 1.366 . S
C1878 C1882 1.385 . S
C1879 H1854 0.951 . S
C1879 C1877 1.388 . S
C1879 C1880 1.366 . S
C1880 C1879 1.366 . S
C1880 C1881 1.414 . S
C1880 C1883 1.499 . S
C1881 H1855 0.950 . S
C1881 C1880 1.414 . S
C1881 C1882 1.374 . S
C1882 H1856 0.950 . S
C1882 C1878 1.385 . S
C1882 C1881 1.374 . S
C1883 C1880 1.499 . S
C1883 C1884 1.373 . S
C1883 C1885 1.389 . S
C1884 H1857 0.950 . S
C1884 C1870 1.377 . S
C1884 C1883 1.373 . S
C1885 C1869 1.377 . S
C1885 C1883 1.389 . S
C1885 C1886 1.524 . S
C1886 C1885 1.524 . S
C1886 C1887 1.397 . S
C1886 C1891 1.363 . S
C1887 H1858 0.950 . S
C1887 C1886 1.397 . S
C1887 C1888 1.334 . S
C1888 H1859 0.950 . S
C1888 C1887 1.334 . S
C1888 C1889 1.287 . S
C1889 C1888 1.287 . S
C1889 C1890 1.524 . S
C1889 H1892 0.999 . S
C1890 H1860 0.950 . S
C1890 C1889 1.524 . S
C1890 C1891 1.415 . S
C1891 H1861 0.950 . S
C1891 C1886 1.363 . S
C1891 C1890 1.415 . S
H1892 C1889 0.999 . S
H1893 C1874 0.913 . S
H1894 C1912 0.951 . S
H1895 C1914 0.951 . S
H1896 C1916 0.950 . S
H1897 C1917 0.950 . S
H1898 C1919 0.950 . S
H1899 C1922 0.950 . S
H1900 C1923 0.950 . S
H1901 C1925 0.950 . S
H1902 C1926 0.950 . S
H1903 C1927 0.951 . S
H1904 C1929 0.951 . S
H1905 C1931 0.950 . S
H1906 C1932 0.950 . S
H1907 C1934 0.950 . S
H1908 C1937 0.950 . S
H1909 C1938 0.950 . S
H1910 C1940 0.950 . S
H1911 C1941 0.950 . S
C1912 H1894 0.951 . S
C1912 C1913 1.366 . S
C1912 C1914 1.388 . S
C1913 C1912 1.366 . S
C1913 C1917 1.385 . S
C1914 H1895 0.951 . S
C1914 C1912 1.388 . S
C1914 C1915 1.366 . S
C1915 C1914 1.366 . S
C1915 C1916 1.414 . S
C1915 C1918 1.499 . S
C1916 H1896 0.950 . S
C1916 C1915 1.414 . S
C1916 C1917 1.374 . S
C1917 H1897 0.950 . S
C1917 C1913 1.385 . S
C1917 C1916 1.374 . S
C1918 C1915 1.499 . S
C1918 C1919 1.373 . S
C1918 C1920 1.389 . S
C1919 H1898 0.950 . S
C1919 C1918 1.373 . S
C1919 C1935 1.377 . S
C1920 C1918 1.389 . S
C1920 C1921 1.524 . S
C1920 C1934 1.377 . S
C1921 C1920 1.524 . S
C1921 C1922 1.397 . S
C1921 C1926 1.363 . S
C1922 H1899 0.950 . S
C1922 C1921 1.397 . S
C1922 C1923 1.334 . S
C1923 H1900 0.950 . S
C1923 C1922 1.334 . S
C1923 C1924 1.287 . S
C1924 C1923 1.287 . S
C1924 C1925 1.524 . S
C1924 H1943 0.913 . S
C1925 H1901 0.950 . S
C1925 C1924 1.524 . S
C1925 C1926 1.415 . S
C1926 H1902 0.950 . S
C1926 C1921 1.363 . S
C1926 C1925 1.415 . S
C1927 H1903 0.951 . S
C1927 C1928 1.366 . S
C1927 C1929 1.388 . S
C1928 C1927 1.366 . S
C1928 C1932 1.385 . S
C1929 H1904 0.951 . S
C1929 C1927 1.388 . S
C1929 C1930 1.366 . S
C1930 C1929 1.366 . S
C1930 C1931 1.414 . S
C1930 C1933 1.499 . S
C1931 H1905 0.950 . S
C1931 C1930 1.414 . S
C1931 C1932 1.374 . S
C1932 H1906 0.950 . S
C1932 C1928 1.385 . S
C1932 C1931 1.374 . S
C1933 C1930 1.499 . S
C1933 C1934 1.373 . S
C1933 C1935 1.389 . S
C1934 H1907 0.950 . S
C1934 C1920 1.377 . S
C1934 C1933 1.373 . S
C1935 C1919 1.377 . S
C1935 C1933 1.389 . S
C1935 C1936 1.524 . S
C1936 C1935 1.524 . S
C1936 C1937 1.397 . S
C1936 C1941 1.363 . S
C1937 H1908 0.950 . S
C1937 C1936 1.397 . S
C1937 C1938 1.334 . S
C1938 H1909 0.950 . S
C1938 C1937 1.334 . S
C1938 C1939 1.287 . S
C1939 C1938 1.287 . S
C1939 C1940 1.524 . S
C1939 H1942 0.999 . S
C1940 H1910 0.950 . S
C1940 C1939 1.524 . S
C1940 C1941 1.415 . S
C1941 H1911 0.950 . S
C1941 C1936 1.363 . S
C1941 C1940 1.415 . S
H1942 C1939 0.999 . S
H1943 C1924 0.913 . S
H1944 C1962 0.951 . S
H1945 C1964 0.951 . S
H1946 C1966 0.950 . S
H1947 C1967 0.950 . S
H1948 C1969 0.950 . S
H1949 C1972 0.950 . S
H1950 C1973 0.950 . S
H1951 C1975 0.950 . S
H1952 C1976 0.950 . S
H1953 C1977 0.951 . S
H1954 C1979 0.951 . S
H1955 C1981 0.950 . S
H1956 C1982 0.950 . S
H1957 C1984 0.950 . S
H1958 C1987 0.950 . S
H1959 C1988 0.950 . S
H1960 C1990 0.950 . S
H1961 C1991 0.950 . S
C1962 H1944 0.951 . S
C1962 C1963 1.366 . S
C1962 C1964 1.388 . S
C1963 C1962 1.366 . S
C1963 C1967 1.385 . S
C1964 H1945 0.951 . S
C1964 C1962 1.388 . S
C1964 C1965 1.366 . S
C1965 C1964 1.366 . S
C1965 C1966 1.414 . S
C1965 C1968 1.499 . S
C1966 H1946 0.950 . S
C1966 C1965 1.414 . S
C1966 C1967 1.374 . S
C1967 H1947 0.950 . S
C1967 C1963 1.385 . S
C1967 C1966 1.374 . S
C1968 C1965 1.499 . S
C1968 C1969 1.373 . S
C1968 C1970 1.389 . S
C1969 H1948 0.950 . S
C1969 C1968 1.373 . S
C1969 C1985 1.377 . S
C1970 C1968 1.389 . S
C1970 C1971 1.524 . S
C1970 C1984 1.377 . S
C1971 C1970 1.524 . S
C1971 C1972 1.397 . S
C1971 C1976 1.363 . S
C1972 H1949 0.950 . S
C1972 C1971 1.397 . S
C1972 C1973 1.334 . S
C1973 H1950 0.950 . S
C1973 C1972 1.334 . S
C1973 C1974 1.287 . S
C1974 C1973 1.287 . S
C1974 C1975 1.524 . S
C1974 H1993 0.913 . S
C1975 H1951 0.950 . S
C1975 C1974 1.524 . S
C1975 C1976 1.415 . S
C1976 H1952 0.950 . S
C1976 C1971 1.363 . S
C1976 C1975 1.415 . S
C1977 H1953 0.951 . S
C1977 C1978 1.366 . S
C1977 C1979 1.388 . S
C1978 C1977 1.366 . S
C1978 C1982 1.385 . S
C1979 H1954 0.951 . S
C1979 C1977 1.388 . S
C1979 C1980 1.366 . S
C1980 C1979 1.366 . S
C1980 C1981 1.414 . S
C1980 C1983 1.499 . S
C1981 H1955 0.950 . S
C1981 C1980 1.414 . S
C1981 C1982 1.374 . S
C1982 H1956 0.950 . S
C1982 C1978 1.385 . S
C1982 C1981 1.374 . S
C1983 C1980 1.499 . S
C1983 C1984 1.373 . S
C1983 C1985 1.389 . S
C1984 H1957 0.950 . S
C1984 C1970 1.377 . S
C1984 C1983 1.373 . S
C1985 C1969 1.377 . S
C1985 C1983 1.389 . S
C1985 C1986 1.524 . S
C1986 C1985 1.524 . S
C1986 C1987 1.397 . S
C1986 C1991 1.363 . S
C1987 H1958 0.950 . S
C1987 C1986 1.397 . S
C1987 C1988 1.334 . S
C1988 H1959 0.950 . S
C1988 C1987 1.334 . S
C1988 C1989 1.287 . S
C1989 C1988 1.287 . S
C1989 C1990 1.524 . S
C1989 H1992 0.999 . S
C1990 H1960 0.950 . S
C1990 C1989 1.524 . S
C1990 C1991 1.415 . S
C1991 H1961 0.950 . S
C1991 C1986 1.363 . S
C1991 C1990 1.415 . S
H1992 C1989 0.999 . S
H1993 C1974 0.913 . S
H1994 C2012 0.951 . S
H1995 C2014 0.951 . S
H1996 C2016 0.950 . S
H1997 C2017 0.950 . S
H1998 C2019 0.950 . S
H1999 C2022 0.950 . S
H2000 C2023 0.950 . S
H2001 C2025 0.950 . S
H2002 C2026 0.950 . S
H2003 C2027 0.951 . S
H2004 C2029 0.951 . S
H2005 C2031 0.950 . S
H2006 C2032 0.950 . S
H2007 C2034 0.950 . S
H2008 C2037 0.950 . S
H2009 C2038 0.950 . S
H2010 C2040 0.950 . S
H2011 C2041 0.950 . S
C2012 H1994 0.951 . S
C2012 C2013 1.366 . S
C2012 C2014 1.388 . S
C2013 C2012 1.366 . S
C2013 C2017 1.385 . S
C2014 H1995 0.951 . S
C2014 C2012 1.388 . S
C2014 C2015 1.366 . S
C2015 C2014 1.366 . S
C2015 C2016 1.414 . S
C2015 C2018 1.499 . S
C2016 H1996 0.950 . S
C2016 C2015 1.414 . S
C2016 C2017 1.374 . S
C2017 H1997 0.950 . S
C2017 C2013 1.385 . S
C2017 C2016 1.374 . S
C2018 C2015 1.499 . S
C2018 C2019 1.373 . S
C2018 C2020 1.389 . S
C2019 H1998 0.950 . S
C2019 C2018 1.373 . S
C2019 C2035 1.377 . S
C2020 C2018 1.389 . S
C2020 C2021 1.524 . S
C2020 C2034 1.377 . S
C2021 C2020 1.524 . S
C2021 C2022 1.397 . S
C2021 C2026 1.363 . S
C2022 H1999 0.950 . S
C2022 C2021 1.397 . S
C2022 C2023 1.334 . S
C2023 H2000 0.950 . S
C2023 C2022 1.334 . S
C2023 C2024 1.287 . S
C2024 C2023 1.287 . S
C2024 C2025 1.524 . S
C2024 H2043 0.913 . S
C2025 H2001 0.950 . S
C2025 C2024 1.524 . S
C2025 C2026 1.415 . S
C2026 H2002 0.950 . S
C2026 C2021 1.363 . S
C2026 C2025 1.415 . S
C2027 H2003 0.951 . S
C2027 C2028 1.366 . S
C2027 C2029 1.388 . S
C2028 C2027 1.366 . S
C2028 C2032 1.385 . S
C2029 H2004 0.951 . S
C2029 C2027 1.388 . S
C2029 C2030 1.366 . S
C2030 C2029 1.366 . S
C2030 C2031 1.414 . S
C2030 C2033 1.499 . S
C2031 H2005 0.950 . S
C2031 C2030 1.414 . S
C2031 C2032 1.374 . S
C2032 H2006 0.950 . S
C2032 C2028 1.385 . S
C2032 C2031 1.374 . S
C2033 C2030 1.499 . S
C2033 C2034 1.373 . S
C2033 C2035 1.389 . S
C2034 H2007 0.950 . S
C2034 C2020 1.377 . S
C2034 C2033 1.373 . S
C2035 C2019 1.377 . S
C2035 C2033 1.389 . S
C2035 C2036 1.524 . S
C2036 C2035 1.524 . S
C2036 C2037 1.397 . S
C2036 C2041 1.363 . S
C2037 H2008 0.950 . S
C2037 C2036 1.397 . S
C2037 C2038 1.334 . S
C2038 H2009 0.950 . S
C2038 C2037 1.334 . S
C2038 C2039 1.287 . S
C2039 C2038 1.287 . S
C2039 C2040 1.524 . S
C2039 H2042 0.999 . S
C2040 H2010 0.950 . S
C2040 C2039 1.524 . S
C2040 C2041 1.415 . S
C2041 H2011 0.950 . S
C2041 C2036 1.363 . S
C2041 C2040 1.415 . S
H2042 C2039 0.999 . S
H2043 C2024 0.913 . S
H2044 C2062 0.951 . S
H2045 C2064 0.951 . S
H2046 C2066 0.950 . S
H2047 C2067 0.950 . S
H2048 C2069 0.950 . S
H2049 C2072 0.950 . S
H2050 C2073 0.950 . S
H2051 C2075 0.950 . S
H2052 C2076 0.950 . S
H2053 C2077 0.951 . S
H2054 C2079 0.951 . S
H2055 C2081 0.950 . S
H2056 C2082 0.950 . S
H2057 C2084 0.950 . S
H2058 C2087 0.950 . S
H2059 C2088 0.950 . S
H2060 C2090 0.950 . S
H2061 C2091 0.950 . S
C2062 H2044 0.951 . S
C2062 C2063 1.366 . S
C2062 C2064 1.388 . S
C2063 C2062 1.366 . S
C2063 C2067 1.385 . S
C2064 H2045 0.951 . S
C2064 C2062 1.388 . S
C2064 C2065 1.366 . S
C2065 C2064 1.366 . S
C2065 C2066 1.414 . S
C2065 C2068 1.499 . S
C2066 H2046 0.950 . S
C2066 C2065 1.414 . S
C2066 C2067 1.374 . S
C2067 H2047 0.950 . S
C2067 C2063 1.385 . S
C2067 C2066 1.374 . S
C2068 C2065 1.499 . S
C2068 C2069 1.373 . S
C2068 C2070 1.389 . S
C2069 H2048 0.950 . S
C2069 C2068 1.373 . S
C2069 C2085 1.377 . S
C2070 C2068 1.389 . S
C2070 C2071 1.524 . S
C2070 C2084 1.377 . S
C2071 C2070 1.524 . S
C2071 C2072 1.397 . S
C2071 C2076 1.363 . S
C2072 H2049 0.950 . S
C2072 C2071 1.397 . S
C2072 C2073 1.334 . S
C2073 H2050 0.950 . S
C2073 C2072 1.334 . S
C2073 C2074 1.287 . S
C2074 C2073 1.287 . S
C2074 C2075 1.524 . S
C2074 H2093 0.913 . S
C2075 H2051 0.950 . S
C2075 C2074 1.524 . S
C2075 C2076 1.415 . S
C2076 H2052 0.950 . S
C2076 C2071 1.363 . S
C2076 C2075 1.415 . S
C2077 H2053 0.951 . S
C2077 C2078 1.366 . S
C2077 C2079 1.388 . S
C2078 C2077 1.366 . S
C2078 C2082 1.385 . S
C2079 H2054 0.951 . S
C2079 C2077 1.388 . S
C2079 C2080 1.366 . S
C2080 C2079 1.366 . S
C2080 C2081 1.414 . S
C2080 C2083 1.499 . S
C2081 H2055 0.950 . S
C2081 C2080 1.414 . S
C2081 C2082 1.374 . S
C2082 H2056 0.950 . S
C2082 C2078 1.385 . S
C2082 C2081 1.374 . S
C2083 C2080 1.499 . S
C2083 C2084 1.373 . S
C2083 C2085 1.389 . S
C2084 H2057 0.950 . S
C2084 C2070 1.377 . S
C2084 C2083 1.373 . S
C2085 C2069 1.377 . S
C2085 C2083 1.389 . S
C2085 C2086 1.524 . S
C2086 C2085 1.524 . S
C2086 C2087 1.397 . S
C2086 C2091 1.363 . S
C2087 H2058 0.950 . S
C2087 C2086 1.397 . S
C2087 C2088 1.334 . S
C2088 H2059 0.950 . S
C2088 C2087 1.334 . S
C2088 C2089 1.287 . S
C2089 C2088 1.287 . S
C2089 C2090 1.524 . S
C2089 H2092 0.999 . S
C2090 H2060 0.950 . S
C2090 C2089 1.524 . S
C2090 C2091 1.415 . S
C2091 H2061 0.950 . S
C2091 C2086 1.363 . S
C2091 C2090 1.415 . S
H2092 C2089 0.999 . S
H2093 C2074 0.913 . S
H2094 C2112 0.951 . S
H2095 C2114 0.951 . S
H2096 C2116 0.950 . S
H2097 C2117 0.950 1_655 S
H2098 C2119 0.950 . S
H2099 C2122 0.950 . S
H2100 C2123 0.950 . S
H2101 C2125 0.950 . S
H2102 C2126 0.950 . S
H2103 C2127 0.951 . S
H2104 C2129 0.951 . S
H2105 C2131 0.950 . S
H2106 C2132 0.950 . S
H2107 C2134 0.950 . S
H2108 C2137 0.950 . S
H2109 C2138 0.950 . S
H2110 C2140 0.950 . S
H2111 C2141 0.950 . S
C2112 H2094 0.951 . S
C2112 C2113 1.366 . S
C2112 C2114 1.388 . S
C2113 C2112 1.366 . S
C2113 C2117 1.385 . S
C2114 H2095 0.951 . S
C2114 C2112 1.388 . S
C2114 C2115 1.366 . S
C2115 C2114 1.366 . S
C2115 C2116 1.414 . S
C2115 C2118 1.499 . S
C2116 H2096 0.950 . S
C2116 C2115 1.414 . S
C2116 C2117 1.374 . S
C2117 H2097 0.950 1_455 S
C2117 C2113 1.385 . S
C2117 C2116 1.374 . S
C2118 C2115 1.499 . S
C2118 C2119 1.373 . S
C2118 C2120 1.389 . S
C2119 H2098 0.950 . S
C2119 C2118 1.373 . S
C2119 C2135 1.377 . S
C2120 C2118 1.389 . S
C2120 C2121 1.524 . S
C2120 C2134 1.377 . S
C2121 C2120 1.524 . S
C2121 C2122 1.397 . S
C2121 C2126 1.363 . S
C2122 H2099 0.950 . S
C2122 C2121 1.397 . S
C2122 C2123 1.334 . S
C2123 H2100 0.950 . S
C2123 C2122 1.334 . S
C2123 C2124 1.287 . S
C2124 C2123 1.287 . S
C2124 C2125 1.524 . S
C2124 H2143 0.913 . S
C2125 H2101 0.950 . S
C2125 C2124 1.524 . S
C2125 C2126 1.415 . S
C2126 H2102 0.950 . S
C2126 C2121 1.363 . S
C2126 C2125 1.415 . S
C2127 H2103 0.951 . S
C2127 C2128 1.366 . S
C2127 C2129 1.388 . S
C2128 C2127 1.366 . S
C2128 C2132 1.385 . S
C2129 H2104 0.951 . S
C2129 C2127 1.388 . S
C2129 C2130 1.366 . S
C2130 C2129 1.366 . S
C2130 C2131 1.414 . S
C2130 C2133 1.499 . S
C2131 H2105 0.950 . S
C2131 C2130 1.414 . S
C2131 C2132 1.374 . S
C2132 H2106 0.950 . S
C2132 C2128 1.385 . S
C2132 C2131 1.374 . S
C2133 C2130 1.499 . S
C2133 C2134 1.373 . S
C2133 C2135 1.389 . S
C2134 H2107 0.950 . S
C2134 C2120 1.377 . S
C2134 C2133 1.373 . S
C2135 C2119 1.377 . S
C2135 C2133 1.389 . S
C2135 C2136 1.524 . S
C2136 C2135 1.524 . S
C2136 C2137 1.397 . S
C2136 C2141 1.363 . S
C2137 H2108 0.950 . S
C2137 C2136 1.397 . S
C2137 C2138 1.334 . S
C2138 H2109 0.950 . S
C2138 C2137 1.334 . S
C2138 C2139 1.287 . S
C2139 C2138 1.287 . S
C2139 C2140 1.524 . S
C2139 H2142 0.999 . S
C2140 H2110 0.950 . S
C2140 C2139 1.524 . S
C2140 C2141 1.415 . S
C2141 H2111 0.950 . S
C2141 C2136 1.363 . S
C2141 C2140 1.415 . S
H2142 C2139 0.999 . S
H2143 C2124 0.913 . S
H2144 C2162 0.951 1_565 S
H2145 C2164 0.951 1_565 S
H2146 C2166 0.950 . S
H2147 C2167 0.950 . S
H2148 C2169 0.950 . S
H2149 C2172 0.950 . S
H2150 C2173 0.950 . S
H2151 C2175 0.950 . S
H2152 C2176 0.950 . S
H2153 C2177 0.951 . S
H2154 C2179 0.951 . S
H2155 C2181 0.950 . S
H2156 C2182 0.950 . S
H2157 C2184 0.950 . S
H2158 C2187 0.950 . S
H2159 C2188 0.950 . S
H2160 C2190 0.950 . S
H2161 C2191 0.950 . S
C2162 H2144 0.951 1_545 S
C2162 C2163 1.366 . S
C2162 C2164 1.388 . S
C2163 C2162 1.366 . S
C2163 C2167 1.385 . S
C2164 H2145 0.951 1_545 S
C2164 C2162 1.388 . S
C2164 C2165 1.366 . S
C2165 C2164 1.366 . S
C2165 C2166 1.414 . S
C2165 C2168 1.499 . S
C2166 H2146 0.950 . S
C2166 C2165 1.414 . S
C2166 C2167 1.374 . S
C2167 H2147 0.950 . S
C2167 C2163 1.385 . S
C2167 C2166 1.374 . S
C2168 C2165 1.499 . S
C2168 C2169 1.373 . S
C2168 C2170 1.389 . S
C2169 H2148 0.950 . S
C2169 C2168 1.373 . S
C2169 C2185 1.377 . S
C2170 C2168 1.389 . S
C2170 C2171 1.524 . S
C2170 C2184 1.377 . S
C2171 C2170 1.524 . S
C2171 C2172 1.397 . S
C2171 C2176 1.363 1_545 S
C2172 H2149 0.950 . S
C2172 C2171 1.397 . S
C2172 C2173 1.334 . S
C2173 H2150 0.950 . S
C2173 C2172 1.334 . S
C2173 C2174 1.287 1_545 S
C2174 C2173 1.287 1_565 S
C2174 C2175 1.524 . S
C2174 H2193 0.913 . S
C2175 H2151 0.950 . S
C2175 C2174 1.524 . S
C2175 C2176 1.415 . S
C2176 H2152 0.950 . S
C2176 C2171 1.363 1_565 S
C2176 C2175 1.415 . S
C2177 H2153 0.951 . S
C2177 C2178 1.366 . S
C2177 C2179 1.388 . S
C2178 C2177 1.366 . S
C2178 C2182 1.385 1_545 S
C2179 H2154 0.951 . S
C2179 C2177 1.388 . S
C2179 C2180 1.366 . S
C2180 C2179 1.366 . S
C2180 C2181 1.414 1_545 S
C2180 C2183 1.499 . S
C2181 H2155 0.950 . S
C2181 C2180 1.414 1_565 S
C2181 C2182 1.374 . S
C2182 H2156 0.950 . S
C2182 C2178 1.385 1_565 S
C2182 C2181 1.374 . S
C2183 C2180 1.499 . S
C2183 C2184 1.373 . S
C2183 C2185 1.389 . S
C2184 H2157 0.950 . S
C2184 C2170 1.377 . S
C2184 C2183 1.373 . S
C2185 C2169 1.377 . S
C2185 C2183 1.389 . S
C2185 C2186 1.524 . S
C2186 C2185 1.524 . S
C2186 C2187 1.397 . S
C2186 C2191 1.363 . S
C2187 H2158 0.950 . S
C2187 C2186 1.397 . S
C2187 C2188 1.334 . S
C2188 H2159 0.950 . S
C2188 C2187 1.334 . S
C2188 C2189 1.287 . S
C2189 C2188 1.287 . S
C2189 C2190 1.524 . S
C2189 H2192 0.999 . S
C2190 H2160 0.950 . S
C2190 C2189 1.524 . S
C2190 C2191 1.415 . S
C2191 H2161 0.950 . S
C2191 C2186 1.363 . S
C2191 C2190 1.415 . S
H2192 C2189 0.999 . S
H2193 C2174 0.913 . S
H2194 C2212 0.951 . S
H2195 C2214 0.951 . S
H2196 C2216 0.950 . S
H2197 C2217 0.950 . S
H2198 C2219 0.950 . S
H2199 C2222 0.950 . S
H2200 C2223 0.950 . S
H2201 C2225 0.950 . S
H2202 C2226 0.950 . S
H2203 C2227 0.951 . S
H2204 C2229 0.951 . S
H2205 C2231 0.950 . S
H2206 C2232 0.950 . S
H2207 C2234 0.950 . S
H2208 C2237 0.950 . S
H2209 C2238 0.950 . S
H2210 C2240 0.950 . S
H2211 C2241 0.950 . S
C2212 H2194 0.951 . S
C2212 C2213 1.366 . S
C2212 C2214 1.388 . S
C2213 C2212 1.366 . S
C2213 C2217 1.385 . S
C2214 H2195 0.951 . S
C2214 C2212 1.388 . S
C2214 C2215 1.366 . S
C2215 C2214 1.366 . S
C2215 C2216 1.414 . S
C2215 C2218 1.499 . S
C2216 H2196 0.950 . S
C2216 C2215 1.414 . S
C2216 C2217 1.374 . S
C2217 H2197 0.950 . S
C2217 C2213 1.385 . S
C2217 C2216 1.374 . S
C2218 C2215 1.499 . S
C2218 C2219 1.373 . S
C2218 C2220 1.389 . S
C2219 H2198 0.950 . S
C2219 C2218 1.373 . S
C2219 C2235 1.377 . S
C2220 C2218 1.389 . S
C2220 C2221 1.524 . S
C2220 C2234 1.377 . S
C2221 C2220 1.524 . S
C2221 C2222 1.397 . S
C2221 C2226 1.363 . S
C2222 H2199 0.950 . S
C2222 C2221 1.397 . S
C2222 C2223 1.334 . S
C2223 H2200 0.950 . S
C2223 C2222 1.334 . S
C2223 C2224 1.287 . S
C2224 C2223 1.287 . S
C2224 C2225 1.524 . S
C2224 H2243 0.913 . S
C2225 H2201 0.950 . S
C2225 C2224 1.524 . S
C2225 C2226 1.415 . S
C2226 H2202 0.950 . S
C2226 C2221 1.363 . S
C2226 C2225 1.415 . S
C2227 H2203 0.951 . S
C2227 C2228 1.366 . S
C2227 C2229 1.388 . S
C2228 C2227 1.366 . S
C2228 C2232 1.385 . S
C2229 H2204 0.951 . S
C2229 C2227 1.388 . S
C2229 C2230 1.366 . S
C2230 C2229 1.366 . S
C2230 C2231 1.414 . S
C2230 C2233 1.499 . S
C2231 H2205 0.950 . S
C2231 C2230 1.414 . S
C2231 C2232 1.374 . S
C2232 H2206 0.950 . S
C2232 C2228 1.385 . S
C2232 C2231 1.374 . S
C2233 C2230 1.499 . S
C2233 C2234 1.373 . S
C2233 C2235 1.389 . S
C2234 H2207 0.950 . S
C2234 C2220 1.377 . S
C2234 C2233 1.373 . S
C2235 C2219 1.377 . S
C2235 C2233 1.389 . S
C2235 C2236 1.524 . S
C2236 C2235 1.524 . S
C2236 C2237 1.397 . S
C2236 C2241 1.363 . S
C2237 H2208 0.950 . S
C2237 C2236 1.397 . S
C2237 C2238 1.334 1_556 S
C2238 H2209 0.950 . S
C2238 C2237 1.334 1_554 S
C2238 C2239 1.287 . S
C2239 C2238 1.287 . S
C2239 C2240 1.524 1_554 S
C2239 H2242 0.999 . S
C2240 H2210 0.950 . S
C2240 C2239 1.524 1_556 S
C2240 C2241 1.415 . S
C2241 H2211 0.950 . S
C2241 C2236 1.363 . S
C2241 C2240 1.415 . S
H2242 C2239 0.999 . S
H2243 C2224 0.913 . S
H2244 C2262 0.951 . S
H2245 C2264 0.951 . S
H2246 C2266 0.950 . S
H2247 C2267 0.950 . S
H2248 C2269 0.950 . S
H2249 C2272 0.950 . S
H2250 C2273 0.950 . S
H2251 C2275 0.950 . S
H2252 C2276 0.950 . S
H2253 C2277 0.951 . S
H2254 C2279 0.951 . S
H2255 C2281 0.950 . S
H2256 C2282 0.950 . S
H2257 C2284 0.950 . S
H2258 C2287 0.950 . S
H2259 C2288 0.950 . S
H2260 C2290 0.950 . S
H2261 C2291 0.950 . S
C2262 H2244 0.951 . S
C2262 C2263 1.366 . S
C2262 C2264 1.388 . S
C2263 C2262 1.366 . S
C2263 C2267 1.385 . S
C2264 H2245 0.951 . S
C2264 C2262 1.388 . S
C2264 C2265 1.366 . S
C2265 C2264 1.366 . S
C2265 C2266 1.414 . S
C2265 C2268 1.499 . S
C2266 H2246 0.950 . S
C2266 C2265 1.414 . S
C2266 C2267 1.374 . S
C2267 H2247 0.950 . S
C2267 C2263 1.385 . S
C2267 C2266 1.374 . S
C2268 C2265 1.499 . S
C2268 C2269 1.373 . S
C2268 C2270 1.389 . S
C2269 H2248 0.950 . S
C2269 C2268 1.373 . S
C2269 C2285 1.377 . S
C2270 C2268 1.389 . S
C2270 C2271 1.524 . S
C2270 C2284 1.377 . S
C2271 C2270 1.524 . S
C2271 C2272 1.397 . S
C2271 C2276 1.363 . S
C2272 H2249 0.950 . S
C2272 C2271 1.397 . S
C2272 C2273 1.334 . S
C2273 H2250 0.950 . S
C2273 C2272 1.334 . S
C2273 C2274 1.287 . S
C2274 C2273 1.287 . S
C2274 C2275 1.524 . S
C2274 H2293 0.913 . S
C2275 H2251 0.950 . S
C2275 C2274 1.524 . S
C2275 C2276 1.415 . S
C2276 H2252 0.950 . S
C2276 C2271 1.363 . S
C2276 C2275 1.415 . S
C2277 H2253 0.951 . S
C2277 C2278 1.366 . S
C2277 C2279 1.388 . S
C2278 C2277 1.366 . S
C2278 C2282 1.385 . S
C2279 H2254 0.951 . S
C2279 C2277 1.388 . S
C2279 C2280 1.366 . S
C2280 C2279 1.366 . S
C2280 C2281 1.414 . S
C2280 C2283 1.499 . S
C2281 H2255 0.950 . S
C2281 C2280 1.414 . S
C2281 C2282 1.374 . S
C2282 H2256 0.950 . S
C2282 C2278 1.385 . S
C2282 C2281 1.374 . S
C2283 C2280 1.499 . S
C2283 C2284 1.373 . S
C2283 C2285 1.389 . S
C2284 H2257 0.950 . S
C2284 C2270 1.377 . S
C2284 C2283 1.373 . S
C2285 C2269 1.377 . S
C2285 C2283 1.389 . S
C2285 C2286 1.524 . S
C2286 C2285 1.524 . S
C2286 C2287 1.397 . S
C2286 C2291 1.363 . S
C2287 H2258 0.950 . S
C2287 C2286 1.397 . S
C2287 C2288 1.334 . S
C2288 H2259 0.950 . S
C2288 C2287 1.334 . S
C2288 C2289 1.287 . S
C2289 C2288 1.287 . S
C2289 C2290 1.524 . S
C2289 H2292 0.999 . S
C2290 H2260 0.950 . S
C2290 C2289 1.524 . S
C2290 C2291 1.415 . S
C2291 H2261 0.950 . S
C2291 C2286 1.363 . S
C2291 C2290 1.415 . S
H2292 C2289 0.999 . S
H2293 C2274 0.913 . S
H2294 C2312 0.951 . S
H2295 C2314 0.951 . S
H2296 C2316 0.937 1_655 S
H2297 C2317 0.950 1_655 S
H2298 C2319 0.950 . S
H2299 C2322 0.893 1_655 S
H2300 C2323 0.950 . S
H2301 C2325 0.950 . S
H2302 C2326 0.950 . S
H2303 C2327 0.951 . S
H2304 C2329 0.951 . S
H2305 C2331 0.950 . S
H2306 C2332 0.950 . S
H2307 C2334 0.950 . S
H2308 C2337 0.950 . S
H2309 C2338 0.950 . S
H2310 C2340 0.950 . S
H2311 C2341 0.950 . S
C2312 H2294 0.951 . S
C2312 C2313 1.366 . S
C2312 C2314 1.388 . S
C2313 C2312 1.366 . S
C2313 C2317 1.385 . S
C2314 H2295 0.951 . S
C2314 C2312 1.388 . S
C2314 C2315 1.366 . S
C2315 C2314 1.366 . S
C2315 C2316 1.426 . S
C2315 C2318 1.499 . S
C2316 H2296 0.937 1_455 S
C2316 C2315 1.426 . S
C2316 C2317 1.375 . S
C2317 H2297 0.950 1_455 S
C2317 C2313 1.385 . S
C2317 C2316 1.375 . S
C2318 C2315 1.499 . S
C2318 C2319 1.373 . S
C2318 C2320 1.389 . S
C2319 H2298 0.950 . S
C2319 C2318 1.373 . S
C2319 C2335 1.377 . S
C2320 C2318 1.389 . S
C2320 C2321 1.524 . S
C2320 C2334 1.377 . S
C2321 C2320 1.524 . S
C2321 C2322 1.397 . S
C2321 C2326 1.363 . S
C2322 H2299 0.893 1_455 S
C2322 C2321 1.397 . S
C2322 C2323 1.334 . S
C2323 H2300 0.950 . S
C2323 C2322 1.334 . S
C2323 C2324 1.287 . S
C2324 C2323 1.287 . S
C2324 C2325 1.524 . S
C2324 H2343 0.913 . S
C2325 H2301 0.950 . S
C2325 C2324 1.524 . S
C2325 C2326 1.415 . S
C2326 H2302 0.950 . S
C2326 C2321 1.363 . S
C2326 C2325 1.415 . S
C2327 H2303 0.951 . S
C2327 C2328 1.366 1_655 S
C2327 C2329 1.388 . S
C2328 C2327 1.366 1_455 S
C2328 C2332 1.385 . S
C2329 H2304 0.951 . S
C2329 C2327 1.388 . S
C2329 C2330 1.366 1_655 S
C2330 C2329 1.366 1_455 S
C2330 C2331 1.414 . S
C2330 C2333 1.499 . S
C2331 H2305 0.950 . S
C2331 C2330 1.414 . S
C2331 C2332 1.374 . S
C2332 H2306 0.950 . S
C2332 C2328 1.385 . S
C2332 C2331 1.374 . S
C2333 C2330 1.499 . S
C2333 C2334 1.373 . S
C2333 C2335 1.389 . S
C2334 H2307 0.950 . S
C2334 C2320 1.377 . S
C2334 C2333 1.373 . S
C2335 C2319 1.377 . S
C2335 C2333 1.389 . S
C2335 C2336 1.524 . S
C2336 C2335 1.524 . S
C2336 C2337 1.397 . S
C2336 C2341 1.363 1_455 S
C2337 H2308 0.950 . S
C2337 C2336 1.397 . S
C2337 C2338 1.334 1_556 S
C2338 H2309 0.950 . S
C2338 C2337 1.334 1_554 S
C2338 C2339 1.287 . S
C2339 C2338 1.287 . S
C2339 C2340 1.524 1_455 S
C2339 H2342 1.004 . S
C2340 H2310 0.950 . S
C2340 C2339 1.524 1_655 S
C2340 C2341 1.415 1_554 S
C2341 H2311 0.950 . S
C2341 C2336 1.363 1_655 S
C2341 C2340 1.415 1_556 S
H2342 C2339 1.004 . S
H2343 C2324 0.913 . S
H2344 C2362 0.951 . S
H2345 C2364 0.951 . S
H2346 C2366 0.950 . S
H2347 C2367 0.950 . S
H2348 C2369 0.950 . S
H2349 C2372 0.950 1_545 S
H2350 C2373 0.950 1_545 S
H2351 C2375 0.950 . S
H2352 C2376 0.950 . S
H2353 C2377 0.951 . S
H2354 C2379 0.951 . S
H2355 C2381 0.950 . S
H2356 C2382 0.950 . S
H2357 C2384 0.950 . S
H2358 C2387 0.950 . S
H2359 C2388 0.950 . S
H2360 C2390 0.950 . S
H2361 C2391 0.950 . S
C2362 H2344 0.951 . S
C2362 C2363 1.366 . S
C2362 C2364 1.388 . S
C2363 C2362 1.366 . S
C2363 C2367 1.385 . S
C2364 H2345 0.951 . S
C2364 C2362 1.388 . S
C2364 C2365 1.366 . S
C2365 C2364 1.366 . S
C2365 C2366 1.414 . S
C2365 C2368 1.499 . S
C2366 H2346 0.950 . S
C2366 C2365 1.414 . S
C2366 C2367 1.374 . S
C2367 H2347 0.950 . S
C2367 C2363 1.385 . S
C2367 C2366 1.374 . S
C2368 C2365 1.499 . S
C2368 C2369 1.373 . S
C2368 C2370 1.389 . S
C2369 H2348 0.950 . S
C2369 C2368 1.373 . S
C2369 C2385 1.377 . S
C2370 C2368 1.389 . S
C2370 C2371 1.524 . S
C2370 C2384 1.377 . S
C2371 C2370 1.524 . S
C2371 C2372 1.397 . S
C2371 C2376 1.363 . S
C2372 H2349 0.950 1_565 S
C2372 C2371 1.397 . S
C2372 C2373 1.334 . S
C2373 H2350 0.950 1_565 S
C2373 C2372 1.334 . S
C2373 C2374 1.287 . S
C2374 C2373 1.287 . S
C2374 C2375 1.524 . S
C2374 H2393 0.913 . S
C2375 H2351 0.950 . S
C2375 C2374 1.524 . S
C2375 C2376 1.415 . S
C2376 H2352 0.950 . S
C2376 C2371 1.363 . S
C2376 C2375 1.415 . S
C2377 H2353 0.951 . S
C2377 C2378 1.366 . S
C2377 C2379 1.388 . S
C2378 C2377 1.366 . S
C2378 C2382 1.385 . S
C2379 H2354 0.951 . S
C2379 C2377 1.388 . S
C2379 C2380 1.366 . S
C2380 C2379 1.366 . S
C2380 C2381 1.414 . S
C2380 C2383 1.499 . S
C2381 H2355 0.950 . S
C2381 C2380 1.414 . S
C2381 C2382 1.374 . S
C2382 H2356 0.950 . S
C2382 C2378 1.385 . S
C2382 C2381 1.374 . S
C2383 C2380 1.499 . S
C2383 C2384 1.373 . S
C2383 C2385 1.389 . S
C2384 H2357 0.950 . S
C2384 C2370 1.377 . S
C2384 C2383 1.373 . S
C2385 C2369 1.377 . S
C2385 C2383 1.389 . S
C2385 C2386 1.524 . S
C2386 C2385 1.524 . S
C2386 C2387 1.397 . S
C2386 C2391 1.363 . S
C2387 H2358 0.950 . S
C2387 C2386 1.397 . S
C2387 C2388 1.334 . S
C2388 H2359 0.950 . S
C2388 C2387 1.334 . S
C2388 C2389 1.287 . S
C2389 C2388 1.287 . S
C2389 C2390 1.524 . S
C2389 H2392 0.999 . S
C2390 H2360 0.950 . S
C2390 C2389 1.524 . S
C2390 C2391 1.415 . S
C2391 H2361 0.950 . S
C2391 C2386 1.363 . S
C2391 C2390 1.415 . S
H2392 C2389 0.999 . S
H2393 C2374 0.913 . S
H2394 C2412 0.951 . S
H2395 C2414 0.951 . S
H2396 C2416 0.950 . S
H2397 C2417 0.950 . S
H2398 C2419 0.950 . S
H2399 C2422 0.950 . S
H2400 C2423 0.950 . S
H2401 C2425 0.950 . S
H2402 C2426 0.950 . S
H2403 C2427 0.951 . S
H2404 C2429 0.951 . S
H2405 C2431 0.950 . S
H2406 C2432 0.950 . S
H2407 C2434 0.950 . S
H2408 C2437 0.950 . S
H2409 C2438 0.950 . S
H2410 C2440 0.950 1_556 S
H2411 C2441 0.950 . S
C2412 H2394 0.951 . S
C2412 C2413 1.366 . S
C2412 C2414 1.388 . S
C2413 C2412 1.366 . S
C2413 C2417 1.385 . S
C2414 H2395 0.951 . S
C2414 C2412 1.388 . S
C2414 C2415 1.366 . S
C2415 C2414 1.366 . S
C2415 C2416 1.414 . S
C2415 C2418 1.499 . S
C2416 H2396 0.950 . S
C2416 C2415 1.414 . S
C2416 C2417 1.374 . S
C2417 H2397 0.950 . S
C2417 C2413 1.385 . S
C2417 C2416 1.374 . S
C2418 C2415 1.499 . S
C2418 C2419 1.373 . S
C2418 C2420 1.389 . S
C2419 H2398 0.950 . S
C2419 C2418 1.373 . S
C2419 C2435 1.377 . S
C2420 C2418 1.389 . S
C2420 C2421 1.524 . S
C2420 C2434 1.377 . S
C2421 C2420 1.524 . S
C2421 C2422 1.397 . S
C2421 C2426 1.363 . S
C2422 H2399 0.950 . S
C2422 C2421 1.397 . S
C2422 C2423 1.334 . S
C2423 H2400 0.950 . S
C2423 C2422 1.334 . S
C2423 C2424 1.287 . S
C2424 C2423 1.287 . S
C2424 C2425 1.524 . S
C2424 H2443 0.913 . S
C2425 H2401 0.950 . S
C2425 C2424 1.524 . S
C2425 C2426 1.415 . S
C2426 H2402 0.950 . S
C2426 C2421 1.363 . S
C2426 C2425 1.415 . S
C2427 H2403 0.951 . S
C2427 C2428 1.366 . S
C2427 C2429 1.388 . S
C2428 C2427 1.366 . S
C2428 C2432 1.385 . S
C2429 H2404 0.951 . S
C2429 C2427 1.388 . S
C2429 C2430 1.366 . S
C2430 C2429 1.366 . S
C2430 C2431 1.414 . S
C2430 C2433 1.499 . S
C2431 H2405 0.950 . S
C2431 C2430 1.414 . S
C2431 C2432 1.374 . S
C2432 H2406 0.950 . S
C2432 C2428 1.385 . S
C2432 C2431 1.374 . S
C2433 C2430 1.499 . S
C2433 C2434 1.373 . S
C2433 C2435 1.389 . S
C2434 H2407 0.950 . S
C2434 C2420 1.377 . S
C2434 C2433 1.373 . S
C2435 C2419 1.377 . S
C2435 C2433 1.389 . S
C2435 C2436 1.524 . S
C2436 C2435 1.524 . S
C2436 C2437 1.397 . S
C2436 C2441 1.363 . S
C2437 H2408 0.950 . S
C2437 C2436 1.397 . S
C2437 C2438 1.334 . S
C2438 H2409 0.950 . S
C2438 C2437 1.334 . S
C2438 C2439 1.287 . S
C2439 C2438 1.287 . S
C2439 C2440 1.524 . S
C2439 H2442 0.999 . S
C2440 H2410 0.950 1_554 S
C2440 C2439 1.524 . S
C2440 C2441 1.415 . S
C2441 H2411 0.950 . S
C2441 C2436 1.363 . S
C2441 C2440 1.415 . S
H2442 C2439 0.999 . S
H2443 C2424 0.913 . S
H2444 C2462 0.951 . S
H2445 C2464 0.951 . S
H2446 C2466 0.950 . S
H2447 C2467 0.950 . S
H2448 C2469 0.950 . S
H2449 C2472 0.950 . S
H2450 C2473 0.950 . S
H2451 C2475 0.950 . S
H2452 C2476 0.950 . S
H2453 C2477 0.951 . S
H2454 C2479 0.951 . S
H2455 C2481 0.950 . S
H2456 C2482 0.950 . S
H2457 C2484 0.950 . S
H2458 C2487 0.950 . S
H2459 C2488 0.950 . S
H2460 C2490 0.950 . S
H2461 C2491 0.950 . S
C2462 H2444 0.951 . S
C2462 C2463 1.366 . S
C2462 C2464 1.388 . S
C2463 C2462 1.366 . S
C2463 C2467 1.385 . S
C2464 H2445 0.951 . S
C2464 C2462 1.388 . S
C2464 C2465 1.366 . S
C2465 C2464 1.366 . S
C2465 C2466 1.414 . S
C2465 C2468 1.499 . S
C2466 H2446 0.950 . S
C2466 C2465 1.414 . S
C2466 C2467 1.374 . S
C2467 H2447 0.950 . S
C2467 C2463 1.385 . S
C2467 C2466 1.374 . S
C2468 C2465 1.499 . S
C2468 C2469 1.373 . S
C2468 C2470 1.389 . S
C2469 H2448 0.950 . S
C2469 C2468 1.373 . S
C2469 C2485 1.377 . S
C2470 C2468 1.389 . S
C2470 C2471 1.524 . S
C2470 C2484 1.377 . S
C2471 C2470 1.524 . S
C2471 C2472 1.397 . S
C2471 C2476 1.363 . S
C2472 H2449 0.950 . S
C2472 C2471 1.397 . S
C2472 C2473 1.334 . S
C2473 H2450 0.950 . S
C2473 C2472 1.334 . S
C2473 C2474 1.287 . S
C2474 C2473 1.287 . S
C2474 C2475 1.524 . S
C2474 H2493 0.913 . S
C2475 H2451 0.950 . S
C2475 C2474 1.524 . S
C2475 C2476 1.415 . S
C2476 H2452 0.950 . S
C2476 C2471 1.363 . S
C2476 C2475 1.415 . S
C2477 H2453 0.951 . S
C2477 C2478 1.366 . S
C2477 C2479 1.388 . S
C2478 C2477 1.366 . S
C2478 C2482 1.385 . S
C2479 H2454 0.951 . S
C2479 C2477 1.388 . S
C2479 C2480 1.366 . S
C2480 C2479 1.366 . S
C2480 C2481 1.414 . S
C2480 C2483 1.499 . S
C2481 H2455 0.950 . S
C2481 C2480 1.414 . S
C2481 C2482 1.374 . S
C2482 H2456 0.950 . S
C2482 C2478 1.385 . S
C2482 C2481 1.374 . S
C2483 C2480 1.499 . S
C2483 C2484 1.373 . S
C2483 C2485 1.389 . S
C2484 H2457 0.950 . S
C2484 C2470 1.377 . S
C2484 C2483 1.373 . S
C2485 C2469 1.377 . S
C2485 C2483 1.389 . S
C2485 C2486 1.524 . S
C2486 C2485 1.524 . S
C2486 C2487 1.397 . S
C2486 C2491 1.363 . S
C2487 H2458 0.950 . S
C2487 C2486 1.397 . S
C2487 C2488 1.334 . S
C2488 H2459 0.950 . S
C2488 C2487 1.334 . S
C2488 C2489 1.287 . S
C2489 C2488 1.287 . S
C2489 C2490 1.524 . S
C2489 H2492 0.999 . S
C2490 H2460 0.950 . S
C2490 C2489 1.524 . S
C2490 C2491 1.415 . S
C2491 H2461 0.950 . S
C2491 C2486 1.363 . S
C2491 C2490 1.415 . S
H2492 C2489 0.999 . S
H2493 C2474 0.913 . S
H2494 C2512 0.951 . S
H2495 C2514 0.951 . S
H2496 C2516 0.950 . S
H2497 C2517 0.950 . S
H2498 C2519 0.950 . S
H2499 C2522 0.950 . S
H2500 C2523 0.950 . S
H2501 C2525 0.950 1_556 S
H2502 C2526 0.950 . S
H2503 C2527 0.951 . S
H2504 C2529 0.951 . S
H2505 C2531 0.950 . S
H2506 C2532 0.950 . S
H2507 C2534 0.962 . S
H2508 C2537 0.950 . S
H2509 C2538 0.950 . S
H2510 C2540 0.950 . S
H2511 C2541 0.950 . S
C2512 H2494 0.951 . S
C2512 C2513 1.366 . S
C2512 C2514 1.388 . S
C2513 C2512 1.366 . S
C2513 C2517 1.385 . S
C2514 H2495 0.951 . S
C2514 C2512 1.388 . S
C2514 C2515 1.366 . S
C2515 C2514 1.366 . S
C2515 C2516 1.414 . S
C2515 C2518 1.499 . S
C2516 H2496 0.950 . S
C2516 C2515 1.414 . S
C2516 C2517 1.374 . S
C2517 H2497 0.950 . S
C2517 C2513 1.385 . S
C2517 C2516 1.374 . S
C2518 C2515 1.499 . S
C2518 C2519 1.373 . S
C2518 C2520 1.389 . S
C2519 H2498 0.950 . S
C2519 C2518 1.373 . S
C2519 C2535 1.377 . S
C2520 C2518 1.389 . S
C2520 C2521 1.524 1_655 S
C2520 C2534 1.377 . S
C2521 C2520 1.524 1_455 S
C2521 C2522 1.397 . S
C2521 C2526 1.363 . S
C2522 H2499 0.950 . S
C2522 C2521 1.397 . S
C2522 C2523 1.334 . S
C2523 H2500 0.950 . S
C2523 C2522 1.334 . S
C2523 C2524 1.287 . S
C2524 C2523 1.287 . S
C2524 C2525 1.524 . S
C2524 H2543 0.913 . S
C2525 H2501 0.950 1_554 S
C2525 C2524 1.524 . S
C2525 C2526 1.415 . S
C2526 H2502 0.950 . S
C2526 C2521 1.363 . S
C2526 C2525 1.415 . S
C2527 H2503 0.951 . S
C2527 C2528 1.366 . S
C2527 C2529 1.388 . S
C2528 C2527 1.366 . S
C2528 C2532 1.385 . S
C2529 H2504 0.951 . S
C2529 C2527 1.388 . S
C2529 C2530 1.366 . S
C2530 C2529 1.366 . S
C2530 C2531 1.414 . S
C2530 C2533 1.499 . S
C2531 H2505 0.950 . S
C2531 C2530 1.414 . S
C2531 C2532 1.374 . S
C2532 H2506 0.950 . S
C2532 C2528 1.385 . S
C2532 C2531 1.374 . S
C2533 C2530 1.499 . S
C2533 C2534 1.373 . S
C2533 C2535 1.389 . S
C2534 H2507 0.962 . S
C2534 C2520 1.377 . S
C2534 C2533 1.373 . S
C2535 C2519 1.377 . S
C2535 C2533 1.389 . S
C2535 C2536 1.524 . S
C2536 C2535 1.524 . S
C2536 C2537 1.397 . S
C2536 C2541 1.363 . S
C2537 H2508 0.950 . S
C2537 C2536 1.397 . S
C2537 C2538 1.334 . S
C2538 H2509 0.950 . S
C2538 C2537 1.334 . S
C2538 C2539 1.287 . S
C2539 C2538 1.287 . S
C2539 C2540 1.524 . S
C2539 H2542 0.999 . S
C2540 H2510 0.950 . S
C2540 C2539 1.524 . S
C2540 C2541 1.415 . S
C2541 H2511 0.950 . S
C2541 C2536 1.363 . S
C2541 C2540 1.415 . S
H2542 C2539 0.999 . S
H2543 C2524 0.913 . S
C563 C277 0.657 . S
C578 C5 0.664 . S
C613 C39 0.802 . S
C628 C311 0.797 . S
C663 C345 0.683 . S
C678 C73 0.665 . S
C713 C379 0.482 . S
C728 C122 0.271 . S
C763 C141 0.632 . S
C778 C413 0.624 . S
C813 C175 0.822 . S
C828 C447 0.816 . S
C863 C209 0.536 . S
C878 C481 0.558 . S
C913 C243 0.486 . S
C928 C515 0.494 . S
C963 C33 1.609 . S
C978 C530 1.549 1_554 S
C1013 C67 1.459 . S
C1028 C428 1.408 . S
C1063 C101 1.507 . S
C1078 C462 1.451 . S
C1113 C496 1.338 . S
C1128 C135 1.389 . S
C1163 C169 1.418 . S
C1178 C326 1.369 . S
C1213 C203 1.420 . S
C1228 C360 1.369 . S
C1263 C394 1.619 1_556 S
C1278 C237 1.658 . S
C1313 C271 1.510 . S
C1328 C292 1.454 . S
C1363 C258 1.427 . S
C1378 C305 1.480 . S
C1413 C156 1.401 . S
C1428 C339 1.453 . S
C1463 C190 1.373 1_556 S
C1478 C373 1.438 . S
C1513 C407 1.092 . S
C1528 C224 1.054 . S
C1563 C54 1.355 1_554 S
C1578 C441 1.403 . S
C1613 C475 1.429 . S
C1628 C88 1.380 . S
C1663 C111 0.883 . S
C1678 C509 0.926 . S
C1713 C20 1.447 . S
C1728 C543 1.500 . S
C1763 C240 1.676 . S
C1778 C2 1.686 . S
C1813 C138 1.646 1_545 S
C1828 C36 1.656 . S
C1863 C70 1.620 . S
C1878 C172 1.641 . S
C1913 C206 1.104 . S
C1928 C107 1.123 . S
C1963 C512 1.765 . S
C1978 C274 1.791 . S
C2013 C308 1.660 . S
C2028 C410 1.647 . S
C2063 C342 1.613 . S
C2078 C444 1.615 . S
C2113 C376 1.899 1_455 S
C2128 C478 1.890 . S
C2163 C9 1.126 . S
C2178 C417 1.110 . S
C2213 C43 0.823 . S
C2228 C451 0.817 . S
C2263 C77 1.028 . S
C2278 C485 1.059 . S
C2313 C104 1.271 . S
C2328 C519 1.213 . S
C2363 C145 1.115 . S
C2378 C281 1.119 . S
C2413 C179 0.852 . S
C2428 C315 0.858 . S
C2463 C213 1.038 . S
C2478 C349 1.035 . S
C2513 C383 1.379 . S
C2528 C247 1.362 . S
