# Generated by pormake.
# Topology fne, (5)-cn, num edge types: 1
# Building blocks:
#     Node 0, Type 0, BuildingBlock: BEQFEK_clean_sbu_0, # of connection points: 5
#     Node 1, Type 0, BuildingBlock: BEQFEK_clean_sbu_0, # of connection points: 5
#     Node 2, Type 0, BuildingBlock: BEQFEK_clean_sbu_0, # of connection points: 5
#     Node 3, Type 0, BuildingBlock: BEQFEK_clean_sbu_0, # of connection points: 5
#     Node 4, Type 0, BuildingBlock: BEQFEK_clean_sbu_0, # of connection points: 5
#     Node 5, Type 0, BuildingBlock: BEQFEK_clean_sbu_0, # of connection points: 5
#     Edge 6, Type (0, 0), BuildingBlock: TEMPAE_clean_linker_10, # of connection points: 2
#     Edge 7, Type (0, 0), BuildingBlock: TEMPAE_clean_linker_10, # of connection points: 2
#     Edge 8, Type (0, 0), BuildingBlock: TEMPAE_clean_linker_10, # of connection points: 2
#     Edge 9, Type (0, 0), BuildingBlock: TEMPAE_clean_linker_10, # of connection points: 2
#     Edge 10, Type (0, 0), BuildingBlock: TEMPAE_clean_linker_10, # of connection points: 2
#     Edge 11, Type (0, 0), BuildingBlock: TEMPAE_clean_linker_10, # of connection points: 2
#     Edge 12, Type (0, 0), BuildingBlock: TEMPAE_clean_linker_10, # of connection points: 2
#     Edge 13, Type (0, 0), BuildingBlock: TEMPAE_clean_linker_10, # of connection points: 2
#     Edge 14, Type (0, 0), BuildingBlock: TEMPAE_clean_linker_10, # of connection points: 2
#     Edge 15, Type (0, 0), BuildingBlock: TEMPAE_clean_linker_10, # of connection points: 2
#     Edge 16, Type (0, 0), BuildingBlock: TEMPAE_clean_linker_10, # of connection points: 2
#     Edge 17, Type (0, 0), BuildingBlock: TEMPAE_clean_linker_10, # of connection points: 2
#     Edge 18, Type (0, 0), BuildingBlock: TEMPAE_clean_linker_10, # of connection points: 2
#     Edge 19, Type (0, 0), BuildingBlock: TEMPAE_clean_linker_10, # of connection points: 2
#     Edge 20, Type (0, 0), BuildingBlock: TEMPAE_clean_linker_10, # of connection points: 2
# Relax obj value: 0.218
# Max RMSD: 0.180
# Mean RMSD: 0.180
data_MOF--net-fne--node1-BEQFEK_clean_sbu_0--edge1-TEMPAE_clean_linker_10
_symmetry_space_group_name_H-M    P1
_symmetry_Int_Tables_number       1
_symmetry_cell_setting            triclinic
loop_
_symmetry_equiv_pos_as_xyz
'x, y, z'
_cell_length_a     44.524521
_cell_length_b     44.517971
_cell_length_c     18.898644
_cell_angle_alpha  89.904071
_cell_angle_beta   90.00403
_cell_angle_gamma 119.99885
loop_
_atom_site_label
_atom_site_type_symbol
_atom_site_fract_x
_atom_site_fract_y
_atom_site_fract_z
_atom_type_partial_charge
Co0 Co 0.54936 0.27118 0.93356 0.0
Co1 Co 0.52063 0.23817 0.08162 0.0
C2 C 0.58762 0.24706 0.02069 0.0
O3 O 0.58682 0.26317 0.96576 0.0
O4 O 0.56351 0.236 0.06661 0.0
C5 C 0.58095 0.29101 0.79824 0.0
O6 O 0.59996 0.27824 0.82224 0.0
C7 C 0.53028 0.2429 0.2328 0.0
C8 C 0.47733 0.20967 0.27474 0.0
C9 C 0.51121 0.23254 0.29488 0.0
N10 N 0.50855 0.22776 0.17837 0.0
N11 N 0.477 0.20747 0.20359 0.0
C12 C 0.56862 0.26641 0.22428 0.0
H13 H 0.57363 0.2897 0.19341 0.0
H14 H 0.58233 0.27428 0.27571 0.0
H15 H 0.57952 0.25278 0.194 0.0
C16 C 0.54279 0.32848 -0.00441 0.0
N17 N 0.54043 0.29718 -0.00039 0.0
N18 N 0.52691 0.28278 0.06098 0.0
C19 C 0.51937 0.30418 0.09738 0.0
C20 C 0.52934 0.33378 0.05727 0.0
C21 C 0.55582 0.3517 0.93223 0.0
H22 H 0.53734 0.33934 0.88787 0.0
H23 H 0.58115 0.35488 0.91555 0.0
H24 H 0.55862 0.37747 0.94322 0.0
O25 O 0.50693 0.22584 0.91701 0.0
O26 O 0.48412 0.20282 0.02133 0.0
H27 H 0.48089 0.26942 0.1708 0.0
H28 H 0.49303 0.31429 0.18293 0.0
C29 C 0.50274 0.29648 0.16903 0.0
H30 H 0.52214 0.29962 0.20937 0.0
H31 H 0.4551 0.19312 0.1722 0.0
O32 O 0.55988 0.2934 0.83989 0.0
C33 C 0.48333 0.20162 0.95402 0.0
Co34 Co 0.48937 0.57899 0.28718 0.0
Co35 Co 0.48976 0.54496 0.43038 0.0
C36 C 0.54667 0.61673 0.38561 0.0
O37 O 0.53118 0.61726 0.32959 0.0
O38 O 0.53366 0.59032 0.42604 0.0
C39 C 0.50966 0.59815 0.15521 0.0
O40 O 0.537 0.60141 0.18874 0.0
C41 C 0.49094 0.55104 0.58098 0.0
C42 C 0.47943 0.49956 0.62005 0.0
C43 C 0.48688 0.53229 0.6424 0.0
N44 N 0.48628 0.5305 0.52544 0.0
N45 N 0.47954 0.49976 0.54875 0.0
C46 C 0.49652 0.58701 0.57372 0.0
H47 H 0.48661 0.59016 0.52202 0.0
H48 H 0.48336 0.59277 0.61709 0.0
H49 H 0.52472 0.60597 0.57572 0.0
C50 C 0.42106 0.56524 0.34013 0.0
N51 N 0.45068 0.56433 0.3462 0.0
N52 N 0.45011 0.54845 0.4054 0.0
C53 C 0.41955 0.53787 0.43814 0.0
C54 C 0.40027 0.54832 0.39805 0.0
C55 C 0.41281 0.58126 0.27903 0.0
H56 H 0.41322 0.56815 0.22946 0.0
H57 H 0.43322 0.60894 0.27435 0.0
H58 H 0.38704 0.57918 0.2851 0.0
O59 O 0.49677 0.53949 0.26815 0.0
O60 O 0.49422 0.51214 0.36778 0.0
H61 H 0.41778 0.49952 0.50962 0.0
H62 H 0.38133 0.50647 0.51766 0.0
C63 C 0.4096 0.51928 0.50782 0.0
H64 H 0.42289 0.53822 0.55091 0.0
H65 H 0.47487 0.47898 0.51612 0.0
O66 O 0.48302 0.59187 0.1912 0.0
C67 C 0.49777 0.51507 0.30092 0.0
Co68 Co 0.1185 0.52362 0.61397 0.0
Co69 Co 0.15338 0.52788 0.75944 0.0
C70 C 0.14377 0.58609 0.69979 0.0
O71 O 0.12631 0.56885 0.64646 0.0
O72 O 0.15584 0.57325 0.744 0.0
C73 C 0.10153 0.53601 0.47768 0.0
O74 O 0.11703 0.56814 0.50064 0.0
C75 C 0.14664 0.52985 0.91109 0.0
C76 C 0.18508 0.51668 0.95229 0.0
C77 C 0.15898 0.52319 0.97298 0.0
N78 N 0.16387 0.52643 0.8563 0.0
N79 N 0.18711 0.51894 0.88113 0.0
C80 C 0.11911 0.53969 0.90366 0.0
H81 H 0.12359 0.55581 0.85604 0.0
H82 H 0.09343 0.51594 0.89773 0.0
H83 H 0.11845 0.55412 0.95091 0.0
C84 C 0.06242 0.45919 0.6771 0.0
N85 N 0.09336 0.48857 0.68044 0.0
N86 N 0.10884 0.48917 0.74013 0.0
C87 C 0.08871 0.45943 0.77564 0.0
C88 C 0.0586 0.43973 0.73717 0.0
C89 C 0.03847 0.44903 0.61507 0.0
H90 H 0.03533 0.47127 0.59883 0.0
H91 H 0.01277 0.42622 0.62734 0.0
H92 H 0.05017 0.44259 0.56993 0.0
O93 O 0.16387 0.52685 0.59565 0.0
O94 O 0.18827 0.5265 0.69782 0.0
H95 H 0.08385 0.42095 0.85253 0.0
H96 H 0.0928 0.46167 0.88848 0.0
C97 C 0.0986 0.44935 0.84373 0.0
H98 H 0.12668 0.45815 0.84374 0.0
H99 H 0.20371 0.5145 0.84949 0.0
O100 O 0.09603 0.51184 0.52067 0.0
C101 C 0.18854 0.52721 0.63044 0.0
Co102 Co 0.80759 0.15139 0.94513 0.0
Co103 Co 0.8368 0.1861 0.09141 0.0
C104 C 0.76945 0.17629 0.02896 0.0
O105 O 0.76979 0.15895 0.97594 0.0
O106 O 0.79392 0.18833 0.07407 0.0
C107 C 0.77655 0.13116 0.8098 0.0
O108 O 0.75708 0.14341 0.83364 0.0
C109 C 0.82673 0.17919 0.24282 0.0
C110 C 0.87804 0.21747 0.28536 0.0
C111 C 0.84527 0.19136 0.30519 0.0
N112 N 0.84782 0.19654 0.18856 0.0
N113 N 0.87836 0.21972 0.21419 0.0
C114 C 0.78942 0.15172 0.23449 0.0
H115 H 0.77789 0.15696 0.18764 0.0
H116 H 0.78754 0.12617 0.22653 0.0
H117 H 0.77416 0.15027 0.2821 0.0
C118 C 0.81481 0.095 0.01042 0.0
N119 N 0.81698 0.12624 0.01258 0.0
N120 N 0.83139 0.14169 0.07252 0.0
C121 C 0.8402 0.12128 0.10931 0.0
C122 C 0.82963 0.09097 0.0715 0.0
C123 C 0.80071 0.07066 0.94908 0.0
H124 H 0.81891 0.08183 0.90381 0.0
H125 H 0.77553 0.06789 0.9325 0.0
H126 H 0.79734 0.04485 0.96227 0.0
O127 O 0.8496 0.19712 0.92791 0.0
O128 O 0.87337 0.22129 0.03079 0.0
H129 H 0.87832 0.15902 0.17947 0.0
H130 H 0.87307 0.11634 0.18776 0.0
C131 C 0.85925 0.13089 0.17841 0.0
H132 H 0.84051 0.12452 0.22226 0.0
H133 H 0.89965 0.23634 0.18309 0.0
O134 O 0.79766 0.12896 0.85173 0.0
C135 C 0.87344 0.22184 0.96341 0.0
Co136 Co 0.85807 0.83829 0.30182 0.0
Co137 Co 0.855 0.87012 0.44636 0.0
C138 C 0.79695 0.80099 0.39112 0.0
O139 O 0.8137 0.80051 0.33708 0.0
O140 O 0.80991 0.82649 0.43379 0.0
C141 C 0.84474 0.81071 0.165 0.0
O142 O 0.8126 0.79625 0.1878 0.0
C143 C 0.85432 0.86266 0.59836 0.0
C144 C 0.86728 0.91446 0.63778 0.0
C145 C 0.86114 0.8821 0.65958 0.0
N146 N 0.85728 0.88284 0.54288 0.0
N147 N 0.86469 0.9137 0.56666 0.0
C148 C 0.84465 0.82529 0.59231 0.0
H149 H 0.82887 0.81332 0.54457 0.0
H150 H 0.86847 0.8234 0.58765 0.0
H151 H 0.82993 0.81041 0.63962 0.0
C152 C 0.92348 0.8481 0.362 0.0
N153 N 0.89407 0.84954 0.36635 0.0
N154 N 0.89397 0.8649 0.42565 0.0
C155 C 0.92407 0.87491 0.45994 0.0
C156 C 0.9435 0.86429 0.42101 0.0
C157 C 0.93297 0.83363 0.30012 0.0
H158 H 0.93818 0.85088 0.25374 0.0
H159 H 0.91079 0.80776 0.28644 0.0
H160 H 0.95632 0.83151 0.31107 0.0
O161 O 0.85344 0.87953 0.28264 0.0
O162 O 0.85483 0.90545 0.38374 0.0
H163 H 0.96287 0.90869 0.53588 0.0
H164 H 0.92238 0.87685 0.57283 0.0
C165 C 0.93444 0.89494 0.52781 0.0
H166 H 0.92552 0.91414 0.52818 0.0
H167 H 0.86874 0.93442 0.53432 0.0
O168 O 0.86931 0.82733 0.20843 0.0
C169 C 0.85306 0.90404 0.31645 0.0
Co170 Co 0.23292 0.89975 0.6157 0.0
Co171 Co 0.19965 0.89444 0.76368 0.0
C172 C 0.2107 0.83766 0.70313 0.0
O173 O 0.22647 0.85492 0.64828 0.0
O174 O 0.19893 0.84999 0.74904 0.0
C175 C 0.25284 0.8884 0.4805 0.0
O176 O 0.24041 0.85668 0.50467 0.0
C177 C 0.20408 0.88945 0.9149 0.0
C178 C 0.1703 0.90862 0.95621 0.0
C179 C 0.19339 0.89794 0.97675 0.0
N180 N 0.18889 0.89585 0.86021 0.0
N181 N 0.16827 0.90677 0.88504 0.0
C182 C 0.22794 0.87502 0.9068 0.0
H183 H 0.25089 0.89319 0.87502 0.0
H184 H 0.2363 0.86982 0.95836 0.0
H185 H 0.21435 0.85018 0.87758 0.0
C186 C 0.28878 0.96472 0.67693 0.0
N187 N 0.25812 0.93508 0.68145 0.0
N188 N 0.24371 0.93366 0.74305 0.0
C189 C 0.26451 0.96291 0.77923 0.0
C190 C 0.29369 0.98337 0.7386 0.0
C191 C 0.31161 0.97564 0.61295 0.0
H192 H 0.29801 0.98008 0.56847 0.0
H193 H 0.31648 0.95445 0.59712 0.0
H194 H 0.33663 -0.00025 0.62264 0.0
O195 O 0.18694 0.89525 0.59884 0.0
O196 O 0.16371 0.89447 0.70315 0.0
H197 H 0.2296 0.96582 0.85328 0.0
H198 H 0.27441 -0.00146 0.86627 0.0
C199 C 0.2567 0.97116 0.85137 0.0
H200 H 0.25982 0.95454 0.89092 0.0
H201 H 0.15381 0.91411 0.85337 0.0
O202 O 0.25506 0.91179 0.52206 0.0
C203 C 0.16242 0.89393 0.63584 0.0
C204 C 0.64457 0.25358 0.98397 0.0
C205 C 0.61571 0.23878 0.02915 0.0
C206 C 0.66994 0.24377 0.98795 0.0
C207 C 0.66609 0.21827 0.03771 0.0
C208 C 0.63747 0.20381 0.08453 0.0
C209 C 0.61273 0.21441 0.08001 0.0
C210 C 0.70047 0.26014 0.93788 0.0
C211 C 0.6324 0.17634 0.13786 0.0
C212 C 0.71191 0.16836 -0.00721 0.0
C213 C 0.74154 0.18492 0.03555 0.0
C214 C 0.68668 0.1784 -0.00564 0.0
C215 C 0.69146 0.20593 0.03906 0.0
C216 C 0.7209 0.22225 0.08347 0.0
C217 C 0.74548 0.21137 0.08157 0.0
C218 C 0.65526 0.16003 0.9471 0.0
C219 C 0.72698 0.25191 0.13132 0.0
H220 H 0.64715 0.27256 0.94482 0.0
H221 H 0.59047 0.20277 0.11507 0.0
H222 H 0.72511 0.27132 0.96806 0.0
H223 H 0.69981 0.24007 0.90215 0.0
H224 H 0.70062 0.28094 0.90504 0.0
H225 H 0.60946 0.16871 0.1723 0.0
H226 H 0.62897 0.15294 0.10987 0.0
H227 H 0.65571 0.18578 0.17182 0.0
H228 H 0.70861 0.14779 0.9574 0.0
H229 H 0.76837 0.2244 0.1146 0.0
H230 H 0.65525 0.17854 0.90775 0.0
H231 H 0.63119 0.15015 0.9789 0.0
H232 H 0.65453 0.13794 0.91828 0.0
H233 H 0.72987 0.27403 0.09895 0.0
H234 H 0.75055 0.26098 0.16447 0.0
H235 H 0.70433 0.244 0.16663 0.0
C236 C 0.74684 0.74306 0.35905 0.0
C237 C 0.76086 0.77265 0.40201 0.0
C238 C 0.71175 0.7176 0.36416 0.0
C239 C 0.69014 0.72201 0.41295 0.0
C240 C 0.70435 0.75116 0.45824 0.0
C241 C 0.73962 0.77608 0.45248 0.0
C242 C 0.69755 0.68655 0.31561 0.0
C243 C 0.68203 0.75677 0.51065 0.0
C244 C 0.59563 0.67626 0.3595 0.0
C245 C 0.58196 0.64582 0.40005 0.0
C246 C 0.63052 0.70206 0.36569 0.0
C247 C 0.6523 0.69712 0.41311 0.0
C248 C 0.6383 0.66728 0.45671 0.0
C249 C 0.6032 0.64203 0.44995 0.0
C250 C 0.64444 0.73387 0.31914 0.0
C251 C 0.66079 0.66113 0.50774 0.0
H252 H 0.76311 0.74007 0.32032 0.0
H253 H 0.75024 0.79885 0.48599 0.0
H254 H 0.68358 0.66221 0.34673 0.0
H255 H 0.67861 0.68723 0.27844 0.0
H256 H 0.71825 0.68576 0.28424 0.0
H257 H 0.69757 0.77924 0.54593 0.0
H258 H 0.66303 0.76141 0.48175 0.0
H259 H 0.66703 0.73328 0.54375 0.0
H260 H 0.57932 0.67953 0.3213 0.0
H261 H 0.59283 0.61861 0.48161 0.0
H262 H 0.66303 0.73369 0.28028 0.0
H263 H 0.65873 0.75772 0.3514 0.0
H264 H 0.62353 0.73519 0.28969 0.0
H265 H 0.67948 0.6565 0.47762 0.0
H266 H 0.64531 0.63842 0.5427 0.0
H267 H 0.67611 0.68434 0.5412 0.0
C268 C 0.17825 0.64449 0.75553 0.0
C269 C 0.1522 0.6225 0.70822 0.0
C270 C 0.18874 0.67983 0.75967 0.0
C271 C 0.17244 0.69335 0.71616 0.0
C272 C 0.14533 0.67109 0.67006 0.0
C273 C 0.13567 0.63595 0.66631 0.0
C274 C 0.21795 0.70289 0.80895 0.0
C275 C 0.127 0.68455 0.62364 0.0
C276 C 0.17916 0.77943 0.76114 0.0
C277 C 0.20349 0.80159 0.71106 0.0
C278 C 0.16926 0.74422 0.76436 0.0
C279 C 0.1844 0.73099 0.71701 0.0
C280 C 0.21 0.75348 0.66833 0.0
C281 C 0.2191 0.7885 0.66565 0.0
C282 C 0.14169 0.72092 0.81662 0.0
C283 C 0.22709 0.74035 0.61776 0.0
H284 H 0.19125 0.63434 0.78796 0.0
H285 H 0.1154 0.61909 0.62993 0.0
H286 H 0.2402 0.72271 0.77778 0.0
H287 H 0.20959 0.71694 0.84508 0.0
H288 H 0.22698 0.68806 0.84127 0.0
H289 H 0.10526 0.66351 0.59347 0.0
H290 H 0.11664 0.69801 0.65632 0.0
H291 H 0.14566 0.7038 0.58548 0.0
H292 H 0.16691 0.78931 0.79638 0.0
H293 H 0.23808 0.8055 0.62714 0.0
H294 H 0.15112 0.70665 0.84944 0.0
H295 H 0.11845 0.7013 0.78765 0.0
H296 H 0.1338 0.7356 0.85222 0.0
H297 H 0.2382 0.72662 0.6473 0.0
H298 H 0.24807 0.76161 0.58636 0.0
H299 H 0.20747 0.72141 0.58067 0.0
C300 C 0.54484 0.28107 0.37917 0.0
C301 C 0.52299 0.24551 0.36708 0.0
C302 C 0.55709 0.29361 0.44725 0.0
C303 C 0.54643 0.27004 0.50457 0.0
C304 C 0.52322 0.23424 0.49299 0.0
C305 C 0.51171 0.22241 0.42417 0.0
C306 C 0.5816 0.33193 0.45774 0.0
C307 C 0.51084 0.20841 0.5532 0.0
C308 C 0.59759 0.28724 0.6739 0.0
C309 C 0.57719 0.29365 0.72117 0.0
C310 C 0.58916 0.28171 0.60184 0.0
C311 C 0.55958 0.28246 0.5769 0.0
C312 C 0.54059 0.29171 0.6232 0.0
C313 C 0.54978 0.29743 0.69484 0.0
C314 C 0.61046 0.27265 0.5535 0.0
C315 C 0.50893 0.29288 0.59848 0.0
H316 H 0.55233 0.29914 0.33533 0.0
H317 H 0.49435 0.195 0.41475 0.0
H318 H 0.57041 0.34254 0.49598 0.0
H319 H 0.6064 0.33618 0.48048 0.0
H320 H 0.58726 0.34679 0.40748 0.0
H321 H 0.49218 0.18165 0.53542 0.0
H322 H 0.5333 0.20831 0.57839 0.0
H323 H 0.49815 0.21602 0.59434 0.0
H324 H 0.61907 0.28471 0.69371 0.0
H325 H 0.53402 0.30267 0.73089 0.0
H326 H 0.61689 0.28798 0.50385 0.0
H327 H 0.59515 0.24484 0.53885 0.0
H328 H 0.63495 0.27736 0.57887 0.0
H329 H 0.51426 0.30744 0.54803 0.0
H330 H 0.49997 0.30504 0.63826 0.0
H331 H 0.48751 0.26608 0.58851 0.0
C332 C 0.46883 0.51968 0.76881 0.0
C333 C 0.48924 0.54365 0.71665 0.0
C334 C 0.47107 0.52975 0.83974 0.0
C335 C 0.494 0.56471 0.85854 0.0
C336 C 0.51444 0.58907 0.80609 0.0
C337 C 0.51234 0.57807 0.73603 0.0
C338 C 0.4496 0.50285 0.89479 0.0
C339 C 0.5392 0.62659 0.82423 0.0
C340 C 0.48166 0.59483 0.03842 0.0
C341 C 0.50723 0.59294 0.07806 0.0
C342 C 0.47747 0.58646 0.96614 0.0
C343 C 0.49881 0.57516 0.93386 0.0
C344 C 0.52478 0.57346 0.97368 0.0
C345 C 0.52896 0.58279 0.04504 0.0
C346 C 0.45 0.58922 0.92456 0.0
C347 C 0.54756 0.56083 0.94149 0.0
H348 H 0.45117 0.49296 0.75418 0.0
H349 H 0.52952 0.59639 0.69703 0.0
H350 H 0.46694 0.50015 0.93329 0.0
H351 H 0.43364 0.51119 0.92487 0.0
H352 H 0.43214 0.47703 0.87107 0.0
H353 H 0.55054 0.6429 0.77629 0.0
H354 H 0.5257 0.63736 0.85558 0.0
H355 H 0.56066 0.62848 0.85729 0.0
H356 H 0.46481 0.60259 0.06401 0.0
H357 H 0.54845 0.58075 0.07568 0.0
H358 H 0.43033 0.56323 0.90497 0.0
H359 H 0.46181 0.60606 0.87754 0.0
H360 H 0.43668 0.59996 0.9567 0.0
H361 H 0.53127 0.53417 0.92058 0.0
H362 H 0.56618 0.56054 0.98027 0.0
H363 H 0.56242 0.57765 0.89633 0.0
C364 C 0.11088 0.50751 0.05965 0.0
C365 C 0.14638 0.52159 0.04594 0.0
C366 C 0.09887 0.50746 0.12818 0.0
C367 C 0.1229 0.5209 0.18449 0.0
C368 C 0.15862 0.53369 0.1715 0.0
C369 C 0.16994 0.5339 0.10219 0.0
C370 C 0.06059 0.49343 0.14017 0.0
C371 C 0.18492 0.54761 0.23066 0.0
C372 C 0.10601 0.5559 0.35274 0.0
C373 C 0.09939 0.52929 0.40084 0.0
C374 C 0.11167 0.55264 0.28092 0.0
C375 C 0.111 0.52219 0.25708 0.0
C376 C 0.10189 0.49427 0.30435 0.0
C377 C 0.09592 0.49806 0.37571 0.0
C378 C 0.12054 0.58265 0.23153 0.0
C379 C 0.10099 0.46141 0.2809 0.0
H380 H 0.09235 0.49631 0.01694 0.0
H381 H 0.19733 0.54432 0.09176 0.0
H382 H 0.05048 0.47194 0.17925 0.0
H383 H 0.05635 0.51404 0.16254 0.0
H384 H 0.04531 0.48374 0.09061 0.0
H385 H 0.2115 0.55533 0.21208 0.0
H386 H 0.18541 0.57054 0.25487 0.0
H387 H 0.17751 0.52775 0.27281 0.0
H388 H 0.10838 0.57996 0.37175 0.0
H389 H 0.09074 0.4773 0.41251 0.0
H390 H 0.10482 0.57339 0.18251 0.0
H391 H 0.14822 0.59489 0.21584 0.0
H392 H 0.11616 0.60274 0.25639 0.0
H393 H 0.08625 0.45166 0.23088 0.0
H394 H 0.08918 0.44061 0.32152 0.0
H395 H 0.12784 0.46699 0.27058 0.0
C396 C 0.7597 0.1346 0.68544 0.0
C397 C 0.7807 0.12903 0.73272 0.0
C398 C 0.76815 0.14055 0.6134 0.0
C399 C 0.79838 0.14109 0.58843 0.0
C400 C 0.81813 0.1328 0.63478 0.0
C401 C 0.80891 0.12664 0.70642 0.0
C402 C 0.74606 0.14858 0.56505 0.0
C403 C 0.8505 0.13302 0.61003 0.0
C404 C 0.813 0.14258 0.3906 0.0
C405 C 0.83391 0.17825 0.37775 0.0
C406 C 0.80113 0.12999 0.45894 0.0
C407 C 0.81115 0.15363 0.51584 0.0
C408 C 0.83335 0.18958 0.50358 0.0
C409 C 0.84449 0.20146 0.4345 0.0
C410 C 0.77771 0.0915 0.47016 0.0
C411 C 0.84503 0.21552 0.56331 0.0
H412 H 0.73764 0.1361 0.70525 0.0
H413 H 0.82519 0.12213 0.74249 0.0
H414 H 0.76061 0.1764 0.54994 0.0
H415 H 0.73999 0.13321 0.51564 0.0
H416 H 0.72136 0.14312 0.59058 0.0
H417 H 0.86025 0.12164 0.64998 0.0
H418 H 0.84563 0.11844 0.55983 0.0
H419 H 0.87116 0.16014 0.59956 0.0
H420 H 0.80612 0.12438 0.34739 0.0
H421 H 0.86104 0.22899 0.42467 0.0
H422 H 0.75272 0.0864 0.4935 0.0
H423 H 0.78975 0.08164 0.50818 0.0
H424 H 0.77227 0.07661 0.42011 0.0
H425 H 0.82216 0.2148 0.58851 0.0
H426 H 0.86297 0.24244 0.54507 0.0
H427 H 0.85831 0.20867 0.6046 0.0
C428 C 0.8504 0.88319 0.78863 0.0
C429 C 0.86264 0.8715 0.73301 0.0
C430 C 0.85012 0.87212 0.85825 0.0
C431 C 0.86222 0.8487 0.87215 0.0
C432 C 0.8757 0.83776 0.81654 0.0
C433 C 0.87628 0.84979 0.74774 0.0
C434 C 0.83634 0.88502 0.91672 0.0
C435 C 0.88894 0.81292 0.82947 0.0
C436 C 0.88344 0.84316 0.06386 0.0
C437 C 0.85177 0.81572 0.08832 0.0
C438 C 0.88781 0.85336 -0.00731 0.0
C439 C 0.86005 0.83525 0.94487 0.0
C440 C 0.82905 0.80583 0.9681 0.0
C441 C 0.82519 0.79654 0.03981 0.0
C442 C 0.92116 0.88502 0.96998 0.0
C443 C 0.79922 0.78539 0.91808 0.0
H444 H 0.84036 0.90042 0.77747 0.0
H445 H 0.88753 0.84218 0.70561 0.0
H446 H 0.81292 0.8629 0.94053 0.0
H447 H 0.85596 0.897 0.95931 0.0
H448 H 0.82944 0.9044 0.89757 0.0
H449 H 0.89889 0.80719 0.78041 0.0
H450 H 0.91004 0.8238 0.86931 0.0
H451 H 0.86779 0.78817 0.85129 0.0
H452 H 0.90412 0.85817 0.10108 0.0
H453 H 0.80078 0.77514 0.05839 0.0
H454 H 0.91618 0.90666 0.95929 0.0
H455 H 0.93109 0.87991 0.9203 0.0
H456 H 0.94163 0.89354 0.01114 0.0
H457 H 0.78777 0.80147 0.90178 0.0
H458 H 0.77852 0.76113 0.94262 0.0
H459 H 0.80849 0.77863 0.86944 0.0
C460 C 0.24923 0.86796 0.35632 0.0
C461 C 0.25523 0.89469 0.40341 0.0
C462 C 0.24346 0.87062 0.28427 0.0
C463 C 0.24356 0.90063 0.25915 0.0
C464 C 0.25235 0.92881 0.30527 0.0
C465 C 0.25832 0.92559 0.37691 0.0
C466 C 0.2349 0.84035 0.23611 0.0
C467 C 0.2528 0.96128 0.28034 0.0
C468 C 0.242 0.91372 0.06136 0.0
C469 C 0.20638 0.8994 0.04906 0.0
C470 C 0.25461 0.9143 0.12954 0.0
C471 C 0.23103 0.90105 0.18674 0.0
C472 C 0.19514 0.88785 0.17495 0.0
C473 C 0.18324 0.88724 0.10601 0.0
C474 C 0.29303 0.92876 0.14026 0.0
C475 C 0.16929 0.87402 0.23503 0.0
H476 H 0.24721 0.84417 0.37629 0.0
H477 H 0.26322 0.94651 0.41283 0.0
H478 H 0.20707 0.82743 0.22138 0.0
H479 H 0.2502 0.84942 0.18648 0.0
H480 H 0.24003 0.82086 0.26165 0.0
H481 H 0.26458 0.98244 0.32007 0.0
H482 H 0.26734 0.97073 0.22995 0.0
H483 H 0.22583 0.95534 0.27017 0.0
H484 H 0.26007 0.92456 0.0176 0.0
H485 H 0.15577 0.87672 0.09641 0.0
H486 H 0.29772 0.90852 0.1632 0.0
H487 H 0.30327 0.95057 0.17843 0.0
H488 H 0.30788 0.93815 0.09006 0.0
H489 H 0.16962 0.85168 0.26036 0.0
H490 H 0.14244 0.86547 0.21709 0.0
H491 H 0.17653 0.89427 0.27612 0.0
C492 C 0.55502 0.39511 0.09487 0.0
C493 C 0.5257 0.36369 0.07691 0.0
C494 C 0.55154 0.42189 0.12549 0.0
C495 C 0.51794 0.4168 0.13803 0.0
C496 C 0.48833 0.38573 0.11588 0.0
C497 C 0.49261 0.35944 0.08555 0.0
C498 C 0.58368 0.45474 0.14813 0.0
C499 C 0.45211 0.37948 0.12781 0.0
C500 C 0.50523 0.46303 0.29337 0.0
C501 C 0.50325 0.49002 0.25958 0.0
C502 C 0.51039 0.43924 0.25428 0.0
C503 C 0.51355 0.44253 0.17968 0.0
C504 C 0.51172 0.46977 0.14522 0.0
C505 C 0.50667 0.49324 0.1856 0.0
C506 C 0.51222 0.41043 0.29278 0.0
C507 C 0.51494 0.47406 0.06578 0.0
H508 H 0.58054 0.39805 0.08812 0.0
H509 H 0.47007 0.33493 0.07131 0.0
H510 H 0.58279 0.47784 0.12894 0.0
H511 H 0.58488 0.45608 0.20676 0.0
H512 H 0.60778 0.45605 0.12815 0.0
H513 H 0.43212 0.3554 0.10161 0.0
H514 H 0.44651 0.37727 0.18539 0.0
H515 H 0.44986 0.40169 0.10761 0.0
H516 H 0.50271 0.46042 0.35042 0.0
H517 H 0.50529 0.51409 0.1589 0.0
H518 H 0.53719 0.4116 0.28095 0.0
H519 H 0.49117 0.38489 0.27413 0.0
H520 H 0.50983 0.41183 0.35103 0.0
H521 H 0.54058 0.47832 0.04842 0.0
H522 H 0.51209 0.49619 0.04711 0.0
H523 H 0.49489 0.45007 0.03959 0.0
C524 C 0.33771 0.51214 0.42713 0.0
C525 C 0.36678 0.54501 0.41751 0.0
C526 C 0.30713 0.50846 0.45638 0.0
C527 C 0.30585 0.53847 0.47606 0.0
C528 C 0.33463 0.57181 0.46263 0.0
C529 C 0.36489 0.57467 0.43336 0.0
C530 C 0.27689 0.47251 0.46948 0.0
C531 C 0.3341 0.60438 0.48251 0.0
C532 C 0.21884 0.53063 0.51674 0.0
C533 C 0.21822 0.5292 0.59105 0.0
C534 C 0.24712 0.5335 0.47846 0.0
C535 C 0.27543 0.53496 0.51537 0.0
C536 C 0.27489 0.53322 0.59023 0.0
C537 C 0.24627 0.53037 0.62721 0.0
C538 C 0.24681 0.53524 0.39864 0.0
C539 C 0.30467 0.53462 0.63131 0.0
H540 H 0.33941 0.48931 0.4142 0.0
H541 H 0.3876 0.60004 0.42583 0.0
H542 H 0.27301 0.4677 0.52728 0.0
H543 H 0.25269 0.47017 0.44763 0.0
H544 H 0.281 0.45205 0.44557 0.0
H545 H 0.35739 0.62817 0.46296 0.0
H546 H 0.31062 0.60369 0.46083 0.0
H547 H 0.33301 0.60601 0.54095 0.0
H548 H 0.19728 0.52972 0.48821 0.0
H549 H 0.24602 0.52927 0.68452 0.0
H550 H 0.2497 0.51393 0.37556 0.0
H551 H 0.26913 0.56 0.37997 0.0
H552 H 0.22255 0.53331 0.37797 0.0
H553 H 0.30897 0.5132 0.61449 0.0
H554 H 0.30005 0.5326 0.68934 0.0
H555 H 0.32888 0.55933 0.61995 0.0
C556 C 0.89944 0.25419 0.85094 0.0
C557 C 0.90083 0.25221 0.92498 0.0
C558 C 0.92416 0.28346 0.81384 0.0
C559 C 0.95098 0.31135 0.85165 0.0
C560 C 0.95291 0.30934 0.92616 0.0
C561 C 0.92777 0.2798 0.96198 0.0
C562 C 0.92131 0.28473 0.73436 0.0
C563 C 0.98133 0.33859 0.96816 0.0
C564 C 0.03431 0.377 0.76185 0.0
C565 C 0.0294 0.40559 0.75665 0.0
C566 C 0.00837 0.34557 0.79029 0.0
C567 C 0.97694 0.34293 0.81371 0.0
C568 C 0.97129 0.37133 0.80502 0.0
C569 C -0.00227 0.40247 0.77643 0.0
C570 C 0.01526 0.31579 0.79837 0.0
C571 C 0.93801 0.36938 0.82899 0.0
H572 H 0.87871 0.23303 0.82179 0.0
H573 H 0.92909 0.27848 0.01909 0.0
H574 H 0.91769 0.3068 0.71929 0.0
H575 H 0.94565 0.28912 0.70897 0.0
H576 H 0.89934 0.26048 0.71272 0.0
H577 H 0.97955 0.33266 0.02565 0.0
H578 H 0.00708 0.34404 0.94868 0.0
H579 H 0.97996 0.36261 0.96078 0.0
H580 H 0.05895 0.37971 0.74597 0.0
H581 H 0.99425 0.42484 0.77222 0.0
H582 H 0.9936 0.29175 0.77555 0.0
H583 H 0.01687 0.31079 0.85539 0.0
H584 H 0.03981 0.32113 0.7723 0.0
H585 H 0.91532 0.3461 0.80646 0.0
H586 H 0.93663 0.39272 0.8133 0.0
H587 H 0.93591 0.36685 0.88746 0.0
C588 C 0.803 0.03018 0.11358 0.0
C589 C 0.83267 0.06097 0.09374 0.0
C590 C 0.80582 0.0032 0.14529 0.0
C591 C 0.83913 0.00741 0.15712 0.0
C592 C 0.86907 0.0379 0.13368 0.0
C593 C 0.86543 0.06439 0.10206 0.0
C594 C 0.77331 0.97094 0.1691 0.0
C595 C 0.90499 0.04323 0.14502 0.0
C596 C 0.84953 0.95843 0.31068 0.0
C597 C 0.84994 0.93084 0.27594 0.0
C598 C 0.84602 0.98354 0.27248 0.0
C599 C 0.84279 0.98093 0.19786 0.0
C600 C 0.84324 0.95323 0.16243 0.0
C601 C 0.84687 0.92855 0.20186 0.0
C602 C 0.8457 0.01286 0.31197 0.0
C603 C 0.83987 0.94963 0.08292 0.0
H604 H 0.77772 0.02786 0.10702 0.0
H605 H 0.88826 0.08835 0.08616 0.0
H606 H 0.77308 0.94743 0.14892 0.0
H607 H 0.77278 0.96942 0.22773 0.0
H608 H 0.7494 0.97056 0.15085 0.0
H609 H 0.92532 0.06723 0.11898 0.0
H610 H 0.91063 0.04499 0.20253 0.0
H611 H 0.90658 0.02079 0.12423 0.0
H612 H 0.85188 0.96041 0.36779 0.0
H613 H 0.84714 0.90733 0.1744 0.0
H614 H 0.82103 0.01259 0.30169 0.0
H615 H 0.86708 0.03813 0.29279 0.0
H616 H 0.84859 0.01121 0.37001 0.0
H617 H 0.81547 0.94837 0.06553 0.0
H618 H 0.83992 0.92609 0.06369 0.0
H619 H 0.86159 0.97271 0.0573 0.0
C620 C 0.12906 0.88819 0.52529 0.0
C621 C 0.13156 0.89081 0.59938 0.0
C622 C 0.09955 0.88406 0.48999 0.0
C623 C 0.07194 0.88261 0.52971 0.0
C624 C 0.07441 0.8856 0.60434 0.0
C625 C 0.10419 0.88964 0.63831 0.0
C626 C 0.09777 0.88094 0.41032 0.0
C627 C 0.04546 0.88429 0.64837 0.0
C628 C 0.0063 0.9021 0.44597 0.0
C629 C 0.97754 0.86878 0.43981 0.0
C630 C 0.03775 0.90698 0.47288 0.0
C631 C 0.04025 0.87773 0.49362 0.0
C632 C 0.01164 0.8439 0.48401 0.0
C633 C 0.98048 0.83983 0.4571 0.0
C634 C 0.06774 0.94342 0.48205 0.0
C635 C 0.01345 0.81212 0.5051 0.0
H636 H 0.15006 0.88904 0.49467 0.0
H637 H 0.10591 0.89169 0.69548 0.0
H638 H 0.07535 0.85561 0.39469 0.0
H639 H 0.09365 0.90147 0.38693 0.0
H640 H 0.12171 0.88308 0.38716 0.0
H641 H 0.05165 0.88749 0.70577 0.0
H642 H 0.04012 0.90502 0.63128 0.0
H643 H 0.0213 0.85912 0.64029 0.0
H644 H 0.00378 0.92435 0.4318 0.0
H645 H 0.958 0.81411 0.45211 0.0
H646 H 0.09153 0.94598 0.45743 0.0
H647 H 0.07319 0.94916 0.53924 0.0
H648 H 0.06239 0.96313 0.45838 0.0
H649 H 0.0365 0.81283 0.48093 0.0
H650 H 0.98991 0.78771 0.48896 0.0
H651 H 0.0163 0.81173 0.56337 0.0
C652 C 0.35568 0.02139 0.76969 0.0
C653 C 0.32299 0.01753 0.75747 0.0
C654 C 0.38269 0.05254 0.79678 0.0
C655 C 0.37658 0.08023 0.81152 0.0
C656 C 0.34394 0.07685 0.79587 0.0
C657 C 0.31744 0.04539 0.76897 0.0
C658 C 0.41719 0.05525 0.81267 0.0
C659 C 0.33655 0.10588 0.81041 0.0
C660 C 0.43018 0.1428 0.95667 0.0
C661 C 0.45521 0.17108 0.9176 0.0
C662 C 0.40435 0.11313 0.92263 0.0
C663 C 0.4035 0.11177 0.84777 0.0
C664 C 0.42836 0.14035 0.80794 0.0
C665 C 0.45394 0.16967 0.84334 0.0
C666 C 0.37818 0.08308 0.96681 0.0
C667 C 0.42811 0.13983 0.72801 0.0
H668 H 0.35966 -0.00043 0.76069 0.0
H669 H 0.29199 0.04212 0.75898 0.0
H670 H 0.43857 0.079 0.78817 0.0
H671 H 0.42166 0.05739 0.87067 0.0
H672 H 0.41852 0.03241 0.79319 0.0
H673 H 0.31082 0.10008 0.78991 0.0
H674 H 0.33719 0.1103 0.86829 0.0
H675 H 0.35681 0.13038 0.78602 0.0
H676 H 0.43096 0.14364 0.01399 0.0
H677 H 0.47313 0.19141 0.81261 0.0
H678 H 0.37984 0.05953 0.95511 0.0
H679 H 0.35153 0.07715 0.95319 0.0
H680 H 0.38223 0.08841 0.02447 0.0
H681 H 0.43141 0.11813 0.70874 0.0
H682 H 0.449 0.16442 0.70488 0.0
H683 H 0.40275 0.13531 0.70805 0.0
loop_
_geom_bond_atom_site_label_1
_geom_bond_atom_site_label_2
_geom_bond_distance
_geom_bond_site_symmetry_2
_ccdc_geom_bond_type
Co0 O3 1.970 . S
Co0 N17 1.989 1_556 S
Co0 O25 1.967 . S
Co0 O32 1.920 . S
Co1 O4 1.966 . S
Co1 N10 2.022 . S
Co1 N18 1.993 . S
Co1 O26 1.941 . S
C2 O3 1.258 1_554 S
C2 O4 1.263 . S
O3 Co0 1.970 . S
O3 C2 1.258 1_556 S
O4 Co1 1.966 . S
O4 C2 1.263 . S
C5 O6 1.235 . S
C5 O32 1.289 . S
O6 C5 1.235 . S
C7 C9 1.400 . S
C7 N10 1.351 . S
C7 C12 1.501 . S
C8 C9 1.387 . S
C8 N11 1.341 . S
C9 C7 1.400 . S
C9 C8 1.387 . S
N10 Co1 2.022 . S
N10 C7 1.351 . S
N10 N11 1.365 . S
N11 C8 1.341 . S
N11 N10 1.365 . S
N11 H31 0.862 . S
C12 C7 1.501 . S
C12 H13 0.961 . S
C12 H14 0.961 . S
C12 H15 0.960 . S
H13 C12 0.961 . S
H14 C12 0.961 . S
H15 C12 0.960 . S
C16 N17 1.342 1_556 S
C16 C20 1.401 1_556 S
C16 C21 1.499 . S
N17 Co0 1.989 1_554 S
N17 C16 1.342 1_554 S
N17 N18 1.388 . S
N18 Co1 1.993 . S
N18 N17 1.388 . S
N18 C19 1.346 . S
C19 N18 1.346 . S
C19 C20 1.396 . S
C19 C29 1.510 . S
C20 C16 1.401 1_554 S
C20 C19 1.396 . S
C21 C16 1.499 . S
C21 H22 0.959 . S
C21 H23 0.960 . S
C21 H24 0.961 . S
H22 C21 0.959 . S
H23 C21 0.960 . S
H24 C21 0.961 . S
O25 Co0 1.967 . S
O25 C33 1.258 1_556 S
O26 Co1 1.941 . S
O26 C33 1.266 . S
H27 C29 0.959 . S
H28 C29 0.961 . S
C29 C19 1.510 . S
C29 H27 0.959 . S
C29 H28 0.961 . S
C29 H30 0.960 . S
H30 C29 0.960 . S
H31 N11 0.862 . S
O32 Co0 1.920 . S
O32 C5 1.289 . S
C33 O25 1.258 1_554 S
C33 O26 1.266 . S
Co34 O37 1.970 . S
Co34 N51 1.989 . S
Co34 O59 1.967 . S
Co34 O66 1.920 . S
Co35 O38 1.966 . S
Co35 N44 2.022 . S
Co35 N52 1.993 . S
Co35 O60 1.941 . S
C36 O37 1.258 . S
C36 O38 1.263 . S
O37 Co34 1.970 . S
O37 C36 1.258 . S
O38 Co35 1.966 . S
O38 C36 1.263 . S
C39 O40 1.235 . S
C39 O66 1.289 . S
O40 C39 1.235 . S
C41 C43 1.400 . S
C41 N44 1.351 . S
C41 C46 1.501 . S
C42 C43 1.387 . S
C42 N45 1.341 . S
C43 C41 1.400 . S
C43 C42 1.387 . S
N44 Co35 2.022 . S
N44 C41 1.351 . S
N44 N45 1.365 . S
N45 C42 1.341 . S
N45 N44 1.365 . S
N45 H65 0.862 . S
C46 C41 1.501 . S
C46 H47 0.961 . S
C46 H48 0.961 . S
C46 H49 0.960 . S
H47 C46 0.961 . S
H48 C46 0.961 . S
H49 C46 0.960 . S
C50 N51 1.342 . S
C50 C54 1.401 . S
C50 C55 1.499 . S
N51 Co34 1.989 . S
N51 C50 1.342 . S
N51 N52 1.388 . S
N52 Co35 1.993 . S
N52 N51 1.388 . S
N52 C53 1.346 . S
C53 N52 1.346 . S
C53 C54 1.396 . S
C53 C63 1.510 . S
C54 C50 1.401 . S
C54 C53 1.396 . S
C55 C50 1.499 . S
C55 H56 0.959 . S
C55 H57 0.960 . S
C55 H58 0.961 . S
H56 C55 0.959 . S
H57 C55 0.960 . S
H58 C55 0.961 . S
O59 Co34 1.967 . S
O59 C67 1.258 . S
O60 Co35 1.941 . S
O60 C67 1.266 . S
H61 C63 0.959 . S
H62 C63 0.961 . S
C63 C53 1.510 . S
C63 H61 0.959 . S
C63 H62 0.961 . S
C63 H64 0.960 . S
H64 C63 0.960 . S
H65 N45 0.862 . S
O66 Co34 1.920 . S
O66 C39 1.289 . S
C67 O59 1.258 . S
C67 O60 1.266 . S
Co68 O71 1.970 . S
Co68 N85 1.989 . S
Co68 O93 1.967 . S
Co68 O100 1.920 . S
Co69 O72 1.966 . S
Co69 N78 2.022 . S
Co69 N86 1.993 . S
Co69 O94 1.941 . S
C70 O71 1.258 . S
C70 O72 1.263 . S
O71 Co68 1.970 . S
O71 C70 1.258 . S
O72 Co69 1.966 . S
O72 C70 1.263 . S
C73 O74 1.235 . S
C73 O100 1.289 . S
O74 C73 1.235 . S
C75 C77 1.398 1_556 S
C75 N78 1.351 . S
C75 C80 1.501 . S
C76 C77 1.387 1_556 S
C76 N79 1.341 . S
C77 C75 1.398 1_554 S
C77 C76 1.387 1_554 S
N78 Co69 2.022 . S
N78 C75 1.351 . S
N78 N79 1.365 . S
N79 C76 1.341 . S
N79 N78 1.365 . S
N79 H99 0.862 . S
C80 C75 1.501 . S
C80 H81 0.961 . S
C80 H82 0.961 . S
C80 H83 0.960 . S
H81 C80 0.961 . S
H82 C80 0.961 . S
H83 C80 0.960 . S
C84 N85 1.342 . S
C84 C88 1.401 . S
C84 C89 1.499 . S
N85 Co68 1.989 . S
N85 C84 1.342 . S
N85 N86 1.388 . S
N86 Co69 1.993 . S
N86 N85 1.388 . S
N86 C87 1.346 . S
C87 N86 1.346 . S
C87 C88 1.396 . S
C87 C97 1.510 . S
C88 C84 1.401 . S
C88 C87 1.396 . S
C89 C84 1.499 . S
C89 H90 0.959 . S
C89 H91 0.960 . S
C89 H92 0.961 . S
H90 C89 0.959 . S
H91 C89 0.960 . S
H92 C89 0.961 . S
O93 Co68 1.967 . S
O93 C101 1.258 . S
O94 Co69 1.941 . S
O94 C101 1.266 . S
H95 C97 0.959 . S
H96 C97 0.961 . S
C97 C87 1.510 . S
C97 H95 0.959 . S
C97 H96 0.961 . S
C97 H98 0.960 . S
H98 C97 0.960 . S
H99 N79 0.862 . S
O100 Co68 1.920 . S
O100 C73 1.289 . S
C101 O93 1.258 . S
C101 O94 1.266 . S
Co102 O105 1.970 . S
Co102 N119 1.989 1_556 S
Co102 O127 1.967 . S
Co102 O134 1.920 . S
Co103 O106 1.966 . S
Co103 N112 2.022 . S
Co103 N120 1.993 . S
Co103 O128 1.941 . S
C104 O105 1.258 1_554 S
C104 O106 1.263 . S
O105 Co102 1.970 . S
O105 C104 1.258 1_556 S
O106 Co103 1.966 . S
O106 C104 1.263 . S
C107 O108 1.235 . S
C107 O134 1.289 . S
O108 C107 1.235 . S
C109 C111 1.400 . S
C109 N112 1.351 . S
C109 C114 1.501 . S
C110 C111 1.387 . S
C110 N113 1.341 . S
C111 C109 1.400 . S
C111 C110 1.387 . S
N112 Co103 2.022 . S
N112 C109 1.351 . S
N112 N113 1.365 . S
N113 C110 1.341 . S
N113 N112 1.365 . S
N113 H133 0.862 . S
C114 C109 1.501 . S
C114 H115 0.961 . S
C114 H116 0.961 . S
C114 H117 0.960 . S
H115 C114 0.961 . S
H116 C114 0.961 . S
H117 C114 0.960 . S
C118 N119 1.342 1_556 S
C118 C122 1.401 1_556 S
C118 C123 1.499 . S
N119 Co102 1.989 1_554 S
N119 C118 1.342 1_554 S
N119 N120 1.388 . S
N120 Co103 1.993 . S
N120 N119 1.388 . S
N120 C121 1.346 . S
C121 N120 1.346 . S
C121 C122 1.396 . S
C121 C131 1.510 . S
C122 C118 1.401 1_554 S
C122 C121 1.396 . S
C123 C118 1.499 . S
C123 H124 0.959 . S
C123 H125 0.960 . S
C123 H126 0.961 . S
H124 C123 0.959 . S
H125 C123 0.960 . S
H126 C123 0.961 . S
O127 Co102 1.967 . S
O127 C135 1.258 1_556 S
O128 Co103 1.941 . S
O128 C135 1.266 . S
H129 C131 0.959 . S
H130 C131 0.961 . S
C131 C121 1.510 . S
C131 H129 0.959 . S
C131 H130 0.961 . S
C131 H132 0.960 . S
H132 C131 0.960 . S
H133 N113 0.862 . S
O134 Co102 1.920 . S
O134 C107 1.289 . S
C135 O127 1.258 1_554 S
C135 O128 1.266 . S
Co136 O139 1.970 . S
Co136 N153 1.989 . S
Co136 O161 1.967 . S
Co136 O168 1.920 . S
Co137 O140 1.966 . S
Co137 N146 2.022 . S
Co137 N154 1.993 . S
Co137 O162 1.941 . S
C138 O139 1.258 . S
C138 O140 1.263 . S
O139 Co136 1.970 . S
O139 C138 1.258 . S
O140 Co137 1.966 . S
O140 C138 1.263 . S
C141 O142 1.235 . S
C141 O168 1.289 . S
O142 C141 1.235 . S
C143 C145 1.400 . S
C143 N146 1.351 . S
C143 C148 1.501 . S
C144 C145 1.387 . S
C144 N147 1.341 . S
C145 C143 1.400 . S
C145 C144 1.387 . S
N146 Co137 2.022 . S
N146 C143 1.351 . S
N146 N147 1.365 . S
N147 C144 1.341 . S
N147 N146 1.365 . S
N147 H167 0.862 . S
C148 C143 1.501 . S
C148 H149 0.961 . S
C148 H150 0.961 . S
C148 H151 0.960 . S
H149 C148 0.961 . S
H150 C148 0.961 . S
H151 C148 0.960 . S
C152 N153 1.342 . S
C152 C156 1.401 . S
C152 C157 1.499 . S
N153 Co136 1.989 . S
N153 C152 1.342 . S
N153 N154 1.388 . S
N154 Co137 1.993 . S
N154 N153 1.388 . S
N154 C155 1.346 . S
C155 N154 1.346 . S
C155 C156 1.396 . S
C155 C165 1.510 . S
C156 C152 1.401 . S
C156 C155 1.396 . S
C157 C152 1.499 . S
C157 H158 0.959 . S
C157 H159 0.960 . S
C157 H160 0.961 . S
H158 C157 0.959 . S
H159 C157 0.960 . S
H160 C157 0.961 . S
O161 Co136 1.967 . S
O161 C169 1.258 . S
O162 Co137 1.941 . S
O162 C169 1.266 . S
H163 C165 0.959 . S
H164 C165 0.961 . S
C165 C155 1.510 . S
C165 H163 0.959 . S
C165 H164 0.961 . S
C165 H166 0.960 . S
H166 C165 0.960 . S
H167 N147 0.862 . S
O168 Co136 1.920 . S
O168 C141 1.289 . S
C169 O161 1.258 . S
C169 O162 1.266 . S
Co170 O173 1.970 . S
Co170 N187 1.989 . S
Co170 O195 1.967 . S
Co170 O202 1.920 . S
Co171 O174 1.966 . S
Co171 N180 2.022 . S
Co171 N188 1.993 . S
Co171 O196 1.941 . S
C172 O173 1.258 . S
C172 O174 1.263 . S
O173 Co170 1.970 . S
O173 C172 1.258 . S
O174 Co171 1.966 . S
O174 C172 1.263 . S
C175 O176 1.235 . S
C175 O202 1.289 . S
O176 C175 1.235 . S
C177 C179 1.398 1_556 S
C177 N180 1.351 . S
C177 C182 1.501 . S
C178 C179 1.387 1_556 S
C178 N181 1.341 . S
C179 C177 1.398 1_554 S
C179 C178 1.387 1_554 S
N180 Co171 2.022 . S
N180 C177 1.351 . S
N180 N181 1.365 . S
N181 C178 1.341 . S
N181 N180 1.365 . S
N181 H201 0.862 . S
C182 C177 1.501 . S
C182 H183 0.961 . S
C182 H184 0.961 . S
C182 H185 0.960 . S
H183 C182 0.961 . S
H184 C182 0.961 . S
H185 C182 0.960 . S
C186 N187 1.342 . S
C186 C190 1.401 . S
C186 C191 1.499 . S
N187 Co170 1.989 . S
N187 C186 1.342 . S
N187 N188 1.388 . S
N188 Co171 1.993 . S
N188 N187 1.388 . S
N188 C189 1.346 . S
C189 N188 1.346 . S
C189 C190 1.396 . S
C189 C199 1.510 . S
C190 C186 1.401 . S
C190 C189 1.396 . S
C191 C186 1.499 . S
C191 H192 0.959 . S
C191 H193 0.960 . S
C191 H194 0.961 1_565 S
H192 C191 0.959 . S
H193 C191 0.960 . S
H194 C191 0.961 1_545 S
O195 Co170 1.967 . S
O195 C203 1.258 . S
O196 Co171 1.941 . S
O196 C203 1.266 . S
H197 C199 0.959 . S
H198 C199 0.961 . S
C199 C189 1.510 . S
C199 H197 0.959 . S
C199 H198 0.961 . S
C199 H200 0.960 . S
H200 C199 0.960 . S
H201 N181 0.862 . S
O202 Co170 1.920 . S
O202 C175 1.289 . S
C203 O195 1.258 . S
C203 O196 1.266 . S
C204 C205 1.391 1_556 S
C204 C206 1.394 . S
C204 H220 0.931 . S
C205 C204 1.391 1_554 S
C205 C209 1.376 . S
C206 C204 1.394 . S
C206 C207 1.369 1_556 S
C206 C210 1.531 . S
C207 C206 1.369 1_554 S
C207 C208 1.410 . S
C207 C215 1.503 . S
C208 C207 1.410 . S
C208 C209 1.392 . S
C208 C211 1.511 . S
C209 C205 1.376 . S
C209 C208 1.392 . S
C209 H221 0.929 . S
C210 C206 1.531 . S
C210 H222 0.960 . S
C210 H223 0.962 . S
C210 H224 0.960 . S
C211 C208 1.511 . S
C211 H225 0.961 . S
C211 H226 0.961 . S
C211 H227 0.961 . S
C212 C213 1.370 . S
C212 C214 1.363 . S
C212 H228 0.931 . S
C213 C212 1.370 . S
C213 C217 1.408 1_554 S
C214 C212 1.363 . S
C214 C215 1.370 . S
C214 C218 1.524 . S
C215 C207 1.503 . S
C215 C214 1.370 . S
C215 C216 1.403 1_554 S
C216 C215 1.403 1_556 S
C216 C217 1.404 . S
C216 C219 1.539 . S
C217 C213 1.408 1_556 S
C217 C216 1.404 . S
C217 H229 0.930 . S
C218 C214 1.524 . S
C218 H230 0.956 . S
C218 H231 0.961 . S
C218 H232 0.961 . S
C219 C216 1.539 . S
C219 H233 0.958 . S
C219 H234 0.961 . S
C219 H235 0.960 . S
H220 C204 0.931 . S
H221 C209 0.929 . S
H222 C210 0.960 . S
H223 C210 0.962 . S
H224 C210 0.960 . S
H225 C211 0.961 . S
H226 C211 0.961 . S
H227 C211 0.961 . S
H228 C212 0.931 . S
H229 C217 0.930 . S
H230 C218 0.956 . S
H231 C218 0.961 . S
H232 C218 0.961 . S
H233 C219 0.958 . S
H234 C219 0.961 . S
H235 C219 0.960 . S
C236 C237 1.391 . S
C236 C238 1.394 . S
C236 H252 0.931 . S
C237 C236 1.391 . S
C237 C241 1.376 . S
C238 C236 1.394 . S
C238 C239 1.369 . S
C238 C242 1.531 . S
C239 C238 1.369 . S
C239 C240 1.410 . S
C239 C247 1.503 . S
C240 C239 1.410 . S
C240 C241 1.392 . S
C240 C243 1.511 . S
C241 C237 1.376 . S
C241 C240 1.392 . S
C241 H253 0.929 . S
C242 C238 1.531 . S
C242 H254 0.960 . S
C242 H255 0.962 . S
C242 H256 0.960 . S
C243 C240 1.511 . S
C243 H257 0.961 . S
C243 H258 0.961 . S
C243 H259 0.961 . S
C244 C245 1.370 . S
C244 C246 1.363 . S
C244 H260 0.931 . S
C245 C244 1.370 . S
C245 C249 1.408 . S
C246 C244 1.363 . S
C246 C247 1.370 . S
C246 C250 1.524 . S
C247 C239 1.503 . S
C247 C246 1.370 . S
C247 C248 1.403 . S
C248 C247 1.403 . S
C248 C249 1.404 . S
C248 C251 1.539 . S
C249 C245 1.408 . S
C249 C248 1.404 . S
C249 H261 0.930 . S
C250 C246 1.524 . S
C250 H262 0.956 . S
C250 H263 0.961 . S
C250 H264 0.961 . S
C251 C248 1.539 . S
C251 H265 0.958 . S
C251 H266 0.961 . S
C251 H267 0.960 . S
H252 C236 0.931 . S
H253 C241 0.929 . S
H254 C242 0.960 . S
H255 C242 0.962 . S
H256 C242 0.960 . S
H257 C243 0.961 . S
H258 C243 0.961 . S
H259 C243 0.961 . S
H260 C244 0.931 . S
H261 C249 0.930 . S
H262 C250 0.956 . S
H263 C250 0.961 . S
H264 C250 0.961 . S
H265 C251 0.958 . S
H266 C251 0.961 . S
H267 C251 0.960 . S
C268 C269 1.391 . S
C268 C270 1.394 . S
C268 H284 0.931 . S
C269 C268 1.391 . S
C269 C273 1.376 . S
C270 C268 1.394 . S
C270 C271 1.369 . S
C270 C274 1.531 . S
C271 C270 1.369 . S
C271 C272 1.410 . S
C271 C279 1.503 . S
C272 C271 1.410 . S
C272 C273 1.392 . S
C272 C275 1.511 . S
C273 C269 1.376 . S
C273 C272 1.392 . S
C273 H285 0.929 . S
C274 C270 1.531 . S
C274 H286 0.960 . S
C274 H287 0.962 . S
C274 H288 0.960 . S
C275 C272 1.511 . S
C275 H289 0.961 . S
C275 H290 0.961 . S
C275 H291 0.961 . S
C276 C277 1.370 . S
C276 C278 1.363 . S
C276 H292 0.931 . S
C277 C276 1.370 . S
C277 C281 1.408 . S
C278 C276 1.363 . S
C278 C279 1.370 . S
C278 C282 1.524 . S
C279 C271 1.503 . S
C279 C278 1.370 . S
C279 C280 1.403 . S
C280 C279 1.403 . S
C280 C281 1.404 . S
C280 C283 1.539 . S
C281 C277 1.408 . S
C281 C280 1.404 . S
C281 H293 0.930 . S
C282 C278 1.524 . S
C282 H294 0.956 . S
C282 H295 0.961 . S
C282 H296 0.961 . S
C283 C280 1.539 . S
C283 H297 0.958 . S
C283 H298 0.961 . S
C283 H299 0.960 . S
H284 C268 0.931 . S
H285 C273 0.929 . S
H286 C274 0.960 . S
H287 C274 0.962 . S
H288 C274 0.960 . S
H289 C275 0.961 . S
H290 C275 0.961 . S
H291 C275 0.961 . S
H292 C276 0.931 . S
H293 C281 0.930 . S
H294 C282 0.956 . S
H295 C282 0.961 . S
H296 C282 0.961 . S
H297 C283 0.958 . S
H298 C283 0.961 . S
H299 C283 0.960 . S
C300 C301 1.391 . S
C300 C302 1.394 . S
C300 H316 0.931 . S
C301 C300 1.391 . S
C301 C305 1.376 . S
C302 C300 1.394 . S
C302 C303 1.369 . S
C302 C306 1.531 . S
C303 C302 1.369 . S
C303 C304 1.410 . S
C303 C311 1.503 . S
C304 C303 1.410 . S
C304 C305 1.392 . S
C304 C307 1.511 . S
C305 C301 1.376 . S
C305 C304 1.392 . S
C305 H317 0.929 . S
C306 C302 1.531 . S
C306 H318 0.960 . S
C306 H319 0.962 . S
C306 H320 0.960 . S
C307 C304 1.511 . S
C307 H321 0.961 . S
C307 H322 0.961 . S
C307 H323 0.961 . S
C308 C309 1.370 . S
C308 C310 1.363 . S
C308 H324 0.931 . S
C309 C308 1.370 . S
C309 C313 1.408 . S
C310 C308 1.363 . S
C310 C311 1.370 . S
C310 C314 1.524 . S
C311 C303 1.503 . S
C311 C310 1.370 . S
C311 C312 1.403 . S
C312 C311 1.403 . S
C312 C313 1.404 . S
C312 C315 1.539 . S
C313 C309 1.408 . S
C313 C312 1.404 . S
C313 H325 0.930 . S
C314 C310 1.524 . S
C314 H326 0.956 . S
C314 H327 0.961 . S
C314 H328 0.961 . S
C315 C312 1.539 . S
C315 H329 0.958 . S
C315 H330 0.961 . S
C315 H331 0.960 . S
H316 C300 0.931 . S
H317 C305 0.929 . S
H318 C306 0.960 . S
H319 C306 0.962 . S
H320 C306 0.960 . S
H321 C307 0.961 . S
H322 C307 0.961 . S
H323 C307 0.961 . S
H324 C308 0.931 . S
H325 C313 0.930 . S
H326 C314 0.956 . S
H327 C314 0.961 . S
H328 C314 0.961 . S
H329 C315 0.958 . S
H330 C315 0.961 . S
H331 C315 0.960 . S
C332 C333 1.391 . S
C332 C334 1.394 . S
C332 H348 0.931 . S
C333 C332 1.391 . S
C333 C337 1.376 . S
C334 C332 1.394 . S
C334 C335 1.369 . S
C334 C338 1.531 . S
C335 C334 1.369 . S
C335 C336 1.410 . S
C335 C343 1.503 . S
C336 C335 1.410 . S
C336 C337 1.392 . S
C336 C339 1.511 . S
C337 C333 1.376 . S
C337 C336 1.392 . S
C337 H349 0.929 . S
C338 C334 1.531 . S
C338 H350 0.960 . S
C338 H351 0.962 . S
C338 H352 0.960 . S
C339 C336 1.511 . S
C339 H353 0.961 . S
C339 H354 0.961 . S
C339 H355 0.961 . S
C340 C341 1.370 . S
C340 C342 1.363 1_554 S
C340 H356 0.931 . S
C341 C340 1.370 . S
C341 C345 1.408 . S
C342 C340 1.363 1_556 S
C342 C343 1.370 . S
C342 C346 1.524 . S
C343 C335 1.503 . S
C343 C342 1.370 . S
C343 C344 1.403 . S
C344 C343 1.403 . S
C344 C345 1.404 1_556 S
C344 C347 1.539 . S
C345 C341 1.408 . S
C345 C344 1.404 1_554 S
C345 H357 0.930 . S
C346 C342 1.524 . S
C346 H358 0.956 . S
C346 H359 0.961 . S
C346 H360 0.961 . S
C347 C344 1.539 . S
C347 H361 0.958 . S
C347 H362 0.961 1_556 S
C347 H363 0.960 . S
H348 C332 0.931 . S
H349 C337 0.929 . S
H350 C338 0.960 . S
H351 C338 0.962 . S
H352 C338 0.960 . S
H353 C339 0.961 . S
H354 C339 0.961 . S
H355 C339 0.961 . S
H356 C340 0.931 . S
H357 C345 0.930 . S
H358 C346 0.956 . S
H359 C346 0.961 . S
H360 C346 0.961 . S
H361 C347 0.958 . S
H362 C347 0.961 1_554 S
H363 C347 0.960 . S
C364 C365 1.391 . S
C364 C366 1.394 . S
C364 H380 0.931 . S
C365 C364 1.391 . S
C365 C369 1.376 . S
C366 C364 1.394 . S
C366 C367 1.369 . S
C366 C370 1.531 . S
C367 C366 1.369 . S
C367 C368 1.410 . S
C367 C375 1.503 . S
C368 C367 1.410 . S
C368 C369 1.392 . S
C368 C371 1.511 . S
C369 C365 1.376 . S
C369 C368 1.392 . S
C369 H381 0.929 . S
C370 C366 1.531 . S
C370 H382 0.960 . S
C370 H383 0.962 . S
C370 H384 0.960 . S
C371 C368 1.511 . S
C371 H385 0.961 . S
C371 H386 0.961 . S
C371 H387 0.961 . S
C372 C373 1.370 . S
C372 C374 1.363 . S
C372 H388 0.931 . S
C373 C372 1.370 . S
C373 C377 1.408 . S
C374 C372 1.363 . S
C374 C375 1.370 . S
C374 C378 1.524 . S
C375 C367 1.503 . S
C375 C374 1.370 . S
C375 C376 1.403 . S
C376 C375 1.403 . S
C376 C377 1.404 . S
C376 C379 1.539 . S
C377 C373 1.408 . S
C377 C376 1.404 . S
C377 H389 0.930 . S
C378 C374 1.524 . S
C378 H390 0.956 . S
C378 H391 0.961 . S
C378 H392 0.961 . S
C379 C376 1.539 . S
C379 H393 0.958 . S
C379 H394 0.961 . S
C379 H395 0.960 . S
H380 C364 0.931 . S
H381 C369 0.929 . S
H382 C370 0.960 . S
H383 C370 0.962 . S
H384 C370 0.960 . S
H385 C371 0.961 . S
H386 C371 0.961 . S
H387 C371 0.961 . S
H388 C372 0.931 . S
H389 C377 0.930 . S
H390 C378 0.956 . S
H391 C378 0.961 . S
H392 C378 0.961 . S
H393 C379 0.958 . S
H394 C379 0.961 . S
H395 C379 0.960 . S
C396 C397 1.391 . S
C396 C398 1.394 . S
C396 H412 0.931 . S
C397 C396 1.391 . S
C397 C401 1.376 . S
C398 C396 1.394 . S
C398 C399 1.369 . S
C398 C402 1.531 . S
C399 C398 1.369 . S
C399 C400 1.410 . S
C399 C407 1.503 . S
C400 C399 1.410 . S
C400 C401 1.392 . S
C400 C403 1.511 . S
C401 C397 1.376 . S
C401 C400 1.392 . S
C401 H413 0.929 . S
C402 C398 1.531 . S
C402 H414 0.960 . S
C402 H415 0.962 . S
C402 H416 0.960 . S
C403 C400 1.511 . S
C403 H417 0.961 . S
C403 H418 0.961 . S
C403 H419 0.961 . S
C404 C405 1.370 . S
C404 C406 1.363 . S
C404 H420 0.931 . S
C405 C404 1.370 . S
C405 C409 1.408 . S
C406 C404 1.363 . S
C406 C407 1.370 . S
C406 C410 1.524 . S
C407 C399 1.503 . S
C407 C406 1.370 . S
C407 C408 1.403 . S
C408 C407 1.403 . S
C408 C409 1.404 . S
C408 C411 1.539 . S
C409 C405 1.408 . S
C409 C408 1.404 . S
C409 H421 0.930 . S
C410 C406 1.524 . S
C410 H422 0.956 . S
C410 H423 0.961 . S
C410 H424 0.961 . S
C411 C408 1.539 . S
C411 H425 0.958 . S
C411 H426 0.961 . S
C411 H427 0.960 . S
H412 C396 0.931 . S
H413 C401 0.929 . S
H414 C402 0.960 . S
H415 C402 0.962 . S
H416 C402 0.960 . S
H417 C403 0.961 . S
H418 C403 0.961 . S
H419 C403 0.961 . S
H420 C404 0.931 . S
H421 C409 0.930 . S
H422 C410 0.956 . S
H423 C410 0.961 . S
H424 C410 0.961 . S
H425 C411 0.958 . S
H426 C411 0.961 . S
H427 C411 0.960 . S
C428 C429 1.391 . S
C428 C430 1.394 . S
C428 H444 0.931 . S
C429 C428 1.391 . S
C429 C433 1.376 . S
C430 C428 1.394 . S
C430 C431 1.369 . S
C430 C434 1.531 . S
C431 C430 1.369 . S
C431 C432 1.410 . S
C431 C439 1.503 . S
C432 C431 1.410 . S
C432 C433 1.392 . S
C432 C435 1.511 . S
C433 C429 1.376 . S
C433 C432 1.392 . S
C433 H445 0.929 . S
C434 C430 1.531 . S
C434 H446 0.960 . S
C434 H447 0.962 . S
C434 H448 0.960 . S
C435 C432 1.511 . S
C435 H449 0.961 . S
C435 H450 0.961 . S
C435 H451 0.961 . S
C436 C437 1.370 . S
C436 C438 1.363 1_554 S
C436 H452 0.931 . S
C437 C436 1.370 . S
C437 C441 1.408 . S
C438 C436 1.363 1_556 S
C438 C439 1.370 . S
C438 C442 1.524 . S
C439 C431 1.503 . S
C439 C438 1.370 . S
C439 C440 1.403 . S
C440 C439 1.403 . S
C440 C441 1.404 1_556 S
C440 C443 1.539 . S
C441 C437 1.408 . S
C441 C440 1.404 1_554 S
C441 H453 0.930 . S
C442 C438 1.524 . S
C442 H454 0.956 . S
C442 H455 0.961 . S
C442 H456 0.961 . S
C443 C440 1.539 . S
C443 H457 0.958 . S
C443 H458 0.961 . S
C443 H459 0.960 . S
H444 C428 0.931 . S
H445 C433 0.929 . S
H446 C434 0.960 . S
H447 C434 0.962 . S
H448 C434 0.960 . S
H449 C435 0.961 . S
H450 C435 0.961 . S
H451 C435 0.961 . S
H452 C436 0.931 . S
H453 C441 0.930 . S
H454 C442 0.956 . S
H455 C442 0.961 . S
H456 C442 0.961 . S
H457 C443 0.958 . S
H458 C443 0.961 . S
H459 C443 0.960 . S
C460 C461 1.391 . S
C460 C462 1.394 . S
C460 H476 0.931 . S
C461 C460 1.391 . S
C461 C465 1.376 . S
C462 C460 1.394 . S
C462 C463 1.369 . S
C462 C466 1.531 . S
C463 C462 1.369 . S
C463 C464 1.410 . S
C463 C471 1.503 . S
C464 C463 1.410 . S
C464 C465 1.392 . S
C464 C467 1.511 . S
C465 C461 1.376 . S
C465 C464 1.392 . S
C465 H477 0.929 . S
C466 C462 1.531 . S
C466 H478 0.960 . S
C466 H479 0.962 . S
C466 H480 0.960 . S
C467 C464 1.511 . S
C467 H481 0.961 . S
C467 H482 0.961 . S
C467 H483 0.961 . S
C468 C469 1.370 . S
C468 C470 1.363 . S
C468 H484 0.931 . S
C469 C468 1.370 . S
C469 C473 1.408 . S
C470 C468 1.363 . S
C470 C471 1.370 . S
C470 C474 1.524 . S
C471 C463 1.503 . S
C471 C470 1.370 . S
C471 C472 1.403 . S
C472 C471 1.403 . S
C472 C473 1.404 . S
C472 C475 1.539 . S
C473 C469 1.408 . S
C473 C472 1.404 . S
C473 H485 0.930 . S
C474 C470 1.524 . S
C474 H486 0.956 . S
C474 H487 0.961 . S
C474 H488 0.961 . S
C475 C472 1.539 . S
C475 H489 0.958 . S
C475 H490 0.961 . S
C475 H491 0.960 . S
H476 C460 0.931 . S
H477 C465 0.929 . S
H478 C466 0.960 . S
H479 C466 0.962 . S
H480 C466 0.960 . S
H481 C467 0.961 . S
H482 C467 0.961 . S
H483 C467 0.961 . S
H484 C468 0.931 . S
H485 C473 0.930 . S
H486 C474 0.956 . S
H487 C474 0.961 . S
H488 C474 0.961 . S
H489 C475 0.958 . S
H490 C475 0.961 . S
H491 C475 0.960 . S
C492 C493 1.391 . S
C492 C494 1.394 . S
C492 H508 0.931 . S
C493 C492 1.391 . S
C493 C497 1.376 . S
C494 C492 1.394 . S
C494 C495 1.369 . S
C494 C498 1.531 . S
C495 C494 1.369 . S
C495 C496 1.410 . S
C495 C503 1.503 . S
C496 C495 1.410 . S
C496 C497 1.392 . S
C496 C499 1.511 . S
C497 C493 1.376 . S
C497 C496 1.392 . S
C497 H509 0.929 . S
C498 C494 1.531 . S
C498 H510 0.960 . S
C498 H511 0.962 . S
C498 H512 0.960 . S
C499 C496 1.511 . S
C499 H513 0.961 . S
C499 H514 0.961 . S
C499 H515 0.961 . S
C500 C501 1.370 . S
C500 C502 1.363 . S
C500 H516 0.931 . S
C501 C500 1.370 . S
C501 C505 1.408 . S
C502 C500 1.363 . S
C502 C503 1.370 . S
C502 C506 1.524 . S
C503 C495 1.503 . S
C503 C502 1.370 . S
C503 C504 1.403 . S
C504 C503 1.403 . S
C504 C505 1.404 . S
C504 C507 1.539 . S
C505 C501 1.408 . S
C505 C504 1.404 . S
C505 H517 0.930 . S
C506 C502 1.524 . S
C506 H518 0.956 . S
C506 H519 0.961 . S
C506 H520 0.961 . S
C507 C504 1.539 . S
C507 H521 0.958 . S
C507 H522 0.961 . S
C507 H523 0.960 . S
H508 C492 0.931 . S
H509 C497 0.929 . S
H510 C498 0.960 . S
H511 C498 0.962 . S
H512 C498 0.960 . S
H513 C499 0.961 . S
H514 C499 0.961 . S
H515 C499 0.961 . S
H516 C500 0.931 . S
H517 C505 0.930 . S
H518 C506 0.956 . S
H519 C506 0.961 . S
H520 C506 0.961 . S
H521 C507 0.958 . S
H522 C507 0.961 . S
H523 C507 0.960 . S
C524 C525 1.391 . S
C524 C526 1.394 . S
C524 H540 0.931 . S
C525 C524 1.391 . S
C525 C529 1.376 . S
C526 C524 1.394 . S
C526 C527 1.369 . S
C526 C530 1.531 . S
C527 C526 1.369 . S
C527 C528 1.410 . S
C527 C535 1.503 . S
C528 C527 1.410 . S
C528 C529 1.392 . S
C528 C531 1.511 . S
C529 C525 1.376 . S
C529 C528 1.392 . S
C529 H541 0.929 . S
C530 C526 1.531 . S
C530 H542 0.960 . S
C530 H543 0.962 . S
C530 H544 0.960 . S
C531 C528 1.511 . S
C531 H545 0.961 . S
C531 H546 0.961 . S
C531 H547 0.961 . S
C532 C533 1.370 . S
C532 C534 1.363 . S
C532 H548 0.931 . S
C533 C532 1.370 . S
C533 C537 1.408 . S
C534 C532 1.363 . S
C534 C535 1.370 . S
C534 C538 1.524 . S
C535 C527 1.503 . S
C535 C534 1.370 . S
C535 C536 1.403 . S
C536 C535 1.403 . S
C536 C537 1.404 . S
C536 C539 1.539 . S
C537 C533 1.408 . S
C537 C536 1.404 . S
C537 H549 0.930 . S
C538 C534 1.524 . S
C538 H550 0.956 . S
C538 H551 0.961 . S
C538 H552 0.961 . S
C539 C536 1.539 . S
C539 H553 0.958 . S
C539 H554 0.961 . S
C539 H555 0.960 . S
H540 C524 0.931 . S
H541 C529 0.929 . S
H542 C530 0.960 . S
H543 C530 0.962 . S
H544 C530 0.960 . S
H545 C531 0.961 . S
H546 C531 0.961 . S
H547 C531 0.961 . S
H548 C532 0.931 . S
H549 C537 0.930 . S
H550 C538 0.956 . S
H551 C538 0.961 . S
H552 C538 0.961 . S
H553 C539 0.958 . S
H554 C539 0.961 . S
H555 C539 0.960 . S
C556 C557 1.391 . S
C556 C558 1.394 . S
C556 H572 0.931 . S
C557 C556 1.391 . S
C557 C561 1.376 . S
C558 C556 1.394 . S
C558 C559 1.369 . S
C558 C562 1.531 . S
C559 C558 1.369 . S
C559 C560 1.410 . S
C559 C567 1.503 . S
C560 C559 1.410 . S
C560 C561 1.392 . S
C560 C563 1.511 . S
C561 C557 1.376 . S
C561 C560 1.392 . S
C561 H573 0.929 . S
C562 C558 1.531 . S
C562 H574 0.960 . S
C562 H575 0.962 . S
C562 H576 0.960 . S
C563 C560 1.511 . S
C563 H577 0.961 . S
C563 H578 0.965 . S
C563 H579 0.961 1_655 S
C564 C565 1.370 1_655 S
C564 C566 1.363 . S
C564 H580 0.931 . S
C565 C564 1.370 1_455 S
C565 C569 1.408 . S
C566 C564 1.363 . S
C566 C567 1.370 . S
C566 C570 1.524 . S
C567 C559 1.503 . S
C567 C566 1.370 . S
C567 C568 1.403 . S
C568 C567 1.403 . S
C568 C569 1.404 1_655 S
C568 C571 1.539 1_655 S
C569 C565 1.408 . S
C569 C568 1.404 1_455 S
C569 H581 0.930 . S
C570 C566 1.524 . S
C570 H582 0.956 . S
C570 H583 0.961 . S
C570 H584 0.961 . S
C571 C568 1.539 1_455 S
C571 H585 0.958 1_455 S
C571 H586 0.961 . S
C571 H587 0.960 1_455 S
H572 C556 0.931 . S
H573 C561 0.929 . S
H574 C562 0.960 . S
H575 C562 0.962 . S
H576 C562 0.960 . S
H577 C563 0.961 . S
H578 C563 0.965 . S
H579 C563 0.961 1_455 S
H580 C564 0.931 . S
H581 C569 0.930 . S
H582 C570 0.956 . S
H583 C570 0.961 . S
H584 C570 0.961 . S
H585 C571 0.958 1_655 S
H586 C571 0.961 . S
H587 C571 0.960 1_655 S
C588 C589 1.391 . S
C588 C590 1.394 1_545 S
C588 H604 0.931 . S
C589 C588 1.391 . S
C589 C593 1.376 . S
C590 C588 1.394 1_565 S
C590 C591 1.369 . S
C590 C594 1.531 . S
C591 C590 1.369 . S
C591 C592 1.410 1_565 S
C591 C599 1.503 . S
C592 C591 1.410 1_545 S
C592 C593 1.392 . S
C592 C595 1.511 . S
C593 C589 1.376 . S
C593 C592 1.392 . S
C593 H605 0.929 . S
C594 C590 1.531 . S
C594 H606 0.960 . S
C594 H607 0.962 . S
C594 H608 0.960 . S
C595 C592 1.511 . S
C595 H609 0.961 . S
C595 H610 0.961 . S
C595 H611 0.961 . S
C596 C597 1.370 . S
C596 C598 1.363 . S
C596 H612 0.931 . S
C597 C596 1.370 . S
C597 C601 1.408 . S
C598 C596 1.363 . S
C598 C599 1.370 . S
C598 C602 1.524 1_565 S
C599 C591 1.503 . S
C599 C598 1.370 . S
C599 C600 1.403 . S
C600 C599 1.403 . S
C600 C601 1.404 . S
C600 C603 1.539 . S
C601 C597 1.408 . S
C601 C600 1.404 . S
C601 H613 0.930 . S
C602 C598 1.524 1_545 S
C602 H614 0.956 . S
C602 H615 0.961 . S
C602 H616 0.961 . S
C603 C600 1.539 . S
C603 H617 0.958 . S
C603 H618 0.961 . S
C603 H619 0.960 . S
H604 C588 0.931 . S
H605 C593 0.929 . S
H606 C594 0.960 . S
H607 C594 0.962 . S
H608 C594 0.960 . S
H609 C595 0.961 . S
H610 C595 0.961 . S
H611 C595 0.961 . S
H612 C596 0.931 . S
H613 C601 0.930 . S
H614 C602 0.956 . S
H615 C602 0.961 . S
H616 C602 0.961 . S
H617 C603 0.958 . S
H618 C603 0.961 . S
H619 C603 0.960 . S
C620 C621 1.391 . S
C620 C622 1.394 . S
C620 H636 0.931 . S
C621 C620 1.391 . S
C621 C625 1.376 . S
C622 C620 1.394 . S
C622 C623 1.369 . S
C622 C626 1.531 . S
C623 C622 1.369 . S
C623 C624 1.410 . S
C623 C631 1.503 . S
C624 C623 1.410 . S
C624 C625 1.392 . S
C624 C627 1.511 . S
C625 C621 1.376 . S
C625 C624 1.392 . S
C625 H637 0.929 . S
C626 C622 1.531 . S
C626 H638 0.960 . S
C626 H639 0.962 . S
C626 H640 0.960 . S
C627 C624 1.511 . S
C627 H641 0.961 . S
C627 H642 0.961 . S
C627 H643 0.961 . S
C628 C629 1.370 1_455 S
C628 C630 1.363 . S
C628 H644 0.931 . S
C629 C628 1.370 1_655 S
C629 C633 1.408 . S
C630 C628 1.363 . S
C630 C631 1.370 . S
C630 C634 1.524 . S
C631 C623 1.503 . S
C631 C630 1.370 . S
C631 C632 1.403 . S
C632 C631 1.403 . S
C632 C633 1.404 1_455 S
C632 C635 1.539 . S
C633 C629 1.408 . S
C633 C632 1.404 1_655 S
C633 H645 0.930 . S
C634 C630 1.524 . S
C634 H646 0.956 . S
C634 H647 0.961 . S
C634 H648 0.961 . S
C635 C632 1.539 . S
C635 H649 0.958 . S
C635 H650 0.961 1_455 S
C635 H651 0.960 . S
H636 C620 0.931 . S
H637 C625 0.929 . S
H638 C626 0.960 . S
H639 C626 0.962 . S
H640 C626 0.960 . S
H641 C627 0.961 . S
H642 C627 0.961 . S
H643 C627 0.961 . S
H644 C628 0.931 . S
H645 C633 0.930 . S
H646 C634 0.956 . S
H647 C634 0.961 . S
H648 C634 0.961 . S
H649 C635 0.958 . S
H650 C635 0.961 1_655 S
H651 C635 0.960 . S
C652 C653 1.391 . S
C652 C654 1.394 . S
C652 H668 0.931 . S
C653 C652 1.391 . S
C653 C657 1.376 . S
C654 C652 1.394 . S
C654 C655 1.369 . S
C654 C658 1.531 . S
C655 C654 1.369 . S
C655 C656 1.410 . S
C655 C663 1.503 . S
C656 C655 1.410 . S
C656 C657 1.392 . S
C656 C659 1.511 . S
C657 C653 1.376 . S
C657 C656 1.392 . S
C657 H669 0.929 . S
C658 C654 1.531 . S
C658 H670 0.960 . S
C658 H671 0.962 . S
C658 H672 0.960 . S
C659 C656 1.511 . S
C659 H673 0.961 . S
C659 H674 0.961 . S
C659 H675 0.961 . S
C660 C661 1.370 . S
C660 C662 1.363 . S
C660 H676 0.931 1_556 S
C661 C660 1.370 . S
C661 C665 1.408 . S
C662 C660 1.363 . S
C662 C663 1.370 . S
C662 C666 1.524 . S
C663 C655 1.503 . S
C663 C662 1.370 . S
C663 C664 1.403 . S
C664 C663 1.403 . S
C664 C665 1.404 . S
C664 C667 1.539 . S
C665 C661 1.408 . S
C665 C664 1.404 . S
C665 H677 0.930 . S
C666 C662 1.524 . S
C666 H678 0.956 . S
C666 H679 0.961 . S
C666 H680 0.961 1_556 S
C667 C664 1.539 . S
C667 H681 0.958 . S
C667 H682 0.961 . S
C667 H683 0.960 . S
H668 C652 0.931 . S
H669 C657 0.929 . S
H670 C658 0.960 . S
H671 C658 0.962 . S
H672 C658 0.960 . S
H673 C659 0.961 . S
H674 C659 0.961 . S
H675 C659 0.961 . S
H676 C660 0.931 1_554 S
H677 C665 0.930 . S
H678 C666 0.956 . S
H679 C666 0.961 . S
H680 C666 0.961 1_554 S
H681 C667 0.958 . S
H682 C667 0.961 . S
H683 C667 0.960 . S
C205 C2 1.602 . S
C213 C104 1.600 . S
C237 C138 1.599 . S
C245 C36 1.603 . S
C269 C70 1.599 . S
C277 C172 1.601 . S
C301 C9 1.022 . S
C309 C5 1.062 . S
C333 C43 1.037 . S
C341 C39 1.060 . S
C365 C77 1.008 . S
C373 C73 1.070 . S
C397 C107 1.054 . S
C405 C111 1.036 . S
C429 C145 1.080 . S
C437 C141 1.076 . S
C461 C175 1.045 . S
C469 C179 1.062 . S
C493 C20 1.603 . S
C501 C67 1.600 . S
C525 C54 1.564 . S
C533 C101 1.609 . S
C557 C135 1.613 1_556 S
C565 C88 1.579 . S
C589 C122 1.601 . S
C597 C169 1.596 . S
C621 C203 1.605 . S
C629 C156 1.580 . S
C653 C190 1.601 1_545 S
C661 C33 1.601 1_556 S
