# Generated by pormake.
# Topology ukd, (4)-cn, num edge types: 1
# Building blocks:
#     Node 0, Type 0, BuildingBlock: TATPOV_clean_sbu_0, # of connection points: 4
#     Node 1, Type 0, BuildingBlock: TATPOV_clean_sbu_0, # of connection points: 4
#     Node 2, Type 0, BuildingBlock: TATPOV_clean_sbu_0, # of connection points: 4
#     Node 3, Type 0, BuildingBlock: TATPOV_clean_sbu_0, # of connection points: 4
#     Node 4, Type 0, BuildingBlock: TATPOV_clean_sbu_0, # of connection points: 4
#     Node 5, Type 0, BuildingBlock: TATPOV_clean_sbu_0, # of connection points: 4
#     Node 6, Type 0, BuildingBlock: TATPOV_clean_sbu_0, # of connection points: 4
#     Node 7, Type 0, BuildingBlock: TATPOV_clean_sbu_0, # of connection points: 4
#     Node 8, Type 0, BuildingBlock: TATPOV_clean_sbu_0, # of connection points: 4
#     Node 9, Type 0, BuildingBlock: TATPOV_clean_sbu_0, # of connection points: 4
#     Node 10, Type 0, BuildingBlock: TATPOV_clean_sbu_0, # of connection points: 4
#     Node 11, Type 0, BuildingBlock: TATPOV_clean_sbu_0, # of connection points: 4
#     Node 12, Type 0, BuildingBlock: TATPOV_clean_sbu_0, # of connection points: 4
#     Node 13, Type 0, BuildingBlock: TATPOV_clean_sbu_0, # of connection points: 4
#     Node 14, Type 0, BuildingBlock: TATPOV_clean_sbu_0, # of connection points: 4
#     Node 15, Type 0, BuildingBlock: TATPOV_clean_sbu_0, # of connection points: 4
#     Node 16, Type 0, BuildingBlock: TATPOV_clean_sbu_0, # of connection points: 4
#     Node 17, Type 0, BuildingBlock: TATPOV_clean_sbu_0, # of connection points: 4
#     Node 18, Type 0, BuildingBlock: TATPOV_clean_sbu_0, # of connection points: 4
#     Node 19, Type 0, BuildingBlock: TATPOV_clean_sbu_0, # of connection points: 4
#     Node 20, Type 0, BuildingBlock: TATPOV_clean_sbu_0, # of connection points: 4
#     Node 21, Type 0, BuildingBlock: TATPOV_clean_sbu_0, # of connection points: 4
#     Node 22, Type 0, BuildingBlock: TATPOV_clean_sbu_0, # of connection points: 4
#     Node 23, Type 0, BuildingBlock: TATPOV_clean_sbu_0, # of connection points: 4
#     Node 24, Type 0, BuildingBlock: TATPOV_clean_sbu_0, # of connection points: 4
#     Node 25, Type 0, BuildingBlock: TATPOV_clean_sbu_0, # of connection points: 4
#     Node 26, Type 0, BuildingBlock: TATPOV_clean_sbu_0, # of connection points: 4
#     Node 27, Type 0, BuildingBlock: TATPOV_clean_sbu_0, # of connection points: 4
#     Node 28, Type 0, BuildingBlock: TATPOV_clean_sbu_0, # of connection points: 4
#     Node 29, Type 0, BuildingBlock: TATPOV_clean_sbu_0, # of connection points: 4
#     Node 30, Type 0, BuildingBlock: TATPOV_clean_sbu_0, # of connection points: 4
#     Node 31, Type 0, BuildingBlock: TATPOV_clean_sbu_0, # of connection points: 4
#     Edge 32, Type (0, 0), BuildingBlock: OJICUG_clean_linker_0, # of connection points: 2
#     Edge 33, Type (0, 0), BuildingBlock: OJICUG_clean_linker_0, # of connection points: 2
#     Edge 34, Type (0, 0), BuildingBlock: OJICUG_clean_linker_0, # of connection points: 2
#     Edge 35, Type (0, 0), BuildingBlock: OJICUG_clean_linker_0, # of connection points: 2
#     Edge 36, Type (0, 0), BuildingBlock: OJICUG_clean_linker_0, # of connection points: 2
#     Edge 37, Type (0, 0), BuildingBlock: OJICUG_clean_linker_0, # of connection points: 2
#     Edge 38, Type (0, 0), BuildingBlock: OJICUG_clean_linker_0, # of connection points: 2
#     Edge 39, Type (0, 0), BuildingBlock: OJICUG_clean_linker_0, # of connection points: 2
#     Edge 40, Type (0, 0), BuildingBlock: OJICUG_clean_linker_0, # of connection points: 2
#     Edge 41, Type (0, 0), BuildingBlock: OJICUG_clean_linker_0, # of connection points: 2
#     Edge 42, Type (0, 0), BuildingBlock: OJICUG_clean_linker_0, # of connection points: 2
#     Edge 43, Type (0, 0), BuildingBlock: OJICUG_clean_linker_0, # of connection points: 2
#     Edge 44, Type (0, 0), BuildingBlock: OJICUG_clean_linker_0, # of connection points: 2
#     Edge 45, Type (0, 0), BuildingBlock: OJICUG_clean_linker_0, # of connection points: 2
#     Edge 46, Type (0, 0), BuildingBlock: OJICUG_clean_linker_0, # of connection points: 2
#     Edge 47, Type (0, 0), BuildingBlock: OJICUG_clean_linker_0, # of connection points: 2
#     Edge 48, Type (0, 0), BuildingBlock: OJICUG_clean_linker_0, # of connection points: 2
#     Edge 49, Type (0, 0), BuildingBlock: OJICUG_clean_linker_0, # of connection points: 2
#     Edge 50, Type (0, 0), BuildingBlock: OJICUG_clean_linker_0, # of connection points: 2
#     Edge 51, Type (0, 0), BuildingBlock: OJICUG_clean_linker_0, # of connection points: 2
#     Edge 52, Type (0, 0), BuildingBlock: OJICUG_clean_linker_0, # of connection points: 2
#     Edge 53, Type (0, 0), BuildingBlock: OJICUG_clean_linker_0, # of connection points: 2
#     Edge 54, Type (0, 0), BuildingBlock: OJICUG_clean_linker_0, # of connection points: 2
#     Edge 55, Type (0, 0), BuildingBlock: OJICUG_clean_linker_0, # of connection points: 2
#     Edge 56, Type (0, 0), BuildingBlock: OJICUG_clean_linker_0, # of connection points: 2
#     Edge 57, Type (0, 0), BuildingBlock: OJICUG_clean_linker_0, # of connection points: 2
#     Edge 58, Type (0, 0), BuildingBlock: OJICUG_clean_linker_0, # of connection points: 2
#     Edge 59, Type (0, 0), BuildingBlock: OJICUG_clean_linker_0, # of connection points: 2
#     Edge 60, Type (0, 0), BuildingBlock: OJICUG_clean_linker_0, # of connection points: 2
#     Edge 61, Type (0, 0), BuildingBlock: OJICUG_clean_linker_0, # of connection points: 2
#     Edge 62, Type (0, 0), BuildingBlock: OJICUG_clean_linker_0, # of connection points: 2
#     Edge 63, Type (0, 0), BuildingBlock: OJICUG_clean_linker_0, # of connection points: 2
#     Edge 64, Type (0, 0), BuildingBlock: OJICUG_clean_linker_0, # of connection points: 2
#     Edge 65, Type (0, 0), BuildingBlock: OJICUG_clean_linker_0, # of connection points: 2
#     Edge 66, Type (0, 0), BuildingBlock: OJICUG_clean_linker_0, # of connection points: 2
#     Edge 67, Type (0, 0), BuildingBlock: OJICUG_clean_linker_0, # of connection points: 2
#     Edge 68, Type (0, 0), BuildingBlock: OJICUG_clean_linker_0, # of connection points: 2
#     Edge 69, Type (0, 0), BuildingBlock: OJICUG_clean_linker_0, # of connection points: 2
#     Edge 70, Type (0, 0), BuildingBlock: OJICUG_clean_linker_0, # of connection points: 2
#     Edge 71, Type (0, 0), BuildingBlock: OJICUG_clean_linker_0, # of connection points: 2
#     Edge 72, Type (0, 0), BuildingBlock: OJICUG_clean_linker_0, # of connection points: 2
#     Edge 73, Type (0, 0), BuildingBlock: OJICUG_clean_linker_0, # of connection points: 2
#     Edge 74, Type (0, 0), BuildingBlock: OJICUG_clean_linker_0, # of connection points: 2
#     Edge 75, Type (0, 0), BuildingBlock: OJICUG_clean_linker_0, # of connection points: 2
#     Edge 76, Type (0, 0), BuildingBlock: OJICUG_clean_linker_0, # of connection points: 2
#     Edge 77, Type (0, 0), BuildingBlock: OJICUG_clean_linker_0, # of connection points: 2
#     Edge 78, Type (0, 0), BuildingBlock: OJICUG_clean_linker_0, # of connection points: 2
#     Edge 79, Type (0, 0), BuildingBlock: OJICUG_clean_linker_0, # of connection points: 2
#     Edge 80, Type (0, 0), BuildingBlock: OJICUG_clean_linker_0, # of connection points: 2
#     Edge 81, Type (0, 0), BuildingBlock: OJICUG_clean_linker_0, # of connection points: 2
#     Edge 82, Type (0, 0), BuildingBlock: OJICUG_clean_linker_0, # of connection points: 2
#     Edge 83, Type (0, 0), BuildingBlock: OJICUG_clean_linker_0, # of connection points: 2
#     Edge 84, Type (0, 0), BuildingBlock: OJICUG_clean_linker_0, # of connection points: 2
#     Edge 85, Type (0, 0), BuildingBlock: OJICUG_clean_linker_0, # of connection points: 2
#     Edge 86, Type (0, 0), BuildingBlock: OJICUG_clean_linker_0, # of connection points: 2
#     Edge 87, Type (0, 0), BuildingBlock: OJICUG_clean_linker_0, # of connection points: 2
#     Edge 88, Type (0, 0), BuildingBlock: OJICUG_clean_linker_0, # of connection points: 2
#     Edge 89, Type (0, 0), BuildingBlock: OJICUG_clean_linker_0, # of connection points: 2
#     Edge 90, Type (0, 0), BuildingBlock: OJICUG_clean_linker_0, # of connection points: 2
#     Edge 91, Type (0, 0), BuildingBlock: OJICUG_clean_linker_0, # of connection points: 2
#     Edge 92, Type (0, 0), BuildingBlock: OJICUG_clean_linker_0, # of connection points: 2
#     Edge 93, Type (0, 0), BuildingBlock: OJICUG_clean_linker_0, # of connection points: 2
#     Edge 94, Type (0, 0), BuildingBlock: OJICUG_clean_linker_0, # of connection points: 2
#     Edge 95, Type (0, 0), BuildingBlock: OJICUG_clean_linker_0, # of connection points: 2
# Relax obj value: 0.128
# Max RMSD: 0.188
# Mean RMSD: 0.180
data_MOF--net-ukd--node1-TATPOV_clean_sbu_0--edge1-OJICUG_clean_linker_0
_symmetry_space_group_name_H-M    P1
_symmetry_Int_Tables_number       1
_symmetry_cell_setting            triclinic
loop_
_symmetry_equiv_pos_as_xyz
'x, y, z'
_cell_length_a     32.011385
_cell_length_b     31.150585
_cell_length_c     57.39082
_cell_angle_alpha  89.816877
_cell_angle_beta   90.064698
_cell_angle_gamma 89.973986
loop_
_atom_site_label
_atom_site_type_symbol
_atom_site_fract_x
_atom_site_fract_y
_atom_site_fract_z
_atom_type_partial_charge
Zn0 Zn 0.112 0.21683 0.34536 0.0
Zn1 Zn 0.18168 0.2017 0.36916 0.0
O2 O 0.14706 0.14565 0.36939 0.0
O3 O 0.09606 0.15431 0.34418 0.0
O4 O 0.23808 0.18142 0.38025 0.0
O5 O 0.14081 0.24573 0.31833 0.0
O6 O 0.19774 0.23121 0.33828 0.0
C7 C 0.11555 0.13068 0.3585 0.0
C8 C 0.12095 0.25917 0.39166 0.0
O9 O 0.15797 0.24433 0.39253 0.0
O10 O 0.09712 0.25087 0.37456 0.0
C11 C 0.24495 0.15631 0.39734 0.0
O12 O 0.21385 0.14569 0.41112 0.0
C13 C 0.18011 0.24736 0.32035 0.0
Zn14 Zn 0.09736 0.97459 0.6276 0.0
Zn15 Zn 0.05405 0.9727 0.58903 0.0
O16 O 0.01014 0.96487 0.61512 0.0
O17 O 0.04708 0.96174 0.64735 0.0
O18 O 0.0168 0.976 0.56084 0.0
O19 O 0.11472 0.03529 0.62259 0.0
O20 O 0.08837 0.02964 0.58729 0.0
C21 C 0.01205 0.96008 0.63716 0.0
C22 C 0.12231 0.90696 0.59584 0.0
O23 O 0.09036 0.9191 0.58433 0.0
O24 O 0.13292 0.92659 0.61423 0.0
C25 C 0.00418 0.94474 0.54847 0.0
O26 O 0.01729 0.90565 0.55305 0.0
C27 C 0.10916 0.05069 0.60243 0.0
Zn28 Zn 0.39746 0.78205 0.79766 0.0
Zn29 Zn 0.31717 0.80149 0.81092 0.0
O30 O 0.34965 0.85307 0.82192 0.0
O31 O 0.41469 0.84058 0.81169 0.0
O32 O 0.25817 0.81845 0.81682 0.0
O33 O 0.37939 0.77586 0.76368 0.0
O34 O 0.31611 0.79061 0.77627 0.0
C35 C 0.3877 0.86461 0.82129 0.0
C36 C 0.35753 0.72317 0.83159 0.0
O37 O 0.32682 0.74898 0.83091 0.0
O38 O 0.38969 0.72964 0.81912 0.0
C39 C 0.24546 0.83226 0.83634 0.0
O40 O 0.27149 0.8334 0.85405 0.0
C41 C 0.34079 0.78116 0.75973 0.0
Zn42 Zn 0.4477 0.00578 0.15728 0.0
Zn43 Zn 0.43338 0.03091 0.11357 0.0
O44 O 0.49741 0.02773 0.11702 0.0
O45 O 0.50985 0.00339 0.1523 0.0
O46 O 0.42636 0.04204 0.07934 0.0
O47 O 0.41212 0.95323 0.15355 0.0
O48 O 0.39854 0.97593 0.11803 0.0
C49 C 0.52326 0.01639 0.13278 0.0
C50 C 0.406 0.08973 0.15202 0.0
O51 O 0.408 0.0827 0.1302 0.0
O52 O 0.42062 0.06246 0.16635 0.0
C53 C 0.45162 0.06402 0.06706 0.0
O54 O 0.48269 0.08408 0.07729 0.0
C55 C 0.39311 0.94871 0.13437 0.0
Zn56 Zn 0.10042 0.78767 0.17641 0.0
Zn57 Zn 0.17989 0.80652 0.16216 0.0
O58 O 0.14562 0.85709 0.15057 0.0
O59 O 0.08105 0.8446 0.16162 0.0
O60 O 0.23837 0.8248 0.15499 0.0
O61 O 0.11896 0.78275 0.21014 0.0
O62 O 0.18245 0.79533 0.1971 0.0
C63 C 0.10744 0.86827 0.15125 0.0
C64 C 0.13992 0.72659 0.14371 0.0
O65 O 0.17046 0.75263 0.14319 0.0
O66 O 0.10816 0.73403 0.1563 0.0
C67 C 0.24871 0.84021 0.1353 0.0
O68 O 0.22075 0.84216 0.11856 0.0
C69 C 0.15779 0.78649 0.21382 0.0
Zn70 Zn 0.38718 0.9611 0.35597 0.0
Zn71 Zn 0.42889 0.95408 0.39511 0.0
O72 O 0.47426 0.95181 0.36945 0.0
O73 O 0.43897 0.95326 0.33661 0.0
O74 O 0.46484 0.95353 0.42383 0.0
O75 O 0.368 0.0203 0.36361 0.0
O76 O 0.39322 0.00984 0.39888 0.0
C77 C 0.47355 0.95083 0.34725 0.0
C78 C 0.36307 0.88776 0.38428 0.0
O79 O 0.39401 0.89908 0.39678 0.0
O80 O 0.35266 0.90988 0.36663 0.0
C81 C 0.46962 0.92386 0.43889 0.0
O82 O 0.44795 0.88821 0.43722 0.0
C83 C 0.37255 0.03269 0.3844 0.0
Zn84 Zn 0.37714 0.23845 0.63654 0.0
Zn85 Zn 0.30388 0.21795 0.61658 0.0
O86 O 0.33943 0.1626 0.61659 0.0
O87 O 0.39543 0.17636 0.63747 0.0
O88 O 0.24657 0.19593 0.6086 0.0
O89 O 0.35092 0.26671 0.66455 0.0
O90 O 0.29194 0.24997 0.64714 0.0
C91 C 0.3737 0.15021 0.62575 0.0
C92 C 0.35805 0.27685 0.58995 0.0
O93 O 0.3226 0.25851 0.59087 0.0
O94 O 0.38456 0.27237 0.60624 0.0
C95 C 0.23549 0.17639 0.5902 0.0
O96 O 0.26242 0.17191 0.57312 0.0
C97 C 0.31144 0.26749 0.66399 0.0
Zn98 Zn 0.05669 0.00584 0.80849 0.0
Zn99 Zn 0.06203 0.02438 0.85381 0.0
O100 O -0.00086 0.02393 0.84649 0.0
O101 O 0.9939 0.00584 0.80963 0.0
O102 O 0.06386 0.02965 0.88857 0.0
O103 O 0.08933 0.95127 0.81239 0.0
O104 O 0.09601 0.96921 0.84921 0.0
C105 C 0.97669 0.01626 0.82864 0.0
C106 C 0.0983 0.08768 0.81982 0.0
O107 O 0.0911 0.07783 0.84099 0.0
O108 O 0.08708 0.06258 0.80359 0.0
C109 C 0.03662 0.04812 0.90114 0.0
O110 O 0.00551 0.06864 0.89113 0.0
C111 C 0.10399 0.94376 0.83248 0.0
Zn112 Zn 0.85996 0.81013 0.71681 0.0
Zn113 Zn 0.79861 0.82501 0.68861 0.0
O114 O 0.84497 0.86963 0.68019 0.0
O115 O 0.89505 0.8586 0.70574 0.0
O116 O 0.7479 0.84867 0.67149 0.0
O117 O 0.82852 0.8141 0.74631 0.0
O118 O 0.77496 0.81885 0.72248 0.0
C119 C 0.88088 0.87907 0.68841 0.0
C120 C 0.84156 0.74059 0.68396 0.0
O121 O 0.81397 0.76561 0.67533 0.0
O122 O 0.86342 0.75232 0.70123 0.0
C123 C 0.7313 0.83722 0.65233 0.0
O124 O 0.74742 0.80496 0.64071 0.0
C125 C 0.7895 0.81527 0.74315 0.0
Zn126 Zn 0.92935 0.05982 0.43157 0.0
Zn127 Zn 0.91578 0.99002 0.41027 0.0
O128 O 0.87908 0.0386 0.39628 0.0
O129 O 0.88591 0.0971 0.41708 0.0
O130 O 0.88677 0.93812 0.3964 0.0
O131 O 0.9223 0.03849 0.46356 0.0
O132 O 0.92212 0.97594 0.44601 0.0
C133 C 0.86981 0.07777 0.4 0.0
C134 C -0.00202 0.02805 0.40138 0.0
O135 O 0.97334 -0.00217 0.39549 0.0
O136 O 0.98668 0.05575 0.41628 0.0
C137 C 0.88115 0.93703 0.37445 0.0
O138 O 0.89887 0.96667 0.36146 0.0
C139 C 0.92332 -0.00195 0.46475 0.0
Zn140 Zn 0.67038 0.19909 0.14628 0.0
Zn141 Zn 0.73167 0.18285 0.12352 0.0
O142 O 0.69296 0.12879 0.1212 0.0
O143 O 0.6543 0.13853 0.15223 0.0
O144 O 0.78327 0.16533 0.10588 0.0
O145 O 0.70186 0.23048 0.17073 0.0
O146 O 0.75631 0.19768 0.15599 0.0
C147 C 0.66623 0.11472 0.13579 0.0
C148 C 0.67067 0.25024 0.10697 0.0
O149 O 0.70852 0.23744 0.10739 0.0
O150 O 0.6441 0.23251 0.12013 0.0
C151 C 0.78171 0.14082 0.08826 0.0
O152 O 0.7451 0.12898 0.08014 0.0
C153 C 0.74009 0.22062 0.17196 0.0
Zn154 Zn 0.45734 0.94048 0.94145 0.0
Zn155 Zn 0.51498 0.99452 0.92746 0.0
O156 O 0.55022 0.94041 0.93145 0.0
O157 O 0.50196 0.89419 0.94216 0.0
O158 O 0.5574 0.03892 0.91743 0.0
O159 O 0.44265 0.97433 0.96945 0.0
O160 O 0.49122 0.01989 0.95832 0.0
C161 C 0.53954 0.90224 0.93674 0.0
C162 C 0.44209 0.96653 0.89534 0.0
O163 O 0.4769 0.98554 0.89853 0.0
O164 O 0.42438 0.94748 0.91212 0.0
C165 C 0.57029 0.04084 0.89651 0.0
O166 O 0.5551 0.01389 0.88111 0.0
C167 C 0.46298 0.00852 0.97277 0.0
Zn168 Zn 0.83217 0.20788 0.81543 0.0
Zn169 Zn 0.76706 0.18381 0.83508 0.0
O170 O 0.80702 0.13097 0.83571 0.0
O171 O 0.85246 0.14893 0.80879 0.0
O172 O 0.7144 0.15814 0.84824 0.0
O173 O 0.80279 0.24009 0.79027 0.0
O174 O 0.74697 0.20642 0.80291 0.0
C175 C 0.83752 0.1212 0.8225 0.0
C176 C 0.82161 0.24924 0.8587 0.0
O177 O 0.78498 0.23366 0.85656 0.0
O178 O 0.85002 0.23853 0.84456 0.0
C179 C 0.70654 0.15236 0.86971 0.0
O180 O 0.73319 0.16615 0.88542 0.0
C181 C 0.76463 0.23069 0.78792 0.0
Zn182 Zn 0.54691 0.05453 0.54866 0.0
Zn183 Zn 0.56189 0.98925 0.57457 0.0
O184 O 0.60382 0.0377 0.58262 0.0
O185 O 0.5936 0.092 0.55884 0.0
O186 O 0.58881 0.93906 0.59167 0.0
O187 O 0.55075 0.02455 0.51875 0.0
O188 O 0.55211 0.96638 0.54053 0.0
C189 C 0.61311 0.07545 0.57574 0.0
C190 C 0.48204 0.03471 0.58342 0.0
O191 O 0.50676 0.00536 0.59058 0.0
O192 O 0.4915 0.05744 0.56582 0.0
C193 C 0.60133 0.94444 0.61251 0.0
O194 O 0.59194 0.98047 0.62315 0.0
C195 C 0.54986 0.98418 0.52047 0.0
Zn196 Zn 0.63169 0.824 0.26041 0.0
Zn197 Zn 0.68939 0.82771 0.29167 0.0
O198 O 0.64351 0.87145 0.30203 0.0
O199 O 0.5969 0.87061 0.2739 0.0
O200 O 0.73975 0.84401 0.31122 0.0
O201 O 0.66679 0.83357 0.23243 0.0
O202 O 0.71644 0.82753 0.25861 0.0
C203 C 0.60911 0.88485 0.29335 0.0
C204 C 0.6435 0.74532 0.28842 0.0
O205 O 0.67078 0.76644 0.29986 0.0
O206 O 0.62427 0.76272 0.27152 0.0
C207 C 0.74512 0.84156 0.33314 0.0
O208 O 0.71559 0.82489 0.34622 0.0
C209 C 0.70512 0.83018 0.23732 0.0
Zn210 Zn 0.0345 0.92305 0.02922 0.0
Zn211 Zn 0.97398 0.97589 0.04111 0.0
O212 O 0.94286 0.91901 0.03969 0.0
O213 O 0.99343 0.87357 0.03183 0.0
O214 O 0.92726 0.01663 0.04871 0.0
O215 O 0.04539 0.9537 -0.00066 0.0
O216 O -0.00355 -0.00059 0.00966 0.0
C217 C 0.9555 0.88066 0.03684 0.0
C218 C 0.04803 0.95859 0.07406 0.0
O219 O 0.01185 0.97445 0.0704 0.0
O220 O 0.06666 0.93849 0.058 0.0
C221 C 0.93122 0.05183 0.05959 0.0
O222 O 0.96843 0.06386 0.06672 0.0
C223 C 0.02422 0.98714 -0.00479 0.0
Zn224 Zn 0.62063 0.72565 0.84563 0.0
Zn225 Zn 0.69125 0.71469 0.86919 0.0
O226 O 0.65881 0.65736 0.87114 0.0
O227 O 0.60737 0.66243 0.84592 0.0
O228 O 0.74858 0.69804 0.88046 0.0
O229 O 0.64791 0.75344 0.81773 0.0
O230 O 0.7057 0.74136 0.83737 0.0
C231 C 0.62778 0.64051 0.86064 0.0
C232 C 0.62909 0.772 0.89071 0.0
O233 O 0.66669 0.75878 0.89143 0.0
O234 O 0.60495 0.7612 0.87417 0.0
C235 C 0.75677 0.67387 0.89776 0.0
O236 O 0.72625 0.66185 0.91161 0.0
C237 C 0.68724 0.75573 0.81926 0.0
Zn238 Zn 0.5857 0.4869 0.13277 0.0
Zn239 Zn 0.5412 0.48505 0.09431 0.0
O240 O 0.49759 0.47977 0.12069 0.0
O241 O 0.53498 0.47736 0.15278 0.0
O242 O 0.50435 0.48845 0.06603 0.0
O243 O 0.60567 0.54647 0.12646 0.0
O244 O 0.57806 0.53995 0.09151 0.0
C245 C 0.49976 0.4761 0.14278 0.0
C246 C 0.60673 0.41682 0.10154 0.0
O247 O 0.57523 0.43017 0.09009 0.0
O248 O 0.61859 0.43641 0.11972 0.0
C249 C 0.49253 0.4572 0.05341 0.0
O250 O 0.50557 0.41815 0.05815 0.0
C251 C 0.60032 0.5608 0.10604 0.0
Zn252 Zn 0.87702 0.26003 0.29663 0.0
Zn253 Zn 0.79653 0.27997 0.3092 0.0
O254 O 0.82922 0.33058 0.32133 0.0
O255 O 0.8944 0.31781 0.31145 0.0
O256 O 0.73739 0.29822 0.31352 0.0
O257 O 0.86105 0.2552 0.26227 0.0
O258 O 0.79762 0.27015 0.27446 0.0
C259 C 0.86742 0.34166 0.32119 0.0
C260 C 0.83498 0.20095 0.32992 0.0
O261 O 0.80443 0.22698 0.32913 0.0
O262 O 0.86748 0.20739 0.31772 0.0
C263 C 0.72339 0.31354 0.33242 0.0
O264 O 0.74781 0.31476 0.35082 0.0
C265 C 0.82266 0.26118 0.25801 0.0
Zn266 Zn 0.95105 0.50012 0.65802 0.0
Zn267 Zn 0.94719 0.52648 0.61373 0.0
O268 O 0.00947 0.52752 0.62233 0.0
O269 O 0.01365 0.5053 0.65865 0.0
O270 O 0.94879 0.53948 0.5795 0.0
O271 O 0.92343 0.4442 0.65018 0.0
O272 O 0.91614 0.4687 0.61445 0.0
C273 C 0.03128 0.51877 0.64031 0.0
C274 C 0.90384 0.58001 0.65003 0.0
O275 O 0.91392 0.57525 0.62872 0.0
O276 O 0.91542 0.55257 0.66511 0.0
C277 C 0.91564 0.53711 0.56742 0.0
O278 O 0.87996 0.52992 0.57804 0.0
C279 C 0.90972 0.4396 0.62966 0.0
Zn280 Zn 0.62408 0.27664 0.66587 0.0
Zn281 Zn 0.70287 0.29225 0.64986 0.0
O282 O 0.66914 0.3422 0.63691 0.0
O283 O 0.60521 0.33248 0.64986 0.0
O284 O 0.76153 0.30851 0.64207 0.0
O285 O 0.6435 0.2751 0.69947 0.0
O286 O 0.70645 0.2851 0.68512 0.0
C287 C 0.63126 0.35429 0.63811 0.0
C288 C 0.66086 0.21169 0.63429 0.0
O289 O 0.69192 0.23689 0.63259 0.0
O290 O 0.62993 0.22105 0.64714 0.0
C291 C 0.77257 0.32442 0.62264 0.0
O292 O 0.74491 0.32801 0.60581 0.0
C293 C 0.6825 0.27875 0.70248 0.0
Zn294 Zn 0.90506 0.4869 0.85468 0.0
Zn295 Zn 0.94481 0.47715 0.89418 0.0
O296 O 0.99125 0.4753 0.86919 0.0
O297 O 0.95751 0.47951 0.83592 0.0
O298 O 0.97923 0.47536 0.92345 0.0
O299 O 0.88567 0.54572 0.86287 0.0
O300 O 0.90891 0.53262 0.89829 0.0
C301 C 0.99151 0.47555 0.84698 0.0
C302 C 0.87946 0.41183 0.88123 0.0
O303 O 0.90976 0.42227 0.89443 0.0
O304 O 0.8699 0.43517 0.86389 0.0
C305 C 0.98612 0.44389 0.93711 0.0
O306 O 0.96809 0.4067 0.9333 0.0
C307 C 0.88904 0.55656 0.88398 0.0
Zn308 Zn 0.87686 0.72476 0.14149 0.0
Zn309 Zn 0.80559 0.71187 0.11863 0.0
O310 O 0.8366 0.65369 0.11989 0.0
O311 O 0.88875 0.66136 0.14442 0.0
O312 O 0.74743 0.69505 0.10911 0.0
O313 O 0.85042 0.75812 0.1679 0.0
O314 O 0.79264 0.74547 0.14843 0.0
C315 C 0.86756 0.63775 0.13095 0.0
C316 C 0.86899 0.762 0.09351 0.0
O317 O 0.83101 0.74994 0.0936 0.0
O318 O 0.89274 0.75418 0.11076 0.0
C319 C 0.7358 0.67419 0.09126 0.0
O320 O 0.7634 0.66435 0.07521 0.0
C321 C 0.81128 0.76214 0.1658 0.0
Zn322 Zn 0.54123 0.49476 0.2994 0.0
Zn323 Zn 0.54733 0.513 0.34521 0.0
O324 O 0.48436 0.51296 0.33899 0.0
O325 O 0.47819 0.49644 0.30191 0.0
O326 O 0.55178 0.51955 0.3797 0.0
O327 O 0.5733 0.4394 0.3039 0.0
O328 O 0.57929 0.457 0.34079 0.0
C329 C 0.46151 0.50608 0.32121 0.0
C330 C 0.58425 0.57557 0.31073 0.0
O331 O 0.57685 0.56538 0.33181 0.0
O332 O 0.57261 0.55109 0.29431 0.0
C333 C 0.52759 0.5407 0.39291 0.0
O334 O 0.49675 0.56298 0.38378 0.0
C335 C 0.58708 0.4314 0.32414 0.0
Zn336 Zn 0.3569 0.32117 0.2225 0.0
Zn337 Zn 0.29538 0.33044 0.19351 0.0
O338 O 0.33817 0.3789 0.18589 0.0
O339 O 0.38697 0.37415 0.21272 0.0
O340 O 0.2438 0.35003 0.17578 0.0
O341 O 0.32335 0.31918 0.25148 0.0
O342 O 0.27081 0.32124 0.22686 0.0
C343 C 0.37218 0.3925 0.19486 0.0
C344 C 0.34665 0.25119 0.18853 0.0
O345 O 0.31617 0.27287 0.18027 0.0
O346 O 0.36735 0.26526 0.20574 0.0
C347 C 0.23692 0.34825 0.15397 0.0
O348 O 0.26465 0.32999 0.14036 0.0
C349 C 0.28453 0.31738 0.24767 0.0
Zn350 Zn 0.44344 0.5746 0.93376 0.0
Zn351 Zn 0.42658 0.506 0.91175 0.0
O352 O 0.39313 0.55631 0.89706 0.0
O353 O 0.4037 0.61418 0.91797 0.0
O354 O 0.39715 0.45514 0.89705 0.0
O355 O 0.43121 0.55364 0.96529 0.0
O356 O 0.42754 0.49136 0.94757 0.0
C357 C 0.38672 0.5961 0.90075 0.0
C358 C 0.51203 0.53943 0.90522 0.0
O359 O 0.48576 0.51123 0.89858 0.0
O360 O 0.50172 0.56724 0.92027 0.0
C361 C 0.3921 0.45385 0.87507 0.0
O362 O 0.41025 0.48326 0.86211 0.0
C363 C 0.42825 0.5133 0.96635 0.0
Zn364 Zn 0.18445 0.70511 0.65261 0.0
Zn365 Zn 0.24484 0.68054 0.63112 0.0
O366 O 0.20233 0.62988 0.63227 0.0
O367 O 0.16439 0.64748 0.66251 0.0
O368 O 0.29454 0.65141 0.61673 0.0
O369 O 0.21685 0.74041 0.67505 0.0
O370 O 0.26992 0.70291 0.66216 0.0
C371 C 0.17472 0.6202 0.64738 0.0
C372 C 0.1883 0.74522 0.60887 0.0
O373 O 0.22566 0.73108 0.61015 0.0
O374 O 0.1615 0.73287 0.62362 0.0
C375 C 0.30938 0.65401 0.59626 0.0
O376 O 0.29218 0.68026 0.58108 0.0
C377 C 0.25479 0.72965 0.67666 0.0
Zn378 Zn 0.94014 0.41369 0.44292 0.0
Zn379 Zn 0.99357 0.4727 0.42876 0.0
O380 O 0.03224 0.42109 0.43267 0.0
O381 O 0.98825 0.37121 0.44425 0.0
O382 O 0.03322 0.51975 0.41882 0.0
O383 O 0.92211 0.44729 0.47046 0.0
O384 O 0.96774 0.4962 0.45952 0.0
C385 C 0.02491 0.38232 0.43844 0.0
C386 C 0.92318 0.43981 0.39661 0.0
O387 O 0.95615 0.46205 0.39976 0.0
O388 O 0.90785 0.4182 0.41321 0.0
C389 C 0.05121 0.51734 0.39913 0.0
O390 O 0.04268 0.48469 0.38548 0.0
C391 C 0.93991 0.48295 0.47375 0.0
Zn392 Zn 0.30919 0.69222 0.31974 0.0
Zn393 Zn 0.24717 0.66461 0.33879 0.0
O394 O 0.2892 0.61349 0.33592 0.0
O395 O 0.32945 0.63633 0.30762 0.0
O396 O 0.19653 0.63447 0.3519 0.0
O397 O 0.27845 0.73119 0.29827 0.0
O398 O 0.22414 0.69249 0.30838 0.0
C399 C 0.31771 0.60639 0.32092 0.0
C400 C 0.30287 0.72582 0.36455 0.0
O401 O 0.26573 0.71186 0.36186 0.0
O402 O 0.33085 0.71537 0.35009 0.0
C403 C 0.18134 0.63669 0.37231 0.0
O404 O 0.19847 0.6625 0.38764 0.0
C405 C 0.24053 0.72129 0.29542 0.0
Zn406 Zn 0.04145 0.56394 0.05369 0.0
Zn407 Zn 0.06358 0.49848 0.07717 0.0
O408 O 0.09946 0.55044 0.08791 0.0
O409 O 0.08255 0.60571 0.066 0.0
O410 O 0.09498 0.44919 0.09248 0.0
O411 O 0.05015 0.53976 0.02266 0.0
O412 O 0.05798 0.47938 0.04209 0.0
C413 C 0.10384 0.5899 0.08243 0.0
C414 C 0.97836 0.53183 0.08648 0.0
O415 O 0.00644 0.50531 0.09299 0.0
O416 O 0.98538 0.55757 0.06977 0.0
C417 C 0.10291 0.4499 0.11421 0.0
O418 O 0.08698 0.48085 0.12692 0.0
C419 C 0.05436 0.49951 0.02275 0.0
Zn420 Zn 0.14056 0.3328 0.76439 0.0
Zn421 Zn 0.20146 0.33913 0.79342 0.0
O422 O 0.15751 0.38533 0.8033 0.0
O423 O 0.10831 0.38218 0.77663 0.0
O424 O 0.25303 0.35667 0.81164 0.0
O425 O 0.17292 0.33778 0.73524 0.0
O426 O 0.22573 0.33533 0.75965 0.0
C427 C 0.12285 0.39876 0.79498 0.0
C428 C 0.15385 0.25728 0.79438 0.0
O429 O 0.18282 0.27895 0.80409 0.0
O430 O 0.1328 0.27333 0.77778 0.0
C431 C 0.25812 0.35547 0.83362 0.0
O432 O 0.2284 0.33944 0.8468 0.0
C433 C 0.21177 0.33521 0.73878 0.0
Zn434 Zn 0.52918 0.41671 0.51999 0.0
Zn435 Zn 0.48414 0.48072 0.53694 0.0
O436 O 0.44248 0.43127 0.53796 0.0
O437 O 0.47914 0.37745 0.52404 0.0
O438 O 0.44962 0.53064 0.54805 0.0
O439 O 0.54026 0.44757 0.49027 0.0
O440 O 0.50223 0.50064 0.50396 0.0
C441 C 0.4455 0.39171 0.53272 0.0
C442 C 0.56059 0.44622 0.56356 0.0
O443 O 0.52861 0.47061 0.56265 0.0
O444 O 0.56937 0.42197 0.54661 0.0
C445 C 0.4343 0.53023 0.56845 0.0
O446 O 0.44282 0.49774 0.58233 0.0
C447 C 0.52428 0.4844 0.48775 0.0
C448 C 0.09555 0.35982 0.42402 0.0
C449 C 0.05636 0.34873 0.43341 0.0
H450 H 0.14784 0.33895 0.40352 0.0
C451 C 0.04414 0.30536 0.43338 0.0
H452 H 0.10599 0.39289 0.42387 0.0
C453 C 0.06779 0.27491 0.42149 0.0
C454 C 0.1046 0.28701 0.41005 0.0
H455 H 0.01437 0.29553 0.44059 0.0
H456 H 0.05571 0.24258 0.41974 0.0
C457 C 0.11962 0.32901 0.41244 0.0
C458 C 0.97708 0.94376 0.67503 0.0
C459 C 0.97441 0.94803 0.65069 0.0
H460 H 0.94903 0.91941 0.70611 0.0
C461 C 0.93707 0.93616 0.63945 0.0
H462 H 0.00507 0.9532 0.68431 0.0
C463 C 0.9046 0.91688 0.65208 0.0
C464 C 0.9091 0.90907 0.67609 0.0
H465 H 0.93389 0.93933 0.62073 0.0
H466 H 0.8774 0.90537 0.64276 0.0
C467 C 0.94485 0.92446 0.68756 0.0
C468 C 0.38076 0.61581 0.85904 0.0
C469 C 0.36899 0.62332 0.88226 0.0
H470 H 0.38729 0.64249 0.82476 0.0
C471 C 0.34837 0.66168 0.8879 0.0
H472 H 0.39726 0.58673 0.85431 0.0
C473 C 0.34182 0.69311 0.87086 0.0
C474 C 0.35716 0.68714 0.84818 0.0
H475 H 0.3394 0.66827 0.90574 0.0
H476 H 0.32753 0.72326 0.87582 0.0
C477 C 0.37554 0.64782 0.84221 0.0
C478 C 0.58264 0.04782 0.10996 0.0
C479 C 0.56808 0.02717 0.13025 0.0
H480 H 0.6276 0.09152 0.09565 0.0
C481 C 0.5943 0.02546 0.14991 0.0
H482 H 0.56351 0.04913 0.0944 0.0
C483 C 0.63072 0.04995 0.15061 0.0
C484 C 0.64194 0.0756 0.1315 0.0
H485 H 0.58449 0.00921 0.16569 0.0
H486 H 0.64765 0.0524 0.16691 0.0
C487 C 0.61959 0.07179 0.11057 0.0
C488 C 0.1506 0.69194 0.10515 0.0
C489 C 0.14009 0.68839 0.1288 0.0
H490 H 0.14715 0.66256 0.07145 0.0
C491 C 0.12534 0.64913 0.13753 0.0
H492 H 0.16203 0.72203 0.0981 0.0
C493 C 0.11847 0.61469 0.12253 0.0
C494 C 0.12484 0.61963 0.09846 0.0
H495 H 0.11735 0.64575 0.15579 0.0
H496 H 0.10447 0.58568 0.12947 0.0
C497 C 0.14234 0.65795 0.08998 0.0
C498 C 0.5113 0.94488 0.30934 0.0
C499 C 0.51223 0.94262 0.33379 0.0
H500 H 0.54182 0.92942 0.27739 0.0
C501 C 0.54891 0.9281 0.34484 0.0
H502 H 0.48386 0.95657 0.30025 0.0
C503 C 0.58246 0.91255 0.33162 0.0
C504 C 0.57978 0.91127 0.30717 0.0
H505 H 0.55073 0.92625 0.36366 0.0
H506 H 0.6091 0.8988 0.3406 0.0
C507 C 0.54466 0.92943 0.2962 0.0
C508 C 0.3585 0.34692 0.56947 0.0
C509 C 0.36972 0.30347 0.56996 0.0
H510 H 0.37338 0.40955 0.55654 0.0
C511 C 0.3999 0.28815 0.55444 0.0
H512 H 0.33551 0.35926 0.58157 0.0
C513 C 0.42147 0.31665 0.54002 0.0
C514 C 0.41375 0.36105 0.54137 0.0
H515 H 0.4091 0.25467 0.55477 0.0
H516 H 0.44675 0.30426 0.52946 0.0
C517 C 0.38031 0.37561 0.55518 0.0
C518 C 0.91341 0.04504 0.84895 0.0
C519 C 0.93213 0.02886 0.8286 0.0
H520 H 0.86655 0.08687 0.86293 0.0
C521 C 0.91114 0.03375 0.80721 0.0
H522 H 0.92848 0.04128 0.86574 0.0
C523 C 0.87611 0.06019 0.80564 0.0
C524 C 0.86091 0.08108 0.8255 0.0
H525 H 0.92427 0.02118 0.79124 0.0
H526 H 0.86341 0.06761 0.78858 0.0
C527 C 0.87775 0.07089 0.8474 0.0
C528 C 0.87487 0.62537 0.68182 0.0
C529 C 0.88139 0.61898 0.65787 0.0
H530 H 0.85676 0.6689 0.70862 0.0
C531 C 0.86905 0.6514 0.64212 0.0
H532 H 0.8835 0.60107 0.69448 0.0
C533 C 0.85288 0.69042 0.65036 0.0
C534 C 0.84946 0.69754 0.67442 0.0
H535 H 0.87339 0.64732 0.62354 0.0
H536 H 0.84557 0.7158 0.63807 0.0
C537 C 0.85942 0.66425 0.68997 0.0
C538 C 0.06293 0.07202 0.35351 0.0
C539 C 0.09549 0.0905 0.36657 0.0
H540 H 0.0064 0.03519 0.35457 0.0
C541 C 0.10169 0.07678 0.38968 0.0
H542 H 0.05763 0.08168 0.3356 0.0
C543 C 0.07199 0.05076 0.40057 0.0
C544 C 0.03647 0.03707 0.38833 0.0
H545 H 0.12657 0.09017 0.4002 0.0
H546 H 0.07457 0.04503 0.41915 0.0
C547 C 0.03375 0.04509 0.36431 0.0
C548 C 0.60219 0.34097 0.08825 0.0
C549 C 0.62672 0.37572 0.09561 0.0
H550 H 0.59757 0.27249 0.08594 0.0
C551 C 0.66906 0.36895 0.10089 0.0
H552 H 0.56947 0.34542 0.08405 0.0
C553 C 0.68551 0.32742 0.10117 0.0
C554 C 0.65942 0.29212 0.09687 0.0
H555 H 0.68866 0.3954 0.1064 0.0
H556 H 0.7172 0.32272 0.10734 0.0
C557 C 0.6183 0.29929 0.08921 0.0
C558 C 0.3848 0.94915 0.86787 0.0
C559 C 0.42754 0.95605 0.87167 0.0
H560 H 0.33847 0.91566 0.84837 0.0
C561 C 0.45643 0.94061 0.85528 0.0
H562 H 0.36194 0.96074 0.88027 0.0
C563 C 0.44317 0.9136 0.83725 0.0
C564 C 0.40078 0.90235 0.83522 0.0
H565 H 0.48965 0.94521 0.85791 0.0
H566 H 0.46648 0.8988 0.82621 0.0
C567 C 0.37148 0.92292 0.84966 0.0
C568 C 0.88377 0.33336 0.88889 0.0
C569 C 0.85938 0.36952 0.88354 0.0
H570 H 0.89023 0.26527 0.88514 0.0
C571 C 0.81805 0.36378 0.87589 0.0
H572 H 0.91573 0.33697 0.89481 0.0
C573 C 0.80299 0.32264 0.87112 0.0
C574 C 0.82956 0.28703 0.87329 0.0
H575 H 0.79858 0.39126 0.87181 0.0
H576 H 0.77251 0.31939 0.86309 0.0
C577 C 0.86915 0.29234 0.88346 0.0
C578 C 0.38249 0.09125 0.59691 0.0
C579 C 0.39266 0.1089 0.6187 0.0
H580 H 0.40366 0.05277 0.56839 0.0
C581 C 0.42696 0.09206 0.63107 0.0
H582 H 0.35624 0.10343 0.58694 0.0
C583 C 0.45346 0.06199 0.62063 0.0
C584 C 0.44642 0.04916 0.59754 0.0
H585 H 0.43537 0.10484 0.64797 0.0
H586 H 0.48196 0.05284 0.62957 0.0
C587 C 0.40954 0.06208 0.58627 0.0
C588 C 0.63586 0.68479 0.31722 0.0
C589 C 0.63326 0.7004 0.29428 0.0
H590 H 0.62187 0.63282 0.34058 0.0
C591 C 0.61766 0.67348 0.27673 0.0
H592 H 0.64774 0.70497 0.33106 0.0
C593 C 0.60341 0.6324 0.28203 0.0
C594 C 0.60384 0.61736 0.30511 0.0
H595 H 0.6157 0.6845 0.25883 0.0
H596 H 0.59069 0.61304 0.26807 0.0
C597 C 0.6209 0.64365 0.32263 0.0
C598 C 0.05054 0.91458 0.1344 0.0
C599 C 0.09323 0.9044 0.1363 0.0
H600 H 0.0025 0.94214 0.11307 0.0
C601 C 0.12148 0.92373 0.12069 0.0
H602 H 0.02801 0.90076 0.14633 0.0
C603 C 0.10682 0.94716 0.10159 0.0
C604 C 0.06375 0.95237 0.098 0.0
H605 H 0.15468 0.91729 0.12184 0.0
H606 H 0.12891 0.9575 0.08843 0.0
C607 C 0.03593 0.93873 0.11545 0.0
C608 C 0.57383 0.79232 0.91855 0.0
C609 C 0.61268 0.80129 0.90845 0.0
H610 H 0.52088 0.81695 0.93658 0.0
C611 C 0.63126 0.84147 0.91208 0.0
H612 H 0.55911 0.76136 0.91599 0.0
C613 C 0.60899 0.8739 0.92348 0.0
C614 C 0.56817 0.86616 0.93162 0.0
H615 H 0.66121 0.84898 0.90429 0.0
H616 H 0.62241 0.90577 0.92431 0.0
C617 C 0.55202 0.82425 0.93036 0.0
C618 C 0.42523 0.45127 0.14553 0.0
C619 C 0.46223 0.46473 0.15656 0.0
H620 H 0.36689 0.41818 0.14918 0.0
C621 C 0.46501 0.46176 0.18095 0.0
H622 H 0.42195 0.45345 0.12677 0.0
C623 C 0.43352 0.44171 0.19375 0.0
C624 C 0.39851 0.4242 0.18245 0.0
H625 H 0.49273 0.47251 0.19008 0.0
H626 H 0.43797 0.43741 0.21233 0.0
C627 C 0.39357 0.43118 0.15839 0.0
C628 C 0.82881 0.14165 0.38698 0.0
C629 C 0.84987 0.10344 0.3815 0.0
H630 H 0.80641 0.20236 0.37444 0.0
C631 C 0.85991 0.09483 0.35814 0.0
H632 H 0.82101 0.14909 0.40488 0.0
C633 C 0.85303 0.12586 0.34096 0.0
C634 C 0.83465 0.16527 0.34675 0.0
H635 H 0.87657 0.06582 0.35346 0.0
H636 H 0.86385 0.11989 0.32338 0.0
C637 C 0.82062 0.1721 0.36961 0.0
C638 C 0.13088 0.56301 0.66472 0.0
C639 C 0.14827 0.582 0.64478 0.0
H640 H 0.08054 0.52647 0.67884 0.0
C641 C 0.13231 0.57138 0.62276 0.0
H642 H 0.1429 0.57066 0.68188 0.0
C643 C 0.09589 0.54682 0.62099 0.0
C644 C 0.07555 0.53212 0.64121 0.0
H645 H 0.14518 0.58579 0.60714 0.0
H646 H 0.08188 0.54243 0.60397 0.0
C647 C 0.09507 0.5378 0.66294 0.0
C648 C 0.65705 0.14058 0.58164 0.0
C649 C 0.63756 0.10393 0.59093 0.0
H650 H 0.6809 0.20362 0.58854 0.0
C651 C 0.63276 0.10026 0.61518 0.0
H652 H 0.66087 0.14419 0.56298 0.0
C653 C 0.64269 0.13474 0.6296 0.0
C654 C 0.65897 0.17268 0.62006 0.0
H655 H 0.61748 0.07256 0.62281 0.0
H656 H 0.6356 0.13262 0.64803 0.0
C657 C 0.6683 0.17456 0.5962 0.0
C658 C 0.09838 0.43076 0.83262 0.0
C659 C 0.09589 0.42853 0.8082 0.0
H660 H 0.067 0.4477 0.86428 0.0
C661 C 0.06249 0.44895 0.79678 0.0
H662 H 0.12378 0.41531 0.8419 0.0
C663 C 0.0301 0.46739 0.8095 0.0
C664 C 0.03028 0.4657 0.83397 0.0
H665 H 0.06 0.44827 0.77795 0.0
H666 H 0.00365 0.48057 0.8001 0.0
C667 C 0.06574 0.44917 0.84543 0.0
C668 C 0.88673 0.85192 0.05081 0.0
C669 C 0.92887 0.84479 0.04492 0.0
H670 H 0.83401 0.83022 0.07075 0.0
C671 C 0.94776 0.80586 0.05152 0.0
H672 H 0.87126 0.88152 0.04588 0.0
C673 C 0.92682 0.7773 0.06614 0.0
C674 C 0.88624 0.78647 0.07383 0.0
H675 H 0.98006 0.79917 0.04725 0.0
H676 H 0.94327 0.74922 0.07256 0.0
C677 C 0.86539 0.82266 0.06503 0.0
C678 C 0.39532 0.52573 0.30092 0.0
C679 C 0.41678 0.51795 0.3219 0.0
H680 H 0.34583 0.5604 0.28426 0.0
C681 C 0.39794 0.52999 0.34304 0.0
H682 H 0.40863 0.51645 0.28434 0.0
C683 C 0.36122 0.55436 0.34295 0.0
C684 C 0.34345 0.5674 0.32172 0.0
H685 H 0.41346 0.52397 0.35952 0.0
H686 H 0.34966 0.56703 0.35928 0.0
C687 C 0.3592 0.55076 0.30083 0.0
C688 C 0.36615 0.15909 0.14658 0.0
C689 C 0.3882 0.13029 0.16104 0.0
H690 H 0.33481 0.2201 0.14402 0.0
C691 C 0.3942 0.14089 0.18456 0.0
H692 H 0.36086 0.1517 0.12839 0.0
C693 C 0.3798 0.17974 0.1933 0.0
C694 C 0.35852 0.20899 0.17888 0.0
H695 H 0.4109 0.11956 0.19625 0.0
H696 H 0.38569 0.187 0.21146 0.0
C697 C 0.35107 0.19807 0.15551 0.0
C698 C 0.54877 0.55283 0.86801 0.0
C699 C 0.55092 0.54727 0.89226 0.0
H700 H 0.5724 0.58743 0.83855 0.0
C701 C 0.58596 0.56277 0.90433 0.0
H702 H 0.52191 0.54139 0.85834 0.0
C703 C 0.61524 0.58861 0.89296 0.0
C704 C 0.60914 0.6002 0.86951 0.0
H705 H 0.58822 0.55884 0.92306 0.0
H706 H 0.63947 0.60368 0.90328 0.0
C707 C 0.57753 0.57952 0.85672 0.0
C708 C 0.1371 0.78918 0.58685 0.0
C709 C 0.17797 0.78402 0.5954 0.0
H710 H 0.08742 0.83334 0.57957 0.0
C711 C 0.20342 0.82033 0.59807 0.0
H712 H 0.11686 0.76157 0.58481 0.0
C713 C 0.18619 0.86136 0.59584 0.0
C714 C 0.14373 0.86643 0.59022 0.0
H715 H 0.23489 0.81722 0.60486 0.0
H716 H 0.20502 0.88891 0.60053 0.0
C717 C 0.1202 0.83025 0.58398 0.0
C718 C 0.93654 0.41595 0.35608 0.0
C719 C 0.90801 0.43009 0.37299 0.0
H720 H 0.94608 0.37614 0.32615 0.0
C721 C 0.86524 0.42276 0.36956 0.0
H722 H 0.96978 0.42085 0.3585 0.0
C723 C 0.8516 0.3976 0.35098 0.0
C724 C 0.88064 0.37841 0.33582 0.0
H725 H 0.8427 0.43325 0.38242 0.0
H726 H 0.81863 0.39002 0.34989 0.0
C727 C 0.92299 0.38994 0.3377 0.0
C728 C 0.35193 0.76856 0.38857 0.0
C729 C 0.3116 0.76323 0.37932 0.0
H730 H 0.39977 0.81322 0.39815 0.0
C731 C 0.28509 0.79899 0.37757 0.0
H732 H 0.37297 0.7414 0.38994 0.0
C733 C 0.30086 0.84015 0.38146 0.0
C734 C 0.34284 0.84582 0.38788 0.0
H735 H 0.254 0.79579 0.37029 0.0
H736 H 0.2813 0.86765 0.37753 0.0
C737 C 0.36731 0.80967 0.39313 0.0
C738 C 0.90412 0.55308 0.08992 0.0
C739 C 0.9414 0.54061 0.10094 0.0
H740 H 0.84983 0.59282 0.09142 0.0
C741 C 0.94714 0.55034 0.12458 0.0
H742 H 0.89903 0.54586 0.07168 0.0
C743 C 0.91946 0.57824 0.1358 0.0
C744 C 0.88546 0.59607 0.12357 0.0
H745 H 0.97575 0.54125 0.13343 0.0
H746 H 0.92723 0.58937 0.15314 0.0
C747 C 0.876 0.58019 0.10127 0.0
C748 C 0.14701 0.19883 0.82459 0.0
C749 C 0.14465 0.21266 0.80132 0.0
H750 H 0.13358 0.14812 0.84894 0.0
C751 C 0.13024 0.1841 0.78425 0.0
H752 H 0.158 0.22035 0.83806 0.0
C753 C 0.11692 0.1431 0.79029 0.0
C754 C 0.11702 0.12968 0.81367 0.0
H755 H 0.12855 0.19377 0.76611 0.0
H756 H 0.10517 0.12247 0.77662 0.0
C757 C 0.1329 0.15766 0.83078 0.0
C758 C 0.62451 0.4265 0.58558 0.0
C759 C 0.58208 0.43773 0.5858 0.0
H760 H 0.67382 0.39228 0.60245 0.0
C761 C 0.55826 0.42908 0.60582 0.0
H762 H 0.64344 0.43272 0.5703 0.0
C763 C 0.57526 0.40469 0.62405 0.0
C764 C 0.61654 0.38942 0.62267 0.0
H765 H 0.52532 0.43704 0.6063 0.0
H766 H 0.55519 0.39518 0.63834 0.0
C767 C 0.64176 0.40304 0.60399 0.0
C768 C 0.21347 0.29772 0.26297 0.0
C769 C 0.25627 0.30479 0.26693 0.0
H770 H 0.1557 0.27392 0.27675 0.0
C771 C 0.27301 0.29511 0.28901 0.0
H772 H 0.19963 0.30474 0.24617 0.0
C773 C 0.24811 0.27696 0.30634 0.0
C774 C 0.20572 0.26839 0.30215 0.0
H775 H 0.30584 0.30017 0.29273 0.0
H776 H 0.26233 0.26911 0.32295 0.0
C777 C 0.18839 0.27984 0.28046 0.0
C778 C 0.95307 0.99145 0.52783 0.0
C779 C 0.97647 0.95338 0.52841 0.0
H780 H 0.91615 0.03442 0.50744 0.0
C781 C 0.97535 0.92583 0.50905 0.0
H782 H 0.95253 0.01284 0.54268 0.0
C783 C 0.95446 0.93833 0.48863 0.0
C784 C 0.93423 0.97837 0.48744 0.0
H785 H 0.99282 0.89605 0.50914 0.0
H786 H 0.95682 0.91818 0.47334 0.0
C787 C 0.93195 0.00365 0.50765 0.0
C788 C 0.32068 0.73164 0.70065 0.0
C789 C 0.28006 0.74675 0.69609 0.0
H790 H 0.37243 0.73126 0.72451 0.0
C791 C 0.2623 0.77715 0.71115 0.0
H792 H 0.3353 0.70845 0.68924 0.0
C793 C 0.28335 0.79004 0.73113 0.0
C794 C 0.32282 0.77309 0.7365 0.0
H795 H 0.23135 0.79003 0.70799 0.0
H796 H 0.26799 0.81226 0.74282 0.0
C797 C 0.34201 0.74486 0.72073 0.0
C798 C 0.4172 0.0377 0.03087 0.0
C799 C 0.45071 0.05926 0.04144 0.0
H800 H 0.39465 0.00539 0.00064 0.0
C801 C 0.48546 0.07071 0.02777 0.0
H802 H 0.38968 0.02902 0.04079 0.0
C803 C 0.48828 0.05717 0.00457 0.0
C804 C 0.45643 0.03193 -0.00519 0.0
H805 H 0.51169 0.08759 0.03538 0.0
H806 H 0.51659 0.06383 -0.00511 0.0
C807 C 0.42007 0.02413 0.00783 0.0
C808 C 0.23694 0.77155 0.26161 0.0
C809 C 0.21677 0.74192 0.27632 0.0
H810 H 0.23382 0.80929 0.23055 0.0
C811 C 0.17491 0.73116 0.27181 0.0
H812 H 0.26902 0.78103 0.2647 0.0
C813 C 0.15446 0.74796 0.25221 0.0
C814 C 0.17573 0.77543 0.23676 0.0
H815 H 0.15842 0.70873 0.28294 0.0
H816 H 0.12283 0.73765 0.24852 0.0
C817 C 0.21673 0.78794 0.24203 0.0
C818 C 0.52746 0.96422 0.45761 0.0
C819 C 0.49726 0.93168 0.45904 0.0
H820 H 0.56923 0.0052 0.4761 0.0
C821 C 0.49139 0.91015 0.48037 0.0
H822 H 0.5334 0.98072 0.44129 0.0
C823 C 0.51222 0.9242 0.50047 0.0
C824 C 0.53913 0.95978 0.49933 0.0
H825 H 0.46856 0.88465 0.48189 0.0
H826 H 0.5045 0.9097 0.51709 0.0
C827 C 0.54825 0.97802 0.47751 0.0
C828 C 0.22197 0.31803 0.69676 0.0
C829 C 0.23947 0.32471 0.71895 0.0
H830 H 0.23077 0.2943 0.66225 0.0
C831 C 0.28206 0.31559 0.72241 0.0
H832 H 0.18932 0.32481 0.69339 0.0
C833 C 0.30602 0.29815 0.70435 0.0
C834 C 0.28763 0.28908 0.68264 0.0
H835 H 0.29648 0.32032 0.73929 0.0
H836 H 0.33845 0.29028 0.70766 0.0
C837 C 0.24566 0.30016 0.6789 0.0
C838 C 0.06915 0.01606 0.93662 0.0
C839 C 0.03643 0.03975 0.92651 0.0
H840 H 0.09099 0.98125 0.96631 0.0
C841 C 0.00187 0.05096 0.94034 0.0
H842 H 0.09649 0.00733 0.92658 0.0
C843 C -0.00121 0.03604 0.96333 0.0
C844 C 0.03014 0.00953 0.97273 0.0
H845 H 0.97624 0.06939 0.93309 0.0
H846 H 0.9709 0.04328 0.97323 0.0
C847 C 0.06597 0.00102 0.95942 0.0
C848 C 0.71863 0.7992 0.75992 0.0
C849 C 0.76163 0.80627 0.76315 0.0
H850 H 0.66122 0.77754 0.77515 0.0
C851 C 0.77898 0.7996 0.78539 0.0
H852 H 0.70431 0.80396 0.743 0.0
C853 C 0.75457 0.784 0.80363 0.0
C854 C 0.71205 0.77501 0.80017 0.0
H855 H 0.81195 0.8049 0.78859 0.0
H856 H 0.76931 0.77822 0.82034 0.0
C857 C 0.69403 0.78383 0.7783 0.0
C858 C 0.74586 0.26263 0.20853 0.0
C859 C 0.76442 0.23459 0.19246 0.0
H860 H 0.75007 0.2934 0.24154 0.0
C861 C 0.80488 0.21894 0.19695 0.0
H862 H 0.71503 0.2759 0.20549 0.0
C863 C 0.8253 0.22935 0.21781 0.0
C864 C 0.80536 0.25535 0.23442 0.0
H865 H 0.82008 0.19751 0.18478 0.0
H866 H 0.85567 0.21548 0.2214 0.0
C867 C 0.76601 0.27279 0.22923 0.0
C868 C 0.69925 0.23709 0.76383 0.0
C869 C 0.74173 0.24663 0.76725 0.0
H870 H 0.64677 0.24046 0.74066 0.0
C871 C 0.76307 0.27045 0.75016 0.0
H872 H 0.68189 0.21908 0.77676 0.0
C873 C 0.7431 0.28255 0.7296 0.0
C874 C 0.70122 0.27142 0.72567 0.0
H875 H 0.79571 0.27875 0.75229 0.0
H876 H 0.76092 0.29964 0.71648 0.0
C877 C 0.6791 0.24956 0.74323 0.0
C878 C 0.72062 0.81701 0.19535 0.0
C879 C 0.73519 0.82109 0.21836 0.0
H880 H 0.73311 0.79489 0.16087 0.0
C881 C 0.77687 0.80998 0.22336 0.0
H882 H 0.68881 0.82546 0.1908 0.0
C883 C 0.80247 0.7925 0.20603 0.0
C884 C 0.78666 0.78545 0.1835 0.0
H885 H 0.78909 0.81277 0.2409 0.0
H886 H 0.83389 0.78261 0.21057 0.0
C887 C 0.74594 0.79914 0.17819 0.0
C888 C 0.46903 0.43875 0.01291 0.0
C889 C 0.46753 0.46612 0.03233 0.0
H890 H 0.4569 0.43212 0.9763 0.0
C891 C 0.44516 0.50474 0.0307 0.0
H892 H 0.48578 0.40856 0.01378 0.0
C893 C 0.42819 0.51781 0.0095 0.0
C894 C 0.43363 0.49279 -0.01061 0.0
H895 H 0.44266 0.52602 0.04553 0.0
H896 H 0.41344 0.54909 0.00851 0.0
C897 C 0.45223 0.45207 -0.0085 0.0
C898 C 0.89195 0.50055 0.50641 0.0
C899 C 0.9308 0.50627 0.49547 0.0
H900 H 0.85629 0.50692 0.53764 0.0
C901 C 0.9624 0.52885 0.50715 0.0
H902 H 0.86692 0.48359 0.49767 0.0
C903 C 0.95653 0.54172 0.53026 0.0
C904 C 0.91877 0.53277 0.54184 0.0
H905 H 0.99263 0.53366 0.4991 0.0
H906 H 0.98235 0.55652 0.53943 0.0
C907 C 0.88585 0.51402 0.5293 0.0
C908 C 0.02439 0.43903 -0.00051 0.0
C909 C 0.04792 0.47706 0.00048 0.0
H910 H 0.98586 0.39841 0.97827 0.0
C911 C 0.05693 0.49912 0.97972 0.0
H912 H 0.0168 0.4216 0.01529 0.0
C913 C 0.03895 0.48633 0.95879 0.0
C914 C 0.01175 0.45106 0.95814 0.0
H915 H 0.07534 0.52831 0.97996 0.0
H916 H 0.04447 0.50564 0.94336 0.0
C917 C 0.0064 0.42603 0.97836 0.0
C918 C 0.56312 0.50868 0.42742 0.0
C919 C 0.53051 0.53393 0.41836 0.0
H920 H 0.58675 0.47361 0.45659 0.0
C921 C 0.49886 0.54823 0.43344 0.0
H922 H 0.58837 0.49765 0.41639 0.0
C923 C 0.49819 0.53461 0.45673 0.0
C924 C 0.52897 0.50631 0.4651 0.0
H925 H 0.47346 0.56796 0.427 0.0
H926 H 0.47224 0.544 0.46769 0.0
C927 C 0.56223 0.49486 0.45048 0.0
C928 C 0.31325 0.13587 0.37951 0.0
C929 C 0.28458 0.1316 0.39793 0.0
H930 H 0.3641 0.1075 0.36093 0.0
C931 C 0.29125 0.09919 0.41469 0.0
H932 H 0.30947 0.16071 0.36643 0.0
C933 C 0.32342 0.06912 0.41173 0.0
C934 C 0.34887 0.07081 0.39184 0.0
H935 H 0.26996 0.09524 0.42919 0.0
H936 H 0.32586 0.04245 0.42382 0.0
C937 C 0.34473 0.10549 0.37637 0.0
C938 C 0.13962 0.12092 0.61343 0.0
C939 C 0.13227 0.09 0.59619 0.0
H940 H 0.17723 0.17336 0.62476 0.0
C941 C 0.15409 0.09273 0.57502 0.0
H942 H 0.12301 0.11962 0.62986 0.0
C943 C 0.18595 0.12318 0.57219 0.0
C944 C 0.19601 0.15151 0.59042 0.0
H945 H 0.14912 0.06906 0.56151 0.0
H946 H 0.20445 0.12256 0.55641 0.0
C947 C 0.17087 0.1516 0.6105 0.0
C948 C 0.19393 0.87928 0.85689 0.0
C949 C 0.20448 0.85389 0.83759 0.0
H950 H 0.15327 0.92757 0.87054 0.0
C951 C 0.17769 0.85341 0.81817 0.0
H952 H 0.21376 0.88006 0.87219 0.0
C953 C 0.14316 0.8806 0.8172 0.0
C954 C 0.13464 0.90877 0.83565 0.0
H955 H 0.1846 0.83369 0.80314 0.0
H956 H 0.12446 0.88111 0.80146 0.0
C957 C 0.15924 0.90649 0.85594 0.0
C958 C 0.31905 0.85958 0.15086 0.0
C959 C 0.28953 0.86187 0.13276 0.0
H960 H 0.37534 0.88474 0.16536 0.0
C961 C 0.29766 0.88852 0.11349 0.0
H962 H 0.314 0.83892 0.16581 0.0
C963 C 0.33299 0.91492 0.11322 0.0
C964 C 0.36077 0.91505 0.13222 0.0
H965 H 0.27565 0.89077 0.09919 0.0
H966 H 0.33724 0.93684 0.09873 0.0
C967 C 0.35429 0.88586 0.15058 0.0
C968 C 0.6782 0.89616 0.65553 0.0
C969 C 0.69538 0.86196 0.64277 0.0
H970 H 0.63491 0.94842 0.65617 0.0
C971 C 0.67889 0.85295 0.62058 0.0
H972 H 0.68983 0.9039 0.67274 0.0
C973 C 0.64711 0.8786 0.61104 0.0
C974 C 0.63112 0.91382 0.62349 0.0
H975 H 0.69123 0.82674 0.61031 0.0
H976 H 0.63599 0.87159 0.59364 0.0
C977 C 0.64652 0.92171 0.64603 0.0
C978 C 0.82189 0.88428 0.37811 0.0
C979 C 0.84987 0.90758 0.36402 0.0
H980 H 0.76678 0.84517 0.37947 0.0
C981 C 0.84507 0.90579 0.3397 0.0
H982 H 0.82465 0.88499 0.39691 0.0
C983 C 0.81205 0.88294 0.32973 0.0
C984 C 0.78274 0.86146 0.34381 0.0
H985 H 0.86614 0.92314 0.32831 0.0
H986 H 0.80877 0.88335 0.31094 0.0
C987 C 0.7886 0.86156 0.36811 0.0
C988 C 0.81845 0.08811 0.06261 0.0
C989 C 0.82051 0.12139 0.07903 0.0
H990 H 0.8517 0.04009 0.04363 0.0
C991 C 0.85979 0.13363 0.0878 0.0
H992 H 0.78874 0.07792 0.05546 0.0
C993 C 0.89602 0.11196 0.08094 0.0
C994 C 0.89366 0.07744 0.0653 0.0
H995 H 0.86249 0.15927 0.10042 0.0
H996 H 0.92566 0.12146 0.08844 0.0
C997 C 0.85458 0.0663 0.05588 0.0
C998 C 0.61381 0.0772 0.86615 0.0
C999 C 0.60337 0.07164 0.88973 0.0
H1000 H 0.65405 0.10736 0.84135 0.0
C1001 C 0.62575 0.09469 0.90669 0.0
H1002 H 0.59707 0.06013 0.85264 0.0
C1003 C 0.65876 0.12167 0.90022 0.0
C1004 C 0.66975 0.12647 0.87665 0.0
H1005 H 0.61843 0.09114 0.92501 0.0
H1006 H 0.67599 0.13828 0.9137 0.0
C1007 C 0.64646 0.10444 0.85968 0.0
C1008 C 0.82643 0.65773 0.88031 0.0
C1009 C 0.79758 0.65134 0.89846 0.0
H1010 H 0.87867 0.63237 0.86164 0.0
C1011 C 0.80535 0.61862 0.91488 0.0
H1012 H 0.82187 0.68296 0.86752 0.0
C1013 C 0.83871 0.59005 0.91171 0.0
C1014 C 0.8643 0.59361 0.89194 0.0
H1015 H 0.78397 0.61309 0.92919 0.0
H1016 H 0.84194 0.56294 0.92345 0.0
C1017 C 0.85916 0.62887 0.87695 0.0
C1018 C 0.66845 0.65779 0.11129 0.0
C1019 C 0.69424 0.65318 0.09162 0.0
H1020 H 0.6178 0.63191 0.13115 0.0
C1021 C 0.6826 0.62369 0.07426 0.0
H1022 H 0.67601 0.68059 0.12487 0.0
C1023 C 0.64839 0.59631 0.07772 0.0
C1024 C 0.62583 0.59778 0.09868 0.0
H1025 H 0.70155 0.61964 0.0588 0.0
H1026 H 0.64213 0.57148 0.06501 0.0
C1027 C 0.63489 0.63005 0.11489 0.0
C1028 C 0.65949 0.33885 0.31149 0.0
C1029 C 0.68334 0.33711 0.33207 0.0
H1030 H 0.61003 0.36982 0.29289 0.0
C1031 C 0.67113 0.36214 0.3512 0.0
H1032 H 0.66774 0.31955 0.29652 0.0
C1033 C 0.63786 0.39095 0.34912 0.0
C1034 C 0.61631 0.39528 0.32786 0.0
H1035 H 0.68863 0.36126 0.36735 0.0
H1036 H 0.63061 0.41145 0.36378 0.0
C1037 C 0.62636 0.3677 0.30939 0.0
C1038 C 0.85475 0.40491 0.60499 0.0
C1039 C 0.88118 0.40357 0.62458 0.0
H1040 H 0.79939 0.38035 0.58886 0.0
C1041 C 0.87583 0.37067 0.6411 0.0
H1042 H 0.8583 0.42969 0.59186 0.0
C1043 C 0.84222 0.34246 0.63936 0.0
C1044 C 0.81322 0.34664 0.62109 0.0
H1045 H 0.8961 0.36831 0.65618 0.0
H1046 H 0.83754 0.31914 0.65315 0.0
C1047 C 0.82097 0.37663 0.60327 0.0
C1048 C 0.14125 0.41971 0.14868 0.0
C1049 C 0.134 0.41989 0.12452 0.0
H1050 H 0.1789 0.39678 0.1769 0.0
C1051 C 0.15898 0.39366 0.11028 0.0
H1052 H 0.12253 0.43936 0.16019 0.0
C1053 C 0.19166 0.36935 0.11987 0.0
C1054 C 0.19989 0.37049 0.14394 0.0
H1055 H 0.15427 0.39302 0.09159 0.0
H1056 H 0.21108 0.35051 0.10833 0.0
C1057 C 0.17366 0.39523 0.15828 0.0
C1058 C 0.33383 0.39999 0.87856 0.0
C1059 C 0.3613 0.424 0.86452 0.0
H1060 H 0.27969 0.35954 0.87988 0.0
C1061 C 0.35657 0.42219 0.84019 0.0
H1062 H 0.33655 0.40064 0.89737 0.0
C1063 C 0.3241 0.39854 0.83017 0.0
C1064 C 0.29532 0.37628 0.84423 0.0
H1065 H 0.37726 0.4401 0.82883 0.0
H1066 H 0.32079 0.39893 0.81139 0.0
C1067 C 0.30112 0.3765 0.86853 0.0
C1068 C 0.38891 0.56408 0.59868 0.0
C1069 C 0.40478 0.56413 0.57589 0.0
H1070 H 0.34683 0.59247 0.62299 0.0
C1071 C 0.3907 0.59564 0.56009 0.0
H1072 H 0.39919 0.54042 0.61131 0.0
C1073 C 0.36038 0.62558 0.56677 0.0
C1074 C 0.34369 0.6247 0.5894 0.0
H1075 H 0.40238 0.59659 0.54239 0.0
H1076 H 0.3495 0.64885 0.55408 0.0
C1077 C 0.35884 0.59404 0.60537 0.0
C1078 C 0.10022 0.54827 0.36961 0.0
C1079 C 0.0828 0.54959 0.39204 0.0
H1080 H 0.1445 0.57477 0.34576 0.0
C1081 C 0.09685 0.58107 0.40773 0.0
H1082 H 0.09003 0.52458 0.35705 0.0
C1083 C 0.12839 0.60991 0.40127 0.0
C1084 C 0.14633 0.60799 0.37895 0.0
H1085 H 0.08405 0.58298 0.42516 0.0
H1086 H 0.13902 0.63331 0.41387 0.0
C1087 C 0.13148 0.57717 0.36312 0.0
loop_
_geom_bond_atom_site_label_1
_geom_bond_atom_site_label_2
_geom_bond_distance
_geom_bond_site_symmetry_2
_ccdc_geom_bond_type
Zn0 O3 2.031 . S
Zn0 O5 2.049 . S
Zn0 O10 2.067 . S
Zn1 O2 1.962 . S
Zn1 O4 1.986 . S
Zn1 O6 1.996 . S
Zn1 O9 1.943 . S
O2 Zn1 1.962 . S
O2 C7 1.254 . S
O3 Zn0 2.031 . S
O3 C7 1.269 . S
O4 Zn1 1.986 . S
O4 C11 1.262 . S
O5 Zn0 2.049 . S
O5 C13 1.260 . S
O6 Zn1 1.996 . S
O6 C13 1.257 . S
C7 O2 1.254 . S
C7 O3 1.269 . S
C8 O9 1.249 . S
C8 O10 1.270 . S
O9 Zn1 1.943 . S
O9 C8 1.249 . S
O10 Zn0 2.067 . S
O10 C8 1.270 . S
C11 O4 1.262 . S
C11 O12 1.232 . S
O12 C11 1.232 . S
C13 O5 1.260 . S
C13 O6 1.257 . S
Zn14 O17 2.031 . S
Zn14 O19 2.049 1_565 S
Zn14 O24 2.067 . S
Zn15 O16 1.962 1_455 S
Zn15 O18 1.986 1_565 S
Zn15 O20 1.996 1_565 S
Zn15 O23 1.943 . S
O16 Zn15 1.962 1_655 S
O16 C21 1.254 . S
O17 Zn14 2.031 . S
O17 C21 1.269 1_455 S
O18 Zn15 1.986 1_545 S
O18 C25 1.262 1_545 S
O19 Zn14 2.049 1_545 S
O19 C27 1.260 . S
O20 Zn15 1.996 1_545 S
O20 C27 1.257 . S
C21 O16 1.254 . S
C21 O17 1.269 1_655 S
C22 O23 1.249 . S
C22 O24 1.270 . S
O23 Zn15 1.943 . S
O23 C22 1.249 . S
O24 Zn14 2.067 . S
O24 C22 1.270 . S
C25 O18 1.262 1_565 S
C25 O26 1.232 . S
O26 C25 1.232 . S
C27 O19 1.260 . S
C27 O20 1.257 . S
Zn28 O31 2.031 . S
Zn28 O33 2.049 . S
Zn28 O38 2.067 . S
Zn29 O30 1.962 . S
Zn29 O32 1.986 . S
Zn29 O34 1.996 . S
Zn29 O37 1.943 . S
O30 Zn29 1.962 . S
O30 C35 1.254 . S
O31 Zn28 2.031 . S
O31 C35 1.269 . S
O32 Zn29 1.986 . S
O32 C39 1.262 . S
O33 Zn28 2.049 . S
O33 C41 1.260 . S
O34 Zn29 1.996 . S
O34 C41 1.257 . S
C35 O30 1.254 . S
C35 O31 1.269 . S
C36 O37 1.249 . S
C36 O38 1.270 . S
O37 Zn29 1.943 . S
O37 C36 1.249 . S
O38 Zn28 2.067 . S
O38 C36 1.270 . S
C39 O32 1.262 . S
C39 O40 1.232 . S
O40 C39 1.232 . S
C41 O33 1.260 . S
C41 O34 1.257 . S
Zn42 O45 2.031 . S
Zn42 O47 2.049 1_545 S
Zn42 O52 2.067 . S
Zn43 O44 1.962 . S
Zn43 O46 1.986 1_545 S
Zn43 O48 1.996 1_545 S
Zn43 O51 1.943 . S
O44 Zn43 1.962 . S
O44 C49 1.254 . S
O45 Zn42 2.031 . S
O45 C49 1.269 . S
O46 Zn43 1.986 1_565 S
O46 C53 1.262 1_565 S
O47 Zn42 2.049 1_565 S
O47 C55 1.260 . S
O48 Zn43 1.996 1_565 S
O48 C55 1.257 . S
C49 O44 1.254 . S
C49 O45 1.269 . S
C50 O51 1.249 . S
C50 O52 1.270 . S
O51 Zn43 1.943 . S
O51 C50 1.249 . S
O52 Zn42 2.067 . S
O52 C50 1.270 . S
C53 O46 1.262 1_545 S
C53 O54 1.232 . S
O54 C53 1.232 . S
C55 O47 1.260 . S
C55 O48 1.257 . S
Zn56 O59 2.031 . S
Zn56 O61 2.049 . S
Zn56 O66 2.067 . S
Zn57 O58 1.962 . S
Zn57 O60 1.986 . S
Zn57 O62 1.996 . S
Zn57 O65 1.943 . S
O58 Zn57 1.962 . S
O58 C63 1.254 . S
O59 Zn56 2.031 . S
O59 C63 1.269 . S
O60 Zn57 1.986 . S
O60 C67 1.262 . S
O61 Zn56 2.049 . S
O61 C69 1.260 . S
O62 Zn57 1.996 . S
O62 C69 1.257 . S
C63 O58 1.254 . S
C63 O59 1.269 . S
C64 O65 1.249 . S
C64 O66 1.270 . S
O65 Zn57 1.943 . S
O65 C64 1.249 . S
O66 Zn56 2.067 . S
O66 C64 1.270 . S
C67 O60 1.262 . S
C67 O68 1.232 . S
O68 C67 1.232 . S
C69 O61 1.260 . S
C69 O62 1.257 . S
Zn70 O73 2.031 . S
Zn70 O75 2.049 1_565 S
Zn70 O80 2.067 . S
Zn71 O72 1.962 . S
Zn71 O74 1.986 1_565 S
Zn71 O76 1.996 1_565 S
Zn71 O79 1.943 . S
O72 Zn71 1.962 . S
O72 C77 1.254 . S
O73 Zn70 2.031 . S
O73 C77 1.269 . S
O74 Zn71 1.986 1_545 S
O74 C81 1.262 1_545 S
O75 Zn70 2.049 1_545 S
O75 C83 1.260 . S
O76 Zn71 1.996 1_545 S
O76 C83 1.257 . S
C77 O72 1.254 . S
C77 O73 1.269 . S
C78 O79 1.249 . S
C78 O80 1.270 . S
O79 Zn71 1.943 . S
O79 C78 1.249 . S
O80 Zn70 2.067 . S
O80 C78 1.270 . S
C81 O74 1.262 1_565 S
C81 O82 1.232 . S
O82 C81 1.232 . S
C83 O75 1.260 . S
C83 O76 1.257 . S
Zn84 O87 2.031 . S
Zn84 O89 2.049 . S
Zn84 O94 2.067 . S
Zn85 O86 1.962 . S
Zn85 O88 1.986 . S
Zn85 O90 1.996 . S
Zn85 O93 1.943 . S
O86 Zn85 1.962 . S
O86 C91 1.254 . S
O87 Zn84 2.031 . S
O87 C91 1.269 . S
O88 Zn85 1.986 . S
O88 C95 1.262 . S
O89 Zn84 2.049 . S
O89 C97 1.260 . S
O90 Zn85 1.996 . S
O90 C97 1.257 . S
C91 O86 1.254 . S
C91 O87 1.269 . S
C92 O93 1.249 . S
C92 O94 1.270 . S
O93 Zn85 1.943 . S
O93 C92 1.249 . S
O94 Zn84 2.067 . S
O94 C92 1.270 . S
C95 O88 1.262 . S
C95 O96 1.232 . S
O96 C95 1.232 . S
C97 O89 1.260 . S
C97 O90 1.257 . S
Zn98 O101 2.031 . S
Zn98 O103 2.049 1_545 S
Zn98 O108 2.067 . S
Zn99 O100 1.962 1_455 S
Zn99 O102 1.986 1_545 S
Zn99 O104 1.996 1_545 S
Zn99 O107 1.943 . S
O100 Zn99 1.962 1_655 S
O100 C105 1.254 . S
O101 Zn98 2.031 . S
O101 C105 1.269 1_455 S
O102 Zn99 1.986 1_565 S
O102 C109 1.262 1_565 S
O103 Zn98 2.049 1_565 S
O103 C111 1.260 . S
O104 Zn99 1.996 1_565 S
O104 C111 1.257 . S
C105 O100 1.254 . S
C105 O101 1.269 1_655 S
C106 O107 1.249 . S
C106 O108 1.270 . S
O107 Zn99 1.943 . S
O107 C106 1.249 . S
O108 Zn98 2.067 . S
O108 C106 1.270 . S
C109 O102 1.262 1_545 S
C109 O110 1.232 . S
O110 C109 1.232 . S
C111 O103 1.260 . S
C111 O104 1.257 . S
Zn112 O115 2.031 . S
Zn112 O117 2.049 . S
Zn112 O122 2.067 . S
Zn113 O114 1.962 . S
Zn113 O116 1.986 . S
Zn113 O118 1.996 . S
Zn113 O121 1.943 . S
O114 Zn113 1.962 . S
O114 C119 1.254 . S
O115 Zn112 2.031 . S
O115 C119 1.269 . S
O116 Zn113 1.986 . S
O116 C123 1.262 . S
O117 Zn112 2.049 . S
O117 C125 1.260 . S
O118 Zn113 1.996 . S
O118 C125 1.257 . S
C119 O114 1.254 . S
C119 O115 1.269 . S
C120 O121 1.249 . S
C120 O122 1.270 . S
O121 Zn113 1.943 . S
O121 C120 1.249 . S
O122 Zn112 2.067 . S
O122 C120 1.270 . S
C123 O116 1.262 . S
C123 O124 1.232 . S
O124 C123 1.232 . S
C125 O117 1.260 . S
C125 O118 1.257 . S
Zn126 O129 2.031 . S
Zn126 O131 2.049 . S
Zn126 O136 2.067 1_655 S
Zn127 O128 1.962 . S
Zn127 O130 1.986 1_545 S
Zn127 O132 1.996 . S
Zn127 O135 1.943 . S
O128 Zn127 1.962 . S
O128 C133 1.254 . S
O129 Zn126 2.031 . S
O129 C133 1.269 . S
O130 Zn127 1.986 1_565 S
O130 C137 1.262 . S
O131 Zn126 2.049 . S
O131 C139 1.260 . S
O132 Zn127 1.996 . S
O132 C139 1.257 . S
C133 O128 1.254 . S
C133 O129 1.269 . S
C134 O135 1.249 1_455 S
C134 O136 1.270 . S
O135 Zn127 1.943 . S
O135 C134 1.249 1_655 S
O136 Zn126 2.067 1_455 S
O136 C134 1.270 . S
C137 O130 1.262 . S
C137 O138 1.232 . S
O138 C137 1.232 . S
C139 O131 1.260 . S
C139 O132 1.257 . S
Zn140 O143 2.031 . S
Zn140 O145 2.049 . S
Zn140 O150 2.067 . S
Zn141 O142 1.962 . S
Zn141 O144 1.986 . S
Zn141 O146 1.996 . S
Zn141 O149 1.943 . S
O142 Zn141 1.962 . S
O142 C147 1.254 . S
O143 Zn140 2.031 . S
O143 C147 1.269 . S
O144 Zn141 1.986 . S
O144 C151 1.262 . S
O145 Zn140 2.049 . S
O145 C153 1.260 . S
O146 Zn141 1.996 . S
O146 C153 1.257 . S
C147 O142 1.254 . S
C147 O143 1.269 . S
C148 O149 1.249 . S
C148 O150 1.270 . S
O149 Zn141 1.943 . S
O149 C148 1.249 . S
O150 Zn140 2.067 . S
O150 C148 1.270 . S
C151 O144 1.262 . S
C151 O152 1.232 . S
O152 C151 1.232 . S
C153 O145 1.260 . S
C153 O146 1.257 . S
Zn154 O157 2.031 . S
Zn154 O159 2.049 . S
Zn154 O164 2.067 . S
Zn155 O156 1.962 . S
Zn155 O158 1.986 1_565 S
Zn155 O160 1.996 . S
Zn155 O163 1.943 . S
O156 Zn155 1.962 . S
O156 C161 1.254 . S
O157 Zn154 2.031 . S
O157 C161 1.269 . S
O158 Zn155 1.986 1_545 S
O158 C165 1.262 . S
O159 Zn154 2.049 . S
O159 C167 1.260 . S
O160 Zn155 1.996 . S
O160 C167 1.257 . S
C161 O156 1.254 . S
C161 O157 1.269 . S
C162 O163 1.249 . S
C162 O164 1.270 . S
O163 Zn155 1.943 . S
O163 C162 1.249 . S
O164 Zn154 2.067 . S
O164 C162 1.270 . S
C165 O158 1.262 . S
C165 O166 1.232 . S
O166 C165 1.232 . S
C167 O159 1.260 . S
C167 O160 1.257 . S
Zn168 O171 2.031 . S
Zn168 O173 2.049 . S
Zn168 O178 2.067 . S
Zn169 O170 1.962 . S
Zn169 O172 1.986 . S
Zn169 O174 1.996 . S
Zn169 O177 1.943 . S
O170 Zn169 1.962 . S
O170 C175 1.254 . S
O171 Zn168 2.031 . S
O171 C175 1.269 . S
O172 Zn169 1.986 . S
O172 C179 1.262 . S
O173 Zn168 2.049 . S
O173 C181 1.260 . S
O174 Zn169 1.996 . S
O174 C181 1.257 . S
C175 O170 1.254 . S
C175 O171 1.269 . S
C176 O177 1.249 . S
C176 O178 1.270 . S
O177 Zn169 1.943 . S
O177 C176 1.249 . S
O178 Zn168 2.067 . S
O178 C176 1.270 . S
C179 O172 1.262 . S
C179 O180 1.232 . S
O180 C179 1.232 . S
C181 O173 1.260 . S
C181 O174 1.257 . S
Zn182 O185 2.031 . S
Zn182 O187 2.049 . S
Zn182 O192 2.067 . S
Zn183 O184 1.962 . S
Zn183 O186 1.986 1_545 S
Zn183 O188 1.996 . S
Zn183 O191 1.943 . S
O184 Zn183 1.962 . S
O184 C189 1.254 . S
O185 Zn182 2.031 . S
O185 C189 1.269 . S
O186 Zn183 1.986 1_565 S
O186 C193 1.262 . S
O187 Zn182 2.049 . S
O187 C195 1.260 . S
O188 Zn183 1.996 . S
O188 C195 1.257 . S
C189 O184 1.254 . S
C189 O185 1.269 . S
C190 O191 1.249 . S
C190 O192 1.270 . S
O191 Zn183 1.943 . S
O191 C190 1.249 . S
O192 Zn182 2.067 . S
O192 C190 1.270 . S
C193 O186 1.262 . S
C193 O194 1.232 . S
O194 C193 1.232 . S
C195 O187 1.260 . S
C195 O188 1.257 . S
Zn196 O199 2.031 . S
Zn196 O201 2.049 . S
Zn196 O206 2.067 . S
Zn197 O198 1.962 . S
Zn197 O200 1.986 . S
Zn197 O202 1.996 . S
Zn197 O205 1.943 . S
O198 Zn197 1.962 . S
O198 C203 1.254 . S
O199 Zn196 2.031 . S
O199 C203 1.269 . S
O200 Zn197 1.986 . S
O200 C207 1.262 . S
O201 Zn196 2.049 . S
O201 C209 1.260 . S
O202 Zn197 1.996 . S
O202 C209 1.257 . S
C203 O198 1.254 . S
C203 O199 1.269 . S
C204 O205 1.249 . S
C204 O206 1.270 . S
O205 Zn197 1.943 . S
O205 C204 1.249 . S
O206 Zn196 2.067 . S
O206 C204 1.270 . S
C207 O200 1.262 . S
C207 O208 1.232 . S
O208 C207 1.232 . S
C209 O201 1.260 . S
C209 O202 1.257 . S
Zn210 O213 2.031 . S
Zn210 O215 2.049 . S
Zn210 O220 2.067 1_655 S
Zn211 O212 1.962 . S
Zn211 O214 1.986 1_565 S
Zn211 O216 1.996 . S
Zn211 O219 1.943 . S
O212 Zn211 1.962 . S
O212 C217 1.254 . S
O213 Zn210 2.031 . S
O213 C217 1.269 . S
O214 Zn211 1.986 1_545 S
O214 C221 1.262 . S
O215 Zn210 2.049 . S
O215 C223 1.260 . S
O216 Zn211 1.996 . S
O216 C223 1.257 . S
C217 O212 1.254 . S
C217 O213 1.269 . S
C218 O219 1.249 1_455 S
C218 O220 1.270 . S
O219 Zn211 1.943 . S
O219 C218 1.249 1_655 S
O220 Zn210 2.067 1_455 S
O220 C218 1.270 . S
C221 O214 1.262 . S
C221 O222 1.232 . S
O222 C221 1.232 . S
C223 O215 1.260 . S
C223 O216 1.257 . S
Zn224 O227 2.031 . S
Zn224 O229 2.049 . S
Zn224 O234 2.067 . S
Zn225 O226 1.962 . S
Zn225 O228 1.986 . S
Zn225 O230 1.996 . S
Zn225 O233 1.943 . S
O226 Zn225 1.962 . S
O226 C231 1.254 . S
O227 Zn224 2.031 . S
O227 C231 1.269 . S
O228 Zn225 1.986 . S
O228 C235 1.262 . S
O229 Zn224 2.049 . S
O229 C237 1.260 . S
O230 Zn225 1.996 . S
O230 C237 1.257 . S
C231 O226 1.254 . S
C231 O227 1.269 . S
C232 O233 1.249 . S
C232 O234 1.270 . S
O233 Zn225 1.943 . S
O233 C232 1.249 . S
O234 Zn224 2.067 . S
O234 C232 1.270 . S
C235 O228 1.262 . S
C235 O236 1.232 . S
O236 C235 1.232 . S
C237 O229 1.260 . S
C237 O230 1.257 . S
Zn238 O241 2.031 . S
Zn238 O243 2.049 . S
Zn238 O248 2.067 . S
Zn239 O240 1.962 . S
Zn239 O242 1.986 . S
Zn239 O244 1.996 . S
Zn239 O247 1.943 . S
O240 Zn239 1.962 . S
O240 C245 1.254 . S
O241 Zn238 2.031 . S
O241 C245 1.269 . S
O242 Zn239 1.986 . S
O242 C249 1.262 . S
O243 Zn238 2.049 . S
O243 C251 1.260 . S
O244 Zn239 1.996 . S
O244 C251 1.257 . S
C245 O240 1.254 . S
C245 O241 1.269 . S
C246 O247 1.249 . S
C246 O248 1.270 . S
O247 Zn239 1.943 . S
O247 C246 1.249 . S
O248 Zn238 2.067 . S
O248 C246 1.270 . S
C249 O242 1.262 . S
C249 O250 1.232 . S
O250 C249 1.232 . S
C251 O243 1.260 . S
C251 O244 1.257 . S
Zn252 O255 2.031 . S
Zn252 O257 2.049 . S
Zn252 O262 2.067 . S
Zn253 O254 1.962 . S
Zn253 O256 1.986 . S
Zn253 O258 1.996 . S
Zn253 O261 1.943 . S
O254 Zn253 1.962 . S
O254 C259 1.254 . S
O255 Zn252 2.031 . S
O255 C259 1.269 . S
O256 Zn253 1.986 . S
O256 C263 1.262 . S
O257 Zn252 2.049 . S
O257 C265 1.260 . S
O258 Zn253 1.996 . S
O258 C265 1.257 . S
C259 O254 1.254 . S
C259 O255 1.269 . S
C260 O261 1.249 . S
C260 O262 1.270 . S
O261 Zn253 1.943 . S
O261 C260 1.249 . S
O262 Zn252 2.067 . S
O262 C260 1.270 . S
C263 O256 1.262 . S
C263 O264 1.232 . S
O264 C263 1.232 . S
C265 O257 1.260 . S
C265 O258 1.257 . S
Zn266 O269 2.031 . S
Zn266 O271 2.049 . S
Zn266 O276 2.067 . S
Zn267 O268 1.962 1_655 S
Zn267 O270 1.986 . S
Zn267 O272 1.996 . S
Zn267 O275 1.943 . S
O268 Zn267 1.962 1_455 S
O268 C273 1.254 . S
O269 Zn266 2.031 . S
O269 C273 1.269 1_655 S
O270 Zn267 1.986 . S
O270 C277 1.262 . S
O271 Zn266 2.049 . S
O271 C279 1.260 . S
O272 Zn267 1.996 . S
O272 C279 1.257 . S
C273 O268 1.254 . S
C273 O269 1.269 1_455 S
C274 O275 1.249 . S
C274 O276 1.270 . S
O275 Zn267 1.943 . S
O275 C274 1.249 . S
O276 Zn266 2.067 . S
O276 C274 1.270 . S
C277 O270 1.262 . S
C277 O278 1.232 . S
O278 C277 1.232 . S
C279 O271 1.260 . S
C279 O272 1.257 . S
Zn280 O283 2.031 . S
Zn280 O285 2.049 . S
Zn280 O290 2.067 . S
Zn281 O282 1.962 . S
Zn281 O284 1.986 . S
Zn281 O286 1.996 . S
Zn281 O289 1.943 . S
O282 Zn281 1.962 . S
O282 C287 1.254 . S
O283 Zn280 2.031 . S
O283 C287 1.269 . S
O284 Zn281 1.986 . S
O284 C291 1.262 . S
O285 Zn280 2.049 . S
O285 C293 1.260 . S
O286 Zn281 1.996 . S
O286 C293 1.257 . S
C287 O282 1.254 . S
C287 O283 1.269 . S
C288 O289 1.249 . S
C288 O290 1.270 . S
O289 Zn281 1.943 . S
O289 C288 1.249 . S
O290 Zn280 2.067 . S
O290 C288 1.270 . S
C291 O284 1.262 . S
C291 O292 1.232 . S
O292 C291 1.232 . S
C293 O285 1.260 . S
C293 O286 1.257 . S
Zn294 O297 2.031 . S
Zn294 O299 2.049 . S
Zn294 O304 2.067 . S
Zn295 O296 1.962 1_655 S
Zn295 O298 1.986 . S
Zn295 O300 1.996 . S
Zn295 O303 1.943 . S
O296 Zn295 1.962 1_455 S
O296 C301 1.254 . S
O297 Zn294 2.031 . S
O297 C301 1.269 1_655 S
O298 Zn295 1.986 . S
O298 C305 1.262 . S
O299 Zn294 2.049 . S
O299 C307 1.260 . S
O300 Zn295 1.996 . S
O300 C307 1.257 . S
C301 O296 1.254 . S
C301 O297 1.269 1_455 S
C302 O303 1.249 . S
C302 O304 1.270 . S
O303 Zn295 1.943 . S
O303 C302 1.249 . S
O304 Zn294 2.067 . S
O304 C302 1.270 . S
C305 O298 1.262 . S
C305 O306 1.232 . S
O306 C305 1.232 . S
C307 O299 1.260 . S
C307 O300 1.257 . S
Zn308 O311 2.031 . S
Zn308 O313 2.049 . S
Zn308 O318 2.067 . S
Zn309 O310 1.962 . S
Zn309 O312 1.986 . S
Zn309 O314 1.996 . S
Zn309 O317 1.943 . S
O310 Zn309 1.962 . S
O310 C315 1.254 . S
O311 Zn308 2.031 . S
O311 C315 1.269 . S
O312 Zn309 1.986 . S
O312 C319 1.262 . S
O313 Zn308 2.049 . S
O313 C321 1.260 . S
O314 Zn309 1.996 . S
O314 C321 1.257 . S
C315 O310 1.254 . S
C315 O311 1.269 . S
C316 O317 1.249 . S
C316 O318 1.270 . S
O317 Zn309 1.943 . S
O317 C316 1.249 . S
O318 Zn308 2.067 . S
O318 C316 1.270 . S
C319 O312 1.262 . S
C319 O320 1.232 . S
O320 C319 1.232 . S
C321 O313 1.260 . S
C321 O314 1.257 . S
Zn322 O325 2.031 . S
Zn322 O327 2.049 . S
Zn322 O332 2.067 . S
Zn323 O324 1.962 . S
Zn323 O326 1.986 . S
Zn323 O328 1.996 . S
Zn323 O331 1.943 . S
O324 Zn323 1.962 . S
O324 C329 1.254 . S
O325 Zn322 2.031 . S
O325 C329 1.269 . S
O326 Zn323 1.986 . S
O326 C333 1.262 . S
O327 Zn322 2.049 . S
O327 C335 1.260 . S
O328 Zn323 1.996 . S
O328 C335 1.257 . S
C329 O324 1.254 . S
C329 O325 1.269 . S
C330 O331 1.249 . S
C330 O332 1.270 . S
O331 Zn323 1.943 . S
O331 C330 1.249 . S
O332 Zn322 2.067 . S
O332 C330 1.270 . S
C333 O326 1.262 . S
C333 O334 1.232 . S
O334 C333 1.232 . S
C335 O327 1.260 . S
C335 O328 1.257 . S
Zn336 O339 2.031 . S
Zn336 O341 2.049 . S
Zn336 O346 2.067 . S
Zn337 O338 1.962 . S
Zn337 O340 1.986 . S
Zn337 O342 1.996 . S
Zn337 O345 1.943 . S
O338 Zn337 1.962 . S
O338 C343 1.254 . S
O339 Zn336 2.031 . S
O339 C343 1.269 . S
O340 Zn337 1.986 . S
O340 C347 1.262 . S
O341 Zn336 2.049 . S
O341 C349 1.260 . S
O342 Zn337 1.996 . S
O342 C349 1.257 . S
C343 O338 1.254 . S
C343 O339 1.269 . S
C344 O345 1.249 . S
C344 O346 1.270 . S
O345 Zn337 1.943 . S
O345 C344 1.249 . S
O346 Zn336 2.067 . S
O346 C344 1.270 . S
C347 O340 1.262 . S
C347 O348 1.232 . S
O348 C347 1.232 . S
C349 O341 1.260 . S
C349 O342 1.257 . S
Zn350 O353 2.031 . S
Zn350 O355 2.049 . S
Zn350 O360 2.067 . S
Zn351 O352 1.962 . S
Zn351 O354 1.986 . S
Zn351 O356 1.996 . S
Zn351 O359 1.943 . S
O352 Zn351 1.962 . S
O352 C357 1.254 . S
O353 Zn350 2.031 . S
O353 C357 1.269 . S
O354 Zn351 1.986 . S
O354 C361 1.262 . S
O355 Zn350 2.049 . S
O355 C363 1.260 . S
O356 Zn351 1.996 . S
O356 C363 1.257 . S
C357 O352 1.254 . S
C357 O353 1.269 . S
C358 O359 1.249 . S
C358 O360 1.270 . S
O359 Zn351 1.943 . S
O359 C358 1.249 . S
O360 Zn350 2.067 . S
O360 C358 1.270 . S
C361 O354 1.262 . S
C361 O362 1.232 . S
O362 C361 1.232 . S
C363 O355 1.260 . S
C363 O356 1.257 . S
Zn364 O367 2.031 . S
Zn364 O369 2.049 . S
Zn364 O374 2.067 . S
Zn365 O366 1.962 . S
Zn365 O368 1.986 . S
Zn365 O370 1.996 . S
Zn365 O373 1.943 . S
O366 Zn365 1.962 . S
O366 C371 1.254 . S
O367 Zn364 2.031 . S
O367 C371 1.269 . S
O368 Zn365 1.986 . S
O368 C375 1.262 . S
O369 Zn364 2.049 . S
O369 C377 1.260 . S
O370 Zn365 1.996 . S
O370 C377 1.257 . S
C371 O366 1.254 . S
C371 O367 1.269 . S
C372 O373 1.249 . S
C372 O374 1.270 . S
O373 Zn365 1.943 . S
O373 C372 1.249 . S
O374 Zn364 2.067 . S
O374 C372 1.270 . S
C375 O368 1.262 . S
C375 O376 1.232 . S
O376 C375 1.232 . S
C377 O369 1.260 . S
C377 O370 1.257 . S
Zn378 O381 2.031 . S
Zn378 O383 2.049 . S
Zn378 O388 2.067 1_455 S
Zn379 O380 1.962 . S
Zn379 O382 1.986 . S
Zn379 O384 1.996 . S
Zn379 O387 1.943 . S
O380 Zn379 1.962 . S
O380 C385 1.254 . S
O381 Zn378 2.031 . S
O381 C385 1.269 . S
O382 Zn379 1.986 . S
O382 C389 1.262 . S
O383 Zn378 2.049 . S
O383 C391 1.260 . S
O384 Zn379 1.996 . S
O384 C391 1.257 . S
C385 O380 1.254 . S
C385 O381 1.269 . S
C386 O387 1.249 1_655 S
C386 O388 1.270 . S
O387 Zn379 1.943 . S
O387 C386 1.249 1_455 S
O388 Zn378 2.067 1_655 S
O388 C386 1.270 . S
C389 O382 1.262 . S
C389 O390 1.232 . S
O390 C389 1.232 . S
C391 O383 1.260 . S
C391 O384 1.257 . S
Zn392 O395 2.031 . S
Zn392 O397 2.049 . S
Zn392 O402 2.067 . S
Zn393 O394 1.962 . S
Zn393 O396 1.986 . S
Zn393 O398 1.996 . S
Zn393 O401 1.943 . S
O394 Zn393 1.962 . S
O394 C399 1.254 . S
O395 Zn392 2.031 . S
O395 C399 1.269 . S
O396 Zn393 1.986 . S
O396 C403 1.262 . S
O397 Zn392 2.049 . S
O397 C405 1.260 . S
O398 Zn393 1.996 . S
O398 C405 1.257 . S
C399 O394 1.254 . S
C399 O395 1.269 . S
C400 O401 1.249 . S
C400 O402 1.270 . S
O401 Zn393 1.943 . S
O401 C400 1.249 . S
O402 Zn392 2.067 . S
O402 C400 1.270 . S
C403 O396 1.262 . S
C403 O404 1.232 . S
O404 C403 1.232 . S
C405 O397 1.260 . S
C405 O398 1.257 . S
Zn406 O409 2.031 . S
Zn406 O411 2.049 . S
Zn406 O416 2.067 1_455 S
Zn407 O408 1.962 . S
Zn407 O410 1.986 . S
Zn407 O412 1.996 . S
Zn407 O415 1.943 . S
O408 Zn407 1.962 . S
O408 C413 1.254 . S
O409 Zn406 2.031 . S
O409 C413 1.269 . S
O410 Zn407 1.986 . S
O410 C417 1.262 . S
O411 Zn406 2.049 . S
O411 C419 1.260 . S
O412 Zn407 1.996 . S
O412 C419 1.257 . S
C413 O408 1.254 . S
C413 O409 1.269 . S
C414 O415 1.249 1_655 S
C414 O416 1.270 . S
O415 Zn407 1.943 . S
O415 C414 1.249 1_455 S
O416 Zn406 2.067 1_655 S
O416 C414 1.270 . S
C417 O410 1.262 . S
C417 O418 1.232 . S
O418 C417 1.232 . S
C419 O411 1.260 . S
C419 O412 1.257 . S
Zn420 O423 2.031 . S
Zn420 O425 2.049 . S
Zn420 O430 2.067 . S
Zn421 O422 1.962 . S
Zn421 O424 1.986 . S
Zn421 O426 1.996 . S
Zn421 O429 1.943 . S
O422 Zn421 1.962 . S
O422 C427 1.254 . S
O423 Zn420 2.031 . S
O423 C427 1.269 . S
O424 Zn421 1.986 . S
O424 C431 1.262 . S
O425 Zn420 2.049 . S
O425 C433 1.260 . S
O426 Zn421 1.996 . S
O426 C433 1.257 . S
C427 O422 1.254 . S
C427 O423 1.269 . S
C428 O429 1.249 . S
C428 O430 1.270 . S
O429 Zn421 1.943 . S
O429 C428 1.249 . S
O430 Zn420 2.067 . S
O430 C428 1.270 . S
C431 O424 1.262 . S
C431 O432 1.232 . S
O432 C431 1.232 . S
C433 O425 1.260 . S
C433 O426 1.257 . S
Zn434 O437 2.031 . S
Zn434 O439 2.049 . S
Zn434 O444 2.067 . S
Zn435 O436 1.962 . S
Zn435 O438 1.986 . S
Zn435 O440 1.996 . S
Zn435 O443 1.943 . S
O436 Zn435 1.962 . S
O436 C441 1.254 . S
O437 Zn434 2.031 . S
O437 C441 1.269 . S
O438 Zn435 1.986 . S
O438 C445 1.262 . S
O439 Zn434 2.049 . S
O439 C447 1.260 . S
O440 Zn435 1.996 . S
O440 C447 1.257 . S
C441 O436 1.254 . S
C441 O437 1.269 . S
C442 O443 1.249 . S
C442 O444 1.270 . S
O443 Zn435 1.943 . S
O443 C442 1.249 . S
O444 Zn434 2.067 . S
O444 C442 1.270 . S
C445 O438 1.262 . S
C445 O446 1.232 . S
O446 C445 1.232 . S
C447 O439 1.260 . S
C447 O440 1.257 . S
C448 C449 1.387 . S
C448 H452 0.950 . S
C448 C457 1.390 . S
C449 C448 1.387 . S
C449 C451 1.387 . S
H450 C457 0.950 . S
C451 C449 1.387 . S
C451 C453 1.390 . S
C451 H455 0.950 . S
H452 C448 0.950 . S
C453 C451 1.390 . S
C453 C454 1.387 . S
C453 H456 0.950 . S
C454 C453 1.387 . S
C454 C457 1.387 . S
H455 C451 0.950 . S
H456 C453 0.950 . S
C457 C448 1.390 . S
C457 H450 0.950 . S
C457 C454 1.387 . S
C458 C459 1.387 . S
C458 H462 0.950 . S
C458 C467 1.390 . S
C459 C458 1.387 . S
C459 C461 1.387 . S
H460 C467 0.950 . S
C461 C459 1.387 . S
C461 C463 1.390 . S
C461 H465 0.950 . S
H462 C458 0.950 . S
C463 C461 1.390 . S
C463 C464 1.387 . S
C463 H466 0.950 . S
C464 C463 1.387 . S
C464 C467 1.387 . S
H465 C461 0.950 . S
H466 C463 0.950 . S
C467 C458 1.390 . S
C467 H460 0.950 . S
C467 C464 1.387 . S
C468 C469 1.387 . S
C468 H472 0.950 . S
C468 C477 1.390 . S
C469 C468 1.387 . S
C469 C471 1.387 . S
H470 C477 0.950 . S
C471 C469 1.387 . S
C471 C473 1.390 . S
C471 H475 0.950 . S
H472 C468 0.950 . S
C473 C471 1.390 . S
C473 C474 1.387 . S
C473 H476 0.950 . S
C474 C473 1.387 . S
C474 C477 1.387 . S
H475 C471 0.950 . S
H476 C473 0.950 . S
C477 C468 1.390 . S
C477 H470 0.950 . S
C477 C474 1.387 . S
C478 C479 1.387 . S
C478 H482 0.950 . S
C478 C487 1.390 . S
C479 C478 1.387 . S
C479 C481 1.387 . S
H480 C487 0.950 . S
C481 C479 1.387 . S
C481 C483 1.390 . S
C481 H485 0.950 . S
H482 C478 0.950 . S
C483 C481 1.390 . S
C483 C484 1.387 . S
C483 H486 0.950 . S
C484 C483 1.387 . S
C484 C487 1.387 . S
H485 C481 0.950 . S
H486 C483 0.950 . S
C487 C478 1.390 . S
C487 H480 0.950 . S
C487 C484 1.387 . S
C488 C489 1.387 . S
C488 H492 0.950 . S
C488 C497 1.390 . S
C489 C488 1.387 . S
C489 C491 1.387 . S
H490 C497 0.950 . S
C491 C489 1.387 . S
C491 C493 1.390 . S
C491 H495 0.950 . S
H492 C488 0.950 . S
C493 C491 1.390 . S
C493 C494 1.387 . S
C493 H496 0.950 . S
C494 C493 1.387 . S
C494 C497 1.387 . S
H495 C491 0.950 . S
H496 C493 0.950 . S
C497 C488 1.390 . S
C497 H490 0.950 . S
C497 C494 1.387 . S
C498 C499 1.387 . S
C498 H502 0.950 . S
C498 C507 1.390 . S
C499 C498 1.387 . S
C499 C501 1.387 . S
H500 C507 0.950 . S
C501 C499 1.387 . S
C501 C503 1.390 . S
C501 H505 0.950 . S
H502 C498 0.950 . S
C503 C501 1.390 . S
C503 C504 1.387 . S
C503 H506 0.950 . S
C504 C503 1.387 . S
C504 C507 1.387 . S
H505 C501 0.950 . S
H506 C503 0.950 . S
C507 C498 1.390 . S
C507 H500 0.950 . S
C507 C504 1.387 . S
C508 C509 1.387 . S
C508 H512 0.950 . S
C508 C517 1.390 . S
C509 C508 1.387 . S
C509 C511 1.387 . S
H510 C517 0.950 . S
C511 C509 1.387 . S
C511 C513 1.390 . S
C511 H515 0.950 . S
H512 C508 0.950 . S
C513 C511 1.390 . S
C513 C514 1.387 . S
C513 H516 0.950 . S
C514 C513 1.387 . S
C514 C517 1.387 . S
H515 C511 0.950 . S
H516 C513 0.950 . S
C517 C508 1.390 . S
C517 H510 0.950 . S
C517 C514 1.387 . S
C518 C519 1.387 . S
C518 H522 0.950 . S
C518 C527 1.390 . S
C519 C518 1.387 . S
C519 C521 1.387 . S
H520 C527 0.950 . S
C521 C519 1.387 . S
C521 C523 1.390 . S
C521 H525 0.950 . S
H522 C518 0.950 . S
C523 C521 1.390 . S
C523 C524 1.387 . S
C523 H526 0.950 . S
C524 C523 1.387 . S
C524 C527 1.387 . S
H525 C521 0.950 . S
H526 C523 0.950 . S
C527 C518 1.390 . S
C527 H520 0.950 . S
C527 C524 1.387 . S
C528 C529 1.387 . S
C528 H532 0.950 . S
C528 C537 1.390 . S
C529 C528 1.387 . S
C529 C531 1.387 . S
H530 C537 0.950 . S
C531 C529 1.387 . S
C531 C533 1.390 . S
C531 H535 0.950 . S
H532 C528 0.950 . S
C533 C531 1.390 . S
C533 C534 1.387 . S
C533 H536 0.950 . S
C534 C533 1.387 . S
C534 C537 1.387 . S
H535 C531 0.950 . S
H536 C533 0.950 . S
C537 C528 1.390 . S
C537 H530 0.950 . S
C537 C534 1.387 . S
C538 C539 1.387 . S
C538 H542 0.950 . S
C538 C547 1.390 . S
C539 C538 1.387 . S
C539 C541 1.387 . S
H540 C547 0.950 . S
C541 C539 1.387 . S
C541 C543 1.390 . S
C541 H545 0.950 . S
H542 C538 0.950 . S
C543 C541 1.390 . S
C543 C544 1.387 . S
C543 H546 0.950 . S
C544 C543 1.387 . S
C544 C547 1.387 . S
H545 C541 0.950 . S
H546 C543 0.950 . S
C547 C538 1.390 . S
C547 H540 0.950 . S
C547 C544 1.387 . S
C548 C549 1.387 . S
C548 H552 0.950 . S
C548 C557 1.390 . S
C549 C548 1.387 . S
C549 C551 1.387 . S
H550 C557 0.950 . S
C551 C549 1.387 . S
C551 C553 1.390 . S
C551 H555 0.950 . S
H552 C548 0.950 . S
C553 C551 1.390 . S
C553 C554 1.387 . S
C553 H556 0.950 . S
C554 C553 1.387 . S
C554 C557 1.387 . S
H555 C551 0.950 . S
H556 C553 0.950 . S
C557 C548 1.390 . S
C557 H550 0.950 . S
C557 C554 1.387 . S
C558 C559 1.387 . S
C558 H562 0.950 . S
C558 C567 1.390 . S
C559 C558 1.387 . S
C559 C561 1.387 . S
H560 C567 0.950 . S
C561 C559 1.387 . S
C561 C563 1.390 . S
C561 H565 0.950 . S
H562 C558 0.950 . S
C563 C561 1.390 . S
C563 C564 1.387 . S
C563 H566 0.950 . S
C564 C563 1.387 . S
C564 C567 1.387 . S
H565 C561 0.950 . S
H566 C563 0.950 . S
C567 C558 1.390 . S
C567 H560 0.950 . S
C567 C564 1.387 . S
C568 C569 1.387 . S
C568 H572 0.950 . S
C568 C577 1.390 . S
C569 C568 1.387 . S
C569 C571 1.387 . S
H570 C577 0.950 . S
C571 C569 1.387 . S
C571 C573 1.390 . S
C571 H575 0.950 . S
H572 C568 0.950 . S
C573 C571 1.390 . S
C573 C574 1.387 . S
C573 H576 0.950 . S
C574 C573 1.387 . S
C574 C577 1.387 . S
H575 C571 0.950 . S
H576 C573 0.950 . S
C577 C568 1.390 . S
C577 H570 0.950 . S
C577 C574 1.387 . S
C578 C579 1.387 . S
C578 H582 0.950 . S
C578 C587 1.390 . S
C579 C578 1.387 . S
C579 C581 1.387 . S
H580 C587 0.950 . S
C581 C579 1.387 . S
C581 C583 1.390 . S
C581 H585 0.950 . S
H582 C578 0.950 . S
C583 C581 1.390 . S
C583 C584 1.387 . S
C583 H586 0.950 . S
C584 C583 1.387 . S
C584 C587 1.387 . S
H585 C581 0.950 . S
H586 C583 0.950 . S
C587 C578 1.390 . S
C587 H580 0.950 . S
C587 C584 1.387 . S
C588 C589 1.387 . S
C588 H592 0.950 . S
C588 C597 1.390 . S
C589 C588 1.387 . S
C589 C591 1.387 . S
H590 C597 0.950 . S
C591 C589 1.387 . S
C591 C593 1.390 . S
C591 H595 0.950 . S
H592 C588 0.950 . S
C593 C591 1.390 . S
C593 C594 1.387 . S
C593 H596 0.950 . S
C594 C593 1.387 . S
C594 C597 1.387 . S
H595 C591 0.950 . S
H596 C593 0.950 . S
C597 C588 1.390 . S
C597 H590 0.950 . S
C597 C594 1.387 . S
C598 C599 1.387 . S
C598 H602 0.950 . S
C598 C607 1.390 . S
C599 C598 1.387 . S
C599 C601 1.387 . S
H600 C607 0.950 . S
C601 C599 1.387 . S
C601 C603 1.390 . S
C601 H605 0.950 . S
H602 C598 0.950 . S
C603 C601 1.390 . S
C603 C604 1.387 . S
C603 H606 0.950 . S
C604 C603 1.387 . S
C604 C607 1.387 . S
H605 C601 0.950 . S
H606 C603 0.950 . S
C607 C598 1.390 . S
C607 H600 0.950 . S
C607 C604 1.387 . S
C608 C609 1.387 . S
C608 H612 0.950 . S
C608 C617 1.390 . S
C609 C608 1.387 . S
C609 C611 1.387 . S
H610 C617 0.950 . S
C611 C609 1.387 . S
C611 C613 1.390 . S
C611 H615 0.950 . S
H612 C608 0.950 . S
C613 C611 1.390 . S
C613 C614 1.387 . S
C613 H616 0.950 . S
C614 C613 1.387 . S
C614 C617 1.387 . S
H615 C611 0.950 . S
H616 C613 0.950 . S
C617 C608 1.390 . S
C617 H610 0.950 . S
C617 C614 1.387 . S
C618 C619 1.387 . S
C618 H622 0.950 . S
C618 C627 1.390 . S
C619 C618 1.387 . S
C619 C621 1.387 . S
H620 C627 0.950 . S
C621 C619 1.387 . S
C621 C623 1.390 . S
C621 H625 0.950 . S
H622 C618 0.950 . S
C623 C621 1.390 . S
C623 C624 1.387 . S
C623 H626 0.950 . S
C624 C623 1.387 . S
C624 C627 1.387 . S
H625 C621 0.950 . S
H626 C623 0.950 . S
C627 C618 1.390 . S
C627 H620 0.950 . S
C627 C624 1.387 . S
C628 C629 1.387 . S
C628 H632 0.950 . S
C628 C637 1.390 . S
C629 C628 1.387 . S
C629 C631 1.387 . S
H630 C637 0.950 . S
C631 C629 1.387 . S
C631 C633 1.390 . S
C631 H635 0.950 . S
H632 C628 0.950 . S
C633 C631 1.390 . S
C633 C634 1.387 . S
C633 H636 0.950 . S
C634 C633 1.387 . S
C634 C637 1.387 . S
H635 C631 0.950 . S
H636 C633 0.950 . S
C637 C628 1.390 . S
C637 H630 0.950 . S
C637 C634 1.387 . S
C638 C639 1.387 . S
C638 H642 0.950 . S
C638 C647 1.390 . S
C639 C638 1.387 . S
C639 C641 1.387 . S
H640 C647 0.950 . S
C641 C639 1.387 . S
C641 C643 1.390 . S
C641 H645 0.950 . S
H642 C638 0.950 . S
C643 C641 1.390 . S
C643 C644 1.387 . S
C643 H646 0.950 . S
C644 C643 1.387 . S
C644 C647 1.387 . S
H645 C641 0.950 . S
H646 C643 0.950 . S
C647 C638 1.390 . S
C647 H640 0.950 . S
C647 C644 1.387 . S
C648 C649 1.387 . S
C648 H652 0.950 . S
C648 C657 1.390 . S
C649 C648 1.387 . S
C649 C651 1.387 . S
H650 C657 0.950 . S
C651 C649 1.387 . S
C651 C653 1.390 . S
C651 H655 0.950 . S
H652 C648 0.950 . S
C653 C651 1.390 . S
C653 C654 1.387 . S
C653 H656 0.950 . S
C654 C653 1.387 . S
C654 C657 1.387 . S
H655 C651 0.950 . S
H656 C653 0.950 . S
C657 C648 1.390 . S
C657 H650 0.950 . S
C657 C654 1.387 . S
C658 C659 1.387 . S
C658 H662 0.950 . S
C658 C667 1.390 . S
C659 C658 1.387 . S
C659 C661 1.387 . S
H660 C667 0.950 . S
C661 C659 1.387 . S
C661 C663 1.390 . S
C661 H665 0.950 . S
H662 C658 0.950 . S
C663 C661 1.390 . S
C663 C664 1.387 . S
C663 H666 0.950 . S
C664 C663 1.387 . S
C664 C667 1.387 . S
H665 C661 0.950 . S
H666 C663 0.950 . S
C667 C658 1.390 . S
C667 H660 0.950 . S
C667 C664 1.387 . S
C668 C669 1.387 . S
C668 H672 0.950 . S
C668 C677 1.390 . S
C669 C668 1.387 . S
C669 C671 1.387 . S
H670 C677 0.950 . S
C671 C669 1.387 . S
C671 C673 1.390 . S
C671 H675 0.950 . S
H672 C668 0.950 . S
C673 C671 1.390 . S
C673 C674 1.387 . S
C673 H676 0.950 . S
C674 C673 1.387 . S
C674 C677 1.387 . S
H675 C671 0.950 . S
H676 C673 0.950 . S
C677 C668 1.390 . S
C677 H670 0.950 . S
C677 C674 1.387 . S
C678 C679 1.387 . S
C678 H682 0.950 . S
C678 C687 1.390 . S
C679 C678 1.387 . S
C679 C681 1.387 . S
H680 C687 0.950 . S
C681 C679 1.387 . S
C681 C683 1.390 . S
C681 H685 0.950 . S
H682 C678 0.950 . S
C683 C681 1.390 . S
C683 C684 1.387 . S
C683 H686 0.950 . S
C684 C683 1.387 . S
C684 C687 1.387 . S
H685 C681 0.950 . S
H686 C683 0.950 . S
C687 C678 1.390 . S
C687 H680 0.950 . S
C687 C684 1.387 . S
C688 C689 1.387 . S
C688 H692 0.950 . S
C688 C697 1.390 . S
C689 C688 1.387 . S
C689 C691 1.387 . S
H690 C697 0.950 . S
C691 C689 1.387 . S
C691 C693 1.390 . S
C691 H695 0.950 . S
H692 C688 0.950 . S
C693 C691 1.390 . S
C693 C694 1.387 . S
C693 H696 0.950 . S
C694 C693 1.387 . S
C694 C697 1.387 . S
H695 C691 0.950 . S
H696 C693 0.950 . S
C697 C688 1.390 . S
C697 H690 0.950 . S
C697 C694 1.387 . S
C698 C699 1.387 . S
C698 H702 0.950 . S
C698 C707 1.390 . S
C699 C698 1.387 . S
C699 C701 1.387 . S
H700 C707 0.950 . S
C701 C699 1.387 . S
C701 C703 1.390 . S
C701 H705 0.950 . S
H702 C698 0.950 . S
C703 C701 1.390 . S
C703 C704 1.387 . S
C703 H706 0.950 . S
C704 C703 1.387 . S
C704 C707 1.387 . S
H705 C701 0.950 . S
H706 C703 0.950 . S
C707 C698 1.390 . S
C707 H700 0.950 . S
C707 C704 1.387 . S
C708 C709 1.387 . S
C708 H712 0.950 . S
C708 C717 1.390 . S
C709 C708 1.387 . S
C709 C711 1.387 . S
H710 C717 0.950 . S
C711 C709 1.387 . S
C711 C713 1.390 . S
C711 H715 0.950 . S
H712 C708 0.950 . S
C713 C711 1.390 . S
C713 C714 1.387 . S
C713 H716 0.950 . S
C714 C713 1.387 . S
C714 C717 1.387 . S
H715 C711 0.950 . S
H716 C713 0.950 . S
C717 C708 1.390 . S
C717 H710 0.950 . S
C717 C714 1.387 . S
C718 C719 1.387 . S
C718 H722 0.950 . S
C718 C727 1.390 . S
C719 C718 1.387 . S
C719 C721 1.387 . S
H720 C727 0.950 . S
C721 C719 1.387 . S
C721 C723 1.390 . S
C721 H725 0.950 . S
H722 C718 0.950 . S
C723 C721 1.390 . S
C723 C724 1.387 . S
C723 H726 0.950 . S
C724 C723 1.387 . S
C724 C727 1.387 . S
H725 C721 0.950 . S
H726 C723 0.950 . S
C727 C718 1.390 . S
C727 H720 0.950 . S
C727 C724 1.387 . S
C728 C729 1.387 . S
C728 H732 0.950 . S
C728 C737 1.390 . S
C729 C728 1.387 . S
C729 C731 1.387 . S
H730 C737 0.950 . S
C731 C729 1.387 . S
C731 C733 1.390 . S
C731 H735 0.950 . S
H732 C728 0.950 . S
C733 C731 1.390 . S
C733 C734 1.387 . S
C733 H736 0.950 . S
C734 C733 1.387 . S
C734 C737 1.387 . S
H735 C731 0.950 . S
H736 C733 0.950 . S
C737 C728 1.390 . S
C737 H730 0.950 . S
C737 C734 1.387 . S
C738 C739 1.387 . S
C738 H742 0.950 . S
C738 C747 1.390 . S
C739 C738 1.387 . S
C739 C741 1.387 . S
H740 C747 0.950 . S
C741 C739 1.387 . S
C741 C743 1.390 . S
C741 H745 0.950 . S
H742 C738 0.950 . S
C743 C741 1.390 . S
C743 C744 1.387 . S
C743 H746 0.950 . S
C744 C743 1.387 . S
C744 C747 1.387 . S
H745 C741 0.950 . S
H746 C743 0.950 . S
C747 C738 1.390 . S
C747 H740 0.950 . S
C747 C744 1.387 . S
C748 C749 1.387 . S
C748 H752 0.950 . S
C748 C757 1.390 . S
C749 C748 1.387 . S
C749 C751 1.387 . S
H750 C757 0.950 . S
C751 C749 1.387 . S
C751 C753 1.390 . S
C751 H755 0.950 . S
H752 C748 0.950 . S
C753 C751 1.390 . S
C753 C754 1.387 . S
C753 H756 0.950 . S
C754 C753 1.387 . S
C754 C757 1.387 . S
H755 C751 0.950 . S
H756 C753 0.950 . S
C757 C748 1.390 . S
C757 H750 0.950 . S
C757 C754 1.387 . S
C758 C759 1.387 . S
C758 H762 0.950 . S
C758 C767 1.390 . S
C759 C758 1.387 . S
C759 C761 1.387 . S
H760 C767 0.950 . S
C761 C759 1.387 . S
C761 C763 1.390 . S
C761 H765 0.950 . S
H762 C758 0.950 . S
C763 C761 1.390 . S
C763 C764 1.387 . S
C763 H766 0.950 . S
C764 C763 1.387 . S
C764 C767 1.387 . S
H765 C761 0.950 . S
H766 C763 0.950 . S
C767 C758 1.390 . S
C767 H760 0.950 . S
C767 C764 1.387 . S
C768 C769 1.387 . S
C768 H772 0.950 . S
C768 C777 1.390 . S
C769 C768 1.387 . S
C769 C771 1.387 . S
H770 C777 0.950 . S
C771 C769 1.387 . S
C771 C773 1.390 . S
C771 H775 0.950 . S
H772 C768 0.950 . S
C773 C771 1.390 . S
C773 C774 1.387 . S
C773 H776 0.950 . S
C774 C773 1.387 . S
C774 C777 1.387 . S
H775 C771 0.950 . S
H776 C773 0.950 . S
C777 C768 1.390 . S
C777 H770 0.950 . S
C777 C774 1.387 . S
C778 C779 1.387 1_545 S
C778 H782 0.950 . S
C778 C787 1.390 1_455 S
C779 C778 1.387 1_565 S
C779 C781 1.387 . S
H780 C787 0.950 . S
C781 C779 1.387 . S
C781 C783 1.390 1_455 S
C781 H785 0.950 . S
H782 C778 0.950 . S
C783 C781 1.390 1_655 S
C783 C784 1.387 1_565 S
C783 H786 0.950 . S
C784 C783 1.387 1_545 S
C784 C787 1.387 . S
H785 C781 0.950 . S
H786 C783 0.950 . S
C787 C778 1.390 1_655 S
C787 H780 0.950 . S
C787 C784 1.387 . S
C788 C789 1.387 . S
C788 H792 0.950 . S
C788 C797 1.390 . S
C789 C788 1.387 . S
C789 C791 1.387 . S
H790 C797 0.950 . S
C791 C789 1.387 . S
C791 C793 1.390 . S
C791 H795 0.950 . S
H792 C788 0.950 . S
C793 C791 1.390 . S
C793 C794 1.387 . S
C793 H796 0.950 . S
C794 C793 1.387 . S
C794 C797 1.387 . S
H795 C791 0.950 . S
H796 C793 0.950 . S
C797 C788 1.390 . S
C797 H790 0.950 . S
C797 C794 1.387 . S
C798 C799 1.387 1_556 S
C798 H802 0.950 . S
C798 C807 1.390 1_545 S
C799 C798 1.387 1_554 S
C799 C801 1.387 . S
H800 C807 0.950 . S
C801 C799 1.387 . S
C801 C803 1.390 1_544 S
C801 H805 0.950 . S
H802 C798 0.950 . S
C803 C801 1.390 1_566 S
C803 C804 1.387 . S
C803 H806 0.950 . S
C804 C803 1.387 . S
C804 C807 1.387 . S
H805 C801 0.950 . S
H806 C803 0.950 . S
C807 C798 1.390 1_565 S
C807 H800 0.950 . S
C807 C804 1.387 . S
C808 C809 1.387 . S
C808 H812 0.950 . S
C808 C817 1.390 . S
C809 C808 1.387 . S
C809 C811 1.387 . S
H810 C817 0.950 . S
C811 C809 1.387 . S
C811 C813 1.390 . S
C811 H815 0.950 . S
H812 C808 0.950 . S
C813 C811 1.390 . S
C813 C814 1.387 . S
C813 H816 0.950 . S
C814 C813 1.387 . S
C814 C817 1.387 . S
H815 C811 0.950 . S
H816 C813 0.950 . S
C817 C808 1.390 . S
C817 H810 0.950 . S
C817 C814 1.387 . S
C818 C819 1.387 1_545 S
C818 H822 0.950 . S
C818 C827 1.390 . S
C819 C818 1.387 1_565 S
C819 C821 1.387 . S
H820 C827 0.950 . S
C821 C819 1.387 . S
C821 C823 1.390 . S
C821 H825 0.950 . S
H822 C818 0.950 . S
C823 C821 1.390 . S
C823 C824 1.387 1_565 S
C823 H826 0.950 . S
C824 C823 1.387 1_545 S
C824 C827 1.387 . S
H825 C821 0.950 . S
H826 C823 0.950 . S
C827 C818 1.390 . S
C827 H820 0.950 . S
C827 C824 1.387 . S
C828 C829 1.387 . S
C828 H832 0.950 . S
C828 C837 1.390 . S
C829 C828 1.387 . S
C829 C831 1.387 . S
H830 C837 0.950 . S
C831 C829 1.387 . S
C831 C833 1.390 . S
C831 H835 0.950 . S
H832 C828 0.950 . S
C833 C831 1.390 . S
C833 C834 1.387 . S
C833 H836 0.950 . S
C834 C833 1.387 . S
C834 C837 1.387 . S
H835 C831 0.950 . S
H836 C833 0.950 . S
C837 C828 1.390 . S
C837 H830 0.950 . S
C837 C834 1.387 . S
C838 C839 1.387 1_565 S
C838 H842 0.950 . S
C838 C847 1.390 1_456 S
C839 C838 1.387 1_545 S
C839 C841 1.387 . S
H840 C847 0.950 . S
C841 C839 1.387 . S
C841 C843 1.390 1_456 S
C841 H845 0.950 . S
H842 C838 0.950 . S
C843 C841 1.390 1_654 S
C843 C844 1.387 1_545 S
C843 H846 0.950 . S
C844 C843 1.387 1_565 S
C844 C847 1.387 . S
H845 C841 0.950 . S
H846 C843 0.950 . S
C847 C838 1.390 1_654 S
C847 H840 0.950 . S
C847 C844 1.387 . S
C848 C849 1.387 . S
C848 H852 0.950 . S
C848 C857 1.390 . S
C849 C848 1.387 . S
C849 C851 1.387 . S
H850 C857 0.950 . S
C851 C849 1.387 . S
C851 C853 1.390 . S
C851 H855 0.950 . S
H852 C848 0.950 . S
C853 C851 1.390 . S
C853 C854 1.387 . S
C853 H856 0.950 . S
C854 C853 1.387 . S
C854 C857 1.387 . S
H855 C851 0.950 . S
H856 C853 0.950 . S
C857 C848 1.390 . S
C857 H850 0.950 . S
C857 C854 1.387 . S
C858 C859 1.387 . S
C858 H862 0.950 . S
C858 C867 1.390 . S
C859 C858 1.387 . S
C859 C861 1.387 . S
H860 C867 0.950 . S
C861 C859 1.387 . S
C861 C863 1.390 . S
C861 H865 0.950 . S
H862 C858 0.950 . S
C863 C861 1.390 . S
C863 C864 1.387 . S
C863 H866 0.950 . S
C864 C863 1.387 . S
C864 C867 1.387 . S
H865 C861 0.950 . S
H866 C863 0.950 . S
C867 C858 1.390 . S
C867 H860 0.950 . S
C867 C864 1.387 . S
C868 C869 1.387 . S
C868 H872 0.950 . S
C868 C877 1.390 . S
C869 C868 1.387 . S
C869 C871 1.387 . S
H870 C877 0.950 . S
C871 C869 1.387 . S
C871 C873 1.390 . S
C871 H875 0.950 . S
H872 C868 0.950 . S
C873 C871 1.390 . S
C873 C874 1.387 . S
C873 H876 0.950 . S
C874 C873 1.387 . S
C874 C877 1.387 . S
H875 C871 0.950 . S
H876 C873 0.950 . S
C877 C868 1.390 . S
C877 H870 0.950 . S
C877 C874 1.387 . S
C878 C879 1.387 . S
C878 H882 0.950 . S
C878 C887 1.390 . S
C879 C878 1.387 . S
C879 C881 1.387 . S
H880 C887 0.950 . S
C881 C879 1.387 . S
C881 C883 1.390 . S
C881 H885 0.950 . S
H882 C878 0.950 . S
C883 C881 1.390 . S
C883 C884 1.387 . S
C883 H886 0.950 . S
C884 C883 1.387 . S
C884 C887 1.387 . S
H885 C881 0.950 . S
H886 C883 0.950 . S
C887 C878 1.390 . S
C887 H880 0.950 . S
C887 C884 1.387 . S
C888 C889 1.387 1_556 S
C888 H892 0.950 . S
C888 C897 1.390 . S
C889 C888 1.387 1_554 S
C889 C891 1.387 . S
H890 C897 0.950 . S
C891 C889 1.387 . S
C891 C893 1.390 1_554 S
C891 H895 0.950 . S
H892 C888 0.950 . S
C893 C891 1.390 1_556 S
C893 C894 1.387 . S
C893 H896 0.950 . S
C894 C893 1.387 . S
C894 C897 1.387 . S
H895 C891 0.950 . S
H896 C893 0.950 . S
C897 C888 1.390 . S
C897 H890 0.950 . S
C897 C894 1.387 . S
C898 C899 1.387 . S
C898 H902 0.950 . S
C898 C907 1.390 1_455 S
C899 C898 1.387 . S
C899 C901 1.387 . S
H900 C907 0.950 . S
C901 C899 1.387 . S
C901 C903 1.390 1_455 S
C901 H905 0.950 . S
H902 C898 0.950 . S
C903 C901 1.390 1_655 S
C903 C904 1.387 . S
C903 H906 0.950 . S
C904 C903 1.387 . S
C904 C907 1.387 . S
H905 C901 0.950 . S
H906 C903 0.950 . S
C907 C898 1.390 1_655 S
C907 H900 0.950 . S
C907 C904 1.387 . S
C908 C909 1.387 . S
C908 H912 0.950 . S
C908 C917 1.390 1_454 S
C909 C908 1.387 . S
C909 C911 1.387 1_455 S
H910 C917 0.950 . S
C911 C909 1.387 1_655 S
C911 C913 1.390 1_554 S
C911 H915 0.950 . S
H912 C908 0.950 . S
C913 C911 1.390 1_556 S
C913 C914 1.387 . S
C913 H916 0.950 . S
C914 C913 1.387 . S
C914 C917 1.387 . S
H915 C911 0.950 . S
H916 C913 0.950 . S
C917 C908 1.390 1_656 S
C917 H910 0.950 . S
C917 C914 1.387 . S
C918 C919 1.387 . S
C918 H922 0.950 . S
C918 C927 1.390 . S
C919 C918 1.387 . S
C919 C921 1.387 . S
H920 C927 0.950 . S
C921 C919 1.387 . S
C921 C923 1.390 . S
C921 H925 0.950 . S
H922 C918 0.950 . S
C923 C921 1.390 . S
C923 C924 1.387 . S
C923 H926 0.950 . S
C924 C923 1.387 . S
C924 C927 1.387 . S
H925 C921 0.950 . S
H926 C923 0.950 . S
C927 C918 1.390 . S
C927 H920 0.950 . S
C927 C924 1.387 . S
C928 C929 1.387 . S
C928 H932 0.950 . S
C928 C937 1.390 . S
C929 C928 1.387 . S
C929 C931 1.387 . S
H930 C937 0.950 . S
C931 C929 1.387 . S
C931 C933 1.390 . S
C931 H935 0.950 . S
H932 C928 0.950 . S
C933 C931 1.390 . S
C933 C934 1.387 . S
C933 H936 0.950 . S
C934 C933 1.387 . S
C934 C937 1.387 . S
H935 C931 0.950 . S
H936 C933 0.950 . S
C937 C928 1.390 . S
C937 H930 0.950 . S
C937 C934 1.387 . S
C938 C939 1.387 . S
C938 H942 0.950 . S
C938 C947 1.390 . S
C939 C938 1.387 . S
C939 C941 1.387 . S
H940 C947 0.950 . S
C941 C939 1.387 . S
C941 C943 1.390 . S
C941 H945 0.950 . S
H942 C938 0.950 . S
C943 C941 1.390 . S
C943 C944 1.387 . S
C943 H946 0.950 . S
C944 C943 1.387 . S
C944 C947 1.387 . S
H945 C941 0.950 . S
H946 C943 0.950 . S
C947 C938 1.390 . S
C947 H940 0.950 . S
C947 C944 1.387 . S
C948 C949 1.387 . S
C948 H952 0.950 . S
C948 C957 1.390 . S
C949 C948 1.387 . S
C949 C951 1.387 . S
H950 C957 0.950 . S
C951 C949 1.387 . S
C951 C953 1.390 . S
C951 H955 0.950 . S
H952 C948 0.950 . S
C953 C951 1.390 . S
C953 C954 1.387 . S
C953 H956 0.950 . S
C954 C953 1.387 . S
C954 C957 1.387 . S
H955 C951 0.950 . S
H956 C953 0.950 . S
C957 C948 1.390 . S
C957 H950 0.950 . S
C957 C954 1.387 . S
C958 C959 1.387 . S
C958 H962 0.950 . S
C958 C967 1.390 . S
C959 C958 1.387 . S
C959 C961 1.387 . S
H960 C967 0.950 . S
C961 C959 1.387 . S
C961 C963 1.390 . S
C961 H965 0.950 . S
H962 C958 0.950 . S
C963 C961 1.390 . S
C963 C964 1.387 . S
C963 H966 0.950 . S
C964 C963 1.387 . S
C964 C967 1.387 . S
H965 C961 0.950 . S
H966 C963 0.950 . S
C967 C958 1.390 . S
C967 H960 0.950 . S
C967 C964 1.387 . S
C968 C969 1.387 . S
C968 H972 0.950 . S
C968 C977 1.390 . S
C969 C968 1.387 . S
C969 C971 1.387 . S
H970 C977 0.950 . S
C971 C969 1.387 . S
C971 C973 1.390 . S
C971 H975 0.950 . S
H972 C968 0.950 . S
C973 C971 1.390 . S
C973 C974 1.387 . S
C973 H976 0.950 . S
C974 C973 1.387 . S
C974 C977 1.387 . S
H975 C971 0.950 . S
H976 C973 0.950 . S
C977 C968 1.390 . S
C977 H970 0.950 . S
C977 C974 1.387 . S
C978 C979 1.387 . S
C978 H982 0.950 . S
C978 C987 1.390 . S
C979 C978 1.387 . S
C979 C981 1.387 . S
H980 C987 0.950 . S
C981 C979 1.387 . S
C981 C983 1.390 . S
C981 H985 0.950 . S
H982 C978 0.950 . S
C983 C981 1.390 . S
C983 C984 1.387 . S
C983 H986 0.950 . S
C984 C983 1.387 . S
C984 C987 1.387 . S
H985 C981 0.950 . S
H986 C983 0.950 . S
C987 C978 1.390 . S
C987 H980 0.950 . S
C987 C984 1.387 . S
C988 C989 1.387 . S
C988 H992 0.950 . S
C988 C997 1.390 . S
C989 C988 1.387 . S
C989 C991 1.387 . S
H990 C997 0.950 . S
C991 C989 1.387 . S
C991 C993 1.390 . S
C991 H995 0.950 . S
H992 C988 0.950 . S
C993 C991 1.390 . S
C993 C994 1.387 . S
C993 H996 0.950 . S
C994 C993 1.387 . S
C994 C997 1.387 . S
H995 C991 0.950 . S
H996 C993 0.950 . S
C997 C988 1.390 . S
C997 H990 0.950 . S
C997 C994 1.387 . S
C998 C999 1.387 . S
C998 H1002 0.950 . S
C998 C1007 1.390 . S
C999 C998 1.387 . S
C999 C1001 1.387 . S
H1000 C1007 0.950 . S
C1001 C999 1.387 . S
C1001 C1003 1.390 . S
C1001 H1005 0.950 . S
H1002 C998 0.950 . S
C1003 C1001 1.390 . S
C1003 C1004 1.387 . S
C1003 H1006 0.950 . S
C1004 C1003 1.387 . S
C1004 C1007 1.387 . S
H1005 C1001 0.950 . S
H1006 C1003 0.950 . S
C1007 C998 1.390 . S
C1007 H1000 0.950 . S
C1007 C1004 1.387 . S
C1008 C1009 1.387 . S
C1008 H1012 0.950 . S
C1008 C1017 1.390 . S
C1009 C1008 1.387 . S
C1009 C1011 1.387 . S
H1010 C1017 0.950 . S
C1011 C1009 1.387 . S
C1011 C1013 1.390 . S
C1011 H1015 0.950 . S
H1012 C1008 0.950 . S
C1013 C1011 1.390 . S
C1013 C1014 1.387 . S
C1013 H1016 0.950 . S
C1014 C1013 1.387 . S
C1014 C1017 1.387 . S
H1015 C1011 0.950 . S
H1016 C1013 0.950 . S
C1017 C1008 1.390 . S
C1017 H1010 0.950 . S
C1017 C1014 1.387 . S
C1018 C1019 1.387 . S
C1018 H1022 0.950 . S
C1018 C1027 1.390 . S
C1019 C1018 1.387 . S
C1019 C1021 1.387 . S
H1020 C1027 0.950 . S
C1021 C1019 1.387 . S
C1021 C1023 1.390 . S
C1021 H1025 0.950 . S
H1022 C1018 0.950 . S
C1023 C1021 1.390 . S
C1023 C1024 1.387 . S
C1023 H1026 0.950 . S
C1024 C1023 1.387 . S
C1024 C1027 1.387 . S
H1025 C1021 0.950 . S
H1026 C1023 0.950 . S
C1027 C1018 1.390 . S
C1027 H1020 0.950 . S
C1027 C1024 1.387 . S
C1028 C1029 1.387 . S
C1028 H1032 0.950 . S
C1028 C1037 1.390 . S
C1029 C1028 1.387 . S
C1029 C1031 1.387 . S
H1030 C1037 0.950 . S
C1031 C1029 1.387 . S
C1031 C1033 1.390 . S
C1031 H1035 0.950 . S
H1032 C1028 0.950 . S
C1033 C1031 1.390 . S
C1033 C1034 1.387 . S
C1033 H1036 0.950 . S
C1034 C1033 1.387 . S
C1034 C1037 1.387 . S
H1035 C1031 0.950 . S
H1036 C1033 0.950 . S
C1037 C1028 1.390 . S
C1037 H1030 0.950 . S
C1037 C1034 1.387 . S
C1038 C1039 1.387 . S
C1038 H1042 0.950 . S
C1038 C1047 1.390 . S
C1039 C1038 1.387 . S
C1039 C1041 1.387 . S
H1040 C1047 0.950 . S
C1041 C1039 1.387 . S
C1041 C1043 1.390 . S
C1041 H1045 0.950 . S
H1042 C1038 0.950 . S
C1043 C1041 1.390 . S
C1043 C1044 1.387 . S
C1043 H1046 0.950 . S
C1044 C1043 1.387 . S
C1044 C1047 1.387 . S
H1045 C1041 0.950 . S
H1046 C1043 0.950 . S
C1047 C1038 1.390 . S
C1047 H1040 0.950 . S
C1047 C1044 1.387 . S
C1048 C1049 1.387 . S
C1048 H1052 0.950 . S
C1048 C1057 1.390 . S
C1049 C1048 1.387 . S
C1049 C1051 1.387 . S
H1050 C1057 0.950 . S
C1051 C1049 1.387 . S
C1051 C1053 1.390 . S
C1051 H1055 0.950 . S
H1052 C1048 0.950 . S
C1053 C1051 1.390 . S
C1053 C1054 1.387 . S
C1053 H1056 0.950 . S
C1054 C1053 1.387 . S
C1054 C1057 1.387 . S
H1055 C1051 0.950 . S
H1056 C1053 0.950 . S
C1057 C1048 1.390 . S
C1057 H1050 0.950 . S
C1057 C1054 1.387 . S
C1058 C1059 1.387 . S
C1058 H1062 0.950 . S
C1058 C1067 1.390 . S
C1059 C1058 1.387 . S
C1059 C1061 1.387 . S
H1060 C1067 0.950 . S
C1061 C1059 1.387 . S
C1061 C1063 1.390 . S
C1061 H1065 0.950 . S
H1062 C1058 0.950 . S
C1063 C1061 1.390 . S
C1063 C1064 1.387 . S
C1063 H1066 0.950 . S
C1064 C1063 1.387 . S
C1064 C1067 1.387 . S
H1065 C1061 0.950 . S
H1066 C1063 0.950 . S
C1067 C1058 1.390 . S
C1067 H1060 0.950 . S
C1067 C1064 1.387 . S
C1068 C1069 1.387 . S
C1068 H1072 0.950 . S
C1068 C1077 1.390 . S
C1069 C1068 1.387 . S
C1069 C1071 1.387 . S
H1070 C1077 0.950 . S
C1071 C1069 1.387 . S
C1071 C1073 1.390 . S
C1071 H1075 0.950 . S
H1072 C1068 0.950 . S
C1073 C1071 1.390 . S
C1073 C1074 1.387 . S
C1073 H1076 0.950 . S
C1074 C1073 1.387 . S
C1074 C1077 1.387 . S
H1075 C1071 0.950 . S
H1076 C1073 0.950 . S
C1077 C1068 1.390 . S
C1077 H1070 0.950 . S
C1077 C1074 1.387 . S
C1078 C1079 1.387 . S
C1078 H1082 0.950 . S
C1078 C1087 1.390 . S
C1079 C1078 1.387 . S
C1079 C1081 1.387 . S
H1080 C1087 0.950 . S
C1081 C1079 1.387 . S
C1081 C1083 1.390 . S
C1081 H1085 0.950 . S
H1082 C1078 0.950 . S
C1083 C1081 1.390 . S
C1083 C1084 1.387 . S
C1083 H1086 0.950 . S
C1084 C1083 1.387 . S
C1084 C1087 1.387 . S
H1085 C1081 0.950 . S
H1086 C1083 0.950 . S
C1087 C1078 1.390 . S
C1087 H1080 0.950 . S
C1087 C1084 1.387 . S
C449 C385 1.435 . S
C454 C8 1.355 . S
C459 C21 1.317 . S
C464 C119 1.342 . S
C469 C357 1.435 . S
C474 C36 1.356 . S
C479 C49 1.320 . S
C484 C147 1.342 . S
C489 C64 1.353 . S
C494 C413 1.435 . S
C499 C77 1.317 . S
C504 C203 1.342 . S
C509 C92 1.356 . S
C514 C441 1.435 . S
C519 C105 1.320 . S
C524 C175 1.342 . S
C529 C274 1.309 . S
C534 C120 1.311 . S
C539 C7 1.292 . S
C544 C134 1.224 . S
C549 C246 1.311 . S
C554 C148 1.314 . S
C559 C162 1.222 . S
C564 C35 1.292 . S
C569 C302 1.311 . S
C574 C176 1.314 . S
C579 C91 1.292 . S
C584 C190 1.221 . S
C589 C204 1.314 . S
C594 C330 1.311 . S
C599 C63 1.292 . S
C604 C218 1.225 . S
C609 C232 1.353 . S
C614 C161 1.435 . S
C619 C245 1.320 . S
C624 C343 1.342 . S
C629 C133 1.435 . S
C634 C260 1.354 . S
C639 C371 1.342 . S
C644 C273 1.317 . S
C649 C189 1.435 . S
C654 C288 1.352 . S
C659 C427 1.342 . S
C664 C301 1.320 . S
C669 C217 1.435 . S
C674 C316 1.355 . S
C679 C329 1.318 . S
C684 C399 1.342 . S
C689 C50 1.311 . S
C694 C344 1.314 . S
C699 C358 1.225 . S
C704 C231 1.292 . S
C709 C372 1.314 . S
C714 C22 1.310 . S
C719 C386 1.223 . S
C724 C259 1.292 . S
C729 C400 1.314 . S
C734 C78 1.309 . S
C739 C414 1.223 . S
C744 C315 1.292 . S
C749 C428 1.314 . S
C754 C106 1.311 . S
C759 C442 1.223 . S
C764 C287 1.292 . S
C769 C349 1.409 . S
C774 C13 1.405 . S
C779 C25 1.505 . S
C784 C139 1.439 . S
C789 C377 1.409 . S
C794 C41 1.405 . S
C799 C53 1.507 . S
C804 C167 1.442 . S
C809 C405 1.405 . S
C814 C69 1.401 . S
C819 C81 1.505 . S
C824 C195 1.439 . S
C829 C433 1.409 . S
C834 C97 1.405 . S
C839 C109 1.505 . S
C844 C223 1.439 . S
C849 C125 1.409 . S
C854 C237 1.405 . S
C859 C153 1.408 . S
C864 C265 1.404 . S
C869 C181 1.409 . S
C874 C293 1.405 . S
C879 C209 1.406 . S
C884 C321 1.402 . S
C889 C249 1.507 . S
C894 C363 1.442 . S
C899 C391 1.441 . S
C904 C277 1.508 . S
C909 C419 1.441 . S
C914 C305 1.508 . S
C919 C333 1.505 . S
C924 C447 1.439 . S
C929 C11 1.292 . S
C934 C83 1.270 . S
C939 C27 1.270 . S
C944 C95 1.292 . S
C949 C39 1.295 . S
C954 C111 1.269 . S
C959 C67 1.292 . S
C964 C55 1.270 . S
C969 C123 1.324 . S
C974 C193 1.333 . S
C979 C137 1.336 . S
C984 C207 1.322 . S
C989 C151 1.322 . S
C994 C221 1.336 . S
C999 C165 1.333 . S
C1004 C179 1.324 . S
C1009 C235 1.292 . S
C1014 C307 1.270 . S
C1019 C319 1.292 . S
C1024 C251 1.270 . S
C1029 C263 1.292 . S
C1034 C335 1.270 . S
C1039 C279 1.268 . S
C1044 C291 1.295 . S
C1049 C417 1.333 . S
C1054 C347 1.324 . S
C1059 C361 1.335 . S
C1064 C431 1.322 . S
C1069 C445 1.333 . S
C1074 C375 1.324 . S
C1079 C389 1.333 . S
C1084 C403 1.324 . S
