# Generated by pormake.
# Topology uof, (4)-cn, num edge types: 1
# Building blocks:
#     Node 0, Type 0, BuildingBlock: TATPOV_clean_sbu_0, # of connection points: 4
#     Node 1, Type 0, BuildingBlock: TATPOV_clean_sbu_0, # of connection points: 4
#     Node 2, Type 0, BuildingBlock: TATPOV_clean_sbu_0, # of connection points: 4
#     Node 3, Type 0, BuildingBlock: TATPOV_clean_sbu_0, # of connection points: 4
#     Node 4, Type 0, BuildingBlock: TATPOV_clean_sbu_0, # of connection points: 4
#     Node 5, Type 0, BuildingBlock: TATPOV_clean_sbu_0, # of connection points: 4
#     Node 6, Type 0, BuildingBlock: TATPOV_clean_sbu_0, # of connection points: 4
#     Node 7, Type 0, BuildingBlock: TATPOV_clean_sbu_0, # of connection points: 4
#     Node 8, Type 0, BuildingBlock: TATPOV_clean_sbu_0, # of connection points: 4
#     Node 9, Type 0, BuildingBlock: TATPOV_clean_sbu_0, # of connection points: 4
#     Node 10, Type 0, BuildingBlock: TATPOV_clean_sbu_0, # of connection points: 4
#     Node 11, Type 0, BuildingBlock: TATPOV_clean_sbu_0, # of connection points: 4
#     Edge 12, Type (0, 0), BuildingBlock: EZIPEK_clean_linker_0, # of connection points: 2
#     Edge 13, Type (0, 0), BuildingBlock: EZIPEK_clean_linker_0, # of connection points: 2
#     Edge 14, Type (0, 0), BuildingBlock: EZIPEK_clean_linker_0, # of connection points: 2
#     Edge 15, Type (0, 0), BuildingBlock: EZIPEK_clean_linker_0, # of connection points: 2
#     Edge 16, Type (0, 0), BuildingBlock: EZIPEK_clean_linker_0, # of connection points: 2
#     Edge 17, Type (0, 0), BuildingBlock: EZIPEK_clean_linker_0, # of connection points: 2
#     Edge 18, Type (0, 0), BuildingBlock: EZIPEK_clean_linker_0, # of connection points: 2
#     Edge 19, Type (0, 0), BuildingBlock: EZIPEK_clean_linker_0, # of connection points: 2
#     Edge 20, Type (0, 0), BuildingBlock: EZIPEK_clean_linker_0, # of connection points: 2
#     Edge 21, Type (0, 0), BuildingBlock: EZIPEK_clean_linker_0, # of connection points: 2
#     Edge 22, Type (0, 0), BuildingBlock: EZIPEK_clean_linker_0, # of connection points: 2
#     Edge 23, Type (0, 0), BuildingBlock: EZIPEK_clean_linker_0, # of connection points: 2
#     Edge 24, Type (0, 0), BuildingBlock: EZIPEK_clean_linker_0, # of connection points: 2
#     Edge 25, Type (0, 0), BuildingBlock: EZIPEK_clean_linker_0, # of connection points: 2
#     Edge 26, Type (0, 0), BuildingBlock: EZIPEK_clean_linker_0, # of connection points: 2
#     Edge 27, Type (0, 0), BuildingBlock: EZIPEK_clean_linker_0, # of connection points: 2
#     Edge 28, Type (0, 0), BuildingBlock: EZIPEK_clean_linker_0, # of connection points: 2
#     Edge 29, Type (0, 0), BuildingBlock: EZIPEK_clean_linker_0, # of connection points: 2
#     Edge 30, Type (0, 0), BuildingBlock: EZIPEK_clean_linker_0, # of connection points: 2
#     Edge 31, Type (0, 0), BuildingBlock: EZIPEK_clean_linker_0, # of connection points: 2
#     Edge 32, Type (0, 0), BuildingBlock: EZIPEK_clean_linker_0, # of connection points: 2
#     Edge 33, Type (0, 0), BuildingBlock: EZIPEK_clean_linker_0, # of connection points: 2
#     Edge 34, Type (0, 0), BuildingBlock: EZIPEK_clean_linker_0, # of connection points: 2
#     Edge 35, Type (0, 0), BuildingBlock: EZIPEK_clean_linker_0, # of connection points: 2
# Relax obj value: 0.211
# Max RMSD: 0.182
# Mean RMSD: 0.182
data_MOF--net-uof--node1-TATPOV_clean_sbu_0--edge1-EZIPEK_clean_linker_0
_symmetry_space_group_name_H-M    P1
_symmetry_Int_Tables_number       1
_symmetry_cell_setting            triclinic
loop_
_symmetry_equiv_pos_as_xyz
'x, y, z'
_cell_length_a     23.453187
_cell_length_b     23.33146
_cell_length_c     46.599141
_cell_angle_alpha  89.983779
_cell_angle_beta   90.037547
_cell_angle_gamma 119.97015
loop_
_atom_site_label
_atom_site_type_symbol
_atom_site_fract_x
_atom_site_fract_y
_atom_site_fract_z
_atom_type_partial_charge
Zn0 Zn 0.23339 0.3555 0.19112 0.0
Zn1 Zn 0.19247 0.30813 0.24492 0.0
O2 O 0.11733 0.32303 0.22842 0.0
O3 O 0.15515 0.36744 0.18621 0.0
O4 O 0.17401 0.27623 0.28662 0.0
O5 O 0.32253 0.4241 0.20568 0.0
O6 O 0.28868 0.38305 0.24894 0.0
C7 C 0.10997 0.347 0.20484 0.0
C8 C 0.20687 0.22352 0.19918 0.0
O9 O 0.19355 0.23263 0.22458 0.0
O10 O 0.22355 0.26774 0.18015 0.0
C11 C 0.15413 0.21646 0.2939 0.0
O12 O 0.13293 0.17019 0.27413 0.0
C13 C 0.33427 0.42209 0.23204 0.0
Zn14 Zn 0.8496 0.23155 0.52147 0.0
Zn15 Zn 0.87103 0.20552 0.57702 0.0
O16 O 0.77812 0.12777 0.56584 0.0
O17 O 0.75848 0.15192 0.52273 0.0
O18 O 0.89262 0.19625 0.61899 0.0
O19 O 0.87382 0.3243 0.53289 0.0
O20 O 0.8927 0.3025 0.57679 0.0
C21 C 0.7401 0.11288 0.54398 0.0
C22 C 0.95511 0.20411 0.52772 0.0
O23 O 0.93985 0.19834 0.55411 0.0
O24 O 0.92432 0.21777 0.50915 0.0
C25 C 0.93917 0.18574 0.62618 0.0
O26 O 0.96981 0.17146 0.60632 0.0
C27 C 0.89416 0.34319 0.55819 0.0
Zn28 Zn 0.59549 0.86518 0.85302 0.0
Zn29 Zn 0.65149 0.88304 0.90478 0.0
O30 O 0.64376 0.79551 0.88794 0.0
O31 O 0.58002 0.77295 0.84982 0.0
O32 O 0.68435 0.89964 0.94668 0.0
O33 O 0.52811 0.88809 0.86558 0.0
O34 O 0.57583 0.90459 0.90786 0.0
C35 C 0.61482 0.75918 0.86605 0.0
C36 C 0.72962 0.97158 0.85609 0.0
O37 O 0.7244 0.956 0.88242 0.0
O38 O 0.68247 0.94046 0.83871 0.0
C39 C 0.73929 0.94946 0.95405 0.0
O40 O 0.78147 -0.014 0.93416 0.0
C41 C 0.53387 0.90719 0.89132 0.0
Zn42 Zn 0.72074 0.59507 0.20233 0.0
Zn43 Zn 0.75485 0.66203 0.25048 0.0
O44 O 0.83488 0.65484 0.23439 0.0
O45 O 0.79787 0.57957 0.20026 0.0
O46 O 0.77046 0.69629 0.29194 0.0
O47 O 0.62918 0.52734 0.21363 0.0
O48 O 0.65633 0.58971 0.25224 0.0
C49 C 0.84543 0.62215 0.21509 0.0
C50 C 0.74866 0.7328 0.19962 0.0
O51 O 0.75798 0.73417 0.22651 0.0
O52 O 0.73288 0.6811 0.18504 0.0
C53 C 0.78162 0.75393 0.29882 0.0
O54 O 0.79398 0.7979 0.27862 0.0
C55 C 0.61319 0.5423 0.23716 0.0
Zn56 Zn 0.06809 0.73547 0.52073 0.0
Zn57 Zn 0.07615 0.76759 0.57704 0.0
O58 O 0.16702 0.84041 0.56018 0.0
O59 O 0.15867 0.81264 0.51477 0.0
O60 O 0.07167 0.77838 0.62042 0.0
O61 O 0.04882 0.64323 0.52937 0.0
O62 O 0.04676 0.66802 0.57484 0.0
C63 C 0.19199 0.85131 0.53492 0.0
C64 C 0.97161 0.7684 0.5392 0.0
O65 O 0.00152 0.77981 0.56302 0.0
O66 O -0.01003 0.74886 0.51764 0.0
C67 C 0.04377 0.8081 0.63144 0.0
O68 O 0.02759 0.8434 0.61494 0.0
C69 C 0.038 0.62596 0.55542 0.0
Zn70 Zn 0.32021 0.08367 0.8579 0.0
Zn71 Zn 0.2937 0.08872 0.91451 0.0
O72 O 0.31189 0.18084 0.89854 0.0
O73 O 0.33281 0.17466 0.85312 0.0
O74 O 0.27745 0.08086 0.9581 0.0
O75 O 0.39314 0.06482 0.8668 0.0
O76 O 0.36401 0.05992 0.91206 0.0
C77 C 0.32632 0.20692 0.87345 0.0
C78 C 0.19001 -0.01348 0.87477 0.0
O79 O 0.2078 0.01543 0.89887 0.0
O80 O 0.22893 0.00523 0.8536 0.0
C81 C 0.22067 0.04328 0.96891 0.0
O82 O 0.16861 0.01745 0.95221 0.0
C83 C 0.39845 0.0527 0.89279 0.0
Zn84 Zn 0.59143 0.72346 0.51771 0.0
Zn85 Zn 0.64523 0.76041 0.46676 0.0
O86 O 0.63816 0.83967 0.48476 0.0
O87 O 0.57103 0.79673 0.52164 0.0
O88 O 0.67495 0.77803 0.42487 0.0
O89 O 0.52575 0.63073 0.5065 0.0
O90 O 0.57108 0.66239 0.46388 0.0
C91 C 0.60776 0.84629 0.50622 0.0
C92 C 0.7274 0.75437 0.51374 0.0
O93 O 0.72048 0.76087 0.48713 0.0
O94 O 0.68132 0.74149 0.53132 0.0
C95 C 0.73456 0.80298 0.4167 0.0
O96 O 0.78211 0.82987 0.43575 0.0
C97 C 0.53014 0.61748 0.4806 0.0
Zn98 Zn 0.84947 0.6103 0.8516 0.0
Zn99 Zn 0.87777 0.66379 0.79777 0.0
O100 O 0.78436 0.64761 0.80835 0.0
O101 O 0.75705 0.59444 0.84939 0.0
O102 O 0.89986 0.69637 0.75616 0.0
O103 O 0.87892 0.54522 0.84044 0.0
O104 O 0.90171 0.59046 0.79744 0.0
C105 C 0.74277 0.62037 0.82878 0.0
C106 C 0.95452 0.74589 0.84884 0.0
O107 O 0.94474 0.73854 0.82195 0.0
O108 O 0.91908 0.69993 0.8662 0.0
C109 C 0.94868 0.7524 0.74923 0.0
O110 O -0.01771 0.79563 0.76936 0.0
C111 C 0.90155 0.54935 0.8154 0.0
Zn112 Zn 0.23966 0.88011 0.19348 0.0
Zn113 Zn 0.21252 0.88756 0.13637 0.0
O114 O 0.13237 0.79918 0.15052 0.0
O115 O 0.15324 0.79525 0.19656 0.0
O116 O 0.20388 0.90282 0.09367 0.0
O117 O 0.3274 0.88943 0.18315 0.0
O118 O 0.3081 0.90747 0.13873 0.0
C119 C 0.11452 0.77234 0.17534 0.0
C120 C 0.21926 -0.01189 0.1793 0.0
O121 O 0.20773 0.96283 0.15444 0.0
O122 O 0.23618 0.96408 0.19975 0.0
C123 C 0.18052 0.93886 0.08502 0.0
O124 O 0.15185 0.95898 0.10342 0.0
C125 C 0.34684 0.90661 0.15762 0.0
Zn126 Zn 0.32355 0.23137 0.51692 0.0
Zn127 Zn 0.28681 0.19541 0.46123 0.0
O128 O 0.30458 0.12118 0.47667 0.0
O129 O 0.33787 0.15376 0.52075 0.0
O130 O 0.26091 0.18125 0.41876 0.0
O131 O 0.39235 0.32278 0.5045 0.0
O132 O 0.36105 0.29301 0.45977 0.0
C133 C 0.32499 0.11211 0.50085 0.0
C134 C 0.19225 0.19974 0.50505 0.0
O135 O 0.20642 0.18982 0.47995 0.0
O136 O 0.23368 0.21788 0.52526 0.0
C137 C 0.2019 0.15861 0.41008 0.0
O138 O 0.15328 0.1319 0.4286 0.0
C139 C 0.39584 0.3372 0.47815 0.0
Zn140 Zn 0.07446 0.33348 0.85267 0.0
Zn141 Zn 0.08107 0.30654 0.7963 0.0
O142 O 0.17073 0.32148 0.8133 0.0
O143 O 0.16532 0.34708 0.85812 0.0
O144 O 0.07382 0.2872 0.75318 0.0
O145 O 0.05377 0.40465 0.84201 0.0
O146 O 0.05892 0.38173 0.79653 0.0
C147 C 0.19685 0.33793 0.83832 0.0
C148 C -0.02455 0.2048 0.83601 0.0
O149 O 0.00301 0.22316 0.81169 0.0
O150 O -0.00331 0.24251 0.85762 0.0
C151 C 0.04121 0.22878 0.74298 0.0
O152 O 0.02191 0.1778 0.76019 0.0
C153 C 0.04671 0.41301 0.8157 0.0
Zn154 Zn 0.74099 0.07112 0.18447 0.0
Zn155 Zn 0.76615 0.07984 0.12758 0.0
O156 O 0.83967 0.17219 0.14381 0.0
O157 O 0.81566 0.16311 0.18966 0.0
O158 O 0.77245 0.07397 0.08385 0.0
O159 O 0.64804 0.04911 0.17786 0.0
O160 O 0.6681 0.05357 0.13145 0.0
C161 C 0.85176 0.19741 0.16909 0.0
C162 C 0.77175 0.97496 0.16463 0.0
O163 O 0.77818 0.00355 0.1407 0.0
O164 O 0.75707 -0.00504 0.18712 0.0
C165 C 0.79998 0.04476 0.07196 0.0
O166 O 0.83622 0.02823 0.08754 0.0
C167 C 0.6282 0.04141 0.15218 0.0
C168 C 0.92547 0.28278 0.20554 0.0
C169 C 0.91338 0.26169 0.17637 0.0
C170 C 0.02957 0.34057 0.16671 0.0
C171 C 0.04389 0.33798 0.19624 0.0
N172 N 0.00402 0.32643 0.24473 0.0
N173 N 0.95202 0.2904 0.12756 0.0
C174 C -0.00872 0.31557 0.21608 0.0
C175 C 0.96478 0.29697 0.15629 0.0
N176 N 0.87454 0.27492 0.22244 0.0
N177 N 0.07618 0.38775 0.14931 0.0
H178 H 0.90451 0.27021 0.11934 0.0
H179 H -0.01115 0.30661 0.11205 0.0
H180 H 0.12026 0.42609 0.15744 0.0
H181 H 0.06752 0.39475 0.12803 0.0
H182 H 0.88058 0.29292 0.24333 0.0
H183 H 0.82751 0.25819 0.21409 0.0
H184 H 0.96804 0.30351 0.26046 0.0
H185 H 0.05103 0.35899 0.25256 0.0
C186 C 0.67816 -0.00737 0.5579 0.0
C187 C 0.68339 0.04357 0.53988 0.0
C188 C 0.62051 0.9607 0.50253 0.0
C189 C 0.62918 0.91335 0.51818 0.0
N190 N 0.67505 0.88815 0.55988 0.0
N191 N 0.63218 0.07064 0.5017 0.0
C192 C 0.65925 0.92987 0.54588 0.0
C193 C 0.64607 0.02592 0.51404 0.0
N194 N 0.68884 0.00348 0.58668 0.0
N195 N 0.58957 0.94369 0.4765 0.0
H196 H 0.64477 0.1155 0.51167 0.0
H197 H 0.60273 0.06117 0.48364 0.0
H198 H 0.56811 0.89571 0.46833 0.0
H199 H 0.58696 0.97705 0.46251 0.0
H200 H 0.68083 0.96624 0.60123 0.0
H201 H 0.69612 0.04706 0.59625 0.0
H202 H 0.70323 0.90155 0.57858 0.0
H203 H 0.66678 0.84331 0.55145 0.0
C204 C 0.66829 0.72783 0.82722 0.0
C205 C 0.63631 0.71337 0.85448 0.0
C206 C 0.64863 0.61487 0.85808 0.0
C207 C 0.68745 0.63495 0.83266 0.0
N208 N 0.69796 0.68433 0.78634 0.0
N209 N 0.59222 0.64125 0.89533 0.0
C210 C 0.68553 0.68302 0.81501 0.0
C211 C 0.62463 0.65573 0.86967 0.0
N212 N 0.68729 0.7869 0.81388 0.0
N213 N 0.63162 0.55482 0.86983 0.0
H214 H 0.57209 0.66885 0.90356 0.0
H215 H 0.58726 0.60383 0.90903 0.0
H216 H 0.64264 0.5217 0.85963 0.0
H217 H 0.60104 0.53466 0.88755 0.0
H218 H 0.71674 0.80206 0.79557 0.0
H219 H 0.68042 0.82409 0.82261 0.0
H220 H 0.69237 0.71541 0.77197 0.0
H221 H 0.70447 0.64773 0.77658 0.0
C222 C 0.92966 0.70249 0.18117 0.0
C223 C 0.91245 0.6525 0.20224 0.0
C224 C 0.02423 0.66899 0.19897 0.0
C225 C 0.04365 0.72621 0.18168 0.0
N226 N 0.01571 0.80688 0.16364 0.0
N227 N 0.94371 0.58918 0.23236 0.0
C228 C -0.00338 0.74536 0.1745 0.0
C229 C 0.95985 0.63578 0.21146 0.0
N230 N 0.88215 0.70941 0.1673 0.0
N231 N 0.067 0.64604 0.20303 0.0
H232 H 0.89644 0.563 0.24104 0.0
H233 H -0.0222 0.57933 0.24218 0.0
H234 H 0.11364 0.66862 0.19366 0.0
H235 H 0.05426 0.6017 0.21339 0.0
H236 H 0.89229 0.74133 0.14996 0.0
H237 H 0.83219 0.67811 0.1708 0.0
H238 H -0.01672 0.82492 0.16127 0.0
H239 H 0.06446 0.84327 0.1603 0.0
C240 C 0.32719 0.0326 0.53735 0.0
C241 C 0.32123 0.04724 0.50821 0.0
C242 C 0.27227 0.92903 0.49783 0.0
C243 C 0.25371 0.91498 0.52719 0.0
N244 N 0.285 0.95219 0.57599 0.0
N245 N 0.31021 0.00968 0.45925 0.0
C246 C 0.28819 0.96638 0.54745 0.0
C247 C 0.30099 -0.0045 0.48784 0.0
N248 N 0.37318 0.08085 0.5546 0.0
N249 N 0.26623 0.87963 0.48017 0.0
H250 H 0.34103 0.05755 0.45168 0.0
H251 H 0.28819 0.97395 0.44329 0.0
H252 H 0.25301 0.83272 0.48804 0.0
H253 H 0.28253 0.88722 0.45899 0.0
H254 H 0.3828 0.07252 0.57554 0.0
H255 H 0.40796 0.12697 0.5465 0.0
H256 H 0.30077 -0.01186 0.59197 0.0
H257 H 0.26773 0.9042 0.5835 0.0
C258 C 0.30375 0.30091 0.88609 0.0
C259 C 0.32324 0.26839 0.86595 0.0
C260 C 0.29126 0.3163 0.82635 0.0
C261 C 0.25753 0.33444 0.84639 0.0
N262 N 0.27148 0.38391 0.89319 0.0
N263 N 0.37445 0.28454 0.81955 0.0
C264 C 0.27605 0.33929 0.8758 0.0
C265 C 0.32932 0.28838 0.8367 0.0
N266 N 0.31278 0.29653 0.91474 0.0
N267 N 0.28826 0.32683 0.79774 0.0
H268 H 0.4081 0.27186 0.82777 0.0
H269 H 0.38441 0.30208 0.79855 0.0
H270 H 0.27157 0.35779 0.79002 0.0
H271 H 0.30353 0.30594 0.78191 0.0
H272 H 0.29072 0.3106 0.93051 0.0
H273 H 0.34374 0.28008 0.92259 0.0
H274 H 0.28791 0.39287 0.91435 0.0
H275 H 0.25973 0.41845 0.88509 0.0
C276 C 0.50322 0.44602 0.24948 0.0
C277 C 0.5423 0.51432 0.24356 0.0
C278 C 0.44273 0.52387 0.2406 0.0
C279 C 0.40393 0.45415 0.24135 0.0
N280 N 0.3966 0.34712 0.24509 0.0
N281 N 0.55009 0.61916 0.23191 0.0
C282 C 0.43378 0.41465 0.246 0.0
C283 C 0.51243 0.55391 0.23926 0.0
N284 N 0.53276 0.41134 0.2584 0.0
N285 N 0.41264 0.56111 0.24112 0.0
H286 H 0.60128 0.64375 0.23076 0.0
H287 H 0.53045 0.64814 0.22499 0.0
H288 H 0.36154 0.53985 0.24209 0.0
H289 H 0.438 0.61237 0.24338 0.0
H290 H 0.50682 0.36274 0.26576 0.0
H291 H 0.58365 0.43351 0.26104 0.0
H292 H 0.41668 0.31616 0.24458 0.0
H293 H 0.34559 0.32151 0.24287 0.0
C294 C 0.03317 0.52013 0.56986 0.0
C295 C 0.00012 0.55448 0.56204 0.0
C296 C 0.89467 0.45016 0.56139 0.0
C297 C 0.92909 0.4151 0.5644 0.0
N298 N 0.03224 0.41592 0.56985 0.0
N299 N 0.89979 0.55381 0.54964 0.0
C300 C -0.00143 0.44975 0.56876 0.0
C301 C 0.93076 0.51999 0.55795 0.0
N302 N 0.09765 0.55491 0.57813 0.0
N303 N 0.82741 0.41643 0.56217 0.0
H304 H 0.92416 0.60517 0.54764 0.0
H305 H 0.85087 0.53095 0.54305 0.0
H306 H 0.80002 0.36523 0.56496 0.0
H307 H 0.79906 0.43933 0.56279 0.0
H308 H 0.12296 0.53295 0.58687 0.0
H309 H 0.12423 0.60653 0.5786 0.0
H310 H 0.08336 0.43884 0.5693 0.0
H311 H 0.00949 0.36453 0.56935 0.0
C312 C 0.50075 0.04875 0.90457 0.0
C313 C 0.43223 0.015 0.89934 0.0
C314 C 0.4299 0.90864 0.90002 0.0
C315 C 0.49944 0.94305 0.9001 0.0
N316 N 0.60274 0.0465 0.90159 0.0
N317 N 0.33048 0.91306 0.89101 0.0
C318 C 0.53548 0.01329 0.90277 0.0
C319 C 0.39624 0.94482 0.89724 0.0
N320 N 0.53242 0.11466 0.91106 0.0
N321 N 0.39635 0.84129 0.9026 0.0
H322 H 0.30402 0.93781 0.88893 0.0
H323 H 0.30295 0.86297 0.886 0.0
H324 H 0.42039 0.81405 0.90483 0.0
H325 H 0.34558 0.81327 0.90532 0.0
H326 H 0.58123 0.14112 0.91781 0.0
H327 H 0.50791 0.14163 0.9121 0.0
H328 H 0.63129 0.09768 0.89965 0.0
H329 H 0.63047 0.02291 0.90082 0.0
C330 C 0.53515 0.5132 0.47808 0.0
C331 C 0.5002 0.54715 0.47222 0.0
C332 C 0.40008 0.44226 0.46207 0.0
C333 C 0.43388 0.40798 0.46986 0.0
N334 N 0.53574 0.40926 0.47733 0.0
N335 N 0.40675 0.54771 0.45159 0.0
C336 C 0.50238 0.44321 0.47521 0.0
C337 C 0.43498 0.51273 0.46175 0.0
N338 N 0.59878 0.54778 0.48761 0.0
N339 N 0.33391 0.4077 0.45677 0.0
H340 H 0.43159 0.59935 0.45143 0.0
H341 H 0.36146 0.52627 0.44117 0.0
H342 H 0.30692 0.35632 0.45544 0.0
H343 H 0.30479 0.42956 0.45483 0.0
H344 H 0.62454 0.52571 0.49569 0.0
H345 H 0.62546 0.59933 0.48858 0.0
H346 H 0.58671 0.43177 0.47885 0.0
H347 H 0.51241 0.35795 0.47493 0.0
C348 C 0.00924 0.55218 0.81865 0.0
C349 C 0.94237 0.51864 0.80962 0.0
C350 C 0.94947 0.42039 0.79744 0.0
C351 C 0.01533 0.45261 0.80804 0.0
N352 N 0.11311 0.5528 0.82151 0.0
N353 N 0.85399 0.42936 0.78384 0.0
C354 C 0.04686 0.51989 0.81633 0.0
C355 C 0.91424 0.45547 0.79675 0.0
N356 N 0.036 0.61421 0.83022 0.0
N357 N 0.9192 0.3552 0.78968 0.0
H358 H 0.82699 0.45386 0.78351 0.0
H359 H 0.83314 0.38645 0.7715 0.0
H360 H 0.94351 0.32823 0.7885 0.0
H361 H 0.86899 0.32651 0.78562 0.0
H362 H 0.08144 0.63836 0.8405 0.0
H363 H 0.0114 0.64108 0.83053 0.0
H364 H 0.14092 0.60341 0.82536 0.0
H365 H 0.1416 0.53009 0.81944 0.0
C366 C 0.44922 0.91332 0.13729 0.0
C367 C 0.41844 0.94352 0.15204 0.0
C368 C 0.52489 0.04555 0.15741 0.0
C369 C 0.55666 0.0118 0.14701 0.0
N370 N 0.55036 0.91246 0.12791 0.0
N371 N 0.42563 0.03808 0.17674 0.0
C372 C 0.51922 0.94571 0.13665 0.0
C373 C 0.45587 0.00984 0.16206 0.0
N374 N 0.41153 0.85371 0.12405 0.0
N375 N 0.56099 0.11215 0.16235 0.0
H376 H 0.37485 0.01485 0.17967 0.0
H377 H 0.45099 0.08302 0.18754 0.0
H378 H 0.61163 0.13946 0.15868 0.0
H379 H 0.54037 0.14139 0.16735 0.0
H380 H 0.43065 0.83212 0.11043 0.0
H381 H 0.36021 0.82816 0.12491 0.0
H382 H 0.52601 0.8619 0.12365 0.0
H383 H 0.60131 0.93455 0.12644 0.0
C384 C 0.15639 0.04259 0.19469 0.0
C385 C 0.21522 0.04787 0.18384 0.0
C386 C 0.26902 0.1681 0.18401 0.0
C387 C 0.20873 0.16305 0.19273 0.0
N388 N 0.09209 0.09667 0.20167 0.0
N389 N 0.32233 0.11327 0.16218 0.0
C390 C 0.15143 0.10054 0.19683 0.0
C391 C 0.26993 0.10991 0.17657 0.0
N392 N 0.10572 0.98239 0.2031 0.0
N393 N 0.32614 0.22787 0.18438 0.0
H394 H 0.32505 0.07151 0.15647 0.0
H395 H 0.36026 0.15702 0.15363 0.0
H396 H 0.32843 0.27197 0.19044 0.0
H397 H 0.37241 0.23285 0.18135 0.0
H398 H 0.0643 0.97634 0.21397 0.0
H399 H 0.107 0.93854 0.20093 0.0
H400 H 0.04748 0.05234 0.20202 0.0
H401 H 0.08656 0.13829 0.20284 0.0
C402 C 0.07335 0.26234 0.51485 0.0
C403 C 0.01407 0.20191 0.51938 0.0
C404 C 0.07178 0.13937 0.51505 0.0
C405 C 0.13053 0.19965 0.50958 0.0
N406 N 0.18716 0.31685 0.49966 0.0
N407 N 0.95285 0.08284 0.52025 0.0
C408 C 0.13127 0.2607 0.50808 0.0
C409 C 0.01206 0.14023 0.51843 0.0
N410 N 0.07484 0.32134 0.51832 0.0
N411 N 0.07373 0.08197 0.51771 0.0
H412 H 0.90829 0.08213 0.52277 0.0
H413 H 0.94695 0.03602 0.51733 0.0
H414 H 0.1167 0.07978 0.51473 0.0
H415 H 0.03413 0.03724 0.52445 0.0
H416 H 0.11804 0.36697 0.519 0.0
H417 H 0.03298 0.32482 0.52244 0.0
H418 H 0.18866 0.36108 0.49468 0.0
H419 H 0.23158 0.31826 0.4957 0.0
C420 C 0.9099 0.0821 0.84086 0.0
C421 C 0.91207 0.14356 0.838 0.0
C422 C 0.79282 0.09053 0.84346 0.0
C423 C 0.79057 0.02905 0.84634 0.0
N424 N 0.84218 0.96238 0.84259 0.0
N425 N 0.85691 0.20637 0.83077 0.0
C426 C 0.84779 0.0236 0.84336 0.0
C427 C 0.8538 0.14775 0.83743 0.0
N428 N 0.96721 0.08022 0.84222 0.0
N429 N 0.73726 0.09461 0.84791 0.0
H430 H 0.90114 0.25009 0.82727 0.0
H431 H 0.81573 0.21095 0.82668 0.0
H432 H 0.691 0.05329 0.85136 0.0
H433 H 0.73732 0.13908 0.84983 0.0
H434 H 0.96952 0.03802 0.84735 0.0
H435 H 0.01346 0.12228 0.83978 0.0
H436 H 0.88101 0.95441 0.83788 0.0
H437 H 0.79705 0.91867 0.84443 0.0
C438 C 0.71754 0.85378 0.15801 0.0
C439 C 0.77427 0.91358 0.16613 0.0
C440 C 0.82134 0.85183 0.18817 0.0
C441 C 0.75936 0.79326 0.18521 0.0
N442 N 0.64628 0.73802 0.16901 0.0
N443 N 0.88142 0.97176 0.18805 0.0
C444 C 0.70711 0.79363 0.17008 0.0
C445 C 0.827 0.91328 0.18069 0.0
N446 N 0.67325 0.85469 0.13922 0.0
N447 N 0.87473 0.84831 0.19763 0.0
H448 H 0.88842 0.01752 0.1813 0.0
H449 H 0.918 0.97508 0.20177 0.0
H450 H 0.87233 0.80369 0.20289 0.0
H451 H 0.92248 0.88852 0.19773 0.0
H452 H 0.63409 0.81208 0.13049 0.0
H453 H 0.67948 0.89815 0.13005 0.0
H454 H 0.60451 0.7378 0.16128 0.0
H455 H 0.63592 0.69292 0.17799 0.0
C456 C 0.84951 0.82089 0.51702 0.0
C457 C 0.79011 0.7623 0.52405 0.0
C458 C 0.85206 0.71824 0.54846 0.0
C459 C 0.91088 0.77143 0.53722 0.0
N460 N 0.96762 0.87308 0.51041 0.0
N461 N 0.73423 0.65095 0.54313 0.0
C462 C 0.91029 0.82292 0.52143 0.0
C463 C 0.79097 0.71008 0.53926 0.0
N464 N 0.84766 0.87499 0.50693 0.0
N465 N 0.85444 0.67514 0.56766 0.0
H466 H 0.68824 0.64174 0.5361 0.0
H467 H 0.73345 0.60876 0.55097 0.0
H468 H 0.89828 0.67861 0.57461 0.0
H469 H 0.81332 0.63973 0.57877 0.0
H470 H 0.88946 0.92074 0.50343 0.0
H471 H 0.80394 0.87601 0.50452 0.0
H472 H 0.96952 0.90789 0.49587 0.0
H473 H 0.01351 0.87795 0.51473 0.0
C474 C 0.11612 0.86679 0.88402 0.0
C475 C 0.12539 0.92673 0.87208 0.0
C476 C 0.01491 0.86884 0.85153 0.0
C477 C 0.01006 0.8079 0.85956 0.0
N478 N 0.0594 0.74779 0.88039 0.0
N479 N 0.08601 -0.01331 0.84403 0.0
C480 C 0.06101 0.8064 0.87539 0.0
C481 C 0.07533 0.92841 0.85576 0.0
N482 N 0.16031 0.86738 0.90333 0.0
N483 N 0.96117 0.86962 0.84061 0.0
H484 H 0.12839 0.03191 0.8481 0.0
H485 H 0.05462 -0.0101 0.82913 0.0
H486 H 0.91556 0.8268 0.83804 0.0
H487 H 0.95988 0.91282 0.83658 0.0
H488 H 0.15194 0.82604 0.9152 0.0
H489 H 0.20279 0.91037 0.90951 0.0
H490 H 0.09931 0.74485 0.88842 0.0
H491 H 0.02052 0.70187 0.87433 0.0
C492 C 0.15644 0.20946 0.37577 0.0
C493 C 0.18906 0.17256 0.38028 0.0
C494 C 0.20532 0.1716 0.32831 0.0
C495 C 0.16552 0.201 0.32368 0.0
N496 N 0.09391 0.23774 0.34304 0.0
N497 N 0.23481 0.10884 0.36047 0.0
C498 C 0.13839 0.21702 0.34744 0.0
C499 C 0.21073 0.15084 0.35643 0.0
N500 N 0.14579 0.24044 0.39832 0.0
N501 N 0.24099 0.1667 0.30621 0.0
H502 H 0.23907 0.09216 0.3807 0.0
H503 H 0.24472 0.08575 0.34363 0.0
H504 H 0.24119 0.18401 0.28556 0.0
H505 H 0.27588 0.15199 0.30905 0.0
H506 H 0.12841 0.27342 0.39579 0.0
H507 H 0.16081 0.23901 0.41924 0.0
H508 H 0.0672 0.24329 0.35959 0.0
H509 H 0.07909 0.24339 0.32263 0.0
C510 C 0.03236 0.24315 0.66154 0.0
C511 C 0.96463 0.19762 0.65622 0.0
C512 C 0.94615 0.18013 0.70809 0.0
C513 C 0.01522 0.21833 0.71304 0.0
N514 N 0.12516 0.27768 0.6937 0.0
N515 N 0.8591 0.11412 0.67433 0.0
C516 C 0.05868 0.24753 0.68953 0.0
C517 C 0.92203 0.16368 0.67948 0.0
N518 N 0.07104 0.28471 0.64025 0.0
N519 N 0.90313 0.16237 0.73057 0.0
H520 H 0.83978 0.09999 0.65371 0.0
H521 H 0.82825 0.08296 0.69037 0.0
H522 H 0.91814 0.17611 0.75174 0.0
H523 H 0.85238 0.14031 0.72786 0.0
H524 H 0.11886 0.32326 0.64374 0.0
H525 H 0.05326 0.28553 0.61983 0.0
H526 H 0.15891 0.29357 0.67688 0.0
H527 H 0.14632 0.2812 0.71379 0.0
C528 C 0.79159 0.06428 1.01914 0.0
C529 C 0.78299 0.02015 0.04183 0.0
C530 C 0.7489 0.92967 1.00682 0.0
C531 C 0.75212 0.97252 0.98451 0.0
N532 N 0.75973 0.07625 0.9711 0.0
N533 N 0.73662 0.90684 0.0578 0.0
C534 C 0.76876 0.03867 0.99112 0.0
C535 C 0.75693 0.95164 0.03584 0.0
N536 N 0.82358 0.13093 0.02403 0.0
N537 N 0.74048 0.86879 1.00037 0.0
H538 H 0.7384 0.92003 0.07929 0.0
H539 H 0.7113 0.85585 0.05453 0.0
H540 H 0.73517 0.85113 0.97942 0.0
H541 H 0.74491 0.83846 1.01556 0.0
H542 H 0.83743 0.16572 1.00762 0.0
H543 H 0.84192 0.15174 0.04411 0.0
H544 H 0.76494 0.12233 0.97569 0.0
H545 H 0.73985 0.05852 0.95083 0.0
C546 C 0.80521 0.75819 0.35192 0.0
C547 C 0.77153 0.76847 0.32899 0.0
C548 C 0.72207 0.8112 0.36331 0.0
C549 C 0.74933 0.79338 0.38648 0.0
N550 N 0.80474 0.73504 0.40251 0.0
N551 N 0.68539 0.79028 0.31396 0.0
C552 C 0.78788 0.76302 0.38074 0.0
C553 C 0.72662 0.79122 0.33494 0.0
N554 N 0.85499 0.74548 0.34626 0.0
N555 N 0.69331 0.84878 0.3682 0.0
H556 H 0.68419 0.77274 0.29327 0.0
H557 H 0.64729 0.79995 0.31796 0.0
H558 H 0.69034 0.86567 0.38856 0.0
H559 H 0.67859 0.86878 0.35174 0.0
H560 H 0.88575 0.74446 0.36216 0.0
H561 H 0.86977 0.74251 0.32547 0.0
H562 H 0.82699 0.70659 0.39902 0.0
H563 H 0.79017 0.73374 0.42374 0.0
C564 C 0.06409 0.80589 0.68451 0.0
C565 C 0.01965 0.79395 0.66163 0.0
C566 C 0.92948 0.76026 0.69639 0.0
C567 C 0.97262 0.76611 0.71899 0.0
N568 N 0.07767 0.77933 0.73332 0.0
N569 N 0.90675 0.74417 0.64547 0.0
C570 C 0.03912 0.78485 0.71273 0.0
C571 C 0.95136 0.76685 0.66746 0.0
N572 N 0.13036 0.83912 0.67951 0.0
N573 N 0.86833 0.75066 0.7025 0.0
H574 H 0.91998 0.74519 0.62405 0.0
H575 H 0.85603 0.71784 0.64874 0.0
H576 H 0.85079 0.74664 0.72339 0.0
H577 H 0.83755 0.75309 0.687 0.0
H578 H 0.16527 0.85549 0.69589 0.0
H579 H 0.15057 0.85584 0.6592 0.0
H580 H 0.1242 0.78597 0.7291 0.0
H581 H 0.06068 0.76111 0.75386 0.0
C582 C 0.17068 0.92211 0.03141 0.0
C583 C 0.19331 0.96564 0.05524 0.0
C584 C 0.23288 0.06105 0.02258 0.0
C585 C 0.21419 0.01766 0.99873 0.0
N586 N 0.18072 0.90842 0.98054 0.0
N587 N 0.25983 0.07706 0.07323 0.0
C588 C 0.18745 0.94856 1.00318 0.0
C589 C 0.22833 0.03535 0.05077 0.0
N590 N 0.13105 0.85562 0.03561 0.0
N591 N 0.25291 0.1264 1.01843 0.0
H592 H 0.25984 0.06039 0.094 0.0
H593 H 0.29148 0.12772 0.07077 0.0
H594 H 0.25724 0.147 0.99812 0.0
H595 H 0.26 0.15892 0.03516 0.0
H596 H 0.10709 0.82234 1.01894 0.0
H597 H 0.11722 0.83431 0.05592 0.0
H598 H 0.1678 0.85897 0.98284 0.0
H599 H 0.19496 0.92624 0.95974 0.0
loop_
_geom_bond_atom_site_label_1
_geom_bond_atom_site_label_2
_geom_bond_distance
_geom_bond_site_symmetry_2
_ccdc_geom_bond_type
Zn0 O3 2.031 . S
Zn0 O5 2.049 . S
Zn0 O10 2.067 . S
Zn1 O2 1.962 . S
Zn1 O4 1.986 . S
Zn1 O6 1.996 . S
Zn1 O9 1.943 . S
O2 Zn1 1.962 . S
O2 C7 1.254 . S
O3 Zn0 2.031 . S
O3 C7 1.269 . S
O4 Zn1 1.986 . S
O4 C11 1.262 . S
O5 Zn0 2.049 . S
O5 C13 1.260 . S
O6 Zn1 1.996 . S
O6 C13 1.257 . S
C7 O2 1.254 . S
C7 O3 1.269 . S
C8 O9 1.249 . S
C8 O10 1.270 . S
O9 Zn1 1.943 . S
O9 C8 1.249 . S
O10 Zn0 2.067 . S
O10 C8 1.270 . S
C11 O4 1.262 . S
C11 O12 1.232 . S
O12 C11 1.232 . S
C13 O5 1.260 . S
C13 O6 1.257 . S
Zn14 O17 2.031 . S
Zn14 O19 2.049 . S
Zn14 O24 2.067 1_655 S
Zn15 O16 1.962 . S
Zn15 O18 1.986 . S
Zn15 O20 1.996 . S
Zn15 O23 1.943 1_655 S
O16 Zn15 1.962 . S
O16 C21 1.254 . S
O17 Zn14 2.031 . S
O17 C21 1.269 . S
O18 Zn15 1.986 . S
O18 C25 1.262 . S
O19 Zn14 2.049 . S
O19 C27 1.260 . S
O20 Zn15 1.996 . S
O20 C27 1.257 . S
C21 O16 1.254 . S
C21 O17 1.269 . S
C22 O23 1.249 . S
C22 O24 1.270 . S
O23 Zn15 1.943 1_455 S
O23 C22 1.249 . S
O24 Zn14 2.067 1_455 S
O24 C22 1.270 . S
C25 O18 1.262 . S
C25 O26 1.232 . S
O26 C25 1.232 . S
C27 O19 1.260 . S
C27 O20 1.257 . S
Zn28 O31 2.031 . S
Zn28 O33 2.049 . S
Zn28 O38 2.067 1_565 S
Zn29 O30 1.962 . S
Zn29 O32 1.986 . S
Zn29 O34 1.996 . S
Zn29 O37 1.943 1_565 S
O30 Zn29 1.962 . S
O30 C35 1.254 . S
O31 Zn28 2.031 . S
O31 C35 1.269 . S
O32 Zn29 1.986 . S
O32 C39 1.262 . S
O33 Zn28 2.049 . S
O33 C41 1.260 . S
O34 Zn29 1.996 . S
O34 C41 1.257 . S
C35 O30 1.254 . S
C35 O31 1.269 . S
C36 O37 1.249 . S
C36 O38 1.270 . S
O37 Zn29 1.943 1_545 S
O37 C36 1.249 . S
O38 Zn28 2.067 1_545 S
O38 C36 1.270 . S
C39 O32 1.262 . S
C39 O40 1.232 . S
O40 C39 1.232 . S
C41 O33 1.260 . S
C41 O34 1.257 . S
Zn42 O45 2.031 . S
Zn42 O47 2.049 . S
Zn42 O52 2.067 . S
Zn43 O44 1.962 . S
Zn43 O46 1.986 . S
Zn43 O48 1.996 . S
Zn43 O51 1.943 . S
O44 Zn43 1.962 . S
O44 C49 1.254 . S
O45 Zn42 2.031 . S
O45 C49 1.269 . S
O46 Zn43 1.986 . S
O46 C53 1.262 . S
O47 Zn42 2.049 . S
O47 C55 1.260 . S
O48 Zn43 1.996 . S
O48 C55 1.257 . S
C49 O44 1.254 . S
C49 O45 1.269 . S
C50 O51 1.249 . S
C50 O52 1.270 . S
O51 Zn43 1.943 . S
O51 C50 1.249 . S
O52 Zn42 2.067 . S
O52 C50 1.270 . S
C53 O46 1.262 . S
C53 O54 1.232 . S
O54 C53 1.232 . S
C55 O47 1.260 . S
C55 O48 1.257 . S
Zn56 O59 2.031 . S
Zn56 O61 2.049 . S
Zn56 O66 2.067 1_455 S
Zn57 O58 1.962 . S
Zn57 O60 1.986 . S
Zn57 O62 1.996 . S
Zn57 O65 1.943 1_455 S
O58 Zn57 1.962 . S
O58 C63 1.254 . S
O59 Zn56 2.031 . S
O59 C63 1.269 . S
O60 Zn57 1.986 . S
O60 C67 1.262 . S
O61 Zn56 2.049 . S
O61 C69 1.260 . S
O62 Zn57 1.996 . S
O62 C69 1.257 . S
C63 O58 1.254 . S
C63 O59 1.269 . S
C64 O65 1.249 . S
C64 O66 1.270 . S
O65 Zn57 1.943 1_655 S
O65 C64 1.249 . S
O66 Zn56 2.067 1_655 S
O66 C64 1.270 . S
C67 O60 1.262 . S
C67 O68 1.232 . S
O68 C67 1.232 . S
C69 O61 1.260 . S
C69 O62 1.257 . S
Zn70 O73 2.031 . S
Zn70 O75 2.049 . S
Zn70 O80 2.067 1_545 S
Zn71 O72 1.962 . S
Zn71 O74 1.986 . S
Zn71 O76 1.996 . S
Zn71 O79 1.943 1_545 S
O72 Zn71 1.962 . S
O72 C77 1.254 . S
O73 Zn70 2.031 . S
O73 C77 1.269 . S
O74 Zn71 1.986 . S
O74 C81 1.262 . S
O75 Zn70 2.049 . S
O75 C83 1.260 . S
O76 Zn71 1.996 . S
O76 C83 1.257 . S
C77 O72 1.254 . S
C77 O73 1.269 . S
C78 O79 1.249 . S
C78 O80 1.270 . S
O79 Zn71 1.943 1_565 S
O79 C78 1.249 . S
O80 Zn70 2.067 1_565 S
O80 C78 1.270 . S
C81 O74 1.262 . S
C81 O82 1.232 . S
O82 C81 1.232 . S
C83 O75 1.260 . S
C83 O76 1.257 . S
Zn84 O87 2.031 . S
Zn84 O89 2.049 . S
Zn84 O94 2.067 . S
Zn85 O86 1.962 . S
Zn85 O88 1.986 . S
Zn85 O90 1.996 . S
Zn85 O93 1.943 . S
O86 Zn85 1.962 . S
O86 C91 1.254 . S
O87 Zn84 2.031 . S
O87 C91 1.269 . S
O88 Zn85 1.986 . S
O88 C95 1.262 . S
O89 Zn84 2.049 . S
O89 C97 1.260 . S
O90 Zn85 1.996 . S
O90 C97 1.257 . S
C91 O86 1.254 . S
C91 O87 1.269 . S
C92 O93 1.249 . S
C92 O94 1.270 . S
O93 Zn85 1.943 . S
O93 C92 1.249 . S
O94 Zn84 2.067 . S
O94 C92 1.270 . S
C95 O88 1.262 . S
C95 O96 1.232 . S
O96 C95 1.232 . S
C97 O89 1.260 . S
C97 O90 1.257 . S
Zn98 O101 2.031 . S
Zn98 O103 2.049 . S
Zn98 O108 2.067 1_655 S
Zn99 O100 1.962 . S
Zn99 O102 1.986 . S
Zn99 O104 1.996 . S
Zn99 O107 1.943 1_655 S
O100 Zn99 1.962 . S
O100 C105 1.254 . S
O101 Zn98 2.031 . S
O101 C105 1.269 . S
O102 Zn99 1.986 . S
O102 C109 1.262 . S
O103 Zn98 2.049 . S
O103 C111 1.260 . S
O104 Zn99 1.996 . S
O104 C111 1.257 . S
C105 O100 1.254 . S
C105 O101 1.269 . S
C106 O107 1.249 . S
C106 O108 1.270 . S
O107 Zn99 1.943 1_455 S
O107 C106 1.249 . S
O108 Zn98 2.067 1_455 S
O108 C106 1.270 . S
C109 O102 1.262 . S
C109 O110 1.232 . S
O110 C109 1.232 . S
C111 O103 1.260 . S
C111 O104 1.257 . S
Zn112 O115 2.031 . S
Zn112 O117 2.049 . S
Zn112 O122 2.067 1_565 S
Zn113 O114 1.962 . S
Zn113 O116 1.986 . S
Zn113 O118 1.996 . S
Zn113 O121 1.943 1_565 S
O114 Zn113 1.962 . S
O114 C119 1.254 . S
O115 Zn112 2.031 . S
O115 C119 1.269 . S
O116 Zn113 1.986 . S
O116 C123 1.262 . S
O117 Zn112 2.049 . S
O117 C125 1.260 . S
O118 Zn113 1.996 . S
O118 C125 1.257 . S
C119 O114 1.254 . S
C119 O115 1.269 . S
C120 O121 1.249 . S
C120 O122 1.270 . S
O121 Zn113 1.943 1_545 S
O121 C120 1.249 . S
O122 Zn112 2.067 1_545 S
O122 C120 1.270 . S
C123 O116 1.262 . S
C123 O124 1.232 . S
O124 C123 1.232 . S
C125 O117 1.260 . S
C125 O118 1.257 . S
Zn126 O129 2.031 . S
Zn126 O131 2.049 . S
Zn126 O136 2.067 . S
Zn127 O128 1.962 . S
Zn127 O130 1.986 . S
Zn127 O132 1.996 . S
Zn127 O135 1.943 . S
O128 Zn127 1.962 . S
O128 C133 1.254 . S
O129 Zn126 2.031 . S
O129 C133 1.269 . S
O130 Zn127 1.986 . S
O130 C137 1.262 . S
O131 Zn126 2.049 . S
O131 C139 1.260 . S
O132 Zn127 1.996 . S
O132 C139 1.257 . S
C133 O128 1.254 . S
C133 O129 1.269 . S
C134 O135 1.249 . S
C134 O136 1.270 . S
O135 Zn127 1.943 . S
O135 C134 1.249 . S
O136 Zn126 2.067 . S
O136 C134 1.270 . S
C137 O130 1.262 . S
C137 O138 1.232 . S
O138 C137 1.232 . S
C139 O131 1.260 . S
C139 O132 1.257 . S
Zn140 O143 2.031 . S
Zn140 O145 2.049 . S
Zn140 O150 2.067 1_455 S
Zn141 O142 1.962 . S
Zn141 O144 1.986 . S
Zn141 O146 1.996 . S
Zn141 O149 1.943 1_455 S
O142 Zn141 1.962 . S
O142 C147 1.254 . S
O143 Zn140 2.031 . S
O143 C147 1.269 . S
O144 Zn141 1.986 . S
O144 C151 1.262 . S
O145 Zn140 2.049 . S
O145 C153 1.260 . S
O146 Zn141 1.996 . S
O146 C153 1.257 . S
C147 O142 1.254 . S
C147 O143 1.269 . S
C148 O149 1.249 . S
C148 O150 1.270 . S
O149 Zn141 1.943 1_655 S
O149 C148 1.249 . S
O150 Zn140 2.067 1_655 S
O150 C148 1.270 . S
C151 O144 1.262 . S
C151 O152 1.232 . S
O152 C151 1.232 . S
C153 O145 1.260 . S
C153 O146 1.257 . S
Zn154 O157 2.031 . S
Zn154 O159 2.049 . S
Zn154 O164 2.067 1_545 S
Zn155 O156 1.962 . S
Zn155 O158 1.986 . S
Zn155 O160 1.996 . S
Zn155 O163 1.943 1_545 S
O156 Zn155 1.962 . S
O156 C161 1.254 . S
O157 Zn154 2.031 . S
O157 C161 1.269 . S
O158 Zn155 1.986 . S
O158 C165 1.262 . S
O159 Zn154 2.049 . S
O159 C167 1.260 . S
O160 Zn155 1.996 . S
O160 C167 1.257 . S
C161 O156 1.254 . S
C161 O157 1.269 . S
C162 O163 1.249 . S
C162 O164 1.270 . S
O163 Zn155 1.943 1_565 S
O163 C162 1.249 . S
O164 Zn154 2.067 1_565 S
O164 C162 1.270 . S
C165 O158 1.262 . S
C165 O166 1.232 . S
O166 C165 1.232 . S
C167 O159 1.260 . S
C167 O160 1.257 . S
C168 C169 1.363 . S
C168 C174 1.379 1_655 S
C168 N176 1.356 . S
C169 C168 1.363 . S
C169 C175 1.363 . S
C170 C171 1.363 . S
C170 C175 1.379 1_455 S
C170 N177 1.356 . S
C171 C170 1.363 . S
C171 C174 1.363 . S
N172 C174 1.356 . S
N172 H184 0.984 1_455 S
N172 H185 0.985 . S
N173 C175 1.356 . S
N173 H178 0.984 . S
N173 H179 0.985 1_655 S
C174 C168 1.379 1_455 S
C174 C171 1.363 . S
C174 N172 1.356 . S
C175 C169 1.363 . S
C175 C170 1.379 1_655 S
C175 N173 1.356 . S
N176 C168 1.356 . S
N176 H182 0.984 . S
N176 H183 0.984 . S
N177 C170 1.356 . S
N177 H180 0.984 . S
N177 H181 0.985 . S
H178 N173 0.984 . S
H179 N173 0.985 1_455 S
H180 N177 0.984 . S
H181 N177 0.985 . S
H182 N176 0.984 . S
H183 N176 0.984 . S
H184 N172 0.984 1_655 S
H185 N172 0.985 . S
C186 C187 1.363 . S
C186 C192 1.379 1_545 S
C186 N194 1.356 . S
C187 C186 1.363 . S
C187 C193 1.363 . S
C188 C189 1.363 . S
C188 C193 1.379 1_565 S
C188 N195 1.356 . S
C189 C188 1.363 . S
C189 C192 1.363 . S
N190 C192 1.356 . S
N190 H202 0.984 . S
N190 H203 0.985 . S
N191 C193 1.356 . S
N191 H196 0.984 . S
N191 H197 0.985 . S
C192 C186 1.379 1_565 S
C192 C189 1.363 . S
C192 N190 1.356 . S
C193 C187 1.363 . S
C193 C188 1.379 1_545 S
C193 N191 1.356 . S
N194 C186 1.356 . S
N194 H200 0.984 . S
N194 H201 0.984 . S
N195 C188 1.356 . S
N195 H198 0.984 . S
N195 H199 0.985 . S
H196 N191 0.984 . S
H197 N191 0.985 . S
H198 N195 0.984 . S
H199 N195 0.985 . S
H200 N194 0.984 . S
H201 N194 0.984 . S
H202 N190 0.984 . S
H203 N190 0.985 . S
C204 C205 1.363 . S
C204 C210 1.379 . S
C204 N212 1.356 . S
C205 C204 1.363 . S
C205 C211 1.363 . S
C206 C207 1.363 . S
C206 C211 1.379 . S
C206 N213 1.356 . S
C207 C206 1.363 . S
C207 C210 1.363 . S
N208 C210 1.356 . S
N208 H220 0.984 . S
N208 H221 0.985 . S
N209 C211 1.356 . S
N209 H214 0.984 . S
N209 H215 0.985 . S
C210 C204 1.379 . S
C210 C207 1.363 . S
C210 N208 1.356 . S
C211 C205 1.363 . S
C211 C206 1.379 . S
C211 N209 1.356 . S
N212 C204 1.356 . S
N212 H218 0.984 . S
N212 H219 0.984 . S
N213 C206 1.356 . S
N213 H216 0.984 . S
N213 H217 0.985 . S
H214 N209 0.984 . S
H215 N209 0.985 . S
H216 N213 0.984 . S
H217 N213 0.985 . S
H218 N212 0.984 . S
H219 N212 0.984 . S
H220 N208 0.984 . S
H221 N208 0.985 . S
C222 C223 1.363 . S
C222 C228 1.379 1_655 S
C222 N230 1.356 . S
C223 C222 1.363 . S
C223 C229 1.363 . S
C224 C225 1.363 . S
C224 C229 1.379 1_455 S
C224 N231 1.356 . S
C225 C224 1.363 . S
C225 C228 1.363 . S
N226 C228 1.356 . S
N226 H238 0.984 . S
N226 H239 0.985 . S
N227 C229 1.356 . S
N227 H232 0.984 . S
N227 H233 0.985 . S
C228 C222 1.379 1_455 S
C228 C225 1.363 . S
C228 N226 1.356 . S
C229 C223 1.363 . S
C229 C224 1.379 1_655 S
C229 N227 1.356 . S
N230 C222 1.356 . S
N230 H236 0.984 . S
N230 H237 0.984 . S
N231 C224 1.356 . S
N231 H234 0.984 . S
N231 H235 0.985 . S
H232 N227 0.984 . S
H233 N227 0.985 . S
H234 N231 0.984 . S
H235 N231 0.985 . S
H236 N230 0.984 . S
H237 N230 0.984 . S
H238 N226 0.984 . S
H239 N226 0.985 . S
C240 C241 1.363 . S
C240 C246 1.379 1_545 S
C240 N248 1.356 . S
C241 C240 1.363 . S
C241 C247 1.363 . S
C242 C243 1.363 . S
C242 C247 1.379 1_565 S
C242 N249 1.356 . S
C243 C242 1.363 . S
C243 C246 1.363 . S
N244 C246 1.356 . S
N244 H256 0.984 1_565 S
N244 H257 0.985 . S
N245 C247 1.356 . S
N245 H250 0.984 . S
N245 H251 0.985 1_545 S
C246 C240 1.379 1_565 S
C246 C243 1.363 . S
C246 N244 1.356 . S
C247 C241 1.363 . S
C247 C242 1.379 1_545 S
C247 N245 1.356 . S
N248 C240 1.356 . S
N248 H254 0.984 . S
N248 H255 0.984 . S
N249 C242 1.356 . S
N249 H252 0.984 . S
N249 H253 0.985 . S
H250 N245 0.984 . S
H251 N245 0.985 1_565 S
H252 N249 0.984 . S
H253 N249 0.985 . S
H254 N248 0.984 . S
H255 N248 0.984 . S
H256 N244 0.984 1_545 S
H257 N244 0.985 . S
C258 C259 1.363 . S
C258 C264 1.379 . S
C258 N266 1.356 . S
C259 C258 1.363 . S
C259 C265 1.363 . S
C260 C261 1.363 . S
C260 C265 1.379 . S
C260 N267 1.356 . S
C261 C260 1.363 . S
C261 C264 1.363 . S
N262 C264 1.356 . S
N262 H274 0.984 . S
N262 H275 0.985 . S
N263 C265 1.356 . S
N263 H268 0.984 . S
N263 H269 0.985 . S
C264 C258 1.379 . S
C264 C261 1.363 . S
C264 N262 1.356 . S
C265 C259 1.363 . S
C265 C260 1.379 . S
C265 N263 1.356 . S
N266 C258 1.356 . S
N266 H272 0.984 . S
N266 H273 0.984 . S
N267 C260 1.356 . S
N267 H270 0.984 . S
N267 H271 0.985 . S
H268 N263 0.984 . S
H269 N263 0.985 . S
H270 N267 0.984 . S
H271 N267 0.985 . S
H272 N266 0.984 . S
H273 N266 0.984 . S
H274 N262 0.984 . S
H275 N262 0.985 . S
C276 C277 1.363 . S
C276 C282 1.379 . S
C276 N284 1.356 . S
C277 C276 1.363 . S
C277 C283 1.363 . S
C278 C279 1.363 . S
C278 C283 1.379 . S
C278 N285 1.356 . S
C279 C278 1.363 . S
C279 C282 1.363 . S
N280 C282 1.356 . S
N280 H292 0.984 . S
N280 H293 0.985 . S
N281 C283 1.356 . S
N281 H286 0.984 . S
N281 H287 0.985 . S
C282 C276 1.379 . S
C282 C279 1.363 . S
C282 N280 1.356 . S
C283 C277 1.363 . S
C283 C278 1.379 . S
C283 N281 1.356 . S
N284 C276 1.356 . S
N284 H290 0.984 . S
N284 H291 0.984 . S
N285 C278 1.356 . S
N285 H288 0.984 . S
N285 H289 0.985 . S
H286 N281 0.984 . S
H287 N281 0.985 . S
H288 N285 0.984 . S
H289 N285 0.985 . S
H290 N284 0.984 . S
H291 N284 0.984 . S
H292 N280 0.984 . S
H293 N280 0.985 . S
C294 C295 1.363 . S
C294 C300 1.379 . S
C294 N302 1.356 . S
C295 C294 1.363 . S
C295 C301 1.363 1_455 S
C296 C297 1.363 . S
C296 C301 1.379 . S
C296 N303 1.356 . S
C297 C296 1.363 . S
C297 C300 1.363 1_655 S
N298 C300 1.356 . S
N298 H310 0.984 . S
N298 H311 0.985 1_455 S
N299 C301 1.356 . S
N299 H304 0.984 1_655 S
N299 H305 0.985 . S
C300 C294 1.379 . S
C300 C297 1.363 1_455 S
C300 N298 1.356 . S
C301 C295 1.363 1_655 S
C301 C296 1.379 . S
C301 N299 1.356 . S
N302 C294 1.356 . S
N302 H308 0.984 . S
N302 H309 0.984 . S
N303 C296 1.356 . S
N303 H306 0.984 . S
N303 H307 0.985 . S
H304 N299 0.984 1_455 S
H305 N299 0.985 . S
H306 N303 0.984 . S
H307 N303 0.985 . S
H308 N302 0.984 . S
H309 N302 0.984 . S
H310 N298 0.984 . S
H311 N298 0.985 1_655 S
C312 C313 1.363 . S
C312 C318 1.379 . S
C312 N320 1.356 . S
C313 C312 1.363 . S
C313 C319 1.363 1_545 S
C314 C315 1.363 . S
C314 C319 1.379 . S
C314 N321 1.356 . S
C315 C314 1.363 . S
C315 C318 1.363 1_565 S
N316 C318 1.356 . S
N316 H328 0.984 . S
N316 H329 0.985 1_545 S
N317 C319 1.356 . S
N317 H322 0.984 1_565 S
N317 H323 0.985 . S
C318 C312 1.379 . S
C318 C315 1.363 1_545 S
C318 N316 1.356 . S
C319 C313 1.363 1_565 S
C319 C314 1.379 . S
C319 N317 1.356 . S
N320 C312 1.356 . S
N320 H326 0.984 . S
N320 H327 0.984 . S
N321 C314 1.356 . S
N321 H324 0.984 . S
N321 H325 0.985 . S
H322 N317 0.984 1_545 S
H323 N317 0.985 . S
H324 N321 0.984 . S
H325 N321 0.985 . S
H326 N320 0.984 . S
H327 N320 0.984 . S
H328 N316 0.984 . S
H329 N316 0.985 1_565 S
C330 C331 1.363 . S
C330 C336 1.379 . S
C330 N338 1.356 . S
C331 C330 1.363 . S
C331 C337 1.363 . S
C332 C333 1.363 . S
C332 C337 1.379 . S
C332 N339 1.356 . S
C333 C332 1.363 . S
C333 C336 1.363 . S
N334 C336 1.356 . S
N334 H346 0.984 . S
N334 H347 0.985 . S
N335 C337 1.356 . S
N335 H340 0.984 . S
N335 H341 0.985 . S
C336 C330 1.379 . S
C336 C333 1.363 . S
C336 N334 1.356 . S
C337 C331 1.363 . S
C337 C332 1.379 . S
C337 N335 1.356 . S
N338 C330 1.356 . S
N338 H344 0.984 . S
N338 H345 0.984 . S
N339 C332 1.356 . S
N339 H342 0.984 . S
N339 H343 0.985 . S
H340 N335 0.984 . S
H341 N335 0.985 . S
H342 N339 0.984 . S
H343 N339 0.985 . S
H344 N338 0.984 . S
H345 N338 0.984 . S
H346 N334 0.984 . S
H347 N334 0.985 . S
C348 C349 1.363 1_455 S
C348 C354 1.379 . S
C348 N356 1.356 . S
C349 C348 1.363 1_655 S
C349 C355 1.363 . S
C350 C351 1.363 1_655 S
C350 C355 1.379 . S
C350 N357 1.356 . S
C351 C350 1.363 1_455 S
C351 C354 1.363 . S
N352 C354 1.356 . S
N352 H364 0.984 . S
N352 H365 0.985 . S
N353 C355 1.356 . S
N353 H358 0.984 . S
N353 H359 0.985 . S
C354 C348 1.379 . S
C354 C351 1.363 . S
C354 N352 1.356 . S
C355 C349 1.363 . S
C355 C350 1.379 . S
C355 N353 1.356 . S
N356 C348 1.356 . S
N356 H362 0.984 . S
N356 H363 0.984 1_455 S
N357 C350 1.356 . S
N357 H360 0.984 1_655 S
N357 H361 0.985 . S
H358 N353 0.984 . S
H359 N353 0.985 . S
H360 N357 0.984 1_455 S
H361 N357 0.985 . S
H362 N356 0.984 . S
H363 N356 0.984 1_655 S
H364 N352 0.984 . S
H365 N352 0.985 . S
C366 C367 1.363 . S
C366 C372 1.379 . S
C366 N374 1.356 . S
C367 C366 1.363 . S
C367 C373 1.363 1_565 S
C368 C369 1.363 . S
C368 C373 1.379 . S
C368 N375 1.356 . S
C369 C368 1.363 . S
C369 C372 1.363 1_545 S
N370 C372 1.356 . S
N370 H382 0.984 . S
N370 H383 0.985 1_565 S
N371 C373 1.356 . S
N371 H376 0.984 1_545 S
N371 H377 0.985 . S
C372 C366 1.379 . S
C372 C369 1.363 1_565 S
C372 N370 1.356 . S
C373 C367 1.363 1_545 S
C373 C368 1.379 . S
C373 N371 1.356 . S
N374 C366 1.356 . S
N374 H380 0.984 . S
N374 H381 0.984 . S
N375 C368 1.356 . S
N375 H378 0.984 . S
N375 H379 0.985 . S
H376 N371 0.984 1_565 S
H377 N371 0.985 . S
H378 N375 0.984 . S
H379 N375 0.985 . S
H380 N374 0.984 . S
H381 N374 0.984 . S
H382 N370 0.984 . S
H383 N370 0.985 1_545 S
C384 C385 1.363 . S
C384 C390 1.379 . S
C384 N392 1.356 1_545 S
C385 C384 1.363 . S
C385 C391 1.363 . S
C386 C387 1.363 . S
C386 C391 1.379 . S
C386 N393 1.356 . S
C387 C386 1.363 . S
C387 C390 1.363 . S
N388 C390 1.356 . S
N388 H400 0.984 . S
N388 H401 0.985 . S
N389 C391 1.356 . S
N389 H394 0.984 . S
N389 H395 0.985 . S
C390 C384 1.379 . S
C390 C387 1.363 . S
C390 N388 1.356 . S
C391 C385 1.363 . S
C391 C386 1.379 . S
C391 N389 1.356 . S
N392 C384 1.356 1_565 S
N392 H398 0.984 . S
N392 H399 0.984 . S
N393 C386 1.356 . S
N393 H396 0.984 . S
N393 H397 0.985 . S
H394 N389 0.984 . S
H395 N389 0.985 . S
H396 N393 0.984 . S
H397 N393 0.985 . S
H398 N392 0.984 . S
H399 N392 0.984 . S
H400 N388 0.984 . S
H401 N388 0.985 . S
C402 C403 1.363 . S
C402 C408 1.379 . S
C402 N410 1.356 . S
C403 C402 1.363 . S
C403 C409 1.363 . S
C404 C405 1.363 . S
C404 C409 1.379 . S
C404 N411 1.356 . S
C405 C404 1.363 . S
C405 C408 1.363 . S
N406 C408 1.356 . S
N406 H418 0.984 . S
N406 H419 0.985 . S
N407 C409 1.356 . S
N407 H412 0.984 . S
N407 H413 0.985 . S
C408 C402 1.379 . S
C408 C405 1.363 . S
C408 N406 1.356 . S
C409 C403 1.363 . S
C409 C404 1.379 . S
C409 N407 1.356 . S
N410 C402 1.356 . S
N410 H416 0.984 . S
N410 H417 0.984 . S
N411 C404 1.356 . S
N411 H414 0.984 . S
N411 H415 0.985 . S
H412 N407 0.984 . S
H413 N407 0.985 . S
H414 N411 0.984 . S
H415 N411 0.985 . S
H416 N410 0.984 . S
H417 N410 0.984 . S
H418 N406 0.984 . S
H419 N406 0.985 . S
C420 C421 1.363 . S
C420 C426 1.379 . S
C420 N428 1.356 1_655 S
C421 C420 1.363 . S
C421 C427 1.363 . S
C422 C423 1.363 . S
C422 C427 1.379 . S
C422 N429 1.356 . S
C423 C422 1.363 . S
C423 C426 1.363 . S
N424 C426 1.356 . S
N424 H436 0.984 . S
N424 H437 0.985 . S
N425 C427 1.356 . S
N425 H430 0.984 . S
N425 H431 0.985 . S
C426 C420 1.379 . S
C426 C423 1.363 . S
C426 N424 1.356 . S
C427 C421 1.363 . S
C427 C422 1.379 . S
C427 N425 1.356 . S
N428 C420 1.356 1_455 S
N428 H434 0.984 . S
N428 H435 0.984 . S
N429 C422 1.356 . S
N429 H432 0.984 . S
N429 H433 0.985 . S
H430 N425 0.984 . S
H431 N425 0.985 . S
H432 N429 0.984 . S
H433 N429 0.985 . S
H434 N428 0.984 . S
H435 N428 0.984 . S
H436 N424 0.984 . S
H437 N424 0.985 . S
C438 C439 1.363 . S
C438 C444 1.379 . S
C438 N446 1.356 . S
C439 C438 1.363 . S
C439 C445 1.363 . S
C440 C441 1.363 . S
C440 C445 1.379 . S
C440 N447 1.356 . S
C441 C440 1.363 . S
C441 C444 1.363 . S
N442 C444 1.356 . S
N442 H454 0.984 . S
N442 H455 0.985 . S
N443 C445 1.356 1_545 S
N443 H448 0.984 . S
N443 H449 0.985 . S
C444 C438 1.379 . S
C444 C441 1.363 . S
C444 N442 1.356 . S
C445 C439 1.363 . S
C445 C440 1.379 . S
C445 N443 1.356 1_565 S
N446 C438 1.356 . S
N446 H452 0.984 . S
N446 H453 0.984 . S
N447 C440 1.356 . S
N447 H450 0.984 . S
N447 H451 0.985 . S
H448 N443 0.984 . S
H449 N443 0.985 . S
H450 N447 0.984 . S
H451 N447 0.985 . S
H452 N446 0.984 . S
H453 N446 0.984 . S
H454 N442 0.984 . S
H455 N442 0.985 . S
C456 C457 1.363 . S
C456 C462 1.379 . S
C456 N464 1.356 . S
C457 C456 1.363 . S
C457 C463 1.363 . S
C458 C459 1.363 . S
C458 C463 1.379 . S
C458 N465 1.356 . S
C459 C458 1.363 . S
C459 C462 1.363 . S
N460 C462 1.356 1_455 S
N460 H472 0.984 . S
N460 H473 0.985 . S
N461 C463 1.356 . S
N461 H466 0.984 . S
N461 H467 0.985 . S
C462 C456 1.379 . S
C462 C459 1.363 . S
C462 N460 1.356 1_655 S
C463 C457 1.363 . S
C463 C458 1.379 . S
C463 N461 1.356 . S
N464 C456 1.356 . S
N464 H470 0.984 . S
N464 H471 0.984 . S
N465 C458 1.356 . S
N465 H468 0.984 . S
N465 H469 0.985 . S
H466 N461 0.984 . S
H467 N461 0.985 . S
H468 N465 0.984 . S
H469 N465 0.985 . S
H470 N464 0.984 . S
H471 N464 0.984 . S
H472 N460 0.984 . S
H473 N460 0.985 . S
C474 C475 1.363 . S
C474 C480 1.379 . S
C474 N482 1.356 . S
C475 C474 1.363 . S
C475 C481 1.363 . S
C476 C477 1.363 . S
C476 C481 1.379 . S
C476 N483 1.356 . S
C477 C476 1.363 . S
C477 C480 1.363 . S
N478 C480 1.356 . S
N478 H490 0.984 . S
N478 H491 0.985 . S
N479 C481 1.356 1_545 S
N479 H484 0.984 . S
N479 H485 0.985 . S
C480 C474 1.379 . S
C480 C477 1.363 . S
C480 N478 1.356 . S
C481 C475 1.363 . S
C481 C476 1.379 . S
C481 N479 1.356 1_565 S
N482 C474 1.356 . S
N482 H488 0.984 . S
N482 H489 0.984 . S
N483 C476 1.356 . S
N483 H486 0.984 . S
N483 H487 0.985 . S
H484 N479 0.984 . S
H485 N479 0.985 . S
H486 N483 0.984 . S
H487 N483 0.985 . S
H488 N482 0.984 . S
H489 N482 0.984 . S
H490 N478 0.984 . S
H491 N478 0.985 . S
C492 C493 1.363 . S
C492 C498 1.379 . S
C492 N500 1.356 . S
C493 C492 1.363 . S
C493 C499 1.363 . S
C494 C495 1.363 . S
C494 C499 1.379 . S
C494 N501 1.356 . S
C495 C494 1.363 . S
C495 C498 1.363 . S
N496 C498 1.356 . S
N496 H508 0.984 . S
N496 H509 0.985 . S
N497 C499 1.356 . S
N497 H502 0.984 . S
N497 H503 0.985 . S
C498 C492 1.379 . S
C498 C495 1.363 . S
C498 N496 1.356 . S
C499 C493 1.363 . S
C499 C494 1.379 . S
C499 N497 1.356 . S
N500 C492 1.356 . S
N500 H506 0.984 . S
N500 H507 0.984 . S
N501 C494 1.356 . S
N501 H504 0.984 . S
N501 H505 0.985 . S
H502 N497 0.984 . S
H503 N497 0.985 . S
H504 N501 0.984 . S
H505 N501 0.985 . S
H506 N500 0.984 . S
H507 N500 0.984 . S
H508 N496 0.984 . S
H509 N496 0.985 . S
C510 C511 1.363 1_455 S
C510 C516 1.379 . S
C510 N518 1.356 . S
C511 C510 1.363 1_655 S
C511 C517 1.363 . S
C512 C513 1.363 1_655 S
C512 C517 1.379 . S
C512 N519 1.356 . S
C513 C512 1.363 1_455 S
C513 C516 1.363 . S
N514 C516 1.356 . S
N514 H526 0.984 . S
N514 H527 0.985 . S
N515 C517 1.356 . S
N515 H520 0.984 . S
N515 H521 0.985 . S
C516 C510 1.379 . S
C516 C513 1.363 . S
C516 N514 1.356 . S
C517 C511 1.363 . S
C517 C512 1.379 . S
C517 N515 1.356 . S
N518 C510 1.356 . S
N518 H524 0.984 . S
N518 H525 0.984 . S
N519 C512 1.356 . S
N519 H522 0.984 . S
N519 H523 0.985 . S
H520 N515 0.984 . S
H521 N515 0.985 . S
H522 N519 0.984 . S
H523 N519 0.985 . S
H524 N518 0.984 . S
H525 N518 0.984 . S
H526 N514 0.984 . S
H527 N514 0.985 . S
C528 C529 1.363 . S
C528 C534 1.379 1_554 S
C528 N536 1.356 . S
C529 C528 1.363 . S
C529 C535 1.363 1_545 S
C530 C531 1.363 . S
C530 C535 1.379 1_556 S
C530 N537 1.356 . S
C531 C530 1.363 . S
C531 C534 1.363 1_565 S
N532 C534 1.356 . S
N532 H544 0.984 . S
N532 H545 0.985 . S
N533 C535 1.356 . S
N533 H538 0.984 . S
N533 H539 0.985 . S
C534 C528 1.379 1_556 S
C534 C531 1.363 1_545 S
C534 N532 1.356 . S
C535 C529 1.363 1_565 S
C535 C530 1.379 1_554 S
C535 N533 1.356 . S
N536 C528 1.356 . S
N536 H542 0.984 . S
N536 H543 0.984 . S
N537 C530 1.356 . S
N537 H540 0.984 . S
N537 H541 0.985 . S
H538 N533 0.984 . S
H539 N533 0.985 . S
H540 N537 0.984 . S
H541 N537 0.985 . S
H542 N536 0.984 . S
H543 N536 0.984 . S
H544 N532 0.984 . S
H545 N532 0.985 . S
C546 C547 1.363 . S
C546 C552 1.379 . S
C546 N554 1.356 . S
C547 C546 1.363 . S
C547 C553 1.363 . S
C548 C549 1.363 . S
C548 C553 1.379 . S
C548 N555 1.356 . S
C549 C548 1.363 . S
C549 C552 1.363 . S
N550 C552 1.356 . S
N550 H562 0.984 . S
N550 H563 0.985 . S
N551 C553 1.356 . S
N551 H556 0.984 . S
N551 H557 0.985 . S
C552 C546 1.379 . S
C552 C549 1.363 . S
C552 N550 1.356 . S
C553 C547 1.363 . S
C553 C548 1.379 . S
C553 N551 1.356 . S
N554 C546 1.356 . S
N554 H560 0.984 . S
N554 H561 0.984 . S
N555 C548 1.356 . S
N555 H558 0.984 . S
N555 H559 0.985 . S
H556 N551 0.984 . S
H557 N551 0.985 . S
H558 N555 0.984 . S
H559 N555 0.985 . S
H560 N554 0.984 . S
H561 N554 0.984 . S
H562 N550 0.984 . S
H563 N550 0.985 . S
C564 C565 1.363 . S
C564 C570 1.379 . S
C564 N572 1.356 . S
C565 C564 1.363 . S
C565 C571 1.363 1_455 S
C566 C567 1.363 . S
C566 C571 1.379 . S
C566 N573 1.356 . S
C567 C566 1.363 . S
C567 C570 1.363 1_655 S
N568 C570 1.356 . S
N568 H580 0.984 . S
N568 H581 0.985 . S
N569 C571 1.356 . S
N569 H574 0.984 . S
N569 H575 0.985 . S
C570 C564 1.379 . S
C570 C567 1.363 1_455 S
C570 N568 1.356 . S
C571 C565 1.363 1_655 S
C571 C566 1.379 . S
C571 N569 1.356 . S
N572 C564 1.356 . S
N572 H578 0.984 . S
N572 H579 0.984 . S
N573 C566 1.356 . S
N573 H576 0.984 . S
N573 H577 0.985 . S
H574 N569 0.984 . S
H575 N569 0.985 . S
H576 N573 0.984 . S
H577 N573 0.985 . S
H578 N572 0.984 . S
H579 N572 0.984 . S
H580 N568 0.984 . S
H581 N568 0.985 . S
C582 C583 1.363 . S
C582 C588 1.379 1_554 S
C582 N590 1.356 . S
C583 C582 1.363 . S
C583 C589 1.363 1_565 S
C584 C585 1.363 . S
C584 C589 1.379 1_556 S
C584 N591 1.356 . S
C585 C584 1.363 . S
C585 C588 1.363 1_545 S
N586 C588 1.356 . S
N586 H598 0.984 . S
N586 H599 0.985 . S
N587 C589 1.356 . S
N587 H592 0.984 . S
N587 H593 0.985 . S
C588 C582 1.379 1_556 S
C588 C585 1.363 1_565 S
C588 N586 1.356 . S
C589 C583 1.363 1_545 S
C589 C584 1.379 1_554 S
C589 N587 1.356 . S
N590 C582 1.356 . S
N590 H596 0.984 . S
N590 H597 0.984 . S
N591 C584 1.356 . S
N591 H594 0.984 . S
N591 H595 0.985 . S
H592 N587 0.984 . S
H593 N587 0.985 . S
H594 N591 0.984 . S
H595 N591 0.985 . S
H596 N590 0.984 . S
H597 N590 0.984 . S
H598 N586 0.984 . S
H599 N586 0.985 . S
C169 C161 1.464 . S
C171 C7 1.464 . S
C187 C21 1.464 . S
C189 C91 1.464 . S
C205 C35 1.464 . S
C207 C105 1.464 . S
C223 C49 1.464 . S
C225 C119 1.464 . S
C241 C133 1.464 . S
C243 C63 1.464 . S
C259 C77 1.464 . S
C261 C147 1.464 . S
C277 C55 1.400 . S
C279 C13 1.400 . S
C295 C69 1.400 . S
C297 C27 1.400 . S
C313 C83 1.400 . S
C315 C41 1.400 . S
C331 C97 1.400 . S
C333 C139 1.400 . S
C349 C111 1.400 . S
C351 C153 1.400 . S
C367 C125 1.400 . S
C369 C167 1.400 . S
C385 C120 0.799 . S
C387 C8 0.799 . S
C403 C22 0.799 . S
C405 C134 0.799 . S
C421 C148 0.799 . S
C423 C36 0.799 . S
C439 C162 0.799 . S
C441 C50 0.799 . S
C457 C92 0.799 . S
C459 C64 0.799 . S
C475 C78 0.799 . S
C477 C106 0.799 . S
C493 C137 1.562 . S
C495 C11 1.562 . S
C511 C25 1.562 . S
C513 C151 1.562 . S
C529 C165 1.562 . S
C531 C39 1.562 . S
C547 C53 1.562 . S
C549 C95 1.562 . S
C565 C67 1.562 . S
C567 C109 1.562 . S
C583 C123 1.562 . S
C585 C81 1.562 . S
