# Generated by pormake.
# Topology wgt, (5)-cn, num edge types: 1
# Building blocks:
#     Node 0, Type 0, BuildingBlock: BEQFEK_clean_sbu_0, # of connection points: 5
#     Node 1, Type 0, BuildingBlock: BEQFEK_clean_sbu_0, # of connection points: 5
#     Node 2, Type 0, BuildingBlock: BEQFEK_clean_sbu_0, # of connection points: 5
#     Node 3, Type 0, BuildingBlock: BEQFEK_clean_sbu_0, # of connection points: 5
#     Node 4, Type 0, BuildingBlock: BEQFEK_clean_sbu_0, # of connection points: 5
#     Node 5, Type 0, BuildingBlock: BEQFEK_clean_sbu_0, # of connection points: 5
#     Node 6, Type 0, BuildingBlock: BEQFEK_clean_sbu_0, # of connection points: 5
#     Node 7, Type 0, BuildingBlock: BEQFEK_clean_sbu_0, # of connection points: 5
#     Node 8, Type 0, BuildingBlock: BEQFEK_clean_sbu_0, # of connection points: 5
#     Node 9, Type 0, BuildingBlock: BEQFEK_clean_sbu_0, # of connection points: 5
#     Node 10, Type 0, BuildingBlock: BEQFEK_clean_sbu_0, # of connection points: 5
#     Node 11, Type 0, BuildingBlock: BEQFEK_clean_sbu_0, # of connection points: 5
#     Node 12, Type 0, BuildingBlock: BEQFEK_clean_sbu_0, # of connection points: 5
#     Node 13, Type 0, BuildingBlock: BEQFEK_clean_sbu_0, # of connection points: 5
#     Node 14, Type 0, BuildingBlock: BEQFEK_clean_sbu_0, # of connection points: 5
#     Node 15, Type 0, BuildingBlock: BEQFEK_clean_sbu_0, # of connection points: 5
#     Edge 16, Type (0, 0), BuildingBlock: CIFDUS_clean_linker_0, # of connection points: 2
#     Edge 17, Type (0, 0), BuildingBlock: CIFDUS_clean_linker_0, # of connection points: 2
#     Edge 18, Type (0, 0), BuildingBlock: CIFDUS_clean_linker_0, # of connection points: 2
#     Edge 19, Type (0, 0), BuildingBlock: CIFDUS_clean_linker_0, # of connection points: 2
#     Edge 20, Type (0, 0), BuildingBlock: CIFDUS_clean_linker_0, # of connection points: 2
#     Edge 21, Type (0, 0), BuildingBlock: CIFDUS_clean_linker_0, # of connection points: 2
#     Edge 22, Type (0, 0), BuildingBlock: CIFDUS_clean_linker_0, # of connection points: 2
#     Edge 23, Type (0, 0), BuildingBlock: CIFDUS_clean_linker_0, # of connection points: 2
#     Edge 24, Type (0, 0), BuildingBlock: CIFDUS_clean_linker_0, # of connection points: 2
#     Edge 25, Type (0, 0), BuildingBlock: CIFDUS_clean_linker_0, # of connection points: 2
#     Edge 26, Type (0, 0), BuildingBlock: CIFDUS_clean_linker_0, # of connection points: 2
#     Edge 27, Type (0, 0), BuildingBlock: CIFDUS_clean_linker_0, # of connection points: 2
#     Edge 28, Type (0, 0), BuildingBlock: CIFDUS_clean_linker_0, # of connection points: 2
#     Edge 29, Type (0, 0), BuildingBlock: CIFDUS_clean_linker_0, # of connection points: 2
#     Edge 30, Type (0, 0), BuildingBlock: CIFDUS_clean_linker_0, # of connection points: 2
#     Edge 31, Type (0, 0), BuildingBlock: CIFDUS_clean_linker_0, # of connection points: 2
#     Edge 32, Type (0, 0), BuildingBlock: CIFDUS_clean_linker_0, # of connection points: 2
#     Edge 33, Type (0, 0), BuildingBlock: CIFDUS_clean_linker_0, # of connection points: 2
#     Edge 34, Type (0, 0), BuildingBlock: CIFDUS_clean_linker_0, # of connection points: 2
#     Edge 35, Type (0, 0), BuildingBlock: CIFDUS_clean_linker_0, # of connection points: 2
#     Edge 36, Type (0, 0), BuildingBlock: CIFDUS_clean_linker_0, # of connection points: 2
#     Edge 37, Type (0, 0), BuildingBlock: CIFDUS_clean_linker_0, # of connection points: 2
#     Edge 38, Type (0, 0), BuildingBlock: CIFDUS_clean_linker_0, # of connection points: 2
#     Edge 39, Type (0, 0), BuildingBlock: CIFDUS_clean_linker_0, # of connection points: 2
#     Edge 40, Type (0, 0), BuildingBlock: CIFDUS_clean_linker_0, # of connection points: 2
#     Edge 41, Type (0, 0), BuildingBlock: CIFDUS_clean_linker_0, # of connection points: 2
#     Edge 42, Type (0, 0), BuildingBlock: CIFDUS_clean_linker_0, # of connection points: 2
#     Edge 43, Type (0, 0), BuildingBlock: CIFDUS_clean_linker_0, # of connection points: 2
#     Edge 44, Type (0, 0), BuildingBlock: CIFDUS_clean_linker_0, # of connection points: 2
#     Edge 45, Type (0, 0), BuildingBlock: CIFDUS_clean_linker_0, # of connection points: 2
#     Edge 46, Type (0, 0), BuildingBlock: CIFDUS_clean_linker_0, # of connection points: 2
#     Edge 47, Type (0, 0), BuildingBlock: CIFDUS_clean_linker_0, # of connection points: 2
#     Edge 48, Type (0, 0), BuildingBlock: CIFDUS_clean_linker_0, # of connection points: 2
#     Edge 49, Type (0, 0), BuildingBlock: CIFDUS_clean_linker_0, # of connection points: 2
#     Edge 50, Type (0, 0), BuildingBlock: CIFDUS_clean_linker_0, # of connection points: 2
#     Edge 51, Type (0, 0), BuildingBlock: CIFDUS_clean_linker_0, # of connection points: 2
#     Edge 52, Type (0, 0), BuildingBlock: CIFDUS_clean_linker_0, # of connection points: 2
#     Edge 53, Type (0, 0), BuildingBlock: CIFDUS_clean_linker_0, # of connection points: 2
#     Edge 54, Type (0, 0), BuildingBlock: CIFDUS_clean_linker_0, # of connection points: 2
#     Edge 55, Type (0, 0), BuildingBlock: CIFDUS_clean_linker_0, # of connection points: 2
# Relax obj value: 0.123
# Max RMSD: 0.181
# Mean RMSD: 0.181
data_MOF--net-wgt--node1-BEQFEK_clean_sbu_0--edge1-CIFDUS_clean_linker_0
_symmetry_space_group_name_H-M    P1
_symmetry_Int_Tables_number       1
_symmetry_cell_setting            triclinic
loop_
_symmetry_equiv_pos_as_xyz
'x, y, z'
_cell_length_a     25.821917
_cell_length_b     25.769776
_cell_length_c     68.997575
_cell_angle_alpha  89.914124
_cell_angle_beta   90.009028
_cell_angle_gamma 90.009137
loop_
_atom_site_label
_atom_site_type_symbol
_atom_site_fract_x
_atom_site_fract_y
_atom_site_fract_z
_atom_type_partial_charge
Co0 Co 0.17812 0.32812 0.04221 0.0
Co1 Co 0.15908 0.32528 0.99708 0.0
C2 C 0.1089 0.24909 0.024 0.0
O3 O 0.13098 0.2696 0.03856 0.0
O4 O 0.1181 0.26494 0.00682 0.0
C5 C 0.18866 0.29503 0.08188 0.0
O6 O 0.15453 0.2597 0.07691 0.0
C7 C 0.16116 0.2829 0.9576 0.0
C8 C 0.14803 0.35293 0.93978 0.0
C9 C 0.15534 0.2997 0.93853 0.0
N10 N 0.15709 0.32419 0.9694 0.0
N11 N 0.14921 0.36591 0.95866 0.0
C12 C 0.17312 0.22936 0.96469 0.0
H13 H 0.19332 0.23118 0.97888 0.0
H14 H 0.19744 0.20823 0.95404 0.0
H15 H 0.13635 0.20775 0.96675 0.0
C16 C 0.2865 0.31955 0.02907 0.0
N17 N 0.23553 0.32393 0.02534 0.0
N18 N 0.22828 0.32685 0.00653 0.0
C19 C 0.27478 0.32764 0.99766 0.0
C20 C 0.31362 0.32259 0.01165 0.0
C21 C 0.30757 0.30623 0.0487 0.0
H22 H 0.28003 0.28066 0.05648 0.0
H23 H 0.34514 0.28561 0.04772 0.0
H24 H 0.31267 0.34235 0.05722 0.0
O25 O 0.13501 0.39104 0.03751 0.0
O26 O 0.12032 0.38664 0.00581 0.0
H27 H 0.25236 0.36434 0.97105 0.0
H28 H 0.32069 0.35119 0.97293 0.0
C29 C 0.28149 0.3361 0.97634 0.0
H30 H 0.27537 0.29887 0.96862 0.0
H31 H 0.14444 0.40323 0.96423 0.0
O32 O 0.20274 0.3288 0.06949 0.0
C33 C 0.11303 0.40806 0.02221 0.0
Co34 Co 0.67381 0.67483 0.28594 0.0
Co35 Co 0.66862 0.684 0.24023 0.0
C36 C 0.74516 0.61511 0.25915 0.0
O37 O 0.73014 0.62736 0.27617 0.0
O38 O 0.72644 0.63706 0.24422 0.0
C39 C 0.72619 0.70097 0.32067 0.0
O40 O 0.76383 0.70896 0.3082 0.0
C41 C 0.69505 0.68878 0.19864 0.0
C42 C 0.62346 0.72123 0.18594 0.0
C43 C 0.67226 0.70293 0.18116 0.0
N44 N 0.66135 0.69871 0.21306 0.0
N45 N 0.61876 0.71833 0.20536 0.0
C46 C 0.74546 0.66118 0.20163 0.0
H47 H 0.73747 0.62207 0.20755 0.0
H48 H 0.76911 0.68262 0.2124 0.0
H49 H 0.76773 0.65613 0.18808 0.0
C50 C 0.66645 0.78971 0.28121 0.0
N51 N 0.67139 0.74157 0.27381 0.0
N52 N 0.67508 0.74507 0.25488 0.0
C53 C 0.67634 0.79539 0.24966 0.0
C54 C 0.66998 0.82593 0.26617 0.0
C55 C 0.65271 0.79998 0.30194 0.0
H56 H 0.62986 0.76721 0.30791 0.0
H57 H 0.6887 0.80394 0.31059 0.0
H58 H 0.62974 0.83617 0.30333 0.0
O59 O 0.60964 0.63606 0.28068 0.0
O60 O 0.60723 0.64301 0.24852 0.0
H61 H 0.65106 0.81782 0.22133 0.0
H62 H 0.70895 0.85066 0.22946 0.0
C63 C 0.68789 0.81314 0.22943 0.0
H64 H 0.71209 0.784 0.22187 0.0
H65 H 0.58609 0.72884 0.21334 0.0
O66 O 0.68294 0.68432 0.31442 0.0
C67 C 0.58885 0.62545 0.26441 0.0
Co68 Co 0.31462 0.1685 0.5391 0.0
Co69 Co 0.3163 0.17917 0.49326 0.0
C70 C 0.37685 0.25085 0.5184 0.0
O71 O 0.36057 0.22956 0.53395 0.0
O72 O 0.36105 0.23616 0.50181 0.0
C73 C 0.32813 0.18132 0.5809 0.0
O74 O 0.37396 0.20013 0.57653 0.0
C75 C 0.31489 0.22051 0.45293 0.0
C76 C 0.27943 0.15493 0.43718 0.0
C77 C 0.29827 0.20484 0.43464 0.0
N78 N 0.30536 0.1819 0.46565 0.0
N79 N 0.28444 0.14279 0.45607 0.0
C80 C 0.34267 0.26953 0.45814 0.0
H81 H 0.37751 0.26001 0.46681 0.0
H82 H 0.31693 0.29407 0.46717 0.0
H83 H 0.35525 0.29149 0.44515 0.0
C84 C 0.20279 0.16334 0.53132 0.0
N85 N 0.25177 0.16995 0.52518 0.0
N86 N 0.2517 0.17952 0.50649 0.0
C87 C 0.20223 0.18312 0.50034 0.0
C88 C 0.16918 0.17228 0.51587 0.0
C89 C 0.18951 0.14347 0.55112 0.0
H90 H 0.18888 0.17637 0.56148 0.0
H91 H 0.15131 0.12376 0.55124 0.0
H92 H 0.21934 0.11539 0.556 0.0
O93 O 0.35435 0.10732 0.53138 0.0
O94 O 0.35707 0.11479 0.4992 0.0
H95 H 0.18337 0.16743 0.47075 0.0
H96 H 0.15011 0.22279 0.48081 0.0
C97 C 0.18737 0.2014 0.4805 0.0
H98 H 0.21758 0.22753 0.47459 0.0
H99 H 0.27315 0.10788 0.46248 0.0
O100 O 0.29862 0.16563 0.56737 0.0
C101 C 0.36955 0.09138 0.51485 0.0
Co102 Co 0.83315 0.81205 0.78345 0.0
Co103 Co 0.82477 0.82336 0.73822 0.0
C104 C 0.75148 0.87744 0.76598 0.0
O105 O 0.77238 0.85761 0.78099 0.0
O106 O 0.76719 0.86624 0.74896 0.0
C107 C 0.82688 0.81418 0.82565 0.0
O108 O 0.80357 0.85914 0.8235 0.0
C109 C 0.77635 0.80859 0.70003 0.0
C110 C 0.83898 0.83482 0.68051 0.0
C111 C 0.78857 0.81649 0.68069 0.0
N112 N 0.81784 0.82147 0.71078 0.0
N113 N 0.85518 0.83689 0.69901 0.0
C114 C 0.72506 0.79301 0.70827 0.0
H115 H 0.72524 0.79621 0.72431 0.0
H116 H 0.71639 0.7523 0.70424 0.0
H117 H 0.69406 0.81784 0.70207 0.0
C118 C 0.82162 0.70108 0.77266 0.0
N119 N 0.82648 0.75159 0.76788 0.0
N120 N 0.82737 0.75597 0.74893 0.0
C121 C 0.82628 0.70827 0.74099 0.0
C122 C 0.8218 0.67156 0.75575 0.0
C123 C 0.81117 0.68259 0.79288 0.0
H124 H 0.78907 0.71232 0.801 0.0
H125 H 0.78855 0.64601 0.79292 0.0
H126 H 0.84857 0.67588 0.8004 0.0
O127 O 0.89354 0.85641 0.77604 0.0
O128 O 0.88853 0.86134 0.74393 0.0
H129 H 0.85933 0.72731 0.71331 0.0
H130 H 0.84914 0.65875 0.71726 0.0
C131 C 0.83297 0.69807 0.71978 0.0
H132 H 0.79491 0.70084 0.71244 0.0
H133 H 0.89147 0.84969 0.70364 0.0
O134 O 0.84254 0.78984 0.81076 0.0
C135 C 0.91042 0.87316 0.75982 0.0
Co136 Co 0.80939 0.33312 0.54819 0.0
Co137 Co 0.82651 0.33413 0.50319 0.0
C138 C 0.87883 0.25644 0.52909 0.0
O139 O 0.85719 0.27469 0.54418 0.0
O140 O 0.86845 0.2743 0.51232 0.0
C141 C 0.81855 0.32346 0.58912 0.0
O142 O 0.86806 0.31941 0.585 0.0
C143 C 0.81535 0.29426 0.46363 0.0
C144 C 0.83932 0.36182 0.44604 0.0
C145 C 0.82238 0.31091 0.44467 0.0
N146 N 0.82708 0.33372 0.47559 0.0
N147 N 0.84137 0.37398 0.46499 0.0
C148 C 0.80075 0.24102 0.47043 0.0
H149 H 0.81126 0.23545 0.48586 0.0
H150 H 0.75829 0.2358 0.4691 0.0
H151 H 0.81999 0.21114 0.46137 0.0
C152 C 0.6998 0.32382 0.53503 0.0
N153 N 0.75088 0.32951 0.53153 0.0
N154 N 0.75807 0.33486 0.51279 0.0
C155 C 0.71177 0.33635 0.50386 0.0
C156 C 0.67295 0.32825 0.51755 0.0
C157 C 0.67826 0.30924 0.55444 0.0
H158 H 0.70675 0.28559 0.5626 0.0
H159 H 0.64195 0.2866 0.55299 0.0
H160 H 0.67019 0.34505 0.56282 0.0
O161 O 0.85272 0.3968 0.54402 0.0
O162 O 0.86482 0.39476 0.51212 0.0
H163 H 0.73481 0.37831 0.47835 0.0
H164 H 0.66599 0.36735 0.48032 0.0
C165 C 0.70476 0.3501 0.48292 0.0
H166 H 0.70858 0.31475 0.47392 0.0
H167 H 0.85292 0.40963 0.47069 0.0
O168 O 0.7864 0.33097 0.57547 0.0
C169 C 0.87362 0.41478 0.52864 0.0
Co170 Co 0.66695 0.32282 0.79467 0.0
Co171 Co 0.66816 0.30906 0.74917 0.0
C172 C 0.74468 0.37723 0.76913 0.0
O173 O 0.72702 0.3659 0.78587 0.0
O174 O 0.72634 0.3566 0.75385 0.0
C175 C 0.71452 0.3025 0.83045 0.0
O176 O 0.75398 0.29653 0.81863 0.0
C177 C 0.69342 0.30712 0.7075 0.0
C178 C 0.63221 0.25578 0.69596 0.0
C179 C 0.67473 0.28515 0.69052 0.0
N180 N 0.66386 0.29067 0.72234 0.0
N181 N 0.62722 0.2602 0.71531 0.0
C182 C 0.73438 0.34787 0.70946 0.0
H183 H 0.71866 0.38069 0.71797 0.0
H184 H 0.76795 0.33156 0.71745 0.0
H185 H 0.74736 0.36311 0.69525 0.0
C186 C 0.66518 0.2075 0.79215 0.0
N187 N 0.66639 0.25483 0.7838 0.0
N188 N 0.67222 0.24923 0.765 0.0
C189 C 0.6781 0.19842 0.76091 0.0
C190 C 0.67319 0.17 0.77798 0.0
C191 C 0.65316 0.19812 0.8131 0.0
H192 H 0.6267 0.22857 0.81863 0.0
H193 H 0.68955 0.19908 0.82161 0.0
H194 H 0.6348 0.15955 0.81516 0.0
O195 O 0.60522 0.363 0.78677 0.0
O196 O 0.60554 0.35063 0.75484 0.0
H197 H 0.65933 0.16699 0.73312 0.0
H198 H 0.71942 0.14361 0.74303 0.0
C199 C 0.69425 0.17826 0.74148 0.0
H200 H 0.7157 0.20846 0.73332 0.0
H201 H 0.59835 0.24294 0.72372 0.0
O202 O 0.67117 0.31645 0.8234 0.0
C203 C 0.58612 0.37106 0.76998 0.0
Co204 Co 0.6729 0.17222 0.04286 0.0
Co205 Co 0.66952 0.17438 0.99691 0.0
C206 C 0.60949 0.25033 0.02047 0.0
O207 O 0.62614 0.23305 0.03671 0.0
O208 O 0.62545 0.23192 0.00446 0.0
C209 C 0.68051 0.1986 0.0851 0.0
O210 O 0.65193 0.24 0.08208 0.0
C211 C 0.67027 0.21196 0.95644 0.0
C212 C 0.69988 0.14328 0.94085 0.0
C213 C 0.68372 0.19404 0.93816 0.0
N214 N 0.67802 0.17346 0.96933 0.0
N215 N 0.6954 0.13244 0.95987 0.0
C216 C 0.65479 0.26594 0.96191 0.0
H217 H 0.67377 0.27704 0.97572 0.0
H218 H 0.66553 0.2943 0.95048 0.0
H219 H 0.61225 0.26718 0.96413 0.0
C220 C 0.78469 0.16242 0.03394 0.0
N221 N 0.73538 0.17028 0.02833 0.0
N222 N 0.73426 0.17689 0.00947 0.0
C223 C 0.78308 0.17767 0.00262 0.0
C224 C 0.81712 0.16754 0.01786 0.0
C225 C 0.79901 0.14399 0.05383 0.0
H226 H 0.76894 0.11695 0.05928 0.0
H227 H 0.801 0.17769 0.0638 0.0
H228 H 0.8367 0.12334 0.05384 0.0
O229 O 0.63186 0.11058 0.03671 0.0
O230 O 0.62954 0.11131 0.00445 0.0
H231 H 0.79787 0.15754 0.97306 0.0
H232 H 0.83455 0.21265 0.98161 0.0
C233 C 0.79649 0.19279 0.98226 0.0
H234 H 0.76683 0.21955 0.97637 0.0
H235 H 0.70507 0.09729 0.96648 0.0
O236 O 0.69103 0.16855 0.07102 0.0
C237 C 0.61668 0.09136 0.0207 0.0
Co238 Co 0.83613 0.18268 0.29657 0.0
Co239 Co 0.82623 0.17166 0.25115 0.0
C240 C 0.75418 0.11683 0.27904 0.0
O241 O 0.77612 0.13684 0.29378 0.0
O242 O 0.76789 0.12892 0.26183 0.0
C243 C 0.8165 0.19242 0.33796 0.0
O244 O 0.77533 0.16365 0.33484 0.0
C245 C 0.78095 0.18857 0.21199 0.0
C246 C 0.84612 0.16425 0.19338 0.0
C247 C 0.79563 0.18242 0.19269 0.0
N248 N 0.82106 0.17481 0.2234 0.0
N249 N 0.85985 0.16049 0.21213 0.0
C250 C 0.729 0.20412 0.2196 0.0
H251 H 0.72449 0.19168 0.23491 0.0
H252 H 0.72541 0.24698 0.21902 0.0
H253 H 0.69776 0.18708 0.21058 0.0
C254 C 0.83048 0.29315 0.28631 0.0
N255 N 0.83054 0.24283 0.28119 0.0
N256 N 0.83139 0.2391 0.26221 0.0
C257 C 0.83529 0.28719 0.25461 0.0
C258 C 0.83451 0.32344 0.26966 0.0
C259 C 0.82138 0.31118 0.30667 0.0
H260 H 0.79544 0.28365 0.31429 0.0
H261 H 0.803 0.35005 0.30701 0.0
H262 H 0.85887 0.31273 0.31451 0.0
O263 O 0.89667 0.13971 0.28925 0.0
O264 O 0.88827 0.13058 0.25738 0.0
H265 H 0.86442 0.33508 0.23128 0.0
H266 H 0.80644 0.29865 0.22587 0.0
C267 C 0.84421 0.29754 0.23351 0.0
H268 H 0.86792 0.26608 0.22711 0.0
H269 H 0.89564 0.1476 0.21725 0.0
O270 O 0.84644 0.20333 0.32392 0.0
C271 C 0.9115 0.12034 0.27321 0.0
Co272 Co 0.66755 0.83301 0.53365 0.0
Co273 Co 0.68057 0.82375 0.4883 0.0
C274 C 0.6167 0.74816 0.51179 0.0
O275 O 0.62956 0.76812 0.52798 0.0
O276 O 0.634 0.76592 0.49578 0.0
C277 C 0.66773 0.80932 0.57501 0.0
O278 O 0.65416 0.762 0.5701 0.0
C279 C 0.68974 0.78163 0.4484 0.0
C280 C 0.72983 0.84607 0.43351 0.0
C281 C 0.70866 0.79736 0.43044 0.0
N282 N 0.69896 0.81956 0.46137 0.0
N283 N 0.72298 0.85788 0.45233 0.0
C284 C 0.66611 0.7304 0.45352 0.0
H285 H 0.68059 0.71741 0.46786 0.0
H286 H 0.67545 0.70043 0.44254 0.0
H287 H 0.62345 0.73485 0.4545 0.0
C288 C 0.78103 0.83592 0.53161 0.0
N289 N 0.73456 0.83367 0.52286 0.0
N290 N 0.74103 0.82584 0.5042 0.0
C291 C 0.79218 0.82033 0.50063 0.0
C292 C 0.81936 0.82672 0.51794 0.0
C293 C 0.78838 0.84862 0.55261 0.0
H294 H 0.76246 0.88111 0.55668 0.0
H295 H 0.77814 0.81428 0.56154 0.0
H296 H 0.82887 0.86024 0.55578 0.0
O297 O 0.62476 0.88887 0.52317 0.0
O298 O 0.63654 0.8872 0.49128 0.0
H299 H 0.8204 0.83853 0.47234 0.0
H300 H 0.8512 0.783 0.48331 0.0
C301 C 0.81386 0.80372 0.4815 0.0
H302 H 0.78616 0.77779 0.47397 0.0
H303 H 0.73448 0.89229 0.45903 0.0
O304 O 0.67307 0.84368 0.56194 0.0
C305 C 0.61511 0.90636 0.5063 0.0
Co306 Co 0.16132 0.18956 0.78759 0.0
Co307 Co 0.17224 0.17501 0.74236 0.0
C308 C 0.24358 0.12105 0.76811 0.0
O309 O 0.21919 0.14016 0.78253 0.0
O310 O 0.23283 0.13458 0.75081 0.0
C311 C 0.15462 0.18963 0.83021 0.0
O312 O 0.13568 0.14244 0.82888 0.0
C313 C 0.2024 0.16642 0.70083 0.0
C314 C 0.13071 0.19353 0.68656 0.0
C315 C 0.18038 0.176 0.68276 0.0
N316 N 0.16737 0.17833 0.7146 0.0
N317 N 0.12467 0.19444 0.70592 0.0
C318 C 0.2542 0.14301 0.70509 0.0
H319 H 0.24916 0.10954 0.71502 0.0
H320 H 0.27877 0.17211 0.71256 0.0
H321 H 0.27389 0.12931 0.69177 0.0
C322 C 0.15626 0.2986 0.77558 0.0
N323 N 0.16187 0.24811 0.77127 0.0
N324 N 0.17223 0.24315 0.75277 0.0
C325 C 0.17706 0.29083 0.74486 0.0
C326 C 0.16676 0.3281 0.75908 0.0
C327 C 0.13668 0.31715 0.7948 0.0
H328 H 0.10943 0.28829 0.80102 0.0
H329 H 0.16974 0.32139 0.80494 0.0
H330 H 0.11648 0.35497 0.79338 0.0
O331 O 0.09876 0.14873 0.7833 0.0
O332 O 0.11123 0.13355 0.75187 0.0
H333 H 0.1618 0.30354 0.71478 0.0
H334 H 0.21907 0.33594 0.72366 0.0
C335 C 0.19567 0.29992 0.72459 0.0
H336 H 0.21972 0.26684 0.71967 0.0
H337 H 0.09132 0.20613 0.71326 0.0
O338 O 0.16698 0.21399 0.81485 0.0
C339 C 0.08621 0.12593 0.76762 0.0
Co340 Co 0.80858 0.6709 0.0386 0.0
Co341 Co 0.81981 0.68609 0.99341 0.0
C342 C 0.87514 0.75517 0.0209 0.0
O343 O 0.8554 0.73098 0.03522 0.0
O344 O 0.86283 0.7438 0.00353 0.0
C345 C 0.82115 0.68184 0.07996 0.0
O346 O 0.86765 0.69846 0.07538 0.0
C347 C 0.82523 0.7277 0.95333 0.0
C348 C 0.8009 0.65908 0.93645 0.0
C349 C 0.81566 0.71051 0.93458 0.0
N350 N 0.81577 0.68832 0.96568 0.0
N351 N 0.8015 0.64742 0.95546 0.0
C352 C 0.84605 0.77929 0.9595 0.0
H353 H 0.88162 0.77316 0.9682 0.0
H354 H 0.81723 0.79895 0.96889 0.0
H355 H 0.85586 0.80442 0.94699 0.0
C356 C 0.69635 0.67659 0.02772 0.0
N357 N 0.7472 0.67645 0.02317 0.0
N358 N 0.75227 0.6838 0.00446 0.0
C359 C 0.70506 0.68911 0.9964 0.0
C360 C 0.66678 0.68084 0.0106 0.0
C361 C 0.67817 0.68347 0.04817 0.0
H362 H 0.70981 0.6972 0.05753 0.0
H363 H 0.64796 0.71398 0.04895 0.0
H364 H 0.66323 0.64613 0.05393 0.0
O365 O 0.85113 0.61 0.03139 0.0
O366 O 0.85885 0.6222 0.99962 0.0
H367 H 0.69527 0.68256 0.96561 0.0
H368 H 0.66385 0.73888 0.97633 0.0
C369 C 0.69837 0.71332 0.97679 0.0
H370 H 0.73213 0.73807 0.97334 0.0
H371 H 0.79187 0.61155 0.9615 0.0
O372 O 0.7912 0.6659 0.06662 0.0
C373 C 0.86932 0.59676 0.01496 0.0
Co374 Co 0.3259 0.30836 0.28284 0.0
Co375 Co 0.35619 0.31636 0.2387 0.0
C376 C 0.26571 0.37546 0.25698 0.0
O377 O 0.26888 0.35573 0.27395 0.0
O378 O 0.29672 0.3618 0.24362 0.0
C379 C 0.30987 0.31141 0.32559 0.0
O380 O 0.30531 0.36209 0.32438 0.0
C381 C 0.33032 0.30719 0.19765 0.0
C382 C 0.40427 0.32762 0.18346 0.0
C383 C 0.353 0.31527 0.17963 0.0
N384 N 0.36653 0.31437 0.21138 0.0
N385 N 0.41076 0.32612 0.20281 0.0
C386 C 0.27439 0.29695 0.20199 0.0
H387 H 0.26586 0.30283 0.21754 0.0
H388 H 0.2651 0.25602 0.1985 0.0
H389 H 0.24931 0.32241 0.19301 0.0
C390 C 0.32078 0.19639 0.27119 0.0
N391 N 0.33087 0.24674 0.26725 0.0
N392 N 0.34684 0.2503 0.24922 0.0
C393 C 0.34922 0.20266 0.24132 0.0
C394 C 0.33233 0.16665 0.2549 0.0
C395 C 0.29607 0.17789 0.28956 0.0
H396 H 0.27008 0.20821 0.29548 0.0
H397 H 0.27337 0.14193 0.28713 0.0
H398 H 0.32683 0.16958 0.30034 0.0
O399 O 0.38987 0.35312 0.28162 0.0
O400 O 0.41366 0.35254 0.25062 0.0
H401 H 0.38298 0.1512 0.2201 0.0
H402 H 0.33746 0.19791 0.21071 0.0
C403 C 0.36906 0.19181 0.22134 0.0
H404 H 0.40124 0.21866 0.21779 0.0
H405 H 0.44494 0.33481 0.2102 0.0
O406 O 0.31726 0.28506 0.31027 0.0
C407 C 0.41991 0.36786 0.26797 0.0
Co408 Co 0.31286 0.83104 0.03562 0.0
Co409 Co 0.31444 0.8206 0.98991 0.0
C410 C 0.37055 0.74498 0.01427 0.0
O411 O 0.35518 0.76854 0.02947 0.0
O412 O 0.35582 0.75928 0.99745 0.0
C413 C 0.32354 0.80655 0.07661 0.0
O414 O 0.36506 0.78095 0.07119 0.0
C415 C 0.31962 0.79367 0.94805 0.0
C416 C 0.27839 0.86063 0.93525 0.0
C417 C 0.30363 0.81498 0.9305 0.0
N418 N 0.30378 0.82506 0.96247 0.0
N419 N 0.27938 0.86504 0.95466 0.0
C420 C 0.35396 0.74766 0.95113 0.0
H421 H 0.38527 0.75819 0.96138 0.0
H422 H 0.33108 0.71574 0.95772 0.0
H423 H 0.37179 0.73413 0.93743 0.0
C424 C 0.20113 0.84179 0.02763 0.0
N425 N 0.25001 0.83345 0.02165 0.0
N426 N 0.24991 0.82337 0.00301 0.0
C427 C 0.20053 0.82172 0.9967 0.0
C428 C 0.16758 0.8342 0.01205 0.0
C429 C 0.18798 0.8606 0.04756 0.0
H430 H 0.18504 0.82687 0.05752 0.0
H431 H 0.15083 0.88222 0.04763 0.0
H432 H 0.2191 0.88647 0.05298 0.0
O433 O 0.35698 0.89017 0.02874 0.0
O434 O 0.3582 0.88151 0.99665 0.0
H435 H 0.18015 0.83699 0.96718 0.0
H436 H 0.14843 0.78119 0.97751 0.0
C437 C 0.18537 0.80315 0.97693 0.0
H438 H 0.21587 0.77765 0.97086 0.0
H439 H 0.2638 0.89569 0.96263 0.0
O440 O 0.29726 0.83101 0.06395 0.0
C441 C 0.37275 0.90446 0.01207 0.0
Co442 Co 0.17223 0.81305 0.28358 0.0
Co443 Co 0.16379 0.81248 0.23807 0.0
C444 C 0.24615 0.87335 0.26094 0.0
O445 O 0.23345 0.85528 0.27748 0.0
O446 O 0.22262 0.85938 0.2455 0.0
C447 C 0.19483 0.80923 0.32564 0.0
O448 O 0.23675 0.83681 0.32241 0.0
C449 C 0.19988 0.80913 0.19729 0.0
C450 C 0.12533 0.80056 0.18185 0.0
C451 C 0.17799 0.80687 0.17885 0.0
N452 N 0.16168 0.80412 0.21046 0.0
N453 N 0.11736 0.79882 0.20109 0.0
C454 C 0.25435 0.82306 0.20256 0.0
H455 H 0.25523 0.86401 0.2075 0.0
H456 H 0.26747 0.79844 0.21483 0.0
H457 H 0.28133 0.8191 0.19019 0.0
C458 C 0.17724 0.70019 0.27687 0.0
N459 N 0.17291 0.74902 0.27012 0.0
N460 N 0.16502 0.74786 0.25134 0.0
C461 C 0.16089 0.69797 0.24564 0.0
C462 C 0.16882 0.66562 0.26167 0.0
C463 C 0.19469 0.68774 0.29706 0.0
H464 H 0.2208 0.71866 0.30245 0.0
H465 H 0.2159 0.65035 0.29762 0.0
H466 H 0.16045 0.68553 0.30674 0.0
O467 O 0.11142 0.85727 0.27682 0.0
O468 O 0.1016 0.8513 0.24495 0.0
H469 H 0.11594 0.70941 0.21994 0.0
H470 H 0.12939 0.64251 0.22522 0.0
C471 C 0.14564 0.68233 0.22555 0.0
H472 H 0.17999 0.68456 0.21592 0.0
H473 H 0.08135 0.79582 0.20787 0.0
O474 O 0.16522 0.79756 0.3116 0.0
C475 C 0.08742 0.86901 0.26128 0.0
Co476 Co 0.1821 0.68039 0.53758 0.0
Co477 Co 0.16913 0.67519 0.49206 0.0
C478 C 0.11554 0.75587 0.51662 0.0
O479 O 0.13507 0.73957 0.53247 0.0
O480 O 0.12703 0.73528 0.50043 0.0
C481 C 0.17452 0.69237 0.57931 0.0
O482 O 0.12641 0.70558 0.57555 0.0
C483 C 0.18455 0.71426 0.45244 0.0
C484 C 0.16036 0.64696 0.43483 0.0
C485 C 0.17859 0.69744 0.43345 0.0
N486 N 0.17095 0.67531 0.46441 0.0
N487 N 0.15657 0.63521 0.45379 0.0
C488 C 0.20003 0.76721 0.45921 0.0
H489 H 0.1884 0.77333 0.47449 0.0
H490 H 0.24272 0.77121 0.45833 0.0
H491 H 0.18236 0.79743 0.44982 0.0
C492 C 0.29309 0.68589 0.52521 0.0
N493 N 0.24204 0.68187 0.52128 0.0
N494 N 0.23613 0.6751 0.50254 0.0
C495 C 0.28287 0.67125 0.49409 0.0
C496 C 0.32089 0.67911 0.50804 0.0
C497 C 0.31409 0.69996 0.54473 0.0
H498 H 0.286 0.72464 0.55262 0.0
H499 H 0.35131 0.72119 0.54345 0.0
H500 H 0.32052 0.66398 0.55325 0.0
O501 O 0.1383 0.61714 0.53299 0.0
O502 O 0.13189 0.61374 0.50082 0.0
H503 H 0.26035 0.6271 0.46909 0.0
H504 H 0.32928 0.63629 0.47155 0.0
C505 C 0.29089 0.65494 0.47347 0.0
H506 H 0.28876 0.68935 0.46387 0.0
H507 H 0.14374 0.59994 0.45949 0.0
O508 O 0.2043 0.68026 0.56534 0.0
C509 C 0.12118 0.59588 0.51755 0.0
Co510 Co 0.33817 0.68846 0.78634 0.0
Co511 Co 0.33027 0.67625 0.74089 0.0
C512 C 0.25777 0.62029 0.76595 0.0
O513 O 0.28088 0.63945 0.78063 0.0
O514 O 0.26994 0.63387 0.74878 0.0
C515 C 0.32731 0.67518 0.82755 0.0
O516 O 0.32347 0.62577 0.8231 0.0
C517 C 0.30108 0.67132 0.69901 0.0
C518 C 0.37279 0.70086 0.68547 0.0
C519 C 0.32341 0.68328 0.68117 0.0
N520 N 0.33562 0.68203 0.71312 0.0
N521 N 0.37835 0.69956 0.70485 0.0
C522 C 0.24935 0.64705 0.70268 0.0
H523 H 0.25384 0.61422 0.71293 0.0
H524 H 0.22339 0.67609 0.70949 0.0
H525 H 0.23145 0.63228 0.68916 0.0
C526 C 0.34147 0.79811 0.77576 0.0
N527 N 0.33708 0.74796 0.7708 0.0
N528 N 0.32873 0.74413 0.75211 0.0
C529 C 0.3241 0.79241 0.74466 0.0
C530 C 0.33238 0.82868 0.75944 0.0
C531 C 0.35878 0.81534 0.79546 0.0
H532 H 0.38655 0.78682 0.80156 0.0
H533 H 0.32479 0.81725 0.80527 0.0
H534 H 0.37781 0.85391 0.79485 0.0
O535 O 0.40113 0.64964 0.78173 0.0
O536 O 0.39202 0.6347 0.75013 0.0
H537 H 0.34264 0.80689 0.71497 0.0
H538 H 0.28484 0.83937 0.72328 0.0
C539 C 0.30773 0.80303 0.72423 0.0
H540 H 0.28388 0.77054 0.71867 0.0
H541 H 0.41135 0.71083 0.71249 0.0
O542 O 0.33391 0.70822 0.81407 0.0
C543 C 0.41582 0.62768 0.76619 0.0
H544 H 0.18881 0.33198 0.9035 0.0
H545 H 0.11891 0.20058 0.93212 0.0
H546 H 0.11492 0.15403 0.90139 0.0
H547 H 0.12775 0.15212 0.86596 0.0
H548 H 0.19547 0.28519 0.83748 0.0
H549 H 0.2032 0.32954 0.86846 0.0
C550 C 0.17294 0.29302 0.90304 0.0
C551 C 0.15524 0.26952 0.92021 0.0
C552 C 0.16984 0.26686 0.88525 0.0
C553 C 0.13453 0.2191 0.91933 0.0
C554 C 0.13157 0.19264 0.90166 0.0
C555 C 0.14439 0.19073 0.86653 0.0
C556 C 0.16067 0.21528 0.84933 0.0
C557 C 0.14875 0.21629 0.88448 0.0
C558 C 0.18224 0.26534 0.85041 0.0
C559 C 0.1868 0.29083 0.86815 0.0
H560 H 0.76814 0.72807 0.16763 0.0
H561 H 0.62081 0.66544 0.1499 0.0
H562 H 0.65398 0.65224 0.11705 0.0
H563 H 0.72522 0.65734 0.09359 0.0
H564 H 0.87345 0.71812 0.11159 0.0
H565 H 0.84013 0.7314 0.14432 0.0
C566 C 0.74372 0.71048 0.15667 0.0
C567 C 0.69261 0.69636 0.16127 0.0
C568 C 0.76332 0.7023 0.13793 0.0
C569 C 0.66049 0.6761 0.14671 0.0
C570 C 0.67949 0.66834 0.12797 0.0
C571 C 0.75041 0.67318 0.10468 0.0
C572 C 0.80184 0.68661 0.1001 0.0
C573 C 0.73096 0.68097 0.12346 0.0
C574 C 0.83377 0.70729 0.11469 0.0
C575 C 0.8147 0.7151 0.13341 0.0
H576 H 0.28965 0.35312 0.36134 0.0
H577 H 0.32778 0.20899 0.33287 0.0
H578 H 0.32791 0.16411 0.36389 0.0
H579 H 0.31801 0.16527 0.39921 0.0
H580 H 0.27704 0.30787 0.42794 0.0
H581 H 0.27782 0.35378 0.39689 0.0
C582 C 0.29796 0.31191 0.36192 0.0
C583 C 0.30866 0.28463 0.34469 0.0
C584 C 0.29799 0.28604 0.37993 0.0
C585 C 0.31919 0.23112 0.34579 0.0
C586 C 0.31942 0.2053 0.36358 0.0
C587 C 0.30939 0.20645 0.39867 0.0
C588 C 0.29915 0.23342 0.41594 0.0
C589 C 0.309 0.23233 0.38073 0.0
C590 C 0.28724 0.2866 0.41498 0.0
C591 C 0.28702 0.31275 0.39717 0.0
H592 H 0.6642 0.74589 0.60679 0.0
H593 H 0.70935 0.89964 0.5883 0.0
H594 H 0.74788 0.91614 0.61984 0.0
H595 H 0.77536 0.88469 0.65171 0.0
H596 H 0.73028 0.73198 0.67077 0.0
H597 H 0.6846 0.71747 0.64013 0.0
C598 C 0.6819 0.78321 0.60974 0.0
C599 C 0.68448 0.82111 0.59506 0.0
C600 C 0.70414 0.79262 0.62801 0.0
C601 C 0.70714 0.86949 0.59922 0.0
C602 C 0.72935 0.87904 0.61727 0.0
C603 C 0.75495 0.8485 0.64919 0.0
C604 C 0.75585 0.80954 0.66339 0.0
C605 C 0.72912 0.8405 0.63159 0.0
C606 C 0.72925 0.76286 0.66013 0.0
C607 C 0.70359 0.75441 0.64255 0.0
H608 H 0.88188 0.31685 0.41269 0.0
H609 H 0.74566 0.24145 0.43539 0.0
H610 H 0.73346 0.19588 0.40474 0.0
H611 H 0.75974 0.18001 0.37098 0.0
H612 H 0.89511 0.25745 0.34821 0.0
H613 H 0.90918 0.29969 0.37931 0.0
C614 C 0.84963 0.29028 0.41093 0.0
C615 C 0.81536 0.28178 0.42641 0.0
C616 C 0.84252 0.26474 0.39319 0.0
C617 C 0.77362 0.24743 0.42394 0.0
C618 C 0.76626 0.22179 0.40632 0.0
C619 C 0.79248 0.20589 0.37285 0.0
C620 C 0.82619 0.21555 0.35724 0.0
C621 C 0.80034 0.23034 0.3908 0.0
C622 C 0.86847 0.24922 0.35994 0.0
C623 C 0.87657 0.27354 0.37773 0.0
H624 H 0.71879 0.32128 0.60168 0.0
H625 H 0.87676 0.30962 0.62179 0.0
H626 H 0.84619 0.29589 0.65489 0.0
H627 H 0.77456 0.28595 0.67805 0.0
H628 H 0.61688 0.29827 0.65803 0.0
H629 H 0.64736 0.31174 0.62483 0.0
C630 C 0.7466 0.31597 0.6133 0.0
C631 C 0.80001 0.31665 0.60925 0.0
C632 C 0.72879 0.30784 0.63228 0.0
C633 C 0.83544 0.30937 0.62449 0.0
C634 C 0.81801 0.30143 0.64343 0.0
C635 C 0.74697 0.29251 0.66645 0.0
C636 C 0.69365 0.29245 0.67049 0.0
C637 C 0.7648 0.30056 0.64748 0.0
C638 C 0.65817 0.29867 0.65524 0.0
C639 C 0.67556 0.30653 0.6363 0.0
H640 H 0.75832 0.19428 0.91084 0.0
H641 H 0.6067 0.25528 0.92345 0.0
H642 H 0.60363 0.29685 0.89151 0.0
H643 H 0.64263 0.31204 0.85933 0.0
H644 H 0.79545 0.2521 0.84734 0.0
H645 H 0.79961 0.21436 0.87968 0.0
C646 C 0.72478 0.21696 0.90659 0.0
C647 C 0.68292 0.22199 0.91943 0.0
C648 C 0.72348 0.24089 0.8883 0.0
C649 C 0.6397 0.25155 0.91387 0.0
C650 C 0.63783 0.27503 0.89558 0.0
C651 C 0.67703 0.29117 0.86387 0.0
C652 C 0.71852 0.28475 0.85084 0.0
C653 C 0.67932 0.26954 0.88259 0.0
C654 C 0.76291 0.25774 0.85702 0.0
C655 C 0.7653 0.2359 0.87551 0.0
H656 H 0.80134 0.12598 0.15994 0.0
H657 H 0.72418 0.25899 0.18439 0.0
H658 H 0.68006 0.27465 0.15357 0.0
H659 H 0.66648 0.25258 0.119 0.0
H660 H 0.74508 0.11931 0.09504 0.0
H661 H 0.78562 0.10219 0.12619 0.0
C662 C 0.77465 0.15829 0.15857 0.0
C663 C 0.76564 0.1908 0.17457 0.0
C664 C 0.74991 0.16734 0.14076 0.0
C665 C 0.7309 0.23246 0.17253 0.0
C666 C 0.70606 0.2418 0.15479 0.0
C667 C 0.69229 0.21967 0.12061 0.0
C668 C 0.70284 0.18758 0.10455 0.0
C669 C 0.71562 0.20974 0.13873 0.0
C670 C 0.73628 0.14495 0.10701 0.0
C671 C 0.75959 0.13501 0.12487 0.0
H672 H 0.65602 0.69192 0.35016 0.0
H673 H 0.81052 0.74621 0.33738 0.0
H674 H 0.81928 0.77867 0.37038 0.0
H675 H 0.78178 0.79557 0.40246 0.0
H676 H 0.62722 0.74246 0.41532 0.0
H677 H 0.62004 0.70518 0.38287 0.0
C678 C 0.69178 0.71045 0.35463 0.0
C679 C 0.73244 0.71675 0.34122 0.0
C680 C 0.69662 0.72922 0.3737 0.0
C681 C 0.77852 0.74083 0.34733 0.0
C682 C 0.78359 0.75955 0.36622 0.0
C683 C 0.74671 0.7754 0.39819 0.0
C684 C 0.70547 0.77103 0.41139 0.0
C685 C 0.74269 0.75455 0.37945 0.0
C686 C 0.66012 0.7451 0.40565 0.0
C687 C 0.65577 0.72425 0.387 0.0
H688 H 0.23513 0.1471 0.59439 0.0
H689 H 0.37963 0.21433 0.61334 0.0
H690 H 0.34772 0.21678 0.64667 0.0
H691 H 0.27706 0.20347 0.67026 0.0
H692 H 0.13265 0.13716 0.65102 0.0
H693 H 0.16599 0.13136 0.61795 0.0
C694 C 0.25983 0.16211 0.60579 0.0
C695 C 0.3097 0.18064 0.60129 0.0
C696 C 0.24114 0.16375 0.6249 0.0
C697 C 0.34106 0.19986 0.61633 0.0
C698 C 0.32282 0.20134 0.63542 0.0
C699 C 0.25342 0.1866 0.65891 0.0
C700 C 0.20283 0.16976 0.66314 0.0
C701 C 0.27277 0.18372 0.63987 0.0
C702 C 0.17185 0.15001 0.64813 0.0
C703 C 0.19089 0.14667 0.62923 0.0
H704 H 0.85447 0.67644 0.90067 0.0
H705 H 0.77937 0.80815 0.92688 0.0
H706 H 0.77864 0.85324 0.89565 0.0
H707 H 0.79591 0.85339 0.86053 0.0
H708 H 0.86962 0.72027 0.83442 0.0
H709 H 0.87421 0.67766 0.8659 0.0
C710 C 0.83834 0.7152 0.89953 0.0
C711 C 0.81805 0.73942 0.91608 0.0
C712 C 0.83748 0.7405 0.88151 0.0
C713 C 0.79675 0.78939 0.91444 0.0
C714 C 0.79581 0.81493 0.89655 0.0
C715 C 0.81327 0.81521 0.86174 0.0
C716 C 0.83215 0.79008 0.84507 0.0
C717 C 0.81571 0.79068 0.87994 0.0
C718 C 0.85461 0.74057 0.84695 0.0
C719 C 0.85725 0.71606 0.86496 0.0
H720 H 0.27637 0.25246 0.16563 0.0
H721 H 0.37508 0.38082 0.14992 0.0
H722 H 0.33275 0.38649 0.11832 0.0
H723 H 0.2667 0.35597 0.09544 0.0
H724 H 0.16646 0.22898 0.11168 0.0
H725 H 0.20929 0.22304 0.14312 0.0
C726 C 0.28778 0.28255 0.15555 0.0
C727 C 0.32789 0.31705 0.16035 0.0
C728 C 0.26283 0.28602 0.13753 0.0
C729 C 0.34408 0.35393 0.14661 0.0
C730 C 0.31974 0.35739 0.12857 0.0
C731 C 0.25397 0.32719 0.10589 0.0
C732 C 0.2133 0.2931 0.10121 0.0
C733 C 0.27884 0.32384 0.12394 0.0
C734 C 0.19759 0.2558 0.1149 0.0
C735 C 0.22213 0.25226 0.13288 0.0
H736 H 0.33662 0.77349 0.84134 0.0
H737 H 0.30826 0.61577 0.85967 0.0
H738 H 0.29945 0.6447 0.89322 0.0
H739 H 0.29728 0.71534 0.91725 0.0
H740 H 0.32605 0.87264 0.89875 0.0
H741 H 0.33644 0.8434 0.86532 0.0
C742 C 0.32862 0.74534 0.85266 0.0
C743 C 0.32305 0.69252 0.84796 0.0
C744 C 0.32353 0.7622 0.8719 0.0
C745 C 0.31275 0.65667 0.86285 0.0
C746 C 0.30766 0.67317 0.88206 0.0
C747 C 0.30698 0.74298 0.90596 0.0
C748 C 0.31199 0.79592 0.91051 0.0
C749 C 0.31285 0.72587 0.88675 0.0
C750 C 0.32238 0.83162 0.89561 0.0
C751 C 0.32837 0.81495 0.8765 0.0
H752 H 0.24062 0.85587 0.09246 0.0
H753 H 0.36578 0.75151 0.10667 0.0
H754 H 0.3332 0.74363 0.13979 0.0
H755 H 0.26625 0.76287 0.16432 0.0
H756 H 0.14182 0.86759 0.1499 0.0
H757 H 0.17654 0.87817 0.11722 0.0
C758 C 0.26103 0.83163 0.10281 0.0
C759 C 0.30552 0.80422 0.09702 0.0
C760 C 0.24202 0.8271 0.12181 0.0
C761 C 0.33143 0.77306 0.11069 0.0
C762 C 0.31276 0.76843 0.12965 0.0
C763 C 0.24764 0.78909 0.15418 0.0
C764 C 0.20216 0.81526 0.15963 0.0
C765 C 0.26783 0.79494 0.13535 0.0
C766 C 0.1771 0.84729 0.14606 0.0
C767 C 0.19692 0.85339 0.12738 0.0
H768 H 0.12113 0.69185 0.40099 0.0
H769 H 0.25732 0.7653 0.42449 0.0
H770 H 0.27299 0.80869 0.39353 0.0
H771 H 0.24985 0.82274 0.35919 0.0
H772 H 0.11391 0.74738 0.33595 0.0
H773 H 0.09658 0.7078 0.36729 0.0
C774 C 0.15413 0.71755 0.39934 0.0
C775 C 0.18748 0.72596 0.4151 0.0
C776 C 0.16317 0.74185 0.38147 0.0
C777 C 0.23013 0.75929 0.41279 0.0
C778 C 0.23946 0.78369 0.39499 0.0
C779 C 0.21628 0.79792 0.36101 0.0
C780 C 0.18344 0.788 0.34516 0.0
C781 C 0.20641 0.77497 0.37917 0.0
C782 C 0.14002 0.75574 0.34783 0.0
C783 C 0.13001 0.73293 0.36577 0.0
H784 H 0.2257 0.70837 0.66889 0.0
H785 H 0.37333 0.65209 0.64868 0.0
H786 H 0.34061 0.64957 0.61546 0.0
H787 H 0.27049 0.66429 0.59207 0.0
H788 H 0.12239 0.72007 0.61223 0.0
H789 H 0.15455 0.72099 0.64551 0.0
C790 C 0.25026 0.69434 0.65729 0.0
C791 C 0.30153 0.6793 0.66133 0.0
C792 C 0.23118 0.69312 0.63817 0.0
C793 C 0.33358 0.66345 0.64597 0.0
C794 C 0.31491 0.66199 0.62697 0.0
C795 C 0.24513 0.67652 0.60373 0.0
C796 C 0.19405 0.69211 0.59958 0.0
C797 C 0.26384 0.67693 0.62288 0.0
C798 C 0.16186 0.70785 0.61494 0.0
C799 C 0.18023 0.70841 0.63402 0.0
H800 H 0.04653 0.43945 0.9941 0.0
H801 H 0.08596 0.46535 0.05416 0.0
H802 H 0.01125 0.52286 0.05762 0.0
H803 H 0.9343 0.56514 0.04361 0.0
H804 H 0.89607 0.53913 0.9835 0.0
H805 H 0.97025 0.48108 0.98022 0.0
C806 C 0.03931 0.45804 0.00793 0.0
C807 C 0.07213 0.44819 0.02382 0.0
C808 C 0.99587 0.49018 0.00992 0.0
C809 C 0.06162 0.47242 0.04164 0.0
C810 C 0.01864 0.505 0.04368 0.0
C811 C 0.94168 0.54601 0.0299 0.0
C812 C 0.90943 0.55599 0.01387 0.0
C813 C 0.98519 0.51369 0.02797 0.0
C814 C 0.92014 0.53181 0.99608 0.0
C815 C 0.96274 0.49894 0.99415 0.0
H816 H 0.44437 0.44042 0.24172 0.0
H817 H 0.46998 0.3978 0.30144 0.0
H818 H 0.52106 0.47729 0.30625 0.0
H819 H 0.55979 0.55761 0.29291 0.0
H820 H 0.52929 0.59983 0.23334 0.0
H821 H 0.47715 0.522 0.22923 0.0
C822 C 0.46173 0.44795 0.25576 0.0
C823 C 0.45468 0.41259 0.27109 0.0
C824 C 0.48912 0.4941 0.25853 0.0
C825 C 0.47579 0.424 0.28935 0.0
C826 C 0.50453 0.46957 0.29211 0.0
C827 C 0.54089 0.55035 0.27915 0.0
C828 C 0.54876 0.58451 0.26341 0.0
C829 C 0.51137 0.50495 0.27677 0.0
C830 C 0.52411 0.57426 0.24567 0.0
C831 C 0.4946 0.52952 0.24324 0.0
H832 H 0.53903 0.92391 0.53204 0.0
H833 H 0.59349 0.97156 0.47563 0.0
H834 H 0.519 0.0302 0.47241 0.0
H835 H 0.43983 0.06964 0.48638 0.0
H836 H 0.38672 0.01889 0.54268 0.0
H837 H 0.459 0.95864 0.54495 0.0
C838 C 0.53511 0.94745 0.51907 0.0
C839 C 0.57235 0.94417 0.50426 0.0
C840 C 0.492 0.97986 0.51719 0.0
C841 C 0.56569 0.97392 0.48735 0.0
C842 C 0.523 0.00717 0.48548 0.0
C843 C 0.44356 0.04466 0.49896 0.0
C844 C 0.40797 0.0489 0.51437 0.0
C845 C 0.48591 0.0105 0.50035 0.0
C846 C 0.41362 0.01659 0.53066 0.0
C847 C 0.45511 0.98231 0.53203 0.0
H848 H 0.06813 0.05165 0.74055 0.0
H849 H 0.01865 0.10385 0.79704 0.0
H850 H 0.96365 0.02731 0.80038 0.0
H851 H 0.93001 0.94526 0.78736 0.0
H852 H 0.97815 0.89424 0.73063 0.0
H853 H 0.03444 0.97005 0.72752 0.0
C854 C 0.04481 0.04676 0.75349 0.0
C855 C 0.04737 0.0837 0.76847 0.0
C856 C 0.01396 0.00225 0.75548 0.0
C857 C 0.01727 0.07623 0.78523 0.0
C858 C 0.98611 0.03223 0.78724 0.0
C859 C 0.95366 0.95022 0.7745 0.0
C860 C 0.95055 0.91389 0.75936 0.0
C861 C 0.98464 0.9947 0.77255 0.0
C862 C 0.98035 0.92147 0.74256 0.0
C863 C 0.01214 0.96501 0.7407 0.0
H864 H 0.94781 0.43204 0.5021 0.0
H865 H 0.89665 0.48162 0.55867 0.0
H866 H 0.97225 0.53911 0.56119 0.0
H867 H 0.05211 0.57633 0.54667 0.0
H868 H 0.10179 0.52301 0.49035 0.0
H869 H 0.0279 0.46461 0.48865 0.0
C870 C 0.9526 0.45578 0.51495 0.0
C871 C 0.91603 0.45326 0.53003 0.0
C872 C 0.99646 0.48724 0.51649 0.0
C873 C 0.92386 0.48339 0.54674 0.0
C874 C 0.96725 0.51591 0.54823 0.0
C875 C 0.04729 0.55103 0.53425 0.0
C876 C 0.08241 0.55392 0.51865 0.0
C877 C 0.00394 0.51801 0.53319 0.0
C878 C 0.07532 0.5215 0.50252 0.0
C879 C 0.03288 0.48838 0.50147 0.0
H880 H 0.57314 0.45564 0.79243 0.0
H881 H 0.51482 0.381 0.74094 0.0
H882 H 0.45999 0.45639 0.73413 0.0
H883 H 0.42917 0.54377 0.74284 0.0
H884 H 0.48983 0.61843 0.79401 0.0
H885 H 0.54444 0.54327 0.80059 0.0
C886 C 0.54768 0.45543 0.77991 0.0
C887 C 0.54726 0.41248 0.7674 0.0
C888 C 0.51776 0.49943 0.77576 0.0
C889 C 0.51523 0.4134 0.75093 0.0
C890 C 0.48431 0.45666 0.74693 0.0
C891 C 0.45514 0.54402 0.75519 0.0
C892 C 0.45562 0.58676 0.76786 0.0
C893 C 0.48572 0.50015 0.75914 0.0
C894 C 0.48887 0.5861 0.784 0.0
C895 C 0.51977 0.54295 0.78788 0.0
H896 H 0.55105 0.06245 0.99185 0.0
H897 H 0.59232 0.0287 0.05121 0.0
H898 H 0.51841 0.97034 0.05404 0.0
H899 H 0.44079 0.93111 0.04009 0.0
H900 H 0.39963 0.96327 0.98065 0.0
H901 H 0.4744 0.02099 0.97755 0.0
C902 C 0.54441 0.04166 0.0053 0.0
C903 C 0.57722 0.0499 0.02128 0.0
C904 C 0.50128 0.00882 0.00696 0.0
C905 C 0.56768 0.02306 0.03868 0.0
C906 C 0.52523 0.98995 0.04036 0.0
C907 C 0.44772 0.9513 0.02653 0.0
C908 C 0.41437 0.94352 0.01071 0.0
C909 C 0.49132 0.98327 0.02471 0.0
C910 C 0.42456 0.96901 0.9931 0.0
C911 C 0.46745 0.0017 0.99127 0.0
H912 H 0.07106 0.9405 0.28954 0.0
H913 H 0.01626 0.89147 0.23333 0.0
H914 H 0.9599 0.96727 0.23154 0.0
H915 H 0.92772 0.04801 0.2455 0.0
H916 H 0.98134 0.09727 0.30183 0.0
H917 H 0.03774 0.0212 0.30377 0.0
C918 C 0.04614 0.9459 0.27704 0.0
C919 C 0.04767 0.9102 0.26163 0.0
C920 C 0.01459 0.99013 0.27592 0.0
C921 C 0.01569 0.91825 0.24542 0.0
C922 C 0.98375 0.96178 0.24431 0.0
C923 C 0.95227 0.04263 0.25811 0.0
C924 C 0.9507 0.07857 0.27342 0.0
C925 C 0.98349 0.9983 0.25934 0.0
C926 C 0.98211 0.07038 0.28978 0.0
C927 C 0.01404 0.0267 0.29097 0.0
H928 H 0.53877 0.24875 0.99211 0.0
H929 H 0.57021 0.31866 0.04768 0.0
H930 H 0.4821 0.35493 0.04817 0.0
H931 H 0.39362 0.35808 0.0342 0.0
H932 H 0.36117 0.26926 0.98256 0.0
H933 H 0.45264 0.25085 0.97868 0.0
C934 C 0.52709 0.27295 0.0042 0.0
C935 C 0.56129 0.28141 0.01978 0.0
C936 C 0.47585 0.29015 0.00502 0.0
C937 C 0.54476 0.3119 0.03546 0.0
C938 C 0.49432 0.33225 0.03578 0.0
C939 C 0.40652 0.33437 0.02218 0.0
C940 C 0.37022 0.31541 0.00863 0.0
C941 C 0.459 0.32007 0.02092 0.0
C942 C 0.38794 0.28577 0.99291 0.0
C943 C 0.44036 0.27448 0.99083 0.0
H944 H 0.70802 0.88612 0.29537 0.0
H945 H 0.63057 0.89683 0.24009 0.0
H946 H 0.64498 0.99042 0.23963 0.0
H947 H 0.68927 0.06738 0.25352 0.0
H948 H 0.75272 0.05645 0.31134 0.0
H949 H 0.73013 0.96523 0.31279 0.0
C950 C 0.69215 0.90866 0.28354 0.0
C951 C 0.66996 0.8837 0.26746 0.0
C952 C 0.69753 0.96279 0.28391 0.0
C953 C 0.65043 0.9144 0.25222 0.0
C954 C 0.65787 0.96818 0.25207 0.0
C955 C 0.69659 0.04545 0.26667 0.0
C956 C 0.72391 0.06863 0.28205 0.0
C957 C 0.68297 0.9926 0.26759 0.0
C958 C 0.73225 0.0398 0.29913 0.0
C959 C 0.71986 0.98725 0.29995 0.0
H960 H 0.92911 0.19774 0.50193 0.0
H961 H 0.93722 0.2472 0.56166 0.0
H962 H 0.02821 0.22387 0.56292 0.0
H963 H 0.10782 0.20534 0.54538 0.0
H964 H 0.10011 0.14285 0.48747 0.0
H965 H 0.00667 0.15787 0.48688 0.0
C966 C 0.95039 0.20181 0.5154 0.0
C967 C 0.92655 0.22535 0.5315 0.0
C968 C 0.00307 0.18809 0.51613 0.0
C969 C 0.95445 0.22959 0.54896 0.0
C970 C 0.00683 0.21685 0.54966 0.0
C971 C 0.08588 0.19273 0.53288 0.0
C972 C 0.11155 0.17411 0.51633 0.0
C973 C 0.03196 0.19843 0.53307 0.0
C974 C 0.08186 0.15941 0.50014 0.0
C975 C 0.02823 0.16722 0.49989 0.0
H976 H 0.73639 0.44733 0.74073 0.0
H977 H 0.81983 0.41574 0.79353 0.0
H978 H 0.85713 0.50348 0.7926 0.0
H979 H 0.8582 0.59188 0.77835 0.0
H980 H 0.7608 0.62425 0.72891 0.0
H981 H 0.73832 0.53311 0.72647 0.0
C982 C 0.76413 0.45883 0.7517 0.0
C983 C 0.77618 0.42475 0.76696 0.0
C984 C 0.78261 0.50985 0.75168 0.0
C985 C 0.81054 0.44114 0.7815 0.0
C986 C 0.83145 0.49137 0.78103 0.0
C987 C 0.83196 0.57894 0.76709 0.0
C988 C 0.81162 0.61505 0.75374 0.0
C989 C 0.81639 0.52661 0.7665 0.0
C990 C 0.7783 0.59744 0.73905 0.0
C991 C 0.7648 0.54525 0.73779 0.0
H992 H 0.5889 0.35737 0.53946 0.0
H993 H 0.63133 0.27535 0.48728 0.0
H994 H 0.54122 0.25562 0.48097 0.0
H995 H 0.45251 0.25173 0.49197 0.0
H996 H 0.4101 0.31682 0.54726 0.0
H997 H 0.49779 0.3527 0.55083 0.0
C998 C 0.5784 0.33494 0.52678 0.0
C999 C 0.6171 0.31858 0.51374 0.0
C1000 C 0.52638 0.32048 0.52387 0.0
C1001 C 0.6026 0.2901 0.49725 0.0
C1002 C 0.55093 0.27812 0.49373 0.0
C1003 C 0.46182 0.27503 0.50458 0.0
C1004 C 0.42464 0.28233 0.5192 0.0
C1005 C 0.51275 0.29216 0.50711 0.0
C1006 C 0.43796 0.31123 0.53572 0.0
C1007 C 0.48817 0.33127 0.53782 0.0
H1008 H 0.63907 0.09069 0.75512 0.0
H1009 H 0.72719 0.12234 0.80692 0.0
H1010 H 0.74824 0.03082 0.8101 0.0
H1011 H 0.75292 0.94486 0.7957 0.0
H1012 H 0.67777 0.91494 0.74101 0.0
H1013 H 0.64025 0.0023 0.74138 0.0
C1014 C 0.66285 0.07747 0.76709 0.0
C1015 C 0.68145 0.11345 0.78076 0.0
C1016 C 0.67734 0.02497 0.76824 0.0
C1017 C 0.71138 0.09557 0.7964 0.0
C1018 C 0.72398 0.04317 0.79813 0.0
C1019 C 0.72704 0.95679 0.78413 0.0
C1020 C 0.71794 0.92344 0.76838 0.0
C1021 C 0.70847 0.00787 0.78384 0.0
C1022 C 0.68515 0.93991 0.75333 0.0
C1023 C 0.66413 0.98998 0.75345 0.0
H1024 H 0.05435 0.18844 0.99842 0.0
H1025 H 0.05638 0.24062 0.05793 0.0
H1026 H 0.96601 0.21767 0.06152 0.0
H1027 H 0.88354 0.2 0.0459 0.0
H1028 H 0.88132 0.13221 0.98876 0.0
H1029 H 0.97453 0.1464 0.98582 0.0
C1030 C 0.03547 0.19316 0.01235 0.0
C1031 C 0.06187 0.21775 0.02765 0.0
C1032 C 0.98311 0.17921 0.01452 0.0
C1033 C 0.03711 0.22252 0.04575 0.0
C1034 C 0.98504 0.20991 0.04782 0.0
C1035 C 0.90325 0.1859 0.03311 0.0
C1036 C 0.87476 0.16669 0.01734 0.0
C1037 C 0.95713 0.19078 0.03201 0.0
C1038 C 0.9017 0.14972 1.00078 0.0
C1039 C 0.95524 0.15702 0.99919 0.0
H1040 H 0.78696 0.38239 0.24235 0.0
H1041 H 0.87989 0.39462 0.29406 0.0
H1042 H 0.86368 0.48808 0.2952 0.0
H1043 H 0.81462 0.56479 0.28301 0.0
H1044 H 0.73247 0.55088 0.22872 0.0
H1045 H 0.75593 0.46045 0.22648 0.0
C1046 C 0.80556 0.40541 0.25346 0.0
C1047 C 0.83328 0.38106 0.26839 0.0
C1048 C 0.79836 0.45926 0.2535 0.0
C1049 C 0.85638 0.41202 0.28281 0.0
C1050 C 0.84762 0.46561 0.28337 0.0
C1051 C 0.80324 0.54225 0.27045 0.0
C1052 C 0.77178 0.56492 0.25611 0.0
C1053 C 0.81725 0.4895 0.26907 0.0
C1054 C 0.75741 0.53513 0.23987 0.0
C1055 C 0.77015 0.48287 0.23865 0.0
H1056 H 0.04073 0.75159 0.54339 0.0
H1057 H 0.08345 0.82871 0.49029 0.0
H1058 H 0.99504 0.86241 0.48691 0.0
H1059 H 0.90302 0.86023 0.49707 0.0
H1060 H 0.86038 0.76994 0.54731 0.0
H1061 H 0.95095 0.75139 0.5539 0.0
C1062 C 0.03117 0.77727 0.53143 0.0
C1063 C 0.06858 0.78833 0.51726 0.0
C1064 C 0.97977 0.79323 0.52889 0.0
C1065 C 0.05529 0.82031 0.50151 0.0
C1066 C 0.00465 0.83896 0.49946 0.0
C1067 C 0.91374 0.83657 0.50945 0.0
C1068 C 0.87504 0.81708 0.52182 0.0
C1069 C 0.96607 0.82393 0.51267 0.0
C1070 C 0.88941 0.78657 0.53784 0.0
C1071 C 0.94125 0.77558 0.54156 0.0
H1072 H 0.20141 0.394 0.78691 0.0
H1073 H 0.14327 0.39269 0.72828 0.0
H1074 H 0.16155 0.48555 0.72542 0.0
H1075 H 0.20131 0.56529 0.7391 0.0
H1076 H 0.24576 0.56615 0.79952 0.0
H1077 H 0.22094 0.47585 0.80257 0.0
C1078 C 0.1903 0.41388 0.77373 0.0
C1079 C 0.17162 0.38568 0.75777 0.0
C1080 C 0.19776 0.46759 0.77259 0.0
C1081 C 0.15952 0.41275 0.74063 0.0
C1082 C 0.16922 0.46612 0.73906 0.0
C1083 C 0.20422 0.54617 0.75307 0.0
C1084 C 0.22682 0.57239 0.76888 0.0
C1085 C 0.18946 0.49376 0.75487 0.0
C1086 C 0.22928 0.54711 0.78697 0.0
C1087 C 0.21554 0.4951 0.78874 0.0
H1088 H 0.58678 0.66547 0.03802 0.0
H1089 H 0.6095 0.67145 0.97627 0.0
H1090 H 0.51819 0.68536 0.97163 0.0
H1091 H 0.43381 0.71021 0.98536 0.0
H1092 H 0.41157 0.70277 0.04732 0.0
H1093 H 0.50097 0.67465 0.0515 0.0
C1094 C 0.57368 0.67312 0.02357 0.0
C1095 C 0.60851 0.6775 0.00782 0.0
C1096 C 0.52009 0.67954 0.02097 0.0
C1097 C 0.58643 0.67679 0.98907 0.0
C1098 C 0.53317 0.68276 0.98628 0.0
C1099 C 0.44791 0.70129 0.99977 0.0
C1100 C 0.41629 0.71044 0.01604 0.0
C1101 C 0.50002 0.68707 1.0022 0.0
C1102 C 0.43521 0.6972 0.03453 0.0
C1103 C 0.48659 0.68152 0.03696 0.0
H1104 H 0.35562 0.08537 0.27872 0.0
H1105 H 0.28432 0.12291 0.22394 0.0
H1106 H 0.26107 0.03222 0.21918 0.0
H1107 H 0.25139 0.94496 0.23228 0.0
H1108 H 0.31423 0.90796 0.28859 0.0
H1109 H 0.35106 0.9952 0.29093 0.0
C1110 C 0.33518 0.07347 0.26573 0.0
C1111 C 0.32177 0.11075 0.2517 0.0
C1112 C 0.32042 0.02131 0.26337 0.0
C1113 C 0.29581 0.09488 0.23482 0.0
C1114 C 0.28216 0.04304 0.23215 0.0
C1115 C 0.27434 0.95533 0.24486 0.0
C1116 C 0.27983 0.91992 0.26027 0.0
C1117 C 0.2932 0.00617 0.24652 0.0
C1118 C 0.30933 0.93445 0.27652 0.0
C1119 C 0.33001 0.98451 0.27795 0.0
H1120 H 0.92866 0.81617 0.99516 0.0
H1121 H 0.93019 0.76247 0.0545 0.0
H1122 H 0.02112 0.78471 0.05727 0.0
H1123 H 0.10291 0.80298 0.04098 0.0
H1124 H 0.10182 0.86753 0.98325 0.0
H1125 H 0.00817 0.85518 0.98146 0.0
C1126 C 0.94845 0.81069 0.00887 0.0
C1127 C 0.92279 0.78597 0.02435 0.0
C1128 C 0.00123 0.82355 0.01044 0.0
C1129 C 0.94885 0.7805 0.04217 0.0
C1130 C 0.00123 0.79275 0.04376 0.0
C1131 C 0.08236 0.81648 0.02826 0.0
C1132 C 0.10992 0.83483 0.01208 0.0
C1133 C 0.02831 0.81178 0.02768 0.0
C1134 C 0.08204 0.85107 0.99563 0.0
C1135 C 0.02829 0.84475 0.99468 0.0
H1136 H 0.20753 0.6006 0.23415 0.0
H1137 H 0.13659 0.59984 0.29073 0.0
H1138 H 0.15609 0.5075 0.29419 0.0
H1139 H 0.20242 0.42929 0.28219 0.0
H1140 H 0.25874 0.42926 0.22318 0.0
H1141 H 0.23224 0.51871 0.21921 0.0
C1142 C 0.19416 0.58021 0.24693 0.0
C1143 C 0.17198 0.60785 0.26236 0.0
C1144 C 0.20261 0.52659 0.24838 0.0
C1145 C 0.15594 0.58019 0.27893 0.0
C1146 C 0.16644 0.52712 0.28084 0.0
C1147 C 0.20751 0.44831 0.26829 0.0
C1148 C 0.23429 0.42278 0.2533 0.0
C1149 C 0.19127 0.50017 0.26584 0.0
C1150 C 0.23948 0.44798 0.23524 0.0
C1151 C 0.22457 0.49949 0.2329 0.0
H1152 H 0.54528 0.74569 0.48368 0.0
H1153 H 0.58178 0.67987 0.53952 0.0
H1154 H 0.49316 0.64626 0.54226 0.0
H1155 H 0.40236 0.64653 0.53057 0.0
H1156 H 0.36596 0.72894 0.47776 0.0
H1157 H 0.45717 0.7443 0.47187 0.0
C1158 C 0.53447 0.72258 0.49621 0.0
C1159 C 0.5701 0.71498 0.51132 0.0
C1160 C 0.48286 0.70709 0.49832 0.0
C1161 C 0.55505 0.68589 0.52763 0.0
C1162 C 0.50425 0.66726 0.52929 0.0
C1163 C 0.41447 0.66798 0.51783 0.0
C1164 C 0.37719 0.68604 0.50455 0.0
C1165 C 0.46723 0.67965 0.51509 0.0
C1166 C 0.39364 0.71319 0.48797 0.0
C1167 C 0.44593 0.72255 0.48466 0.0
H1168 H 0.3039 0.06808 0.74198 0.0
H1169 H 0.24955 0.06387 0.80122 0.0
H1170 H 0.27259 0.97287 0.80358 0.0
H1171 H 0.29367 0.89218 0.78726 0.0
H1172 H 0.36025 0.89562 0.72993 0.0
H1173 H 0.3439 0.98902 0.728 0.0
C1174 C 0.29842 0.04767 0.75558 0.0
C1175 C 0.27372 0.07274 0.77121 0.0
C1176 C 0.31187 0.99484 0.75694 0.0
C1177 C 0.2679 0.04578 0.78884 0.0
C1178 C 0.28053 0.99337 0.79017 0.0
C1179 C 0.30687 0.9132 0.77461 0.0
C1180 C 0.32763 0.88631 0.75869 0.0
C1181 C 0.30037 0.96711 0.77406 0.0
C1182 C 0.3425 0.91477 0.74218 0.0
C1183 C 0.33391 0.9684 0.74118 0.0
loop_
_geom_bond_atom_site_label_1
_geom_bond_atom_site_label_2
_geom_bond_distance
_geom_bond_site_symmetry_2
_ccdc_geom_bond_type
Co0 O3 1.970 . S
Co0 N17 1.989 . S
Co0 O25 1.967 . S
Co0 O32 1.920 . S
Co1 O4 1.981 . S
Co1 N10 2.022 . S
Co1 N18 1.993 1_556 S
Co1 O26 1.941 . S
C2 O3 1.258 . S
C2 O4 1.225 1_554 S
O3 Co0 1.970 . S
O3 C2 1.258 . S
O4 Co1 1.981 . S
O4 C2 1.225 1_556 S
C5 O6 1.235 . S
C5 O32 1.289 . S
O6 C5 1.235 . S
C7 C9 1.400 . S
C7 N10 1.351 . S
C7 C12 1.501 . S
C8 C9 1.387 . S
C8 N11 1.341 . S
C9 C7 1.400 . S
C9 C8 1.387 . S
N10 Co1 2.022 . S
N10 C7 1.351 . S
N10 N11 1.365 . S
N11 C8 1.341 . S
N11 N10 1.365 . S
N11 H31 0.862 . S
C12 C7 1.501 . S
C12 H13 0.961 . S
C12 H14 0.961 . S
C12 H15 0.960 . S
H13 C12 0.961 . S
H14 C12 0.961 . S
H15 C12 0.960 . S
C16 N17 1.342 . S
C16 C20 1.401 . S
C16 C21 1.499 . S
N17 Co0 1.989 . S
N17 C16 1.342 . S
N17 N18 1.388 . S
N18 Co1 1.993 1_554 S
N18 N17 1.388 . S
N18 C19 1.346 1_554 S
C19 N18 1.346 1_556 S
C19 C20 1.396 1_556 S
C19 C29 1.510 . S
C20 C16 1.401 . S
C20 C19 1.396 1_554 S
C21 C16 1.499 . S
C21 H22 0.959 . S
C21 H23 0.960 . S
C21 H24 0.961 . S
H22 C21 0.959 . S
H23 C21 0.960 . S
H24 C21 0.961 . S
O25 Co0 1.967 . S
O25 C33 1.258 . S
O26 Co1 1.941 . S
O26 C33 1.266 1_556 S
H27 C29 0.959 . S
H28 C29 0.961 . S
C29 C19 1.510 . S
C29 H27 0.959 . S
C29 H28 0.961 . S
C29 H30 0.960 . S
H30 C29 0.960 . S
H31 N11 0.862 . S
O32 Co0 1.920 . S
O32 C5 1.289 . S
C33 O25 1.258 . S
C33 O26 1.266 1_554 S
Co34 O37 1.970 . S
Co34 N51 1.989 . S
Co34 O59 1.967 . S
Co34 O66 1.920 . S
Co35 O38 1.966 . S
Co35 N44 2.022 . S
Co35 N52 1.993 . S
Co35 O60 1.941 . S
C36 O37 1.258 . S
C36 O38 1.263 . S
O37 Co34 1.970 . S
O37 C36 1.258 . S
O38 Co35 1.966 . S
O38 C36 1.263 . S
C39 O40 1.235 . S
C39 O66 1.289 . S
O40 C39 1.235 . S
C41 C43 1.400 . S
C41 N44 1.351 . S
C41 C46 1.501 . S
C42 C43 1.387 . S
C42 N45 1.341 . S
C43 C41 1.400 . S
C43 C42 1.387 . S
N44 Co35 2.022 . S
N44 C41 1.351 . S
N44 N45 1.365 . S
N45 C42 1.341 . S
N45 N44 1.365 . S
N45 H65 0.862 . S
C46 C41 1.501 . S
C46 H47 0.961 . S
C46 H48 0.961 . S
C46 H49 0.960 . S
H47 C46 0.961 . S
H48 C46 0.961 . S
H49 C46 0.960 . S
C50 N51 1.342 . S
C50 C54 1.401 . S
C50 C55 1.499 . S
N51 Co34 1.989 . S
N51 C50 1.342 . S
N51 N52 1.388 . S
N52 Co35 1.993 . S
N52 N51 1.388 . S
N52 C53 1.346 . S
C53 N52 1.346 . S
C53 C54 1.396 . S
C53 C63 1.510 . S
C54 C50 1.401 . S
C54 C53 1.396 . S
C55 C50 1.499 . S
C55 H56 0.959 . S
C55 H57 0.960 . S
C55 H58 0.961 . S
H56 C55 0.959 . S
H57 C55 0.960 . S
H58 C55 0.961 . S
O59 Co34 1.967 . S
O59 C67 1.258 . S
O60 Co35 1.941 . S
O60 C67 1.266 . S
H61 C63 0.959 . S
H62 C63 0.961 . S
C63 C53 1.510 . S
C63 H61 0.959 . S
C63 H62 0.961 . S
C63 H64 0.960 . S
H64 C63 0.960 . S
H65 N45 0.862 . S
O66 Co34 1.920 . S
O66 C39 1.289 . S
C67 O59 1.258 . S
C67 O60 1.266 . S
Co68 O71 1.970 . S
Co68 N85 1.989 . S
Co68 O93 1.967 . S
Co68 O100 1.920 . S
Co69 O72 1.966 . S
Co69 N78 2.022 . S
Co69 N86 1.993 . S
Co69 O94 1.941 . S
C70 O71 1.258 . S
C70 O72 1.263 . S
O71 Co68 1.970 . S
O71 C70 1.258 . S
O72 Co69 1.966 . S
O72 C70 1.263 . S
C73 O74 1.235 . S
C73 O100 1.289 . S
O74 C73 1.235 . S
C75 C77 1.400 . S
C75 N78 1.351 . S
C75 C80 1.501 . S
C76 C77 1.387 . S
C76 N79 1.341 . S
C77 C75 1.400 . S
C77 C76 1.387 . S
N78 Co69 2.022 . S
N78 C75 1.351 . S
N78 N79 1.365 . S
N79 C76 1.341 . S
N79 N78 1.365 . S
N79 H99 0.862 . S
C80 C75 1.501 . S
C80 H81 0.961 . S
C80 H82 0.961 . S
C80 H83 0.960 . S
H81 C80 0.961 . S
H82 C80 0.961 . S
H83 C80 0.960 . S
C84 N85 1.342 . S
C84 C88 1.401 . S
C84 C89 1.499 . S
N85 Co68 1.989 . S
N85 C84 1.342 . S
N85 N86 1.388 . S
N86 Co69 1.993 . S
N86 N85 1.388 . S
N86 C87 1.346 . S
C87 N86 1.346 . S
C87 C88 1.396 . S
C87 C97 1.510 . S
C88 C84 1.401 . S
C88 C87 1.396 . S
C89 C84 1.499 . S
C89 H90 0.959 . S
C89 H91 0.960 . S
C89 H92 0.961 . S
H90 C89 0.959 . S
H91 C89 0.960 . S
H92 C89 0.961 . S
O93 Co68 1.967 . S
O93 C101 1.258 . S
O94 Co69 1.941 . S
O94 C101 1.266 . S
H95 C97 0.959 . S
H96 C97 0.961 . S
C97 C87 1.510 . S
C97 H95 0.959 . S
C97 H96 0.961 . S
C97 H98 0.960 . S
H98 C97 0.960 . S
H99 N79 0.862 . S
O100 Co68 1.920 . S
O100 C73 1.289 . S
C101 O93 1.258 . S
C101 O94 1.266 . S
Co102 O105 1.970 . S
Co102 N119 1.989 . S
Co102 O127 1.967 . S
Co102 O134 1.920 . S
Co103 O106 1.966 . S
Co103 N112 2.022 . S
Co103 N120 1.993 . S
Co103 O128 1.941 . S
C104 O105 1.258 . S
C104 O106 1.263 . S
O105 Co102 1.970 . S
O105 C104 1.258 . S
O106 Co103 1.966 . S
O106 C104 1.263 . S
C107 O108 1.235 . S
C107 O134 1.289 . S
O108 C107 1.235 . S
C109 C111 1.400 . S
C109 N112 1.351 . S
C109 C114 1.501 . S
C110 C111 1.387 . S
C110 N113 1.341 . S
C111 C109 1.400 . S
C111 C110 1.387 . S
N112 Co103 2.022 . S
N112 C109 1.351 . S
N112 N113 1.365 . S
N113 C110 1.341 . S
N113 N112 1.365 . S
N113 H133 0.862 . S
C114 C109 1.501 . S
C114 H115 0.961 . S
C114 H116 0.961 . S
C114 H117 0.960 . S
H115 C114 0.961 . S
H116 C114 0.961 . S
H117 C114 0.960 . S
C118 N119 1.342 . S
C118 C122 1.401 . S
C118 C123 1.499 . S
N119 Co102 1.989 . S
N119 C118 1.342 . S
N119 N120 1.388 . S
N120 Co103 1.993 . S
N120 N119 1.388 . S
N120 C121 1.346 . S
C121 N120 1.346 . S
C121 C122 1.396 . S
C121 C131 1.510 . S
C122 C118 1.401 . S
C122 C121 1.396 . S
C123 C118 1.499 . S
C123 H124 0.959 . S
C123 H125 0.960 . S
C123 H126 0.961 . S
H124 C123 0.959 . S
H125 C123 0.960 . S
H126 C123 0.961 . S
O127 Co102 1.967 . S
O127 C135 1.258 . S
O128 Co103 1.941 . S
O128 C135 1.266 . S
H129 C131 0.959 . S
H130 C131 0.961 . S
C131 C121 1.510 . S
C131 H129 0.959 . S
C131 H130 0.961 . S
C131 H132 0.960 . S
H132 C131 0.960 . S
H133 N113 0.862 . S
O134 Co102 1.920 . S
O134 C107 1.289 . S
C135 O127 1.258 . S
C135 O128 1.266 . S
Co136 O139 1.970 . S
Co136 N153 1.989 . S
Co136 O161 1.967 . S
Co136 O168 1.920 . S
Co137 O140 1.966 . S
Co137 N146 2.022 . S
Co137 N154 1.993 . S
Co137 O162 1.941 . S
C138 O139 1.258 . S
C138 O140 1.263 . S
O139 Co136 1.970 . S
O139 C138 1.258 . S
O140 Co137 1.966 . S
O140 C138 1.263 . S
C141 O142 1.235 . S
C141 O168 1.289 . S
O142 C141 1.235 . S
C143 C145 1.400 . S
C143 N146 1.351 . S
C143 C148 1.501 . S
C144 C145 1.387 . S
C144 N147 1.341 . S
C145 C143 1.400 . S
C145 C144 1.387 . S
N146 Co137 2.022 . S
N146 C143 1.351 . S
N146 N147 1.365 . S
N147 C144 1.341 . S
N147 N146 1.365 . S
N147 H167 0.862 . S
C148 C143 1.501 . S
C148 H149 0.961 . S
C148 H150 0.961 . S
C148 H151 0.960 . S
H149 C148 0.961 . S
H150 C148 0.961 . S
H151 C148 0.960 . S
C152 N153 1.342 . S
C152 C156 1.401 . S
C152 C157 1.499 . S
N153 Co136 1.989 . S
N153 C152 1.342 . S
N153 N154 1.388 . S
N154 Co137 1.993 . S
N154 N153 1.388 . S
N154 C155 1.346 . S
C155 N154 1.346 . S
C155 C156 1.396 . S
C155 C165 1.510 . S
C156 C152 1.401 . S
C156 C155 1.396 . S
C157 C152 1.499 . S
C157 H158 0.959 . S
C157 H159 0.960 . S
C157 H160 0.961 . S
H158 C157 0.959 . S
H159 C157 0.960 . S
H160 C157 0.961 . S
O161 Co136 1.967 . S
O161 C169 1.258 . S
O162 Co137 1.941 . S
O162 C169 1.266 . S
H163 C165 0.959 . S
H164 C165 0.961 . S
C165 C155 1.510 . S
C165 H163 0.959 . S
C165 H164 0.961 . S
C165 H166 0.960 . S
H166 C165 0.960 . S
H167 N147 0.862 . S
O168 Co136 1.920 . S
O168 C141 1.289 . S
C169 O161 1.258 . S
C169 O162 1.266 . S
Co170 O173 1.970 . S
Co170 N187 1.989 . S
Co170 O195 1.967 . S
Co170 O202 1.920 . S
Co171 O174 1.966 . S
Co171 N180 2.022 . S
Co171 N188 1.993 . S
Co171 O196 1.941 . S
C172 O173 1.258 . S
C172 O174 1.263 . S
O173 Co170 1.970 . S
O173 C172 1.258 . S
O174 Co171 1.966 . S
O174 C172 1.263 . S
C175 O176 1.235 . S
C175 O202 1.289 . S
O176 C175 1.235 . S
C177 C179 1.400 . S
C177 N180 1.351 . S
C177 C182 1.501 . S
C178 C179 1.387 . S
C178 N181 1.341 . S
C179 C177 1.400 . S
C179 C178 1.387 . S
N180 Co171 2.022 . S
N180 C177 1.351 . S
N180 N181 1.365 . S
N181 C178 1.341 . S
N181 N180 1.365 . S
N181 H201 0.862 . S
C182 C177 1.501 . S
C182 H183 0.961 . S
C182 H184 0.961 . S
C182 H185 0.960 . S
H183 C182 0.961 . S
H184 C182 0.961 . S
H185 C182 0.960 . S
C186 N187 1.342 . S
C186 C190 1.401 . S
C186 C191 1.499 . S
N187 Co170 1.989 . S
N187 C186 1.342 . S
N187 N188 1.388 . S
N188 Co171 1.993 . S
N188 N187 1.388 . S
N188 C189 1.346 . S
C189 N188 1.346 . S
C189 C190 1.396 . S
C189 C199 1.510 . S
C190 C186 1.401 . S
C190 C189 1.396 . S
C191 C186 1.499 . S
C191 H192 0.959 . S
C191 H193 0.960 . S
C191 H194 0.961 . S
H192 C191 0.959 . S
H193 C191 0.960 . S
H194 C191 0.961 . S
O195 Co170 1.967 . S
O195 C203 1.258 . S
O196 Co171 1.941 . S
O196 C203 1.266 . S
H197 C199 0.959 . S
H198 C199 0.961 . S
C199 C189 1.510 . S
C199 H197 0.959 . S
C199 H198 0.961 . S
C199 H200 0.960 . S
H200 C199 0.960 . S
H201 N181 0.862 . S
O202 Co170 1.920 . S
O202 C175 1.289 . S
C203 O195 1.258 . S
C203 O196 1.266 . S
Co204 O207 1.970 . S
Co204 N221 1.989 . S
Co204 O229 1.967 . S
Co204 O236 1.920 . S
Co205 O208 1.981 . S
Co205 N214 2.022 . S
Co205 N222 1.993 1_556 S
Co205 O230 1.941 . S
C206 O207 1.258 . S
C206 O208 1.225 1_554 S
O207 Co204 1.970 . S
O207 C206 1.258 . S
O208 Co205 1.981 . S
O208 C206 1.225 1_556 S
C209 O210 1.235 . S
C209 O236 1.289 . S
O210 C209 1.235 . S
C211 C213 1.400 . S
C211 N214 1.351 . S
C211 C216 1.501 . S
C212 C213 1.387 . S
C212 N215 1.341 . S
C213 C211 1.400 . S
C213 C212 1.387 . S
N214 Co205 2.022 . S
N214 C211 1.351 . S
N214 N215 1.365 . S
N215 C212 1.341 . S
N215 N214 1.365 . S
N215 H235 0.862 . S
C216 C211 1.501 . S
C216 H217 0.961 . S
C216 H218 0.961 . S
C216 H219 0.960 . S
H217 C216 0.961 . S
H218 C216 0.961 . S
H219 C216 0.960 . S
C220 N221 1.342 . S
C220 C224 1.401 . S
C220 C225 1.499 . S
N221 Co204 1.989 . S
N221 C220 1.342 . S
N221 N222 1.388 . S
N222 Co205 1.993 1_554 S
N222 N221 1.388 . S
N222 C223 1.346 1_554 S
C223 N222 1.346 1_556 S
C223 C224 1.396 1_556 S
C223 C233 1.510 . S
C224 C220 1.401 . S
C224 C223 1.396 1_554 S
C225 C220 1.499 . S
C225 H226 0.959 . S
C225 H227 0.960 . S
C225 H228 0.961 . S
H226 C225 0.959 . S
H227 C225 0.960 . S
H228 C225 0.961 . S
O229 Co204 1.967 . S
O229 C237 1.258 . S
O230 Co205 1.941 . S
O230 C237 1.266 1_556 S
H231 C233 0.959 . S
H232 C233 0.961 . S
C233 C223 1.510 . S
C233 H231 0.959 . S
C233 H232 0.961 . S
C233 H234 0.960 . S
H234 C233 0.960 . S
H235 N215 0.862 . S
O236 Co204 1.920 . S
O236 C209 1.289 . S
C237 O229 1.258 . S
C237 O230 1.266 1_554 S
Co238 O241 1.970 . S
Co238 N255 1.989 . S
Co238 O263 1.967 . S
Co238 O270 1.920 . S
Co239 O242 1.966 . S
Co239 N248 2.022 . S
Co239 N256 1.993 . S
Co239 O264 1.941 . S
C240 O241 1.258 . S
C240 O242 1.263 . S
O241 Co238 1.970 . S
O241 C240 1.258 . S
O242 Co239 1.966 . S
O242 C240 1.263 . S
C243 O244 1.235 . S
C243 O270 1.289 . S
O244 C243 1.235 . S
C245 C247 1.400 . S
C245 N248 1.351 . S
C245 C250 1.501 . S
C246 C247 1.387 . S
C246 N249 1.341 . S
C247 C245 1.400 . S
C247 C246 1.387 . S
N248 Co239 2.022 . S
N248 C245 1.351 . S
N248 N249 1.365 . S
N249 C246 1.341 . S
N249 N248 1.365 . S
N249 H269 0.862 . S
C250 C245 1.501 . S
C250 H251 0.961 . S
C250 H252 0.961 . S
C250 H253 0.960 . S
H251 C250 0.961 . S
H252 C250 0.961 . S
H253 C250 0.960 . S
C254 N255 1.342 . S
C254 C258 1.401 . S
C254 C259 1.499 . S
N255 Co238 1.989 . S
N255 C254 1.342 . S
N255 N256 1.388 . S
N256 Co239 1.993 . S
N256 N255 1.388 . S
N256 C257 1.346 . S
C257 N256 1.346 . S
C257 C258 1.396 . S
C257 C267 1.510 . S
C258 C254 1.401 . S
C258 C257 1.396 . S
C259 C254 1.499 . S
C259 H260 0.959 . S
C259 H261 0.960 . S
C259 H262 0.961 . S
H260 C259 0.959 . S
H261 C259 0.960 . S
H262 C259 0.961 . S
O263 Co238 1.967 . S
O263 C271 1.258 . S
O264 Co239 1.941 . S
O264 C271 1.266 . S
H265 C267 0.959 . S
H266 C267 0.961 . S
C267 C257 1.510 . S
C267 H265 0.959 . S
C267 H266 0.961 . S
C267 H268 0.960 . S
H268 C267 0.960 . S
H269 N249 0.862 . S
O270 Co238 1.920 . S
O270 C243 1.289 . S
C271 O263 1.258 . S
C271 O264 1.266 . S
Co272 O275 1.970 . S
Co272 N289 1.989 . S
Co272 O297 1.967 . S
Co272 O304 1.920 . S
Co273 O276 1.966 . S
Co273 N282 2.022 . S
Co273 N290 1.993 . S
Co273 O298 1.941 . S
C274 O275 1.258 . S
C274 O276 1.263 . S
O275 Co272 1.970 . S
O275 C274 1.258 . S
O276 Co273 1.966 . S
O276 C274 1.263 . S
C277 O278 1.235 . S
C277 O304 1.289 . S
O278 C277 1.235 . S
C279 C281 1.400 . S
C279 N282 1.351 . S
C279 C284 1.501 . S
C280 C281 1.387 . S
C280 N283 1.341 . S
C281 C279 1.400 . S
C281 C280 1.387 . S
N282 Co273 2.022 . S
N282 C279 1.351 . S
N282 N283 1.365 . S
N283 C280 1.341 . S
N283 N282 1.365 . S
N283 H303 0.862 . S
C284 C279 1.501 . S
C284 H285 0.961 . S
C284 H286 0.961 . S
C284 H287 0.960 . S
H285 C284 0.961 . S
H286 C284 0.961 . S
H287 C284 0.960 . S
C288 N289 1.342 . S
C288 C292 1.401 . S
C288 C293 1.499 . S
N289 Co272 1.989 . S
N289 C288 1.342 . S
N289 N290 1.388 . S
N290 Co273 1.993 . S
N290 N289 1.388 . S
N290 C291 1.346 . S
C291 N290 1.346 . S
C291 C292 1.396 . S
C291 C301 1.510 . S
C292 C288 1.401 . S
C292 C291 1.396 . S
C293 C288 1.499 . S
C293 H294 0.959 . S
C293 H295 0.960 . S
C293 H296 0.961 . S
H294 C293 0.959 . S
H295 C293 0.960 . S
H296 C293 0.961 . S
O297 Co272 1.967 . S
O297 C305 1.258 . S
O298 Co273 1.941 . S
O298 C305 1.266 . S
H299 C301 0.959 . S
H300 C301 0.961 . S
C301 C291 1.510 . S
C301 H299 0.959 . S
C301 H300 0.961 . S
C301 H302 0.960 . S
H302 C301 0.960 . S
H303 N283 0.862 . S
O304 Co272 1.920 . S
O304 C277 1.289 . S
C305 O297 1.258 . S
C305 O298 1.266 . S
Co306 O309 1.970 . S
Co306 N323 1.989 . S
Co306 O331 1.967 . S
Co306 O338 1.920 . S
Co307 O310 1.966 . S
Co307 N316 2.022 . S
Co307 N324 1.993 . S
Co307 O332 1.941 . S
C308 O309 1.258 . S
C308 O310 1.263 . S
O309 Co306 1.970 . S
O309 C308 1.258 . S
O310 Co307 1.966 . S
O310 C308 1.263 . S
C311 O312 1.235 . S
C311 O338 1.289 . S
O312 C311 1.235 . S
C313 C315 1.400 . S
C313 N316 1.351 . S
C313 C318 1.501 . S
C314 C315 1.387 . S
C314 N317 1.341 . S
C315 C313 1.400 . S
C315 C314 1.387 . S
N316 Co307 2.022 . S
N316 C313 1.351 . S
N316 N317 1.365 . S
N317 C314 1.341 . S
N317 N316 1.365 . S
N317 H337 0.862 . S
C318 C313 1.501 . S
C318 H319 0.961 . S
C318 H320 0.961 . S
C318 H321 0.960 . S
H319 C318 0.961 . S
H320 C318 0.961 . S
H321 C318 0.960 . S
C322 N323 1.342 . S
C322 C326 1.401 . S
C322 C327 1.499 . S
N323 Co306 1.989 . S
N323 C322 1.342 . S
N323 N324 1.388 . S
N324 Co307 1.993 . S
N324 N323 1.388 . S
N324 C325 1.346 . S
C325 N324 1.346 . S
C325 C326 1.396 . S
C325 C335 1.510 . S
C326 C322 1.401 . S
C326 C325 1.396 . S
C327 C322 1.499 . S
C327 H328 0.959 . S
C327 H329 0.960 . S
C327 H330 0.961 . S
H328 C327 0.959 . S
H329 C327 0.960 . S
H330 C327 0.961 . S
O331 Co306 1.967 . S
O331 C339 1.258 . S
O332 Co307 1.941 . S
O332 C339 1.266 . S
H333 C335 0.959 . S
H334 C335 0.961 . S
C335 C325 1.510 . S
C335 H333 0.959 . S
C335 H334 0.961 . S
C335 H336 0.960 . S
H336 C335 0.960 . S
H337 N317 0.862 . S
O338 Co306 1.920 . S
O338 C311 1.289 . S
C339 O331 1.258 . S
C339 O332 1.266 . S
Co340 O343 1.970 . S
Co340 N357 1.989 . S
Co340 O365 1.967 . S
Co340 O372 1.920 . S
Co341 O344 1.981 . S
Co341 N350 2.022 . S
Co341 N358 1.993 1_556 S
Co341 O366 1.941 . S
C342 O343 1.258 . S
C342 O344 1.225 1_554 S
O343 Co340 1.970 . S
O343 C342 1.258 . S
O344 Co341 1.981 . S
O344 C342 1.225 1_556 S
C345 O346 1.235 . S
C345 O372 1.289 . S
O346 C345 1.235 . S
C347 C349 1.400 . S
C347 N350 1.351 . S
C347 C352 1.501 . S
C348 C349 1.387 . S
C348 N351 1.341 . S
C349 C347 1.400 . S
C349 C348 1.387 . S
N350 Co341 2.022 . S
N350 C347 1.351 . S
N350 N351 1.365 . S
N351 C348 1.341 . S
N351 N350 1.365 . S
N351 H371 0.862 . S
C352 C347 1.501 . S
C352 H353 0.961 . S
C352 H354 0.961 . S
C352 H355 0.960 . S
H353 C352 0.961 . S
H354 C352 0.961 . S
H355 C352 0.960 . S
C356 N357 1.342 . S
C356 C360 1.401 . S
C356 C361 1.499 . S
N357 Co340 1.989 . S
N357 C356 1.342 . S
N357 N358 1.388 . S
N358 Co341 1.993 1_554 S
N358 N357 1.388 . S
N358 C359 1.346 1_554 S
C359 N358 1.346 1_556 S
C359 C360 1.396 1_556 S
C359 C369 1.510 . S
C360 C356 1.401 . S
C360 C359 1.396 1_554 S
C361 C356 1.499 . S
C361 H362 0.959 . S
C361 H363 0.960 . S
C361 H364 0.961 . S
H362 C361 0.959 . S
H363 C361 0.960 . S
H364 C361 0.961 . S
O365 Co340 1.967 . S
O365 C373 1.258 . S
O366 Co341 1.941 . S
O366 C373 1.266 1_556 S
H367 C369 0.959 . S
H368 C369 0.961 . S
C369 C359 1.510 . S
C369 H367 0.959 . S
C369 H368 0.961 . S
C369 H370 0.960 . S
H370 C369 0.960 . S
H371 N351 0.862 . S
O372 Co340 1.920 . S
O372 C345 1.289 . S
C373 O365 1.258 . S
C373 O366 1.266 1_554 S
Co374 O377 1.970 . S
Co374 N391 1.989 . S
Co374 O399 1.967 . S
Co374 O406 1.920 . S
Co375 O378 1.966 . S
Co375 N384 2.022 . S
Co375 N392 1.993 . S
Co375 O400 1.941 . S
C376 O377 1.258 . S
C376 O378 1.263 . S
O377 Co374 1.970 . S
O377 C376 1.258 . S
O378 Co375 1.966 . S
O378 C376 1.263 . S
C379 O380 1.235 . S
C379 O406 1.289 . S
O380 C379 1.235 . S
C381 C383 1.400 . S
C381 N384 1.351 . S
C381 C386 1.501 . S
C382 C383 1.387 . S
C382 N385 1.341 . S
C383 C381 1.400 . S
C383 C382 1.387 . S
N384 Co375 2.022 . S
N384 C381 1.351 . S
N384 N385 1.365 . S
N385 C382 1.341 . S
N385 N384 1.365 . S
N385 H405 0.862 . S
C386 C381 1.501 . S
C386 H387 0.961 . S
C386 H388 0.961 . S
C386 H389 0.960 . S
H387 C386 0.961 . S
H388 C386 0.961 . S
H389 C386 0.960 . S
C390 N391 1.342 . S
C390 C394 1.401 . S
C390 C395 1.499 . S
N391 Co374 1.989 . S
N391 C390 1.342 . S
N391 N392 1.388 . S
N392 Co375 1.993 . S
N392 N391 1.388 . S
N392 C393 1.346 . S
C393 N392 1.346 . S
C393 C394 1.396 . S
C393 C403 1.510 . S
C394 C390 1.401 . S
C394 C393 1.396 . S
C395 C390 1.499 . S
C395 H396 0.959 . S
C395 H397 0.960 . S
C395 H398 0.961 . S
H396 C395 0.959 . S
H397 C395 0.960 . S
H398 C395 0.961 . S
O399 Co374 1.967 . S
O399 C407 1.258 . S
O400 Co375 1.941 . S
O400 C407 1.266 . S
H401 C403 0.959 . S
H402 C403 0.961 . S
C403 C393 1.510 . S
C403 H401 0.959 . S
C403 H402 0.961 . S
C403 H404 0.960 . S
H404 C403 0.960 . S
H405 N385 0.862 . S
O406 Co374 1.920 . S
O406 C379 1.289 . S
C407 O399 1.258 . S
C407 O400 1.266 . S
Co408 O411 1.970 . S
Co408 N425 1.989 . S
Co408 O433 1.967 . S
Co408 O440 1.920 . S
Co409 O412 1.981 . S
Co409 N418 2.022 . S
Co409 N426 1.993 1_556 S
Co409 O434 1.941 . S
C410 O411 1.258 . S
C410 O412 1.225 1_554 S
O411 Co408 1.970 . S
O411 C410 1.258 . S
O412 Co409 1.981 . S
O412 C410 1.225 1_556 S
C413 O414 1.235 . S
C413 O440 1.289 . S
O414 C413 1.235 . S
C415 C417 1.400 . S
C415 N418 1.351 . S
C415 C420 1.501 . S
C416 C417 1.387 . S
C416 N419 1.341 . S
C417 C415 1.400 . S
C417 C416 1.387 . S
N418 Co409 2.022 . S
N418 C415 1.351 . S
N418 N419 1.365 . S
N419 C416 1.341 . S
N419 N418 1.365 . S
N419 H439 0.862 . S
C420 C415 1.501 . S
C420 H421 0.961 . S
C420 H422 0.961 . S
C420 H423 0.960 . S
H421 C420 0.961 . S
H422 C420 0.961 . S
H423 C420 0.960 . S
C424 N425 1.342 . S
C424 C428 1.401 . S
C424 C429 1.499 . S
N425 Co408 1.989 . S
N425 C424 1.342 . S
N425 N426 1.388 . S
N426 Co409 1.993 1_554 S
N426 N425 1.388 . S
N426 C427 1.346 1_554 S
C427 N426 1.346 1_556 S
C427 C428 1.396 1_556 S
C427 C437 1.510 . S
C428 C424 1.401 . S
C428 C427 1.396 1_554 S
C429 C424 1.499 . S
C429 H430 0.959 . S
C429 H431 0.960 . S
C429 H432 0.961 . S
H430 C429 0.959 . S
H431 C429 0.960 . S
H432 C429 0.961 . S
O433 Co408 1.967 . S
O433 C441 1.258 . S
O434 Co409 1.941 . S
O434 C441 1.266 1_556 S
H435 C437 0.959 . S
H436 C437 0.961 . S
C437 C427 1.510 . S
C437 H435 0.959 . S
C437 H436 0.961 . S
C437 H438 0.960 . S
H438 C437 0.960 . S
H439 N419 0.862 . S
O440 Co408 1.920 . S
O440 C413 1.289 . S
C441 O433 1.258 . S
C441 O434 1.266 1_554 S
Co442 O445 1.970 . S
Co442 N459 1.989 . S
Co442 O467 1.967 . S
Co442 O474 1.920 . S
Co443 O446 1.966 . S
Co443 N452 2.022 . S
Co443 N460 1.993 . S
Co443 O468 1.941 . S
C444 O445 1.258 . S
C444 O446 1.263 . S
O445 Co442 1.970 . S
O445 C444 1.258 . S
O446 Co443 1.966 . S
O446 C444 1.263 . S
C447 O448 1.235 . S
C447 O474 1.289 . S
O448 C447 1.235 . S
C449 C451 1.400 . S
C449 N452 1.351 . S
C449 C454 1.501 . S
C450 C451 1.387 . S
C450 N453 1.341 . S
C451 C449 1.400 . S
C451 C450 1.387 . S
N452 Co443 2.022 . S
N452 C449 1.351 . S
N452 N453 1.365 . S
N453 C450 1.341 . S
N453 N452 1.365 . S
N453 H473 0.862 . S
C454 C449 1.501 . S
C454 H455 0.961 . S
C454 H456 0.961 . S
C454 H457 0.960 . S
H455 C454 0.961 . S
H456 C454 0.961 . S
H457 C454 0.960 . S
C458 N459 1.342 . S
C458 C462 1.401 . S
C458 C463 1.499 . S
N459 Co442 1.989 . S
N459 C458 1.342 . S
N459 N460 1.388 . S
N460 Co443 1.993 . S
N460 N459 1.388 . S
N460 C461 1.346 . S
C461 N460 1.346 . S
C461 C462 1.396 . S
C461 C471 1.510 . S
C462 C458 1.401 . S
C462 C461 1.396 . S
C463 C458 1.499 . S
C463 H464 0.959 . S
C463 H465 0.960 . S
C463 H466 0.961 . S
H464 C463 0.959 . S
H465 C463 0.960 . S
H466 C463 0.961 . S
O467 Co442 1.967 . S
O467 C475 1.258 . S
O468 Co443 1.941 . S
O468 C475 1.266 . S
H469 C471 0.959 . S
H470 C471 0.961 . S
C471 C461 1.510 . S
C471 H469 0.959 . S
C471 H470 0.961 . S
C471 H472 0.960 . S
H472 C471 0.960 . S
H473 N453 0.862 . S
O474 Co442 1.920 . S
O474 C447 1.289 . S
C475 O467 1.258 . S
C475 O468 1.266 . S
Co476 O479 1.970 . S
Co476 N493 1.989 . S
Co476 O501 1.967 . S
Co476 O508 1.920 . S
Co477 O480 1.966 . S
Co477 N486 2.022 . S
Co477 N494 1.993 . S
Co477 O502 1.941 . S
C478 O479 1.258 . S
C478 O480 1.263 . S
O479 Co476 1.970 . S
O479 C478 1.258 . S
O480 Co477 1.966 . S
O480 C478 1.263 . S
C481 O482 1.235 . S
C481 O508 1.289 . S
O482 C481 1.235 . S
C483 C485 1.400 . S
C483 N486 1.351 . S
C483 C488 1.501 . S
C484 C485 1.387 . S
C484 N487 1.341 . S
C485 C483 1.400 . S
C485 C484 1.387 . S
N486 Co477 2.022 . S
N486 C483 1.351 . S
N486 N487 1.365 . S
N487 C484 1.341 . S
N487 N486 1.365 . S
N487 H507 0.862 . S
C488 C483 1.501 . S
C488 H489 0.961 . S
C488 H490 0.961 . S
C488 H491 0.960 . S
H489 C488 0.961 . S
H490 C488 0.961 . S
H491 C488 0.960 . S
C492 N493 1.342 . S
C492 C496 1.401 . S
C492 C497 1.499 . S
N493 Co476 1.989 . S
N493 C492 1.342 . S
N493 N494 1.388 . S
N494 Co477 1.993 . S
N494 N493 1.388 . S
N494 C495 1.346 . S
C495 N494 1.346 . S
C495 C496 1.396 . S
C495 C505 1.510 . S
C496 C492 1.401 . S
C496 C495 1.396 . S
C497 C492 1.499 . S
C497 H498 0.959 . S
C497 H499 0.960 . S
C497 H500 0.961 . S
H498 C497 0.959 . S
H499 C497 0.960 . S
H500 C497 0.961 . S
O501 Co476 1.967 . S
O501 C509 1.258 . S
O502 Co477 1.941 . S
O502 C509 1.266 . S
H503 C505 0.959 . S
H504 C505 0.961 . S
C505 C495 1.510 . S
C505 H503 0.959 . S
C505 H504 0.961 . S
C505 H506 0.960 . S
H506 C505 0.960 . S
H507 N487 0.862 . S
O508 Co476 1.920 . S
O508 C481 1.289 . S
C509 O501 1.258 . S
C509 O502 1.266 . S
Co510 O513 1.970 . S
Co510 N527 1.989 . S
Co510 O535 1.967 . S
Co510 O542 1.920 . S
Co511 O514 1.966 . S
Co511 N520 2.022 . S
Co511 N528 1.993 . S
Co511 O536 1.941 . S
C512 O513 1.258 . S
C512 O514 1.263 . S
O513 Co510 1.970 . S
O513 C512 1.258 . S
O514 Co511 1.966 . S
O514 C512 1.263 . S
C515 O516 1.235 . S
C515 O542 1.289 . S
O516 C515 1.235 . S
C517 C519 1.400 . S
C517 N520 1.351 . S
C517 C522 1.501 . S
C518 C519 1.387 . S
C518 N521 1.341 . S
C519 C517 1.400 . S
C519 C518 1.387 . S
N520 Co511 2.022 . S
N520 C517 1.351 . S
N520 N521 1.365 . S
N521 C518 1.341 . S
N521 N520 1.365 . S
N521 H541 0.862 . S
C522 C517 1.501 . S
C522 H523 0.961 . S
C522 H524 0.961 . S
C522 H525 0.960 . S
H523 C522 0.961 . S
H524 C522 0.961 . S
H525 C522 0.960 . S
C526 N527 1.342 . S
C526 C530 1.401 . S
C526 C531 1.499 . S
N527 Co510 1.989 . S
N527 C526 1.342 . S
N527 N528 1.388 . S
N528 Co511 1.993 . S
N528 N527 1.388 . S
N528 C529 1.346 . S
C529 N528 1.346 . S
C529 C530 1.396 . S
C529 C539 1.510 . S
C530 C526 1.401 . S
C530 C529 1.396 . S
C531 C526 1.499 . S
C531 H532 0.959 . S
C531 H533 0.960 . S
C531 H534 0.961 . S
H532 C531 0.959 . S
H533 C531 0.960 . S
H534 C531 0.961 . S
O535 Co510 1.967 . S
O535 C543 1.258 . S
O536 Co511 1.941 . S
O536 C543 1.266 . S
H537 C539 0.959 . S
H538 C539 0.961 . S
C539 C529 1.510 . S
C539 H537 0.959 . S
C539 H538 0.961 . S
C539 H540 0.960 . S
H540 C539 0.960 . S
H541 N521 0.862 . S
O542 Co510 1.920 . S
O542 C515 1.289 . S
C543 O535 1.258 . S
C543 O536 1.266 . S
H544 C550 0.930 . S
H545 C553 0.930 . S
H546 C554 0.930 . S
H547 C555 0.930 . S
H548 C558 0.930 . S
H549 C559 0.930 . S
C550 H544 0.930 . S
C550 C551 1.355 . S
C550 C552 1.415 . S
C551 C550 1.355 . S
C551 C553 1.419 . S
C552 C550 1.415 . S
C552 C557 1.425 . S
C552 C559 1.409 . S
C553 H545 0.930 . S
C553 C551 1.419 . S
C553 C554 1.362 . S
C554 H546 0.930 . S
C554 C553 1.362 . S
C554 C557 1.409 . S
C555 H547 0.930 . S
C555 C556 1.355 . S
C555 C557 1.415 . S
C556 C555 1.355 . S
C556 C558 1.419 . S
C557 C552 1.425 . S
C557 C554 1.409 . S
C557 C555 1.415 . S
C558 H548 0.930 . S
C558 C556 1.419 . S
C558 C559 1.362 . S
C559 H549 0.930 . S
C559 C552 1.409 . S
C559 C558 1.362 . S
H560 C566 0.930 . S
H561 C569 0.930 . S
H562 C570 0.930 . S
H563 C571 0.930 . S
H564 C574 0.930 . S
H565 C575 0.930 . S
C566 H560 0.930 . S
C566 C567 1.355 . S
C566 C568 1.415 . S
C567 C566 1.355 . S
C567 C569 1.419 . S
C568 C566 1.415 . S
C568 C573 1.425 . S
C568 C575 1.409 . S
C569 H561 0.930 . S
C569 C567 1.419 . S
C569 C570 1.362 . S
C570 H562 0.930 . S
C570 C569 1.362 . S
C570 C573 1.409 . S
C571 H563 0.930 . S
C571 C572 1.355 . S
C571 C573 1.415 . S
C572 C571 1.355 . S
C572 C574 1.419 . S
C573 C568 1.425 . S
C573 C570 1.409 . S
C573 C571 1.415 . S
C574 H564 0.930 . S
C574 C572 1.419 . S
C574 C575 1.362 . S
C575 H565 0.930 . S
C575 C568 1.409 . S
C575 C574 1.362 . S
H576 C582 0.930 . S
H577 C585 0.930 . S
H578 C586 0.930 . S
H579 C587 0.930 . S
H580 C590 0.930 . S
H581 C591 0.930 . S
C582 H576 0.930 . S
C582 C583 1.355 . S
C582 C584 1.415 . S
C583 C582 1.355 . S
C583 C585 1.419 . S
C584 C582 1.415 . S
C584 C589 1.425 . S
C584 C591 1.409 . S
C585 H577 0.930 . S
C585 C583 1.419 . S
C585 C586 1.362 . S
C586 H578 0.930 . S
C586 C585 1.362 . S
C586 C589 1.409 . S
C587 H579 0.930 . S
C587 C588 1.355 . S
C587 C589 1.415 . S
C588 C587 1.355 . S
C588 C590 1.419 . S
C589 C584 1.425 . S
C589 C586 1.409 . S
C589 C587 1.415 . S
C590 H580 0.930 . S
C590 C588 1.419 . S
C590 C591 1.362 . S
C591 H581 0.930 . S
C591 C584 1.409 . S
C591 C590 1.362 . S
H592 C598 0.930 . S
H593 C601 0.930 . S
H594 C602 0.930 . S
H595 C603 0.930 . S
H596 C606 0.930 . S
H597 C607 0.930 . S
C598 H592 0.930 . S
C598 C599 1.355 . S
C598 C600 1.415 . S
C599 C598 1.355 . S
C599 C601 1.419 . S
C600 C598 1.415 . S
C600 C605 1.425 . S
C600 C607 1.409 . S
C601 H593 0.930 . S
C601 C599 1.419 . S
C601 C602 1.362 . S
C602 H594 0.930 . S
C602 C601 1.362 . S
C602 C605 1.409 . S
C603 H595 0.930 . S
C603 C604 1.355 . S
C603 C605 1.415 . S
C604 C603 1.355 . S
C604 C606 1.419 . S
C605 C600 1.425 . S
C605 C602 1.409 . S
C605 C603 1.415 . S
C606 H596 0.930 . S
C606 C604 1.419 . S
C606 C607 1.362 . S
C607 H597 0.930 . S
C607 C600 1.409 . S
C607 C606 1.362 . S
H608 C614 0.930 . S
H609 C617 0.930 . S
H610 C618 0.930 . S
H611 C619 0.930 . S
H612 C622 0.930 . S
H613 C623 0.930 . S
C614 H608 0.930 . S
C614 C615 1.355 . S
C614 C616 1.415 . S
C615 C614 1.355 . S
C615 C617 1.419 . S
C616 C614 1.415 . S
C616 C621 1.425 . S
C616 C623 1.409 . S
C617 H609 0.930 . S
C617 C615 1.419 . S
C617 C618 1.362 . S
C618 H610 0.930 . S
C618 C617 1.362 . S
C618 C621 1.409 . S
C619 H611 0.930 . S
C619 C620 1.355 . S
C619 C621 1.415 . S
C620 C619 1.355 . S
C620 C622 1.419 . S
C621 C616 1.425 . S
C621 C618 1.409 . S
C621 C619 1.415 . S
C622 H612 0.930 . S
C622 C620 1.419 . S
C622 C623 1.362 . S
C623 H613 0.930 . S
C623 C616 1.409 . S
C623 C622 1.362 . S
H624 C630 0.930 . S
H625 C633 0.930 . S
H626 C634 0.930 . S
H627 C635 0.930 . S
H628 C638 0.930 . S
H629 C639 0.930 . S
C630 H624 0.930 . S
C630 C631 1.355 . S
C630 C632 1.415 . S
C631 C630 1.355 . S
C631 C633 1.419 . S
C632 C630 1.415 . S
C632 C637 1.425 . S
C632 C639 1.409 . S
C633 H625 0.930 . S
C633 C631 1.419 . S
C633 C634 1.362 . S
C634 H626 0.930 . S
C634 C633 1.362 . S
C634 C637 1.409 . S
C635 H627 0.930 . S
C635 C636 1.355 . S
C635 C637 1.415 . S
C636 C635 1.355 . S
C636 C638 1.419 . S
C637 C632 1.425 . S
C637 C634 1.409 . S
C637 C635 1.415 . S
C638 H628 0.930 . S
C638 C636 1.419 . S
C638 C639 1.362 . S
C639 H629 0.930 . S
C639 C632 1.409 . S
C639 C638 1.362 . S
H640 C646 0.930 . S
H641 C649 0.930 . S
H642 C650 0.930 . S
H643 C651 0.930 . S
H644 C654 0.930 . S
H645 C655 0.930 . S
C646 H640 0.930 . S
C646 C647 1.355 . S
C646 C648 1.415 . S
C647 C646 1.355 . S
C647 C649 1.419 . S
C648 C646 1.415 . S
C648 C653 1.425 . S
C648 C655 1.409 . S
C649 H641 0.930 . S
C649 C647 1.419 . S
C649 C650 1.362 . S
C650 H642 0.930 . S
C650 C649 1.362 . S
C650 C653 1.409 . S
C651 H643 0.930 . S
C651 C652 1.355 . S
C651 C653 1.415 . S
C652 C651 1.355 . S
C652 C654 1.419 . S
C653 C648 1.425 . S
C653 C650 1.409 . S
C653 C651 1.415 . S
C654 H644 0.930 . S
C654 C652 1.419 . S
C654 C655 1.362 . S
C655 H645 0.930 . S
C655 C648 1.409 . S
C655 C654 1.362 . S
H656 C662 0.930 . S
H657 C665 0.930 . S
H658 C666 0.930 . S
H659 C667 0.930 . S
H660 C670 0.930 . S
H661 C671 0.930 . S
C662 H656 0.930 . S
C662 C663 1.355 . S
C662 C664 1.415 . S
C663 C662 1.355 . S
C663 C665 1.419 . S
C664 C662 1.415 . S
C664 C669 1.425 . S
C664 C671 1.409 . S
C665 H657 0.930 . S
C665 C663 1.419 . S
C665 C666 1.362 . S
C666 H658 0.930 . S
C666 C665 1.362 . S
C666 C669 1.409 . S
C667 H659 0.930 . S
C667 C668 1.355 . S
C667 C669 1.415 . S
C668 C667 1.355 . S
C668 C670 1.419 . S
C669 C664 1.425 . S
C669 C666 1.409 . S
C669 C667 1.415 . S
C670 H660 0.930 . S
C670 C668 1.419 . S
C670 C671 1.362 . S
C671 H661 0.930 . S
C671 C664 1.409 . S
C671 C670 1.362 . S
H672 C678 0.930 . S
H673 C681 0.930 . S
H674 C682 0.930 . S
H675 C683 0.930 . S
H676 C686 0.930 . S
H677 C687 0.930 . S
C678 H672 0.930 . S
C678 C679 1.355 . S
C678 C680 1.415 . S
C679 C678 1.355 . S
C679 C681 1.419 . S
C680 C678 1.415 . S
C680 C685 1.425 . S
C680 C687 1.409 . S
C681 H673 0.930 . S
C681 C679 1.419 . S
C681 C682 1.362 . S
C682 H674 0.930 . S
C682 C681 1.362 . S
C682 C685 1.409 . S
C683 H675 0.930 . S
C683 C684 1.355 . S
C683 C685 1.415 . S
C684 C683 1.355 . S
C684 C686 1.419 . S
C685 C680 1.425 . S
C685 C682 1.409 . S
C685 C683 1.415 . S
C686 H676 0.930 . S
C686 C684 1.419 . S
C686 C687 1.362 . S
C687 H677 0.930 . S
C687 C680 1.409 . S
C687 C686 1.362 . S
H688 C694 0.930 . S
H689 C697 0.930 . S
H690 C698 0.930 . S
H691 C699 0.930 . S
H692 C702 0.930 . S
H693 C703 0.930 . S
C694 H688 0.930 . S
C694 C695 1.355 . S
C694 C696 1.415 . S
C695 C694 1.355 . S
C695 C697 1.419 . S
C696 C694 1.415 . S
C696 C701 1.425 . S
C696 C703 1.409 . S
C697 H689 0.930 . S
C697 C695 1.419 . S
C697 C698 1.362 . S
C698 H690 0.930 . S
C698 C697 1.362 . S
C698 C701 1.409 . S
C699 H691 0.930 . S
C699 C700 1.355 . S
C699 C701 1.415 . S
C700 C699 1.355 . S
C700 C702 1.419 . S
C701 C696 1.425 . S
C701 C698 1.409 . S
C701 C699 1.415 . S
C702 H692 0.930 . S
C702 C700 1.419 . S
C702 C703 1.362 . S
C703 H693 0.930 . S
C703 C696 1.409 . S
C703 C702 1.362 . S
H704 C710 0.930 . S
H705 C713 0.930 . S
H706 C714 0.930 . S
H707 C715 0.930 . S
H708 C718 0.930 . S
H709 C719 0.930 . S
C710 H704 0.930 . S
C710 C711 1.355 . S
C710 C712 1.415 . S
C711 C710 1.355 . S
C711 C713 1.419 . S
C712 C710 1.415 . S
C712 C717 1.425 . S
C712 C719 1.409 . S
C713 H705 0.930 . S
C713 C711 1.419 . S
C713 C714 1.362 . S
C714 H706 0.930 . S
C714 C713 1.362 . S
C714 C717 1.409 . S
C715 H707 0.930 . S
C715 C716 1.355 . S
C715 C717 1.415 . S
C716 C715 1.355 . S
C716 C718 1.419 . S
C717 C712 1.425 . S
C717 C714 1.409 . S
C717 C715 1.415 . S
C718 H708 0.930 . S
C718 C716 1.419 . S
C718 C719 1.362 . S
C719 H709 0.930 . S
C719 C712 1.409 . S
C719 C718 1.362 . S
H720 C726 0.930 . S
H721 C729 0.930 . S
H722 C730 0.930 . S
H723 C731 0.930 . S
H724 C734 0.930 . S
H725 C735 0.930 . S
C726 H720 0.930 . S
C726 C727 1.355 . S
C726 C728 1.415 . S
C727 C726 1.355 . S
C727 C729 1.419 . S
C728 C726 1.415 . S
C728 C733 1.425 . S
C728 C735 1.409 . S
C729 H721 0.930 . S
C729 C727 1.419 . S
C729 C730 1.362 . S
C730 H722 0.930 . S
C730 C729 1.362 . S
C730 C733 1.409 . S
C731 H723 0.930 . S
C731 C732 1.355 . S
C731 C733 1.415 . S
C732 C731 1.355 . S
C732 C734 1.419 . S
C733 C728 1.425 . S
C733 C730 1.409 . S
C733 C731 1.415 . S
C734 H724 0.930 . S
C734 C732 1.419 . S
C734 C735 1.362 . S
C735 H725 0.930 . S
C735 C728 1.409 . S
C735 C734 1.362 . S
H736 C742 0.930 . S
H737 C745 0.930 . S
H738 C746 0.930 . S
H739 C747 0.930 . S
H740 C750 0.930 . S
H741 C751 0.930 . S
C742 H736 0.930 . S
C742 C743 1.355 . S
C742 C744 1.415 . S
C743 C742 1.355 . S
C743 C745 1.419 . S
C744 C742 1.415 . S
C744 C749 1.425 . S
C744 C751 1.409 . S
C745 H737 0.930 . S
C745 C743 1.419 . S
C745 C746 1.362 . S
C746 H738 0.930 . S
C746 C745 1.362 . S
C746 C749 1.409 . S
C747 H739 0.930 . S
C747 C748 1.355 . S
C747 C749 1.415 . S
C748 C747 1.355 . S
C748 C750 1.419 . S
C749 C744 1.425 . S
C749 C746 1.409 . S
C749 C747 1.415 . S
C750 H740 0.930 . S
C750 C748 1.419 . S
C750 C751 1.362 . S
C751 H741 0.930 . S
C751 C744 1.409 . S
C751 C750 1.362 . S
H752 C758 0.930 . S
H753 C761 0.930 . S
H754 C762 0.930 . S
H755 C763 0.930 . S
H756 C766 0.930 . S
H757 C767 0.930 . S
C758 H752 0.930 . S
C758 C759 1.355 . S
C758 C760 1.415 . S
C759 C758 1.355 . S
C759 C761 1.419 . S
C760 C758 1.415 . S
C760 C765 1.425 . S
C760 C767 1.409 . S
C761 H753 0.930 . S
C761 C759 1.419 . S
C761 C762 1.362 . S
C762 H754 0.930 . S
C762 C761 1.362 . S
C762 C765 1.409 . S
C763 H755 0.930 . S
C763 C764 1.355 . S
C763 C765 1.415 . S
C764 C763 1.355 . S
C764 C766 1.419 . S
C765 C760 1.425 . S
C765 C762 1.409 . S
C765 C763 1.415 . S
C766 H756 0.930 . S
C766 C764 1.419 . S
C766 C767 1.362 . S
C767 H757 0.930 . S
C767 C760 1.409 . S
C767 C766 1.362 . S
H768 C774 0.930 . S
H769 C777 0.930 . S
H770 C778 0.930 . S
H771 C779 0.930 . S
H772 C782 0.930 . S
H773 C783 0.930 . S
C774 H768 0.930 . S
C774 C775 1.355 . S
C774 C776 1.415 . S
C775 C774 1.355 . S
C775 C777 1.419 . S
C776 C774 1.415 . S
C776 C781 1.425 . S
C776 C783 1.409 . S
C777 H769 0.930 . S
C777 C775 1.419 . S
C777 C778 1.362 . S
C778 H770 0.930 . S
C778 C777 1.362 . S
C778 C781 1.409 . S
C779 H771 0.930 . S
C779 C780 1.355 . S
C779 C781 1.415 . S
C780 C779 1.355 . S
C780 C782 1.419 . S
C781 C776 1.425 . S
C781 C778 1.409 . S
C781 C779 1.415 . S
C782 H772 0.930 . S
C782 C780 1.419 . S
C782 C783 1.362 . S
C783 H773 0.930 . S
C783 C776 1.409 . S
C783 C782 1.362 . S
H784 C790 0.930 . S
H785 C793 0.930 . S
H786 C794 0.930 . S
H787 C795 0.930 . S
H788 C798 0.930 . S
H789 C799 0.930 . S
C790 H784 0.930 . S
C790 C791 1.355 . S
C790 C792 1.415 . S
C791 C790 1.355 . S
C791 C793 1.419 . S
C792 C790 1.415 . S
C792 C797 1.425 . S
C792 C799 1.409 . S
C793 H785 0.930 . S
C793 C791 1.419 . S
C793 C794 1.362 . S
C794 H786 0.930 . S
C794 C793 1.362 . S
C794 C797 1.409 . S
C795 H787 0.930 . S
C795 C796 1.355 . S
C795 C797 1.415 . S
C796 C795 1.355 . S
C796 C798 1.419 . S
C797 C792 1.425 . S
C797 C794 1.409 . S
C797 C795 1.415 . S
C798 H788 0.930 . S
C798 C796 1.419 . S
C798 C799 1.362 . S
C799 H789 0.930 . S
C799 C792 1.409 . S
C799 C798 1.362 . S
H800 C806 0.930 1_556 S
H801 C809 0.930 . S
H802 C810 0.930 . S
H803 C811 0.930 . S
H804 C814 0.930 . S
H805 C815 0.930 . S
C806 H800 0.930 1_554 S
C806 C807 1.355 . S
C806 C808 1.415 . S
C807 C806 1.355 . S
C807 C809 1.419 . S
C808 C806 1.415 . S
C808 C813 1.425 1_455 S
C808 C815 1.409 1_554 S
C809 H801 0.930 . S
C809 C807 1.419 . S
C809 C810 1.362 1_455 S
C810 H802 0.930 . S
C810 C809 1.362 1_655 S
C810 C813 1.409 . S
C811 H803 0.930 . S
C811 C812 1.355 . S
C811 C813 1.415 . S
C812 C811 1.355 . S
C812 C814 1.419 1_554 S
C813 C808 1.425 1_655 S
C813 C810 1.409 . S
C813 C811 1.415 . S
C814 H804 0.930 . S
C814 C812 1.419 1_556 S
C814 C815 1.362 1_655 S
C815 H805 0.930 . S
C815 C808 1.409 1_556 S
C815 C814 1.362 1_455 S
H816 C822 0.930 . S
H817 C825 0.930 . S
H818 C826 0.930 . S
H819 C827 0.930 . S
H820 C830 0.930 . S
H821 C831 0.930 . S
C822 H816 0.930 . S
C822 C823 1.355 . S
C822 C824 1.415 . S
C823 C822 1.355 . S
C823 C825 1.419 . S
C824 C822 1.415 . S
C824 C829 1.425 . S
C824 C831 1.409 . S
C825 H817 0.930 . S
C825 C823 1.419 . S
C825 C826 1.362 . S
C826 H818 0.930 . S
C826 C825 1.362 . S
C826 C829 1.409 . S
C827 H819 0.930 . S
C827 C828 1.355 . S
C827 C829 1.415 . S
C828 C827 1.355 . S
C828 C830 1.419 . S
C829 C824 1.425 . S
C829 C826 1.409 . S
C829 C827 1.415 . S
C830 H820 0.930 . S
C830 C828 1.419 . S
C830 C831 1.362 . S
C831 H821 0.930 . S
C831 C824 1.409 . S
C831 C830 1.362 . S
H832 C838 0.930 . S
H833 C841 0.930 . S
H834 C842 0.930 . S
H835 C843 0.930 . S
H836 C846 0.930 . S
H837 C847 0.930 . S
C838 H832 0.930 . S
C838 C839 1.355 . S
C838 C840 1.415 . S
C839 C838 1.355 . S
C839 C841 1.419 . S
C840 C838 1.415 . S
C840 C845 1.425 1_565 S
C840 C847 1.409 . S
C841 H833 0.930 . S
C841 C839 1.419 . S
C841 C842 1.362 1_565 S
C842 H834 0.930 . S
C842 C841 1.362 1_545 S
C842 C845 1.409 . S
C843 H835 0.930 . S
C843 C844 1.355 . S
C843 C845 1.415 . S
C844 C843 1.355 . S
C844 C846 1.419 . S
C845 C840 1.425 1_545 S
C845 C842 1.409 . S
C845 C843 1.415 . S
C846 H836 0.930 . S
C846 C844 1.419 . S
C846 C847 1.362 1_545 S
C847 H837 0.930 . S
C847 C840 1.409 . S
C847 C846 1.362 1_565 S
H848 C854 0.930 . S
H849 C857 0.930 . S
H850 C858 0.930 . S
H851 C859 0.930 . S
H852 C862 0.930 . S
H853 C863 0.930 . S
C854 H848 0.930 . S
C854 C855 1.355 . S
C854 C856 1.415 1_545 S
C855 C854 1.355 . S
C855 C857 1.419 . S
C856 C854 1.415 1_565 S
C856 C861 1.425 1_465 S
C856 C863 1.409 . S
C857 H849 0.930 . S
C857 C855 1.419 . S
C857 C858 1.362 1_455 S
C858 H850 0.930 . S
C858 C857 1.362 1_655 S
C858 C861 1.409 . S
C859 H851 0.930 . S
C859 C860 1.355 . S
C859 C861 1.415 1_565 S
C860 C859 1.355 . S
C860 C862 1.419 . S
C861 C856 1.425 1_645 S
C861 C858 1.409 . S
C861 C859 1.415 1_545 S
C862 H852 0.930 . S
C862 C860 1.419 . S
C862 C863 1.362 1_655 S
C863 H853 0.930 . S
C863 C856 1.409 . S
C863 C862 1.362 1_455 S
H864 C870 0.930 . S
H865 C873 0.930 . S
H866 C874 0.930 . S
H867 C875 0.930 . S
H868 C878 0.930 . S
H869 C879 0.930 . S
C870 H864 0.930 . S
C870 C871 1.355 . S
C870 C872 1.415 . S
C871 C870 1.355 . S
C871 C873 1.419 . S
C872 C870 1.415 . S
C872 C877 1.425 1_655 S
C872 C879 1.409 . S
C873 H865 0.930 . S
C873 C871 1.419 . S
C873 C874 1.362 1_655 S
C874 H866 0.930 . S
C874 C873 1.362 1_455 S
C874 C877 1.409 . S
C875 H867 0.930 . S
C875 C876 1.355 . S
C875 C877 1.415 . S
C876 C875 1.355 . S
C876 C878 1.419 . S
C877 C872 1.425 1_455 S
C877 C874 1.409 . S
C877 C875 1.415 . S
C878 H868 0.930 . S
C878 C876 1.419 . S
C878 C879 1.362 1_455 S
C879 H869 0.930 . S
C879 C872 1.409 . S
C879 C878 1.362 1_655 S
H880 C886 0.930 . S
H881 C889 0.930 . S
H882 C890 0.930 . S
H883 C891 0.930 . S
H884 C894 0.930 . S
H885 C895 0.930 . S
C886 H880 0.930 . S
C886 C887 1.355 . S
C886 C888 1.415 . S
C887 C886 1.355 . S
C887 C889 1.419 . S
C888 C886 1.415 . S
C888 C893 1.425 . S
C888 C895 1.409 . S
C889 H881 0.930 . S
C889 C887 1.419 . S
C889 C890 1.362 . S
C890 H882 0.930 . S
C890 C889 1.362 . S
C890 C893 1.409 . S
C891 H883 0.930 . S
C891 C892 1.355 . S
C891 C893 1.415 . S
C892 C891 1.355 . S
C892 C894 1.419 . S
C893 C888 1.425 . S
C893 C890 1.409 . S
C893 C891 1.415 . S
C894 H884 0.930 . S
C894 C892 1.419 . S
C894 C895 1.362 . S
C895 H885 0.930 . S
C895 C888 1.409 . S
C895 C894 1.362 . S
H896 C902 0.930 . S
H897 C905 0.930 . S
H898 C906 0.930 . S
H899 C907 0.930 . S
H900 C910 0.930 . S
H901 C911 0.930 . S
C902 H896 0.930 . S
C902 C903 1.355 . S
C902 C904 1.415 1_545 S
C903 C902 1.355 . S
C903 C905 1.419 . S
C904 C902 1.415 1_565 S
C904 C909 1.425 1_565 S
C904 C911 1.409 . S
C905 H897 0.930 . S
C905 C903 1.419 . S
C905 C906 1.362 . S
C906 H898 0.930 . S
C906 C905 1.362 . S
C906 C909 1.409 . S
C907 H899 0.930 . S
C907 C908 1.355 . S
C907 C909 1.415 1_565 S
C908 C907 1.355 . S
C908 C910 1.419 . S
C909 C904 1.425 1_545 S
C909 C906 1.409 . S
C909 C907 1.415 1_545 S
C910 H900 0.930 . S
C910 C908 1.419 . S
C910 C911 1.362 . S
C911 H901 0.930 . S
C911 C904 1.409 . S
C911 C910 1.362 . S
H912 C918 0.930 . S
H913 C921 0.930 . S
H914 C922 0.930 . S
H915 C923 0.930 . S
H916 C926 0.930 . S
H917 C927 0.930 . S
C918 H912 0.930 . S
C918 C919 1.355 . S
C918 C920 1.415 1_565 S
C919 C918 1.355 . S
C919 C921 1.419 . S
C920 C918 1.415 1_545 S
C920 C925 1.425 1_445 S
C920 C927 1.409 . S
C921 H913 0.930 . S
C921 C919 1.419 . S
C921 C922 1.362 1_455 S
C922 H914 0.930 . S
C922 C921 1.362 1_655 S
C922 C925 1.409 . S
C923 H915 0.930 . S
C923 C924 1.355 . S
C923 C925 1.415 1_545 S
C924 C923 1.355 . S
C924 C926 1.419 . S
C925 C920 1.425 1_665 S
C925 C922 1.409 . S
C925 C923 1.415 1_565 S
C926 H916 0.930 . S
C926 C924 1.419 . S
C926 C927 1.362 1_655 S
C927 H917 0.930 . S
C927 C920 1.409 . S
C927 C926 1.362 1_455 S
H928 C934 0.930 . S
H929 C937 0.930 . S
H930 C938 0.930 . S
H931 C939 0.930 . S
H932 C942 0.930 . S
H933 C943 0.930 . S
C934 H928 0.930 . S
C934 C935 1.355 . S
C934 C936 1.415 . S
C935 C934 1.355 . S
C935 C937 1.419 . S
C936 C934 1.415 . S
C936 C941 1.425 . S
C936 C943 1.409 . S
C937 H929 0.930 . S
C937 C935 1.419 . S
C937 C938 1.362 . S
C938 H930 0.930 . S
C938 C937 1.362 . S
C938 C941 1.409 . S
C939 H931 0.930 . S
C939 C940 1.355 . S
C939 C941 1.415 . S
C940 C939 1.355 . S
C940 C942 1.419 . S
C941 C936 1.425 . S
C941 C938 1.409 . S
C941 C939 1.415 . S
C942 H932 0.930 . S
C942 C940 1.419 . S
C942 C943 1.362 . S
C943 H933 0.930 . S
C943 C936 1.409 . S
C943 C942 1.362 . S
H944 C950 0.930 . S
H945 C953 0.930 . S
H946 C954 0.930 . S
H947 C955 0.930 . S
H948 C958 0.930 1_545 S
H949 C959 0.930 . S
C950 H944 0.930 . S
C950 C951 1.355 . S
C950 C952 1.415 . S
C951 C950 1.355 . S
C951 C953 1.419 . S
C952 C950 1.415 . S
C952 C957 1.425 . S
C952 C959 1.409 . S
C953 H945 0.930 . S
C953 C951 1.419 . S
C953 C954 1.362 . S
C954 H946 0.930 . S
C954 C953 1.362 . S
C954 C957 1.409 . S
C955 H947 0.930 . S
C955 C956 1.355 1_565 S
C955 C957 1.415 . S
C956 C955 1.355 1_545 S
C956 C958 1.419 1_545 S
C957 C952 1.425 . S
C957 C954 1.409 . S
C957 C955 1.415 . S
C958 H948 0.930 1_565 S
C958 C956 1.419 1_565 S
C958 C959 1.362 . S
C959 H949 0.930 . S
C959 C952 1.409 . S
C959 C958 1.362 . S
H960 C966 0.930 . S
H961 C969 0.930 1_655 S
H962 C970 0.930 . S
H963 C971 0.930 . S
H964 C974 0.930 . S
H965 C975 0.930 . S
C966 H960 0.930 . S
C966 C967 1.355 1_455 S
C966 C968 1.415 . S
C967 C966 1.355 1_655 S
C967 C969 1.419 1_655 S
C968 C966 1.415 . S
C968 C973 1.425 . S
C968 C975 1.409 . S
C969 H961 0.930 1_455 S
C969 C967 1.419 1_455 S
C969 C970 1.362 . S
C970 H962 0.930 . S
C970 C969 1.362 . S
C970 C973 1.409 . S
C971 H963 0.930 . S
C971 C972 1.355 . S
C971 C973 1.415 . S
C972 C971 1.355 . S
C972 C974 1.419 . S
C973 C968 1.425 . S
C973 C970 1.409 . S
C973 C971 1.415 . S
C974 H964 0.930 . S
C974 C972 1.419 . S
C974 C975 1.362 . S
C975 H965 0.930 . S
C975 C968 1.409 . S
C975 C974 1.362 . S
H976 C982 0.930 . S
H977 C985 0.930 . S
H978 C986 0.930 . S
H979 C987 0.930 . S
H980 C990 0.930 . S
H981 C991 0.930 . S
C982 H976 0.930 . S
C982 C983 1.355 . S
C982 C984 1.415 . S
C983 C982 1.355 . S
C983 C985 1.419 . S
C984 C982 1.415 . S
C984 C989 1.425 . S
C984 C991 1.409 . S
C985 H977 0.930 . S
C985 C983 1.419 . S
C985 C986 1.362 . S
C986 H978 0.930 . S
C986 C985 1.362 . S
C986 C989 1.409 . S
C987 H979 0.930 . S
C987 C988 1.355 . S
C987 C989 1.415 . S
C988 C987 1.355 . S
C988 C990 1.419 . S
C989 C984 1.425 . S
C989 C986 1.409 . S
C989 C987 1.415 . S
C990 H980 0.930 . S
C990 C988 1.419 . S
C990 C991 1.362 . S
C991 H981 0.930 . S
C991 C984 1.409 . S
C991 C990 1.362 . S
H992 C998 0.930 . S
H993 C1001 0.930 . S
H994 C1002 0.930 . S
H995 C1003 0.930 . S
H996 C1006 0.930 . S
H997 C1007 0.930 . S
C998 H992 0.930 . S
C998 C999 1.355 . S
C998 C1000 1.415 . S
C999 C998 1.355 . S
C999 C1001 1.419 . S
C1000 C998 1.415 . S
C1000 C1005 1.425 . S
C1000 C1007 1.409 . S
C1001 H993 0.930 . S
C1001 C999 1.419 . S
C1001 C1002 1.362 . S
C1002 H994 0.930 . S
C1002 C1001 1.362 . S
C1002 C1005 1.409 . S
C1003 H995 0.930 . S
C1003 C1004 1.355 . S
C1003 C1005 1.415 . S
C1004 C1003 1.355 . S
C1004 C1006 1.419 . S
C1005 C1000 1.425 . S
C1005 C1002 1.409 . S
C1005 C1003 1.415 . S
C1006 H996 0.930 . S
C1006 C1004 1.419 . S
C1006 C1007 1.362 . S
C1007 H997 0.930 . S
C1007 C1000 1.409 . S
C1007 C1006 1.362 . S
H1008 C1014 0.930 . S
H1009 C1017 0.930 . S
H1010 C1018 0.930 . S
H1011 C1019 0.930 . S
H1012 C1022 0.930 1_565 S
H1013 C1023 0.930 . S
C1014 H1008 0.930 . S
C1014 C1015 1.355 . S
C1014 C1016 1.415 . S
C1015 C1014 1.355 . S
C1015 C1017 1.419 . S
C1016 C1014 1.415 . S
C1016 C1021 1.425 . S
C1016 C1023 1.409 . S
C1017 H1009 0.930 . S
C1017 C1015 1.419 . S
C1017 C1018 1.362 . S
C1018 H1010 0.930 . S
C1018 C1017 1.362 . S
C1018 C1021 1.409 . S
C1019 H1011 0.930 . S
C1019 C1020 1.355 1_545 S
C1019 C1021 1.415 . S
C1020 C1019 1.355 1_565 S
C1020 C1022 1.419 1_565 S
C1021 C1016 1.425 . S
C1021 C1018 1.409 . S
C1021 C1019 1.415 . S
C1022 H1012 0.930 1_545 S
C1022 C1020 1.419 1_545 S
C1022 C1023 1.362 . S
C1023 H1013 0.930 . S
C1023 C1016 1.409 . S
C1023 C1022 1.362 . S
H1024 C1030 0.930 1_556 S
H1025 C1033 0.930 1_455 S
H1026 C1034 0.930 . S
H1027 C1035 0.930 . S
H1028 C1038 0.930 . S
H1029 C1039 0.930 . S
C1030 H1024 0.930 1_554 S
C1030 C1031 1.355 1_655 S
C1030 C1032 1.415 . S
C1031 C1030 1.355 1_455 S
C1031 C1033 1.419 1_455 S
C1032 C1030 1.415 . S
C1032 C1037 1.425 . S
C1032 C1039 1.409 1_554 S
C1033 H1025 0.930 1_655 S
C1033 C1031 1.419 1_655 S
C1033 C1034 1.362 . S
C1034 H1026 0.930 . S
C1034 C1033 1.362 . S
C1034 C1037 1.409 . S
C1035 H1027 0.930 . S
C1035 C1036 1.355 . S
C1035 C1037 1.415 . S
C1036 C1035 1.355 . S
C1036 C1038 1.419 1_554 S
C1037 C1032 1.425 . S
C1037 C1034 1.409 . S
C1037 C1035 1.415 . S
C1038 H1028 0.930 . S
C1038 C1036 1.419 1_556 S
C1038 C1039 1.362 . S
C1039 H1029 0.930 . S
C1039 C1032 1.409 1_556 S
C1039 C1038 1.362 . S
H1040 C1046 0.930 . S
H1041 C1049 0.930 . S
H1042 C1050 0.930 . S
H1043 C1051 0.930 . S
H1044 C1054 0.930 . S
H1045 C1055 0.930 . S
C1046 H1040 0.930 . S
C1046 C1047 1.355 . S
C1046 C1048 1.415 . S
C1047 C1046 1.355 . S
C1047 C1049 1.419 . S
C1048 C1046 1.415 . S
C1048 C1053 1.425 . S
C1048 C1055 1.409 . S
C1049 H1041 0.930 . S
C1049 C1047 1.419 . S
C1049 C1050 1.362 . S
C1050 H1042 0.930 . S
C1050 C1049 1.362 . S
C1050 C1053 1.409 . S
C1051 H1043 0.930 . S
C1051 C1052 1.355 . S
C1051 C1053 1.415 . S
C1052 C1051 1.355 . S
C1052 C1054 1.419 . S
C1053 C1048 1.425 . S
C1053 C1050 1.409 . S
C1053 C1051 1.415 . S
C1054 H1044 0.930 . S
C1054 C1052 1.419 . S
C1054 C1055 1.362 . S
C1055 H1045 0.930 . S
C1055 C1048 1.409 . S
C1055 C1054 1.362 . S
H1056 C1062 0.930 . S
H1057 C1065 0.930 1_455 S
H1058 C1066 0.930 . S
H1059 C1067 0.930 . S
H1060 C1070 0.930 . S
H1061 C1071 0.930 . S
C1062 H1056 0.930 . S
C1062 C1063 1.355 1_655 S
C1062 C1064 1.415 . S
C1063 C1062 1.355 1_455 S
C1063 C1065 1.419 1_455 S
C1064 C1062 1.415 . S
C1064 C1069 1.425 . S
C1064 C1071 1.409 . S
C1065 H1057 0.930 1_655 S
C1065 C1063 1.419 1_655 S
C1065 C1066 1.362 . S
C1066 H1058 0.930 . S
C1066 C1065 1.362 . S
C1066 C1069 1.409 . S
C1067 H1059 0.930 . S
C1067 C1068 1.355 . S
C1067 C1069 1.415 . S
C1068 C1067 1.355 . S
C1068 C1070 1.419 . S
C1069 C1064 1.425 . S
C1069 C1066 1.409 . S
C1069 C1067 1.415 . S
C1070 H1060 0.930 . S
C1070 C1068 1.419 . S
C1070 C1071 1.362 . S
C1071 H1061 0.930 . S
C1071 C1064 1.409 . S
C1071 C1070 1.362 . S
H1072 C1078 0.930 . S
H1073 C1081 0.930 . S
H1074 C1082 0.930 . S
H1075 C1083 0.930 . S
H1076 C1086 0.930 . S
H1077 C1087 0.930 . S
C1078 H1072 0.930 . S
C1078 C1079 1.355 . S
C1078 C1080 1.415 . S
C1079 C1078 1.355 . S
C1079 C1081 1.419 . S
C1080 C1078 1.415 . S
C1080 C1085 1.425 . S
C1080 C1087 1.409 . S
C1081 H1073 0.930 . S
C1081 C1079 1.419 . S
C1081 C1082 1.362 . S
C1082 H1074 0.930 . S
C1082 C1081 1.362 . S
C1082 C1085 1.409 . S
C1083 H1075 0.930 . S
C1083 C1084 1.355 . S
C1083 C1085 1.415 . S
C1084 C1083 1.355 . S
C1084 C1086 1.419 . S
C1085 C1080 1.425 . S
C1085 C1082 1.409 . S
C1085 C1083 1.415 . S
C1086 H1076 0.930 . S
C1086 C1084 1.419 . S
C1086 C1087 1.362 . S
C1087 H1077 0.930 . S
C1087 C1080 1.409 . S
C1087 C1086 1.362 . S
H1088 C1094 0.930 . S
H1089 C1097 0.930 . S
H1090 C1098 0.930 . S
H1091 C1099 0.930 1_556 S
H1092 C1102 0.930 . S
H1093 C1103 0.930 . S
C1094 H1088 0.930 . S
C1094 C1095 1.355 . S
C1094 C1096 1.415 . S
C1095 C1094 1.355 . S
C1095 C1097 1.419 1_554 S
C1096 C1094 1.415 . S
C1096 C1101 1.425 . S
C1096 C1103 1.409 . S
C1097 H1089 0.930 . S
C1097 C1095 1.419 1_556 S
C1097 C1098 1.362 . S
C1098 H1090 0.930 . S
C1098 C1097 1.362 . S
C1098 C1101 1.409 1_556 S
C1099 H1091 0.930 1_554 S
C1099 C1100 1.355 . S
C1099 C1101 1.415 . S
C1100 C1099 1.355 . S
C1100 C1102 1.419 . S
C1101 C1096 1.425 . S
C1101 C1098 1.409 1_554 S
C1101 C1099 1.415 . S
C1102 H1092 0.930 . S
C1102 C1100 1.419 . S
C1102 C1103 1.362 . S
C1103 H1093 0.930 . S
C1103 C1096 1.409 . S
C1103 C1102 1.362 . S
H1104 C1110 0.930 . S
H1105 C1113 0.930 . S
H1106 C1114 0.930 . S
H1107 C1115 0.930 . S
H1108 C1118 0.930 1_565 S
H1109 C1119 0.930 . S
C1110 H1104 0.930 . S
C1110 C1111 1.355 . S
C1110 C1112 1.415 . S
C1111 C1110 1.355 . S
C1111 C1113 1.419 . S
C1112 C1110 1.415 . S
C1112 C1117 1.425 . S
C1112 C1119 1.409 . S
C1113 H1105 0.930 . S
C1113 C1111 1.419 . S
C1113 C1114 1.362 . S
C1114 H1106 0.930 . S
C1114 C1113 1.362 . S
C1114 C1117 1.409 . S
C1115 H1107 0.930 . S
C1115 C1116 1.355 1_545 S
C1115 C1117 1.415 . S
C1116 C1115 1.355 1_565 S
C1116 C1118 1.419 1_565 S
C1117 C1112 1.425 . S
C1117 C1114 1.409 . S
C1117 C1115 1.415 . S
C1118 H1108 0.930 1_545 S
C1118 C1116 1.419 1_545 S
C1118 C1119 1.362 . S
C1119 H1109 0.930 . S
C1119 C1112 1.409 . S
C1119 C1118 1.362 . S
H1120 C1126 0.930 . S
H1121 C1129 0.930 1_655 S
H1122 C1130 0.933 1_556 S
H1123 C1131 0.930 . S
H1124 C1134 0.930 . S
H1125 C1135 0.930 . S
C1126 H1120 0.930 . S
C1126 C1127 1.355 1_455 S
C1126 C1128 1.415 . S
C1127 C1126 1.355 1_655 S
C1127 C1129 1.419 1_655 S
C1128 C1126 1.415 . S
C1128 C1133 1.425 . S
C1128 C1135 1.409 . S
C1129 H1121 0.930 1_455 S
C1129 C1127 1.419 1_455 S
C1129 C1130 1.362 . S
C1130 H1122 0.933 1_554 S
C1130 C1129 1.362 . S
C1130 C1133 1.409 . S
C1131 H1123 0.930 . S
C1131 C1132 1.355 . S
C1131 C1133 1.415 . S
C1132 C1131 1.355 . S
C1132 C1134 1.419 . S
C1133 C1128 1.425 . S
C1133 C1130 1.409 . S
C1133 C1131 1.415 . S
C1134 H1124 0.930 . S
C1134 C1132 1.419 . S
C1134 C1135 1.362 . S
C1135 H1125 0.930 . S
C1135 C1128 1.409 . S
C1135 C1134 1.362 . S
H1136 C1142 0.930 . S
H1137 C1145 0.930 . S
H1138 C1146 0.930 . S
H1139 C1147 0.930 . S
H1140 C1150 0.930 . S
H1141 C1151 0.930 . S
C1142 H1136 0.930 . S
C1142 C1143 1.355 . S
C1142 C1144 1.415 . S
C1143 C1142 1.355 . S
C1143 C1145 1.419 . S
C1144 C1142 1.415 . S
C1144 C1149 1.425 . S
C1144 C1151 1.409 . S
C1145 H1137 0.930 . S
C1145 C1143 1.419 . S
C1145 C1146 1.362 . S
C1146 H1138 0.930 . S
C1146 C1145 1.362 . S
C1146 C1149 1.409 . S
C1147 H1139 0.930 . S
C1147 C1148 1.355 . S
C1147 C1149 1.415 . S
C1148 C1147 1.355 . S
C1148 C1150 1.419 . S
C1149 C1144 1.425 . S
C1149 C1146 1.409 . S
C1149 C1147 1.415 . S
C1150 H1140 0.930 . S
C1150 C1148 1.419 . S
C1150 C1151 1.362 . S
C1151 H1141 0.930 . S
C1151 C1144 1.409 . S
C1151 C1150 1.362 . S
H1152 C1158 0.930 . S
H1153 C1161 0.930 . S
H1154 C1162 0.930 . S
H1155 C1163 0.930 . S
H1156 C1166 0.930 . S
H1157 C1167 0.930 . S
C1158 H1152 0.930 . S
C1158 C1159 1.355 . S
C1158 C1160 1.415 . S
C1159 C1158 1.355 . S
C1159 C1161 1.419 . S
C1160 C1158 1.415 . S
C1160 C1165 1.425 . S
C1160 C1167 1.409 . S
C1161 H1153 0.930 . S
C1161 C1159 1.419 . S
C1161 C1162 1.362 . S
C1162 H1154 0.930 . S
C1162 C1161 1.362 . S
C1162 C1165 1.409 . S
C1163 H1155 0.930 . S
C1163 C1164 1.355 . S
C1163 C1165 1.415 . S
C1164 C1163 1.355 . S
C1164 C1166 1.419 . S
C1165 C1160 1.425 . S
C1165 C1162 1.409 . S
C1165 C1163 1.415 . S
C1166 H1156 0.930 . S
C1166 C1164 1.419 . S
C1166 C1167 1.362 . S
C1167 H1157 0.930 . S
C1167 C1160 1.409 . S
C1167 C1166 1.362 . S
H1168 C1174 0.930 . S
H1169 C1177 0.930 1_545 S
H1170 C1178 0.930 . S
H1171 C1179 0.930 . S
H1172 C1182 0.930 . S
H1173 C1183 0.930 . S
C1174 H1168 0.930 . S
C1174 C1175 1.355 1_565 S
C1174 C1176 1.415 . S
C1175 C1174 1.355 1_545 S
C1175 C1177 1.419 1_545 S
C1176 C1174 1.415 . S
C1176 C1181 1.425 . S
C1176 C1183 1.409 . S
C1177 H1169 0.930 1_565 S
C1177 C1175 1.419 1_565 S
C1177 C1178 1.362 . S
C1178 H1170 0.930 . S
C1178 C1177 1.362 . S
C1178 C1181 1.409 . S
C1179 H1171 0.930 . S
C1179 C1180 1.355 . S
C1179 C1181 1.415 . S
C1180 C1179 1.355 . S
C1180 C1182 1.419 . S
C1181 C1176 1.425 . S
C1181 C1178 1.409 . S
C1181 C1179 1.415 . S
C1182 H1172 0.930 . S
C1182 C1180 1.419 . S
C1182 C1183 1.362 . S
C1183 H1173 0.930 . S
C1183 C1176 1.409 . S
C1183 C1182 1.362 . S
C551 C9 1.639 . S
C556 C311 1.665 . S
C567 C43 1.570 . S
C572 C345 1.689 . S
C583 C379 1.682 . S
C588 C77 1.569 . S
C599 C277 1.660 . S
C604 C111 1.627 . S
C615 C145 1.566 . S
C620 C243 1.688 . S
C631 C141 1.689 . S
C636 C179 1.569 . S
C647 C213 1.637 . S
C652 C175 1.659 . S
C663 C247 1.592 . S
C668 C209 1.670 . S
C679 C39 1.662 . S
C684 C281 1.641 . S
C695 C73 1.689 . S
C700 C315 1.571 . S
C711 C349 1.612 . S
C716 C107 1.663 . S
C727 C383 1.578 . S
C732 C5 1.688 . S
C743 C515 1.688 . S
C748 C417 1.566 . S
C759 C413 1.685 . S
C764 C451 1.594 . S
C775 C485 1.566 . S
C780 C447 1.686 . S
C791 C519 1.614 . S
C796 C481 1.678 . S
C807 C33 1.320 . S
C812 C373 1.317 . S
C823 C407 1.311 . S
C828 C67 1.309 . S
C839 C305 1.369 . S
C844 C101 1.371 . S
C855 C339 1.373 . S
C860 C135 1.372 . S
C871 C169 1.313 . S
C876 C509 1.311 . S
C887 C203 1.373 . S
C892 C543 1.374 . S
C903 C237 1.307 . S
C908 C441 1.307 . S
C919 C475 1.369 . S
C924 C271 1.371 . S
C935 C206 1.084 . S
C940 C20 1.081 . S
C951 C54 1.062 . S
C956 C240 1.006 . S
C967 C138 0.984 . S
C972 C88 1.050 . S
C983 C172 1.087 . S
C988 C122 1.083 . S
C999 C156 1.084 . S
C1004 C70 1.088 . S
C1015 C190 1.049 . S
C1020 C104 1.005 . S
C1031 C2 1.023 . S
C1036 C224 1.069 . S
C1047 C258 1.047 . S
C1052 C36 0.992 . S
C1063 C478 1.072 . S
C1068 C292 1.073 . S
C1079 C326 1.046 . S
C1084 C512 0.985 . S
C1095 C360 1.074 . S
C1100 C410 1.037 . S
C1111 C394 1.077 . S
C1116 C444 1.045 . S
C1127 C342 0.993 . S
C1132 C428 1.046 . S
C1143 C462 1.046 . S
C1148 C376 0.986 . S
C1159 C274 1.080 . S
C1164 C496 1.086 . S
C1175 C308 0.987 . S
C1180 C530 1.052 . S
