# Generated by pormake.
# Topology noo, (5)-cn, num edge types: 1
# Building blocks:
#     Node 0, Type 0, BuildingBlock: BEQFEK_clean_sbu_0, # of connection points: 5
#     Node 1, Type 0, BuildingBlock: BEQFEK_clean_sbu_0, # of connection points: 5
#     Node 2, Type 0, BuildingBlock: BEQFEK_clean_sbu_0, # of connection points: 5
#     Node 3, Type 0, BuildingBlock: BEQFEK_clean_sbu_0, # of connection points: 5
#     Node 4, Type 0, BuildingBlock: BEQFEK_clean_sbu_0, # of connection points: 5
#     Node 5, Type 0, BuildingBlock: BEQFEK_clean_sbu_0, # of connection points: 5
#     Node 6, Type 0, BuildingBlock: BEQFEK_clean_sbu_0, # of connection points: 5
#     Node 7, Type 0, BuildingBlock: BEQFEK_clean_sbu_0, # of connection points: 5
#     Edge 8, Type (0, 0), BuildingBlock: MIFKUJ_clean_linker_0, # of connection points: 2
#     Edge 9, Type (0, 0), BuildingBlock: MIFKUJ_clean_linker_0, # of connection points: 2
#     Edge 10, Type (0, 0), BuildingBlock: MIFKUJ_clean_linker_0, # of connection points: 2
#     Edge 11, Type (0, 0), BuildingBlock: MIFKUJ_clean_linker_0, # of connection points: 2
#     Edge 12, Type (0, 0), BuildingBlock: MIFKUJ_clean_linker_0, # of connection points: 2
#     Edge 13, Type (0, 0), BuildingBlock: MIFKUJ_clean_linker_0, # of connection points: 2
#     Edge 14, Type (0, 0), BuildingBlock: MIFKUJ_clean_linker_0, # of connection points: 2
#     Edge 15, Type (0, 0), BuildingBlock: MIFKUJ_clean_linker_0, # of connection points: 2
#     Edge 16, Type (0, 0), BuildingBlock: MIFKUJ_clean_linker_0, # of connection points: 2
#     Edge 17, Type (0, 0), BuildingBlock: MIFKUJ_clean_linker_0, # of connection points: 2
#     Edge 18, Type (0, 0), BuildingBlock: MIFKUJ_clean_linker_0, # of connection points: 2
#     Edge 19, Type (0, 0), BuildingBlock: MIFKUJ_clean_linker_0, # of connection points: 2
#     Edge 20, Type (0, 0), BuildingBlock: MIFKUJ_clean_linker_0, # of connection points: 2
#     Edge 21, Type (0, 0), BuildingBlock: MIFKUJ_clean_linker_0, # of connection points: 2
#     Edge 22, Type (0, 0), BuildingBlock: MIFKUJ_clean_linker_0, # of connection points: 2
#     Edge 23, Type (0, 0), BuildingBlock: MIFKUJ_clean_linker_0, # of connection points: 2
#     Edge 24, Type (0, 0), BuildingBlock: MIFKUJ_clean_linker_0, # of connection points: 2
#     Edge 25, Type (0, 0), BuildingBlock: MIFKUJ_clean_linker_0, # of connection points: 2
#     Edge 26, Type (0, 0), BuildingBlock: MIFKUJ_clean_linker_0, # of connection points: 2
#     Edge 27, Type (0, 0), BuildingBlock: MIFKUJ_clean_linker_0, # of connection points: 2
# Relax obj value: 0.142
# Max RMSD: 0.147
# Mean RMSD: 0.147
data_MOF--net-noo--node1-BEQFEK_clean_sbu_0--edge1-MIFKUJ_clean_linker_0
_symmetry_space_group_name_H-M    P1
_symmetry_Int_Tables_number       1
_symmetry_cell_setting            triclinic
loop_
_symmetry_equiv_pos_as_xyz
'x, y, z'
_cell_length_a     50.562823
_cell_length_b     50.568674
_cell_length_c     38.090685
_cell_angle_alpha  90.039994
_cell_angle_beta   89.952313
_cell_angle_gamma 90.014983
loop_
_atom_site_label
_atom_site_type_symbol
_atom_site_fract_x
_atom_site_fract_y
_atom_site_fract_z
_atom_type_partial_charge
Co0 Co 0.37742 0.25386 0.03865 0.0
Co1 Co 0.4027 0.19754 0.04518 0.0
C2 C 0.3709 0.21189 0.98184 0.0
O3 O 0.36635 0.23498 0.99418 0.0
O4 O 0.38471 0.19516 0.99891 0.0
C5 C 0.33579 0.29464 0.03638 0.0
O6 O 0.31876 0.2753 0.03184 0.0
C7 C 0.41877 0.14086 0.04369 0.0
C8 C 0.44783 0.14104 0.08703 0.0
C9 C 0.43672 0.12495 0.06159 0.0
N10 N 0.41944 0.1652 0.058 0.0
N11 N 0.4369 0.16511 0.08377 0.0
C12 C 0.40076 0.1331 0.01431 0.0
H13 H 0.38199 0.14439 0.01601 0.0
H14 H 0.39645 0.11159 0.01502 0.0
H15 H 0.4104 0.13795 0.98893 0.0
C16 C 0.35555 0.23806 0.10938 0.0
N17 N 0.36917 0.2331 0.07949 0.0
N18 N 0.37927 0.20911 0.08139 0.0
C19 C 0.37208 0.19805 0.11219 0.0
C20 C 0.35699 0.21599 0.13107 0.0
C21 C 0.34311 0.26407 0.11814 0.0
H22 H 0.35608 0.28046 0.10932 0.0
H23 H 0.32398 0.2657 0.10409 0.0
H24 H 0.33934 0.26589 0.14676 0.0
O25 O 0.41615 0.26206 0.03737 0.0
O26 O 0.43292 0.22184 0.04134 0.0
H27 H 0.39961 0.17123 0.13529 0.0
H28 H 0.36557 0.1633 0.14393 0.0
C29 C 0.37951 0.17076 0.1237 0.0
H30 H 0.37948 0.15709 0.10095 0.0
H31 H 0.44163 0.18167 0.09887 0.0
O32 O 0.36018 0.28929 0.04015 0.0
C33 C 0.43604 0.24666 0.03868 0.0
Co34 Co 0.74771 0.3781 0.04105 0.0
Co35 Co 0.80438 0.403 0.04425 0.0
C36 C 0.78882 0.36976 0.98313 0.0
O37 O 0.76589 0.36578 0.99638 0.0
O38 O 0.80603 0.38378 0.99905 0.0
C39 C 0.70664 0.33684 0.04009 0.0
O40 O 0.72568 0.31985 0.03361 0.0
C41 C 0.85928 0.42312 0.03702 0.0
C42 C 0.86135 0.4487 0.08408 0.0
C43 C 0.87532 0.4412 0.05446 0.0
N44 N 0.83691 0.42006 0.05578 0.0
N45 N 0.83838 0.43535 0.08386 0.0
C46 C 0.86325 0.41179 1.00112 0.0
H47 H 0.84636 0.41758 0.98422 0.0
H48 H 0.86337 0.38988 1.00281 0.0
H49 H 0.88185 0.41878 0.98883 0.0
C50 C 0.76471 0.35812 0.1121 0.0
N51 N 0.76906 0.37104 0.08157 0.0
N52 N 0.79345 0.38015 0.08148 0.0
C53 C 0.80572 0.37233 0.11112 0.0
C54 C 0.78786 0.3585 0.13208 0.0
C55 C 0.73832 0.34745 0.12288 0.0
H56 H 0.72227 0.35971 0.11159 0.0
H57 H 0.73621 0.32699 0.11274 0.0
H58 H 0.73629 0.34709 0.15189 0.0
O59 O 0.73961 0.41655 0.03833 0.0
O60 O 0.77999 0.43329 0.03923 0.0
H61 H 0.8377 0.39512 0.13207 0.0
H62 H 0.84257 0.35993 0.13442 0.0
C63 C 0.83463 0.37619 0.11795 0.0
H64 H 0.84573 0.37682 0.09284 0.0
H65 H 0.82317 0.4375 0.10214 0.0
O66 O 0.71229 0.36111 0.04445 0.0
C67 C 0.7551 0.43635 0.03753 0.0
Co68 Co 0.62532 0.74796 0.04147 0.0
Co69 Co 0.60147 0.80476 0.04918 0.0
C70 C 0.63222 0.7902 0.98509 0.0
O71 O 0.63529 0.76661 0.99648 0.0
O72 O 0.61993 0.8076 1.00311 0.0
C73 C 0.6638 0.70605 0.02776 0.0
O74 O 0.67666 0.72381 0.00925 0.0
C75 C 0.58335 0.86082 0.04726 0.0
C76 C 0.55678 0.86056 0.09338 0.0
C77 C 0.56559 0.87636 0.06612 0.0
N78 N 0.58481 0.83698 0.06285 0.0
N79 N 0.56881 0.83703 0.09028 0.0
C80 C 0.59878 0.86832 0.01527 0.0
H81 H 0.61866 0.85907 0.01616 0.0
H82 H 0.60092 0.89011 0.01322 0.0
H83 H 0.5884 0.86083 0.99161 0.0
C84 C 0.64982 0.76339 0.11034 0.0
N85 N 0.63477 0.76862 0.08188 0.0
N86 N 0.62521 0.79274 0.08469 0.0
C87 C 0.63421 0.80378 0.1147 0.0
C88 C 0.65005 0.78551 0.13219 0.0
C89 C 0.66405 0.73781 0.11593 0.0
H90 H 0.67707 0.73386 0.09307 0.0
H91 H 0.67623 0.73815 0.14013 0.0
H92 H 0.64943 0.72148 0.11748 0.0
O93 O 0.58669 0.74005 0.04134 0.0
O94 O 0.57085 0.78065 0.04501 0.0
H95 H 0.63966 0.83858 0.14763 0.0
H96 H 0.62496 0.84463 0.10533 0.0
C97 C 0.62602 0.83057 0.1276 0.0
H98 H 0.60621 0.82904 0.13988 0.0
H99 H 0.56552 0.82065 0.10635 0.0
O100 O 0.64259 0.71263 0.04343 0.0
C101 C 0.56716 0.75588 0.04257 0.0
Co102 Co 0.25544 0.62397 0.03742 0.0
Co103 Co 0.19854 0.59979 0.04202 0.0
C104 C 0.21428 0.63156 0.97956 0.0
O105 O 0.23718 0.63592 0.99265 0.0
O106 O 0.19716 0.61774 0.99593 0.0
C107 C 0.29618 0.66557 0.03836 0.0
O108 O 0.27672 0.68263 0.03542 0.0
C109 C 0.14288 0.58147 0.03628 0.0
C110 C 0.14206 0.55317 0.08054 0.0
C111 C 0.12733 0.56247 0.0526 0.0
N112 N 0.16586 0.58325 0.05394 0.0
N113 N 0.16505 0.56649 0.08053 0.0
C114 C 0.13755 0.59509 1.00219 0.0
H115 H 0.14307 0.61627 1.00434 0.0
H116 H 0.11649 0.59328 0.99442 0.0
H117 H 0.1501 0.58608 0.98147 0.0
C118 C 0.23915 0.64405 0.10911 0.0
N119 N 0.23431 0.6317 0.07825 0.0
N120 N 0.20973 0.62314 0.07835 0.0
C121 C 0.19784 0.63073 0.10839 0.0
C122 C 0.21613 0.64386 0.12947 0.0
C123 C 0.26595 0.65343 0.12014 0.0
H124 H 0.28154 0.64131 0.10748 0.0
H125 H 0.26852 0.6743 0.11181 0.0
H126 H 0.26827 0.65234 0.14907 0.0
O127 O 0.26322 0.58527 0.03523 0.0
O128 O 0.22267 0.56922 0.03901 0.0
H129 H 0.16616 0.60713 0.12855 0.0
H130 H 0.16138 0.64223 0.13367 0.0
C131 C 0.16904 0.62664 0.11583 0.0
H132 H 0.15758 0.62699 0.09103 0.0
H133 H 0.1808 0.56319 0.09767 0.0
O134 O 0.29096 0.641 0.04 0.0
C135 C 0.24746 0.56567 0.03649 0.0
Co136 Co 0.87831 0.24742 0.57764 0.0
Co137 Co 0.90146 0.30471 0.57388 0.0
C138 C 0.8689 0.28862 0.63528 0.0
O139 O 0.86582 0.26547 0.62231 0.0
O140 O 0.88219 0.30622 0.61903 0.0
C141 C 0.83732 0.2063 0.57734 0.0
O142 O 0.82016 0.22558 0.58131 0.0
C143 C 0.91833 0.36081 0.57923 0.0
C144 C 0.94747 0.36197 0.53589 0.0
C145 C 0.93711 0.37679 0.56314 0.0
N146 N 0.91772 0.33753 0.56212 0.0
N147 N 0.93503 0.33851 0.53612 0.0
C148 C 0.90384 0.36604 0.61275 0.0
H149 H 0.91197 0.35302 0.63355 0.0
H150 H 0.88264 0.36096 0.60938 0.0
H151 H 0.9058 0.38692 0.62125 0.0
C152 C 0.85866 0.26337 0.50581 0.0
N153 N 0.87073 0.26837 0.53679 0.0
N154 N 0.87907 0.29302 0.53678 0.0
C155 C 0.87161 0.3048 0.50665 0.0
C156 C 0.8588 0.28635 0.48544 0.0
C157 C 0.84945 0.23649 0.4948 0.0
H158 H 0.86173 0.22101 0.50738 0.0
H159 H 0.82864 0.23376 0.50331 0.0
H160 H 0.85048 0.23415 0.46587 0.0
O161 O 0.91695 0.24021 0.58032 0.0
O162 O 0.93239 0.28107 0.57876 0.0
H163 H 0.89502 0.33679 0.48705 0.0
H164 H 0.85992 0.34107 0.48112 0.0
C165 C 0.87537 0.33364 0.4993 0.0
H166 H 0.87448 0.34512 0.5241 0.0
H167 H 0.93913 0.32266 0.51942 0.0
O168 O 0.86179 0.21175 0.5748 0.0
C169 C 0.93628 0.2563 0.58068 0.0
Co170 Co 0.75395 0.87766 0.57876 0.0
Co171 Co 0.69733 0.9022 0.57211 0.0
C172 C 0.71193 0.87031 0.6353 0.0
O173 O 0.73545 0.86699 0.62369 0.0
O174 O 0.69476 0.88309 0.6176 0.0
C175 C 0.79513 0.83716 0.58606 0.0
O176 O 0.77646 0.82176 0.59862 0.0
C177 C 0.64173 0.9206 0.57693 0.0
C178 C 0.64121 0.94885 0.53261 0.0
C179 C 0.62615 0.93942 0.56023 0.0
N180 N 0.66493 0.91902 0.5597 0.0
N181 N 0.66437 0.93588 0.53321 0.0
C182 C 0.63638 0.90702 0.61109 0.0
H183 H 0.65199 0.91248 0.63023 0.0
H184 H 0.63738 0.8853 0.60714 0.0
H185 H 0.61685 0.91247 0.62217 0.0
C186 C 0.73829 0.85513 0.50862 0.0
N187 N 0.73311 0.86911 0.53811 0.0
N188 N 0.70916 0.87922 0.53569 0.0
C189 C 0.69835 0.87178 0.50485 0.0
C190 C 0.71643 0.85645 0.48652 0.0
C191 C 0.76426 0.84224 0.50088 0.0
H192 H 0.78055 0.85643 0.50599 0.0
H193 H 0.76693 0.82514 0.51876 0.0
H194 H 0.76534 0.83523 0.47329 0.0
O195 O 0.76199 0.91629 0.57975 0.0
O196 O 0.72153 0.9326 0.57665 0.0
H197 H 0.6717 0.89876 0.48032 0.0
H198 H 0.66366 0.86455 0.47332 0.0
C199 C 0.67112 0.879 0.4929 0.0
H200 H 0.65738 0.87967 0.51558 0.0
H201 H 0.68033 0.93939 0.51648 0.0
O202 O 0.7893 0.86044 0.57617 0.0
C203 C 0.74635 0.93599 0.57893 0.0
Co204 Co 0.12379 0.75443 0.57467 0.0
Co205 Co 0.09964 0.69755 0.57067 0.0
C206 C 0.13203 0.71301 0.63248 0.0
O207 O 0.13553 0.73615 0.61962 0.0
O208 O 0.11866 0.69557 0.61599 0.0
C209 C 0.16379 0.79609 0.58218 0.0
O210 O 0.17886 0.77789 0.59649 0.0
C211 C 0.07796 0.64324 0.57709 0.0
C212 C 0.0534 0.64206 0.52907 0.0
C213 C 0.05953 0.628 0.5591 0.0
N214 N 0.08249 0.66531 0.55828 0.0
N215 N 0.06785 0.66433 0.52958 0.0
C216 C 0.08818 0.63898 0.61348 0.0
H217 H 0.08218 0.6559 0.63027 0.0
H218 H 0.11011 0.63855 0.61284 0.0
H219 H 0.0806 0.62038 0.62514 0.0
C220 C 0.14446 0.73785 0.50366 0.0
N221 N 0.13143 0.73323 0.53407 0.0
N222 N 0.12264 0.70874 0.53386 0.0
C223 C 0.13074 0.69667 0.50417 0.0
C224 C 0.14442 0.71478 0.48343 0.0
C225 C 0.15497 0.76439 0.49332 0.0
H226 H 0.14221 0.78024 0.50415 0.0
H227 H 0.17513 0.76684 0.50436 0.0
H228 H 0.15601 0.76644 0.46435 0.0
O229 O 0.08525 0.76244 0.57683 0.0
O230 O 0.06922 0.72181 0.57555 0.0
H231 H 0.10869 0.66444 0.48247 0.0
H232 H 0.14395 0.66005 0.48099 0.0
C233 C 0.12734 0.66773 0.49711 0.0
H234 H 0.12644 0.65657 0.52214 0.0
H235 H 0.06669 0.67959 0.51122 0.0
O236 O 0.14091 0.7898 0.57118 0.0
C237 C 0.06568 0.74664 0.57729 0.0
Co238 Co 0.24763 0.12538 0.57648 0.0
Co239 Co 0.30346 0.0991 0.57021 0.0
C240 C 0.28975 0.13166 0.63321 0.0
O241 O 0.26656 0.13603 0.62109 0.0
O242 O 0.30648 0.11787 0.61599 0.0
C243 C 0.20686 0.16618 0.58556 0.0
O244 O 0.22548 0.18091 0.5996 0.0
C245 C 0.35824 0.07821 0.57466 0.0
C246 C 0.35691 0.04938 0.53097 0.0
C247 C 0.3726 0.05827 0.55824 0.0
N248 N 0.33509 0.08091 0.5576 0.0
N249 N 0.33458 0.06372 0.53145 0.0
C250 C 0.36435 0.09154 0.60876 0.0
H251 H 0.36146 0.11319 0.60594 0.0
H252 H 0.38477 0.08739 0.61774 0.0
H253 H 0.35024 0.08442 0.62898 0.0
C254 C 0.26438 0.14808 0.50705 0.0
N255 N 0.26876 0.13327 0.53597 0.0
N256 N 0.29246 0.1226 0.53371 0.0
C257 C 0.30403 0.13054 0.50353 0.0
C258 C 0.2866 0.14693 0.48541 0.0
C259 C 0.2396 0.16358 0.50099 0.0
H260 H 0.23676 0.17764 0.52301 0.0
H261 H 0.24032 0.17486 0.47605 0.0
H262 H 0.22241 0.14993 0.50074 0.0
O263 O 0.23842 0.08691 0.57777 0.0
O264 O 0.27846 0.06957 0.57544 0.0
H265 H 0.32816 0.10058 0.48053 0.0
H266 H 0.33887 0.13326 0.47004 0.0
C267 C 0.33046 0.12085 0.49117 0.0
H268 H 0.34452 0.12021 0.51347 0.0
H269 H 0.31831 0.06081 0.51506 0.0
O270 O 0.21264 0.14332 0.57399 0.0
C271 C 0.25358 0.06684 0.57768 0.0
H272 H 0.5528 0.89819 1.00205 0.0
H273 H 0.52889 0.93968 0.99196 0.0
H274 H 0.52859 0.95491 0.1034 0.0
H275 H 0.55266 0.91382 0.11356 0.0
H276 H 0.47906 0.95768 0.07399 0.0
H277 H 0.56797 0.98985 0.04893 0.0
H278 H 0.61021 0.98972 0.01649 0.0
H279 H 0.56869 0.00327 0.91987 0.0
H280 H 0.52615 0.00314 0.95171 0.0
H281 H 0.44997 0.08888 0.11068 0.0
H282 H 0.46859 0.04501 0.10167 0.0
H283 H 0.4612 0.05448 0.98954 0.0
H284 H 0.44322 0.09905 0.99846 0.0
H285 H 0.50936 0.03605 1.00682 0.0
H286 H 0.42128 0.01087 0.0323 0.0
H287 H 0.37861 0.01084 0.06364 0.0
H288 H 0.417 0.98302 0.15708 0.0
H289 H 0.45999 0.98325 0.12649 0.0
C290 C 0.54846 0.91083 0.02424 0.0
C291 C 0.55495 0.90298 0.05859 0.0
C292 C 0.53455 0.93439 0.01846 0.0
C293 C 0.52692 0.9503 0.04696 0.0
C294 C 0.53416 0.94284 0.08107 0.0
C295 C 0.548 0.91943 0.08682 0.0
C296 C 0.51016 0.97403 0.04204 0.0
C297 C 0.48571 0.97488 0.05943 0.0
C298 C 0.5183 0.99593 0.02166 0.0
C299 C 0.54387 0.99617 1.00262 0.0
C300 C 0.56783 0.99258 0.02072 0.0
C301 C 0.59183 0.9926 1.00246 0.0
C302 C 0.59212 0.9964 0.96613 0.0
C303 C 0.56842 1.00028 0.948 0.0
C304 C 0.54437 1.00025 0.96614 0.0
C305 C 0.45193 0.08149 0.08409 0.0
C306 C 0.44466 0.09721 0.05532 0.0
C307 C 0.46246 0.05634 0.07897 0.0
C308 C 0.4659 0.04625 0.04494 0.0
C309 C 0.45844 0.06178 0.01603 0.0
C310 C 0.44783 0.08709 0.02118 0.0
C311 C 0.47877 0.02013 0.04017 0.0
C312 C 0.5024 0.01871 0.02082 0.0
C313 C 0.46978 0.99754 0.05853 0.0
C314 C 0.44392 0.99719 0.07709 0.0
C315 C 0.42067 0.0049 0.05959 0.0
C316 C 0.39641 0.00483 0.07723 0.0
C317 C 0.3951 0.99696 0.11234 0.0
C318 C 0.41804 0.9891 0.12987 0.0
C319 C 0.44236 0.98915 0.11237 0.0
H320 H 0.3763 0.99693 0.12594 0.0
H321 H 0.61072 0.9964 0.95203 0.0
H322 H 0.88874 0.49298 0.05509 0.0
H323 H 0.93213 0.51239 0.04314 0.0
H324 H 0.96309 0.435 0.01892 0.0
H325 H 0.91951 0.41544 0.03096 0.0
H326 H 0.99242 0.46259 0.06853 0.0
H327 H 0.95661 0.47839 0.9543 0.0
H328 H 0.92349 0.49406 0.91166 0.0
H329 H 0.93261 0.57348 0.94975 0.0
H330 H 0.96552 0.55822 0.993 0.0
H331 H 0.11889 0.5115 0.03497 0.0
H332 H 0.07643 0.48997 0.02364 0.0
H333 H 0.0367 0.56506 0.03496 0.0
H334 H 0.07958 0.58682 0.04473 0.0
H335 H 0.01242 0.53618 0.98654 0.0
H336 H 0.04265 0.52126 0.10436 0.0
H337 H 0.07415 0.50724 0.1501 0.0
H338 H 0.07334 0.42812 0.1091 0.0
H339 H 0.04209 0.44178 0.06278 0.0
C340 C 0.90472 0.48018 0.04666 0.0
C341 C 0.9008 0.45279 0.04354 0.0
C342 C 0.92942 0.4913 0.03965 0.0
C343 C 0.95072 0.47517 0.02976 0.0
C344 C 0.94679 0.44779 0.02618 0.0
C345 C 0.92193 0.43668 0.03283 0.0
C346 C 0.97753 0.48674 0.02646 0.0
C347 C 0.99701 0.47827 0.05005 0.0
C348 C 0.9831 0.50783 1.0032 0.0
C349 C 0.96341 0.51711 0.97709 0.0
C350 C 0.95141 0.49916 0.95379 0.0
C351 C 0.9327 0.50798 0.92947 0.0
C352 C 0.92592 0.53474 0.92804 0.0
C353 C 0.93788 0.55275 0.95089 0.0
C354 C 0.95659 0.54403 0.97528 0.0
C355 C 0.1011 0.52342 0.03428 0.0
C356 C 0.10228 0.55069 0.04077 0.0
C357 C 0.07687 0.51113 0.028 0.0
C358 C 0.05329 0.52578 0.02932 0.0
C359 C 0.05462 0.55335 0.03394 0.0
C360 C 0.07902 0.56576 0.03954 0.0
C361 C 0.02732 0.51204 0.02868 0.0
C362 C 0.00797 0.52022 1.00461 0.0
C363 C 0.02162 0.49091 0.05193 0.0
C364 C 0.04027 0.48261 0.07989 0.0
C365 C 0.04933 0.50092 0.10496 0.0
C366 C 0.06712 0.49303 0.131 0.0
C367 C 0.0758 0.46682 0.13244 0.0
C368 C 0.06664 0.44842 0.10791 0.0
C369 C 0.04888 0.45622 0.08177 0.0
H370 H 0.08957 0.46075 0.15263 0.0
H371 H 0.91142 0.54153 0.9092 0.0
H372 H 0.98796 0.39021 0.57553 0.0
H373 H 0.00578 0.43451 0.58619 0.0
H374 H 0.92681 0.4667 0.58357 0.0
H375 H 0.90884 0.42213 0.57333 0.0
H376 H 0.96352 0.49026 0.53633 0.0
H377 H 0.95709 0.46832 0.65809 0.0
H378 H 0.96361 0.44072 0.71069 0.0
H379 H 0.04782 0.44616 0.69796 0.0
H380 H 0.04181 0.47347 0.64494 0.0
H381 H 0.00677 0.61992 0.56095 0.0
H382 H 0.98346 0.57846 0.57224 0.0
H383 H 0.05799 0.53955 0.59169 0.0
H384 H 0.08135 0.58149 0.58148 0.0
H385 H 0.02055 0.52036 0.63455 0.0
H386 H 0.02848 0.53657 0.51107 0.0
H387 H 0.02421 0.56207 0.45621 0.0
H388 H 0.93989 0.56467 0.46934 0.0
H389 H 0.9437 0.53948 0.52458 0.0
C390 C 0.9744 0.40671 0.57796 0.0
C391 C 0.94708 0.40291 0.57394 0.0
C392 C 0.98456 0.43192 0.58419 0.0
C393 C 0.96758 0.45379 0.58593 0.0
C394 C 0.94017 0.44998 0.58261 0.0
C395 C 0.92994 0.42461 0.57694 0.0
C396 C 0.97885 0.48077 0.58747 0.0
C397 C 0.97548 0.49713 0.55816 0.0
C398 C 0.99527 0.48915 0.61539 0.0
C399 C 0.99898 0.47278 0.64734 0.0
C400 C 0.977 0.46344 0.66631 0.0
C401 C 0.98061 0.44788 0.69625 0.0
C402 C 0.00611 0.44164 0.70762 0.0
C403 C 0.02807 0.451 0.68911 0.0
C404 C 0.02458 0.46654 0.65913 0.0
C405 C 0.01811 0.60259 0.5682 0.0
C406 C 0.04579 0.60374 0.57032 0.0
C407 C 0.00481 0.57892 0.57455 0.0
C408 C 0.01901 0.55577 0.58209 0.0
C409 C 0.04664 0.55717 0.58586 0.0
C410 C 0.05996 0.58105 0.58005 0.0
C411 C 0.00517 0.5299 0.58337 0.0
C412 C 0.00824 0.51368 0.61299 0.0
C413 C 0.98878 0.52134 0.55543 0.0
C414 C 0.9864 0.5364 0.52215 0.0
C415 C 0.00904 0.54275 0.50239 0.0
C416 C 0.0067 0.55712 0.47122 0.0
C417 C 0.9818 0.56505 0.45935 0.0
C418 C 0.95917 0.55856 0.4786 0.0
C419 C 0.96141 0.54422 0.50983 0.0
H420 H 0.98003 0.57617 0.4352 0.0
H421 H 0.00887 0.4296 0.73081 0.0
H422 H 0.58129 0.91202 0.57733 0.0
H423 H 0.53704 0.93053 0.58776 0.0
H424 H 0.56829 0.00933 0.57499 0.0
H425 H 0.61239 0.99096 0.56478 0.0
H426 H 0.53056 0.00565 0.62937 0.0
H427 H 0.54165 0.9809 0.50719 0.0
H428 H 0.55168 0.94977 0.45912 0.0
H429 H 0.48836 0.89918 0.49286 0.0
H430 H 0.47821 0.92987 0.54148 0.0
H431 H 0.42003 0.082 0.57226 0.0
H432 H 0.46246 0.05991 0.58294 0.0
H433 H 0.42347 0.984 0.57859 0.0
H434 H 0.38136 0.00603 0.56702 0.0
H435 H 0.46421 0.98325 0.53821 0.0
H436 H 0.44935 0.01032 0.65657 0.0
H437 H 0.43912 0.04125 0.70476 0.0
H438 H 0.50837 0.08674 0.67997 0.0
H439 H 0.51882 0.05629 0.63127 0.0
C440 C 0.57875 0.93329 0.57767 0.0
C441 C 0.60015 0.95012 0.57051 0.0
C442 C 0.55353 0.94382 0.58342 0.0
C443 C 0.54945 0.97129 0.58205 0.0
C444 C 0.57107 0.98811 0.57636 0.0
C445 C 0.59616 0.9776 0.57031 0.0
C446 C 0.52244 0.98252 0.58316 0.0
C447 C 0.516 0.00088 0.60946 0.0
C448 C 0.50339 0.97586 0.5575 0.0
C449 C 0.50939 0.9575 0.52819 0.0
C450 C 0.53002 0.96302 0.50453 0.0
C451 C 0.5357 0.94549 0.47716 0.0
C452 C 0.52073 0.92247 0.47301 0.0
C453 C 0.49998 0.91699 0.49616 0.0
C454 C 0.49425 0.93445 0.52361 0.0
C455 C 0.42054 0.06065 0.57443 0.0
C456 C 0.39754 0.04566 0.56913 0.0
C457 C 0.44473 0.04802 0.58056 0.0
C458 C 0.44614 0.02025 0.58189 0.0
C459 C 0.42291 0.00541 0.57765 0.0
C460 C 0.39888 0.01799 0.5711 0.0
C461 C 0.47204 0.00654 0.58453 0.0
C462 C 0.47843 0.98779 0.55866 0.0
C463 C 0.4909 0.0128 0.61072 0.0
C464 C 0.48474 0.03113 0.64006 0.0
C465 C 0.46229 0.02703 0.66121 0.0
C466 C 0.45647 0.04446 0.68865 0.0
C467 C 0.47305 0.06598 0.69537 0.0
C468 C 0.49553 0.07007 0.67471 0.0
C469 C 0.50143 0.05272 0.64721 0.0
H470 H 0.46851 0.07945 0.71663 0.0
H471 H 0.52515 0.90892 0.4518 0.0
H472 H 0.21952 0.52002 0.04589 0.0
H473 H 0.23601 0.47478 0.04625 0.0
H474 H 0.31505 0.50311 0.02642 0.0
H475 H 0.29866 0.5488 0.02588 0.0
H476 H 0.30232 0.45987 0.98541 0.0
H477 H 0.29937 0.48311 0.1067 0.0
H478 H 0.27966 0.50042 0.16128 0.0
H479 H 0.2199 0.44014 0.15769 0.0
H480 H 0.23903 0.42268 0.10275 0.0
H481 H 0.36636 0.33894 0.03054 0.0
H482 H 0.35193 0.38507 0.0303 0.0
H483 H 0.27099 0.36003 0.04319 0.0
H484 H 0.28524 0.31365 0.04309 0.0
H485 H 0.28623 0.402 0.08845 0.0
H486 H 0.28911 0.37958 0.96605 0.0
H487 H 0.30942 0.36236 0.9118 0.0
H488 H 0.37031 0.42136 0.91826 0.0
H489 H 0.35057 0.4387 0.97289 0.0
C490 C 0.24044 0.51676 0.04152 0.0
C491 C 0.25778 0.53815 0.03594 0.0
C492 C 0.24984 0.49081 0.0419 0.0
C493 C 0.2768 0.48556 0.03676 0.0
C494 C 0.29417 0.50674 0.03054 0.0
C495 C 0.28478 0.53283 0.03034 0.0
C496 C 0.28663 0.45786 0.03792 0.0
C497 C 0.29919 0.44735 1.00815 0.0
C498 C 0.28206 0.44134 0.06733 0.0
C499 C 0.27049 0.45174 0.10041 0.0
C500 C 0.28189 0.47367 0.11737 0.0
C501 C 0.27085 0.48349 0.14841 0.0
C502 C 0.2485 0.47143 0.16289 0.0
C503 C 0.23719 0.44948 0.14641 0.0
C504 C 0.24814 0.4396 0.11533 0.0
C505 C 0.34547 0.34319 0.03336 0.0
C506 C 0.32692 0.32259 0.03674 0.0
C507 C 0.33727 0.36959 0.0331 0.0
C508 C 0.31039 0.37596 0.03651 0.0
C509 C 0.29184 0.35551 0.04048 0.0
C510 C 0.29999 0.32904 0.04028 0.0
C511 C 0.30173 0.40401 0.03588 0.0
C512 C 0.28941 0.41458 0.06577 0.0
C513 C 0.30663 0.42059 1.00666 0.0
C514 C 0.31853 0.41025 0.97378 0.0
C515 C 0.30697 0.38873 0.95609 0.0
C516 C 0.31835 0.37898 0.92524 0.0
C517 C 0.34119 0.39071 0.91165 0.0
C518 C 0.35265 0.41227 0.92885 0.0
C519 C 0.34136 0.42208 0.95975 0.0
H520 H 0.34997 0.38313 0.88775 0.0
H521 H 0.23999 0.47906 0.18693 0.0
H522 H 0.45207 0.29876 0.0376 0.0
H523 H 0.49754 0.3156 0.03855 0.0
H524 H 0.52725 0.23565 0.03894 0.0
H525 H 0.4822 0.21873 0.03857 0.0
H526 H 0.55276 0.26443 0.08599 0.0
H527 H 0.52869 0.27438 0.96451 0.0
H528 H 0.5014 0.28995 0.91504 0.0
H529 H 0.51524 0.37053 0.94557 0.0
H530 H 0.54234 0.35541 0.99553 0.0
H531 H 0.68713 0.28623 0.03794 0.0
H532 H 0.64069 0.27245 0.03874 0.0
H533 H 0.61632 0.35401 0.04547 0.0
H534 H 0.66258 0.36797 0.04468 0.0
H535 H 0.58769 0.32648 0.99643 0.0
H536 H 0.6133 0.31624 0.11667 0.0
H537 H 0.64092 0.3004 0.16564 0.0
H538 H 0.62436 0.21995 0.13697 0.0
H539 H 0.59694 0.23532 0.08747 0.0
C540 C 0.46829 0.28478 0.03774 0.0
C541 C 0.4634 0.25738 0.03797 0.0
C542 C 0.49429 0.29443 0.0382 0.0
C543 C 0.51587 0.27689 0.03861 0.0
C544 C 0.51098 0.24959 0.03874 0.0
C545 C 0.48512 0.23995 0.03839 0.0
C546 C 0.54361 0.28671 0.03936 0.0
C547 C 0.56045 0.27777 0.06616 0.0
C548 C 0.55354 0.30463 0.01401 0.0
C549 C 0.53729 0.31375 0.98398 0.0
C550 C 0.52573 0.29541 0.96084 0.0
C551 C 0.51034 0.30416 0.93268 0.0
C552 C 0.50652 0.33121 0.92723 0.0
C553 C 0.51817 0.34958 0.94987 0.0
C554 C 0.53356 0.34093 0.9781 0.0
C555 C 0.6719 0.30124 0.03968 0.0
C556 C 0.67861 0.3282 0.04131 0.0
C557 C 0.64536 0.29333 0.04023 0.0
C558 C 0.62503 0.31221 0.04235 0.0
C559 C 0.63167 0.33912 0.0438 0.0
C560 C 0.65816 0.34703 0.04349 0.0
C561 C 0.59683 0.30393 0.0428 0.0
C562 C 0.57993 0.3132 0.01629 0.0
C563 C 0.58684 0.28625 0.06835 0.0
C564 C 0.60328 0.27694 0.09814 0.0
C565 C 0.61573 0.29517 0.12061 0.0
C566 C 0.63132 0.28628 0.1485 0.0
C567 C 0.63445 0.25919 0.15436 0.0
C568 C 0.62195 0.24093 0.13237 0.0
C569 C 0.60636 0.24972 0.10441 0.0
H570 H 0.64652 0.25234 0.17597 0.0
H571 H 0.4946 0.33794 0.90541 0.0
H572 H 0.63926 0.66379 0.05847 0.0
H573 H 0.65403 0.61789 0.0598 0.0
H574 H 0.72472 0.63947 1.00311 0.0
H575 H 0.7097 0.68544 1.00086 0.0
H576 H 0.70495 0.59573 0.9767 0.0
H577 H 0.72538 0.62592 0.09242 0.0
H578 H 0.71685 0.64661 0.14995 0.0
H579 H 0.65812 0.58768 0.17263 0.0
H580 H 0.66604 0.56684 0.11498 0.0
H581 H 0.78106 0.48101 0.01695 0.0
H582 H 0.76396 0.52616 0.01457 0.0
H583 H 0.688 0.4988 0.05101 0.0
H584 H 0.70484 0.45328 0.05293 0.0
H585 H 0.70951 0.54459 0.08767 0.0
H586 H 0.69101 0.51415 0.97072 0.0
H587 H 0.70181 0.49368 0.91373 0.0
H588 H 0.76003 0.55378 0.89444 0.0
H589 H 0.74986 0.5744 0.9516 0.0
C590 C 0.65801 0.65884 0.04638 0.0
C591 C 0.67333 0.67835 0.02961 0.0
C592 C 0.6665 0.63255 0.0473 0.0
C593 C 0.69067 0.62521 0.03194 0.0
C594 C 0.706 0.64464 0.01517 0.0
C595 C 0.69744 0.67094 0.01401 0.0
C596 C 0.69967 0.5972 0.03283 0.0
C597 C 0.70626 0.5847 1.00105 0.0
C598 C 0.70091 0.58253 0.06449 0.0
C599 C 0.69611 0.59498 0.09922 0.0
C600 C 0.71049 0.61749 0.10955 0.0
C601 C 0.70579 0.62923 0.1422 0.0
C602 C 0.6869 0.61851 0.16489 0.0
C603 C 0.67272 0.59599 0.155 0.0
C604 C 0.67732 0.58419 0.12235 0.0
C605 C 0.76067 0.48452 0.02433 0.0
C606 C 0.74429 0.46353 0.0351 0.0
C607 C 0.75093 0.51034 0.02288 0.0
C608 C 0.72472 0.51577 0.03253 0.0
C609 C 0.70829 0.49495 0.04344 0.0
C610 C 0.7179 0.46898 0.04436 0.0
C611 C 0.71476 0.54334 0.03164 0.0
C612 C 0.70807 0.5557 0.06339 0.0
C613 C 0.71374 0.55797 1.00005 0.0
C614 C 0.71985 0.54566 0.96561 0.0
C615 C 0.70629 0.52286 0.95448 0.0
C616 C 0.71226 0.51126 0.92211 0.0
C617 C 0.73165 0.52238 0.90052 0.0
C618 C 0.74505 0.54517 0.91122 0.0
C619 C 0.73917 0.55683 0.94359 0.0
H620 H 0.73624 0.51337 0.87546 0.0
H621 H 0.68329 0.62762 0.19017 0.0
H622 H 0.31485 0.71639 0.043 0.0
H623 H 0.36098 0.73096 0.04376 0.0
H624 H 0.38681 0.64987 0.03573 0.0
H625 H 0.34084 0.63514 0.03595 0.0
H626 H 0.41638 0.67473 0.08138 0.0
H627 H 0.38729 0.69301 0.96401 0.0
H628 H 0.35829 0.71199 0.91851 0.0
H629 H 0.37509 0.79021 0.95636 0.0
H630 H 0.40393 0.77166 1.0024 0.0
H631 H 0.55032 0.70436 0.03561 0.0
H632 H 0.50465 0.68818 0.03439 0.0
H633 H 0.47605 0.76801 0.0466 0.0
H634 H 0.52138 0.78435 0.04728 0.0
H635 H 0.44832 0.74276 0.99771 0.0
H636 H 0.47705 0.72391 0.11574 0.0
H637 H 0.50629 0.70453 0.16068 0.0
H638 H 0.49047 0.62676 0.12051 0.0
H639 H 0.4614 0.64572 0.07502 0.0
C640 C 0.33034 0.70166 0.04142 0.0
C641 C 0.32411 0.67461 0.03925 0.0
C642 C 0.35675 0.71002 0.04169 0.0
C643 C 0.37746 0.69155 0.03925 0.0
C644 C 0.37125 0.66452 0.03759 0.0
C645 C 0.34489 0.65614 0.03762 0.0
C646 C 0.4056 0.70031 0.03849 0.0
C647 C 0.42342 0.68935 0.06274 0.0
C648 C 0.41481 0.71971 0.01461 0.0
C649 C 0.39757 0.73092 0.98685 0.0
C650 C 0.38465 0.71424 0.96278 0.0
C651 C 0.36827 0.72493 0.93687 0.0
C652 C 0.3648 0.75229 0.93461 0.0
C653 C 0.37777 0.76902 0.95818 0.0
C654 C 0.39416 0.75844 0.98416 0.0
C655 C 0.53431 0.71847 0.03802 0.0
C656 C 0.5396 0.74566 0.0416 0.0
C657 C 0.5082 0.70918 0.03746 0.0
C658 C 0.48687 0.72685 0.04075 0.0
C659 C 0.49213 0.75398 0.04399 0.0
C660 C 0.51814 0.76328 0.04446 0.0
C661 C 0.45902 0.7173 0.04071 0.0
C662 C 0.44127 0.7281 0.01628 0.0
C663 C 0.44991 0.69769 0.06433 0.0
C664 C 0.46727 0.68626 0.09177 0.0
C665 C 0.47997 0.70269 0.11633 0.0
C666 C 0.49648 0.69178 0.14193 0.0
C667 C 0.5003 0.66443 0.14338 0.0
C668 C 0.48753 0.64794 0.11931 0.0
C669 C 0.47102 0.65875 0.09364 0.0
H670 H 0.51309 0.65602 0.16321 0.0
H671 H 0.3521 0.76052 0.91453 0.0
H672 H 0.79821 0.95232 0.58327 0.0
H673 H 0.81488 0.99784 0.58264 0.0
H674 H 0.73497 0.02717 0.57561 0.0
H675 H 0.7182 0.98201 0.57581 0.0
H676 H 0.76632 0.05211 0.52987 0.0
H677 H 0.76945 0.02993 0.65252 0.0
H678 H 0.78211 0.00342 0.70416 0.0
H679 H 0.86423 0.01669 0.68136 0.0
H680 H 0.85205 0.043 0.62928 0.0
H681 H 0.78658 0.18719 0.57533 0.0
H682 H 0.77246 0.14086 0.57483 0.0
H683 H 0.85395 0.11581 0.57712 0.0
H684 H 0.86825 0.16196 0.57765 0.0
H685 H 0.82353 0.0883 0.62412 0.0
H686 H 0.82023 0.11171 0.50246 0.0
H687 H 0.80744 0.13847 0.45112 0.0
H688 H 0.72546 0.12298 0.47221 0.0
H689 H 0.73774 0.09644 0.52403 0.0
C690 C 0.78419 0.96846 0.58171 0.0
C691 C 0.75685 0.96344 0.57966 0.0
C692 C 0.79374 0.99448 0.58145 0.0
C693 C 0.77615 0.01595 0.57929 0.0
C694 C 0.74892 0.01095 0.57722 0.0
C695 C 0.73937 0.98505 0.57749 0.0
C696 C 0.78595 0.04369 0.57878 0.0
C697 C 0.77858 0.06009 0.5507 0.0
C698 C 0.80248 0.05397 0.60549 0.0
C699 C 0.80984 0.03818 0.63679 0.0
C700 C 0.79021 0.027 0.65835 0.0
C701 C 0.7973 0.01205 0.68773 0.0
C702 C 0.82395 0.0083 0.69597 0.0
C703 C 0.84358 0.01957 0.6749 0.0
C704 C 0.83661 0.03451 0.64546 0.0
C705 C 0.8015 0.17183 0.57566 0.0
C706 C 0.82854 0.17831 0.57647 0.0
C707 C 0.7934 0.14536 0.57527 0.0
C708 C 0.81217 0.12487 0.57573 0.0
C709 C 0.83914 0.13128 0.57677 0.0
C710 C 0.84726 0.15771 0.57692 0.0
C711 C 0.80367 0.09673 0.57539 0.0
C712 C 0.81132 0.08027 0.60326 0.0
C713 C 0.78737 0.08639 0.54851 0.0
C714 C 0.7799 0.10231 0.51734 0.0
C715 C 0.79946 0.1142 0.49634 0.0
C716 C 0.79231 0.12929 0.46712 0.0
C717 C 0.76565 0.13248 0.45847 0.0
C718 C 0.7461 0.12053 0.47898 0.0
C719 C 0.75314 0.10544 0.50826 0.0
H720 H 0.76015 0.14417 0.43582 0.0
H721 H 0.8294 0.99673 0.71874 0.0
H722 H 0.04855 0.79784 0.56883 0.0
H723 H 0.00289 0.81393 0.56969 0.0
H724 H 0.97514 0.73493 0.59157 0.0
H725 H 0.02047 0.71864 0.5897 0.0
H726 H 0.94521 0.75593 0.54383 0.0
H727 H 0.9782 0.78502 0.65574 0.0
H728 H 0.00877 0.80794 0.69597 0.0
H729 H 0.99153 0.88196 0.6458 0.0
H730 H 0.9611 0.85941 0.60495 0.0
H731 H 0.81455 0.7877 0.60047 0.0
H732 H 0.86069 0.77306 0.59826 0.0
H733 H 0.88478 0.851 0.5653 0.0
H734 H 0.83882 0.86581 0.56747 0.0
H735 H 0.91648 0.83155 0.61758 0.0
H736 H 0.8824 0.80194 0.50671 0.0
H737 H 0.85136 0.77863 0.46752 0.0
H738 H 0.87032 0.70488 0.51729 0.0
H739 H 0.90121 0.72781 0.55714 0.0
C740 C 0.03273 0.78393 0.574 0.0
C741 C 0.03822 0.75695 0.57923 0.0
C742 C 0.00661 0.79317 0.57461 0.0
C743 C 0.9855 0.7757 0.58106 0.0
C744 C 0.99101 0.74881 0.58646 0.0
C745 C 0.01702 0.73953 0.58549 0.0
C746 C 0.9576 0.78518 0.5816 0.0
C747 C 0.93892 0.77225 0.56034 0.0
C748 C 0.94936 0.80688 0.60247 0.0
C749 C 0.96758 0.82048 0.62707 0.0
C750 C 0.98108 0.80615 0.65312 0.0
C751 C 0.99835 0.81908 0.67606 0.0
C752 C 0.00215 0.84638 0.67338 0.0
C753 C 0.98861 0.86081 0.64781 0.0
C754 C 0.97133 0.84797 0.62478 0.0
C755 C 0.82965 0.80171 0.59266 0.0
C756 C 0.82295 0.82792 0.5841 0.0
C757 C 0.856 0.79329 0.59132 0.0
C758 C 0.87617 0.81091 0.58141 0.0
C759 C 0.86956 0.83708 0.57303 0.0
C760 C 0.84323 0.84547 0.57416 0.0
C761 C 0.90421 0.80213 0.58008 0.0
C762 C 0.92287 0.81523 0.60112 0.0
C763 C 0.91241 0.7805 0.55918 0.0
C764 C 0.89393 0.76664 0.53514 0.0
C765 C 0.87979 0.78078 0.50949 0.0
C766 C 0.86226 0.76763 0.48713 0.0
C767 C 0.85882 0.7403 0.48998 0.0
C768 C 0.87297 0.72605 0.51515 0.0
C769 C 0.89051 0.73911 0.53761 0.0
H770 H 0.84524 0.73016 0.47263 0.0
H771 H 0.01553 0.85635 0.69117 0.0
H772 H 0.20257 0.05041 0.56499 0.0
H773 H 0.18588 0.00489 0.56483 0.0
H774 H 0.26299 0.97656 0.59542 0.0
H775 H 0.2799 0.02163 0.5944 0.0
H776 H 0.2454 0.9468 0.54603 0.0
H777 H 0.2081 0.98043 0.65349 0.0
H778 H 0.18213 0.01115 0.69015 0.0
H779 H 0.11232 0.99312 0.63064 0.0
H780 H 0.13796 0.96253 0.59332 0.0
H781 H 0.21183 0.8167 0.6014 0.0
H782 H 0.2257 0.86306 0.59974 0.0
H783 H 0.14983 0.8851 0.55721 0.0
H784 H 0.13575 0.83888 0.55888 0.0
H785 H 0.16509 0.91811 0.61043 0.0
H786 H 0.203 0.88289 0.50463 0.0
H787 H 0.22943 0.85163 0.46941 0.0
H788 H 0.29897 0.87234 0.52794 0.0
H789 H 0.27286 0.90347 0.56386 0.0
C790 C 0.21588 0.03447 0.57191 0.0
C791 C 0.24257 0.03967 0.57964 0.0
C792 C 0.20631 0.00844 0.57193 0.0
C793 C 0.22311 0.98719 0.58039 0.0
C794 C 0.24963 0.9925 0.58862 0.0
C795 C 0.25926 0.01836 0.58813 0.0
C796 C 0.21353 0.9593 0.57982 0.0
C797 C 0.22801 0.94053 0.56052 0.0
C798 C 0.19046 0.95108 0.59793 0.0
C799 C 0.17501 0.96941 0.62039 0.0
C800 C 0.18725 0.98317 0.64806 0.0
C801 C 0.17258 1.00053 0.66898 0.0
C802 C 0.14561 0.00414 0.66266 0.0
C803 C 0.13322 0.99034 0.63547 0.0
C804 C 0.14781 0.97297 0.61444 0.0
C805 C 0.19812 0.83138 0.59156 0.0
C806 C 0.17269 0.82403 0.58022 0.0
C807 C 0.2061 0.85788 0.59056 0.0
C808 C 0.18884 0.87754 0.57815 0.0
C809 C 0.16345 0.87027 0.56692 0.0
C810 C 0.15549 0.8438 0.56776 0.0
C811 C 0.19722 0.90572 0.57713 0.0
C812 C 0.18246 0.92449 0.59598 0.0
C813 C 0.22015 0.91394 0.55884 0.0
C814 C 0.23592 0.89533 0.53714 0.0
C815 C 0.22388 0.88063 0.51017 0.0
C816 C 0.23882 0.86296 0.49005 0.0
C817 C 0.26585 0.85995 0.49648 0.0
C818 C 0.27802 0.87467 0.52301 0.0
C819 C 0.26317 0.89235 0.54323 0.0
H820 H 0.27738 0.84626 0.48088 0.0
H821 H 0.13429 0.0176 0.67889 0.0
H822 H 0.95377 0.20497 0.57573 0.0
H823 H 0.99956 0.1893 0.57654 0.0
H824 H 0.02696 0.26937 0.59113 0.0
H825 H 0.98145 0.28521 0.58946 0.0
H826 H 0.05615 0.24608 0.54379 0.0
H827 H 0.02586 0.22325 0.65916 0.0
H828 H 0.99637 0.20278 0.70301 0.0
H829 H 0.0126 0.12601 0.65986 0.0
H830 H 0.04194 0.14607 0.61544 0.0
H831 H 0.18805 0.2161 0.59864 0.0
H832 H 0.14194 0.23099 0.59735 0.0
H833 H 0.11681 0.15244 0.56853 0.0
H834 H 0.16275 0.13743 0.5695 0.0
H835 H 0.08669 0.17436 0.62274 0.0
H836 H 0.11781 0.19815 0.5078 0.0
H837 H 0.14784 0.21932 0.46523 0.0
H838 H 0.13054 0.29546 0.50964 0.0
H839 H 0.10067 0.27468 0.55284 0.0
C840 C 0.96953 0.21922 0.57929 0.0
C841 C 0.96388 0.24635 0.58258 0.0
C842 C 0.99573 0.21023 0.57986 0.0
C843 C 0.01677 0.22812 0.58424 0.0
C844 C 0.01112 0.25517 0.58765 0.0
C845 C 0.98502 0.26419 0.58681 0.0
C846 C 0.04472 0.21885 0.5846 0.0
C847 C 0.06286 0.23064 0.56142 0.0
C848 C 0.05347 0.19832 0.60705 0.0
C849 C 0.03588 0.18619 0.63375 0.0
C850 C 0.02298 0.20202 0.65885 0.0
C851 C 0.00632 0.19049 0.68384 0.0
C852 C 0.00256 0.16312 0.68416 0.0
C853 C 0.01551 0.14721 0.65955 0.0
C854 C 0.03217 0.15865 0.63447 0.0
C855 C 0.17273 0.20201 0.59193 0.0
C856 C 0.1791 0.17559 0.58411 0.0
C857 C 0.1464 0.21057 0.59113 0.0
C858 C 0.12597 0.19283 0.58274 0.0
C859 C 0.13227 0.16644 0.57511 0.0
C860 C 0.15857 0.15794 0.57553 0.0
C861 C 0.09799 0.20171 0.58212 0.0
C862 C 0.07989 0.18981 0.60518 0.0
C863 C 0.08932 0.22228 0.55979 0.0
C864 C 0.10722 0.23482 0.5338 0.0
C865 C 0.12059 0.21938 0.5087 0.0
C866 C 0.13755 0.23132 0.48441 0.0
C867 C 0.14115 0.25871 0.48479 0.0
C868 C 0.12775 0.27423 0.50941 0.0
C869 C 0.1108 0.26239 0.53379 0.0
H870 H 0.15428 0.26791 0.46596 0.0
H871 H 0.98966 0.15423 0.70353 0.0
H872 H 0.30622 0.21364 0.15548 0.0
H873 H 0.29168 0.20437 0.21576 0.0
H874 H 0.37317 0.2033 0.24969 0.0
H875 H 0.38748 0.21096 0.18914 0.0
H876 H 0.35121 0.16532 0.2791 0.0
H877 H 0.32588 0.25593 0.26797 0.0
H878 H 0.30409 0.29474 0.2416 0.0
H879 H 0.22818 0.25824 0.25599 0.0
H880 H 0.24954 0.21902 0.28202 0.0
H881 H 0.32703 0.17849 0.46291 0.0
H882 H 0.33631 0.19291 0.40264 0.0
H883 H 0.26333 0.15755 0.36783 0.0
H884 H 0.25463 0.14191 0.42788 0.0
H885 H 0.2792 0.21382 0.33988 0.0
H886 H 0.30845 0.12247 0.35194 0.0
H887 H 0.33276 0.08718 0.38275 0.0
H888 H 0.40529 0.13036 0.37015 0.0
H889 H 0.38127 0.16618 0.33986 0.0
C890 C 0.32088 0.21165 0.17602 0.0
C891 C 0.34791 0.2131 0.16789 0.0
C892 C 0.31262 0.20648 0.21054 0.0
C893 C 0.33125 0.20341 0.23777 0.0
C894 C 0.3583 0.20544 0.22944 0.0
C895 C 0.36652 0.21 0.19488 0.0
C896 C 0.32283 0.19704 0.27457 0.0
C897 C 0.33566 0.17627 0.2923 0.0
C898 C 0.30226 0.21086 0.29218 0.0
C899 C 0.28934 0.23442 0.2766 0.0
C900 C 0.30455 0.25609 0.26527 0.0
C901 C 0.29228 0.27818 0.25042 0.0
C902 C 0.26477 0.27892 0.24703 0.0
C903 C 0.24948 0.25761 0.25858 0.0
C904 C 0.26166 0.23545 0.2734 0.0
C905 C 0.313 0.17377 0.44238 0.0
C906 C 0.29037 0.15866 0.44992 0.0
C907 C 0.3182 0.18221 0.40806 0.0
C908 C 0.30056 0.17621 0.38075 0.0
C909 C 0.27715 0.16246 0.38855 0.0
C910 C 0.27219 0.15357 0.42282 0.0
C911 C 0.30772 0.18246 0.34379 0.0
C912 C 0.29468 0.20306 0.32628 0.0
C913 C 0.32848 0.16894 0.32658 0.0
C914 C 0.34302 0.14711 0.34396 0.0
C915 C 0.32954 0.12454 0.356 0.0
C916 C 0.34327 0.10443 0.37334 0.0
C917 C 0.37055 0.10656 0.37849 0.0
C918 C 0.38416 0.12876 0.36619 0.0
C919 C 0.3705 0.14896 0.34892 0.0
H920 H 0.38114 0.09098 0.39194 0.0
H921 H 0.25531 0.29604 0.23553 0.0
H922 H 0.77151 0.31132 0.16123 0.0
H923 H 0.78026 0.29493 0.22093 0.0
H924 H 0.82426 0.3658 0.24392 0.0
H925 H 0.81419 0.38299 0.18555 0.0
H926 H 0.84897 0.30819 0.25672 0.0
H927 H 0.77459 0.36869 0.2799 0.0
H928 H 0.72865 0.38332 0.27018 0.0
H929 H 0.70013 0.30655 0.30003 0.0
H930 H 0.74599 0.29137 0.3094 0.0
H931 H 0.88434 0.313 0.43309 0.0
H932 H 0.86939 0.32157 0.37366 0.0
H933 H 0.79966 0.27435 0.3923 0.0
H934 H 0.81347 0.26793 0.45345 0.0
H935 H 0.78518 0.31318 0.35555 0.0
H936 H 0.85563 0.25276 0.34028 0.0
H937 H 0.90013 0.2336 0.34754 0.0
H938 H 0.93468 0.30222 0.29953 0.0
H939 H 0.89042 0.32197 0.29241 0.0
C940 C 0.78264 0.3236 0.17922 0.0
C941 C 0.79237 0.34839 0.16841 0.0
C942 C 0.78779 0.31412 0.2132 0.0
C943 C 0.80305 0.32911 0.23672 0.0
C944 C 0.81263 0.35384 0.22606 0.0
C945 C 0.80704 0.36352 0.19252 0.0
C946 C 0.80961 0.31907 0.27232 0.0
C947 C 0.83514 0.30937 0.27846 0.0
C948 C 0.79118 0.31957 0.30021 0.0
C949 C 0.76369 0.3288 0.29489 0.0
C950 C 0.75854 0.35485 0.28402 0.0
C951 C 0.73252 0.36327 0.27866 0.0
C952 C 0.71149 0.34585 0.28436 0.0
C953 C 0.71644 0.32001 0.29555 0.0
C954 C 0.74243 0.3115 0.3009 0.0
C955 C 0.86556 0.30482 0.4249 0.0
C956 C 0.85 0.29 0.44833 0.0
C957 C 0.85724 0.30927 0.39044 0.0
C958 C 0.83361 0.29813 0.3778 0.0
C959 C 0.81805 0.28311 0.4011 0.0
C960 C 0.82611 0.27917 0.43601 0.0
C961 C 0.82509 0.3029 0.34065 0.0
C962 C 0.79911 0.31157 0.334 0.0
C963 C 0.84298 0.30076 0.312 0.0
C964 C 0.86968 0.28892 0.31602 0.0
C965 C 0.87272 0.26384 0.33145 0.0
C966 C 0.89791 0.25287 0.33553 0.0
C967 C 0.92022 0.2667 0.32406 0.0
C968 C 0.91738 0.29152 0.30841 0.0
C969 C 0.89224 0.3026 0.3043 0.0
H970 H 0.9397 0.25818 0.32725 0.0
H971 H 0.69135 0.3524 0.2802 0.0
H972 H 0.71387 0.80544 0.463 0.0
H973 H 0.70525 0.79037 0.40278 0.0
H974 H 0.70524 0.8715 0.36739 0.0
H975 H 0.71226 0.88637 0.42784 0.0
H976 H 0.66749 0.84949 0.33746 0.0
H977 H 0.75777 0.82386 0.35132 0.0
H978 H 0.79606 0.80219 0.37919 0.0
H979 H 0.75947 0.72629 0.36509 0.0
H980 H 0.72077 0.74755 0.33757 0.0
H981 H 0.68393 0.82401 0.15464 0.0
H982 H 0.69825 0.83279 0.21507 0.0
H983 H 0.65904 0.76178 0.24977 0.0
H984 H 0.64351 0.75363 0.18952 0.0
H985 H 0.71653 0.77672 0.27905 0.0
H986 H 0.62517 0.80659 0.26484 0.0
H987 H 0.59077 0.83086 0.23222 0.0
H988 H 0.63506 0.90285 0.24332 0.0
H989 H 0.67 0.87884 0.2754 0.0
C990 C 0.71224 0.81991 0.44216 0.0
C991 C 0.71383 0.847 0.44982 0.0
C992 C 0.70745 0.81134 0.40768 0.0
C993 C 0.70488 0.82971 0.38006 0.0
C994 C 0.707 0.85683 0.38795 0.0
C995 C 0.71119 0.86536 0.42246 0.0
C996 C 0.69897 0.82098 0.34326 0.0
C997 C 0.67853 0.83375 0.32482 0.0
C998 C 0.71297 0.8002 0.32633 0.0
C999 C 0.73625 0.78733 0.34273 0.0
C1000 C 0.7578 0.80256 0.3544 0.0
C1001 C 0.77959 0.79036 0.3701 0.0
C1002 C 0.78016 0.76289 0.374 0.0
C1003 C 0.75898 0.74757 0.3621 0.0
C1004 C 0.73712 0.75969 0.34643 0.0
C1005 C 0.6784 0.81026 0.17517 0.0
C1006 C 0.66216 0.78845 0.16757 0.0
C1007 C 0.68679 0.81516 0.20957 0.0
C1008 C 0.67961 0.798 0.2369 0.0
C1009 C 0.66486 0.77522 0.22903 0.0
C1010 C 0.65603 0.77058 0.19465 0.0
C1011 C 0.68534 0.80533 0.27394 0.0
C1012 C 0.70563 0.79235 0.29216 0.0
C1013 C 0.67168 0.82629 0.29047 0.0
C1014 C 0.6503 0.84087 0.27219 0.0
C1015 C 0.62767 0.82755 0.26008 0.0
C1016 C 0.60807 0.84126 0.24171 0.0
C1017 C 0.61076 0.86837 0.23562 0.0
C1018 C 0.63302 0.88184 0.24802 0.0
C1019 C 0.65272 0.86819 0.2663 0.0
H1020 H 0.59558 0.87895 0.22136 0.0
H1021 H 0.79705 0.75348 0.38617 0.0
H1022 H 0.19149 0.7315 0.45409 0.0
H1023 H 0.20782 0.72291 0.39423 0.0
H1024 H 0.13702 0.67877 0.37135 0.0
H1025 H 0.1199 0.68867 0.42984 0.0
H1026 H 0.19478 0.65421 0.35833 0.0
H1027 H 0.13381 0.72821 0.33547 0.0
H1028 H 0.11893 0.77408 0.34517 0.0
H1029 H 0.19547 0.80296 0.3148 0.0
H1030 H 0.21091 0.75718 0.30545 0.0
H1031 H 0.18963 0.61839 0.18207 0.0
H1032 H 0.18105 0.63349 0.24147 0.0
H1033 H 0.22786 0.7034 0.22236 0.0
H1034 H 0.23426 0.68943 0.16123 0.0
H1035 H 0.1891 0.71778 0.25946 0.0
H1036 H 0.24988 0.64754 0.27428 0.0
H1037 H 0.26909 0.60308 0.26681 0.0
H1038 H 0.20074 0.56845 0.31545 0.0
H1039 H 0.18093 0.61267 0.32277 0.0
C1040 C 0.17922 0.72037 0.43609 0.0
C1041 C 0.15448 0.71053 0.44698 0.0
C1042 C 0.18866 0.71532 0.40202 0.0
C1043 C 0.17368 0.70005 0.37848 0.0
C1044 C 0.14898 0.6904 0.3892 0.0
C1045 C 0.13934 0.69589 0.42283 0.0
C1046 C 0.18369 0.6935 0.34281 0.0
C1047 C 0.19347 0.668 0.33659 0.0
C1048 C 0.18297 0.71186 0.31488 0.0
C1049 C 0.1736 0.7393 0.32023 0.0
C1050 C 0.14754 0.74433 0.33124 0.0
C1051 C 0.13899 0.77031 0.33658 0.0
C1052 C 0.15627 0.79143 0.33073 0.0
C1053 C 0.18212 0.78659 0.3194 0.0
C1054 C 0.19077 0.76064 0.31406 0.0
C1055 C 0.19769 0.63725 0.19013 0.0
C1056 C 0.2124 0.65281 0.16656 0.0
C1057 C 0.19325 0.64565 0.22459 0.0
C1058 C 0.2043 0.66937 0.23711 0.0
C1059 C 0.21918 0.68494 0.21367 0.0
C1060 C 0.2231 0.6768 0.17875 0.0
C1061 C 0.19962 0.67794 0.27431 0.0
C1062 C 0.19086 0.70389 0.28102 0.0
C1063 C 0.20195 0.66012 0.30297 0.0
C1064 C 0.21385 0.63345 0.29887 0.0
C1065 C 0.23887 0.63044 0.2832 0.0
C1066 C 0.24987 0.60527 0.27901 0.0
C1067 C 0.23612 0.58295 0.29059 0.0
C1068 C 0.21136 0.58576 0.30648 0.0
C1069 C 0.20026 0.61088 0.31071 0.0
H1070 H 0.24467 0.56348 0.28731 0.0
H1071 H 0.14962 0.81153 0.33487 0.0
H1072 H 0.64713 0.83909 0.96157 0.0
H1073 H 0.66247 0.85129 0.90295 0.0
H1074 H 0.65414 0.77019 0.86927 0.0
H1075 H 0.64047 0.75768 0.92861 0.0
H1076 H 0.69421 0.7878 0.8388 0.0
H1077 H 0.60676 0.82268 0.8507 0.0
H1078 H 0.57087 0.84825 0.87853 0.0
H1079 H 0.61585 0.9197 0.86642 0.0
H1080 H 0.65217 0.8945 0.8389 0.0
H1081 H 0.66217 0.86199 0.66137 0.0
H1082 H 0.64963 0.84643 0.71968 0.0
H1083 H 0.73202 0.84104 0.74832 0.0
H1084 H 0.74466 0.85546 0.68936 0.0
H1085 H 0.65364 0.86535 0.78024 0.0
H1086 H 0.74225 0.79636 0.81245 0.0
H1087 H 0.77314 0.76656 0.78158 0.0
H1088 H 0.71655 0.75576 0.69881 0.0
H1089 H 0.68521 0.78521 0.72939 0.0
C1090 C 0.64871 0.82383 0.94171 0.0
C1091 C 0.64241 0.79743 0.94973 0.0
C1092 C 0.65732 0.83086 0.908 0.0
C1093 C 0.65888 0.81186 0.88105 0.0
C1094 C 0.65311 0.78535 0.88932 0.0
C1095 C 0.6452 0.77819 0.92331 0.0
C1096 C 0.66614 0.8196 0.84427 0.0
C1097 C 0.68529 0.80477 0.82607 0.0
C1098 C 0.65422 0.84139 0.82695 0.0
C1099 C 0.63227 0.85667 0.84303 0.0
C1100 C 0.60904 0.84383 0.85412 0.0
C1101 C 0.58862 0.85825 0.86984 0.0
C1102 C 0.59111 0.88557 0.87433 0.0
C1103 C 0.61397 0.89853 0.86297 0.0
C1104 C 0.63447 0.8842 0.84728 0.0
C1105 C 0.67766 0.85727 0.67995 0.0
C1106 C 0.70445 0.85989 0.67053 0.0
C1107 C 0.67045 0.84845 0.71347 0.0
C1108 C 0.68979 0.84226 0.73866 0.0
C1109 C 0.71661 0.84502 0.72933 0.0
C1110 C 0.72385 0.85341 0.69556 0.0
C1111 C 0.68178 0.83361 0.77479 0.0
C1112 C 0.66254 0.84835 0.79293 0.0
C1113 C 0.69288 0.81114 0.79149 0.0
C1114 C 0.71151 0.79323 0.77305 0.0
C1115 C 0.73637 0.78756 0.78772 0.0
C1116 C 0.75396 0.77074 0.77026 0.0
C1117 C 0.74685 0.75935 0.7382 0.0
C1118 C 0.72208 0.76468 0.72358 0.0
C1119 C 0.70441 0.78146 0.74094 0.0
H1120 H 0.7605 0.74635 0.72472 0.0
H1121 H 0.5753 0.8967 0.88654 0.0
H1122 H 0.1653 0.74247 0.6746 0.0
H1123 H 0.18113 0.73154 0.73376 0.0
H1124 H 0.13854 0.65774 0.72988 0.0
H1125 H 0.12278 0.66835 0.67112 0.0
H1126 H 0.12992 0.6847 0.79161 0.0
H1127 H 0.20485 0.65911 0.71968 0.0
H1128 H 0.24034 0.66711 0.67651 0.0
H1129 H 0.27302 0.72756 0.74276 0.0
H1130 H 0.2375 0.72015 0.78613 0.0
H1131 H 0.17758 0.61202 0.93412 0.0
H1132 H 0.16589 0.62826 0.87606 0.0
H1133 H 0.22287 0.69132 0.88658 0.0
H1134 H 0.23572 0.6741 0.94438 0.0
H1135 H 0.22462 0.67504 0.82295 0.0
H1136 H 0.1526 0.70041 0.89626 0.0
H1137 H 0.11724 0.69442 0.94017 0.0
H1138 H 0.07859 0.63842 0.87273 0.0
H1139 H 0.11391 0.64379 0.82859 0.0
C1140 C 0.15941 0.72385 0.68626 0.0
C1141 C 0.14272 0.70632 0.6679 0.0
C1142 C 0.16853 0.7176 0.72009 0.0
C1143 C 0.16109 0.69376 0.73633 0.0
C1144 C 0.14453 0.67627 0.71801 0.0
C1145 C 0.1356 0.68237 0.68423 0.0
C1146 C 0.16993 0.68701 0.77262 0.0
C1147 C 0.15063 0.68236 0.79839 0.0
C1148 C 0.19696 0.68493 0.78194 0.0
C1149 C 0.21836 0.68928 0.75595 0.0
C1150 C 0.21948 0.67426 0.7249 0.0
C1151 C 0.23962 0.67866 0.70042 0.0
C1152 C 0.25888 0.69789 0.70684 0.0
C1153 C 0.25807 0.71271 0.7378 0.0
C1154 C 0.23795 0.7084 0.76234 0.0
C1155 C 0.18762 0.62941 0.92421 0.0
C1156 C 0.20741 0.64191 0.94414 0.0
C1157 C 0.18078 0.63882 0.89093 0.0
C1158 C 0.19289 0.66156 0.87701 0.0
C1159 C 0.21303 0.67387 0.89664 0.0
C1160 C 0.22033 0.66406 0.92976 0.0
C1161 C 0.18455 0.67213 0.84197 0.0
C1162 C 0.20391 0.67759 0.81641 0.0
C1163 C 0.15751 0.6754 0.83294 0.0
C1164 C 0.13602 0.67238 0.85922 0.0
C1165 C 0.13663 0.68672 0.89087 0.0
C1166 C 0.11659 0.68344 0.91579 0.0
C1167 C 0.09571 0.66601 0.90927 0.0
C1168 C 0.09478 0.6519 0.87775 0.0
C1169 C 0.11479 0.65508 0.85275 0.0
H1170 H 0.08023 0.66348 0.92862 0.0
H1171 H 0.27446 0.70126 0.68786 0.0
H1172 H 0.33382 0.11967 0.67187 0.0
H1173 H 0.34521 0.13471 0.73085 0.0
H1174 H 0.27437 0.18203 0.73425 0.0
H1175 H 0.26263 0.16691 0.67505 0.0
H1176 H 0.32004 0.20856 0.76034 0.0
H1177 H 0.27428 0.12615 0.77711 0.0
H1178 H 0.26556 0.07882 0.76665 0.0
H1179 H 0.3438 0.05953 0.80207 0.0
H1180 H 0.35313 0.1068 0.81228 0.0
H1181 H 0.33103 0.23532 0.94382 0.0
H1182 H 0.3149 0.22294 0.8855 0.0
H1183 H 0.37257 0.16013 0.88078 0.0
H1184 H 0.38778 0.17157 0.93958 0.0
H1185 H 0.33024 0.14221 0.85522 0.0
H1186 H 0.37804 0.22311 0.83525 0.0
H1187 H 0.38904 0.27018 0.84398 0.0
H1188 H 0.31045 0.29223 0.813 0.0
H1189 H 0.29889 0.24524 0.80448 0.0
C1190 C 0.32064 0.13336 0.68495 0.0
C1191 C 0.2972 0.14194 0.66858 0.0
C1192 C 0.32718 0.1419 0.71882 0.0
C1193 C 0.31054 0.15933 0.73717 0.0
C1194 C 0.28749 0.16854 0.72064 0.0
C1195 C 0.28077 0.15979 0.68681 0.0
C1196 C 0.31708 0.16737 0.77385 0.0
C1197 C 0.3219 0.19414 0.78126 0.0
C1198 C 0.32012 0.14851 0.80099 0.0
C1199 C 0.31447 0.12004 0.79518 0.0
C1200 C 0.28969 0.11183 0.78243 0.0
C1201 C 0.28463 0.08501 0.77658 0.0
C1202 C 0.30413 0.06618 0.78361 0.0
C1203 C 0.32872 0.07413 0.7966 0.0
C1204 C 0.33389 0.10094 0.80246 0.0
C1205 C 0.34024 0.21884 0.93036 0.0
C1206 C 0.36076 0.20449 0.94645 0.0
C1207 C 0.33111 0.21186 0.89681 0.0
C1208 C 0.34276 0.19082 0.87813 0.0
C1209 C 0.36313 0.17641 0.89439 0.0
C1210 C 0.37189 0.18303 0.92812 0.0
C1211 C 0.33376 0.1835 0.8419 0.0
C1212 C 0.32837 0.15678 0.83449 0.0
C1213 C 0.33058 0.20241 0.81467 0.0
C1214 C 0.33753 0.23066 0.81959 0.0
C1215 C 0.36306 0.23799 0.83052 0.0
C1216 C 0.3694 0.26466 0.8354 0.0
C1217 C 0.35043 0.28418 0.82915 0.0
C1218 C 0.3251 0.27708 0.81789 0.0
C1219 C 0.31866 0.25044 0.813 0.0
H1220 H 0.35537 0.30481 0.83296 0.0
H1221 H 0.30018 0.04543 0.77906 0.0
H1222 H 0.87709 0.33346 0.67402 0.0
H1223 H 0.86144 0.34342 0.73307 0.0
H1224 H 0.82013 0.26891 0.73648 0.0
H1225 H 0.83591 0.25856 0.67702 0.0
H1226 H 0.79031 0.31299 0.76364 0.0
H1227 H 0.87558 0.2725 0.77871 0.0
H1228 H 0.9232 0.26672 0.76699 0.0
H1229 H 0.93812 0.34618 0.80149 0.0
H1230 H 0.89052 0.35257 0.81295 0.0
H1231 H 0.76582 0.32795 0.94816 0.0
H1232 H 0.77758 0.31043 0.89018 0.0
H1233 H 0.8378 0.37045 0.87987 0.0
H1234 H 0.82705 0.38701 0.93814 0.0
H1235 H 0.85717 0.32822 0.85671 0.0
H1236 H 0.77345 0.37136 0.8366 0.0
H1237 H 0.72593 0.3799 0.84598 0.0
H1238 H 0.70801 0.29938 0.81911 0.0
H1239 H 0.75548 0.29029 0.80997 0.0
C1240 C 0.86457 0.31914 0.68707 0.0
C1241 C 0.85793 0.29509 0.67063 0.0
C1242 C 0.85567 0.32489 0.72099 0.0
C1243 C 0.83981 0.30682 0.73939 0.0
C1244 C 0.8324 0.28313 0.72281 0.0
C1245 C 0.84151 0.27722 0.68884 0.0
C1246 C 0.83176 0.31261 0.77626 0.0
C1247 C 0.80485 0.31591 0.78421 0.0
C1248 C 0.85076 0.31698 0.8029 0.0
C1249 C 0.87945 0.31307 0.79645 0.0
C1250 C 0.88899 0.2888 0.78358 0.0
C1251 C 0.91598 0.2854 0.77701 0.0
C1252 C 0.93367 0.30608 0.78343 0.0
C1253 C 0.9244 0.33018 0.79652 0.0
C1254 C 0.89742 0.33369 0.80309 0.0
C1255 C 0.78159 0.33735 0.9335 0.0
C1256 C 0.79551 0.35887 0.9479 0.0
C1257 C 0.78821 0.32742 0.90017 0.0
C1258 C 0.80841 0.33927 0.8801 0.0
C1259 C 0.82224 0.36077 0.89461 0.0
C1260 C 0.81602 0.3703 0.92807 0.0
C1261 C 0.81559 0.32939 0.84423 0.0
C1262 C 0.84246 0.32519 0.83639 0.0
C1263 C 0.79654 0.32462 0.8176 0.0
C1264 C 0.76802 0.33008 0.823 0.0
C1265 C 0.75938 0.35543 0.83293 0.0
C1266 C 0.73246 0.36038 0.83816 0.0
C1267 C 0.71397 0.34017 0.83325 0.0
C1268 C 0.72236 0.315 0.82297 0.0
C1269 C 0.74926 0.30994 0.81774 0.0
H1270 H 0.69314 0.34404 0.83731 0.0
H1271 H 0.95456 0.30342 0.77831 0.0
loop_
_geom_bond_atom_site_label_1
_geom_bond_atom_site_label_2
_geom_bond_distance
_geom_bond_site_symmetry_2
_ccdc_geom_bond_type
Co0 O3 1.970 1_554 S
Co0 N17 1.989 . S
Co0 O25 1.967 . S
Co0 O32 1.920 . S
Co1 O4 1.966 1_554 S
Co1 N10 2.022 . S
Co1 N18 1.993 . S
Co1 O26 1.941 . S
C2 O3 1.258 . S
C2 O4 1.263 . S
O3 Co0 1.970 1_556 S
O3 C2 1.258 . S
O4 Co1 1.966 1_556 S
O4 C2 1.263 . S
C5 O6 1.235 . S
C5 O32 1.289 . S
O6 C5 1.235 . S
C7 C9 1.400 . S
C7 N10 1.351 . S
C7 C12 1.501 1_554 S
C8 C9 1.387 . S
C8 N11 1.341 . S
C9 C7 1.400 . S
C9 C8 1.387 . S
N10 Co1 2.022 . S
N10 C7 1.351 . S
N10 N11 1.365 . S
N11 C8 1.341 . S
N11 N10 1.365 . S
N11 H31 0.862 . S
C12 C7 1.501 1_556 S
C12 H13 0.961 . S
C12 H14 0.963 . S
C12 H15 0.960 . S
H13 C12 0.961 . S
H14 C12 0.963 . S
H15 C12 0.960 . S
C16 N17 1.342 . S
C16 C20 1.401 . S
C16 C21 1.499 . S
N17 Co0 1.989 . S
N17 C16 1.342 . S
N17 N18 1.388 . S
N18 Co1 1.993 . S
N18 N17 1.388 . S
N18 C19 1.346 . S
C19 N18 1.346 . S
C19 C20 1.396 . S
C19 C29 1.510 . S
C20 C16 1.401 . S
C20 C19 1.396 . S
C21 C16 1.499 . S
C21 H22 0.959 . S
C21 H23 0.960 . S
C21 H24 0.961 . S
H22 C21 0.959 . S
H23 C21 0.960 . S
H24 C21 0.961 . S
O25 Co0 1.967 . S
O25 C33 1.258 . S
O26 Co1 1.941 . S
O26 C33 1.266 . S
H27 C29 0.959 . S
H28 C29 0.961 . S
C29 C19 1.510 . S
C29 H27 0.959 . S
C29 H28 0.961 . S
C29 H30 0.960 . S
H30 C29 0.960 . S
H31 N11 0.862 . S
O32 Co0 1.920 . S
O32 C5 1.289 . S
C33 O25 1.258 . S
C33 O26 1.266 . S
Co34 O37 1.970 1_554 S
Co34 N51 1.989 . S
Co34 O59 1.967 . S
Co34 O66 1.920 . S
Co35 O38 1.966 1_554 S
Co35 N44 2.022 . S
Co35 N52 1.993 . S
Co35 O60 1.941 . S
C36 O37 1.258 . S
C36 O38 1.263 . S
O37 Co34 1.970 1_556 S
O37 C36 1.258 . S
O38 Co35 1.966 1_556 S
O38 C36 1.263 . S
C39 O40 1.235 . S
C39 O66 1.289 . S
O40 C39 1.235 . S
C41 C43 1.400 . S
C41 N44 1.351 . S
C41 C46 1.501 1_554 S
C42 C43 1.387 . S
C42 N45 1.341 . S
C43 C41 1.400 . S
C43 C42 1.387 . S
N44 Co35 2.022 . S
N44 C41 1.351 . S
N44 N45 1.365 . S
N45 C42 1.341 . S
N45 N44 1.365 . S
N45 H65 0.862 . S
C46 C41 1.501 1_556 S
C46 H47 0.961 . S
C46 H48 0.963 . S
C46 H49 0.960 . S
H47 C46 0.961 . S
H48 C46 0.963 . S
H49 C46 0.960 . S
C50 N51 1.342 . S
C50 C54 1.401 . S
C50 C55 1.499 . S
N51 Co34 1.989 . S
N51 C50 1.342 . S
N51 N52 1.388 . S
N52 Co35 1.993 . S
N52 N51 1.388 . S
N52 C53 1.346 . S
C53 N52 1.346 . S
C53 C54 1.396 . S
C53 C63 1.510 . S
C54 C50 1.401 . S
C54 C53 1.396 . S
C55 C50 1.499 . S
C55 H56 0.959 . S
C55 H57 0.960 . S
C55 H58 0.961 . S
H56 C55 0.959 . S
H57 C55 0.960 . S
H58 C55 0.961 . S
O59 Co34 1.967 . S
O59 C67 1.258 . S
O60 Co35 1.941 . S
O60 C67 1.266 . S
H61 C63 0.959 . S
H62 C63 0.961 . S
C63 C53 1.510 . S
C63 H61 0.959 . S
C63 H62 0.961 . S
C63 H64 0.960 . S
H64 C63 0.960 . S
H65 N45 0.862 . S
O66 Co34 1.920 . S
O66 C39 1.289 . S
C67 O59 1.258 . S
C67 O60 1.266 . S
Co68 O71 1.970 1_554 S
Co68 N85 1.989 . S
Co68 O93 1.967 . S
Co68 O100 1.920 . S
Co69 O72 1.966 1_554 S
Co69 N78 2.022 . S
Co69 N86 1.993 . S
Co69 O94 1.941 . S
C70 O71 1.258 . S
C70 O72 1.263 . S
O71 Co68 1.970 1_556 S
O71 C70 1.258 . S
O72 Co69 1.966 1_556 S
O72 C70 1.263 . S
C73 O74 1.235 . S
C73 O100 1.289 . S
O74 C73 1.235 . S
C75 C77 1.400 . S
C75 N78 1.351 . S
C75 C80 1.501 1_554 S
C76 C77 1.387 . S
C76 N79 1.341 . S
C77 C75 1.400 . S
C77 C76 1.387 . S
N78 Co69 2.022 . S
N78 C75 1.351 . S
N78 N79 1.365 . S
N79 C76 1.341 . S
N79 N78 1.365 . S
N79 H99 0.862 . S
C80 C75 1.501 1_556 S
C80 H81 0.961 . S
C80 H82 0.963 . S
C80 H83 0.960 . S
H81 C80 0.961 . S
H82 C80 0.963 . S
H83 C80 0.960 . S
C84 N85 1.342 . S
C84 C88 1.401 . S
C84 C89 1.499 . S
N85 Co68 1.989 . S
N85 C84 1.342 . S
N85 N86 1.388 . S
N86 Co69 1.993 . S
N86 N85 1.388 . S
N86 C87 1.346 . S
C87 N86 1.346 . S
C87 C88 1.396 . S
C87 C97 1.510 . S
C88 C84 1.401 . S
C88 C87 1.396 . S
C89 C84 1.499 . S
C89 H90 0.959 . S
C89 H91 0.960 . S
C89 H92 0.961 . S
H90 C89 0.959 . S
H91 C89 0.960 . S
H92 C89 0.961 . S
O93 Co68 1.967 . S
O93 C101 1.258 . S
O94 Co69 1.941 . S
O94 C101 1.266 . S
H95 C97 0.959 . S
H96 C97 0.961 . S
C97 C87 1.510 . S
C97 H95 0.959 . S
C97 H96 0.961 . S
C97 H98 0.960 . S
H98 C97 0.960 . S
H99 N79 0.862 . S
O100 Co68 1.920 . S
O100 C73 1.289 . S
C101 O93 1.258 . S
C101 O94 1.266 . S
Co102 O105 1.970 1_554 S
Co102 N119 1.989 . S
Co102 O127 1.967 . S
Co102 O134 1.920 . S
Co103 O106 1.966 1_554 S
Co103 N112 2.022 . S
Co103 N120 1.993 . S
Co103 O128 1.941 . S
C104 O105 1.258 . S
C104 O106 1.263 . S
O105 Co102 1.970 1_556 S
O105 C104 1.258 . S
O106 Co103 1.966 1_556 S
O106 C104 1.263 . S
C107 O108 1.235 . S
C107 O134 1.289 . S
O108 C107 1.235 . S
C109 C111 1.400 . S
C109 N112 1.351 . S
C109 C114 1.501 1_554 S
C110 C111 1.387 . S
C110 N113 1.341 . S
C111 C109 1.400 . S
C111 C110 1.387 . S
N112 Co103 2.022 . S
N112 C109 1.351 . S
N112 N113 1.365 . S
N113 C110 1.341 . S
N113 N112 1.365 . S
N113 H133 0.862 . S
C114 C109 1.501 1_556 S
C114 H115 0.961 . S
C114 H116 0.963 . S
C114 H117 0.960 . S
H115 C114 0.961 . S
H116 C114 0.963 . S
H117 C114 0.960 . S
C118 N119 1.342 . S
C118 C122 1.401 . S
C118 C123 1.499 . S
N119 Co102 1.989 . S
N119 C118 1.342 . S
N119 N120 1.388 . S
N120 Co103 1.993 . S
N120 N119 1.388 . S
N120 C121 1.346 . S
C121 N120 1.346 . S
C121 C122 1.396 . S
C121 C131 1.510 . S
C122 C118 1.401 . S
C122 C121 1.396 . S
C123 C118 1.499 . S
C123 H124 0.959 . S
C123 H125 0.960 . S
C123 H126 0.961 . S
H124 C123 0.959 . S
H125 C123 0.960 . S
H126 C123 0.961 . S
O127 Co102 1.967 . S
O127 C135 1.258 . S
O128 Co103 1.941 . S
O128 C135 1.266 . S
H129 C131 0.959 . S
H130 C131 0.961 . S
C131 C121 1.510 . S
C131 H129 0.959 . S
C131 H130 0.961 . S
C131 H132 0.960 . S
H132 C131 0.960 . S
H133 N113 0.862 . S
O134 Co102 1.920 . S
O134 C107 1.289 . S
C135 O127 1.258 . S
C135 O128 1.266 . S
Co136 O139 1.970 . S
Co136 N153 1.989 . S
Co136 O161 1.967 . S
Co136 O168 1.920 . S
Co137 O140 1.966 . S
Co137 N146 2.022 . S
Co137 N154 1.993 . S
Co137 O162 1.941 . S
C138 O139 1.258 . S
C138 O140 1.263 . S
O139 Co136 1.970 . S
O139 C138 1.258 . S
O140 Co137 1.966 . S
O140 C138 1.263 . S
C141 O142 1.235 . S
C141 O168 1.289 . S
O142 C141 1.235 . S
C143 C145 1.400 . S
C143 N146 1.351 . S
C143 C148 1.501 . S
C144 C145 1.387 . S
C144 N147 1.341 . S
C145 C143 1.400 . S
C145 C144 1.387 . S
N146 Co137 2.022 . S
N146 C143 1.351 . S
N146 N147 1.365 . S
N147 C144 1.341 . S
N147 N146 1.365 . S
N147 H167 0.862 . S
C148 C143 1.501 . S
C148 H149 0.961 . S
C148 H150 0.961 . S
C148 H151 0.960 . S
H149 C148 0.961 . S
H150 C148 0.961 . S
H151 C148 0.960 . S
C152 N153 1.342 . S
C152 C156 1.401 . S
C152 C157 1.499 . S
N153 Co136 1.989 . S
N153 C152 1.342 . S
N153 N154 1.388 . S
N154 Co137 1.993 . S
N154 N153 1.388 . S
N154 C155 1.346 . S
C155 N154 1.346 . S
C155 C156 1.396 . S
C155 C165 1.510 . S
C156 C152 1.401 . S
C156 C155 1.396 . S
C157 C152 1.499 . S
C157 H158 0.959 . S
C157 H159 0.960 . S
C157 H160 0.961 . S
H158 C157 0.959 . S
H159 C157 0.960 . S
H160 C157 0.961 . S
O161 Co136 1.967 . S
O161 C169 1.258 . S
O162 Co137 1.941 . S
O162 C169 1.266 . S
H163 C165 0.959 . S
H164 C165 0.961 . S
C165 C155 1.510 . S
C165 H163 0.959 . S
C165 H164 0.961 . S
C165 H166 0.960 . S
H166 C165 0.960 . S
H167 N147 0.862 . S
O168 Co136 1.920 . S
O168 C141 1.289 . S
C169 O161 1.258 . S
C169 O162 1.266 . S
Co170 O173 1.970 . S
Co170 N187 1.989 . S
Co170 O195 1.967 . S
Co170 O202 1.920 . S
Co171 O174 1.966 . S
Co171 N180 2.022 . S
Co171 N188 1.993 . S
Co171 O196 1.941 . S
C172 O173 1.258 . S
C172 O174 1.263 . S
O173 Co170 1.970 . S
O173 C172 1.258 . S
O174 Co171 1.966 . S
O174 C172 1.263 . S
C175 O176 1.235 . S
C175 O202 1.289 . S
O176 C175 1.235 . S
C177 C179 1.400 . S
C177 N180 1.351 . S
C177 C182 1.501 . S
C178 C179 1.387 . S
C178 N181 1.341 . S
C179 C177 1.400 . S
C179 C178 1.387 . S
N180 Co171 2.022 . S
N180 C177 1.351 . S
N180 N181 1.365 . S
N181 C178 1.341 . S
N181 N180 1.365 . S
N181 H201 0.862 . S
C182 C177 1.501 . S
C182 H183 0.961 . S
C182 H184 0.961 . S
C182 H185 0.960 . S
H183 C182 0.961 . S
H184 C182 0.961 . S
H185 C182 0.960 . S
C186 N187 1.342 . S
C186 C190 1.401 . S
C186 C191 1.499 . S
N187 Co170 1.989 . S
N187 C186 1.342 . S
N187 N188 1.388 . S
N188 Co171 1.993 . S
N188 N187 1.388 . S
N188 C189 1.346 . S
C189 N188 1.346 . S
C189 C190 1.396 . S
C189 C199 1.510 . S
C190 C186 1.401 . S
C190 C189 1.396 . S
C191 C186 1.499 . S
C191 H192 0.959 . S
C191 H193 0.960 . S
C191 H194 0.961 . S
H192 C191 0.959 . S
H193 C191 0.960 . S
H194 C191 0.961 . S
O195 Co170 1.967 . S
O195 C203 1.258 . S
O196 Co171 1.941 . S
O196 C203 1.266 . S
H197 C199 0.959 . S
H198 C199 0.961 . S
C199 C189 1.510 . S
C199 H197 0.959 . S
C199 H198 0.961 . S
C199 H200 0.960 . S
H200 C199 0.960 . S
H201 N181 0.862 . S
O202 Co170 1.920 . S
O202 C175 1.289 . S
C203 O195 1.258 . S
C203 O196 1.266 . S
Co204 O207 1.970 . S
Co204 N221 1.989 . S
Co204 O229 1.967 . S
Co204 O236 1.920 . S
Co205 O208 1.966 . S
Co205 N214 2.022 . S
Co205 N222 1.993 . S
Co205 O230 1.941 . S
C206 O207 1.258 . S
C206 O208 1.263 . S
O207 Co204 1.970 . S
O207 C206 1.258 . S
O208 Co205 1.966 . S
O208 C206 1.263 . S
C209 O210 1.235 . S
C209 O236 1.289 . S
O210 C209 1.235 . S
C211 C213 1.400 . S
C211 N214 1.351 . S
C211 C216 1.501 . S
C212 C213 1.387 . S
C212 N215 1.341 . S
C213 C211 1.400 . S
C213 C212 1.387 . S
N214 Co205 2.022 . S
N214 C211 1.351 . S
N214 N215 1.365 . S
N215 C212 1.341 . S
N215 N214 1.365 . S
N215 H235 0.862 . S
C216 C211 1.501 . S
C216 H217 0.961 . S
C216 H218 0.961 . S
C216 H219 0.960 . S
H217 C216 0.961 . S
H218 C216 0.961 . S
H219 C216 0.960 . S
C220 N221 1.342 . S
C220 C224 1.401 . S
C220 C225 1.499 . S
N221 Co204 1.989 . S
N221 C220 1.342 . S
N221 N222 1.388 . S
N222 Co205 1.993 . S
N222 N221 1.388 . S
N222 C223 1.346 . S
C223 N222 1.346 . S
C223 C224 1.396 . S
C223 C233 1.510 . S
C224 C220 1.401 . S
C224 C223 1.396 . S
C225 C220 1.499 . S
C225 H226 0.959 . S
C225 H227 0.960 . S
C225 H228 0.961 . S
H226 C225 0.959 . S
H227 C225 0.960 . S
H228 C225 0.961 . S
O229 Co204 1.967 . S
O229 C237 1.258 . S
O230 Co205 1.941 . S
O230 C237 1.266 . S
H231 C233 0.959 . S
H232 C233 0.961 . S
C233 C223 1.510 . S
C233 H231 0.959 . S
C233 H232 0.961 . S
C233 H234 0.960 . S
H234 C233 0.960 . S
H235 N215 0.862 . S
O236 Co204 1.920 . S
O236 C209 1.289 . S
C237 O229 1.258 . S
C237 O230 1.266 . S
Co238 O241 1.970 . S
Co238 N255 1.989 . S
Co238 O263 1.967 . S
Co238 O270 1.920 . S
Co239 O242 1.966 . S
Co239 N248 2.022 . S
Co239 N256 1.993 . S
Co239 O264 1.941 . S
C240 O241 1.258 . S
C240 O242 1.263 . S
O241 Co238 1.970 . S
O241 C240 1.258 . S
O242 Co239 1.966 . S
O242 C240 1.263 . S
C243 O244 1.235 . S
C243 O270 1.289 . S
O244 C243 1.235 . S
C245 C247 1.400 . S
C245 N248 1.351 . S
C245 C250 1.501 . S
C246 C247 1.387 . S
C246 N249 1.341 . S
C247 C245 1.400 . S
C247 C246 1.387 . S
N248 Co239 2.022 . S
N248 C245 1.351 . S
N248 N249 1.365 . S
N249 C246 1.341 . S
N249 N248 1.365 . S
N249 H269 0.862 . S
C250 C245 1.501 . S
C250 H251 0.961 . S
C250 H252 0.961 . S
C250 H253 0.960 . S
H251 C250 0.961 . S
H252 C250 0.961 . S
H253 C250 0.960 . S
C254 N255 1.342 . S
C254 C258 1.401 . S
C254 C259 1.499 . S
N255 Co238 1.989 . S
N255 C254 1.342 . S
N255 N256 1.388 . S
N256 Co239 1.993 . S
N256 N255 1.388 . S
N256 C257 1.346 . S
C257 N256 1.346 . S
C257 C258 1.396 . S
C257 C267 1.510 . S
C258 C254 1.401 . S
C258 C257 1.396 . S
C259 C254 1.499 . S
C259 H260 0.959 . S
C259 H261 0.960 . S
C259 H262 0.961 . S
H260 C259 0.959 . S
H261 C259 0.960 . S
H262 C259 0.961 . S
O263 Co238 1.967 . S
O263 C271 1.258 . S
O264 Co239 1.941 . S
O264 C271 1.266 . S
H265 C267 0.959 . S
H266 C267 0.961 . S
C267 C257 1.510 . S
C267 H265 0.959 . S
C267 H266 0.961 . S
C267 H268 0.960 . S
H268 C267 0.960 . S
H269 N249 0.862 . S
O270 Co238 1.920 . S
O270 C243 1.289 . S
C271 O263 1.258 . S
C271 O264 1.266 . S
H272 C290 0.951 1_556 S
H273 C292 0.951 1_556 S
H274 C294 0.950 . S
H275 C295 0.950 . S
H276 C297 0.950 . S
H277 C300 0.950 1_554 S
H278 C301 0.950 . S
H279 C303 0.950 . S
H280 C304 0.950 . S
H281 C305 0.951 . S
H282 C307 0.951 . S
H283 C309 0.950 1_556 S
H284 C310 0.950 1_556 S
H285 C312 0.950 1_556 S
H286 C315 0.950 . S
H287 C316 0.950 . S
H288 C318 0.950 . S
H289 C319 0.950 . S
C290 H272 0.951 1_554 S
C290 C291 1.366 . S
C290 C292 1.388 . S
C291 C290 1.366 . S
C291 C295 1.385 . S
C292 H273 0.951 1_554 S
C292 C290 1.388 . S
C292 C293 1.366 . S
C293 C292 1.366 . S
C293 C294 1.414 . S
C293 C296 1.499 . S
C294 H274 0.950 . S
C294 C293 1.414 . S
C294 C295 1.374 . S
C295 H275 0.950 . S
C295 C291 1.385 . S
C295 C294 1.374 . S
C296 C293 1.499 . S
C296 C297 1.373 . S
C296 C298 1.389 . S
C297 H276 0.950 . S
C297 C296 1.373 . S
C297 C313 1.377 1_565 S
C298 C296 1.389 . S
C298 C299 1.524 1_554 S
C298 C312 1.377 1_565 S
C299 C298 1.524 1_556 S
C299 C300 1.397 . S
C299 C304 1.363 . S
C300 H277 0.950 1_556 S
C300 C299 1.397 . S
C300 C301 1.334 . S
C301 H278 0.950 . S
C301 C300 1.334 . S
C301 C302 1.287 . S
C302 C301 1.287 . S
C302 C303 1.524 . S
C302 H321 0.913 . S
C303 H279 0.950 . S
C303 C302 1.524 . S
C303 C304 1.415 . S
C304 H280 0.950 . S
C304 C299 1.363 . S
C304 C303 1.415 . S
C305 H281 0.951 . S
C305 C306 1.366 . S
C305 C307 1.388 . S
C306 C305 1.366 . S
C306 C310 1.385 . S
C307 H282 0.951 . S
C307 C305 1.388 . S
C307 C308 1.366 . S
C308 C307 1.366 . S
C308 C309 1.414 . S
C308 C311 1.499 . S
C309 H283 0.950 1_554 S
C309 C308 1.414 . S
C309 C310 1.374 . S
C310 H284 0.950 1_554 S
C310 C306 1.385 . S
C310 C309 1.374 . S
C311 C308 1.499 . S
C311 C312 1.373 . S
C311 C313 1.389 . S
C312 H285 0.950 1_554 S
C312 C298 1.377 1_545 S
C312 C311 1.373 . S
C313 C297 1.377 1_545 S
C313 C311 1.389 . S
C313 C314 1.524 . S
C314 C313 1.524 . S
C314 C315 1.397 . S
C314 C319 1.363 . S
C315 H286 0.950 . S
C315 C314 1.397 . S
C315 C316 1.334 . S
C316 H287 0.950 . S
C316 C315 1.334 . S
C316 C317 1.287 . S
C317 C316 1.287 . S
C317 C318 1.524 . S
C317 H320 0.999 . S
C318 H288 0.950 . S
C318 C317 1.524 . S
C318 C319 1.415 . S
C319 H289 0.950 . S
C319 C314 1.363 . S
C319 C318 1.415 . S
H320 C317 0.999 . S
H321 C302 0.913 . S
H322 C340 0.951 . S
H323 C342 0.951 . S
H324 C344 0.950 . S
H325 C345 0.950 . S
H326 C347 0.950 . S
H327 C350 0.950 . S
H328 C351 0.950 . S
H329 C353 0.950 . S
H330 C354 0.950 . S
H331 C355 0.951 . S
H332 C357 0.951 . S
H333 C359 0.950 . S
H334 C360 0.950 . S
H335 C362 0.950 . S
H336 C365 0.950 . S
H337 C366 0.950 . S
H338 C368 0.950 . S
H339 C369 0.950 . S
C340 H322 0.951 . S
C340 C341 1.366 . S
C340 C342 1.388 . S
C341 C340 1.366 . S
C341 C345 1.385 . S
C342 H323 0.951 . S
C342 C340 1.388 . S
C342 C343 1.366 . S
C343 C342 1.366 . S
C343 C344 1.414 . S
C343 C346 1.499 . S
C344 H324 0.950 . S
C344 C343 1.414 . S
C344 C345 1.374 . S
C345 H325 0.950 . S
C345 C341 1.385 . S
C345 C344 1.374 . S
C346 C343 1.499 . S
C346 C347 1.373 . S
C346 C348 1.389 . S
C347 H326 0.950 . S
C347 C346 1.373 . S
C347 C363 1.377 1_655 S
C348 C346 1.389 . S
C348 C349 1.515 1_554 S
C348 C362 1.377 1_655 S
C349 C348 1.515 1_556 S
C349 C350 1.410 . S
C349 C354 1.360 1_556 S
C350 H327 0.950 . S
C350 C349 1.410 . S
C350 C351 1.334 . S
C351 H328 0.950 . S
C351 C350 1.334 . S
C351 C352 1.287 . S
C352 C351 1.287 . S
C352 C353 1.524 . S
C352 H371 0.913 . S
C353 H329 0.950 . S
C353 C352 1.524 . S
C353 C354 1.415 1_556 S
C354 H330 0.950 . S
C354 C349 1.360 1_554 S
C354 C353 1.415 1_554 S
C355 H331 0.951 . S
C355 C356 1.366 . S
C355 C357 1.388 . S
C356 C355 1.366 . S
C356 C360 1.385 . S
C357 H332 0.951 . S
C357 C355 1.388 . S
C357 C358 1.366 . S
C358 C357 1.366 . S
C358 C359 1.414 . S
C358 C361 1.499 . S
C359 H333 0.950 . S
C359 C358 1.414 . S
C359 C360 1.374 . S
C360 H334 0.950 . S
C360 C356 1.385 . S
C360 C359 1.374 . S
C361 C358 1.499 . S
C361 C362 1.373 . S
C361 C363 1.389 . S
C362 H335 0.950 . S
C362 C348 1.377 1_455 S
C362 C361 1.373 . S
C363 C347 1.377 1_455 S
C363 C361 1.389 . S
C363 C364 1.524 . S
C364 C363 1.524 . S
C364 C365 1.397 . S
C364 C369 1.363 . S
C365 H336 0.950 . S
C365 C364 1.397 . S
C365 C366 1.334 . S
C366 H337 0.950 . S
C366 C365 1.334 . S
C366 C367 1.287 . S
C367 C366 1.287 . S
C367 C368 1.524 . S
C367 H370 0.999 . S
C368 H338 0.950 . S
C368 C367 1.524 . S
C368 C369 1.415 . S
C369 H339 0.950 . S
C369 C364 1.363 . S
C369 C368 1.415 . S
H370 C367 0.999 . S
H371 C352 0.913 . S
H372 C390 0.951 . S
H373 C392 0.951 . S
H374 C394 0.950 . S
H375 C395 0.950 . S
H376 C397 0.950 . S
H377 C400 0.950 . S
H378 C401 0.950 . S
H379 C403 0.950 . S
H380 C404 0.950 . S
H381 C405 0.951 . S
H382 C407 0.951 . S
H383 C409 0.950 . S
H384 C410 0.950 . S
H385 C412 0.950 . S
H386 C415 0.950 . S
H387 C416 0.950 . S
H388 C418 0.950 . S
H389 C419 0.950 . S
C390 H372 0.951 . S
C390 C391 1.366 . S
C390 C392 1.388 . S
C391 C390 1.366 . S
C391 C395 1.385 . S
C392 H373 0.951 . S
C392 C390 1.388 . S
C392 C393 1.366 . S
C393 C392 1.366 . S
C393 C394 1.414 . S
C393 C396 1.499 . S
C394 H374 0.950 . S
C394 C393 1.414 . S
C394 C395 1.374 . S
C395 H375 0.950 . S
C395 C391 1.385 . S
C395 C394 1.374 . S
C396 C393 1.499 . S
C396 C397 1.373 . S
C396 C398 1.389 . S
C397 H376 0.950 . S
C397 C396 1.373 . S
C397 C413 1.377 1_655 S
C398 C396 1.389 . S
C398 C399 1.524 . S
C398 C412 1.377 1_655 S
C399 C398 1.524 . S
C399 C400 1.397 . S
C399 C404 1.363 1_655 S
C400 H377 0.950 . S
C400 C399 1.397 . S
C400 C401 1.334 . S
C401 H378 0.950 . S
C401 C400 1.334 . S
C401 C402 1.287 . S
C402 C401 1.287 . S
C402 C403 1.524 1_655 S
C402 H421 0.913 . S
C403 H379 0.950 . S
C403 C402 1.524 1_455 S
C403 C404 1.415 . S
C404 H380 0.950 . S
C404 C399 1.363 1_455 S
C404 C403 1.415 . S
C405 H381 0.951 . S
C405 C406 1.366 . S
C405 C407 1.388 . S
C406 C405 1.366 . S
C406 C410 1.385 . S
C407 H382 0.951 . S
C407 C405 1.388 . S
C407 C408 1.366 . S
C408 C407 1.366 . S
C408 C409 1.414 . S
C408 C411 1.499 . S
C409 H383 0.950 . S
C409 C408 1.414 . S
C409 C410 1.374 . S
C410 H384 0.950 . S
C410 C406 1.385 . S
C410 C409 1.374 . S
C411 C408 1.499 . S
C411 C412 1.373 . S
C411 C413 1.389 . S
C412 H385 0.950 . S
C412 C398 1.377 1_455 S
C412 C411 1.373 . S
C413 C397 1.377 1_455 S
C413 C411 1.389 . S
C413 C414 1.524 . S
C414 C413 1.524 . S
C414 C415 1.397 . S
C414 C419 1.363 1_455 S
C415 H386 0.950 . S
C415 C414 1.397 . S
C415 C416 1.334 . S
C416 H387 0.950 . S
C416 C415 1.334 . S
C416 C417 1.287 . S
C417 C416 1.287 . S
C417 C418 1.524 1_455 S
C417 H420 0.999 . S
C418 H388 0.950 . S
C418 C417 1.524 1_655 S
C418 C419 1.415 . S
C419 H389 0.950 . S
C419 C414 1.363 1_655 S
C419 C418 1.415 . S
H420 C417 0.999 . S
H421 C402 0.913 . S
H422 C440 0.951 . S
H423 C442 0.951 . S
H424 C444 0.950 . S
H425 C445 0.950 . S
H426 C447 0.952 . S
H427 C450 0.950 . S
H428 C451 0.950 . S
H429 C453 0.950 . S
H430 C454 0.950 . S
H431 C455 0.951 . S
H432 C457 0.951 . S
H433 C459 0.950 . S
H434 C460 0.950 . S
H435 C462 0.952 . S
H436 C465 0.950 . S
H437 C466 0.950 . S
H438 C468 0.950 . S
H439 C469 0.950 . S
C440 H422 0.951 . S
C440 C441 1.366 . S
C440 C442 1.388 . S
C441 C440 1.366 . S
C441 C445 1.385 . S
C442 H423 0.951 . S
C442 C440 1.388 . S
C442 C443 1.366 . S
C443 C442 1.366 . S
C443 C444 1.414 . S
C443 C446 1.499 . S
C444 H424 0.950 . S
C444 C443 1.414 . S
C444 C445 1.374 . S
C445 H425 0.950 . S
C445 C441 1.385 . S
C445 C444 1.374 . S
C446 C443 1.499 . S
C446 C447 1.355 1_565 S
C446 C448 1.389 . S
C447 H426 0.952 . S
C447 C446 1.355 1_545 S
C447 C463 1.394 . S
C448 C446 1.389 . S
C448 C449 1.524 . S
C448 C462 1.394 . S
C449 C448 1.524 . S
C449 C450 1.397 . S
C449 C454 1.363 . S
C450 H427 0.950 . S
C450 C449 1.397 . S
C450 C451 1.334 . S
C451 H428 0.950 . S
C451 C450 1.334 . S
C451 C452 1.287 . S
C452 C451 1.287 . S
C452 C453 1.524 . S
C452 H471 0.913 . S
C453 H429 0.950 . S
C453 C452 1.524 . S
C453 C454 1.415 . S
C454 H430 0.950 . S
C454 C449 1.363 . S
C454 C453 1.415 . S
C455 H431 0.951 . S
C455 C456 1.366 . S
C455 C457 1.388 . S
C456 C455 1.366 . S
C456 C460 1.385 . S
C457 H432 0.951 . S
C457 C455 1.388 . S
C457 C458 1.366 . S
C458 C457 1.366 . S
C458 C459 1.414 . S
C458 C461 1.499 . S
C459 H433 0.950 . S
C459 C458 1.414 . S
C459 C460 1.374 . S
C460 H434 0.950 . S
C460 C456 1.385 . S
C460 C459 1.374 . S
C461 C458 1.499 . S
C461 C462 1.355 1_545 S
C461 C463 1.389 . S
C462 H435 0.952 . S
C462 C448 1.394 . S
C462 C461 1.355 1_565 S
C463 C447 1.394 . S
C463 C461 1.389 . S
C463 C464 1.524 . S
C464 C463 1.524 . S
C464 C465 1.397 . S
C464 C469 1.363 . S
C465 H436 0.950 . S
C465 C464 1.397 . S
C465 C466 1.334 . S
C466 H437 0.950 . S
C466 C465 1.334 . S
C466 C467 1.287 . S
C467 C466 1.287 . S
C467 C468 1.524 . S
C467 H470 0.999 . S
C468 H438 0.950 . S
C468 C467 1.524 . S
C468 C469 1.415 . S
C469 H439 0.950 . S
C469 C464 1.363 . S
C469 C468 1.415 . S
H470 C467 0.999 . S
H471 C452 0.913 . S
H472 C490 0.951 . S
H473 C492 0.951 . S
H474 C494 0.950 . S
H475 C495 0.950 . S
H476 C497 0.950 1_556 S
H477 C500 0.950 . S
H478 C501 0.950 . S
H479 C503 0.950 . S
H480 C504 0.950 . S
H481 C505 0.951 1_556 S
H482 C507 0.951 1_556 S
H483 C509 0.950 . S
H484 C510 0.950 . S
H485 C512 0.950 . S
H486 C515 0.950 1_554 S
H487 C516 0.950 . S
H488 C518 0.950 . S
H489 C519 0.950 . S
C490 H472 0.951 . S
C490 C491 1.366 . S
C490 C492 1.388 . S
C491 C490 1.366 . S
C491 C495 1.385 1_554 S
C492 H473 0.951 . S
C492 C490 1.388 . S
C492 C493 1.366 . S
C493 C492 1.366 . S
C493 C494 1.414 1_554 S
C493 C496 1.499 . S
C494 H474 0.950 . S
C494 C493 1.414 1_556 S
C494 C495 1.374 . S
C495 H475 0.950 . S
C495 C491 1.385 1_556 S
C495 C494 1.374 . S
C496 C493 1.499 . S
C496 C497 1.373 . S
C496 C498 1.389 . S
C497 H476 0.950 1_554 S
C497 C496 1.373 . S
C497 C513 1.377 . S
C498 C496 1.389 . S
C498 C499 1.524 . S
C498 C512 1.377 . S
C499 C498 1.524 . S
C499 C500 1.397 . S
C499 C504 1.363 . S
C500 H477 0.950 . S
C500 C499 1.397 . S
C500 C501 1.334 . S
C501 H478 0.950 . S
C501 C500 1.334 . S
C501 C502 1.287 . S
C502 C501 1.287 . S
C502 C503 1.524 . S
C502 H521 0.913 . S
C503 H479 0.950 . S
C503 C502 1.524 . S
C503 C504 1.415 . S
C504 H480 0.950 . S
C504 C499 1.363 . S
C504 C503 1.415 . S
C505 H481 0.951 1_554 S
C505 C506 1.366 . S
C505 C507 1.388 . S
C506 C505 1.366 . S
C506 C510 1.385 . S
C507 H482 0.951 1_554 S
C507 C505 1.388 . S
C507 C508 1.366 . S
C508 C507 1.366 . S
C508 C509 1.414 . S
C508 C511 1.499 . S
C509 H483 0.950 . S
C509 C508 1.414 . S
C509 C510 1.374 . S
C510 H484 0.950 . S
C510 C506 1.385 . S
C510 C509 1.374 . S
C511 C508 1.499 . S
C511 C512 1.373 . S
C511 C513 1.389 . S
C512 H485 0.950 . S
C512 C498 1.377 . S
C512 C511 1.373 . S
C513 C497 1.377 . S
C513 C511 1.389 . S
C513 C514 1.524 1_554 S
C514 C513 1.524 1_556 S
C514 C515 1.397 . S
C514 C519 1.363 . S
C515 H486 0.950 1_556 S
C515 C514 1.397 . S
C515 C516 1.334 . S
C516 H487 0.950 . S
C516 C515 1.334 . S
C516 C517 1.287 . S
C517 C516 1.287 . S
C517 C518 1.524 . S
C517 H520 0.999 . S
C518 H488 0.950 . S
C518 C517 1.524 . S
C518 C519 1.415 . S
C519 H489 0.950 . S
C519 C514 1.363 . S
C519 C518 1.415 . S
H520 C517 0.999 . S
H521 C502 0.913 . S
H522 C540 0.951 . S
H523 C542 0.951 . S
H524 C544 0.950 . S
H525 C545 0.950 . S
H526 C547 0.950 . S
H527 C550 0.950 . S
H528 C551 0.950 . S
H529 C553 0.950 . S
H530 C554 0.950 . S
H531 C555 0.951 . S
H532 C557 0.951 . S
H533 C559 0.950 . S
H534 C560 0.950 . S
H535 C562 0.950 1_556 S
H536 C565 0.950 . S
H537 C566 0.950 . S
H538 C568 0.950 . S
H539 C569 0.950 . S
C540 H522 0.951 . S
C540 C541 1.366 . S
C540 C542 1.388 . S
C541 C540 1.366 . S
C541 C545 1.385 . S
C542 H523 0.951 . S
C542 C540 1.388 . S
C542 C543 1.366 . S
C543 C542 1.366 . S
C543 C544 1.414 . S
C543 C546 1.499 . S
C544 H524 0.950 . S
C544 C543 1.414 . S
C544 C545 1.374 . S
C545 H525 0.950 . S
C545 C541 1.385 . S
C545 C544 1.374 . S
C546 C543 1.499 . S
C546 C547 1.373 . S
C546 C548 1.390 . S
C547 H526 0.950 . S
C547 C546 1.373 . S
C547 C563 1.377 . S
C548 C546 1.390 . S
C548 C549 1.524 1_554 S
C548 C562 1.377 . S
C549 C548 1.524 1_556 S
C549 C550 1.397 . S
C549 C554 1.363 . S
C550 H527 0.950 . S
C550 C549 1.397 . S
C550 C551 1.334 . S
C551 H528 0.950 . S
C551 C550 1.334 . S
C551 C552 1.287 . S
C552 C551 1.287 . S
C552 C553 1.524 . S
C552 H571 0.913 . S
C553 H529 0.950 . S
C553 C552 1.524 . S
C553 C554 1.415 . S
C554 H530 0.950 . S
C554 C549 1.363 . S
C554 C553 1.415 . S
C555 H531 0.951 . S
C555 C556 1.366 . S
C555 C557 1.388 . S
C556 C555 1.366 . S
C556 C560 1.385 . S
C557 H532 0.951 . S
C557 C555 1.388 . S
C557 C558 1.366 . S
C558 C557 1.366 . S
C558 C559 1.414 . S
C558 C561 1.499 . S
C559 H533 0.950 . S
C559 C558 1.414 . S
C559 C560 1.374 . S
C560 H534 0.950 . S
C560 C556 1.385 . S
C560 C559 1.374 . S
C561 C558 1.499 . S
C561 C562 1.373 . S
C561 C563 1.389 . S
C562 H535 0.950 1_554 S
C562 C548 1.377 . S
C562 C561 1.373 . S
C563 C547 1.377 . S
C563 C561 1.389 . S
C563 C564 1.524 . S
C564 C563 1.524 . S
C564 C565 1.397 . S
C564 C569 1.363 . S
C565 H536 0.950 . S
C565 C564 1.397 . S
C565 C566 1.334 . S
C566 H537 0.950 . S
C566 C565 1.334 . S
C566 C567 1.287 . S
C567 C566 1.287 . S
C567 C568 1.524 . S
C567 H570 0.999 . S
C568 H538 0.950 . S
C568 C567 1.524 . S
C568 C569 1.415 . S
C569 H539 0.950 . S
C569 C564 1.363 . S
C569 C568 1.415 . S
H570 C567 0.999 . S
H571 C552 0.913 . S
H572 C590 0.951 . S
H573 C592 0.951 . S
H574 C594 0.950 1_556 S
H575 C595 0.950 1_556 S
H576 C597 0.929 1_556 S
H577 C600 0.950 . S
H578 C601 0.950 . S
H579 C603 0.950 . S
H580 C604 0.950 . S
H581 C605 0.962 . S
H582 C607 0.942 1_556 S
H583 C609 0.950 . S
H584 C610 0.950 . S
H585 C612 0.950 . S
H586 C615 0.950 . S
H587 C616 0.950 . S
H588 C618 0.950 . S
H589 C619 0.950 . S
C590 H572 0.951 . S
C590 C591 1.366 . S
C590 C592 1.388 . S
C591 C590 1.366 . S
C591 C595 1.385 . S
C592 H573 0.951 . S
C592 C590 1.388 . S
C592 C593 1.366 . S
C593 C592 1.366 . S
C593 C594 1.414 . S
C593 C596 1.499 . S
C594 H574 0.950 1_554 S
C594 C593 1.414 . S
C594 C595 1.374 . S
C595 H575 0.950 1_554 S
C595 C591 1.385 . S
C595 C594 1.374 . S
C596 C593 1.499 . S
C596 C597 1.395 . S
C596 C598 1.389 . S
C597 H576 0.929 1_554 S
C597 C596 1.395 . S
C597 C613 1.375 1_554 S
C598 C596 1.389 . S
C598 C599 1.524 . S
C598 C612 1.377 . S
C599 C598 1.524 . S
C599 C600 1.397 . S
C599 C604 1.363 . S
C600 H577 0.950 . S
C600 C599 1.397 . S
C600 C601 1.334 . S
C601 H578 0.950 . S
C601 C600 1.334 . S
C601 C602 1.287 . S
C602 C601 1.287 . S
C602 C603 1.524 . S
C602 H621 0.913 . S
C603 H579 0.950 . S
C603 C602 1.524 . S
C603 C604 1.415 . S
C604 H580 0.950 . S
C604 C599 1.363 . S
C604 C603 1.415 . S
C605 H581 0.962 . S
C605 C606 1.355 1_556 S
C605 C607 1.387 1_556 S
C606 C605 1.355 1_554 S
C606 C610 1.385 . S
C607 H582 0.942 1_554 S
C607 C605 1.387 1_554 S
C607 C608 1.375 . S
C608 C607 1.375 . S
C608 C609 1.414 . S
C608 C611 1.499 . S
C609 H583 0.950 . S
C609 C608 1.414 . S
C609 C610 1.374 . S
C610 H584 0.950 . S
C610 C606 1.385 . S
C610 C609 1.374 . S
C611 C608 1.499 . S
C611 C612 1.373 . S
C611 C613 1.372 1_554 S
C612 H585 0.950 . S
C612 C598 1.377 . S
C612 C611 1.373 . S
C613 C597 1.375 1_556 S
C613 C611 1.372 1_556 S
C613 C614 1.543 . S
C614 C613 1.543 . S
C614 C615 1.397 . S
C614 C619 1.363 . S
C615 H586 0.950 . S
C615 C614 1.397 . S
C615 C616 1.334 . S
C616 H587 0.950 . S
C616 C615 1.334 . S
C616 C617 1.287 . S
C617 C616 1.287 . S
C617 C618 1.524 . S
C617 H620 0.999 . S
C618 H588 0.950 . S
C618 C617 1.524 . S
C618 C619 1.415 . S
C619 H589 0.950 . S
C619 C614 1.363 . S
C619 C618 1.415 . S
H620 C617 0.999 . S
H621 C602 0.913 . S
H622 C640 0.951 . S
H623 C642 0.951 . S
H624 C644 0.950 . S
H625 C645 0.950 . S
H626 C647 0.950 . S
H627 C650 0.950 . S
H628 C651 0.950 . S
H629 C653 0.950 . S
H630 C654 0.950 . S
H631 C655 0.951 1_556 S
H632 C657 0.951 1_556 S
H633 C659 0.950 . S
H634 C660 0.950 . S
H635 C662 0.950 . S
H636 C665 0.950 . S
H637 C666 0.950 . S
H638 C668 0.950 . S
H639 C669 0.950 . S
C640 H622 0.951 . S
C640 C641 1.366 . S
C640 C642 1.388 . S
C641 C640 1.366 . S
C641 C645 1.385 . S
C642 H623 0.951 . S
C642 C640 1.388 . S
C642 C643 1.366 . S
C643 C642 1.366 . S
C643 C644 1.414 . S
C643 C646 1.499 . S
C644 H624 0.950 . S
C644 C643 1.414 . S
C644 C645 1.374 . S
C645 H625 0.950 . S
C645 C641 1.385 . S
C645 C644 1.374 . S
C646 C643 1.499 . S
C646 C647 1.373 . S
C646 C648 1.389 . S
C647 H626 0.950 . S
C647 C646 1.373 . S
C647 C663 1.377 . S
C648 C646 1.389 . S
C648 C649 1.524 . S
C648 C662 1.377 . S
C649 C648 1.524 . S
C649 C650 1.397 1_554 S
C649 C654 1.363 . S
C650 H627 0.950 . S
C650 C649 1.397 1_556 S
C650 C651 1.334 . S
C651 H628 0.950 . S
C651 C650 1.334 . S
C651 C652 1.287 . S
C652 C651 1.287 . S
C652 C653 1.524 1_556 S
C652 H671 0.913 . S
C653 H629 0.950 . S
C653 C652 1.524 1_554 S
C653 C654 1.415 . S
C654 H630 0.950 . S
C654 C649 1.363 . S
C654 C653 1.415 . S
C655 H631 0.951 1_554 S
C655 C656 1.366 . S
C655 C657 1.388 . S
C656 C655 1.366 . S
C656 C660 1.385 . S
C657 H632 0.951 1_554 S
C657 C655 1.388 . S
C657 C658 1.366 . S
C658 C657 1.366 . S
C658 C659 1.414 . S
C658 C661 1.499 . S
C659 H633 0.950 . S
C659 C658 1.414 . S
C659 C660 1.374 . S
C660 H634 0.950 . S
C660 C656 1.385 . S
C660 C659 1.374 . S
C661 C658 1.499 . S
C661 C662 1.373 . S
C661 C663 1.389 . S
C662 H635 0.950 . S
C662 C648 1.377 . S
C662 C661 1.373 . S
C663 C647 1.377 . S
C663 C661 1.389 . S
C663 C664 1.524 . S
C664 C663 1.524 . S
C664 C665 1.397 . S
C664 C669 1.363 . S
C665 H636 0.950 . S
C665 C664 1.397 . S
C665 C666 1.334 . S
C666 H637 0.950 . S
C666 C665 1.334 . S
C666 C667 1.287 . S
C667 C666 1.287 . S
C667 C668 1.524 . S
C667 H670 0.999 . S
C668 H638 0.950 . S
C668 C667 1.524 . S
C668 C669 1.415 . S
C669 H639 0.950 . S
C669 C664 1.363 . S
C669 C668 1.415 . S
H670 C667 0.999 . S
H671 C652 0.913 . S
H672 C690 0.951 . S
H673 C692 0.951 . S
H674 C694 0.950 . S
H675 C695 0.950 . S
H676 C697 0.950 . S
H677 C700 0.950 . S
H678 C701 0.950 . S
H679 C703 0.950 . S
H680 C704 0.950 . S
H681 C705 0.951 . S
H682 C707 0.951 . S
H683 C709 0.950 . S
H684 C710 0.950 . S
H685 C712 0.950 . S
H686 C715 0.950 . S
H687 C716 0.950 . S
H688 C718 0.950 . S
H689 C719 0.950 . S
C690 H672 0.951 . S
C690 C691 1.366 . S
C690 C692 1.388 1_565 S
C691 C690 1.366 . S
C691 C695 1.385 . S
C692 H673 0.951 . S
C692 C690 1.388 1_545 S
C692 C693 1.366 . S
C693 C692 1.366 . S
C693 C694 1.414 . S
C693 C696 1.499 . S
C694 H674 0.950 . S
C694 C693 1.414 . S
C694 C695 1.374 1_545 S
C695 H675 0.950 . S
C695 C691 1.385 . S
C695 C694 1.374 1_565 S
C696 C693 1.499 . S
C696 C697 1.373 . S
C696 C698 1.389 . S
C697 H676 0.950 . S
C697 C696 1.373 . S
C697 C713 1.377 . S
C698 C696 1.389 . S
C698 C699 1.524 . S
C698 C712 1.377 . S
C699 C698 1.524 . S
C699 C700 1.397 . S
C699 C704 1.363 . S
C700 H677 0.950 . S
C700 C699 1.397 . S
C700 C701 1.334 . S
C701 H678 0.950 . S
C701 C700 1.334 . S
C701 C702 1.287 . S
C702 C701 1.287 . S
C702 C703 1.524 . S
C702 H721 0.913 . S
C703 H679 0.950 . S
C703 C702 1.524 . S
C703 C704 1.415 . S
C704 H680 0.950 . S
C704 C699 1.363 . S
C704 C703 1.415 . S
C705 H681 0.951 . S
C705 C706 1.366 . S
C705 C707 1.388 . S
C706 C705 1.366 . S
C706 C710 1.385 . S
C707 H682 0.951 . S
C707 C705 1.388 . S
C707 C708 1.366 . S
C708 C707 1.366 . S
C708 C709 1.414 . S
C708 C711 1.499 . S
C709 H683 0.950 . S
C709 C708 1.414 . S
C709 C710 1.374 . S
C710 H684 0.950 . S
C710 C706 1.385 . S
C710 C709 1.374 . S
C711 C708 1.499 . S
C711 C712 1.373 . S
C711 C713 1.389 . S
C712 H685 0.950 . S
C712 C698 1.377 . S
C712 C711 1.373 . S
C713 C697 1.377 . S
C713 C711 1.389 . S
C713 C714 1.524 . S
C714 C713 1.524 . S
C714 C715 1.397 . S
C714 C719 1.363 . S
C715 H686 0.950 . S
C715 C714 1.397 . S
C715 C716 1.334 . S
C716 H687 0.950 . S
C716 C715 1.334 . S
C716 C717 1.287 . S
C717 C716 1.287 . S
C717 C718 1.524 . S
C717 H720 0.999 . S
C718 H688 0.950 . S
C718 C717 1.524 . S
C718 C719 1.415 . S
C719 H689 0.950 . S
C719 C714 1.363 . S
C719 C718 1.415 . S
H720 C717 0.999 . S
H721 C702 0.913 . S
H722 C740 0.951 . S
H723 C742 0.951 . S
H724 C744 0.950 . S
H725 C745 0.950 . S
H726 C747 0.950 . S
H727 C750 0.950 . S
H728 C751 0.950 . S
H729 C753 0.950 . S
H730 C754 0.950 . S
H731 C755 0.951 . S
H732 C757 0.951 . S
H733 C759 0.950 . S
H734 C760 0.950 . S
H735 C762 0.950 . S
H736 C765 0.950 . S
H737 C766 0.950 . S
H738 C768 0.950 . S
H739 C769 0.950 . S
C740 H722 0.951 . S
C740 C741 1.366 . S
C740 C742 1.388 1_455 S
C741 C740 1.366 . S
C741 C745 1.385 . S
C742 H723 0.951 . S
C742 C740 1.388 1_655 S
C742 C743 1.366 . S
C743 C742 1.366 . S
C743 C744 1.414 . S
C743 C746 1.499 . S
C744 H724 0.950 . S
C744 C743 1.414 . S
C744 C745 1.374 1_655 S
C745 H725 0.950 . S
C745 C741 1.385 . S
C745 C744 1.374 1_455 S
C746 C743 1.499 . S
C746 C747 1.373 . S
C746 C748 1.389 . S
C747 H726 0.950 . S
C747 C746 1.373 . S
C747 C763 1.377 . S
C748 C746 1.389 . S
C748 C749 1.524 . S
C748 C762 1.377 . S
C749 C748 1.524 . S
C749 C750 1.397 . S
C749 C754 1.363 . S
C750 H727 0.950 . S
C750 C749 1.397 . S
C750 C751 1.334 . S
C751 H728 0.950 . S
C751 C750 1.334 . S
C751 C752 1.287 . S
C752 C751 1.287 . S
C752 C753 1.524 . S
C752 H771 0.902 1_655 S
C753 H729 0.950 . S
C753 C752 1.524 . S
C753 C754 1.415 . S
C754 H730 0.950 . S
C754 C749 1.363 . S
C754 C753 1.415 . S
C755 H731 0.951 . S
C755 C756 1.366 . S
C755 C757 1.388 . S
C756 C755 1.366 . S
C756 C760 1.385 . S
C757 H732 0.951 . S
C757 C755 1.388 . S
C757 C758 1.366 . S
C758 C757 1.366 . S
C758 C759 1.414 . S
C758 C761 1.499 . S
C759 H733 0.950 . S
C759 C758 1.414 . S
C759 C760 1.374 . S
C760 H734 0.950 . S
C760 C756 1.385 . S
C760 C759 1.374 . S
C761 C758 1.499 . S
C761 C762 1.373 . S
C761 C763 1.389 . S
C762 H735 0.950 . S
C762 C748 1.377 . S
C762 C761 1.373 . S
C763 C747 1.377 . S
C763 C761 1.389 . S
C763 C764 1.524 . S
C764 C763 1.524 . S
C764 C765 1.397 . S
C764 C769 1.363 . S
C765 H736 0.950 . S
C765 C764 1.397 . S
C765 C766 1.334 . S
C766 H737 0.950 . S
C766 C765 1.334 . S
C766 C767 1.287 . S
C767 C766 1.287 . S
C767 C768 1.524 . S
C767 H770 0.999 . S
C768 H738 0.950 . S
C768 C767 1.524 . S
C768 C769 1.415 . S
C769 H739 0.950 . S
C769 C764 1.363 . S
C769 C768 1.415 . S
H770 C767 0.999 . S
H771 C752 0.902 1_455 S
H772 C790 0.951 . S
H773 C792 0.951 . S
H774 C794 0.950 . S
H775 C795 0.950 . S
H776 C797 0.950 . S
H777 C800 0.950 . S
H778 C801 0.954 . S
H779 C803 0.950 . S
H780 C804 0.950 . S
H781 C805 0.951 . S
H782 C807 0.951 . S
H783 C809 0.950 . S
H784 C810 0.950 . S
H785 C812 0.950 . S
H786 C815 0.950 . S
H787 C816 0.950 . S
H788 C818 0.950 . S
H789 C819 0.950 . S
C790 H772 0.951 . S
C790 C791 1.366 . S
C790 C792 1.388 1_545 S
C791 C790 1.366 . S
C791 C795 1.385 . S
C792 H773 0.951 . S
C792 C790 1.388 1_565 S
C792 C793 1.366 . S
C793 C792 1.366 . S
C793 C794 1.414 . S
C793 C796 1.499 . S
C794 H774 0.950 . S
C794 C793 1.414 . S
C794 C795 1.374 1_565 S
C795 H775 0.950 . S
C795 C791 1.385 . S
C795 C794 1.374 1_545 S
C796 C793 1.499 . S
C796 C797 1.373 . S
C796 C798 1.389 . S
C797 H776 0.950 . S
C797 C796 1.373 . S
C797 C813 1.377 . S
C798 C796 1.389 . S
C798 C799 1.524 . S
C798 C812 1.377 . S
C799 C798 1.524 . S
C799 C800 1.397 . S
C799 C804 1.363 . S
C800 H777 0.950 . S
C800 C799 1.397 . S
C800 C801 1.334 . S
C801 H778 0.954 . S
C801 C800 1.334 . S
C801 C802 1.287 . S
C802 C801 1.287 . S
C802 C803 1.524 . S
C802 H821 0.913 1_565 S
C803 H779 0.950 . S
C803 C802 1.524 . S
C803 C804 1.415 . S
C804 H780 0.950 . S
C804 C799 1.363 . S
C804 C803 1.415 . S
C805 H781 0.951 . S
C805 C806 1.366 . S
C805 C807 1.388 . S
C806 C805 1.366 . S
C806 C810 1.385 . S
C807 H782 0.951 . S
C807 C805 1.388 . S
C807 C808 1.366 . S
C808 C807 1.366 . S
C808 C809 1.414 . S
C808 C811 1.499 . S
C809 H783 0.950 . S
C809 C808 1.414 . S
C809 C810 1.374 . S
C810 H784 0.950 . S
C810 C806 1.385 . S
C810 C809 1.374 . S
C811 C808 1.499 . S
C811 C812 1.373 . S
C811 C813 1.389 . S
C812 H785 0.950 . S
C812 C798 1.377 . S
C812 C811 1.373 . S
C813 C797 1.377 . S
C813 C811 1.389 . S
C813 C814 1.524 . S
C814 C813 1.524 . S
C814 C815 1.397 . S
C814 C819 1.363 . S
C815 H786 0.950 . S
C815 C814 1.397 . S
C815 C816 1.334 . S
C816 H787 0.950 . S
C816 C815 1.334 . S
C816 C817 1.287 . S
C817 C816 1.287 . S
C817 C818 1.524 . S
C817 H820 0.999 . S
C818 H788 0.950 . S
C818 C817 1.524 . S
C818 C819 1.415 . S
C819 H789 0.950 . S
C819 C814 1.363 . S
C819 C818 1.415 . S
H820 C817 0.999 . S
H821 C802 0.913 1_545 S
H822 C840 0.951 . S
H823 C842 0.951 . S
H824 C844 0.950 . S
H825 C845 0.950 . S
H826 C847 0.950 . S
H827 C850 0.950 . S
H828 C851 0.950 . S
H829 C853 0.950 . S
H830 C854 0.950 . S
H831 C855 0.951 . S
H832 C857 0.951 . S
H833 C859 0.950 . S
H834 C860 0.950 . S
H835 C862 0.950 . S
H836 C865 0.950 . S
H837 C866 0.950 . S
H838 C868 0.950 . S
H839 C869 0.950 . S
C840 H822 0.951 . S
C840 C841 1.366 . S
C840 C842 1.388 1_655 S
C841 C840 1.366 . S
C841 C845 1.385 . S
C842 H823 0.951 . S
C842 C840 1.388 1_455 S
C842 C843 1.366 . S
C843 C842 1.366 . S
C843 C844 1.414 . S
C843 C846 1.499 . S
C844 H824 0.950 . S
C844 C843 1.414 . S
C844 C845 1.374 1_455 S
C845 H825 0.950 . S
C845 C841 1.385 . S
C845 C844 1.374 1_655 S
C846 C843 1.499 . S
C846 C847 1.373 . S
C846 C848 1.389 . S
C847 H826 0.950 . S
C847 C846 1.373 . S
C847 C863 1.377 . S
C848 C846 1.389 . S
C848 C849 1.524 . S
C848 C862 1.377 . S
C849 C848 1.524 . S
C849 C850 1.397 . S
C849 C854 1.363 . S
C850 H827 0.950 . S
C850 C849 1.397 . S
C850 C851 1.334 . S
C851 H828 0.950 . S
C851 C850 1.334 . S
C851 C852 1.287 . S
C852 C851 1.287 . S
C852 C853 1.524 . S
C852 H871 0.913 . S
C853 H829 0.950 . S
C853 C852 1.524 . S
C853 C854 1.415 . S
C854 H830 0.950 . S
C854 C849 1.363 . S
C854 C853 1.415 . S
C855 H831 0.951 . S
C855 C856 1.366 . S
C855 C857 1.388 . S
C856 C855 1.366 . S
C856 C860 1.385 . S
C857 H832 0.951 . S
C857 C855 1.388 . S
C857 C858 1.366 . S
C858 C857 1.366 . S
C858 C859 1.414 . S
C858 C861 1.499 . S
C859 H833 0.950 . S
C859 C858 1.414 . S
C859 C860 1.374 . S
C860 H834 0.950 . S
C860 C856 1.385 . S
C860 C859 1.374 . S
C861 C858 1.499 . S
C861 C862 1.373 . S
C861 C863 1.389 . S
C862 H835 0.950 . S
C862 C848 1.377 . S
C862 C861 1.373 . S
C863 C847 1.377 . S
C863 C861 1.389 . S
C863 C864 1.524 . S
C864 C863 1.524 . S
C864 C865 1.397 . S
C864 C869 1.363 . S
C865 H836 0.950 . S
C865 C864 1.397 . S
C865 C866 1.334 . S
C866 H837 0.950 . S
C866 C865 1.334 . S
C866 C867 1.287 . S
C867 C866 1.287 . S
C867 C868 1.524 . S
C867 H870 0.999 . S
C868 H838 0.950 . S
C868 C867 1.524 . S
C868 C869 1.415 . S
C869 H839 0.950 . S
C869 C864 1.363 . S
C869 C868 1.415 . S
H870 C867 0.999 . S
H871 C852 0.913 . S
H872 C890 0.951 . S
H873 C892 0.951 . S
H874 C894 0.950 . S
H875 C895 0.950 . S
H876 C897 0.950 . S
H877 C900 0.950 . S
H878 C901 0.950 . S
H879 C903 0.950 . S
H880 C904 0.950 . S
H881 C905 0.951 . S
H882 C907 0.951 . S
H883 C909 0.950 . S
H884 C910 0.950 . S
H885 C912 0.950 . S
H886 C915 0.950 . S
H887 C916 0.950 . S
H888 C918 0.950 . S
H889 C919 0.950 . S
C890 H872 0.951 . S
C890 C891 1.366 . S
C890 C892 1.388 . S
C891 C890 1.366 . S
C891 C895 1.385 . S
C892 H873 0.951 . S
C892 C890 1.388 . S
C892 C893 1.366 . S
C893 C892 1.366 . S
C893 C894 1.414 . S
C893 C896 1.499 . S
C894 H874 0.950 . S
C894 C893 1.414 . S
C894 C895 1.374 . S
C895 H875 0.950 . S
C895 C891 1.385 . S
C895 C894 1.374 . S
C896 C893 1.499 . S
C896 C897 1.373 . S
C896 C898 1.389 . S
C897 H876 0.950 . S
C897 C896 1.373 . S
C897 C913 1.377 . S
C898 C896 1.389 . S
C898 C899 1.524 . S
C898 C912 1.377 . S
C899 C898 1.524 . S
C899 C900 1.397 . S
C899 C904 1.363 . S
C900 H877 0.950 . S
C900 C899 1.397 . S
C900 C901 1.334 . S
C901 H878 0.950 . S
C901 C900 1.334 . S
C901 C902 1.287 . S
C902 C901 1.287 . S
C902 C903 1.524 . S
C902 H921 0.913 . S
C903 H879 0.950 . S
C903 C902 1.524 . S
C903 C904 1.415 . S
C904 H880 0.950 . S
C904 C899 1.363 . S
C904 C903 1.415 . S
C905 H881 0.951 . S
C905 C906 1.366 . S
C905 C907 1.388 . S
C906 C905 1.366 . S
C906 C910 1.385 . S
C907 H882 0.951 . S
C907 C905 1.388 . S
C907 C908 1.366 . S
C908 C907 1.366 . S
C908 C909 1.414 . S
C908 C911 1.499 . S
C909 H883 0.950 . S
C909 C908 1.414 . S
C909 C910 1.374 . S
C910 H884 0.950 . S
C910 C906 1.385 . S
C910 C909 1.374 . S
C911 C908 1.499 . S
C911 C912 1.373 . S
C911 C913 1.389 . S
C912 H885 0.950 . S
C912 C898 1.377 . S
C912 C911 1.373 . S
C913 C897 1.377 . S
C913 C911 1.389 . S
C913 C914 1.524 . S
C914 C913 1.524 . S
C914 C915 1.397 . S
C914 C919 1.363 . S
C915 H886 0.950 . S
C915 C914 1.397 . S
C915 C916 1.334 . S
C916 H887 0.950 . S
C916 C915 1.334 . S
C916 C917 1.287 . S
C917 C916 1.287 . S
C917 C918 1.524 . S
C917 H920 0.999 . S
C918 H888 0.950 . S
C918 C917 1.524 . S
C918 C919 1.415 . S
C919 H889 0.950 . S
C919 C914 1.363 . S
C919 C918 1.415 . S
H920 C917 0.999 . S
H921 C902 0.913 . S
H922 C940 0.951 . S
H923 C942 0.951 . S
H924 C944 0.950 . S
H925 C945 0.950 . S
H926 C947 0.950 . S
H927 C950 0.950 . S
H928 C951 0.950 . S
H929 C953 0.950 . S
H930 C954 0.950 . S
H931 C955 0.951 . S
H932 C957 0.951 . S
H933 C959 0.950 . S
H934 C960 0.950 . S
H935 C962 0.950 . S
H936 C965 0.950 . S
H937 C966 0.950 . S
H938 C968 0.950 . S
H939 C969 0.950 . S
C940 H922 0.951 . S
C940 C941 1.366 . S
C940 C942 1.388 . S
C941 C940 1.366 . S
C941 C945 1.385 . S
C942 H923 0.951 . S
C942 C940 1.388 . S
C942 C943 1.366 . S
C943 C942 1.366 . S
C943 C944 1.414 . S
C943 C946 1.499 . S
C944 H924 0.950 . S
C944 C943 1.414 . S
C944 C945 1.374 . S
C945 H925 0.950 . S
C945 C941 1.385 . S
C945 C944 1.374 . S
C946 C943 1.499 . S
C946 C947 1.373 . S
C946 C948 1.389 . S
C947 H926 0.950 . S
C947 C946 1.373 . S
C947 C963 1.377 . S
C948 C946 1.389 . S
C948 C949 1.524 . S
C948 C962 1.377 . S
C949 C948 1.524 . S
C949 C950 1.397 . S
C949 C954 1.363 . S
C950 H927 0.950 . S
C950 C949 1.397 . S
C950 C951 1.334 . S
C951 H928 0.950 . S
C951 C950 1.334 . S
C951 C952 1.287 . S
C952 C951 1.287 . S
C952 C953 1.524 . S
C952 H971 0.913 . S
C953 H929 0.950 . S
C953 C952 1.524 . S
C953 C954 1.415 . S
C954 H930 0.950 . S
C954 C949 1.363 . S
C954 C953 1.415 . S
C955 H931 0.951 . S
C955 C956 1.366 . S
C955 C957 1.388 . S
C956 C955 1.366 . S
C956 C960 1.385 . S
C957 H932 0.951 . S
C957 C955 1.388 . S
C957 C958 1.366 . S
C958 C957 1.366 . S
C958 C959 1.414 . S
C958 C961 1.499 . S
C959 H933 0.950 . S
C959 C958 1.414 . S
C959 C960 1.374 . S
C960 H934 0.950 . S
C960 C956 1.385 . S
C960 C959 1.374 . S
C961 C958 1.499 . S
C961 C962 1.373 . S
C961 C963 1.389 . S
C962 H935 0.950 . S
C962 C948 1.377 . S
C962 C961 1.373 . S
C963 C947 1.377 . S
C963 C961 1.389 . S
C963 C964 1.524 . S
C964 C963 1.524 . S
C964 C965 1.397 . S
C964 C969 1.363 . S
C965 H936 0.950 . S
C965 C964 1.397 . S
C965 C966 1.334 . S
C966 H937 0.950 . S
C966 C965 1.334 . S
C966 C967 1.287 . S
C967 C966 1.287 . S
C967 C968 1.524 . S
C967 H970 0.999 . S
C968 H938 0.950 . S
C968 C967 1.524 . S
C968 C969 1.415 . S
C969 H939 0.950 . S
C969 C964 1.363 . S
C969 C968 1.415 . S
H970 C967 0.999 . S
H971 C952 0.913 . S
H972 C990 0.951 . S
H973 C992 0.951 . S
H974 C994 0.950 . S
H975 C995 0.950 . S
H976 C997 0.950 . S
H977 C1000 0.950 . S
H978 C1001 0.950 . S
H979 C1003 0.950 . S
H980 C1004 0.950 . S
H981 C1005 0.951 . S
H982 C1007 0.951 . S
H983 C1009 0.950 . S
H984 C1010 0.950 . S
H985 C1012 0.950 . S
H986 C1015 0.950 . S
H987 C1016 0.950 . S
H988 C1018 0.950 . S
H989 C1019 0.950 . S
C990 H972 0.951 . S
C990 C991 1.366 . S
C990 C992 1.388 . S
C991 C990 1.366 . S
C991 C995 1.385 . S
C992 H973 0.951 . S
C992 C990 1.388 . S
C992 C993 1.366 . S
C993 C992 1.366 . S
C993 C994 1.414 . S
C993 C996 1.499 . S
C994 H974 0.950 . S
C994 C993 1.414 . S
C994 C995 1.374 . S
C995 H975 0.950 . S
C995 C991 1.385 . S
C995 C994 1.374 . S
C996 C993 1.499 . S
C996 C997 1.373 . S
C996 C998 1.389 . S
C997 H976 0.950 . S
C997 C996 1.373 . S
C997 C1013 1.377 . S
C998 C996 1.389 . S
C998 C999 1.524 . S
C998 C1012 1.377 . S
C999 C998 1.524 . S
C999 C1000 1.397 . S
C999 C1004 1.363 . S
C1000 H977 0.950 . S
C1000 C999 1.397 . S
C1000 C1001 1.334 . S
C1001 H978 0.950 . S
C1001 C1000 1.334 . S
C1001 C1002 1.287 . S
C1002 C1001 1.287 . S
C1002 C1003 1.524 . S
C1002 H1021 0.913 . S
C1003 H979 0.950 . S
C1003 C1002 1.524 . S
C1003 C1004 1.415 . S
C1004 H980 0.950 . S
C1004 C999 1.363 . S
C1004 C1003 1.415 . S
C1005 H981 0.951 . S
C1005 C1006 1.366 . S
C1005 C1007 1.388 . S
C1006 C1005 1.366 . S
C1006 C1010 1.385 . S
C1007 H982 0.951 . S
C1007 C1005 1.388 . S
C1007 C1008 1.366 . S
C1008 C1007 1.366 . S
C1008 C1009 1.414 . S
C1008 C1011 1.499 . S
C1009 H983 0.950 . S
C1009 C1008 1.414 . S
C1009 C1010 1.374 . S
C1010 H984 0.950 . S
C1010 C1006 1.385 . S
C1010 C1009 1.374 . S
C1011 C1008 1.499 . S
C1011 C1012 1.373 . S
C1011 C1013 1.389 . S
C1012 H985 0.950 . S
C1012 C998 1.377 . S
C1012 C1011 1.373 . S
C1013 C997 1.377 . S
C1013 C1011 1.389 . S
C1013 C1014 1.524 . S
C1014 C1013 1.524 . S
C1014 C1015 1.397 . S
C1014 C1019 1.363 . S
C1015 H986 0.950 . S
C1015 C1014 1.397 . S
C1015 C1016 1.334 . S
C1016 H987 0.950 . S
C1016 C1015 1.334 . S
C1016 C1017 1.287 . S
C1017 C1016 1.287 . S
C1017 C1018 1.524 . S
C1017 H1020 0.999 . S
C1018 H988 0.950 . S
C1018 C1017 1.524 . S
C1018 C1019 1.415 . S
C1019 H989 0.950 . S
C1019 C1014 1.363 . S
C1019 C1018 1.415 . S
H1020 C1017 0.999 . S
H1021 C1002 0.913 . S
H1022 C1040 0.951 . S
H1023 C1042 0.951 . S
H1024 C1044 0.950 . S
H1025 C1045 0.950 . S
H1026 C1047 0.950 . S
H1027 C1050 0.950 . S
H1028 C1051 0.950 . S
H1029 C1053 0.950 . S
H1030 C1054 0.950 . S
H1031 C1055 0.951 . S
H1032 C1057 0.951 . S
H1033 C1059 0.950 . S
H1034 C1060 0.950 . S
H1035 C1062 0.950 . S
H1036 C1065 0.950 . S
H1037 C1066 0.950 . S
H1038 C1068 0.950 . S
H1039 C1069 0.950 . S
C1040 H1022 0.951 . S
C1040 C1041 1.366 . S
C1040 C1042 1.388 . S
C1041 C1040 1.366 . S
C1041 C1045 1.385 . S
C1042 H1023 0.951 . S
C1042 C1040 1.388 . S
C1042 C1043 1.366 . S
C1043 C1042 1.366 . S
C1043 C1044 1.414 . S
C1043 C1046 1.499 . S
C1044 H1024 0.950 . S
C1044 C1043 1.414 . S
C1044 C1045 1.374 . S
C1045 H1025 0.950 . S
C1045 C1041 1.385 . S
C1045 C1044 1.374 . S
C1046 C1043 1.499 . S
C1046 C1047 1.373 . S
C1046 C1048 1.389 . S
C1047 H1026 0.950 . S
C1047 C1046 1.373 . S
C1047 C1063 1.377 . S
C1048 C1046 1.389 . S
C1048 C1049 1.524 . S
C1048 C1062 1.377 . S
C1049 C1048 1.524 . S
C1049 C1050 1.397 . S
C1049 C1054 1.363 . S
C1050 H1027 0.950 . S
C1050 C1049 1.397 . S
C1050 C1051 1.334 . S
C1051 H1028 0.950 . S
C1051 C1050 1.334 . S
C1051 C1052 1.287 . S
C1052 C1051 1.287 . S
C1052 C1053 1.524 . S
C1052 H1071 0.913 . S
C1053 H1029 0.950 . S
C1053 C1052 1.524 . S
C1053 C1054 1.415 . S
C1054 H1030 0.950 . S
C1054 C1049 1.363 . S
C1054 C1053 1.415 . S
C1055 H1031 0.951 . S
C1055 C1056 1.366 . S
C1055 C1057 1.388 . S
C1056 C1055 1.366 . S
C1056 C1060 1.385 . S
C1057 H1032 0.951 . S
C1057 C1055 1.388 . S
C1057 C1058 1.366 . S
C1058 C1057 1.366 . S
C1058 C1059 1.414 . S
C1058 C1061 1.499 . S
C1059 H1033 0.950 . S
C1059 C1058 1.414 . S
C1059 C1060 1.374 . S
C1060 H1034 0.950 . S
C1060 C1056 1.385 . S
C1060 C1059 1.374 . S
C1061 C1058 1.499 . S
C1061 C1062 1.373 . S
C1061 C1063 1.389 . S
C1062 H1035 0.950 . S
C1062 C1048 1.377 . S
C1062 C1061 1.373 . S
C1063 C1047 1.377 . S
C1063 C1061 1.389 . S
C1063 C1064 1.524 . S
C1064 C1063 1.524 . S
C1064 C1065 1.397 . S
C1064 C1069 1.363 . S
C1065 H1036 0.950 . S
C1065 C1064 1.397 . S
C1065 C1066 1.334 . S
C1066 H1037 0.950 . S
C1066 C1065 1.334 . S
C1066 C1067 1.287 . S
C1067 C1066 1.287 . S
C1067 C1068 1.524 . S
C1067 H1070 0.999 . S
C1068 H1038 0.950 . S
C1068 C1067 1.524 . S
C1068 C1069 1.415 . S
C1069 H1039 0.950 . S
C1069 C1064 1.363 . S
C1069 C1068 1.415 . S
H1070 C1067 0.999 . S
H1071 C1052 0.913 . S
H1072 C1090 0.951 . S
H1073 C1092 0.951 . S
H1074 C1094 0.950 . S
H1075 C1095 0.950 . S
H1076 C1097 0.950 . S
H1077 C1100 0.950 . S
H1078 C1101 0.950 . S
H1079 C1103 0.950 . S
H1080 C1104 0.950 . S
H1081 C1105 0.951 . S
H1082 C1107 0.951 . S
H1083 C1109 0.950 . S
H1084 C1110 0.950 . S
H1085 C1112 0.950 . S
H1086 C1115 0.950 . S
H1087 C1116 0.950 . S
H1088 C1118 0.950 . S
H1089 C1119 0.950 . S
C1090 H1072 0.951 . S
C1090 C1091 1.366 . S
C1090 C1092 1.388 . S
C1091 C1090 1.366 . S
C1091 C1095 1.385 . S
C1092 H1073 0.951 . S
C1092 C1090 1.388 . S
C1092 C1093 1.366 . S
C1093 C1092 1.366 . S
C1093 C1094 1.414 . S
C1093 C1096 1.499 . S
C1094 H1074 0.950 . S
C1094 C1093 1.414 . S
C1094 C1095 1.374 . S
C1095 H1075 0.950 . S
C1095 C1091 1.385 . S
C1095 C1094 1.374 . S
C1096 C1093 1.499 . S
C1096 C1097 1.373 . S
C1096 C1098 1.389 . S
C1097 H1076 0.950 . S
C1097 C1096 1.373 . S
C1097 C1113 1.377 . S
C1098 C1096 1.389 . S
C1098 C1099 1.524 . S
C1098 C1112 1.377 . S
C1099 C1098 1.524 . S
C1099 C1100 1.397 . S
C1099 C1104 1.363 . S
C1100 H1077 0.950 . S
C1100 C1099 1.397 . S
C1100 C1101 1.334 . S
C1101 H1078 0.950 . S
C1101 C1100 1.334 . S
C1101 C1102 1.287 . S
C1102 C1101 1.287 . S
C1102 C1103 1.524 . S
C1102 H1121 0.913 . S
C1103 H1079 0.950 . S
C1103 C1102 1.524 . S
C1103 C1104 1.415 . S
C1104 H1080 0.950 . S
C1104 C1099 1.363 . S
C1104 C1103 1.415 . S
C1105 H1081 0.951 . S
C1105 C1106 1.366 . S
C1105 C1107 1.388 . S
C1106 C1105 1.366 . S
C1106 C1110 1.385 . S
C1107 H1082 0.951 . S
C1107 C1105 1.388 . S
C1107 C1108 1.366 . S
C1108 C1107 1.366 . S
C1108 C1109 1.414 . S
C1108 C1111 1.499 . S
C1109 H1083 0.950 . S
C1109 C1108 1.414 . S
C1109 C1110 1.374 . S
C1110 H1084 0.950 . S
C1110 C1106 1.385 . S
C1110 C1109 1.374 . S
C1111 C1108 1.499 . S
C1111 C1112 1.373 . S
C1111 C1113 1.389 . S
C1112 H1085 0.950 . S
C1112 C1098 1.377 . S
C1112 C1111 1.373 . S
C1113 C1097 1.377 . S
C1113 C1111 1.389 . S
C1113 C1114 1.524 . S
C1114 C1113 1.524 . S
C1114 C1115 1.397 . S
C1114 C1119 1.363 . S
C1115 H1086 0.950 . S
C1115 C1114 1.397 . S
C1115 C1116 1.334 . S
C1116 H1087 0.950 . S
C1116 C1115 1.334 . S
C1116 C1117 1.287 . S
C1117 C1116 1.287 . S
C1117 C1118 1.524 . S
C1117 H1120 0.999 . S
C1118 H1088 0.950 . S
C1118 C1117 1.524 . S
C1118 C1119 1.415 . S
C1119 H1089 0.950 . S
C1119 C1114 1.363 . S
C1119 C1118 1.415 . S
H1120 C1117 0.999 . S
H1121 C1102 0.913 . S
H1122 C1140 0.951 . S
H1123 C1142 0.951 . S
H1124 C1144 0.950 . S
H1125 C1145 0.950 . S
H1126 C1147 0.950 . S
H1127 C1150 0.950 . S
H1128 C1151 0.950 . S
H1129 C1153 0.950 . S
H1130 C1154 0.950 . S
H1131 C1155 0.951 . S
H1132 C1157 0.951 . S
H1133 C1159 0.950 . S
H1134 C1160 0.950 . S
H1135 C1162 0.950 . S
H1136 C1165 0.950 . S
H1137 C1166 0.950 . S
H1138 C1168 0.950 . S
H1139 C1169 0.950 . S
C1140 H1122 0.951 . S
C1140 C1141 1.366 . S
C1140 C1142 1.388 . S
C1141 C1140 1.366 . S
C1141 C1145 1.385 . S
C1142 H1123 0.951 . S
C1142 C1140 1.388 . S
C1142 C1143 1.366 . S
C1143 C1142 1.366 . S
C1143 C1144 1.414 . S
C1143 C1146 1.499 . S
C1144 H1124 0.950 . S
C1144 C1143 1.414 . S
C1144 C1145 1.374 . S
C1145 H1125 0.950 . S
C1145 C1141 1.385 . S
C1145 C1144 1.374 . S
C1146 C1143 1.499 . S
C1146 C1147 1.373 . S
C1146 C1148 1.389 . S
C1147 H1126 0.950 . S
C1147 C1146 1.373 . S
C1147 C1163 1.377 . S
C1148 C1146 1.389 . S
C1148 C1149 1.524 . S
C1148 C1162 1.377 . S
C1149 C1148 1.524 . S
C1149 C1150 1.397 . S
C1149 C1154 1.363 . S
C1150 H1127 0.950 . S
C1150 C1149 1.397 . S
C1150 C1151 1.334 . S
C1151 H1128 0.950 . S
C1151 C1150 1.334 . S
C1151 C1152 1.287 . S
C1152 C1151 1.287 . S
C1152 C1153 1.524 . S
C1152 H1171 0.913 . S
C1153 H1129 0.950 . S
C1153 C1152 1.524 . S
C1153 C1154 1.415 . S
C1154 H1130 0.950 . S
C1154 C1149 1.363 . S
C1154 C1153 1.415 . S
C1155 H1131 0.951 . S
C1155 C1156 1.366 . S
C1155 C1157 1.388 . S
C1156 C1155 1.366 . S
C1156 C1160 1.385 . S
C1157 H1132 0.951 . S
C1157 C1155 1.388 . S
C1157 C1158 1.366 . S
C1158 C1157 1.366 . S
C1158 C1159 1.414 . S
C1158 C1161 1.499 . S
C1159 H1133 0.950 . S
C1159 C1158 1.414 . S
C1159 C1160 1.374 . S
C1160 H1134 0.950 . S
C1160 C1156 1.385 . S
C1160 C1159 1.374 . S
C1161 C1158 1.499 . S
C1161 C1162 1.373 . S
C1161 C1163 1.389 . S
C1162 H1135 0.950 . S
C1162 C1148 1.377 . S
C1162 C1161 1.373 . S
C1163 C1147 1.377 . S
C1163 C1161 1.389 . S
C1163 C1164 1.524 . S
C1164 C1163 1.524 . S
C1164 C1165 1.397 . S
C1164 C1169 1.363 . S
C1165 H1136 0.950 . S
C1165 C1164 1.397 . S
C1165 C1166 1.334 . S
C1166 H1137 0.950 . S
C1166 C1165 1.334 . S
C1166 C1167 1.287 . S
C1167 C1166 1.287 . S
C1167 C1168 1.524 . S
C1167 H1170 0.999 . S
C1168 H1138 0.950 . S
C1168 C1167 1.524 . S
C1168 C1169 1.415 . S
C1169 H1139 0.950 . S
C1169 C1164 1.363 . S
C1169 C1168 1.415 . S
H1170 C1167 0.999 . S
H1171 C1152 0.913 . S
H1172 C1190 0.951 . S
H1173 C1192 0.951 . S
H1174 C1194 0.950 . S
H1175 C1195 0.950 . S
H1176 C1197 0.950 . S
H1177 C1200 0.950 . S
H1178 C1201 0.950 . S
H1179 C1203 0.950 . S
H1180 C1204 0.950 . S
H1181 C1205 0.951 . S
H1182 C1207 0.951 . S
H1183 C1209 0.950 . S
H1184 C1210 0.950 . S
H1185 C1212 0.950 . S
H1186 C1215 0.950 . S
H1187 C1216 0.950 . S
H1188 C1218 0.950 . S
H1189 C1219 0.950 . S
C1190 H1172 0.951 . S
C1190 C1191 1.366 . S
C1190 C1192 1.388 . S
C1191 C1190 1.366 . S
C1191 C1195 1.385 . S
C1192 H1173 0.951 . S
C1192 C1190 1.388 . S
C1192 C1193 1.366 . S
C1193 C1192 1.366 . S
C1193 C1194 1.414 . S
C1193 C1196 1.499 . S
C1194 H1174 0.950 . S
C1194 C1193 1.414 . S
C1194 C1195 1.374 . S
C1195 H1175 0.950 . S
C1195 C1191 1.385 . S
C1195 C1194 1.374 . S
C1196 C1193 1.499 . S
C1196 C1197 1.373 . S
C1196 C1198 1.389 . S
C1197 H1176 0.950 . S
C1197 C1196 1.373 . S
C1197 C1213 1.377 . S
C1198 C1196 1.389 . S
C1198 C1199 1.524 . S
C1198 C1212 1.377 . S
C1199 C1198 1.524 . S
C1199 C1200 1.397 . S
C1199 C1204 1.363 . S
C1200 H1177 0.950 . S
C1200 C1199 1.397 . S
C1200 C1201 1.334 . S
C1201 H1178 0.950 . S
C1201 C1200 1.334 . S
C1201 C1202 1.287 . S
C1202 C1201 1.287 . S
C1202 C1203 1.524 . S
C1202 H1221 0.913 . S
C1203 H1179 0.950 . S
C1203 C1202 1.524 . S
C1203 C1204 1.415 . S
C1204 H1180 0.950 . S
C1204 C1199 1.363 . S
C1204 C1203 1.415 . S
C1205 H1181 0.951 . S
C1205 C1206 1.366 . S
C1205 C1207 1.388 . S
C1206 C1205 1.366 . S
C1206 C1210 1.385 . S
C1207 H1182 0.951 . S
C1207 C1205 1.388 . S
C1207 C1208 1.366 . S
C1208 C1207 1.366 . S
C1208 C1209 1.414 . S
C1208 C1211 1.499 . S
C1209 H1183 0.950 . S
C1209 C1208 1.414 . S
C1209 C1210 1.374 . S
C1210 H1184 0.950 . S
C1210 C1206 1.385 . S
C1210 C1209 1.374 . S
C1211 C1208 1.499 . S
C1211 C1212 1.373 . S
C1211 C1213 1.389 . S
C1212 H1185 0.950 . S
C1212 C1198 1.377 . S
C1212 C1211 1.373 . S
C1213 C1197 1.377 . S
C1213 C1211 1.389 . S
C1213 C1214 1.524 . S
C1214 C1213 1.524 . S
C1214 C1215 1.397 . S
C1214 C1219 1.363 . S
C1215 H1186 0.950 . S
C1215 C1214 1.397 . S
C1215 C1216 1.334 . S
C1216 H1187 0.950 . S
C1216 C1215 1.334 . S
C1216 C1217 1.287 . S
C1217 C1216 1.287 . S
C1217 C1218 1.524 . S
C1217 H1220 0.999 . S
C1218 H1188 0.950 . S
C1218 C1217 1.524 . S
C1218 C1219 1.415 . S
C1219 H1189 0.950 . S
C1219 C1214 1.363 . S
C1219 C1218 1.415 . S
H1220 C1217 0.999 . S
H1221 C1202 0.913 . S
H1222 C1240 0.951 . S
H1223 C1242 0.951 . S
H1224 C1244 0.950 . S
H1225 C1245 0.950 . S
H1226 C1247 0.950 . S
H1227 C1250 0.950 . S
H1228 C1251 0.950 . S
H1229 C1253 0.950 . S
H1230 C1254 0.950 . S
H1231 C1255 0.951 . S
H1232 C1257 0.951 . S
H1233 C1259 0.950 . S
H1234 C1260 0.950 . S
H1235 C1262 0.950 . S
H1236 C1265 0.950 . S
H1237 C1266 0.950 . S
H1238 C1268 0.950 . S
H1239 C1269 0.950 . S
C1240 H1222 0.951 . S
C1240 C1241 1.366 . S
C1240 C1242 1.388 . S
C1241 C1240 1.366 . S
C1241 C1245 1.385 . S
C1242 H1223 0.951 . S
C1242 C1240 1.388 . S
C1242 C1243 1.366 . S
C1243 C1242 1.366 . S
C1243 C1244 1.414 . S
C1243 C1246 1.499 . S
C1244 H1224 0.950 . S
C1244 C1243 1.414 . S
C1244 C1245 1.374 . S
C1245 H1225 0.950 . S
C1245 C1241 1.385 . S
C1245 C1244 1.374 . S
C1246 C1243 1.499 . S
C1246 C1247 1.373 . S
C1246 C1248 1.389 . S
C1247 H1226 0.950 . S
C1247 C1246 1.373 . S
C1247 C1263 1.377 . S
C1248 C1246 1.389 . S
C1248 C1249 1.524 . S
C1248 C1262 1.377 . S
C1249 C1248 1.524 . S
C1249 C1250 1.397 . S
C1249 C1254 1.363 . S
C1250 H1227 0.950 . S
C1250 C1249 1.397 . S
C1250 C1251 1.334 . S
C1251 H1228 0.950 . S
C1251 C1250 1.334 . S
C1251 C1252 1.287 . S
C1252 C1251 1.287 . S
C1252 C1253 1.524 . S
C1252 H1271 0.913 . S
C1253 H1229 0.950 . S
C1253 C1252 1.524 . S
C1253 C1254 1.415 . S
C1254 H1230 0.950 . S
C1254 C1249 1.363 . S
C1254 C1253 1.415 . S
C1255 H1231 0.951 . S
C1255 C1256 1.366 . S
C1255 C1257 1.388 . S
C1256 C1255 1.366 . S
C1256 C1260 1.385 . S
C1257 H1232 0.951 . S
C1257 C1255 1.388 . S
C1257 C1258 1.366 . S
C1258 C1257 1.366 . S
C1258 C1259 1.414 . S
C1258 C1261 1.499 . S
C1259 H1233 0.950 . S
C1259 C1258 1.414 . S
C1259 C1260 1.374 . S
C1260 H1234 0.950 . S
C1260 C1256 1.385 . S
C1260 C1259 1.374 . S
C1261 C1258 1.499 . S
C1261 C1262 1.373 . S
C1261 C1263 1.389 . S
C1262 H1235 0.950 . S
C1262 C1248 1.377 . S
C1262 C1261 1.373 . S
C1263 C1247 1.377 . S
C1263 C1261 1.389 . S
C1263 C1264 1.524 . S
C1264 C1263 1.524 . S
C1264 C1265 1.397 . S
C1264 C1269 1.363 . S
C1265 H1236 0.950 . S
C1265 C1264 1.397 . S
C1265 C1266 1.334 . S
C1266 H1237 0.950 . S
C1266 C1265 1.334 . S
C1266 C1267 1.287 . S
C1267 C1266 1.287 . S
C1267 C1268 1.524 . S
C1267 H1270 0.999 . S
C1268 H1238 0.950 . S
C1268 C1267 1.524 . S
C1268 C1269 1.415 . S
C1269 H1239 0.950 . S
C1269 C1264 1.363 . S
C1269 C1268 1.415 . S
H1270 C1267 0.999 . S
H1271 C1252 0.913 . S
C291 C77 0.850 . S
C306 C9 0.850 . S
C341 C43 0.851 . S
C356 C111 0.852 . S
C391 C145 0.850 . S
C406 C213 0.851 . S
C441 C179 0.851 . S
C456 C247 0.851 . S
C491 C135 1.653 . S
C506 C5 1.667 . S
C541 C33 1.653 . S
C556 C39 1.667 . S
C591 C73 1.667 . S
C606 C67 1.653 . S
C641 C107 1.667 . S
C656 C101 1.653 . S
C691 C203 1.654 . S
C706 C141 1.667 . S
C741 C237 1.653 . S
C756 C175 1.667 . S
C791 C271 1.653 . S
C806 C209 1.667 . S
C841 C169 1.653 . S
C856 C243 1.667 . S
C891 C20 1.755 . S
C906 C258 1.755 . S
C941 C54 1.755 . S
C956 C156 1.755 . S
C991 C190 1.755 . S
C1006 C88 1.755 . S
C1041 C224 1.755 . S
C1056 C122 1.755 . S
C1091 C70 1.904 . S
C1106 C172 1.904 . S
C1141 C206 1.904 . S
C1156 C104 1.904 . S
C1191 C240 1.904 . S
C1206 C2 1.904 . S
C1241 C138 1.904 . S
C1256 C36 1.904 . S
