# Generated by pormake.
# Topology fna, (5)-cn, num edge types: 1
# Building blocks:
#     Node 0, Type 0, BuildingBlock: XOMCOT_clean_sbu_0, # of connection points: 5
#     Node 1, Type 0, BuildingBlock: XOMCOT_clean_sbu_0, # of connection points: 5
#     Node 2, Type 0, BuildingBlock: XOMCOT_clean_sbu_0, # of connection points: 5
#     Node 3, Type 0, BuildingBlock: XOMCOT_clean_sbu_0, # of connection points: 5
#     Node 4, Type 0, BuildingBlock: XOMCOT_clean_sbu_0, # of connection points: 5
#     Node 5, Type 0, BuildingBlock: XOMCOT_clean_sbu_0, # of connection points: 5
#     Node 6, Type 0, BuildingBlock: XOMCOT_clean_sbu_0, # of connection points: 5
#     Node 7, Type 0, BuildingBlock: XOMCOT_clean_sbu_0, # of connection points: 5
#     Node 8, Type 0, BuildingBlock: XOMCOT_clean_sbu_0, # of connection points: 5
#     Node 9, Type 0, BuildingBlock: XOMCOT_clean_sbu_0, # of connection points: 5
#     Node 10, Type 0, BuildingBlock: XOMCOT_clean_sbu_0, # of connection points: 5
#     Node 11, Type 0, BuildingBlock: XOMCOT_clean_sbu_0, # of connection points: 5
#     Edge 12, Type (0, 0), BuildingBlock: KIFKEQ_clean_linker_1, # of connection points: 2
#     Edge 13, Type (0, 0), BuildingBlock: KIFKEQ_clean_linker_1, # of connection points: 2
#     Edge 14, Type (0, 0), BuildingBlock: KIFKEQ_clean_linker_1, # of connection points: 2
#     Edge 15, Type (0, 0), BuildingBlock: KIFKEQ_clean_linker_1, # of connection points: 2
#     Edge 16, Type (0, 0), BuildingBlock: KIFKEQ_clean_linker_1, # of connection points: 2
#     Edge 17, Type (0, 0), BuildingBlock: KIFKEQ_clean_linker_1, # of connection points: 2
#     Edge 18, Type (0, 0), BuildingBlock: KIFKEQ_clean_linker_1, # of connection points: 2
#     Edge 19, Type (0, 0), BuildingBlock: KIFKEQ_clean_linker_1, # of connection points: 2
#     Edge 20, Type (0, 0), BuildingBlock: KIFKEQ_clean_linker_1, # of connection points: 2
#     Edge 21, Type (0, 0), BuildingBlock: KIFKEQ_clean_linker_1, # of connection points: 2
#     Edge 22, Type (0, 0), BuildingBlock: KIFKEQ_clean_linker_1, # of connection points: 2
#     Edge 23, Type (0, 0), BuildingBlock: KIFKEQ_clean_linker_1, # of connection points: 2
#     Edge 24, Type (0, 0), BuildingBlock: KIFKEQ_clean_linker_1, # of connection points: 2
#     Edge 25, Type (0, 0), BuildingBlock: KIFKEQ_clean_linker_1, # of connection points: 2
#     Edge 26, Type (0, 0), BuildingBlock: KIFKEQ_clean_linker_1, # of connection points: 2
#     Edge 27, Type (0, 0), BuildingBlock: KIFKEQ_clean_linker_1, # of connection points: 2
#     Edge 28, Type (0, 0), BuildingBlock: KIFKEQ_clean_linker_1, # of connection points: 2
#     Edge 29, Type (0, 0), BuildingBlock: KIFKEQ_clean_linker_1, # of connection points: 2
#     Edge 30, Type (0, 0), BuildingBlock: KIFKEQ_clean_linker_1, # of connection points: 2
#     Edge 31, Type (0, 0), BuildingBlock: KIFKEQ_clean_linker_1, # of connection points: 2
#     Edge 32, Type (0, 0), BuildingBlock: KIFKEQ_clean_linker_1, # of connection points: 2
#     Edge 33, Type (0, 0), BuildingBlock: KIFKEQ_clean_linker_1, # of connection points: 2
#     Edge 34, Type (0, 0), BuildingBlock: KIFKEQ_clean_linker_1, # of connection points: 2
#     Edge 35, Type (0, 0), BuildingBlock: KIFKEQ_clean_linker_1, # of connection points: 2
#     Edge 36, Type (0, 0), BuildingBlock: KIFKEQ_clean_linker_1, # of connection points: 2
#     Edge 37, Type (0, 0), BuildingBlock: KIFKEQ_clean_linker_1, # of connection points: 2
#     Edge 38, Type (0, 0), BuildingBlock: KIFKEQ_clean_linker_1, # of connection points: 2
#     Edge 39, Type (0, 0), BuildingBlock: KIFKEQ_clean_linker_1, # of connection points: 2
#     Edge 40, Type (0, 0), BuildingBlock: KIFKEQ_clean_linker_1, # of connection points: 2
#     Edge 41, Type (0, 0), BuildingBlock: KIFKEQ_clean_linker_1, # of connection points: 2
# Relax obj value: 0.321
# Max RMSD: 0.211
# Mean RMSD: 0.211
data_MOF--net-fna--node1-XOMCOT_clean_sbu_0--edge1-KIFKEQ_clean_linker_1
_symmetry_space_group_name_H-M    P1
_symmetry_Int_Tables_number       1
_symmetry_cell_setting            triclinic
loop_
_symmetry_equiv_pos_as_xyz
'x, y, z'
_cell_length_a     46.200167
_cell_length_b     46.133386
_cell_length_c     46.813849
_cell_angle_alpha  90.076317
_cell_angle_beta   89.961663
_cell_angle_gamma 120.02504
loop_
_atom_site_label
_atom_site_type_symbol
_atom_site_fract_x
_atom_site_fract_y
_atom_site_fract_z
_atom_type_partial_charge
Co0 Co 0.33887 0.28573 0.48148 0.0
C1 C 0.3287 0.24282 0.43074 0.0
C2 C 0.28448 0.2448 0.44052 0.0
C3 C 0.27727 0.22194 0.41892 0.0
N4 N 0.31697 0.25852 0.44775 0.0
N5 N 0.305 0.22035 0.41287 0.0
H6 H 0.35329 0.24574 0.43295 0.0
H7 H 0.26625 0.24882 0.45147 0.0
C8 C 0.28659 0.3082 0.47387 0.0
O9 O 0.29417 0.3169 0.44699 0.0
N10 N 0.36072 0.3117 0.51502 0.0
C11 C 0.39387 0.33182 0.51862 0.0
C12 C 0.39973 0.34275 0.54645 0.0
C13 C 0.34682 0.31025 0.54063 0.0
N14 N 0.37014 0.32905 0.56029 0.0
C15 C 0.38871 0.32552 0.44004 0.0
C16 C 0.39183 0.38534 0.4537 0.0
C17 C 0.41678 0.38613 0.43602 0.0
C18 C 0.41433 0.35545 0.42861 0.0
C19 C 0.36696 0.35496 0.46499 0.0
N20 N 0.36576 0.3255 0.4584 0.0
H21 H 0.38898 0.3027 0.43581 0.0
H22 H 0.35035 0.35565 0.48083 0.0
H23 H 0.41254 0.33747 0.50231 0.0
H24 H 0.32042 0.29455 0.54502 0.0
O25 O 0.36895 0.26769 0.48364 0.0
O26 O 0.31902 0.24589 0.50412 0.0
O27 O 0.30192 0.29633 0.488 0.0
C28 C 0.34634 0.24492 0.50025 0.0
H29 H 0.25288 0.20656 0.40945 0.0
H30 H 0.42395 0.35925 0.5558 0.0
H31 H 0.39225 0.40816 0.4599 0.0
H32 H 0.43322 0.35456 0.41557 0.0
Co33 Co 0.05382 0.33559 0.64593 0.0
C34 C 0.09691 0.32662 0.60351 0.0
C35 C 0.04532 0.29874 0.5915 0.0
C36 C 0.06403 0.29427 0.57088 0.0
N37 N 0.06585 0.319 0.61212 0.0
N38 N 0.09657 0.31186 0.57836 0.0
H39 H 0.11949 0.34329 0.61501 0.0
H40 H 0.01861 0.28797 0.59101 0.0
C41 C 0.97811 0.28324 0.63433 0.0
O42 O 0.97319 0.29716 0.6118 0.0
N43 N 0.04282 0.35253 0.67945 0.0
C44 C 0.05326 0.38498 0.68502 0.0
C45 C 0.04339 0.38744 0.71214 0.0
C46 C 0.02759 0.33575 0.70346 0.0
N47 N 0.02748 0.35656 0.72368 0.0
C48 C 0.06804 0.38697 0.60505 0.0
C49 C 0.01265 0.3929 0.61732 0.0
C50 C 0.03856 0.41799 0.60108 0.0
C51 C 0.06597 0.41409 0.59403 0.0
C52 C 0.01572 0.3663 0.6279 0.0
N53 N 0.04356 0.36403 0.6224 0.0
H54 H 0.09053 0.38578 0.60143 0.0
H55 H 0.99709 0.34935 0.6428 0.0
H56 H 0.068 0.40555 0.67066 0.0
H57 H 0.01782 0.30917 0.70637 0.0
O58 O 0.10082 0.36669 0.65471 0.0
O59 O 0.07076 0.31435 0.6701 0.0
O60 O 1.00679 0.29608 0.64624 0.0
C61 C 0.09843 0.34279 0.67128 0.0
H62 H 0.05419 0.2789 0.55196 0.0
H63 H 0.04903 0.41035 0.72311 0.0
H64 H 0.99089 0.39468 0.6231 0.0
H65 H 0.08673 0.43299 0.58178 0.0
Co66 Co 0.73382 0.05632 0.81438 0.0
C67 C 0.77638 0.09004 0.76366 0.0
C68 C 0.77307 0.0428 0.77158 0.0
C69 C 0.79534 0.05847 0.74965 0.0
N70 N 0.7606 0.06226 0.78023 0.0
N71 N 0.79775 0.08841 0.74476 0.0
H72 H 0.77416 0.11206 0.76671 0.0
H73 H 0.76852 0.01988 0.78159 0.0
C74 C 0.71118 0.98117 0.80644 0.0
O75 O 0.70024 0.979 0.78018 0.0
N76 N 0.70817 0.05145 0.84832 0.0
C77 C 0.6881 0.06441 0.85269 0.0
C78 C 0.67638 0.05754 0.88027 0.0
C79 C 0.70892 0.03737 0.87327 0.0
N80 N 0.68956 0.04063 0.89318 0.0
C81 C 0.69364 0.06633 0.77348 0.0
C82 C 0.63406 0.00954 0.78728 0.0
C83 C 0.63311 0.03365 0.76965 0.0
C84 C 0.66367 0.06196 0.7622 0.0
C85 C 0.66448 0.01515 0.79845 0.0
N86 N 0.69382 0.04342 0.79174 0.0
H87 H 0.71641 0.08943 0.76917 0.0
H88 H 0.66398 0.99787 0.81423 0.0
H89 H 0.68294 0.07849 0.83707 0.0
H90 H 0.72362 0.02539 0.87681 0.0
O91 O 0.75139 0.10438 0.81722 0.0
O92 O 0.77386 0.07636 0.83673 0.0
O93 O 0.72395 0.00885 0.82006 0.0
C94 C 0.77444 0.10457 0.83344 0.0
H95 H 0.80967 0.04892 0.73904 0.0
H96 H 0.66032 0.06539 0.89033 0.0
H97 H 0.61135 0.98708 0.7935 0.0
H98 H 0.66446 0.08174 0.74922 0.0
Co99 Co 0.6883 0.72941 0.97941 0.0
C100 C 0.69873 0.77272 0.92893 0.0
C101 C 0.74389 0.77398 0.94142 0.0
C102 C 0.75139 0.7976 0.92052 0.0
N103 N 0.71069 0.75768 0.94642 0.0
N104 N 0.72304 0.79714 0.91282 0.0
H105 H 0.67349 0.76834 0.92994 0.0
H106 H 0.76214 0.77129 0.95374 0.0
C107 C 0.74087 0.70833 0.96858 0.0
O108 O 0.73558 0.7049 0.94089 0.0
N109 N 0.66621 0.70247 0.01242 0.0
C110 C 0.63306 0.68218 0.01597 0.0
C111 C 0.62738 0.66993 0.04342 0.0
C112 C 0.68023 0.70282 0.0377 0.0
N113 N 0.65704 0.68303 0.05704 0.0
C114 C 0.63687 0.69096 0.9386 0.0
C115 C 0.63485 0.631 0.94894 0.0
C116 C 0.60897 0.63058 0.93295 0.0
C117 C 0.61086 0.66133 0.92709 0.0
C118 C 0.66018 0.66109 0.96027 0.0
N119 N 0.66079 0.69061 0.95543 0.0
H120 H 0.63607 0.71372 0.93587 0.0
H121 H 0.67752 0.65992 0.97497 0.0
H122 H 0.61429 0.67734 0.99998 0.0
H123 H 0.70676 0.71769 0.0419 0.0
O124 O 0.65915 0.74838 0.98274 0.0
O125 O 0.70895 0.76841 0.00315 0.0
O126 O 0.7243 0.71727 0.98454 0.0
C127 C 0.68207 0.77028 0.9997 0.0
H128 H 0.77624 0.8151 0.91289 0.0
H129 H 0.60318 0.65364 0.05291 0.0
H130 H 0.63475 0.60803 0.9539 0.0
H131 H 0.59121 0.66239 0.91538 0.0
Co132 Co 0.96484 0.68174 0.14596 0.0
C133 C 0.93021 0.68796 0.09508 0.0
C134 C 0.97512 0.73408 0.10367 0.0
C135 C 0.95824 0.73921 0.08179 0.0
N136 N 0.95791 0.70168 0.11175 0.0
N137 N 0.92981 0.71021 0.07652 0.0
H138 H 0.90969 0.6627 0.09759 0.0
H139 H 0.99695 0.75354 0.11429 0.0
C140 C 0.03862 0.73563 0.13636 0.0
O141 O 0.03937 0.72699 0.10973 0.0
N142 N 0.9705 0.66171 0.17998 0.0
C143 C 0.95811 0.62872 0.18437 0.0
C144 C 0.96491 0.62411 0.212 0.0
C145 C 0.98416 0.67674 0.205 0.0
N146 N 0.98119 0.65429 0.22494 0.0
C147 C 0.95594 0.6311 0.10553 0.0
C148 C 0.01329 0.62993 0.12023 0.0
C149 C 0.98961 0.60433 0.10276 0.0
C150 C 0.96112 0.60577 0.0947 0.0
C151 C 1.0072 0.65484 0.13051 0.0
N152 N 0.97852 0.65498 0.12355 0.0
H153 H 0.93246 0.62981 0.10114 0.0
H154 H 0.02431 0.6723 0.14605 0.0
H155 H 0.94436 0.60933 0.16874 0.0
H156 H 0.99553 0.70341 0.20858 0.0
O157 O 0.91703 0.65048 0.14914 0.0
O158 O 0.9443 0.70136 0.1682 0.0
O159 O 1.01193 0.72008 0.15115 0.0
C160 C 0.91644 0.67334 0.16517 0.0
H161 H 0.96511 0.76311 0.07212 0.0
H162 H 0.95736 0.60027 0.22209 0.0
H163 H 0.0357 0.62992 0.12699 0.0
H164 H 0.94179 0.58621 0.08174 0.0
Co165 Co 0.29492 0.96279 0.31147 0.0
C166 C 0.24674 0.9232 0.26555 0.0
C167 C 0.27241 0.97535 0.25521 0.0
C168 C 0.25015 0.95789 0.23352 0.0
N169 N 0.27024 0.95361 0.27549 0.0
N170 N 0.2339 0.92502 0.24011 0.0
H171 H 0.23935 0.89994 0.27646 0.0
H172 H 0.28873 1.00205 0.25585 0.0
C173 C 0.31932 0.03885 0.30336 0.0
O174 O 0.34003 0.04441 0.28211 0.0
N175 N 0.31853 0.97059 0.34711 0.0
C176 C 0.33729 0.95696 0.35463 0.0
C177 C 0.34429 0.96232 0.38327 0.0
C178 C 0.31419 0.98396 0.37119 0.0
N179 N 0.32963 0.97912 0.39359 0.0
C180 C 0.33675 0.95402 0.27163 0.0
C181 C 0.39644 1.00748 0.29043 0.0
C182 C 0.39742 0.98445 0.27143 0.0
C183 C 0.36697 0.95795 0.26139 0.0
C184 C 0.36574 1.00257 0.30019 0.0
N185 N 0.33637 0.97583 0.29113 0.0
H186 H 0.31362 0.93218 0.26529 0.0
H187 H 0.36572 0.01912 0.31653 0.0
H188 H 0.34397 0.94265 0.34051 0.0
H189 H 0.29827 0.9949 0.37268 0.0
O190 O 0.27921 0.91534 0.31705 0.0
O191 O 0.25372 0.94256 0.33209 0.0
O192 O 0.30177 0.00957 0.31394 0.0
C193 C 0.25488 0.91504 0.33156 0.0
H194 H 0.24586 0.96877 0.21468 0.0
H195 H 0.35822 0.95369 0.39575 0.0
H196 H 0.41923 0.02851 0.29858 0.0
H197 H 0.3664 0.93922 0.24708 0.0
Co198 Co 0.73124 0.67844 0.342 0.0
C199 C 0.77431 0.68907 0.39274 0.0
C200 C 0.77091 0.73269 0.38348 0.0
C201 C 0.79378 0.74028 0.40508 0.0
N202 N 0.75812 0.70034 0.37588 0.0
N203 N 0.79619 0.71293 0.4108 0.0
H204 H 0.77223 0.6648 0.39033 0.0
H205 H 0.76629 0.75066 0.3728 0.0
C206 C 0.70762 0.73014 0.34954 0.0
O207 O 0.69749 0.7219 0.37605 0.0
N208 N 0.70557 0.65672 0.30828 0.0
C209 C 0.68587 0.62351 0.30434 0.0
C210 C 0.67491 0.61791 0.27652 0.0
C211 C 0.70672 0.6709 0.28288 0.0
N212 N 0.68815 0.6477 0.26302 0.0
C213 C 0.69219 0.62825 0.38329 0.0
C214 C 0.63168 0.62331 0.36938 0.0
C215 C 0.63174 0.59879 0.38698 0.0
C216 C 0.66259 0.60204 0.39455 0.0
C217 C 0.66182 0.64891 0.35831 0.0
N218 N 0.6916 0.65093 0.36496 0.0
H219 H 0.71531 0.62874 0.38767 0.0
H220 H 0.66077 0.66531 0.34245 0.0
H221 H 0.68051 0.60466 0.32042 0.0
H222 H 0.72203 0.69744 0.27878 0.0
O223 O 0.74981 0.64881 0.33952 0.0
O224 O 0.77111 0.69896 0.31944 0.0
O225 O 0.72026 0.71517 0.33587 0.0
C226 C 0.77244 0.67177 0.32305 0.0
H227 H 0.80868 0.76467 0.41479 0.0
H228 H 0.65867 0.5937 0.26697 0.0
H229 H 0.60839 0.62137 0.36252 0.0
H230 H 0.66377 0.58364 0.4081 0.0
Co231 Co 0.05741 0.73127 0.50959 0.0
C232 C 0.09458 0.77801 0.5573 0.0
C233 C 0.04629 0.77299 0.55166 0.0
C234 C 0.06312 0.79656 0.57253 0.0
N235 N 0.06573 0.76084 0.54226 0.0
N236 N 0.09367 0.79998 0.57602 0.0
H237 H 0.11655 0.77595 0.55348 0.0
H238 H 0.02226 0.7669 0.54309 0.0
C239 C 0.98226 0.70827 0.51986 0.0
O240 O 0.98057 0.69797 0.54629 0.0
N241 N 0.05021 0.70275 0.47706 0.0
C242 C 0.06309 0.68246 0.47346 0.0
C243 C 0.05738 0.67095 0.44582 0.0
C244 C 0.03712 0.70361 0.45161 0.0
N245 N 0.04134 0.6845 0.43204 0.0
C246 C 0.07132 0.69453 0.55148 0.0
C247 C 0.01487 0.63357 0.54014 0.0
C248 C 0.04068 0.63402 0.5562 0.0
C249 C 0.06863 0.66517 0.56281 0.0
C250 C 0.01856 0.66336 0.52923 0.0
N251 N 0.04688 0.69332 0.5343 0.0
H252 H 0.09433 0.71781 0.55456 0.0
H253 H 1.0 0.6617 0.51431 0.0
H254 H 0.07696 0.67757 0.48947 0.0
H255 H 0.02682 0.71964 0.44707 0.0
O256 O 0.10538 0.74951 0.50383 0.0
O257 O 0.07448 0.76883 0.48464 0.0
O258 O 1.00957 0.72058 0.50584 0.0
C259 C 0.10299 0.76983 0.48583 0.0
H260 H 0.05373 0.81076 0.58361 0.0
H261 H 0.06531 0.65461 0.43642 0.0
H262 H 0.99273 0.61015 0.53465 0.0
H263 H 0.08938 0.66673 0.57484 0.0
Co264 Co 0.34027 0.05697 0.68 0.0
C265 C 0.33127 0.09674 0.72551 0.0
C266 C 0.3052 0.04467 0.73617 0.0
C267 C 0.3006 0.06224 0.75792 0.0
N268 N 0.32439 0.06631 0.71568 0.0
N269 N 0.31699 0.09506 0.75114 0.0
H270 H 0.34704 0.11993 0.71447 0.0
H271 H 0.29517 0.018 0.73571 0.0
C272 C 0.2881 0.9809 0.6875 0.0
O273 O 0.30292 0.97494 0.70875 0.0
N274 N 0.35645 0.0489 0.64467 0.0
C275 C 0.3889 0.06226 0.63744 0.0
C276 C 0.39084 0.05697 0.60881 0.0
C277 C 0.33902 0.03574 0.62045 0.0
N278 N 0.35951 0.04047 0.59824 0.0
C279 C 0.39024 0.06597 0.72026 0.0
C280 C 0.39675 0.01219 0.70276 0.0
C281 C 0.42056 0.03572 0.72153 0.0
C282 C 0.4166 0.06243 0.73082 0.0
C283 C 0.37103 0.01692 0.69239 0.0
N284 N 0.3682 0.04376 0.70091 0.0
H285 H 0.38883 0.08786 0.7262 0.0
H286 H 0.35481 1.00026 0.67595 0.0
H287 H 0.40974 0.07641 0.65172 0.0
H288 H 0.31222 0.02509 0.61872 0.0
O289 O 0.37249 0.10425 0.67455 0.0
O290 O 0.32006 0.07774 0.6589 0.0
O291 O 0.30006 0.01036 0.67724 0.0
C292 C 0.34899 0.10497 0.65963 0.0
H293 H 0.28587 0.05149 0.77701 0.0
H294 H 0.41352 0.06548 0.59652 0.0
H295 H 0.39925 0.99155 0.69465 0.0
H296 H 0.43446 0.08116 0.74531 0.0
Co297 Co 0.29151 0.33811 0.84392 0.0
C298 C 0.24929 0.3313 0.89412 0.0
C299 C 0.25022 0.28601 0.8867 0.0
C300 C 0.22795 0.28057 0.90846 0.0
N301 N 0.26425 0.31811 0.87797 0.0
N302 N 0.2272 0.30904 0.91301 0.0
H303 H 0.25301 0.35613 0.89108 0.0
H304 H 0.25362 0.26686 0.87668 0.0
C305 C 0.3133 0.28558 0.85491 0.0
O306 O 0.3223 0.29419 0.8816 0.0
N307 N 0.31764 0.35809 0.81008 0.0
C308 C 0.33777 0.39106 0.80525 0.0
C309 C 0.34995 0.39523 0.77786 0.0
C310 C 0.31733 0.34263 0.7856 0.0
N311 N 0.337 0.36477 0.76554 0.0
C312 C 0.33103 0.39063 0.88348 0.0
C313 C 0.39083 0.39291 0.87184 0.0
C314 C 0.39137 0.41886 0.88786 0.0
C315 C 0.36082 0.41694 0.89434 0.0
C316 C 0.3605 0.36714 0.86123 0.0
N317 N 0.33107 0.36641 0.86674 0.0
H318 H 0.30831 0.39128 0.88678 0.0
H319 H 0.36123 0.34951 0.84649 0.0
H320 H 0.34264 0.41072 0.82039 0.0
H321 H 0.30268 0.31583 0.78247 0.0
O322 O 0.27316 0.36779 0.83943 0.0
O323 O 0.25197 0.31677 0.82112 0.0
O324 O 0.30202 0.30085 0.83995 0.0
C325 C 0.25056 0.34405 0.82345 0.0
H326 H 0.21173 0.25676 0.91862 0.0
H327 H 0.36613 0.41891 0.7675 0.0
H328 H 0.41386 0.39373 0.86577 0.0
H329 H 0.36005 0.43642 0.90669 0.0
Co330 Co 0.96503 0.28827 0.01137 0.0
C331 C 0.93105 0.24693 0.06226 0.0
C332 C 0.97447 0.24396 0.05144 0.0
C333 C 0.95767 0.22148 0.07307 0.0
N334 N 0.95826 0.26064 0.04501 0.0
N335 N 0.93017 0.22316 0.07972 0.0
H336 H 0.91099 0.25245 0.06077 0.0
H337 H 0.99536 0.24561 0.03971 0.0
C338 C 0.03835 0.30753 0.02165 0.0
O339 O 0.03737 0.31244 0.0492 0.0
N340 N 0.97058 0.31463 0.9778 0.0
C341 C 0.9602 0.337 0.97434 0.0
C342 C 0.96592 0.34792 0.94652 0.0
C343 C 0.98176 0.31162 0.95204 0.0
N344 N 0.97929 0.3318 0.93258 0.0
C345 C 0.95464 0.32914 0.05175 0.0
C346 C 0.0133 0.38775 0.03971 0.0
C347 C 0.98889 0.38947 0.05623 0.0
C348 C 0.95969 0.35945 0.06298 0.0
C349 C 1.0073 0.35696 0.02895 0.0
N350 N 0.978 0.3281 0.03457 0.0
H351 H 0.93073 0.30701 0.05502 0.0
H352 H 0.02508 0.35702 0.01398 0.0
H353 H 0.94834 0.34409 0.99066 0.0
H354 H 0.99078 0.29449 0.94752 0.0
O355 O 0.9171 0.27089 0.00808 0.0
O356 O 0.94525 0.24858 0.98846 0.0
O357 O 0.01254 0.29843 0.00609 0.0
C358 C 0.91708 0.24801 0.99165 0.0
H359 H 0.96374 0.20332 0.0815 0.0
H360 H 0.95941 0.36525 0.93694 0.0
H361 H 0.03626 0.41023 0.03395 0.0
H362 H 0.93981 0.35956 0.07517 0.0
Co363 Co 0.68868 0.96129 0.17734 0.0
C364 C 0.69858 0.92847 0.22803 0.0
C365 C 0.74406 0.9721 0.21554 0.0
C366 C 0.75125 0.95572 0.23643 0.0
N367 N 0.71086 0.95549 0.21052 0.0
N368 N 0.72268 0.92801 0.24413 0.0
H369 H 0.67324 0.90774 0.22699 0.0
H370 H 0.76249 0.99294 0.2032 0.0
C371 C 0.74174 0.03491 0.1875 0.0
O372 O 0.73627 0.03333 0.21515 0.0
N373 N 0.66666 0.9659 0.14419 0.0
C374 C 0.63351 0.953 0.14077 0.0
C375 C 0.62757 0.95839 0.11306 0.0
C376 C 0.68046 0.9786 0.1186 0.0
N377 N 0.65709 0.97434 0.09912 0.0
C378 C 0.63803 0.94998 0.21853 0.0
C379 C 0.63633 1.00776 0.2065 0.0
C380 C 0.61073 0.98304 0.22325 0.0
C381 C 0.61245 0.9543 0.23 0.0
C382 C 0.66131 1.0024 0.19538 0.0
N383 N 0.66174 0.97354 0.20102 0.0
H384 H 0.63705 0.92642 0.22191 0.0
H385 H 0.67849 0.0203 0.18018 0.0
H386 H 0.61489 0.9398 0.15707 0.0
H387 H 0.70682 0.98924 0.11407 0.0
O388 O 0.65891 0.91314 0.17456 0.0
O389 O 0.70875 0.94209 0.15398 0.0
O390 O 0.72515 0.00923 0.17169 0.0
C391 C 0.68163 0.91355 0.15772 0.0
H392 H 0.77602 0.9627 0.24402 0.0
H393 H 0.60332 0.95077 0.10386 0.0
H394 H 0.63622 0.03045 0.20081 0.0
H395 H 0.59295 0.9342 0.24239 0.0
H396 H 0.40511 0.14408 0.62829 0.0
H397 H 0.30605 0.12647 0.64649 0.0
H398 H 0.40855 0.17808 0.58676 0.0
H399 H 0.30973 0.16109 0.60596 0.0
H400 H 0.30185 0.18164 0.51562 0.0
H401 H 0.307 0.15063 0.55539 0.0
H402 H 0.40956 0.22872 0.56775 0.0
H403 H 0.40452 0.25925 0.52696 0.0
C404 C 0.38466 0.14862 0.62403 0.0
C405 C 0.35529 0.13275 0.64046 0.0
C406 C 0.38649 0.1678 0.60015 0.0
C407 C 0.359 0.17144 0.59255 0.0
C408 C 0.33088 0.15782 0.6106 0.0
C409 C 0.32893 0.13843 0.63409 0.0
C410 C 0.32579 0.19162 0.52628 0.0
C411 C 0.35277 0.22269 0.51828 0.0
C412 C 0.32864 0.17418 0.54935 0.0
C413 C 0.35837 0.18777 0.56536 0.0
C414 C 0.38628 0.21768 0.55596 0.0
C415 C 0.38351 0.235 0.53248 0.0
H416 H 0.0819 0.31366 0.72263 0.0
H417 H 0.16706 0.38577 0.67395 0.0
H418 H 0.1179 0.31935 0.7622 0.0
H419 H 0.20407 0.3906 0.71395 0.0
H420 H 0.25597 0.40236 0.80274 0.0
H421 H 0.21983 0.4069 0.76647 0.0
H422 H 0.15688 0.29924 0.76688 0.0
H423 H 0.1921 0.29492 0.80287 0.0
C424 C 0.10854 0.33057 0.72028 0.0
C425 C 0.12186 0.34855 0.69487 0.0
C426 C 0.12917 0.33391 0.74308 0.0
C427 C 0.1639 0.35484 0.74101 0.0
C428 C 0.17734 0.37425 0.71612 0.0
C429 C 0.15633 0.3713 0.69319 0.0
C430 C 0.23386 0.37989 0.7955 0.0
C431 C 0.22659 0.3483 0.80574 0.0
C432 C 0.21353 0.38243 0.7745 0.0
C433 C 0.18551 0.35345 0.76383 0.0
C434 C 0.17795 0.32212 0.77488 0.0
C435 C 0.19818 0.31961 0.79553 0.0
H436 H 0.83817 0.12417 0.84763 0.0
H437 H 0.75965 0.14727 0.86177 0.0
H438 H 0.86966 0.16021 0.88737 0.0
H439 H 0.79061 0.1826 0.90261 0.0
H440 H 0.87529 0.2633 0.9626 0.0
H441 H 0.84039 0.23232 0.92157 0.0
H442 H 0.86151 0.15253 0.93783 0.0
H443 H 0.89713 0.18403 0.97776 0.0
C444 C 0.82806 0.13765 0.85893 0.0
C445 C 0.79665 0.13311 0.85167 0.0
C446 C 0.84577 0.15785 0.88201 0.0
C447 C 0.83212 0.17338 0.89881 0.0
C448 C 0.80174 0.17086 0.89021 0.0
C449 C 0.78416 0.1509 0.8667 0.0
C450 C 0.87146 0.23863 0.95783 0.0
C451 C 0.88876 0.22591 0.97322 0.0
C452 C 0.85176 0.22103 0.93422 0.0
C453 C 0.849 0.19042 0.92588 0.0
C454 C 0.86406 0.17659 0.943 0.0
C455 C 0.884 0.19431 0.96618 0.0
H456 H 0.72752 0.83323 0.01518 0.0
H457 H 0.62468 0.75654 0.02741 0.0
H458 H 0.72328 0.86485 0.05498 0.0
H459 H 0.62061 0.78746 0.0684 0.0
H460 H 0.62496 0.87189 0.12828 0.0
H461 H 0.62133 0.83686 0.08747 0.0
H462 H 0.7217 0.85734 0.10516 0.0
H463 H 0.72559 0.89334 0.14476 0.0
C464 C 0.70377 0.82354 0.02613 0.0
C465 C 0.67642 0.79265 0.01828 0.0
C466 C 0.70145 0.84129 0.04925 0.0
C467 C 0.67193 0.82813 0.06554 0.0
C468 C 0.64374 0.79824 0.05641 0.0
C469 C 0.64595 0.78067 0.03283 0.0
C470 C 0.64573 0.8679 0.12386 0.0
C471 C 0.67554 0.88512 0.13953 0.0
C472 C 0.6438 0.8481 0.10038 0.0
C473 C 0.6716 0.84512 0.09249 0.0
C474 C 0.70025 0.86008 0.10994 0.0
C475 C 0.70235 0.88022 0.13295 0.0
H476 H 0.89567 0.71674 0.1789 0.0
H477 H 0.87497 0.61596 0.19413 0.0
H478 H 0.85975 0.71208 0.21873 0.0
H479 H 0.83977 0.61151 0.23504 0.0
H480 H 0.75844 0.61446 0.29479 0.0
H481 H 0.78969 0.61065 0.25396 0.0
H482 H 0.8678 0.7127 0.26918 0.0
H483 H 0.83599 0.71668 0.30891 0.0
C484 C 0.88273 0.69328 0.19046 0.0
C485 C 0.88791 0.6667 0.18348 0.0
C486 C 0.86261 0.69076 0.21359 0.0
C487 C 0.84779 0.66182 0.23071 0.0
C488 C 0.85095 0.6342 0.2224 0.0
C489 C 0.87083 0.6366 0.19885 0.0
C490 C 0.78282 0.6356 0.28986 0.0
C491 C 0.79495 0.66587 0.30489 0.0
C492 C 0.80057 0.63355 0.26635 0.0
C493 C 0.83075 0.66171 0.25775 0.0
C494 C 0.84406 0.69092 0.27455 0.0
C495 C 0.82618 0.69308 0.29762 0.0
H496 H 0.26547 0.8683 0.35851 0.0
H497 H 0.19266 0.89975 0.34645 0.0
H498 H 0.22983 0.82879 0.39572 0.0
H499 H 0.15783 0.86141 0.38336 0.0
H500 H 0.08717 0.77401 0.43175 0.0
H501 H 0.12376 0.80232 0.39196 0.0
H502 H 0.20987 0.83187 0.44603 0.0
H503 H 0.17236 0.8015 0.48637 0.0
C504 C 0.2415 0.86609 0.36329 0.0
C505 C 0.23154 0.88672 0.34947 0.0
C506 C 0.22144 0.84396 0.38484 0.0
C507 C 0.19103 0.84196 0.39248 0.0
C508 C 0.18082 0.86188 0.37777 0.0
C509 C 0.20079 0.88392 0.35658 0.0
C510 C 0.11392 0.78648 0.43532 0.0
C511 C 0.127 0.78647 0.46239 0.0
C512 C 0.1349 0.80264 0.41241 0.0
C513 C 0.16969 0.82002 0.41596 0.0
C514 C 0.18308 0.81868 0.44269 0.0
C515 C 0.16176 0.80167 0.46579 0.0
H516 H 0.36138 0.22416 0.39038 0.0
H517 H 0.2539 0.16109 0.39321 0.0
H518 H 0.36517 0.18153 0.36222 0.0
H519 H 0.25768 0.11962 0.3643 0.0
H520 H 0.2781 0.03478 0.34681 0.0
H521 H 0.27564 0.07971 0.37133 0.0
H522 H 0.35269 0.15204 0.31595 0.0
H523 H 0.35574 0.1066 0.29146 0.0
C524 C 0.33855 0.20141 0.38496 0.0
C525 C 0.30735 0.19624 0.39446 0.0
C526 C 0.34072 0.17709 0.36849 0.0
C527 C 0.31176 0.14692 0.36113 0.0
C528 C 0.28059 0.14224 0.36992 0.0
C529 C 0.27842 0.16642 0.38634 0.0
C530 C 0.29449 0.06018 0.3396 0.0
C531 C 0.31707 0.06691 0.31697 0.0
C532 C 0.29292 0.08607 0.35366 0.0
C533 C 0.31378 0.11962 0.34557 0.0
C534 C 0.33639 0.12652 0.32289 0.0
C535 C 0.33796 0.10044 0.3087 0.0
H536 H 0.24626 0.33146 0.45237 0.0
H537 H 0.26509 0.29116 0.52883 0.0
H538 H 0.20148 0.33508 0.47721 0.0
H539 H 0.22032 0.29398 0.55315 0.0
H540 H 0.15823 0.32929 0.59925 0.0
H541 H 0.20499 0.33165 0.57338 0.0
H542 H 0.14591 0.30061 0.49618 0.0
H543 H 0.09964 0.2998 0.52172 0.0
C544 C 0.2409 0.32336 0.47439 0.0
C545 C 0.25942 0.31105 0.48849 0.0
C546 C 0.21509 0.32525 0.48863 0.0
C547 C 0.20722 0.31494 0.51732 0.0
C548 C 0.22591 0.30277 0.53131 0.0
C549 C 0.25158 0.30091 0.51717 0.0
C550 C 0.15523 0.32342 0.5767 0.0
C551 C 0.12481 0.31415 0.56278 0.0
C552 C 0.18205 0.3244 0.56185 0.0
C553 C 0.1793 0.31604 0.53263 0.0
C554 C 0.14916 0.30746 0.51856 0.0
C555 C 0.12234 0.30655 0.5334 0.0
H556 H 0.85586 0.09556 0.72358 0.0
H557 H 0.7943 0.14168 0.72347 0.0
H558 H 0.89686 0.14052 0.6942 0.0
H559 H 0.83646 0.18778 0.69468 0.0
H560 H 0.9104 0.25212 0.62244 0.0
H561 H 0.86494 0.20385 0.64717 0.0
H562 H 0.93727 0.19867 0.70209 0.0
H563 H 0.98214 0.2459 0.67749 0.0
C564 C 0.85076 0.11505 0.71716 0.0
C565 C 0.82153 0.11476 0.72617 0.0
C566 C 0.87464 0.1412 0.70047 0.0
C567 C 0.87023 0.16805 0.69226 0.0
C568 C 0.84063 0.16745 0.7005 0.0
C569 C 0.81661 0.14117 0.7173 0.0
C570 C 0.91653 0.24042 0.63961 0.0
C571 C 0.95003 0.25292 0.6478 0.0
C572 C 0.89047 0.21293 0.65394 0.0
C573 C 0.89741 0.1972 0.67656 0.0
C574 C 0.93092 0.20968 0.68449 0.0
C575 C 0.95676 0.23703 0.67038 0.0
H576 H 0.73715 0.98056 0.85846 0.0
H577 H 0.6841 0.91579 0.78731 0.0
H578 H 0.73837 0.93468 0.88228 0.0
H579 H 0.68562 0.8693 0.81155 0.0
H580 H 0.66844 0.78943 0.88384 0.0
H581 H 0.66385 0.83233 0.85647 0.0
H582 H 0.76748 0.90297 0.87429 0.0
H583 H 0.77188 0.86098 0.9019 0.0
C584 C 0.72566 0.9565 0.84779 0.0
C585 C 0.71068 0.95208 0.82075 0.0
C586 C 0.72656 0.93014 0.8615 0.0
C587 C 0.71245 0.89838 0.84872 0.0
C588 C 0.69668 0.89349 0.82198 0.0
C589 C 0.69596 0.92014 0.80804 0.0
C590 C 0.6902 0.81413 0.88188 0.0
C591 C 0.7205 0.82161 0.89522 0.0
C592 C 0.68764 0.8386 0.86599 0.0
C593 C 0.71523 0.87116 0.86337 0.0
C594 C 0.74562 0.87829 0.87615 0.0
C595 C 0.74822 0.85395 0.8918 0.0
H596 H 0.74724 0.69851 0.02493 0.0
H597 H 0.79463 0.70795 0.94321 0.0
H598 H 0.79253 0.69592 0.04865 0.0
H599 H 0.8403 0.70492 0.96722 0.0
H600 H 0.93378 0.74463 0.02826 0.0
H601 H 0.88736 0.74051 3e-05 0.0
H602 H 0.81745 0.66078 0.05471 0.0
H603 H 0.86354 0.66556 0.08332 0.0
C604 C 0.76723 0.69973 0.01193 0.0
C605 C 0.76733 0.70362 0.98212 0.0
C606 C 0.79315 0.69797 0.02559 0.0
C607 C 0.82012 0.70017 0.0099 0.0
C608 C 0.82001 0.7034 0.97997 0.0
C609 C 0.79375 0.70488 0.96619 0.0
C610 C 0.9085 0.72617 0.03421 0.0
C611 C 0.90254 0.70562 0.05825 0.0
C612 C 0.88189 0.72355 0.01782 0.0
C613 C 0.84862 0.70044 0.02517 0.0
C614 C 0.84273 0.67913 0.04861 0.0
C615 C 0.86929 0.68165 0.0649 0.0
H616 H 0.22041 0.92296 0.18314 0.0
H617 H 0.18666 0.86439 0.26056 0.0
H618 H 0.17425 0.87751 0.15694 0.0
H619 H 0.14181 0.81878 0.23427 0.0
H620 H 0.04241 0.76143 0.18949 0.0
H621 H 0.09015 0.8069 0.21304 0.0
H622 H 0.15111 0.82009 0.13882 0.0
H623 H 0.10252 0.7744 0.11466 0.0
C624 C 0.20332 0.90045 0.19461 0.0
C625 C 0.20742 0.89764 0.22412 0.0
C626 C 0.17703 0.87418 0.17947 0.0
C627 C 0.15407 0.84445 0.19345 0.0
C628 C 0.15861 0.84145 0.2228 0.0
C629 C 0.18476 0.86761 0.23789 0.0
C630 C 0.06591 0.77384 0.17802 0.0
C631 C 0.06851 0.76396 0.15011 0.0
C632 C 0.09349 0.79994 0.19171 0.0
C633 C 0.12473 0.81705 0.17806 0.0
C634 C 0.1274 0.80759 0.14995 0.0
C635 C 0.09959 0.7813 0.13614 0.0
H636 H 0.91608 0.67711 0.53745 0.0
H637 H 0.98202 0.73721 0.46936 0.0
H638 H 0.86897 0.67685 0.51265 0.0
H639 H 0.93561 0.73687 0.44511 0.0
H640 H 0.85715 0.76438 0.42579 0.0
H641 H 0.89967 0.76189 0.45432 0.0
H642 H 0.83504 0.65547 0.46528 0.0
H643 H 0.79167 0.65801 0.43687 0.0
C644 C 0.92058 0.69024 0.51733 0.0
C645 C 0.95297 0.70731 0.50557 0.0
C646 C 0.89359 0.68994 0.50307 0.0
C647 C 0.89862 0.70711 0.47703 0.0
C648 C 0.93091 0.72384 0.46531 0.0
C649 C 0.95758 0.72386 0.47927 0.0
C650 C 0.85155 0.74046 0.43457 0.0
C651 C 0.82081 0.71137 0.42891 0.0
C652 C 0.87617 0.739 0.45077 0.0
C653 C 0.87087 0.70845 0.46193 0.0
C654 C 0.83983 0.67941 0.45708 0.0
C655 C 0.81514 0.68082 0.44058 0.0
H656 H 0.25046 0.98582 0.64493 0.0
H657 H 0.25806 0.91277 0.69718 0.0
H658 H 0.20382 0.94127 0.61933 0.0
H659 H 0.21045 0.86773 0.67156 0.0
H660 H 0.14815 0.79778 0.59576 0.0
H661 H 0.19444 0.84036 0.62413 0.0
H662 H 0.14613 0.89981 0.62594 0.0
H663 H 0.10093 0.85833 0.59694 0.0
C664 C 0.24201 0.96022 0.65122 0.0
C665 C 0.25812 0.95305 0.67333 0.0
C666 C 0.21501 0.93455 0.63653 0.0
C667 C 0.2031 0.90078 0.64339 0.0
C668 C 0.21908 0.89344 0.66554 0.0
C669 C 0.24621 0.91928 0.68041 0.0
C670 C 0.14748 0.82 0.60207 0.0
C671 C 0.12062 0.82443 0.5938 0.0
C672 C 0.17389 0.84428 0.61865 0.0
C673 C 0.17421 0.8737 0.62727 0.0
C674 C 0.14708 0.87777 0.61941 0.0
C675 C 0.12078 0.85361 0.60294 0.0
H676 H 0.29039 0.25896 0.80225 0.0
H677 H 0.33911 0.24726 0.87651 0.0
H678 H 0.29233 0.21328 0.77887 0.0
H679 H 0.34164 0.20121 0.85246 0.0
H680 H 0.3066 0.09748 0.80831 0.0
H681 H 0.30675 0.14332 0.83471 0.0
H682 H 0.33215 0.20166 0.75721 0.0
H683 H 0.33049 0.15572 0.73076 0.0
C684 C 0.30183 0.24683 0.81362 0.0
C685 C 0.31485 0.25715 0.84131 0.0
C686 C 0.30308 0.22058 0.80002 0.0
C687 C 0.31754 0.20372 0.81353 0.0
C688 C 0.3302 0.21356 0.84144 0.0
C689 C 0.3289 0.24005 0.85519 0.0
C690 C 0.31199 0.11999 0.79685 0.0
C691 C 0.31837 0.1226 0.76724 0.0
C692 C 0.31248 0.14647 0.81211 0.0
C693 C 0.31924 0.17619 0.79812 0.0
C694 C 0.32631 0.17901 0.76868 0.0
C695 C 0.32576 0.15264 0.75349 0.0
H696 H 0.05207 0.31308 0.96475 0.0
H697 H 0.09438 0.31142 0.04658 0.0
H698 H 0.10013 0.31641 0.94069 0.0
H699 H 0.14319 0.3151 0.02218 0.0
H700 H 0.199 0.27621 0.9624 0.0
H701 H 0.15593 0.2791 0.99059 0.0
H702 H 0.15985 0.35408 0.93311 0.0
H703 H 0.2021 0.35058 0.90463 0.0
C704 C 0.07177 0.31365 0.9777 0.0
C705 C 0.0692 0.31182 0.00768 0.0
C706 C 0.09955 0.31584 0.96383 0.0
C707 C 0.12564 0.31612 0.97945 0.0
C708 C 0.12341 0.31472 0.0095 0.0
C709 C 0.09557 0.31282 0.02349 0.0
C710 C 0.19073 0.29337 0.95584 0.0
C711 C 0.20396 0.31298 0.9311 0.0
C712 C 0.16628 0.29529 0.97218 0.0
C713 C 0.15425 0.31668 0.96405 0.0
C714 C 0.16825 0.33705 0.93983 0.0
C715 C 0.1928 0.33529 0.92362 0.0
H716 H 0.74806 0.05092 0.13107 0.0
H717 H 0.79548 0.08923 0.21273 0.0
H718 H 0.79317 0.09913 0.1073 0.0
H719 H 0.84099 0.1381 0.18868 0.0
H720 H 0.93431 0.19185 0.12721 0.0
H721 H 0.88797 0.14915 0.15537 0.0
H722 H 0.81788 0.15991 0.10183 0.0
H723 H 0.864 0.20191 0.07342 0.0
C724 C 0.76803 0.0698 0.14403 0.0
C725 C 0.76818 0.06607 0.17385 0.0
C726 C 0.79384 0.09766 0.13036 0.0
C727 C 0.82075 0.12256 0.14604 0.0
C728 C 0.82072 0.11923 0.17596 0.0
C729 C 0.79456 0.09138 0.18976 0.0
C730 C 0.90901 0.18519 0.12156 0.0
C731 C 0.90297 0.20027 0.09794 0.0
C732 C 0.88246 0.16096 0.13788 0.0
C733 C 0.84917 0.15096 0.1308 0.0
C734 C 0.8432 0.16678 0.10772 0.0
C735 C 0.86972 0.19116 0.09156 0.0
H736 H 0.7704 0.9113 0.25402 0.0
H737 H 0.66805 0.88215 0.27373 0.0
H738 H 0.76498 0.86414 0.28123 0.0
H739 H 0.66245 0.83402 0.3008 0.0
H740 H 0.68268 0.76995 0.3695 0.0
H741 H 0.68493 0.81842 0.34545 0.0
H742 H 0.73336 0.80278 0.27302 0.0
H743 H 0.73128 0.75511 0.29657 0.0
C744 C 0.7468 0.89512 0.26442 0.0
C745 C 0.71965 0.9007 0.26158 0.0
C746 C 0.74359 0.86776 0.27984 0.0
C747 C 0.7132 0.84511 0.29301 0.0
C748 C 0.68623 0.85107 0.29098 0.0
C749 C 0.68936 0.87846 0.27527 0.0
C750 C 0.69367 0.77684 0.34841 0.0
C751 C 0.70702 0.75866 0.33517 0.0
C752 C 0.69484 0.8045 0.3346 0.0
C753 C 0.7097 0.8147 0.30746 0.0
C754 C 0.7223 0.79603 0.29411 0.0
C755 C 0.72092 0.76846 0.30767 0.0
H756 H 0.45316 0.40175 0.38602 0.0
H757 H 0.44892 0.44454 0.4671 0.0
H758 H 0.50461 0.4534 0.37436 0.0
H759 H 0.49948 0.49636 0.45478 0.0
H760 H 0.57437 0.5949 0.40787 0.0
H761 H 0.52118 0.54423 0.41875 0.0
H762 H 0.56383 0.48331 0.39414 0.0
H763 H 0.61677 0.53376 0.38329 0.0
C764 C 0.463 0.42206 0.40135 0.0
C765 C 0.44663 0.41868 0.42756 0.0
C766 C 0.49247 0.45171 0.39459 0.0
C767 C 0.50612 0.47891 0.41369 0.0
C768 C 0.48937 0.47599 0.43949 0.0
C769 C 0.46017 0.44622 0.44643 0.0
C770 C 0.57233 0.57067 0.40488 0.0
C771 C 0.59983 0.56833 0.39494 0.0
C772 C 0.54197 0.5417 0.41117 0.0
C773 C 0.5383 0.50979 0.40716 0.0
C774 C 0.56578 0.50751 0.39718 0.0
C775 C 0.59622 0.53642 0.3913 0.0
H776 H 0.01997 0.45367 0.63558 0.0
H777 H 0.05752 0.45392 0.55101 0.0
H778 H 0.02032 0.50548 0.6249 0.0
H779 H 0.05877 0.50647 0.54057 0.0
H780 H 0.02064 0.57926 0.52197 0.0
H781 H 0.01996 0.52732 0.53273 0.0
H782 H 0.05987 0.56504 0.61668 0.0
H783 H 0.05966 0.61687 0.60616 0.0
C784 C 0.02807 0.46464 0.61459 0.0
C785 C 0.03837 0.44939 0.59402 0.0
C786 C 0.02871 0.49464 0.60863 0.0
C787 C 0.03961 0.51019 0.58191 0.0
C788 C 0.04992 0.49497 0.56129 0.0
C789 C 0.04944 0.46499 0.56732 0.0
C790 C 0.02883 0.57635 0.5429 0.0
C791 C 0.03985 0.60214 0.56334 0.0
C792 C 0.02888 0.54671 0.54891 0.0
C793 C 0.0399 0.54198 0.57553 0.0
C794 C 0.05091 0.56773 0.59604 0.0
C795 C 0.05102 0.59753 0.58996 0.0
H796 H 0.61741 0.0546 0.71981 0.0
H797 H 0.57471 1.00688 0.80063 0.0
H798 H 0.56576 0.05434 0.70831 0.0
H799 H 0.52283 1.00542 0.78835 0.0
H800 H 0.42455 0.98158 0.74041 0.0
H801 H 0.47526 0.97908 0.75109 0.0
H802 H 0.5358 0.08372 0.72963 0.0
H803 H 0.4853 0.08626 0.71915 0.0
C804 C 0.59713 0.04395 0.73511 0.0
C805 C 0.60055 0.03082 0.76122 0.0
C806 C 0.56748 0.04372 0.72843 0.0
C807 C 0.54031 0.02991 0.74747 0.0
C808 C 0.54323 0.01589 0.77313 0.0
C809 C 0.57302 0.01657 0.78003 0.0
C810 C 0.44872 1.00401 0.73808 0.0
C811 C 0.45098 0.03416 0.72916 0.0
C812 C 0.47768 1.00262 0.74424 0.0
C813 C 0.50946 0.03118 0.74105 0.0
C814 C 0.51167 0.06125 0.73203 0.0
C815 C 0.48276 0.06278 0.72634 0.0
H816 H 0.57778 0.5724 0.96401 0.0
H817 H 0.57082 0.61543 0.88412 0.0
H818 H 0.52638 0.52089 0.95273 0.0
H819 H 0.51881 0.56393 0.87325 0.0
H820 H 0.40747 0.48417 0.88264 0.0
H821 H 0.46084 0.53433 0.89264 0.0
H822 H 0.50229 0.47282 0.91858 0.0
H823 H 0.44853 0.42243 0.90895 0.0
C824 C 0.56571 0.57076 0.94378 0.0
C825 C 0.57871 0.59824 0.92494 0.0
C826 C 0.53607 0.54118 0.93741 0.0
C827 C 0.51842 0.53835 0.91217 0.0
C828 C 0.53159 0.56552 0.89308 0.0
C829 C 0.56141 0.59505 0.89934 0.0
C830 C 0.42781 0.4813 0.89082 0.0
C831 C 0.42365 0.44927 0.89523 0.0
C832 C 0.45855 0.51007 0.89618 0.0
C833 C 0.48587 0.50758 0.90625 0.0
C834 C 0.48166 0.47557 0.91095 0.0
C835 C 0.45095 0.44673 0.90533 0.0
H836 H 0.97209 0.408 0.10662 0.0
H837 H 0.01263 0.44539 0.02279 0.0
H838 H 0.97399 0.46074 0.11748 0.0
H839 H 0.01546 0.49833 0.03395 0.0
H840 H 0.9753 0.57038 0.05176 0.0
H841 H 0.97675 0.5193 0.04104 0.0
H842 H 0.01304 0.52018 0.12622 0.0
H843 H 1.01062 0.57057 0.1372 0.0
C844 C 0.98164 0.42754 0.0906 0.0
C845 C 0.99231 0.42243 0.06388 0.0
C846 C 0.98299 0.45789 0.0969 0.0
C847 C 0.99484 0.4838 0.07656 0.0
C848 C 1.00589 0.47882 0.05 0.0
C849 C 1.00468 0.44858 0.04375 0.0
C850 C 0.98361 0.55968 0.06818 0.0
C851 C 0.99293 0.57469 0.0953 0.0
C852 C 0.98472 0.53054 0.06197 0.0
C853 C 0.99497 0.51557 0.0828 0.0
C854 C 1.0047 0.53083 0.10978 0.0
C855 C 1.00374 0.56002 0.11594 0.0
H856 H 0.41715 0.9717 0.21975 0.0
H857 H 0.45093 1.00121 0.30656 0.0
H858 H 0.46894 0.97204 0.20873 0.0
H859 H 0.50319 1.00299 0.2952 0.0
H860 H 0.57508 0.96444 0.27349 0.0
H861 H 0.52401 0.96546 0.28478 0.0
H862 H 0.52808 0.00931 0.20234 0.0
H863 H 0.57811 1.00693 0.19059 0.0
C864 C 0.43567 0.97845 0.23644 0.0
C865 C 0.42982 0.98653 0.26401 0.0
C866 C 0.46554 0.97898 0.23005 0.0
C867 C 0.49032 0.98756 0.25108 0.0
C868 C 0.48456 0.99591 0.27856 0.0
C869 C 0.45473 0.99537 0.28495 0.0
C870 C 0.56503 0.97422 0.25775 0.0
C871 C 0.58088 0.98572 0.23118 0.0
C872 C 0.5359 0.97511 0.26432 0.0
C873 C 0.52184 0.98745 0.24445 0.0
C874 C 0.53793 0.99929 0.21803 0.0
C875 C 0.56699 0.99839 0.21147 0.0
H876 H 0.29319 0.31314 0.7324 0.0
H877 H 0.3917 0.40081 0.73286 0.0
H878 H 0.30097 0.30258 0.68264 0.0
H879 H 0.39912 0.39084 0.68299 0.0
H880 H 0.4142 0.34314 0.60351 0.0
H881 H 0.40585 0.35018 0.65378 0.0
H882 H 0.30555 0.32915 0.63541 0.0
H883 H 0.31398 0.32233 0.58493 0.0
C884 C 0.31657 0.33 0.72195 0.0
C885 C 0.34184 0.35783 0.73652 0.0
C886 C 0.32087 0.32417 0.69339 0.0
C887 C 0.35062 0.34593 0.67893 0.0
C888 C 0.37604 0.37347 0.69364 0.0
C889 C 0.37167 0.37938 0.7221 0.0
C890 C 0.39047 0.34031 0.61008 0.0
C891 C 0.36485 0.33244 0.59013 0.0
C892 C 0.38567 0.34425 0.63892 0.0
C893 C 0.35511 0.34034 0.64849 0.0
C894 C 0.32925 0.33193 0.62868 0.0
C895 C 0.33409 0.32805 0.59978 0.0
H896 H 0.03422 0.31363 0.75846 0.0
H897 H 0.99706 0.38263 0.75453 0.0
H898 H 0.0223 0.30619 0.80967 0.0
H899 H 0.98391 0.37449 0.80533 0.0
H900 H 1.00406 0.38699 0.89992 0.0
H901 H 0.01428 0.3907 0.84869 0.0
H902 H 0.98014 0.28467 0.84604 0.0
H903 H 0.97096 0.28145 0.89765 0.0
C904 C 0.02276 0.32656 0.76852 0.0
C905 C 0.01669 0.34884 0.75278 0.0
C906 C 0.01594 0.32235 0.7978 0.0
C907 C 1.00259 0.34012 0.81172 0.0
C908 C 0.99506 0.36115 0.79549 0.0
C909 C 1.0023 0.36565 0.76641 0.0
C910 C 0.9988 0.36455 0.88832 0.0
C911 C 0.98668 0.33397 0.90262 0.0
C912 C 1.00443 0.36656 0.85896 0.0
C913 C 0.99759 0.33787 0.84314 0.0
C914 C 0.98595 0.3073 0.85759 0.0
C915 C 0.98069 0.30542 0.88711 0.0
H916 H 0.63524 0.02318 0.92606 0.0
H917 H 0.73355 0.03374 0.92675 0.0
H918 H 0.62803 1.00692 0.97618 0.0
H919 H 0.72596 0.0165 0.97678 0.0
H920 H 0.71326 0.02377 0.07439 0.0
H921 H 0.7216 0.03887 0.02389 0.0
H922 H 0.621 0.95983 0.00574 0.0
H923 H 0.61273 0.94459 0.05601 0.0
C924 C 0.6553 0.02201 0.93693 0.0
C925 C 0.68497 0.02981 0.92247 0.0
C926 C 0.65104 0.01236 0.96554 0.0
C927 C 0.67642 0.01041 0.98039 0.0
C928 C 0.70608 0.01806 0.96594 0.0
C929 C 0.71027 0.02756 0.93722 0.0
C930 C 0.69306 0.00942 0.05959 0.0
C931 C 0.66226 0.98311 0.0693 0.0
C932 C 0.69784 0.01806 0.03067 0.0
C933 C 0.6719 1.00061 0.01091 0.0
C934 C 0.64127 0.9741 0.02056 0.0
C935 C 0.63651 0.96543 0.0494 0.0
H936 H 0.61937 0.62821 0.08923 0.0
H937 H 0.70681 0.72689 0.09169 0.0
H938 H 0.62739 0.62032 0.13946 0.0
H939 H 0.71542 0.71863 0.14179 0.0
H940 H 0.69453 0.70413 0.23905 0.0
H941 H 0.68797 0.71321 0.18868 0.0
H942 H 0.66724 0.61308 0.16917 0.0
H943 H 0.67404 0.60408 0.21928 0.0
C944 C 0.64029 0.64821 0.1005 0.0
C945 C 0.66243 0.67816 0.08649 0.0
C946 C 0.64508 0.64357 0.12919 0.0
C947 C 0.67207 0.66884 0.14453 0.0
C948 C 0.69425 0.69882 0.13056 0.0
C949 C 0.68954 0.70339 0.10179 0.0
C950 C 0.68889 0.68418 0.22398 0.0
C951 C 0.68461 0.6533 0.23327 0.0
C952 C 0.68514 0.68939 0.19514 0.0
C953 C 0.67695 0.66379 0.17502 0.0
C954 C 0.67298 0.63307 0.18426 0.0
C955 C 0.67681 0.6279 0.21302 0.0
H956 H 0.99947 0.61824 0.25791 0.0
H957 H 0.98607 0.70441 0.25863 0.0
H958 H 0.01435 0.62689 0.30829 0.0
H959 H 1.002 0.71374 0.30904 0.0
H960 H 0.99228 0.69118 0.40667 0.0
H961 H 0.97891 0.68587 0.35575 0.0
H962 H 0.06008 0.66726 0.33863 0.0
H963 H 0.07347 0.67266 0.38922 0.0
C964 C 0.99976 0.63907 0.26884 0.0
C965 C 0.99152 0.66058 0.25434 0.0
C966 C 1.00862 0.64424 0.29762 0.0
C967 C 1.00939 0.67102 0.31258 0.0
C968 C 1.00136 0.69273 0.29808 0.0
C969 C 0.99262 0.68762 0.26918 0.0
C970 C 1.00739 0.68622 0.39198 0.0
C971 C 0.03366 0.68193 0.40204 0.0
C972 C 0.99979 0.68326 0.36285 0.0
C973 C 0.01832 0.67593 0.34327 0.0
C974 C 0.04495 0.67228 0.35329 0.0
C975 C 0.05254 0.67526 0.38232 0.0
H976 H 0.39234 0.07828 0.5527 0.0
H977 H 0.30592 0.98504 0.57751 0.0
H978 H 0.37942 0.06315 0.50243 0.0
H979 H 0.2929 0.96969 0.52699 0.0
H980 H 0.32396 0.94131 0.43931 0.0
H981 H 0.32588 0.95661 0.48949 0.0
H982 H 0.33389 0.05043 0.46447 0.0
H983 H 0.33185 0.0349 0.41401 0.0
C984 C 0.3705 0.05461 0.54729 0.0
C985 C 0.35033 0.03256 0.56881 0.0
C986 C 0.36288 0.04615 0.5186 0.0
C987 C 0.33521 0.01528 0.51095 0.0
C988 C 0.31443 0.9936 0.53245 0.0
C989 C 0.32178 1.00235 0.56121 0.0
C990 C 0.32595 0.9651 0.44459 0.0
C991 C 0.32821 0.98719 0.42296 0.0
C992 C 0.32665 0.97367 0.47323 0.0
C993 C 0.33004 1.00467 0.48074 0.0
C994 C 0.33134 0.02641 0.45913 0.0
C995 C 0.3301 0.01756 0.4304 0.0
loop_
_geom_bond_atom_site_label_1
_geom_bond_atom_site_label_2
_geom_bond_distance
_geom_bond_site_symmetry_2
_ccdc_geom_bond_type
Co0 N4 2.148 . S
Co0 N10 2.128 . S
Co0 N20 2.194 . S
Co0 O25 2.351 . S
Co0 O26 2.155 . S
Co0 O27 2.096 . S
C1 N4 1.301 . S
C1 N5 1.328 . S
C1 H6 0.930 . S
C2 C3 1.333 . S
C2 N4 1.317 . S
C2 H7 0.930 . S
C3 C2 1.333 . S
C3 N5 1.350 . S
C3 H29 0.931 . S
N4 Co0 2.148 . S
N4 C1 1.301 . S
N4 C2 1.317 . S
N5 C1 1.328 . S
N5 C3 1.350 . S
H6 C1 0.930 . S
H7 C2 0.930 . S
C8 O9 1.224 . S
C8 O27 1.247 . S
O9 C8 1.224 . S
N10 Co0 2.128 . S
N10 C11 1.355 . S
N10 C13 1.311 . S
C11 N10 1.355 . S
C11 C12 1.363 . S
C11 H23 0.929 . S
C12 C11 1.363 . S
C12 N14 1.375 . S
C12 H30 0.931 . S
C13 N10 1.311 . S
C13 N14 1.347 . S
C13 H24 0.929 . S
N14 C12 1.375 . S
N14 C13 1.347 . S
C15 C18 1.365 . S
C15 N20 1.328 . S
C15 H21 0.929 . S
C16 C17 1.362 . S
C16 C19 1.378 . S
C16 H31 0.929 . S
C17 C16 1.362 . S
C17 C18 1.366 . S
C18 C15 1.365 . S
C18 C17 1.366 . S
C18 H32 0.930 . S
C19 C16 1.378 . S
C19 N20 1.315 . S
C19 H22 0.930 . S
N20 Co0 2.194 . S
N20 C15 1.328 . S
N20 C19 1.315 . S
H21 C15 0.929 . S
H22 C19 0.930 . S
H23 C11 0.929 . S
H24 C13 0.929 . S
O25 Co0 2.351 . S
O25 C28 1.244 . S
O26 Co0 2.155 . S
O26 C28 1.240 . S
O27 Co0 2.096 . S
O27 C8 1.247 . S
C28 O25 1.244 . S
C28 O26 1.240 . S
H29 C3 0.931 . S
H30 C12 0.931 . S
H31 C16 0.929 . S
H32 C18 0.930 . S
Co33 N37 2.148 . S
Co33 N43 2.128 . S
Co33 N53 2.194 . S
Co33 O58 2.351 . S
Co33 O59 2.155 . S
Co33 O60 2.096 . S
C34 N37 1.301 . S
C34 N38 1.328 . S
C34 H39 0.930 . S
C35 C36 1.333 . S
C35 N37 1.317 . S
C35 H40 0.930 . S
C36 C35 1.333 . S
C36 N38 1.350 . S
C36 H62 0.931 . S
N37 Co33 2.148 . S
N37 C34 1.301 . S
N37 C35 1.317 . S
N38 C34 1.328 . S
N38 C36 1.350 . S
H39 C34 0.930 . S
H40 C35 0.930 . S
C41 O42 1.224 . S
C41 O60 1.247 1_655 S
O42 C41 1.224 . S
N43 Co33 2.128 . S
N43 C44 1.355 . S
N43 C46 1.311 . S
C44 N43 1.355 . S
C44 C45 1.363 . S
C44 H56 0.929 . S
C45 C44 1.363 . S
C45 N47 1.375 . S
C45 H63 0.931 . S
C46 N43 1.311 . S
C46 N47 1.347 . S
C46 H57 0.929 . S
N47 C45 1.375 . S
N47 C46 1.347 . S
C48 C51 1.365 . S
C48 N53 1.328 . S
C48 H54 0.929 . S
C49 C50 1.362 . S
C49 C52 1.378 . S
C49 H64 0.929 . S
C50 C49 1.362 . S
C50 C51 1.366 . S
C51 C48 1.365 . S
C51 C50 1.366 . S
C51 H65 0.930 . S
C52 C49 1.378 . S
C52 N53 1.315 . S
C52 H55 0.930 . S
N53 Co33 2.194 . S
N53 C48 1.328 . S
N53 C52 1.315 . S
H54 C48 0.929 . S
H55 C52 0.930 . S
H56 C44 0.929 . S
H57 C46 0.929 . S
O58 Co33 2.351 . S
O58 C61 1.244 . S
O59 Co33 2.155 . S
O59 C61 1.240 . S
O60 Co33 2.096 . S
O60 C41 1.247 1_455 S
C61 O58 1.244 . S
C61 O59 1.240 . S
H62 C36 0.931 . S
H63 C45 0.931 . S
H64 C49 0.929 . S
H65 C51 0.930 . S
Co66 N70 2.148 . S
Co66 N76 2.128 . S
Co66 N86 2.194 . S
Co66 O91 2.351 . S
Co66 O92 2.155 . S
Co66 O93 2.096 . S
C67 N70 1.301 . S
C67 N71 1.328 . S
C67 H72 0.930 . S
C68 C69 1.333 . S
C68 N70 1.317 . S
C68 H73 0.930 . S
C69 C68 1.333 . S
C69 N71 1.350 . S
C69 H95 0.931 . S
N70 Co66 2.148 . S
N70 C67 1.301 . S
N70 C68 1.317 . S
N71 C67 1.328 . S
N71 C69 1.350 . S
H72 C67 0.930 . S
H73 C68 0.930 . S
C74 O75 1.224 . S
C74 O93 1.247 1_565 S
O75 C74 1.224 . S
N76 Co66 2.128 . S
N76 C77 1.355 . S
N76 C79 1.311 . S
C77 N76 1.355 . S
C77 C78 1.363 . S
C77 H89 0.929 . S
C78 C77 1.363 . S
C78 N80 1.375 . S
C78 H96 0.931 . S
C79 N76 1.311 . S
C79 N80 1.347 . S
C79 H90 0.929 . S
N80 C78 1.375 . S
N80 C79 1.347 . S
C81 C84 1.365 . S
C81 N86 1.328 . S
C81 H87 0.929 . S
C82 C83 1.362 . S
C82 C85 1.378 . S
C82 H97 0.929 . S
C83 C82 1.362 . S
C83 C84 1.366 . S
C84 C81 1.365 . S
C84 C83 1.366 . S
C84 H98 0.930 . S
C85 C82 1.378 . S
C85 N86 1.315 . S
C85 H88 0.930 . S
N86 Co66 2.194 . S
N86 C81 1.328 . S
N86 C85 1.315 . S
H87 C81 0.929 . S
H88 C85 0.930 . S
H89 C77 0.929 . S
H90 C79 0.929 . S
O91 Co66 2.351 . S
O91 C94 1.244 . S
O92 Co66 2.155 . S
O92 C94 1.240 . S
O93 Co66 2.096 . S
O93 C74 1.247 1_545 S
C94 O91 1.244 . S
C94 O92 1.240 . S
H95 C69 0.931 . S
H96 C78 0.931 . S
H97 C82 0.929 . S
H98 C84 0.930 . S
Co99 N103 2.148 . S
Co99 N109 2.128 1_556 S
Co99 N119 2.194 . S
Co99 O124 2.351 1_556 S
Co99 O125 2.155 1_556 S
Co99 O126 2.096 1_556 S
C100 N103 1.301 . S
C100 N104 1.328 . S
C100 H105 0.930 . S
C101 C102 1.333 . S
C101 N103 1.317 . S
C101 H106 0.930 . S
C102 C101 1.333 . S
C102 N104 1.350 . S
C102 H128 0.931 . S
N103 Co99 2.148 . S
N103 C100 1.301 . S
N103 C101 1.317 . S
N104 C100 1.328 . S
N104 C102 1.350 . S
H105 C100 0.930 . S
H106 C101 0.930 . S
C107 O108 1.224 . S
C107 O126 1.247 1_556 S
O108 C107 1.224 . S
N109 Co99 2.128 1_554 S
N109 C110 1.355 . S
N109 C112 1.311 . S
C110 N109 1.355 . S
C110 C111 1.363 . S
C110 H122 0.929 . S
C111 C110 1.363 . S
C111 N113 1.375 . S
C111 H129 0.931 . S
C112 N109 1.311 . S
C112 N113 1.347 . S
C112 H123 0.929 . S
N113 C111 1.375 . S
N113 C112 1.347 . S
C114 C117 1.365 . S
C114 N119 1.328 . S
C114 H120 0.929 . S
C115 C116 1.362 . S
C115 C118 1.378 . S
C115 H130 0.929 . S
C116 C115 1.362 . S
C116 C117 1.366 . S
C117 C114 1.365 . S
C117 C116 1.366 . S
C117 H131 0.930 . S
C118 C115 1.378 . S
C118 N119 1.315 . S
C118 H121 0.930 . S
N119 Co99 2.194 . S
N119 C114 1.328 . S
N119 C118 1.315 . S
H120 C114 0.929 . S
H121 C118 0.930 . S
H122 C110 0.929 . S
H123 C112 0.929 . S
O124 Co99 2.351 1_554 S
O124 C127 1.244 . S
O125 Co99 2.155 1_554 S
O125 C127 1.240 . S
O126 Co99 2.096 1_554 S
O126 C107 1.247 1_554 S
C127 O124 1.244 . S
C127 O125 1.240 . S
H128 C102 0.931 . S
H129 C111 0.931 . S
H130 C115 0.929 . S
H131 C117 0.930 . S
Co132 N136 2.148 . S
Co132 N142 2.128 . S
Co132 N152 2.194 . S
Co132 O157 2.351 . S
Co132 O158 2.155 . S
Co132 O159 2.096 . S
C133 N136 1.301 . S
C133 N137 1.328 . S
C133 H138 0.930 . S
C134 C135 1.333 . S
C134 N136 1.317 . S
C134 H139 0.930 . S
C135 C134 1.333 . S
C135 N137 1.350 . S
C135 H161 0.931 . S
N136 Co132 2.148 . S
N136 C133 1.301 . S
N136 C134 1.317 . S
N137 C133 1.328 . S
N137 C135 1.350 . S
H138 C133 0.930 . S
H139 C134 0.930 . S
C140 O141 1.224 . S
C140 O159 1.247 1_455 S
O141 C140 1.224 . S
N142 Co132 2.128 . S
N142 C143 1.355 . S
N142 C145 1.311 . S
C143 N142 1.355 . S
C143 C144 1.363 . S
C143 H155 0.929 . S
C144 C143 1.363 . S
C144 N146 1.375 . S
C144 H162 0.931 . S
C145 N142 1.311 . S
C145 N146 1.347 . S
C145 H156 0.929 . S
N146 C144 1.375 . S
N146 C145 1.347 . S
C147 C150 1.365 . S
C147 N152 1.328 . S
C147 H153 0.929 . S
C148 C149 1.362 . S
C148 C151 1.378 . S
C148 H163 0.929 . S
C149 C148 1.362 . S
C149 C150 1.366 . S
C150 C147 1.365 . S
C150 C149 1.366 . S
C150 H164 0.930 . S
C151 C148 1.378 . S
C151 N152 1.315 . S
C151 H154 0.930 . S
N152 Co132 2.194 . S
N152 C147 1.328 . S
N152 C151 1.315 . S
H153 C147 0.929 . S
H154 C151 0.930 . S
H155 C143 0.929 . S
H156 C145 0.929 . S
O157 Co132 2.351 . S
O157 C160 1.244 . S
O158 Co132 2.155 . S
O158 C160 1.240 . S
O159 Co132 2.096 . S
O159 C140 1.247 1_655 S
C160 O157 1.244 . S
C160 O158 1.240 . S
H161 C135 0.931 . S
H162 C144 0.931 . S
H163 C148 0.929 . S
H164 C150 0.930 . S
Co165 N169 2.148 . S
Co165 N175 2.128 . S
Co165 N185 2.194 . S
Co165 O190 2.351 . S
Co165 O191 2.155 . S
Co165 O192 2.096 . S
C166 N169 1.301 . S
C166 N170 1.328 . S
C166 H171 0.930 . S
C167 C168 1.333 . S
C167 N169 1.317 . S
C167 H172 0.930 . S
C168 C167 1.333 . S
C168 N170 1.350 . S
C168 H194 0.931 . S
N169 Co165 2.148 . S
N169 C166 1.301 . S
N169 C167 1.317 . S
N170 C166 1.328 . S
N170 C168 1.350 . S
H171 C166 0.930 . S
H172 C167 0.930 . S
C173 O174 1.224 . S
C173 O192 1.247 1_545 S
O174 C173 1.224 . S
N175 Co165 2.128 . S
N175 C176 1.355 . S
N175 C178 1.311 . S
C176 N175 1.355 . S
C176 C177 1.363 . S
C176 H188 0.929 . S
C177 C176 1.363 . S
C177 N179 1.375 . S
C177 H195 0.931 . S
C178 N175 1.311 . S
C178 N179 1.347 . S
C178 H189 0.929 . S
N179 C177 1.375 . S
N179 C178 1.347 . S
C180 C183 1.365 . S
C180 N185 1.328 . S
C180 H186 0.929 . S
C181 C182 1.362 . S
C181 C184 1.378 . S
C181 H196 0.929 . S
C182 C181 1.362 . S
C182 C183 1.366 . S
C183 C180 1.365 . S
C183 C182 1.366 . S
C183 H197 0.930 . S
C184 C181 1.378 . S
C184 N185 1.315 . S
C184 H187 0.930 . S
N185 Co165 2.194 . S
N185 C180 1.328 . S
N185 C184 1.315 . S
H186 C180 0.929 . S
H187 C184 0.930 . S
H188 C176 0.929 . S
H189 C178 0.929 . S
O190 Co165 2.351 . S
O190 C193 1.244 . S
O191 Co165 2.155 . S
O191 C193 1.240 . S
O192 Co165 2.096 . S
O192 C173 1.247 1_565 S
C193 O190 1.244 . S
C193 O191 1.240 . S
H194 C168 0.931 . S
H195 C177 0.931 . S
H196 C181 0.929 . S
H197 C183 0.930 . S
Co198 N202 2.148 . S
Co198 N208 2.128 . S
Co198 N218 2.194 . S
Co198 O223 2.351 . S
Co198 O224 2.155 . S
Co198 O225 2.096 . S
C199 N202 1.301 . S
C199 N203 1.328 . S
C199 H204 0.930 . S
C200 C201 1.333 . S
C200 N202 1.317 . S
C200 H205 0.930 . S
C201 C200 1.333 . S
C201 N203 1.350 . S
C201 H227 0.931 . S
N202 Co198 2.148 . S
N202 C199 1.301 . S
N202 C200 1.317 . S
N203 C199 1.328 . S
N203 C201 1.350 . S
H204 C199 0.930 . S
H205 C200 0.930 . S
C206 O207 1.224 . S
C206 O225 1.247 . S
O207 C206 1.224 . S
N208 Co198 2.128 . S
N208 C209 1.355 . S
N208 C211 1.311 . S
C209 N208 1.355 . S
C209 C210 1.363 . S
C209 H221 0.929 . S
C210 C209 1.363 . S
C210 N212 1.375 . S
C210 H228 0.931 . S
C211 N208 1.311 . S
C211 N212 1.347 . S
C211 H222 0.929 . S
N212 C210 1.375 . S
N212 C211 1.347 . S
C213 C216 1.365 . S
C213 N218 1.328 . S
C213 H219 0.929 . S
C214 C215 1.362 . S
C214 C217 1.378 . S
C214 H229 0.929 . S
C215 C214 1.362 . S
C215 C216 1.366 . S
C216 C213 1.365 . S
C216 C215 1.366 . S
C216 H230 0.930 . S
C217 C214 1.378 . S
C217 N218 1.315 . S
C217 H220 0.930 . S
N218 Co198 2.194 . S
N218 C213 1.328 . S
N218 C217 1.315 . S
H219 C213 0.929 . S
H220 C217 0.930 . S
H221 C209 0.929 . S
H222 C211 0.929 . S
O223 Co198 2.351 . S
O223 C226 1.244 . S
O224 Co198 2.155 . S
O224 C226 1.240 . S
O225 Co198 2.096 . S
O225 C206 1.247 . S
C226 O223 1.244 . S
C226 O224 1.240 . S
H227 C201 0.931 . S
H228 C210 0.931 . S
H229 C214 0.929 . S
H230 C216 0.930 . S
Co231 N235 2.148 . S
Co231 N241 2.128 . S
Co231 N251 2.194 . S
Co231 O256 2.351 . S
Co231 O257 2.155 . S
Co231 O258 2.096 . S
C232 N235 1.301 . S
C232 N236 1.328 . S
C232 H237 0.930 . S
C233 C234 1.333 . S
C233 N235 1.317 . S
C233 H238 0.930 . S
C234 C233 1.333 . S
C234 N236 1.350 . S
C234 H260 0.931 . S
N235 Co231 2.148 . S
N235 C232 1.301 . S
N235 C233 1.317 . S
N236 C232 1.328 . S
N236 C234 1.350 . S
H237 C232 0.930 . S
H238 C233 0.930 . S
C239 O240 1.224 . S
C239 O258 1.247 1_655 S
O240 C239 1.224 . S
N241 Co231 2.128 . S
N241 C242 1.355 . S
N241 C244 1.311 . S
C242 N241 1.355 . S
C242 C243 1.363 . S
C242 H254 0.929 . S
C243 C242 1.363 . S
C243 N245 1.375 . S
C243 H261 0.931 . S
C244 N241 1.311 . S
C244 N245 1.347 . S
C244 H255 0.929 . S
N245 C243 1.375 . S
N245 C244 1.347 . S
C246 C249 1.365 . S
C246 N251 1.328 . S
C246 H252 0.929 . S
C247 C248 1.362 . S
C247 C250 1.378 . S
C247 H262 0.929 . S
C248 C247 1.362 . S
C248 C249 1.366 . S
C249 C246 1.365 . S
C249 C248 1.366 . S
C249 H263 0.930 . S
C250 C247 1.378 . S
C250 N251 1.315 . S
C250 H253 0.930 . S
N251 Co231 2.194 . S
N251 C246 1.328 . S
N251 C250 1.315 . S
H252 C246 0.929 . S
H253 C250 0.930 . S
H254 C242 0.929 . S
H255 C244 0.929 . S
O256 Co231 2.351 . S
O256 C259 1.244 . S
O257 Co231 2.155 . S
O257 C259 1.240 . S
O258 Co231 2.096 . S
O258 C239 1.247 1_455 S
C259 O256 1.244 . S
C259 O257 1.240 . S
H260 C234 0.931 . S
H261 C243 0.931 . S
H262 C247 0.929 . S
H263 C249 0.930 . S
Co264 N268 2.148 . S
Co264 N274 2.128 . S
Co264 N284 2.194 . S
Co264 O289 2.351 . S
Co264 O290 2.155 . S
Co264 O291 2.096 . S
C265 N268 1.301 . S
C265 N269 1.328 . S
C265 H270 0.930 . S
C266 C267 1.333 . S
C266 N268 1.317 . S
C266 H271 0.930 . S
C267 C266 1.333 . S
C267 N269 1.350 . S
C267 H293 0.931 . S
N268 Co264 2.148 . S
N268 C265 1.301 . S
N268 C266 1.317 . S
N269 C265 1.328 . S
N269 C267 1.350 . S
H270 C265 0.930 . S
H271 C266 0.930 . S
C272 O273 1.224 . S
C272 O291 1.247 1_565 S
O273 C272 1.224 . S
N274 Co264 2.128 . S
N274 C275 1.355 . S
N274 C277 1.311 . S
C275 N274 1.355 . S
C275 C276 1.363 . S
C275 H287 0.929 . S
C276 C275 1.363 . S
C276 N278 1.375 . S
C276 H294 0.931 . S
C277 N274 1.311 . S
C277 N278 1.347 . S
C277 H288 0.929 . S
N278 C276 1.375 . S
N278 C277 1.347 . S
C279 C282 1.365 . S
C279 N284 1.328 . S
C279 H285 0.929 . S
C280 C281 1.362 . S
C280 C283 1.378 . S
C280 H295 0.929 . S
C281 C280 1.362 . S
C281 C282 1.366 . S
C282 C279 1.365 . S
C282 C281 1.366 . S
C282 H296 0.930 . S
C283 C280 1.378 . S
C283 N284 1.315 . S
C283 H286 0.930 . S
N284 Co264 2.194 . S
N284 C279 1.328 . S
N284 C283 1.315 . S
H285 C279 0.929 . S
H286 C283 0.930 . S
H287 C275 0.929 . S
H288 C277 0.929 . S
O289 Co264 2.351 . S
O289 C292 1.244 . S
O290 Co264 2.155 . S
O290 C292 1.240 . S
O291 Co264 2.096 . S
O291 C272 1.247 1_545 S
C292 O289 1.244 . S
C292 O290 1.240 . S
H293 C267 0.931 . S
H294 C276 0.931 . S
H295 C280 0.929 . S
H296 C282 0.930 . S
Co297 N301 2.148 . S
Co297 N307 2.128 . S
Co297 N317 2.194 . S
Co297 O322 2.351 . S
Co297 O323 2.155 . S
Co297 O324 2.096 . S
C298 N301 1.301 . S
C298 N302 1.328 . S
C298 H303 0.930 . S
C299 C300 1.333 . S
C299 N301 1.317 . S
C299 H304 0.930 . S
C300 C299 1.333 . S
C300 N302 1.350 . S
C300 H326 0.931 . S
N301 Co297 2.148 . S
N301 C298 1.301 . S
N301 C299 1.317 . S
N302 C298 1.328 . S
N302 C300 1.350 . S
H303 C298 0.930 . S
H304 C299 0.930 . S
C305 O306 1.224 . S
C305 O324 1.247 . S
O306 C305 1.224 . S
N307 Co297 2.128 . S
N307 C308 1.355 . S
N307 C310 1.311 . S
C308 N307 1.355 . S
C308 C309 1.363 . S
C308 H320 0.929 . S
C309 C308 1.363 . S
C309 N311 1.375 . S
C309 H327 0.931 . S
C310 N307 1.311 . S
C310 N311 1.347 . S
C310 H321 0.929 . S
N311 C309 1.375 . S
N311 C310 1.347 . S
C312 C315 1.365 . S
C312 N317 1.328 . S
C312 H318 0.929 . S
C313 C314 1.362 . S
C313 C316 1.378 . S
C313 H328 0.929 . S
C314 C313 1.362 . S
C314 C315 1.366 . S
C315 C312 1.365 . S
C315 C314 1.366 . S
C315 H329 0.930 . S
C316 C313 1.378 . S
C316 N317 1.315 . S
C316 H319 0.930 . S
N317 Co297 2.194 . S
N317 C312 1.328 . S
N317 C316 1.315 . S
H318 C312 0.929 . S
H319 C316 0.930 . S
H320 C308 0.929 . S
H321 C310 0.929 . S
O322 Co297 2.351 . S
O322 C325 1.244 . S
O323 Co297 2.155 . S
O323 C325 1.240 . S
O324 Co297 2.096 . S
O324 C305 1.247 . S
C325 O322 1.244 . S
C325 O323 1.240 . S
H326 C300 0.931 . S
H327 C309 0.931 . S
H328 C313 0.929 . S
H329 C315 0.930 . S
Co330 N334 2.148 1_556 S
Co330 N340 2.128 . S
Co330 N350 2.194 1_556 S
Co330 O355 2.351 . S
Co330 O356 2.155 . S
Co330 O357 2.096 . S
C331 N334 1.301 . S
C331 N335 1.328 . S
C331 H336 0.930 . S
C332 C333 1.333 . S
C332 N334 1.317 . S
C332 H337 0.930 . S
C333 C332 1.333 . S
C333 N335 1.350 . S
C333 H359 0.931 . S
N334 Co330 2.148 1_554 S
N334 C331 1.301 . S
N334 C332 1.317 . S
N335 C331 1.328 . S
N335 C333 1.350 . S
H336 C331 0.930 . S
H337 C332 0.930 . S
C338 O339 1.224 1_556 S
C338 O357 1.247 1_455 S
O339 C338 1.224 1_554 S
N340 Co330 2.128 . S
N340 C341 1.355 . S
N340 C343 1.311 . S
C341 N340 1.355 . S
C341 C342 1.363 . S
C341 H353 0.929 . S
C342 C341 1.363 . S
C342 N344 1.375 . S
C342 H360 0.931 . S
C343 N340 1.311 . S
C343 N344 1.347 . S
C343 H354 0.929 . S
N344 C342 1.375 . S
N344 C343 1.347 . S
C345 C348 1.365 . S
C345 N350 1.328 . S
C345 H351 0.929 . S
C346 C347 1.362 . S
C346 C349 1.378 . S
C346 H361 0.929 . S
C347 C346 1.362 . S
C347 C348 1.366 . S
C348 C345 1.365 . S
C348 C347 1.366 . S
C348 H362 0.930 . S
C349 C346 1.378 . S
C349 N350 1.315 . S
C349 H352 0.930 . S
N350 Co330 2.194 1_554 S
N350 C345 1.328 . S
N350 C349 1.315 . S
H351 C345 0.929 . S
H352 C349 0.930 . S
H353 C341 0.929 . S
H354 C343 0.929 . S
O355 Co330 2.351 . S
O355 C358 1.244 . S
O356 Co330 2.155 . S
O356 C358 1.240 . S
O357 Co330 2.096 . S
O357 C338 1.247 1_655 S
C358 O355 1.244 . S
C358 O356 1.240 . S
H359 C333 0.931 . S
H360 C342 0.931 . S
H361 C346 0.929 . S
H362 C348 0.930 . S
Co363 N367 2.148 . S
Co363 N373 2.128 . S
Co363 N383 2.194 . S
Co363 O388 2.351 . S
Co363 O389 2.155 . S
Co363 O390 2.096 . S
C364 N367 1.301 . S
C364 N368 1.328 . S
C364 H369 0.930 . S
C365 C366 1.333 . S
C365 N367 1.317 . S
C365 H370 0.930 . S
C366 C365 1.333 . S
C366 N368 1.350 . S
C366 H392 0.931 . S
N367 Co363 2.148 . S
N367 C364 1.301 . S
N367 C365 1.317 . S
N368 C364 1.328 . S
N368 C366 1.350 . S
H369 C364 0.930 . S
H370 C365 0.930 . S
C371 O372 1.224 . S
C371 O390 1.247 1_545 S
O372 C371 1.224 . S
N373 Co363 2.128 . S
N373 C374 1.355 . S
N373 C376 1.311 . S
C374 N373 1.355 . S
C374 C375 1.363 . S
C374 H386 0.929 . S
C375 C374 1.363 . S
C375 N377 1.375 . S
C375 H393 0.931 . S
C376 N373 1.311 . S
C376 N377 1.347 . S
C376 H387 0.929 . S
N377 C375 1.375 . S
N377 C376 1.347 . S
C378 C381 1.365 . S
C378 N383 1.328 . S
C378 H384 0.929 . S
C379 C380 1.362 . S
C379 C382 1.378 . S
C379 H394 0.929 . S
C380 C379 1.362 . S
C380 C381 1.366 . S
C381 C378 1.365 . S
C381 C380 1.366 . S
C381 H395 0.930 . S
C382 C379 1.378 . S
C382 N383 1.315 . S
C382 H385 0.930 . S
N383 Co363 2.194 . S
N383 C378 1.328 . S
N383 C382 1.315 . S
H384 C378 0.929 . S
H385 C382 0.930 . S
H386 C374 0.929 . S
H387 C376 0.929 . S
O388 Co363 2.351 . S
O388 C391 1.244 . S
O389 Co363 2.155 . S
O389 C391 1.240 . S
O390 Co363 2.096 . S
O390 C371 1.247 1_565 S
C391 O388 1.244 . S
C391 O389 1.240 . S
H392 C366 0.931 . S
H393 C375 0.931 . S
H394 C379 0.929 . S
H395 C381 0.930 . S
H396 C404 0.950 . S
H397 C409 0.950 . S
H398 C406 0.950 . S
H399 C408 0.950 . S
H400 C410 0.950 . S
H401 C412 0.950 . S
H402 C414 0.950 . S
H403 C415 0.950 . S
C404 H396 0.950 . S
C404 C405 1.386 . S
C404 C406 1.391 . S
C405 C404 1.386 . S
C405 C409 1.393 . S
C406 H398 0.950 . S
C406 C404 1.391 . S
C406 C407 1.400 . S
C407 C406 1.400 . S
C407 C408 1.398 . S
C407 C413 1.491 . S
C408 H399 0.950 . S
C408 C407 1.398 . S
C408 C409 1.391 . S
C409 H397 0.950 . S
C409 C405 1.393 . S
C409 C408 1.391 . S
C410 H400 0.950 . S
C410 C411 1.386 . S
C410 C412 1.391 . S
C411 C410 1.386 . S
C411 C415 1.393 . S
C412 H401 0.950 . S
C412 C410 1.391 . S
C412 C413 1.400 . S
C413 C407 1.491 . S
C413 C412 1.400 . S
C413 C414 1.398 . S
C414 H402 0.950 . S
C414 C413 1.398 . S
C414 C415 1.391 . S
C415 H403 0.950 . S
C415 C411 1.393 . S
C415 C414 1.391 . S
H416 C424 0.950 . S
H417 C429 0.950 . S
H418 C426 0.950 . S
H419 C428 0.950 . S
H420 C430 0.950 . S
H421 C432 0.950 . S
H422 C434 0.950 . S
H423 C435 0.950 . S
C424 H416 0.950 . S
C424 C425 1.386 . S
C424 C426 1.391 . S
C425 C424 1.386 . S
C425 C429 1.393 . S
C426 H418 0.950 . S
C426 C424 1.391 . S
C426 C427 1.400 . S
C427 C426 1.400 . S
C427 C428 1.398 . S
C427 C433 1.491 . S
C428 H419 0.950 . S
C428 C427 1.398 . S
C428 C429 1.391 . S
C429 H417 0.950 . S
C429 C425 1.393 . S
C429 C428 1.391 . S
C430 H420 0.950 . S
C430 C431 1.386 . S
C430 C432 1.391 . S
C431 C430 1.386 . S
C431 C435 1.393 . S
C432 H421 0.950 . S
C432 C430 1.391 . S
C432 C433 1.400 . S
C433 C427 1.491 . S
C433 C432 1.400 . S
C433 C434 1.398 . S
C434 H422 0.950 . S
C434 C433 1.398 . S
C434 C435 1.391 . S
C435 H423 0.950 . S
C435 C431 1.393 . S
C435 C434 1.391 . S
H436 C444 0.950 . S
H437 C449 0.950 . S
H438 C446 0.950 . S
H439 C448 0.950 . S
H440 C450 0.950 . S
H441 C452 0.950 . S
H442 C454 0.950 . S
H443 C455 0.950 . S
C444 H436 0.950 . S
C444 C445 1.386 . S
C444 C446 1.391 . S
C445 C444 1.386 . S
C445 C449 1.393 . S
C446 H438 0.950 . S
C446 C444 1.391 . S
C446 C447 1.400 . S
C447 C446 1.400 . S
C447 C448 1.398 . S
C447 C453 1.491 . S
C448 H439 0.950 . S
C448 C447 1.398 . S
C448 C449 1.391 . S
C449 H437 0.950 . S
C449 C445 1.393 . S
C449 C448 1.391 . S
C450 H440 0.950 . S
C450 C451 1.386 . S
C450 C452 1.391 . S
C451 C450 1.386 . S
C451 C455 1.393 . S
C452 H441 0.950 . S
C452 C450 1.391 . S
C452 C453 1.400 . S
C453 C447 1.491 . S
C453 C452 1.400 . S
C453 C454 1.398 . S
C454 H442 0.950 . S
C454 C453 1.398 . S
C454 C455 1.391 . S
C455 H443 0.950 . S
C455 C451 1.393 . S
C455 C454 1.391 . S
H456 C464 0.950 . S
H457 C469 0.980 . S
H458 C466 0.950 . S
H459 C468 0.950 . S
H460 C470 0.950 . S
H461 C472 0.950 . S
H462 C474 0.950 . S
H463 C475 0.950 . S
C464 H456 0.950 . S
C464 C465 1.386 . S
C464 C466 1.391 . S
C465 C464 1.386 . S
C465 C469 1.393 . S
C466 H458 0.950 . S
C466 C464 1.391 . S
C466 C467 1.400 . S
C467 C466 1.400 . S
C467 C468 1.398 . S
C467 C473 1.491 . S
C468 H459 0.950 . S
C468 C467 1.398 . S
C468 C469 1.391 . S
C469 H457 0.980 . S
C469 C465 1.393 . S
C469 C468 1.391 . S
C470 H460 0.950 . S
C470 C471 1.386 . S
C470 C472 1.391 . S
C471 C470 1.386 . S
C471 C475 1.393 . S
C472 H461 0.950 . S
C472 C470 1.391 . S
C472 C473 1.400 . S
C473 C467 1.491 . S
C473 C472 1.400 . S
C473 C474 1.398 . S
C474 H462 0.950 . S
C474 C473 1.398 . S
C474 C475 1.391 . S
C475 H463 0.950 . S
C475 C471 1.393 . S
C475 C474 1.391 . S
H476 C484 0.950 . S
H477 C489 0.950 . S
H478 C486 0.950 . S
H479 C488 0.950 . S
H480 C490 0.950 . S
H481 C492 0.950 . S
H482 C494 0.950 . S
H483 C495 0.950 . S
C484 H476 0.950 . S
C484 C485 1.386 . S
C484 C486 1.391 . S
C485 C484 1.386 . S
C485 C489 1.393 . S
C486 H478 0.950 . S
C486 C484 1.391 . S
C486 C487 1.400 . S
C487 C486 1.400 . S
C487 C488 1.398 . S
C487 C493 1.491 . S
C488 H479 0.950 . S
C488 C487 1.398 . S
C488 C489 1.391 . S
C489 H477 0.950 . S
C489 C485 1.393 . S
C489 C488 1.391 . S
C490 H480 0.950 . S
C490 C491 1.386 . S
C490 C492 1.391 . S
C491 C490 1.386 . S
C491 C495 1.393 . S
C492 H481 0.950 . S
C492 C490 1.391 . S
C492 C493 1.400 . S
C493 C487 1.491 . S
C493 C492 1.400 . S
C493 C494 1.398 . S
C494 H482 0.950 . S
C494 C493 1.398 . S
C494 C495 1.391 . S
C495 H483 0.950 . S
C495 C491 1.393 . S
C495 C494 1.391 . S
H496 C504 0.950 . S
H497 C509 0.950 . S
H498 C506 0.950 . S
H499 C508 0.950 . S
H500 C510 0.950 . S
H501 C512 0.950 . S
H502 C514 0.950 . S
H503 C515 0.950 . S
C504 H496 0.950 . S
C504 C505 1.386 . S
C504 C506 1.391 . S
C505 C504 1.386 . S
C505 C509 1.393 . S
C506 H498 0.950 . S
C506 C504 1.391 . S
C506 C507 1.400 . S
C507 C506 1.400 . S
C507 C508 1.398 . S
C507 C513 1.491 . S
C508 H499 0.950 . S
C508 C507 1.398 . S
C508 C509 1.391 . S
C509 H497 0.950 . S
C509 C505 1.393 . S
C509 C508 1.391 . S
C510 H500 0.950 . S
C510 C511 1.386 . S
C510 C512 1.391 . S
C511 C510 1.386 . S
C511 C515 1.393 . S
C512 H501 0.950 . S
C512 C510 1.391 . S
C512 C513 1.400 . S
C513 C507 1.491 . S
C513 C512 1.400 . S
C513 C514 1.398 . S
C514 H502 0.950 . S
C514 C513 1.398 . S
C514 C515 1.391 . S
C515 H503 0.950 . S
C515 C511 1.393 . S
C515 C514 1.391 . S
H516 C524 0.950 . S
H517 C529 0.950 . S
H518 C526 0.950 . S
H519 C528 0.950 . S
H520 C530 0.950 . S
H521 C532 0.950 . S
H522 C534 0.950 . S
H523 C535 0.950 . S
C524 H516 0.950 . S
C524 C525 1.386 . S
C524 C526 1.391 . S
C525 C524 1.386 . S
C525 C529 1.393 . S
C526 H518 0.950 . S
C526 C524 1.391 . S
C526 C527 1.400 . S
C527 C526 1.400 . S
C527 C528 1.398 . S
C527 C533 1.491 . S
C528 H519 0.950 . S
C528 C527 1.398 . S
C528 C529 1.391 . S
C529 H517 0.950 . S
C529 C525 1.393 . S
C529 C528 1.391 . S
C530 H520 0.950 . S
C530 C531 1.386 . S
C530 C532 1.391 . S
C531 C530 1.386 . S
C531 C535 1.393 . S
C532 H521 0.950 . S
C532 C530 1.391 . S
C532 C533 1.400 . S
C533 C527 1.491 . S
C533 C532 1.400 . S
C533 C534 1.398 . S
C534 H522 0.950 . S
C534 C533 1.398 . S
C534 C535 1.391 . S
C535 H523 0.950 . S
C535 C531 1.393 . S
C535 C534 1.391 . S
H536 C544 0.950 . S
H537 C549 0.950 . S
H538 C546 0.950 . S
H539 C548 0.950 . S
H540 C550 0.950 . S
H541 C552 0.950 . S
H542 C554 0.950 . S
H543 C555 0.950 . S
C544 H536 0.950 . S
C544 C545 1.386 . S
C544 C546 1.391 . S
C545 C544 1.386 . S
C545 C549 1.393 . S
C546 H538 0.950 . S
C546 C544 1.391 . S
C546 C547 1.400 . S
C547 C546 1.400 . S
C547 C548 1.398 . S
C547 C553 1.491 . S
C548 H539 0.950 . S
C548 C547 1.398 . S
C548 C549 1.391 . S
C549 H537 0.950 . S
C549 C545 1.393 . S
C549 C548 1.391 . S
C550 H540 0.950 . S
C550 C551 1.386 . S
C550 C552 1.391 . S
C551 C550 1.386 . S
C551 C555 1.393 . S
C552 H541 0.950 . S
C552 C550 1.391 . S
C552 C553 1.400 . S
C553 C547 1.491 . S
C553 C552 1.400 . S
C553 C554 1.398 . S
C554 H542 0.950 . S
C554 C553 1.398 . S
C554 C555 1.391 . S
C555 H543 0.950 . S
C555 C551 1.393 . S
C555 C554 1.391 . S
H556 C564 0.950 . S
H557 C569 0.950 . S
H558 C566 0.950 . S
H559 C568 0.950 . S
H560 C570 0.950 . S
H561 C572 0.950 . S
H562 C574 0.950 . S
H563 C575 0.950 . S
C564 H556 0.950 . S
C564 C565 1.386 . S
C564 C566 1.391 . S
C565 C564 1.386 . S
C565 C569 1.393 . S
C566 H558 0.950 . S
C566 C564 1.391 . S
C566 C567 1.400 . S
C567 C566 1.400 . S
C567 C568 1.398 . S
C567 C573 1.491 . S
C568 H559 0.950 . S
C568 C567 1.398 . S
C568 C569 1.391 . S
C569 H557 0.950 . S
C569 C565 1.393 . S
C569 C568 1.391 . S
C570 H560 0.950 . S
C570 C571 1.386 . S
C570 C572 1.391 . S
C571 C570 1.386 . S
C571 C575 1.393 . S
C572 H561 0.950 . S
C572 C570 1.391 . S
C572 C573 1.400 . S
C573 C567 1.491 . S
C573 C572 1.400 . S
C573 C574 1.398 . S
C574 H562 0.950 . S
C574 C573 1.398 . S
C574 C575 1.391 . S
C575 H563 0.950 . S
C575 C571 1.393 . S
C575 C574 1.391 . S
H576 C584 0.950 . S
H577 C589 0.950 . S
H578 C586 0.950 . S
H579 C588 0.950 . S
H580 C590 0.950 . S
H581 C592 0.950 . S
H582 C594 0.950 . S
H583 C595 0.950 . S
C584 H576 0.950 . S
C584 C585 1.386 . S
C584 C586 1.391 . S
C585 C584 1.386 . S
C585 C589 1.393 . S
C586 H578 0.950 . S
C586 C584 1.391 . S
C586 C587 1.400 . S
C587 C586 1.400 . S
C587 C588 1.398 . S
C587 C593 1.491 . S
C588 H579 0.950 . S
C588 C587 1.398 . S
C588 C589 1.391 . S
C589 H577 0.950 . S
C589 C585 1.393 . S
C589 C588 1.391 . S
C590 H580 0.950 . S
C590 C591 1.386 . S
C590 C592 1.391 . S
C591 C590 1.386 . S
C591 C595 1.393 . S
C592 H581 0.950 . S
C592 C590 1.391 . S
C592 C593 1.400 . S
C593 C587 1.491 . S
C593 C592 1.400 . S
C593 C594 1.398 . S
C594 H582 0.950 . S
C594 C593 1.398 . S
C594 C595 1.391 . S
C595 H583 0.950 . S
C595 C591 1.393 . S
C595 C594 1.391 . S
H596 C604 0.950 . S
H597 C609 0.950 . S
H598 C606 0.950 . S
H599 C608 0.950 1_556 S
H600 C610 0.950 . S
H601 C612 0.950 . S
H602 C614 0.950 . S
H603 C615 0.950 . S
C604 H596 0.950 . S
C604 C605 1.386 . S
C604 C606 1.391 . S
C605 C604 1.386 . S
C605 C609 1.393 1_554 S
C606 H598 0.950 . S
C606 C604 1.391 . S
C606 C607 1.400 . S
C607 C606 1.400 . S
C607 C608 1.398 . S
C607 C613 1.491 . S
C608 H599 0.950 1_554 S
C608 C607 1.398 . S
C608 C609 1.391 1_554 S
C609 H597 0.950 . S
C609 C605 1.393 1_556 S
C609 C608 1.391 1_556 S
C610 H600 0.950 . S
C610 C611 1.386 . S
C610 C612 1.391 . S
C611 C610 1.386 . S
C611 C615 1.393 . S
C612 H601 0.950 . S
C612 C610 1.391 . S
C612 C613 1.400 . S
C613 C607 1.491 . S
C613 C612 1.400 . S
C613 C614 1.398 . S
C614 H602 0.950 . S
C614 C613 1.398 . S
C614 C615 1.391 . S
C615 H603 0.950 . S
C615 C611 1.393 . S
C615 C614 1.391 . S
H616 C624 0.950 . S
H617 C629 0.950 . S
H618 C626 0.950 . S
H619 C628 0.950 . S
H620 C630 0.950 . S
H621 C632 0.950 . S
H622 C634 0.950 . S
H623 C635 0.950 . S
C624 H616 0.950 . S
C624 C625 1.386 . S
C624 C626 1.391 . S
C625 C624 1.386 . S
C625 C629 1.393 . S
C626 H618 0.950 . S
C626 C624 1.391 . S
C626 C627 1.400 . S
C627 C626 1.400 . S
C627 C628 1.398 . S
C627 C633 1.491 . S
C628 H619 0.950 . S
C628 C627 1.398 . S
C628 C629 1.391 . S
C629 H617 0.950 . S
C629 C625 1.393 . S
C629 C628 1.391 . S
C630 H620 0.950 . S
C630 C631 1.386 . S
C630 C632 1.391 . S
C631 C630 1.386 . S
C631 C635 1.393 . S
C632 H621 0.950 . S
C632 C630 1.391 . S
C632 C633 1.400 . S
C633 C627 1.491 . S
C633 C632 1.400 . S
C633 C634 1.398 . S
C634 H622 0.950 . S
C634 C633 1.398 . S
C634 C635 1.391 . S
C635 H623 0.950 . S
C635 C631 1.393 . S
C635 C634 1.391 . S
H636 C644 0.950 . S
H637 C649 0.950 . S
H638 C646 0.950 . S
H639 C648 0.950 . S
H640 C650 0.950 . S
H641 C652 0.950 . S
H642 C654 0.950 . S
H643 C655 0.950 . S
C644 H636 0.950 . S
C644 C645 1.386 . S
C644 C646 1.391 . S
C645 C644 1.386 . S
C645 C649 1.393 . S
C646 H638 0.950 . S
C646 C644 1.391 . S
C646 C647 1.400 . S
C647 C646 1.400 . S
C647 C648 1.398 . S
C647 C653 1.491 . S
C648 H639 0.950 . S
C648 C647 1.398 . S
C648 C649 1.391 . S
C649 H637 0.950 . S
C649 C645 1.393 . S
C649 C648 1.391 . S
C650 H640 0.950 . S
C650 C651 1.386 . S
C650 C652 1.391 . S
C651 C650 1.386 . S
C651 C655 1.393 . S
C652 H641 0.950 . S
C652 C650 1.391 . S
C652 C653 1.400 . S
C653 C647 1.491 . S
C653 C652 1.400 . S
C653 C654 1.398 . S
C654 H642 0.950 . S
C654 C653 1.398 . S
C654 C655 1.391 . S
C655 H643 0.950 . S
C655 C651 1.393 . S
C655 C654 1.391 . S
H656 C664 0.950 . S
H657 C669 0.950 . S
H658 C666 0.950 . S
H659 C668 0.950 . S
H660 C670 0.950 . S
H661 C672 0.950 . S
H662 C674 0.950 . S
H663 C675 0.950 . S
C664 H656 0.950 . S
C664 C665 1.386 . S
C664 C666 1.391 . S
C665 C664 1.386 . S
C665 C669 1.393 . S
C666 H658 0.950 . S
C666 C664 1.391 . S
C666 C667 1.400 . S
C667 C666 1.400 . S
C667 C668 1.398 . S
C667 C673 1.491 . S
C668 H659 0.950 . S
C668 C667 1.398 . S
C668 C669 1.391 . S
C669 H657 0.950 . S
C669 C665 1.393 . S
C669 C668 1.391 . S
C670 H660 0.950 . S
C670 C671 1.386 . S
C670 C672 1.391 . S
C671 C670 1.386 . S
C671 C675 1.393 . S
C672 H661 0.950 . S
C672 C670 1.391 . S
C672 C673 1.400 . S
C673 C667 1.491 . S
C673 C672 1.400 . S
C673 C674 1.398 . S
C674 H662 0.950 . S
C674 C673 1.398 . S
C674 C675 1.391 . S
C675 H663 0.950 . S
C675 C671 1.393 . S
C675 C674 1.391 . S
H676 C684 0.950 . S
H677 C689 0.950 . S
H678 C686 0.950 . S
H679 C688 0.950 . S
H680 C690 0.950 . S
H681 C692 0.950 . S
H682 C694 0.950 . S
H683 C695 0.950 . S
C684 H676 0.950 . S
C684 C685 1.386 . S
C684 C686 1.391 . S
C685 C684 1.386 . S
C685 C689 1.393 . S
C686 H678 0.950 . S
C686 C684 1.391 . S
C686 C687 1.400 . S
C687 C686 1.400 . S
C687 C688 1.398 . S
C687 C693 1.491 . S
C688 H679 0.950 . S
C688 C687 1.398 . S
C688 C689 1.391 . S
C689 H677 0.950 . S
C689 C685 1.393 . S
C689 C688 1.391 . S
C690 H680 0.950 . S
C690 C691 1.386 . S
C690 C692 1.391 . S
C691 C690 1.386 . S
C691 C695 1.393 . S
C692 H681 0.950 . S
C692 C690 1.391 . S
C692 C693 1.400 . S
C693 C687 1.491 . S
C693 C692 1.400 . S
C693 C694 1.398 . S
C694 H682 0.950 . S
C694 C693 1.398 . S
C694 C695 1.391 . S
C695 H683 0.950 . S
C695 C691 1.393 . S
C695 C694 1.391 . S
H696 C704 0.950 . S
H697 C709 0.950 1_554 S
H698 C706 0.950 . S
H699 C708 0.950 . S
H700 C710 0.950 . S
H701 C712 0.950 . S
H702 C714 0.950 . S
H703 C715 0.950 . S
C704 H696 0.950 . S
C704 C705 1.386 . S
C704 C706 1.391 . S
C705 C704 1.386 . S
C705 C709 1.393 . S
C706 H698 0.950 . S
C706 C704 1.391 . S
C706 C707 1.400 . S
C707 C706 1.400 . S
C707 C708 1.398 . S
C707 C713 1.491 . S
C708 H699 0.950 . S
C708 C707 1.398 . S
C708 C709 1.391 . S
C709 H697 0.950 1_556 S
C709 C705 1.393 . S
C709 C708 1.391 . S
C710 H700 0.950 . S
C710 C711 1.386 . S
C710 C712 1.391 . S
C711 C710 1.386 . S
C711 C715 1.393 . S
C712 H701 0.950 . S
C712 C710 1.391 . S
C712 C713 1.400 . S
C713 C707 1.491 . S
C713 C712 1.400 . S
C713 C714 1.398 . S
C714 H702 0.950 . S
C714 C713 1.398 . S
C714 C715 1.391 . S
C715 H703 0.950 . S
C715 C711 1.393 . S
C715 C714 1.391 . S
H716 C724 0.950 . S
H717 C729 0.950 . S
H718 C726 0.950 . S
H719 C728 0.950 . S
H720 C730 0.950 . S
H721 C732 0.950 . S
H722 C734 0.950 . S
H723 C735 0.950 . S
C724 H716 0.950 . S
C724 C725 1.386 . S
C724 C726 1.391 . S
C725 C724 1.386 . S
C725 C729 1.393 . S
C726 H718 0.950 . S
C726 C724 1.391 . S
C726 C727 1.400 . S
C727 C726 1.400 . S
C727 C728 1.398 . S
C727 C733 1.491 . S
C728 H719 0.950 . S
C728 C727 1.398 . S
C728 C729 1.391 . S
C729 H717 0.950 . S
C729 C725 1.393 . S
C729 C728 1.391 . S
C730 H720 0.950 . S
C730 C731 1.386 . S
C730 C732 1.391 . S
C731 C730 1.386 . S
C731 C735 1.393 . S
C732 H721 0.950 . S
C732 C730 1.391 . S
C732 C733 1.400 . S
C733 C727 1.491 . S
C733 C732 1.400 . S
C733 C734 1.398 . S
C734 H722 0.950 . S
C734 C733 1.398 . S
C734 C735 1.391 . S
C735 H723 0.950 . S
C735 C731 1.393 . S
C735 C734 1.391 . S
H736 C744 0.950 . S
H737 C749 0.950 . S
H738 C746 0.950 . S
H739 C748 0.950 . S
H740 C750 0.950 . S
H741 C752 0.950 . S
H742 C754 0.950 . S
H743 C755 0.950 . S
C744 H736 0.950 . S
C744 C745 1.386 . S
C744 C746 1.391 . S
C745 C744 1.386 . S
C745 C749 1.393 . S
C746 H738 0.950 . S
C746 C744 1.391 . S
C746 C747 1.400 . S
C747 C746 1.400 . S
C747 C748 1.398 . S
C747 C753 1.491 . S
C748 H739 0.950 . S
C748 C747 1.398 . S
C748 C749 1.391 . S
C749 H737 0.950 . S
C749 C745 1.393 . S
C749 C748 1.391 . S
C750 H740 0.950 . S
C750 C751 1.386 . S
C750 C752 1.391 . S
C751 C750 1.386 . S
C751 C755 1.393 . S
C752 H741 0.950 . S
C752 C750 1.391 . S
C752 C753 1.400 . S
C753 C747 1.491 . S
C753 C752 1.400 . S
C753 C754 1.398 . S
C754 H742 0.950 . S
C754 C753 1.398 . S
C754 C755 1.391 . S
C755 H743 0.950 . S
C755 C751 1.393 . S
C755 C754 1.391 . S
H756 C764 0.950 . S
H757 C769 0.950 . S
H758 C766 0.950 . S
H759 C768 0.950 . S
H760 C770 0.950 . S
H761 C772 0.950 . S
H762 C774 0.950 . S
H763 C775 0.950 . S
C764 H756 0.950 . S
C764 C765 1.386 . S
C764 C766 1.391 . S
C765 C764 1.386 . S
C765 C769 1.393 . S
C766 H758 0.950 . S
C766 C764 1.391 . S
C766 C767 1.400 . S
C767 C766 1.400 . S
C767 C768 1.398 . S
C767 C773 1.491 . S
C768 H759 0.950 . S
C768 C767 1.398 . S
C768 C769 1.391 . S
C769 H757 0.950 . S
C769 C765 1.393 . S
C769 C768 1.391 . S
C770 H760 0.950 . S
C770 C771 1.386 . S
C770 C772 1.391 . S
C771 C770 1.386 . S
C771 C775 1.393 . S
C772 H761 0.950 . S
C772 C770 1.391 . S
C772 C773 1.400 . S
C773 C767 1.491 . S
C773 C772 1.400 . S
C773 C774 1.398 . S
C774 H762 0.950 . S
C774 C773 1.398 . S
C774 C775 1.391 . S
C775 H763 0.950 . S
C775 C771 1.393 . S
C775 C774 1.391 . S
H776 C784 0.950 . S
H777 C789 0.950 . S
H778 C786 0.950 . S
H779 C788 0.950 . S
H780 C790 0.950 . S
H781 C792 0.950 . S
H782 C794 0.950 . S
H783 C795 0.950 . S
C784 H776 0.950 . S
C784 C785 1.386 . S
C784 C786 1.391 . S
C785 C784 1.386 . S
C785 C789 1.393 . S
C786 H778 0.950 . S
C786 C784 1.391 . S
C786 C787 1.400 . S
C787 C786 1.400 . S
C787 C788 1.398 . S
C787 C793 1.491 . S
C788 H779 0.950 . S
C788 C787 1.398 . S
C788 C789 1.391 . S
C789 H777 0.950 . S
C789 C785 1.393 . S
C789 C788 1.391 . S
C790 H780 0.950 . S
C790 C791 1.386 . S
C790 C792 1.391 . S
C791 C790 1.386 . S
C791 C795 1.393 . S
C792 H781 0.950 . S
C792 C790 1.391 . S
C792 C793 1.400 . S
C793 C787 1.491 . S
C793 C792 1.400 . S
C793 C794 1.398 . S
C794 H782 0.950 . S
C794 C793 1.398 . S
C794 C795 1.391 . S
C795 H783 0.950 . S
C795 C791 1.393 . S
C795 C794 1.391 . S
H796 C804 0.950 . S
H797 C809 0.950 . S
H798 C806 0.950 . S
H799 C808 0.950 . S
H800 C810 0.950 . S
H801 C812 0.950 . S
H802 C814 0.950 . S
H803 C815 0.950 . S
C804 H796 0.950 . S
C804 C805 1.386 . S
C804 C806 1.391 . S
C805 C804 1.386 . S
C805 C809 1.393 . S
C806 H798 0.950 . S
C806 C804 1.391 . S
C806 C807 1.400 . S
C807 C806 1.400 . S
C807 C808 1.398 . S
C807 C813 1.491 . S
C808 H799 0.950 . S
C808 C807 1.398 . S
C808 C809 1.391 . S
C809 H797 0.950 . S
C809 C805 1.393 . S
C809 C808 1.391 . S
C810 H800 0.950 . S
C810 C811 1.386 . S
C810 C812 1.391 . S
C811 C810 1.386 . S
C811 C815 1.393 . S
C812 H801 0.950 . S
C812 C810 1.391 . S
C812 C813 1.400 . S
C813 C807 1.491 . S
C813 C812 1.400 . S
C813 C814 1.398 . S
C814 H802 0.950 . S
C814 C813 1.398 . S
C814 C815 1.391 . S
C815 H803 0.950 . S
C815 C811 1.393 . S
C815 C814 1.391 . S
H816 C824 0.950 . S
H817 C829 0.950 . S
H818 C826 0.950 . S
H819 C828 0.950 . S
H820 C830 0.950 . S
H821 C832 0.950 . S
H822 C834 0.950 . S
H823 C835 0.950 . S
C824 H816 0.950 . S
C824 C825 1.386 . S
C824 C826 1.391 . S
C825 C824 1.386 . S
C825 C829 1.393 . S
C826 H818 0.950 . S
C826 C824 1.391 . S
C826 C827 1.400 . S
C827 C826 1.400 . S
C827 C828 1.398 . S
C827 C833 1.491 . S
C828 H819 0.950 . S
C828 C827 1.398 . S
C828 C829 1.391 . S
C829 H817 0.950 . S
C829 C825 1.393 . S
C829 C828 1.391 . S
C830 H820 0.950 . S
C830 C831 1.386 . S
C830 C832 1.391 . S
C831 C830 1.386 . S
C831 C835 1.393 . S
C832 H821 0.950 . S
C832 C830 1.391 . S
C832 C833 1.400 . S
C833 C827 1.491 . S
C833 C832 1.400 . S
C833 C834 1.398 . S
C834 H822 0.950 . S
C834 C833 1.398 . S
C834 C835 1.391 . S
C835 H823 0.950 . S
C835 C831 1.393 . S
C835 C834 1.391 . S
H836 C844 0.950 . S
H837 C849 0.950 . S
H838 C846 0.950 . S
H839 C848 0.950 . S
H840 C850 0.950 . S
H841 C852 0.950 . S
H842 C854 0.950 . S
H843 C855 0.950 . S
C844 H836 0.950 . S
C844 C845 1.386 . S
C844 C846 1.391 . S
C845 C844 1.386 . S
C845 C849 1.393 . S
C846 H838 0.950 . S
C846 C844 1.391 . S
C846 C847 1.400 . S
C847 C846 1.400 . S
C847 C848 1.398 . S
C847 C853 1.491 . S
C848 H839 0.950 . S
C848 C847 1.398 . S
C848 C849 1.391 . S
C849 H837 0.950 . S
C849 C845 1.393 . S
C849 C848 1.391 . S
C850 H840 0.950 . S
C850 C851 1.386 . S
C850 C852 1.391 . S
C851 C850 1.386 . S
C851 C855 1.393 . S
C852 H841 0.950 . S
C852 C850 1.391 . S
C852 C853 1.400 . S
C853 C847 1.491 . S
C853 C852 1.400 . S
C853 C854 1.398 . S
C854 H842 0.950 . S
C854 C853 1.398 . S
C854 C855 1.391 . S
C855 H843 0.950 . S
C855 C851 1.393 . S
C855 C854 1.391 . S
H856 C864 0.950 . S
H857 C869 0.950 . S
H858 C866 0.950 . S
H859 C868 0.950 . S
H860 C870 0.950 . S
H861 C872 0.950 . S
H862 C874 0.950 . S
H863 C875 0.950 . S
C864 H856 0.950 . S
C864 C865 1.386 . S
C864 C866 1.391 . S
C865 C864 1.386 . S
C865 C869 1.393 . S
C866 H858 0.950 . S
C866 C864 1.391 . S
C866 C867 1.400 . S
C867 C866 1.400 . S
C867 C868 1.398 . S
C867 C873 1.491 . S
C868 H859 0.950 . S
C868 C867 1.398 . S
C868 C869 1.391 . S
C869 H857 0.950 . S
C869 C865 1.393 . S
C869 C868 1.391 . S
C870 H860 0.950 . S
C870 C871 1.386 . S
C870 C872 1.391 . S
C871 C870 1.386 . S
C871 C875 1.393 . S
C872 H861 0.950 . S
C872 C870 1.391 . S
C872 C873 1.400 . S
C873 C867 1.491 . S
C873 C872 1.400 . S
C873 C874 1.398 . S
C874 H862 0.950 . S
C874 C873 1.398 . S
C874 C875 1.391 . S
C875 H863 0.950 . S
C875 C871 1.393 . S
C875 C874 1.391 . S
H876 C884 0.950 . S
H877 C889 0.950 . S
H878 C886 0.950 . S
H879 C888 0.950 . S
H880 C890 0.950 . S
H881 C892 0.950 . S
H882 C894 0.950 . S
H883 C895 0.950 . S
C884 H876 0.950 . S
C884 C885 1.386 . S
C884 C886 1.391 . S
C885 C884 1.386 . S
C885 C889 1.393 . S
C886 H878 0.950 . S
C886 C884 1.391 . S
C886 C887 1.400 . S
C887 C886 1.400 . S
C887 C888 1.398 . S
C887 C893 1.491 . S
C888 H879 0.950 . S
C888 C887 1.398 . S
C888 C889 1.391 . S
C889 H877 0.950 . S
C889 C885 1.393 . S
C889 C888 1.391 . S
C890 H880 0.950 . S
C890 C891 1.386 . S
C890 C892 1.391 . S
C891 C890 1.386 . S
C891 C895 1.393 . S
C892 H881 0.950 . S
C892 C890 1.391 . S
C892 C893 1.400 . S
C893 C887 1.491 . S
C893 C892 1.400 . S
C893 C894 1.398 . S
C894 H882 0.950 . S
C894 C893 1.398 . S
C894 C895 1.391 . S
C895 H883 0.950 . S
C895 C891 1.393 . S
C895 C894 1.391 . S
H896 C904 0.950 . S
H897 C909 0.950 . S
H898 C906 0.950 . S
H899 C908 0.950 . S
H900 C910 0.950 . S
H901 C912 0.950 . S
H902 C914 0.950 . S
H903 C915 0.950 . S
C904 H896 0.950 . S
C904 C905 1.404 . S
C904 C906 1.391 . S
C905 C904 1.404 . S
C905 C909 1.375 1_455 S
C906 H898 0.950 . S
C906 C904 1.391 . S
C906 C907 1.412 . S
C907 C906 1.412 . S
C907 C908 1.387 1_455 S
C907 C913 1.491 1_455 S
C908 H899 0.950 . S
C908 C907 1.387 1_655 S
C908 C909 1.391 . S
C909 H897 0.950 . S
C909 C905 1.375 1_655 S
C909 C908 1.391 . S
C910 H900 0.950 . S
C910 C911 1.404 . S
C910 C912 1.391 . S
C911 C910 1.404 . S
C911 C915 1.375 1_655 S
C912 H901 0.950 . S
C912 C910 1.391 . S
C912 C913 1.412 . S
C913 C907 1.491 1_655 S
C913 C912 1.412 . S
C913 C914 1.387 1_655 S
C914 H902 0.950 . S
C914 C913 1.387 1_455 S
C914 C915 1.391 . S
C915 H903 0.950 . S
C915 C911 1.375 1_455 S
C915 C914 1.391 . S
H916 C924 0.950 . S
H917 C929 0.950 . S
H918 C926 0.950 . S
H919 C928 0.950 . S
H920 C930 0.950 . S
H921 C932 0.950 . S
H922 C934 0.950 . S
H923 C935 0.950 . S
C924 H916 0.950 . S
C924 C925 1.394 . S
C924 C926 1.391 . S
C925 C924 1.394 . S
C925 C929 1.385 1_565 S
C926 H918 0.950 . S
C926 C924 1.391 . S
C926 C927 1.400 . S
C927 C926 1.400 . S
C927 C928 1.398 1_565 S
C927 C933 1.491 1_566 S
C928 H919 0.950 . S
C928 C927 1.398 1_545 S
C928 C929 1.391 . S
C929 H917 0.950 . S
C929 C925 1.385 1_545 S
C929 C928 1.391 . S
C930 H920 0.950 . S
C930 C931 1.394 . S
C930 C932 1.391 . S
C931 C930 1.394 . S
C931 C935 1.385 1_545 S
C932 H921 0.950 . S
C932 C930 1.391 . S
C932 C933 1.400 . S
C933 C927 1.491 1_544 S
C933 C932 1.400 . S
C933 C934 1.398 1_545 S
C934 H922 0.950 . S
C934 C933 1.398 1_565 S
C934 C935 1.391 . S
C935 H923 0.950 . S
C935 C931 1.385 1_565 S
C935 C934 1.391 . S
H936 C944 0.950 . S
H937 C949 0.950 . S
H938 C946 0.950 . S
H939 C948 0.950 . S
H940 C950 0.950 . S
H941 C952 0.950 . S
H942 C954 0.950 . S
H943 C955 0.950 . S
C944 H936 0.950 . S
C944 C945 1.386 . S
C944 C946 1.391 . S
C945 C944 1.386 . S
C945 C949 1.393 . S
C946 H938 0.950 . S
C946 C944 1.391 . S
C946 C947 1.400 . S
C947 C946 1.400 . S
C947 C948 1.398 . S
C947 C953 1.491 . S
C948 H939 0.950 . S
C948 C947 1.398 . S
C948 C949 1.391 . S
C949 H937 0.950 . S
C949 C945 1.393 . S
C949 C948 1.391 . S
C950 H940 0.950 . S
C950 C951 1.386 . S
C950 C952 1.391 . S
C951 C950 1.386 . S
C951 C955 1.393 . S
C952 H941 0.950 . S
C952 C950 1.391 . S
C952 C953 1.400 . S
C953 C947 1.491 . S
C953 C952 1.400 . S
C953 C954 1.398 . S
C954 H942 0.950 . S
C954 C953 1.398 . S
C954 C955 1.391 . S
C955 H943 0.950 . S
C955 C951 1.393 . S
C955 C954 1.391 . S
H956 C964 0.950 . S
H957 C969 0.950 . S
H958 C966 0.950 . S
H959 C968 0.950 . S
H960 C970 0.950 . S
H961 C972 0.950 . S
H962 C974 0.950 . S
H963 C975 0.950 . S
C964 H956 0.950 . S
C964 C965 1.386 . S
C964 C966 1.391 . S
C965 C964 1.386 . S
C965 C969 1.393 1_455 S
C966 H958 0.950 . S
C966 C964 1.391 . S
C966 C967 1.415 . S
C967 C966 1.415 . S
C967 C968 1.385 1_455 S
C967 C973 1.490 1_455 S
C968 H959 0.950 . S
C968 C967 1.385 1_655 S
C968 C969 1.391 . S
C969 H957 0.950 . S
C969 C965 1.393 1_655 S
C969 C968 1.391 . S
C970 H960 0.950 . S
C970 C971 1.386 . S
C970 C972 1.391 . S
C971 C970 1.386 . S
C971 C975 1.393 1_655 S
C972 H961 0.950 . S
C972 C970 1.391 . S
C972 C973 1.415 . S
C973 C967 1.490 1_655 S
C973 C972 1.415 . S
C973 C974 1.385 1_655 S
C974 H962 0.950 . S
C974 C973 1.385 1_455 S
C974 C975 1.391 . S
C975 H963 0.950 . S
C975 C971 1.393 1_455 S
C975 C974 1.391 . S
H976 C984 0.950 . S
H977 C989 0.950 . S
H978 C986 0.950 . S
H979 C988 0.950 . S
H980 C990 0.950 . S
H981 C992 0.950 . S
H982 C994 0.950 . S
H983 C995 0.950 . S
C984 H976 0.950 . S
C984 C985 1.386 1_545 S
C984 C986 1.391 . S
C985 C984 1.386 1_565 S
C985 C989 1.393 . S
C986 H978 0.950 . S
C986 C984 1.391 . S
C986 C987 1.394 1_545 S
C987 C986 1.394 1_565 S
C987 C988 1.405 . S
C987 C993 1.490 1_565 S
C988 H979 0.950 . S
C988 C987 1.405 . S
C988 C989 1.391 . S
C989 H977 0.950 . S
C989 C985 1.393 . S
C989 C988 1.391 . S
C990 H980 0.950 . S
C990 C991 1.386 1_565 S
C990 C992 1.391 . S
C991 C990 1.386 1_545 S
C991 C995 1.393 . S
C992 H981 0.950 . S
C992 C990 1.391 . S
C992 C993 1.394 1_565 S
C993 C987 1.490 1_545 S
C993 C992 1.394 1_545 S
C993 C994 1.405 . S
C994 H982 0.950 . S
C994 C993 1.405 . S
C994 C995 1.391 . S
C995 H983 0.950 . S
C995 C991 1.393 . S
C995 C994 1.391 . S
C405 C292 0.682 . S
C411 C28 0.675 . S
C425 C61 0.711 . S
C431 C325 0.722 . S
C445 C94 0.727 . S
C451 C358 0.723 . S
C465 C127 0.711 . S
C471 C391 0.722 . S
C485 C160 0.711 . S
C491 C226 0.722 . S
C505 C193 0.688 . S
C511 C259 0.702 . S
C525 N5 1.720 . S
C531 C173 1.758 . S
C545 C8 1.749 . S
C551 N38 1.739 . S
C565 N71 1.731 . S
C571 C41 1.745 . S
C585 C74 1.744 . S
C591 N104 1.735 . S
C605 C107 1.755 1_554 S
C611 N137 1.719 . S
C625 N170 1.736 . S
C631 C140 1.754 . S
C645 C239 1.758 . S
C651 N203 1.719 . S
C665 C272 1.744 . S
C671 N236 1.734 . S
C685 C305 1.753 . S
C691 N269 1.719 . S
C705 C338 1.756 . S
C711 N302 1.719 . S
C725 C371 1.748 . S
C731 N335 1.723 . S
C745 N368 1.739 . S
C751 C206 1.749 . S
C765 C17 1.302 . S
C771 C215 1.300 . S
C785 C50 1.300 . S
C791 C248 1.302 . S
C805 C83 1.303 . S
C811 C281 1.301 . S
C825 C116 1.299 . S
C831 C314 1.300 . S
C845 C347 1.302 . S
C851 C149 1.300 . S
C865 C182 1.301 . S
C871 C380 1.299 . S
C885 N311 0.897 . S
C891 N14 0.888 . S
C905 N47 0.888 . S
C911 N344 0.880 . S
C925 N80 0.885 1_565 S
C931 N377 0.893 1_545 S
C945 N113 0.901 . S
C951 N212 0.910 . S
C965 N146 0.921 1_455 S
C971 N245 0.923 1_655 S
C985 N278 0.918 1_565 S
C991 N179 0.911 1_545 S
