# Generated by pormake.
# Topology uop, (4)-cn, num edge types: 1
# Building blocks:
#     Node 0, Type 0, BuildingBlock: KOZSID_clean_sbu_0, # of connection points: 4
#     Node 1, Type 0, BuildingBlock: KOZSID_clean_sbu_0, # of connection points: 4
#     Node 2, Type 0, BuildingBlock: KOZSID_clean_sbu_0, # of connection points: 4
#     Node 3, Type 0, BuildingBlock: KOZSID_clean_sbu_0, # of connection points: 4
#     Node 4, Type 0, BuildingBlock: KOZSID_clean_sbu_0, # of connection points: 4
#     Node 5, Type 0, BuildingBlock: KOZSID_clean_sbu_0, # of connection points: 4
#     Node 6, Type 0, BuildingBlock: KOZSID_clean_sbu_0, # of connection points: 4
#     Node 7, Type 0, BuildingBlock: KOZSID_clean_sbu_0, # of connection points: 4
#     Node 8, Type 0, BuildingBlock: KOZSID_clean_sbu_0, # of connection points: 4
#     Node 9, Type 0, BuildingBlock: KOZSID_clean_sbu_0, # of connection points: 4
#     Node 10, Type 0, BuildingBlock: KOZSID_clean_sbu_0, # of connection points: 4
#     Node 11, Type 0, BuildingBlock: KOZSID_clean_sbu_0, # of connection points: 4
#     Edge 12, Type (0, 0), BuildingBlock: TEMPAE_clean_linker_10, # of connection points: 2
#     Edge 13, Type (0, 0), BuildingBlock: TEMPAE_clean_linker_10, # of connection points: 2
#     Edge 14, Type (0, 0), BuildingBlock: TEMPAE_clean_linker_10, # of connection points: 2
#     Edge 15, Type (0, 0), BuildingBlock: TEMPAE_clean_linker_10, # of connection points: 2
#     Edge 16, Type (0, 0), BuildingBlock: TEMPAE_clean_linker_10, # of connection points: 2
#     Edge 17, Type (0, 0), BuildingBlock: TEMPAE_clean_linker_10, # of connection points: 2
#     Edge 18, Type (0, 0), BuildingBlock: TEMPAE_clean_linker_10, # of connection points: 2
#     Edge 19, Type (0, 0), BuildingBlock: TEMPAE_clean_linker_10, # of connection points: 2
#     Edge 20, Type (0, 0), BuildingBlock: TEMPAE_clean_linker_10, # of connection points: 2
#     Edge 21, Type (0, 0), BuildingBlock: TEMPAE_clean_linker_10, # of connection points: 2
#     Edge 22, Type (0, 0), BuildingBlock: TEMPAE_clean_linker_10, # of connection points: 2
#     Edge 23, Type (0, 0), BuildingBlock: TEMPAE_clean_linker_10, # of connection points: 2
#     Edge 24, Type (0, 0), BuildingBlock: TEMPAE_clean_linker_10, # of connection points: 2
#     Edge 25, Type (0, 0), BuildingBlock: TEMPAE_clean_linker_10, # of connection points: 2
#     Edge 26, Type (0, 0), BuildingBlock: TEMPAE_clean_linker_10, # of connection points: 2
#     Edge 27, Type (0, 0), BuildingBlock: TEMPAE_clean_linker_10, # of connection points: 2
#     Edge 28, Type (0, 0), BuildingBlock: TEMPAE_clean_linker_10, # of connection points: 2
#     Edge 29, Type (0, 0), BuildingBlock: TEMPAE_clean_linker_10, # of connection points: 2
#     Edge 30, Type (0, 0), BuildingBlock: TEMPAE_clean_linker_10, # of connection points: 2
#     Edge 31, Type (0, 0), BuildingBlock: TEMPAE_clean_linker_10, # of connection points: 2
#     Edge 32, Type (0, 0), BuildingBlock: TEMPAE_clean_linker_10, # of connection points: 2
#     Edge 33, Type (0, 0), BuildingBlock: TEMPAE_clean_linker_10, # of connection points: 2
#     Edge 34, Type (0, 0), BuildingBlock: TEMPAE_clean_linker_10, # of connection points: 2
#     Edge 35, Type (0, 0), BuildingBlock: TEMPAE_clean_linker_10, # of connection points: 2
# Relax obj value: 0.071
# Max RMSD: 0.267
# Mean RMSD: 0.246
data_MOF--net-uop--node1-KOZSID_clean_sbu_0--edge1-TEMPAE_clean_linker_10
_symmetry_space_group_name_H-M    P1
_symmetry_Int_Tables_number       1
_symmetry_cell_setting            triclinic
loop_
_symmetry_equiv_pos_as_xyz
'x, y, z'
_cell_length_a     40.221932
_cell_length_b     38.622836
_cell_length_c     66.763891
_cell_angle_alpha  89.994336
_cell_angle_beta   89.995581
_cell_angle_gamma 121.3178
loop_
_atom_site_label
_atom_site_type_symbol
_atom_site_fract_x
_atom_site_fract_y
_atom_site_fract_z
_atom_type_partial_charge
C0 C 0.36216 0.44445 0.21245 0.0
C1 C 0.38524 0.43478 0.20115 0.0
C2 C 0.3622 0.40957 0.18623 0.0
C3 C 0.3265 0.4052 0.18923 0.0
N4 N 0.3254 0.42623 0.20506 0.0
Co5 Co 0.27879 0.42729 0.21464 0.0
N6 N 0.24255 0.3799 0.1974 0.0
C7 C 0.25321 0.36145 0.18395 0.0
C8 C 0.22252 0.32854 0.17486 0.0
C9 C 0.19013 0.32639 0.18262 0.0
C10 C 0.203 0.3587 0.19581 0.0
N11 N 0.23186 0.42912 0.22335 0.0
C12 C 0.1935 0.40594 0.21792 0.0
C13 C 0.17223 0.42196 0.22556 0.0
C14 C 0.19789 0.45653 0.2357 0.0
C15 C 0.23342 0.45997 0.23367 0.0
N16 N 0.31513 0.47355 0.23224 0.0
C17 C 0.30665 0.4986 0.24184 0.0
C18 C 0.33708 0.5273 0.25317 0.0
C19 C 0.36668 0.51988 0.25053 0.0
C20 C 0.35262 0.48698 0.23772 0.0
N21 N 0.28656 0.46615 0.193 0.0
C22 C 0.29152 0.53236 0.17202 0.0
C23 C 0.32434 0.53553 0.18132 0.0
C24 C 0.32139 0.50207 0.19141 0.0
C25 C 0.2574 0.49394 0.17171 0.0
C26 C 0.25571 0.46142 0.18201 0.0
N27 N 0.27205 0.39049 0.23724 0.0
C28 C 0.26455 0.37909 0.27312 0.0
C29 C 0.27943 0.35342 0.27236 0.0
C30 C 0.2885 0.34492 0.25332 0.0
C31 C 0.28399 0.36313 0.23599 0.0
C32 C 0.26133 0.39725 0.25564 0.0
H33 H 0.29172 0.35618 0.22175 0.0
H34 H 0.2521 0.41858 0.25744 0.0
H35 H 0.34693 0.5062 0.19891 0.0
H36 H 0.22852 0.43327 0.18195 0.0
C37 C 0.29223 0.37562 0.18025 0.0
C38 C 0.3765 0.47119 0.22995 0.0
C39 C 0.17709 0.37196 0.20346 0.0
C40 C 0.26872 0.49124 0.2415 0.0
H41 H 0.41537 0.44417 0.20365 0.0
H42 H 0.36994 0.39431 0.17525 0.0
H43 H 0.22357 0.30893 0.16362 0.0
H44 H 0.16043 0.30486 0.17823 0.0
H45 H 0.14167 0.41087 0.22334 0.0
H46 H 0.19152 0.47723 0.24325 0.0
H47 H 0.33743 0.55027 0.26261 0.0
H48 H 0.39541 0.53687 0.25713 0.0
H49 H 0.35194 0.56399 0.18133 0.0
H50 H 0.23123 0.4893 0.16456 0.0
H51 H 0.25724 0.38692 0.28736 0.0
H52 H 0.29946 0.32469 0.25181 0.0
C53 C 0.93145 0.34593 0.55338 0.0
C54 C 0.96396 0.37087 0.54176 0.0
C55 C 0.96458 0.34745 0.52665 0.0
C56 C 0.93266 0.30965 0.52988 0.0
N57 N 0.91166 0.3074 0.54609 0.0
Co58 Co 0.86373 0.25724 0.55607 0.0
N59 N 0.87155 0.22098 0.53751 0.0
C60 C 0.89918 0.23367 0.52324 0.0
C61 C 0.89828 0.2029 0.51256 0.0
C62 C 0.8676 0.16822 0.52018 0.0
C63 C 0.85119 0.17985 0.53502 0.0
N64 N 0.81488 0.20663 0.56526 0.0
C65 C 0.79847 0.16674 0.55978 0.0
C66 C 0.76208 0.14298 0.56843 0.0
C67 C 0.75485 0.16853 0.57924 0.0
C68 C 0.78707 0.20649 0.57662 0.0
N69 N 0.85667 0.29355 0.57469 0.0
C70 C 0.82421 0.28272 0.58524 0.0
C71 C 0.82721 0.31367 0.59678 0.0
C72 C 0.86389 0.34623 0.59324 0.0
C73 C 0.88131 0.33334 0.57968 0.0
N74 N 0.83193 0.26455 0.53574 0.0
C75 C 0.76951 0.2693 0.52004 0.0
C76 C 0.80346 0.30422 0.5266 0.0
C77 C 0.83438 0.30123 0.53427 0.0
C78 C 0.76957 0.23313 0.51912 0.0
C79 C 0.80147 0.23172 0.52649 0.0
N80 N 0.89471 0.25131 0.57764 0.0
C81 C 0.90031 0.2444 0.61342 0.0
C82 C 0.94089 0.26424 0.61227 0.0
C83 C 0.95766 0.27484 0.59305 0.0
C84 C 0.93408 0.26739 0.57596 0.0
C85 C 0.87807 0.23847 0.5962 0.0
H86 H 0.94817 0.27656 0.56158 0.0
H87 H 0.84753 0.22583 0.59844 0.0
H88 H 0.85879 0.32816 0.54052 0.0
H89 H 0.79979 0.20314 0.526 0.0
C90 C 0.92543 0.27467 0.52013 0.0
C91 C 0.92 0.36066 0.57075 0.0
C92 C 0.81369 0.15089 0.5444 0.0
C93 C 0.793 0.24249 0.58509 0.0
H94 H 0.98533 0.40264 0.54405 0.0
H95 H 0.98667 0.35647 0.51522 0.0
H96 H 0.91725 0.20543 0.50041 0.0
H97 H 0.85746 0.13783 0.51486 0.0
H98 H 0.74217 0.11077 0.56644 0.0
H99 H 0.72886 0.16045 0.58771 0.0
H100 H 0.80555 0.31259 0.60681 0.0
H101 H 0.87624 0.37619 0.59964 0.0
H102 H 0.80501 0.33305 0.52717 0.0
H103 H 0.74441 0.20565 0.51351 0.0
H104 H 0.88572 0.23556 0.6278 0.0
H105 H 0.98887 0.28945 0.59123 0.0
C106 C 0.64907 0.85974 0.9609 0.0
C107 C 0.64898 0.84688 0.98037 0.0
C108 C 0.62418 0.80571 0.98061 0.0
C109 C 0.60985 0.79557 0.9615 0.0
N110 N 0.62428 0.82785 0.94923 0.0
Co111 Co 0.60792 0.82724 0.92113 0.0
N112 N 0.55792 0.7754 0.92524 0.0
C113 C 0.55041 0.7489 0.94018 0.0
C114 C 0.51403 0.71479 0.93903 0.0
C115 C 0.49771 0.71982 0.92214 0.0
C116 C 0.52519 0.75698 0.91388 0.0
N117 N 0.5919 0.8262 0.89292 0.0
C118 C 0.5567 0.80285 0.88392 0.0
C119 C 0.55944 0.81114 0.86356 0.0
C120 C 0.59772 0.83998 0.85975 0.0
C121 C 0.61633 0.84789 0.87792 0.0
N122 N 0.65757 0.87942 0.91772 0.0
C123 C 0.67497 0.89585 0.90017 0.0
C124 C 0.70789 0.93355 0.9026 0.0
C125 C 0.71102 0.94106 0.92292 0.0
C126 C 0.6797 0.90755 0.93182 0.0
N127 N 0.63319 0.79694 0.91228 0.0
C128 C 0.67208 0.76262 0.89221 0.0
C129 C 0.6916 0.79465 0.90608 0.0
C130 C 0.67169 0.81104 0.91601 0.0
C131 C 0.63198 0.74683 0.88983 0.0
C132 C 0.61341 0.76425 0.89977 0.0
N133 N 0.58347 0.85835 0.92888 0.0
C134 C 0.57501 0.91451 0.92151 0.0
C135 C 0.554 0.90839 0.93919 0.0
C136 C 0.54811 0.87638 0.95177 0.0
C137 C 0.56278 0.85146 0.94625 0.0
C138 C 0.58933 0.88956 0.91671 0.0
H139 H 0.55776 0.82695 0.95605 0.0
H140 H 0.60593 0.8963 0.90314 0.0
H141 H 0.68794 0.8363 0.92606 0.0
H142 H 0.58314 0.75201 0.89648 0.0
C143 C 0.57617 0.75928 0.95623 0.0
C144 C 0.67288 0.90194 0.9537 0.0
C145 C 0.52117 0.77066 0.89394 0.0
C146 C 0.65487 0.87911 0.88208 0.0
H147 H 0.66385 0.8649 0.99339 0.0
H148 H 0.61519 0.7861 0.9936 0.0
H149 H 0.50072 0.68953 0.94936 0.0
H150 H 0.46931 0.69788 0.91627 0.0
H151 H 0.53633 0.79744 0.85257 0.0
H152 H 0.6102 0.85418 0.8455 0.0
H153 H 0.72622 0.95416 0.89095 0.0
H154 H 0.7335 0.9681 0.93032 0.0
H155 H 0.72245 0.80822 0.90875 0.0
H156 H 0.61471 0.72131 0.88003 0.0
H157 H 0.5811 0.93915 0.91145 0.0
H158 H 0.53194 0.87035 0.9656 0.0
C159 C 0.67226 0.57888 0.21353 0.0
C160 C 0.64918 0.58823 0.202 0.0
C161 C 0.67201 0.61227 0.1867 0.0
C162 C 0.70757 0.61634 0.18973 0.0
N163 N 0.70883 0.59633 0.20595 0.0
Co164 Co 0.7553 0.59522 0.21564 0.0
N165 N 0.79163 0.64203 0.19808 0.0
C166 C 0.7807 0.65844 0.18361 0.0
C167 C 0.81115 0.68955 0.17345 0.0
C168 C 0.84367 0.69274 0.18162 0.0
C169 C 0.83121 0.66313 0.19638 0.0
N170 N 0.80197 0.59341 0.22462 0.0
C171 C 0.8405 0.61722 0.21974 0.0
C172 C 0.86195 0.60188 0.2279 0.0
C173 C 0.83611 0.56677 0.23764 0.0
C174 C 0.80036 0.56258 0.23499 0.0
N175 N 0.71881 0.54927 0.23336 0.0
C176 C 0.72701 0.52392 0.24288 0.0
C177 C 0.69645 0.49533 0.25419 0.0
C178 C 0.66707 0.50313 0.2516 0.0
C179 C 0.68138 0.53613 0.23883 0.0
N180 N 0.74751 0.55591 0.19428 0.0
C181 C 0.74202 0.48877 0.17407 0.0
C182 C 0.7092 0.48638 0.18292 0.0
C183 C 0.71241 0.52031 0.19261 0.0
C184 C 0.77654 0.52687 0.17379 0.0
C185 C 0.77853 0.55988 0.18374 0.0
N186 N 0.76213 0.63243 0.23797 0.0
C187 C 0.76694 0.64233 0.27393 0.0
C188 C 0.75313 0.66892 0.27285 0.0
C189 C 0.74689 0.67935 0.25357 0.0
C190 C 0.75171 0.66096 0.23637 0.0
C191 C 0.77122 0.62471 0.25657 0.0
H192 H 0.74518 0.66843 0.22191 0.0
H193 H 0.77978 0.60287 0.25858 0.0
H194 H 0.68686 0.51678 0.19984 0.0
H195 H 0.80608 0.58777 0.18387 0.0
C196 C 0.74165 0.64434 0.18004 0.0
C197 C 0.65783 0.55238 0.23112 0.0
C198 C 0.85744 0.65189 0.20571 0.0
C199 C 0.76493 0.53115 0.24266 0.0
H200 H 0.61911 0.57908 0.20449 0.0
H201 H 0.66416 0.62676 0.17534 0.0
H202 H 0.80982 0.70725 0.16124 0.0
H203 H 0.87306 0.71323 0.17648 0.0
H204 H 0.89288 0.61407 0.22634 0.0
H205 H 0.84259 0.54647 0.24551 0.0
H206 H 0.69589 0.47224 0.26362 0.0
H207 H 0.63834 0.48635 0.25821 0.0
H208 H 0.68139 0.45815 0.1829 0.0
H209 H 0.80272 0.53081 0.16697 0.0
H210 H 0.77348 0.6341 0.28826 0.0
H211 H 0.7366 0.70009 0.25177 0.0
C212 C 0.0994 0.67943 0.55447 0.0
C213 C 0.0666 0.65439 0.54305 0.0
C214 C 0.06567 0.6777 0.52798 0.0
C215 C 0.09777 0.71547 0.53098 0.0
N216 N 0.11921 0.71781 0.547 0.0
Co217 Co 0.16784 0.76782 0.55646 0.0
N218 N 0.15976 0.80406 0.53803 0.0
C219 C 0.13171 0.79137 0.52399 0.0
C220 C 0.13255 0.82212 0.51333 0.0
C221 C 0.16361 0.85678 0.5207 0.0
C222 C 0.18032 0.84515 0.53538 0.0
N223 N 0.21724 0.81829 0.56522 0.0
C224 C 0.23367 0.85816 0.55969 0.0
C225 C 0.27039 0.88179 0.568 0.0
C226 C 0.2778 0.85617 0.57862 0.0
C227 C 0.24535 0.8183 0.57624 0.0
N228 N 0.17527 0.73147 0.57488 0.0
C229 C 0.20818 0.74209 0.58496 0.0
C230 C 0.20543 0.71109 0.59637 0.0
C231 C 0.16847 0.67874 0.59322 0.0
C232 C 0.15063 0.69177 0.58002 0.0
N233 N 0.19861 0.75976 0.53579 0.0
C234 C 0.26032 0.75326 0.52007 0.0
C235 C 0.22573 0.71889 0.52669 0.0
C236 C 0.19529 0.72272 0.53429 0.0
C237 C 0.26073 0.78982 0.51892 0.0
C238 C 0.22934 0.79214 0.52643 0.0
N239 N 0.13794 0.7744 0.57837 0.0
C240 C 0.13307 0.77902 0.61435 0.0
C241 C 0.0925 0.76003 0.61345 0.0
C242 C 0.07558 0.75206 0.59423 0.0
C243 C 0.09879 0.75976 0.57693 0.0
C244 C 0.15494 0.7859 0.5969 0.0
H245 H 0.08453 0.75164 0.56256 0.0
H246 H 0.18546 0.79801 0.59888 0.0
H247 H 0.17048 0.69604 0.54046 0.0
H248 H 0.23168 0.82107 0.526 0.0
C249 C 0.10506 0.75037 0.52111 0.0
C250 C 0.11134 0.66477 0.57166 0.0
C251 C 0.21813 0.87404 0.5445 0.0
C252 C 0.23956 0.78223 0.58458 0.0
H253 H 0.04538 0.6226 0.54542 0.0
H254 H 0.04335 0.66858 0.51666 0.0
H255 H 0.11324 0.81958 0.50136 0.0
H256 H 0.17376 0.88713 0.51533 0.0
H257 H 0.29041 0.91395 0.56588 0.0
H258 H 0.30408 0.86414 0.58679 0.0
H259 H 0.22745 0.71204 0.60606 0.0
H260 H 0.15617 0.64882 0.59968 0.0
H261 H 0.22271 0.68936 0.52692 0.0
H262 H 0.28608 0.8173 0.51352 0.0
H263 H 0.14803 0.78733 0.62863 0.0
H264 H 0.04441 0.73802 0.59255 0.0
C265 C 0.37465 0.15789 0.95846 0.0
C266 C 0.36755 0.16931 0.97691 0.0
C267 C 0.39015 0.21087 0.97767 0.0
C268 C 0.40949 0.22244 0.95965 0.0
N269 N 0.40009 0.19073 0.94765 0.0
Co270 Co 0.42094 0.19333 0.92057 0.0
N271 N 0.4683 0.24663 0.92616 0.0
C272 C 0.47176 0.27221 0.94086 0.0
C273 C 0.50724 0.30769 0.94084 0.0
C274 C 0.52714 0.30447 0.92499 0.0
C275 C 0.50258 0.267 0.91613 0.0
N276 N 0.4415 0.19637 0.89324 0.0
C277 C 0.47763 0.22153 0.88559 0.0
C278 C 0.47842 0.21394 0.86533 0.0
C279 C 0.4414 0.18362 0.86019 0.0
C280 C 0.41998 0.17422 0.87753 0.0
N281 N 0.37365 0.13954 0.91583 0.0
C282 C 0.35963 0.12271 0.89783 0.0
C283 C 0.32977 0.08299 0.89948 0.0
C284 C 0.32511 0.07458 0.91971 0.0
C285 C 0.3522 0.10985 0.92947 0.0
N286 N 0.39422 0.22105 0.91011 0.0
C287 C 0.35513 0.25461 0.88957 0.0
C288 C 0.33524 0.22159 0.90288 0.0
C289 C 0.3552 0.20548 0.91299 0.0
C290 C 0.39546 0.27129 0.88775 0.0
C291 C 0.41415 0.25428 0.89794 0.0
N292 N 0.447 0.16489 0.93004 0.0
C293 C 0.45792 0.10968 0.92492 0.0
C294 C 0.47551 0.11612 0.94364 0.0
C295 C 0.47969 0.14838 0.95537 0.0
C296 C 0.46517 0.17249 0.94827 0.0
C297 C 0.4442 0.13428 0.91841 0.0
H298 H 0.46784 0.19663 0.95763 0.0
H299 H 0.43016 0.12744 0.90404 0.0
H300 H 0.33879 0.17956 0.92266 0.0
H301 H 0.44481 0.26757 0.89531 0.0
C302 C 0.44283 0.26012 0.95556 0.0
C303 C 0.35704 0.11583 0.95154 0.0
C304 C 0.51065 0.25465 0.89674 0.0
C305 C 0.38184 0.14103 0.88046 0.0
H306 H 0.34881 0.1496 0.98871 0.0
H307 H 0.39402 0.23 0.99039 0.0
H308 H 0.5176 0.33277 0.95121 0.0
H309 H 0.5559 0.32775 0.92011 0.0
H310 H 0.50303 0.22897 0.85526 0.0
H311 H 0.43164 0.16939 0.84568 0.0
H312 H 0.31524 0.06159 0.88742 0.0
H313 H 0.30492 0.04543 0.92621 0.0
H314 H 0.30415 0.20727 0.90503 0.0
H315 H 0.41286 0.29741 0.8783 0.0
H316 H 0.45437 0.08529 0.91537 0.0
H317 H 0.49339 0.15442 0.96995 0.0
C318 C 0.59895 0.67928 0.4622 0.0
C319 C 0.60738 0.65449 0.47343 0.0
C320 C 0.63135 0.67775 0.48857 0.0
C321 C 0.6364 0.71532 0.48573 0.0
N322 N 0.61728 0.71764 0.46971 0.0
Co323 Co 0.61852 0.76765 0.46028 0.0
N324 N 0.66267 0.80396 0.47877 0.0
C325 C 0.67734 0.79109 0.49313 0.0
C326 C 0.70638 0.82161 0.50423 0.0
C327 C 0.7102 0.85635 0.49681 0.0
C328 C 0.68313 0.84508 0.48147 0.0
N329 N 0.61937 0.81804 0.45155 0.0
C330 C 0.64271 0.85792 0.45705 0.0
C331 C 0.62975 0.88155 0.44855 0.0
C332 C 0.59674 0.85589 0.43797 0.0
C333 C 0.5913 0.81801 0.44048 0.0
N334 N 0.57495 0.73128 0.44178 0.0
C335 C 0.55269 0.74189 0.43164 0.0
C336 C 0.52458 0.71092 0.4202 0.0
C337 C 0.52921 0.67856 0.42338 0.0
C338 C 0.55998 0.69157 0.43663 0.0
N339 N 0.57961 0.75947 0.4809 0.0
C340 C 0.51143 0.75301 0.4966 0.0
C341 C 0.51166 0.71864 0.48993 0.0
C342 C 0.54592 0.72245 0.48234 0.0
C343 C 0.54753 0.78953 0.49779 0.0
C344 C 0.58124 0.79183 0.4903 0.0
N345 N 0.65516 0.77446 0.43842 0.0
C346 C 0.66493 0.77929 0.40247 0.0
C347 C 0.68673 0.7605 0.40342 0.0
C348 C 0.69563 0.75254 0.42265 0.0
C349 C 0.67986 0.76003 0.43992 0.0
C350 C 0.6497 0.78597 0.41988 0.0
H351 H 0.68598 0.75193 0.45431 0.0
H352 H 0.63117 0.79795 0.41787 0.0
H353 H 0.54409 0.69578 0.47615 0.0
H354 H 0.60781 0.82076 0.49075 0.0
C355 C 0.66331 0.75013 0.49584 0.0
C356 C 0.57186 0.66436 0.44521 0.0
C357 C 0.67471 0.87411 0.47192 0.0
C358 C 0.56125 0.78197 0.43206 0.0
H359 H 0.5974 0.62287 0.47092 0.0
H360 H 0.64476 0.66875 0.49983 0.0
H361 H 0.72232 0.81887 0.51658 0.0
H362 H 0.72963 0.88636 0.50273 0.0
H363 H 0.64211 0.91382 0.45041 0.0
H364 H 0.57859 0.86386 0.42963 0.0
H365 H 0.50352 0.71186 0.41048 0.0
H366 H 0.5116 0.64862 0.41696 0.0
H367 H 0.48517 0.68913 0.48967 0.0
H368 H 0.54964 0.81701 0.50322 0.0
H369 H 0.6583 0.78759 0.38818 0.0
H370 H 0.71292 0.73866 0.42437 0.0
C371 C 0.92669 0.57747 0.80344 0.0
C372 C 0.95933 0.58707 0.81482 0.0
C373 C 0.96063 0.61115 0.83013 0.0
C374 C 0.92898 0.61503 0.82724 0.0
N375 N 0.90754 0.59487 0.8111 0.0
Co376 Co 0.85986 0.59372 0.80154 0.0
N377 N 0.87038 0.6406 0.81909 0.0
C378 C 0.89787 0.65711 0.83347 0.0
C379 C 0.89848 0.68813 0.84369 0.0
C380 C 0.86896 0.69118 0.83568 0.0
C381 C 0.85175 0.66158 0.82092 0.0
N382 N 0.81129 0.59187 0.79267 0.0
C383 C 0.79649 0.61561 0.79764 0.0
C384 C 0.75973 0.60029 0.78948 0.0
C385 C 0.75053 0.56523 0.7797 0.0
C386 C 0.78211 0.56106 0.78231 0.0
N387 N 0.85038 0.54772 0.78383 0.0
C388 C 0.81681 0.52236 0.77437 0.0
C389 C 0.81879 0.49381 0.763 0.0
C390 C 0.85598 0.50164 0.76549 0.0
C391 C 0.87469 0.53464 0.77826 0.0
N392 N 0.82859 0.5545 0.82298 0.0
C393 C 0.76738 0.48772 0.84362 0.0
C394 C 0.79762 0.48514 0.83462 0.0
C395 C 0.82808 0.51887 0.82468 0.0
C396 C 0.77095 0.52585 0.84376 0.0
C397 C 0.80176 0.55867 0.83363 0.0
N398 N 0.89 0.63088 0.77914 0.0
C399 C 0.89487 0.64071 0.74318 0.0
C400 C 0.93521 0.66746 0.7442 0.0
C401 C 0.95194 0.67796 0.76346 0.0
C402 C 0.92887 0.65952 0.78069 0.0
C403 C 0.8731 0.62306 0.76057 0.0
H404 H 0.94294 0.66707 0.79513 0.0
H405 H 0.84276 0.60115 0.75861 0.0
H406 H 0.84993 0.51519 0.81735 0.0
H407 H 0.80208 0.58656 0.83348 0.0
C408 C 0.92291 0.64306 0.83693 0.0
C409 C 0.91453 0.55091 0.78587 0.0
C410 C 0.81409 0.65015 0.81175 0.0
C411 C 0.78613 0.52962 0.77463 0.0
H412 H 0.9804 0.57814 0.81221 0.0
H413 H 0.98313 0.62584 0.84138 0.0
H414 H 0.91757 0.70583 0.85587 0.0
H415 H 0.85999 0.71154 0.84096 0.0
H416 H 0.74093 0.61243 0.79109 0.0
H417 H 0.72377 0.54494 0.77184 0.0
H418 H 0.79625 0.47074 0.75359 0.0
H419 H 0.86793 0.4849 0.75882 0.0
H420 H 0.79726 0.45692 0.83472 0.0
H421 H 0.74888 0.53001 0.85063 0.0
H422 H 0.88004 0.63241 0.72887 0.0
H423 H 0.98293 0.69882 0.76522 0.0
C424 C 0.23008 0.86631 0.05816 0.0
C425 C 0.2119 0.856 0.0396 0.0
C426 C 0.19319 0.81453 0.03817 0.0
C427 C 0.20075 0.80191 0.05594 0.0
N428 N 0.22268 0.83286 0.06841 0.0
Co429 Co 0.23977 0.82838 0.09551 0.0
N430 N 0.23396 0.77537 0.08914 0.0
C431 C 0.21271 0.75093 0.07392 0.0
C432 C 0.21266 0.7154 0.07343 0.0
C433 C 0.23481 0.71734 0.08949 0.0
C434 C 0.24722 0.75415 0.09897 0.0
N435 N 0.25534 0.82298 0.12296 0.0
C436 C 0.26557 0.79703 0.13038 0.0
C437 C 0.27269 0.80309 0.15081 0.0
C438 C 0.26594 0.83325 0.15628 0.0
C439 C 0.25516 0.8441 0.13897 0.0
N440 N 0.24667 0.88216 0.10098 0.0
C441 C 0.24924 0.89811 0.11919 0.0
C442 C 0.25964 0.93808 0.11811 0.0
C443 C 0.26401 0.94763 0.098 0.0
C444 C 0.25563 0.91275 0.08775 0.0
N445 N 0.18491 0.80044 0.1053 0.0
C446 C 0.11234 0.76713 0.12579 0.0
C447 C 0.12623 0.80117 0.1131 0.0
C448 C 0.16226 0.81713 0.10299 0.0
C449 C 0.13501 0.7492 0.1269 0.0
C450 C 0.17069 0.7661 0.11674 0.0
N451 N 0.29484 0.85732 0.08676 0.0
C452 C 0.36092 0.90975 0.09433 0.0
C453 C 0.37286 0.91061 0.07454 0.0
C454 C 0.34493 0.88192 0.06118 0.0
C455 C 0.3062 0.85526 0.06765 0.0
C456 C 0.32234 0.88393 0.09993 0.0
H457 H 0.2852 0.8341 0.05703 0.0
H458 H 0.31484 0.88712 0.11494 0.0
H459 H 0.17243 0.8439 0.09387 0.0
H460 H 0.1874 0.75188 0.1189 0.0
C461 C 0.19643 0.76402 0.0594 0.0
C462 C 0.25461 0.90793 0.0656 0.0
C463 C 0.26626 0.76483 0.11875 0.0
C464 C 0.2515 0.87821 0.13637 0.0
H465 H 0.213 0.87639 0.02814 0.0
H466 H 0.17825 0.79619 0.0252 0.0
H467 H 0.19844 0.69106 0.06263 0.0
H468 H 0.23989 0.69361 0.0941 0.0
H469 H 0.28163 0.78727 0.16074 0.0
H470 H 0.26982 0.8466 0.17099 0.0
H471 H 0.26623 0.9588 0.13047 0.0
H472 H 0.27334 0.97718 0.09188 0.0
H473 H 0.11019 0.81643 0.1115 0.0
H474 H 0.12561 0.72226 0.13583 0.0
H475 H 0.38112 0.92959 0.10566 0.0
H476 H 0.35246 0.8808 0.04573 0.0
C477 C 0.4342 0.34629 0.46285 0.0
C478 C 0.42816 0.37192 0.47486 0.0
C479 C 0.40527 0.34906 0.49042 0.0
C480 C 0.39865 0.31096 0.4871 0.0
N481 N 0.41584 0.308 0.47042 0.0
Co482 Co 0.4128 0.25745 0.46045 0.0
N483 N 0.36932 0.22178 0.47941 0.0
C484 C 0.35617 0.23519 0.49428 0.0
C485 C 0.3273 0.20497 0.5056 0.0
C486 C 0.32205 0.16989 0.49779 0.0
C487 C 0.34818 0.18063 0.48202 0.0
N488 N 0.41041 0.20653 0.45127 0.0
C489 C 0.38674 0.16674 0.45682 0.0
C490 C 0.39864 0.14255 0.44788 0.0
C491 C 0.43129 0.16776 0.43695 0.0
C492 C 0.4376 0.20594 0.4397 0.0
N493 N 0.45558 0.2932 0.44145 0.0
C494 C 0.47682 0.28202 0.43078 0.0
C495 C 0.50434 0.31265 0.41893 0.0
C496 C 0.50031 0.34532 0.4224 0.0
C497 C 0.4705 0.33284 0.43622 0.0
N498 N 0.45239 0.26466 0.48042 0.0
C499 C 0.51956 0.26916 0.49599 0.0
C500 C 0.52063 0.30406 0.48923 0.0
C501 C 0.48674 0.30121 0.48162 0.0
C502 C 0.48324 0.23315 0.49711 0.0
C503 C 0.44996 0.23184 0.48976 0.0
N504 N 0.37536 0.25159 0.43922 0.0
C505 C 0.36187 0.24441 0.40354 0.0
C506 C 0.34192 0.26511 0.40486 0.0
C507 C 0.33655 0.27623 0.42412 0.0
C508 C 0.35272 0.26843 0.44109 0.0
C509 C 0.3783 0.23821 0.42064 0.0
H510 H 0.34846 0.27801 0.45552 0.0
H511 H 0.39567 0.22496 0.41827 0.0
H512 H 0.48932 0.3281 0.47525 0.0
H513 H 0.42298 0.20334 0.49038 0.0
C514 C 0.37167 0.27636 0.49735 0.0
C515 C 0.459 0.36023 0.44498 0.0
C516 C 0.35546 0.15107 0.4721 0.0
C517 C 0.46757 0.2417 0.43099 0.0
H518 H 0.439 0.4038 0.47258 0.0
H519 H 0.39354 0.3587 0.50229 0.0
H520 H 0.31249 0.20813 0.51837 0.0
H521 H 0.30245 0.13997 0.50377 0.0
H522 H 0.3858 0.1102 0.44967 0.0
H523 H 0.44862 0.15928 0.4282 0.0
H524 H 0.52448 0.31122 0.40871 0.0
H525 H 0.51756 0.37506 0.41572 0.0
H526 H 0.54793 0.33279 0.48847 0.0
H527 H 0.48079 0.20571 0.50289 0.0
H528 H 0.36696 0.23514 0.38912 0.0
H529 H 0.32058 0.29152 0.42606 0.0
C530 C 0.10497 0.4466 0.80266 0.0
C531 C 0.07336 0.43853 0.81455 0.0
C532 C 0.07283 0.41559 0.83023 0.0
C533 C 0.10389 0.41084 0.82704 0.0
N534 N 0.12423 0.42939 0.81036 0.0
Co535 Co 0.17092 0.42908 0.80033 0.0
N536 N 0.16092 0.38333 0.81859 0.0
C537 C 0.13441 0.36828 0.83348 0.0
C538 C 0.13393 0.33767 0.84407 0.0
C539 C 0.1625 0.33337 0.83573 0.0
C540 C 0.17906 0.36187 0.82044 0.0
N541 N 0.21869 0.42968 0.79111 0.0
C542 C 0.23326 0.40579 0.7962 0.0
C543 C 0.26957 0.42022 0.78764 0.0
C544 C 0.27868 0.4548 0.77741 0.0
C545 C 0.24752 0.45964 0.78019 0.0
N546 N 0.17978 0.47383 0.78189 0.0
C547 C 0.2128 0.49813 0.77175 0.0
C548 C 0.21042 0.52595 0.75997 0.0
C549 C 0.17352 0.51873 0.76289 0.0
C550 C 0.15539 0.48682 0.77632 0.0
N551 N 0.20369 0.46968 0.82095 0.0
C552 C 0.266 0.53747 0.84041 0.0
C553 C 0.2356 0.53979 0.83147 0.0
C554 C 0.20458 0.50558 0.82215 0.0
C555 C 0.2622 0.49926 0.84109 0.0
C556 C 0.23088 0.46594 0.8315 0.0
N557 N 0.13924 0.39051 0.77867 0.0
C558 C 0.13328 0.37653 0.74301 0.0
C559 C 0.09276 0.35185 0.74436 0.0
C560 C 0.07618 0.34505 0.76361 0.0
C561 C 0.09992 0.364 0.78055 0.0
C562 C 0.15567 0.39551 0.76008 0.0
H563 H 0.08609 0.35847 0.795 0.0
H564 H 0.18617 0.4162 0.75775 0.0
H565 H 0.18255 0.50902 0.81487 0.0
H566 H 0.23035 0.43791 0.83168 0.0
C567 C 0.11011 0.3832 0.83705 0.0
C568 C 0.1161 0.47154 0.78452 0.0
C569 C 0.21581 0.37185 0.81067 0.0
C570 C 0.24331 0.49059 0.77197 0.0
H571 H 0.05245 0.44773 0.81204 0.0
H572 H 0.05114 0.40216 0.84195 0.0
H573 H 0.11554 0.32104 0.85666 0.0
H574 H 0.17136 0.31296 0.8411 0.0
H575 H 0.2881 0.40774 0.78922 0.0
H576 H 0.30507 0.47429 0.76908 0.0
H577 H 0.23248 0.54814 0.75003 0.0
H578 H 0.1614 0.53519 0.75607 0.0
H579 H 0.23623 0.56816 0.83116 0.0
H580 H 0.28444 0.49539 0.84798 0.0
H581 H 0.14769 0.38308 0.72859 0.0
H582 H 0.04503 0.32565 0.76555 0.0
C583 C 0.80425 0.16545 0.05405 0.0
C584 C 0.81764 0.17807 0.03463 0.0
C585 C 0.83415 0.21928 0.03425 0.0
C586 C 0.82946 0.22967 0.05322 0.0
N587 N 0.81119 0.19752 0.06554 0.0
Co588 Co 0.7949 0.19855 0.09348 0.0
N589 N 0.79703 0.25048 0.08903 0.0
C590 C 0.81635 0.27675 0.07406 0.0
C591 C 0.81437 0.31108 0.075 0.0
C592 C 0.79289 0.30646 0.09177 0.0
C593 C 0.78283 0.2693 0.10019 0.0
N594 N 0.77965 0.20016 0.1216 0.0
C595 C 0.76766 0.22367 0.13033 0.0
C596 C 0.76174 0.21561 0.15071 0.0
C597 C 0.7711 0.18677 0.1548 0.0
C598 C 0.78213 0.17863 0.13678 0.0
N599 N 0.79206 0.14629 0.09725 0.0
C600 C 0.79245 0.12989 0.11492 0.0
C601 C 0.78722 0.09192 0.11271 0.0
C602 C 0.78312 0.08419 0.09241 0.0
C603 C 0.78593 0.11785 0.0833 0.0
N604 N 0.85025 0.22872 0.10249 0.0
C605 C 0.92402 0.26345 0.12199 0.0
C606 C 0.9118 0.23231 0.10759 0.0
C607 C 0.87511 0.21549 0.09809 0.0
C608 C 0.89864 0.27763 0.12549 0.0
C609 C 0.86269 0.26047 0.11558 0.0
N610 N 0.73946 0.16733 0.08545 0.0
C611 C 0.6749 0.11149 0.09301 0.0
C612 C 0.66129 0.11259 0.07383 0.0
C613 C 0.68772 0.14371 0.06087 0.0
C614 C 0.72647 0.17104 0.06707 0.0
C615 C 0.71357 0.13806 0.09827 0.0
H616 H 0.74617 0.19427 0.05677 0.0
H617 H 0.72253 0.13365 0.11271 0.0
H618 H 0.86634 0.19088 0.08763 0.0
H619 H 0.8442 0.27195 0.11937 0.0
C620 C 0.832 0.26607 0.05824 0.0
C621 C 0.78518 0.12328 0.06138 0.0
C622 C 0.76473 0.25592 0.12007 0.0
C623 C 0.78907 0.14702 0.13286 0.0
H624 H 0.8148 0.15988 0.02174 0.0
H625 H 0.84519 0.23875 0.02122 0.0
H626 H 0.82667 0.33627 0.06461 0.0
H627 H 0.78658 0.32866 0.09747 0.0
H628 H 0.75213 0.22945 0.16151 0.0
H629 H 0.76902 0.17265 0.16913 0.0
H630 H 0.78445 0.0713 0.12447 0.0
H631 H 0.77832 0.05691 0.08514 0.0
H632 H 0.93018 0.22052 0.10372 0.0
H633 H 0.90549 0.30098 0.13648 0.0
H634 H 0.65598 0.08978 0.10414 0.0
H635 H 0.67906 0.14649 0.04591 0.0
C636 C 0.30555 0.73128 0.12173 0.0
C637 C 0.27486 0.73541 0.12862 0.0
C638 C 0.31084 0.70008 0.12889 0.0
C639 C 0.28457 0.67193 0.14318 0.0
C640 C 0.25392 0.67655 0.15044 0.0
C641 C 0.24937 0.70805 0.14303 0.0
C642 C 0.34391 0.69653 0.1207 0.0
C643 C 0.22511 0.64739 0.1656 0.0
C644 C 0.27055 0.56605 0.14653 0.0
C645 C 0.292 0.56893 0.16375 0.0
C646 C 0.26836 0.59932 0.13957 0.0
C647 C 0.28813 0.63678 0.14997 0.0
C648 C 0.31049 0.6402 0.1671 0.0
C649 C 0.31212 0.60642 0.17376 0.0
C650 C 0.24429 0.59414 0.12121 0.0
C651 C 0.33204 0.67939 0.1787 0.0
H652 H 0.32486 0.75194 0.11032 0.0
H653 H 0.22505 0.71055 0.14804 0.0
H654 H 0.36176 0.69573 0.13315 0.0
H655 H 0.33209 0.66769 0.11229 0.0
H656 H 0.36306 0.72202 0.11054 0.0
H657 H 0.20418 0.65627 0.17052 0.0
H658 H 0.2085 0.61654 0.15903 0.0
H659 H 0.24063 0.64569 0.17894 0.0
H660 H 0.25529 0.53763 0.13843 0.0
H661 H 0.32829 0.60913 0.18724 0.0
H662 H 0.26248 0.61705 0.10974 0.0
H663 H 0.22036 0.59922 0.12517 0.0
H664 H 0.23144 0.56349 0.11449 0.0
H665 H 0.35177 0.7046 0.16857 0.0
H666 H 0.34948 0.67782 0.19117 0.0
H667 H 0.311 0.68688 0.18499 0.0
C668 C 0.69949 0.24437 0.52725 0.0
C669 C 0.73317 0.26965 0.51609 0.0
C670 C 0.66514 0.2451 0.52454 0.0
C671 C 0.66388 0.27094 0.50987 0.0
C672 C 0.69777 0.29623 0.49837 0.0
C673 C 0.73216 0.29577 0.50184 0.0
C674 C 0.63026 0.21843 0.53753 0.0
C675 C 0.69754 0.32342 0.4822 0.0
C676 C 0.56312 0.24151 0.49037 0.0
C677 C 0.55622 0.26941 0.5001 0.0
C678 C 0.59817 0.24219 0.49313 0.0
C679 C 0.6269 0.27083 0.50635 0.0
C680 C 0.61986 0.29879 0.51643 0.0
C681 C 0.58492 0.29815 0.51295 0.0
C682 C 0.60462 0.21247 0.48167 0.0
C683 C 0.64908 0.32912 0.53105 0.0
H684 H 0.70033 0.22456 0.53849 0.0
H685 H 0.75814 0.31536 0.4932 0.0
H686 H 0.62077 0.23713 0.54542 0.0
H687 H 0.60557 0.19635 0.52809 0.0
H688 H 0.63644 0.20142 0.54885 0.0
H689 H 0.7259 0.34054 0.47427 0.0
H690 H 0.67446 0.30505 0.47109 0.0
H691 H 0.6907 0.34536 0.48878 0.0
H692 H 0.54133 0.21965 0.48017 0.0
H693 H 0.57975 0.31976 0.5205 0.0
H694 H 0.60817 0.19248 0.49225 0.0
H695 H 0.63184 0.22904 0.47278 0.0
H696 H 0.58015 0.19321 0.47137 0.0
H697 H 0.65484 0.31307 0.54308 0.0
H698 H 0.63895 0.34815 0.53803 0.0
H699 H 0.67712 0.34926 0.52334 0.0
C700 C 0.48337 0.71598 0.8684 0.0
C701 C 0.48447 0.74348 0.8825 0.0
C702 C 0.44775 0.68449 0.86061 0.0
C703 C 0.41214 0.67998 0.8672 0.0
C704 C 0.4133 0.70869 0.8809 0.0
C705 C 0.44936 0.73994 0.88839 0.0
C706 C 0.44818 0.65486 0.84604 0.0
C707 C 0.37632 0.70527 0.8884 0.0
C708 C 0.31914 0.61134 0.83722 0.0
C709 C 0.30225 0.57469 0.84797 0.0
C710 C 0.35452 0.64578 0.84334 0.0
C711 C 0.3738 0.64395 0.86072 0.0
C712 C 0.35663 0.6073 0.87182 0.0
C713 C 0.3213 0.57329 0.86533 0.0
C714 C 0.37167 0.68398 0.83096 0.0
C715 C 0.37584 0.60386 0.89052 0.0
H716 H 0.51035 0.71795 0.8642 0.0
H717 H 0.45006 0.76062 0.8996 0.0
H718 H 0.43504 0.6246 0.85319 0.0
H719 H 0.43039 0.65151 0.83266 0.0
H720 H 0.47813 0.66441 0.84109 0.0
H721 H 0.38214 0.73168 0.89772 0.0
H722 H 0.35752 0.70269 0.87563 0.0
H723 H 0.35974 0.67735 0.89753 0.0
H724 H 0.30524 0.61283 0.82362 0.0
H725 H 0.30853 0.54548 0.87394 0.0
H726 H 0.40044 0.69152 0.82499 0.0
H727 H 0.37654 0.70979 0.84044 0.0
H728 H 0.35267 0.68104 0.81818 0.0
H729 H 0.40502 0.60919 0.8868 0.0
H730 H 0.35848 0.57366 0.89774 0.0
H731 H 0.38015 0.62743 0.90148 0.0
C732 C 0.72084 0.41467 0.17667 0.0
C733 C 0.74106 0.45168 0.16625 0.0
C734 C 0.72187 0.38034 0.17037 0.0
C735 C 0.74356 0.38267 0.15315 0.0
C736 C 0.76348 0.41968 0.14236 0.0
C737 C 0.76205 0.45357 0.14901 0.0
C738 C 0.70033 0.34173 0.18242 0.0
C739 C 0.78676 0.42367 0.12384 0.0
C740 C 0.78116 0.31054 0.14561 0.0
C741 C 0.75519 0.28338 0.13128 0.0
C742 C 0.77688 0.34197 0.15339 0.0
C743 C 0.7461 0.3468 0.14654 0.0
C744 C 0.71905 0.31851 0.13256 0.0
C745 C 0.72398 0.28729 0.12508 0.0
C746 C 0.80639 0.37115 0.16828 0.0
C747 C 0.68587 0.32231 0.12477 0.0
H748 H 0.70504 0.41279 0.19017 0.0
H749 H 0.77744 0.48167 0.14065 0.0
H750 H 0.6798 0.31626 0.17265 0.0
H751 H 0.72128 0.33393 0.18854 0.0
H752 H 0.68376 0.34428 0.19506 0.0
H753 H 0.79983 0.45409 0.11682 0.0
H754 H 0.81047 0.41819 0.12771 0.0
H755 H 0.76792 0.40044 0.11264 0.0
H756 H 0.80589 0.30828 0.15005 0.0
H757 H 0.70436 0.26687 0.1137 0.0
H758 H 0.7915 0.37407 0.18158 0.0
H759 H 0.82368 0.40164 0.16138 0.0
H760 H 0.82666 0.36147 0.17331 0.0
H761 H 0.66913 0.32446 0.13741 0.0
H762 H 0.6657 0.29627 0.11515 0.0
H763 H 0.6976 0.35058 0.11588 0.0
C764 C 0.47158 0.77653 0.51532 0.0
C765 C 0.4738 0.75135 0.50083 0.0
C766 C 0.43704 0.77692 0.51834 0.0
C767 C 0.40342 0.75116 0.50682 0.0
C768 C 0.4052 0.72524 0.49242 0.0
C769 C 0.44021 0.72587 0.48951 0.0
C770 C 0.43664 0.80524 0.53378 0.0
C771 C 0.37011 0.69697 0.47991 0.0
C772 C 0.30431 0.72595 0.52713 0.0
C773 C 0.29625 0.75154 0.51584 0.0
C774 C 0.33865 0.72525 0.52421 0.0
C775 C 0.36637 0.7512 0.50984 0.0
C776 C 0.35856 0.77708 0.49835 0.0
C777 C 0.32367 0.77676 0.50138 0.0
C778 C 0.34542 0.69687 0.53669 0.0
C779 C 0.3873 0.80543 0.48294 0.0
H780 H 0.49687 0.79603 0.52439 0.0
H781 H 0.44138 0.70689 0.47793 0.0
H782 H 0.42883 0.82595 0.52657 0.0
H783 H 0.41418 0.78765 0.54529 0.0
H784 H 0.46522 0.82375 0.54136 0.0
H785 H 0.37577 0.67777 0.46979 0.0
H786 H 0.34519 0.67692 0.48978 0.0
H787 H 0.36125 0.71474 0.4707 0.0
H788 H 0.28415 0.70694 0.53869 0.0
H789 H 0.31792 0.79635 0.49233 0.0
H790 H 0.37201 0.71454 0.54592 0.0
H791 H 0.3503 0.67683 0.52681 0.0
H792 H 0.32056 0.67766 0.5468 0.0
H793 H 0.41578 0.82606 0.49017 0.0
H794 H 0.37727 0.82403 0.47538 0.0
H795 H 0.39218 0.78786 0.47141 0.0
C796 C 0.58336 0.28795 0.89361 0.0
C797 C 0.54846 0.28337 0.88654 0.0
C798 C 0.61974 0.31915 0.88639 0.0
C799 C 0.62143 0.34686 0.87186 0.0
C800 C 0.58608 0.34164 0.86435 0.0
C801 C 0.55014 0.31013 0.87182 0.0
C802 C 0.65643 0.32329 0.89483 0.0
C803 C 0.58622 0.37033 0.84896 0.0
C804 C 0.71222 0.4534 0.86876 0.0
C805 C 0.73144 0.45084 0.85174 0.0
C806 C 0.67688 0.41983 0.87556 0.0
C807 C 0.65998 0.38235 0.86521 0.0
C808 C 0.67958 0.37925 0.84829 0.0
C809 C 0.71485 0.41334 0.84177 0.0
C810 C 0.65727 0.42469 0.89371 0.0
C811 C 0.66281 0.34005 0.83676 0.0
H812 H 0.58215 0.26777 0.90527 0.0
H813 H 0.52326 0.30729 0.86667 0.0
H814 H 0.67556 0.32456 0.88252 0.0
H815 H 0.67283 0.35209 0.90332 0.0
H816 H 0.65028 0.29783 0.90498 0.0
H817 H 0.55643 0.36082 0.84375 0.0
H818 H 0.59972 0.4012 0.85544 0.0
H819 H 0.60399 0.37229 0.83581 0.0
H820 H 0.72476 0.48183 0.87682 0.0
H821 H 0.72883 0.41086 0.82844 0.0
H822 H 0.65272 0.402 0.90528 0.0
H823 H 0.62816 0.41903 0.88951 0.0
H824 H 0.67446 0.45544 0.9004 0.0
H825 H 0.68228 0.34191 0.82446 0.0
H826 H 0.63432 0.33208 0.83023 0.0
H827 H 0.65749 0.31502 0.84698 0.0
C828 C 0.58632 0.50294 0.22617 0.0
C829 C 0.61609 0.53525 0.23708 0.0
C830 C 0.54727 0.49284 0.22774 0.0
C831 C 0.53737 0.51525 0.24073 0.0
C832 C 0.56713 0.54641 0.25265 0.0
C833 C 0.60611 0.55634 0.2505 0.0
C834 C 0.51699 0.45979 0.2145 0.0
C835 C 0.55816 0.57067 0.26697 0.0
C836 C 0.44813 0.51991 0.22492 0.0
C837 C 0.41815 0.48833 0.23608 0.0
C838 C 0.48709 0.5299 0.22684 0.0
C839 C 0.49669 0.50816 0.24046 0.0
C840 C 0.4667 0.47776 0.25261 0.0
C841 C 0.42781 0.46791 0.2501 0.0
C842 C 0.51763 0.56212 0.21335 0.0
C843 C 0.47535 0.45425 0.26759 0.0
H844 H 0.59405 0.4872 0.21545 0.0
H845 H 0.6291 0.58184 0.25866 0.0
H846 H 0.49178 0.43745 0.22357 0.0
H847 H 0.506 0.47313 0.20354 0.0
H848 H 0.52873 0.44358 0.20613 0.0
H849 H 0.58308 0.58991 0.27704 0.0
H850 H 0.55107 0.5906 0.25838 0.0
H851 H 0.53236 0.55024 0.27624 0.0
H852 H 0.44064 0.53513 0.21376 0.0
H853 H 0.40464 0.44297 0.25848 0.0
H854 H 0.52883 0.54814 0.20294 0.0
H855 H 0.54265 0.58503 0.22233 0.0
H856 H 0.50605 0.57779 0.20438 0.0
H857 H 0.48286 0.43407 0.25956 0.0
H858 H 0.45015 0.43536 0.27757 0.0
H859 H 0.50083 0.47521 0.27692 0.0
C860 C 0.05419 0.60549 0.58911 0.0
C861 C 0.0871 0.6202 0.57676 0.0
C862 C 0.02656 0.56343 0.59076 0.0
C863 C 0.03126 0.53504 0.57948 0.0
C864 C 0.0652 0.54988 0.56745 0.0
C865 C 0.09256 0.59202 0.56628 0.0
C866 C 0.99139 0.54954 0.60394 0.0
C867 C 0.07168 0.52134 0.55497 0.0
C868 C 0.97328 0.42003 0.59022 0.0
C869 C 0.94391 0.40536 0.57562 0.0
C870 C 1.00087 0.46206 0.59222 0.0
C871 C 0.99971 0.4904 0.57907 0.0
C872 C 0.96924 0.4756 0.56471 0.0
C873 C 0.94181 0.43356 0.56323 0.0
C874 C 0.03218 0.47597 0.60794 0.0
C875 C 0.96663 0.50406 0.5502 0.0
H876 H 0.04931 0.62707 0.59691 0.0
H877 H 0.11738 0.60319 0.55635 0.0
H878 H 0.96497 0.53764 0.5945 0.0
H879 H 0.98719 0.52448 0.61384 0.0
H880 H 0.99391 0.57449 0.61338 0.0
H881 H 0.10041 0.5371 0.54734 0.0
H882 H 0.06977 0.49681 0.56448 0.0
H883 H 0.04854 0.5068 0.54344 0.0
H884 H 0.97554 0.39844 0.59961 0.0
H885 H 0.91968 0.42241 0.55167 0.0
H886 H 0.03368 0.50089 0.61695 0.0
H887 H 0.06088 0.48812 0.60058 0.0
H888 H 0.02717 0.451 0.61816 0.0
H889 H 0.96605 0.52867 0.55845 0.0
H890 H 0.94036 0.48828 0.54055 0.0
H891 H 0.9928 0.51851 0.54045 0.0
C892 C 0.52704 0.09838 0.94649 0.0
C893 C 0.48877 0.08837 0.95022 0.0
C894 C 0.5377 0.06895 0.94791 0.0
C895 C 0.50938 0.02839 0.95313 0.0
C896 C 0.47129 0.01894 0.95821 0.0
C897 C 0.46138 0.04891 0.95651 0.0
C898 C 0.57864 0.08066 0.94239 0.0
C899 C 0.44018 0.97648 0.9641 0.0
C900 C 0.52194 0.94659 0.92859 0.0
C901 C 0.53886 0.93578 0.94387 0.0
C902 C 0.51163 0.97587 0.93161 0.0
C903 C 0.51812 0.99516 0.95048 0.0
C904 C 0.53401 0.9835 0.96625 0.0
C905 C 0.54402 0.95385 0.96279 0.0
C906 C 0.49473 0.98697 0.91431 0.0
C907 C 0.54118 1.00298 0.98663 0.0
H908 H 0.54808 0.12867 0.9413 0.0
H909 H 0.43161 0.04095 0.95914 0.0
H910 H 0.5907 0.06909 0.95369 0.0
H911 H 0.57828 0.06671 0.9278 0.0
H912 H 0.59834 0.11402 0.9411 0.0
H913 H 0.4141 0.97537 0.97045 0.0
H914 H 0.43109 0.95656 0.95072 0.0
H915 H 0.45158 0.96396 0.97527 0.0
H916 H 0.51726 0.93246 0.914 0.0
H917 H 0.55723 0.94595 0.97469 0.0
H918 H 0.51426 0.01944 0.91047 0.0
H919 H 0.46618 0.98267 0.91861 0.0
H920 H 0.49064 0.96855 0.90072 0.0
H921 H 0.55994 0.03639 0.98529 0.0
H922 H 0.55531 0.99203 0.99703 0.0
H923 H 0.51318 0.99638 0.99325 0.0
C924 C 0.52185 0.59167 0.45375 0.0
C925 C 0.55056 0.6195 0.44056 0.0
C926 C 0.50702 0.54957 0.45227 0.0
C927 C 0.52079 0.53433 0.43709 0.0
C928 C 0.54854 0.56227 0.42316 0.0
C929 C 0.56327 0.60438 0.42516 0.0
C930 C 0.47787 0.52155 0.46763 0.0
C931 C 0.5638 0.54785 0.40654 0.0
C932 C 0.51366 0.43305 0.44891 0.0
C933 C 0.47872 0.40458 0.43952 0.0
C934 C 0.52828 0.47517 0.44764 0.0
C935 C 0.50769 0.48966 0.43663 0.0
C936 C 0.47321 0.46095 0.4264 0.0
C937 C 0.459 0.41894 0.42814 0.0
C938 C 0.56483 0.50407 0.459 0.0
C939 C 0.4503 0.47445 0.41428 0.0
H940 H 0.51237 0.60316 0.46589 0.0
H941 H 0.58585 0.62568 0.41511 0.0
H942 H 0.45169 0.49677 0.46009 0.0
H943 H 0.49075 0.5073 0.47666 0.0
H944 H 0.46867 0.53764 0.47792 0.0
H945 H 0.5822 0.57246 0.3958 0.0
H946 H 0.58143 0.53608 0.413 0.0
H947 H 0.53929 0.52256 0.39825 0.0
H948 H 0.52854 0.42217 0.45813 0.0
H949 H 0.43156 0.39713 0.4212 0.0
H950 H 0.55777 0.51902 0.47105 0.0
H951 H 0.58613 0.52825 0.44889 0.0
H952 H 0.57874 0.48852 0.46588 0.0
H953 H 0.4369 0.48652 0.42446 0.0
H954 H 0.42682 0.44923 0.40542 0.0
H955 H 0.46983 0.49928 0.40393 0.0
C956 C 0.93827 0.50283 0.79112 0.0
C957 C 0.93917 0.53385 0.77974 0.0
C958 C 0.96736 0.493 0.78909 0.0
C959 C 0.99808 0.51426 0.7751 0.0
C960 C 0.99772 0.54399 0.76272 0.0
C961 C 0.96861 0.55375 0.76536 0.0
C962 C 0.96651 0.46154 0.80285 0.0
C963 C 0.02915 0.56691 0.74733 0.0
C964 C 0.09391 0.52109 0.78884 0.0
C965 C 0.09121 0.48826 0.77834 0.0
C966 C 0.06465 0.5308 0.7873 0.0
C967 C 0.0319 0.50751 0.77472 0.0
C968 C 0.03037 0.47585 0.76314 0.0
C969 C 0.05971 0.46629 0.76528 0.0
C970 C 0.06759 0.56438 0.8002 0.0
C971 C 0.99671 0.45067 0.74921 0.0
H972 H 0.91603 0.48797 0.80253 0.0
H973 H 0.96984 0.57821 0.75677 0.0
H974 H 0.96847 0.43831 0.79405 0.0
H975 H 0.99209 0.47615 0.81299 0.0
H976 H 0.93968 0.44615 0.81212 0.0
H977 H 0.02206 0.58491 0.73714 0.0
H978 H 0.05701 0.58787 0.755 0.0
H979 H 0.03372 0.54566 0.73825 0.0
H980 H 0.11772 0.53752 0.79929 0.0
H981 H 0.05708 0.4404 0.75744 0.0
H982 H 0.0437 0.55145 0.81139 0.0
H983 H 0.06418 0.58615 0.79092 0.0
H984 H 0.0958 0.58116 0.80828 0.0
H985 H 0.97009 0.43106 0.75811 0.0
H986 H 1.00224 0.43103 0.73933 0.0
H987 H 0.99081 0.4705 0.73974 0.0
C988 C 0.43506 0.93355 0.05449 0.0
C989 C 0.41408 0.94179 0.06858 0.0
C990 C 0.47511 0.96135 0.05097 0.0
C991 C 0.49517 0.9979 0.0622 0.0
C992 C 0.47366 1.00717 0.07566 0.0
C993 C 0.43357 0.97978 0.07821 0.0
C994 C 0.49577 0.95016 0.03583 0.0
C995 C 0.49342 0.04495 0.08846 0.0
C996 C 0.60129 0.04247 0.07697 0.0
C997 C 0.61993 0.08118 0.06804 0.0
C998 C 0.56122 0.01467 0.07459 0.0
C999 C 0.53891 0.02435 0.06198 0.0
C1000 C 0.55817 0.06127 0.05107 0.0
C1001 C 0.59813 0.0896 0.05454 0.0
C1002 C 0.54247 0.97552 0.08631 0.0
C1003 C 0.53634 0.07112 0.03601 0.0
H1004 H 0.42074 0.90476 0.04669 0.0
H1005 H 0.4177 0.98782 0.0884 0.0
H1006 H 0.52427 0.97643 0.03121 0.0
H1007 H 0.50055 0.92664 0.04232 0.0
H1008 H 0.47735 0.93682 0.02229 0.0
H1009 H 0.47264 0.04763 0.09834 0.0
H1010 H 0.51588 0.04464 0.098 0.0
H1011 H 0.5084 0.07232 0.07888 0.0
H1012 H 0.61778 0.03395 0.0864 0.0
H1013 H 0.61177 0.11873 0.04709 0.0
H1014 H 0.52933 0.94942 0.07585 0.0
H1015 H 0.51873 0.9731 0.09584 0.0
H1016 H 0.56356 0.9731 0.09606 0.0
H1017 H 0.51807 0.04441 0.02633 0.0
H1018 H 0.55633 0.09723 0.02637 0.0
H1019 H 0.51659 0.07861 0.04388 0.0
C1020 C 0.25933 0.32289 0.3071 0.0
C1021 C 0.28672 0.33743 0.29144 0.0
C1022 C 0.26674 0.31034 0.3256 0.0
C1023 C 0.30276 0.3128 0.32889 0.0
C1024 C 0.33048 0.32725 0.31309 0.0
C1025 C 0.32205 0.33902 0.29461 0.0
C1026 C 0.23593 0.29457 0.34171 0.0
C1027 C 0.36946 0.33101 0.31583 0.0
C1028 C 0.33686 0.31614 0.38317 0.0
C1029 C 0.32903 0.27653 0.38606 0.0
C1030 C 0.32855 0.32832 0.36477 0.0
C1031 C 0.31135 0.30016 0.34877 0.0
C1032 C 0.30249 0.25986 0.35181 0.0
C1033 C 0.31164 0.2487 0.37023 0.0
C1034 C 0.33906 0.37169 0.3623 0.0
C1035 C 0.2836 0.22847 0.33549 0.0
H1036 H 0.23183 0.32119 0.30487 0.0
H1037 H 0.34372 0.35072 0.28281 0.0
H1038 H 0.22823 0.26363 0.34626 0.0
H1039 H 0.24737 0.31415 0.35518 0.0
H1040 H 0.20907 0.2935 0.33672 0.0
H1041 H 0.38806 0.34314 0.30226 0.0
H1042 H 0.38509 0.35138 0.32864 0.0
H1043 H 0.3653 0.30097 0.31943 0.0
H1044 H 0.35081 0.33814 0.39509 0.0
H1045 H 0.30521 0.21797 0.37224 0.0
H1046 H 0.31274 0.37268 0.35846 0.0
H1047 H 0.35993 0.386 0.34974 0.0
H1048 H 0.3523 0.38996 0.37606 0.0
H1049 H 0.25598 0.22591 0.33071 0.0
H1050 H 0.27729 0.19813 0.34035 0.0
H1051 H 0.30292 0.23795 0.32219 0.0
C1052 C 0.99741 0.31444 0.63394 0.0
C1053 C 0.96489 0.27528 0.63116 0.0
C1054 C 0.0178 0.32635 0.65236 0.0
C1055 C 1.00596 0.29838 0.6685 0.0
C1056 C 0.97371 0.25853 0.6656 0.0
C1057 C 0.95355 0.24764 0.64715 0.0
C1058 C 0.05161 0.36925 0.65468 0.0
C1059 C 0.96022 0.22735 0.68209 0.0
C1060 C 0.08027 0.31922 0.71007 0.0
C1061 C 0.06864 0.33531 0.72559 0.0
C1062 C 0.05998 0.30669 0.69168 0.0
C1063 C 0.02728 0.31069 0.68835 0.0
C1064 C 1.01513 0.32653 0.70403 0.0
C1065 C 0.03567 0.3383 0.72242 0.0
C1066 C 0.07383 0.28946 0.6757 0.0
C1067 C 0.98084 0.33189 0.70124 0.0
H1068 H 1.00618 0.33632 0.6219 0.0
H1069 H 0.92868 0.21724 0.64522 0.0
H1070 H 0.0458 0.38435 0.66717 0.0
H1071 H 0.07836 0.36912 0.65856 0.0
H1072 H 0.05717 0.38747 0.64085 0.0
H1073 H 0.93542 0.19738 0.67737 0.0
H1074 H 0.98453 0.22354 0.68691 0.0
H1075 H 0.95116 0.23783 0.69532 0.0
H1076 H 0.10547 0.31645 0.71231 0.0
H1077 H 0.02666 0.35119 0.7341 0.0
H1078 H 0.08263 0.30888 0.66215 0.0
H1079 H 0.0498 0.25887 0.67125 0.0
H1080 H 0.09891 0.28712 0.68076 0.0
H1081 H 0.98626 0.35236 0.68838 0.0
H1082 H 0.97502 0.34469 0.71476 0.0
H1083 H 0.95437 0.30231 0.6977 0.0
C1084 C 0.6856 0.96812 0.9686 0.0
C1085 C 0.69343 0.93672 0.9683 0.0
C1086 C 0.70151 0.99861 0.98354 0.0
C1087 C 0.72453 0.99684 0.99928 0.0
C1088 C 0.73298 0.96538 0.99871 0.0
C1089 C 0.71885 0.93712 0.98284 0.0
C1090 C 0.69289 0.03218 0.98232 0.0
C1091 C 0.75634 0.96039 0.01492 0.0
C1092 C 0.79507 0.0869 0.03249 0.0
C1093 C 0.77034 0.08827 0.04688 0.0
C1094 C 0.78053 0.05858 0.01666 0.0
C1095 C 0.74038 0.028 0.01598 0.0
C1096 C 0.71578 0.02716 0.03159 0.0
C1097 C 0.73084 0.05772 0.04649 0.0
C1098 C 0.80872 0.06254 1.00058 0.0
C1099 C 0.6733 0.99449 0.03265 0.0
H1100 H 0.66649 0.96857 0.95728 0.0
H1101 H 0.72652 0.91406 0.98231 0.0
H1102 H 0.6645 0.02205 0.98962 0.0
H1103 H 0.71557 0.06038 0.98974 0.0
H1104 H 0.69035 0.03925 0.96646 0.0
H1105 H 0.74566 0.92781 0.01744 0.0
H1106 H 0.7871 0.97506 0.01004 0.0
H1107 H 0.75525 0.97389 0.02939 0.0
H1108 H 0.82595 0.10928 0.0331 0.0
H1109 H 0.71149 0.05806 0.0577 0.0
H1110 H 0.79416 0.04932 0.98608 0.0
H1111 H 0.82395 0.04701 1.0056 0.0
H1112 H 0.83132 0.0949 0.99808 0.0
H1113 H 0.65596 1.00469 0.02442 0.0
H1114 H 0.66285 0.98872 0.04841 0.0
H1115 H 0.66757 0.96556 0.02598 0.0
C1116 C 0.73426 0.7514 0.382 0.0
C1117 C 0.69783 0.74776 0.38437 0.0
C1118 C 0.74456 0.74008 0.36391 0.0
C1119 C 0.7178 0.72431 0.34769 0.0
C1120 C 0.68092 0.72024 0.35009 0.0
C1121 C 0.67147 0.73189 0.36823 0.0
C1122 C 0.78419 0.74503 0.36215 0.0
C1123 C 0.65107 0.70314 0.3335 0.0
C1124 C 0.75253 0.72375 0.29391 0.0
C1125 C 0.74395 0.68368 0.29183 0.0
C1126 C 0.74475 0.73753 0.31198 0.0
C1127 C 0.72761 0.71068 0.32848 0.0
C1128 C 0.71854 0.67015 0.32637 0.0
C1129 C 0.72674 0.65728 0.30824 0.0
C1130 C 0.75495 0.78095 0.31342 0.0
C1131 C 0.69978 0.64009 0.34327 0.0
H1132 H 0.75504 0.76372 0.39419 0.0
H1133 H 0.64289 0.72793 0.36987 0.0
H1134 H 0.78103 0.71514 0.35936 0.0
H1135 H 0.80003 0.76471 0.34916 0.0
H1136 H 0.80206 0.75845 0.37584 0.0
H1137 H 0.62401 0.70263 0.33749 0.0
H1138 H 0.66335 0.72139 0.31967 0.0
H1139 H 0.64342 0.67176 0.32997 0.0
H1140 H 0.76597 0.74462 0.28151 0.0
H1141 H 0.71909 0.62603 0.30684 0.0
H1142 H 0.77512 0.79618 0.32616 0.0
H1143 H 0.72832 0.78191 0.31643 0.0
H1144 H 0.76879 0.79833 0.29951 0.0
H1145 H 0.71819 0.65156 0.35689 0.0
H1146 H 0.69517 0.60989 0.33947 0.0
H1147 H 0.67122 0.63634 0.34705 0.0
C1148 C 0.07945 0.73133 0.64862 0.0
C1149 C 0.06874 0.74711 0.63252 0.0
C1150 C 0.05844 0.71953 0.66679 0.0
C1151 C 0.02546 0.72332 0.66925 0.0
C1152 C 1.01425 0.73898 0.65306 0.0
C1153 C 0.03579 0.75046 0.63495 0.0
C1154 C 0.07143 0.70256 0.68334 0.0
C1155 C 0.97939 0.74364 0.65488 0.0
C1156 C 0.94994 0.65596 0.70878 0.0
C1157 C 0.95902 0.68233 0.72519 0.0
C1158 C 0.97091 0.66895 0.69062 0.0
C1159 C 1.00215 0.70956 0.68849 0.0
C1160 C 1.01173 0.73636 0.705 0.0
C1161 C 0.99029 0.72247 0.72309 0.0
C1162 C 0.95974 0.63892 0.67371 0.0
C1163 C 0.0447 0.77987 0.70353 0.0
H1164 H 0.1042 0.72758 0.64695 0.0
H1165 H 0.02715 0.7627 0.62279 0.0
H1166 H 0.07734 0.72077 0.69717 0.0
H1167 H 0.0479 0.67112 0.68688 0.0
H1168 H 0.09806 0.70223 0.6793 0.0
H1169 H 0.97476 0.75699 0.64121 0.0
H1170 H 0.95283 0.71366 0.65769 0.0
H1171 H 0.98313 0.76326 0.66788 0.0
H1172 H 0.92652 0.62466 0.71019 0.0
H1173 H 0.99762 0.74332 0.73549 0.0
H1174 H 0.98466 0.63537 0.66989 0.0
H1175 H 0.95263 0.65031 0.66011 0.0
H1176 H 0.93434 0.60864 0.67753 0.0
H1177 H 0.07238 0.78103 0.70048 0.0
H1178 H 0.04817 0.79721 0.71745 0.0
H1179 H 0.03957 0.79502 0.69082 0.0
C1180 C 0.26891 0.97471 0.04976 0.0
C1181 C 0.27474 0.94188 0.05044 0.0
C1182 C 0.28428 1.00346 0.03401 0.0
C1183 C 0.30409 0.99824 0.01774 0.0
C1184 C 0.30977 0.96495 0.01828 0.0
C1185 C 0.29578 0.93789 0.03468 0.0
C1186 C 0.27849 0.03904 0.03461 0.0
C1187 C 0.32909 0.95674 1.00108 0.0
C1188 C 0.30503 0.04993 0.96818 0.0
C1189 C 0.34368 0.08256 0.96704 0.0
C1190 C 0.29228 0.02149 0.98405 0.0
C1191 C 0.31799 0.02686 0.99998 0.0
C1192 C 0.3569 0.06008 0.99903 0.0
C1193 C 0.36932 0.08682 0.98251 0.0
C1194 C 0.25091 0.986 0.98389 0.0
C1195 C 0.38514 0.06844 0.01587 0.0
H1196 H 0.251 0.97723 0.06105 0.0
H1197 H 0.29994 0.91232 0.03478 0.0
H1198 H 0.30602 0.06752 0.03087 0.0
H1199 H 0.25649 0.0348 0.02331 0.0
H1200 H 0.26839 0.04253 0.04955 0.0
H1201 H 0.33143 0.92968 1.00375 0.0
H1202 H 0.31212 0.95187 0.98716 0.0
H1203 H 0.3587 0.98323 0.99846 0.0
H1204 H 0.28416 0.04729 0.95713 0.0
H1205 H 0.39908 0.11224 0.98203 0.0
H1206 H 0.2338 0.99026 0.99559 0.0
H1207 H 0.25013 0.95747 0.98736 0.0
H1208 H 0.23652 0.98256 0.9692 0.0
H1209 H 0.37337 0.0728 0.03006 0.0
H1210 H 0.4142 0.09581 0.01306 0.0
H1211 H 0.38883 0.04218 0.01809 0.0
C1212 C 0.97811 0.25645 0.13811 0.0
C1213 C 0.96196 0.28039 0.13369 0.0
C1214 C 1.01262 0.27157 0.1496 0.0
C1215 C 0.03174 0.31163 0.15738 0.0
C1216 C 1.01571 0.33596 0.15304 0.0
C1217 C 0.98171 0.32042 0.14118 0.0
C1218 C 0.02868 0.2445 0.15341 0.0
C1219 C 0.0345 0.37866 0.16101 0.0
C1220 C 0.10304 0.33812 0.20167 0.0
C1221 C 0.13952 0.35898 0.19219 0.0
C1222 C 0.06795 0.32324 0.19069 0.0
C1223 C 0.06896 0.32845 0.16955 0.0
C1224 C 0.10582 0.34984 0.15999 0.0
C1225 C 0.14032 0.3651 0.17136 0.0
C1226 C 0.02968 0.30153 0.20173 0.0
C1227 C 0.10892 0.3559 0.13759 0.0
H1228 H 0.96349 0.2254 0.1329 0.0
H1229 H 0.97084 0.34013 0.13769 0.0
H1230 H 0.05913 0.25938 0.14794 0.0
H1231 H 0.02925 0.23955 0.16974 0.0
H1232 H 1.01127 0.21457 0.14595 0.0
H1233 H 0.01765 0.39318 0.1572 0.0
H1234 H 0.03735 0.37858 0.17754 0.0
H1235 H 0.06428 0.39747 0.15479 0.0
H1236 H 0.10191 0.33289 0.21767 0.0
H1237 H 0.16822 0.38115 0.16381 0.0
H1238 H 1.01223 0.26966 0.19654 0.0
H1239 H 1.01264 0.31603 0.19841 0.0
H1240 H 0.03365 0.30162 0.2182 0.0
H1241 H 0.09347 0.32604 0.12995 0.0
H1242 H 0.1396 0.3729 0.13235 0.0
H1243 H 0.09466 0.37264 0.13291 0.0
C1244 C 0.7724 0.10632 0.51541 0.0
C1245 C 0.78811 0.10945 0.53463 0.0
C1246 C 0.75241 0.06894 0.50489 0.0
C1247 C 0.74783 0.03305 0.51355 0.0
C1248 C 0.76303 0.03597 0.53317 0.0
C1249 C 0.78281 0.07382 0.54339 0.0
C1250 C 0.73692 0.0681 0.48421 0.0
C1251 C 0.75926 0.99914 0.54323 0.0
C1252 C 0.67043 0.92709 0.49292 0.0
C1253 C 0.69253 0.91664 0.48079 0.0
C1254 C 0.68769 0.96467 0.50333 0.0
C1255 C 0.72842 0.99305 0.50189 0.0
C1256 C 0.75066 0.98285 0.48933 0.0
C1257 C 0.7326 0.9452 0.479 0.0
C1258 C 0.66231 0.97364 0.51624 0.0
C1259 C 0.79396 1.01144 0.48712 0.0
H1260 H 0.77655 0.13357 0.50835 0.0
H1261 H 0.79513 0.07578 0.55808 0.0
H1262 H 0.75215 0.05989 0.47307 0.0
H1263 H 0.70551 0.04459 0.48341 0.0
H1264 H 0.74081 0.09778 0.47992 0.0
H1265 H 0.77116 1.00569 0.5587 0.0
H1266 H 0.72824 0.97446 0.54382 0.0
H1267 H 0.77498 0.98778 0.53435 0.0
H1268 H 0.63961 0.90527 0.4947 0.0
H1269 H 0.75014 0.93748 0.46989 0.0
H1270 H 0.66565 1.00295 0.51176 0.0
H1271 H 0.67163 0.97662 0.53211 0.0
H1272 H 0.63106 0.94956 0.51522 0.0
H1273 H 0.80014 0.0414 0.48174 0.0
H1274 H 0.80719 0.99981 0.47653 0.0
H1275 H 0.80828 0.01631 0.50192 0.0
C1276 C 0.80071 0.70631 0.81949 0.0
C1277 C 0.78993 0.66553 0.82132 0.0
C1278 C 0.78184 0.72245 0.83062 0.0
C1279 C 0.75091 0.69727 0.8439 0.0
C1280 C 0.73918 0.6557 0.8453 0.0
C1281 C 0.75883 0.64049 0.83414 0.0
C1282 C 0.79578 0.76685 0.82855 0.0
C1283 C 0.70624 0.62731 0.85894 0.0
C1284 C 0.7253 0.74556 0.88735 0.0
C1285 C 0.69288 0.74628 0.87988 0.0
C1286 C 0.74442 0.73006 0.87588 0.0
C1287 C 0.73102 0.71437 0.85633 0.0
C1288 C 0.69849 0.71508 0.84868 0.0
C1289 C 0.68022 0.73113 0.86035 0.0
C1290 C 0.77907 0.73037 0.88475 0.0
C1291 C 0.68281 0.69879 0.82805 0.0
H1292 H 0.82491 0.72599 0.80979 0.0
H1293 H 0.75051 0.60908 0.83586 0.0
H1294 H 0.7713 0.77064 0.82407 0.0
H1295 H 0.80658 0.78218 0.84322 0.0
H1296 H 0.81949 0.78228 0.81734 0.0
H1297 H 0.69952 0.5956 0.85782 0.0
H1298 H 0.71386 0.63752 0.87469 0.0
H1299 H 0.67963 0.62785 0.85521 0.0
H1300 H 0.73555 0.75659 0.90235 0.0
H1301 H 0.65606 0.73218 0.8539 0.0
H1302 H 0.8047 0.74729 0.8748 0.0
H1303 H 0.77292 0.69891 0.8859 0.0
H1304 H 0.78668 0.7444 0.89987 0.0
H1305 H 0.70563 0.71602 0.81664 0.0
H1306 H 0.65686 0.70063 0.82432 0.0
H1307 H 0.67477 0.66667 0.82698 0.0
C1308 C 0.92718 0.70813 0.19879 0.0
C1309 C 0.8971 0.66759 0.19632 0.0
C1310 C 0.96239 0.72476 0.18783 0.0
C1311 C 0.96813 0.70041 0.17396 0.0
C1312 C 0.93813 0.65908 0.17185 0.0
C1313 C 0.90317 0.64332 0.18294 0.0
C1314 C 0.99311 0.76884 0.19072 0.0
C1315 C 0.94259 0.63161 0.15749 0.0
C1316 C 0.04276 0.75158 0.13108 0.0
C1317 C 0.07534 0.75074 0.13816 0.0
C1318 C 1.00807 0.73564 0.14251 0.0
C1319 C 1.00525 0.71811 0.16163 0.0
C1320 C 0.03803 0.71743 0.16892 0.0
C1321 C 0.07235 0.73373 0.15727 0.0
C1322 C 0.97419 0.73732 0.134 0.0
C1323 C 0.03688 0.69933 0.18913 0.0
H1324 H 0.9226 0.72724 0.20889 0.0
H1325 H 0.87997 0.61213 0.18072 0.0
H1326 H 0.02118 0.77187 0.19496 0.0
H1327 H 0.99792 0.78547 0.17643 0.0
H1328 H 0.98493 0.78348 0.20245 0.0
H1329 H 0.91736 0.59998 0.158 0.0
H1330 H 0.94567 0.64323 0.14198 0.0
H1331 H 0.96943 0.63137 0.16101 0.0
H1332 H 0.04402 0.7641 0.11639 0.0
H1333 H 0.09718 0.73349 0.16336 0.0
H1334 H 0.9657 0.75375 0.14445 0.0
H1335 H 0.94864 0.70616 0.13235 0.0
H1336 H 0.98097 0.75257 0.11917 0.0
H1337 H 0.0311 0.71564 0.201 0.0
H1338 H 0.06452 0.7007 0.1927 0.0
H1339 H 1.01275 0.66719 0.18958 0.0
C1340 C 0.24958 0.95121 0.54375 0.0
C1341 C 0.24348 0.9155 0.53469 0.0
C1342 C 0.26909 0.98912 0.53356 0.0
C1343 C 0.28317 0.99202 0.51367 0.0
C1344 C 0.27782 0.95605 0.5047 0.0
C1345 C 0.25815 0.91862 0.5152 0.0
C1346 C 0.27376 0.02605 0.54396 0.0
C1347 C 0.2921 0.95686 0.48372 0.0
C1348 C 0.29741 0.08037 0.47979 0.0
C1349 C 0.33766 0.10857 0.48102 0.0
C1350 C 0.2796 0.04269 0.49009 0.0
C1351 C 0.30227 0.0321 0.50207 0.0
C1352 C 0.34313 0.06015 0.50296 0.0
C1353 C 0.36014 0.09775 0.49258 0.0
C1354 C 0.23614 0.01447 0.48848 0.0
C1355 C 0.36894 0.05077 0.51525 0.0
H1356 H 0.23808 0.94929 0.55866 0.0
H1357 H 0.25339 0.89132 0.50792 0.0
H1358 H 0.30488 0.05053 0.54418 0.0
H1359 H 0.25775 0.03767 0.53556 0.0
H1360 H 0.26273 0.0195 0.5596 0.0
H1361 H 0.28766 0.92708 0.47916 0.0
H1362 H 0.27647 0.96538 0.473 0.0
H1363 H 0.32353 0.98012 0.48255 0.0
H1364 H 0.27958 0.08836 0.47112 0.0
H1365 H 0.39112 0.11928 0.49392 0.0
H1366 H 0.22268 1.00964 0.50352 0.0
H1367 H 0.22936 0.98444 0.48286 0.0
H1368 H 0.22254 0.0264 0.47832 0.0
H1369 H 0.36045 0.04772 0.53126 0.0
H1370 H 0.4002 0.07467 0.51389 0.0
H1371 H 0.36512 0.0214 0.51048 0.0
C1372 C 0.22805 0.31473 0.81784 0.0
C1373 C 0.23958 0.3557 0.81988 0.0
C1374 C 0.24658 0.29786 0.82868 0.0
C1375 C 0.27773 0.32238 0.84197 0.0
C1376 C 0.29011 0.36409 0.84364 0.0
C1377 C 0.27092 0.3801 0.83269 0.0
C1378 C 0.23206 0.25337 0.82628 0.0
C1379 C 0.32319 0.39176 0.85737 0.0
C1380 C 0.30215 0.27196 0.88487 0.0
C1381 C 0.33454 0.27127 0.87735 0.0
C1382 C 0.28344 0.28817 0.8736 0.0
C1383 C 0.29714 0.30445 0.85417 0.0
C1384 C 0.32957 0.3036 0.84643 0.0
C1385 C 0.34754 0.28703 0.85795 0.0
C1386 C 0.249 0.28812 0.88259 0.0
C1387 C 0.34544 0.32034 0.82588 0.0
H1388 H 0.20359 0.29553 0.80819 0.0
H1389 H 0.27974 0.41162 0.8346 0.0
H1390 H 0.25631 0.24926 0.82172 0.0
H1391 H 0.22093 0.23766 0.84084 0.0
H1392 H 0.20843 0.23858 0.81498 0.0
H1393 H 0.33033 0.42365 0.85653 0.0
H1394 H 0.31546 0.38112 0.87307 0.0
H1395 H 0.34958 0.3909 0.8535 0.0
H1396 H 0.29168 0.26044 0.8998 0.0
H1397 H 0.37177 0.28609 0.85151 0.0
H1398 H 0.22337 0.2717 0.87259 0.0
H1399 H 0.25552 0.31969 0.88395 0.0
H1400 H 0.24121 0.27372 0.89762 0.0
H1401 H 0.32252 0.30383 0.81443 0.0
H1402 H 0.37101 0.31792 0.82199 0.0
H1403 H 0.35414 0.35268 0.8251 0.0
loop_
_geom_bond_atom_site_label_1
_geom_bond_atom_site_label_2
_geom_bond_distance
_geom_bond_site_symmetry_2
_ccdc_geom_bond_type
C0 C1 1.443 . S
C0 N4 1.376 . S
C0 C38 1.389 . S
C1 C0 1.443 . S
C1 C2 1.340 . S
C1 H41 0.951 . S
C2 C1 1.340 . S
C2 C3 1.439 . S
C2 H42 0.950 . S
C3 C2 1.439 . S
C3 N4 1.374 . S
C3 C37 1.395 . S
N4 C0 1.376 . S
N4 C3 1.374 . S
N4 Co5 2.008 . S
Co5 N4 2.008 . S
Co5 N6 1.995 . S
Co5 N11 2.008 . S
Co5 N16 1.995 . S
Co5 N21 2.282 . S
Co5 N27 2.282 . S
N6 Co5 1.995 . S
N6 C7 1.376 . S
N6 C10 1.383 . S
C7 N6 1.376 . S
C7 C8 1.446 . S
C7 C37 1.391 . S
C8 C7 1.446 . S
C8 C9 1.339 . S
C8 H43 0.949 . S
C9 C8 1.339 . S
C9 C10 1.439 . S
C9 H44 0.950 . S
C10 N6 1.383 . S
C10 C9 1.439 . S
C10 C39 1.392 . S
N11 Co5 2.008 . S
N11 C12 1.376 . S
N11 C15 1.374 . S
C12 N11 1.376 . S
C12 C13 1.443 . S
C12 C39 1.389 . S
C13 C12 1.443 . S
C13 C14 1.340 . S
C13 H45 0.951 . S
C14 C13 1.340 . S
C14 C15 1.439 . S
C14 H46 0.950 . S
C15 N11 1.374 . S
C15 C14 1.439 . S
C15 C40 1.395 . S
N16 Co5 1.995 . S
N16 C17 1.376 . S
N16 C20 1.383 . S
C17 N16 1.376 . S
C17 C18 1.446 . S
C17 C40 1.391 . S
C18 C17 1.446 . S
C18 C19 1.339 . S
C18 H47 0.949 . S
C19 C18 1.339 . S
C19 C20 1.439 . S
C19 H48 0.950 . S
C20 N16 1.383 . S
C20 C19 1.439 . S
C20 C38 1.392 . S
N21 Co5 2.282 . S
N21 C24 1.332 . S
N21 C26 1.332 . S
C22 C23 1.386 . S
C22 C25 1.388 . S
C23 C22 1.386 . S
C23 C24 1.382 . S
C23 H49 0.950 . S
C24 N21 1.332 . S
C24 C23 1.382 . S
C24 H35 0.952 . S
C25 C22 1.388 . S
C25 C26 1.382 . S
C25 H50 0.950 . S
C26 N21 1.332 . S
C26 C25 1.382 . S
C26 H36 0.948 . S
N27 Co5 2.282 . S
N27 C31 1.332 . S
N27 C32 1.332 . S
C28 C29 1.388 . S
C28 C32 1.382 . S
C28 H51 0.950 . S
C29 C28 1.388 . S
C29 C30 1.386 . S
C30 C29 1.386 . S
C30 C31 1.382 . S
C30 H52 0.950 . S
C31 N27 1.332 . S
C31 C30 1.382 . S
C31 H33 0.952 . S
C32 N27 1.332 . S
C32 C28 1.382 . S
C32 H34 0.948 . S
H33 C31 0.952 . S
H34 C32 0.948 . S
H35 C24 0.952 . S
H36 C26 0.948 . S
C37 C3 1.395 . S
C37 C7 1.391 . S
C38 C0 1.389 . S
C38 C20 1.392 . S
C39 C10 1.392 . S
C39 C12 1.389 . S
C40 C15 1.395 . S
C40 C17 1.391 . S
H41 C1 0.951 . S
H42 C2 0.950 . S
H43 C8 0.949 . S
H44 C9 0.950 . S
H45 C13 0.951 . S
H46 C14 0.950 . S
H47 C18 0.949 . S
H48 C19 0.950 . S
H49 C23 0.950 . S
H50 C25 0.950 . S
H51 C28 0.950 . S
H52 C30 0.950 . S
C53 C54 1.443 . S
C53 N57 1.376 . S
C53 C91 1.389 . S
C54 C53 1.443 . S
C54 C55 1.340 . S
C54 H94 0.951 . S
C55 C54 1.340 . S
C55 C56 1.439 . S
C55 H95 0.950 . S
C56 C55 1.439 . S
C56 N57 1.374 . S
C56 C90 1.395 . S
N57 C53 1.376 . S
N57 C56 1.374 . S
N57 Co58 2.008 . S
Co58 N57 2.008 . S
Co58 N59 1.995 . S
Co58 N64 2.008 . S
Co58 N69 1.995 . S
Co58 N74 2.282 . S
Co58 N80 2.282 . S
N59 Co58 1.995 . S
N59 C60 1.376 . S
N59 C63 1.383 . S
C60 N59 1.376 . S
C60 C61 1.446 . S
C60 C90 1.391 . S
C61 C60 1.446 . S
C61 C62 1.339 . S
C61 H96 0.949 . S
C62 C61 1.339 . S
C62 C63 1.439 . S
C62 H97 0.950 . S
C63 N59 1.383 . S
C63 C62 1.439 . S
C63 C92 1.392 . S
N64 Co58 2.008 . S
N64 C65 1.376 . S
N64 C68 1.374 . S
C65 N64 1.376 . S
C65 C66 1.443 . S
C65 C92 1.389 . S
C66 C65 1.443 . S
C66 C67 1.340 . S
C66 H98 0.951 . S
C67 C66 1.340 . S
C67 C68 1.439 . S
C67 H99 0.950 . S
C68 N64 1.374 . S
C68 C67 1.439 . S
C68 C93 1.395 . S
N69 Co58 1.995 . S
N69 C70 1.376 . S
N69 C73 1.383 . S
C70 N69 1.376 . S
C70 C71 1.446 . S
C70 C93 1.391 . S
C71 C70 1.446 . S
C71 C72 1.339 . S
C71 H100 0.949 . S
C72 C71 1.339 . S
C72 C73 1.439 . S
C72 H101 0.950 . S
C73 N69 1.383 . S
C73 C72 1.439 . S
C73 C91 1.392 . S
N74 Co58 2.282 . S
N74 C77 1.332 . S
N74 C79 1.332 . S
C75 C76 1.386 . S
C75 C78 1.388 . S
C76 C75 1.386 . S
C76 C77 1.382 . S
C76 H102 0.950 . S
C77 N74 1.332 . S
C77 C76 1.382 . S
C77 H88 0.952 . S
C78 C75 1.388 . S
C78 C79 1.382 . S
C78 H103 0.950 . S
C79 N74 1.332 . S
C79 C78 1.382 . S
C79 H89 0.948 . S
N80 Co58 2.282 . S
N80 C84 1.332 . S
N80 C85 1.332 . S
C81 C82 1.388 . S
C81 C85 1.382 . S
C81 H104 0.950 . S
C82 C81 1.388 . S
C82 C83 1.386 . S
C83 C82 1.386 . S
C83 C84 1.382 . S
C83 H105 0.950 . S
C84 N80 1.332 . S
C84 C83 1.382 . S
C84 H86 0.952 . S
C85 N80 1.332 . S
C85 C81 1.382 . S
C85 H87 0.948 . S
H86 C84 0.952 . S
H87 C85 0.948 . S
H88 C77 0.952 . S
H89 C79 0.948 . S
C90 C56 1.395 . S
C90 C60 1.391 . S
C91 C53 1.389 . S
C91 C73 1.392 . S
C92 C63 1.392 . S
C92 C65 1.389 . S
C93 C68 1.395 . S
C93 C70 1.391 . S
H94 C54 0.951 . S
H95 C55 0.950 . S
H96 C61 0.949 . S
H97 C62 0.950 . S
H98 C66 0.951 . S
H99 C67 0.950 . S
H100 C71 0.949 . S
H101 C72 0.950 . S
H102 C76 0.950 . S
H103 C78 0.950 . S
H104 C81 0.950 . S
H105 C83 0.950 . S
C106 C107 1.443 . S
C106 N110 1.376 . S
C106 C144 1.389 . S
C107 C106 1.443 . S
C107 C108 1.340 . S
C107 H147 0.951 . S
C108 C107 1.340 . S
C108 C109 1.439 . S
C108 H148 0.950 . S
C109 C108 1.439 . S
C109 N110 1.374 . S
C109 C143 1.395 . S
N110 C106 1.376 . S
N110 C109 1.374 . S
N110 Co111 2.008 . S
Co111 N110 2.008 . S
Co111 N112 1.995 . S
Co111 N117 2.008 . S
Co111 N122 1.995 . S
Co111 N127 2.282 . S
Co111 N133 2.282 . S
N112 Co111 1.995 . S
N112 C113 1.376 . S
N112 C116 1.383 . S
C113 N112 1.376 . S
C113 C114 1.446 . S
C113 C143 1.391 . S
C114 C113 1.446 . S
C114 C115 1.339 . S
C114 H149 0.949 . S
C115 C114 1.339 . S
C115 C116 1.439 . S
C115 H150 0.950 . S
C116 N112 1.383 . S
C116 C115 1.439 . S
C116 C145 1.392 . S
N117 Co111 2.008 . S
N117 C118 1.376 . S
N117 C121 1.374 . S
C118 N117 1.376 . S
C118 C119 1.443 . S
C118 C145 1.389 . S
C119 C118 1.443 . S
C119 C120 1.340 . S
C119 H151 0.951 . S
C120 C119 1.340 . S
C120 C121 1.439 . S
C120 H152 0.950 . S
C121 N117 1.374 . S
C121 C120 1.439 . S
C121 C146 1.395 . S
N122 Co111 1.995 . S
N122 C123 1.376 . S
N122 C126 1.383 . S
C123 N122 1.376 . S
C123 C124 1.446 . S
C123 C146 1.391 . S
C124 C123 1.446 . S
C124 C125 1.339 . S
C124 H153 0.949 . S
C125 C124 1.339 . S
C125 C126 1.439 . S
C125 H154 0.950 . S
C126 N122 1.383 . S
C126 C125 1.439 . S
C126 C144 1.392 . S
N127 Co111 2.282 . S
N127 C130 1.332 . S
N127 C132 1.332 . S
C128 C129 1.386 . S
C128 C131 1.388 . S
C129 C128 1.386 . S
C129 C130 1.382 . S
C129 H155 0.950 . S
C130 N127 1.332 . S
C130 C129 1.382 . S
C130 H141 0.952 . S
C131 C128 1.388 . S
C131 C132 1.382 . S
C131 H156 0.950 . S
C132 N127 1.332 . S
C132 C131 1.382 . S
C132 H142 0.948 . S
N133 Co111 2.282 . S
N133 C137 1.332 . S
N133 C138 1.332 . S
C134 C135 1.388 . S
C134 C138 1.382 . S
C134 H157 0.950 . S
C135 C134 1.388 . S
C135 C136 1.386 . S
C136 C135 1.386 . S
C136 C137 1.382 . S
C136 H158 0.950 . S
C137 N133 1.332 . S
C137 C136 1.382 . S
C137 H139 0.952 . S
C138 N133 1.332 . S
C138 C134 1.382 . S
C138 H140 0.948 . S
H139 C137 0.952 . S
H140 C138 0.948 . S
H141 C130 0.952 . S
H142 C132 0.948 . S
C143 C109 1.395 . S
C143 C113 1.391 . S
C144 C106 1.389 . S
C144 C126 1.392 . S
C145 C116 1.392 . S
C145 C118 1.389 . S
C146 C121 1.395 . S
C146 C123 1.391 . S
H147 C107 0.951 . S
H148 C108 0.950 . S
H149 C114 0.949 . S
H150 C115 0.950 . S
H151 C119 0.951 . S
H152 C120 0.950 . S
H153 C124 0.949 . S
H154 C125 0.950 . S
H155 C129 0.950 . S
H156 C131 0.950 . S
H157 C134 0.950 . S
H158 C136 0.950 . S
C159 C160 1.443 . S
C159 N163 1.376 . S
C159 C197 1.389 . S
C160 C159 1.443 . S
C160 C161 1.340 . S
C160 H200 0.951 . S
C161 C160 1.340 . S
C161 C162 1.439 . S
C161 H201 0.950 . S
C162 C161 1.439 . S
C162 N163 1.374 . S
C162 C196 1.395 . S
N163 C159 1.376 . S
N163 C162 1.374 . S
N163 Co164 2.008 . S
Co164 N163 2.008 . S
Co164 N165 1.995 . S
Co164 N170 2.008 . S
Co164 N175 1.995 . S
Co164 N180 2.282 . S
Co164 N186 2.282 . S
N165 Co164 1.995 . S
N165 C166 1.376 . S
N165 C169 1.383 . S
C166 N165 1.376 . S
C166 C167 1.446 . S
C166 C196 1.391 . S
C167 C166 1.446 . S
C167 C168 1.339 . S
C167 H202 0.949 . S
C168 C167 1.339 . S
C168 C169 1.439 . S
C168 H203 0.950 . S
C169 N165 1.383 . S
C169 C168 1.439 . S
C169 C198 1.392 . S
N170 Co164 2.008 . S
N170 C171 1.376 . S
N170 C174 1.374 . S
C171 N170 1.376 . S
C171 C172 1.443 . S
C171 C198 1.389 . S
C172 C171 1.443 . S
C172 C173 1.340 . S
C172 H204 0.951 . S
C173 C172 1.340 . S
C173 C174 1.439 . S
C173 H205 0.950 . S
C174 N170 1.374 . S
C174 C173 1.439 . S
C174 C199 1.395 . S
N175 Co164 1.995 . S
N175 C176 1.376 . S
N175 C179 1.383 . S
C176 N175 1.376 . S
C176 C177 1.446 . S
C176 C199 1.391 . S
C177 C176 1.446 . S
C177 C178 1.339 . S
C177 H206 0.949 . S
C178 C177 1.339 . S
C178 C179 1.439 . S
C178 H207 0.950 . S
C179 N175 1.383 . S
C179 C178 1.439 . S
C179 C197 1.392 . S
N180 Co164 2.282 . S
N180 C183 1.332 . S
N180 C185 1.332 . S
C181 C182 1.386 . S
C181 C184 1.388 . S
C182 C181 1.386 . S
C182 C183 1.382 . S
C182 H208 0.950 . S
C183 N180 1.332 . S
C183 C182 1.382 . S
C183 H194 0.952 . S
C184 C181 1.388 . S
C184 C185 1.382 . S
C184 H209 0.950 . S
C185 N180 1.332 . S
C185 C184 1.382 . S
C185 H195 0.948 . S
N186 Co164 2.282 . S
N186 C190 1.332 . S
N186 C191 1.332 . S
C187 C188 1.388 . S
C187 C191 1.382 . S
C187 H210 0.950 . S
C188 C187 1.388 . S
C188 C189 1.386 . S
C189 C188 1.386 . S
C189 C190 1.382 . S
C189 H211 0.950 . S
C190 N186 1.332 . S
C190 C189 1.382 . S
C190 H192 0.952 . S
C191 N186 1.332 . S
C191 C187 1.382 . S
C191 H193 0.948 . S
H192 C190 0.952 . S
H193 C191 0.948 . S
H194 C183 0.952 . S
H195 C185 0.948 . S
C196 C162 1.395 . S
C196 C166 1.391 . S
C197 C159 1.389 . S
C197 C179 1.392 . S
C198 C169 1.392 . S
C198 C171 1.389 . S
C199 C174 1.395 . S
C199 C176 1.391 . S
H200 C160 0.951 . S
H201 C161 0.950 . S
H202 C167 0.949 . S
H203 C168 0.950 . S
H204 C172 0.951 . S
H205 C173 0.950 . S
H206 C177 0.949 . S
H207 C178 0.950 . S
H208 C182 0.950 . S
H209 C184 0.950 . S
H210 C187 0.950 . S
H211 C189 0.950 . S
C212 C213 1.443 . S
C212 N216 1.376 . S
C212 C250 1.389 . S
C213 C212 1.443 . S
C213 C214 1.340 . S
C213 H253 0.951 . S
C214 C213 1.340 . S
C214 C215 1.439 . S
C214 H254 0.950 . S
C215 C214 1.439 . S
C215 N216 1.374 . S
C215 C249 1.395 . S
N216 C212 1.376 . S
N216 C215 1.374 . S
N216 Co217 2.008 . S
Co217 N216 2.008 . S
Co217 N218 1.995 . S
Co217 N223 2.008 . S
Co217 N228 1.995 . S
Co217 N233 2.282 . S
Co217 N239 2.282 . S
N218 Co217 1.995 . S
N218 C219 1.376 . S
N218 C222 1.383 . S
C219 N218 1.376 . S
C219 C220 1.446 . S
C219 C249 1.391 . S
C220 C219 1.446 . S
C220 C221 1.339 . S
C220 H255 0.949 . S
C221 C220 1.339 . S
C221 C222 1.439 . S
C221 H256 0.950 . S
C222 N218 1.383 . S
C222 C221 1.439 . S
C222 C251 1.392 . S
N223 Co217 2.008 . S
N223 C224 1.376 . S
N223 C227 1.374 . S
C224 N223 1.376 . S
C224 C225 1.443 . S
C224 C251 1.389 . S
C225 C224 1.443 . S
C225 C226 1.340 . S
C225 H257 0.951 . S
C226 C225 1.340 . S
C226 C227 1.439 . S
C226 H258 0.950 . S
C227 N223 1.374 . S
C227 C226 1.439 . S
C227 C252 1.395 . S
N228 Co217 1.995 . S
N228 C229 1.376 . S
N228 C232 1.383 . S
C229 N228 1.376 . S
C229 C230 1.446 . S
C229 C252 1.391 . S
C230 C229 1.446 . S
C230 C231 1.339 . S
C230 H259 0.949 . S
C231 C230 1.339 . S
C231 C232 1.439 . S
C231 H260 0.950 . S
C232 N228 1.383 . S
C232 C231 1.439 . S
C232 C250 1.392 . S
N233 Co217 2.282 . S
N233 C236 1.332 . S
N233 C238 1.332 . S
C234 C235 1.386 . S
C234 C237 1.388 . S
C235 C234 1.386 . S
C235 C236 1.382 . S
C235 H261 0.950 . S
C236 N233 1.332 . S
C236 C235 1.382 . S
C236 H247 0.952 . S
C237 C234 1.388 . S
C237 C238 1.382 . S
C237 H262 0.950 . S
C238 N233 1.332 . S
C238 C237 1.382 . S
C238 H248 0.948 . S
N239 Co217 2.282 . S
N239 C243 1.332 . S
N239 C244 1.332 . S
C240 C241 1.388 . S
C240 C244 1.382 . S
C240 H263 0.950 . S
C241 C240 1.388 . S
C241 C242 1.386 . S
C242 C241 1.386 . S
C242 C243 1.382 . S
C242 H264 0.950 . S
C243 N239 1.332 . S
C243 C242 1.382 . S
C243 H245 0.952 . S
C244 N239 1.332 . S
C244 C240 1.382 . S
C244 H246 0.948 . S
H245 C243 0.952 . S
H246 C244 0.948 . S
H247 C236 0.952 . S
H248 C238 0.948 . S
C249 C215 1.395 . S
C249 C219 1.391 . S
C250 C212 1.389 . S
C250 C232 1.392 . S
C251 C222 1.392 . S
C251 C224 1.389 . S
C252 C227 1.395 . S
C252 C229 1.391 . S
H253 C213 0.951 . S
H254 C214 0.950 . S
H255 C220 0.949 . S
H256 C221 0.950 . S
H257 C225 0.951 . S
H258 C226 0.950 . S
H259 C230 0.949 . S
H260 C231 0.950 . S
H261 C235 0.950 . S
H262 C237 0.950 . S
H263 C240 0.950 . S
H264 C242 0.950 . S
C265 C266 1.443 . S
C265 N269 1.376 . S
C265 C303 1.389 . S
C266 C265 1.443 . S
C266 C267 1.340 . S
C266 H306 0.951 . S
C267 C266 1.340 . S
C267 C268 1.439 . S
C267 H307 0.950 . S
C268 C267 1.439 . S
C268 N269 1.374 . S
C268 C302 1.395 . S
N269 C265 1.376 . S
N269 C268 1.374 . S
N269 Co270 2.008 . S
Co270 N269 2.008 . S
Co270 N271 1.995 . S
Co270 N276 2.008 . S
Co270 N281 1.995 . S
Co270 N286 2.282 . S
Co270 N292 2.282 . S
N271 Co270 1.995 . S
N271 C272 1.376 . S
N271 C275 1.383 . S
C272 N271 1.376 . S
C272 C273 1.446 . S
C272 C302 1.391 . S
C273 C272 1.446 . S
C273 C274 1.339 . S
C273 H308 0.949 . S
C274 C273 1.339 . S
C274 C275 1.439 . S
C274 H309 0.950 . S
C275 N271 1.383 . S
C275 C274 1.439 . S
C275 C304 1.392 . S
N276 Co270 2.008 . S
N276 C277 1.376 . S
N276 C280 1.374 . S
C277 N276 1.376 . S
C277 C278 1.443 . S
C277 C304 1.389 . S
C278 C277 1.443 . S
C278 C279 1.340 . S
C278 H310 0.951 . S
C279 C278 1.340 . S
C279 C280 1.439 . S
C279 H311 0.950 . S
C280 N276 1.374 . S
C280 C279 1.439 . S
C280 C305 1.395 . S
N281 Co270 1.995 . S
N281 C282 1.376 . S
N281 C285 1.383 . S
C282 N281 1.376 . S
C282 C283 1.446 . S
C282 C305 1.391 . S
C283 C282 1.446 . S
C283 C284 1.339 . S
C283 H312 0.949 . S
C284 C283 1.339 . S
C284 C285 1.439 . S
C284 H313 0.950 . S
C285 N281 1.383 . S
C285 C284 1.439 . S
C285 C303 1.392 . S
N286 Co270 2.282 . S
N286 C289 1.332 . S
N286 C291 1.332 . S
C287 C288 1.386 . S
C287 C290 1.388 . S
C288 C287 1.386 . S
C288 C289 1.382 . S
C288 H314 0.950 . S
C289 N286 1.332 . S
C289 C288 1.382 . S
C289 H300 0.952 . S
C290 C287 1.388 . S
C290 C291 1.382 . S
C290 H315 0.950 . S
C291 N286 1.332 . S
C291 C290 1.382 . S
C291 H301 0.948 . S
N292 Co270 2.282 . S
N292 C296 1.332 . S
N292 C297 1.332 . S
C293 C294 1.388 . S
C293 C297 1.382 . S
C293 H316 0.950 . S
C294 C293 1.388 . S
C294 C295 1.386 . S
C295 C294 1.386 . S
C295 C296 1.382 . S
C295 H317 0.950 . S
C296 N292 1.332 . S
C296 C295 1.382 . S
C296 H298 0.952 . S
C297 N292 1.332 . S
C297 C293 1.382 . S
C297 H299 0.948 . S
H298 C296 0.952 . S
H299 C297 0.948 . S
H300 C289 0.952 . S
H301 C291 0.948 . S
C302 C268 1.395 . S
C302 C272 1.391 . S
C303 C265 1.389 . S
C303 C285 1.392 . S
C304 C275 1.392 . S
C304 C277 1.389 . S
C305 C280 1.395 . S
C305 C282 1.391 . S
H306 C266 0.951 . S
H307 C267 0.950 . S
H308 C273 0.949 . S
H309 C274 0.950 . S
H310 C278 0.951 . S
H311 C279 0.950 . S
H312 C283 0.949 . S
H313 C284 0.950 . S
H314 C288 0.950 . S
H315 C290 0.950 . S
H316 C293 0.950 . S
H317 C295 0.950 . S
C318 C319 1.443 . S
C318 N322 1.376 . S
C318 C356 1.389 . S
C319 C318 1.443 . S
C319 C320 1.340 . S
C319 H359 0.951 . S
C320 C319 1.340 . S
C320 C321 1.439 . S
C320 H360 0.950 . S
C321 C320 1.439 . S
C321 N322 1.374 . S
C321 C355 1.395 . S
N322 C318 1.376 . S
N322 C321 1.374 . S
N322 Co323 2.008 . S
Co323 N322 2.008 . S
Co323 N324 1.995 . S
Co323 N329 2.008 . S
Co323 N334 1.995 . S
Co323 N339 2.282 . S
Co323 N345 2.282 . S
N324 Co323 1.995 . S
N324 C325 1.376 . S
N324 C328 1.383 . S
C325 N324 1.376 . S
C325 C326 1.446 . S
C325 C355 1.391 . S
C326 C325 1.446 . S
C326 C327 1.339 . S
C326 H361 0.949 . S
C327 C326 1.339 . S
C327 C328 1.439 . S
C327 H362 0.950 . S
C328 N324 1.383 . S
C328 C327 1.439 . S
C328 C357 1.392 . S
N329 Co323 2.008 . S
N329 C330 1.376 . S
N329 C333 1.374 . S
C330 N329 1.376 . S
C330 C331 1.443 . S
C330 C357 1.389 . S
C331 C330 1.443 . S
C331 C332 1.340 . S
C331 H363 0.951 . S
C332 C331 1.340 . S
C332 C333 1.439 . S
C332 H364 0.950 . S
C333 N329 1.374 . S
C333 C332 1.439 . S
C333 C358 1.395 . S
N334 Co323 1.995 . S
N334 C335 1.376 . S
N334 C338 1.383 . S
C335 N334 1.376 . S
C335 C336 1.446 . S
C335 C358 1.391 . S
C336 C335 1.446 . S
C336 C337 1.339 . S
C336 H365 0.949 . S
C337 C336 1.339 . S
C337 C338 1.439 . S
C337 H366 0.950 . S
C338 N334 1.383 . S
C338 C337 1.439 . S
C338 C356 1.392 . S
N339 Co323 2.282 . S
N339 C342 1.332 . S
N339 C344 1.332 . S
C340 C341 1.386 . S
C340 C343 1.388 . S
C341 C340 1.386 . S
C341 C342 1.382 . S
C341 H367 0.950 . S
C342 N339 1.332 . S
C342 C341 1.382 . S
C342 H353 0.952 . S
C343 C340 1.388 . S
C343 C344 1.382 . S
C343 H368 0.950 . S
C344 N339 1.332 . S
C344 C343 1.382 . S
C344 H354 0.948 . S
N345 Co323 2.282 . S
N345 C349 1.332 . S
N345 C350 1.332 . S
C346 C347 1.388 . S
C346 C350 1.382 . S
C346 H369 0.950 . S
C347 C346 1.388 . S
C347 C348 1.386 . S
C348 C347 1.386 . S
C348 C349 1.382 . S
C348 H370 0.950 . S
C349 N345 1.332 . S
C349 C348 1.382 . S
C349 H351 0.952 . S
C350 N345 1.332 . S
C350 C346 1.382 . S
C350 H352 0.948 . S
H351 C349 0.952 . S
H352 C350 0.948 . S
H353 C342 0.952 . S
H354 C344 0.948 . S
C355 C321 1.395 . S
C355 C325 1.391 . S
C356 C318 1.389 . S
C356 C338 1.392 . S
C357 C328 1.392 . S
C357 C330 1.389 . S
C358 C333 1.395 . S
C358 C335 1.391 . S
H359 C319 0.951 . S
H360 C320 0.950 . S
H361 C326 0.949 . S
H362 C327 0.950 . S
H363 C331 0.951 . S
H364 C332 0.950 . S
H365 C336 0.949 . S
H366 C337 0.950 . S
H367 C341 0.950 . S
H368 C343 0.950 . S
H369 C346 0.950 . S
H370 C348 0.950 . S
C371 C372 1.443 . S
C371 N375 1.376 . S
C371 C409 1.389 . S
C372 C371 1.443 . S
C372 C373 1.340 . S
C372 H412 0.951 . S
C373 C372 1.340 . S
C373 C374 1.439 . S
C373 H413 0.950 . S
C374 C373 1.439 . S
C374 N375 1.374 . S
C374 C408 1.395 . S
N375 C371 1.376 . S
N375 C374 1.374 . S
N375 Co376 2.008 . S
Co376 N375 2.008 . S
Co376 N377 1.995 . S
Co376 N382 2.008 . S
Co376 N387 1.995 . S
Co376 N392 2.282 . S
Co376 N398 2.282 . S
N377 Co376 1.995 . S
N377 C378 1.376 . S
N377 C381 1.383 . S
C378 N377 1.376 . S
C378 C379 1.446 . S
C378 C408 1.391 . S
C379 C378 1.446 . S
C379 C380 1.339 . S
C379 H414 0.949 . S
C380 C379 1.339 . S
C380 C381 1.439 . S
C380 H415 0.950 . S
C381 N377 1.383 . S
C381 C380 1.439 . S
C381 C410 1.392 . S
N382 Co376 2.008 . S
N382 C383 1.376 . S
N382 C386 1.374 . S
C383 N382 1.376 . S
C383 C384 1.443 . S
C383 C410 1.389 . S
C384 C383 1.443 . S
C384 C385 1.340 . S
C384 H416 0.951 . S
C385 C384 1.340 . S
C385 C386 1.439 . S
C385 H417 0.950 . S
C386 N382 1.374 . S
C386 C385 1.439 . S
C386 C411 1.395 . S
N387 Co376 1.995 . S
N387 C388 1.376 . S
N387 C391 1.383 . S
C388 N387 1.376 . S
C388 C389 1.446 . S
C388 C411 1.391 . S
C389 C388 1.446 . S
C389 C390 1.339 . S
C389 H418 0.949 . S
C390 C389 1.339 . S
C390 C391 1.439 . S
C390 H419 0.950 . S
C391 N387 1.383 . S
C391 C390 1.439 . S
C391 C409 1.392 . S
N392 Co376 2.282 . S
N392 C395 1.332 . S
N392 C397 1.332 . S
C393 C394 1.386 . S
C393 C396 1.388 . S
C394 C393 1.386 . S
C394 C395 1.382 . S
C394 H420 0.950 . S
C395 N392 1.332 . S
C395 C394 1.382 . S
C395 H406 0.952 . S
C396 C393 1.388 . S
C396 C397 1.382 . S
C396 H421 0.950 . S
C397 N392 1.332 . S
C397 C396 1.382 . S
C397 H407 0.948 . S
N398 Co376 2.282 . S
N398 C402 1.332 . S
N398 C403 1.332 . S
C399 C400 1.388 . S
C399 C403 1.382 . S
C399 H422 0.950 . S
C400 C399 1.388 . S
C400 C401 1.386 . S
C401 C400 1.386 . S
C401 C402 1.382 . S
C401 H423 0.950 . S
C402 N398 1.332 . S
C402 C401 1.382 . S
C402 H404 0.952 . S
C403 N398 1.332 . S
C403 C399 1.382 . S
C403 H405 0.948 . S
H404 C402 0.952 . S
H405 C403 0.948 . S
H406 C395 0.952 . S
H407 C397 0.948 . S
C408 C374 1.395 . S
C408 C378 1.391 . S
C409 C371 1.389 . S
C409 C391 1.392 . S
C410 C381 1.392 . S
C410 C383 1.389 . S
C411 C386 1.395 . S
C411 C388 1.391 . S
H412 C372 0.951 . S
H413 C373 0.950 . S
H414 C379 0.949 . S
H415 C380 0.950 . S
H416 C384 0.951 . S
H417 C385 0.950 . S
H418 C389 0.949 . S
H419 C390 0.950 . S
H420 C394 0.950 . S
H421 C396 0.950 . S
H422 C399 0.950 . S
H423 C401 0.950 . S
C424 C425 1.443 . S
C424 N428 1.376 . S
C424 C462 1.389 . S
C425 C424 1.443 . S
C425 C426 1.340 . S
C425 H465 0.951 . S
C426 C425 1.340 . S
C426 C427 1.439 . S
C426 H466 0.950 . S
C427 C426 1.439 . S
C427 N428 1.374 . S
C427 C461 1.395 . S
N428 C424 1.376 . S
N428 C427 1.374 . S
N428 Co429 2.008 . S
Co429 N428 2.008 . S
Co429 N430 1.995 . S
Co429 N435 2.008 . S
Co429 N440 1.995 . S
Co429 N445 2.282 . S
Co429 N451 2.282 . S
N430 Co429 1.995 . S
N430 C431 1.376 . S
N430 C434 1.383 . S
C431 N430 1.376 . S
C431 C432 1.446 . S
C431 C461 1.391 . S
C432 C431 1.446 . S
C432 C433 1.339 . S
C432 H467 0.949 . S
C433 C432 1.339 . S
C433 C434 1.439 . S
C433 H468 0.950 . S
C434 N430 1.383 . S
C434 C433 1.439 . S
C434 C463 1.392 . S
N435 Co429 2.008 . S
N435 C436 1.376 . S
N435 C439 1.374 . S
C436 N435 1.376 . S
C436 C437 1.443 . S
C436 C463 1.389 . S
C437 C436 1.443 . S
C437 C438 1.340 . S
C437 H469 0.951 . S
C438 C437 1.340 . S
C438 C439 1.439 . S
C438 H470 0.950 . S
C439 N435 1.374 . S
C439 C438 1.439 . S
C439 C464 1.395 . S
N440 Co429 1.995 . S
N440 C441 1.376 . S
N440 C444 1.383 . S
C441 N440 1.376 . S
C441 C442 1.446 . S
C441 C464 1.391 . S
C442 C441 1.446 . S
C442 C443 1.339 . S
C442 H471 0.949 . S
C443 C442 1.339 . S
C443 C444 1.439 . S
C443 H472 0.950 . S
C444 N440 1.383 . S
C444 C443 1.439 . S
C444 C462 1.392 . S
N445 Co429 2.282 . S
N445 C448 1.332 . S
N445 C450 1.332 . S
C446 C447 1.386 . S
C446 C449 1.388 . S
C447 C446 1.386 . S
C447 C448 1.382 . S
C447 H473 0.950 . S
C448 N445 1.332 . S
C448 C447 1.382 . S
C448 H459 0.952 . S
C449 C446 1.388 . S
C449 C450 1.382 . S
C449 H474 0.950 . S
C450 N445 1.332 . S
C450 C449 1.382 . S
C450 H460 0.948 . S
N451 Co429 2.282 . S
N451 C455 1.332 . S
N451 C456 1.332 . S
C452 C453 1.388 . S
C452 C456 1.382 . S
C452 H475 0.950 . S
C453 C452 1.388 . S
C453 C454 1.386 . S
C454 C453 1.386 . S
C454 C455 1.382 . S
C454 H476 0.950 . S
C455 N451 1.332 . S
C455 C454 1.382 . S
C455 H457 0.952 . S
C456 N451 1.332 . S
C456 C452 1.382 . S
C456 H458 0.948 . S
H457 C455 0.952 . S
H458 C456 0.948 . S
H459 C448 0.952 . S
H460 C450 0.948 . S
C461 C427 1.395 . S
C461 C431 1.391 . S
C462 C424 1.389 . S
C462 C444 1.392 . S
C463 C434 1.392 . S
C463 C436 1.389 . S
C464 C439 1.395 . S
C464 C441 1.391 . S
H465 C425 0.951 . S
H466 C426 0.950 . S
H467 C432 0.949 . S
H468 C433 0.950 . S
H469 C437 0.951 . S
H470 C438 0.950 . S
H471 C442 0.949 . S
H472 C443 0.950 . S
H473 C447 0.950 . S
H474 C449 0.950 . S
H475 C452 0.950 . S
H476 C454 0.950 . S
C477 C478 1.443 . S
C477 N481 1.376 . S
C477 C515 1.389 . S
C478 C477 1.443 . S
C478 C479 1.340 . S
C478 H518 0.951 . S
C479 C478 1.340 . S
C479 C480 1.439 . S
C479 H519 0.950 . S
C480 C479 1.439 . S
C480 N481 1.374 . S
C480 C514 1.395 . S
N481 C477 1.376 . S
N481 C480 1.374 . S
N481 Co482 2.008 . S
Co482 N481 2.008 . S
Co482 N483 1.995 . S
Co482 N488 2.008 . S
Co482 N493 1.995 . S
Co482 N498 2.282 . S
Co482 N504 2.282 . S
N483 Co482 1.995 . S
N483 C484 1.376 . S
N483 C487 1.383 . S
C484 N483 1.376 . S
C484 C485 1.446 . S
C484 C514 1.391 . S
C485 C484 1.446 . S
C485 C486 1.339 . S
C485 H520 0.949 . S
C486 C485 1.339 . S
C486 C487 1.439 . S
C486 H521 0.950 . S
C487 N483 1.383 . S
C487 C486 1.439 . S
C487 C516 1.392 . S
N488 Co482 2.008 . S
N488 C489 1.376 . S
N488 C492 1.374 . S
C489 N488 1.376 . S
C489 C490 1.443 . S
C489 C516 1.389 . S
C490 C489 1.443 . S
C490 C491 1.340 . S
C490 H522 0.951 . S
C491 C490 1.340 . S
C491 C492 1.439 . S
C491 H523 0.950 . S
C492 N488 1.374 . S
C492 C491 1.439 . S
C492 C517 1.395 . S
N493 Co482 1.995 . S
N493 C494 1.376 . S
N493 C497 1.383 . S
C494 N493 1.376 . S
C494 C495 1.446 . S
C494 C517 1.391 . S
C495 C494 1.446 . S
C495 C496 1.339 . S
C495 H524 0.949 . S
C496 C495 1.339 . S
C496 C497 1.439 . S
C496 H525 0.950 . S
C497 N493 1.383 . S
C497 C496 1.439 . S
C497 C515 1.392 . S
N498 Co482 2.282 . S
N498 C501 1.332 . S
N498 C503 1.332 . S
C499 C500 1.386 . S
C499 C502 1.388 . S
C500 C499 1.386 . S
C500 C501 1.382 . S
C500 H526 0.950 . S
C501 N498 1.332 . S
C501 C500 1.382 . S
C501 H512 0.952 . S
C502 C499 1.388 . S
C502 C503 1.382 . S
C502 H527 0.950 . S
C503 N498 1.332 . S
C503 C502 1.382 . S
C503 H513 0.948 . S
N504 Co482 2.282 . S
N504 C508 1.332 . S
N504 C509 1.332 . S
C505 C506 1.388 . S
C505 C509 1.382 . S
C505 H528 0.950 . S
C506 C505 1.388 . S
C506 C507 1.386 . S
C507 C506 1.386 . S
C507 C508 1.382 . S
C507 H529 0.950 . S
C508 N504 1.332 . S
C508 C507 1.382 . S
C508 H510 0.952 . S
C509 N504 1.332 . S
C509 C505 1.382 . S
C509 H511 0.948 . S
H510 C508 0.952 . S
H511 C509 0.948 . S
H512 C501 0.952 . S
H513 C503 0.948 . S
C514 C480 1.395 . S
C514 C484 1.391 . S
C515 C477 1.389 . S
C515 C497 1.392 . S
C516 C487 1.392 . S
C516 C489 1.389 . S
C517 C492 1.395 . S
C517 C494 1.391 . S
H518 C478 0.951 . S
H519 C479 0.950 . S
H520 C485 0.949 . S
H521 C486 0.950 . S
H522 C490 0.951 . S
H523 C491 0.950 . S
H524 C495 0.949 . S
H525 C496 0.950 . S
H526 C500 0.950 . S
H527 C502 0.950 . S
H528 C505 0.950 . S
H529 C507 0.950 . S
C530 C531 1.443 . S
C530 N534 1.376 . S
C530 C568 1.389 . S
C531 C530 1.443 . S
C531 C532 1.340 . S
C531 H571 0.951 . S
C532 C531 1.340 . S
C532 C533 1.439 . S
C532 H572 0.950 . S
C533 C532 1.439 . S
C533 N534 1.374 . S
C533 C567 1.395 . S
N534 C530 1.376 . S
N534 C533 1.374 . S
N534 Co535 2.008 . S
Co535 N534 2.008 . S
Co535 N536 1.995 . S
Co535 N541 2.008 . S
Co535 N546 1.995 . S
Co535 N551 2.282 . S
Co535 N557 2.282 . S
N536 Co535 1.995 . S
N536 C537 1.376 . S
N536 C540 1.383 . S
C537 N536 1.376 . S
C537 C538 1.446 . S
C537 C567 1.391 . S
C538 C537 1.446 . S
C538 C539 1.339 . S
C538 H573 0.949 . S
C539 C538 1.339 . S
C539 C540 1.439 . S
C539 H574 0.950 . S
C540 N536 1.383 . S
C540 C539 1.439 . S
C540 C569 1.392 . S
N541 Co535 2.008 . S
N541 C542 1.376 . S
N541 C545 1.374 . S
C542 N541 1.376 . S
C542 C543 1.443 . S
C542 C569 1.389 . S
C543 C542 1.443 . S
C543 C544 1.340 . S
C543 H575 0.951 . S
C544 C543 1.340 . S
C544 C545 1.439 . S
C544 H576 0.950 . S
C545 N541 1.374 . S
C545 C544 1.439 . S
C545 C570 1.395 . S
N546 Co535 1.995 . S
N546 C547 1.376 . S
N546 C550 1.383 . S
C547 N546 1.376 . S
C547 C548 1.446 . S
C547 C570 1.391 . S
C548 C547 1.446 . S
C548 C549 1.339 . S
C548 H577 0.949 . S
C549 C548 1.339 . S
C549 C550 1.439 . S
C549 H578 0.950 . S
C550 N546 1.383 . S
C550 C549 1.439 . S
C550 C568 1.392 . S
N551 Co535 2.282 . S
N551 C554 1.332 . S
N551 C556 1.332 . S
C552 C553 1.386 . S
C552 C555 1.388 . S
C553 C552 1.386 . S
C553 C554 1.382 . S
C553 H579 0.950 . S
C554 N551 1.332 . S
C554 C553 1.382 . S
C554 H565 0.952 . S
C555 C552 1.388 . S
C555 C556 1.382 . S
C555 H580 0.950 . S
C556 N551 1.332 . S
C556 C555 1.382 . S
C556 H566 0.948 . S
N557 Co535 2.282 . S
N557 C561 1.332 . S
N557 C562 1.332 . S
C558 C559 1.388 . S
C558 C562 1.382 . S
C558 H581 0.950 . S
C559 C558 1.388 . S
C559 C560 1.386 . S
C560 C559 1.386 . S
C560 C561 1.382 . S
C560 H582 0.950 . S
C561 N557 1.332 . S
C561 C560 1.382 . S
C561 H563 0.952 . S
C562 N557 1.332 . S
C562 C558 1.382 . S
C562 H564 0.948 . S
H563 C561 0.952 . S
H564 C562 0.948 . S
H565 C554 0.952 . S
H566 C556 0.948 . S
C567 C533 1.395 . S
C567 C537 1.391 . S
C568 C530 1.389 . S
C568 C550 1.392 . S
C569 C540 1.392 . S
C569 C542 1.389 . S
C570 C545 1.395 . S
C570 C547 1.391 . S
H571 C531 0.951 . S
H572 C532 0.950 . S
H573 C538 0.949 . S
H574 C539 0.950 . S
H575 C543 0.951 . S
H576 C544 0.950 . S
H577 C548 0.949 . S
H578 C549 0.950 . S
H579 C553 0.950 . S
H580 C555 0.950 . S
H581 C558 0.950 . S
H582 C560 0.950 . S
C583 C584 1.443 . S
C583 N587 1.376 . S
C583 C621 1.389 . S
C584 C583 1.443 . S
C584 C585 1.340 . S
C584 H624 0.951 . S
C585 C584 1.340 . S
C585 C586 1.439 . S
C585 H625 0.950 . S
C586 C585 1.439 . S
C586 N587 1.374 . S
C586 C620 1.395 . S
N587 C583 1.376 . S
N587 C586 1.374 . S
N587 Co588 2.008 . S
Co588 N587 2.008 . S
Co588 N589 1.995 . S
Co588 N594 2.008 . S
Co588 N599 1.995 . S
Co588 N604 2.282 . S
Co588 N610 2.282 . S
N589 Co588 1.995 . S
N589 C590 1.376 . S
N589 C593 1.383 . S
C590 N589 1.376 . S
C590 C591 1.446 . S
C590 C620 1.391 . S
C591 C590 1.446 . S
C591 C592 1.339 . S
C591 H626 0.949 . S
C592 C591 1.339 . S
C592 C593 1.439 . S
C592 H627 0.950 . S
C593 N589 1.383 . S
C593 C592 1.439 . S
C593 C622 1.392 . S
N594 Co588 2.008 . S
N594 C595 1.376 . S
N594 C598 1.374 . S
C595 N594 1.376 . S
C595 C596 1.443 . S
C595 C622 1.389 . S
C596 C595 1.443 . S
C596 C597 1.340 . S
C596 H628 0.951 . S
C597 C596 1.340 . S
C597 C598 1.439 . S
C597 H629 0.950 . S
C598 N594 1.374 . S
C598 C597 1.439 . S
C598 C623 1.395 . S
N599 Co588 1.995 . S
N599 C600 1.376 . S
N599 C603 1.383 . S
C600 N599 1.376 . S
C600 C601 1.446 . S
C600 C623 1.391 . S
C601 C600 1.446 . S
C601 C602 1.339 . S
C601 H630 0.949 . S
C602 C601 1.339 . S
C602 C603 1.439 . S
C602 H631 0.950 . S
C603 N599 1.383 . S
C603 C602 1.439 . S
C603 C621 1.392 . S
N604 Co588 2.282 . S
N604 C607 1.332 . S
N604 C609 1.332 . S
C605 C606 1.386 . S
C605 C608 1.388 . S
C606 C605 1.386 . S
C606 C607 1.382 . S
C606 H632 0.950 . S
C607 N604 1.332 . S
C607 C606 1.382 . S
C607 H618 0.952 . S
C608 C605 1.388 . S
C608 C609 1.382 . S
C608 H633 0.950 . S
C609 N604 1.332 . S
C609 C608 1.382 . S
C609 H619 0.948 . S
N610 Co588 2.282 . S
N610 C614 1.332 . S
N610 C615 1.332 . S
C611 C612 1.388 . S
C611 C615 1.382 . S
C611 H634 0.950 . S
C612 C611 1.388 . S
C612 C613 1.386 . S
C613 C612 1.386 . S
C613 C614 1.382 . S
C613 H635 0.950 . S
C614 N610 1.332 . S
C614 C613 1.382 . S
C614 H616 0.952 . S
C615 N610 1.332 . S
C615 C611 1.382 . S
C615 H617 0.948 . S
H616 C614 0.952 . S
H617 C615 0.948 . S
H618 C607 0.952 . S
H619 C609 0.948 . S
C620 C586 1.395 . S
C620 C590 1.391 . S
C621 C583 1.389 . S
C621 C603 1.392 . S
C622 C593 1.392 . S
C622 C595 1.389 . S
C623 C598 1.395 . S
C623 C600 1.391 . S
H624 C584 0.951 . S
H625 C585 0.950 . S
H626 C591 0.949 . S
H627 C592 0.950 . S
H628 C596 0.951 . S
H629 C597 0.950 . S
H630 C601 0.949 . S
H631 C602 0.950 . S
H632 C606 0.950 . S
H633 C608 0.950 . S
H634 C611 0.950 . S
H635 C613 0.950 . S
C636 C637 1.391 . S
C636 C638 1.394 . S
C636 H652 0.931 . S
C637 C636 1.391 . S
C637 C641 1.376 . S
C638 C636 1.394 . S
C638 C639 1.369 . S
C638 C642 1.531 . S
C639 C638 1.369 . S
C639 C640 1.410 . S
C639 C647 1.503 . S
C640 C639 1.410 . S
C640 C641 1.392 . S
C640 C643 1.511 . S
C641 C637 1.376 . S
C641 C640 1.392 . S
C641 H653 0.929 . S
C642 C638 1.531 . S
C642 H654 0.960 . S
C642 H655 0.962 . S
C642 H656 0.960 . S
C643 C640 1.511 . S
C643 H657 0.961 . S
C643 H658 0.961 . S
C643 H659 0.961 . S
C644 C645 1.370 . S
C644 C646 1.363 . S
C644 H660 0.931 . S
C645 C644 1.370 . S
C645 C649 1.408 . S
C646 C644 1.363 . S
C646 C647 1.370 . S
C646 C650 1.524 . S
C647 C639 1.503 . S
C647 C646 1.370 . S
C647 C648 1.403 . S
C648 C647 1.403 . S
C648 C649 1.404 . S
C648 C651 1.539 . S
C649 C645 1.408 . S
C649 C648 1.404 . S
C649 H661 0.930 . S
C650 C646 1.524 . S
C650 H662 0.956 . S
C650 H663 0.961 . S
C650 H664 0.961 . S
C651 C648 1.539 . S
C651 H665 0.958 . S
C651 H666 0.961 . S
C651 H667 0.960 . S
H652 C636 0.931 . S
H653 C641 0.929 . S
H654 C642 0.960 . S
H655 C642 0.962 . S
H656 C642 0.960 . S
H657 C643 0.961 . S
H658 C643 0.961 . S
H659 C643 0.961 . S
H660 C644 0.931 . S
H661 C649 0.930 . S
H662 C650 0.956 . S
H663 C650 0.961 . S
H664 C650 0.961 . S
H665 C651 0.958 . S
H666 C651 0.961 . S
H667 C651 0.960 . S
C668 C669 1.391 . S
C668 C670 1.394 . S
C668 H684 0.931 . S
C669 C668 1.391 . S
C669 C673 1.376 . S
C670 C668 1.394 . S
C670 C671 1.369 . S
C670 C674 1.531 . S
C671 C670 1.369 . S
C671 C672 1.410 . S
C671 C679 1.503 . S
C672 C671 1.410 . S
C672 C673 1.392 . S
C672 C675 1.511 . S
C673 C669 1.376 . S
C673 C672 1.392 . S
C673 H685 0.929 . S
C674 C670 1.531 . S
C674 H686 0.960 . S
C674 H687 0.962 . S
C674 H688 0.960 . S
C675 C672 1.511 . S
C675 H689 0.961 . S
C675 H690 0.961 . S
C675 H691 0.961 . S
C676 C677 1.370 . S
C676 C678 1.363 . S
C676 H692 0.931 . S
C677 C676 1.370 . S
C677 C681 1.408 . S
C678 C676 1.363 . S
C678 C679 1.370 . S
C678 C682 1.524 . S
C679 C671 1.503 . S
C679 C678 1.370 . S
C679 C680 1.403 . S
C680 C679 1.403 . S
C680 C681 1.404 . S
C680 C683 1.539 . S
C681 C677 1.408 . S
C681 C680 1.404 . S
C681 H693 0.930 . S
C682 C678 1.524 . S
C682 H694 0.956 . S
C682 H695 0.961 . S
C682 H696 0.961 . S
C683 C680 1.539 . S
C683 H697 0.958 . S
C683 H698 0.961 . S
C683 H699 0.960 . S
H684 C668 0.931 . S
H685 C673 0.929 . S
H686 C674 0.960 . S
H687 C674 0.962 . S
H688 C674 0.960 . S
H689 C675 0.961 . S
H690 C675 0.961 . S
H691 C675 0.961 . S
H692 C676 0.931 . S
H693 C681 0.930 . S
H694 C682 0.956 . S
H695 C682 0.961 . S
H696 C682 0.961 . S
H697 C683 0.958 . S
H698 C683 0.961 . S
H699 C683 0.960 . S
C700 C701 1.391 . S
C700 C702 1.394 . S
C700 H716 0.931 . S
C701 C700 1.391 . S
C701 C705 1.376 . S
C702 C700 1.394 . S
C702 C703 1.369 . S
C702 C706 1.531 . S
C703 C702 1.369 . S
C703 C704 1.410 . S
C703 C711 1.503 . S
C704 C703 1.410 . S
C704 C705 1.392 . S
C704 C707 1.511 . S
C705 C701 1.376 . S
C705 C704 1.392 . S
C705 H717 0.929 . S
C706 C702 1.531 . S
C706 H718 0.960 . S
C706 H719 0.962 . S
C706 H720 0.960 . S
C707 C704 1.511 . S
C707 H721 0.961 . S
C707 H722 0.961 . S
C707 H723 0.961 . S
C708 C709 1.370 . S
C708 C710 1.363 . S
C708 H724 0.931 . S
C709 C708 1.370 . S
C709 C713 1.408 . S
C710 C708 1.363 . S
C710 C711 1.370 . S
C710 C714 1.524 . S
C711 C703 1.503 . S
C711 C710 1.370 . S
C711 C712 1.403 . S
C712 C711 1.403 . S
C712 C713 1.404 . S
C712 C715 1.539 . S
C713 C709 1.408 . S
C713 C712 1.404 . S
C713 H725 0.930 . S
C714 C710 1.524 . S
C714 H726 0.956 . S
C714 H727 0.961 . S
C714 H728 0.961 . S
C715 C712 1.539 . S
C715 H729 0.958 . S
C715 H730 0.961 . S
C715 H731 0.960 . S
H716 C700 0.931 . S
H717 C705 0.929 . S
H718 C706 0.960 . S
H719 C706 0.962 . S
H720 C706 0.960 . S
H721 C707 0.961 . S
H722 C707 0.961 . S
H723 C707 0.961 . S
H724 C708 0.931 . S
H725 C713 0.930 . S
H726 C714 0.956 . S
H727 C714 0.961 . S
H728 C714 0.961 . S
H729 C715 0.958 . S
H730 C715 0.961 . S
H731 C715 0.960 . S
C732 C733 1.391 . S
C732 C734 1.394 . S
C732 H748 0.931 . S
C733 C732 1.391 . S
C733 C737 1.376 . S
C734 C732 1.394 . S
C734 C735 1.369 . S
C734 C738 1.531 . S
C735 C734 1.369 . S
C735 C736 1.410 . S
C735 C743 1.503 . S
C736 C735 1.410 . S
C736 C737 1.392 . S
C736 C739 1.511 . S
C737 C733 1.376 . S
C737 C736 1.392 . S
C737 H749 0.929 . S
C738 C734 1.531 . S
C738 H750 0.960 . S
C738 H751 0.962 . S
C738 H752 0.960 . S
C739 C736 1.511 . S
C739 H753 0.961 . S
C739 H754 0.961 . S
C739 H755 0.961 . S
C740 C741 1.370 . S
C740 C742 1.363 . S
C740 H756 0.931 . S
C741 C740 1.370 . S
C741 C745 1.408 . S
C742 C740 1.363 . S
C742 C743 1.370 . S
C742 C746 1.524 . S
C743 C735 1.503 . S
C743 C742 1.370 . S
C743 C744 1.403 . S
C744 C743 1.403 . S
C744 C745 1.404 . S
C744 C747 1.539 . S
C745 C741 1.408 . S
C745 C744 1.404 . S
C745 H757 0.930 . S
C746 C742 1.524 . S
C746 H758 0.956 . S
C746 H759 0.961 . S
C746 H760 0.961 . S
C747 C744 1.539 . S
C747 H761 0.958 . S
C747 H762 0.961 . S
C747 H763 0.960 . S
H748 C732 0.931 . S
H749 C737 0.929 . S
H750 C738 0.960 . S
H751 C738 0.962 . S
H752 C738 0.960 . S
H753 C739 0.961 . S
H754 C739 0.961 . S
H755 C739 0.961 . S
H756 C740 0.931 . S
H757 C745 0.930 . S
H758 C746 0.956 . S
H759 C746 0.961 . S
H760 C746 0.961 . S
H761 C747 0.958 . S
H762 C747 0.961 . S
H763 C747 0.960 . S
C764 C765 1.391 . S
C764 C766 1.394 . S
C764 H780 0.931 . S
C765 C764 1.391 . S
C765 C769 1.376 . S
C766 C764 1.394 . S
C766 C767 1.369 . S
C766 C770 1.531 . S
C767 C766 1.369 . S
C767 C768 1.410 . S
C767 C775 1.503 . S
C768 C767 1.410 . S
C768 C769 1.392 . S
C768 C771 1.511 . S
C769 C765 1.376 . S
C769 C768 1.392 . S
C769 H781 0.929 . S
C770 C766 1.531 . S
C770 H782 0.960 . S
C770 H783 0.962 . S
C770 H784 0.960 . S
C771 C768 1.511 . S
C771 H785 0.961 . S
C771 H786 0.961 . S
C771 H787 0.961 . S
C772 C773 1.370 . S
C772 C774 1.363 . S
C772 H788 0.931 . S
C773 C772 1.370 . S
C773 C777 1.408 . S
C774 C772 1.363 . S
C774 C775 1.370 . S
C774 C778 1.524 . S
C775 C767 1.503 . S
C775 C774 1.370 . S
C775 C776 1.403 . S
C776 C775 1.403 . S
C776 C777 1.404 . S
C776 C779 1.539 . S
C777 C773 1.408 . S
C777 C776 1.404 . S
C777 H789 0.930 . S
C778 C774 1.524 . S
C778 H790 0.956 . S
C778 H791 0.961 . S
C778 H792 0.961 . S
C779 C776 1.539 . S
C779 H793 0.958 . S
C779 H794 0.961 . S
C779 H795 0.960 . S
H780 C764 0.931 . S
H781 C769 0.929 . S
H782 C770 0.960 . S
H783 C770 0.962 . S
H784 C770 0.960 . S
H785 C771 0.961 . S
H786 C771 0.961 . S
H787 C771 0.961 . S
H788 C772 0.931 . S
H789 C777 0.930 . S
H790 C778 0.956 . S
H791 C778 0.961 . S
H792 C778 0.961 . S
H793 C779 0.958 . S
H794 C779 0.961 . S
H795 C779 0.960 . S
C796 C797 1.391 . S
C796 C798 1.394 . S
C796 H812 0.931 . S
C797 C796 1.391 . S
C797 C801 1.376 . S
C798 C796 1.394 . S
C798 C799 1.369 . S
C798 C802 1.531 . S
C799 C798 1.369 . S
C799 C800 1.410 . S
C799 C807 1.503 . S
C800 C799 1.410 . S
C800 C801 1.392 . S
C800 C803 1.511 . S
C801 C797 1.376 . S
C801 C800 1.392 . S
C801 H813 0.929 . S
C802 C798 1.531 . S
C802 H814 0.960 . S
C802 H815 0.962 . S
C802 H816 0.960 . S
C803 C800 1.511 . S
C803 H817 0.961 . S
C803 H818 0.961 . S
C803 H819 0.961 . S
C804 C805 1.370 . S
C804 C806 1.363 . S
C804 H820 0.931 . S
C805 C804 1.370 . S
C805 C809 1.408 . S
C806 C804 1.363 . S
C806 C807 1.370 . S
C806 C810 1.524 . S
C807 C799 1.503 . S
C807 C806 1.370 . S
C807 C808 1.403 . S
C808 C807 1.403 . S
C808 C809 1.404 . S
C808 C811 1.539 . S
C809 C805 1.408 . S
C809 C808 1.404 . S
C809 H821 0.930 . S
C810 C806 1.524 . S
C810 H822 0.956 . S
C810 H823 0.961 . S
C810 H824 0.961 . S
C811 C808 1.539 . S
C811 H825 0.958 . S
C811 H826 0.961 . S
C811 H827 0.960 . S
H812 C796 0.931 . S
H813 C801 0.929 . S
H814 C802 0.960 . S
H815 C802 0.962 . S
H816 C802 0.960 . S
H817 C803 0.961 . S
H818 C803 0.961 . S
H819 C803 0.961 . S
H820 C804 0.931 . S
H821 C809 0.930 . S
H822 C810 0.956 . S
H823 C810 0.961 . S
H824 C810 0.961 . S
H825 C811 0.958 . S
H826 C811 0.961 . S
H827 C811 0.960 . S
C828 C829 1.391 . S
C828 C830 1.394 . S
C828 H844 0.931 . S
C829 C828 1.391 . S
C829 C833 1.376 . S
C830 C828 1.394 . S
C830 C831 1.369 . S
C830 C834 1.531 . S
C831 C830 1.369 . S
C831 C832 1.410 . S
C831 C839 1.503 . S
C832 C831 1.410 . S
C832 C833 1.392 . S
C832 C835 1.511 . S
C833 C829 1.376 . S
C833 C832 1.392 . S
C833 H845 0.929 . S
C834 C830 1.531 . S
C834 H846 0.960 . S
C834 H847 0.962 . S
C834 H848 0.960 . S
C835 C832 1.511 . S
C835 H849 0.961 . S
C835 H850 0.961 . S
C835 H851 0.961 . S
C836 C837 1.370 . S
C836 C838 1.363 . S
C836 H852 0.931 . S
C837 C836 1.370 . S
C837 C841 1.408 . S
C838 C836 1.363 . S
C838 C839 1.370 . S
C838 C842 1.524 . S
C839 C831 1.503 . S
C839 C838 1.370 . S
C839 C840 1.403 . S
C840 C839 1.403 . S
C840 C841 1.404 . S
C840 C843 1.539 . S
C841 C837 1.408 . S
C841 C840 1.404 . S
C841 H853 0.930 . S
C842 C838 1.524 . S
C842 H854 0.956 . S
C842 H855 0.961 . S
C842 H856 0.961 . S
C843 C840 1.539 . S
C843 H857 0.958 . S
C843 H858 0.961 . S
C843 H859 0.960 . S
H844 C828 0.931 . S
H845 C833 0.929 . S
H846 C834 0.960 . S
H847 C834 0.962 . S
H848 C834 0.960 . S
H849 C835 0.961 . S
H850 C835 0.961 . S
H851 C835 0.961 . S
H852 C836 0.931 . S
H853 C841 0.930 . S
H854 C842 0.956 . S
H855 C842 0.961 . S
H856 C842 0.961 . S
H857 C843 0.958 . S
H858 C843 0.961 . S
H859 C843 0.960 . S
C860 C861 1.391 . S
C860 C862 1.394 . S
C860 H876 0.931 . S
C861 C860 1.391 . S
C861 C865 1.376 . S
C862 C860 1.394 . S
C862 C863 1.369 . S
C862 C866 1.531 1_455 S
C863 C862 1.369 . S
C863 C864 1.410 . S
C863 C871 1.503 1_455 S
C864 C863 1.410 . S
C864 C865 1.392 . S
C864 C867 1.511 . S
C865 C861 1.376 . S
C865 C864 1.392 . S
C865 H877 0.929 . S
C866 C862 1.531 1_655 S
C866 H878 0.960 . S
C866 H879 0.962 . S
C866 H880 0.960 . S
C867 C864 1.511 . S
C867 H881 0.961 . S
C867 H882 0.961 . S
C867 H883 0.961 . S
C868 C869 1.370 . S
C868 C870 1.363 . S
C868 H884 0.931 . S
C869 C868 1.370 . S
C869 C873 1.408 . S
C870 C868 1.363 . S
C870 C871 1.370 . S
C870 C874 1.524 . S
C871 C863 1.503 1_655 S
C871 C870 1.370 . S
C871 C872 1.403 . S
C872 C871 1.403 . S
C872 C873 1.404 . S
C872 C875 1.539 1_655 S
C873 C869 1.408 . S
C873 C872 1.404 . S
C873 H885 0.930 . S
C874 C870 1.524 . S
C874 H886 0.956 . S
C874 H887 0.961 . S
C874 H888 0.961 . S
C875 C872 1.539 1_455 S
C875 H889 0.958 1_455 S
C875 H890 0.961 . S
C875 H891 0.960 . S
H876 C860 0.931 . S
H877 C865 0.929 . S
H878 C866 0.960 . S
H879 C866 0.962 . S
H880 C866 0.960 . S
H881 C867 0.961 . S
H882 C867 0.961 . S
H883 C867 0.961 . S
H884 C868 0.931 . S
H885 C873 0.930 . S
H886 C874 0.956 . S
H887 C874 0.961 . S
H888 C874 0.961 . S
H889 C875 0.958 1_655 S
H890 C875 0.961 . S
H891 C875 0.960 . S
C892 C893 1.391 . S
C892 C894 1.394 . S
C892 H908 0.931 . S
C893 C892 1.391 . S
C893 C897 1.376 . S
C894 C892 1.394 . S
C894 C895 1.369 . S
C894 C898 1.531 . S
C895 C894 1.369 . S
C895 C896 1.410 . S
C895 C903 1.503 1_545 S
C896 C895 1.410 . S
C896 C897 1.392 . S
C896 C899 1.511 1_545 S
C897 C893 1.376 . S
C897 C896 1.392 . S
C897 H909 0.929 . S
C898 C894 1.531 . S
C898 H910 0.960 . S
C898 H911 0.962 . S
C898 H912 0.960 . S
C899 C896 1.511 1_565 S
C899 H913 0.961 . S
C899 H914 0.961 . S
C899 H915 0.961 . S
C900 C901 1.370 . S
C900 C902 1.363 . S
C900 H916 0.931 . S
C901 C900 1.370 . S
C901 C905 1.408 . S
C902 C900 1.363 . S
C902 C903 1.370 . S
C902 C906 1.524 1_565 S
C903 C895 1.503 1_565 S
C903 C902 1.370 . S
C903 C904 1.403 . S
C904 C903 1.403 . S
C904 C905 1.404 . S
C904 C907 1.539 . S
C905 C901 1.408 . S
C905 C904 1.404 . S
C905 H917 0.930 . S
C906 C902 1.524 1_545 S
C906 H918 0.956 . S
C906 H919 0.961 . S
C906 H920 0.961 . S
C907 C904 1.539 . S
C907 H921 0.958 . S
C907 H922 0.961 . S
C907 H923 0.960 . S
H908 C892 0.931 . S
H909 C897 0.929 . S
H910 C898 0.960 . S
H911 C898 0.962 . S
H912 C898 0.960 . S
H913 C899 0.961 . S
H914 C899 0.961 . S
H915 C899 0.961 . S
H916 C900 0.931 . S
H917 C905 0.930 . S
H918 C906 0.956 . S
H919 C906 0.961 . S
H920 C906 0.961 . S
H921 C907 0.958 . S
H922 C907 0.961 . S
H923 C907 0.960 . S
C924 C925 1.391 . S
C924 C926 1.394 . S
C924 H940 0.931 . S
C925 C924 1.391 . S
C925 C929 1.376 . S
C926 C924 1.394 . S
C926 C927 1.369 . S
C926 C930 1.531 . S
C927 C926 1.369 . S
C927 C928 1.410 . S
C927 C935 1.503 . S
C928 C927 1.410 . S
C928 C929 1.392 . S
C928 C931 1.511 . S
C929 C925 1.376 . S
C929 C928 1.392 . S
C929 H941 0.929 . S
C930 C926 1.531 . S
C930 H942 0.960 . S
C930 H943 0.962 . S
C930 H944 0.960 . S
C931 C928 1.511 . S
C931 H945 0.961 . S
C931 H946 0.961 . S
C931 H947 0.961 . S
C932 C933 1.370 . S
C932 C934 1.363 . S
C932 H948 0.931 . S
C933 C932 1.370 . S
C933 C937 1.408 . S
C934 C932 1.363 . S
C934 C935 1.370 . S
C934 C938 1.524 . S
C935 C927 1.503 . S
C935 C934 1.370 . S
C935 C936 1.403 . S
C936 C935 1.403 . S
C936 C937 1.404 . S
C936 C939 1.539 . S
C937 C933 1.408 . S
C937 C936 1.404 . S
C937 H949 0.930 . S
C938 C934 1.524 . S
C938 H950 0.956 . S
C938 H951 0.961 . S
C938 H952 0.961 . S
C939 C936 1.539 . S
C939 H953 0.958 . S
C939 H954 0.961 . S
C939 H955 0.960 . S
H940 C924 0.931 . S
H941 C929 0.929 . S
H942 C930 0.960 . S
H943 C930 0.962 . S
H944 C930 0.960 . S
H945 C931 0.961 . S
H946 C931 0.961 . S
H947 C931 0.961 . S
H948 C932 0.931 . S
H949 C937 0.930 . S
H950 C938 0.956 . S
H951 C938 0.961 . S
H952 C938 0.961 . S
H953 C939 0.958 . S
H954 C939 0.961 . S
H955 C939 0.960 . S
C956 C957 1.391 . S
C956 C958 1.394 . S
C956 H972 0.931 . S
C957 C956 1.391 . S
C957 C961 1.376 . S
C958 C956 1.394 . S
C958 C959 1.369 . S
C958 C962 1.531 . S
C959 C958 1.369 . S
C959 C960 1.410 . S
C959 C967 1.503 1_655 S
C960 C959 1.410 . S
C960 C961 1.392 . S
C960 C963 1.511 1_655 S
C961 C957 1.376 . S
C961 C960 1.392 . S
C961 H973 0.929 . S
C962 C958 1.531 . S
C962 H974 0.960 . S
C962 H975 0.962 . S
C962 H976 0.960 . S
C963 C960 1.511 1_455 S
C963 H977 0.961 . S
C963 H978 0.961 . S
C963 H979 0.961 . S
C964 C965 1.370 . S
C964 C966 1.363 . S
C964 H980 0.931 . S
C965 C964 1.370 . S
C965 C969 1.408 . S
C966 C964 1.363 . S
C966 C967 1.370 . S
C966 C970 1.524 . S
C967 C959 1.503 1_455 S
C967 C966 1.370 . S
C967 C968 1.403 . S
C968 C967 1.403 . S
C968 C969 1.404 . S
C968 C971 1.539 . S
C969 C965 1.408 . S
C969 C968 1.404 . S
C969 H981 0.930 . S
C970 C966 1.524 . S
C970 H982 0.956 1_455 S
C970 H983 0.961 . S
C970 H984 0.961 . S
C971 C968 1.539 . S
C971 H985 0.958 . S
C971 H986 0.961 . S
C971 H987 0.960 . S
H972 C956 0.931 . S
H973 C961 0.929 . S
H974 C962 0.960 . S
H975 C962 0.962 . S
H976 C962 0.960 . S
H977 C963 0.961 . S
H978 C963 0.961 . S
H979 C963 0.961 . S
H980 C964 0.931 . S
H981 C969 0.930 . S
H982 C970 0.956 1_655 S
H983 C970 0.961 . S
H984 C970 0.961 . S
H985 C971 0.958 . S
H986 C971 0.961 . S
H987 C971 0.960 . S
C988 C989 1.391 . S
C988 C990 1.394 . S
C988 H1004 0.931 . S
C989 C988 1.391 . S
C989 C993 1.376 . S
C990 C988 1.394 . S
C990 C991 1.369 . S
C990 C994 1.531 . S
C991 C990 1.369 . S
C991 C992 1.410 . S
C991 C999 1.503 1_565 S
C992 C991 1.410 . S
C992 C993 1.392 . S
C992 C995 1.511 1_565 S
C993 C989 1.376 . S
C993 C992 1.392 . S
C993 H1005 0.929 . S
C994 C990 1.531 . S
C994 H1006 0.960 . S
C994 H1007 0.962 . S
C994 H1008 0.960 . S
C995 C992 1.511 1_545 S
C995 H1009 0.961 . S
C995 H1010 0.961 . S
C995 H1011 0.961 . S
C996 C997 1.370 . S
C996 C998 1.363 . S
C996 H1012 0.931 . S
C997 C996 1.370 . S
C997 C1001 1.408 . S
C998 C996 1.363 . S
C998 C999 1.370 . S
C998 C1002 1.524 1_545 S
C999 C991 1.503 1_545 S
C999 C998 1.370 . S
C999 C1000 1.403 . S
C1000 C999 1.403 . S
C1000 C1001 1.404 . S
C1000 C1003 1.539 . S
C1001 C997 1.408 . S
C1001 C1000 1.404 . S
C1001 H1013 0.930 . S
C1002 C998 1.524 1_565 S
C1002 H1014 0.956 . S
C1002 H1015 0.961 . S
C1002 H1016 0.961 . S
C1003 C1000 1.539 . S
C1003 H1017 0.958 . S
C1003 H1018 0.961 . S
C1003 H1019 0.960 . S
H1004 C988 0.931 . S
H1005 C993 0.929 . S
H1006 C994 0.960 . S
H1007 C994 0.962 . S
H1008 C994 0.960 . S
H1009 C995 0.961 . S
H1010 C995 0.961 . S
H1011 C995 0.961 . S
H1012 C996 0.931 . S
H1013 C1001 0.930 . S
H1014 C1002 0.956 . S
H1015 C1002 0.961 . S
H1016 C1002 0.961 . S
H1017 C1003 0.958 . S
H1018 C1003 0.961 . S
H1019 C1003 0.960 . S
C1020 C1021 1.391 . S
C1020 C1022 1.394 . S
C1020 H1036 0.931 . S
C1021 C1020 1.391 . S
C1021 C1025 1.376 . S
C1022 C1020 1.394 . S
C1022 C1023 1.369 . S
C1022 C1026 1.531 . S
C1023 C1022 1.369 . S
C1023 C1024 1.410 . S
C1023 C1031 1.503 . S
C1024 C1023 1.410 . S
C1024 C1025 1.392 . S
C1024 C1027 1.511 . S
C1025 C1021 1.376 . S
C1025 C1024 1.392 . S
C1025 H1037 0.929 . S
C1026 C1022 1.531 . S
C1026 H1038 0.960 . S
C1026 H1039 0.962 . S
C1026 H1040 0.960 . S
C1027 C1024 1.511 . S
C1027 H1041 0.961 . S
C1027 H1042 0.961 . S
C1027 H1043 0.961 . S
C1028 C1029 1.370 . S
C1028 C1030 1.363 . S
C1028 H1044 0.931 . S
C1029 C1028 1.370 . S
C1029 C1033 1.408 . S
C1030 C1028 1.363 . S
C1030 C1031 1.370 . S
C1030 C1034 1.524 . S
C1031 C1023 1.503 . S
C1031 C1030 1.370 . S
C1031 C1032 1.403 . S
C1032 C1031 1.403 . S
C1032 C1033 1.404 . S
C1032 C1035 1.539 . S
C1033 C1029 1.408 . S
C1033 C1032 1.404 . S
C1033 H1045 0.930 . S
C1034 C1030 1.524 . S
C1034 H1046 0.956 . S
C1034 H1047 0.961 . S
C1034 H1048 0.961 . S
C1035 C1032 1.539 . S
C1035 H1049 0.958 . S
C1035 H1050 0.961 . S
C1035 H1051 0.960 . S
H1036 C1020 0.931 . S
H1037 C1025 0.929 . S
H1038 C1026 0.960 . S
H1039 C1026 0.962 . S
H1040 C1026 0.960 . S
H1041 C1027 0.961 . S
H1042 C1027 0.961 . S
H1043 C1027 0.961 . S
H1044 C1028 0.931 . S
H1045 C1033 0.930 . S
H1046 C1034 0.956 . S
H1047 C1034 0.961 . S
H1048 C1034 0.961 . S
H1049 C1035 0.958 . S
H1050 C1035 0.961 . S
H1051 C1035 0.960 . S
C1052 C1053 1.391 . S
C1052 C1054 1.394 1_655 S
C1052 H1068 0.931 1_655 S
C1053 C1052 1.391 . S
C1053 C1057 1.376 . S
C1054 C1052 1.394 1_455 S
C1054 C1055 1.369 1_455 S
C1054 C1058 1.531 . S
C1055 C1054 1.369 1_655 S
C1055 C1056 1.410 . S
C1055 C1063 1.503 1_655 S
C1056 C1055 1.410 . S
C1056 C1057 1.392 . S
C1056 C1059 1.511 . S
C1057 C1053 1.376 . S
C1057 C1056 1.392 . S
C1057 H1069 0.929 . S
C1058 C1054 1.531 . S
C1058 H1070 0.960 . S
C1058 H1071 0.962 . S
C1058 H1072 0.960 . S
C1059 C1056 1.511 . S
C1059 H1073 0.961 . S
C1059 H1074 0.961 . S
C1059 H1075 0.961 . S
C1060 C1061 1.370 . S
C1060 C1062 1.363 . S
C1060 H1076 0.931 . S
C1061 C1060 1.370 . S
C1061 C1065 1.408 . S
C1062 C1060 1.363 . S
C1062 C1063 1.370 . S
C1062 C1066 1.524 . S
C1063 C1055 1.503 1_455 S
C1063 C1062 1.370 . S
C1063 C1064 1.403 1_455 S
C1064 C1063 1.403 1_655 S
C1064 C1065 1.404 1_655 S
C1064 C1067 1.539 . S
C1065 C1061 1.408 . S
C1065 C1064 1.404 1_455 S
C1065 H1077 0.930 1_455 S
C1066 C1062 1.524 . S
C1066 H1078 0.956 . S
C1066 H1079 0.961 . S
C1066 H1080 0.961 . S
C1067 C1064 1.539 . S
C1067 H1081 0.958 . S
C1067 H1082 0.961 . S
C1067 H1083 0.960 . S
H1068 C1052 0.931 1_455 S
H1069 C1057 0.929 . S
H1070 C1058 0.960 . S
H1071 C1058 0.962 . S
H1072 C1058 0.960 . S
H1073 C1059 0.961 . S
H1074 C1059 0.961 . S
H1075 C1059 0.961 . S
H1076 C1060 0.931 . S
H1077 C1065 0.930 1_655 S
H1078 C1066 0.956 . S
H1079 C1066 0.961 . S
H1080 C1066 0.961 . S
H1081 C1067 0.958 . S
H1082 C1067 0.961 . S
H1083 C1067 0.960 . S
C1084 C1085 1.391 . S
C1084 C1086 1.394 . S
C1084 H1100 0.931 . S
C1085 C1084 1.391 . S
C1085 C1089 1.376 . S
C1086 C1084 1.394 . S
C1086 C1087 1.369 . S
C1086 C1090 1.531 1_565 S
C1087 C1086 1.369 . S
C1087 C1088 1.410 . S
C1087 C1095 1.503 1_566 S
C1088 C1087 1.410 . S
C1088 C1089 1.392 . S
C1088 C1091 1.511 1_556 S
C1089 C1085 1.376 . S
C1089 C1088 1.392 . S
C1089 H1101 0.929 . S
C1090 C1086 1.531 1_545 S
C1090 H1102 0.960 . S
C1090 H1103 0.962 . S
C1090 H1104 0.960 . S
C1091 C1088 1.511 1_554 S
C1091 H1105 0.961 . S
C1091 H1106 0.961 . S
C1091 H1107 0.961 . S
C1092 C1093 1.370 . S
C1092 C1094 1.363 . S
C1092 H1108 0.931 . S
C1093 C1092 1.370 . S
C1093 C1097 1.408 . S
C1094 C1092 1.363 . S
C1094 C1095 1.370 . S
C1094 C1098 1.524 1_554 S
C1095 C1087 1.503 1_544 S
C1095 C1094 1.370 . S
C1095 C1096 1.403 . S
C1096 C1095 1.403 . S
C1096 C1097 1.404 . S
C1096 C1099 1.539 1_545 S
C1097 C1093 1.408 . S
C1097 C1096 1.404 . S
C1097 H1109 0.930 . S
C1098 C1094 1.524 1_556 S
C1098 H1110 0.956 . S
C1098 H1111 0.961 . S
C1098 H1112 0.961 . S
C1099 C1096 1.539 1_565 S
C1099 H1113 0.958 . S
C1099 H1114 0.961 . S
C1099 H1115 0.960 . S
H1100 C1084 0.931 . S
H1101 C1089 0.929 . S
H1102 C1090 0.960 . S
H1103 C1090 0.962 . S
H1104 C1090 0.960 . S
H1105 C1091 0.961 . S
H1106 C1091 0.961 . S
H1107 C1091 0.961 . S
H1108 C1092 0.931 . S
H1109 C1097 0.930 . S
H1110 C1098 0.956 . S
H1111 C1098 0.961 . S
H1112 C1098 0.961 . S
H1113 C1099 0.958 . S
H1114 C1099 0.961 . S
H1115 C1099 0.960 . S
C1116 C1117 1.391 . S
C1116 C1118 1.394 . S
C1116 H1132 0.931 . S
C1117 C1116 1.391 . S
C1117 C1121 1.376 . S
C1118 C1116 1.394 . S
C1118 C1119 1.369 . S
C1118 C1122 1.531 . S
C1119 C1118 1.369 . S
C1119 C1120 1.410 . S
C1119 C1127 1.503 . S
C1120 C1119 1.410 . S
C1120 C1121 1.392 . S
C1120 C1123 1.511 . S
C1121 C1117 1.376 . S
C1121 C1120 1.392 . S
C1121 H1133 0.929 . S
C1122 C1118 1.531 . S
C1122 H1134 0.960 . S
C1122 H1135 0.962 . S
C1122 H1136 0.960 . S
C1123 C1120 1.511 . S
C1123 H1137 0.961 . S
C1123 H1138 0.961 . S
C1123 H1139 0.961 . S
C1124 C1125 1.370 . S
C1124 C1126 1.363 . S
C1124 H1140 0.931 . S
C1125 C1124 1.370 . S
C1125 C1129 1.408 . S
C1126 C1124 1.363 . S
C1126 C1127 1.370 . S
C1126 C1130 1.524 . S
C1127 C1119 1.503 . S
C1127 C1126 1.370 . S
C1127 C1128 1.403 . S
C1128 C1127 1.403 . S
C1128 C1129 1.404 . S
C1128 C1131 1.539 . S
C1129 C1125 1.408 . S
C1129 C1128 1.404 . S
C1129 H1141 0.930 . S
C1130 C1126 1.524 . S
C1130 H1142 0.956 . S
C1130 H1143 0.961 . S
C1130 H1144 0.961 . S
C1131 C1128 1.539 . S
C1131 H1145 0.958 . S
C1131 H1146 0.961 . S
C1131 H1147 0.960 . S
H1132 C1116 0.931 . S
H1133 C1121 0.929 . S
H1134 C1122 0.960 . S
H1135 C1122 0.962 . S
H1136 C1122 0.960 . S
H1137 C1123 0.961 . S
H1138 C1123 0.961 . S
H1139 C1123 0.961 . S
H1140 C1124 0.931 . S
H1141 C1129 0.930 . S
H1142 C1130 0.956 . S
H1143 C1130 0.961 . S
H1144 C1130 0.961 . S
H1145 C1131 0.958 . S
H1146 C1131 0.961 . S
H1147 C1131 0.960 . S
C1148 C1149 1.391 . S
C1148 C1150 1.394 . S
C1148 H1164 0.931 . S
C1149 C1148 1.391 . S
C1149 C1153 1.376 1_455 S
C1150 C1148 1.394 . S
C1150 C1151 1.369 . S
C1150 C1154 1.531 . S
C1151 C1150 1.369 . S
C1151 C1152 1.410 1_455 S
C1151 C1159 1.503 1_455 S
C1152 C1151 1.410 1_655 S
C1152 C1153 1.392 . S
C1152 C1155 1.511 . S
C1153 C1149 1.376 1_655 S
C1153 C1152 1.392 . S
C1153 H1165 0.929 . S
C1154 C1150 1.531 . S
C1154 H1166 0.960 . S
C1154 H1167 0.962 . S
C1154 H1168 0.960 . S
C1155 C1152 1.511 . S
C1155 H1169 0.961 . S
C1155 H1170 0.961 . S
C1155 H1171 0.961 . S
C1156 C1157 1.370 . S
C1156 C1158 1.363 . S
C1156 H1172 0.931 . S
C1157 C1156 1.370 . S
C1157 C1161 1.408 . S
C1158 C1156 1.363 . S
C1158 C1159 1.370 . S
C1158 C1162 1.524 . S
C1159 C1151 1.503 1_655 S
C1159 C1158 1.370 . S
C1159 C1160 1.403 . S
C1160 C1159 1.403 . S
C1160 C1161 1.404 . S
C1160 C1163 1.539 1_655 S
C1161 C1157 1.408 . S
C1161 C1160 1.404 . S
C1161 H1173 0.930 . S
C1162 C1158 1.524 . S
C1162 H1174 0.956 1_655 S
C1162 H1175 0.961 . S
C1162 H1176 0.961 . S
C1163 C1160 1.539 1_455 S
C1163 H1177 0.958 . S
C1163 H1178 0.961 1_455 S
C1163 H1179 0.962 . S
H1164 C1148 0.931 . S
H1165 C1153 0.929 . S
H1166 C1154 0.960 . S
H1167 C1154 0.962 . S
H1168 C1154 0.960 . S
H1169 C1155 0.961 . S
H1170 C1155 0.961 . S
H1171 C1155 0.961 . S
H1172 C1156 0.931 . S
H1173 C1161 0.930 . S
H1174 C1162 0.956 1_455 S
H1175 C1162 0.961 . S
H1176 C1162 0.961 . S
H1177 C1163 0.958 . S
H1178 C1163 0.961 1_655 S
H1179 C1163 0.962 . S
C1180 C1181 1.391 . S
C1180 C1182 1.394 . S
C1180 H1196 0.931 . S
C1181 C1180 1.391 . S
C1181 C1185 1.376 . S
C1182 C1180 1.394 . S
C1182 C1183 1.369 . S
C1182 C1186 1.531 1_565 S
C1183 C1182 1.369 . S
C1183 C1184 1.410 . S
C1183 C1191 1.503 1_564 S
C1184 C1183 1.410 . S
C1184 C1185 1.392 . S
C1184 C1187 1.511 1_554 S
C1185 C1181 1.376 . S
C1185 C1184 1.392 . S
C1185 H1197 0.929 . S
C1186 C1182 1.531 1_545 S
C1186 H1198 0.960 . S
C1186 H1199 0.962 . S
C1186 H1200 0.960 . S
C1187 C1184 1.511 1_556 S
C1187 H1201 0.961 . S
C1187 H1202 0.961 . S
C1187 H1203 0.962 1_556 S
C1188 C1189 1.370 . S
C1188 C1190 1.363 . S
C1188 H1204 0.931 . S
C1189 C1188 1.370 . S
C1189 C1193 1.408 . S
C1190 C1188 1.363 . S
C1190 C1191 1.370 . S
C1190 C1194 1.524 1_545 S
C1191 C1183 1.503 1_546 S
C1191 C1190 1.370 . S
C1191 C1192 1.403 . S
C1192 C1191 1.403 . S
C1192 C1193 1.404 . S
C1192 C1195 1.539 1_556 S
C1193 C1189 1.408 . S
C1193 C1192 1.404 . S
C1193 H1205 0.930 . S
C1194 C1190 1.524 1_565 S
C1194 H1206 0.956 . S
C1194 H1207 0.961 . S
C1194 H1208 0.961 . S
C1195 C1192 1.539 1_554 S
C1195 H1209 0.958 . S
C1195 H1210 0.961 . S
C1195 H1211 0.960 . S
H1196 C1180 0.931 . S
H1197 C1185 0.929 . S
H1198 C1186 0.960 . S
H1199 C1186 0.962 . S
H1200 C1186 0.960 . S
H1201 C1187 0.961 . S
H1202 C1187 0.961 . S
H1203 C1187 0.962 1_554 S
H1204 C1188 0.931 . S
H1205 C1193 0.930 . S
H1206 C1194 0.956 . S
H1207 C1194 0.961 . S
H1208 C1194 0.961 . S
H1209 C1195 0.958 . S
H1210 C1195 0.961 . S
H1211 C1195 0.960 . S
C1212 C1213 1.391 . S
C1212 C1214 1.399 . S
C1212 H1228 0.931 . S
C1213 C1212 1.391 . S
C1213 C1217 1.376 . S
C1214 C1212 1.399 . S
C1214 C1215 1.368 1_655 S
C1214 C1218 1.526 1_655 S
C1215 C1214 1.368 1_455 S
C1215 C1216 1.410 . S
C1215 C1223 1.503 . S
C1216 C1215 1.410 . S
C1216 C1217 1.392 1_455 S
C1216 C1219 1.511 . S
C1217 C1213 1.376 . S
C1217 C1216 1.392 1_655 S
C1217 H1229 0.929 . S
C1218 C1214 1.526 1_455 S
C1218 H1230 0.960 . S
C1218 H1231 0.962 1_455 S
C1218 H1232 0.960 1_455 S
C1219 C1216 1.511 . S
C1219 H1233 0.961 . S
C1219 H1234 0.961 . S
C1219 H1235 0.961 . S
C1220 C1221 1.370 . S
C1220 C1222 1.363 . S
C1220 H1236 0.931 . S
C1221 C1220 1.370 . S
C1221 C1225 1.408 . S
C1222 C1220 1.363 . S
C1222 C1223 1.370 . S
C1222 C1226 1.524 . S
C1223 C1215 1.503 . S
C1223 C1222 1.370 . S
C1223 C1224 1.403 . S
C1224 C1223 1.403 . S
C1224 C1225 1.404 . S
C1224 C1227 1.539 . S
C1225 C1221 1.408 . S
C1225 C1224 1.404 . S
C1225 H1237 0.930 . S
C1226 C1222 1.524 . S
C1226 H1238 0.956 1_455 S
C1226 H1239 0.961 . S
C1226 H1240 0.961 . S
C1227 C1224 1.539 . S
C1227 H1241 0.958 . S
C1227 H1242 0.961 . S
C1227 H1243 0.960 . S
H1228 C1212 0.931 . S
H1229 C1217 0.929 . S
H1230 C1218 0.960 . S
H1231 C1218 0.962 1_655 S
H1232 C1218 0.960 1_655 S
H1233 C1219 0.961 . S
H1234 C1219 0.961 . S
H1235 C1219 0.961 . S
H1236 C1220 0.931 . S
H1237 C1225 0.930 . S
H1238 C1226 0.956 1_655 S
H1239 C1226 0.961 . S
H1240 C1226 0.961 . S
H1241 C1227 0.958 . S
H1242 C1227 0.961 . S
H1243 C1227 0.960 . S
C1244 C1245 1.391 . S
C1244 C1246 1.394 . S
C1244 H1260 0.931 . S
C1245 C1244 1.391 . S
C1245 C1249 1.376 . S
C1246 C1244 1.394 . S
C1246 C1247 1.369 . S
C1246 C1250 1.531 . S
C1247 C1246 1.369 . S
C1247 C1248 1.410 . S
C1247 C1255 1.503 1_545 S
C1248 C1247 1.410 . S
C1248 C1249 1.392 . S
C1248 C1251 1.511 1_545 S
C1249 C1245 1.376 . S
C1249 C1248 1.392 . S
C1249 H1261 0.929 . S
C1250 C1246 1.531 . S
C1250 H1262 0.960 . S
C1250 H1263 0.962 . S
C1250 H1264 0.960 . S
C1251 C1248 1.511 1_565 S
C1251 H1265 0.961 . S
C1251 H1266 0.961 . S
C1251 H1267 0.961 . S
C1252 C1253 1.370 . S
C1252 C1254 1.363 . S
C1252 H1268 0.931 . S
C1253 C1252 1.370 . S
C1253 C1257 1.408 . S
C1254 C1252 1.363 . S
C1254 C1255 1.370 . S
C1254 C1258 1.524 . S
C1255 C1247 1.503 1_565 S
C1255 C1254 1.370 . S
C1255 C1256 1.403 . S
C1256 C1255 1.403 . S
C1256 C1257 1.404 . S
C1256 C1259 1.540 . S
C1257 C1253 1.408 . S
C1257 C1256 1.404 . S
C1257 H1269 0.930 . S
C1258 C1254 1.524 . S
C1258 H1270 0.956 . S
C1258 H1271 0.961 . S
C1258 H1272 0.961 . S
C1259 C1256 1.540 . S
C1259 H1273 0.949 1_565 S
C1259 H1274 0.974 . S
C1259 H1275 0.955 1_565 S
H1260 C1244 0.931 . S
H1261 C1249 0.929 . S
H1262 C1250 0.960 . S
H1263 C1250 0.962 . S
H1264 C1250 0.960 . S
H1265 C1251 0.961 . S
H1266 C1251 0.961 . S
H1267 C1251 0.961 . S
H1268 C1252 0.931 . S
H1269 C1257 0.930 . S
H1270 C1258 0.956 . S
H1271 C1258 0.961 . S
H1272 C1258 0.961 . S
H1273 C1259 0.949 1_545 S
H1274 C1259 0.974 . S
H1275 C1259 0.955 1_545 S
C1276 C1277 1.391 . S
C1276 C1278 1.394 . S
C1276 H1292 0.931 . S
C1277 C1276 1.391 . S
C1277 C1281 1.376 . S
C1278 C1276 1.394 . S
C1278 C1279 1.369 . S
C1278 C1282 1.531 . S
C1279 C1278 1.369 . S
C1279 C1280 1.410 . S
C1279 C1287 1.503 . S
C1280 C1279 1.410 . S
C1280 C1281 1.392 . S
C1280 C1283 1.511 . S
C1281 C1277 1.376 . S
C1281 C1280 1.392 . S
C1281 H1293 0.929 . S
C1282 C1278 1.531 . S
C1282 H1294 0.960 . S
C1282 H1295 0.962 . S
C1282 H1296 0.960 . S
C1283 C1280 1.511 . S
C1283 H1297 0.961 . S
C1283 H1298 0.961 . S
C1283 H1299 0.961 . S
C1284 C1285 1.370 . S
C1284 C1286 1.363 . S
C1284 H1300 0.931 . S
C1285 C1284 1.370 . S
C1285 C1289 1.408 . S
C1286 C1284 1.363 . S
C1286 C1287 1.370 . S
C1286 C1290 1.524 . S
C1287 C1279 1.503 . S
C1287 C1286 1.370 . S
C1287 C1288 1.403 . S
C1288 C1287 1.403 . S
C1288 C1289 1.404 . S
C1288 C1291 1.539 . S
C1289 C1285 1.408 . S
C1289 C1288 1.404 . S
C1289 H1301 0.930 . S
C1290 C1286 1.524 . S
C1290 H1302 0.956 . S
C1290 H1303 0.961 . S
C1290 H1304 0.961 . S
C1291 C1288 1.539 . S
C1291 H1305 0.958 . S
C1291 H1306 0.961 . S
C1291 H1307 0.960 . S
H1292 C1276 0.931 . S
H1293 C1281 0.929 . S
H1294 C1282 0.960 . S
H1295 C1282 0.962 . S
H1296 C1282 0.960 . S
H1297 C1283 0.961 . S
H1298 C1283 0.961 . S
H1299 C1283 0.961 . S
H1300 C1284 0.931 . S
H1301 C1289 0.930 . S
H1302 C1290 0.956 . S
H1303 C1290 0.961 . S
H1304 C1290 0.961 . S
H1305 C1291 0.958 . S
H1306 C1291 0.961 . S
H1307 C1291 0.960 . S
C1308 C1309 1.391 . S
C1308 C1310 1.394 . S
C1308 H1324 0.931 . S
C1309 C1308 1.391 . S
C1309 C1313 1.376 . S
C1310 C1308 1.394 . S
C1310 C1311 1.369 . S
C1310 C1314 1.531 . S
C1311 C1310 1.369 . S
C1311 C1312 1.410 . S
C1311 C1319 1.503 . S
C1312 C1311 1.410 . S
C1312 C1313 1.392 . S
C1312 C1315 1.511 . S
C1313 C1309 1.376 . S
C1313 C1312 1.392 . S
C1313 H1325 0.929 . S
C1314 C1310 1.531 . S
C1314 H1326 0.960 1_655 S
C1314 H1327 0.962 1_655 S
C1314 H1328 0.960 . S
C1315 C1312 1.511 . S
C1315 H1329 0.961 . S
C1315 H1330 0.961 . S
C1315 H1331 0.961 . S
C1316 C1317 1.370 . S
C1316 C1318 1.363 1_455 S
C1316 H1332 0.931 . S
C1317 C1316 1.370 . S
C1317 C1321 1.408 . S
C1318 C1316 1.363 1_655 S
C1318 C1319 1.370 . S
C1318 C1322 1.524 . S
C1319 C1311 1.503 . S
C1319 C1318 1.370 . S
C1319 C1320 1.403 1_655 S
C1320 C1319 1.403 1_455 S
C1320 C1321 1.404 . S
C1320 C1323 1.539 1_455 S
C1321 C1317 1.408 . S
C1321 C1320 1.404 . S
C1321 H1333 0.930 . S
C1322 C1318 1.524 . S
C1322 H1334 0.956 . S
C1322 H1335 0.961 . S
C1322 H1336 0.961 . S
C1323 C1320 1.539 1_655 S
C1323 H1337 0.958 1_655 S
C1323 H1338 0.961 1_655 S
C1323 H1339 0.960 . S
H1324 C1308 0.931 . S
H1325 C1313 0.929 . S
H1326 C1314 0.960 1_455 S
H1327 C1314 0.962 1_455 S
H1328 C1314 0.960 . S
H1329 C1315 0.961 . S
H1330 C1315 0.961 . S
H1331 C1315 0.961 . S
H1332 C1316 0.931 . S
H1333 C1321 0.930 . S
H1334 C1322 0.956 . S
H1335 C1322 0.961 . S
H1336 C1322 0.961 . S
H1337 C1323 0.958 1_455 S
H1338 C1323 0.961 1_455 S
H1339 C1323 0.960 . S
C1340 C1341 1.391 . S
C1340 C1342 1.394 . S
C1340 H1356 0.931 . S
C1341 C1340 1.391 . S
C1341 C1345 1.376 . S
C1342 C1340 1.394 . S
C1342 C1343 1.369 . S
C1342 C1346 1.531 1_565 S
C1343 C1342 1.369 . S
C1343 C1344 1.410 . S
C1343 C1351 1.503 1_565 S
C1344 C1343 1.410 . S
C1344 C1345 1.392 . S
C1344 C1347 1.511 . S
C1345 C1341 1.376 . S
C1345 C1344 1.392 . S
C1345 H1357 0.929 . S
C1346 C1342 1.531 1_545 S
C1346 H1358 0.960 . S
C1346 H1359 0.962 . S
C1346 H1360 0.960 . S
C1347 C1344 1.511 . S
C1347 H1361 0.961 . S
C1347 H1362 0.961 . S
C1347 H1363 0.961 . S
C1348 C1349 1.370 . S
C1348 C1350 1.363 . S
C1348 H1364 0.931 . S
C1349 C1348 1.370 . S
C1349 C1353 1.408 . S
C1350 C1348 1.363 . S
C1350 C1351 1.370 . S
C1350 C1354 1.524 . S
C1351 C1343 1.503 1_545 S
C1351 C1350 1.370 . S
C1351 C1352 1.403 . S
C1352 C1351 1.403 . S
C1352 C1353 1.404 . S
C1352 C1355 1.539 . S
C1353 C1349 1.408 . S
C1353 C1352 1.404 . S
C1353 H1365 0.930 . S
C1354 C1350 1.524 . S
C1354 H1366 0.956 . S
C1354 H1367 0.961 1_545 S
C1354 H1368 0.961 . S
C1355 C1352 1.539 . S
C1355 H1369 0.958 . S
C1355 H1370 0.961 . S
C1355 H1371 0.960 1_545 S
H1356 C1340 0.931 . S
H1357 C1345 0.929 . S
H1358 C1346 0.960 . S
H1359 C1346 0.962 . S
H1360 C1346 0.960 . S
H1361 C1347 0.961 . S
H1362 C1347 0.961 . S
H1363 C1347 0.961 . S
H1364 C1348 0.931 . S
H1365 C1353 0.930 . S
H1366 C1354 0.956 . S
H1367 C1354 0.961 1_565 S
H1368 C1354 0.961 . S
H1369 C1355 0.958 . S
H1370 C1355 0.961 . S
H1371 C1355 0.960 1_565 S
C1372 C1373 1.391 . S
C1372 C1374 1.394 . S
C1372 H1388 0.931 . S
C1373 C1372 1.391 . S
C1373 C1377 1.376 . S
C1374 C1372 1.394 . S
C1374 C1375 1.369 . S
C1374 C1378 1.531 . S
C1375 C1374 1.369 . S
C1375 C1376 1.410 . S
C1375 C1383 1.503 . S
C1376 C1375 1.410 . S
C1376 C1377 1.392 . S
C1376 C1379 1.511 . S
C1377 C1373 1.376 . S
C1377 C1376 1.392 . S
C1377 H1389 0.929 . S
C1378 C1374 1.531 . S
C1378 H1390 0.960 . S
C1378 H1391 0.962 . S
C1378 H1392 0.960 . S
C1379 C1376 1.511 . S
C1379 H1393 0.961 . S
C1379 H1394 0.961 . S
C1379 H1395 0.961 . S
C1380 C1381 1.370 . S
C1380 C1382 1.363 . S
C1380 H1396 0.931 . S
C1381 C1380 1.370 . S
C1381 C1385 1.408 . S
C1382 C1380 1.363 . S
C1382 C1383 1.370 . S
C1382 C1386 1.524 . S
C1383 C1375 1.503 . S
C1383 C1382 1.370 . S
C1383 C1384 1.403 . S
C1384 C1383 1.403 . S
C1384 C1385 1.404 . S
C1384 C1387 1.539 . S
C1385 C1381 1.408 . S
C1385 C1384 1.404 . S
C1385 H1397 0.930 . S
C1386 C1382 1.524 . S
C1386 H1398 0.956 . S
C1386 H1399 0.961 . S
C1386 H1400 0.961 . S
C1387 C1384 1.539 . S
C1387 H1401 0.958 . S
C1387 H1402 0.961 . S
C1387 H1403 0.960 . S
H1388 C1372 0.931 . S
H1389 C1377 0.929 . S
H1390 C1378 0.960 . S
H1391 C1378 0.962 . S
H1392 C1378 0.960 . S
H1393 C1379 0.961 . S
H1394 C1379 0.961 . S
H1395 C1379 0.961 . S
H1396 C1380 0.931 . S
H1397 C1385 0.930 . S
H1398 C1386 0.956 . S
H1399 C1386 0.961 . S
H1400 C1386 0.961 . S
H1401 C1387 0.958 . S
H1402 C1387 0.961 . S
H1403 C1387 0.960 . S
C637 C463 1.909 . S
C645 C22 1.883 . S
C669 C75 1.995 . S
C677 C499 2.016 . S
C701 C145 1.871 . S
C709 C552 1.891 . S
C733 C181 1.865 . S
C741 C622 1.895 . S
C765 C340 2.000 . S
C773 C234 2.028 . S
C797 C304 1.910 . S
C805 C393 1.890 . S
C829 C197 2.199 . S
C837 C38 2.200 . S
C861 C250 2.123 . S
C869 C91 2.132 . S
C893 C294 1.331 . S
C901 C135 1.331 . S
C925 C356 2.129 . S
C933 C515 2.134 . S
C957 C409 2.199 . S
C965 C568 2.200 . S
C989 C453 1.326 . S
C997 C612 1.331 . S
C1021 C29 1.930 . S
C1029 C506 1.885 . S
C1053 C82 1.864 . S
C1061 C559 1.916 . S
C1085 C144 1.490 . S
C1093 C621 1.515 . S
C1117 C347 1.899 . S
C1125 C188 1.899 . S
C1149 C241 1.897 . S
C1157 C400 1.913 . S
C1181 C462 1.514 . S
C1189 C303 1.506 . S
C1213 C605 1.746 . S
C1221 C39 1.722 . S
C1245 C92 2.111 . S
C1253 C357 2.126 . S
C1277 C410 1.746 . S
C1285 C128 1.728 . S
C1309 C198 1.739 . S
C1317 C446 1.732 . S
C1341 C251 2.119 . S
C1349 C516 2.130 . S
C1373 C569 1.747 . S
C1381 C287 1.720 . S
