# Generated by pormake.
# Topology wne, (6)-cn, num edge types: 1
# Building blocks:
#     Node 0, Type 0, BuildingBlock: BETDEL_clean_sbu_0, # of connection points: 6
#     Node 1, Type 0, BuildingBlock: BETDEL_clean_sbu_0, # of connection points: 6
#     Node 2, Type 0, BuildingBlock: BETDEL_clean_sbu_0, # of connection points: 6
#     Node 3, Type 0, BuildingBlock: BETDEL_clean_sbu_0, # of connection points: 6
#     Node 4, Type 0, BuildingBlock: BETDEL_clean_sbu_0, # of connection points: 6
#     Node 5, Type 0, BuildingBlock: BETDEL_clean_sbu_0, # of connection points: 6
#     Node 6, Type 0, BuildingBlock: BETDEL_clean_sbu_0, # of connection points: 6
#     Node 7, Type 0, BuildingBlock: BETDEL_clean_sbu_0, # of connection points: 6
#     Node 8, Type 0, BuildingBlock: BETDEL_clean_sbu_0, # of connection points: 6
#     Node 9, Type 0, BuildingBlock: BETDEL_clean_sbu_0, # of connection points: 6
#     Node 10, Type 0, BuildingBlock: BETDEL_clean_sbu_0, # of connection points: 6
#     Node 11, Type 0, BuildingBlock: BETDEL_clean_sbu_0, # of connection points: 6
#     Node 12, Type 0, BuildingBlock: BETDEL_clean_sbu_0, # of connection points: 6
#     Node 13, Type 0, BuildingBlock: BETDEL_clean_sbu_0, # of connection points: 6
#     Node 14, Type 0, BuildingBlock: BETDEL_clean_sbu_0, # of connection points: 6
#     Node 15, Type 0, BuildingBlock: BETDEL_clean_sbu_0, # of connection points: 6
#     Node 16, Type 0, BuildingBlock: BETDEL_clean_sbu_0, # of connection points: 6
#     Node 17, Type 0, BuildingBlock: BETDEL_clean_sbu_0, # of connection points: 6
#     Node 18, Type 0, BuildingBlock: BETDEL_clean_sbu_0, # of connection points: 6
#     Node 19, Type 0, BuildingBlock: BETDEL_clean_sbu_0, # of connection points: 6
#     Node 20, Type 0, BuildingBlock: BETDEL_clean_sbu_0, # of connection points: 6
#     Node 21, Type 0, BuildingBlock: BETDEL_clean_sbu_0, # of connection points: 6
#     Node 22, Type 0, BuildingBlock: BETDEL_clean_sbu_0, # of connection points: 6
#     Node 23, Type 0, BuildingBlock: BETDEL_clean_sbu_0, # of connection points: 6
#     Node 24, Type 0, BuildingBlock: BETDEL_clean_sbu_0, # of connection points: 6
#     Node 25, Type 0, BuildingBlock: BETDEL_clean_sbu_0, # of connection points: 6
#     Node 26, Type 0, BuildingBlock: BETDEL_clean_sbu_0, # of connection points: 6
#     Node 27, Type 0, BuildingBlock: BETDEL_clean_sbu_0, # of connection points: 6
#     Node 28, Type 0, BuildingBlock: BETDEL_clean_sbu_0, # of connection points: 6
#     Node 29, Type 0, BuildingBlock: BETDEL_clean_sbu_0, # of connection points: 6
#     Node 30, Type 0, BuildingBlock: BETDEL_clean_sbu_0, # of connection points: 6
#     Node 31, Type 0, BuildingBlock: BETDEL_clean_sbu_0, # of connection points: 6
#     Node 32, Type 0, BuildingBlock: BETDEL_clean_sbu_0, # of connection points: 6
#     Node 33, Type 0, BuildingBlock: BETDEL_clean_sbu_0, # of connection points: 6
#     Node 34, Type 0, BuildingBlock: BETDEL_clean_sbu_0, # of connection points: 6
#     Node 35, Type 0, BuildingBlock: BETDEL_clean_sbu_0, # of connection points: 6
#     Edge 36, Type (0, 0), BuildingBlock: OJICUG_clean_linker_0, # of connection points: 2
#     Edge 37, Type (0, 0), BuildingBlock: OJICUG_clean_linker_0, # of connection points: 2
#     Edge 38, Type (0, 0), BuildingBlock: OJICUG_clean_linker_0, # of connection points: 2
#     Edge 39, Type (0, 0), BuildingBlock: OJICUG_clean_linker_0, # of connection points: 2
#     Edge 40, Type (0, 0), BuildingBlock: OJICUG_clean_linker_0, # of connection points: 2
#     Edge 41, Type (0, 0), BuildingBlock: OJICUG_clean_linker_0, # of connection points: 2
#     Edge 42, Type (0, 0), BuildingBlock: OJICUG_clean_linker_0, # of connection points: 2
#     Edge 43, Type (0, 0), BuildingBlock: OJICUG_clean_linker_0, # of connection points: 2
#     Edge 44, Type (0, 0), BuildingBlock: OJICUG_clean_linker_0, # of connection points: 2
#     Edge 45, Type (0, 0), BuildingBlock: OJICUG_clean_linker_0, # of connection points: 2
#     Edge 46, Type (0, 0), BuildingBlock: OJICUG_clean_linker_0, # of connection points: 2
#     Edge 47, Type (0, 0), BuildingBlock: OJICUG_clean_linker_0, # of connection points: 2
#     Edge 48, Type (0, 0), BuildingBlock: OJICUG_clean_linker_0, # of connection points: 2
#     Edge 49, Type (0, 0), BuildingBlock: OJICUG_clean_linker_0, # of connection points: 2
#     Edge 50, Type (0, 0), BuildingBlock: OJICUG_clean_linker_0, # of connection points: 2
#     Edge 51, Type (0, 0), BuildingBlock: OJICUG_clean_linker_0, # of connection points: 2
#     Edge 52, Type (0, 0), BuildingBlock: OJICUG_clean_linker_0, # of connection points: 2
#     Edge 53, Type (0, 0), BuildingBlock: OJICUG_clean_linker_0, # of connection points: 2
#     Edge 54, Type (0, 0), BuildingBlock: OJICUG_clean_linker_0, # of connection points: 2
#     Edge 55, Type (0, 0), BuildingBlock: OJICUG_clean_linker_0, # of connection points: 2
#     Edge 56, Type (0, 0), BuildingBlock: OJICUG_clean_linker_0, # of connection points: 2
#     Edge 57, Type (0, 0), BuildingBlock: OJICUG_clean_linker_0, # of connection points: 2
#     Edge 58, Type (0, 0), BuildingBlock: OJICUG_clean_linker_0, # of connection points: 2
#     Edge 59, Type (0, 0), BuildingBlock: OJICUG_clean_linker_0, # of connection points: 2
#     Edge 60, Type (0, 0), BuildingBlock: OJICUG_clean_linker_0, # of connection points: 2
#     Edge 61, Type (0, 0), BuildingBlock: OJICUG_clean_linker_0, # of connection points: 2
#     Edge 62, Type (0, 0), BuildingBlock: OJICUG_clean_linker_0, # of connection points: 2
#     Edge 63, Type (0, 0), BuildingBlock: OJICUG_clean_linker_0, # of connection points: 2
#     Edge 64, Type (0, 0), BuildingBlock: OJICUG_clean_linker_0, # of connection points: 2
#     Edge 65, Type (0, 0), BuildingBlock: OJICUG_clean_linker_0, # of connection points: 2
#     Edge 66, Type (0, 0), BuildingBlock: OJICUG_clean_linker_0, # of connection points: 2
#     Edge 67, Type (0, 0), BuildingBlock: OJICUG_clean_linker_0, # of connection points: 2
#     Edge 68, Type (0, 0), BuildingBlock: OJICUG_clean_linker_0, # of connection points: 2
#     Edge 69, Type (0, 0), BuildingBlock: OJICUG_clean_linker_0, # of connection points: 2
#     Edge 70, Type (0, 0), BuildingBlock: OJICUG_clean_linker_0, # of connection points: 2
#     Edge 71, Type (0, 0), BuildingBlock: OJICUG_clean_linker_0, # of connection points: 2
#     Edge 72, Type (0, 0), BuildingBlock: OJICUG_clean_linker_0, # of connection points: 2
#     Edge 73, Type (0, 0), BuildingBlock: OJICUG_clean_linker_0, # of connection points: 2
#     Edge 74, Type (0, 0), BuildingBlock: OJICUG_clean_linker_0, # of connection points: 2
#     Edge 75, Type (0, 0), BuildingBlock: OJICUG_clean_linker_0, # of connection points: 2
#     Edge 76, Type (0, 0), BuildingBlock: OJICUG_clean_linker_0, # of connection points: 2
#     Edge 77, Type (0, 0), BuildingBlock: OJICUG_clean_linker_0, # of connection points: 2
#     Edge 78, Type (0, 0), BuildingBlock: OJICUG_clean_linker_0, # of connection points: 2
#     Edge 79, Type (0, 0), BuildingBlock: OJICUG_clean_linker_0, # of connection points: 2
#     Edge 80, Type (0, 0), BuildingBlock: OJICUG_clean_linker_0, # of connection points: 2
#     Edge 81, Type (0, 0), BuildingBlock: OJICUG_clean_linker_0, # of connection points: 2
#     Edge 82, Type (0, 0), BuildingBlock: OJICUG_clean_linker_0, # of connection points: 2
#     Edge 83, Type (0, 0), BuildingBlock: OJICUG_clean_linker_0, # of connection points: 2
#     Edge 84, Type (0, 0), BuildingBlock: OJICUG_clean_linker_0, # of connection points: 2
#     Edge 85, Type (0, 0), BuildingBlock: OJICUG_clean_linker_0, # of connection points: 2
#     Edge 86, Type (0, 0), BuildingBlock: OJICUG_clean_linker_0, # of connection points: 2
#     Edge 87, Type (0, 0), BuildingBlock: OJICUG_clean_linker_0, # of connection points: 2
#     Edge 88, Type (0, 0), BuildingBlock: OJICUG_clean_linker_0, # of connection points: 2
#     Edge 89, Type (0, 0), BuildingBlock: OJICUG_clean_linker_0, # of connection points: 2
#     Edge 90, Type (0, 0), BuildingBlock: OJICUG_clean_linker_0, # of connection points: 2
#     Edge 91, Type (0, 0), BuildingBlock: OJICUG_clean_linker_0, # of connection points: 2
#     Edge 92, Type (0, 0), BuildingBlock: OJICUG_clean_linker_0, # of connection points: 2
#     Edge 93, Type (0, 0), BuildingBlock: OJICUG_clean_linker_0, # of connection points: 2
#     Edge 94, Type (0, 0), BuildingBlock: OJICUG_clean_linker_0, # of connection points: 2
#     Edge 95, Type (0, 0), BuildingBlock: OJICUG_clean_linker_0, # of connection points: 2
#     Edge 96, Type (0, 0), BuildingBlock: OJICUG_clean_linker_0, # of connection points: 2
#     Edge 97, Type (0, 0), BuildingBlock: OJICUG_clean_linker_0, # of connection points: 2
#     Edge 98, Type (0, 0), BuildingBlock: OJICUG_clean_linker_0, # of connection points: 2
#     Edge 99, Type (0, 0), BuildingBlock: OJICUG_clean_linker_0, # of connection points: 2
#     Edge 100, Type (0, 0), BuildingBlock: OJICUG_clean_linker_0, # of connection points: 2
#     Edge 101, Type (0, 0), BuildingBlock: OJICUG_clean_linker_0, # of connection points: 2
#     Edge 102, Type (0, 0), BuildingBlock: OJICUG_clean_linker_0, # of connection points: 2
#     Edge 103, Type (0, 0), BuildingBlock: OJICUG_clean_linker_0, # of connection points: 2
#     Edge 104, Type (0, 0), BuildingBlock: OJICUG_clean_linker_0, # of connection points: 2
#     Edge 105, Type (0, 0), BuildingBlock: OJICUG_clean_linker_0, # of connection points: 2
#     Edge 106, Type (0, 0), BuildingBlock: OJICUG_clean_linker_0, # of connection points: 2
#     Edge 107, Type (0, 0), BuildingBlock: OJICUG_clean_linker_0, # of connection points: 2
#     Edge 108, Type (0, 0), BuildingBlock: OJICUG_clean_linker_0, # of connection points: 2
#     Edge 109, Type (0, 0), BuildingBlock: OJICUG_clean_linker_0, # of connection points: 2
#     Edge 110, Type (0, 0), BuildingBlock: OJICUG_clean_linker_0, # of connection points: 2
#     Edge 111, Type (0, 0), BuildingBlock: OJICUG_clean_linker_0, # of connection points: 2
#     Edge 112, Type (0, 0), BuildingBlock: OJICUG_clean_linker_0, # of connection points: 2
#     Edge 113, Type (0, 0), BuildingBlock: OJICUG_clean_linker_0, # of connection points: 2
#     Edge 114, Type (0, 0), BuildingBlock: OJICUG_clean_linker_0, # of connection points: 2
#     Edge 115, Type (0, 0), BuildingBlock: OJICUG_clean_linker_0, # of connection points: 2
#     Edge 116, Type (0, 0), BuildingBlock: OJICUG_clean_linker_0, # of connection points: 2
#     Edge 117, Type (0, 0), BuildingBlock: OJICUG_clean_linker_0, # of connection points: 2
#     Edge 118, Type (0, 0), BuildingBlock: OJICUG_clean_linker_0, # of connection points: 2
#     Edge 119, Type (0, 0), BuildingBlock: OJICUG_clean_linker_0, # of connection points: 2
#     Edge 120, Type (0, 0), BuildingBlock: OJICUG_clean_linker_0, # of connection points: 2
#     Edge 121, Type (0, 0), BuildingBlock: OJICUG_clean_linker_0, # of connection points: 2
#     Edge 122, Type (0, 0), BuildingBlock: OJICUG_clean_linker_0, # of connection points: 2
#     Edge 123, Type (0, 0), BuildingBlock: OJICUG_clean_linker_0, # of connection points: 2
#     Edge 124, Type (0, 0), BuildingBlock: OJICUG_clean_linker_0, # of connection points: 2
#     Edge 125, Type (0, 0), BuildingBlock: OJICUG_clean_linker_0, # of connection points: 2
#     Edge 126, Type (0, 0), BuildingBlock: OJICUG_clean_linker_0, # of connection points: 2
#     Edge 127, Type (0, 0), BuildingBlock: OJICUG_clean_linker_0, # of connection points: 2
#     Edge 128, Type (0, 0), BuildingBlock: OJICUG_clean_linker_0, # of connection points: 2
#     Edge 129, Type (0, 0), BuildingBlock: OJICUG_clean_linker_0, # of connection points: 2
#     Edge 130, Type (0, 0), BuildingBlock: OJICUG_clean_linker_0, # of connection points: 2
#     Edge 131, Type (0, 0), BuildingBlock: OJICUG_clean_linker_0, # of connection points: 2
#     Edge 132, Type (0, 0), BuildingBlock: OJICUG_clean_linker_0, # of connection points: 2
#     Edge 133, Type (0, 0), BuildingBlock: OJICUG_clean_linker_0, # of connection points: 2
#     Edge 134, Type (0, 0), BuildingBlock: OJICUG_clean_linker_0, # of connection points: 2
#     Edge 135, Type (0, 0), BuildingBlock: OJICUG_clean_linker_0, # of connection points: 2
#     Edge 136, Type (0, 0), BuildingBlock: OJICUG_clean_linker_0, # of connection points: 2
#     Edge 137, Type (0, 0), BuildingBlock: OJICUG_clean_linker_0, # of connection points: 2
#     Edge 138, Type (0, 0), BuildingBlock: OJICUG_clean_linker_0, # of connection points: 2
#     Edge 139, Type (0, 0), BuildingBlock: OJICUG_clean_linker_0, # of connection points: 2
#     Edge 140, Type (0, 0), BuildingBlock: OJICUG_clean_linker_0, # of connection points: 2
#     Edge 141, Type (0, 0), BuildingBlock: OJICUG_clean_linker_0, # of connection points: 2
#     Edge 142, Type (0, 0), BuildingBlock: OJICUG_clean_linker_0, # of connection points: 2
#     Edge 143, Type (0, 0), BuildingBlock: OJICUG_clean_linker_0, # of connection points: 2
# Relax obj value: 0.232
# Max RMSD: 0.201
# Mean RMSD: 0.201
data_MOF--net-wne--node1-BETDEL_clean_sbu_0--edge1-OJICUG_clean_linker_0
_symmetry_space_group_name_H-M    P1
_symmetry_Int_Tables_number       1
_symmetry_cell_setting            triclinic
loop_
_symmetry_equiv_pos_as_xyz
'x, y, z'
_cell_length_a     53.553265
_cell_length_b     53.838223
_cell_length_c     24.289934
_cell_angle_alpha  89.890428
_cell_angle_beta   89.949016
_cell_angle_gamma 119.8805
loop_
_atom_site_label
_atom_site_type_symbol
_atom_site_fract_x
_atom_site_fract_y
_atom_site_fract_z
_atom_type_partial_charge
Dy0 Dy 0.24749 0.16553 0.0871 0.0
C1 C 0.31218 0.2842 0.10174 0.0
C2 C 0.23295 0.11151 0.05307 0.0
Dy3 Dy 0.28589 0.22682 0.10519 0.0
O4 O 0.21441 0.1194 0.0669 0.0
O5 O 0.2588 0.13324 0.05618 0.0
O6 O 0.21805 0.15408 0.16337 0.0
O7 O 0.25066 0.19538 0.15169 0.0
C8 C 0.23032 0.17982 0.18372 0.0
C9 C 0.30822 0.20687 0.02856 0.0
O10 O 0.30376 0.21143 0.1713 0.0
O11 O 0.28306 0.16602 0.13453 0.0
O12 O 0.29841 0.26748 0.06112 0.0
O13 O 0.31129 0.26967 0.14531 0.0
O14 O 0.32165 0.2225 0.07032 0.0
O15 O 0.28154 0.20023 0.032 0.0
O16 O 0.2231 0.18023 0.0355 0.0
O17 O 0.24344 0.22327 0.08162 0.0
C18 C 0.3015 0.18586 0.16797 0.0
C19 C 0.22318 0.20398 0.04916 0.0
Dy20 Dy 0.85967 0.08326 0.09124 0.0
C21 C 0.74372 0.03611 0.13521 0.0
C22 C 0.91588 0.11813 0.0597 0.0
Dy23 Dy 0.80023 0.0597 0.10982 0.0
O24 O 0.90726 0.10983 0.10982 0.0
O25 O 0.89391 0.10648 0.02674 0.0
O26 O 0.86143 0.04959 0.1455 0.0
O27 O 0.83335 0.06421 0.16708 0.0
C28 C 0.84117 0.04625 0.17934 0.0
C29 C 0.81309 0.08571 1.00995 0.0
O30 O 0.81469 0.09927 0.16012 0.0
O31 O 0.86233 0.12074 0.13343 0.0
O32 O 0.75909 0.06069 0.11156 0.0
O33 O 0.75963 0.02507 0.14783 0.0
O34 O 0.7932 0.05953 1.01918 0.0
O35 O 0.82847 0.09484 0.05322 0.0
O36 O 0.84338 0.04512 0.03588 0.0
O37 O 0.80271 0.02069 0.08777 0.0
C38 C 0.84114 0.12157 0.1591 0.0
C39 C 0.8211 0.0207 0.05178 0.0
Dy40 Dy 0.94364 0.7774 0.08974 0.0
C41 C 1.00051 0.7187 0.10774 0.0
C42 C 0.90786 0.79809 0.05921 0.0
Dy43 Dy 0.96684 0.74261 0.11004 0.0
O44 O 0.91957 0.80135 0.10731 0.0
O45 O 0.91619 0.78413 0.0279 0.0
O46 O 0.9781 0.81297 0.14245 0.0
O47 O 0.96196 0.77064 0.16721 0.0
C48 C 0.98032 0.79626 0.17841 0.0
C49 C 0.92512 0.71584 0.03531 0.0
O50 O 0.93051 0.72006 0.16948 0.0
O51 O 0.90619 0.74057 0.12969 0.0
O52 O 0.99028 0.72481 0.06508 0.0
O53 O 0.99246 0.72563 0.15308 0.0
O54 O 0.92965 0.70404 0.07746 0.0
O55 O 0.94324 0.74314 0.03508 0.0
O56 O 0.98198 0.80252 0.03627 0.0
O57 O 1.00569 0.78407 0.08386 0.0
C58 C 0.90667 0.72138 0.16267 0.0
C59 C 1.00612 0.80327 0.04952 0.0
Dy60 Dy 0.17339 0.23911 0.4626 0.0
C61 C 0.28803 0.29578 0.43465 0.0
C62 C 0.11715 0.21881 0.49445 0.0
Dy63 Dy 0.23065 0.27345 0.43865 0.0
O64 O 0.12537 0.21637 0.44553 0.0
O65 O 0.13951 0.23153 0.52603 0.0
O66 O 0.17168 0.20269 0.41125 0.0
O67 O 0.19716 0.24456 0.38369 0.0
C68 C 0.19 0.21885 0.37384 0.0
C69 C 0.21785 0.3016 0.51426 0.0
O70 O 0.21571 0.29543 0.38045 0.0
O71 O 0.17192 0.27568 0.42412 0.0
O72 O 0.27255 0.28738 0.47877 0.0
O73 O 0.27222 0.29207 0.39135 0.0
O74 O 0.23394 0.31279 0.47152 0.0
O75 O 0.20805 0.2742 0.51519 0.0
O76 O 0.18732 0.21491 0.5168 0.0
O77 O 0.22834 0.23233 0.46576 0.0
C78 C 0.19084 0.29439 0.38952 0.0
C79 C 0.21042 0.21391 0.50221 0.0
Dy80 Dy 0.78311 0.93301 0.46225 0.0
C81 C 0.72459 0.98952 0.44121 0.0
C82 C 0.80349 0.89726 0.4929 0.0
Dy83 Dy 0.74804 0.95548 0.44221 0.0
O84 O 0.80536 0.90753 0.44381 0.0
O85 O 0.79132 0.90719 0.52527 0.0
O86 O 0.81934 0.96695 0.40919 0.0
O87 O 0.77692 0.95189 0.38489 0.0
C88 C 0.80281 0.97003 0.37393 0.0
C89 C 0.72115 0.91366 0.51742 0.0
O90 O 0.72645 0.91966 0.38195 0.0
O91 O 0.74683 0.89544 0.42231 0.0
O92 O 0.73295 0.98195 0.48471 0.0
O93 O 0.7288 0.97836 0.39715 0.0
O94 O 0.70927 0.91814 0.47531 0.0
O95 O 0.74844 0.93207 0.51762 0.0
O96 O 0.8084 0.97111 0.51499 0.0
O97 O 0.78972 0.99444 0.46703 0.0
C98 C 0.72815 0.89611 0.38825 0.0
C99 C 0.80909 0.99503 0.50125 0.0
Dy100 Dy 0.09054 0.85197 0.46492 0.0
C101 C 0.04471 0.73413 0.45131 0.0
C102 C 0.12332 0.90823 0.49448 0.0
Dy103 Dy 0.06642 0.79097 0.46145 0.0
O104 O 0.11836 0.89872 0.44439 0.0
O105 O 0.10974 0.88699 0.52876 0.0
O106 O 0.07085 0.86086 0.38962 0.0
O107 O 0.06019 0.81895 0.40684 0.0
C108 C 0.05581 0.83445 0.37355 0.0
C109 C 0.09879 0.81155 0.55341 0.0
O110 O 0.10623 0.80264 0.41198 0.0
O111 O 0.12724 0.85143 0.42451 0.0
O112 O 0.04456 0.74694 0.496 0.0
O113 O 0.05606 0.7522 0.41097 0.0
O114 O 0.07178 0.79242 0.55275 0.0
O115 O 0.10472 0.82314 0.50571 0.0
O116 O 0.05076 0.8379 0.51627 0.0
O117 O 0.02692 0.79438 0.47324 0.0
C118 C 0.12811 0.82899 0.40556 0.0
C119 C 0.02647 0.81453 0.50333 0.0
Dy120 Dy 0.75055 0.79419 0.96237 0.0
C121 C 0.8088 0.91106 0.99402 0.0
C122 C 0.71776 0.73698 0.95561 0.0
Dy123 Dy 0.78736 0.85523 0.96306 0.0
O124 O 0.72988 0.75096 0.99988 0.0
O125 O 0.72349 0.75417 0.91401 0.0
O126 O 0.74538 0.79648 0.05342 0.0
O127 O 0.74424 0.82696 1.00372 0.0
C128 C 0.73844 0.81627 0.05209 0.0
C129 C 0.80462 0.83687 0.87303 0.0
O130 O 0.81389 0.84206 1.0146 0.0
O131 O 0.79334 0.79777 0.9747 0.0
O132 O 0.80579 0.90209 0.9436 0.0
O133 O 0.80109 0.88961 0.0277 0.0
O134 O 0.81594 0.8635 0.8879 0.0
O135 O 0.78475 0.82165 0.90678 0.0
O136 O 0.72217 0.80445 0.91093 0.0
O137 O 0.75025 0.85353 0.91957 0.0
C138 C 0.81432 0.81825 1.00336 0.0
C139 C 0.72682 0.83068 0.90193 0.0
Dy140 Dy 0.2334 0.95874 0.9434 0.0
C141 C 0.11732 0.8998 0.99204 0.0
C142 C 0.28983 0.98218 0.91791 0.0
Dy143 Dy 0.17358 0.93508 0.96121 0.0
O144 O 0.27466 0.95803 0.94315 0.0
O145 O 0.27378 0.99285 0.90384 0.0
O146 O 0.24021 0.9594 0.0341 0.0
O147 O 0.20487 0.92402 1.00043 0.0
C148 C 0.2202 0.93333 0.04371 0.0
C149 C 0.19247 0.97186 0.87332 0.0
O150 O 0.18934 0.97414 1.01426 0.0
O151 O 0.23164 0.99782 0.9663 0.0
O152 O 0.12608 0.90818 0.94201 0.0
O153 O 0.13917 0.9116 1.02531 0.0
O154 O 0.17197 0.9685 0.90651 0.0
O155 O 0.20024 0.95389 0.88587 0.0
O156 O 0.21956 0.919 0.89469 0.0
O157 O 0.17161 0.89768 0.91934 0.0
C158 C 0.21278 0.99821 1.00051 0.0
C159 C 0.19314 0.89675 0.89521 0.0
Dy160 Dy 0.06731 0.27351 0.93855 0.0
C161 C 0.12658 0.21949 0.994 0.0
C162 C 0.0336 0.29731 0.93026 0.0
Dy163 Dy 0.09012 0.23925 0.96289 0.0
O164 O 0.03564 0.28431 0.97322 0.0
O165 O 0.04954 0.29683 0.89034 0.0
O166 O 0.10266 0.31273 0.97367 0.0
O167 O 0.09011 0.27394 1.01596 0.0
C168 C 0.10758 0.30132 1.01584 0.0
C169 C 0.05367 0.21905 0.87375 0.0
O170 O 0.05143 0.21471 1.01582 0.0
O171 O 0.02808 0.23229 0.96446 0.0
O172 O 0.11637 0.21769 0.94488 0.0
O173 O 0.11602 0.23109 0.02633 0.0
O174 O 0.0558 0.20292 0.91117 0.0
O175 O 0.07218 0.24481 0.88357 0.0
O176 O 0.10438 0.29511 0.88053 0.0
O177 O 0.12851 0.27633 0.92648 0.0
C178 C 0.02736 0.21367 1.00071 0.0
C179 C 0.12837 0.2947 0.8911 0.0
Dy180 Dy 0.80055 0.74272 0.6116 0.0
C181 C 0.91412 0.79815 0.55812 0.0
C182 C 0.74307 0.72004 0.61442 0.0
Dy183 Dy 0.85766 0.7773 0.58894 0.0
O184 O 0.75882 0.72877 0.57067 0.0
O185 O 0.75866 0.72361 0.658 0.0
O186 O 0.79742 0.70362 0.57766 0.0
O187 O 0.82355 0.74255 0.53501 0.0
C188 C 0.8137 0.71514 0.53528 0.0
C189 C 0.84085 0.79682 0.6784 0.0
O190 O 0.84393 0.80194 0.53567 0.0
O191 O 0.80261 0.78381 0.58583 0.0
O192 O 0.90549 0.79936 0.60739 0.0
O193 O 0.89204 0.78633 0.52567 0.0
O194 O 0.85917 0.81322 0.64123 0.0
O195 O 0.83368 0.77115 0.66794 0.0
O196 O 0.81524 0.72053 0.66957 0.0
O197 O 0.85901 0.74042 0.62592 0.0
C198 C 0.82066 0.80263 0.55012 0.0
C199 C 0.8401 0.72161 0.66034 0.0
Dy200 Dy 0.28059 0.05623 0.60395 0.0
C201 C 0.22623 0.11841 0.56014 0.0
C202 C 0.29792 0.01833 0.62735 0.0
Dy203 Dy 0.24632 0.08194 0.58688 0.0
O204 O 0.30699 0.04247 0.65338 0.0
O205 O 0.27897 0.01483 0.59071 0.0
O206 O 0.31143 0.06902 0.53558 0.0
O207 O 0.2843 0.08719 0.53772 0.0
C208 C 0.30556 0.08711 0.51295 0.0
C209 C 0.22859 0.046 0.67649 0.0
O210 O 0.221 0.04406 0.53287 0.0
O211 O 0.23735 0.01926 0.58259 0.0
O212 O 0.22897 0.11126 0.60987 0.0
O213 O 0.23363 0.10499 0.52529 0.0
O214 O 0.21138 0.04945 0.64377 0.0
O215 O 0.25423 0.06331 0.66233 0.0
O216 O 0.30873 0.09576 0.65197 0.0
O217 O 0.28544 0.11919 0.61986 0.0
C218 C 0.21867 0.01956 0.54804 0.0
C219 C 0.30686 0.11923 0.64641 0.0
Dy220 Dy 0.96521 0.22439 0.60501 0.0
C221 C 0.90569 0.10518 0.5589 0.0
C222 C 0.98832 0.28048 0.62946 0.0
Dy223 Dy 0.94003 0.16069 0.59141 0.0
O224 O 0.96231 0.26426 0.61196 0.0
O225 O 1.0013 0.26579 0.63552 0.0
O226 O 0.96315 0.22815 0.51391 0.0
O227 O 0.92984 0.19298 0.55309 0.0
C228 C 0.93762 0.20631 0.50717 0.0
C229 C 0.97315 0.1779 0.6858 0.0
O230 O 0.98054 0.1763 0.54183 0.0
O231 O 1.00395 0.22119 0.58194 0.0
O232 O 0.91104 0.11386 0.60954 0.0
O233 O 0.91996 0.12677 0.52565 0.0
O234 O 0.95947 0.15163 0.66819 0.0
O235 O 0.96773 0.19229 0.65191 0.0
O236 O 0.92634 0.20854 0.65947 0.0
O237 O 0.90258 0.16229 0.62554 0.0
C238 C 1.00439 0.20067 0.55275 0.0
C239 C 0.90276 0.1832 0.65393 0.0
Dy240 Dy 0.91124 0.4955 0.42584 0.0
C241 C 0.98486 0.61323 0.43714 0.0
C242 C 0.88755 0.43946 0.39558 0.0
Dy243 Dy 0.94887 0.5565 0.42718 0.0
O244 O 0.89213 0.44872 0.44587 0.0
O245 O 0.89512 0.4608 0.36165 0.0
O246 O 0.88277 0.48753 0.5009 0.0
O247 O 0.91443 0.52922 0.48238 0.0
C248 C 0.89442 0.51413 0.51591 0.0
C249 C 0.95871 0.53423 0.33551 0.0
O250 O 0.97691 0.54458 0.47603 0.0
O251 O 0.9482 0.49567 0.46675 0.0
O252 O 0.97295 0.60032 0.39183 0.0
O253 O 0.97668 0.59532 0.47801 0.0
O254 O 0.95212 0.55428 0.33586 0.0
O255 O 0.95395 0.5235 0.38383 0.0
O256 O 0.88576 0.50958 0.37399 0.0
O257 O 0.90634 0.55376 0.41472 0.0
C258 C 0.97198 0.51818 0.48397 0.0
C259 C 0.88543 0.53338 0.3856 0.0
Dy260 Dy 0.52572 0.41629 0.41912 0.0
C261 C 0.4102 0.35826 0.44228 0.0
C262 C 0.58189 0.45314 0.38911 0.0
Dy263 Dy 0.46759 0.39293 0.44026 0.0
O264 O 0.57343 0.44233 0.43785 0.0
O265 O 0.55983 0.44306 0.35658 0.0
O266 O 0.52855 0.38318 0.47365 0.0
O267 O 0.50084 0.39799 0.49689 0.0
C268 C 0.50889 0.38021 0.50875 0.0
C269 C 0.48195 0.43332 0.36202 0.0
O270 O 0.48148 0.4296 0.49805 0.0
O271 O 0.52567 0.45378 0.45585 0.0
O272 O 0.42604 0.3655 0.39862 0.0
O273 O 0.42561 0.37005 0.48601 0.0
O274 O 0.46564 0.42943 0.40397 0.0
O275 O 0.49098 0.41509 0.36393 0.0
O276 O 0.51304 0.37806 0.36713 0.0
O277 O 0.47133 0.35447 0.41647 0.0
C278 C 0.50632 0.45336 0.48969 0.0
C279 C 0.49008 0.35406 0.38179 0.0
Dy280 Dy 0.61041 0.11224 0.42174 0.0
C281 C 0.66782 0.05483 0.4493 0.0
C282 C 0.57452 0.13255 0.38997 0.0
Dy283 Dy 0.63326 0.07774 0.44512 0.0
O284 O 0.58512 0.13495 0.43892 0.0
O285 O 0.58421 0.11988 0.35836 0.0
O286 O 0.64511 0.14856 0.47311 0.0
O287 O 0.6288 0.10665 0.50043 0.0
C288 C 0.64737 0.13239 0.5103 0.0
C289 C 0.59243 0.05014 0.36895 0.0
O290 O 0.59594 0.05533 0.50256 0.0
O291 O 0.57216 0.07552 0.45972 0.0
O292 O 0.66114 0.06358 0.4052 0.0
O293 O 0.65568 0.05863 0.49248 0.0
O294 O 0.59713 0.03864 0.41136 0.0
O295 O 0.6102 0.07749 0.36861 0.0
O296 O 0.64853 0.13645 0.36741 0.0
O297 O 0.67213 0.11885 0.4178 0.0
C298 C 0.57216 0.05648 0.49362 0.0
C299 C 0.67262 0.13736 0.38159 0.0
Dy300 Dy 0.84112 0.57485 0.79678 0.0
C301 C 0.95619 0.63165 0.765 0.0
C302 C 0.78528 0.55628 0.82983 0.0
Dy303 Dy 0.89863 0.6089 0.77149 0.0
O304 O 0.79265 0.54761 0.78622 0.0
O305 O 0.80831 0.57424 0.85599 0.0
O306 O 0.83837 0.53855 0.74402 0.0
O307 O 0.8644 0.58056 0.71712 0.0
C308 C 0.85661 0.55476 0.70655 0.0
C309 C 0.88602 0.63648 0.84914 0.0
O310 O 0.88361 0.63045 0.71262 0.0
O311 O 0.83965 0.61076 0.75565 0.0
O312 O 0.94043 0.61777 0.80672 0.0
O313 O 0.94048 0.63276 0.72533 0.0
O314 O 0.90216 0.64796 0.80672 0.0
O315 O 0.87643 0.60917 0.84916 0.0
O316 O 0.85565 0.55093 0.85015 0.0
O317 O 0.8954 0.56696 0.79557 0.0
C318 C 0.85875 0.62945 0.72132 0.0
C319 C 0.87789 0.54894 0.83309 0.0
Dy320 Dy 0.45193 0.26754 0.792 0.0
C321 C 0.38284 0.31408 0.74575 0.0
C322 C 0.47322 0.23275 0.82395 0.0
Dy323 Dy 0.41597 0.29095 0.77231 0.0
O324 O 0.47298 0.241 0.7738 0.0
O325 O 0.46287 0.24443 0.85679 0.0
O326 O 0.48746 0.30104 0.73758 0.0
O327 O 0.44474 0.28623 0.71572 0.0
C328 C 0.47056 0.30419 0.70346 0.0
C329 C 0.40301 0.26562 0.87288 0.0
O330 O 0.39095 0.25117 0.72253 0.0
O331 O 0.417 0.22981 0.75016 0.0
O332 O 0.37372 0.28969 0.77012 0.0
O333 O 0.40982 0.32518 0.73314 0.0
O334 O 0.40914 0.29167 0.86287 0.0
O335 O 0.40917 0.2562 0.82987 0.0
O336 O 0.47376 0.30615 0.84645 0.0
O337 O 0.4574 0.3302 0.79382 0.0
C338 C 0.39503 0.22887 0.72412 0.0
C339 C 0.47578 0.33045 0.83003 0.0
Dy340 Dy 0.75772 0.18653 0.7978 0.0
C341 C 0.7043 0.06799 0.78043 0.0
C342 C 0.79715 0.24083 0.83101 0.0
Dy343 Dy 0.73492 0.12531 0.77953 0.0
O344 O 0.77026 0.23234 0.82005 0.0
O345 O 0.80176 0.21953 0.82556 0.0
O346 O 0.73993 0.1979 0.72105 0.0
O347 O 0.73132 0.15675 0.73301 0.0
C348 C 0.72653 0.17215 0.70074 0.0
C349 C 0.77701 0.1451 0.85647 0.0
O350 O 0.76851 0.14085 0.7141 0.0
O351 O 0.79327 0.18592 0.75209 0.0
O352 O 0.70726 0.08408 0.82218 0.0
O353 O 0.71759 0.08312 0.73718 0.0
O354 O 0.77481 0.12946 0.81471 0.0
O355 O 0.75702 0.15182 0.85299 0.0
O356 O 0.71837 0.1716 0.84923 0.0
O357 O 0.69586 0.12844 0.80344 0.0
C358 C 0.79206 0.16618 0.71859 0.0
C359 C 0.69475 0.14772 0.83564 0.0
Dy360 Dy 0.4158 0.12595 0.28657 0.0
C361 C 0.47651 0.2442 0.32428 0.0
C362 C 0.38105 0.06889 0.27478 0.0
Dy363 Dy 0.45408 0.18857 0.29221 0.0
O364 O 0.38249 0.08342 0.31794 0.0
O365 O 0.39832 0.08557 0.2367 0.0
O366 O 0.41376 0.12707 0.37832 0.0
O367 O 0.41175 0.15868 0.33311 0.0
C368 C 0.40741 0.14733 0.38083 0.0
C369 C 0.47019 0.17032 0.20038 0.0
O370 O 0.4796 0.17397 0.34268 0.0
O371 O 0.45796 0.12873 0.30488 0.0
O372 O 0.47284 0.23543 0.27365 0.0
O373 O 0.46885 0.22262 0.35764 0.0
O374 O 0.48219 0.19686 0.21606 0.0
O375 O 0.45039 0.15554 0.23445 0.0
O376 O 0.38834 0.13908 0.23858 0.0
O377 O 0.416 0.18775 0.25484 0.0
C378 C 0.47923 0.14962 0.33268 0.0
C379 C 0.39258 0.16552 0.23537 0.0
Dy380 Dy 0.89962 0.29391 0.27883 0.0
C381 C 0.78395 0.23289 0.32277 0.0
C382 C 0.95476 0.33226 0.25533 0.0
Dy383 Dy 0.84074 0.26899 0.29619 0.0
O384 O 0.93978 0.30824 0.22893 0.0
O385 O 0.93927 0.33541 0.29243 0.0
O386 O 0.91834 0.28078 0.34491 0.0
O387 O 0.87282 0.26262 0.34554 0.0
C388 C 0.89465 0.26294 0.36881 0.0
C389 C 0.85909 0.30579 0.20749 0.0
O390 O 0.85309 0.30549 0.35335 0.0
O391 O 0.89387 0.33086 0.30317 0.0
O392 O 0.79391 0.24016 0.27307 0.0
O393 O 0.80482 0.24604 0.35756 0.0
O394 O 0.83948 0.3031 0.24235 0.0
O395 O 0.86681 0.28781 0.21983 0.0
O396 O 0.88821 0.25471 0.22991 0.0
O397 O 0.84159 0.23145 0.26236 0.0
C398 C 0.87516 0.33014 0.33898 0.0
C399 C 0.86279 0.23131 0.23537 0.0
Dy400 Dy 0.73492 0.60823 0.27147 0.0
C401 C 0.79092 0.55135 0.32837 0.0
C402 C 0.70329 0.63416 0.26246 0.0
Dy403 Dy 0.75646 0.57318 0.2961 0.0
O404 O 0.70841 0.62502 0.30781 0.0
O405 O 0.71493 0.62863 0.22071 0.0
O406 O 0.77137 0.64701 0.30566 0.0
O407 O 0.75718 0.60821 0.3492 0.0
C408 C 0.77521 0.63549 0.34896 0.0
C409 C 0.72 0.55315 0.20705 0.0
O410 O 0.71761 0.54922 0.34882 0.0
O411 O 0.69506 0.56795 0.29841 0.0
O412 O 0.78179 0.55063 0.27868 0.0
O413 O 0.78059 0.56325 0.36045 0.0
O414 O 0.72175 0.53698 0.24485 0.0
O415 O 0.73885 0.57885 0.21651 0.0
O416 O 0.77211 0.62928 0.21378 0.0
O417 O 0.79553 0.60971 0.2596 0.0
C418 C 0.69386 0.54894 0.33417 0.0
C419 C 0.79581 0.62831 0.22418 0.0
Dy420 Dy 0.46802 0.07661 0.94323 0.0
C421 C 0.58181 0.13084 0.88947 0.0
C422 C 0.41038 0.05345 0.94841 0.0
Dy423 Dy 0.52534 0.11091 0.91969 0.0
O424 O 0.42641 0.06804 0.90752 0.0
O425 O 0.42586 0.05193 0.98809 0.0
O426 O 0.46412 0.03742 0.90826 0.0
O427 O 0.49079 0.07623 0.86624 0.0
C428 C 0.48075 0.04882 0.86643 0.0
C429 C 0.50883 0.13052 1.00941 0.0
O430 O 0.51146 0.13568 0.867 0.0
O431 O 0.47059 0.11824 0.91864 0.0
O432 O 0.57316 0.13279 0.9383 0.0
O433 O 0.55976 0.11896 0.85694 0.0
O434 O 0.52724 0.14691 0.97234 0.0
O435 O 0.50149 0.10485 0.99886 0.0
O436 O 0.48338 0.05534 1.00226 0.0
O437 O 0.52631 0.07379 0.95616 0.0
C438 C 0.48856 0.13689 0.88242 0.0
C439 C 0.50777 0.05566 0.99186 0.0
Dy440 Dy 0.95295 0.39452 0.93171 0.0
C441 C 0.89197 0.45253 0.89123 0.0
C442 C 0.98682 0.37126 0.94849 0.0
Dy443 Dy 0.91384 0.41856 0.92379 0.0
O444 O 0.99219 0.39154 0.91378 0.0
O445 O 0.96352 0.36445 0.97596 0.0
O446 O 0.957 0.39843 0.84014 0.0
O447 O 0.95698 0.43129 0.88469 0.0
C448 C 0.96245 0.42471 0.83736 0.0
C449 C 0.89766 0.38401 1.01563 0.0
O450 O 0.88797 0.37832 0.87475 0.0
O451 O 0.91228 0.35573 0.90634 0.0
O452 O 0.89477 0.44662 0.94188 0.0
O453 O 0.90015 0.43897 0.85802 0.0
O454 O 0.88524 0.39823 0.99936 0.0
O455 O 0.91774 0.38947 0.98188 0.0
O456 O 0.97704 0.43267 0.9866 0.0
O457 O 0.95071 0.45478 0.96478 0.0
C458 C 0.89006 0.35497 0.88109 0.0
C459 C 0.9727 0.45484 0.98906 0.0
Dy460 Dy 0.63095 0.55864 0.94242 0.0
C461 C 0.57152 0.44097 0.88998 0.0
C462 C 0.6613 0.61573 0.94878 0.0
Dy463 Dy 0.60738 0.49644 0.92261 0.0
O464 O 0.65514 0.60137 0.90334 0.0
O465 O 0.65137 0.59893 0.99149 0.0
O466 O 0.59159 0.55684 0.9113 0.0
O467 O 0.6058 0.53142 0.87129 0.0
C468 C 0.58679 0.53962 0.87075 0.0
C469 C 0.64186 0.51218 1.01544 0.0
O470 O 0.64828 0.51032 0.87674 0.0
O471 O 0.66942 0.55678 0.90976 0.0
O472 O 0.57707 0.44971 0.94048 0.0
O473 O 0.5862 0.46248 0.85688 0.0
O474 O 0.62885 0.48638 0.99535 0.0
O475 O 0.63548 0.52674 0.98416 0.0
O476 O 0.59796 0.54146 1.00895 0.0
O477 O 0.57155 0.49867 0.96328 0.0
C478 C 0.67107 0.53599 0.8837 0.0
C479 C 0.57369 0.51711 1.00115 0.0
Dy480 Dy 0.57805 0.82827 0.75793 0.0
C481 C 0.65257 0.94734 0.79651 0.0
C482 C 0.55614 0.77292 0.72387 0.0
Dy483 Dy 0.61763 0.89173 0.7718 0.0
O484 O 0.55831 0.7811 0.7747 0.0
O485 O 0.56504 0.79496 0.6912 0.0
O486 O 0.54856 0.81971 0.83299 0.0
O487 O 0.58177 0.86014 0.81719 0.0
C488 C 0.56141 0.84604 0.85033 0.0
C489 C 0.62778 0.8729 0.67555 0.0
O490 O 0.63932 0.87539 0.82773 0.0
O491 O 0.61515 0.82828 0.79807 0.0
O492 O 0.65938 0.93236 0.7649 0.0
O493 O 0.6268 0.93176 0.81612 0.0
O494 O 0.62422 0.8949 0.68097 0.0
O495 O 0.62159 0.85971 0.7218 0.0
O496 O 0.55414 0.84487 0.70775 0.0
O497 O 0.57737 0.8906 0.74455 0.0
C498 C 0.63598 0.84933 0.82606 0.0
C499 C 0.55592 0.87003 0.71635 0.0
Dy500 Dy 0.19452 0.75008 0.75724 0.0
C501 C 0.07727 0.70159 0.79066 0.0
C502 C 0.25094 0.78558 0.72759 0.0
Dy503 Dy 0.13431 0.72565 0.77018 0.0
O504 O 0.24189 0.77745 0.77761 0.0
O505 O 0.22932 0.77348 0.6939 0.0
O506 O 0.19588 0.71674 0.8126 0.0
O507 O 0.16636 0.73014 0.83067 0.0
C508 C 0.17452 0.71256 0.8442 0.0
C509 C 0.15048 0.75326 0.67187 0.0
O510 O 0.14675 0.76479 0.82049 0.0
O511 O 0.19521 0.78667 0.79953 0.0
O512 O 0.09263 0.72547 0.76469 0.0
O513 O 0.0933 0.69144 0.80781 0.0
O514 O 0.13065 0.72675 0.67818 0.0
O515 O 0.16394 0.76165 0.71724 0.0
O516 O 0.17948 0.71179 0.70218 0.0
O517 O 0.13746 0.68694 0.75017 0.0
C518 C 0.17312 0.78716 0.82216 0.0
C519 C 0.15686 0.68725 0.71658 0.0
Dy520 Dy 0.27592 0.44278 0.75469 0.0
C521 C 0.33348 0.385 0.77899 0.0
C522 C 0.23821 0.46095 0.72285 0.0
Dy523 Dy 0.29919 0.40841 0.77681 0.0
O524 O 0.25648 0.47178 0.76294 0.0
O525 O 0.24127 0.44103 0.6996 0.0
O526 O 0.30894 0.4787 0.80883 0.0
O527 O 0.29399 0.43645 0.83318 0.0
C528 C 0.31177 0.46225 0.84451 0.0
C529 C 0.25849 0.38164 0.69969 0.0
O530 O 0.26292 0.38631 0.83641 0.0
O531 O 0.23878 0.40711 0.79741 0.0
O532 O 0.33158 0.39956 0.7386 0.0
O533 O 0.31708 0.38365 0.81976 0.0
O534 O 0.26296 0.36983 0.74169 0.0
O535 O 0.27651 0.4089 0.70014 0.0
O536 O 0.31413 0.46687 0.70033 0.0
O537 O 0.33793 0.45044 0.75333 0.0
C538 C 0.23916 0.38773 0.8298 0.0
C539 C 0.33841 0.46866 0.71639 0.0
Dy540 Dy 0.50855 0.90872 0.12955 0.0
C541 C 0.62336 0.96545 0.10125 0.0
C542 C 0.45226 0.88884 0.16044 0.0
Dy543 Dy 0.56572 0.94261 0.10587 0.0
O544 O 0.46078 0.88737 0.11123 0.0
O545 O 0.47434 0.90031 0.19294 0.0
O546 O 0.5059 0.87224 0.07749 0.0
O547 O 0.53223 0.9141 0.05022 0.0
C548 C 0.52439 0.88823 0.04017 0.0
C549 C 0.55315 0.97045 0.18312 0.0
O550 O 0.55049 0.96389 0.04653 0.0
O551 O 0.50776 0.9459 0.09312 0.0
O552 O 0.60709 0.95047 0.14158 0.0
O553 O 0.6081 0.96754 0.06178 0.0
O554 O 0.56959 0.98185 0.14105 0.0
O555 O 0.54323 0.94308 0.18308 0.0
O556 O 0.52227 0.88402 0.18245 0.0
O557 O 0.5628 0.90078 0.13006 0.0
C558 C 0.52621 0.96378 0.05703 0.0
C559 C 0.54485 0.88238 0.16659 0.0
Dy560 Dy 0.12071 0.60182 0.13048 0.0
C561 C 0.06742 0.66383 0.09288 0.0
C562 C 0.14115 0.5656 0.15728 0.0
Dy563 Dy 0.08559 0.62645 0.11476 0.0
O564 O 0.13892 0.57318 0.10759 0.0
O565 O 0.13317 0.57857 0.19205 0.0
O566 O 0.15546 0.63493 0.07418 0.0
O567 O 0.11253 0.62072 0.05552 0.0
C568 C 0.13816 0.63835 0.04162 0.0
C569 C 0.0609 0.59493 0.20515 0.0
O570 O 0.05803 0.58711 0.06589 0.0
O571 O 0.08243 0.56432 0.09539 0.0
O572 O 0.0588 0.64001 0.066 0.0
O573 O 0.08634 0.66731 0.12958 0.0
O574 O 0.05462 0.61282 0.18298 0.0
O575 O 0.08235 0.59531 0.18016 0.0
O576 O 0.14589 0.63968 0.18495 0.0
O577 O 0.12829 0.66391 0.1371 0.0
C578 C 0.06064 0.56399 0.06973 0.0
C579 C 0.1474 0.66398 0.17102 0.0
Dy580 Dy 0.42318 0.51906 0.12898 0.0
C581 C 0.37923 0.40488 0.07971 0.0
C582 C 0.45652 0.5754 0.15874 0.0
Dy583 Dy 0.40006 0.46006 0.10924 0.0
O584 O 0.44969 0.56622 0.1086 0.0
O585 O 0.44444 0.55386 0.19262 0.0
O586 O 0.38971 0.52053 0.07344 0.0
O587 O 0.40553 0.4935 0.05229 0.0
C588 C 0.38733 0.50095 0.03931 0.0
C589 C 0.42413 0.4718 0.21057 0.0
O590 O 0.4409 0.47483 0.06278 0.0
O591 O 0.46255 0.52142 0.09353 0.0
O592 O 0.40295 0.42028 0.10612 0.0
O593 O 0.36718 0.41992 0.06758 0.0
O594 O 0.39813 0.45186 0.19961 0.0
O595 O 0.43404 0.48774 0.1681 0.0
O596 O 0.38411 0.50182 0.18334 0.0
O597 O 0.36036 0.46163 0.13066 0.0
C598 C 0.46379 0.50054 0.06785 0.0
C599 C 0.35983 0.47946 0.16704 0.0
Dy600 Dy 0.08105 0.45773 0.61833 0.0
C601 C 0.14224 0.57663 0.66018 0.0
C602 C 0.04847 0.40113 0.59803 0.0
Dy603 Dy 0.12007 0.52078 0.62872 0.0
O604 O 0.03828 0.41759 0.61174 0.0
O605 O 0.0762 0.41584 0.59311 0.0
O606 O 0.07429 0.45554 0.7094 0.0
O607 O 0.07672 0.48999 0.66683 0.0
C608 C 0.07018 0.47722 0.7135 0.0
C609 C 0.13617 0.50289 0.53579 0.0
O610 O 0.14533 0.5057 0.67871 0.0
O611 O 0.12216 0.45993 0.64312 0.0
O612 O 0.13901 0.56771 0.60972 0.0
O613 O 0.13411 0.55505 0.6938 0.0
O614 O 0.14876 0.52927 0.55278 0.0
O615 O 0.11618 0.48843 0.56955 0.0
O616 O 0.05965 0.4729 0.55867 0.0
O617 O 0.08247 0.51981 0.58918 0.0
C618 C 0.14385 0.4807 0.67027 0.0
C619 C 0.06229 0.4987 0.56023 0.0
Dy620 Dy 0.56344 0.62334 0.60666 0.0
C621 C 0.44981 0.56435 0.65744 0.0
C622 C 0.62083 0.65831 0.60485 0.0
Dy623 Dy 0.50621 0.60045 0.62734 0.0
O624 O 0.60486 0.65126 0.64833 0.0
O625 O 0.60552 0.64624 0.56112 0.0
O626 O 0.56713 0.5876 0.64078 0.0
O627 O 0.54001 0.59957 0.68258 0.0
C628 C 0.55034 0.5823 0.68258 0.0
C629 C 0.52316 0.63687 0.5378 0.0
O630 O 0.51885 0.63858 0.68005 0.0
O631 O 0.56045 0.66212 0.63094 0.0
O632 O 0.4586 0.57346 0.60783 0.0
O633 O 0.47165 0.5757 0.69051 0.0
O634 O 0.50431 0.63457 0.57422 0.0
O635 O 0.53069 0.61863 0.5489 0.0
O636 O 0.54964 0.58701 0.54797 0.0
O637 O 0.50571 0.5627 0.59074 0.0
C638 C 0.54183 0.66262 0.66572 0.0
C639 C 0.52489 0.56318 0.55646 0.0
Dy640 Dy 0.40062 0.94202 0.60659 0.0
C641 C 0.46249 0.89017 0.65885 0.0
C642 C 0.36615 0.96501 0.61027 0.0
Dy643 Dy 0.42439 0.90773 0.62717 0.0
O644 O 0.37685 0.95915 0.65252 0.0
O645 O 0.37423 0.95842 0.56457 0.0
O646 O 0.4378 0.98066 0.63884 0.0
O647 O 0.42415 0.94167 0.68176 0.0
C648 C 0.44219 0.96897 0.68136 0.0
C649 C 0.38796 0.88838 0.53844 0.0
O650 O 0.38659 0.88302 0.68223 0.0
O651 O 0.36231 0.90018 0.63272 0.0
O652 O 0.44484 0.87973 0.61772 0.0
O653 O 0.45865 0.90939 0.68305 0.0
O654 O 0.39097 0.87184 0.57366 0.0
O655 O 0.40587 0.91417 0.54972 0.0
O656 O 0.43706 0.96537 0.54753 0.0
O657 O 0.46098 0.94338 0.5829 0.0
C658 C 0.3622 0.88157 0.66818 0.0
C659 C 0.46064 0.96335 0.55214 0.0
Dy660 Dy 0.13375 0.40846 0.27555 0.0
C661 C 0.24781 0.463 0.22602 0.0
C662 C 0.07627 0.38536 0.27234 0.0
Dy663 Dy 0.19133 0.44292 0.25563 0.0
O664 O 0.09282 0.39149 0.22995 0.0
O665 O 0.09096 0.39172 0.31798 0.0
O666 O 0.13163 0.36951 0.24341 0.0
O667 O 0.15779 0.40844 0.20067 0.0
C668 C 0.1481 0.38106 0.20124 0.0
C669 C 0.17348 0.46241 0.34349 0.0
O670 O 0.17871 0.46815 0.20137 0.0
O671 O 0.13642 0.44979 0.24852 0.0
O672 O 0.23901 0.46393 0.27532 0.0
O673 O 0.22593 0.45196 0.19304 0.0
O674 O 0.19253 0.47883 0.30734 0.0
O675 O 0.16624 0.4367 0.33314 0.0
O676 O 0.14738 0.38573 0.33485 0.0
O677 O 0.19196 0.40594 0.29414 0.0
C678 C 0.15525 0.46887 0.21404 0.0
C679 C 0.17247 0.38692 0.32756 0.0
Dy680 Dy 0.61524 0.72589 0.25467 0.0
C681 C 0.55699 0.78474 0.22349 0.0
C682 C 0.64758 0.70047 0.25884 0.0
Dy683 Dy 0.5784 0.75015 0.25458 0.0
O684 O 0.63494 0.7026 0.21544 0.0
O685 O 0.64268 0.71227 0.30098 0.0
O686 O 0.62033 0.73366 0.16357 0.0
O687 O 0.62149 0.76502 0.21368 0.0
C688 C 0.62723 0.7603 0.16519 0.0
C689 C 0.56093 0.71424 0.34431 0.0
O690 O 0.55223 0.71152 0.20175 0.0
O691 O 0.57203 0.68716 0.24275 0.0
O692 O 0.55985 0.77859 0.27394 0.0
O693 O 0.56477 0.77105 0.18984 0.0
O694 O 0.54964 0.72969 0.32931 0.0
O695 O 0.58094 0.7188 0.31078 0.0
O696 O 0.64385 0.76473 0.30552 0.0
O697 O 0.61511 0.7853 0.29795 0.0
C698 C 0.55135 0.68716 0.21347 0.0
C699 C 0.63889 0.78617 0.31472 0.0
Dy700 Dy 0.29767 0.88994 0.27539 0.0
C701 C 0.24209 0.77628 0.22471 0.0
C702 C 0.32869 0.9475 0.28065 0.0
Dy703 Dy 0.27656 0.83276 0.25403 0.0
O704 O 0.32603 0.93247 0.23746 0.0
O705 O 0.31483 0.93112 0.32218 0.0
O706 O 0.25999 0.88996 0.23883 0.0
O707 O 0.27632 0.86665 0.19851 0.0
C708 C 0.25726 0.87463 0.19624 0.0
C709 C 0.31297 0.85028 0.34291 0.0
O710 O 0.31588 0.84738 0.20269 0.0
O711 O 0.33788 0.88904 0.25152 0.0
O712 O 0.25158 0.78528 0.27389 0.0
O713 O 0.25207 0.79805 0.1915 0.0
O714 O 0.31074 0.83121 0.30752 0.0
O715 O 0.29431 0.85736 0.33184 0.0
O716 O 0.26153 0.87419 0.33544 0.0
O717 O 0.23776 0.83091 0.29148 0.0
C718 C 0.33942 0.87096 0.21699 0.0
C719 C 0.23792 0.84938 0.32701 0.0
C720 C 0.19917 0.05807 0.04673 0.0
C721 C 0.22678 0.08213 0.04033 0.0
H722 H 0.17298 0.01223 0.04016 0.0
C723 C 0.24957 0.07803 1.02374 0.0
H724 H 0.18127 0.06064 0.06001 0.0
C725 C 0.24494 0.05067 1.01278 0.0
C726 C 0.21738 0.02651 1.01838 0.0
H727 H 0.27114 0.09608 1.01888 0.0
H728 H 0.26306 0.04852 0.99932 0.0
C729 C 0.19451 0.0304 0.03602 0.0
C730 C 0.99559 0.17355 0.06561 0.0
C731 C 0.99912 0.18897 1.01668 0.0
H732 H 0.96618 0.13905 0.11812 0.0
C733 C 0.97541 0.17999 0.98125 0.0
H734 H 1.01351 0.17988 0.09351 0.0
C735 C 0.94875 0.15628 0.99446 0.0
C736 C 0.94496 0.14132 0.04397 0.0
H737 H 0.9775 0.19111 0.94282 0.0
H738 H 0.93089 0.15011 0.96644 0.0
C739 C 0.96859 0.15016 0.07954 0.0
C740 C 0.84447 0.79569 0.9867 0.0
C741 C 0.83934 0.81476 1.01771 0.0
H742 H 0.87031 0.77608 0.97497 0.0
C743 C 0.85792 0.82953 0.06166 0.0
H744 H 0.8308 0.78415 0.95219 0.0
C745 C 0.88054 0.82446 0.07531 0.0
C746 C 0.88532 0.80515 0.04427 0.0
H747 H 0.85454 0.84438 0.08618 0.0
H748 H 0.8942 0.83552 0.1101 0.0
C749 C 0.86728 0.79117 0.99948 0.0
C750 C 0.05717 0.2225 0.56883 0.0
C751 C 0.03287 0.20449 0.53702 0.0
H752 H 0.10248 0.24042 0.58102 0.0
C753 C 0.03628 0.19018 0.49175 0.0
H754 H 0.05528 0.23357 0.60441 0.0
C755 C 0.06366 0.19454 0.47778 0.0
C756 C 0.08785 0.21259 0.50984 0.0
H757 H 0.01793 0.1761 0.46663 0.0
H758 H 0.06593 0.18383 0.44203 0.0
C759 C 0.08422 0.22624 0.55577 0.0
C760 C 0.79714 0.85808 0.55573 0.0
C761 C 0.80951 0.87417 0.50783 0.0
H762 H 0.79052 0.82268 0.60578 0.0
C763 C 0.8259 0.86676 0.47341 0.0
H764 H 0.78426 0.86319 0.58284 0.0
C765 C 0.82986 0.84359 0.48695 0.0
C766 C 0.81683 0.82709 0.53432 0.0
H767 H 0.83557 0.87882 0.4361 0.0
H768 H 0.84269 0.83832 0.46005 0.0
C769 C 0.80051 0.83467 0.56853 0.0
C770 C 0.15542 0.96015 0.47107 0.0
C771 C 0.14538 0.93766 0.50971 0.0
H772 H 0.18634 1.00421 0.45318 0.0
C773 C 0.15862 0.94283 0.5614 0.0
H774 H 0.14557 0.95662 0.43079 0.0
C775 C 0.18227 0.96958 0.57343 0.0
C776 C 0.1928 0.99197 0.53453 0.0
H777 H 0.15147 0.92587 0.59178 0.0
H778 H 0.19245 0.97269 0.61332 0.0
C779 C 0.17872 0.98728 0.48372 0.0
C780 C 0.80614 0.96988 0.07349 0.0
C781 C 0.81885 0.99306 0.03642 0.0
H782 H 0.79394 0.92616 0.08979 0.0
C783 C 0.8299 0.98957 0.98637 0.0
H784 H 0.79784 0.97203 0.11281 0.0
C785 C 0.82723 0.96301 0.97284 0.0
C786 C 0.81432 0.93985 1.00992 0.0
H787 H 0.83996 1.00713 0.95725 0.0
H788 H 0.83505 0.96052 0.93328 0.0
C789 C 0.80421 0.94369 0.06066 0.0
C790 C 0.06462 0.8676 0.97192 0.0
C791 C 0.08828 0.87634 1.0074 0.0
H792 H 0.01974 0.83776 0.9577 0.0
C793 C 0.08457 0.86104 0.05642 0.0
H794 H 0.06696 0.87897 0.9337 0.0
C795 C 0.058 0.8371 0.0692 0.0
C796 C 0.03427 0.82823 0.03389 0.0
H797 H 0.10245 0.86712 0.08436 0.0
H798 H 0.05599 0.82571 0.10726 0.0
C799 C 0.03769 0.84399 0.98548 0.0
C800 C 0.18106 0.19381 0.98807 0.0
C801 C 0.1984 0.20771 0.03399 0.0
H802 H 0.14476 0.18692 0.93886 0.0
C803 C 0.19122 0.22459 0.06728 0.0
H804 H 0.18597 0.18057 0.96181 0.0
C805 C 0.16729 0.2275 0.05512 0.0
C806 C 0.15031 0.21413 1.00869 0.0
H807 H 0.20388 0.23531 0.10336 0.0
H808 H 0.16247 0.24078 0.08151 0.0
C809 C 0.15745 0.19734 0.97508 0.0
C810 C 0.97443 0.79534 0.48321 0.0
C811 C 0.99824 0.8117 0.51738 0.0
H812 H 0.92952 0.77899 0.46865 0.0
C813 C 0.99455 0.82496 0.56404 0.0
H814 H 0.97663 0.78514 0.44656 0.0
C815 C 0.96724 0.82099 0.57723 0.0
C816 C 0.94347 0.80441 0.54307 0.0
H817 H 1.01255 0.83775 0.59098 0.0
H818 H 0.96468 0.83073 0.6142 0.0
C819 C 0.94746 0.79201 0.49557 0.0
C820 C 0.20732 0.15167 0.58267 0.0
C821 C 0.22053 0.14178 0.54541 0.0
H822 H 0.19319 0.18213 0.59791 0.0
C823 C 0.23004 0.15561 0.49438 0.0
H824 H 0.19989 0.14139 0.62239 0.0
C825 C 0.22707 0.17925 0.48122 0.0
C826 C 0.21387 0.18924 0.51823 0.0
H827 H 0.24046 0.14859 0.465 0.0
H828 H 0.23483 0.18951 0.44156 0.0
C829 C 0.20359 0.17496 0.5688 0.0
C830 C 0.86816 0.07264 0.49241 0.0
C831 C 0.88262 0.0764 0.54249 0.0
H832 H 0.83308 0.04412 0.44096 0.0
C833 C 0.87299 0.05308 0.57899 0.0
H834 H 0.87494 0.09033 0.46382 0.0
C835 C 0.84926 0.02642 0.56556 0.0
C836 C 0.83421 0.02295 0.51625 0.0
H837 H 0.88371 0.05552 0.61806 0.0
H838 H 0.84231 0.00874 0.59423 0.0
C839 C 0.84398 0.04629 0.47972 0.0
C840 C 0.86918 0.38774 0.41782 0.0
C841 C 0.88104 0.41045 0.37964 0.0
H842 H 0.85746 0.34398 0.43459 0.0
C843 C 0.88968 0.40609 0.3278 0.0
H844 H 0.86248 0.3907 0.45821 0.0
C845 C 0.88768 0.37991 0.31513 0.0
C846 C 0.87638 0.35731 0.35355 0.0
H847 H 0.8991 0.42328 0.2978 0.0
H848 H 0.89506 0.37738 0.27508 0.0
C849 C 0.86643 0.36115 0.40452 0.0
C850 C 0.66181 0.50759 0.39646 0.0
C851 C 0.66536 0.52456 0.3498 0.0
H852 H 0.63234 0.47164 0.44602 0.0
C853 C 0.64145 0.51719 0.31574 0.0
H854 H 0.67988 0.51263 0.42324 0.0
C855 C 0.61467 0.49345 0.32784 0.0
C856 C 0.61095 0.47679 0.3749 0.0
H857 H 0.64349 0.52952 0.27901 0.0
H858 H 0.59671 0.48846 0.30079 0.0
C859 C 0.6347 0.4841 0.40932 0.0
C860 C 0.51057 0.12832 0.31601 0.0
C861 C 0.50419 0.14625 0.34787 0.0
H862 H 0.53815 0.11067 0.30363 0.0
C863 C 0.52199 0.16076 0.3929 0.0
H864 H 0.49751 0.1171 0.28063 0.0
C865 C 0.54516 0.15663 0.40668 0.0
C866 C 0.55136 0.13862 0.37465 0.0
H867 H 0.51764 0.17476 0.41805 0.0
H868 H 0.55818 0.16745 0.44232 0.0
C869 C 0.53403 0.12482 0.32887 0.0
C870 C 0.75223 0.56878 0.87901 0.0
C871 C 0.75584 0.55028 0.8435 0.0
H872 H 0.72298 0.57919 0.91831 0.0
C873 C 0.73135 0.52718 0.81984 0.0
H874 H 0.77072 0.58693 0.89745 0.0
C875 C 0.70367 0.52246 0.8323 0.0
C876 C 0.7001 0.54118 0.86761 0.0
H877 H 0.73357 0.51267 0.79212 0.0
H878 H 0.68513 0.50424 0.81422 0.0
C879 C 0.72479 0.56446 0.89052 0.0
C880 C 0.49723 0.17719 0.81789 0.0
C881 C 0.48523 0.16172 0.86675 0.0
H882 H 0.50257 0.2118 0.76556 0.0
C883 C 0.47055 0.17074 0.90226 0.0
H884 H 0.50879 0.17084 0.78991 0.0
C885 C 0.46776 0.19453 0.88919 0.0
C886 C 0.47903 0.20954 0.83974 0.0
H887 H 0.46141 0.15956 0.94063 0.0
H888 H 0.45608 0.20072 0.91724 0.0
C889 C 0.49379 0.20067 0.80412 0.0
C890 C 0.81549 0.29384 0.84262 0.0
C891 C 0.82026 0.27041 0.84308 0.0
H892 H 0.834 0.33933 0.85352 0.0
C893 C 0.84818 0.27537 0.85316 0.0
H894 H 0.79421 0.29064 0.83446 0.0
C895 C 0.87077 0.30293 0.86353 0.0
C896 C 0.86619 0.32647 0.86406 0.0
H897 H 0.85266 0.25784 0.85328 0.0
H898 H 0.89187 0.30566 0.87177 0.0
C899 C 0.83832 0.3217 0.85296 0.0
C900 C 0.47216 0.27682 0.39118 0.0
C901 C 0.48251 0.273 0.34071 0.0
H902 H 0.4658 0.30534 0.44292 0.0
C903 C 0.49592 0.29619 0.30389 0.0
H904 H 0.46146 0.2592 0.42001 0.0
C905 C 0.49883 0.3228 0.31733 0.0
C906 C 0.48751 0.3263 0.36699 0.0
H907 H 0.50392 0.29366 0.26453 0.0
H908 H 0.50926 0.34039 0.28838 0.0
C909 C 0.47431 0.30311 0.4039 0.0
C910 C 0.7241 0.17185 0.4018 0.0
C911 C 0.70076 0.16198 0.36524 0.0
H912 H 0.76826 0.20243 0.41749 0.0
C913 C 0.70461 0.17638 0.31488 0.0
H914 H 0.72173 0.16149 0.44129 0.0
C915 C 0.73164 0.1997 0.30076 0.0
C916 C 0.75487 0.20948 0.33761 0.0
H917 H 0.68692 0.16931 0.28612 0.0
H918 H 0.73436 0.21009 0.26121 0.0
C919 C 0.75071 0.19551 0.38843 0.0
C920 C 0.82061 0.52785 0.31029 0.0
C921 C 0.8135 0.54457 0.34422 0.0
H922 H 0.8488 0.51063 0.29728 0.0
C923 C 0.82958 0.55666 0.39216 0.0
H924 H 0.80854 0.51836 0.27299 0.0
C925 C 0.85289 0.55294 0.40511 0.0
C926 C 0.86029 0.53649 0.3711 0.0
H927 H 0.8247 0.56977 0.41891 0.0
H928 H 0.86512 0.56294 0.44203 0.0
C929 C 0.8436 0.52348 0.32408 0.0
C930 C 0.64207 0.12639 0.81741 0.0
C931 C 0.66605 0.14372 0.85057 0.0
H932 H 0.59703 0.10949 0.80295 0.0
C933 C 0.6623 0.15768 0.89606 0.0
H934 H 0.64422 0.1156 0.78165 0.0
C935 C 0.63495 0.15377 0.90875 0.0
C936 C 0.61111 0.13652 0.87525 0.0
H937 H 0.68037 0.17126 0.92222 0.0
H938 H 0.63246 0.16426 0.94463 0.0
C939 C 0.61504 0.1231 0.82926 0.0
C940 C 0.87015 0.5095 0.89869 0.0
C941 C 0.88064 0.52376 0.84824 0.0
H942 H 0.86577 0.47571 0.95212 0.0
C943 C 0.89318 0.51323 0.81082 0.0
H944 H 0.86022 0.51705 0.92809 0.0
C945 C 0.89553 0.48916 0.82378 0.0
C946 C 0.88596 0.47549 0.87492 0.0
H947 H 0.90104 0.52348 0.77119 0.0
H948 H 0.90569 0.48183 0.79445 0.0
C949 C 0.87318 0.48581 0.91225 0.0
C950 C 0.53814 0.38895 0.91069 0.0
C951 C 0.54858 0.41208 0.87348 0.0
H952 H 0.50711 0.34466 0.9259 0.0
C953 C 0.53531 0.40793 0.82196 0.0
H954 H 0.54796 0.39165 0.95083 0.0
C955 C 0.51151 0.38145 0.80849 0.0
C956 C 0.50087 0.35832 0.84573 0.0
H957 H 0.54276 0.42541 0.79268 0.0
H958 H 0.50153 0.37905 0.76859 0.0
C959 C 0.51475 0.36214 0.89659 0.0
C960 C 0.56089 0.74032 0.65721 0.0
C961 C 0.55005 0.74407 0.70717 0.0
H962 H 0.56736 0.71178 0.60575 0.0
C963 C 0.5359 0.72064 0.74332 0.0
H964 H 0.57213 0.75808 0.62885 0.0
C965 C 0.53278 0.69393 0.72979 0.0
C966 C 0.54456 0.69049 0.68067 0.0
H967 H 0.52749 0.72306 0.78228 0.0
H968 H 0.5218 0.6762 0.75828 0.0
C969 C 0.55847 0.71391 0.64439 0.0
C970 C 0.30365 0.81813 0.74799 0.0
C971 C 0.28006 0.8089 0.71213 0.0
H972 H 0.34855 0.84822 0.76193 0.0
C973 C 0.2839 0.82347 0.66213 0.0
H974 H 0.30122 0.80732 0.78694 0.0
C975 C 0.31049 0.84719 0.64872 0.0
C976 C 0.33417 0.85658 0.68437 0.0
H977 H 0.2661 0.81701 0.63382 0.0
H978 H 0.31255 0.85803 0.60992 0.0
C979 C 0.33065 0.84154 0.73382 0.0
C980 C 0.16838 0.4516 0.66686 0.0
C981 C 0.16803 0.47604 0.68637 0.0
H982 H 0.19086 0.42819 0.66231 0.0
C983 C 0.19141 0.49594 0.71825 0.0
H984 H 0.15095 0.43579 0.64196 0.0
C985 C 0.21446 0.49129 0.73044 0.0
C986 C 0.21472 0.46698 0.71003 0.0
H987 H 0.19192 0.51504 0.73369 0.0
H988 H 0.23214 0.50676 0.75534 0.0
C989 C 0.19145 0.44728 0.67816 0.0
C990 C 0.39199 0.8919 0.23535 0.0
C991 C 0.36811 0.8753 0.20145 0.0
H992 H 0.43698 0.90844 0.24965 0.0
C993 C 0.37192 0.86227 0.15453 0.0
H994 H 0.38974 0.90192 0.27222 0.0
C995 C 0.39925 0.86639 0.14117 0.0
C996 C 0.42301 0.88293 0.17535 0.0
H997 H 0.35389 0.84924 0.12781 0.0
H998 H 0.4018 0.85663 0.10422 0.0
C999 C 0.41902 0.89541 0.22277 0.0
C1000 C 0.16036 0.5325 0.13526 0.0
C1001 C 0.14646 0.54193 0.17184 0.0
H1002 H 0.17462 0.50211 0.1203 0.0
C1003 C 0.13577 0.5273 0.22183 0.0
H1004 H 0.16869 0.54338 0.09633 0.0
C1005 C 0.13828 0.50334 0.23459 0.0
C1006 C 0.15219 0.49382 0.19829 0.0
H1007 H 0.12478 0.53394 0.25064 0.0
H1008 H 0.12961 0.49247 0.27342 0.0
C1009 C 0.16364 0.50889 0.14883 0.0
C1010 C 0.51027 0.65518 0.15089 0.0
C1011 C 0.52577 0.65931 0.19988 0.0
H1012 H 0.47622 0.62495 0.09879 0.0
C1013 C 0.51701 0.63616 0.23648 0.0
H1014 H 0.51657 0.67269 0.12206 0.0
C1015 C 0.49359 0.6093 0.22408 0.0
C1016 C 0.47882 0.60476 0.17413 0.0
H1017 H 0.52836 0.63879 0.27488 0.0
H1018 H 0.48772 0.59181 0.25278 0.0
C1019 C 0.48724 0.62795 0.13769 0.0
C1020 C 0.16538 0.65564 0.65191 0.0
C1021 C 0.15482 0.65961 0.70208 0.0
H1022 H 0.16931 0.62584 0.59888 0.0
C1023 C 0.14206 0.63667 0.73968 0.0
H1024 H 0.17542 0.673 0.62238 0.0
C1025 C 0.13939 0.61015 0.7271 0.0
C1026 C 0.1488 0.60576 0.67609 0.0
H1027 H 0.13411 0.63922 0.77909 0.0
H1028 H 0.12899 0.59279 0.75654 0.0
C1029 C 0.16197 0.62875 0.63865 0.0
C1030 C 0.39708 0.53218 0.63719 0.0
C1031 C 0.42072 0.54103 0.67274 0.0
H1032 H 0.35212 0.50244 0.62336 0.0
C1033 C 0.41693 0.52614 0.72232 0.0
H1034 H 0.39949 0.54327 0.59858 0.0
C1035 C 0.39028 0.50251 0.73567 0.0
C1036 C 0.36655 0.49349 0.70032 0.0
H1037 H 0.43478 0.53233 0.75038 0.0
H1038 H 0.38825 0.49144 0.77417 0.0
C1039 C 0.37006 0.50882 0.65125 0.0
C1040 C 0.50956 0.85562 0.66479 0.0
C1041 C 0.53216 0.875 0.69883 0.0
H1042 H 0.46963 0.84527 0.62486 0.0
C1043 C 0.53129 0.89903 0.71909 0.0
H1044 H 0.50948 0.83684 0.6487 0.0
C1045 C 0.50841 0.90343 0.70648 0.0
C1046 C 0.4859 0.88422 0.67255 0.0
H1047 H 0.54811 0.9144 0.74568 0.0
H1048 H 0.50852 0.92216 0.72305 0.0
C1049 C 0.48673 0.86036 0.65131 0.0
C1050 C 0.28089 0.45737 0.16205 0.0
C1051 C 0.27703 0.46884 0.21099 0.0
H1052 H 0.30974 0.4513 0.11067 0.0
C1053 C 0.30077 0.48422 0.24595 0.0
H1054 H 0.26298 0.44528 0.13445 0.0
C1055 C 0.32796 0.48808 0.23188 0.0
C1056 C 0.33155 0.47593 0.18341 0.0
H1057 H 0.29831 0.4932 0.28406 0.0
H1058 H 0.34599 0.50011 0.25924 0.0
C1059 C 0.30769 0.46062 0.14871 0.0
C1060 C 0.56192 0.82227 0.15705 0.0
C1061 C 0.55164 0.80817 0.20764 0.0
H1062 H 0.56846 0.8572 0.1052 0.0
C1063 C 0.53878 0.81845 0.24481 0.0
H1064 H 0.57219 0.81497 0.12788 0.0
C1065 C 0.53626 0.84247 0.23153 0.0
C1066 C 0.54739 0.85709 0.18161 0.0
H1067 H 0.53084 0.80802 0.28426 0.0
H1068 H 0.52615 0.84993 0.2607 0.0
C1069 C 0.56012 0.84666 0.14443 0.0
C1070 C 0.2118 0.72358 0.24637 0.0
C1071 C 0.21954 0.74683 0.21032 0.0
H1072 H 0.18302 0.67867 0.26196 0.0
C1073 C 0.2041 0.74225 0.16128 0.0
H1074 H 0.22337 0.72661 0.28458 0.0
C1075 C 0.18083 0.71531 0.14918 0.0
C1076 C 0.17269 0.69202 0.18526 0.0
H1077 H 0.20944 0.75972 0.13282 0.0
H1078 H 0.1692 0.71275 0.1112 0.0
C1079 C 0.18875 0.69623 0.23355 0.0
C1080 C 0.31914 0.15244 0.19316 0.0
C1081 C 0.3235 0.1805 0.19249 0.0
H1082 H 0.33764 0.12566 0.206 0.0
C1083 C 0.35059 0.20342 0.20628 0.0
H1084 H 0.29844 0.13429 0.18241 0.0
C1085 C 0.37316 0.19848 0.21877 0.0
C1086 C 0.36902 0.17048 0.21812 0.0
H1087 H 0.35475 0.22527 0.2052 0.0
H1088 H 0.39391 0.21675 0.2287 0.0
C1089 C 0.34168 0.14747 0.20586 0.0
C1090 C 0.87514 0.17287 0.18059 0.0
C1091 C 0.84697 0.14919 0.18181 0.0
H1092 H 0.90229 0.2177 0.19589 0.0
C1093 C 0.82426 0.15289 0.20009 0.0
H1094 H 0.89314 0.17069 0.16649 0.0
C1095 C 0.82952 0.17982 0.21625 0.0
C1096 C 0.85762 0.20356 0.21464 0.0
H1097 H 0.80233 0.13516 0.20094 0.0
H1098 H 0.81142 0.18194 0.22996 0.0
C1099 C 0.88041 0.19988 0.19682 0.0
C1100 C 0.82667 0.67699 0.18505 0.0
C1101 C 0.82395 0.65143 0.20545 0.0
H1102 H 0.85513 0.71961 0.15785 0.0
C1103 C 0.84888 0.64948 0.21456 0.0
H1104 H 0.80792 0.67933 0.17872 0.0
C1105 C 0.87608 0.67269 0.20316 0.0
C1106 C 0.87876 0.69824 0.18256 0.0
H1107 H 0.84742 0.63005 0.23084 0.0
H1108 H 0.89485 0.67039 0.20937 0.0
C1109 C 0.85381 0.70021 0.17396 0.0
C1110 C 0.20453 0.36625 0.33952 0.0
C1111 C 0.17733 0.36385 0.34721 0.0
H1112 H 0.22998 0.34586 0.34525 0.0
C1113 C 0.15441 0.33802 0.36661 0.0
H1114 H 0.22266 0.3859 0.32424 0.0
C1115 C 0.1586 0.31496 0.37788 0.0
C1116 C 0.18579 0.31736 0.37005 0.0
H1117 H 0.13314 0.33538 0.37198 0.0
H1118 H 0.14052 0.2953 0.39327 0.0
C1119 C 0.2087 0.34319 0.35064 0.0
C1120 C 0.65728 0.8376 0.33581 0.0
C1121 C 0.66187 0.81398 0.33503 0.0
H1122 H 0.67494 0.8823 0.35151 0.0
C1123 C 0.68908 0.81811 0.34871 0.0
H1124 H 0.63663 0.83532 0.32499 0.0
C1125 C 0.71111 0.84528 0.36372 0.0
C1126 C 0.70633 0.86875 0.36474 0.0
H1127 H 0.69339 0.80048 0.34774 0.0
H1128 H 0.7318 0.84783 0.37519 0.0
C1129 C 0.67934 0.86473 0.35014 0.0
C1130 C 0.18603 0.81602 0.34734 0.0
C1131 C 0.21033 0.84362 0.35071 0.0
H1132 H 0.14072 0.78966 0.36165 0.0
C1133 C 0.20729 0.86616 0.37167 0.0
H1134 H 0.1878 0.79824 0.33106 0.0
C1135 C 0.18036 0.86135 0.38807 0.0
C1136 C 0.15595 0.83382 0.38448 0.0
H1137 H 0.22554 0.88769 0.37408 0.0
H1138 H 0.17883 0.87934 0.40391 0.0
C1139 C 0.15905 0.81112 0.36435 0.0
C1140 C 0.70809 0.86304 0.87605 0.0
C1141 C 0.70368 0.83505 0.8802 0.0
H1142 H 0.68994 0.88946 0.85722 0.0
C1143 C 0.6764 0.81171 0.86864 0.0
H1144 H 0.72882 0.88158 0.88501 0.0
C1145 C 0.654 0.81633 0.85293 0.0
C1146 C 0.6585 0.84435 0.84886 0.0
H1147 H 0.67226 0.78992 0.87219 0.0
H1148 H 0.63322 0.79794 0.8436 0.0
C1149 C 0.68569 0.86763 0.86085 0.0
C1150 C 0.2062 0.83823 0.84511 0.0
C1151 C 0.17804 0.81467 0.8437 0.0
H1152 H 0.23302 0.88283 0.86128 0.0
C1153 C 0.15481 0.81851 0.85776 0.0
H1154 H 0.22461 0.83601 0.83424 0.0
C1155 C 0.15968 0.8455 0.87284 0.0
C1156 C 0.18786 0.86906 0.87406 0.0
H1157 H 0.13287 0.80083 0.85634 0.0
H1158 H 0.14134 0.84783 0.88383 0.0
C1159 C 0.21105 0.86519 0.85998 0.0
C1160 C 0.15916 0.34363 0.85271 0.0
C1161 C 0.1564 0.31792 0.87224 0.0
H1162 H 0.18775 0.38639 0.82626 0.0
C1163 C 0.1813 0.31582 0.8807 0.0
H1164 H 0.14042 0.34605 0.84695 0.0
C1165 C 0.2085 0.33903 0.86963 0.0
C1166 C 0.21126 0.36472 0.84987 0.0
H1167 H 0.17982 0.29625 0.89625 0.0
H1168 H 0.22722 0.33658 0.87531 0.0
C1169 C 0.18635 0.36686 0.84182 0.0
C1170 C 0.82215 0.67264 0.698 0.0
C1171 C 0.8451 0.69859 0.6792 0.0
H1172 H 0.80827 0.62986 0.72376 0.0
C1173 C 0.87234 0.70115 0.67134 0.0
H1174 H 0.80083 0.6699 0.70331 0.0
C1175 C 0.87657 0.67811 0.68214 0.0
C1176 C 0.85365 0.65221 0.7012 0.0
H1177 H 0.89044 0.72092 0.6564 0.0
H1178 H 0.8979 0.68087 0.67698 0.0
C1179 C 0.82637 0.64961 0.70874 0.0
C1180 C 0.32554 0.1709 0.66478 0.0
C1181 C 0.32957 0.14699 0.66715 0.0
H1182 H 0.34318 0.21557 0.67999 0.0
C1183 C 0.35578 0.15047 0.6863 0.0
H1184 H 0.30556 0.16899 0.65008 0.0
C1185 C 0.37749 0.17741 0.70317 0.0
C1186 C 0.37328 0.20123 0.70119 0.0
H1187 H 0.35959 0.13253 0.68794 0.0
H1188 H 0.39743 0.17943 0.71834 0.0
C1189 C 0.34718 0.19774 0.68153 0.0
C1190 C 0.87158 0.20221 0.68836 0.0
C1191 C 0.8746 0.17893 0.67185 0.0
H1192 H 0.8428 0.21661 0.7139 0.0
C1193 C 0.84982 0.15173 0.66672 0.0
H1194 H 0.89014 0.2235 0.69166 0.0
C1195 C 0.82261 0.14781 0.67854 0.0
C1196 C 0.81964 0.17098 0.696 0.0
H1197 H 0.85135 0.13332 0.65357 0.0
H1198 H 0.8041 0.12646 0.67581 0.0
C1199 C 0.84436 0.19828 0.70021 0.0
C1200 C 0.02248 0.53653 0.51578 0.0
C1201 C 0.99506 0.51337 0.50462 0.0
H1202 H 0.06557 0.55 0.5406 0.0
C1203 C 0.99039 0.48526 0.50878 0.0
H1204 H 0.02686 0.5584 0.51216 0.0
C1205 C 1.01266 0.48042 0.52422 0.0
C1206 C 0.03993 0.50358 0.53619 0.0
H1207 H 0.96953 0.46687 0.49999 0.0
H1208 H 1.00824 0.45856 0.52832 0.0
C1209 C 0.0447 0.53168 0.53146 0.0
C1210 C 0.54271 0.53271 0.51496 0.0
C1211 C 0.51991 0.53553 0.53584 0.0
H1212 H 0.55646 0.50416 0.48591 0.0
C1213 C 0.49273 0.51093 0.54345 0.0
H1214 H 0.56394 0.55122 0.50959 0.0
C1215 C 0.48847 0.48391 0.53074 0.0
C1216 C 0.51128 0.48107 0.50994 0.0
H1217 H 0.47472 0.51246 0.55981 0.0
H1218 H 0.46724 0.4654 0.53617 0.0
C1219 C 0.53844 0.50568 0.50224 0.0
C1220 C 0.5407 1.00683 0.52841 0.0
C1221 C 0.54396 0.03322 0.512 0.0
H1222 H 0.51157 0.96361 0.55148 0.0
C1223 C 0.51933 0.03602 0.50571 0.0
H1224 H 0.55919 1.00385 0.53239 0.0
C1225 C 0.49192 0.01286 0.51587 0.0
C1226 C 0.48867 0.98648 0.53251 0.0
H1227 H 0.52117 0.0561 0.49253 0.0
H1228 H 0.47344 0.01585 0.512 0.0
C1229 C 0.51332 0.98366 0.53834 0.0
C1230 C 0.5438 0.01176 1.01447 0.0
C1231 C 0.5212 0.98658 0.03673 0.0
H1232 H 0.5575 0.0539 0.98479 0.0
C1233 C 0.49434 0.98468 0.04627 0.0
H1234 H 0.56482 0.01398 1.00765 0.0
C1235 C 0.49021 1.00764 0.03409 0.0
C1236 C 0.51281 0.03282 1.01189 0.0
H1237 H 0.47649 0.9655 0.06373 0.0
H1238 H 0.46919 1.0054 0.04096 0.0
C1239 C 0.53966 0.03472 1.00227 0.0
C1240 C 0.9896 0.50541 1.01592 0.0
C1241 C 0.99462 0.4821 1.01324 0.0
H1242 H 1.00669 0.54975 0.03503 0.0
C1243 C 0.02151 0.48607 0.02893 0.0
H1244 H 0.96905 0.50309 1.00406 0.0
C1245 C 0.04308 0.5129 0.04629 0.0
C1246 C 0.03817 0.53628 0.04827 0.0
H1247 H 0.02612 0.46866 0.02678 0.0
H1248 H 0.06369 0.51529 0.05796 0.0
C1249 C 1.01121 0.53227 0.03312 0.0
C1250 C 0.49485 0.48178 0.03317 0.0
C1251 C 0.49212 0.50504 0.05107 0.0
H1252 H 0.52311 0.46721 1.00573 0.0
C1253 C 0.517 0.53203 0.05734 0.0
H1254 H 0.47619 0.46061 0.02893 0.0
C1255 C 0.54407 0.53579 0.04447 0.0
C1256 C 0.5466 0.51261 1.02516 0.0
H1257 H 0.51559 0.55031 0.0718 0.0
H1258 H 0.56278 0.55699 0.04763 0.0
C1259 C 0.52181 0.48551 1.02057 0.0
C1260 C 0.34806 0.2074 0.97159 0.0
C1261 C 0.32648 0.21512 0.97713 0.0
H1262 H 0.3885 0.21641 0.93437 0.0
C1263 C 0.32966 0.23834 0.94505 0.0
H1264 H 0.34714 0.19046 0.99717 0.0
C1265 C 0.35402 0.254 0.91095 0.0
C1266 C 0.37618 0.24699 0.90691 0.0
H1267 H 0.31442 0.24588 0.94961 0.0
H1268 H 0.35586 0.2723 0.88875 0.0
C1269 C 0.37219 0.22268 0.9363 0.0
C1270 C 0.77561 0.09732 0.97261 0.0
C1271 C 0.80484 0.10451 0.97669 0.0
H1272 H 0.74406 0.10544 0.93445 0.0
C1273 C 0.82517 0.12917 0.94809 0.0
H1274 H 0.75911 0.07874 0.99421 0.0
C1275 C 0.8163 0.14463 0.91345 0.0
C1276 C 0.78693 0.13673 0.90781 0.0
H1277 H 0.8478 0.13561 0.95008 0.0
H1278 H 0.83236 0.16186 0.88836 0.0
C1279 C 0.76688 0.11314 0.93917 0.0
C1280 C 0.88457 0.64647 0.95197 0.0
C1281 C 0.89085 0.65607 0.89739 0.0
H1282 H 0.88957 0.65783 0.03741 0.0
C1283 C 0.90539 0.6862 0.88836 0.0
H1284 H 0.87349 0.62374 0.96097 0.0
C1285 C 0.91522 0.706 0.93222 0.0
C1286 C 0.91046 0.69638 0.98687 0.0
H1287 H 0.91044 0.69468 0.84684 0.0
H1288 H 0.92764 0.72871 0.92326 0.0
C1289 C 0.89403 0.66629 0.99583 0.0
C1290 C 0.23836 0.3517 0.55278 0.0
C1291 C 0.22318 0.32158 0.56217 0.0
H1292 H 0.26146 0.39431 0.58722 0.0
C1293 C 0.21677 0.31223 0.61687 0.0
H1294 H 0.24358 0.36001 0.51117 0.0
C1295 C 0.22664 0.33221 0.66048 0.0
C1296 C 0.24364 0.36224 0.65122 0.0
H1297 H 0.20522 0.28953 0.62618 0.0
H1298 H 0.22199 0.32389 0.70215 0.0
C1299 C 0.2486 0.37167 0.59643 0.0
C1300 C 0.65067 0.86448 0.59123 0.0
C1301 C 0.65378 0.87815 0.64194 0.0
H1302 H 0.66996 0.86437 0.5137 0.0
C1303 C 0.68157 0.90103 0.65527 0.0
H1304 H 0.62974 0.84724 0.57887 0.0
C1305 C 0.70493 0.91105 0.61765 0.0
C1306 C 0.70123 0.89847 0.56538 0.0
H1307 H 0.6848 0.91243 0.69363 0.0
H1308 H 0.7251 0.93002 0.62782 0.0
C1309 C 0.67396 0.87438 0.55384 0.0
C1310 C 0.13114 0.81105 0.63092 0.0
C1311 C 0.11773 0.80122 0.57938 0.0
H1312 H 0.15281 0.80452 0.69967 0.0
C1313 C 0.11825 0.77737 0.55648 0.0
H1314 H 0.13071 0.82887 0.65059 0.0
C1315 C 0.13038 0.76303 0.58499 0.0
C1316 C 0.14303 0.7722 0.63726 0.0
H1317 H 0.10775 0.76875 0.51742 0.0
H1318 H 0.12879 0.74391 0.56695 0.0
C1319 C 0.14387 0.79698 0.65912 0.0
C1320 C 0.65714 0.78198 0.07836 0.0
C1321 C 0.65518 0.78086 0.13632 0.0
H1322 H 0.68452 0.79501 1.00657 0.0
C1323 C 0.68134 0.79494 0.16593 0.0
H1324 H 0.63772 0.77083 0.05396 0.0
C1325 C 0.70836 0.80821 0.13865 0.0
C1326 C 0.71033 0.80869 0.08071 0.0
H1327 H 0.681 0.79395 0.21048 0.0
H1328 H 0.72782 0.81697 0.1631 0.0
C1329 C 0.68415 0.79597 0.05108 0.0
C1330 C 0.20839 0.89075 0.10753 0.0
C1331 C 0.2285 0.91465 0.07695 0.0
H1332 H 0.20169 0.85886 0.16869 0.0
C1333 C 0.25761 0.92127 0.07902 0.0
H1334 H 0.18587 0.88482 0.10709 0.0
C1335 C 0.2665 0.90561 0.11245 0.0
C1336 C 0.24672 0.88281 0.14568 0.0
H1337 H 0.2739 0.93928 0.05584 0.0
H1338 H 0.28929 0.91284 0.11556 0.0
C1339 C 0.21745 0.87547 0.14212 0.0
C1340 C 0.1293 0.33136 0.16232 0.0
C1341 C 0.14328 0.36144 0.15308 0.0
H1342 H 0.107 0.28874 0.12779 0.0
C1343 C 0.14846 0.37093 0.09835 0.0
H1344 H 0.12505 0.32299 0.20397 0.0
C1345 C 0.13845 0.35103 0.05464 0.0
C1346 C 0.12254 0.32094 0.06393 0.0
H1347 H 0.159 0.39363 0.08918 0.0
H1348 H 0.14207 0.35941 1.01303 0.0
C1349 C 0.11893 0.31145 0.11861 0.0
C1350 C 0.81489 0.70509 0.43238 0.0
C1351 C 0.80894 0.69552 0.48703 0.0
H1352 H 0.80973 0.6937 0.34694 0.0
C1353 C 0.79465 0.6654 0.49608 0.0
H1354 H 0.82573 0.7278 0.42333 0.0
C1355 C 0.78486 0.64557 0.45221 0.0
C1356 C 0.78936 0.65514 0.3975 0.0
H1357 H 0.7898 0.65695 0.53764 0.0
H1358 H 0.77276 0.62285 0.46123 0.0
C1359 C 0.80545 0.68525 0.38851 0.0
C1360 C 0.32764 0.11043 0.4209 0.0
C1361 C 0.32887 0.11067 0.47885 0.0
H1362 H 0.35138 0.12271 0.34443 0.0
C1363 C 0.35624 0.12733 0.50329 0.0
H1364 H 0.30733 0.09699 0.40037 0.0
C1365 C 0.38162 0.14145 0.47134 0.0
C1366 C 0.38061 0.13998 0.41357 0.0
H1367 H 0.35831 0.12733 0.54768 0.0
H1368 H 0.40224 0.15197 0.49208 0.0
C1369 C 0.35308 0.12511 0.38876 0.0
C1370 C 0.90432 0.2269 0.49605 0.0
C1371 C 0.91771 0.21234 0.47294 0.0
H1372 H 0.88579 0.25401 0.48166 0.0
C1373 C 0.91779 0.21038 0.41528 0.0
H1374 H 0.90462 0.22968 0.54025 0.0
C1375 C 0.90637 0.22378 0.38181 0.0
C1376 C 0.89489 0.24014 0.40455 0.0
H1377 H 0.92851 0.20014 0.39581 0.0
H1378 H 0.90885 0.22344 0.33757 0.0
C1379 C 0.8933 0.2408 0.46238 0.0
C1380 C 0.03874 0.57233 0.29747 0.0
C1381 C 0.03792 0.57117 0.23951 0.0
H1382 H 1.01453 0.56067 0.37341 0.0
C1383 C 1.01085 0.55342 0.2148 0.0
H1384 H 0.05875 0.58663 0.31812 0.0
C1385 C 0.98531 0.53912 0.24635 0.0
C1386 C 0.98588 0.54151 0.30403 0.0
H1387 H 1.00903 0.55273 0.17032 0.0
H1388 H 0.96485 0.52778 0.2252 0.0
C1389 C 1.01318 0.55749 0.32924 0.0
C1390 C 0.48128 0.47356 0.31005 0.0
C1391 C 0.47438 0.44453 0.31172 0.0
H1392 H 0.47164 0.50517 0.27685 0.0
C1393 C 0.45215 0.42532 0.27696 0.0
H1394 H 0.4974 0.48883 0.33786 0.0
C1395 C 0.43655 0.43446 0.24386 0.0
C1396 C 0.44268 0.46326 0.24372 0.0
H1397 H 0.44523 0.40268 0.27861 0.0
H1398 H 0.41896 0.41856 0.21939 0.0
C1399 C 0.46608 0.48289 0.27583 0.0
C1400 C 0.56172 1.00041 0.32982 0.0
C1401 C 0.57781 0.0305 0.32066 0.0
H1402 H 0.54133 0.95781 0.29517 0.0
C1403 C 0.58209 0.04002 0.26595 0.0
H1404 H 0.55762 0.99201 0.37143 0.0
C1405 C 0.57214 0.02015 0.22218 0.0
C1406 C 0.55792 0.99005 0.23135 0.0
H1407 H 0.5942 0.06273 0.25683 0.0
H1408 H 0.57685 0.02855 0.18058 0.0
C1409 C 0.55212 0.98052 0.28604 0.0
C1410 C 0.45202 0.97911 0.78435 0.0
C1411 C 0.45683 0.98856 0.72961 0.0
H1412 H 0.45663 0.9907 0.86957 0.0
C1413 C 0.4733 0.01863 0.7203 0.0
H1414 H 0.43958 0.95643 0.79355 0.0
C1415 C 0.48267 0.03858 0.76392 0.0
C1416 C 0.47628 0.02914 0.81856 0.0
H1417 H 0.47781 0.02695 0.67864 0.0
H1418 H 0.49373 0.06129 0.75465 0.0
C1419 C 0.46177 0.99905 0.82797 0.0
C1420 C 0.04247 0.47327 0.80176 0.0
C1421 C 0.0429 0.47084 0.744 0.0
H1422 H 0.01698 0.46194 0.87614 0.0
C1423 C 1.01598 0.45611 0.71712 0.0
H1424 H 0.06257 0.48359 0.82428 0.0
C1425 C 0.98975 0.443 0.74704 0.0
C1426 C 0.98931 0.44472 0.80493 0.0
H1427 H 1.01526 0.45293 0.67299 0.0
H1428 H 0.9698 0.43021 0.72495 0.0
C1429 C 1.01616 0.4608 0.8316 0.0
C1430 C 0.54627 0.56823 0.78488 0.0
C1431 C 0.55459 0.56681 0.73078 0.0
H1432 H 0.54892 0.55974 0.87042 0.0
C1433 C 0.57034 0.55224 0.72253 0.0
H1434 H 0.53418 0.57901 0.79339 0.0
C1435 C 0.57931 0.54146 0.76682 0.0
C1436 C 0.57248 0.54444 0.82123 0.0
H1437 H 0.57702 0.55025 0.68145 0.0
H1438 H 0.59279 0.53216 0.75855 0.0
C1439 C 0.55488 0.55707 0.82914 0.0
C1440 C 0.18864 0.17935 0.31369 0.0
C1441 C 0.20025 0.20874 0.32518 0.0
H1442 H 0.18866 0.14726 0.26066 0.0
C1443 C 0.22218 0.22845 0.2899 0.0
H1444 H 0.17186 0.16345 0.33979 0.0
C1445 C 0.23211 0.21913 0.24479 0.0
C1446 C 0.22029 0.18974 0.23296 0.0
H1447 H 0.23185 0.25123 0.29729 0.0
H1448 H 0.24895 0.23504 0.21878 0.0
C1449 C 0.19835 0.17003 0.26819 0.0
C1450 C 0.80447 0.01789 0.25427 0.0
C1451 C 0.83153 0.027 0.22959 0.0
H1452 H 0.77399 0.99243 0.31736 0.0
C1453 C 0.84907 0.0171 0.25313 0.0
H1454 H 0.79031 0.02496 0.23762 0.0
C1455 C 0.84007 0.99913 0.30018 0.0
C1456 C 0.81276 0.98955 0.32412 0.0
H1457 H 0.87004 0.02357 0.23556 0.0
H1458 H 0.85437 0.99232 0.3173 0.0
C1459 C 0.79506 0.99912 0.30011 0.0
C1460 C 1.00064 0.78594 0.26488 0.0
C1461 C 0.99948 0.80588 0.22863 0.0
H1462 H 0.01907 0.77903 0.33829 0.0
C1463 C 0.01715 0.83519 0.24069 0.0
H1464 H 0.9875 0.7632 0.25707 0.0
C1465 C 0.03518 0.84426 0.28747 0.0
C1466 C 0.0364 0.82437 0.3237 0.0
H1467 H 0.01704 0.85124 0.21391 0.0
H1468 H 0.04831 0.86701 0.29515 0.0
C1469 C 0.01884 0.79503 0.31156 0.0
C1470 C 0.81085 0.7873 0.7659 0.0
C1471 C 0.83166 0.80689 0.72865 0.0
H1472 H 0.78595 0.78107 0.83983 0.0
C1473 C 0.84328 0.83631 0.73965 0.0
H1474 H 0.80124 0.76449 0.75895 0.0
C1475 C 0.8346 0.84582 0.78625 0.0
C1476 C 0.81376 0.82629 0.82344 0.0
H1477 H 0.85922 0.85212 0.71212 0.0
H1478 H 0.84419 0.86864 0.79301 0.0
C1479 C 0.802 0.79683 0.81239 0.0
C1480 C 0.22836 0.99904 0.79646 0.0
C1481 C 0.20174 0.99058 0.82252 0.0
H1482 H 0.258 0.02355 0.73142 0.0
C1483 C 0.18417 1.00062 0.79986 0.0
H1484 H 0.24251 0.9918 0.81249 0.0
C1485 C 0.19269 0.01816 0.75238 0.0
C1486 C 0.21952 0.02709 0.72696 0.0
H1487 H 0.16354 0.99462 0.81851 0.0
H1488 H 0.17836 0.02511 0.736 0.0
C1489 C 0.23729 0.01735 0.74995 0.0
C1490 C 0.99596 0.1695 0.7702 0.0
C1491 C 0.99362 0.18882 0.73414 0.0
H1492 H 1.01616 0.1636 0.84184 0.0
C1493 C 1.01141 0.21833 0.74453 0.0
H1494 H 0.98272 0.14664 0.7638 0.0
C1495 C 0.03095 0.22812 0.78923 0.0
C1496 C 0.03323 0.20873 0.82531 0.0
H1497 H 1.0104 0.23392 0.71783 0.0
H1498 H 0.04423 0.25097 0.7957 0.0
C1499 C 1.01526 0.17926 0.8151 0.0
C1500 C 0.85465 0.51508 0.647 0.0
C1501 C 0.8662 0.54453 0.65734 0.0
H1502 H 0.85424 0.48257 0.59494 0.0
C1503 C 0.88738 0.56402 0.62057 0.0
H1504 H 0.83845 0.49937 0.67429 0.0
C1505 C 0.89668 0.55434 0.57504 0.0
C1506 C 0.88499 0.52485 0.56462 0.0
H1507 H 0.89693 0.58685 0.62714 0.0
H1508 H 0.91298 0.57 0.54783 0.0
C1509 C 0.86379 0.50542 0.60134 0.0
C1510 C 0.47176 0.35105 0.58225 0.0
C1511 C 0.49918 0.36078 0.55865 0.0
H1512 H 0.44094 0.32509 0.64444 0.0
C1513 C 0.51695 0.3514 0.58302 0.0
H1514 H 0.45736 0.35759 0.56466 0.0
C1515 C 0.50785 0.33346 0.63007 0.0
C1516 C 0.48027 0.32339 0.6532 0.0
H1517 H 0.53816 0.35834 0.5662 0.0
H1518 H 0.52237 0.32714 0.64798 0.0
C1519 C 0.46229 0.3323 0.62811 0.0
C1520 C 0.68529 0.17207 0.57051 0.0
C1521 C 0.66766 0.14264 0.55907 0.0
H1522 H 0.71722 0.20438 0.62351 0.0
C1523 C 0.67001 0.12308 0.59449 0.0
H1524 H 0.68432 0.18787 0.54432 0.0
C1525 C 0.68921 0.1326 0.63967 0.0
C1526 C 0.70662 0.16203 0.65143 0.0
H1527 H 0.65703 0.10028 0.58716 0.0
H1528 H 0.69024 0.1168 0.66578 0.0
C1529 C 0.70427 0.18159 0.61606 0.0
C1530 C 0.50077 0.17926 0.11487 0.0
C1531 C 0.47956 0.15966 0.15142 0.0
H1532 H 0.52637 0.18571 0.04215 0.0
C1533 C 0.4681 0.13022 0.14072 0.0
H1534 H 0.51018 0.20208 0.12148 0.0
C1535 C 0.47765 0.12079 0.09514 0.0
C1536 C 0.49888 0.14047 0.05861 0.0
H1537 H 0.45184 0.11444 0.1678 0.0
H1538 H 0.46829 0.09799 0.08838 0.0
C1539 C 0.51015 0.16985 0.06921 0.0
C1540 C 0.89129 0.32787 0.12278 0.0
C1541 C 0.8693 0.32569 0.15813 0.0
H1542 H 0.91759 0.34772 0.0508 0.0
C1543 C 0.85727 0.34314 0.14615 0.0
H1544 H 0.90127 0.31497 0.13058 0.0
C1545 C 0.86658 0.36183 0.10034 0.0
C1546 C 0.88847 0.36404 0.06484 0.0
H1547 H 0.84047 0.34232 0.17224 0.0
H1548 H 0.85653 0.37469 0.09276 0.0
C1549 C 0.90075 0.34678 0.07695 0.0
C1550 C 0.69778 0.56209 0.12172 0.0
C1551 C 0.70026 0.54275 0.15754 0.0
H1552 H 0.67755 0.56787 0.04982 0.0
C1553 C 0.6832 0.51328 0.14596 0.0
H1554 H 0.71035 0.58492 0.12918 0.0
C1555 C 0.66456 0.5035 0.09999 0.0
C1556 C 0.66195 0.5228 0.06436 0.0
H1557 H 0.68431 0.49765 0.17244 0.0
H1558 H 0.65196 0.48067 0.09258 0.0
C1559 C 0.67884 0.55228 0.07613 0.0
C1560 C 0.53064 0.83808 0.93534 0.0
C1561 C 0.55232 0.85719 0.89899 0.0
H1562 H 0.5051 0.8326 1.00774 0.0
C1563 C 0.56466 0.88674 0.90959 0.0
H1564 H 0.52057 0.81519 0.92881 0.0
C1565 C 0.55552 0.89679 0.95482 0.0
C1566 C 0.53385 0.87762 0.99121 0.0
H1567 H 0.58127 0.90217 0.88267 0.0
H1568 H 0.56557 0.91967 0.96144 0.0
C1569 C 0.52169 0.84809 0.98077 0.0
C1570 C 0.17435 0.6668 0.96636 0.0
C1571 C 0.1472 0.65724 0.99093 0.0
H1572 H 0.20384 0.69083 0.901 0.0
C1573 C 0.12912 0.66635 0.96684 0.0
H1574 H 0.18895 0.66037 0.98349 0.0
C1575 C 0.13806 0.68463 0.92018 0.0
C1576 C 0.16506 0.69378 0.8951 0.0
H1577 H 0.10814 0.65965 0.9846 0.0
H1578 H 0.12363 0.69131 0.90328 0.0
C1579 C 0.18292 0.68434 0.91884 0.0
C1580 C 0.36013 0.46466 0.96377 0.0
C1581 C 0.36831 0.4912 0.98893 0.0
H1582 H 0.33545 0.43443 0.90017 0.0
C1583 C 0.35762 0.50813 0.96587 0.0
H1584 H 0.36788 0.45101 0.98004 0.0
C1585 C 0.33975 0.49903 0.9188 0.0
C1586 C 0.33107 0.47221 0.89442 0.0
H1587 H 0.36338 0.52868 0.98386 0.0
H1588 H 0.3323 0.51284 0.90201 0.0
C1589 C 0.34143 0.4551 0.91791 0.0
C1590 C 0.13293 0.46262 0.47492 0.0
C1591 C 0.14519 0.49208 0.48645 0.0
H1592 H 0.13218 0.43018 0.42174 0.0
C1593 C 0.16678 0.51151 0.4503 0.0
H1594 H 0.11631 0.44694 0.50159 0.0
C1595 C 0.17579 0.50193 0.40431 0.0
C1596 C 0.16377 0.4725 0.39294 0.0
H1597 H 0.17679 0.53434 0.45749 0.0
H1598 H 0.19235 0.51768 0.37764 0.0
C1599 C 0.14213 0.45299 0.42905 0.0
C1600 C 0.56311 0.67639 0.40496 0.0
C1601 C 0.55142 0.69426 0.39362 0.0
H1602 H 0.56348 0.64447 0.4583 0.0
C1603 C 0.53025 0.69282 0.43025 0.0
H1604 H 0.5794 0.67675 0.37799 0.0
C1605 C 0.52117 0.67435 0.47652 0.0
C1606 C 0.53273 0.6564 0.48781 0.0
H1607 H 0.52067 0.70615 0.4233 0.0
H1608 H 0.50499 0.67416 0.50359 0.0
C1609 C 0.55388 0.65776 0.45115 0.0
C1610 C 0.35973 0.85147 0.46439 0.0
C1611 C 0.36888 0.87853 0.4882 0.0
H1612 H 0.33582 0.8217 0.39956 0.0
C1613 C 0.35931 0.89605 0.46367 0.0
H1614 H 0.3666 0.83735 0.48193 0.0
C1615 C 0.34085 0.88667 0.41748 0.0
C1616 C 0.33208 0.85982 0.3931 0.0
H1617 H 0.36576 0.91695 0.48077 0.0
H1618 H 0.33379 0.90071 0.40024 0.0
C1619 C 0.34205 0.84249 0.41701 0.0
C1620 C 0.35363 0.33044 0.12898 0.0
C1621 C 0.32938 0.31503 0.09587 0.0
H1622 H 0.3895 0.37142 0.14763 0.0
C1623 C 0.3228 0.32892 0.05422 0.0
H1624 H 0.35922 0.31985 0.16066 0.0
C1625 C 0.33986 0.35835 0.04706 0.0
C1626 C 0.36399 0.37381 0.08053 0.0
H1627 H 0.30422 0.31711 0.02793 0.0
H1628 H 0.33396 0.36907 1.0162 0.0
C1629 C 0.37112 0.3597 0.12084 0.0
C1630 C 0.66967 1.00864 0.07846 0.0
C1631 C 0.65444 0.98266 0.10687 0.0
H1632 H 0.71017 0.04687 0.06743 0.0
C1633 C 0.66833 0.97503 0.14682 0.0
H1634 H 0.65908 0.01507 0.04827 0.0
C1635 C 0.69736 0.99312 0.15792 0.0
C1636 C 0.71257 0.01922 0.12989 0.0
H1637 H 0.6567 0.95514 0.16965 0.0
H1638 H 0.70796 0.9866 0.18793 0.0
C1639 C 0.69859 0.027 0.09033 0.0
C1640 C 0.03711 0.70839 0.14616 0.0
C1641 C 0.01847 0.70563 0.1035 0.0
H1642 H 0.06837 0.69794 0.17483 0.0
C1643 C 0.0174 0.69074 0.05529 0.0
H1644 H 0.03834 0.72007 0.18329 0.0
C1645 C 0.03415 0.67775 0.05061 0.0
C1646 C 0.05258 0.68023 0.09354 0.0
H1647 H 1.0031 0.68855 1.02179 0.0
H1648 H 0.03238 0.66547 1.01406 0.0
C1649 C 0.05441 0.69604 0.14089 0.0
C1650 C 0.36504 0.33332 0.38939 0.0
C1651 C 0.37907 0.34059 0.44059 0.0
H1652 H 0.32458 0.3132 0.34732 0.0
C1653 C 0.36316 0.33167 0.48936 0.0
H1654 H 0.3771 0.34003 0.35118 0.0
C1655 C 0.33332 0.31616 0.487 0.0
C1656 C 0.31923 0.30977 0.43586 0.0
H1657 H 0.37371 0.33699 0.52912 0.0
H1658 H 0.32129 0.30984 0.52527 0.0
C1659 C 0.33516 0.31806 0.38703 0.0
C1660 C 0.70539 0.01726 0.39444 0.0
C1661 C 0.71155 1.00756 0.44311 0.0
H1662 H 0.68687 0.04052 0.3587 0.0
C1663 C 0.70474 0.01478 0.49434 0.0
H1664 H 0.71067 0.01201 0.35465 0.0
C1665 C 0.691 0.03087 0.49681 0.0
C1666 C 0.68426 0.04003 0.44806 0.0
H1667 H 0.70948 1.0075 0.53248 0.0
H1668 H 0.68526 0.03571 0.53654 0.0
C1669 C 0.69192 0.03358 0.39691 0.0
C1670 C 0.02436 0.68689 0.4959 0.0
C1671 C 0.03256 0.70339 0.44754 0.0
H1672 H 1.00279 0.64471 0.53035 0.0
C1673 C 0.02751 0.69019 0.39608 0.0
H1674 H 0.02844 0.69688 0.53608 0.0
C1675 C 1.01277 0.66051 0.3929 0.0
C1676 C 1.00329 0.644 0.44119 0.0
H1677 H 0.03391 0.70271 0.35844 0.0
H1678 H 1.00806 0.65051 0.35269 0.0
C1679 C 1.00986 0.65722 0.49274 0.0
C1680 C 0.68159 0.66072 1.00129 0.0
C1681 C 0.67551 0.64669 0.95059 0.0
H1682 H 0.69975 0.70097 0.04226 0.0
C1683 C 0.68227 0.66234 0.90123 0.0
H1684 H 0.67628 0.64889 0.03971 0.0
C1685 C 0.69536 0.69199 0.9026 0.0
C1686 C 0.70192 0.70602 0.95333 0.0
H1687 H 0.67748 0.65171 0.86164 0.0
H1688 H 0.70086 0.70388 0.86424 0.0
C1689 C 0.69484 0.69034 1.00265 0.0
C1690 C 0.33525 0.99207 0.9626 0.0
C1691 C 0.321 0.99921 0.92245 0.0
H1692 H 0.37502 1.00469 1.00417 0.0
C1693 C 0.33602 0.02482 0.89283 0.0
H1694 H 0.32382 0.97259 0.98667 0.0
C1695 C 0.36512 0.04308 0.90297 0.0
C1696 C 0.37928 0.03611 0.94351 0.0
H1697 H 0.32522 0.03083 0.86231 0.0
H1698 H 0.37659 0.06259 0.87897 0.0
C1699 C 0.36424 0.01062 0.97348 0.0
C1700 C 0.01827 0.35663 0.90121 0.0
C1701 C 1.00017 0.35351 0.94571 0.0
H1702 H 0.04239 0.34022 0.86019 0.0
C1703 C 0.99216 0.33113 0.98343 0.0
H1704 H 0.02432 0.37359 0.87115 0.0
C1705 C 1.00228 0.31206 0.97689 0.0
C1706 C 0.02027 0.31509 0.93231 0.0
H1707 H 0.97792 0.32821 1.0176 0.0
H1708 H 0.99624 0.29511 1.00698 0.0
C1709 C 0.02814 0.33734 0.89431 0.0
C1710 C 0.6957 0.69815 0.66116 0.0
C1711 C 0.71186 0.70608 0.61261 0.0
H1712 H 0.65359 0.67679 0.69634 0.0
C1713 C 0.698 0.69956 0.56122 0.0
H1714 H 0.70609 0.70312 0.70106 0.0
C1715 C 0.66815 0.68432 0.55838 0.0
C1716 C 0.65199 0.67582 0.60691 0.0
H1717 H 0.71021 0.70559 0.52315 0.0
H1718 H 0.65778 0.67888 0.51846 0.0
C1719 C 0.66582 0.68319 0.65831 0.0
C1720 C 0.3487 0.9922 0.66372 0.0
C1721 C 0.34767 0.97747 0.61532 0.0
H1722 H 0.33339 0.01703 0.7056 0.0
C1723 C 0.32857 0.97426 0.57323 0.0
H1724 H 0.36333 0.99471 0.69681 0.0
C1725 C 0.31088 0.98613 0.57916 0.0
C1726 C 0.31278 1.00194 0.62656 0.0
H1727 H 0.32734 0.96265 0.53599 0.0
H1728 H 0.29665 0.98398 0.54555 0.0
C1729 C 0.33156 1.00474 0.66903 0.0
C1730 C 0.04796 0.35558 0.61073 0.0
C1731 C 0.03259 0.37013 0.60349 0.0
H1732 H 0.04573 0.31565 0.62737 0.0
C1733 C 1.00251 0.35535 0.60809 0.0
H1734 H 0.07126 0.36673 0.60829 0.0
C1735 C 0.98786 0.32602 0.61886 0.0
C1736 C 1.00333 0.31156 0.62617 0.0
H1737 H 0.9904 0.36642 0.60341 0.0
H1738 H 0.96455 0.31464 0.62083 0.0
C1739 C 0.03343 0.32652 0.62263 0.0
C1740 C 1.00165 0.6418 0.80926 0.0
C1741 C 0.98738 0.64848 0.76846 0.0
H1742 H 0.04178 0.65398 0.84886 0.0
C1743 C 1.00255 0.67325 0.73651 0.0
H1744 H 0.99009 0.62285 0.83472 0.0
C1745 C 0.03178 0.69145 0.74584 0.0
C1746 C 0.04609 0.68466 0.78644 0.0
H1747 H 0.99171 0.67894 0.70552 0.0
H1748 H 0.04329 0.71044 0.72047 0.0
C1749 C 0.03095 0.6597 0.81789 0.0
C1750 C 0.34718 0.32358 0.79099 0.0
C1751 C 0.36849 0.33088 0.75053 0.0
H1752 H 0.32016 0.33603 0.83361 0.0
C1753 C 0.37893 0.35653 0.7211 0.0
H1754 H 0.33924 0.30407 0.81493 0.0
C1755 C 0.36805 0.37469 0.73185 0.0
C1756 C 0.3471 0.36761 0.77289 0.0
H1757 H 0.39569 0.36266 0.69035 0.0
H1758 H 0.37598 0.39425 0.70807 0.0
C1759 C 0.33674 0.34205 0.80255 0.0
C1760 C 0.67233 0.02269 0.82846 0.0
C1761 C 0.69112 0.03716 0.78465 0.0
H1762 H 0.64522 0.98211 0.86684 0.0
C1763 C 0.69881 0.02233 0.74744 0.0
H1764 H 0.66648 0.03404 0.85788 0.0
C1765 C 0.68753 0.99305 0.7537 0.0
C1766 C 0.66797 0.97838 0.79642 0.0
H1767 H 0.71369 0.03337 0.71397 0.0
H1768 H 0.69325 0.98177 0.72388 0.0
C1769 C 0.66051 0.99326 0.83398 0.0
C1770 C 0.36907 0.02316 0.22946 0.0
C1771 C 0.36611 0.03777 0.27425 0.0
H1772 H 0.35962 0.98257 0.19704 0.0
C1773 C 0.3509 0.02263 0.32139 0.0
H1774 H 0.38095 0.03457 0.19299 0.0
C1775 C 0.33916 0.99312 0.32413 0.0
C1776 C 0.34235 0.97854 0.27958 0.0
H1777 H 0.34851 0.03362 0.35656 0.0
H1778 H 0.32748 0.98175 0.36078 0.0
C1779 C 0.35717 0.9936 0.23208 0.0
C1780 C 1.00202 0.34617 0.21339 0.0
C1781 C 0.98601 0.34872 0.25616 0.0
H1782 H 0.04383 0.35627 0.18541 0.0
C1783 C 0.99988 0.36421 0.30386 0.0
H1784 H 0.99158 0.33411 0.17659 0.0
C1785 C 0.02944 0.37598 0.30979 0.0
C1786 C 0.04534 0.37298 0.26742 0.0
H1787 H 0.98776 0.36616 0.33768 0.0
H1788 H 0.0398 0.38734 0.34724 0.0
C1789 C 0.03168 0.35859 0.21873 0.0
C1790 C 0.66979 0.67688 0.31011 0.0
C1791 C 0.66304 0.68474 0.25987 0.0
H1792 H 0.68756 0.65391 0.34994 0.0
C1793 C 0.66961 0.67603 0.21008 0.0
H1794 H 0.66469 0.68331 0.34883 0.0
C1795 C 0.68273 0.65933 0.21056 0.0
C1796 C 0.68903 0.65107 0.26085 0.0
H1797 H 0.66449 0.68198 0.17082 0.0
H1798 H 0.68775 0.6528 0.17187 0.0
C1799 C 0.68259 0.65994 0.3106 0.0
loop_
_geom_bond_atom_site_label_1
_geom_bond_atom_site_label_2
_geom_bond_distance
_geom_bond_site_symmetry_2
_ccdc_geom_bond_type
Dy0 O4 2.398 . S
Dy0 O5 2.491 . S
Dy0 O6 2.403 . S
Dy0 O7 2.664 . S
Dy0 O11 2.326 . S
Dy0 O15 2.310 . S
Dy0 O16 2.351 . S
C1 O12 1.185 . S
C1 O13 1.355 . S
C2 O4 1.185 . S
C2 O5 1.355 . S
Dy3 O7 2.310 . S
Dy3 O10 2.351 . S
Dy3 O12 2.398 . S
Dy3 O13 2.491 . S
Dy3 O14 2.405 . S
Dy3 O15 2.664 . S
Dy3 O17 2.326 . S
O4 Dy0 2.398 . S
O4 C2 1.185 . S
O5 Dy0 2.491 . S
O5 C2 1.355 . S
O6 Dy0 2.403 . S
O6 C8 1.254 . S
O7 Dy0 2.664 . S
O7 Dy3 2.310 . S
O7 C8 1.268 . S
C8 O6 1.254 . S
C8 O7 1.268 . S
C9 O14 1.254 1_556 S
C9 O15 1.268 1_556 S
O10 Dy3 2.351 . S
O10 C18 1.249 . S
O11 Dy0 2.326 . S
O11 C18 1.267 . S
O12 C1 1.185 . S
O12 Dy3 2.398 . S
O13 C1 1.355 . S
O13 Dy3 2.491 . S
O14 Dy3 2.405 . S
O14 C9 1.254 1_554 S
O15 Dy0 2.310 . S
O15 Dy3 2.664 . S
O15 C9 1.268 1_554 S
O16 Dy0 2.351 . S
O16 C19 1.249 . S
O17 Dy3 2.326 . S
O17 C19 1.267 . S
C18 O10 1.249 . S
C18 O11 1.267 . S
C19 O16 1.249 . S
C19 O17 1.267 . S
Dy20 O24 2.398 . S
Dy20 O25 2.491 . S
Dy20 O26 2.403 . S
Dy20 O27 2.664 . S
Dy20 O31 2.326 . S
Dy20 O35 2.310 . S
Dy20 O36 2.351 . S
C21 O32 1.185 . S
C21 O33 1.355 . S
C22 O24 1.185 . S
C22 O25 1.355 . S
Dy23 O27 2.310 . S
Dy23 O30 2.351 . S
Dy23 O32 2.398 . S
Dy23 O33 2.491 . S
Dy23 O34 2.406 . S
Dy23 O35 2.664 . S
Dy23 O37 2.326 . S
O24 Dy20 2.398 . S
O24 C22 1.185 . S
O25 Dy20 2.491 . S
O25 C22 1.355 . S
O26 Dy20 2.403 . S
O26 C28 1.254 . S
O27 Dy20 2.664 . S
O27 Dy23 2.310 . S
O27 C28 1.268 . S
C28 O26 1.254 . S
C28 O27 1.268 . S
C29 O34 1.254 1_556 S
C29 O35 1.268 1_556 S
O30 Dy23 2.351 . S
O30 C38 1.249 . S
O31 Dy20 2.326 . S
O31 C38 1.267 . S
O32 C21 1.185 . S
O32 Dy23 2.398 . S
O33 C21 1.355 . S
O33 Dy23 2.491 . S
O34 Dy23 2.406 . S
O34 C29 1.254 1_554 S
O35 Dy20 2.310 . S
O35 Dy23 2.664 . S
O35 C29 1.268 1_554 S
O36 Dy20 2.351 . S
O36 C39 1.249 . S
O37 Dy23 2.326 . S
O37 C39 1.267 . S
C38 O30 1.249 . S
C38 O31 1.267 . S
C39 O36 1.249 . S
C39 O37 1.267 . S
Dy40 O44 2.398 . S
Dy40 O45 2.491 . S
Dy40 O46 2.403 . S
Dy40 O47 2.664 . S
Dy40 O51 2.326 . S
Dy40 O55 2.310 . S
Dy40 O56 2.351 . S
C41 O52 1.185 . S
C41 O53 1.355 . S
C42 O44 1.185 . S
C42 O45 1.355 . S
Dy43 O47 2.310 . S
Dy43 O50 2.351 . S
Dy43 O52 2.398 . S
Dy43 O53 2.491 . S
Dy43 O54 2.405 . S
Dy43 O55 2.664 . S
Dy43 O57 2.326 . S
O44 Dy40 2.398 . S
O44 C42 1.185 . S
O45 Dy40 2.491 . S
O45 C42 1.355 . S
O46 Dy40 2.403 . S
O46 C48 1.254 . S
O47 Dy40 2.664 . S
O47 Dy43 2.310 . S
O47 C48 1.268 . S
C48 O46 1.254 . S
C48 O47 1.268 . S
C49 O54 1.254 1_556 S
C49 O55 1.268 1_556 S
O50 Dy43 2.351 . S
O50 C58 1.249 . S
O51 Dy40 2.326 . S
O51 C58 1.267 . S
O52 C41 1.185 . S
O52 Dy43 2.398 . S
O53 C41 1.355 . S
O53 Dy43 2.491 . S
O54 Dy43 2.405 . S
O54 C49 1.254 1_554 S
O55 Dy40 2.310 . S
O55 Dy43 2.664 . S
O55 C49 1.268 1_554 S
O56 Dy40 2.351 . S
O56 C59 1.249 . S
O57 Dy43 2.326 . S
O57 C59 1.267 . S
C58 O50 1.249 . S
C58 O51 1.267 . S
C59 O56 1.249 . S
C59 O57 1.267 . S
Dy60 O64 2.398 . S
Dy60 O65 2.491 . S
Dy60 O66 2.403 . S
Dy60 O67 2.664 . S
Dy60 O71 2.326 . S
Dy60 O75 2.310 . S
Dy60 O76 2.351 . S
C61 O72 1.185 . S
C61 O73 1.355 . S
C62 O64 1.185 . S
C62 O65 1.355 . S
Dy63 O67 2.310 . S
Dy63 O70 2.351 . S
Dy63 O72 2.398 . S
Dy63 O73 2.491 . S
Dy63 O74 2.403 . S
Dy63 O75 2.664 . S
Dy63 O77 2.326 . S
O64 Dy60 2.398 . S
O64 C62 1.185 . S
O65 Dy60 2.491 . S
O65 C62 1.355 . S
O66 Dy60 2.403 . S
O66 C68 1.254 . S
O67 Dy60 2.664 . S
O67 Dy63 2.310 . S
O67 C68 1.268 . S
C68 O66 1.254 . S
C68 O67 1.268 . S
C69 O74 1.254 . S
C69 O75 1.268 . S
O70 Dy63 2.351 . S
O70 C78 1.249 . S
O71 Dy60 2.326 . S
O71 C78 1.267 . S
O72 C61 1.185 . S
O72 Dy63 2.398 . S
O73 C61 1.355 . S
O73 Dy63 2.491 . S
O74 Dy63 2.403 . S
O74 C69 1.254 . S
O75 Dy60 2.310 . S
O75 Dy63 2.664 . S
O75 C69 1.268 . S
O76 Dy60 2.351 . S
O76 C79 1.249 . S
O77 Dy63 2.326 . S
O77 C79 1.267 . S
C78 O70 1.249 . S
C78 O71 1.267 . S
C79 O76 1.249 . S
C79 O77 1.267 . S
Dy80 O84 2.398 . S
Dy80 O85 2.491 . S
Dy80 O86 2.403 . S
Dy80 O87 2.664 . S
Dy80 O91 2.326 . S
Dy80 O95 2.310 . S
Dy80 O96 2.351 . S
C81 O92 1.185 . S
C81 O93 1.355 . S
C82 O84 1.185 . S
C82 O85 1.355 . S
Dy83 O87 2.310 . S
Dy83 O90 2.351 . S
Dy83 O92 2.398 . S
Dy83 O93 2.491 . S
Dy83 O94 2.403 . S
Dy83 O95 2.664 . S
Dy83 O97 2.326 . S
O84 Dy80 2.398 . S
O84 C82 1.185 . S
O85 Dy80 2.491 . S
O85 C82 1.355 . S
O86 Dy80 2.403 . S
O86 C88 1.254 . S
O87 Dy80 2.664 . S
O87 Dy83 2.310 . S
O87 C88 1.268 . S
C88 O86 1.254 . S
C88 O87 1.268 . S
C89 O94 1.254 . S
C89 O95 1.268 . S
O90 Dy83 2.351 . S
O90 C98 1.249 . S
O91 Dy80 2.326 . S
O91 C98 1.267 . S
O92 C81 1.185 . S
O92 Dy83 2.398 . S
O93 C81 1.355 . S
O93 Dy83 2.491 . S
O94 Dy83 2.403 . S
O94 C89 1.254 . S
O95 Dy80 2.310 . S
O95 Dy83 2.664 . S
O95 C89 1.268 . S
O96 Dy80 2.351 . S
O96 C99 1.249 . S
O97 Dy83 2.326 . S
O97 C99 1.267 . S
C98 O90 1.249 . S
C98 O91 1.267 . S
C99 O96 1.249 . S
C99 O97 1.267 . S
Dy100 O104 2.398 . S
Dy100 O105 2.491 . S
Dy100 O106 2.403 . S
Dy100 O107 2.664 . S
Dy100 O111 2.326 . S
Dy100 O115 2.310 . S
Dy100 O116 2.351 . S
C101 O112 1.185 . S
C101 O113 1.355 . S
C102 O104 1.185 . S
C102 O105 1.355 . S
Dy103 O107 2.310 . S
Dy103 O110 2.351 . S
Dy103 O112 2.398 . S
Dy103 O113 2.491 . S
Dy103 O114 2.403 . S
Dy103 O115 2.664 . S
Dy103 O117 2.326 . S
O104 Dy100 2.398 . S
O104 C102 1.185 . S
O105 Dy100 2.491 . S
O105 C102 1.355 . S
O106 Dy100 2.403 . S
O106 C108 1.254 . S
O107 Dy100 2.664 . S
O107 Dy103 2.310 . S
O107 C108 1.268 . S
C108 O106 1.254 . S
C108 O107 1.268 . S
C109 O114 1.254 . S
C109 O115 1.268 . S
O110 Dy103 2.351 . S
O110 C118 1.249 . S
O111 Dy100 2.326 . S
O111 C118 1.267 . S
O112 C101 1.185 . S
O112 Dy103 2.398 . S
O113 C101 1.355 . S
O113 Dy103 2.491 . S
O114 Dy103 2.403 . S
O114 C109 1.254 . S
O115 Dy100 2.310 . S
O115 Dy103 2.664 . S
O115 C109 1.268 . S
O116 Dy100 2.351 . S
O116 C119 1.249 . S
O117 Dy103 2.326 . S
O117 C119 1.267 . S
C118 O110 1.249 . S
C118 O111 1.267 . S
C119 O116 1.249 . S
C119 O117 1.267 . S
Dy120 O124 2.398 . S
Dy120 O125 2.491 . S
Dy120 O126 2.405 . S
Dy120 O127 2.664 . S
Dy120 O131 2.326 . S
Dy120 O135 2.310 . S
Dy120 O136 2.351 . S
C121 O132 1.185 . S
C121 O133 1.355 . S
C122 O124 1.185 . S
C122 O125 1.355 . S
Dy123 O127 2.310 . S
Dy123 O130 2.351 . S
Dy123 O132 2.398 . S
Dy123 O133 2.491 . S
Dy123 O134 2.403 . S
Dy123 O135 2.664 . S
Dy123 O137 2.326 . S
O124 Dy120 2.398 . S
O124 C122 1.185 . S
O125 Dy120 2.491 . S
O125 C122 1.355 . S
O126 Dy120 2.405 . S
O126 C128 1.254 1_556 S
O127 Dy120 2.664 . S
O127 Dy123 2.310 . S
O127 C128 1.268 1_556 S
C128 O126 1.254 1_554 S
C128 O127 1.268 1_554 S
C129 O134 1.254 . S
C129 O135 1.268 . S
O130 Dy123 2.351 . S
O130 C138 1.249 . S
O131 Dy120 2.326 . S
O131 C138 1.267 . S
O132 C121 1.185 . S
O132 Dy123 2.398 . S
O133 C121 1.355 . S
O133 Dy123 2.491 . S
O134 Dy123 2.403 . S
O134 C129 1.254 . S
O135 Dy120 2.310 . S
O135 Dy123 2.664 . S
O135 C129 1.268 . S
O136 Dy120 2.351 . S
O136 C139 1.249 . S
O137 Dy123 2.326 . S
O137 C139 1.267 . S
C138 O130 1.249 . S
C138 O131 1.267 . S
C139 O136 1.249 . S
C139 O137 1.267 . S
Dy140 O144 2.398 . S
Dy140 O145 2.491 . S
Dy140 O146 2.406 . S
Dy140 O147 2.664 . S
Dy140 O151 2.326 . S
Dy140 O155 2.310 . S
Dy140 O156 2.351 . S
C141 O152 1.185 . S
C141 O153 1.355 . S
C142 O144 1.185 . S
C142 O145 1.355 . S
Dy143 O147 2.310 . S
Dy143 O150 2.351 . S
Dy143 O152 2.398 . S
Dy143 O153 2.491 . S
Dy143 O154 2.403 . S
Dy143 O155 2.664 . S
Dy143 O157 2.326 . S
O144 Dy140 2.398 . S
O144 C142 1.185 . S
O145 Dy140 2.491 . S
O145 C142 1.355 . S
O146 Dy140 2.406 . S
O146 C148 1.254 1_556 S
O147 Dy140 2.664 . S
O147 Dy143 2.310 . S
O147 C148 1.268 1_556 S
C148 O146 1.254 1_554 S
C148 O147 1.268 1_554 S
C149 O154 1.254 . S
C149 O155 1.268 . S
O150 Dy143 2.351 . S
O150 C158 1.249 . S
O151 Dy140 2.326 . S
O151 C158 1.267 . S
O152 C141 1.185 . S
O152 Dy143 2.398 . S
O153 C141 1.355 . S
O153 Dy143 2.491 . S
O154 Dy143 2.403 . S
O154 C149 1.254 . S
O155 Dy140 2.310 . S
O155 Dy143 2.664 . S
O155 C149 1.268 . S
O156 Dy140 2.351 . S
O156 C159 1.249 . S
O157 Dy143 2.326 . S
O157 C159 1.267 . S
C158 O150 1.249 . S
C158 O151 1.267 . S
C159 O156 1.249 . S
C159 O157 1.267 . S
Dy160 O164 2.398 . S
Dy160 O165 2.491 . S
Dy160 O166 2.405 . S
Dy160 O167 2.664 . S
Dy160 O171 2.326 . S
Dy160 O175 2.310 . S
Dy160 O176 2.351 . S
C161 O172 1.185 . S
C161 O173 1.355 . S
C162 O164 1.185 . S
C162 O165 1.355 . S
Dy163 O167 2.310 . S
Dy163 O170 2.351 . S
Dy163 O172 2.398 . S
Dy163 O173 2.491 . S
Dy163 O174 2.403 . S
Dy163 O175 2.664 . S
Dy163 O177 2.326 . S
O164 Dy160 2.398 . S
O164 C162 1.185 . S
O165 Dy160 2.491 . S
O165 C162 1.355 . S
O166 Dy160 2.405 . S
O166 C168 1.254 1_556 S
O167 Dy160 2.664 . S
O167 Dy163 2.310 . S
O167 C168 1.268 1_556 S
C168 O166 1.254 1_554 S
C168 O167 1.268 1_554 S
C169 O174 1.254 . S
C169 O175 1.268 . S
O170 Dy163 2.351 . S
O170 C178 1.249 . S
O171 Dy160 2.326 . S
O171 C178 1.267 . S
O172 C161 1.185 . S
O172 Dy163 2.398 . S
O173 C161 1.355 . S
O173 Dy163 2.491 . S
O174 Dy163 2.403 . S
O174 C169 1.254 . S
O175 Dy160 2.310 . S
O175 Dy163 2.664 . S
O175 C169 1.268 . S
O176 Dy160 2.351 . S
O176 C179 1.249 . S
O177 Dy163 2.326 . S
O177 C179 1.267 . S
C178 O170 1.249 . S
C178 O171 1.267 . S
C179 O176 1.249 . S
C179 O177 1.267 . S
Dy180 O184 2.398 . S
Dy180 O185 2.491 . S
Dy180 O186 2.403 . S
Dy180 O187 2.664 . S
Dy180 O191 2.326 . S
Dy180 O195 2.310 . S
Dy180 O196 2.351 . S
C181 O192 1.185 . S
C181 O193 1.355 . S
C182 O184 1.185 . S
C182 O185 1.355 . S
Dy183 O187 2.310 . S
Dy183 O190 2.351 . S
Dy183 O192 2.398 . S
Dy183 O193 2.491 . S
Dy183 O194 2.403 . S
Dy183 O195 2.664 . S
Dy183 O197 2.326 . S
O184 Dy180 2.398 . S
O184 C182 1.185 . S
O185 Dy180 2.491 . S
O185 C182 1.355 . S
O186 Dy180 2.403 . S
O186 C188 1.254 . S
O187 Dy180 2.664 . S
O187 Dy183 2.310 . S
O187 C188 1.268 . S
C188 O186 1.254 . S
C188 O187 1.268 . S
C189 O194 1.254 . S
C189 O195 1.268 . S
O190 Dy183 2.351 . S
O190 C198 1.249 . S
O191 Dy180 2.326 . S
O191 C198 1.267 . S
O192 C181 1.185 . S
O192 Dy183 2.398 . S
O193 C181 1.355 . S
O193 Dy183 2.491 . S
O194 Dy183 2.403 . S
O194 C189 1.254 . S
O195 Dy180 2.310 . S
O195 Dy183 2.664 . S
O195 C189 1.268 . S
O196 Dy180 2.351 . S
O196 C199 1.249 . S
O197 Dy183 2.326 . S
O197 C199 1.267 . S
C198 O190 1.249 . S
C198 O191 1.267 . S
C199 O196 1.249 . S
C199 O197 1.267 . S
Dy200 O204 2.398 . S
Dy200 O205 2.491 . S
Dy200 O206 2.403 . S
Dy200 O207 2.664 . S
Dy200 O211 2.326 . S
Dy200 O215 2.310 . S
Dy200 O216 2.351 . S
C201 O212 1.185 . S
C201 O213 1.355 . S
C202 O204 1.185 . S
C202 O205 1.355 . S
Dy203 O207 2.310 . S
Dy203 O210 2.351 . S
Dy203 O212 2.398 . S
Dy203 O213 2.491 . S
Dy203 O214 2.403 . S
Dy203 O215 2.664 . S
Dy203 O217 2.326 . S
O204 Dy200 2.398 . S
O204 C202 1.185 . S
O205 Dy200 2.491 . S
O205 C202 1.355 . S
O206 Dy200 2.403 . S
O206 C208 1.254 . S
O207 Dy200 2.664 . S
O207 Dy203 2.310 . S
O207 C208 1.268 . S
C208 O206 1.254 . S
C208 O207 1.268 . S
C209 O214 1.254 . S
C209 O215 1.268 . S
O210 Dy203 2.351 . S
O210 C218 1.249 . S
O211 Dy200 2.326 . S
O211 C218 1.267 . S
O212 C201 1.185 . S
O212 Dy203 2.398 . S
O213 C201 1.355 . S
O213 Dy203 2.491 . S
O214 Dy203 2.403 . S
O214 C209 1.254 . S
O215 Dy200 2.310 . S
O215 Dy203 2.664 . S
O215 C209 1.268 . S
O216 Dy200 2.351 . S
O216 C219 1.249 . S
O217 Dy203 2.326 . S
O217 C219 1.267 . S
C218 O210 1.249 . S
C218 O211 1.267 . S
C219 O216 1.249 . S
C219 O217 1.267 . S
Dy220 O224 2.398 . S
Dy220 O225 2.491 . S
Dy220 O226 2.403 . S
Dy220 O227 2.664 . S
Dy220 O231 2.326 . S
Dy220 O235 2.310 . S
Dy220 O236 2.351 . S
C221 O232 1.185 . S
C221 O233 1.355 . S
C222 O224 1.185 . S
C222 O225 1.355 . S
Dy223 O227 2.310 . S
Dy223 O230 2.351 . S
Dy223 O232 2.398 . S
Dy223 O233 2.491 . S
Dy223 O234 2.403 . S
Dy223 O235 2.664 . S
Dy223 O237 2.326 . S
O224 Dy220 2.398 . S
O224 C222 1.185 . S
O225 Dy220 2.491 . S
O225 C222 1.355 . S
O226 Dy220 2.403 . S
O226 C228 1.254 . S
O227 Dy220 2.664 . S
O227 Dy223 2.310 . S
O227 C228 1.268 . S
C228 O226 1.254 . S
C228 O227 1.268 . S
C229 O234 1.254 . S
C229 O235 1.268 . S
O230 Dy223 2.351 . S
O230 C238 1.249 . S
O231 Dy220 2.326 . S
O231 C238 1.267 . S
O232 C221 1.185 . S
O232 Dy223 2.398 . S
O233 C221 1.355 . S
O233 Dy223 2.491 . S
O234 Dy223 2.403 . S
O234 C229 1.254 . S
O235 Dy220 2.310 . S
O235 Dy223 2.664 . S
O235 C229 1.268 . S
O236 Dy220 2.351 . S
O236 C239 1.249 . S
O237 Dy223 2.326 . S
O237 C239 1.267 . S
C238 O230 1.249 . S
C238 O231 1.267 . S
C239 O236 1.249 . S
C239 O237 1.267 . S
Dy240 O244 2.398 . S
Dy240 O245 2.491 . S
Dy240 O246 2.403 . S
Dy240 O247 2.664 . S
Dy240 O251 2.326 . S
Dy240 O255 2.310 . S
Dy240 O256 2.351 . S
C241 O252 1.185 . S
C241 O253 1.355 . S
C242 O244 1.185 . S
C242 O245 1.355 . S
Dy243 O247 2.310 . S
Dy243 O250 2.351 . S
Dy243 O252 2.398 . S
Dy243 O253 2.491 . S
Dy243 O254 2.403 . S
Dy243 O255 2.664 . S
Dy243 O257 2.326 . S
O244 Dy240 2.398 . S
O244 C242 1.185 . S
O245 Dy240 2.491 . S
O245 C242 1.355 . S
O246 Dy240 2.403 . S
O246 C248 1.254 . S
O247 Dy240 2.664 . S
O247 Dy243 2.310 . S
O247 C248 1.268 . S
C248 O246 1.254 . S
C248 O247 1.268 . S
C249 O254 1.254 . S
C249 O255 1.268 . S
O250 Dy243 2.351 . S
O250 C258 1.249 . S
O251 Dy240 2.326 . S
O251 C258 1.267 . S
O252 C241 1.185 . S
O252 Dy243 2.398 . S
O253 C241 1.355 . S
O253 Dy243 2.491 . S
O254 Dy243 2.403 . S
O254 C249 1.254 . S
O255 Dy240 2.310 . S
O255 Dy243 2.664 . S
O255 C249 1.268 . S
O256 Dy240 2.351 . S
O256 C259 1.249 . S
O257 Dy243 2.326 . S
O257 C259 1.267 . S
C258 O250 1.249 . S
C258 O251 1.267 . S
C259 O256 1.249 . S
C259 O257 1.267 . S
Dy260 O264 2.398 . S
Dy260 O265 2.491 . S
Dy260 O266 2.403 . S
Dy260 O267 2.664 . S
Dy260 O271 2.326 . S
Dy260 O275 2.310 . S
Dy260 O276 2.351 . S
C261 O272 1.185 . S
C261 O273 1.355 . S
C262 O264 1.185 . S
C262 O265 1.355 . S
Dy263 O267 2.310 . S
Dy263 O270 2.351 . S
Dy263 O272 2.398 . S
Dy263 O273 2.491 . S
Dy263 O274 2.403 . S
Dy263 O275 2.664 . S
Dy263 O277 2.326 . S
O264 Dy260 2.398 . S
O264 C262 1.185 . S
O265 Dy260 2.491 . S
O265 C262 1.355 . S
O266 Dy260 2.403 . S
O266 C268 1.254 . S
O267 Dy260 2.664 . S
O267 Dy263 2.310 . S
O267 C268 1.268 . S
C268 O266 1.254 . S
C268 O267 1.268 . S
C269 O274 1.254 . S
C269 O275 1.268 . S
O270 Dy263 2.351 . S
O270 C278 1.249 . S
O271 Dy260 2.326 . S
O271 C278 1.267 . S
O272 C261 1.185 . S
O272 Dy263 2.398 . S
O273 C261 1.355 . S
O273 Dy263 2.491 . S
O274 Dy263 2.403 . S
O274 C269 1.254 . S
O275 Dy260 2.310 . S
O275 Dy263 2.664 . S
O275 C269 1.268 . S
O276 Dy260 2.351 . S
O276 C279 1.249 . S
O277 Dy263 2.326 . S
O277 C279 1.267 . S
C278 O270 1.249 . S
C278 O271 1.267 . S
C279 O276 1.249 . S
C279 O277 1.267 . S
Dy280 O284 2.398 . S
Dy280 O285 2.491 . S
Dy280 O286 2.403 . S
Dy280 O287 2.664 . S
Dy280 O291 2.326 . S
Dy280 O295 2.310 . S
Dy280 O296 2.351 . S
C281 O292 1.185 . S
C281 O293 1.355 . S
C282 O284 1.185 . S
C282 O285 1.355 . S
Dy283 O287 2.310 . S
Dy283 O290 2.351 . S
Dy283 O292 2.398 . S
Dy283 O293 2.491 . S
Dy283 O294 2.403 . S
Dy283 O295 2.664 . S
Dy283 O297 2.326 . S
O284 Dy280 2.398 . S
O284 C282 1.185 . S
O285 Dy280 2.491 . S
O285 C282 1.355 . S
O286 Dy280 2.403 . S
O286 C288 1.254 . S
O287 Dy280 2.664 . S
O287 Dy283 2.310 . S
O287 C288 1.268 . S
C288 O286 1.254 . S
C288 O287 1.268 . S
C289 O294 1.254 . S
C289 O295 1.268 . S
O290 Dy283 2.351 . S
O290 C298 1.249 . S
O291 Dy280 2.326 . S
O291 C298 1.267 . S
O292 C281 1.185 . S
O292 Dy283 2.398 . S
O293 C281 1.355 . S
O293 Dy283 2.491 . S
O294 Dy283 2.403 . S
O294 C289 1.254 . S
O295 Dy280 2.310 . S
O295 Dy283 2.664 . S
O295 C289 1.268 . S
O296 Dy280 2.351 . S
O296 C299 1.249 . S
O297 Dy283 2.326 . S
O297 C299 1.267 . S
C298 O290 1.249 . S
C298 O291 1.267 . S
C299 O296 1.249 . S
C299 O297 1.267 . S
Dy300 O304 2.398 . S
Dy300 O305 2.491 . S
Dy300 O306 2.403 . S
Dy300 O307 2.664 . S
Dy300 O311 2.326 . S
Dy300 O315 2.310 . S
Dy300 O316 2.351 . S
C301 O312 1.185 . S
C301 O313 1.355 . S
C302 O304 1.185 . S
C302 O305 1.355 . S
Dy303 O307 2.310 . S
Dy303 O310 2.351 . S
Dy303 O312 2.398 . S
Dy303 O313 2.491 . S
Dy303 O314 2.403 . S
Dy303 O315 2.664 . S
Dy303 O317 2.326 . S
O304 Dy300 2.398 . S
O304 C302 1.185 . S
O305 Dy300 2.491 . S
O305 C302 1.355 . S
O306 Dy300 2.403 . S
O306 C308 1.254 . S
O307 Dy300 2.664 . S
O307 Dy303 2.310 . S
O307 C308 1.268 . S
C308 O306 1.254 . S
C308 O307 1.268 . S
C309 O314 1.254 . S
C309 O315 1.268 . S
O310 Dy303 2.351 . S
O310 C318 1.249 . S
O311 Dy300 2.326 . S
O311 C318 1.267 . S
O312 C301 1.185 . S
O312 Dy303 2.398 . S
O313 C301 1.355 . S
O313 Dy303 2.491 . S
O314 Dy303 2.403 . S
O314 C309 1.254 . S
O315 Dy300 2.310 . S
O315 Dy303 2.664 . S
O315 C309 1.268 . S
O316 Dy300 2.351 . S
O316 C319 1.249 . S
O317 Dy303 2.326 . S
O317 C319 1.267 . S
C318 O310 1.249 . S
C318 O311 1.267 . S
C319 O316 1.249 . S
C319 O317 1.267 . S
Dy320 O324 2.398 . S
Dy320 O325 2.491 . S
Dy320 O326 2.403 . S
Dy320 O327 2.664 . S
Dy320 O331 2.326 . S
Dy320 O335 2.310 . S
Dy320 O336 2.351 . S
C321 O332 1.185 . S
C321 O333 1.355 . S
C322 O324 1.185 . S
C322 O325 1.355 . S
Dy323 O327 2.310 . S
Dy323 O330 2.351 . S
Dy323 O332 2.398 . S
Dy323 O333 2.491 . S
Dy323 O334 2.403 . S
Dy323 O335 2.664 . S
Dy323 O337 2.326 . S
O324 Dy320 2.398 . S
O324 C322 1.185 . S
O325 Dy320 2.491 . S
O325 C322 1.355 . S
O326 Dy320 2.403 . S
O326 C328 1.254 . S
O327 Dy320 2.664 . S
O327 Dy323 2.310 . S
O327 C328 1.268 . S
C328 O326 1.254 . S
C328 O327 1.268 . S
C329 O334 1.254 . S
C329 O335 1.268 . S
O330 Dy323 2.351 . S
O330 C338 1.249 . S
O331 Dy320 2.326 . S
O331 C338 1.267 . S
O332 C321 1.185 . S
O332 Dy323 2.398 . S
O333 C321 1.355 . S
O333 Dy323 2.491 . S
O334 Dy323 2.403 . S
O334 C329 1.254 . S
O335 Dy320 2.310 . S
O335 Dy323 2.664 . S
O335 C329 1.268 . S
O336 Dy320 2.351 . S
O336 C339 1.249 . S
O337 Dy323 2.326 . S
O337 C339 1.267 . S
C338 O330 1.249 . S
C338 O331 1.267 . S
C339 O336 1.249 . S
C339 O337 1.267 . S
Dy340 O344 2.398 . S
Dy340 O345 2.491 . S
Dy340 O346 2.403 . S
Dy340 O347 2.664 . S
Dy340 O351 2.326 . S
Dy340 O355 2.310 . S
Dy340 O356 2.351 . S
C341 O352 1.185 . S
C341 O353 1.355 . S
C342 O344 1.185 . S
C342 O345 1.355 . S
Dy343 O347 2.310 . S
Dy343 O350 2.351 . S
Dy343 O352 2.398 . S
Dy343 O353 2.491 . S
Dy343 O354 2.403 . S
Dy343 O355 2.664 . S
Dy343 O357 2.326 . S
O344 Dy340 2.398 . S
O344 C342 1.185 . S
O345 Dy340 2.491 . S
O345 C342 1.355 . S
O346 Dy340 2.403 . S
O346 C348 1.254 . S
O347 Dy340 2.664 . S
O347 Dy343 2.310 . S
O347 C348 1.268 . S
C348 O346 1.254 . S
C348 O347 1.268 . S
C349 O354 1.254 . S
C349 O355 1.268 . S
O350 Dy343 2.351 . S
O350 C358 1.249 . S
O351 Dy340 2.326 . S
O351 C358 1.267 . S
O352 C341 1.185 . S
O352 Dy343 2.398 . S
O353 C341 1.355 . S
O353 Dy343 2.491 . S
O354 Dy343 2.403 . S
O354 C349 1.254 . S
O355 Dy340 2.310 . S
O355 Dy343 2.664 . S
O355 C349 1.268 . S
O356 Dy340 2.351 . S
O356 C359 1.249 . S
O357 Dy343 2.326 . S
O357 C359 1.267 . S
C358 O350 1.249 . S
C358 O351 1.267 . S
C359 O356 1.249 . S
C359 O357 1.267 . S
Dy360 O364 2.398 . S
Dy360 O365 2.491 . S
Dy360 O366 2.403 . S
Dy360 O367 2.664 . S
Dy360 O371 2.326 . S
Dy360 O375 2.310 . S
Dy360 O376 2.351 . S
C361 O372 1.185 . S
C361 O373 1.355 . S
C362 O364 1.185 . S
C362 O365 1.355 . S
Dy363 O367 2.310 . S
Dy363 O370 2.351 . S
Dy363 O372 2.398 . S
Dy363 O373 2.491 . S
Dy363 O374 2.403 . S
Dy363 O375 2.664 . S
Dy363 O377 2.326 . S
O364 Dy360 2.398 . S
O364 C362 1.185 . S
O365 Dy360 2.491 . S
O365 C362 1.355 . S
O366 Dy360 2.403 . S
O366 C368 1.254 . S
O367 Dy360 2.664 . S
O367 Dy363 2.310 . S
O367 C368 1.268 . S
C368 O366 1.254 . S
C368 O367 1.268 . S
C369 O374 1.254 . S
C369 O375 1.268 . S
O370 Dy363 2.351 . S
O370 C378 1.249 . S
O371 Dy360 2.326 . S
O371 C378 1.267 . S
O372 C361 1.185 . S
O372 Dy363 2.398 . S
O373 C361 1.355 . S
O373 Dy363 2.491 . S
O374 Dy363 2.403 . S
O374 C369 1.254 . S
O375 Dy360 2.310 . S
O375 Dy363 2.664 . S
O375 C369 1.268 . S
O376 Dy360 2.351 . S
O376 C379 1.249 . S
O377 Dy363 2.326 . S
O377 C379 1.267 . S
C378 O370 1.249 . S
C378 O371 1.267 . S
C379 O376 1.249 . S
C379 O377 1.267 . S
Dy380 O384 2.398 . S
Dy380 O385 2.491 . S
Dy380 O386 2.403 . S
Dy380 O387 2.664 . S
Dy380 O391 2.326 . S
Dy380 O395 2.310 . S
Dy380 O396 2.351 . S
C381 O392 1.185 . S
C381 O393 1.355 . S
C382 O384 1.185 . S
C382 O385 1.355 . S
Dy383 O387 2.310 . S
Dy383 O390 2.351 . S
Dy383 O392 2.398 . S
Dy383 O393 2.491 . S
Dy383 O394 2.403 . S
Dy383 O395 2.664 . S
Dy383 O397 2.326 . S
O384 Dy380 2.398 . S
O384 C382 1.185 . S
O385 Dy380 2.491 . S
O385 C382 1.355 . S
O386 Dy380 2.403 . S
O386 C388 1.254 . S
O387 Dy380 2.664 . S
O387 Dy383 2.310 . S
O387 C388 1.268 . S
C388 O386 1.254 . S
C388 O387 1.268 . S
C389 O394 1.254 . S
C389 O395 1.268 . S
O390 Dy383 2.351 . S
O390 C398 1.249 . S
O391 Dy380 2.326 . S
O391 C398 1.267 . S
O392 C381 1.185 . S
O392 Dy383 2.398 . S
O393 C381 1.355 . S
O393 Dy383 2.491 . S
O394 Dy383 2.403 . S
O394 C389 1.254 . S
O395 Dy380 2.310 . S
O395 Dy383 2.664 . S
O395 C389 1.268 . S
O396 Dy380 2.351 . S
O396 C399 1.249 . S
O397 Dy383 2.326 . S
O397 C399 1.267 . S
C398 O390 1.249 . S
C398 O391 1.267 . S
C399 O396 1.249 . S
C399 O397 1.267 . S
Dy400 O404 2.398 . S
Dy400 O405 2.491 . S
Dy400 O406 2.403 . S
Dy400 O407 2.664 . S
Dy400 O411 2.326 . S
Dy400 O415 2.310 . S
Dy400 O416 2.351 . S
C401 O412 1.185 . S
C401 O413 1.355 . S
C402 O404 1.185 . S
C402 O405 1.355 . S
Dy403 O407 2.310 . S
Dy403 O410 2.351 . S
Dy403 O412 2.398 . S
Dy403 O413 2.491 . S
Dy403 O414 2.403 . S
Dy403 O415 2.664 . S
Dy403 O417 2.326 . S
O404 Dy400 2.398 . S
O404 C402 1.185 . S
O405 Dy400 2.491 . S
O405 C402 1.355 . S
O406 Dy400 2.403 . S
O406 C408 1.254 . S
O407 Dy400 2.664 . S
O407 Dy403 2.310 . S
O407 C408 1.268 . S
C408 O406 1.254 . S
C408 O407 1.268 . S
C409 O414 1.254 . S
C409 O415 1.268 . S
O410 Dy403 2.351 . S
O410 C418 1.249 . S
O411 Dy400 2.326 . S
O411 C418 1.267 . S
O412 C401 1.185 . S
O412 Dy403 2.398 . S
O413 C401 1.355 . S
O413 Dy403 2.491 . S
O414 Dy403 2.403 . S
O414 C409 1.254 . S
O415 Dy400 2.310 . S
O415 Dy403 2.664 . S
O415 C409 1.268 . S
O416 Dy400 2.351 . S
O416 C419 1.249 . S
O417 Dy403 2.326 . S
O417 C419 1.267 . S
C418 O410 1.249 . S
C418 O411 1.267 . S
C419 O416 1.249 . S
C419 O417 1.267 . S
Dy420 O424 2.398 . S
Dy420 O425 2.491 . S
Dy420 O426 2.403 . S
Dy420 O427 2.664 . S
Dy420 O431 2.326 . S
Dy420 O435 2.310 . S
Dy420 O436 2.351 . S
C421 O432 1.185 . S
C421 O433 1.355 . S
C422 O424 1.185 . S
C422 O425 1.355 . S
Dy423 O427 2.310 . S
Dy423 O430 2.351 . S
Dy423 O432 2.398 . S
Dy423 O433 2.491 . S
Dy423 O434 2.403 . S
Dy423 O435 2.664 . S
Dy423 O437 2.326 . S
O424 Dy420 2.398 . S
O424 C422 1.185 . S
O425 Dy420 2.491 . S
O425 C422 1.355 . S
O426 Dy420 2.403 . S
O426 C428 1.254 . S
O427 Dy420 2.664 . S
O427 Dy423 2.310 . S
O427 C428 1.268 . S
C428 O426 1.254 . S
C428 O427 1.268 . S
C429 O434 1.254 . S
C429 O435 1.268 . S
O430 Dy423 2.351 . S
O430 C438 1.249 . S
O431 Dy420 2.326 . S
O431 C438 1.267 . S
O432 C421 1.185 . S
O432 Dy423 2.398 . S
O433 C421 1.355 . S
O433 Dy423 2.491 . S
O434 Dy423 2.403 . S
O434 C429 1.254 . S
O435 Dy420 2.310 . S
O435 Dy423 2.664 . S
O435 C429 1.268 . S
O436 Dy420 2.351 . S
O436 C439 1.249 . S
O437 Dy423 2.326 . S
O437 C439 1.267 . S
C438 O430 1.249 . S
C438 O431 1.267 . S
C439 O436 1.249 . S
C439 O437 1.267 . S
Dy440 O444 2.398 . S
Dy440 O445 2.491 . S
Dy440 O446 2.403 . S
Dy440 O447 2.664 . S
Dy440 O451 2.326 . S
Dy440 O455 2.310 . S
Dy440 O456 2.351 . S
C441 O452 1.185 . S
C441 O453 1.355 . S
C442 O444 1.185 . S
C442 O445 1.355 . S
Dy443 O447 2.310 . S
Dy443 O450 2.351 . S
Dy443 O452 2.398 . S
Dy443 O453 2.491 . S
Dy443 O454 2.403 . S
Dy443 O455 2.664 . S
Dy443 O457 2.326 . S
O444 Dy440 2.398 . S
O444 C442 1.185 . S
O445 Dy440 2.491 . S
O445 C442 1.355 . S
O446 Dy440 2.403 . S
O446 C448 1.254 . S
O447 Dy440 2.664 . S
O447 Dy443 2.310 . S
O447 C448 1.268 . S
C448 O446 1.254 . S
C448 O447 1.268 . S
C449 O454 1.254 . S
C449 O455 1.268 . S
O450 Dy443 2.351 . S
O450 C458 1.249 . S
O451 Dy440 2.326 . S
O451 C458 1.267 . S
O452 C441 1.185 . S
O452 Dy443 2.398 . S
O453 C441 1.355 . S
O453 Dy443 2.491 . S
O454 Dy443 2.403 . S
O454 C449 1.254 . S
O455 Dy440 2.310 . S
O455 Dy443 2.664 . S
O455 C449 1.268 . S
O456 Dy440 2.351 . S
O456 C459 1.249 . S
O457 Dy443 2.326 . S
O457 C459 1.267 . S
C458 O450 1.249 . S
C458 O451 1.267 . S
C459 O456 1.249 . S
C459 O457 1.267 . S
Dy460 O464 2.398 . S
Dy460 O465 2.491 . S
Dy460 O466 2.403 . S
Dy460 O467 2.664 . S
Dy460 O471 2.326 . S
Dy460 O475 2.310 . S
Dy460 O476 2.351 . S
C461 O472 1.185 . S
C461 O473 1.355 . S
C462 O464 1.185 . S
C462 O465 1.355 . S
Dy463 O467 2.310 . S
Dy463 O470 2.351 . S
Dy463 O472 2.398 . S
Dy463 O473 2.491 . S
Dy463 O474 2.403 . S
Dy463 O475 2.664 . S
Dy463 O477 2.326 . S
O464 Dy460 2.398 . S
O464 C462 1.185 . S
O465 Dy460 2.491 . S
O465 C462 1.355 . S
O466 Dy460 2.403 . S
O466 C468 1.254 . S
O467 Dy460 2.664 . S
O467 Dy463 2.310 . S
O467 C468 1.268 . S
C468 O466 1.254 . S
C468 O467 1.268 . S
C469 O474 1.254 . S
C469 O475 1.268 . S
O470 Dy463 2.351 . S
O470 C478 1.249 . S
O471 Dy460 2.326 . S
O471 C478 1.267 . S
O472 C461 1.185 . S
O472 Dy463 2.398 . S
O473 C461 1.355 . S
O473 Dy463 2.491 . S
O474 Dy463 2.403 . S
O474 C469 1.254 . S
O475 Dy460 2.310 . S
O475 Dy463 2.664 . S
O475 C469 1.268 . S
O476 Dy460 2.351 . S
O476 C479 1.249 . S
O477 Dy463 2.326 . S
O477 C479 1.267 . S
C478 O470 1.249 . S
C478 O471 1.267 . S
C479 O476 1.249 . S
C479 O477 1.267 . S
Dy480 O484 2.398 . S
Dy480 O485 2.491 . S
Dy480 O486 2.403 . S
Dy480 O487 2.664 . S
Dy480 O491 2.326 . S
Dy480 O495 2.310 . S
Dy480 O496 2.351 . S
C481 O492 1.185 . S
C481 O493 1.355 . S
C482 O484 1.185 . S
C482 O485 1.355 . S
Dy483 O487 2.310 . S
Dy483 O490 2.351 . S
Dy483 O492 2.398 . S
Dy483 O493 2.491 . S
Dy483 O494 2.403 . S
Dy483 O495 2.664 . S
Dy483 O497 2.326 . S
O484 Dy480 2.398 . S
O484 C482 1.185 . S
O485 Dy480 2.491 . S
O485 C482 1.355 . S
O486 Dy480 2.403 . S
O486 C488 1.254 . S
O487 Dy480 2.664 . S
O487 Dy483 2.310 . S
O487 C488 1.268 . S
C488 O486 1.254 . S
C488 O487 1.268 . S
C489 O494 1.254 . S
C489 O495 1.268 . S
O490 Dy483 2.351 . S
O490 C498 1.249 . S
O491 Dy480 2.326 . S
O491 C498 1.267 . S
O492 C481 1.185 . S
O492 Dy483 2.398 . S
O493 C481 1.355 . S
O493 Dy483 2.491 . S
O494 Dy483 2.403 . S
O494 C489 1.254 . S
O495 Dy480 2.310 . S
O495 Dy483 2.664 . S
O495 C489 1.268 . S
O496 Dy480 2.351 . S
O496 C499 1.249 . S
O497 Dy483 2.326 . S
O497 C499 1.267 . S
C498 O490 1.249 . S
C498 O491 1.267 . S
C499 O496 1.249 . S
C499 O497 1.267 . S
Dy500 O504 2.398 . S
Dy500 O505 2.491 . S
Dy500 O506 2.403 . S
Dy500 O507 2.664 . S
Dy500 O511 2.326 . S
Dy500 O515 2.310 . S
Dy500 O516 2.351 . S
C501 O512 1.185 . S
C501 O513 1.355 . S
C502 O504 1.185 . S
C502 O505 1.355 . S
Dy503 O507 2.310 . S
Dy503 O510 2.351 . S
Dy503 O512 2.398 . S
Dy503 O513 2.491 . S
Dy503 O514 2.403 . S
Dy503 O515 2.664 . S
Dy503 O517 2.326 . S
O504 Dy500 2.398 . S
O504 C502 1.185 . S
O505 Dy500 2.491 . S
O505 C502 1.355 . S
O506 Dy500 2.403 . S
O506 C508 1.254 . S
O507 Dy500 2.664 . S
O507 Dy503 2.310 . S
O507 C508 1.268 . S
C508 O506 1.254 . S
C508 O507 1.268 . S
C509 O514 1.254 . S
C509 O515 1.268 . S
O510 Dy503 2.351 . S
O510 C518 1.249 . S
O511 Dy500 2.326 . S
O511 C518 1.267 . S
O512 C501 1.185 . S
O512 Dy503 2.398 . S
O513 C501 1.355 . S
O513 Dy503 2.491 . S
O514 Dy503 2.403 . S
O514 C509 1.254 . S
O515 Dy500 2.310 . S
O515 Dy503 2.664 . S
O515 C509 1.268 . S
O516 Dy500 2.351 . S
O516 C519 1.249 . S
O517 Dy503 2.326 . S
O517 C519 1.267 . S
C518 O510 1.249 . S
C518 O511 1.267 . S
C519 O516 1.249 . S
C519 O517 1.267 . S
Dy520 O524 2.398 . S
Dy520 O525 2.491 . S
Dy520 O526 2.403 . S
Dy520 O527 2.664 . S
Dy520 O531 2.326 . S
Dy520 O535 2.310 . S
Dy520 O536 2.351 . S
C521 O532 1.185 . S
C521 O533 1.355 . S
C522 O524 1.185 . S
C522 O525 1.355 . S
Dy523 O527 2.310 . S
Dy523 O530 2.351 . S
Dy523 O532 2.398 . S
Dy523 O533 2.491 . S
Dy523 O534 2.403 . S
Dy523 O535 2.664 . S
Dy523 O537 2.326 . S
O524 Dy520 2.398 . S
O524 C522 1.185 . S
O525 Dy520 2.491 . S
O525 C522 1.355 . S
O526 Dy520 2.403 . S
O526 C528 1.254 . S
O527 Dy520 2.664 . S
O527 Dy523 2.310 . S
O527 C528 1.268 . S
C528 O526 1.254 . S
C528 O527 1.268 . S
C529 O534 1.254 . S
C529 O535 1.268 . S
O530 Dy523 2.351 . S
O530 C538 1.249 . S
O531 Dy520 2.326 . S
O531 C538 1.267 . S
O532 C521 1.185 . S
O532 Dy523 2.398 . S
O533 C521 1.355 . S
O533 Dy523 2.491 . S
O534 Dy523 2.403 . S
O534 C529 1.254 . S
O535 Dy520 2.310 . S
O535 Dy523 2.664 . S
O535 C529 1.268 . S
O536 Dy520 2.351 . S
O536 C539 1.249 . S
O537 Dy523 2.326 . S
O537 C539 1.267 . S
C538 O530 1.249 . S
C538 O531 1.267 . S
C539 O536 1.249 . S
C539 O537 1.267 . S
Dy540 O544 2.398 . S
Dy540 O545 2.491 . S
Dy540 O546 2.403 . S
Dy540 O547 2.664 . S
Dy540 O551 2.326 . S
Dy540 O555 2.310 . S
Dy540 O556 2.351 . S
C541 O552 1.185 . S
C541 O553 1.355 . S
C542 O544 1.185 . S
C542 O545 1.355 . S
Dy543 O547 2.310 . S
Dy543 O550 2.351 . S
Dy543 O552 2.398 . S
Dy543 O553 2.491 . S
Dy543 O554 2.403 . S
Dy543 O555 2.664 . S
Dy543 O557 2.326 . S
O544 Dy540 2.398 . S
O544 C542 1.185 . S
O545 Dy540 2.491 . S
O545 C542 1.355 . S
O546 Dy540 2.403 . S
O546 C548 1.254 . S
O547 Dy540 2.664 . S
O547 Dy543 2.310 . S
O547 C548 1.268 . S
C548 O546 1.254 . S
C548 O547 1.268 . S
C549 O554 1.254 . S
C549 O555 1.268 . S
O550 Dy543 2.351 . S
O550 C558 1.249 . S
O551 Dy540 2.326 . S
O551 C558 1.267 . S
O552 C541 1.185 . S
O552 Dy543 2.398 . S
O553 C541 1.355 . S
O553 Dy543 2.491 . S
O554 Dy543 2.403 . S
O554 C549 1.254 . S
O555 Dy540 2.310 . S
O555 Dy543 2.664 . S
O555 C549 1.268 . S
O556 Dy540 2.351 . S
O556 C559 1.249 . S
O557 Dy543 2.326 . S
O557 C559 1.267 . S
C558 O550 1.249 . S
C558 O551 1.267 . S
C559 O556 1.249 . S
C559 O557 1.267 . S
Dy560 O564 2.398 . S
Dy560 O565 2.491 . S
Dy560 O566 2.403 . S
Dy560 O567 2.664 . S
Dy560 O571 2.326 . S
Dy560 O575 2.310 . S
Dy560 O576 2.351 . S
C561 O572 1.185 . S
C561 O573 1.355 . S
C562 O564 1.185 . S
C562 O565 1.355 . S
Dy563 O567 2.310 . S
Dy563 O570 2.351 . S
Dy563 O572 2.398 . S
Dy563 O573 2.491 . S
Dy563 O574 2.403 . S
Dy563 O575 2.664 . S
Dy563 O577 2.326 . S
O564 Dy560 2.398 . S
O564 C562 1.185 . S
O565 Dy560 2.491 . S
O565 C562 1.355 . S
O566 Dy560 2.403 . S
O566 C568 1.254 . S
O567 Dy560 2.664 . S
O567 Dy563 2.310 . S
O567 C568 1.268 . S
C568 O566 1.254 . S
C568 O567 1.268 . S
C569 O574 1.254 . S
C569 O575 1.268 . S
O570 Dy563 2.351 . S
O570 C578 1.249 . S
O571 Dy560 2.326 . S
O571 C578 1.267 . S
O572 C561 1.185 . S
O572 Dy563 2.398 . S
O573 C561 1.355 . S
O573 Dy563 2.491 . S
O574 Dy563 2.403 . S
O574 C569 1.254 . S
O575 Dy560 2.310 . S
O575 Dy563 2.664 . S
O575 C569 1.268 . S
O576 Dy560 2.351 . S
O576 C579 1.249 . S
O577 Dy563 2.326 . S
O577 C579 1.267 . S
C578 O570 1.249 . S
C578 O571 1.267 . S
C579 O576 1.249 . S
C579 O577 1.267 . S
Dy580 O584 2.398 . S
Dy580 O585 2.491 . S
Dy580 O586 2.403 . S
Dy580 O587 2.664 . S
Dy580 O591 2.326 . S
Dy580 O595 2.310 . S
Dy580 O596 2.351 . S
C581 O592 1.185 . S
C581 O593 1.355 . S
C582 O584 1.185 . S
C582 O585 1.355 . S
Dy583 O587 2.310 . S
Dy583 O590 2.351 . S
Dy583 O592 2.398 . S
Dy583 O593 2.491 . S
Dy583 O594 2.403 . S
Dy583 O595 2.664 . S
Dy583 O597 2.326 . S
O584 Dy580 2.398 . S
O584 C582 1.185 . S
O585 Dy580 2.491 . S
O585 C582 1.355 . S
O586 Dy580 2.403 . S
O586 C588 1.254 . S
O587 Dy580 2.664 . S
O587 Dy583 2.310 . S
O587 C588 1.268 . S
C588 O586 1.254 . S
C588 O587 1.268 . S
C589 O594 1.254 . S
C589 O595 1.268 . S
O590 Dy583 2.351 . S
O590 C598 1.249 . S
O591 Dy580 2.326 . S
O591 C598 1.267 . S
O592 C581 1.185 . S
O592 Dy583 2.398 . S
O593 C581 1.355 . S
O593 Dy583 2.491 . S
O594 Dy583 2.403 . S
O594 C589 1.254 . S
O595 Dy580 2.310 . S
O595 Dy583 2.664 . S
O595 C589 1.268 . S
O596 Dy580 2.351 . S
O596 C599 1.249 . S
O597 Dy583 2.326 . S
O597 C599 1.267 . S
C598 O590 1.249 . S
C598 O591 1.267 . S
C599 O596 1.249 . S
C599 O597 1.267 . S
Dy600 O604 2.398 . S
Dy600 O605 2.491 . S
Dy600 O606 2.403 . S
Dy600 O607 2.664 . S
Dy600 O611 2.326 . S
Dy600 O615 2.310 . S
Dy600 O616 2.351 . S
C601 O612 1.185 . S
C601 O613 1.355 . S
C602 O604 1.185 . S
C602 O605 1.355 . S
Dy603 O607 2.310 . S
Dy603 O610 2.351 . S
Dy603 O612 2.398 . S
Dy603 O613 2.491 . S
Dy603 O614 2.403 . S
Dy603 O615 2.664 . S
Dy603 O617 2.326 . S
O604 Dy600 2.398 . S
O604 C602 1.185 . S
O605 Dy600 2.491 . S
O605 C602 1.355 . S
O606 Dy600 2.403 . S
O606 C608 1.254 . S
O607 Dy600 2.664 . S
O607 Dy603 2.310 . S
O607 C608 1.268 . S
C608 O606 1.254 . S
C608 O607 1.268 . S
C609 O614 1.254 . S
C609 O615 1.268 . S
O610 Dy603 2.351 . S
O610 C618 1.249 . S
O611 Dy600 2.326 . S
O611 C618 1.267 . S
O612 C601 1.185 . S
O612 Dy603 2.398 . S
O613 C601 1.355 . S
O613 Dy603 2.491 . S
O614 Dy603 2.403 . S
O614 C609 1.254 . S
O615 Dy600 2.310 . S
O615 Dy603 2.664 . S
O615 C609 1.268 . S
O616 Dy600 2.351 . S
O616 C619 1.249 . S
O617 Dy603 2.326 . S
O617 C619 1.267 . S
C618 O610 1.249 . S
C618 O611 1.267 . S
C619 O616 1.249 . S
C619 O617 1.267 . S
Dy620 O624 2.398 . S
Dy620 O625 2.491 . S
Dy620 O626 2.403 . S
Dy620 O627 2.664 . S
Dy620 O631 2.326 . S
Dy620 O635 2.310 . S
Dy620 O636 2.351 . S
C621 O632 1.185 . S
C621 O633 1.355 . S
C622 O624 1.185 . S
C622 O625 1.355 . S
Dy623 O627 2.310 . S
Dy623 O630 2.351 . S
Dy623 O632 2.398 . S
Dy623 O633 2.491 . S
Dy623 O634 2.403 . S
Dy623 O635 2.664 . S
Dy623 O637 2.326 . S
O624 Dy620 2.398 . S
O624 C622 1.185 . S
O625 Dy620 2.491 . S
O625 C622 1.355 . S
O626 Dy620 2.403 . S
O626 C628 1.254 . S
O627 Dy620 2.664 . S
O627 Dy623 2.310 . S
O627 C628 1.268 . S
C628 O626 1.254 . S
C628 O627 1.268 . S
C629 O634 1.254 . S
C629 O635 1.268 . S
O630 Dy623 2.351 . S
O630 C638 1.249 . S
O631 Dy620 2.326 . S
O631 C638 1.267 . S
O632 C621 1.185 . S
O632 Dy623 2.398 . S
O633 C621 1.355 . S
O633 Dy623 2.491 . S
O634 Dy623 2.403 . S
O634 C629 1.254 . S
O635 Dy620 2.310 . S
O635 Dy623 2.664 . S
O635 C629 1.268 . S
O636 Dy620 2.351 . S
O636 C639 1.249 . S
O637 Dy623 2.326 . S
O637 C639 1.267 . S
C638 O630 1.249 . S
C638 O631 1.267 . S
C639 O636 1.249 . S
C639 O637 1.267 . S
Dy640 O644 2.398 . S
Dy640 O645 2.491 . S
Dy640 O646 2.403 . S
Dy640 O647 2.664 . S
Dy640 O651 2.326 . S
Dy640 O655 2.310 . S
Dy640 O656 2.351 . S
C641 O652 1.185 . S
C641 O653 1.355 . S
C642 O644 1.185 . S
C642 O645 1.355 . S
Dy643 O647 2.310 . S
Dy643 O650 2.351 . S
Dy643 O652 2.398 . S
Dy643 O653 2.491 . S
Dy643 O654 2.403 . S
Dy643 O655 2.664 . S
Dy643 O657 2.326 . S
O644 Dy640 2.398 . S
O644 C642 1.185 . S
O645 Dy640 2.491 . S
O645 C642 1.355 . S
O646 Dy640 2.403 . S
O646 C648 1.254 . S
O647 Dy640 2.664 . S
O647 Dy643 2.310 . S
O647 C648 1.268 . S
C648 O646 1.254 . S
C648 O647 1.268 . S
C649 O654 1.254 . S
C649 O655 1.268 . S
O650 Dy643 2.351 . S
O650 C658 1.249 . S
O651 Dy640 2.326 . S
O651 C658 1.267 . S
O652 C641 1.185 . S
O652 Dy643 2.398 . S
O653 C641 1.355 . S
O653 Dy643 2.491 . S
O654 Dy643 2.403 . S
O654 C649 1.254 . S
O655 Dy640 2.310 . S
O655 Dy643 2.664 . S
O655 C649 1.268 . S
O656 Dy640 2.351 . S
O656 C659 1.249 . S
O657 Dy643 2.326 . S
O657 C659 1.267 . S
C658 O650 1.249 . S
C658 O651 1.267 . S
C659 O656 1.249 . S
C659 O657 1.267 . S
Dy660 O664 2.398 . S
Dy660 O665 2.491 . S
Dy660 O666 2.403 . S
Dy660 O667 2.664 . S
Dy660 O671 2.326 . S
Dy660 O675 2.310 . S
Dy660 O676 2.351 . S
C661 O672 1.185 . S
C661 O673 1.355 . S
C662 O664 1.185 . S
C662 O665 1.355 . S
Dy663 O667 2.310 . S
Dy663 O670 2.351 . S
Dy663 O672 2.398 . S
Dy663 O673 2.491 . S
Dy663 O674 2.403 . S
Dy663 O675 2.664 . S
Dy663 O677 2.326 . S
O664 Dy660 2.398 . S
O664 C662 1.185 . S
O665 Dy660 2.491 . S
O665 C662 1.355 . S
O666 Dy660 2.403 . S
O666 C668 1.254 . S
O667 Dy660 2.664 . S
O667 Dy663 2.310 . S
O667 C668 1.268 . S
C668 O666 1.254 . S
C668 O667 1.268 . S
C669 O674 1.254 . S
C669 O675 1.268 . S
O670 Dy663 2.351 . S
O670 C678 1.249 . S
O671 Dy660 2.326 . S
O671 C678 1.267 . S
O672 C661 1.185 . S
O672 Dy663 2.398 . S
O673 C661 1.355 . S
O673 Dy663 2.491 . S
O674 Dy663 2.403 . S
O674 C669 1.254 . S
O675 Dy660 2.310 . S
O675 Dy663 2.664 . S
O675 C669 1.268 . S
O676 Dy660 2.351 . S
O676 C679 1.249 . S
O677 Dy663 2.326 . S
O677 C679 1.267 . S
C678 O670 1.249 . S
C678 O671 1.267 . S
C679 O676 1.249 . S
C679 O677 1.267 . S
Dy680 O684 2.398 . S
Dy680 O685 2.491 . S
Dy680 O686 2.403 . S
Dy680 O687 2.664 . S
Dy680 O691 2.326 . S
Dy680 O695 2.310 . S
Dy680 O696 2.351 . S
C681 O692 1.185 . S
C681 O693 1.355 . S
C682 O684 1.185 . S
C682 O685 1.355 . S
Dy683 O687 2.310 . S
Dy683 O690 2.351 . S
Dy683 O692 2.398 . S
Dy683 O693 2.491 . S
Dy683 O694 2.403 . S
Dy683 O695 2.664 . S
Dy683 O697 2.326 . S
O684 Dy680 2.398 . S
O684 C682 1.185 . S
O685 Dy680 2.491 . S
O685 C682 1.355 . S
O686 Dy680 2.403 . S
O686 C688 1.254 . S
O687 Dy680 2.664 . S
O687 Dy683 2.310 . S
O687 C688 1.268 . S
C688 O686 1.254 . S
C688 O687 1.268 . S
C689 O694 1.254 . S
C689 O695 1.268 . S
O690 Dy683 2.351 . S
O690 C698 1.249 . S
O691 Dy680 2.326 . S
O691 C698 1.267 . S
O692 C681 1.185 . S
O692 Dy683 2.398 . S
O693 C681 1.355 . S
O693 Dy683 2.491 . S
O694 Dy683 2.403 . S
O694 C689 1.254 . S
O695 Dy680 2.310 . S
O695 Dy683 2.664 . S
O695 C689 1.268 . S
O696 Dy680 2.351 . S
O696 C699 1.249 . S
O697 Dy683 2.326 . S
O697 C699 1.267 . S
C698 O690 1.249 . S
C698 O691 1.267 . S
C699 O696 1.249 . S
C699 O697 1.267 . S
Dy700 O704 2.398 . S
Dy700 O705 2.491 . S
Dy700 O706 2.403 . S
Dy700 O707 2.664 . S
Dy700 O711 2.326 . S
Dy700 O715 2.310 . S
Dy700 O716 2.351 . S
C701 O712 1.185 . S
C701 O713 1.355 . S
C702 O704 1.185 . S
C702 O705 1.355 . S
Dy703 O707 2.310 . S
Dy703 O710 2.351 . S
Dy703 O712 2.398 . S
Dy703 O713 2.491 . S
Dy703 O714 2.403 . S
Dy703 O715 2.664 . S
Dy703 O717 2.326 . S
O704 Dy700 2.398 . S
O704 C702 1.185 . S
O705 Dy700 2.491 . S
O705 C702 1.355 . S
O706 Dy700 2.403 . S
O706 C708 1.254 . S
O707 Dy700 2.664 . S
O707 Dy703 2.310 . S
O707 C708 1.268 . S
C708 O706 1.254 . S
C708 O707 1.268 . S
C709 O714 1.254 . S
C709 O715 1.268 . S
O710 Dy703 2.351 . S
O710 C718 1.249 . S
O711 Dy700 2.326 . S
O711 C718 1.267 . S
O712 C701 1.185 . S
O712 Dy703 2.398 . S
O713 C701 1.355 . S
O713 Dy703 2.491 . S
O714 Dy703 2.403 . S
O714 C709 1.254 . S
O715 Dy700 2.310 . S
O715 Dy703 2.664 . S
O715 C709 1.268 . S
O716 Dy700 2.351 . S
O716 C719 1.249 . S
O717 Dy703 2.326 . S
O717 C719 1.267 . S
C718 O710 1.249 . S
C718 O711 1.267 . S
C719 O716 1.249 . S
C719 O717 1.267 . S
C720 C721 1.387 . S
C720 H724 0.950 1_554 S
C720 C729 1.390 1_554 S
C721 C720 1.387 . S
C721 C723 1.387 . S
H722 C729 0.950 . S
C723 C721 1.387 . S
C723 C725 1.390 . S
C723 H727 0.950 . S
H724 C720 0.950 1_556 S
C725 C723 1.390 . S
C725 C726 1.387 1_554 S
C725 H728 0.950 . S
C726 C725 1.387 1_556 S
C726 C729 1.387 . S
H727 C723 0.950 . S
H728 C725 0.950 . S
C729 C720 1.390 1_556 S
C729 H722 0.950 . S
C729 C726 1.387 . S
C730 C731 1.387 1_554 S
C730 H734 0.950 . S
C730 C739 1.390 . S
C731 C730 1.387 1_556 S
C731 C733 1.387 . S
H732 C739 0.950 . S
C733 C731 1.387 . S
C733 C735 1.390 . S
C733 H737 0.950 . S
H734 C730 0.950 . S
C735 C733 1.390 . S
C735 C736 1.387 1_556 S
C735 H738 0.950 . S
C736 C735 1.387 1_554 S
C736 C739 1.387 . S
H737 C733 0.950 . S
H738 C735 0.950 . S
C739 C730 1.390 . S
C739 H732 0.950 . S
C739 C736 1.387 . S
C740 C741 1.387 1_554 S
C740 H744 0.950 1_554 S
C740 C749 1.390 . S
C741 C740 1.387 1_556 S
C741 C743 1.387 1_556 S
H742 C749 0.950 . S
C743 C741 1.387 1_554 S
C743 C745 1.390 . S
C743 H747 0.950 . S
H744 C740 0.950 1_556 S
C745 C743 1.390 . S
C745 C746 1.387 . S
C745 H748 0.950 . S
C746 C745 1.387 . S
C746 C749 1.387 . S
H747 C743 0.950 . S
H748 C745 0.950 . S
C749 C740 1.390 . S
C749 H742 0.950 . S
C749 C746 1.387 . S
C750 C751 1.387 . S
C750 H754 0.950 . S
C750 C759 1.390 . S
C751 C750 1.387 . S
C751 C753 1.387 . S
H752 C759 0.950 . S
C753 C751 1.387 . S
C753 C755 1.390 . S
C753 H757 0.950 . S
H754 C750 0.950 . S
C755 C753 1.390 . S
C755 C756 1.387 . S
C755 H758 0.950 . S
C756 C755 1.387 . S
C756 C759 1.387 . S
H757 C753 0.950 . S
H758 C755 0.950 . S
C759 C750 1.390 . S
C759 H752 0.950 . S
C759 C756 1.387 . S
C760 C761 1.387 . S
C760 H764 0.950 . S
C760 C769 1.390 . S
C761 C760 1.387 . S
C761 C763 1.387 . S
H762 C769 0.950 . S
C763 C761 1.387 . S
C763 C765 1.390 . S
C763 H767 0.950 . S
H764 C760 0.950 . S
C765 C763 1.390 . S
C765 C766 1.387 . S
C765 H768 0.950 . S
C766 C765 1.387 . S
C766 C769 1.387 . S
H767 C763 0.950 . S
H768 C765 0.950 . S
C769 C760 1.390 . S
C769 H762 0.950 . S
C769 C766 1.387 . S
C770 C771 1.387 . S
C770 H774 0.950 . S
C770 C779 1.390 . S
C771 C770 1.387 . S
C771 C773 1.387 . S
H772 C779 0.950 . S
C773 C771 1.387 . S
C773 C775 1.390 . S
C773 H777 0.950 . S
H774 C770 0.950 . S
C775 C773 1.390 . S
C775 C776 1.387 . S
C775 H778 0.950 . S
C776 C775 1.387 . S
C776 C779 1.387 . S
H777 C773 0.950 . S
H778 C775 0.950 . S
C779 C770 1.390 . S
C779 H772 0.950 . S
C779 C776 1.387 . S
C780 C781 1.387 . S
C780 H784 0.950 . S
C780 C789 1.390 1_554 S
C781 C780 1.387 . S
C781 C783 1.387 1_554 S
H782 C789 0.950 1_554 S
C783 C781 1.387 1_556 S
C783 C785 1.390 . S
C783 H787 0.950 . S
H784 C780 0.950 . S
C785 C783 1.390 . S
C785 C786 1.387 . S
C785 H788 0.950 . S
C786 C785 1.387 . S
C786 C789 1.387 . S
H787 C783 0.950 . S
H788 C785 0.950 . S
C789 C780 1.390 1_556 S
C789 H782 0.950 1_556 S
C789 C786 1.387 . S
C790 C791 1.387 . S
C790 H794 0.950 . S
C790 C799 1.390 . S
C791 C790 1.387 . S
C791 C793 1.387 1_556 S
H792 C799 0.950 . S
C793 C791 1.387 1_554 S
C793 C795 1.390 . S
C793 H797 0.950 . S
H794 C790 0.950 . S
C795 C793 1.390 . S
C795 C796 1.387 . S
C795 H798 0.950 . S
C796 C795 1.387 . S
C796 C799 1.387 1_554 S
H797 C793 0.950 . S
H798 C795 0.950 . S
C799 C790 1.390 . S
C799 H792 0.950 . S
C799 C796 1.387 1_556 S
C800 C801 1.387 1_556 S
C800 H804 0.950 . S
C800 C809 1.390 . S
C801 C800 1.387 1_554 S
C801 C803 1.387 1_554 S
H802 C809 0.950 . S
C803 C801 1.387 1_556 S
C803 C805 1.390 . S
C803 H807 0.950 1_556 S
H804 C800 0.950 . S
C805 C803 1.390 . S
C805 C806 1.387 . S
C805 H808 0.950 . S
C806 C805 1.387 . S
C806 C809 1.387 . S
H807 C803 0.950 1_554 S
H808 C805 0.950 . S
C809 C800 1.390 . S
C809 H802 0.950 . S
C809 C806 1.387 . S
C810 C811 1.387 . S
C810 H814 0.950 . S
C810 C819 1.390 . S
C811 C810 1.387 . S
C811 C813 1.387 . S
H812 C819 0.950 . S
C813 C811 1.387 . S
C813 C815 1.390 . S
C813 H817 0.950 . S
H814 C810 0.950 . S
C815 C813 1.390 . S
C815 C816 1.387 . S
C815 H818 0.950 . S
C816 C815 1.387 . S
C816 C819 1.387 . S
H817 C813 0.950 . S
H818 C815 0.950 . S
C819 C810 1.390 . S
C819 H812 0.950 . S
C819 C816 1.387 . S
C820 C821 1.387 . S
C820 H824 0.950 . S
C820 C829 1.390 . S
C821 C820 1.387 . S
C821 C823 1.387 . S
H822 C829 0.950 . S
C823 C821 1.387 . S
C823 C825 1.390 . S
C823 H827 0.950 . S
H824 C820 0.950 . S
C825 C823 1.390 . S
C825 C826 1.387 . S
C825 H828 0.950 . S
C826 C825 1.387 . S
C826 C829 1.387 . S
H827 C823 0.950 . S
H828 C825 0.950 . S
C829 C820 1.390 . S
C829 H822 0.950 . S
C829 C826 1.387 . S
C830 C831 1.387 . S
C830 H834 0.950 . S
C830 C839 1.390 . S
C831 C830 1.387 . S
C831 C833 1.387 . S
H832 C839 0.950 . S
C833 C831 1.387 . S
C833 C835 1.390 . S
C833 H837 0.950 . S
H834 C830 0.950 . S
C835 C833 1.390 . S
C835 C836 1.387 . S
C835 H838 0.950 . S
C836 C835 1.387 . S
C836 C839 1.387 . S
H837 C833 0.950 . S
H838 C835 0.950 . S
C839 C830 1.390 . S
C839 H832 0.950 . S
C839 C836 1.387 . S
C840 C841 1.387 . S
C840 H844 0.950 . S
C840 C849 1.390 . S
C841 C840 1.387 . S
C841 C843 1.387 . S
H842 C849 0.950 . S
C843 C841 1.387 . S
C843 C845 1.390 . S
C843 H847 0.950 . S
H844 C840 0.950 . S
C845 C843 1.390 . S
C845 C846 1.387 . S
C845 H848 0.950 . S
C846 C845 1.387 . S
C846 C849 1.387 . S
H847 C843 0.950 . S
H848 C845 0.950 . S
C849 C840 1.390 . S
C849 H842 0.950 . S
C849 C846 1.387 . S
C850 C851 1.387 . S
C850 H854 0.950 . S
C850 C859 1.390 . S
C851 C850 1.387 . S
C851 C853 1.387 . S
H852 C859 0.950 . S
C853 C851 1.387 . S
C853 C855 1.390 . S
C853 H857 0.950 . S
H854 C850 0.950 . S
C855 C853 1.390 . S
C855 C856 1.387 . S
C855 H858 0.950 . S
C856 C855 1.387 . S
C856 C859 1.387 . S
H857 C853 0.950 . S
H858 C855 0.950 . S
C859 C850 1.390 . S
C859 H852 0.950 . S
C859 C856 1.387 . S
C860 C861 1.387 . S
C860 H864 0.950 . S
C860 C869 1.390 . S
C861 C860 1.387 . S
C861 C863 1.387 . S
H862 C869 0.950 . S
C863 C861 1.387 . S
C863 C865 1.390 . S
C863 H867 0.950 . S
H864 C860 0.950 . S
C865 C863 1.390 . S
C865 C866 1.387 . S
C865 H868 0.950 . S
C866 C865 1.387 . S
C866 C869 1.387 . S
H867 C863 0.950 . S
H868 C865 0.950 . S
C869 C860 1.390 . S
C869 H862 0.950 . S
C869 C866 1.387 . S
C870 C871 1.387 . S
C870 H874 0.950 . S
C870 C879 1.390 . S
C871 C870 1.387 . S
C871 C873 1.387 . S
H872 C879 0.950 . S
C873 C871 1.387 . S
C873 C875 1.390 . S
C873 H877 0.950 . S
H874 C870 0.950 . S
C875 C873 1.390 . S
C875 C876 1.387 . S
C875 H878 0.950 . S
C876 C875 1.387 . S
C876 C879 1.387 . S
H877 C873 0.950 . S
H878 C875 0.950 . S
C879 C870 1.390 . S
C879 H872 0.950 . S
C879 C876 1.387 . S
C880 C881 1.387 . S
C880 H884 0.950 . S
C880 C889 1.390 . S
C881 C880 1.387 . S
C881 C883 1.387 . S
H882 C889 0.950 . S
C883 C881 1.387 . S
C883 C885 1.390 . S
C883 H887 0.950 . S
H884 C880 0.950 . S
C885 C883 1.390 . S
C885 C886 1.387 . S
C885 H888 0.950 . S
C886 C885 1.387 . S
C886 C889 1.387 . S
H887 C883 0.950 . S
H888 C885 0.950 . S
C889 C880 1.390 . S
C889 H882 0.950 . S
C889 C886 1.387 . S
C890 C891 1.387 . S
C890 H894 0.950 . S
C890 C899 1.390 . S
C891 C890 1.387 . S
C891 C893 1.387 . S
H892 C899 0.950 . S
C893 C891 1.387 . S
C893 C895 1.390 . S
C893 H897 0.950 . S
H894 C890 0.950 . S
C895 C893 1.390 . S
C895 C896 1.387 . S
C895 H898 0.950 . S
C896 C895 1.387 . S
C896 C899 1.387 . S
H897 C893 0.950 . S
H898 C895 0.950 . S
C899 C890 1.390 . S
C899 H892 0.950 . S
C899 C896 1.387 . S
C900 C901 1.387 . S
C900 H904 0.950 . S
C900 C909 1.390 . S
C901 C900 1.387 . S
C901 C903 1.387 . S
H902 C909 0.950 . S
C903 C901 1.387 . S
C903 C905 1.390 . S
C903 H907 0.950 . S
H904 C900 0.950 . S
C905 C903 1.390 . S
C905 C906 1.387 . S
C905 H908 0.950 . S
C906 C905 1.387 . S
C906 C909 1.387 . S
H907 C903 0.950 . S
H908 C905 0.950 . S
C909 C900 1.390 . S
C909 H902 0.950 . S
C909 C906 1.387 . S
C910 C911 1.387 . S
C910 H914 0.950 . S
C910 C919 1.390 . S
C911 C910 1.387 . S
C911 C913 1.387 . S
H912 C919 0.950 . S
C913 C911 1.387 . S
C913 C915 1.390 . S
C913 H917 0.950 . S
H914 C910 0.950 . S
C915 C913 1.390 . S
C915 C916 1.387 . S
C915 H918 0.950 . S
C916 C915 1.387 . S
C916 C919 1.387 . S
H917 C913 0.950 . S
H918 C915 0.950 . S
C919 C910 1.390 . S
C919 H912 0.950 . S
C919 C916 1.387 . S
C920 C921 1.387 . S
C920 H924 0.950 . S
C920 C929 1.390 . S
C921 C920 1.387 . S
C921 C923 1.387 . S
H922 C929 0.950 . S
C923 C921 1.387 . S
C923 C925 1.390 . S
C923 H927 0.950 . S
H924 C920 0.950 . S
C925 C923 1.390 . S
C925 C926 1.387 . S
C925 H928 0.950 . S
C926 C925 1.387 . S
C926 C929 1.387 . S
H927 C923 0.950 . S
H928 C925 0.950 . S
C929 C920 1.390 . S
C929 H922 0.950 . S
C929 C926 1.387 . S
C930 C931 1.387 . S
C930 H934 0.950 . S
C930 C939 1.390 . S
C931 C930 1.387 . S
C931 C933 1.387 . S
H932 C939 0.950 . S
C933 C931 1.387 . S
C933 C935 1.390 . S
C933 H937 0.950 . S
H934 C930 0.950 . S
C935 C933 1.390 . S
C935 C936 1.387 . S
C935 H938 0.950 . S
C936 C935 1.387 . S
C936 C939 1.387 . S
H937 C933 0.950 . S
H938 C935 0.950 . S
C939 C930 1.390 . S
C939 H932 0.950 . S
C939 C936 1.387 . S
C940 C941 1.387 . S
C940 H944 0.950 . S
C940 C949 1.390 . S
C941 C940 1.387 . S
C941 C943 1.387 . S
H942 C949 0.950 . S
C943 C941 1.387 . S
C943 C945 1.390 . S
C943 H947 0.950 . S
H944 C940 0.950 . S
C945 C943 1.390 . S
C945 C946 1.387 . S
C945 H948 0.950 . S
C946 C945 1.387 . S
C946 C949 1.387 . S
H947 C943 0.950 . S
H948 C945 0.950 . S
C949 C940 1.390 . S
C949 H942 0.950 . S
C949 C946 1.387 . S
C950 C951 1.387 . S
C950 H954 0.950 . S
C950 C959 1.390 . S
C951 C950 1.387 . S
C951 C953 1.387 . S
H952 C959 0.950 . S
C953 C951 1.387 . S
C953 C955 1.390 . S
C953 H957 0.950 . S
H954 C950 0.950 . S
C955 C953 1.390 . S
C955 C956 1.387 . S
C955 H958 0.950 . S
C956 C955 1.387 . S
C956 C959 1.387 . S
H957 C953 0.950 . S
H958 C955 0.950 . S
C959 C950 1.390 . S
C959 H952 0.950 . S
C959 C956 1.387 . S
C960 C961 1.387 . S
C960 H964 0.950 . S
C960 C969 1.390 . S
C961 C960 1.387 . S
C961 C963 1.387 . S
H962 C969 0.950 . S
C963 C961 1.387 . S
C963 C965 1.390 . S
C963 H967 0.950 . S
H964 C960 0.950 . S
C965 C963 1.390 . S
C965 C966 1.387 . S
C965 H968 0.950 . S
C966 C965 1.387 . S
C966 C969 1.387 . S
H967 C963 0.950 . S
H968 C965 0.950 . S
C969 C960 1.390 . S
C969 H962 0.950 . S
C969 C966 1.387 . S
C970 C971 1.387 . S
C970 H974 0.950 . S
C970 C979 1.390 . S
C971 C970 1.387 . S
C971 C973 1.387 . S
H972 C979 0.950 . S
C973 C971 1.387 . S
C973 C975 1.390 . S
C973 H977 0.950 . S
H974 C970 0.950 . S
C975 C973 1.390 . S
C975 C976 1.387 . S
C975 H978 0.950 . S
C976 C975 1.387 . S
C976 C979 1.387 . S
H977 C973 0.950 . S
H978 C975 0.950 . S
C979 C970 1.390 . S
C979 H972 0.950 . S
C979 C976 1.387 . S
C980 C981 1.387 . S
C980 H984 0.950 . S
C980 C989 1.390 . S
C981 C980 1.387 . S
C981 C983 1.387 . S
H982 C989 0.950 . S
C983 C981 1.387 . S
C983 C985 1.390 . S
C983 H987 0.950 . S
H984 C980 0.950 . S
C985 C983 1.390 . S
C985 C986 1.387 . S
C985 H988 0.950 . S
C986 C985 1.387 . S
C986 C989 1.387 . S
H987 C983 0.950 . S
H988 C985 0.950 . S
C989 C980 1.390 . S
C989 H982 0.950 . S
C989 C986 1.387 . S
C990 C991 1.387 . S
C990 H994 0.950 . S
C990 C999 1.390 . S
C991 C990 1.387 . S
C991 C993 1.387 . S
H992 C999 0.950 . S
C993 C991 1.387 . S
C993 C995 1.390 . S
C993 H997 0.950 . S
H994 C990 0.950 . S
C995 C993 1.390 . S
C995 C996 1.387 . S
C995 H998 0.950 . S
C996 C995 1.387 . S
C996 C999 1.387 . S
H997 C993 0.950 . S
H998 C995 0.950 . S
C999 C990 1.390 . S
C999 H992 0.950 . S
C999 C996 1.387 . S
C1000 C1001 1.387 . S
C1000 H1004 0.950 . S
C1000 C1009 1.390 . S
C1001 C1000 1.387 . S
C1001 C1003 1.387 . S
H1002 C1009 0.950 . S
C1003 C1001 1.387 . S
C1003 C1005 1.390 . S
C1003 H1007 0.950 . S
H1004 C1000 0.950 . S
C1005 C1003 1.390 . S
C1005 C1006 1.387 . S
C1005 H1008 0.950 . S
C1006 C1005 1.387 . S
C1006 C1009 1.387 . S
H1007 C1003 0.950 . S
H1008 C1005 0.950 . S
C1009 C1000 1.390 . S
C1009 H1002 0.950 . S
C1009 C1006 1.387 . S
C1010 C1011 1.387 . S
C1010 H1014 0.950 . S
C1010 C1019 1.390 . S
C1011 C1010 1.387 . S
C1011 C1013 1.387 . S
H1012 C1019 0.950 . S
C1013 C1011 1.387 . S
C1013 C1015 1.390 . S
C1013 H1017 0.950 . S
H1014 C1010 0.950 . S
C1015 C1013 1.390 . S
C1015 C1016 1.387 . S
C1015 H1018 0.950 . S
C1016 C1015 1.387 . S
C1016 C1019 1.387 . S
H1017 C1013 0.950 . S
H1018 C1015 0.950 . S
C1019 C1010 1.390 . S
C1019 H1012 0.950 . S
C1019 C1016 1.387 . S
C1020 C1021 1.387 . S
C1020 H1024 0.950 . S
C1020 C1029 1.390 . S
C1021 C1020 1.387 . S
C1021 C1023 1.387 . S
H1022 C1029 0.950 . S
C1023 C1021 1.387 . S
C1023 C1025 1.390 . S
C1023 H1027 0.950 . S
H1024 C1020 0.950 . S
C1025 C1023 1.390 . S
C1025 C1026 1.387 . S
C1025 H1028 0.950 . S
C1026 C1025 1.387 . S
C1026 C1029 1.387 . S
H1027 C1023 0.950 . S
H1028 C1025 0.950 . S
C1029 C1020 1.390 . S
C1029 H1022 0.950 . S
C1029 C1026 1.387 . S
C1030 C1031 1.387 . S
C1030 H1034 0.950 . S
C1030 C1039 1.390 . S
C1031 C1030 1.387 . S
C1031 C1033 1.387 . S
H1032 C1039 0.950 . S
C1033 C1031 1.387 . S
C1033 C1035 1.390 . S
C1033 H1037 0.950 . S
H1034 C1030 0.950 . S
C1035 C1033 1.390 . S
C1035 C1036 1.387 . S
C1035 H1038 0.950 . S
C1036 C1035 1.387 . S
C1036 C1039 1.387 . S
H1037 C1033 0.950 . S
H1038 C1035 0.950 . S
C1039 C1030 1.390 . S
C1039 H1032 0.950 . S
C1039 C1036 1.387 . S
C1040 C1041 1.387 . S
C1040 H1044 0.950 . S
C1040 C1049 1.390 . S
C1041 C1040 1.387 . S
C1041 C1043 1.387 . S
H1042 C1049 0.950 . S
C1043 C1041 1.387 . S
C1043 C1045 1.390 . S
C1043 H1047 0.950 . S
H1044 C1040 0.950 . S
C1045 C1043 1.390 . S
C1045 C1046 1.387 . S
C1045 H1048 0.950 . S
C1046 C1045 1.387 . S
C1046 C1049 1.387 . S
H1047 C1043 0.950 . S
H1048 C1045 0.950 . S
C1049 C1040 1.390 . S
C1049 H1042 0.950 . S
C1049 C1046 1.387 . S
C1050 C1051 1.387 . S
C1050 H1054 0.950 . S
C1050 C1059 1.390 . S
C1051 C1050 1.387 . S
C1051 C1053 1.387 . S
H1052 C1059 0.950 . S
C1053 C1051 1.387 . S
C1053 C1055 1.390 . S
C1053 H1057 0.950 . S
H1054 C1050 0.950 . S
C1055 C1053 1.390 . S
C1055 C1056 1.387 . S
C1055 H1058 0.950 . S
C1056 C1055 1.387 . S
C1056 C1059 1.387 . S
H1057 C1053 0.950 . S
H1058 C1055 0.950 . S
C1059 C1050 1.390 . S
C1059 H1052 0.950 . S
C1059 C1056 1.387 . S
C1060 C1061 1.387 . S
C1060 H1064 0.950 . S
C1060 C1069 1.390 . S
C1061 C1060 1.387 . S
C1061 C1063 1.387 . S
H1062 C1069 0.950 . S
C1063 C1061 1.387 . S
C1063 C1065 1.390 . S
C1063 H1067 0.950 . S
H1064 C1060 0.950 . S
C1065 C1063 1.390 . S
C1065 C1066 1.387 . S
C1065 H1068 0.950 . S
C1066 C1065 1.387 . S
C1066 C1069 1.387 . S
H1067 C1063 0.950 . S
H1068 C1065 0.950 . S
C1069 C1060 1.390 . S
C1069 H1062 0.950 . S
C1069 C1066 1.387 . S
C1070 C1071 1.387 . S
C1070 H1074 0.950 . S
C1070 C1079 1.390 . S
C1071 C1070 1.387 . S
C1071 C1073 1.387 . S
H1072 C1079 0.950 . S
C1073 C1071 1.387 . S
C1073 C1075 1.390 . S
C1073 H1077 0.950 . S
H1074 C1070 0.950 . S
C1075 C1073 1.390 . S
C1075 C1076 1.387 . S
C1075 H1078 0.950 . S
C1076 C1075 1.387 . S
C1076 C1079 1.387 . S
H1077 C1073 0.950 . S
H1078 C1075 0.950 . S
C1079 C1070 1.390 . S
C1079 H1072 0.950 . S
C1079 C1076 1.387 . S
C1080 C1081 1.387 . S
C1080 H1084 0.950 . S
C1080 C1089 1.390 . S
C1081 C1080 1.387 . S
C1081 C1083 1.387 . S
H1082 C1089 0.950 . S
C1083 C1081 1.387 . S
C1083 C1085 1.390 . S
C1083 H1087 0.950 . S
H1084 C1080 0.950 . S
C1085 C1083 1.390 . S
C1085 C1086 1.387 . S
C1085 H1088 0.950 . S
C1086 C1085 1.387 . S
C1086 C1089 1.387 . S
H1087 C1083 0.950 . S
H1088 C1085 0.950 . S
C1089 C1080 1.390 . S
C1089 H1082 0.950 . S
C1089 C1086 1.387 . S
C1090 C1091 1.387 . S
C1090 H1094 0.950 . S
C1090 C1099 1.390 . S
C1091 C1090 1.387 . S
C1091 C1093 1.387 . S
H1092 C1099 0.950 . S
C1093 C1091 1.387 . S
C1093 C1095 1.390 . S
C1093 H1097 0.950 . S
H1094 C1090 0.950 . S
C1095 C1093 1.390 . S
C1095 C1096 1.387 . S
C1095 H1098 0.950 . S
C1096 C1095 1.387 . S
C1096 C1099 1.387 . S
H1097 C1093 0.950 . S
H1098 C1095 0.950 . S
C1099 C1090 1.390 . S
C1099 H1092 0.950 . S
C1099 C1096 1.387 . S
C1100 C1101 1.387 . S
C1100 H1104 0.950 . S
C1100 C1109 1.390 . S
C1101 C1100 1.387 . S
C1101 C1103 1.387 . S
H1102 C1109 0.950 . S
C1103 C1101 1.387 . S
C1103 C1105 1.390 . S
C1103 H1107 0.950 . S
H1104 C1100 0.950 . S
C1105 C1103 1.390 . S
C1105 C1106 1.387 . S
C1105 H1108 0.950 . S
C1106 C1105 1.387 . S
C1106 C1109 1.387 . S
H1107 C1103 0.950 . S
H1108 C1105 0.950 . S
C1109 C1100 1.390 . S
C1109 H1102 0.950 . S
C1109 C1106 1.387 . S
C1110 C1111 1.387 . S
C1110 H1114 0.950 . S
C1110 C1119 1.390 . S
C1111 C1110 1.387 . S
C1111 C1113 1.387 . S
H1112 C1119 0.950 . S
C1113 C1111 1.387 . S
C1113 C1115 1.390 . S
C1113 H1117 0.950 . S
H1114 C1110 0.950 . S
C1115 C1113 1.390 . S
C1115 C1116 1.387 . S
C1115 H1118 0.950 . S
C1116 C1115 1.387 . S
C1116 C1119 1.387 . S
H1117 C1113 0.950 . S
H1118 C1115 0.950 . S
C1119 C1110 1.390 . S
C1119 H1112 0.950 . S
C1119 C1116 1.387 . S
C1120 C1121 1.387 . S
C1120 H1124 0.950 . S
C1120 C1129 1.390 . S
C1121 C1120 1.387 . S
C1121 C1123 1.387 . S
H1122 C1129 0.950 . S
C1123 C1121 1.387 . S
C1123 C1125 1.390 . S
C1123 H1127 0.950 . S
H1124 C1120 0.950 . S
C1125 C1123 1.390 . S
C1125 C1126 1.387 . S
C1125 H1128 0.950 . S
C1126 C1125 1.387 . S
C1126 C1129 1.387 . S
H1127 C1123 0.950 . S
H1128 C1125 0.950 . S
C1129 C1120 1.390 . S
C1129 H1122 0.950 . S
C1129 C1126 1.387 . S
C1130 C1131 1.387 . S
C1130 H1134 0.950 . S
C1130 C1139 1.390 . S
C1131 C1130 1.387 . S
C1131 C1133 1.387 . S
H1132 C1139 0.950 . S
C1133 C1131 1.387 . S
C1133 C1135 1.390 . S
C1133 H1137 0.950 . S
H1134 C1130 0.950 . S
C1135 C1133 1.390 . S
C1135 C1136 1.387 . S
C1135 H1138 0.950 . S
C1136 C1135 1.387 . S
C1136 C1139 1.387 . S
H1137 C1133 0.950 . S
H1138 C1135 0.950 . S
C1139 C1130 1.390 . S
C1139 H1132 0.950 . S
C1139 C1136 1.387 . S
C1140 C1141 1.387 . S
C1140 H1144 0.950 . S
C1140 C1149 1.390 . S
C1141 C1140 1.387 . S
C1141 C1143 1.387 . S
H1142 C1149 0.950 . S
C1143 C1141 1.387 . S
C1143 C1145 1.390 . S
C1143 H1147 0.950 . S
H1144 C1140 0.950 . S
C1145 C1143 1.390 . S
C1145 C1146 1.387 . S
C1145 H1148 0.950 . S
C1146 C1145 1.387 . S
C1146 C1149 1.387 . S
H1147 C1143 0.950 . S
H1148 C1145 0.950 . S
C1149 C1140 1.390 . S
C1149 H1142 0.950 . S
C1149 C1146 1.387 . S
C1150 C1151 1.387 . S
C1150 H1154 0.950 . S
C1150 C1159 1.390 . S
C1151 C1150 1.387 . S
C1151 C1153 1.387 . S
H1152 C1159 0.950 . S
C1153 C1151 1.387 . S
C1153 C1155 1.390 . S
C1153 H1157 0.950 . S
H1154 C1150 0.950 . S
C1155 C1153 1.390 . S
C1155 C1156 1.387 . S
C1155 H1158 0.950 . S
C1156 C1155 1.387 . S
C1156 C1159 1.387 . S
H1157 C1153 0.950 . S
H1158 C1155 0.950 . S
C1159 C1150 1.390 . S
C1159 H1152 0.950 . S
C1159 C1156 1.387 . S
C1160 C1161 1.387 . S
C1160 H1164 0.950 . S
C1160 C1169 1.390 . S
C1161 C1160 1.387 . S
C1161 C1163 1.387 . S
H1162 C1169 0.950 . S
C1163 C1161 1.387 . S
C1163 C1165 1.390 . S
C1163 H1167 0.950 . S
H1164 C1160 0.950 . S
C1165 C1163 1.390 . S
C1165 C1166 1.387 . S
C1165 H1168 0.950 . S
C1166 C1165 1.387 . S
C1166 C1169 1.387 . S
H1167 C1163 0.950 . S
H1168 C1165 0.950 . S
C1169 C1160 1.390 . S
C1169 H1162 0.950 . S
C1169 C1166 1.387 . S
C1170 C1171 1.387 . S
C1170 H1174 0.950 . S
C1170 C1179 1.390 . S
C1171 C1170 1.387 . S
C1171 C1173 1.387 . S
H1172 C1179 0.950 . S
C1173 C1171 1.387 . S
C1173 C1175 1.390 . S
C1173 H1177 0.950 . S
H1174 C1170 0.950 . S
C1175 C1173 1.390 . S
C1175 C1176 1.387 . S
C1175 H1178 0.950 . S
C1176 C1175 1.387 . S
C1176 C1179 1.387 . S
H1177 C1173 0.950 . S
H1178 C1175 0.950 . S
C1179 C1170 1.390 . S
C1179 H1172 0.950 . S
C1179 C1176 1.387 . S
C1180 C1181 1.387 . S
C1180 H1184 0.950 . S
C1180 C1189 1.390 . S
C1181 C1180 1.387 . S
C1181 C1183 1.387 . S
H1182 C1189 0.950 . S
C1183 C1181 1.387 . S
C1183 C1185 1.390 . S
C1183 H1187 0.950 . S
H1184 C1180 0.950 . S
C1185 C1183 1.390 . S
C1185 C1186 1.387 . S
C1185 H1188 0.950 . S
C1186 C1185 1.387 . S
C1186 C1189 1.387 . S
H1187 C1183 0.950 . S
H1188 C1185 0.950 . S
C1189 C1180 1.390 . S
C1189 H1182 0.950 . S
C1189 C1186 1.387 . S
C1190 C1191 1.387 . S
C1190 H1194 0.950 . S
C1190 C1199 1.390 . S
C1191 C1190 1.387 . S
C1191 C1193 1.387 . S
H1192 C1199 0.950 . S
C1193 C1191 1.387 . S
C1193 C1195 1.390 . S
C1193 H1197 0.950 . S
H1194 C1190 0.950 . S
C1195 C1193 1.390 . S
C1195 C1196 1.387 . S
C1195 H1198 0.950 . S
C1196 C1195 1.387 . S
C1196 C1199 1.387 . S
H1197 C1193 0.950 . S
H1198 C1195 0.950 . S
C1199 C1190 1.390 . S
C1199 H1192 0.950 . S
C1199 C1196 1.387 . S
C1200 C1201 1.387 1_455 S
C1200 H1204 0.950 . S
C1200 C1209 1.390 . S
C1201 C1200 1.387 1_655 S
C1201 C1203 1.387 . S
H1202 C1209 0.950 . S
C1203 C1201 1.387 . S
C1203 C1205 1.390 . S
C1203 H1207 0.950 . S
H1204 C1200 0.950 . S
C1205 C1203 1.390 . S
C1205 C1206 1.387 1_655 S
C1205 H1208 0.950 . S
C1206 C1205 1.387 1_455 S
C1206 C1209 1.387 . S
H1207 C1203 0.950 . S
H1208 C1205 0.950 . S
C1209 C1200 1.390 . S
C1209 H1202 0.950 . S
C1209 C1206 1.387 . S
C1210 C1211 1.387 . S
C1210 H1214 0.950 . S
C1210 C1219 1.390 . S
C1211 C1210 1.387 . S
C1211 C1213 1.387 . S
H1212 C1219 0.950 . S
C1213 C1211 1.387 . S
C1213 C1215 1.390 . S
C1213 H1217 0.950 . S
H1214 C1210 0.950 . S
C1215 C1213 1.390 . S
C1215 C1216 1.387 . S
C1215 H1218 0.950 . S
C1216 C1215 1.387 . S
C1216 C1219 1.387 . S
H1217 C1213 0.950 . S
H1218 C1215 0.950 . S
C1219 C1210 1.390 . S
C1219 H1212 0.950 . S
C1219 C1216 1.387 . S
C1220 C1221 1.387 . S
C1220 H1224 0.950 . S
C1220 C1229 1.390 1_545 S
C1221 C1220 1.387 . S
C1221 C1223 1.387 . S
H1222 C1229 0.950 . S
C1223 C1221 1.387 . S
C1223 C1225 1.390 1_545 S
C1223 H1227 0.950 . S
H1224 C1220 0.950 . S
C1225 C1223 1.390 1_565 S
C1225 C1226 1.387 . S
C1225 H1228 0.950 . S
C1226 C1225 1.387 . S
C1226 C1229 1.387 . S
H1227 C1223 0.950 . S
H1228 C1225 0.950 . S
C1229 C1220 1.390 1_565 S
C1229 H1222 0.950 . S
C1229 C1226 1.387 . S
C1230 C1231 1.387 1_545 S
C1230 H1234 0.950 . S
C1230 C1239 1.390 . S
C1231 C1230 1.387 1_565 S
C1231 C1233 1.387 1_554 S
H1232 C1239 0.950 . S
C1233 C1231 1.387 1_556 S
C1233 C1235 1.390 . S
C1233 H1237 0.950 . S
H1234 C1230 0.950 . S
C1235 C1233 1.390 . S
C1235 C1236 1.387 1_565 S
C1235 H1238 0.950 . S
C1236 C1235 1.387 1_545 S
C1236 C1239 1.387 1_556 S
H1237 C1233 0.950 . S
H1238 C1235 0.950 . S
C1239 C1230 1.390 . S
C1239 H1232 0.950 . S
C1239 C1236 1.387 1_554 S
C1240 C1241 1.387 . S
C1240 H1244 0.950 . S
C1240 C1249 1.390 1_655 S
C1241 C1240 1.387 . S
C1241 C1243 1.387 1_556 S
H1242 C1249 0.950 . S
C1243 C1241 1.387 1_554 S
C1243 C1245 1.390 1_655 S
C1243 H1247 0.950 . S
H1244 C1240 0.950 . S
C1245 C1243 1.390 1_455 S
C1245 C1246 1.387 . S
C1245 H1248 0.950 . S
C1246 C1245 1.387 . S
C1246 C1249 1.387 1_554 S
H1247 C1243 0.950 . S
H1248 C1245 0.950 . S
C1249 C1240 1.390 1_455 S
C1249 H1242 0.950 . S
C1249 C1246 1.387 1_556 S
C1250 C1251 1.387 . S
C1250 H1254 0.950 . S
C1250 C1259 1.390 1_554 S
C1251 C1250 1.387 . S
C1251 C1253 1.387 . S
H1252 C1259 0.950 . S
C1253 C1251 1.387 . S
C1253 C1255 1.390 1_554 S
C1253 H1257 0.950 . S
H1254 C1250 0.950 . S
C1255 C1253 1.390 1_556 S
C1255 C1256 1.387 . S
C1255 H1258 0.950 . S
C1256 C1255 1.387 . S
C1256 C1259 1.387 . S
H1257 C1253 0.950 . S
H1258 C1255 0.950 . S
C1259 C1250 1.390 1_556 S
C1259 H1252 0.950 . S
C1259 C1256 1.387 . S
C1260 C1261 1.387 . S
C1260 H1264 0.942 1_556 S
C1260 C1269 1.390 . S
C1261 C1260 1.387 . S
C1261 C1263 1.387 . S
H1262 C1269 0.950 . S
C1263 C1261 1.387 . S
C1263 C1265 1.390 . S
C1263 H1267 0.950 . S
H1264 C1260 0.942 1_554 S
C1265 C1263 1.390 . S
C1265 C1266 1.387 . S
C1265 H1268 0.950 . S
C1266 C1265 1.387 . S
C1266 C1269 1.387 . S
H1267 C1263 0.950 . S
H1268 C1265 0.950 . S
C1269 C1260 1.390 . S
C1269 H1262 0.950 . S
C1269 C1266 1.387 . S
C1270 C1271 1.387 . S
C1270 H1274 0.950 . S
C1270 C1279 1.390 . S
C1271 C1270 1.387 . S
C1271 C1273 1.387 . S
H1272 C1279 0.950 . S
C1273 C1271 1.387 . S
C1273 C1275 1.390 . S
C1273 H1277 0.950 . S
H1274 C1270 0.950 . S
C1275 C1273 1.390 . S
C1275 C1276 1.387 . S
C1275 H1278 0.950 . S
C1276 C1275 1.387 . S
C1276 C1279 1.387 . S
H1277 C1273 0.950 . S
H1278 C1275 0.950 . S
C1279 C1270 1.390 . S
C1279 H1272 0.950 . S
C1279 C1276 1.387 . S
C1280 C1281 1.387 . S
C1280 H1284 0.950 . S
C1280 C1289 1.390 . S
C1281 C1280 1.387 . S
C1281 C1283 1.387 . S
H1282 C1289 0.950 . S
C1283 C1281 1.387 . S
C1283 C1285 1.390 . S
C1283 H1287 0.950 . S
H1284 C1280 0.950 . S
C1285 C1283 1.390 . S
C1285 C1286 1.387 . S
C1285 H1288 0.950 . S
C1286 C1285 1.387 . S
C1286 C1289 1.387 . S
H1287 C1283 0.950 . S
H1288 C1285 0.950 . S
C1289 C1280 1.390 . S
C1289 H1282 0.950 . S
C1289 C1286 1.387 . S
C1290 C1291 1.387 . S
C1290 H1294 0.950 . S
C1290 C1299 1.390 . S
C1291 C1290 1.387 . S
C1291 C1293 1.387 . S
H1292 C1299 0.950 . S
C1293 C1291 1.387 . S
C1293 C1295 1.390 . S
C1293 H1297 0.950 . S
H1294 C1290 0.950 . S
C1295 C1293 1.390 . S
C1295 C1296 1.387 . S
C1295 H1298 0.950 . S
C1296 C1295 1.387 . S
C1296 C1299 1.387 . S
H1297 C1293 0.950 . S
H1298 C1295 0.950 . S
C1299 C1290 1.390 . S
C1299 H1292 0.950 . S
C1299 C1296 1.387 . S
C1300 C1301 1.387 . S
C1300 H1304 0.950 . S
C1300 C1309 1.390 . S
C1301 C1300 1.387 . S
C1301 C1303 1.387 . S
H1302 C1309 0.950 . S
C1303 C1301 1.387 . S
C1303 C1305 1.390 . S
C1303 H1307 0.950 . S
H1304 C1300 0.950 . S
C1305 C1303 1.390 . S
C1305 C1306 1.387 . S
C1305 H1308 0.950 . S
C1306 C1305 1.387 . S
C1306 C1309 1.387 . S
H1307 C1303 0.950 . S
H1308 C1305 0.950 . S
C1309 C1300 1.390 . S
C1309 H1302 0.950 . S
C1309 C1306 1.387 . S
C1310 C1311 1.387 . S
C1310 H1314 0.950 . S
C1310 C1319 1.390 . S
C1311 C1310 1.387 . S
C1311 C1313 1.387 . S
H1312 C1319 0.950 . S
C1313 C1311 1.387 . S
C1313 C1315 1.390 . S
C1313 H1317 0.950 . S
H1314 C1310 0.950 . S
C1315 C1313 1.390 . S
C1315 C1316 1.387 . S
C1315 H1318 0.950 . S
C1316 C1315 1.387 . S
C1316 C1319 1.387 . S
H1317 C1313 0.950 . S
H1318 C1315 0.950 . S
C1319 C1310 1.390 . S
C1319 H1312 0.950 . S
C1319 C1316 1.387 . S
C1320 C1321 1.387 . S
C1320 H1324 0.950 . S
C1320 C1329 1.390 . S
C1321 C1320 1.387 . S
C1321 C1323 1.387 . S
H1322 C1329 0.950 1_556 S
C1323 C1321 1.387 . S
C1323 C1325 1.390 . S
C1323 H1327 0.950 . S
H1324 C1320 0.950 . S
C1325 C1323 1.390 . S
C1325 C1326 1.387 . S
C1325 H1328 0.950 . S
C1326 C1325 1.387 . S
C1326 C1329 1.387 . S
H1327 C1323 0.950 . S
H1328 C1325 0.950 . S
C1329 C1320 1.390 . S
C1329 H1322 0.950 1_554 S
C1329 C1326 1.387 . S
C1330 C1331 1.387 . S
C1330 H1334 0.950 . S
C1330 C1339 1.390 . S
C1331 C1330 1.387 . S
C1331 C1333 1.387 . S
H1332 C1339 0.950 . S
C1333 C1331 1.387 . S
C1333 C1335 1.390 . S
C1333 H1337 0.950 . S
H1334 C1330 0.950 . S
C1335 C1333 1.390 . S
C1335 C1336 1.387 . S
C1335 H1338 0.950 . S
C1336 C1335 1.387 . S
C1336 C1339 1.387 . S
H1337 C1333 0.950 . S
H1338 C1335 0.950 . S
C1339 C1330 1.390 . S
C1339 H1332 0.950 . S
C1339 C1336 1.387 . S
C1340 C1341 1.387 . S
C1340 H1344 0.950 . S
C1340 C1349 1.390 . S
C1341 C1340 1.387 . S
C1341 C1343 1.387 . S
H1342 C1349 0.950 . S
C1343 C1341 1.387 . S
C1343 C1345 1.390 . S
C1343 H1347 0.950 . S
H1344 C1340 0.950 . S
C1345 C1343 1.390 . S
C1345 C1346 1.387 . S
C1345 H1348 0.950 . S
C1346 C1345 1.387 . S
C1346 C1349 1.387 . S
H1347 C1343 0.950 . S
H1348 C1345 0.950 . S
C1349 C1340 1.390 . S
C1349 H1342 0.950 . S
C1349 C1346 1.387 . S
C1350 C1351 1.387 . S
C1350 H1354 0.950 . S
C1350 C1359 1.390 . S
C1351 C1350 1.387 . S
C1351 C1353 1.387 . S
H1352 C1359 0.950 . S
C1353 C1351 1.387 . S
C1353 C1355 1.390 . S
C1353 H1357 0.950 . S
H1354 C1350 0.950 . S
C1355 C1353 1.390 . S
C1355 C1356 1.387 . S
C1355 H1358 0.950 . S
C1356 C1355 1.387 . S
C1356 C1359 1.387 . S
H1357 C1353 0.950 . S
H1358 C1355 0.950 . S
C1359 C1350 1.390 . S
C1359 H1352 0.950 . S
C1359 C1356 1.387 . S
C1360 C1361 1.387 . S
C1360 H1364 0.950 . S
C1360 C1369 1.390 . S
C1361 C1360 1.387 . S
C1361 C1363 1.387 . S
H1362 C1369 0.950 . S
C1363 C1361 1.387 . S
C1363 C1365 1.390 . S
C1363 H1367 0.950 . S
H1364 C1360 0.950 . S
C1365 C1363 1.390 . S
C1365 C1366 1.387 . S
C1365 H1368 0.950 . S
C1366 C1365 1.387 . S
C1366 C1369 1.387 . S
H1367 C1363 0.950 . S
H1368 C1365 0.950 . S
C1369 C1360 1.390 . S
C1369 H1362 0.950 . S
C1369 C1366 1.387 . S
C1370 C1371 1.387 . S
C1370 H1374 0.950 . S
C1370 C1379 1.390 . S
C1371 C1370 1.387 . S
C1371 C1373 1.387 . S
H1372 C1379 0.950 . S
C1373 C1371 1.387 . S
C1373 C1375 1.390 . S
C1373 H1377 0.950 . S
H1374 C1370 0.950 . S
C1375 C1373 1.390 . S
C1375 C1376 1.387 . S
C1375 H1378 0.950 . S
C1376 C1375 1.387 . S
C1376 C1379 1.387 . S
H1377 C1373 0.950 . S
H1378 C1375 0.950 . S
C1379 C1370 1.390 . S
C1379 H1372 0.950 . S
C1379 C1376 1.387 . S
C1380 C1381 1.387 . S
C1380 H1384 0.950 . S
C1380 C1389 1.390 1_455 S
C1381 C1380 1.387 . S
C1381 C1383 1.387 . S
H1382 C1389 0.950 . S
C1383 C1381 1.387 . S
C1383 C1385 1.390 1_455 S
C1383 H1387 0.950 . S
H1384 C1380 0.950 . S
C1385 C1383 1.390 1_655 S
C1385 C1386 1.387 . S
C1385 H1388 0.950 . S
C1386 C1385 1.387 . S
C1386 C1389 1.387 . S
H1387 C1383 0.950 . S
H1388 C1385 0.950 . S
C1389 C1380 1.390 1_655 S
C1389 H1382 0.950 . S
C1389 C1386 1.387 . S
C1390 C1391 1.387 . S
C1390 H1394 0.950 . S
C1390 C1399 1.390 . S
C1391 C1390 1.387 . S
C1391 C1393 1.387 . S
H1392 C1399 0.950 . S
C1393 C1391 1.387 . S
C1393 C1395 1.390 . S
C1393 H1397 0.950 . S
H1394 C1390 0.950 . S
C1395 C1393 1.390 . S
C1395 C1396 1.387 . S
C1395 H1398 0.950 . S
C1396 C1395 1.387 . S
C1396 C1399 1.387 . S
H1397 C1393 0.950 . S
H1398 C1395 0.950 . S
C1399 C1390 1.390 . S
C1399 H1392 0.950 . S
C1399 C1396 1.387 . S
C1400 C1401 1.387 . S
C1400 H1404 0.950 . S
C1400 C1409 1.390 1_545 S
C1401 C1400 1.387 . S
C1401 C1403 1.387 . S
H1402 C1409 0.950 . S
C1403 C1401 1.387 . S
C1403 C1405 1.390 1_545 S
C1403 H1407 0.950 . S
H1404 C1400 0.950 . S
C1405 C1403 1.390 1_565 S
C1405 C1406 1.387 . S
C1405 H1408 0.950 . S
C1406 C1405 1.387 . S
C1406 C1409 1.387 . S
H1407 C1403 0.950 . S
H1408 C1405 0.950 . S
C1409 C1400 1.390 1_565 S
C1409 H1402 0.950 . S
C1409 C1406 1.387 . S
C1410 C1411 1.387 . S
C1410 H1414 0.950 . S
C1410 C1419 1.390 1_565 S
C1411 C1410 1.387 . S
C1411 C1413 1.387 . S
H1412 C1419 0.950 . S
C1413 C1411 1.387 . S
C1413 C1415 1.390 1_565 S
C1413 H1417 0.950 . S
H1414 C1410 0.950 . S
C1415 C1413 1.390 1_545 S
C1415 C1416 1.387 . S
C1415 H1418 0.950 . S
C1416 C1415 1.387 . S
C1416 C1419 1.387 . S
H1417 C1413 0.950 . S
H1418 C1415 0.950 . S
C1419 C1410 1.390 1_545 S
C1419 H1412 0.950 . S
C1419 C1416 1.387 . S
C1420 C1421 1.387 . S
C1420 H1424 0.950 . S
C1420 C1429 1.390 1_455 S
C1421 C1420 1.387 . S
C1421 C1423 1.387 . S
H1422 C1429 0.950 . S
C1423 C1421 1.387 . S
C1423 C1425 1.390 1_455 S
C1423 H1427 0.950 . S
H1424 C1420 0.950 . S
C1425 C1423 1.390 1_655 S
C1425 C1426 1.387 . S
C1425 H1428 0.950 . S
C1426 C1425 1.387 . S
C1426 C1429 1.387 . S
H1427 C1423 0.950 . S
H1428 C1425 0.950 . S
C1429 C1420 1.390 1_655 S
C1429 H1422 0.950 . S
C1429 C1426 1.387 . S
C1430 C1431 1.387 . S
C1430 H1434 0.950 . S
C1430 C1439 1.390 . S
C1431 C1430 1.387 . S
C1431 C1433 1.387 . S
H1432 C1439 0.950 . S
C1433 C1431 1.387 . S
C1433 C1435 1.390 . S
C1433 H1437 0.950 . S
H1434 C1430 0.950 . S
C1435 C1433 1.390 . S
C1435 C1436 1.387 . S
C1435 H1438 0.950 . S
C1436 C1435 1.387 . S
C1436 C1439 1.387 . S
H1437 C1433 0.950 . S
H1438 C1435 0.950 . S
C1439 C1430 1.390 . S
C1439 H1432 0.950 . S
C1439 C1436 1.387 . S
C1440 C1441 1.387 . S
C1440 H1444 0.950 . S
C1440 C1449 1.390 . S
C1441 C1440 1.387 . S
C1441 C1443 1.387 . S
H1442 C1449 0.950 . S
C1443 C1441 1.387 . S
C1443 C1445 1.390 . S
C1443 H1447 0.950 . S
H1444 C1440 0.950 . S
C1445 C1443 1.390 . S
C1445 C1446 1.387 . S
C1445 H1448 0.950 . S
C1446 C1445 1.387 . S
C1446 C1449 1.387 . S
H1447 C1443 0.950 . S
H1448 C1445 0.950 . S
C1449 C1440 1.390 . S
C1449 H1442 0.950 . S
C1449 C1446 1.387 . S
C1450 C1451 1.387 . S
C1450 H1454 0.950 . S
C1450 C1459 1.390 1_545 S
C1451 C1450 1.387 . S
C1451 C1453 1.387 . S
H1452 C1459 0.950 . S
C1453 C1451 1.387 . S
C1453 C1455 1.390 1_545 S
C1453 H1457 0.950 . S
H1454 C1450 0.950 . S
C1455 C1453 1.390 1_565 S
C1455 C1456 1.387 . S
C1455 H1458 0.950 . S
C1456 C1455 1.387 . S
C1456 C1459 1.387 . S
H1457 C1453 0.950 . S
H1458 C1455 0.950 . S
C1459 C1450 1.390 1_565 S
C1459 H1452 0.950 . S
C1459 C1456 1.387 . S
C1460 C1461 1.387 . S
C1460 H1464 0.950 . S
C1460 C1469 1.390 1_655 S
C1461 C1460 1.387 . S
C1461 C1463 1.387 . S
H1462 C1469 0.950 . S
C1463 C1461 1.387 . S
C1463 C1465 1.390 1_655 S
C1463 H1467 0.950 . S
H1464 C1460 0.950 . S
C1465 C1463 1.390 1_455 S
C1465 C1466 1.387 . S
C1465 H1468 0.950 . S
C1466 C1465 1.387 . S
C1466 C1469 1.387 . S
H1467 C1463 0.950 . S
H1468 C1465 0.950 . S
C1469 C1460 1.390 1_455 S
C1469 H1462 0.950 . S
C1469 C1466 1.387 . S
C1470 C1471 1.387 . S
C1470 H1474 0.950 . S
C1470 C1479 1.390 . S
C1471 C1470 1.387 . S
C1471 C1473 1.387 . S
H1472 C1479 0.950 . S
C1473 C1471 1.387 . S
C1473 C1475 1.390 . S
C1473 H1477 0.950 . S
H1474 C1470 0.950 . S
C1475 C1473 1.390 . S
C1475 C1476 1.387 . S
C1475 H1478 0.950 . S
C1476 C1475 1.387 . S
C1476 C1479 1.387 . S
H1477 C1473 0.950 . S
H1478 C1475 0.950 . S
C1479 C1470 1.390 . S
C1479 H1472 0.950 . S
C1479 C1476 1.387 . S
C1480 C1481 1.387 . S
C1480 H1484 0.950 . S
C1480 C1489 1.390 1_565 S
C1481 C1480 1.387 . S
C1481 C1483 1.387 . S
H1482 C1489 0.950 . S
C1483 C1481 1.387 . S
C1483 C1485 1.390 1_565 S
C1483 H1487 0.950 . S
H1484 C1480 0.950 . S
C1485 C1483 1.390 1_545 S
C1485 C1486 1.387 . S
C1485 H1488 0.950 . S
C1486 C1485 1.387 . S
C1486 C1489 1.387 . S
H1487 C1483 0.950 . S
H1488 C1485 0.950 . S
C1489 C1480 1.390 1_545 S
C1489 H1482 0.950 . S
C1489 C1486 1.387 . S
C1490 C1491 1.387 . S
C1490 H1494 0.950 . S
C1490 C1499 1.390 . S
C1491 C1490 1.387 . S
C1491 C1493 1.387 1_655 S
H1492 C1499 0.950 . S
C1493 C1491 1.387 1_455 S
C1493 C1495 1.390 . S
C1493 H1497 0.950 . S
H1494 C1490 0.950 . S
C1495 C1493 1.390 . S
C1495 C1496 1.387 . S
C1495 H1498 0.950 . S
C1496 C1495 1.387 . S
C1496 C1499 1.387 1_455 S
H1497 C1493 0.950 . S
H1498 C1495 0.950 . S
C1499 C1490 1.390 . S
C1499 H1492 0.950 . S
C1499 C1496 1.387 1_655 S
C1500 C1501 1.387 . S
C1500 H1504 0.950 . S
C1500 C1509 1.390 . S
C1501 C1500 1.387 . S
C1501 C1503 1.387 . S
H1502 C1509 0.950 . S
C1503 C1501 1.387 . S
C1503 C1505 1.390 . S
C1503 H1507 0.950 . S
H1504 C1500 0.950 . S
C1505 C1503 1.390 . S
C1505 C1506 1.387 . S
C1505 H1508 0.950 . S
C1506 C1505 1.387 . S
C1506 C1509 1.387 . S
H1507 C1503 0.950 . S
H1508 C1505 0.950 . S
C1509 C1500 1.390 . S
C1509 H1502 0.950 . S
C1509 C1506 1.387 . S
C1510 C1511 1.387 . S
C1510 H1514 0.950 . S
C1510 C1519 1.390 . S
C1511 C1510 1.387 . S
C1511 C1513 1.387 . S
H1512 C1519 0.950 . S
C1513 C1511 1.387 . S
C1513 C1515 1.390 . S
C1513 H1517 0.950 . S
H1514 C1510 0.950 . S
C1515 C1513 1.390 . S
C1515 C1516 1.387 . S
C1515 H1518 0.950 . S
C1516 C1515 1.387 . S
C1516 C1519 1.387 . S
H1517 C1513 0.950 . S
H1518 C1515 0.950 . S
C1519 C1510 1.390 . S
C1519 H1512 0.950 . S
C1519 C1516 1.387 . S
C1520 C1521 1.387 . S
C1520 H1524 0.950 . S
C1520 C1529 1.390 . S
C1521 C1520 1.387 . S
C1521 C1523 1.387 . S
H1522 C1529 0.950 . S
C1523 C1521 1.387 . S
C1523 C1525 1.390 . S
C1523 H1527 0.950 . S
H1524 C1520 0.950 . S
C1525 C1523 1.390 . S
C1525 C1526 1.387 . S
C1525 H1528 0.950 . S
C1526 C1525 1.387 . S
C1526 C1529 1.387 . S
H1527 C1523 0.950 . S
H1528 C1525 0.950 . S
C1529 C1520 1.390 . S
C1529 H1522 0.950 . S
C1529 C1526 1.387 . S
C1530 C1531 1.387 . S
C1530 H1534 0.950 . S
C1530 C1539 1.390 . S
C1531 C1530 1.387 . S
C1531 C1533 1.387 . S
H1532 C1539 0.950 . S
C1533 C1531 1.387 . S
C1533 C1535 1.390 . S
C1533 H1537 0.950 . S
H1534 C1530 0.950 . S
C1535 C1533 1.390 . S
C1535 C1536 1.387 . S
C1535 H1538 0.950 . S
C1536 C1535 1.387 . S
C1536 C1539 1.387 . S
H1537 C1533 0.950 . S
H1538 C1535 0.950 . S
C1539 C1530 1.390 . S
C1539 H1532 0.950 . S
C1539 C1536 1.387 . S
C1540 C1541 1.387 . S
C1540 H1544 0.950 . S
C1540 C1549 1.390 . S
C1541 C1540 1.387 . S
C1541 C1543 1.387 . S
H1542 C1549 0.950 . S
C1543 C1541 1.387 . S
C1543 C1545 1.390 . S
C1543 H1547 0.950 . S
H1544 C1540 0.950 . S
C1545 C1543 1.390 . S
C1545 C1546 1.387 . S
C1545 H1548 0.950 . S
C1546 C1545 1.387 . S
C1546 C1549 1.387 . S
H1547 C1543 0.950 . S
H1548 C1545 0.950 . S
C1549 C1540 1.390 . S
C1549 H1542 0.950 . S
C1549 C1546 1.387 . S
C1550 C1551 1.387 . S
C1550 H1554 0.950 . S
C1550 C1559 1.390 . S
C1551 C1550 1.387 . S
C1551 C1553 1.387 . S
H1552 C1559 0.950 . S
C1553 C1551 1.387 . S
C1553 C1555 1.390 . S
C1553 H1557 0.950 . S
H1554 C1550 0.950 . S
C1555 C1553 1.390 . S
C1555 C1556 1.387 . S
C1555 H1558 0.950 . S
C1556 C1555 1.387 . S
C1556 C1559 1.387 . S
H1557 C1553 0.950 . S
H1558 C1555 0.950 . S
C1559 C1550 1.390 . S
C1559 H1552 0.950 . S
C1559 C1556 1.387 . S
C1560 C1561 1.387 . S
C1560 H1564 0.950 . S
C1560 C1569 1.390 . S
C1561 C1560 1.387 . S
C1561 C1563 1.387 . S
H1562 C1569 0.950 . S
C1563 C1561 1.387 . S
C1563 C1565 1.390 . S
C1563 H1567 0.950 . S
H1564 C1560 0.950 . S
C1565 C1563 1.390 . S
C1565 C1566 1.387 . S
C1565 H1568 0.950 . S
C1566 C1565 1.387 . S
C1566 C1569 1.387 . S
H1567 C1563 0.950 . S
H1568 C1565 0.950 . S
C1569 C1560 1.390 . S
C1569 H1562 0.950 . S
C1569 C1566 1.387 . S
C1570 C1571 1.387 . S
C1570 H1574 0.950 . S
C1570 C1579 1.390 . S
C1571 C1570 1.387 . S
C1571 C1573 1.387 . S
H1572 C1579 0.950 . S
C1573 C1571 1.387 . S
C1573 C1575 1.390 . S
C1573 H1577 0.950 . S
H1574 C1570 0.950 . S
C1575 C1573 1.390 . S
C1575 C1576 1.387 . S
C1575 H1578 0.950 . S
C1576 C1575 1.387 . S
C1576 C1579 1.387 . S
H1577 C1573 0.950 . S
H1578 C1575 0.950 . S
C1579 C1570 1.390 . S
C1579 H1572 0.950 . S
C1579 C1576 1.387 . S
C1580 C1581 1.387 . S
C1580 H1584 0.950 . S
C1580 C1589 1.390 . S
C1581 C1580 1.387 . S
C1581 C1583 1.387 . S
H1582 C1589 0.950 . S
C1583 C1581 1.387 . S
C1583 C1585 1.390 . S
C1583 H1587 0.950 . S
H1584 C1580 0.950 . S
C1585 C1583 1.390 . S
C1585 C1586 1.387 . S
C1585 H1588 0.950 . S
C1586 C1585 1.387 . S
C1586 C1589 1.387 . S
H1587 C1583 0.950 . S
H1588 C1585 0.950 . S
C1589 C1580 1.390 . S
C1589 H1582 0.950 . S
C1589 C1586 1.387 . S
C1590 C1591 1.387 . S
C1590 H1594 0.950 . S
C1590 C1599 1.390 . S
C1591 C1590 1.387 . S
C1591 C1593 1.387 . S
H1592 C1599 0.950 . S
C1593 C1591 1.387 . S
C1593 C1595 1.390 . S
C1593 H1597 0.950 . S
H1594 C1590 0.950 . S
C1595 C1593 1.390 . S
C1595 C1596 1.387 . S
C1595 H1598 0.950 . S
C1596 C1595 1.387 . S
C1596 C1599 1.387 . S
H1597 C1593 0.950 . S
H1598 C1595 0.950 . S
C1599 C1590 1.390 . S
C1599 H1592 0.950 . S
C1599 C1596 1.387 . S
C1600 C1601 1.387 . S
C1600 H1604 0.950 . S
C1600 C1609 1.390 . S
C1601 C1600 1.387 . S
C1601 C1603 1.387 . S
H1602 C1609 0.950 . S
C1603 C1601 1.387 . S
C1603 C1605 1.390 . S
C1603 H1607 0.950 . S
H1604 C1600 0.950 . S
C1605 C1603 1.390 . S
C1605 C1606 1.387 . S
C1605 H1608 0.950 . S
C1606 C1605 1.387 . S
C1606 C1609 1.387 . S
H1607 C1603 0.950 . S
H1608 C1605 0.950 . S
C1609 C1600 1.390 . S
C1609 H1602 0.950 . S
C1609 C1606 1.387 . S
C1610 C1611 1.387 . S
C1610 H1614 0.950 . S
C1610 C1619 1.390 . S
C1611 C1610 1.387 . S
C1611 C1613 1.387 . S
H1612 C1619 0.950 . S
C1613 C1611 1.387 . S
C1613 C1615 1.390 . S
C1613 H1617 0.950 . S
H1614 C1610 0.950 . S
C1615 C1613 1.390 . S
C1615 C1616 1.387 . S
C1615 H1618 0.950 . S
C1616 C1615 1.387 . S
C1616 C1619 1.387 . S
H1617 C1613 0.950 . S
H1618 C1615 0.950 . S
C1619 C1610 1.390 . S
C1619 H1612 0.950 . S
C1619 C1616 1.387 . S
C1620 C1621 1.387 . S
C1620 H1624 0.950 . S
C1620 C1629 1.390 . S
C1621 C1620 1.387 . S
C1621 C1623 1.387 . S
H1622 C1629 0.950 . S
C1623 C1621 1.387 . S
C1623 C1625 1.390 . S
C1623 H1627 0.950 . S
H1624 C1620 0.950 . S
C1625 C1623 1.390 . S
C1625 C1626 1.387 . S
C1625 H1628 0.950 . S
C1626 C1625 1.387 . S
C1626 C1629 1.387 . S
H1627 C1623 0.950 . S
H1628 C1625 0.950 . S
C1629 C1620 1.390 . S
C1629 H1622 0.950 . S
C1629 C1626 1.387 . S
C1630 C1631 1.387 . S
C1630 H1634 0.950 . S
C1630 C1639 1.390 . S
C1631 C1630 1.387 . S
C1631 C1633 1.387 . S
H1632 C1639 0.953 . S
C1633 C1631 1.387 . S
C1633 C1635 1.390 . S
C1633 H1637 0.950 . S
H1634 C1630 0.950 . S
C1635 C1633 1.390 . S
C1635 C1636 1.387 . S
C1635 H1638 0.950 . S
C1636 C1635 1.387 . S
C1636 C1639 1.387 . S
H1637 C1633 0.950 . S
H1638 C1635 0.950 . S
C1639 C1630 1.390 . S
C1639 H1632 0.953 . S
C1639 C1636 1.387 . S
C1640 C1641 1.387 . S
C1640 H1644 0.950 . S
C1640 C1649 1.390 . S
C1641 C1640 1.387 . S
C1641 C1643 1.387 . S
H1642 C1649 0.950 . S
C1643 C1641 1.387 . S
C1643 C1645 1.390 . S
C1643 H1647 0.950 . S
H1644 C1640 0.950 . S
C1645 C1643 1.390 . S
C1645 C1646 1.387 . S
C1645 H1648 0.950 . S
C1646 C1645 1.387 . S
C1646 C1649 1.387 . S
H1647 C1643 0.950 . S
H1648 C1645 0.950 . S
C1649 C1640 1.390 . S
C1649 H1642 0.950 . S
C1649 C1646 1.387 . S
C1650 C1651 1.387 . S
C1650 H1654 0.950 . S
C1650 C1659 1.390 . S
C1651 C1650 1.387 . S
C1651 C1653 1.387 . S
H1652 C1659 0.950 . S
C1653 C1651 1.387 . S
C1653 C1655 1.390 . S
C1653 H1657 0.950 . S
H1654 C1650 0.950 . S
C1655 C1653 1.390 . S
C1655 C1656 1.387 . S
C1655 H1658 0.950 . S
C1656 C1655 1.387 . S
C1656 C1659 1.387 . S
H1657 C1653 0.950 . S
H1658 C1655 0.950 . S
C1659 C1650 1.390 . S
C1659 H1652 0.950 . S
C1659 C1656 1.387 . S
C1660 C1661 1.387 . S
C1660 H1664 0.950 . S
C1660 C1669 1.390 . S
C1661 C1660 1.387 . S
C1661 C1663 1.387 . S
H1662 C1669 0.950 . S
C1663 C1661 1.387 . S
C1663 C1665 1.390 . S
C1663 H1667 0.950 . S
H1664 C1660 0.950 . S
C1665 C1663 1.390 . S
C1665 C1666 1.387 . S
C1665 H1668 0.950 . S
C1666 C1665 1.387 . S
C1666 C1669 1.387 . S
H1667 C1663 0.950 . S
H1668 C1665 0.950 . S
C1669 C1660 1.390 . S
C1669 H1662 0.950 . S
C1669 C1666 1.387 . S
C1670 C1671 1.387 . S
C1670 H1674 0.950 . S
C1670 C1679 1.390 . S
C1671 C1670 1.387 . S
C1671 C1673 1.387 . S
H1672 C1679 0.950 . S
C1673 C1671 1.387 . S
C1673 C1675 1.390 . S
C1673 H1677 0.950 . S
H1674 C1670 0.950 . S
C1675 C1673 1.390 . S
C1675 C1676 1.387 . S
C1675 H1678 0.950 . S
C1676 C1675 1.387 . S
C1676 C1679 1.387 . S
H1677 C1673 0.950 . S
H1678 C1675 0.950 . S
C1679 C1670 1.390 . S
C1679 H1672 0.950 . S
C1679 C1676 1.387 . S
C1680 C1681 1.387 . S
C1680 H1684 0.950 . S
C1680 C1689 1.390 . S
C1681 C1680 1.387 . S
C1681 C1683 1.387 . S
H1682 C1689 0.950 . S
C1683 C1681 1.387 . S
C1683 C1685 1.390 . S
C1683 H1687 0.950 . S
H1684 C1680 0.950 . S
C1685 C1683 1.390 . S
C1685 C1686 1.387 . S
C1685 H1688 0.950 . S
C1686 C1685 1.387 . S
C1686 C1689 1.387 . S
H1687 C1683 0.950 . S
H1688 C1685 0.950 . S
C1689 C1680 1.390 . S
C1689 H1682 0.950 . S
C1689 C1686 1.387 . S
C1690 C1691 1.387 . S
C1690 H1694 0.950 1_545 S
C1690 C1699 1.390 . S
C1691 C1690 1.387 . S
C1691 C1693 1.387 . S
H1692 C1699 0.950 . S
C1693 C1691 1.387 . S
C1693 C1695 1.390 . S
C1693 H1697 0.950 . S
H1694 C1690 0.950 1_565 S
C1695 C1693 1.390 . S
C1695 C1696 1.387 . S
C1695 H1698 0.950 . S
C1696 C1695 1.387 . S
C1696 C1699 1.387 . S
H1697 C1693 0.950 . S
H1698 C1695 0.950 . S
C1699 C1690 1.390 . S
C1699 H1692 0.950 . S
C1699 C1696 1.387 . S
C1700 C1701 1.387 . S
C1700 H1704 0.950 . S
C1700 C1709 1.390 . S
C1701 C1700 1.387 . S
C1701 C1703 1.387 . S
H1702 C1709 0.950 . S
C1703 C1701 1.387 . S
C1703 C1705 1.390 . S
C1703 H1707 0.950 . S
H1704 C1700 0.950 . S
C1705 C1703 1.390 . S
C1705 C1706 1.387 . S
C1705 H1708 0.950 . S
C1706 C1705 1.387 . S
C1706 C1709 1.387 . S
H1707 C1703 0.950 . S
H1708 C1705 0.950 . S
C1709 C1700 1.390 . S
C1709 H1702 0.950 . S
C1709 C1706 1.387 . S
C1710 C1711 1.387 . S
C1710 H1714 0.950 . S
C1710 C1719 1.390 . S
C1711 C1710 1.387 . S
C1711 C1713 1.387 . S
H1712 C1719 0.950 . S
C1713 C1711 1.387 . S
C1713 C1715 1.390 . S
C1713 H1717 0.950 . S
H1714 C1710 0.950 . S
C1715 C1713 1.390 . S
C1715 C1716 1.387 . S
C1715 H1718 0.950 . S
C1716 C1715 1.387 . S
C1716 C1719 1.387 . S
H1717 C1713 0.950 . S
H1718 C1715 0.950 . S
C1719 C1710 1.390 . S
C1719 H1712 0.950 . S
C1719 C1716 1.387 . S
C1720 C1721 1.387 . S
C1720 H1724 0.950 . S
C1720 C1729 1.390 . S
C1721 C1720 1.387 . S
C1721 C1723 1.387 . S
H1722 C1729 0.950 . S
C1723 C1721 1.387 . S
C1723 C1725 1.390 . S
C1723 H1727 0.950 . S
H1724 C1720 0.950 . S
C1725 C1723 1.390 . S
C1725 C1726 1.387 . S
C1725 H1728 0.950 . S
C1726 C1725 1.387 . S
C1726 C1729 1.387 . S
H1727 C1723 0.950 . S
H1728 C1725 0.950 . S
C1729 C1720 1.390 . S
C1729 H1722 0.950 . S
C1729 C1726 1.387 . S
C1730 C1731 1.387 . S
C1730 H1734 0.950 . S
C1730 C1739 1.390 . S
C1731 C1730 1.387 . S
C1731 C1733 1.387 . S
H1732 C1739 0.950 . S
C1733 C1731 1.387 . S
C1733 C1735 1.390 1_455 S
C1733 H1737 0.950 . S
H1734 C1730 0.950 . S
C1735 C1733 1.390 1_655 S
C1735 C1736 1.375 1_655 S
C1735 H1738 0.962 . S
C1736 C1735 1.375 1_455 S
C1736 C1739 1.387 . S
H1737 C1733 0.950 . S
H1738 C1735 0.962 . S
C1739 C1730 1.390 . S
C1739 H1732 0.950 . S
C1739 C1736 1.387 . S
C1740 C1741 1.387 . S
C1740 H1744 0.950 . S
C1740 C1749 1.390 1_655 S
C1741 C1740 1.387 . S
C1741 C1743 1.387 . S
H1742 C1749 0.950 . S
C1743 C1741 1.387 . S
C1743 C1745 1.390 1_655 S
C1743 H1747 0.950 . S
H1744 C1740 0.950 . S
C1745 C1743 1.390 1_455 S
C1745 C1746 1.387 . S
C1745 H1748 0.950 . S
C1746 C1745 1.387 . S
C1746 C1749 1.387 . S
H1747 C1743 0.950 . S
H1748 C1745 0.950 . S
C1749 C1740 1.390 1_455 S
C1749 H1742 0.950 . S
C1749 C1746 1.387 . S
C1750 C1751 1.387 . S
C1750 H1754 0.950 . S
C1750 C1759 1.390 . S
C1751 C1750 1.387 . S
C1751 C1753 1.387 . S
H1752 C1759 0.950 . S
C1753 C1751 1.387 . S
C1753 C1755 1.390 . S
C1753 H1757 0.950 . S
H1754 C1750 0.950 . S
C1755 C1753 1.390 . S
C1755 C1756 1.387 . S
C1755 H1758 0.950 . S
C1756 C1755 1.387 . S
C1756 C1759 1.387 . S
H1757 C1753 0.950 . S
H1758 C1755 0.950 . S
C1759 C1750 1.390 . S
C1759 H1752 0.950 . S
C1759 C1756 1.387 . S
C1760 C1761 1.387 . S
C1760 H1764 0.950 . S
C1760 C1769 1.390 1_545 S
C1761 C1760 1.387 . S
C1761 C1763 1.387 . S
H1762 C1769 0.950 . S
C1763 C1761 1.387 . S
C1763 C1765 1.390 1_545 S
C1763 H1767 0.950 . S
H1764 C1760 0.950 . S
C1765 C1763 1.390 1_565 S
C1765 C1766 1.387 . S
C1765 H1768 0.950 . S
C1766 C1765 1.387 . S
C1766 C1769 1.387 . S
H1767 C1763 0.950 . S
H1768 C1765 0.950 . S
C1769 C1760 1.390 1_565 S
C1769 H1762 0.950 . S
C1769 C1766 1.387 . S
C1770 C1771 1.387 . S
C1770 H1774 0.950 . S
C1770 C1779 1.390 1_545 S
C1771 C1770 1.387 . S
C1771 C1773 1.387 . S
H1772 C1779 0.950 . S
C1773 C1771 1.387 . S
C1773 C1775 1.390 1_545 S
C1773 H1777 0.950 . S
H1774 C1770 0.950 . S
C1775 C1773 1.390 1_565 S
C1775 C1776 1.387 . S
C1775 H1778 0.950 . S
C1776 C1775 1.387 . S
C1776 C1779 1.387 . S
H1777 C1773 0.950 . S
H1778 C1775 0.950 . S
C1779 C1770 1.390 1_565 S
C1779 H1772 0.950 . S
C1779 C1776 1.387 . S
C1780 C1781 1.387 . S
C1780 H1784 0.950 . S
C1780 C1789 1.390 1_655 S
C1781 C1780 1.387 . S
C1781 C1783 1.387 . S
H1782 C1789 0.950 . S
C1783 C1781 1.387 . S
C1783 C1785 1.390 1_655 S
C1783 H1787 0.950 . S
H1784 C1780 0.950 . S
C1785 C1783 1.390 1_455 S
C1785 C1786 1.387 . S
C1785 H1788 0.950 . S
C1786 C1785 1.387 . S
C1786 C1789 1.387 . S
H1787 C1783 0.950 . S
H1788 C1785 0.950 . S
C1789 C1780 1.390 1_455 S
C1789 H1782 0.950 . S
C1789 C1786 1.387 . S
C1790 C1791 1.387 . S
C1790 H1794 0.950 . S
C1790 C1799 1.390 . S
C1791 C1790 1.387 . S
C1791 C1793 1.387 . S
H1792 C1799 0.950 . S
C1793 C1791 1.387 . S
C1793 C1795 1.390 . S
C1793 H1797 0.950 . S
H1794 C1790 0.950 . S
C1795 C1793 1.390 . S
C1795 C1796 1.387 . S
C1795 H1798 0.950 . S
C1796 C1795 1.387 . S
C1796 C1799 1.387 . S
H1797 C1793 0.950 . S
H1798 C1795 0.950 . S
C1799 C1790 1.390 . S
C1799 H1792 0.950 . S
C1799 C1796 1.387 . S
C721 C2 1.790 . S
C726 C158 1.790 1_545 S
C731 C178 1.788 1_655 S
C736 C22 1.789 . S
C741 C138 1.789 . S
C746 C42 1.788 . S
C751 C238 1.789 1_455 S
C756 C62 1.788 . S
C761 C82 1.790 . S
C766 C198 1.790 . S
C771 C102 1.790 . S
C776 C218 1.789 1_565 S
C781 C39 1.789 1_565 S
C786 C121 1.790 . S
C791 C141 1.789 . S
C796 C59 1.790 1_455 S
C801 C19 1.789 . S
C806 C161 1.788 . S
C811 C119 1.790 1_655 S
C816 C181 1.790 . S
C821 C201 1.790 . S
C826 C79 1.790 . S
C831 C221 1.789 . S
C836 C99 1.788 1_545 S
C841 C242 1.789 . S
C846 C398 1.788 . S
C851 C418 1.788 . S
C856 C262 1.789 . S
C861 C378 1.789 . S
C866 C282 1.788 . S
C871 C302 1.788 . S
C876 C478 1.789 . S
C881 C438 1.788 . S
C886 C322 1.789 . S
C891 C342 1.790 . S
C896 C458 1.790 . S
C901 C361 1.790 . S
C906 C279 1.789 . S
C911 C299 1.788 . S
C916 C381 1.789 . S
C921 C401 1.788 . S
C926 C259 1.789 . S
C931 C359 1.790 . S
C936 C421 1.790 . S
C941 C319 1.790 . S
C946 C441 1.789 . S
C951 C461 1.789 . S
C956 C339 1.790 . S
C961 C482 1.788 . S
C966 C638 1.789 . S
C971 C502 1.789 . S
C976 C658 1.788 . S
C981 C618 1.789 . S
C986 C522 1.788 . S
C991 C718 1.789 . S
C996 C542 1.788 . S
C1001 C562 1.789 . S
C1006 C678 1.789 . S
C1011 C698 1.789 . S
C1016 C582 1.790 . S
C1021 C519 1.790 . S
C1026 C601 1.789 . S
C1031 C621 1.789 . S
C1036 C539 1.790 . S
C1041 C499 1.789 . S
C1046 C641 1.788 . S
C1051 C661 1.790 . S
C1056 C599 1.790 . S
C1061 C681 1.789 . S
C1066 C559 1.789 . S
C1071 C701 1.789 . S
C1076 C579 1.790 . S
C1081 C18 1.695 . S
C1086 C379 1.695 . S
C1091 C38 1.694 . S
C1096 C399 1.694 . S
C1101 C419 1.697 . S
C1106 C58 1.697 . S
C1111 C679 1.697 . S
C1116 C78 1.697 . S
C1121 C699 1.697 . S
C1126 C98 1.697 . S
C1131 C719 1.696 . S
C1136 C118 1.696 . S
C1141 C139 1.697 . S
C1146 C498 1.697 . S
C1151 C518 1.696 . S
C1156 C159 1.696 . S
C1161 C179 1.696 . S
C1166 C538 1.696 . S
C1171 C199 1.695 . S
C1176 C318 1.695 . S
C1181 C219 1.695 . S
C1186 C338 1.695 . S
C1191 C239 1.695 . S
C1196 C358 1.695 . S
C1201 C258 1.696 . S
C1206 C619 1.696 . S
C1211 C639 1.696 . S
C1216 C278 1.696 . S
C1221 C298 1.695 . S
C1226 C659 1.695 . S
C1231 C558 1.697 . S
C1236 C439 1.697 . S
C1241 C459 1.695 . S
C1246 C578 1.695 . S
C1251 C598 1.696 . S
C1256 C479 1.696 . S
C1261 C9 1.603 . S
C1266 C329 1.605 . S
C1271 C29 1.606 . S
C1276 C349 1.607 . S
C1281 C309 1.603 . S
C1286 C49 1.603 . S
C1291 C69 1.607 . S
C1296 C529 1.607 . S
C1301 C489 1.604 . S
C1306 C89 1.602 . S
C1311 C109 1.605 . S
C1316 C509 1.603 . S
C1321 C688 1.603 . S
C1326 C128 1.605 . S
C1331 C148 1.607 . S
C1336 C708 1.606 . S
C1341 C668 1.607 . S
C1346 C168 1.607 . S
C1351 C188 1.603 . S
C1356 C408 1.603 . S
C1361 C208 1.602 . S
C1366 C368 1.604 . S
C1371 C228 1.604 . S
C1376 C388 1.602 . S
C1381 C569 1.607 . S
C1386 C249 1.605 . S
C1391 C269 1.603 . S
C1396 C589 1.605 . S
C1401 C289 1.603 . S
C1406 C549 1.603 . S
C1411 C648 1.603 . S
C1416 C428 1.603 . S
C1421 C608 1.605 . S
C1426 C448 1.607 . S
C1431 C628 1.606 . S
C1436 C468 1.607 . S
C1441 C68 1.793 . S
C1446 C8 1.792 . S
C1451 C28 1.794 . S
C1456 C88 1.794 . S
C1461 C48 1.794 . S
C1466 C108 1.794 . S
C1471 C189 1.793 . S
C1476 C129 1.792 . S
C1481 C149 1.792 . S
C1486 C209 1.792 . S
C1491 C229 1.794 . S
C1496 C169 1.793 . S
C1501 C308 1.792 . S
C1506 C248 1.792 . S
C1511 C268 1.794 . S
C1516 C328 1.794 . S
C1521 C288 1.793 . S
C1526 C348 1.793 . S
C1531 C369 1.794 . S
C1536 C429 1.793 1_554 S
C1541 C389 1.792 . S
C1546 C449 1.792 1_554 S
C1551 C409 1.792 . S
C1556 C469 1.792 1_554 S
C1561 C488 1.792 . S
C1566 C548 1.792 1_556 S
C1571 C568 1.792 1_556 S
C1576 C508 1.792 . S
C1581 C588 1.794 1_556 S
C1586 C528 1.794 . S
C1591 C609 1.792 . S
C1596 C669 1.793 . S
C1601 C689 1.792 . S
C1606 C629 1.792 . S
C1611 C649 1.794 . S
C1616 C709 1.794 . S
C1621 C1 0.898 . S
C1626 C581 0.898 . S
C1631 C541 0.900 . S
C1636 C21 0.895 1_565 S
C1641 C41 0.900 1_455 S
C1646 C561 0.895 . S
C1651 C261 0.895 . S
C1656 C61 0.900 . S
C1661 C81 0.900 1_545 S
C1666 C281 0.895 . S
C1671 C101 0.895 1_655 S
C1676 C241 0.900 . S
C1681 C462 0.897 . S
C1686 C122 0.897 . S
C1691 C142 0.899 1_545 S
C1696 C422 0.895 . S
C1701 C442 0.900 . S
C1706 C162 0.895 1_655 S
C1711 C182 0.895 . S
C1716 C622 0.900 . S
C1721 C642 0.900 . S
C1726 C202 0.895 1_565 S
C1731 C602 0.897 . S
C1736 C222 0.898 1_455 S
C1741 C301 0.895 . S
C1746 C501 0.900 . S
C1751 C321 0.895 . S
C1756 C521 0.900 . S
C1761 C341 0.897 . S
C1766 C481 0.897 . S
C1771 C362 0.898 . S
C1776 C702 0.898 . S
C1781 C382 0.895 . S
C1786 C662 0.900 . S
C1791 C682 0.895 . S
C1796 C402 0.900 . S
