# Generated by pormake.
# Topology wmt, (6)-cn, num edge types: 1
# Building blocks:
#     Node 0, Type 0, BuildingBlock: BETDEL_clean_sbu_0, # of connection points: 6
#     Node 1, Type 0, BuildingBlock: BETDEL_clean_sbu_0, # of connection points: 6
#     Node 2, Type 0, BuildingBlock: BETDEL_clean_sbu_0, # of connection points: 6
#     Node 3, Type 0, BuildingBlock: BETDEL_clean_sbu_0, # of connection points: 6
#     Node 4, Type 0, BuildingBlock: BETDEL_clean_sbu_0, # of connection points: 6
#     Node 5, Type 0, BuildingBlock: BETDEL_clean_sbu_0, # of connection points: 6
#     Node 6, Type 0, BuildingBlock: BETDEL_clean_sbu_0, # of connection points: 6
#     Node 7, Type 0, BuildingBlock: BETDEL_clean_sbu_0, # of connection points: 6
#     Node 8, Type 0, BuildingBlock: BETDEL_clean_sbu_0, # of connection points: 6
#     Node 9, Type 0, BuildingBlock: BETDEL_clean_sbu_0, # of connection points: 6
#     Node 10, Type 0, BuildingBlock: BETDEL_clean_sbu_0, # of connection points: 6
#     Node 11, Type 0, BuildingBlock: BETDEL_clean_sbu_0, # of connection points: 6
#     Node 12, Type 0, BuildingBlock: BETDEL_clean_sbu_0, # of connection points: 6
#     Node 13, Type 0, BuildingBlock: BETDEL_clean_sbu_0, # of connection points: 6
#     Node 14, Type 0, BuildingBlock: BETDEL_clean_sbu_0, # of connection points: 6
#     Node 15, Type 0, BuildingBlock: BETDEL_clean_sbu_0, # of connection points: 6
#     Node 16, Type 0, BuildingBlock: BETDEL_clean_sbu_0, # of connection points: 6
#     Node 17, Type 0, BuildingBlock: BETDEL_clean_sbu_0, # of connection points: 6
#     Node 18, Type 0, BuildingBlock: BETDEL_clean_sbu_0, # of connection points: 6
#     Node 19, Type 0, BuildingBlock: BETDEL_clean_sbu_0, # of connection points: 6
#     Node 20, Type 0, BuildingBlock: BETDEL_clean_sbu_0, # of connection points: 6
#     Node 21, Type 0, BuildingBlock: BETDEL_clean_sbu_0, # of connection points: 6
#     Node 22, Type 0, BuildingBlock: BETDEL_clean_sbu_0, # of connection points: 6
#     Node 23, Type 0, BuildingBlock: BETDEL_clean_sbu_0, # of connection points: 6
#     Node 24, Type 0, BuildingBlock: BETDEL_clean_sbu_0, # of connection points: 6
#     Node 25, Type 0, BuildingBlock: BETDEL_clean_sbu_0, # of connection points: 6
#     Node 26, Type 0, BuildingBlock: BETDEL_clean_sbu_0, # of connection points: 6
#     Node 27, Type 0, BuildingBlock: BETDEL_clean_sbu_0, # of connection points: 6
#     Node 28, Type 0, BuildingBlock: BETDEL_clean_sbu_0, # of connection points: 6
#     Node 29, Type 0, BuildingBlock: BETDEL_clean_sbu_0, # of connection points: 6
#     Node 30, Type 0, BuildingBlock: BETDEL_clean_sbu_0, # of connection points: 6
#     Node 31, Type 0, BuildingBlock: BETDEL_clean_sbu_0, # of connection points: 6
#     Node 32, Type 0, BuildingBlock: BETDEL_clean_sbu_0, # of connection points: 6
#     Node 33, Type 0, BuildingBlock: BETDEL_clean_sbu_0, # of connection points: 6
#     Node 34, Type 0, BuildingBlock: BETDEL_clean_sbu_0, # of connection points: 6
#     Node 35, Type 0, BuildingBlock: BETDEL_clean_sbu_0, # of connection points: 6
#     Edge 36, Type (0, 0), None
#     Edge 37, Type (0, 0), None
#     Edge 38, Type (0, 0), None
#     Edge 39, Type (0, 0), None
#     Edge 40, Type (0, 0), None
#     Edge 41, Type (0, 0), None
#     Edge 42, Type (0, 0), None
#     Edge 43, Type (0, 0), None
#     Edge 44, Type (0, 0), None
#     Edge 45, Type (0, 0), None
#     Edge 46, Type (0, 0), None
#     Edge 47, Type (0, 0), None
#     Edge 48, Type (0, 0), None
#     Edge 49, Type (0, 0), None
#     Edge 50, Type (0, 0), None
#     Edge 51, Type (0, 0), None
#     Edge 52, Type (0, 0), None
#     Edge 53, Type (0, 0), None
#     Edge 54, Type (0, 0), None
#     Edge 55, Type (0, 0), None
#     Edge 56, Type (0, 0), None
#     Edge 57, Type (0, 0), None
#     Edge 58, Type (0, 0), None
#     Edge 59, Type (0, 0), None
#     Edge 60, Type (0, 0), None
#     Edge 61, Type (0, 0), None
#     Edge 62, Type (0, 0), None
#     Edge 63, Type (0, 0), None
#     Edge 64, Type (0, 0), None
#     Edge 65, Type (0, 0), None
#     Edge 66, Type (0, 0), None
#     Edge 67, Type (0, 0), None
#     Edge 68, Type (0, 0), None
#     Edge 69, Type (0, 0), None
#     Edge 70, Type (0, 0), None
#     Edge 71, Type (0, 0), None
#     Edge 72, Type (0, 0), None
#     Edge 73, Type (0, 0), None
#     Edge 74, Type (0, 0), None
#     Edge 75, Type (0, 0), None
#     Edge 76, Type (0, 0), None
#     Edge 77, Type (0, 0), None
#     Edge 78, Type (0, 0), None
#     Edge 79, Type (0, 0), None
#     Edge 80, Type (0, 0), None
#     Edge 81, Type (0, 0), None
#     Edge 82, Type (0, 0), None
#     Edge 83, Type (0, 0), None
#     Edge 84, Type (0, 0), None
#     Edge 85, Type (0, 0), None
#     Edge 86, Type (0, 0), None
#     Edge 87, Type (0, 0), None
#     Edge 88, Type (0, 0), None
#     Edge 89, Type (0, 0), None
#     Edge 90, Type (0, 0), None
#     Edge 91, Type (0, 0), None
#     Edge 92, Type (0, 0), None
#     Edge 93, Type (0, 0), None
#     Edge 94, Type (0, 0), None
#     Edge 95, Type (0, 0), None
#     Edge 96, Type (0, 0), None
#     Edge 97, Type (0, 0), None
#     Edge 98, Type (0, 0), None
#     Edge 99, Type (0, 0), None
#     Edge 100, Type (0, 0), None
#     Edge 101, Type (0, 0), None
#     Edge 102, Type (0, 0), None
#     Edge 103, Type (0, 0), None
#     Edge 104, Type (0, 0), None
#     Edge 105, Type (0, 0), None
#     Edge 106, Type (0, 0), None
#     Edge 107, Type (0, 0), None
#     Edge 108, Type (0, 0), None
#     Edge 109, Type (0, 0), None
#     Edge 110, Type (0, 0), None
#     Edge 111, Type (0, 0), None
#     Edge 112, Type (0, 0), None
#     Edge 113, Type (0, 0), None
#     Edge 114, Type (0, 0), None
#     Edge 115, Type (0, 0), None
#     Edge 116, Type (0, 0), None
#     Edge 117, Type (0, 0), None
#     Edge 118, Type (0, 0), None
#     Edge 119, Type (0, 0), None
#     Edge 120, Type (0, 0), None
#     Edge 121, Type (0, 0), None
#     Edge 122, Type (0, 0), None
#     Edge 123, Type (0, 0), None
#     Edge 124, Type (0, 0), None
#     Edge 125, Type (0, 0), None
#     Edge 126, Type (0, 0), None
#     Edge 127, Type (0, 0), None
#     Edge 128, Type (0, 0), None
#     Edge 129, Type (0, 0), None
#     Edge 130, Type (0, 0), None
#     Edge 131, Type (0, 0), None
#     Edge 132, Type (0, 0), None
#     Edge 133, Type (0, 0), None
#     Edge 134, Type (0, 0), None
#     Edge 135, Type (0, 0), None
#     Edge 136, Type (0, 0), None
#     Edge 137, Type (0, 0), None
#     Edge 138, Type (0, 0), None
#     Edge 139, Type (0, 0), None
#     Edge 140, Type (0, 0), None
#     Edge 141, Type (0, 0), None
#     Edge 142, Type (0, 0), None
#     Edge 143, Type (0, 0), None
# Relax obj value: 0.378
# Max RMSD: 0.200
# Mean RMSD: 0.200
data_MOF--net-wmt--node1-BETDEL_clean_sbu_0--edge1-none
_symmetry_space_group_name_H-M    P1
_symmetry_Int_Tables_number       1
_symmetry_cell_setting            triclinic
loop_
_symmetry_equiv_pos_as_xyz
'x, y, z'
_cell_length_a     37.872317
_cell_length_b     37.873589
_cell_length_c     12.386224
_cell_angle_alpha  90.0024
_cell_angle_beta   89.995638
_cell_angle_gamma 120.00449
loop_
_atom_site_label
_atom_site_type_symbol
_atom_site_fract_x
_atom_site_fract_y
_atom_site_fract_z
_atom_type_partial_charge
Dy0 Dy 0.03486 0.46491 0.26266 0.0
C1 C -0.04717 0.33384 0.96976 0.0
C2 C 0.04945 0.51885 0.42202 0.0
Dy3 Dy -0.02245 0.39618 0.11215 0.0
O4 O 0.05989 0.49082 0.42655 0.0
O5 O 0.03593 0.5201 0.32663 0.0
O6 O 0.09086 0.47131 0.17466 0.0
O7 O 0.0369 0.41565 0.17861 0.0
C8 C 0.07135 0.43485 0.1324 0.0
C9 C -0.04586 0.45041 0.15063 0.0
O10 O -0.05177 0.3651 0.26956 0.0
O11 O -0.00339 0.41452 0.3827 0.0
O12 O 0.92908 0.33864 1.03703 0.0
O13 O -0.01021 0.36106 0.99031 0.0
O14 O 0.94551 0.42988 1.0606 0.0
O15 O -0.02886 0.43809 0.21638 0.0
O16 O 0.04332 0.50166 0.11402 0.0
O17 O 0.01661 0.44643 0.99633 0.0
C18 C -0.03814 0.37966 0.36777 0.0
C19 C 0.03786 0.48618 1.01564 0.0
Dy20 Dy 0.44715 0.55243 0.26272 0.0
C21 C 0.5782 0.60144 0.96978 0.0
C22 C 0.39321 0.51311 0.42212 0.0
Dy23 Dy 0.51586 0.56383 0.11219 0.0
O24 O 0.42126 0.55158 0.42664 0.0
O25 O 0.39195 0.49833 0.32672 0.0
O26 O 0.44076 0.60203 0.17473 0.0
O27 O 0.49641 0.60373 0.17866 0.0
C28 C 0.47721 0.61898 0.13246 0.0
C29 C 0.46162 0.48619 0.15065 0.0
O30 O 0.54695 0.5656 0.26958 0.0
O31 O 0.49753 0.56456 0.38275 0.0
O32 O 0.5734 0.5729 1.03709 0.0
O33 O 0.55097 0.61117 0.99029 0.0
O34 O 0.48215 0.49809 1.06062 0.0
O35 O 0.47395 0.51551 0.21642 0.0
O36 O 0.41039 0.52414 0.11411 0.0
O37 O 0.46561 0.55265 0.9964 0.0
C38 C 0.5324 0.56468 0.36779 0.0
C39 C 0.42586 0.53415 1.01572 0.0
Dy40 Dy 0.35963 0.87721 0.26268 0.0
C41 C 0.31063 0.95926 0.96979 0.0
C42 C 0.39896 0.8626 0.42204 0.0
Dy43 Dy 0.34824 0.93453 0.11218 0.0
O44 O 0.36048 0.85217 0.42658 0.0
O45 O 0.41373 0.87611 0.32665 0.0
O46 O 0.31001 0.82123 0.17468 0.0
O47 O 0.30833 0.87518 0.17863 0.0
C48 C 0.29307 0.84074 0.13242 0.0
C49 C 0.42588 0.95793 0.15061 0.0
O50 O 0.34648 0.96385 0.26959 0.0
O51 O 0.34751 0.91547 0.38273 0.0
O52 O 0.33918 -0.01699 1.03709 0.0
O53 O 0.30089 0.9223 0.99032 0.0
O54 O 0.41398 -0.03344 1.0606 0.0
O55 O 0.39655 0.94093 0.21639 0.0
O56 O 0.38791 0.86874 0.11404 0.0
O57 O 0.35941 0.89546 0.99636 0.0
C58 C 0.34741 0.95023 0.3678 0.0
C59 C 0.3779 0.87421 1.01566 0.0
Dy60 Dy 0.4473 0.05249 0.56555 0.0
C61 C 0.31628 -0.02954 0.85839 0.0
C62 C 0.50124 0.0671 0.40615 0.0
Dy63 Dy 0.37858 -0.00483 0.71609 0.0
O64 O 0.47319 0.07753 0.40163 0.0
O65 O 0.5025 0.05359 0.50154 0.0
O66 O 0.4537 0.10848 0.65353 0.0
O67 O 0.39804 0.05452 0.64963 0.0
C68 C 0.41724 0.08898 0.69582 0.0
C69 C 0.43281 -0.02822 0.6776 0.0
O70 O 0.34749 -0.03415 0.55868 0.0
O71 O 0.39691 0.01425 0.44552 0.0
O72 O 0.32104 0.94667 0.79119 0.0
O73 O 0.34348 0.00744 0.83797 0.0
O74 O 0.41229 0.96315 0.76764 0.0
O75 O 0.42049 -0.01123 0.61184 0.0
O76 O 0.48406 0.06096 0.71416 0.0
O77 O 0.42884 0.03424 0.83188 0.0
C78 C 0.36204 -0.0205 0.46048 0.0
C79 C 0.46858 0.0555 0.81255 0.0
Dy80 Dy 0.85958 0.37724 0.56557 0.0
C81 C 0.94165 0.32829 0.85834 0.0
C82 C 0.84496 0.41656 0.4062 0.0
Dy83 Dy 0.91693 0.36587 0.71608 0.0
O84 O 0.83454 0.37809 0.40168 0.0
O85 O 0.85847 0.43134 0.50159 0.0
O86 O 0.8036 0.32764 0.65356 0.0
O87 O 0.85756 0.32596 0.64965 0.0
C88 C 0.82311 0.3107 0.69585 0.0
C89 C 0.9403 0.44349 0.67762 0.0
O90 O 0.94624 0.36411 0.55865 0.0
O91 O 0.89783 0.36511 0.44552 0.0
O92 O -0.03456 0.35686 0.79117 0.0
O93 O 0.90467 0.31849 0.8379 0.0
O94 O -0.05106 0.4316 0.76763 0.0
O95 O 0.92331 0.41417 0.61185 0.0
O96 O 0.85112 0.40552 0.71421 0.0
O97 O 0.87785 0.37704 0.8319 0.0
C98 C 0.93258 0.365 0.46046 0.0
C99 C 0.85659 0.39551 0.81259 0.0
Dy100 Dy 0.53479 0.4648 0.56553 0.0
C101 C 0.58377 0.59581 0.85838 0.0
C102 C 0.49548 0.41087 0.40613 0.0
Dy103 Dy 0.54619 0.53352 0.71607 0.0
O104 O 0.53395 0.43893 0.40161 0.0
O105 O 0.4807 0.4096 0.50153 0.0
O106 O 0.58438 0.45841 0.65349 0.0
O107 O 0.58608 0.51406 0.64961 0.0
C108 C 0.60133 0.49485 0.6958 0.0
C109 C 0.46855 0.47928 0.67763 0.0
O110 O 0.54796 0.5646 0.55866 0.0
O111 O 0.54693 0.51519 0.4455 0.0
O112 O 0.55523 0.59106 0.79115 0.0
O113 O 0.59355 0.56861 0.83798 0.0
O114 O 0.48045 0.49981 0.76764 0.0
O115 O 0.49788 0.49161 0.61185 0.0
O116 O 0.5065 0.42805 0.71415 0.0
O117 O 0.535 0.48327 0.83186 0.0
C118 C 0.54706 0.55006 0.46046 0.0
C119 C 0.51651 0.44353 0.81253 0.0
Dy120 Dy 0.91689 0.53345 0.2162 0.0
C121 C 0.84507 0.41088 0.90625 0.0
C122 C 0.94158 0.59582 0.35852 0.0
Dy123 Dy 0.85962 0.4648 1.06547 0.0
O124 O -0.03466 0.59102 0.29127 0.0
O125 O 0.90462 0.56859 0.33796 0.0
O126 O -0.05098 0.49989 0.26772 0.0
O127 O 0.92336 0.49157 0.11171 0.0
C128 C 0.94048 0.47942 0.17763 0.0
C129 C 0.82317 0.49492 0.19584 0.0
O130 O 0.85111 0.42802 0.21412 0.0
O131 O 0.87781 0.4832 0.33194 0.0
O132 O 0.83454 0.43885 0.90168 0.0
O133 O 0.8586 0.40964 1.00161 0.0
O134 O 0.80364 0.45846 0.1536 0.0
O135 O 0.85759 0.514 0.1495 0.0
O136 O 0.94621 0.56456 1.05875 0.0
O137 O 0.89781 0.51521 0.94549 0.0
C138 C 0.85655 0.44347 0.31254 0.0
C139 C 0.93257 0.55006 0.9605 0.0
Dy140 Dy 0.37858 0.36589 0.21616 0.0
C141 C 0.50115 0.41664 0.90618 0.0
C142 C 0.31622 0.32821 0.35853 0.0
Dy143 Dy 0.44723 0.37728 1.06543 0.0
O144 O 0.32098 0.35672 0.29115 0.0
O145 O 0.34349 0.31853 0.33808 0.0
O146 O 0.41213 0.43158 0.26772 0.0
O147 O 0.42046 0.41425 0.11169 0.0
C148 C 0.43261 0.44352 0.17763 0.0
C149 C 0.41712 0.31072 0.19579 0.0
O150 O 0.48402 0.40557 0.21406 0.0
O151 O 0.42884 0.37708 0.33189 0.0
O152 O 0.47317 0.37814 0.90161 0.0
O153 O 0.5024 0.43142 1.00155 0.0
O154 O 0.45358 0.32766 0.15355 0.0
O155 O 0.39803 0.32605 0.14945 0.0
O156 O 0.34747 0.3641 1.05874 0.0
O157 O 0.39682 0.36507 0.94545 0.0
C158 C 0.46857 0.39555 0.31248 0.0
C159 C 0.36197 0.36498 0.96048 0.0
Dy160 Dy 0.54617 -0.00485 0.21613 0.0
C161 C 0.49547 0.06701 0.9062 0.0
C162 C 0.58383 -0.02956 0.35844 0.0
Dy163 Dy 0.53482 0.05243 1.06542 0.0
O164 O 0.55529 0.94669 0.29114 0.0
O165 O 0.59355 0.00739 0.33794 0.0
O166 O 0.48047 0.96303 0.26768 0.0
O167 O 0.49782 -0.01131 0.11165 0.0
C168 C 0.46855 -0.02843 0.1776 0.0
C169 C 0.60138 0.08886 0.19582 0.0
O170 O 0.50654 0.06094 0.21407 0.0
O171 O 0.535 0.03422 0.33189 0.0
O172 O 0.53397 0.07752 0.90162 0.0
O173 O 0.48068 0.05347 1.00156 0.0
O174 O 0.58446 0.1084 0.15358 0.0
O175 O 0.58603 0.05444 0.14946 0.0
O176 O 0.54795 -0.03417 1.05868 0.0
O177 O 0.54703 0.01423 0.94543 0.0
C178 C 0.51654 0.0555 0.31249 0.0
C179 C 0.54709 -0.02053 0.96043 0.0
Dy180 Dy 0.51586 0.93454 0.61203 0.0
C181 C 0.39328 0.8627 0.922 0.0
C182 C 0.5782 0.95923 0.46985 0.0
Dy183 Dy 0.44721 0.87726 0.76277 0.0
O184 O 0.57344 -0.01698 0.53706 0.0
O185 O 0.55098 0.92225 0.49025 0.0
O186 O 0.4823 -0.03333 0.56051 0.0
O187 O 0.47398 0.941 0.71653 0.0
C188 C 0.46183 0.95812 0.6506 0.0
C189 C 0.47732 0.84082 0.63238 0.0
O190 O 0.41042 0.86875 0.61412 0.0
O191 O 0.4656 0.89547 0.49629 0.0
O192 O 0.42124 0.85217 0.92656 0.0
O193 O 0.39204 0.87625 0.82664 0.0
O194 O 0.44086 0.82128 0.67463 0.0
O195 O 0.4964 0.87524 0.67873 0.0
O196 O 0.54696 0.96385 0.76949 0.0
O197 O 0.49762 0.91543 0.88276 0.0
C198 C 0.42587 0.8742 0.5157 0.0
C199 C 0.53246 0.95019 0.86774 0.0
Dy200 Dy -0.02252 0.56377 0.61208 0.0
C201 C 0.04936 0.51306 0.92198 0.0
C202 C -0.04724 0.60139 0.46995 0.0
Dy203 Dy 0.03478 0.55242 0.76277 0.0
O204 O 0.92897 0.5728 0.53709 0.0
O205 O -0.01026 0.6112 0.4904 0.0
O206 O 0.94538 0.49807 0.56054 0.0
O207 O -0.02896 0.51543 0.71656 0.0
C208 C -0.04607 0.48616 0.65063 0.0
C209 C 0.07121 0.61897 0.63237 0.0
O210 O 0.0433 0.52415 0.6141 0.0
O211 O 0.01656 0.5526 0.49629 0.0
O212 O 0.05989 0.55156 0.92655 0.0
O213 O 0.03582 0.49827 0.82662 0.0
O214 O 0.09076 0.60206 0.67462 0.0
O215 O 0.03679 0.60362 0.67873 0.0
O216 O -0.05182 0.56554 0.76956 0.0
O217 O -0.00339 0.56465 0.88279 0.0
C218 C 0.03784 0.53415 0.51569 0.0
C219 C -0.03815 0.56472 0.86779 0.0
Dy220 Dy 0.34827 0.3962 0.6121 0.0
C221 C 0.39898 0.51878 0.92207 0.0
C222 C 0.31064 0.33387 0.46991 0.0
Dy223 Dy 0.35963 0.46485 0.76284 0.0
O224 O 0.33918 0.33863 0.53717 0.0
O225 O 0.30089 0.36109 0.49025 0.0
O226 O 0.41396 0.42978 0.56056 0.0
O227 O 0.39662 0.4381 0.71659 0.0
C228 C 0.42589 0.45026 0.65064 0.0
C229 C 0.29308 0.43473 0.63244 0.0
O230 O 0.38791 0.50164 0.6142 0.0
O231 O 0.35945 0.44646 0.49636 0.0
O232 O 0.36048 0.49079 0.92664 0.0
O233 O 0.41377 0.52003 0.82671 0.0
O234 O 0.31 0.47119 0.6747 0.0
O235 O 0.30841 0.41565 0.67878 0.0
O236 O 0.34648 0.36511 0.76955 0.0
O237 O 0.3474 0.41444 0.88283 0.0
C238 C 0.37791 0.48619 0.51577 0.0
C239 C 0.34731 0.3796 0.8678 0.0
Dy240 Dy 0.70153 0.79824 0.596 0.0
C241 C 0.61948 0.66718 0.30309 0.0
C242 C 0.71616 0.85218 0.75538 0.0
Dy243 Dy 0.64421 0.72952 0.44548 0.0
O244 O 0.72657 0.82413 0.7599 0.0
O245 O 0.70265 0.85344 0.65999 0.0
O246 O 0.75752 0.80462 0.50801 0.0
O247 O 0.70356 0.74897 0.51195 0.0
C248 C 0.73801 0.76816 0.46574 0.0
C249 C 0.62082 0.78377 0.48395 0.0
O250 O 0.61489 0.69844 0.60289 0.0
O251 O 0.66327 0.74785 0.71603 0.0
O252 O 0.59573 0.67199 0.37035 0.0
O253 O 0.65644 0.6944 0.32363 0.0
O254 O 0.61219 0.76324 0.39393 0.0
O255 O 0.63781 0.77144 0.54971 0.0
O256 O 0.71001 0.83499 0.44737 0.0
O257 O 0.68329 0.77977 0.32967 0.0
C258 C 0.62852 0.71299 0.70109 0.0
C259 C 0.70455 0.81951 0.34899 0.0
Dy260 Dy 0.11379 0.88577 0.59609 0.0
C261 C 0.24484 0.93475 0.30314 0.0
C262 C 0.05984 0.84646 0.75549 0.0
Dy263 Dy 0.18249 0.89714 0.44554 0.0
O264 O 0.08791 0.88493 0.76001 0.0
O265 O 0.05858 0.83169 0.66009 0.0
O266 O 0.10743 0.93539 0.5081 0.0
O267 O 0.16307 0.93706 0.51202 0.0
C268 C 0.14388 0.95232 0.46582 0.0
C269 C 0.12823 0.81951 0.484 0.0
O270 O 0.21358 0.89891 0.60293 0.0
O271 O 0.16418 0.8979 0.7161 0.0
O272 O 0.24001 0.90619 0.37039 0.0
O273 O 0.21762 0.9445 0.32369 0.0
O274 O 0.14875 0.83141 0.39397 0.0
O275 O 0.14057 0.84883 0.54978 0.0
O276 O 0.07702 0.85749 0.44748 0.0
O277 O 0.13224 0.88598 0.32976 0.0
C278 C 0.19904 0.898 0.70114 0.0
C279 C 0.09249 0.8675 0.34909 0.0
Dy280 Dy 0.02632 0.21054 0.59603 0.0
C281 C -0.02269 0.29259 0.30313 0.0
C282 C 0.06564 0.19592 0.75539 0.0
Dy283 Dy 0.01492 0.26786 0.44551 0.0
O284 O 0.02717 0.1855 0.75992 0.0
O285 O 0.08042 0.20944 0.66 0.0
O286 O -0.02328 0.15455 0.50803 0.0
O287 O -0.02497 0.2085 0.51196 0.0
C288 C -0.04022 0.17406 0.46575 0.0
C289 C 0.09256 0.29126 0.48395 0.0
O290 O 0.01316 0.29717 0.60293 0.0
O291 O 0.01419 0.24879 0.71607 0.0
O292 O 0.00587 0.31634 0.37039 0.0
O293 O -0.03244 0.25563 0.32368 0.0
O294 O 0.08067 0.29989 0.39394 0.0
O295 O 0.06323 0.27426 0.54973 0.0
O296 O 0.05461 0.20208 0.44739 0.0
O297 O 0.0261 0.22879 0.32969 0.0
C298 C 0.01408 0.28354 0.70113 0.0
C299 C 0.04459 0.20754 0.34901 0.0
Dy300 Dy 0.11395 0.38581 0.8989 0.0
C301 C -0.01707 0.30377 0.19171 0.0
C302 C 0.16788 0.4004 0.7395 0.0
Dy303 Dy 0.04523 0.32847 1.04943 0.0
O304 O 0.13984 0.41084 0.73498 0.0
O305 O 0.16914 0.38689 0.8349 0.0
O306 O 0.12035 0.44181 0.98688 0.0
O307 O 0.0647 0.38783 0.98305 0.0
C308 C 0.08392 0.42227 1.02929 0.0
C309 C 0.09947 0.30509 1.01093 0.0
O310 O 0.01415 0.29916 0.89201 0.0
O311 O 0.06356 0.34758 0.77887 0.0
O312 O -0.0123 0.27997 0.12455 0.0
O313 O 0.01011 0.34074 0.17125 0.0
O314 O 0.07895 0.29645 0.10096 0.0
O315 O 0.08715 0.32209 0.94518 0.0
O316 O 0.15071 0.39428 1.04752 0.0
O317 O 0.09548 0.36752 0.16525 0.0
C318 C 0.0287 0.31282 0.79382 0.0
C319 C 0.13523 0.38879 0.14591 0.0
Dy320 Dy 0.52626 0.71059 0.89891 0.0
C321 C 0.6083 0.66162 0.19167 0.0
C322 C 0.51166 0.74993 0.73953 0.0
Dy323 Dy 0.5836 0.69921 1.04941 0.0
O324 O 0.50123 0.71145 0.735 0.0
O325 O 0.52518 0.7647 0.83492 0.0
O326 O 0.47025 0.661 0.98691 0.0
O327 O 0.52423 0.65932 0.98306 0.0
C328 C 0.48979 0.6441 1.02932 0.0
C329 C 0.60699 0.77684 1.01093 0.0
O330 O 0.6129 0.69745 0.89197 0.0
O331 O 0.56449 0.69843 0.77886 0.0
O332 O 0.6321 0.69018 0.1245 0.0
O333 O 0.57132 0.65182 0.17122 0.0
O334 O 0.61563 0.76495 0.10094 0.0
O335 O 0.58999 0.74751 0.94517 0.0
O336 O 0.5178 0.73889 1.04754 0.0
O337 O 0.54456 0.71042 0.16525 0.0
C338 C 0.59924 0.69833 0.79379 0.0
C339 C 0.52329 0.72889 0.14592 0.0
Dy340 Dy 0.20143 0.79815 0.89891 0.0
C341 C 0.25043 0.92916 0.19172 0.0
C342 C 0.1621 0.74422 0.73952 0.0
Dy343 Dy 0.21282 0.86687 1.04944 0.0
O344 O 0.20057 0.77227 0.73499 0.0
O345 O 0.14732 0.74297 0.83491 0.0
O346 O 0.25103 0.79175 0.9869 0.0
O347 O 0.25272 0.8474 0.98306 0.0
C348 C 0.26793 0.82817 1.0293 0.0
C349 C 0.13519 0.81264 1.01098 0.0
O350 O 0.21459 0.89794 0.89201 0.0
O351 O 0.2136 0.84854 0.77888 0.0
O352 O 0.22187 0.92441 0.12454 0.0
O353 O 0.26022 0.90198 0.17125 0.0
O354 O 0.14708 0.83317 0.10099 0.0
O355 O 0.16452 0.82496 0.94521 0.0
O356 O 0.17313 0.76139 1.04753 0.0
O357 O 0.2016 0.81662 0.16525 0.0
C358 C 0.2137 0.8834 0.79382 0.0
C359 C 0.18313 0.77687 0.14592 0.0
Dy360 Dy 0.5836 0.86683 0.54952 0.0
C361 C 0.51176 0.74426 0.23958 0.0
C362 C 0.6083 0.92919 0.69182 0.0
Dy363 Dy 0.52632 0.79818 0.3988 0.0
O364 O 0.63205 0.92441 0.62452 0.0
O365 O 0.57134 0.90196 0.6713 0.0
O366 O 0.61573 0.83327 0.60103 0.0
O367 O 0.59006 0.82494 0.44502 0.0
C368 C 0.60718 0.81279 0.51094 0.0
C369 C 0.48989 0.82826 0.52928 0.0
O370 O 0.51781 0.76139 0.54745 0.0
O371 O 0.54454 0.81657 0.66528 0.0
O372 O 0.50123 0.77223 0.235 0.0
O373 O 0.5253 0.74301 0.33494 0.0
O374 O 0.47032 0.79182 0.48693 0.0
O375 O 0.52429 0.84736 0.48289 0.0
O376 O 0.61292 0.89792 0.39206 0.0
O377 O 0.56451 0.84859 0.27881 0.0
C378 C 0.52327 0.77684 0.64587 0.0
C379 C 0.59928 0.88342 0.2938 0.0
Dy380 Dy 0.04518 0.69922 0.54953 0.0
C381 C 0.16775 0.74998 0.23956 0.0
C382 C -0.01717 0.66153 0.69189 0.0
Dy383 Dy 0.11384 0.71061 0.3988 0.0
O384 O -0.01243 0.69002 0.62448 0.0
O385 O 0.01011 0.65186 0.67145 0.0
O386 O 0.07872 0.76491 0.60107 0.0
O387 O 0.08707 0.74758 0.44506 0.0
C388 C 0.09921 0.77684 0.51099 0.0
C389 C 0.08376 0.64409 0.52926 0.0
O390 O 0.15063 0.73891 0.54743 0.0
O391 O 0.09545 0.71044 0.66528 0.0
O392 O 0.13978 0.71148 0.23498 0.0
O393 O 0.16901 0.76476 0.33494 0.0
O394 O 0.12021 0.66098 0.48691 0.0
O395 O 0.06465 0.65938 0.48287 0.0
O396 O 0.01408 0.69744 0.39209 0.0
O397 O 0.06343 0.69839 0.27882 0.0
C398 C 0.13518 0.72891 0.64586 0.0
C399 C 0.02859 0.69831 0.29383 0.0
Dy400 Dy 0.21284 0.32847 0.54949 0.0
C401 C 0.16212 0.40031 0.23956 0.0
C402 C 0.25051 0.30377 0.69177 0.0
Dy403 Dy 0.20148 0.38575 0.39877 0.0
O404 O 0.22197 0.28002 0.62447 0.0
O405 O 0.26023 0.34073 0.67126 0.0
O406 O 0.14714 0.29633 0.601 0.0
O407 O 0.1645 0.32201 0.44499 0.0
C408 C 0.13522 0.30489 0.51093 0.0
C409 C 0.26798 0.42218 0.52929 0.0
O410 O 0.17319 0.39425 0.54742 0.0
O411 O 0.20163 0.36751 0.66526 0.0
O412 O 0.20062 0.41084 0.23497 0.0
O413 O 0.14733 0.38677 0.33492 0.0
O414 O 0.25111 0.44174 0.48692 0.0
O415 O 0.25268 0.38778 0.48288 0.0
O416 O 0.21462 0.29916 0.39202 0.0
O417 O 0.21372 0.34758 0.27878 0.0
C418 C 0.18318 0.38879 0.64585 0.0
C419 C 0.21378 0.31281 0.29377 0.0
Dy420 Dy 0.18254 0.26787 0.94538 0.0
C421 C 0.05996 0.19602 0.25535 0.0
C422 C 0.24487 0.29256 0.80318 0.0
Dy423 Dy 0.11389 0.21059 0.09611 0.0
O424 O 0.24012 0.31635 0.87039 0.0
O425 O 0.21766 0.25559 0.82358 0.0
O426 O 0.14897 0.29999 0.89384 0.0
O427 O 0.14065 0.27433 1.04986 0.0
C428 C 0.1285 0.29144 0.98393 0.0
C429 C 0.14401 0.17415 0.96575 0.0
O430 O 0.0771 0.20208 0.94747 0.0
O431 O 0.13229 0.2288 0.82964 0.0
O432 O 0.08794 0.1855 0.25992 0.0
O433 O 0.05871 0.20956 0.15999 0.0
O434 O 0.10755 0.15462 1.008 0.0
O435 O 0.16309 0.20857 1.01208 0.0
O436 O 0.21364 0.29719 0.10283 0.0
O437 O 0.1643 0.24877 0.2161 0.0
C438 C 0.09255 0.20752 0.84905 0.0
C439 C 0.19914 0.28353 0.20107 0.0
Dy440 Dy 0.64421 0.89712 0.94539 0.0
C441 C 0.71606 0.8464 0.25533 0.0
C442 C 0.61951 0.93475 0.80323 0.0
Dy443 Dy 0.70149 0.88575 0.09611 0.0
O444 O 0.59571 0.90619 0.87042 0.0
O445 O 0.65648 0.94453 0.82362 0.0
O446 O 0.61208 0.83143 0.89385 0.0
O447 O 0.63775 0.84877 1.04987 0.0
C448 C 0.62063 0.8195 0.98393 0.0
C449 C 0.73793 0.9523 0.96571 0.0
O450 O 0.71 0.85748 0.94745 0.0
O451 O 0.68328 0.88594 0.82964 0.0
O452 O 0.72659 0.8849 0.2599 0.0
O453 O 0.70252 0.83161 0.15997 0.0
O454 O 0.75747 0.93539 1.00797 0.0
O455 O 0.70351 0.93697 1.01206 0.0
O456 O 0.61489 0.8989 0.10286 0.0
O457 O 0.66331 0.89798 0.21611 0.0
C458 C 0.70456 0.86749 0.84903 0.0
C459 C 0.62856 0.89807 0.2011 0.0
Dy460 Dy 0.0149 0.72956 0.94545 0.0
C461 C 0.0656 0.85212 0.25544 0.0
C462 C -0.02272 0.66722 0.80327 0.0
Dy463 Dy 0.02625 0.79819 0.0962 0.0
O464 O 0.00581 0.67197 0.87053 0.0
O465 O -0.03246 0.69446 0.82357 0.0
O466 O 0.0806 0.76314 0.89391 0.0
O467 O 0.06325 0.77146 1.04994 0.0
C468 C 0.09252 0.78362 0.98399 0.0
C469 C -0.04031 0.76806 0.9658 0.0
O470 O 0.05453 0.835 0.94757 0.0
O471 O 0.02608 0.77982 0.82973 0.0
O472 O 0.0271 0.82414 0.26002 0.0
O473 O 0.08039 0.85337 0.16007 0.0
O474 O -0.02339 0.80451 1.00806 0.0
O475 O -0.02496 0.74898 1.01215 0.0
O476 O 0.01311 0.69846 0.1029 0.0
O477 O 0.01402 0.74778 0.21618 0.0
C478 C 0.04453 0.81955 0.84914 0.0
C479 C 0.01394 0.71294 0.20115 0.0
Dy480 Dy 0.36821 0.13157 0.92934 0.0
C481 C 0.28615 0.0005 0.63647 0.0
C482 C 0.38281 0.18551 1.08871 0.0
Dy483 Dy 0.31088 0.06285 0.77882 0.0
O484 O 0.39325 0.15747 1.09324 0.0
O485 O 0.3693 0.18676 0.99331 0.0
O486 O 0.42422 0.13798 0.84134 0.0
O487 O 0.37024 0.08233 0.8452 0.0
C488 C 0.40468 0.10154 0.79895 0.0
C489 C 0.28749 0.11709 0.81732 0.0
O490 O 0.28157 0.03178 0.93625 0.0
O491 O 0.32997 0.08118 1.04938 0.0
O492 O 0.2624 0.00532 0.7037 0.0
O493 O 0.32311 0.0277 0.65704 0.0
O494 O 0.27885 0.09656 0.72729 0.0
O495 O 0.30449 0.10476 0.88307 0.0
O496 O 0.37668 0.16833 0.7807 0.0
O497 O 0.34993 0.1131 0.66299 0.0
C498 C 0.2952 0.04632 1.03445 0.0
C499 C 0.3712 0.15285 0.68231 0.0
Dy500 Dy 0.78052 0.21908 0.92937 0.0
C501 C 0.91158 0.26812 0.63643 0.0
C502 C 0.72659 0.17974 1.08876 0.0
Dy503 Dy 0.84924 0.23048 0.77883 0.0
O504 O 0.75464 0.21822 1.09329 0.0
O505 O 0.72533 0.16497 0.99336 0.0
O506 O 0.77412 0.26867 0.84139 0.0
O507 O 0.82977 0.27037 0.84523 0.0
C508 C 0.81055 0.28558 0.79899 0.0
C509 C 0.79501 0.15284 0.8173 0.0
O510 O 0.88032 0.23225 0.93623 0.0
O511 O 0.83092 0.23123 1.04938 0.0
O512 O 0.90679 0.23957 0.70371 0.0
O513 O 0.88436 0.27784 0.65698 0.0
O514 O 0.81554 0.16474 0.72728 0.0
O515 O 0.80733 0.18217 0.88306 0.0
O516 O 0.74376 0.19078 0.78075 0.0
O517 O 0.79899 0.21926 0.66302 0.0
C518 C 0.86578 0.23133 1.03444 0.0
C519 C 0.75924 0.20078 0.68236 0.0
Dy520 Dy 0.69294 0.54386 0.92933 0.0
C521 C 0.64394 0.62593 0.63646 0.0
C522 C 0.73227 0.52926 1.08869 0.0
Dy523 Dy 0.68157 0.60121 0.77881 0.0
O524 O 0.69379 0.51883 1.09323 0.0
O525 O 0.74704 0.54277 0.99329 0.0
O526 O 0.64333 0.48787 0.84134 0.0
O527 O 0.64167 0.54184 0.84519 0.0
C528 C 0.62644 0.50741 0.79894 0.0
C529 C 0.75919 0.62458 0.81727 0.0
O530 O 0.6798 0.63051 0.93623 0.0
O531 O 0.68079 0.58211 1.04936 0.0
O532 O 0.67252 0.64968 0.70367 0.0
O533 O 0.63418 0.58897 0.65706 0.0
O534 O 0.74731 0.63323 0.72726 0.0
O535 O 0.72987 0.60758 0.88304 0.0
O536 O 0.72123 0.5354 0.78069 0.0
O537 O 0.69276 0.56215 0.66298 0.0
C538 C 0.6807 0.61687 1.03443 0.0
C539 C 0.71123 0.54088 0.6823 0.0
Dy540 Dy 0.78058 0.71912 0.23222 0.0
C541 C 0.64956 0.63709 0.52503 0.0
C542 C 0.8345 0.73371 1.07282 0.0
Dy543 Dy 0.71185 0.66178 0.38275 0.0
O544 O 0.80646 0.74414 1.0683 0.0
O545 O 0.83576 0.7202 0.16822 0.0
O546 O 0.78699 0.77512 0.32019 0.0
O547 O 0.73134 0.72115 0.31638 0.0
C548 C 0.75056 0.75559 0.36262 0.0
C549 C 0.76609 0.63839 0.34424 0.0
O550 O 0.68078 0.63247 0.22533 0.0
O551 O 0.73018 0.68089 0.11219 0.0
O552 O 0.65432 0.61328 0.4579 0.0
O553 O 0.67674 0.67406 0.50453 0.0
O554 O 0.74557 0.62975 0.43428 0.0
O555 O 0.75377 0.65539 0.2785 0.0
O556 O 0.81733 0.72758 0.38084 0.0
O557 O 0.76211 0.70082 0.49857 0.0
C558 C 0.69532 0.64614 0.12714 0.0
C559 C 0.80185 0.7221 0.47923 0.0
Dy560 Dy 0.19294 0.04393 0.23227 0.0
C561 C 0.27497 -0.00506 0.52504 0.0
C562 C 0.17835 0.08326 1.07289 0.0
Dy563 Dy 0.25028 0.03254 0.38279 0.0
O564 O 0.16791 0.04479 1.06836 0.0
O565 O 0.19186 0.09804 0.16828 0.0
O566 O 0.13693 -0.00566 0.32025 0.0
O567 O 0.1909 -0.00734 0.31643 0.0
C568 C 0.15646 -0.02255 0.36268 0.0
C569 C 0.27367 0.11017 0.3443 0.0
O570 O 0.27959 0.03078 0.22534 0.0
O571 O 0.23118 0.03177 0.11222 0.0
O572 O 0.29878 0.02351 0.45789 0.0
O573 O 0.238 -0.01486 0.50457 0.0
O574 O 0.28232 0.09828 0.43432 0.0
O575 O 0.25667 0.08084 0.27855 0.0
O576 O 0.18449 0.07223 0.3809 0.0
O577 O 0.21124 0.04376 0.49862 0.0
C578 C 0.26593 0.03167 0.12715 0.0
C579 C 0.18997 0.06223 0.47929 0.0
Dy580 Dy 0.86817 0.13147 0.2322 0.0
C581 C 0.91713 0.26248 0.52501 0.0
C582 C 0.82884 0.07754 1.07281 0.0
Dy583 Dy 0.87954 0.20018 0.38275 0.0
O584 O 0.86731 0.10559 1.06828 0.0
O585 O 0.81407 0.07627 0.16821 0.0
O586 O 0.91777 0.12507 0.32018 0.0
O587 O 0.91944 0.18072 0.31636 0.0
C588 C 0.93466 0.1615 0.3626 0.0
C589 C 0.80191 0.14593 0.34428 0.0
O590 O 0.8813 0.23125 0.22533 0.0
O591 O 0.88033 0.18186 0.11218 0.0
O592 O 0.88857 0.25771 0.45785 0.0
O593 O 0.92692 0.23529 0.50457 0.0
O594 O 0.8138 0.16646 0.43429 0.0
O595 O 0.83124 0.15826 0.2785 0.0
O596 O 0.83987 0.09471 0.38082 0.0
O597 O 0.86833 0.14992 0.49855 0.0
C598 C 0.88043 0.21672 0.12713 0.0
C599 C 0.84986 0.11018 0.47921 0.0
Dy600 Dy 0.25029 0.20016 0.88288 0.0
C601 C 0.17845 0.07759 0.57294 0.0
C602 C 0.27497 0.26253 1.02517 0.0
Dy603 Dy 0.193 0.13151 0.73216 0.0
O604 O 0.29873 0.25773 0.95793 0.0
O605 O 0.23801 0.23531 1.00459 0.0
O606 O 0.28242 0.1666 0.93439 0.0
O607 O 0.25674 0.15827 0.77838 0.0
C608 C 0.27386 0.14612 0.8443 0.0
C609 C 0.15657 0.16159 0.86265 0.0
O610 O 0.18449 0.09472 0.88081 0.0
O611 O 0.21123 0.14991 0.99865 0.0
O612 O 0.16792 0.10556 0.56836 0.0
O613 O 0.19198 0.07634 0.6683 0.0
O614 O 0.13701 0.12515 0.82029 0.0
O615 O 0.19098 0.18069 0.81626 0.0
O616 O 0.2796 0.23125 0.72542 0.0
O617 O 0.23118 0.18192 0.61218 0.0
C618 C 0.18995 0.11017 0.97924 0.0
C619 C 0.26595 0.21676 0.62717 0.0
Dy620 Dy 0.71193 0.03256 0.88284 0.0
C621 C 0.8345 0.08329 0.57285 0.0
C622 C 0.64956 -0.00513 1.02514 0.0
Dy623 Dy 0.78058 0.04392 0.73209 0.0
O624 O 0.65435 0.02342 0.95785 0.0
O625 O 0.6768 -0.01483 1.00464 0.0
O626 O 0.74549 0.09825 0.93436 0.0
O627 O 0.75382 0.08091 0.77834 0.0
C628 C 0.76597 0.11018 0.84428 0.0
C629 C 0.75049 -0.02259 0.86259 0.0
O630 O 0.81737 0.07222 0.88073 0.0
O631 O 0.76219 0.04377 0.99858 0.0
O632 O 0.80652 0.04479 0.56828 0.0
O633 O 0.83575 0.09807 0.66823 0.0
O634 O 0.78693 -0.00571 0.82022 0.0
O635 O 0.73139 -0.00728 0.8162 0.0
O636 O 0.68083 0.03077 0.7254 0.0
O637 O 0.73016 0.03169 0.61212 0.0
C638 C 0.80193 0.06222 0.97916 0.0
C639 C 0.69532 0.03162 0.62714 0.0
Dy640 Dy 0.87947 0.66178 0.8828 0.0
C641 C 0.82874 0.73362 0.57288 0.0
C642 C 0.91715 0.63708 1.02507 0.0
Dy643 Dy 0.86811 0.71907 0.73209 0.0
O644 O 0.8886 0.61333 0.95781 0.0
O645 O 0.92688 0.67404 1.00454 0.0
O646 O 0.81377 0.62964 0.93432 0.0
O647 O 0.83113 0.65532 0.77831 0.0
C648 C 0.80185 0.6382 0.84425 0.0
C649 C 0.9346 0.7555 0.86264 0.0
O650 O 0.83981 0.72755 0.88074 0.0
O651 O 0.86825 0.70082 0.99857 0.0
O652 O 0.86725 0.74415 0.5683 0.0
O653 O 0.81396 0.72008 0.66824 0.0
O654 O 0.91772 0.77506 0.82026 0.0
O655 O 0.91931 0.7211 0.81623 0.0
O656 O 0.88125 0.63248 0.72533 0.0
O657 O 0.88035 0.68089 0.6121 0.0
C658 C 0.8498 0.7221 0.97917 0.0
C659 C 0.88041 0.64612 0.62708 0.0
Dy660 Dy 0.84918 0.60121 0.27867 0.0
C661 C 0.7266 0.52936 0.58865 0.0
C662 C 0.91151 0.62589 0.1365 0.0
Dy663 Dy 0.78052 0.54391 0.42941 0.0
O664 O 0.90675 0.64969 0.20366 0.0
O665 O 0.88431 0.58891 0.15693 0.0
O666 O 0.8156 0.63332 0.22716 0.0
O667 O 0.80728 0.60765 0.38317 0.0
C668 C 0.79513 0.62476 0.31725 0.0
C669 C 0.81061 0.50749 0.29893 0.0
O670 O 0.74373 0.5354 0.28077 0.0
O671 O 0.79892 0.56215 0.16292 0.0
O672 O 0.75457 0.51883 0.59322 0.0
O673 O 0.72536 0.54289 0.49328 0.0
O674 O 0.77417 0.48792 0.3413 0.0
O675 O 0.82971 0.5419 0.3453 0.0
O676 O 0.88027 0.63052 0.43613 0.0
O677 O 0.83094 0.58208 0.54939 0.0
C678 C 0.75918 0.54086 0.18234 0.0
C679 C 0.86578 0.61685 0.53437 0.0
Dy680 Dy 0.31084 0.23044 0.27873 0.0
C681 C 0.38271 0.17974 0.58866 0.0
C682 C 0.28614 0.26808 0.13661 0.0
Dy683 Dy 0.36816 0.21911 0.42944 0.0
O684 O 0.26234 0.23949 0.20372 0.0
O685 O 0.32312 0.27788 0.15707 0.0
O686 O 0.27873 0.16474 0.22723 0.0
O687 O 0.30441 0.18211 0.38324 0.0
C688 C 0.2873 0.15283 0.31731 0.0
C689 C 0.40456 0.2856 0.29891 0.0
O690 O 0.37667 0.19083 0.28078 0.0
O691 O 0.3499 0.21924 0.16295 0.0
O692 O 0.39325 0.21824 0.59324 0.0
O693 O 0.36917 0.16495 0.4933 0.0
O694 O 0.42414 0.26875 0.34129 0.0
O695 O 0.37016 0.27029 0.34531 0.0
O696 O 0.28154 0.23221 0.43622 0.0
O697 O 0.32999 0.23136 0.54944 0.0
C698 C 0.3712 0.20081 0.18236 0.0
C699 C 0.29522 0.23141 0.53445 0.0
Dy700 Dy 0.68163 0.06283 0.27873 0.0
C701 C 0.73235 0.1854 0.58871 0.0
C702 C 0.64398 0.00051 0.13656 0.0
Dy703 Dy 0.69298 0.13148 0.42947 0.0
O704 O 0.67253 0.00526 0.20375 0.0
O705 O 0.63422 0.02772 0.15696 0.0
O706 O 0.74733 0.09641 0.22721 0.0
O707 O 0.72997 0.10473 0.38323 0.0
C708 C 0.75925 0.11689 0.31729 0.0
C709 C 0.62648 0.1014 0.29895 0.0
O710 O 0.72127 0.16828 0.28083 0.0
O711 O 0.69284 0.1131 0.16298 0.0
O712 O 0.69385 0.15743 0.59329 0.0
O713 O 0.74713 0.18665 0.49334 0.0
O714 O 0.64336 0.13784 0.34134 0.0
O715 O 0.64178 0.0823 0.34534 0.0
O716 O 0.67985 0.03175 0.4362 0.0
O717 O 0.68073 0.08107 0.54945 0.0
C718 C 0.71129 0.15283 0.1824 0.0
C719 C 0.68067 0.04624 0.53444 0.0
loop_
_geom_bond_atom_site_label_1
_geom_bond_atom_site_label_2
_geom_bond_distance
_geom_bond_site_symmetry_2
_ccdc_geom_bond_type
Dy0 O4 2.398 . S
Dy0 O5 2.491 . S
Dy0 O6 2.403 . S
Dy0 O7 2.664 . S
Dy0 O11 2.326 . S
Dy0 O15 2.310 . S
Dy0 O16 2.351 . S
C1 O12 1.210 . S
C1 O13 1.327 1_655 S
C2 O4 1.185 . S
C2 O5 1.355 . S
Dy3 O7 2.310 . S
Dy3 O10 2.351 . S
Dy3 O12 2.398 1_454 S
Dy3 O13 2.491 1_554 S
Dy3 O14 2.403 1_455 S
Dy3 O15 2.664 . S
Dy3 O17 2.326 1_554 S
O4 Dy0 2.398 . S
O4 C2 1.185 . S
O5 Dy0 2.491 . S
O5 C2 1.355 . S
O6 Dy0 2.403 . S
O6 C8 1.254 . S
O7 Dy0 2.664 . S
O7 Dy3 2.310 . S
O7 C8 1.268 . S
C8 O6 1.254 . S
C8 O7 1.268 . S
C9 O14 1.254 1_455 S
C9 O15 1.268 . S
O10 Dy3 2.351 . S
O10 C18 1.249 . S
O11 Dy0 2.326 . S
O11 C18 1.267 . S
O12 C1 1.210 . S
O12 Dy3 2.398 1_656 S
O13 C1 1.327 1_455 S
O13 Dy3 2.491 1_556 S
O14 Dy3 2.403 1_655 S
O14 C9 1.254 1_655 S
O15 Dy0 2.310 . S
O15 Dy3 2.664 . S
O15 C9 1.268 . S
O16 Dy0 2.351 . S
O16 C19 1.249 1_554 S
O17 Dy3 2.326 1_556 S
O17 C19 1.267 . S
C18 O10 1.249 . S
C18 O11 1.267 . S
C19 O16 1.249 1_556 S
C19 O17 1.267 . S
Dy20 O24 2.398 . S
Dy20 O25 2.491 . S
Dy20 O26 2.403 . S
Dy20 O27 2.664 . S
Dy20 O31 2.326 . S
Dy20 O35 2.310 . S
Dy20 O36 2.351 . S
C21 O32 1.185 . S
C21 O33 1.355 . S
C22 O24 1.185 . S
C22 O25 1.355 . S
Dy23 O27 2.310 . S
Dy23 O30 2.351 . S
Dy23 O32 2.398 1_554 S
Dy23 O33 2.491 1_554 S
Dy23 O34 2.403 . S
Dy23 O35 2.664 . S
Dy23 O37 2.326 1_554 S
O24 Dy20 2.398 . S
O24 C22 1.185 . S
O25 Dy20 2.491 . S
O25 C22 1.355 . S
O26 Dy20 2.403 . S
O26 C28 1.254 . S
O27 Dy20 2.664 . S
O27 Dy23 2.310 . S
O27 C28 1.268 . S
C28 O26 1.254 . S
C28 O27 1.268 . S
C29 O34 1.254 . S
C29 O35 1.268 . S
O30 Dy23 2.351 . S
O30 C38 1.249 . S
O31 Dy20 2.326 . S
O31 C38 1.267 . S
O32 C21 1.185 . S
O32 Dy23 2.398 1_556 S
O33 C21 1.355 . S
O33 Dy23 2.491 1_556 S
O34 Dy23 2.403 . S
O34 C29 1.254 . S
O35 Dy20 2.310 . S
O35 Dy23 2.664 . S
O35 C29 1.268 . S
O36 Dy20 2.351 . S
O36 C39 1.249 1_554 S
O37 Dy23 2.326 1_556 S
O37 C39 1.267 . S
C38 O30 1.249 . S
C38 O31 1.267 . S
C39 O36 1.249 1_556 S
C39 O37 1.267 . S
Dy40 O44 2.398 . S
Dy40 O45 2.491 . S
Dy40 O46 2.403 . S
Dy40 O47 2.664 . S
Dy40 O51 2.326 . S
Dy40 O55 2.310 . S
Dy40 O56 2.351 . S
C41 O52 1.194 . S
C41 O53 1.339 1_545 S
C42 O44 1.185 . S
C42 O45 1.355 . S
Dy43 O47 2.310 . S
Dy43 O50 2.351 . S
Dy43 O52 2.398 1_564 S
Dy43 O53 2.491 1_554 S
Dy43 O54 2.403 1_565 S
Dy43 O55 2.664 . S
Dy43 O57 2.326 1_554 S
O44 Dy40 2.398 . S
O44 C42 1.185 . S
O45 Dy40 2.491 . S
O45 C42 1.355 . S
O46 Dy40 2.403 . S
O46 C48 1.254 . S
O47 Dy40 2.664 . S
O47 Dy43 2.310 . S
O47 C48 1.268 . S
C48 O46 1.254 . S
C48 O47 1.268 . S
C49 O54 1.254 1_565 S
C49 O55 1.268 . S
O50 Dy43 2.351 . S
O50 C58 1.249 . S
O51 Dy40 2.326 . S
O51 C58 1.267 . S
O52 C41 1.194 . S
O52 Dy43 2.398 1_546 S
O53 C41 1.339 1_565 S
O53 Dy43 2.491 1_556 S
O54 Dy43 2.403 1_545 S
O54 C49 1.254 1_545 S
O55 Dy40 2.310 . S
O55 Dy43 2.664 . S
O55 C49 1.268 . S
O56 Dy40 2.351 . S
O56 C59 1.249 1_554 S
O57 Dy43 2.326 1_556 S
O57 C59 1.267 . S
C58 O50 1.249 . S
C58 O51 1.267 . S
C59 O56 1.249 1_556 S
C59 O57 1.267 . S
Dy60 O64 2.398 . S
Dy60 O65 2.491 . S
Dy60 O66 2.403 . S
Dy60 O67 2.664 . S
Dy60 O71 2.326 . S
Dy60 O75 2.310 . S
Dy60 O76 2.351 . S
C61 O72 1.208 . S
C61 O73 1.329 1_565 S
C62 O64 1.185 . S
C62 O65 1.355 . S
Dy63 O67 2.310 . S
Dy63 O70 2.351 . S
Dy63 O72 2.398 1_545 S
Dy63 O73 2.491 . S
Dy63 O74 2.403 1_545 S
Dy63 O75 2.664 . S
Dy63 O77 2.326 . S
O64 Dy60 2.398 . S
O64 C62 1.185 . S
O65 Dy60 2.491 . S
O65 C62 1.355 . S
O66 Dy60 2.403 . S
O66 C68 1.254 . S
O67 Dy60 2.664 . S
O67 Dy63 2.310 . S
O67 C68 1.268 . S
C68 O66 1.254 . S
C68 O67 1.268 . S
C69 O74 1.254 1_545 S
C69 O75 1.268 . S
O70 Dy63 2.351 . S
O70 C78 1.249 . S
O71 Dy60 2.326 . S
O71 C78 1.267 . S
O72 C61 1.208 . S
O72 Dy63 2.398 1_565 S
O73 C61 1.329 1_545 S
O73 Dy63 2.491 . S
O74 Dy63 2.403 1_565 S
O74 C69 1.254 1_565 S
O75 Dy60 2.310 . S
O75 Dy63 2.664 . S
O75 C69 1.268 . S
O76 Dy60 2.351 . S
O76 C79 1.249 . S
O77 Dy63 2.326 . S
O77 C79 1.267 . S
C78 O70 1.249 . S
C78 O71 1.267 . S
C79 O76 1.249 . S
C79 O77 1.267 . S
Dy80 O84 2.398 . S
Dy80 O85 2.491 . S
Dy80 O86 2.403 . S
Dy80 O87 2.664 . S
Dy80 O91 2.326 . S
Dy80 O95 2.310 . S
Dy80 O96 2.351 . S
C81 O92 1.193 . S
C81 O93 1.340 1_455 S
C82 O84 1.185 . S
C82 O85 1.355 . S
Dy83 O87 2.310 . S
Dy83 O90 2.351 . S
Dy83 O92 2.398 1_655 S
Dy83 O93 2.491 . S
Dy83 O94 2.403 1_655 S
Dy83 O95 2.664 . S
Dy83 O97 2.326 . S
O84 Dy80 2.398 . S
O84 C82 1.185 . S
O85 Dy80 2.491 . S
O85 C82 1.355 . S
O86 Dy80 2.403 . S
O86 C88 1.254 . S
O87 Dy80 2.664 . S
O87 Dy83 2.310 . S
O87 C88 1.268 . S
C88 O86 1.254 . S
C88 O87 1.268 . S
C89 O94 1.254 1_655 S
C89 O95 1.268 . S
O90 Dy83 2.351 . S
O90 C98 1.249 . S
O91 Dy80 2.326 . S
O91 C98 1.267 . S
O92 C81 1.193 . S
O92 Dy83 2.398 1_455 S
O93 C81 1.340 1_655 S
O93 Dy83 2.491 . S
O94 Dy83 2.403 1_455 S
O94 C89 1.254 1_455 S
O95 Dy80 2.310 . S
O95 Dy83 2.664 . S
O95 C89 1.268 . S
O96 Dy80 2.351 . S
O96 C99 1.249 . S
O97 Dy83 2.326 . S
O97 C99 1.267 . S
C98 O90 1.249 . S
C98 O91 1.267 . S
C99 O96 1.249 . S
C99 O97 1.267 . S
Dy100 O104 2.398 . S
Dy100 O105 2.491 . S
Dy100 O106 2.403 . S
Dy100 O107 2.664 . S
Dy100 O111 2.326 . S
Dy100 O115 2.310 . S
Dy100 O116 2.351 . S
C101 O112 1.185 . S
C101 O113 1.355 . S
C102 O104 1.185 . S
C102 O105 1.355 . S
Dy103 O107 2.310 . S
Dy103 O110 2.351 . S
Dy103 O112 2.398 . S
Dy103 O113 2.491 . S
Dy103 O114 2.403 . S
Dy103 O115 2.664 . S
Dy103 O117 2.326 . S
O104 Dy100 2.398 . S
O104 C102 1.185 . S
O105 Dy100 2.491 . S
O105 C102 1.355 . S
O106 Dy100 2.403 . S
O106 C108 1.254 . S
O107 Dy100 2.664 . S
O107 Dy103 2.310 . S
O107 C108 1.268 . S
C108 O106 1.254 . S
C108 O107 1.268 . S
C109 O114 1.254 . S
C109 O115 1.268 . S
O110 Dy103 2.351 . S
O110 C118 1.249 . S
O111 Dy100 2.326 . S
O111 C118 1.267 . S
O112 C101 1.185 . S
O112 Dy103 2.398 . S
O113 C101 1.355 . S
O113 Dy103 2.491 . S
O114 Dy103 2.403 . S
O114 C109 1.254 . S
O115 Dy100 2.310 . S
O115 Dy103 2.664 . S
O115 C109 1.268 . S
O116 Dy100 2.351 . S
O116 C119 1.249 . S
O117 Dy103 2.326 . S
O117 C119 1.267 . S
C118 O110 1.249 . S
C118 O111 1.267 . S
C119 O116 1.249 . S
C119 O117 1.267 . S
Dy120 O124 2.398 1_655 S
Dy120 O125 2.491 . S
Dy120 O126 2.403 1_655 S
Dy120 O127 2.664 . S
Dy120 O131 2.326 . S
Dy120 O135 2.310 . S
Dy120 O136 2.351 1_554 S
C121 O132 1.185 . S
C121 O133 1.355 . S
C122 O124 1.208 . S
C122 O125 1.329 1_455 S
Dy123 O127 2.310 1_556 S
Dy123 O130 2.351 1_556 S
Dy123 O132 2.398 . S
Dy123 O133 2.491 . S
Dy123 O134 2.403 . S
Dy123 O135 2.664 1_556 S
Dy123 O137 2.326 . S
O124 Dy120 2.398 1_455 S
O124 C122 1.208 . S
O125 Dy120 2.491 . S
O125 C122 1.329 1_655 S
O126 Dy120 2.403 1_455 S
O126 C128 1.254 1_455 S
O127 Dy120 2.664 . S
O127 Dy123 2.310 1_554 S
O127 C128 1.268 . S
C128 O126 1.254 1_655 S
C128 O127 1.268 . S
C129 O134 1.254 1_554 S
C129 O135 1.268 . S
O130 Dy123 2.351 1_554 S
O130 C138 1.249 . S
O131 Dy120 2.326 . S
O131 C138 1.267 . S
O132 C121 1.185 . S
O132 Dy123 2.398 . S
O133 C121 1.355 . S
O133 Dy123 2.491 . S
O134 Dy123 2.403 . S
O134 C129 1.254 1_556 S
O135 Dy120 2.310 . S
O135 Dy123 2.664 1_554 S
O135 C129 1.268 . S
O136 Dy120 2.351 1_556 S
O136 C139 1.249 . S
O137 Dy123 2.326 . S
O137 C139 1.267 . S
C138 O130 1.249 . S
C138 O131 1.267 . S
C139 O136 1.249 . S
C139 O137 1.267 . S
Dy140 O144 2.398 . S
Dy140 O145 2.491 . S
Dy140 O146 2.403 . S
Dy140 O147 2.664 . S
Dy140 O151 2.326 . S
Dy140 O155 2.310 . S
Dy140 O156 2.351 1_554 S
C141 O152 1.185 . S
C141 O153 1.355 . S
C142 O144 1.185 . S
C142 O145 1.355 . S
Dy143 O147 2.310 1_556 S
Dy143 O150 2.351 1_556 S
Dy143 O152 2.398 . S
Dy143 O153 2.491 . S
Dy143 O154 2.403 . S
Dy143 O155 2.664 1_556 S
Dy143 O157 2.326 . S
O144 Dy140 2.398 . S
O144 C142 1.185 . S
O145 Dy140 2.491 . S
O145 C142 1.355 . S
O146 Dy140 2.403 . S
O146 C148 1.254 . S
O147 Dy140 2.664 . S
O147 Dy143 2.310 1_554 S
O147 C148 1.268 . S
C148 O146 1.254 . S
C148 O147 1.268 . S
C149 O154 1.254 1_554 S
C149 O155 1.268 . S
O150 Dy143 2.351 1_554 S
O150 C158 1.249 . S
O151 Dy140 2.326 . S
O151 C158 1.267 . S
O152 C141 1.185 . S
O152 Dy143 2.398 . S
O153 C141 1.355 . S
O153 Dy143 2.491 . S
O154 Dy143 2.403 . S
O154 C149 1.254 1_556 S
O155 Dy140 2.310 . S
O155 Dy143 2.664 1_554 S
O155 C149 1.268 . S
O156 Dy140 2.351 1_556 S
O156 C159 1.249 . S
O157 Dy143 2.326 . S
O157 C159 1.267 . S
C158 O150 1.249 . S
C158 O151 1.267 . S
C159 O156 1.249 . S
C159 O157 1.267 . S
Dy160 O164 2.398 1_545 S
Dy160 O165 2.491 . S
Dy160 O166 2.403 1_545 S
Dy160 O167 2.664 . S
Dy160 O171 2.326 . S
Dy160 O175 2.310 . S
Dy160 O176 2.351 1_554 S
C161 O172 1.185 . S
C161 O173 1.355 . S
C162 O164 1.193 . S
C162 O165 1.340 1_565 S
Dy163 O167 2.310 1_556 S
Dy163 O170 2.351 1_556 S
Dy163 O172 2.398 . S
Dy163 O173 2.491 . S
Dy163 O174 2.403 . S
Dy163 O175 2.664 1_556 S
Dy163 O177 2.326 . S
O164 Dy160 2.398 1_565 S
O164 C162 1.193 . S
O165 Dy160 2.491 . S
O165 C162 1.340 1_545 S
O166 Dy160 2.403 1_565 S
O166 C168 1.254 1_565 S
O167 Dy160 2.664 . S
O167 Dy163 2.310 1_554 S
O167 C168 1.268 . S
C168 O166 1.254 1_545 S
C168 O167 1.268 . S
C169 O174 1.254 1_554 S
C169 O175 1.268 . S
O170 Dy163 2.351 1_554 S
O170 C178 1.249 . S
O171 Dy160 2.326 . S
O171 C178 1.267 . S
O172 C161 1.185 . S
O172 Dy163 2.398 . S
O173 C161 1.355 . S
O173 Dy163 2.491 . S
O174 Dy163 2.403 . S
O174 C169 1.254 1_556 S
O175 Dy160 2.310 . S
O175 Dy163 2.664 1_554 S
O175 C169 1.268 . S
O176 Dy160 2.351 1_556 S
O176 C179 1.249 . S
O177 Dy163 2.326 . S
O177 C179 1.267 . S
C178 O170 1.249 . S
C178 O171 1.267 . S
C179 O176 1.249 . S
C179 O177 1.267 . S
Dy180 O184 2.398 1_565 S
Dy180 O185 2.491 . S
Dy180 O186 2.403 1_565 S
Dy180 O187 2.664 . S
Dy180 O191 2.326 . S
Dy180 O195 2.310 . S
Dy180 O196 2.351 . S
C181 O192 1.185 . S
C181 O193 1.355 . S
C182 O184 1.209 . S
C182 O185 1.328 1_545 S
Dy183 O187 2.310 . S
Dy183 O190 2.351 . S
Dy183 O192 2.398 . S
Dy183 O193 2.491 . S
Dy183 O194 2.403 . S
Dy183 O195 2.664 . S
Dy183 O197 2.326 . S
O184 Dy180 2.398 1_545 S
O184 C182 1.209 . S
O185 Dy180 2.491 . S
O185 C182 1.328 1_565 S
O186 Dy180 2.403 1_545 S
O186 C188 1.254 1_545 S
O187 Dy180 2.664 . S
O187 Dy183 2.310 . S
O187 C188 1.268 . S
C188 O186 1.254 1_565 S
C188 O187 1.268 . S
C189 O194 1.254 . S
C189 O195 1.268 . S
O190 Dy183 2.351 . S
O190 C198 1.249 . S
O191 Dy180 2.326 . S
O191 C198 1.267 . S
O192 C181 1.185 . S
O192 Dy183 2.398 . S
O193 C181 1.355 . S
O193 Dy183 2.491 . S
O194 Dy183 2.403 . S
O194 C189 1.254 . S
O195 Dy180 2.310 . S
O195 Dy183 2.664 . S
O195 C189 1.268 . S
O196 Dy180 2.351 . S
O196 C199 1.249 . S
O197 Dy183 2.326 . S
O197 C199 1.267 . S
C198 O190 1.249 . S
C198 O191 1.267 . S
C199 O196 1.249 . S
C199 O197 1.267 . S
Dy200 O204 2.398 1_455 S
Dy200 O205 2.491 . S
Dy200 O206 2.403 1_455 S
Dy200 O207 2.664 . S
Dy200 O211 2.326 . S
Dy200 O215 2.310 . S
Dy200 O216 2.351 . S
C201 O212 1.185 . S
C201 O213 1.355 . S
C202 O204 1.194 . S
C202 O205 1.339 1_655 S
Dy203 O207 2.310 . S
Dy203 O210 2.351 . S
Dy203 O212 2.398 . S
Dy203 O213 2.491 . S
Dy203 O214 2.403 . S
Dy203 O215 2.664 . S
Dy203 O217 2.326 . S
O204 Dy200 2.398 1_655 S
O204 C202 1.194 . S
O205 Dy200 2.491 . S
O205 C202 1.339 1_455 S
O206 Dy200 2.403 1_655 S
O206 C208 1.254 1_655 S
O207 Dy200 2.664 . S
O207 Dy203 2.310 . S
O207 C208 1.268 . S
C208 O206 1.254 1_455 S
C208 O207 1.268 . S
C209 O214 1.254 . S
C209 O215 1.268 . S
O210 Dy203 2.351 . S
O210 C218 1.249 . S
O211 Dy200 2.326 . S
O211 C218 1.267 . S
O212 C201 1.185 . S
O212 Dy203 2.398 . S
O213 C201 1.355 . S
O213 Dy203 2.491 . S
O214 Dy203 2.403 . S
O214 C209 1.254 . S
O215 Dy200 2.310 . S
O215 Dy203 2.664 . S
O215 C209 1.268 . S
O216 Dy200 2.351 . S
O216 C219 1.249 . S
O217 Dy203 2.326 . S
O217 C219 1.267 . S
C218 O210 1.249 . S
C218 O211 1.267 . S
C219 O216 1.249 . S
C219 O217 1.267 . S
Dy220 O224 2.398 . S
Dy220 O225 2.491 . S
Dy220 O226 2.403 . S
Dy220 O227 2.664 . S
Dy220 O231 2.326 . S
Dy220 O235 2.310 . S
Dy220 O236 2.351 . S
C221 O232 1.185 . S
C221 O233 1.355 . S
C222 O224 1.185 . S
C222 O225 1.355 . S
Dy223 O227 2.310 . S
Dy223 O230 2.351 . S
Dy223 O232 2.398 . S
Dy223 O233 2.491 . S
Dy223 O234 2.403 . S
Dy223 O235 2.664 . S
Dy223 O237 2.326 . S
O224 Dy220 2.398 . S
O224 C222 1.185 . S
O225 Dy220 2.491 . S
O225 C222 1.355 . S
O226 Dy220 2.403 . S
O226 C228 1.254 . S
O227 Dy220 2.664 . S
O227 Dy223 2.310 . S
O227 C228 1.268 . S
C228 O226 1.254 . S
C228 O227 1.268 . S
C229 O234 1.254 . S
C229 O235 1.268 . S
O230 Dy223 2.351 . S
O230 C238 1.249 . S
O231 Dy220 2.326 . S
O231 C238 1.267 . S
O232 C221 1.185 . S
O232 Dy223 2.398 . S
O233 C221 1.355 . S
O233 Dy223 2.491 . S
O234 Dy223 2.403 . S
O234 C229 1.254 . S
O235 Dy220 2.310 . S
O235 Dy223 2.664 . S
O235 C229 1.268 . S
O236 Dy220 2.351 . S
O236 C239 1.249 . S
O237 Dy223 2.326 . S
O237 C239 1.267 . S
C238 O230 1.249 . S
C238 O231 1.267 . S
C239 O236 1.249 . S
C239 O237 1.267 . S
Dy240 O244 2.398 . S
Dy240 O245 2.491 . S
Dy240 O246 2.403 . S
Dy240 O247 2.664 . S
Dy240 O251 2.326 . S
Dy240 O255 2.310 . S
Dy240 O256 2.351 . S
C241 O252 1.185 . S
C241 O253 1.355 . S
C242 O244 1.185 . S
C242 O245 1.355 . S
Dy243 O247 2.310 . S
Dy243 O250 2.351 . S
Dy243 O252 2.398 . S
Dy243 O253 2.491 . S
Dy243 O254 2.403 . S
Dy243 O255 2.664 . S
Dy243 O257 2.326 . S
O244 Dy240 2.398 . S
O244 C242 1.185 . S
O245 Dy240 2.491 . S
O245 C242 1.355 . S
O246 Dy240 2.403 . S
O246 C248 1.254 . S
O247 Dy240 2.664 . S
O247 Dy243 2.310 . S
O247 C248 1.268 . S
C248 O246 1.254 . S
C248 O247 1.268 . S
C249 O254 1.254 . S
C249 O255 1.268 . S
O250 Dy243 2.351 . S
O250 C258 1.249 . S
O251 Dy240 2.326 . S
O251 C258 1.267 . S
O252 C241 1.185 . S
O252 Dy243 2.398 . S
O253 C241 1.355 . S
O253 Dy243 2.491 . S
O254 Dy243 2.403 . S
O254 C249 1.254 . S
O255 Dy240 2.310 . S
O255 Dy243 2.664 . S
O255 C249 1.268 . S
O256 Dy240 2.351 . S
O256 C259 1.249 . S
O257 Dy243 2.326 . S
O257 C259 1.267 . S
C258 O250 1.249 . S
C258 O251 1.267 . S
C259 O256 1.249 . S
C259 O257 1.267 . S
Dy260 O264 2.398 . S
Dy260 O265 2.491 . S
Dy260 O266 2.403 . S
Dy260 O267 2.664 . S
Dy260 O271 2.326 . S
Dy260 O275 2.310 . S
Dy260 O276 2.351 . S
C261 O272 1.185 . S
C261 O273 1.355 . S
C262 O264 1.185 . S
C262 O265 1.355 . S
Dy263 O267 2.310 . S
Dy263 O270 2.351 . S
Dy263 O272 2.398 . S
Dy263 O273 2.491 . S
Dy263 O274 2.403 . S
Dy263 O275 2.664 . S
Dy263 O277 2.326 . S
O264 Dy260 2.398 . S
O264 C262 1.185 . S
O265 Dy260 2.491 . S
O265 C262 1.355 . S
O266 Dy260 2.403 . S
O266 C268 1.254 . S
O267 Dy260 2.664 . S
O267 Dy263 2.310 . S
O267 C268 1.268 . S
C268 O266 1.254 . S
C268 O267 1.268 . S
C269 O274 1.254 . S
C269 O275 1.268 . S
O270 Dy263 2.351 . S
O270 C278 1.249 . S
O271 Dy260 2.326 . S
O271 C278 1.267 . S
O272 C261 1.185 . S
O272 Dy263 2.398 . S
O273 C261 1.355 . S
O273 Dy263 2.491 . S
O274 Dy263 2.403 . S
O274 C269 1.254 . S
O275 Dy260 2.310 . S
O275 Dy263 2.664 . S
O275 C269 1.268 . S
O276 Dy260 2.351 . S
O276 C279 1.249 . S
O277 Dy263 2.326 . S
O277 C279 1.267 . S
C278 O270 1.249 . S
C278 O271 1.267 . S
C279 O276 1.249 . S
C279 O277 1.267 . S
Dy280 O284 2.398 . S
Dy280 O285 2.491 . S
Dy280 O286 2.403 . S
Dy280 O287 2.664 . S
Dy280 O291 2.326 . S
Dy280 O295 2.310 . S
Dy280 O296 2.351 . S
C281 O292 1.185 . S
C281 O293 1.355 . S
C282 O284 1.185 . S
C282 O285 1.355 . S
Dy283 O287 2.310 . S
Dy283 O290 2.351 . S
Dy283 O292 2.398 . S
Dy283 O293 2.491 . S
Dy283 O294 2.403 . S
Dy283 O295 2.664 . S
Dy283 O297 2.326 . S
O284 Dy280 2.398 . S
O284 C282 1.185 . S
O285 Dy280 2.491 . S
O285 C282 1.355 . S
O286 Dy280 2.403 . S
O286 C288 1.254 . S
O287 Dy280 2.664 . S
O287 Dy283 2.310 . S
O287 C288 1.268 . S
C288 O286 1.254 . S
C288 O287 1.268 . S
C289 O294 1.254 . S
C289 O295 1.268 . S
O290 Dy283 2.351 . S
O290 C298 1.249 . S
O291 Dy280 2.326 . S
O291 C298 1.267 . S
O292 C281 1.185 . S
O292 Dy283 2.398 . S
O293 C281 1.355 . S
O293 Dy283 2.491 . S
O294 Dy283 2.403 . S
O294 C289 1.254 . S
O295 Dy280 2.310 . S
O295 Dy283 2.664 . S
O295 C289 1.268 . S
O296 Dy280 2.351 . S
O296 C299 1.249 . S
O297 Dy283 2.326 . S
O297 C299 1.267 . S
C298 O290 1.249 . S
C298 O291 1.267 . S
C299 O296 1.249 . S
C299 O297 1.267 . S
Dy300 O304 2.398 . S
Dy300 O305 2.491 . S
Dy300 O306 2.403 . S
Dy300 O307 2.664 . S
Dy300 O311 2.326 . S
Dy300 O315 2.310 . S
Dy300 O316 2.351 . S
C301 O312 1.185 . S
C301 O313 1.355 . S
C302 O304 1.185 . S
C302 O305 1.355 . S
Dy303 O307 2.310 . S
Dy303 O310 2.351 . S
Dy303 O312 2.398 1_556 S
Dy303 O313 2.491 1_556 S
Dy303 O314 2.403 . S
Dy303 O315 2.664 . S
Dy303 O317 2.326 1_556 S
O304 Dy300 2.398 . S
O304 C302 1.185 . S
O305 Dy300 2.491 . S
O305 C302 1.355 . S
O306 Dy300 2.403 . S
O306 C308 1.254 . S
O307 Dy300 2.664 . S
O307 Dy303 2.310 . S
O307 C308 1.268 . S
C308 O306 1.254 . S
C308 O307 1.268 . S
C309 O314 1.254 . S
C309 O315 1.268 . S
O310 Dy303 2.351 . S
O310 C318 1.249 . S
O311 Dy300 2.326 . S
O311 C318 1.267 . S
O312 C301 1.185 . S
O312 Dy303 2.398 1_554 S
O313 C301 1.355 . S
O313 Dy303 2.491 1_554 S
O314 Dy303 2.403 . S
O314 C309 1.254 . S
O315 Dy300 2.310 . S
O315 Dy303 2.664 . S
O315 C309 1.268 . S
O316 Dy300 2.351 . S
O316 C319 1.249 1_556 S
O317 Dy303 2.326 1_554 S
O317 C319 1.267 . S
C318 O310 1.249 . S
C318 O311 1.267 . S
C319 O316 1.249 1_554 S
C319 O317 1.267 . S
Dy320 O324 2.398 . S
Dy320 O325 2.491 . S
Dy320 O326 2.403 . S
Dy320 O327 2.664 . S
Dy320 O331 2.326 . S
Dy320 O335 2.310 . S
Dy320 O336 2.351 . S
C321 O332 1.185 . S
C321 O333 1.355 . S
C322 O324 1.185 . S
C322 O325 1.355 . S
Dy323 O327 2.310 . S
Dy323 O330 2.351 . S
Dy323 O332 2.398 1_556 S
Dy323 O333 2.491 1_556 S
Dy323 O334 2.403 . S
Dy323 O335 2.664 . S
Dy323 O337 2.326 1_556 S
O324 Dy320 2.398 . S
O324 C322 1.185 . S
O325 Dy320 2.491 . S
O325 C322 1.355 . S
O326 Dy320 2.403 . S
O326 C328 1.254 . S
O327 Dy320 2.664 . S
O327 Dy323 2.310 . S
O327 C328 1.268 . S
C328 O326 1.254 . S
C328 O327 1.268 . S
C329 O334 1.254 . S
C329 O335 1.268 . S
O330 Dy323 2.351 . S
O330 C338 1.249 . S
O331 Dy320 2.326 . S
O331 C338 1.267 . S
O332 C321 1.185 . S
O332 Dy323 2.398 1_554 S
O333 C321 1.355 . S
O333 Dy323 2.491 1_554 S
O334 Dy323 2.403 . S
O334 C329 1.254 . S
O335 Dy320 2.310 . S
O335 Dy323 2.664 . S
O335 C329 1.268 . S
O336 Dy320 2.351 . S
O336 C339 1.249 1_556 S
O337 Dy323 2.326 1_554 S
O337 C339 1.267 . S
C338 O330 1.249 . S
C338 O331 1.267 . S
C339 O336 1.249 1_554 S
C339 O337 1.267 . S
Dy340 O344 2.398 . S
Dy340 O345 2.491 . S
Dy340 O346 2.403 . S
Dy340 O347 2.664 . S
Dy340 O351 2.326 . S
Dy340 O355 2.310 . S
Dy340 O356 2.351 . S
C341 O352 1.185 . S
C341 O353 1.355 . S
C342 O344 1.185 . S
C342 O345 1.355 . S
Dy343 O347 2.310 . S
Dy343 O350 2.351 . S
Dy343 O352 2.398 1_556 S
Dy343 O353 2.491 1_556 S
Dy343 O354 2.403 . S
Dy343 O355 2.664 . S
Dy343 O357 2.326 1_556 S
O344 Dy340 2.398 . S
O344 C342 1.185 . S
O345 Dy340 2.491 . S
O345 C342 1.355 . S
O346 Dy340 2.403 . S
O346 C348 1.254 . S
O347 Dy340 2.664 . S
O347 Dy343 2.310 . S
O347 C348 1.268 . S
C348 O346 1.254 . S
C348 O347 1.268 . S
C349 O354 1.254 . S
C349 O355 1.268 . S
O350 Dy343 2.351 . S
O350 C358 1.249 . S
O351 Dy340 2.326 . S
O351 C358 1.267 . S
O352 C341 1.185 . S
O352 Dy343 2.398 1_554 S
O353 C341 1.355 . S
O353 Dy343 2.491 1_554 S
O354 Dy343 2.403 . S
O354 C349 1.254 . S
O355 Dy340 2.310 . S
O355 Dy343 2.664 . S
O355 C349 1.268 . S
O356 Dy340 2.351 . S
O356 C359 1.249 1_556 S
O357 Dy343 2.326 1_554 S
O357 C359 1.267 . S
C358 O350 1.249 . S
C358 O351 1.267 . S
C359 O356 1.249 1_554 S
C359 O357 1.267 . S
Dy360 O364 2.398 . S
Dy360 O365 2.491 . S
Dy360 O366 2.403 . S
Dy360 O367 2.664 . S
Dy360 O371 2.326 . S
Dy360 O375 2.310 . S
Dy360 O376 2.351 . S
C361 O372 1.185 . S
C361 O373 1.355 . S
C362 O364 1.185 . S
C362 O365 1.355 . S
Dy363 O367 2.310 . S
Dy363 O370 2.351 . S
Dy363 O372 2.398 . S
Dy363 O373 2.491 . S
Dy363 O374 2.403 . S
Dy363 O375 2.664 . S
Dy363 O377 2.326 . S
O364 Dy360 2.398 . S
O364 C362 1.185 . S
O365 Dy360 2.491 . S
O365 C362 1.355 . S
O366 Dy360 2.403 . S
O366 C368 1.254 . S
O367 Dy360 2.664 . S
O367 Dy363 2.310 . S
O367 C368 1.268 . S
C368 O366 1.254 . S
C368 O367 1.268 . S
C369 O374 1.254 . S
C369 O375 1.268 . S
O370 Dy363 2.351 . S
O370 C378 1.249 . S
O371 Dy360 2.326 . S
O371 C378 1.267 . S
O372 C361 1.185 . S
O372 Dy363 2.398 . S
O373 C361 1.355 . S
O373 Dy363 2.491 . S
O374 Dy363 2.403 . S
O374 C369 1.254 . S
O375 Dy360 2.310 . S
O375 Dy363 2.664 . S
O375 C369 1.268 . S
O376 Dy360 2.351 . S
O376 C379 1.249 . S
O377 Dy363 2.326 . S
O377 C379 1.267 . S
C378 O370 1.249 . S
C378 O371 1.267 . S
C379 O376 1.249 . S
C379 O377 1.267 . S
Dy380 O384 2.398 . S
Dy380 O385 2.491 . S
Dy380 O386 2.403 . S
Dy380 O387 2.664 . S
Dy380 O391 2.326 . S
Dy380 O395 2.310 . S
Dy380 O396 2.351 . S
C381 O392 1.185 . S
C381 O393 1.355 . S
C382 O384 1.185 . S
C382 O385 1.355 . S
Dy383 O387 2.310 . S
Dy383 O390 2.351 . S
Dy383 O392 2.398 . S
Dy383 O393 2.491 . S
Dy383 O394 2.403 . S
Dy383 O395 2.664 . S
Dy383 O397 2.326 . S
O384 Dy380 2.398 . S
O384 C382 1.185 . S
O385 Dy380 2.491 . S
O385 C382 1.355 . S
O386 Dy380 2.403 . S
O386 C388 1.254 . S
O387 Dy380 2.664 . S
O387 Dy383 2.310 . S
O387 C388 1.268 . S
C388 O386 1.254 . S
C388 O387 1.268 . S
C389 O394 1.254 . S
C389 O395 1.268 . S
O390 Dy383 2.351 . S
O390 C398 1.249 . S
O391 Dy380 2.326 . S
O391 C398 1.267 . S
O392 C381 1.185 . S
O392 Dy383 2.398 . S
O393 C381 1.355 . S
O393 Dy383 2.491 . S
O394 Dy383 2.403 . S
O394 C389 1.254 . S
O395 Dy380 2.310 . S
O395 Dy383 2.664 . S
O395 C389 1.268 . S
O396 Dy380 2.351 . S
O396 C399 1.249 . S
O397 Dy383 2.326 . S
O397 C399 1.267 . S
C398 O390 1.249 . S
C398 O391 1.267 . S
C399 O396 1.249 . S
C399 O397 1.267 . S
Dy400 O404 2.398 . S
Dy400 O405 2.491 . S
Dy400 O406 2.403 . S
Dy400 O407 2.664 . S
Dy400 O411 2.326 . S
Dy400 O415 2.310 . S
Dy400 O416 2.351 . S
C401 O412 1.185 . S
C401 O413 1.355 . S
C402 O404 1.185 . S
C402 O405 1.355 . S
Dy403 O407 2.310 . S
Dy403 O410 2.351 . S
Dy403 O412 2.398 . S
Dy403 O413 2.491 . S
Dy403 O414 2.403 . S
Dy403 O415 2.664 . S
Dy403 O417 2.326 . S
O404 Dy400 2.398 . S
O404 C402 1.185 . S
O405 Dy400 2.491 . S
O405 C402 1.355 . S
O406 Dy400 2.403 . S
O406 C408 1.254 . S
O407 Dy400 2.664 . S
O407 Dy403 2.310 . S
O407 C408 1.268 . S
C408 O406 1.254 . S
C408 O407 1.268 . S
C409 O414 1.254 . S
C409 O415 1.268 . S
O410 Dy403 2.351 . S
O410 C418 1.249 . S
O411 Dy400 2.326 . S
O411 C418 1.267 . S
O412 C401 1.185 . S
O412 Dy403 2.398 . S
O413 C401 1.355 . S
O413 Dy403 2.491 . S
O414 Dy403 2.403 . S
O414 C409 1.254 . S
O415 Dy400 2.310 . S
O415 Dy403 2.664 . S
O415 C409 1.268 . S
O416 Dy400 2.351 . S
O416 C419 1.249 . S
O417 Dy403 2.326 . S
O417 C419 1.267 . S
C418 O410 1.249 . S
C418 O411 1.267 . S
C419 O416 1.249 . S
C419 O417 1.267 . S
Dy420 O424 2.398 . S
Dy420 O425 2.491 . S
Dy420 O426 2.403 . S
Dy420 O427 2.664 . S
Dy420 O431 2.326 . S
Dy420 O435 2.310 . S
Dy420 O436 2.351 1_556 S
C421 O432 1.185 . S
C421 O433 1.355 . S
C422 O424 1.185 . S
C422 O425 1.355 . S
Dy423 O427 2.310 . S
Dy423 O430 2.351 . S
Dy423 O432 2.398 1_556 S
Dy423 O433 2.491 1_556 S
Dy423 O434 2.403 . S
Dy423 O435 2.664 . S
Dy423 O437 2.326 1_556 S
O424 Dy420 2.398 . S
O424 C422 1.185 . S
O425 Dy420 2.491 . S
O425 C422 1.355 . S
O426 Dy420 2.403 . S
O426 C428 1.254 . S
O427 Dy420 2.664 . S
O427 Dy423 2.310 . S
O427 C428 1.268 . S
C428 O426 1.254 . S
C428 O427 1.268 . S
C429 O434 1.254 . S
C429 O435 1.268 . S
O430 Dy423 2.351 . S
O430 C438 1.249 . S
O431 Dy420 2.326 . S
O431 C438 1.267 . S
O432 C421 1.185 . S
O432 Dy423 2.398 1_554 S
O433 C421 1.355 . S
O433 Dy423 2.491 1_554 S
O434 Dy423 2.403 . S
O434 C429 1.254 . S
O435 Dy420 2.310 . S
O435 Dy423 2.664 . S
O435 C429 1.268 . S
O436 Dy420 2.351 1_554 S
O436 C439 1.249 . S
O437 Dy423 2.326 1_554 S
O437 C439 1.267 . S
C438 O430 1.249 . S
C438 O431 1.267 . S
C439 O436 1.249 . S
C439 O437 1.267 . S
Dy440 O444 2.398 . S
Dy440 O445 2.491 . S
Dy440 O446 2.403 . S
Dy440 O447 2.664 . S
Dy440 O451 2.326 . S
Dy440 O455 2.310 . S
Dy440 O456 2.351 1_556 S
C441 O452 1.185 . S
C441 O453 1.355 . S
C442 O444 1.185 . S
C442 O445 1.355 . S
Dy443 O447 2.310 . S
Dy443 O450 2.351 . S
Dy443 O452 2.398 1_556 S
Dy443 O453 2.491 1_556 S
Dy443 O454 2.403 . S
Dy443 O455 2.664 . S
Dy443 O457 2.326 1_556 S
O444 Dy440 2.398 . S
O444 C442 1.185 . S
O445 Dy440 2.491 . S
O445 C442 1.355 . S
O446 Dy440 2.403 . S
O446 C448 1.254 . S
O447 Dy440 2.664 . S
O447 Dy443 2.310 . S
O447 C448 1.268 . S
C448 O446 1.254 . S
C448 O447 1.268 . S
C449 O454 1.254 . S
C449 O455 1.268 . S
O450 Dy443 2.351 . S
O450 C458 1.249 . S
O451 Dy440 2.326 . S
O451 C458 1.267 . S
O452 C441 1.185 . S
O452 Dy443 2.398 1_554 S
O453 C441 1.355 . S
O453 Dy443 2.491 1_554 S
O454 Dy443 2.403 . S
O454 C449 1.254 . S
O455 Dy440 2.310 . S
O455 Dy443 2.664 . S
O455 C449 1.268 . S
O456 Dy440 2.351 1_554 S
O456 C459 1.249 . S
O457 Dy443 2.326 1_554 S
O457 C459 1.267 . S
C458 O450 1.249 . S
C458 O451 1.267 . S
C459 O456 1.249 . S
C459 O457 1.267 . S
Dy460 O464 2.398 . S
Dy460 O465 2.491 . S
Dy460 O466 2.403 . S
Dy460 O467 2.664 . S
Dy460 O471 2.326 . S
Dy460 O475 2.310 . S
Dy460 O476 2.351 1_556 S
C461 O472 1.185 . S
C461 O473 1.355 . S
C462 O464 1.185 . S
C462 O465 1.355 . S
Dy463 O467 2.310 . S
Dy463 O470 2.351 . S
Dy463 O472 2.398 1_556 S
Dy463 O473 2.491 1_556 S
Dy463 O474 2.403 . S
Dy463 O475 2.664 . S
Dy463 O477 2.326 1_556 S
O464 Dy460 2.398 . S
O464 C462 1.185 . S
O465 Dy460 2.491 . S
O465 C462 1.355 . S
O466 Dy460 2.403 . S
O466 C468 1.254 . S
O467 Dy460 2.664 . S
O467 Dy463 2.310 . S
O467 C468 1.268 . S
C468 O466 1.254 . S
C468 O467 1.268 . S
C469 O474 1.254 . S
C469 O475 1.268 . S
O470 Dy463 2.351 . S
O470 C478 1.249 . S
O471 Dy460 2.326 . S
O471 C478 1.267 . S
O472 C461 1.185 . S
O472 Dy463 2.398 1_554 S
O473 C461 1.355 . S
O473 Dy463 2.491 1_554 S
O474 Dy463 2.403 . S
O474 C469 1.254 . S
O475 Dy460 2.310 . S
O475 Dy463 2.664 . S
O475 C469 1.268 . S
O476 Dy460 2.351 1_554 S
O476 C479 1.249 . S
O477 Dy463 2.326 1_554 S
O477 C479 1.267 . S
C478 O470 1.249 . S
C478 O471 1.267 . S
C479 O476 1.249 . S
C479 O477 1.267 . S
Dy480 O484 2.398 . S
Dy480 O485 2.491 . S
Dy480 O486 2.403 . S
Dy480 O487 2.664 . S
Dy480 O491 2.326 . S
Dy480 O495 2.310 . S
Dy480 O496 2.351 . S
C481 O492 1.185 . S
C481 O493 1.355 . S
C482 O484 1.185 1_554 S
C482 O485 1.355 1_554 S
Dy483 O487 2.310 . S
Dy483 O490 2.351 . S
Dy483 O492 2.398 . S
Dy483 O493 2.491 . S
Dy483 O494 2.403 . S
Dy483 O495 2.664 . S
Dy483 O497 2.326 . S
O484 Dy480 2.398 . S
O484 C482 1.185 1_556 S
O485 Dy480 2.491 . S
O485 C482 1.355 1_556 S
O486 Dy480 2.403 . S
O486 C488 1.254 . S
O487 Dy480 2.664 . S
O487 Dy483 2.310 . S
O487 C488 1.268 . S
C488 O486 1.254 . S
C488 O487 1.268 . S
C489 O494 1.254 . S
C489 O495 1.268 . S
O490 Dy483 2.351 . S
O490 C498 1.249 . S
O491 Dy480 2.326 . S
O491 C498 1.267 . S
O492 C481 1.185 . S
O492 Dy483 2.398 . S
O493 C481 1.355 . S
O493 Dy483 2.491 . S
O494 Dy483 2.403 . S
O494 C489 1.254 . S
O495 Dy480 2.310 . S
O495 Dy483 2.664 . S
O495 C489 1.268 . S
O496 Dy480 2.351 . S
O496 C499 1.249 . S
O497 Dy483 2.326 . S
O497 C499 1.267 . S
C498 O490 1.249 . S
C498 O491 1.267 . S
C499 O496 1.249 . S
C499 O497 1.267 . S
Dy500 O504 2.398 . S
Dy500 O505 2.491 . S
Dy500 O506 2.403 . S
Dy500 O507 2.664 . S
Dy500 O511 2.326 . S
Dy500 O515 2.310 . S
Dy500 O516 2.351 . S
C501 O512 1.185 . S
C501 O513 1.355 . S
C502 O504 1.185 1_554 S
C502 O505 1.355 1_554 S
Dy503 O507 2.310 . S
Dy503 O510 2.351 . S
Dy503 O512 2.398 . S
Dy503 O513 2.491 . S
Dy503 O514 2.403 . S
Dy503 O515 2.664 . S
Dy503 O517 2.326 . S
O504 Dy500 2.398 . S
O504 C502 1.185 1_556 S
O505 Dy500 2.491 . S
O505 C502 1.355 1_556 S
O506 Dy500 2.403 . S
O506 C508 1.254 . S
O507 Dy500 2.664 . S
O507 Dy503 2.310 . S
O507 C508 1.268 . S
C508 O506 1.254 . S
C508 O507 1.268 . S
C509 O514 1.254 . S
C509 O515 1.268 . S
O510 Dy503 2.351 . S
O510 C518 1.249 . S
O511 Dy500 2.326 . S
O511 C518 1.267 . S
O512 C501 1.185 . S
O512 Dy503 2.398 . S
O513 C501 1.355 . S
O513 Dy503 2.491 . S
O514 Dy503 2.403 . S
O514 C509 1.254 . S
O515 Dy500 2.310 . S
O515 Dy503 2.664 . S
O515 C509 1.268 . S
O516 Dy500 2.351 . S
O516 C519 1.249 . S
O517 Dy503 2.326 . S
O517 C519 1.267 . S
C518 O510 1.249 . S
C518 O511 1.267 . S
C519 O516 1.249 . S
C519 O517 1.267 . S
Dy520 O524 2.398 . S
Dy520 O525 2.491 . S
Dy520 O526 2.403 . S
Dy520 O527 2.664 . S
Dy520 O531 2.326 . S
Dy520 O535 2.310 . S
Dy520 O536 2.351 . S
C521 O532 1.185 . S
C521 O533 1.355 . S
C522 O524 1.185 1_554 S
C522 O525 1.355 1_554 S
Dy523 O527 2.310 . S
Dy523 O530 2.351 . S
Dy523 O532 2.398 . S
Dy523 O533 2.491 . S
Dy523 O534 2.403 . S
Dy523 O535 2.664 . S
Dy523 O537 2.326 . S
O524 Dy520 2.398 . S
O524 C522 1.185 1_556 S
O525 Dy520 2.491 . S
O525 C522 1.355 1_556 S
O526 Dy520 2.403 . S
O526 C528 1.254 . S
O527 Dy520 2.664 . S
O527 Dy523 2.310 . S
O527 C528 1.268 . S
C528 O526 1.254 . S
C528 O527 1.268 . S
C529 O534 1.254 . S
C529 O535 1.268 . S
O530 Dy523 2.351 . S
O530 C538 1.249 . S
O531 Dy520 2.326 . S
O531 C538 1.267 . S
O532 C521 1.185 . S
O532 Dy523 2.398 . S
O533 C521 1.355 . S
O533 Dy523 2.491 . S
O534 Dy523 2.403 . S
O534 C529 1.254 . S
O535 Dy520 2.310 . S
O535 Dy523 2.664 . S
O535 C529 1.268 . S
O536 Dy520 2.351 . S
O536 C539 1.249 . S
O537 Dy523 2.326 . S
O537 C539 1.267 . S
C538 O530 1.249 . S
C538 O531 1.267 . S
C539 O536 1.249 . S
C539 O537 1.267 . S
Dy540 O544 2.398 . S
Dy540 O545 2.491 1_554 S
Dy540 O546 2.403 . S
Dy540 O547 2.664 . S
Dy540 O551 2.326 . S
Dy540 O555 2.310 . S
Dy540 O556 2.351 . S
C541 O552 1.185 . S
C541 O553 1.355 . S
C542 O544 1.185 1_556 S
C542 O545 1.355 . S
Dy543 O547 2.310 . S
Dy543 O550 2.351 . S
Dy543 O552 2.398 . S
Dy543 O553 2.491 . S
Dy543 O554 2.403 . S
Dy543 O555 2.664 . S
Dy543 O557 2.326 . S
O544 Dy540 2.398 . S
O544 C542 1.185 1_554 S
O545 Dy540 2.491 1_556 S
O545 C542 1.355 . S
O546 Dy540 2.403 . S
O546 C548 1.254 . S
O547 Dy540 2.664 . S
O547 Dy543 2.310 . S
O547 C548 1.268 . S
C548 O546 1.254 . S
C548 O547 1.268 . S
C549 O554 1.254 . S
C549 O555 1.268 . S
O550 Dy543 2.351 . S
O550 C558 1.249 . S
O551 Dy540 2.326 . S
O551 C558 1.267 . S
O552 C541 1.185 . S
O552 Dy543 2.398 . S
O553 C541 1.355 . S
O553 Dy543 2.491 . S
O554 Dy543 2.403 . S
O554 C549 1.254 . S
O555 Dy540 2.310 . S
O555 Dy543 2.664 . S
O555 C549 1.268 . S
O556 Dy540 2.351 . S
O556 C559 1.249 . S
O557 Dy543 2.326 . S
O557 C559 1.267 . S
C558 O550 1.249 . S
C558 O551 1.267 . S
C559 O556 1.249 . S
C559 O557 1.267 . S
Dy560 O564 2.398 . S
Dy560 O565 2.491 1_554 S
Dy560 O566 2.403 . S
Dy560 O567 2.664 . S
Dy560 O571 2.326 . S
Dy560 O575 2.310 . S
Dy560 O576 2.351 . S
C561 O572 1.185 . S
C561 O573 1.355 . S
C562 O564 1.185 1_556 S
C562 O565 1.355 . S
Dy563 O567 2.310 . S
Dy563 O570 2.351 . S
Dy563 O572 2.398 . S
Dy563 O573 2.491 . S
Dy563 O574 2.403 . S
Dy563 O575 2.664 . S
Dy563 O577 2.326 . S
O564 Dy560 2.398 . S
O564 C562 1.185 1_554 S
O565 Dy560 2.491 1_556 S
O565 C562 1.355 . S
O566 Dy560 2.403 . S
O566 C568 1.254 . S
O567 Dy560 2.664 . S
O567 Dy563 2.310 . S
O567 C568 1.268 . S
C568 O566 1.254 . S
C568 O567 1.268 . S
C569 O574 1.254 . S
C569 O575 1.268 . S
O570 Dy563 2.351 . S
O570 C578 1.249 . S
O571 Dy560 2.326 . S
O571 C578 1.267 . S
O572 C561 1.185 . S
O572 Dy563 2.398 . S
O573 C561 1.355 . S
O573 Dy563 2.491 . S
O574 Dy563 2.403 . S
O574 C569 1.254 . S
O575 Dy560 2.310 . S
O575 Dy563 2.664 . S
O575 C569 1.268 . S
O576 Dy560 2.351 . S
O576 C579 1.249 . S
O577 Dy563 2.326 . S
O577 C579 1.267 . S
C578 O570 1.249 . S
C578 O571 1.267 . S
C579 O576 1.249 . S
C579 O577 1.267 . S
Dy580 O584 2.398 . S
Dy580 O585 2.491 1_554 S
Dy580 O586 2.403 . S
Dy580 O587 2.664 . S
Dy580 O591 2.326 . S
Dy580 O595 2.310 . S
Dy580 O596 2.351 . S
C581 O592 1.185 . S
C581 O593 1.355 . S
C582 O584 1.185 1_556 S
C582 O585 1.355 . S
Dy583 O587 2.310 . S
Dy583 O590 2.351 . S
Dy583 O592 2.398 . S
Dy583 O593 2.491 . S
Dy583 O594 2.403 . S
Dy583 O595 2.664 . S
Dy583 O597 2.326 . S
O584 Dy580 2.398 . S
O584 C582 1.185 1_554 S
O585 Dy580 2.491 1_556 S
O585 C582 1.355 . S
O586 Dy580 2.403 . S
O586 C588 1.254 . S
O587 Dy580 2.664 . S
O587 Dy583 2.310 . S
O587 C588 1.268 . S
C588 O586 1.254 . S
C588 O587 1.268 . S
C589 O594 1.254 . S
C589 O595 1.268 . S
O590 Dy583 2.351 . S
O590 C598 1.249 . S
O591 Dy580 2.326 . S
O591 C598 1.267 . S
O592 C581 1.185 . S
O592 Dy583 2.398 . S
O593 C581 1.355 . S
O593 Dy583 2.491 . S
O594 Dy583 2.403 . S
O594 C589 1.254 . S
O595 Dy580 2.310 . S
O595 Dy583 2.664 . S
O595 C589 1.268 . S
O596 Dy580 2.351 . S
O596 C599 1.249 . S
O597 Dy583 2.326 . S
O597 C599 1.267 . S
C598 O590 1.249 . S
C598 O591 1.267 . S
C599 O596 1.249 . S
C599 O597 1.267 . S
Dy600 O604 2.398 . S
Dy600 O605 2.491 . S
Dy600 O606 2.403 . S
Dy600 O607 2.664 . S
Dy600 O611 2.326 . S
Dy600 O615 2.310 . S
Dy600 O616 2.351 . S
C601 O612 1.185 . S
C601 O613 1.355 . S
C602 O604 1.185 . S
C602 O605 1.355 . S
Dy603 O607 2.310 . S
Dy603 O610 2.351 . S
Dy603 O612 2.398 . S
Dy603 O613 2.491 . S
Dy603 O614 2.403 . S
Dy603 O615 2.664 . S
Dy603 O617 2.326 . S
O604 Dy600 2.398 . S
O604 C602 1.185 . S
O605 Dy600 2.491 . S
O605 C602 1.355 . S
O606 Dy600 2.403 . S
O606 C608 1.254 . S
O607 Dy600 2.664 . S
O607 Dy603 2.310 . S
O607 C608 1.268 . S
C608 O606 1.254 . S
C608 O607 1.268 . S
C609 O614 1.254 . S
C609 O615 1.268 . S
O610 Dy603 2.351 . S
O610 C618 1.249 . S
O611 Dy600 2.326 . S
O611 C618 1.267 . S
O612 C601 1.185 . S
O612 Dy603 2.398 . S
O613 C601 1.355 . S
O613 Dy603 2.491 . S
O614 Dy603 2.403 . S
O614 C609 1.254 . S
O615 Dy600 2.310 . S
O615 Dy603 2.664 . S
O615 C609 1.268 . S
O616 Dy600 2.351 . S
O616 C619 1.249 . S
O617 Dy603 2.326 . S
O617 C619 1.267 . S
C618 O610 1.249 . S
C618 O611 1.267 . S
C619 O616 1.249 . S
C619 O617 1.267 . S
Dy620 O624 2.398 . S
Dy620 O625 2.491 . S
Dy620 O626 2.403 . S
Dy620 O627 2.664 . S
Dy620 O631 2.326 . S
Dy620 O635 2.310 . S
Dy620 O636 2.351 . S
C621 O632 1.185 . S
C621 O633 1.355 . S
C622 O624 1.185 . S
C622 O625 1.355 . S
Dy623 O627 2.310 . S
Dy623 O630 2.351 . S
Dy623 O632 2.398 . S
Dy623 O633 2.491 . S
Dy623 O634 2.403 . S
Dy623 O635 2.664 . S
Dy623 O637 2.326 . S
O624 Dy620 2.398 . S
O624 C622 1.185 . S
O625 Dy620 2.491 . S
O625 C622 1.355 . S
O626 Dy620 2.403 . S
O626 C628 1.254 . S
O627 Dy620 2.664 . S
O627 Dy623 2.310 . S
O627 C628 1.268 . S
C628 O626 1.254 . S
C628 O627 1.268 . S
C629 O634 1.254 . S
C629 O635 1.268 . S
O630 Dy623 2.351 . S
O630 C638 1.249 . S
O631 Dy620 2.326 . S
O631 C638 1.267 . S
O632 C621 1.185 . S
O632 Dy623 2.398 . S
O633 C621 1.355 . S
O633 Dy623 2.491 . S
O634 Dy623 2.403 . S
O634 C629 1.254 . S
O635 Dy620 2.310 . S
O635 Dy623 2.664 . S
O635 C629 1.268 . S
O636 Dy620 2.351 . S
O636 C639 1.249 . S
O637 Dy623 2.326 . S
O637 C639 1.267 . S
C638 O630 1.249 . S
C638 O631 1.267 . S
C639 O636 1.249 . S
C639 O637 1.267 . S
Dy640 O644 2.398 . S
Dy640 O645 2.491 . S
Dy640 O646 2.403 . S
Dy640 O647 2.664 . S
Dy640 O651 2.326 . S
Dy640 O655 2.310 . S
Dy640 O656 2.351 . S
C641 O652 1.185 . S
C641 O653 1.355 . S
C642 O644 1.185 . S
C642 O645 1.355 . S
Dy643 O647 2.310 . S
Dy643 O650 2.351 . S
Dy643 O652 2.398 . S
Dy643 O653 2.491 . S
Dy643 O654 2.403 . S
Dy643 O655 2.664 . S
Dy643 O657 2.326 . S
O644 Dy640 2.398 . S
O644 C642 1.185 . S
O645 Dy640 2.491 . S
O645 C642 1.355 . S
O646 Dy640 2.403 . S
O646 C648 1.254 . S
O647 Dy640 2.664 . S
O647 Dy643 2.310 . S
O647 C648 1.268 . S
C648 O646 1.254 . S
C648 O647 1.268 . S
C649 O654 1.254 . S
C649 O655 1.268 . S
O650 Dy643 2.351 . S
O650 C658 1.249 . S
O651 Dy640 2.326 . S
O651 C658 1.267 . S
O652 C641 1.185 . S
O652 Dy643 2.398 . S
O653 C641 1.355 . S
O653 Dy643 2.491 . S
O654 Dy643 2.403 . S
O654 C649 1.254 . S
O655 Dy640 2.310 . S
O655 Dy643 2.664 . S
O655 C649 1.268 . S
O656 Dy640 2.351 . S
O656 C659 1.249 . S
O657 Dy643 2.326 . S
O657 C659 1.267 . S
C658 O650 1.249 . S
C658 O651 1.267 . S
C659 O656 1.249 . S
C659 O657 1.267 . S
Dy660 O664 2.398 . S
Dy660 O665 2.491 . S
Dy660 O666 2.403 . S
Dy660 O667 2.664 . S
Dy660 O671 2.326 . S
Dy660 O675 2.310 . S
Dy660 O676 2.351 . S
C661 O672 1.185 . S
C661 O673 1.355 . S
C662 O664 1.185 . S
C662 O665 1.355 . S
Dy663 O667 2.310 . S
Dy663 O670 2.351 . S
Dy663 O672 2.398 . S
Dy663 O673 2.491 . S
Dy663 O674 2.403 . S
Dy663 O675 2.664 . S
Dy663 O677 2.326 . S
O664 Dy660 2.398 . S
O664 C662 1.185 . S
O665 Dy660 2.491 . S
O665 C662 1.355 . S
O666 Dy660 2.403 . S
O666 C668 1.254 . S
O667 Dy660 2.664 . S
O667 Dy663 2.310 . S
O667 C668 1.268 . S
C668 O666 1.254 . S
C668 O667 1.268 . S
C669 O674 1.254 . S
C669 O675 1.268 . S
O670 Dy663 2.351 . S
O670 C678 1.249 . S
O671 Dy660 2.326 . S
O671 C678 1.267 . S
O672 C661 1.185 . S
O672 Dy663 2.398 . S
O673 C661 1.355 . S
O673 Dy663 2.491 . S
O674 Dy663 2.403 . S
O674 C669 1.254 . S
O675 Dy660 2.310 . S
O675 Dy663 2.664 . S
O675 C669 1.268 . S
O676 Dy660 2.351 . S
O676 C679 1.249 . S
O677 Dy663 2.326 . S
O677 C679 1.267 . S
C678 O670 1.249 . S
C678 O671 1.267 . S
C679 O676 1.249 . S
C679 O677 1.267 . S
Dy680 O684 2.398 . S
Dy680 O685 2.491 . S
Dy680 O686 2.403 . S
Dy680 O687 2.664 . S
Dy680 O691 2.326 . S
Dy680 O695 2.310 . S
Dy680 O696 2.351 . S
C681 O692 1.185 . S
C681 O693 1.355 . S
C682 O684 1.185 . S
C682 O685 1.355 . S
Dy683 O687 2.310 . S
Dy683 O690 2.351 . S
Dy683 O692 2.398 . S
Dy683 O693 2.491 . S
Dy683 O694 2.403 . S
Dy683 O695 2.664 . S
Dy683 O697 2.326 . S
O684 Dy680 2.398 . S
O684 C682 1.185 . S
O685 Dy680 2.491 . S
O685 C682 1.355 . S
O686 Dy680 2.403 . S
O686 C688 1.254 . S
O687 Dy680 2.664 . S
O687 Dy683 2.310 . S
O687 C688 1.268 . S
C688 O686 1.254 . S
C688 O687 1.268 . S
C689 O694 1.254 . S
C689 O695 1.268 . S
O690 Dy683 2.351 . S
O690 C698 1.249 . S
O691 Dy680 2.326 . S
O691 C698 1.267 . S
O692 C681 1.185 . S
O692 Dy683 2.398 . S
O693 C681 1.355 . S
O693 Dy683 2.491 . S
O694 Dy683 2.403 . S
O694 C689 1.254 . S
O695 Dy680 2.310 . S
O695 Dy683 2.664 . S
O695 C689 1.268 . S
O696 Dy680 2.351 . S
O696 C699 1.249 . S
O697 Dy683 2.326 . S
O697 C699 1.267 . S
C698 O690 1.249 . S
C698 O691 1.267 . S
C699 O696 1.249 . S
C699 O697 1.267 . S
Dy700 O704 2.398 . S
Dy700 O705 2.491 . S
Dy700 O706 2.403 . S
Dy700 O707 2.664 . S
Dy700 O711 2.326 . S
Dy700 O715 2.310 . S
Dy700 O716 2.351 . S
C701 O712 1.185 . S
C701 O713 1.355 . S
C702 O704 1.185 . S
C702 O705 1.355 . S
Dy703 O707 2.310 . S
Dy703 O710 2.351 . S
Dy703 O712 2.398 . S
Dy703 O713 2.491 . S
Dy703 O714 2.403 . S
Dy703 O715 2.664 . S
Dy703 O717 2.326 . S
O704 Dy700 2.398 . S
O704 C702 1.185 . S
O705 Dy700 2.491 . S
O705 C702 1.355 . S
O706 Dy700 2.403 . S
O706 C708 1.254 . S
O707 Dy700 2.664 . S
O707 Dy703 2.310 . S
O707 C708 1.268 . S
C708 O706 1.254 . S
C708 O707 1.268 . S
C709 O714 1.254 . S
C709 O715 1.268 . S
O710 Dy703 2.351 . S
O710 C718 1.249 . S
O711 Dy700 2.326 . S
O711 C718 1.267 . S
O712 C701 1.185 . S
O712 Dy703 2.398 . S
O713 C701 1.355 . S
O713 Dy703 2.491 . S
O714 Dy703 2.403 . S
O714 C709 1.254 . S
O715 Dy700 2.310 . S
O715 Dy703 2.664 . S
O715 C709 1.268 . S
O716 Dy700 2.351 . S
O716 C719 1.249 . S
O717 Dy703 2.326 . S
O717 C719 1.267 . S
C718 O710 1.249 . S
C718 O711 1.267 . S
C719 O716 1.249 . S
C719 O717 1.267 . S
C308 C8 2.853 1_556 S
C328 C28 2.854 1_556 S
C48 C348 2.854 1_554 S
C68 C488 2.854 . S
C88 C508 2.854 . S
C108 C528 2.854 . S
C669 C129 2.854 . S
C689 C149 2.854 . S
C169 C709 2.854 . S
C369 C189 2.853 . S
C209 C389 2.854 . S
C229 C409 2.854 . S
C548 C248 2.854 . S
C268 C568 2.854 1_565 S
C588 C288 2.854 1_655 S
C609 C429 2.854 . S
C629 C449 2.854 1_545 S
C469 C649 2.854 1_455 S
C1 C81 0.453 1_655 S
C21 C101 0.456 . S
C41 C61 0.453 1_545 S
C122 C202 0.453 1_455 S
C142 C222 0.456 . S
C162 C182 0.453 1_565 S
C241 C321 0.456 . S
C341 C261 0.456 . S
C281 C301 0.456 . S
C362 C442 0.456 . S
C382 C462 0.456 . S
C422 C402 0.456 . S
C481 C561 0.456 . S
C581 C501 0.456 . S
C521 C541 0.456 . S
C602 C682 0.456 1_556 S
C622 C702 0.456 1_556 S
C642 C662 0.456 1_556 S
C201 C19 1.961 . S
C39 C221 1.961 . S
C59 C181 1.961 . S
C79 C161 1.961 . S
C99 C121 1.960 . S
C141 C119 1.960 . S
C138 C82 1.961 . S
C102 C158 1.961 . S
C178 C62 1.961 . S
C198 C42 1.961 . S
C2 C218 1.960 . S
C22 C238 1.961 . S
C441 C259 1.961 . S
C461 C279 1.961 . S
C421 C299 1.960 . S
C401 C319 1.961 . S
C339 C361 1.961 . S
C381 C359 1.961 . S
C322 C378 1.961 . S
C398 C342 1.961 . S
C418 C302 1.961 . S
C282 C438 1.961 . S
C458 C242 1.961 . S
C478 C262 1.961 . S
C499 C681 1.961 . S
C519 C701 1.960 . S
C661 C539 1.961 . S
C641 C559 1.961 . S
C579 C601 1.961 . S
C621 C599 1.960 . S
C618 C562 1.961 . S
C582 C638 1.960 . S
C658 C542 1.961 . S
C678 C522 1.961 . S
C482 C698 1.961 . S
C502 C718 1.960 . S
C18 C98 2.967 1_455 S
C118 C38 2.967 . S
C58 C78 2.967 1_565 S
C139 C219 2.967 1_655 S
C239 C159 2.967 . S
C179 C199 2.967 1_545 S
C338 C258 2.967 . S
C358 C278 2.967 . S
C318 C298 2.967 . S
C459 C379 2.967 . S
C399 C479 2.967 . S
C439 C419 2.967 . S
C578 C498 2.967 1_554 S
C518 C598 2.967 1_556 S
C538 C558 2.967 1_556 S
C699 C619 2.967 . S
C639 C719 2.967 . S
C659 C679 2.967 . S
C9 C128 0.989 1_455 S
C29 C148 0.989 . S
C168 C49 0.989 1_545 S
C188 C69 0.989 1_565 S
C89 C208 0.989 1_655 S
C109 C228 0.989 . S
C368 C249 0.989 . S
C269 C388 0.989 . S
C408 C289 0.989 . S
C428 C309 0.989 . S
C448 C329 0.989 . S
C468 C349 0.989 . S
C608 C489 0.989 . S
C509 C628 0.989 . S
C648 C529 0.989 . S
C668 C549 0.989 . S
C688 C569 0.989 . S
C589 C708 0.989 . S
