# Generated by pormake.
# Topology rkf, (6)-cn, num edge types: 1
# Building blocks:
#     Node 0, Type 0, BuildingBlock: CUKXOW_clean_sbu_0, # of connection points: 6
#     Node 1, Type 0, BuildingBlock: CUKXOW_clean_sbu_0, # of connection points: 6
#     Node 2, Type 0, BuildingBlock: CUKXOW_clean_sbu_0, # of connection points: 6
#     Node 3, Type 0, BuildingBlock: CUKXOW_clean_sbu_0, # of connection points: 6
#     Node 4, Type 0, BuildingBlock: CUKXOW_clean_sbu_0, # of connection points: 6
#     Node 5, Type 0, BuildingBlock: CUKXOW_clean_sbu_0, # of connection points: 6
#     Edge 6, Type (0, 0), BuildingBlock: FUNLAD_clean_linker_0, # of connection points: 2
#     Edge 7, Type (0, 0), BuildingBlock: FUNLAD_clean_linker_0, # of connection points: 2
#     Edge 8, Type (0, 0), BuildingBlock: FUNLAD_clean_linker_0, # of connection points: 2
#     Edge 9, Type (0, 0), BuildingBlock: FUNLAD_clean_linker_0, # of connection points: 2
#     Edge 10, Type (0, 0), BuildingBlock: FUNLAD_clean_linker_0, # of connection points: 2
#     Edge 11, Type (0, 0), BuildingBlock: FUNLAD_clean_linker_0, # of connection points: 2
#     Edge 12, Type (0, 0), BuildingBlock: FUNLAD_clean_linker_0, # of connection points: 2
#     Edge 13, Type (0, 0), BuildingBlock: FUNLAD_clean_linker_0, # of connection points: 2
#     Edge 14, Type (0, 0), BuildingBlock: FUNLAD_clean_linker_0, # of connection points: 2
#     Edge 15, Type (0, 0), BuildingBlock: FUNLAD_clean_linker_0, # of connection points: 2
#     Edge 16, Type (0, 0), BuildingBlock: FUNLAD_clean_linker_0, # of connection points: 2
#     Edge 17, Type (0, 0), BuildingBlock: FUNLAD_clean_linker_0, # of connection points: 2
#     Edge 18, Type (0, 0), BuildingBlock: FUNLAD_clean_linker_0, # of connection points: 2
#     Edge 19, Type (0, 0), BuildingBlock: FUNLAD_clean_linker_0, # of connection points: 2
#     Edge 20, Type (0, 0), BuildingBlock: FUNLAD_clean_linker_0, # of connection points: 2
#     Edge 21, Type (0, 0), BuildingBlock: FUNLAD_clean_linker_0, # of connection points: 2
#     Edge 22, Type (0, 0), BuildingBlock: FUNLAD_clean_linker_0, # of connection points: 2
#     Edge 23, Type (0, 0), BuildingBlock: FUNLAD_clean_linker_0, # of connection points: 2
# Relax obj value: 0.317
# Max RMSD: 0.271
# Mean RMSD: 0.269
data_MOF--net-rkf--node1-CUKXOW_clean_sbu_0--edge1-FUNLAD_clean_linker_0
_symmetry_space_group_name_H-M    P1
_symmetry_Int_Tables_number       1
_symmetry_cell_setting            triclinic
loop_
_symmetry_equiv_pos_as_xyz
'x, y, z'
_cell_length_a     27.154375
_cell_length_b     27.314549
_cell_length_c     46.853636
_cell_angle_alpha  89.337201
_cell_angle_beta   90.51015
_cell_angle_gamma 119.3438
loop_
_atom_site_label
_atom_site_type_symbol
_atom_site_fract_x
_atom_site_fract_y
_atom_site_fract_z
_atom_type_partial_charge
Tb0 Tb 0.30133 0.05175 1.02344 0.0
C1 C 0.34269 0.95944 1.03401 0.0
Tb2 Tb 0.24716 0.95913 0.07261 0.0
O3 O 0.36993 0.11437 0.05092 0.0
O4 O 0.32437 0.0303 0.06173 0.0
O5 O 0.33904 0.99679 1.01625 0.0
C6 C 0.17899 0.90097 0.11595 0.0
O7 O 0.31368 0.9414 0.05859 0.0
C8 C 0.20029 0.93548 1.02186 0.0
C9 C 0.24518 0.07319 0.07516 0.0
O10 O 0.23359 0.91963 0.11562 0.0
O11 O 0.16417 0.91412 0.09197 0.0
O12 O 0.20242 0.89878 1.03892 0.0
O13 O 0.22208 0.98236 1.0341 0.0
O14 O 0.24781 0.03287 0.08979 0.0
O15 O 0.24841 0.07623 0.04694 0.0
C16 C 0.30248 0.10091 0.97286 0.0
O17 O 0.31266 0.12444 0.99774 0.0
O18 O 0.2953 0.05047 0.97633 0.0
C19 C 0.36012 0.07734 0.07116 0.0
Tb20 Tb 0.12988 0.12458 0.39248 0.0
C21 C 0.10265 0.02008 0.35345 0.0
Tb22 Tb 0.22408 0.1183 0.35955 0.0
O23 O 0.07962 0.12287 0.35586 0.0
O24 O 0.16554 0.1488 0.35091 0.0
O25 O 0.08999 0.03649 0.37772 0.0
C26 C 0.30146 0.13804 0.31956 0.0
O27 O 0.15149 0.0504 0.34069 0.0
C28 C 0.2049 0.07713 0.4127 0.0
C29 C 0.25605 0.22961 0.39299 0.0
O30 O 0.27651 0.09285 0.33519 0.0
O31 O 0.2839 0.17228 0.32711 0.0
O32 O 0.22666 0.06035 0.39301 0.0
O33 O 0.20113 0.11751 0.40233 0.0
O34 O 0.27426 0.2004 0.37823 0.0
O35 O 0.20194 0.20962 0.40027 0.0
C36 C 0.06685 0.1148 0.43768 0.0
O37 O 0.08625 0.15638 0.41939 0.0
O38 O 0.08207 0.07865 0.43005 0.0
C39 C 0.11945 0.1345 0.33737 0.0
Tb40 Tb 0.9133 0.21731 0.6917 0.0
C41 C 0.01556 0.34186 0.70158 0.0
Tb42 Tb 0.00916 0.23747 0.73731 0.0
O43 O 0.85396 0.21253 0.72511 0.0
O44 O 0.941 0.25321 0.73169 0.0
O45 O 0.97181 0.30717 0.68507 0.0
C46 C 0.07578 0.24806 0.78233 0.0
O47 O 0.03583 0.32436 0.72341 0.0
C48 C 0.00798 0.18974 0.68834 0.0
C49 C 0.8937 0.12418 0.73725 0.0
O50 O 0.02286 0.23482 0.78339 0.0
O51 O 0.0924 0.25937 0.75584 0.0
O52 O 0.02683 0.17978 0.71187 0.0
O53 O 0.99499 0.2268 0.69303 0.0
O54 O 0.93663 0.1617 0.75245 0.0
O55 O 0.88247 0.13366 0.71084 0.0
C56 C 0.86502 0.17882 0.64108 0.0
O57 O 0.8964 0.16352 0.65528 0.0
O58 O 0.86017 0.21708 0.65549 0.0
C59 C 0.89462 0.23794 0.74379 0.0
Tb60 Tb 0.91272 0.97172 0.06541 0.0
C61 C 0.03586 0.07396 0.06475 0.0
Tb62 Tb 0.93869 0.07634 1.03089 0.0
O63 O 0.95858 0.94804 1.03522 0.0
O64 O 0.91925 0.99269 1.02094 0.0
O65 O 0.998 0.03041 0.07979 0.0
C66 C 0.95379 0.14444 0.98687 0.0
O67 O 0.02265 0.08845 1.03993 0.0
C68 C 0.94128 0.0905 0.0869 0.0
C69 C 0.81067 0.98746 0.04077 0.0
O70 O 0.9695 0.10658 0.98792 0.0
O71 O 0.93041 0.14474 1.01089 0.0
O72 O 0.9691 0.13089 0.0686 0.0
O73 O 0.90986 0.04656 0.07281 0.0
O74 O 0.84717 0.03332 1.0268 0.0
O75 O 0.82707 0.95875 0.05778 0.0
C76 C 0.86914 0.88922 0.10443 0.0
O77 O 0.8516 0.88585 0.07829 0.0
O78 O 0.91327 0.93819 0.10799 0.0
C79 C 0.95193 0.97431 1.01352 0.0
Tb80 Tb 0.78169 0.78279 0.35847 0.0
C81 C 0.67698 0.69506 0.39454 0.0
Tb82 Tb 0.70935 0.82651 0.38972 0.0
O83 O 0.81851 0.7809 0.39972 0.0
O84 O 0.79326 0.84077 0.39111 0.0
O85 O 0.71578 0.7021 0.37505 0.0
C86 C 0.68469 0.86455 0.43678 0.0
O87 O 0.67005 0.73753 0.40395 0.0
C88 C 0.67179 0.78294 0.33916 0.0
C89 C 0.79062 0.90093 0.34263 0.0
O90 O 0.67715 0.87694 0.41074 0.0
O91 O 0.70325 0.82898 0.43593 0.0
O92 O 0.65705 0.81689 0.35116 0.0
O93 O 0.69971 0.77209 0.35704 0.0
O94 O 0.76879 0.90293 0.36744 0.0
O95 O 0.79401 0.85651 0.33414 0.0
C96 C 0.85242 0.7722 0.32234 0.0
O97 O 0.86615 0.79868 0.34638 0.0
O98 O 0.79801 0.74957 0.31903 0.0
C99 C 0.81278 0.82173 0.41002 0.0
Tb100 Tb 0.15792 0.94691 0.73017 0.0
C101 C 0.10893 0.02881 0.73654 0.0
Tb102 Tb 0.04549 0.91878 0.69996 0.0
O103 O 0.20752 0.00022 0.69401 0.0
O104 O 0.127 0.93476 0.68745 0.0
O105 O 0.13848 0.00747 0.7486 0.0
C106 C 0.98 0.91496 0.65638 0.0
O107 O 0.07827 0.0066 0.71305 0.0
C108 C 0.02802 0.90341 0.75596 0.0
C109 C 0.07979 0.82321 0.70772 0.0
O110 O 0.02995 0.95655 0.66194 0.0
O111 O 0.96652 0.87593 0.67572 0.0
O112 O 0.98891 0.89445 0.73712 0.0
O113 O 0.0731 0.91814 0.74206 0.0
O114 O 0.04661 0.83955 0.69438 0.0
O115 O 0.12309 0.85718 0.72409 0.0
C116 C 0.23427 0.95266 0.76824 0.0
O117 O 0.1965 0.9074 0.75587 0.0
O118 O 0.23026 0.99497 0.75815 0.0
C119 C 0.16689 0.97678 0.67545 0.0
C120 C 0.11076 0.17396 0.07108 0.0
C121 C 0.0853 0.11756 0.0804 0.0
C122 C 0.14673 0.21748 0.08912 0.0
C123 C 0.15878 0.20547 0.11658 0.0
C124 C 0.13517 0.14928 0.12563 0.0
C125 C 0.09891 0.10571 0.1077 0.0
C126 C 0.20305 0.25093 0.13401 0.0
C127 C 0.25473 0.25598 0.13681 0.0
C128 C 0.26811 0.21689 0.12174 0.0
C129 C 0.26955 0.21836 0.0918 0.0
C130 C 0.26089 0.17123 0.0766 0.0
C131 C 0.25159 0.1222 0.09114 0.0
H132 H 0.26108 0.16765 0.15947 0.0
C133 C 0.25464 0.12256 0.12118 0.0
C134 C 0.26305 0.16971 0.13637 0.0
H135 H 0.24933 0.08605 0.13307 0.0
H136 H 0.10087 0.18489 0.05034 0.0
H137 H 0.16588 0.2605 0.0815 0.0
H138 H 0.14476 0.1392 0.14666 0.0
H139 H 0.07962 0.06295 0.11573 0.0
H140 H 0.19387 0.28105 0.14417 0.0
H141 H 0.28628 0.28821 0.15039 0.0
H142 H 0.27288 0.25443 0.08022 0.0
H143 H 0.26049 0.173 0.0535 0.0
C144 C 0.86959 0.99254 0.32916 0.0
C145 C 0.81499 0.9493 0.32315 0.0
C146 C 0.90934 0.01393 0.30721 0.0
C147 C 0.89434 0.99033 0.27981 0.0
C148 C 0.83708 0.95825 0.27277 0.0
C149 C 0.79718 0.93861 0.29457 0.0
C150 C 0.9353 0.9781 0.26562 0.0
C151 C 0.93131 0.92821 0.27269 0.0
C152 C 0.97237 0.93033 0.29407 0.0
C153 C 0.95836 0.92697 0.32313 0.0
C154 C 1.0009 0.95075 0.34381 0.0
C155 C 0.05771 0.9764 0.33556 0.0
H156 H 0.03974 0.95147 0.26404 0.0
C157 C 0.07058 0.97054 0.30705 0.0
C158 C 0.02829 0.94906 0.28631 0.0
H159 H 0.11389 0.98843 0.29994 0.0
H160 H 0.88424 0.00191 0.35105 0.0
H161 H 0.95337 0.03903 0.31308 0.0
H162 H 0.8244 0.94044 0.25166 0.0
H163 H 0.75462 0.90695 0.2895 0.0
H164 H 0.97749 0.01397 0.26373 0.0
H165 H 0.88918 0.89228 0.27519 0.0
H166 H 0.91502 0.9121 0.32945 0.0
H167 H 0.98943 0.95378 0.36553 0.0
C168 C 0.05936 0.084 0.74496 0.0
C169 C 0.09495 0.06389 0.75501 0.0
C170 C 0.02842 0.09661 0.76427 0.0
C171 C 0.03109 0.08717 0.79364 0.0
C172 C 0.07206 0.07462 0.80393 0.0
C173 C 0.1052 0.06483 0.78469 0.0
C174 C 0.98262 0.07745 0.81144 0.0
C175 C 0.9382 0.02473 0.81129 0.0
C176 C 0.88921 0.01626 0.79381 0.0
C177 C 0.88887 0.00086 0.76522 0.0
C178 C 0.87536 0.02809 0.74361 0.0
C179 C 0.86112 0.0691 0.75105 0.0
H180 H 0.85855 0.05599 0.8229 0.0
C181 C 0.84442 0.06993 0.77927 0.0
C182 C 0.8601 0.04482 0.80094 0.0
H183 H 0.83087 0.09946 0.78529 0.0
H184 H 0.05127 0.08479 0.72233 0.0
H185 H 0.99732 0.10703 0.75608 0.0
H186 H 0.07521 0.0679 0.82656 0.0
H187 H 0.13383 0.05139 0.79328 0.0
H188 H 0.97393 0.11234 0.81117 0.0
H189 H 0.94769 0.99055 0.81042 0.0
H190 H 0.91006 0.97762 0.75931 0.0
H191 H 0.88734 0.02565 0.72189 0.0
C192 C 0.27581 0.16749 0.94888 0.0
C193 C 0.28676 0.12233 0.94683 0.0
C194 C 0.25393 0.18359 0.92555 0.0
C195 C 0.24244 0.15501 0.89937 0.0
C196 C 0.25561 0.11132 0.89703 0.0
C197 C 0.27721 0.095 0.92047 0.0
C198 C 0.21804 0.17036 0.87406 0.0
C199 C 0.18492 0.19453 0.87623 0.0
C200 C 0.15867 0.20898 0.85144 0.0
C201 C 0.1104 0.21426 0.85629 0.0
C202 C 0.0846 0.22837 0.83403 0.0
C203 C 0.1069 0.23872 0.80628 0.0
H204 H 0.21889 0.21707 0.81897 0.0
C205 C 0.15573 0.23445 0.80135 0.0
C206 C 0.18126 0.21961 0.82362 0.0
H207 H 0.17352 0.24137 0.78013 0.0
H208 H 0.28271 0.18957 0.96885 0.0
H209 H 0.24624 0.21858 0.92815 0.0
H210 H 0.24795 0.08881 0.87716 0.0
H211 H 0.28555 0.06037 0.91809 0.0
H212 H 0.22518 0.15841 0.85313 0.0
H213 H 0.1738 0.2017 0.89737 0.0
H214 H 0.09193 0.20665 0.8774 0.0
H215 H 0.04665 0.23057 0.83853 0.0
C216 C 0.05923 0.13424 0.29689 0.0
C217 C 0.10972 0.13615 0.30599 0.0
C218 C 0.04479 0.13083 0.26797 0.0
C219 C 0.08041 0.12915 0.24691 0.0
C220 C 0.13214 0.13314 0.25579 0.0
C221 C 0.14654 0.13623 0.28505 0.0
C222 C 0.06517 0.12588 0.21577 0.0
C223 C 0.01106 0.09841 0.206 0.0
C224 C 0.99398 0.09692 0.17532 0.0
C225 C 0.94481 0.0499 0.165 0.0
C226 C 0.92669 0.048 0.13659 0.0
C227 C 0.95695 0.09334 0.1178 0.0
H228 H 0.05997 0.18072 0.16412 0.0
C229 C 0.00452 0.1414 0.12852 0.0
C230 C 0.02313 0.14302 0.15677 0.0
H231 H 0.0283 0.17758 0.11483 0.0
H232 H 0.03025 0.13523 0.3123 0.0
H233 H 0.00564 0.12986 0.26218 0.0
H234 H 0.16101 0.13285 0.24008 0.0
H235 H 0.18567 0.13754 0.29126 0.0
H236 H 0.09947 0.14549 0.2005 0.0
H237 H 0.97732 0.07433 0.22105 0.0
H238 H 0.92051 0.01421 0.17893 0.0
H239 H 0.88893 0.01109 0.12934 0.0
C240 C 0.85486 0.11726 0.60054 0.0
C241 C 0.83801 0.15266 0.61365 0.0
C242 C 0.82732 0.08704 0.57626 0.0
C243 C 0.78134 0.09057 0.56453 0.0
C244 C 0.76614 0.1282 0.57668 0.0
C245 C 0.79414 0.15892 0.60121 0.0
C246 C 0.7497 0.0552 0.53962 0.0
C247 C 0.74166 0.00256 0.53687 0.0
C248 C 0.71755 0.96554 0.51149 0.0
C249 C 0.7116 0.9115 0.51319 0.0
C250 C 0.69703 0.87733 0.4892 0.0
C251 C 0.68769 0.8961 0.46278 0.0
H252 H 0.70955 0.02466 0.48289 0.0
C253 C 0.6903 0.94874 0.46118 0.0
C254 C 0.70529 0.98336 0.48531 0.0
H255 H 0.68392 0.96449 0.44096 0.0
H256 H 0.88898 0.11196 0.60935 0.0
H257 H 0.84203 0.06054 0.56681 0.0
H258 H 0.7315 0.13247 0.56774 0.0
H259 H 0.78048 0.1861 0.61083 0.0
H260 H 0.73288 0.07263 0.52392 0.0
H261 H 0.75537 0.98548 0.55434 0.0
H262 H 0.7207 0.89637 0.53294 0.0
H263 H 0.69572 0.83713 0.49108 0.0
C264 C 0.94714 0.98393 0.95954 0.0
C265 C 0.97034 0.97157 0.98375 0.0
C266 C 0.96297 0.97776 0.93173 0.0
C267 C 1.00278 0.95936 0.92738 0.0
C268 C 0.02706 0.94886 0.95169 0.0
C269 C 0.0108 0.95436 0.97935 0.0
C270 C 0.02054 0.95109 0.89812 0.0
C271 C 0.98704 0.93777 0.87464 0.0
C272 C 1.00082 0.92531 0.84533 0.0
C273 C 0.95601 0.89827 0.82585 0.0
C274 C 0.96554 0.88965 0.79751 0.0
C275 C 0.02033 0.90713 0.7874 0.0
H276 H 0.09195 0.96235 0.84979 0.0
C277 C 0.06548 0.93177 0.80705 0.0
C278 C 0.05595 0.94115 0.83568 0.0
H279 H 0.10828 0.94574 0.80007 0.0
H280 H 0.91606 0.99749 0.96207 0.0
H281 H 0.94422 0.9879 0.91375 0.0
H282 H 0.05806 0.93513 0.94931 0.0
H283 H 0.02993 0.94481 0.99741 0.0
H284 H 0.06094 0.95222 0.89652 0.0
H285 H 0.94513 0.93286 0.87715 0.0
H286 H 0.91306 0.8851 0.83234 0.0
H287 H 0.92956 0.8704 0.78319 0.0
C288 C 0.87723 0.76284 0.27187 0.0
C289 C 0.89362 0.77651 0.30047 0.0
C290 C 0.91769 0.77348 0.25072 0.0
C291 C 0.9757 0.79827 0.25772 0.0
C292 C 0.99138 0.80964 0.28659 0.0
C293 C 0.951 0.79925 0.30765 0.0
C294 C 0.02112 0.81301 0.23587 0.0
C295 C 0.0143 0.81952 0.20772 0.0
C296 C 0.05882 0.83635 0.18519 0.0
C297 C 0.04164 0.83342 0.15662 0.0
C298 C 0.08085 0.85219 0.13446 0.0
C299 C 0.13885 0.87468 0.14001 0.0
H300 H 0.13254 0.86101 0.21249 0.0
C301 C 0.1566 0.87624 0.16843 0.0
C302 C 0.11699 0.85735 0.19088 0.0
H303 H 0.2011 0.89392 0.17339 0.0
H304 H 0.8333 0.74532 0.26569 0.0
H305 H 0.90294 0.76208 0.22904 0.0
H306 H 0.03539 0.82827 0.29284 0.0
H307 H 0.96499 0.81043 0.32951 0.0
H308 H 0.06195 0.82051 0.24365 0.0
H309 H 0.97363 0.81319 0.20036 0.0
H310 H 0.99748 0.8175 0.15132 0.0
H311 H 0.06559 0.85031 0.11283 0.0
C312 C 0.12928 0.95646 0.62465 0.0
C313 C 0.17397 0.98689 0.6439 0.0
C314 C 0.13697 0.96608 0.59499 0.0
C315 C 0.19015 0.00501 0.58381 0.0
C316 C 0.23492 0.03448 0.60304 0.0
C317 C 0.22677 0.02623 0.63264 0.0
C318 C 0.20104 0.01412 0.55233 0.0
C319 C 0.16442 0.01691 0.53358 0.0
C320 C 0.17845 0.03291 0.50286 0.0
C321 C 0.17215 0.07725 0.49152 0.0
C322 C 0.18281 0.09227 0.46263 0.0
C323 C 0.19723 0.06158 0.44374 0.0
H324 H 0.20037 0.96888 0.49257 0.0
C325 C 0.20414 0.01733 0.45507 0.0
C326 C 0.19543 0.0035 0.48443 0.0
H327 H 0.21587 0.99324 0.44125 0.0
H328 H 0.08854 0.92464 0.63243 0.0
H329 H 0.10177 0.94181 0.5808 0.0
H330 H 0.27643 0.06446 0.59514 0.0
H331 H 0.26229 0.0501 0.64672 0.0
H332 H 0.24254 0.02369 0.54472 0.0
H333 H 0.12535 0.01345 0.54155 0.0
H334 H 0.15949 0.10088 0.50517 0.0
H335 H 0.17927 0.128 0.45504 0.0
C336 C 0.42116 0.96494 1.0036 0.0
C337 C 0.38896 0.94619 1.02872 0.0
C338 C 0.47097 0.96206 1.00079 0.0
C339 C 0.49035 0.94058 1.02296 0.0
C340 C 0.45628 0.91867 0.04746 0.0
C341 C 0.40627 0.92142 0.05023 0.0
C342 C 0.54746 0.94514 1.01996 0.0
C343 C 0.57442 0.93199 0.04054 0.0
C344 C 0.63418 0.94359 1.0382 0.0
C345 C 0.65276 0.91415 0.0561 0.0
C346 C 0.7095 0.92697 0.05631 0.0
C347 C 0.74944 0.97015 1.03881 0.0
H348 H 0.66228 0.01107 1.00672 0.0
C349 C 0.73071 -0.00097 1.02055 0.0
C350 C 0.67399 0.98608 1.02027 0.0
H351 H 0.76015 0.03275 1.00685 0.0
H352 H 0.40918 0.98399 0.98646 0.0
H353 H 0.49561 0.97877 0.98151 0.0
H354 H 0.46831 0.90073 0.065 0.0
H355 H 0.38263 0.9064 0.0699 0.0
H356 H 0.56903 0.96218 0.99988 0.0
H357 H 0.55286 0.91259 0.06027 0.0
H358 H 0.62338 0.88154 0.07034 0.0
H359 H 0.72222 0.90391 0.07075 0.0
C360 C 0.35418 0.29453 0.40893 0.0
C361 C 0.29987 0.28583 0.40248 0.0
C362 C 0.39868 0.34828 0.41434 0.0
C363 C 0.39041 0.39523 0.41271 0.0
C364 C 0.33523 0.3861 0.40793 0.0
C365 C 0.29022 0.3318 0.40295 0.0
C366 C 0.43848 0.45391 0.41505 0.0
C367 C 0.49262 0.46783 0.40943 0.0
C368 C 0.54109 0.52634 0.4085 0.0
C369 C 0.59029 0.5362 0.39402 0.0
C370 C 0.6356 0.59064 0.39072 0.0
C371 C 0.6331 0.63681 0.402 0.0
H372 H 0.50355 0.5664 0.4333 0.0
C373 C 0.58518 0.62673 0.41789 0.0
C374 C 0.53969 0.57215 0.42113 0.0
H375 H 0.58185 0.66116 0.42711 0.0
H376 H 0.36257 0.25961 0.40939 0.0
H377 H 0.4395 0.35254 0.41943 0.0
H378 H 0.32729 0.42128 0.40702 0.0
H379 H 0.24869 0.3262 0.39812 0.0
H380 H 0.42803 0.48672 0.41926 0.0
H381 H 0.50189 0.43525 0.40291 0.0
H382 H 0.59308 0.50177 0.38439 0.0
H383 H 0.67179 0.59656 0.37848 0.0
C384 C 0.01069 0.42314 0.67868 0.0
C385 C 0.037 0.40327 0.69804 0.0
C386 C 0.02445 0.47971 0.6784 0.0
C387 C 0.06498 0.51794 0.69749 0.0
C388 C 0.09361 0.49879 0.71563 0.0
C389 C 0.07962 0.44215 0.71605 0.0
C390 C 0.07835 0.57773 0.69939 0.0
C391 C 0.04159 0.5959 0.69221 0.0
C392 C 0.05297 0.6548 0.69618 0.0
C393 C 0.01944 0.67302 0.6814 0.0
C394 C 0.02776 0.72747 0.68507 0.0
C395 C 0.06973 0.76501 0.70378 0.0
H396 H 0.12003 0.67986 0.72786 0.0
C397 C 0.1028 0.74653 0.71881 0.0
C398 C 0.09446 0.69224 0.71519 0.0
H399 H 0.13517 0.77388 0.73368 0.0
H400 H 0.97799 0.39472 0.66427 0.0
H401 H 1.0029 0.49303 0.6633 0.0
H402 H 0.12562 0.52739 0.73029 0.0
H403 H 0.10103 0.42865 0.73117 0.0
H404 H 0.11926 0.60695 0.70829 0.0
H405 H 1.00068 0.56637 0.68337 0.0
H406 H 0.9867 0.64505 0.66686 0.0
H407 H 1.00137 0.74007 0.67317 0.0
C408 C 0.39616 0.14307 0.11251 0.0
C409 C 0.37607 0.08906 0.10144 0.0
C410 C 0.40366 0.15184 0.14198 0.0
C411 C 0.39122 0.10658 0.16078 0.0
C412 C 0.37427 0.05338 0.14934 0.0
C413 C 0.36639 0.04461 0.12 0.0
C414 C 0.39247 0.11195 0.19235 0.0
C415 C 0.38271 0.1498 0.20566 0.0
C416 C 0.37159 0.14861 0.23682 0.0
C417 C 0.37164 0.19553 0.24878 0.0
C418 C 0.35245 0.19333 0.27657 0.0
C419 C 0.33263 0.14402 0.29299 0.0
H420 H 0.35275 0.06256 0.24568 0.0
C421 C 0.33562 0.09813 0.28185 0.0
C422 C 0.3547 0.10021 0.25398 0.0
H423 H 0.32009 0.05943 0.29402 0.0
H424 H 0.40394 0.178 0.09855 0.0
H425 H 0.41845 0.19384 0.14988 0.0
H426 H 0.36481 0.01788 0.16323 0.0
H427 H 0.35124 0.00262 0.1119 0.0
H428 H 0.3964 0.08024 0.20473 0.0
H429 H 0.37862 0.18122 0.19305 0.0
H430 H 0.38427 0.2333 0.23616 0.0
H431 H 0.3505 0.22934 0.28465 0.0
C432 C 0.03383 0.07266 0.48602 0.0
C433 C 0.04114 0.11354 0.46545 0.0
C434 C 0.01746 0.07599 0.51382 0.0
C435 C 0.00766 0.12012 0.52146 0.0
C436 C 0.01149 0.15878 0.50033 0.0
C437 C 0.02859 0.15587 0.47264 0.0
C438 C 0.99589 0.12911 0.55129 0.0
C439 C 0.01517 0.11382 0.57449 0.0
C440 C 0.01281 0.13315 0.60377 0.0
C441 C 0.01352 0.18434 0.60822 0.0
C442 C 0.0126 0.20246 0.63577 0.0
C443 C 0.01125 0.17022 0.65959 0.0
H444 H 0.01418 0.06294 0.62492 0.0
C445 C 0.01252 0.1201 0.65543 0.0
C446 C 0.01343 0.1018 0.62768 0.0
H447 H 0.01197 0.09477 0.67351 0.0
H448 H 0.04283 0.03925 0.48094 0.0
H449 H 0.01334 0.04446 0.52924 0.0
H450 H 1.00364 0.19289 0.50557 0.0
H451 H 0.03367 0.18775 0.45715 0.0
H452 H 0.97463 0.15361 0.55401 0.0
H453 H 0.0356 0.08848 0.5721 0.0
H454 H 0.01581 0.21125 0.59058 0.0
H455 H 0.01282 0.24193 0.63842 0.0
C456 C 0.93615 0.275 0.79117 0.0
C457 C 0.88858 0.23965 0.77481 0.0
C458 C 0.9356 0.26843 0.82071 0.0
C459 C 0.88722 0.22629 0.83434 0.0
C460 C 0.83808 0.19429 0.81815 0.0
C461 C 0.83844 0.2016 0.78854 0.0
C462 C 0.89018 0.20886 0.86401 0.0
C463 C 0.92634 0.24372 0.88365 0.0
C464 C 0.93704 0.22118 0.91028 0.0
C465 C 0.93396 0.24277 0.93678 0.0
C466 C 0.94092 0.2188 0.96199 0.0
C467 C 0.95282 0.17428 0.9608 0.0
H468 H 0.95454 0.16153 0.88879 0.0
C469 C 0.95901 0.15494 0.9342 0.0
C470 C 0.9507 0.17788 0.90913 0.0
H471 H 0.96816 0.12063 0.93274 0.0
H472 H 0.97506 0.3054 0.78096 0.0
H473 H 0.97452 0.29336 0.83236 0.0
H474 H 0.80034 0.16148 0.82821 0.0
H475 H 0.8011 0.17429 0.77627 0.0
H476 H 0.86416 0.16455 0.86933 0.0
H477 H 0.94933 0.28881 0.88001 0.0
H478 H 0.92417 0.27666 0.93798 0.0
H479 H 0.93609 0.23437 0.98234 0.0
C480 C 0.85629 0.86077 0.15575 0.0
C481 C 0.83348 0.85444 0.12817 0.0
C482 C 0.8207 0.83815 0.17934 0.0
C483 C 0.7616 0.80964 0.17574 0.0
C484 C 0.73901 0.80144 0.14807 0.0
C485 C 0.77465 0.8229 0.12443 0.0
C486 C 0.72331 0.79379 0.20064 0.0
C487 C 0.734 0.77467 0.22512 0.0
C488 C 0.70253 0.76734 0.25198 0.0
C489 C 0.70157 0.729 0.27236 0.0
C490 C 0.68476 0.73002 0.30026 0.0
C491 C 0.67042 0.77062 0.30853 0.0
H492 H 0.68145 0.83354 0.24417 0.0
C493 C 0.66467 0.80448 0.28754 0.0
C494 C 0.68107 0.8032 0.25936 0.0
H495 H 0.65273 0.8355 0.29337 0.0
H496 H 0.90146 0.88561 0.15921 0.0
H497 H 0.83942 0.84612 0.20047 0.0
H498 H 0.69367 0.77994 0.1448 0.0
H499 H 0.7559 0.81815 0.10342 0.0
H500 H 0.68597 0.79858 0.1988 0.0
H501 H 0.76849 0.76517 0.22581 0.0
H502 H 0.71701 0.70037 0.26714 0.0
H503 H 0.6872 0.70179 0.31592 0.0
C504 C 0.83756 0.81039 0.4599 0.0
C505 C 0.82752 0.84246 0.43951 0.0
C506 C 0.85292 0.82971 0.48774 0.0
C507 C 0.85877 0.88177 0.49582 0.0
C508 C 0.84917 0.91416 0.47534 0.0
C509 C 0.83316 0.89444 0.44743 0.0
C510 C 0.87873 0.90418 0.52492 0.0
C511 C 0.86564 0.87008 0.54794 0.0
C512 C 0.89225 0.88805 0.57655 0.0
C513 C 0.86606 0.85255 0.60007 0.0
C514 C 0.89354 0.86285 0.62647 0.0
C515 C 0.94794 0.90879 0.62985 0.0
H516 H 0.96833 0.96294 0.56259 0.0
C517 C 0.97352 0.94558 0.60671 0.0
C518 C 0.94596 0.93543 0.58029 0.0
H519 H 0.01605 0.98057 0.60858 0.0
H520 H 0.8339 0.77036 0.4543 0.0
H521 H 0.86179 0.80443 0.50265 0.0
H522 H 0.85403 0.95468 0.48095 0.0
H523 H 0.82597 0.92012 0.43199 0.0
H524 H 0.90505 0.9493 0.52719 0.0
H525 H 0.83482 0.82587 0.54558 0.0
H526 H 0.82495 0.81553 0.59776 0.0
H527 H 0.873 0.8337 0.64395 0.0
C528 C 0.27329 -0.00191 0.81463 0.0
C529 C 0.25773 0.95221 0.7965 0.0
C530 C 0.2759 0.99139 0.84403 0.0
C531 C 0.26386 0.93902 0.85553 0.0
C532 C 0.25547 0.8954 0.83721 0.0
C533 C 0.25186 0.90176 0.80777 0.0
C534 C 0.25406 0.92775 0.88636 0.0
C535 C 0.21886 0.94091 0.9002 0.0
C536 C 0.20692 0.93207 0.9312 0.0
C537 C 0.18287 0.96125 0.94446 0.0
C538 C 0.17789 0.96026 0.97412 0.0
C539 C 0.19591 0.92912 0.99082 0.0
H540 H 0.23677 0.87203 0.93865 0.0
C541 C 0.21497 0.89579 0.97755 0.0
C542 C 0.22061 0.8973 0.94797 0.0
H543 H 0.22841 0.87086 0.99012 0.0
H544 H 0.27827 0.03753 0.80646 0.0
H545 H 0.28404 0.02604 0.85789 0.0
H546 H 0.24692 0.85497 0.84578 0.0
H547 H 0.23998 0.86587 0.79414 0.0
H548 H 0.27363 0.90609 0.89692 0.0
H549 H 0.19933 0.96142 0.88829 0.0
H550 H 0.17056 0.98721 0.932 0.0
H551 H 0.16238 0.9857 0.98404 0.0
loop_
_geom_bond_atom_site_label_1
_geom_bond_atom_site_label_2
_geom_bond_distance
_geom_bond_site_symmetry_2
_ccdc_geom_bond_type
Tb0 O3 2.453 1_556 S
Tb0 O4 2.596 1_556 S
Tb0 O5 2.374 1_556 S
Tb0 O13 2.343 . S
Tb0 O15 2.353 1_556 S
Tb0 O17 2.427 . S
Tb0 O18 2.513 . S
C1 O5 1.248 . S
C1 O7 1.263 1_545 S
Tb2 O4 2.343 1_565 S
Tb2 O7 2.353 . S
Tb2 O10 2.427 . S
Tb2 O11 2.513 . S
Tb2 O12 2.453 1_554 S
Tb2 O13 2.596 1_564 S
Tb2 O14 2.374 . S
O3 Tb0 2.453 1_554 S
O3 C19 1.245 . S
O4 Tb0 2.596 1_554 S
O4 Tb2 2.343 1_545 S
O4 C19 1.259 . S
O5 Tb0 2.374 1_554 S
O5 C1 1.248 . S
C6 O10 1.275 . S
C6 O11 1.246 . S
O7 C1 1.263 1_565 S
O7 Tb2 2.353 . S
C8 O12 1.245 . S
C8 O13 1.259 1_565 S
C9 O14 1.250 1_545 S
C9 O15 1.263 . S
O10 Tb2 2.427 . S
O10 C6 1.275 . S
O11 Tb2 2.513 . S
O11 C6 1.246 . S
O12 Tb2 2.453 1_556 S
O12 C8 1.245 . S
O13 Tb0 2.343 . S
O13 Tb2 2.596 1_546 S
O13 C8 1.259 1_545 S
O14 Tb2 2.374 . S
O14 C9 1.250 1_565 S
O15 Tb0 2.353 1_554 S
O15 C9 1.263 . S
C16 O17 1.275 . S
C16 O18 1.246 . S
O17 Tb0 2.427 . S
O17 C16 1.275 . S
O18 Tb0 2.513 . S
O18 C16 1.246 . S
C19 O3 1.245 . S
C19 O4 1.259 . S
Tb20 O23 2.453 . S
Tb20 O24 2.596 . S
Tb20 O25 2.374 . S
Tb20 O33 2.343 . S
Tb20 O35 2.353 . S
Tb20 O37 2.427 . S
Tb20 O38 2.513 . S
C21 O25 1.251 . S
C21 O27 1.263 . S
Tb22 O24 2.343 . S
Tb22 O27 2.353 . S
Tb22 O30 2.427 . S
Tb22 O31 2.513 . S
Tb22 O32 2.453 . S
Tb22 O33 2.596 . S
Tb22 O34 2.374 . S
O23 Tb20 2.453 . S
O23 C39 1.245 . S
O24 Tb20 2.596 . S
O24 Tb22 2.343 . S
O24 C39 1.259 . S
O25 Tb20 2.374 . S
O25 C21 1.251 . S
C26 O30 1.275 . S
C26 O31 1.246 . S
O27 C21 1.263 . S
O27 Tb22 2.353 . S
C28 O32 1.245 . S
C28 O33 1.259 . S
C29 O34 1.250 . S
C29 O35 1.263 . S
O30 Tb22 2.427 . S
O30 C26 1.275 . S
O31 Tb22 2.513 . S
O31 C26 1.246 . S
O32 Tb22 2.453 . S
O32 C28 1.245 . S
O33 Tb20 2.343 . S
O33 Tb22 2.596 . S
O33 C28 1.259 . S
O34 Tb22 2.374 . S
O34 C29 1.250 . S
O35 Tb20 2.353 . S
O35 C29 1.263 . S
C36 O37 1.275 . S
C36 O38 1.246 . S
O37 Tb20 2.427 . S
O37 C36 1.275 . S
O38 Tb20 2.513 . S
O38 C36 1.246 . S
C39 O23 1.245 . S
C39 O24 1.259 . S
Tb40 O43 2.453 . S
Tb40 O44 2.596 1_655 S
Tb40 O45 2.374 . S
Tb40 O53 2.343 1_655 S
Tb40 O55 2.353 . S
Tb40 O57 2.427 . S
Tb40 O58 2.513 . S
C41 O45 1.251 1_455 S
C41 O47 1.263 . S
Tb42 O44 2.343 . S
Tb42 O47 2.353 . S
Tb42 O50 2.427 . S
Tb42 O51 2.513 . S
Tb42 O52 2.453 . S
Tb42 O53 2.596 . S
Tb42 O54 2.374 . S
O43 Tb40 2.453 . S
O43 C59 1.245 . S
O44 Tb40 2.596 1_455 S
O44 Tb42 2.343 . S
O44 C59 1.259 1_455 S
O45 Tb40 2.374 . S
O45 C41 1.251 1_655 S
C46 O50 1.275 . S
C46 O51 1.246 . S
O47 C41 1.263 . S
O47 Tb42 2.353 . S
C48 O52 1.245 . S
C48 O53 1.259 . S
C49 O54 1.250 . S
C49 O55 1.263 1_455 S
O50 Tb42 2.427 . S
O50 C46 1.275 . S
O51 Tb42 2.513 . S
O51 C46 1.246 . S
O52 Tb42 2.453 . S
O52 C48 1.245 . S
O53 Tb40 2.343 1_455 S
O53 Tb42 2.596 . S
O53 C48 1.259 . S
O54 Tb42 2.374 . S
O54 C49 1.250 . S
O55 Tb40 2.353 . S
O55 C49 1.263 1_655 S
C56 O57 1.275 . S
C56 O58 1.246 . S
O57 Tb40 2.427 . S
O57 C56 1.275 . S
O58 Tb40 2.513 . S
O58 C56 1.246 . S
C59 O43 1.245 . S
C59 O44 1.259 1_655 S
Tb60 O63 2.453 1_554 S
Tb60 O64 2.596 1_564 S
Tb60 O65 2.374 . S
Tb60 O73 2.343 1_565 S
Tb60 O75 2.353 . S
Tb60 O77 2.427 . S
Tb60 O78 2.513 . S
C61 O65 1.251 1_545 S
C61 O67 1.263 . S
Tb62 O64 2.343 . S
Tb62 O67 2.353 1_556 S
Tb62 O70 2.427 . S
Tb62 O71 2.513 . S
Tb62 O72 2.453 1_556 S
Tb62 O73 2.596 1_556 S
Tb62 O74 2.374 1_556 S
O63 Tb60 2.453 1_556 S
O63 C79 1.245 . S
O64 Tb60 2.596 1_546 S
O64 Tb62 2.343 . S
O64 C79 1.259 1_545 S
O65 Tb60 2.374 . S
O65 C61 1.251 1_565 S
C66 O70 1.275 . S
C66 O71 1.246 . S
O67 C61 1.263 . S
O67 Tb62 2.353 1_554 S
C68 O72 1.245 . S
C68 O73 1.259 . S
C69 O74 1.250 . S
C69 O75 1.263 1_545 S
O70 Tb62 2.427 . S
O70 C66 1.275 . S
O71 Tb62 2.513 . S
O71 C66 1.246 . S
O72 Tb62 2.453 1_554 S
O72 C68 1.245 . S
O73 Tb60 2.343 1_545 S
O73 Tb62 2.596 1_554 S
O73 C68 1.259 . S
O74 Tb62 2.374 1_554 S
O74 C69 1.250 . S
O75 Tb60 2.353 . S
O75 C69 1.263 1_565 S
C76 O77 1.275 . S
C76 O78 1.246 . S
O77 Tb60 2.427 . S
O77 C76 1.275 . S
O78 Tb60 2.513 . S
O78 C76 1.246 . S
C79 O63 1.245 . S
C79 O64 1.259 1_565 S
Tb80 O83 2.453 . S
Tb80 O84 2.596 . S
Tb80 O85 2.374 . S
Tb80 O93 2.343 . S
Tb80 O95 2.353 . S
Tb80 O97 2.427 . S
Tb80 O98 2.513 . S
C81 O85 1.251 . S
C81 O87 1.263 . S
Tb82 O84 2.343 . S
Tb82 O87 2.353 . S
Tb82 O90 2.427 . S
Tb82 O91 2.513 . S
Tb82 O92 2.453 . S
Tb82 O93 2.596 . S
Tb82 O94 2.374 . S
O83 Tb80 2.453 . S
O83 C99 1.245 . S
O84 Tb80 2.596 . S
O84 Tb82 2.343 . S
O84 C99 1.259 . S
O85 Tb80 2.374 . S
O85 C81 1.251 . S
C86 O90 1.275 . S
C86 O91 1.246 . S
O87 C81 1.263 . S
O87 Tb82 2.353 . S
C88 O92 1.245 . S
C88 O93 1.259 . S
C89 O94 1.250 . S
C89 O95 1.263 . S
O90 Tb82 2.427 . S
O90 C86 1.275 . S
O91 Tb82 2.513 . S
O91 C86 1.246 . S
O92 Tb82 2.453 . S
O92 C88 1.245 . S
O93 Tb80 2.343 . S
O93 Tb82 2.596 . S
O93 C88 1.259 . S
O94 Tb82 2.374 . S
O94 C89 1.250 . S
O95 Tb80 2.353 . S
O95 C89 1.263 . S
C96 O97 1.275 . S
C96 O98 1.246 . S
O97 Tb80 2.427 . S
O97 C96 1.275 . S
O98 Tb80 2.513 . S
O98 C96 1.246 . S
C99 O83 1.245 . S
C99 O84 1.259 . S
Tb100 O103 2.453 . S
Tb100 O104 2.596 . S
Tb100 O105 2.374 . S
Tb100 O113 2.343 . S
Tb100 O115 2.353 . S
Tb100 O117 2.427 . S
Tb100 O118 2.513 . S
C101 O105 1.251 . S
C101 O107 1.263 1_455 S
Tb102 O104 2.343 1_655 S
Tb102 O107 2.353 . S
Tb102 O110 2.427 . S
Tb102 O111 2.513 . S
Tb102 O112 2.453 . S
Tb102 O113 2.596 1_655 S
Tb102 O114 2.374 . S
O103 Tb100 2.453 . S
O103 C119 1.245 . S
O104 Tb100 2.596 . S
O104 Tb102 2.343 1_455 S
O104 C119 1.259 . S
O105 Tb100 2.374 . S
O105 C101 1.251 . S
C106 O110 1.275 . S
C106 O111 1.246 . S
O107 C101 1.263 1_655 S
O107 Tb102 2.353 . S
C108 O112 1.245 . S
C108 O113 1.259 1_655 S
C109 O114 1.250 1_455 S
C109 O115 1.263 . S
O110 Tb102 2.427 . S
O110 C106 1.275 . S
O111 Tb102 2.513 . S
O111 C106 1.246 . S
O112 Tb102 2.453 . S
O112 C108 1.245 . S
O113 Tb100 2.343 . S
O113 Tb102 2.596 1_455 S
O113 C108 1.259 1_455 S
O114 Tb102 2.374 . S
O114 C109 1.250 1_655 S
O115 Tb100 2.353 . S
O115 C109 1.263 . S
C116 O117 1.275 . S
C116 O118 1.246 . S
O117 Tb100 2.427 . S
O117 C116 1.275 . S
O118 Tb100 2.513 . S
O118 C116 1.246 . S
C119 O103 1.245 . S
C119 O104 1.259 . S
C120 C121 1.386 1_556 S
C120 C122 1.383 . S
C120 H136 0.951 . S
C121 C120 1.386 1_554 S
C121 C125 1.383 1_545 S
C122 C120 1.383 . S
C122 C123 1.402 1_556 S
C122 H137 0.938 1_655 S
C123 C122 1.402 1_554 S
C123 C124 1.375 1_545 S
C123 C126 1.481 1_655 S
C124 C123 1.375 1_565 S
C124 C125 1.367 . S
C124 H138 0.951 . S
C125 C121 1.383 1_565 S
C125 C124 1.367 . S
C125 H139 0.950 . S
C126 C123 1.481 1_455 S
C126 C127 1.297 . S
C126 H140 0.950 1_545 S
C127 C126 1.297 . S
C127 C128 1.479 . S
C127 H141 0.950 1_554 S
C128 C127 1.479 . S
C128 C129 1.375 1_554 S
C128 C134 1.404 . S
C129 C128 1.375 1_556 S
C129 C130 1.369 . S
C129 H142 0.950 . S
C130 C129 1.369 . S
C130 C131 1.370 1_556 S
C130 H143 0.951 . S
C131 C130 1.370 1_554 S
C131 C133 1.410 1_545 S
H132 C134 0.949 1_565 S
C133 C131 1.410 1_565 S
C133 C134 1.385 1_565 S
C133 H135 0.950 . S
C134 C128 1.404 . S
C134 H132 0.949 1_545 S
C134 C133 1.385 1_545 S
H135 C133 0.950 . S
H136 C120 0.951 . S
H137 C122 0.938 1_455 S
H138 C124 0.951 . S
H139 C125 0.950 . S
H140 C126 0.950 1_565 S
H141 C127 0.950 1_556 S
H142 C129 0.950 . S
H143 C130 0.951 . S
C144 C145 1.386 . S
C144 C146 1.383 . S
C144 H160 0.951 . S
C145 C144 1.386 . S
C145 C149 1.383 . S
C146 C144 1.383 . S
C146 C147 1.402 . S
C146 H161 0.951 . S
C147 C146 1.402 . S
C147 C148 1.375 . S
C147 C150 1.481 . S
C148 C147 1.375 . S
C148 C149 1.367 . S
C148 H162 0.951 . S
C149 C145 1.383 . S
C149 C148 1.367 . S
C149 H163 0.950 . S
C150 C147 1.481 . S
C150 C151 1.297 1_665 S
C150 H164 0.953 1_665 S
C151 C150 1.297 1_445 S
C151 C152 1.479 . S
C151 H165 0.950 1_545 S
C152 C151 1.479 . S
C152 C153 1.375 . S
C152 C158 1.404 . S
C153 C152 1.375 . S
C153 C154 1.369 . S
C153 H166 0.950 . S
C154 C153 1.369 . S
C154 C155 1.392 . S
C154 H167 0.951 . S
C155 C154 1.392 . S
C155 C157 1.384 . S
H156 C158 0.949 . S
C157 C155 1.384 . S
C157 C158 1.385 . S
C157 H159 0.950 . S
C158 C152 1.404 . S
C158 H156 0.949 . S
C158 C157 1.385 . S
H159 C157 0.950 . S
H160 C144 0.951 . S
H161 C146 0.951 . S
H162 C148 0.951 . S
H163 C149 0.950 . S
H164 C150 0.953 1_445 S
H165 C151 0.950 1_565 S
H166 C153 0.950 . S
H167 C154 0.951 . S
C168 C169 1.386 1_655 S
C168 C170 1.383 . S
C168 H184 0.951 . S
C169 C168 1.386 1_455 S
C169 C173 1.383 . S
C170 C168 1.383 . S
C170 C171 1.402 1_655 S
C170 H185 0.951 . S
C171 C170 1.402 1_455 S
C171 C172 1.375 . S
C171 C174 1.481 1_565 S
C172 C171 1.375 . S
C172 C173 1.367 . S
C172 H186 0.951 . S
C173 C169 1.383 . S
C173 C172 1.367 . S
C173 H187 0.950 . S
C174 C171 1.481 1_545 S
C174 C175 1.297 . S
C174 H188 0.950 . S
C175 C174 1.297 . S
C175 C176 1.479 . S
C175 H189 0.950 1_455 S
C176 C175 1.479 . S
C176 C177 1.375 1_455 S
C176 C182 1.404 . S
C177 C176 1.375 1_655 S
C177 C178 1.369 . S
C177 H190 0.950 . S
C178 C177 1.369 . S
C178 C179 1.392 1_655 S
C178 H191 0.951 . S
C179 C178 1.392 1_455 S
C179 C181 1.384 . S
H180 C182 0.949 . S
C181 C179 1.384 . S
C181 C182 1.385 . S
C181 H183 0.950 . S
C182 C176 1.404 . S
C182 H180 0.949 . S
C182 C181 1.385 . S
H183 C181 0.950 . S
H184 C168 0.951 . S
H185 C170 0.951 . S
H186 C172 0.951 . S
H187 C173 0.950 . S
H188 C174 0.950 . S
H189 C175 0.950 1_655 S
H190 C177 0.950 . S
H191 C178 0.951 . S
C192 C193 1.386 . S
C192 C194 1.383 . S
C192 H208 0.951 . S
C193 C192 1.386 . S
C193 C197 1.383 . S
C194 C192 1.383 . S
C194 C195 1.402 . S
C194 H209 0.951 . S
C195 C194 1.402 . S
C195 C196 1.375 . S
C195 C198 1.481 . S
C196 C195 1.375 . S
C196 C197 1.367 . S
C196 H210 0.951 . S
C197 C193 1.383 . S
C197 C196 1.367 . S
C197 H211 0.950 . S
C198 C195 1.481 . S
C198 C199 1.297 . S
C198 H212 0.950 . S
C199 C198 1.297 . S
C199 C200 1.479 . S
C199 H213 0.950 . S
C200 C199 1.479 . S
C200 C201 1.375 . S
C200 C206 1.404 . S
C201 C200 1.375 . S
C201 C202 1.369 . S
C201 H214 0.950 . S
C202 C201 1.369 . S
C202 C203 1.392 . S
C202 H215 0.951 . S
C203 C202 1.392 . S
C203 C205 1.384 . S
H204 C206 0.949 . S
C205 C203 1.384 . S
C205 C206 1.385 . S
C205 H207 0.950 . S
C206 C200 1.404 . S
C206 H204 0.949 . S
C206 C205 1.385 . S
H207 C205 0.950 . S
H208 C192 0.951 . S
H209 C194 0.951 . S
H210 C196 0.951 . S
H211 C197 0.950 . S
H212 C198 0.950 . S
H213 C199 0.950 . S
H214 C201 0.950 . S
H215 C202 0.951 . S
C216 C217 1.386 . S
C216 C218 1.383 . S
C216 H232 0.951 . S
C217 C216 1.386 . S
C217 C221 1.383 . S
C218 C216 1.383 . S
C218 C219 1.402 . S
C218 H233 0.951 . S
C219 C218 1.402 . S
C219 C220 1.375 . S
C219 C222 1.481 . S
C220 C219 1.375 . S
C220 C221 1.367 . S
C220 H234 0.951 . S
C221 C217 1.383 . S
C221 C220 1.367 . S
C221 H235 0.950 . S
C222 C219 1.481 . S
C222 C223 1.297 1_455 S
C222 H236 0.950 . S
C223 C222 1.297 1_655 S
C223 C224 1.479 . S
C223 H237 0.950 . S
C224 C223 1.479 . S
C224 C225 1.375 . S
C224 C230 1.404 . S
C225 C224 1.375 . S
C225 C226 1.369 . S
C225 H238 0.950 . S
C226 C225 1.369 . S
C226 C227 1.392 . S
C226 H239 0.951 . S
C227 C226 1.392 . S
C227 C229 1.384 . S
H228 C230 0.949 . S
C229 C227 1.384 . S
C229 C230 1.385 . S
C229 H231 0.950 . S
C230 C224 1.404 . S
C230 H228 0.949 . S
C230 C229 1.385 . S
H231 C229 0.950 . S
H232 C216 0.951 . S
H233 C218 0.951 . S
H234 C220 0.951 . S
H235 C221 0.950 . S
H236 C222 0.950 . S
H237 C223 0.950 . S
H238 C225 0.950 . S
H239 C226 0.951 . S
C240 C241 1.386 . S
C240 C242 1.383 . S
C240 H256 0.951 . S
C241 C240 1.386 . S
C241 C245 1.383 . S
C242 C240 1.383 . S
C242 C243 1.402 . S
C242 H257 0.951 . S
C243 C242 1.402 . S
C243 C244 1.375 . S
C243 C246 1.481 . S
C244 C243 1.375 . S
C244 C245 1.367 . S
C244 H258 0.951 . S
C245 C241 1.383 . S
C245 C244 1.367 . S
C245 H259 0.950 . S
C246 C243 1.481 . S
C246 C247 1.297 1_545 S
C246 H260 0.950 . S
C247 C246 1.297 1_565 S
C247 C248 1.479 . S
C247 H261 0.950 . S
C248 C247 1.479 . S
C248 C249 1.375 . S
C248 C254 1.404 . S
C249 C248 1.375 . S
C249 C250 1.369 . S
C249 H262 0.950 . S
C250 C249 1.369 . S
C250 C251 1.392 . S
C250 H263 0.951 . S
C251 C250 1.392 . S
C251 C253 1.384 . S
H252 C254 0.949 . S
C253 C251 1.384 . S
C253 C254 1.385 . S
C253 H255 0.950 . S
C254 C248 1.404 . S
C254 H252 0.949 . S
C254 C253 1.385 . S
H255 C253 0.950 . S
H256 C240 0.951 . S
H257 C242 0.951 . S
H258 C244 0.951 . S
H259 C245 0.950 . S
H260 C246 0.950 . S
H261 C247 0.950 . S
H262 C249 0.950 . S
H263 C250 0.951 . S
C264 C265 1.386 . S
C264 C266 1.383 . S
C264 H280 0.951 . S
C265 C264 1.386 . S
C265 C269 1.383 . S
C266 C264 1.383 . S
C266 C267 1.402 . S
C266 H281 0.951 . S
C267 C266 1.402 . S
C267 C268 1.375 . S
C267 C270 1.481 . S
C268 C267 1.375 . S
C268 C269 1.367 . S
C268 H282 0.951 . S
C269 C265 1.383 . S
C269 C268 1.367 . S
C269 H283 0.950 . S
C270 C267 1.481 . S
C270 C271 1.297 . S
C270 H284 0.950 . S
C271 C270 1.297 . S
C271 C272 1.479 . S
C271 H285 0.950 . S
C272 C271 1.479 . S
C272 C273 1.375 . S
C272 C278 1.404 . S
C273 C272 1.375 . S
C273 C274 1.369 . S
C273 H286 0.950 . S
C274 C273 1.369 . S
C274 C275 1.392 . S
C274 H287 0.951 . S
C275 C274 1.392 . S
C275 C277 1.384 . S
H276 C278 0.949 . S
C277 C275 1.384 . S
C277 C278 1.385 . S
C277 H279 0.950 . S
C278 C272 1.404 . S
C278 H276 0.949 . S
C278 C277 1.385 . S
H279 C277 0.950 . S
H280 C264 0.951 . S
H281 C266 0.951 . S
H282 C268 0.951 . S
H283 C269 0.950 . S
H284 C270 0.950 . S
H285 C271 0.950 . S
H286 C273 0.950 . S
H287 C274 0.951 . S
C288 C289 1.386 . S
C288 C290 1.383 . S
C288 H304 0.951 . S
C289 C288 1.386 . S
C289 C293 1.383 . S
C290 C288 1.383 . S
C290 C291 1.402 . S
C290 H305 0.951 . S
C291 C290 1.402 . S
C291 C292 1.375 . S
C291 C294 1.481 1_655 S
C292 C291 1.375 . S
C292 C293 1.367 . S
C292 H306 0.951 1_655 S
C293 C289 1.383 . S
C293 C292 1.367 . S
C293 H307 0.950 . S
C294 C291 1.481 1_455 S
C294 C295 1.297 . S
C294 H308 0.950 . S
C295 C294 1.297 . S
C295 C296 1.479 . S
C295 H309 0.950 1_455 S
C296 C295 1.479 . S
C296 C297 1.375 . S
C296 C302 1.404 . S
C297 C296 1.375 . S
C297 C298 1.369 . S
C297 H310 0.950 . S
C298 C297 1.369 . S
C298 C299 1.392 . S
C298 H311 0.951 . S
C299 C298 1.392 . S
C299 C301 1.384 . S
H300 C302 0.949 . S
C301 C299 1.384 . S
C301 C302 1.385 . S
C301 H303 0.950 . S
C302 C296 1.404 . S
C302 H300 0.949 . S
C302 C301 1.385 . S
H303 C301 0.950 . S
H304 C288 0.951 . S
H305 C290 0.951 . S
H306 C292 0.951 1_455 S
H307 C293 0.950 . S
H308 C294 0.950 . S
H309 C295 0.950 1_655 S
H310 C297 0.950 . S
H311 C298 0.951 . S
C312 C313 1.386 . S
C312 C314 1.383 . S
C312 H328 0.951 . S
C313 C312 1.386 . S
C313 C317 1.383 . S
C314 C312 1.383 . S
C314 C315 1.402 1_565 S
C314 H329 0.951 . S
C315 C314 1.402 1_545 S
C315 C316 1.378 . S
C315 C318 1.481 . S
C316 C315 1.378 . S
C316 C317 1.364 1_545 S
C316 H330 0.951 . S
C317 C313 1.383 . S
C317 C316 1.364 1_565 S
C317 H331 0.950 . S
C318 C315 1.481 . S
C318 C319 1.297 . S
C318 H332 0.950 . S
C319 C318 1.297 . S
C319 C320 1.479 . S
C319 H333 0.950 . S
C320 C319 1.479 . S
C320 C321 1.375 . S
C320 C326 1.404 . S
C321 C320 1.375 . S
C321 C322 1.369 . S
C321 H334 0.950 . S
C322 C321 1.369 . S
C322 C323 1.392 . S
C322 H335 0.951 . S
C323 C322 1.392 . S
C323 C325 1.384 . S
H324 C326 0.949 . S
C325 C323 1.384 . S
C325 C326 1.385 . S
C325 H327 0.950 . S
C326 C320 1.404 . S
C326 H324 0.949 . S
C326 C325 1.385 . S
H327 C325 0.950 . S
H328 C312 0.951 . S
H329 C314 0.951 . S
H330 C316 0.951 . S
H331 C317 0.950 . S
H332 C318 0.950 . S
H333 C319 0.950 . S
H334 C321 0.950 . S
H335 C322 0.951 . S
C336 C337 1.386 1_565 S
C336 C338 1.382 1_565 S
C336 H352 0.951 1_554 S
C337 C336 1.386 1_545 S
C337 C341 1.383 . S
C338 C336 1.382 1_545 S
C338 C339 1.401 . S
C338 H353 0.952 1_544 S
C339 C338 1.401 . S
C339 C340 1.375 . S
C339 C342 1.481 . S
C340 C339 1.375 . S
C340 C341 1.367 . S
C340 H354 0.951 . S
C341 C337 1.383 . S
C341 C340 1.367 . S
C341 H355 0.950 . S
C342 C339 1.481 . S
C342 C343 1.297 . S
C342 H356 0.950 . S
C343 C342 1.297 . S
C343 C344 1.479 . S
C343 H357 0.950 1_554 S
C344 C343 1.479 . S
C344 C345 1.375 1_544 S
C344 C350 1.404 . S
C345 C344 1.375 1_566 S
C345 C346 1.365 1_556 S
C345 H358 0.950 . S
C346 C345 1.365 1_554 S
C346 C347 1.405 1_565 S
C346 H359 0.942 1_554 S
C347 C346 1.405 1_545 S
C347 C349 1.384 . S
H348 C350 0.949 . S
C349 C347 1.384 . S
C349 C350 1.385 . S
C349 H351 0.950 . S
C350 C344 1.404 . S
C350 H348 0.949 . S
C350 C349 1.385 . S
H351 C349 0.950 . S
H352 C336 0.951 1_556 S
H353 C338 0.952 1_566 S
H354 C340 0.951 . S
H355 C341 0.950 . S
H356 C342 0.950 . S
H357 C343 0.950 1_556 S
H358 C345 0.950 . S
H359 C346 0.942 1_556 S
C360 C361 1.386 . S
C360 C362 1.383 . S
C360 H376 0.951 . S
C361 C360 1.386 . S
C361 C365 1.383 . S
C362 C360 1.383 . S
C362 C363 1.402 . S
C362 H377 0.951 . S
C363 C362 1.402 . S
C363 C364 1.375 . S
C363 C366 1.481 . S
C364 C363 1.375 . S
C364 C365 1.367 . S
C364 H378 0.951 . S
C365 C361 1.383 . S
C365 C364 1.367 . S
C365 H379 0.950 . S
C366 C363 1.481 . S
C366 C367 1.297 . S
C366 H380 0.950 . S
C367 C366 1.297 . S
C367 C368 1.479 . S
C367 H381 0.950 . S
C368 C367 1.479 . S
C368 C369 1.375 . S
C368 C374 1.404 . S
C369 C368 1.375 . S
C369 C370 1.369 . S
C369 H382 0.950 . S
C370 C369 1.369 . S
C370 C371 1.392 . S
C370 H383 0.951 . S
C371 C370 1.392 . S
C371 C373 1.384 . S
H372 C374 0.949 . S
C373 C371 1.384 . S
C373 C374 1.385 . S
C373 H375 0.950 . S
C374 C368 1.404 . S
C374 H372 0.949 . S
C374 C373 1.385 . S
H375 C373 0.950 . S
H376 C360 0.951 . S
H377 C362 0.951 . S
H378 C364 0.951 . S
H379 C365 0.950 . S
H380 C366 0.950 . S
H381 C367 0.950 . S
H382 C369 0.950 . S
H383 C370 0.951 . S
C384 C385 1.386 . S
C384 C386 1.383 . S
C384 H400 0.951 . S
C385 C384 1.386 . S
C385 C389 1.383 1_455 S
C386 C384 1.383 . S
C386 C387 1.403 . S
C386 H401 0.951 . S
C387 C386 1.403 . S
C387 C388 1.375 1_455 S
C387 C390 1.479 1_455 S
C388 C387 1.375 1_655 S
C388 C389 1.367 . S
C388 H402 0.951 . S
C389 C385 1.383 1_655 S
C389 C388 1.367 . S
C389 H403 0.950 . S
C390 C387 1.479 1_655 S
C390 C391 1.297 1_655 S
C390 H404 0.950 . S
C391 C390 1.297 1_455 S
C391 C392 1.479 . S
C391 H405 0.950 . S
C392 C391 1.479 . S
C392 C393 1.375 . S
C392 C398 1.404 1_455 S
C393 C392 1.375 . S
C393 C394 1.369 . S
C393 H406 0.950 . S
C394 C393 1.369 . S
C394 C395 1.392 . S
C394 H407 0.951 . S
C395 C394 1.392 . S
C395 C397 1.384 1_455 S
H396 C398 0.949 . S
C397 C395 1.384 1_655 S
C397 C398 1.385 . S
C397 H399 0.950 . S
C398 C392 1.404 1_655 S
C398 H396 0.949 . S
C398 C397 1.385 . S
H399 C397 0.950 . S
H400 C384 0.951 . S
H401 C386 0.951 . S
H402 C388 0.951 . S
H403 C389 0.950 . S
H404 C390 0.950 . S
H405 C391 0.950 . S
H406 C393 0.950 . S
H407 C394 0.951 . S
C408 C409 1.386 . S
C408 C410 1.383 . S
C408 H424 0.951 . S
C409 C408 1.386 . S
C409 C413 1.383 . S
C410 C408 1.383 . S
C410 C411 1.402 . S
C410 H425 0.951 . S
C411 C410 1.402 . S
C411 C412 1.375 . S
C411 C414 1.481 . S
C412 C411 1.375 . S
C412 C413 1.367 . S
C412 H426 0.951 . S
C413 C409 1.383 . S
C413 C412 1.367 . S
C413 H427 0.950 . S
C414 C411 1.481 . S
C414 C415 1.297 . S
C414 H428 0.950 . S
C415 C414 1.297 . S
C415 C416 1.479 . S
C415 H429 0.950 . S
C416 C415 1.479 . S
C416 C417 1.375 . S
C416 C422 1.404 . S
C417 C416 1.375 . S
C417 C418 1.369 . S
C417 H430 0.950 . S
C418 C417 1.369 . S
C418 C419 1.392 . S
C418 H431 0.951 . S
C419 C418 1.392 . S
C419 C421 1.384 . S
H420 C422 0.949 . S
C421 C419 1.384 . S
C421 C422 1.385 . S
C421 H423 0.950 . S
C422 C416 1.404 . S
C422 H420 0.949 . S
C422 C421 1.385 . S
H423 C421 0.950 . S
H424 C408 0.951 . S
H425 C410 0.951 . S
H426 C412 0.951 . S
H427 C413 0.950 . S
H428 C414 0.950 . S
H429 C415 0.950 . S
H430 C417 0.950 . S
H431 C418 0.951 . S
C432 C433 1.386 . S
C432 C434 1.383 . S
C432 H448 0.951 . S
C433 C432 1.386 . S
C433 C437 1.383 . S
C434 C432 1.383 . S
C434 C435 1.402 . S
C434 H449 0.951 . S
C435 C434 1.402 . S
C435 C436 1.375 . S
C435 C438 1.481 . S
C436 C435 1.375 . S
C436 C437 1.367 . S
C436 H450 0.951 . S
C437 C433 1.383 . S
C437 C436 1.367 . S
C437 H451 0.950 . S
C438 C435 1.481 . S
C438 C439 1.297 . S
C438 H452 0.950 . S
C439 C438 1.297 . S
C439 C440 1.479 . S
C439 H453 0.950 . S
C440 C439 1.479 . S
C440 C441 1.375 . S
C440 C446 1.404 . S
C441 C440 1.375 . S
C441 C442 1.369 . S
C441 H454 0.950 . S
C442 C441 1.369 . S
C442 C443 1.392 . S
C442 H455 0.951 . S
C443 C442 1.392 . S
C443 C445 1.384 . S
H444 C446 0.949 . S
C445 C443 1.384 . S
C445 C446 1.385 . S
C445 H447 0.950 . S
C446 C440 1.404 . S
C446 H444 0.949 . S
C446 C445 1.385 . S
H447 C445 0.950 . S
H448 C432 0.951 . S
H449 C434 0.951 . S
H450 C436 0.951 . S
H451 C437 0.950 . S
H452 C438 0.950 . S
H453 C439 0.950 . S
H454 C441 0.950 . S
H455 C442 0.951 . S
C456 C457 1.386 . S
C456 C458 1.383 . S
C456 H472 0.951 . S
C457 C456 1.386 . S
C457 C461 1.383 . S
C458 C456 1.383 . S
C458 C459 1.402 . S
C458 H473 0.951 . S
C459 C458 1.402 . S
C459 C460 1.375 . S
C459 C462 1.481 . S
C460 C459 1.375 . S
C460 C461 1.367 . S
C460 H474 0.951 . S
C461 C457 1.383 . S
C461 C460 1.367 . S
C461 H475 0.950 . S
C462 C459 1.481 . S
C462 C463 1.297 . S
C462 H476 0.950 . S
C463 C462 1.297 . S
C463 C464 1.479 . S
C463 H477 0.950 . S
C464 C463 1.479 . S
C464 C465 1.375 . S
C464 C470 1.404 . S
C465 C464 1.375 . S
C465 C466 1.369 . S
C465 H478 0.950 . S
C466 C465 1.369 . S
C466 C467 1.392 . S
C466 H479 0.951 . S
C467 C466 1.392 . S
C467 C469 1.384 . S
H468 C470 0.949 . S
C469 C467 1.384 . S
C469 C470 1.385 . S
C469 H471 0.950 . S
C470 C464 1.404 . S
C470 H468 0.949 . S
C470 C469 1.385 . S
H471 C469 0.950 . S
H472 C456 0.951 . S
H473 C458 0.951 . S
H474 C460 0.951 . S
H475 C461 0.950 . S
H476 C462 0.950 . S
H477 C463 0.950 . S
H478 C465 0.950 . S
H479 C466 0.951 . S
C480 C481 1.386 . S
C480 C482 1.383 . S
C480 H496 0.951 . S
C481 C480 1.386 . S
C481 C485 1.383 . S
C482 C480 1.383 . S
C482 C483 1.402 . S
C482 H497 0.951 . S
C483 C482 1.402 . S
C483 C484 1.375 . S
C483 C486 1.481 . S
C484 C483 1.375 . S
C484 C485 1.367 . S
C484 H498 0.951 . S
C485 C481 1.383 . S
C485 C484 1.367 . S
C485 H499 0.950 . S
C486 C483 1.481 . S
C486 C487 1.297 . S
C486 H500 0.950 . S
C487 C486 1.297 . S
C487 C488 1.479 . S
C487 H501 0.950 . S
C488 C487 1.479 . S
C488 C489 1.375 . S
C488 C494 1.404 . S
C489 C488 1.375 . S
C489 C490 1.369 . S
C489 H502 0.950 . S
C490 C489 1.369 . S
C490 C491 1.392 . S
C490 H503 0.951 . S
C491 C490 1.392 . S
C491 C493 1.384 . S
H492 C494 0.949 . S
C493 C491 1.384 . S
C493 C494 1.385 . S
C493 H495 0.950 . S
C494 C488 1.404 . S
C494 H492 0.949 . S
C494 C493 1.385 . S
H495 C493 0.950 . S
H496 C480 0.951 . S
H497 C482 0.951 . S
H498 C484 0.951 . S
H499 C485 0.950 . S
H500 C486 0.950 . S
H501 C487 0.950 . S
H502 C489 0.950 . S
H503 C490 0.951 . S
C504 C505 1.386 . S
C504 C506 1.383 . S
C504 H520 0.951 . S
C505 C504 1.386 . S
C505 C509 1.383 . S
C506 C504 1.383 . S
C506 C507 1.402 . S
C506 H521 0.951 . S
C507 C506 1.402 . S
C507 C508 1.375 . S
C507 C510 1.481 . S
C508 C507 1.375 . S
C508 C509 1.367 . S
C508 H522 0.951 . S
C509 C505 1.383 . S
C509 C508 1.367 . S
C509 H523 0.950 . S
C510 C507 1.481 . S
C510 C511 1.297 . S
C510 H524 0.950 . S
C511 C510 1.297 . S
C511 C512 1.479 . S
C511 H525 0.950 . S
C512 C511 1.479 . S
C512 C513 1.375 . S
C512 C518 1.404 . S
C513 C512 1.375 . S
C513 C514 1.369 . S
C513 H526 0.950 . S
C514 C513 1.369 . S
C514 C515 1.392 . S
C514 H527 0.951 . S
C515 C514 1.392 . S
C515 C517 1.384 . S
H516 C518 0.949 . S
C517 C515 1.384 . S
C517 C518 1.385 . S
C517 H519 0.950 . S
C518 C512 1.404 . S
C518 H516 0.949 . S
C518 C517 1.385 . S
H519 C517 0.950 . S
H520 C504 0.951 . S
H521 C506 0.951 . S
H522 C508 0.951 . S
H523 C509 0.950 . S
H524 C510 0.950 . S
H525 C511 0.950 . S
H526 C513 0.950 . S
H527 C514 0.951 . S
C528 C529 1.386 . S
C528 C530 1.383 . S
C528 H544 0.951 . S
C529 C528 1.386 . S
C529 C533 1.383 . S
C530 C528 1.383 . S
C530 C531 1.402 . S
C530 H545 0.951 . S
C531 C530 1.402 . S
C531 C532 1.375 . S
C531 C534 1.481 . S
C532 C531 1.375 . S
C532 C533 1.367 . S
C532 H546 0.951 . S
C533 C529 1.383 . S
C533 C532 1.367 . S
C533 H547 0.950 . S
C534 C531 1.481 . S
C534 C535 1.297 . S
C534 H548 0.950 . S
C535 C534 1.297 . S
C535 C536 1.479 . S
C535 H549 0.950 . S
C536 C535 1.479 . S
C536 C537 1.375 . S
C536 C542 1.404 . S
C537 C536 1.375 . S
C537 C538 1.369 . S
C537 H550 0.950 . S
C538 C537 1.369 . S
C538 C539 1.392 . S
C538 H551 0.951 . S
C539 C538 1.392 . S
C539 C541 1.384 . S
H540 C542 0.949 . S
C541 C539 1.384 . S
C541 C542 1.385 . S
C541 H543 0.950 . S
C542 C536 1.404 . S
C542 H540 0.949 . S
C542 C541 1.385 . S
H543 C541 0.950 . S
H544 C528 0.951 . S
H545 C530 0.951 . S
H546 C532 0.951 . S
H547 C533 0.950 . S
H548 C534 0.950 . S
H549 C535 0.950 . S
H550 C537 0.950 . S
H551 C538 0.951 . S
C121 C61 2.141 . S
C131 C9 2.168 . S
C145 C89 2.177 . S
C155 C21 2.180 . S
C169 C101 2.142 . S
C179 C49 2.163 . S
C193 C16 1.619 . S
C203 C46 1.554 . S
C217 C39 2.669 . S
C227 C68 2.554 . S
C241 C56 1.599 . S
C251 C86 1.603 . S
C265 C79 2.672 . S
C275 C108 2.513 . S
C289 C96 1.564 . S
C299 C6 1.528 . S
C313 C119 2.664 . S
C323 C28 2.550 . S
C337 C1 1.120 . S
C347 C69 1.076 . S
C361 C29 1.137 . S
C371 C81 1.112 . S
C385 C41 1.130 . S
C395 C109 1.093 . S
C409 C19 1.037 . S
C419 C26 1.102 . S
C433 C36 1.047 . S
C443 C48 1.082 . S
C457 C59 1.029 . S
C467 C66 1.098 . S
C481 C76 1.056 . S
C491 C88 1.080 . S
C505 C99 1.030 . S
C515 C106 1.100 . S
C529 C116 1.066 . S
C539 C8 1.017 . S
