# Generated by pormake.
# Topology lcy-a, (4)-cn, num edge types: 1
# Building blocks:
#     Node 0, Type 0, BuildingBlock: TATPOV_clean_sbu_0, # of connection points: 4
#     Node 1, Type 0, BuildingBlock: TATPOV_clean_sbu_0, # of connection points: 4
#     Node 2, Type 0, BuildingBlock: TATPOV_clean_sbu_0, # of connection points: 4
#     Node 3, Type 0, BuildingBlock: TATPOV_clean_sbu_0, # of connection points: 4
#     Node 4, Type 0, BuildingBlock: TATPOV_clean_sbu_0, # of connection points: 4
#     Node 5, Type 0, BuildingBlock: TATPOV_clean_sbu_0, # of connection points: 4
#     Node 6, Type 0, BuildingBlock: TATPOV_clean_sbu_0, # of connection points: 4
#     Node 7, Type 0, BuildingBlock: TATPOV_clean_sbu_0, # of connection points: 4
#     Node 8, Type 0, BuildingBlock: TATPOV_clean_sbu_0, # of connection points: 4
#     Node 9, Type 0, BuildingBlock: TATPOV_clean_sbu_0, # of connection points: 4
#     Node 10, Type 0, BuildingBlock: TATPOV_clean_sbu_0, # of connection points: 4
#     Node 11, Type 0, BuildingBlock: TATPOV_clean_sbu_0, # of connection points: 4
#     Node 12, Type 0, BuildingBlock: TATPOV_clean_sbu_0, # of connection points: 4
#     Node 13, Type 0, BuildingBlock: TATPOV_clean_sbu_0, # of connection points: 4
#     Node 14, Type 0, BuildingBlock: TATPOV_clean_sbu_0, # of connection points: 4
#     Node 15, Type 0, BuildingBlock: TATPOV_clean_sbu_0, # of connection points: 4
#     Node 16, Type 0, BuildingBlock: TATPOV_clean_sbu_0, # of connection points: 4
#     Node 17, Type 0, BuildingBlock: TATPOV_clean_sbu_0, # of connection points: 4
#     Node 18, Type 0, BuildingBlock: TATPOV_clean_sbu_0, # of connection points: 4
#     Node 19, Type 0, BuildingBlock: TATPOV_clean_sbu_0, # of connection points: 4
#     Node 20, Type 0, BuildingBlock: TATPOV_clean_sbu_0, # of connection points: 4
#     Node 21, Type 0, BuildingBlock: TATPOV_clean_sbu_0, # of connection points: 4
#     Node 22, Type 0, BuildingBlock: TATPOV_clean_sbu_0, # of connection points: 4
#     Node 23, Type 0, BuildingBlock: TATPOV_clean_sbu_0, # of connection points: 4
#     Edge 24, Type (0, 0), BuildingBlock: UVAHIK_clean_linker_0, # of connection points: 2
#     Edge 25, Type (0, 0), BuildingBlock: UVAHIK_clean_linker_0, # of connection points: 2
#     Edge 26, Type (0, 0), BuildingBlock: UVAHIK_clean_linker_0, # of connection points: 2
#     Edge 27, Type (0, 0), BuildingBlock: UVAHIK_clean_linker_0, # of connection points: 2
#     Edge 28, Type (0, 0), BuildingBlock: UVAHIK_clean_linker_0, # of connection points: 2
#     Edge 29, Type (0, 0), BuildingBlock: UVAHIK_clean_linker_0, # of connection points: 2
#     Edge 30, Type (0, 0), BuildingBlock: UVAHIK_clean_linker_0, # of connection points: 2
#     Edge 31, Type (0, 0), BuildingBlock: UVAHIK_clean_linker_0, # of connection points: 2
#     Edge 32, Type (0, 0), BuildingBlock: UVAHIK_clean_linker_0, # of connection points: 2
#     Edge 33, Type (0, 0), BuildingBlock: UVAHIK_clean_linker_0, # of connection points: 2
#     Edge 34, Type (0, 0), BuildingBlock: UVAHIK_clean_linker_0, # of connection points: 2
#     Edge 35, Type (0, 0), BuildingBlock: UVAHIK_clean_linker_0, # of connection points: 2
#     Edge 36, Type (0, 0), BuildingBlock: UVAHIK_clean_linker_0, # of connection points: 2
#     Edge 37, Type (0, 0), BuildingBlock: UVAHIK_clean_linker_0, # of connection points: 2
#     Edge 38, Type (0, 0), BuildingBlock: UVAHIK_clean_linker_0, # of connection points: 2
#     Edge 39, Type (0, 0), BuildingBlock: UVAHIK_clean_linker_0, # of connection points: 2
#     Edge 40, Type (0, 0), BuildingBlock: UVAHIK_clean_linker_0, # of connection points: 2
#     Edge 41, Type (0, 0), BuildingBlock: UVAHIK_clean_linker_0, # of connection points: 2
#     Edge 42, Type (0, 0), BuildingBlock: UVAHIK_clean_linker_0, # of connection points: 2
#     Edge 43, Type (0, 0), BuildingBlock: UVAHIK_clean_linker_0, # of connection points: 2
#     Edge 44, Type (0, 0), BuildingBlock: UVAHIK_clean_linker_0, # of connection points: 2
#     Edge 45, Type (0, 0), BuildingBlock: UVAHIK_clean_linker_0, # of connection points: 2
#     Edge 46, Type (0, 0), BuildingBlock: UVAHIK_clean_linker_0, # of connection points: 2
#     Edge 47, Type (0, 0), BuildingBlock: UVAHIK_clean_linker_0, # of connection points: 2
#     Edge 48, Type (0, 0), BuildingBlock: UVAHIK_clean_linker_0, # of connection points: 2
#     Edge 49, Type (0, 0), BuildingBlock: UVAHIK_clean_linker_0, # of connection points: 2
#     Edge 50, Type (0, 0), BuildingBlock: UVAHIK_clean_linker_0, # of connection points: 2
#     Edge 51, Type (0, 0), BuildingBlock: UVAHIK_clean_linker_0, # of connection points: 2
#     Edge 52, Type (0, 0), BuildingBlock: UVAHIK_clean_linker_0, # of connection points: 2
#     Edge 53, Type (0, 0), BuildingBlock: UVAHIK_clean_linker_0, # of connection points: 2
#     Edge 54, Type (0, 0), BuildingBlock: UVAHIK_clean_linker_0, # of connection points: 2
#     Edge 55, Type (0, 0), BuildingBlock: UVAHIK_clean_linker_0, # of connection points: 2
#     Edge 56, Type (0, 0), BuildingBlock: UVAHIK_clean_linker_0, # of connection points: 2
#     Edge 57, Type (0, 0), BuildingBlock: UVAHIK_clean_linker_0, # of connection points: 2
#     Edge 58, Type (0, 0), BuildingBlock: UVAHIK_clean_linker_0, # of connection points: 2
#     Edge 59, Type (0, 0), BuildingBlock: UVAHIK_clean_linker_0, # of connection points: 2
#     Edge 60, Type (0, 0), BuildingBlock: UVAHIK_clean_linker_0, # of connection points: 2
#     Edge 61, Type (0, 0), BuildingBlock: UVAHIK_clean_linker_0, # of connection points: 2
#     Edge 62, Type (0, 0), BuildingBlock: UVAHIK_clean_linker_0, # of connection points: 2
#     Edge 63, Type (0, 0), BuildingBlock: UVAHIK_clean_linker_0, # of connection points: 2
#     Edge 64, Type (0, 0), BuildingBlock: UVAHIK_clean_linker_0, # of connection points: 2
#     Edge 65, Type (0, 0), BuildingBlock: UVAHIK_clean_linker_0, # of connection points: 2
#     Edge 66, Type (0, 0), BuildingBlock: UVAHIK_clean_linker_0, # of connection points: 2
#     Edge 67, Type (0, 0), BuildingBlock: UVAHIK_clean_linker_0, # of connection points: 2
#     Edge 68, Type (0, 0), BuildingBlock: UVAHIK_clean_linker_0, # of connection points: 2
#     Edge 69, Type (0, 0), BuildingBlock: UVAHIK_clean_linker_0, # of connection points: 2
#     Edge 70, Type (0, 0), BuildingBlock: UVAHIK_clean_linker_0, # of connection points: 2
#     Edge 71, Type (0, 0), BuildingBlock: UVAHIK_clean_linker_0, # of connection points: 2
# Relax obj value: 0.374
# Max RMSD: 0.188
# Mean RMSD: 0.188
data_MOF--net-lcy-a--node1-TATPOV_clean_sbu_0--edge1-UVAHIK_clean_linker_0
_symmetry_space_group_name_H-M    P1
_symmetry_Int_Tables_number       1
_symmetry_cell_setting            triclinic
loop_
_symmetry_equiv_pos_as_xyz
'x, y, z'
_cell_length_a     71.991043
_cell_length_b     72.018434
_cell_length_c     72.005367
_cell_angle_alpha  89.956622
_cell_angle_beta   90.000829
_cell_angle_gamma 89.983138
loop_
_atom_site_label
_atom_site_type_symbol
_atom_site_fract_x
_atom_site_fract_y
_atom_site_fract_z
_atom_type_partial_charge
Zn0 Zn 0.21941 0.27562 0.35225 0.0
Zn1 Zn 0.19445 0.26743 0.3777 0.0
O2 O 0.20617 0.24223 0.36943 0.0
O3 O 0.22597 0.24917 0.34725 0.0
O4 O 0.17507 0.25883 0.39607 0.0
O5 O 0.23305 0.29094 0.37159 0.0
O6 O 0.21183 0.28455 0.39266 0.0
C7 C 0.21798 0.23715 0.35724 0.0
C8 C 0.18365 0.28988 0.34292 0.0
O9 O 0.17929 0.28287 0.3586 0.0
O10 O 0.19998 0.28796 0.33671 0.0
C11 C 0.16462 0.24549 0.39111 0.0
O12 O 0.16664 0.2385 0.37438 0.0
C13 C 0.22669 0.29292 0.3879 0.0
Zn14 Zn 0.88508 0.95414 0.62905 0.0
Zn15 Zn 0.91933 0.94382 0.63905 0.0
O16 O 0.92455 0.97023 0.63012 0.0
O17 O 0.89676 0.97863 0.62043 0.0
O18 O 0.94424 0.93413 0.64742 0.0
O19 O 0.87558 0.95093 0.65511 0.0
O20 O 0.90399 0.94313 0.66333 0.0
C21 C 0.91388 0.98219 0.62264 0.0
C22 C 0.89761 0.92354 0.60782 0.0
O23 O 0.91242 0.92653 0.61708 0.0
O24 O 0.88313 0.93294 0.6111 0.0
C25 C 0.95485 0.94393 0.65758 0.0
O26 O 0.94955 0.96074 0.66229 0.0
C27 C 0.88705 0.94615 0.66753 0.0
Zn28 Zn 0.24762 0.73705 0.91602 0.0
Zn29 Zn 0.28407 0.74158 0.91555 0.0
O30 O 0.27247 0.76757 0.91092 0.0
O31 O 0.24244 0.76447 0.91527 0.0
O32 O 0.31111 0.74771 0.91891 0.0
O33 O 0.2485 0.72299 0.94024 0.0
O34 O 0.2787 0.72727 0.93982 0.0
C35 C 0.25627 0.77468 0.91167 0.0
C36 C 0.26718 0.71899 0.88499 0.0
O37 O 0.282 0.72451 0.89293 0.0
O38 O 0.2514 0.72313 0.89166 0.0
C39 C 0.31927 0.76081 0.91034 0.0
O40 O 0.31035 0.76976 0.89717 0.0
C41 C 0.26428 0.72058 0.9476 0.0
Zn42 Zn 0.5298 0.04198 0.07413 0.0
Zn43 Zn 0.51896 0.06165 0.10217 0.0
O44 O 0.49541 0.04759 0.09278 0.0
O45 O 0.50536 0.02968 0.07022 0.0
O46 O 0.50834 0.07736 0.12271 0.0
O47 O 0.54931 0.03052 0.0911 0.0
O48 O 0.53806 0.04519 0.11542 0.0
C49 C 0.49225 0.03524 0.08048 0.0
C50 C 0.53886 0.07932 0.06846 0.0
O51 O 0.53324 0.08012 0.08525 0.0
O52 O 0.53673 0.0645 0.05929 0.0
C53 C 0.4937 0.08683 0.1199 0.0
O54 O 0.48625 0.0869 0.10324 0.0
C55 C 0.54977 0.03395 0.10837 0.0
Zn56 Zn 0.76008 0.19576 0.58001 0.0
Zn57 Zn 0.72495 0.20306 0.57475 0.0
O58 O 0.73712 0.2283 0.58163 0.0
O59 O 0.7666 0.22194 0.58627 0.0
O60 O 0.69911 0.21129 0.56771 0.0
O61 O 0.76395 0.1867 0.55426 0.0
O62 O 0.73357 0.18837 0.55121 0.0
C63 C 0.75345 0.23357 0.58599 0.0
C64 C 0.735 0.17698 0.60581 0.0
O65 O 0.72236 0.18646 0.59782 0.0
O66 O 0.75169 0.17798 0.60026 0.0
C67 C 0.69054 0.22342 0.57726 0.0
O68 O 0.69804 0.22936 0.5928 0.0
C69 C 0.74945 0.18373 0.54486 0.0
Zn70 Zn 0.0632 0.46433 0.91063 0.0
Zn71 Zn 0.0454 0.43586 0.89561 0.0
O72 O 0.02476 0.45357 0.90513 0.0
O73 O 0.03956 0.47764 0.91661 0.0
O74 O 0.03011 0.41618 0.88313 0.0
O75 O 0.07653 0.46879 0.88623 0.0
O76 O 0.06061 0.44597 0.87368 0.0
C77 C 0.02446 0.46948 0.91287 0.0
C78 C 0.07179 0.42935 0.9281 0.0
O79 O 0.06171 0.42245 0.91528 0.0
O80 O 0.07386 0.44675 0.9294 0.0
C81 C 0.01481 0.41065 0.88999 0.0
O82 O 0.00989 0.41642 0.90658 0.0
C83 C 0.07259 0.4589 0.87223 0.0
Zn84 Zn 0.79054 0.76748 0.14615 0.0
Zn85 Zn 0.81632 0.75679 0.12214 0.0
O86 O 0.80093 0.73298 0.12822 0.0
O87 O 0.78068 0.74181 0.14933 0.0
O88 O 0.83566 0.74729 0.10434 0.0
O89 O 0.78032 0.78476 0.12608 0.0
O90 O 0.80243 0.77621 0.10676 0.0
C91 C 0.78765 0.72918 0.13932 0.0
C92 C 0.82707 0.77675 0.15837 0.0
O93 O 0.83159 0.76989 0.14269 0.0
O94 O 0.81028 0.77667 0.16355 0.0
C95 C 0.84454 0.73238 0.10762 0.0
O96 O 0.84127 0.72332 0.12313 0.0
C97 C 0.78829 0.78618 0.11043 0.0
Zn98 Zn 0.48201 0.52639 0.4102 0.0
Zn99 Zn 0.49066 0.55168 0.38582 0.0
O100 O 0.51571 0.53923 0.39351 0.0
O101 O 0.50803 0.5178 0.41386 0.0
O102 O 0.49913 0.57102 0.36746 0.0
O103 O 0.46473 0.51488 0.39104 0.0
O104 O 0.47371 0.53521 0.37005 0.0
C105 C 0.52034 0.5262 0.4046 0.0
C106 C 0.46836 0.56134 0.42115 0.0
O107 O 0.47446 0.5659 0.40513 0.0
O108 O 0.47149 0.54525 0.42745 0.0
C109 C 0.5134 0.581 0.37039 0.0
O110 O 0.52223 0.57942 0.38629 0.0
C111 C 0.46379 0.52132 0.37467 0.0
Zn112 Zn 0.38046 0.19161 0.34538 0.0
Zn113 Zn 0.39229 0.17803 0.31391 0.0
O114 O 0.38131 0.20253 0.30439 0.0
O115 O 0.36858 0.21245 0.33035 0.0
O116 O 0.40309 0.16584 0.29118 0.0
O117 O 0.40594 0.19447 0.3559 0.0
O118 O 0.4159 0.18164 0.33009 0.0
C119 C 0.37141 0.21434 0.31306 0.0
C120 C 0.36248 0.15799 0.33762 0.0
O121 O 0.37117 0.16025 0.32234 0.0
O122 O 0.36552 0.16886 0.35107 0.0
C123 C 0.39579 0.16663 0.27513 0.0
O124 O 0.37997 0.17545 0.27292 0.0
C125 C 0.41922 0.18858 0.34604 0.0
Zn126 Zn 0.9461 0.19161 0.5306 0.0
Zn127 Zn 0.98215 0.18786 0.52448 0.0
O128 O 0.9698 0.1871 0.49859 0.0
O129 O 0.93976 0.18888 0.50348 0.0
O130 O 0.0092 0.18888 0.51738 0.0
O131 O 0.94939 0.2168 0.54233 0.0
O132 O 0.97932 0.2107 0.54167 0.0
C133 C 0.95324 0.18705 0.49235 0.0
C134 C 0.96331 0.15837 0.54716 0.0
O135 O 0.97793 0.16353 0.5386 0.0
O136 O 0.9487 0.16822 0.54654 0.0
C137 C 0.01546 0.17818 0.50481 0.0
O138 O 0.00454 0.16526 0.498 0.0
C139 C 0.96585 0.22093 0.54686 0.0
Zn140 Zn 0.14009 0.79862 0.79113 0.0
Zn141 Zn 0.1203 0.82441 0.7731 0.0
O142 O 0.12841 0.80651 0.75206 0.0
O143 O 0.14509 0.78555 0.76696 0.0
O144 O 0.10446 0.84341 0.75998 0.0
O145 O 0.11774 0.79259 0.80705 0.0
O146 O 0.10123 0.81269 0.79088 0.0
C147 C 0.13834 0.79186 0.75201 0.0
C148 C 0.15485 0.83496 0.79613 0.0
O149 O 0.14099 0.83994 0.78625 0.0
O150 O 0.15764 0.81804 0.79983 0.0
C151 C 0.10794 0.85002 0.74398 0.0
O152 O 0.12315 0.84488 0.73531 0.0
C153 C 0.10244 0.8006 0.80373 0.0
Zn154 Zn 0.4534 0.85963 0.11484 0.0
Zn155 Zn 0.4409 0.8488 0.08192 0.0
O156 O 0.46712 0.8575 0.07508 0.0
O157 O 0.47695 0.86836 0.10193 0.0
O158 O 0.4308 0.83911 0.0578 0.0
O159 O 0.45162 0.8337 0.12519 0.0
O160 O 0.44033 0.82519 0.09816 0.0
C161 C 0.47954 0.86557 0.08474 0.0
C162 C 0.4222 0.881 0.10307 0.0
O163 O 0.42395 0.87101 0.08854 0.0
O164 O 0.43238 0.87787 0.11707 0.0
C165 C 0.43124 0.84804 0.04258 0.0
O166 O 0.43818 0.86491 0.0423 0.0
C167 C 0.44525 0.82115 0.11468 0.0
Zn168 Zn 0.8756 0.26064 0.72971 0.0
Zn169 Zn 0.88104 0.29494 0.74155 0.0
O170 O 0.87837 0.2783 0.76505 0.0
O171 O 0.87723 0.24947 0.75507 0.0
O172 O 0.88951 0.31882 0.7531 0.0
O173 O 0.89834 0.26117 0.71355 0.0
O174 O 0.90202 0.29015 0.72246 0.0
C175 C 0.87759 0.26093 0.76833 0.0
C176 C 0.84607 0.2878 0.72054 0.0
O177 O 0.85643 0.29985 0.7283 0.0
O178 O 0.85098 0.27087 0.72002 0.0
C179 C 0.88306 0.32437 0.76856 0.0
O180 O 0.86874 0.3157 0.77582 0.0
C181 C 0.90718 0.27632 0.7127 0.0
Zn182 Zn 0.99171 0.64014 0.89645 0.0
Zn183 Zn 0.97589 0.65397 0.92668 0.0
O184 O -7e-05 0.64379 0.93797 0.0
O185 O 0.01269 0.63107 0.91325 0.0
O186 O 0.96222 0.66499 0.9484 0.0
O187 O 0.99261 0.66519 0.88422 0.0
O188 O 0.98025 0.67673 0.90967 0.0
C189 C 0.01302 0.63451 0.93053 0.0
C190 C 0.95789 0.62185 0.9043 0.0
O191 O 0.95846 0.63264 0.91833 0.0
O192 O 0.97025 0.62309 0.89186 0.0
C193 C 0.95915 0.65549 0.96296 0.0
O194 O 0.96521 0.63829 0.96378 0.0
C195 C 0.98685 0.67901 0.8934 0.0
Zn196 Zn 0.60045 0.70061 0.141 0.0
Zn197 Zn 0.59331 0.68461 0.17353 0.0
O198 O 0.60218 0.71011 0.1823 0.0
O199 O 0.60744 0.72392 0.15549 0.0
O200 O 0.58573 0.67147 0.19703 0.0
O201 O 0.57435 0.69759 0.13202 0.0
O202 O 0.56822 0.68559 0.15939 0.0
C203 C 0.60723 0.72435 0.1731 0.0
C204 C 0.62419 0.66961 0.1479 0.0
O205 O 0.61534 0.6693 0.16325 0.0
O206 O 0.61988 0.68126 0.13546 0.0
C207 C 0.59427 0.67282 0.21241 0.0
O208 O 0.6095 0.68283 0.21333 0.0
C209 C 0.56275 0.69094 0.14341 0.0
Zn210 Zn 0.53871 0.35491 0.39987 0.0
Zn211 Zn 0.5525 0.34084 0.4308 0.0
O212 O 0.52852 0.35225 0.44133 0.0
O213 O 0.51781 0.36532 0.41583 0.0
O214 O 0.56473 0.32754 0.45215 0.0
O215 O 0.53587 0.33019 0.38756 0.0
O216 O 0.54815 0.31866 0.41299 0.0
C217 C 0.51633 0.36213 0.4331 0.0
C218 C 0.57346 0.37115 0.40892 0.0
O219 O 0.57135 0.3613 0.42351 0.0
O220 O 0.56185 0.37 0.39578 0.0
C221 C 0.56695 0.33341 0.46863 0.0
O222 O 0.56087 0.35001 0.47314 0.0
C223 C 0.54143 0.31631 0.39678 0.0
Zn224 Zn 0.28221 0.41182 0.30135 0.0
Zn225 Zn 0.27789 0.42218 0.26737 0.0
O226 O 0.252 0.42366 0.28013 0.0
O227 O 0.25714 0.42027 0.30995 0.0
O228 O 0.27182 0.43227 0.2419 0.0
O229 O 0.30506 0.42729 0.30421 0.0
O230 O 0.29936 0.4392 0.27661 0.0
C231 C 0.24592 0.42322 0.29676 0.0
C232 C 0.2876 0.38205 0.27527 0.0
O233 O 0.28652 0.39502 0.26323 0.0
O234 O 0.28505 0.38558 0.29231 0.0
C235 C 0.25773 0.42592 0.23335 0.0
O236 O 0.24833 0.41217 0.24083 0.0
C237 C 0.30917 0.43851 0.29135 0.0
Zn238 Zn 0.82397 0.09752 0.79063 0.0
Zn239 Zn 0.79535 0.08685 0.81074 0.0
O240 O 0.78174 0.09683 0.78771 0.0
O241 O 0.80555 0.10763 0.7718 0.0
O242 O 0.77501 0.07746 0.82746 0.0
O243 O 0.83404 0.07175 0.78859 0.0
O244 O 0.81022 0.0627 0.80544 0.0
C245 C 0.78819 0.10524 0.77353 0.0
C246 C 0.82292 0.11668 0.8248 0.0
O247 O 0.80764 0.10786 0.82644 0.0
O248 O 0.83323 0.1139 0.81087 0.0
C249 C 0.76491 0.06384 0.82255 0.0
O250 O 0.76741 0.05645 0.80606 0.0
C251 C 0.82507 0.05893 0.79656 0.0
Zn252 Zn 0.20735 0.53201 0.9949 0.0
Zn253 Zn 0.20109 0.5302 0.0309 0.0
O254 O 0.20024 0.50332 0.0208 0.0
O255 O 0.20716 0.50429 0.99112 0.0
O256 O 0.2016 0.52565 0.05856 0.0
O257 O 0.23114 0.54612 0.99762 0.0
O258 O 0.22384 0.54756 0.02719 0.0
C259 C 0.20284 0.49502 0.0054 0.0
C260 C 0.17269 0.55 0.00829 0.0
O261 O 0.17712 0.54398 0.02434 0.0
O262 O 0.18312 0.54688 0.99441 0.0
C263 C 0.19159 0.51317 0.06605 0.0
O264 O 0.1792 0.50448 0.05587 0.0
C265 C 0.23429 0.55239 0.01372 0.0
Zn266 Zn 0.72658 0.91296 0.18575 0.0
Zn267 Zn 0.724 0.92215 0.22127 0.0
O268 O 0.7518 0.91823 0.21492 0.0
O269 O 0.75445 0.91393 0.18488 0.0
O270 O 0.7267 0.93064 0.24778 0.0
O271 O 0.71107 0.93515 0.17882 0.0
O272 O 0.70887 0.94287 0.20831 0.0
C273 C 0.76195 0.91551 0.20068 0.0
C274 C 0.70747 0.88571 0.20927 0.0
O275 O 0.70946 0.8977 0.22212 0.0
O276 O 0.71399 0.88875 0.19318 0.0
C277 C 0.73608 0.92012 0.25842 0.0
O278 O 0.74133 0.90379 0.25219 0.0
C279 C 0.70486 0.94586 0.19131 0.0
Zn280 Zn 0.33983 0.45362 0.46515 0.0
Zn281 Zn 0.32141 0.46233 0.52487 0.0
O282 O 0.32346 0.48762 0.51144 0.0
O283 O 0.33062 0.46998 0.48817 0.0
O284 O 0.31236 0.46793 0.55076 0.0
O285 O 0.32152 0.45027 0.48848 0.0
O286 O 0.30291 0.44485 0.51156 0.0
C287 C 0.3289 0.48645 0.49471 0.0
C288 C 0.3533 0.44748 0.50781 0.0
O289 O 0.3476 0.44991 0.5244 0.0
O290 O 0.34225 0.45247 0.4948 0.0
C291 C 0.32011 0.48106 0.55966 0.0
O292 O 0.33473 0.48919 0.55238 0.0
C293 C 0.30732 0.44154 0.49478 0.0
Zn294 Zn 0.1561 0.60058 0.74249 0.0
Zn295 Zn 0.18024 0.58621 0.719 0.0
O296 O 0.1977 0.59486 0.73979 0.0
O297 O 0.1775 0.60523 0.76029 0.0
O298 O 0.19712 0.57345 0.70061 0.0
O299 O 0.1412 0.57744 0.74435 0.0
O300 O 0.16255 0.56456 0.72671 0.0
C301 C 0.19416 0.60202 0.75556 0.0
C302 C 0.15739 0.62098 0.70864 0.0
O303 O 0.16983 0.609 0.70463 0.0
O304 O 0.14892 0.62007 0.72401 0.0
C305 C 0.21332 0.57925 0.69665 0.0
O306 O 0.21946 0.59454 0.70447 0.0
C307 C 0.14773 0.56326 0.73635 0.0
Zn308 Zn 0.68162 0.96829 0.04999 0.0
Zn309 Zn 0.68126 0.96745 0.013 0.0
O310 O 0.67992 0.99506 0.02038 0.0
O311 O 0.67984 0.99632 0.05084 0.0
O312 O 0.68439 0.96968 0.98531 0.0
O313 O 0.7062 0.95492 0.05105 0.0
O314 O 0.70346 0.95103 0.02088 0.0
C315 C 0.67913 0.00452 0.0353 0.0
C316 C 0.64984 0.94878 0.03293 0.0
O317 O 0.65663 0.95411 0.01749 0.0
O318 O 0.658 0.95265 0.04808 0.0
C319 C 0.67358 0.98009 0.97599 0.0
O320 O 0.6594 0.9879 0.98441 0.0
C321 C 0.71189 0.94766 0.03609 0.0
Zn322 Zn 0.8862 0.02797 0.45919 0.0
Zn323 Zn 0.86636 0.01881 0.42991 0.0
O324 O 0.87438 0.99378 0.44237 0.0
O325 O 0.89244 0.00188 0.46563 0.0
O326 O 0.85053 0.01031 0.40837 0.0
O327 O 0.86382 0.04099 0.47019 0.0
O328 O 0.84787 0.03448 0.44498 0.0
C329 C 0.88493 0.98937 0.45591 0.0
C330 C 0.90063 0.04378 0.42566 0.0
O331 O 0.88674 0.03568 0.4182 0.0
O332 O 0.90355 0.04214 0.44291 0.0
C333 C 0.85337 0.99493 0.40018 0.0
O334 O 0.86766 0.98471 0.40512 0.0
C335 C 0.84896 0.04226 0.46082 0.0
C336 C 0.04443 0.19734 0.50176 0.0
C337 C 0.03356 0.18221 0.49588 0.0
C338 C 0.06014 0.20273 0.49167 0.0
C339 C 0.07819 0.20085 0.44412 0.0
H340 H 0.12395 0.21883 0.46607 0.0
C341 C 0.14059 0.22167 0.39888 0.0
C342 C 0.1506 0.23763 0.40394 0.0
C343 C 0.12727 0.21415 0.41079 0.0
C344 C 0.11118 0.21403 0.45974 0.0
H345 H 0.03134 0.16022 0.47541 0.0
H346 H 0.05879 0.16955 0.45795 0.0
H347 H 0.09946 0.2064 0.48605 0.0
H348 H 0.15454 0.25815 0.42562 0.0
H349 H 0.13098 0.24521 0.44632 0.0
H350 H 0.08961 0.20875 0.4179 0.0
C351 C 0.05497 0.17743 0.47017 0.0
C352 C 0.09719 0.20686 0.47118 0.0
C353 C 0.03931 0.17202 0.48026 0.0
C354 C 0.14707 0.24583 0.4213 0.0
C355 C 0.13365 0.23834 0.43322 0.0
C356 C 0.09211 0.20807 0.43272 0.0
C357 C 0.06529 0.19313 0.47548 0.0
C358 C 0.08054 0.20017 0.46348 0.0
C359 C 0.12352 0.22246 0.42805 0.0
C360 C 0.10879 0.21474 0.44036 0.0
H361 H 0.04042 0.20547 0.51375 0.0
H362 H 0.06773 0.21493 0.49609 0.0
H363 H 0.06538 0.1962 0.43776 0.0
H364 H 0.14306 0.21488 0.38568 0.0
H365 H 0.11999 0.20172 0.4065 0.0
C366 C 0.98448 0.94711 0.67561 0.0
C367 C 0.97251 0.93617 0.66475 0.0
C368 C 0.00071 0.93952 0.68313 0.0
C369 C 0.03295 0.89937 0.67931 0.0
H370 H 0.04454 0.91147 0.73048 0.0
C371 C 0.09727 0.86887 0.71662 0.0
C372 C 0.09428 0.86238 0.73479 0.0
C373 C 0.08377 0.87959 0.70762 0.0
C374 C 0.04148 0.9079 0.7162 0.0
H375 H 0.9684 0.90874 0.65299 0.0
H376 H 0.9965 0.89545 0.66633 0.0
H377 H 0.01835 0.92651 0.71526 0.0
H378 H 0.07491 0.86242 0.7579 0.0
H379 H 0.05139 0.88086 0.74218 0.0
H380 H 0.05563 0.8802 0.68051 0.0
C381 C 0.99352 0.90998 0.66883 0.0
C382 C 0.02658 0.9167 0.70739 0.0
C383 C 0.97733 0.91758 0.66127 0.0
C384 C 0.0777 0.8672 0.7439 0.0
C385 C 0.06423 0.8779 0.73492 0.0
C386 C 0.04783 0.89055 0.68814 0.0
C387 C 0.00533 0.92081 0.68 0.0
C388 C 0.02197 0.91237 0.68891 0.0
C389 C 0.06701 0.88408 0.7166 0.0
C390 C 0.05212 0.89452 0.70677 0.0
H391 H 0.98125 0.96151 0.67847 0.0
H392 H 0.00963 0.94833 0.69143 0.0
H393 H 0.02994 0.89589 0.665 0.0
H394 H 0.10992 0.86547 0.70922 0.0
H395 H 0.08645 0.88433 0.69359 0.0
C396 C 0.34403 0.78527 0.91153 0.0
C397 C 0.33701 0.76814 0.91772 0.0
C398 C 0.3587 0.79385 0.92094 0.0
C399 C 0.39451 0.7866 0.95774 0.0
H400 H 0.38313 0.83767 0.97048 0.0
C401 C 0.41869 0.82057 0.02549 0.0
C402 C 0.4241 0.83932 0.0254 0.0
C403 C 0.41158 0.81229 0.00949 0.0
C404 C 0.38676 0.82355 0.96679 0.0
H405 H 0.34088 0.74587 0.93767 0.0
H406 H 0.3662 0.76084 0.95411 0.0
H407 H 0.36503 0.82201 0.94664 0.0
H408 H 0.42661 0.864 0.00829 0.0
H409 H 0.414 0.8495 0.98028 0.0
H410 H 0.41571 0.78795 0.97855 0.0
C411 C 0.36051 0.76769 0.94198 0.0
C412 C 0.37641 0.81455 0.95308 0.0
C413 C 0.34586 0.75913 0.93261 0.0
C414 C 0.4225 0.84954 0.00884 0.0
C415 C 0.41525 0.84127 0.99281 0.0
C416 C 0.40482 0.79558 0.9715 0.0
C417 C 0.36668 0.78544 0.93667 0.0
C418 C 0.37979 0.7958 0.94877 0.0
C419 C 0.40964 0.82257 0.99301 0.0
C420 C 0.40069 0.81397 0.97655 0.0
H421 H 0.33761 0.79253 0.90002 0.0
H422 H 0.36335 0.80739 0.91631 0.0
H423 H 0.39769 0.77226 0.95451 0.0
H424 H 0.41978 0.81226 0.03799 0.0
H425 H 0.40711 0.79795 0.01019 0.0
C426 C 0.46747 0.10584 0.13265 0.0
C427 C 0.48436 0.09646 0.13549 0.0
C428 C 0.45805 0.11392 0.14757 0.0
C429 C 0.44575 0.13784 0.18021 0.0
H430 H 0.44312 0.10998 0.22624 0.0
C431 C 0.39796 0.15958 0.24106 0.0
C432 C 0.40548 0.15827 0.25903 0.0
C433 C 0.40744 0.15209 0.22584 0.0
C434 C 0.44388 0.11803 0.21355 0.0
H435 H 0.50484 0.08863 0.15618 0.0
H436 H 0.48849 0.1029 0.18215 0.0
H437 H 0.46031 0.09733 0.2 0.0
H438 H 0.42884 0.14799 0.27509 0.0
H439 H 0.44537 0.1351 0.2486 0.0
H440 H 0.42929 0.15854 0.1938 0.0
C441 C 0.48238 0.10376 0.16843 0.0
C442 C 0.45376 0.1108 0.19851 0.0
C443 C 0.49182 0.09568 0.15352 0.0
C444 C 0.42261 0.14919 0.26146 0.0
C445 C 0.43206 0.14171 0.24627 0.0
C446 C 0.43586 0.14509 0.19526 0.0
C447 C 0.46529 0.1128 0.16567 0.0
C448 C 0.45485 0.12063 0.18167 0.0
C449 C 0.42462 0.1431 0.22827 0.0
C450 C 0.43485 0.13529 0.21213 0.0
H451 H 0.46132 0.10667 0.11895 0.0
H452 H 0.44483 0.12063 0.14499 0.0
H453 H 0.44651 0.14587 0.1675 0.0
H454 H 0.38479 0.16645 0.23871 0.0
H455 H 0.40123 0.1532 0.21219 0.0
C456 C 0.66631 0.22699 0.55251 0.0
C457 C 0.6738 0.23265 0.56963 0.0
C458 C 0.65199 0.23712 0.54417 0.0
C459 C 0.63323 0.28445 0.54263 0.0
H460 H 0.59395 0.26151 0.51384 0.0
C461 C 0.58021 0.32795 0.5005 0.0
C462 C 0.57667 0.32157 0.4824 0.0
C463 C 0.58993 0.31681 0.51317 0.0
C464 C 0.60489 0.26813 0.52175 0.0
H465 H 0.67147 0.25288 0.59183 0.0
H466 H 0.64641 0.27048 0.57729 0.0
H467 H 0.61447 0.24215 0.53264 0.0
H468 H 0.58033 0.29835 0.46353 0.0
H469 H 0.59735 0.27917 0.48542 0.0
H470 H 0.62401 0.31037 0.53137 0.0
C471 C 0.6518 0.25835 0.57022 0.0
C472 C 0.61663 0.25703 0.53254 0.0
C473 C 0.66608 0.24818 0.5786 0.0
C474 C 0.58279 0.30373 0.47735 0.0
C475 C 0.59244 0.29263 0.48998 0.0
C476 C 0.62151 0.29554 0.53182 0.0
C477 C 0.64485 0.25315 0.55273 0.0
C478 C 0.63115 0.26503 0.54283 0.0
C479 C 0.59624 0.29906 0.50801 0.0
C480 C 0.60743 0.28748 0.52097 0.0
H481 H 0.6719 0.21509 0.54523 0.0
H482 H 0.64708 0.23283 0.53062 0.0
H483 H 0.64443 0.29103 0.5502 0.0
H484 H 0.57563 0.34159 0.50486 0.0
H485 H 0.59248 0.32211 0.52701 0.0
C486 C 0.91083 0.34474 0.77304 0.0
C487 C 0.8941 0.33743 0.77996 0.0
C488 C 0.9231 0.35404 0.78481 0.0
C489 C 0.9282 0.37653 0.8306 0.0
H490 H 0.97896 0.35882 0.8268 0.0
C491 C 0.98388 0.39543 0.88512 0.0
C492 C 0.0015 0.40028 0.87826 0.0
C493 C 0.97056 0.38755 0.8734 0.0
C494 C 0.96491 0.36409 0.82793 0.0
H495 H 0.87649 0.33543 0.80434 0.0
H496 H 0.89794 0.35173 0.82486 0.0
H497 H 0.9556 0.34743 0.8052 0.0
H498 H 0.01914 0.40013 0.85382 0.0
H499 H 0.99593 0.38662 0.83339 0.0
H500 H 0.93756 0.39328 0.85328 0.0
C501 C 0.90157 0.35019 0.81035 0.0
C502 C 0.95153 0.35759 0.81552 0.0
C503 C 0.8893 0.34082 0.79858 0.0
C504 C 0.00572 0.39651 0.85959 0.0
C505 C 0.99241 0.38869 0.84787 0.0
C506 C 0.94163 0.38313 0.84297 0.0
C507 C 0.91888 0.35631 0.80371 0.0
C508 C 0.93304 0.36376 0.81668 0.0
C509 C 0.97458 0.38436 0.85455 0.0
C510 C 0.96016 0.377 0.84176 0.0
H511 H 0.9149 0.34254 0.75873 0.0
H512 H 0.93618 0.35896 0.77922 0.0
H513 H 0.91408 0.3816 0.83175 0.0
H514 H 0.98019 0.39811 0.89946 0.0
H515 H 0.95707 0.38406 0.87907 0.0
C516 C 0.86157 0.73479 0.07735 0.0
C517 C 0.85778 0.72492 0.09377 0.0
C518 C 0.87354 0.72744 0.06397 0.0
C519 C 0.89256 0.68307 0.04729 0.0
H520 H 0.92808 0.71442 0.02167 0.0
C521 C 0.94556 0.65332 0.99494 0.0
C522 C 0.94857 0.66359 0.97862 0.0
C523 C 0.93527 0.66086 0.00958 0.0
C524 C 0.91811 0.70551 0.02856 0.0
H525 H 0.86381 0.69968 0.10911 0.0
H526 H 0.88475 0.68689 0.08576 0.0
H527 H 0.90877 0.72754 0.04621 0.0
H528 H 0.94319 0.68989 0.9649 0.0
H529 H 0.92506 0.70291 0.99029 0.0
H530 H 0.90169 0.6611 0.02952 0.0
C531 C 0.87832 0.70025 0.08317 0.0
C532 C 0.90706 0.71304 0.04264 0.0
C533 C 0.8664 0.70763 0.0966 0.0
C534 C 0.94118 0.68161 0.97731 0.0
C535 C 0.93088 0.68913 0.99192 0.0
C536 C 0.90357 0.67556 0.03318 0.0
C537 C 0.88194 0.71002 0.06666 0.0
C538 C 0.8941 0.70192 0.0521 0.0
C539 C 0.92774 0.67883 0.00822 0.0
C540 C 0.91642 0.68671 0.02359 0.0
H541 H 0.85515 0.74814 0.07473 0.0
H542 H 0.87589 0.73522 0.05131 0.0
H543 H 0.88251 0.6742 0.05413 0.0
H544 H 0.95112 0.63942 0.99644 0.0
H545 H 0.93334 0.65264 0.02204 0.0
C546 C 0.59553 0.66554 0.24652 0.0
C547 C 0.58649 0.66396 0.22928 0.0
C548 C 0.58775 0.65769 0.26251 0.0
C549 C 0.54299 0.64144 0.28164 0.0
H550 H 0.57371 0.61423 0.31652 0.0
C551 C 0.51218 0.59361 0.33798 0.0
C552 C 0.52094 0.59291 0.35541 0.0
C553 C 0.52003 0.60369 0.32337 0.0
C554 C 0.56497 0.62203 0.30707 0.0
H555 H 0.56228 0.65267 0.21532 0.0
H556 H 0.54884 0.63891 0.24311 0.0
H557 H 0.58798 0.62885 0.28948 0.0
H558 H 0.54457 0.60274 0.37131 0.0
H559 H 0.55816 0.62052 0.34586 0.0
H560 H 0.51997 0.63454 0.29912 0.0
C561 C 0.56181 0.64643 0.24433 0.0
C562 C 0.57315 0.63038 0.29156 0.0
C563 C 0.5696 0.65421 0.22837 0.0
C564 C 0.53749 0.60293 0.35804 0.0
C565 C 0.54536 0.61302 0.34341 0.0
C566 C 0.53482 0.63313 0.29715 0.0
C567 C 0.57072 0.64816 0.26161 0.0
C568 C 0.56222 0.64 0.27856 0.0
C569 C 0.53683 0.61334 0.32585 0.0
C570 C 0.54568 0.62314 0.30995 0.0
H571 H 0.60855 0.67299 0.24771 0.0
H572 H 0.59489 0.65938 0.27564 0.0
H573 H 0.53423 0.64906 0.27206 0.0
H574 H 0.49944 0.58603 0.33545 0.0
H575 H 0.51321 0.60345 0.30997 0.0
C576 C 0.26003 0.45053 0.20872 0.0
C577 C 0.25105 0.4348 0.21601 0.0
C578 C 0.25301 0.45949 0.19295 0.0
C579 C 0.2286 0.48209 0.16674 0.0
H580 H 0.21025 0.4531 0.12528 0.0
C581 C 0.21094 0.514 0.09503 0.0
C582 C 0.19593 0.50649 0.08505 0.0
C583 C 0.2166 0.50607 0.11184 0.0
C584 C 0.21504 0.46142 0.13684 0.0
H585 H 0.22777 0.41603 0.2123 0.0
H586 H 0.21555 0.43167 0.18492 0.0
H587 H 0.2228 0.43734 0.15244 0.0
H588 H 0.17449 0.48533 0.08544 0.0
H589 H 0.18418 0.4717 0.11488 0.0
H590 H 0.22091 0.50618 0.15106 0.0
C591 C 0.22809 0.437 0.19126 0.0
C592 C 0.22229 0.45237 0.15241 0.0
C593 C 0.23508 0.42807 0.20703 0.0
C594 C 0.18618 0.4914 0.0927 0.0
C595 C 0.19183 0.48349 0.10951 0.0
C596 C 0.22133 0.49115 0.15116 0.0
C597 C 0.2369 0.4529 0.1841 0.0
C598 C 0.2292 0.46258 0.16754 0.0
C599 C 0.20737 0.49046 0.11908 0.0
C600 C 0.21449 0.48092 0.136 0.0
H601 H 0.27237 0.45607 0.21529 0.0
H602 H 0.26028 0.47154 0.18764 0.0
H603 H 0.23354 0.49037 0.17828 0.0
H604 H 0.21878 0.52561 0.08954 0.0
H605 H 0.2287 0.51173 0.11876 0.0
C606 C 0.69512 0.97922 0.94867 0.0
C607 C 0.67859 0.98565 0.95682 0.0
C608 C 0.70123 0.98646 0.93173 0.0
C609 C 0.6974 0.02906 0.90394 0.0
H610 H 0.72569 0.00061 0.86806 0.0
C611 C 0.74958 0.06285 0.85377 0.0
C612 C 0.75154 0.05553 0.83579 0.0
C613 C 0.738 0.05423 0.86673 0.0
C614 C 0.7176 0.00874 0.87778 0.0
H615 H 0.65492 0.00391 0.95297 0.0
H616 H 0.66547 0.01635 0.92328 0.0
H617 H 0.70968 0.9846 0.89325 0.0
H618 H 0.74237 0.03371 0.81716 0.0
H619 H 0.72202 0.01876 0.83978 0.0
H620 H 0.70536 0.0532 0.88853 0.0
C621 C 0.6739 0.00597 0.93019 0.0
C622 C 0.70859 -0.00042 0.89235 0.0
C623 C 0.6678 0.99875 0.94715 0.0
C624 C 0.74124 0.03967 0.83092 0.0
C625 C 0.72966 0.03103 0.8439 0.0
C626 C 0.70639 0.03822 0.88938 0.0
C627 C 0.69093 0.00027 0.92251 0.0
C628 C 0.69869 0.00966 0.90582 0.0
C629 C 0.72808 0.03808 0.86204 0.0
C630 C 0.71692 0.02821 0.87635 0.0
H631 H 0.70378 0.96912 0.95572 0.0
H632 H 0.7145 0.98186 0.92633 0.0
H633 H 0.69005 0.03731 0.91415 0.0
H634 H 0.75731 0.07504 0.858 0.0
H635 H 0.73732 0.0599 0.88064 0.0
C636 C 0.75647 0.91652 0.2863 0.0
C637 C 0.74377 0.92729 0.27609 0.0
C638 C 0.76591 0.92409 0.30144 0.0
C639 C 0.78127 0.9694 0.31949 0.0
H640 H 0.79633 0.94004 0.36206 0.0
C641 C 0.82517 -0.00084 0.3801 0.0
C642 C 0.83996 0.98796 0.38623 0.0
C643 C 0.81207 0.99223 0.36755 0.0
C644 C 0.7923 0.94838 0.3502 0.0
H645 H 0.73023 0.95416 0.27449 0.0
H646 H 0.74647 0.96727 0.30119 0.0
H647 H 0.77473 0.92696 0.3395 0.0
H648 H 0.85265 0.96073 0.38385 0.0
H649 H 0.82983 0.94868 0.36197 0.0
H650 H 0.79895 0.99078 0.3302 0.0
C651 C 0.74943 0.95308 0.2972 0.0
C652 C 0.77992 0.94089 0.33727 0.0
C653 C 0.74001 0.94551 0.28198 0.0
C654 C 0.84144 0.96974 0.37942 0.0
C655 C 0.82828 0.96277 0.367 0.0
C656 C 0.79356 0.97693 0.33249 0.0
C657 C 0.76284 0.9426 0.30682 0.0
C658 C 0.77449 0.95119 0.32158 0.0
C659 C 0.8134 0.9739 0.36099 0.0
C660 C 0.79945 0.96638 0.34782 0.0
H661 H 0.75972 0.90244 0.28215 0.0
H662 H 0.77626 0.91565 0.30836 0.0
H663 H 0.77763 0.97764 0.30744 0.0
H664 H 0.82362 0.01326 0.3851 0.0
H665 H 0.80071 0.00109 0.36324 0.0
C666 C 0.24332 0.57472 0.67947 0.0
C667 C 0.22525 0.56862 0.68367 0.0
C668 C 0.25461 0.56458 0.66735 0.0
C669 C 0.26031 0.51793 0.6464 0.0
H670 H 0.28925 0.54443 0.60953 0.0
C671 C 0.29406 0.48215 0.58282 0.0
C672 C 0.3113 0.48884 0.57656 0.0
C673 C 0.28471 0.49101 0.59735 0.0
C674 C 0.28149 0.5368 0.61992 0.0
H675 H 0.2049 0.54704 0.67839 0.0
H676 H 0.22449 0.52951 0.6571 0.0
H677 H 0.27063 0.56177 0.63177 0.0
H678 H 0.33267 0.50954 0.58132 0.0
H679 H 0.31649 0.52481 0.6068 0.0
H680 H 0.27104 0.49293 0.63437 0.0
C681 C 0.23004 0.542 0.66338 0.0
C682 C 0.27079 0.54676 0.63267 0.0
C683 C 0.21875 0.55213 0.67549 0.0
C684 C 0.31935 0.50409 0.5857 0.0
C685 C 0.31001 0.51294 0.60023 0.0
C686 C 0.27103 0.50795 0.63364 0.0
C687 C 0.2481 0.5481 0.65915 0.0
C688 C 0.25997 0.53746 0.64599 0.0
C689 C 0.29239 0.50676 0.60597 0.0
C690 C 0.28167 0.51727 0.62017 0.0
H691 H 0.2488 0.58731 0.68559 0.0
H692 H 0.26852 0.56956 0.66455 0.0
H693 H 0.25236 0.51033 0.65667 0.0
H694 H 0.28746 0.47044 0.57608 0.0
H695 H 0.2711 0.48596 0.60132 0.0
C696 C 0.2825 0.41736 0.4912 0.0
C697 C 0.29774 0.42705 0.48377 0.0
C698 C 0.27424 0.40284 0.48129 0.0
C699 C 0.27056 0.38271 0.43398 0.0
H700 H 0.25619 0.33794 0.46031 0.0
C701 C 0.25184 0.31586 0.39493 0.0
C702 C 0.23577 0.30634 0.40064 0.0
C703 C 0.2593 0.33008 0.40578 0.0
C704 C 0.25997 0.35042 0.45279 0.0
H705 H 0.31611 0.4292 0.46 0.0
H706 H 0.30189 0.40382 0.44284 0.0
H707 H 0.26889 0.36423 0.47756 0.0
H708 H 0.2154 0.30384 0.42271 0.0
H709 H 0.22852 0.32872 0.44173 0.0
H710 H 0.26183 0.36885 0.40921 0.0
C711 C 0.29611 0.40757 0.45621 0.0
C712 C 0.26721 0.36551 0.46267 0.0
C713 C 0.30433 0.42211 0.46609 0.0
C714 C 0.22779 0.31088 0.41789 0.0
C715 C 0.23532 0.32511 0.42881 0.0
C716 C 0.26341 0.36762 0.42412 0.0
C717 C 0.28104 0.39766 0.46372 0.0
C718 C 0.27271 0.38181 0.45336 0.0
C719 C 0.25093 0.33514 0.42266 0.0
C720 C 0.25816 0.35124 0.43338 0.0
H721 H 0.27706 0.42085 0.50478 0.0
H722 H 0.26249 0.3957 0.48738 0.0
H723 H 0.27428 0.39514 0.42639 0.0
H724 H 0.25846 0.31268 0.3818 0.0
H725 H 0.27156 0.33727 0.40084 0.0
C726 C 0.89298 0.95323 0.70091 0.0
C727 C 0.88103 0.94644 0.68711 0.0
C728 C 0.88602 0.95785 0.71845 0.0
C729 C 0.84115 0.97287 0.73816 0.0
H730 H 0.87169 0.98139 0.78165 0.0
C731 C 0.81791 0.02514 0.79263 0.0
C732 C 0.83103 0.03953 0.79367 0.0
C733 C 0.82302 0.00778 0.78551 0.0
C734 C 0.86289 0.97885 0.76972 0.0
H735 H 0.85306 0.93706 0.68132 0.0
H736 H 0.84113 0.944 0.71221 0.0
H737 H 0.88254 0.96022 0.75747 0.0
H738 H 0.86008 0.04656 0.79007 0.0
H739 H 0.86901 0.01634 0.77794 0.0
H740 H 0.82182 0.99191 0.75011 0.0
C741 C 0.85564 0.9467 0.70934 0.0
C742 C 0.86915 0.96685 0.75577 0.0
C743 C 0.86249 0.94256 0.69168 0.0
C744 C 0.84965 0.03575 0.78925 0.0
C745 C 0.8548 0.01837 0.78244 0.0
C746 C 0.83481 0.98459 0.7522 0.0
C747 C 0.86704 0.95541 0.72263 0.0
C748 C 0.85875 0.9644 0.73938 0.0
C749 C 0.84138 0.0045 0.77967 0.0
C750 C 0.84597 0.98837 0.76771 0.0
H751 H 0.90734 0.95641 0.69771 0.0
H752 H 0.89529 0.96462 0.72814 0.0
H753 H 0.83276 0.97167 0.72575 0.0
H754 H 0.80345 0.02769 0.79595 0.0
H755 H 0.81242 0.99728 0.78359 0.0
C756 C 0.28371 0.70249 0.97033 0.0
C757 C 0.26612 0.70793 0.96376 0.0
C758 C 0.28541 0.68789 0.98308 0.0
C759 C 0.28477 0.64745 0.99494 0.0
H760 H 0.24475 0.63339 0.02805 0.0
C761 C 0.25833 0.57362 0.00057 0.0
C762 C 0.24755 0.56799 0.01584 0.0
C763 C 0.26662 0.59112 0.00028 0.0
C764 C 0.25638 0.6371 0.01928 0.0
H765 H 0.23648 0.70327 0.96663 0.0
H766 H 0.23941 0.6778 0.98835 0.0
H767 H 0.24723 0.6653 0.01757 0.0
H768 H 0.23904 0.5754 0.04377 0.0
H769 H 0.25393 0.60583 0.04345 0.0
H770 H 0.29382 0.6192 0.9965 0.0
C771 C 0.25196 0.68481 0.98394 0.0
C772 C 0.25762 0.65543 0.01301 0.0
C773 C 0.25026 0.6994 0.97129 0.0
C774 C 0.24706 0.57939 0.03168 0.0
C775 C 0.25546 0.59693 0.03143 0.0
C776 C 0.28368 0.62916 0.0014 0.0
C777 C 0.26957 0.67842 0.98952 0.0
C778 C 0.27119 0.66059 -6e-05 0.0
C779 C 0.26447 0.60341 0.01532 0.0
C780 C 0.26885 0.62351 0.01281 0.0
H781 H 0.29622 0.70887 0.96494 0.0
H782 H 0.29918 0.68357 0.98734 0.0
H783 H 0.29548 0.65083 0.98494 0.0
H784 H 0.25918 0.56512 0.9882 0.0
H785 H 0.27335 0.59552 0.98757 0.0
C786 C 0.56562 0.02881 0.13917 0.0
C787 C 0.56506 0.0262 0.1198 0.0
C788 C 0.58102 0.02283 0.1495 0.0
C789 C 0.63071 0.01337 0.14417 0.0
H790 H 0.62616 0.98108 0.18703 0.0
C791 C 0.68918 0.96512 0.16716 0.0
C792 C 0.69145 0.96053 0.18598 0.0
C793 C 0.67469 0.97664 0.16147 0.0
C794 C 0.6277 0.99045 0.17536 0.0
H795 H 0.58009 0.01488 0.09623 0.0
H796 H 0.60679 0.00469 0.11417 0.0
H797 H 0.59821 0.99401 0.17263 0.0
H798 H 0.68082 0.96526 0.21376 0.0
H799 H 0.65544 0.98562 0.20378 0.0
H800 H 0.66007 0.00971 0.14659 0.0
C801 C 0.59541 0.01143 0.12135 0.0
C802 C 0.61168 0.99777 0.16708 0.0
C803 C 0.58001 0.01715 0.1111 0.0
C804 C 0.67945 0.96854 0.19914 0.0
C805 C 0.66482 0.98007 0.19341 0.0
C806 C 0.64668 0.00622 0.15251 0.0
C807 C 0.59621 0.01442 0.14059 0.0
C808 C 0.61304 0.00879 0.15104 0.0
C809 C 0.66205 0.98391 0.17444 0.0
C810 C 0.64536 0.99415 0.1678 0.0
H811 H 0.55433 0.03573 0.1463 0.0
H812 H 0.58128 0.02524 0.16435 0.0
H813 H 0.63215 0.02215 0.13203 0.0
H814 H 0.6982 0.95924 0.15665 0.0
H815 H 0.67289 0.97906 0.14673 0.0
C816 C 0.76573 0.17669 0.51546 0.0
C817 C 0.75139 0.17249 0.52794 0.0
C818 C 0.77233 0.16319 0.50325 0.0
C819 C 0.76707 0.11409 0.48717 0.0
H820 H 0.82058 0.11434 0.4935 0.0
C821 C 0.83483 0.06217 0.48544 0.0
C822 C 0.83376 0.05436 0.4676 0.0
C823 C 0.82225 0.07581 0.49096 0.0
C824 C 0.80565 0.11401 0.49164 0.0
H825 H 0.73152 0.15162 0.53642 0.0
H826 H 0.74341 0.12771 0.51546 0.0
H827 H 0.80254 0.14065 0.504 0.0
H828 H 0.81783 0.05389 0.44201 0.0
H829 H 0.7958 0.07791 0.45175 0.0
H830 H 0.77048 0.08691 0.47529 0.0
C831 C 0.74933 0.14151 0.51475 0.0
C832 C 0.79528 0.12927 0.49738 0.0
C833 C 0.74247 0.15521 0.52674 0.0
C834 C 0.81907 0.05968 0.45583 0.0
C835 C 0.80643 0.0734 0.4614 0.0
C836 C 0.77755 0.09873 0.4813 0.0
C837 C 0.76507 0.14506 0.5037 0.0
C838 C 0.77584 0.12948 0.49543 0.0
C839 C 0.80831 0.08202 0.47879 0.0
C840 C 0.79692 0.09844 0.48385 0.0
H841 H 0.77279 0.18996 0.51616 0.0
H842 H 0.78411 0.16654 0.49451 0.0
H843 H 0.75213 0.11383 0.48545 0.0
H844 H 0.8458 0.05825 0.49495 0.0
H845 H 0.82378 0.08192 0.50462 0.0
C846 C 0.12065 0.54441 0.74653 0.0
C847 C 0.13914 0.54506 0.74036 0.0
C848 C 0.1136 0.52842 0.75484 0.0
C849 C 0.13136 0.49176 0.78426 0.0
H850 H 0.07897 0.47984 0.78802 0.0
C851 C 0.07566 0.45405 0.83776 0.0
C852 C 0.08177 0.46266 0.8542 0.0
C853 C 0.08379 0.45855 0.82066 0.0
C854 C 0.09372 0.48263 0.78697 0.0
H855 H 0.16422 0.52892 0.73638 0.0
H856 H 0.15187 0.50079 0.75101 0.0
H857 H 0.09041 0.49682 0.76103 0.0
H858 H 0.10164 0.48221 0.86562 0.0
H859 H 0.11562 0.49009 0.83599 0.0
H860 H 0.13456 0.47818 0.8105 0.0
C861 C 0.14289 0.51277 0.74955 0.0
C862 C 0.10025 0.49249 0.77155 0.0
C863 C 0.14993 0.52882 0.74106 0.0
C864 C 0.09653 0.47537 0.85324 0.0
C865 C 0.1047 0.47975 0.83624 0.0
C866 C 0.12484 0.48188 0.79963 0.0
C867 C 0.12492 0.5127 0.75728 0.0
C868 C 0.11898 0.49797 0.77049 0.0
C869 C 0.09829 0.47159 0.81971 0.0
C870 C 0.10581 0.47803 0.80159 0.0
H871 H 0.11195 0.55669 0.74601 0.0
H872 H 0.09976 0.52898 0.76071 0.0
H873 H 0.14586 0.49576 0.78397 0.0
H874 H 0.06434 0.44415 0.83803 0.0
H875 H 0.07859 0.45199 0.80816 0.0
C876 C 0.7374 0.93112 0.0529 0.0
C877 C 0.72615 0.93288 0.03704 0.0
C878 C 0.74771 0.91496 0.05593 0.0
C879 C 0.77212 0.88012 0.05657 0.0
H880 H 0.73949 0.83728 0.05489 0.0
C881 C 0.79417 0.8075 0.08352 0.0
C882 C 0.78198 0.80049 0.09708 0.0
C883 C 0.78895 0.82257 0.0724 0.0
C884 C 0.74882 0.84907 0.05524 0.0
H885 H 0.71799 0.91963 0.01125 0.0
H886 H 0.73584 0.89127 0.01673 0.0
H887 H 0.72922 0.86676 0.04158 0.0
H888 H 0.75445 0.8032 0.10901 0.0
H889 H 0.74521 0.82921 0.08931 0.0
H890 H 0.79147 0.86252 0.07082 0.0
C891 C 0.73664 0.90243 0.02678 0.0
C892 C 0.74303 0.8659 0.0475 0.0
C893 C 0.72653 0.91872 0.0236 0.0
C894 C 0.76417 0.8083 0.09871 0.0
C895 C 0.75884 0.82313 0.08738 0.0
C896 C 0.77804 0.8632 0.06408 0.0
C897 C 0.7468 0.90015 0.04328 0.0
C898 C 0.7544 0.88173 0.04854 0.0
C899 C 0.7713 0.83066 0.07439 0.0
C900 C 0.76621 0.84767 0.06396 0.0
H901 H 0.73744 0.94181 0.06347 0.0
H902 H 0.75535 0.91357 0.06882 0.0
H903 H 0.78117 0.8921 0.05753 0.0
H904 H 0.80802 0.80183 0.08198 0.0
H905 H 0.79878 0.82809 0.06243 0.0
C906 C 0.34211 0.44104 0.30083 0.0
C907 C 0.3263 0.44954 0.29322 0.0
C908 C 0.35812 0.45133 0.30427 0.0
C909 C 0.37187 0.49557 0.3202 0.0
H910 H 0.42185 0.47891 0.30863 0.0
C911 C 0.45067 0.51758 0.3425 0.0
C912 C 0.44966 0.51398 0.36169 0.0
C913 C 0.43636 0.51181 0.33064 0.0
C914 C 0.40798 0.48389 0.31172 0.0
H915 H 0.31482 0.47528 0.28276 0.0
H916 H 0.34286 0.49372 0.28968 0.0
H917 H 0.39518 0.46503 0.29253 0.0
H918 H 0.43289 0.50151 0.38343 0.0
H919 H 0.40786 0.49189 0.36279 0.0
H920 H 0.38456 0.51335 0.34043 0.0
C921 C 0.34285 0.47895 0.29254 0.0
C922 C 0.39279 0.47598 0.30255 0.0
C923 C 0.3269 0.46847 0.28859 0.0
C924 C 0.43418 0.50439 0.36872 0.0
C925 C 0.41976 0.49902 0.35696 0.0
C926 C 0.38702 0.50319 0.32962 0.0
C927 C 0.35852 0.47044 0.30056 0.0
C928 C 0.37458 0.48143 0.30708 0.0
C929 C 0.42066 0.5028 0.33788 0.0
C930 C 0.40513 0.49705 0.32578 0.0
H931 H 0.342 0.42642 0.30441 0.0
H932 H 0.36991 0.44449 0.31066 0.0
H933 H 0.35796 0.49983 0.32408 0.0
H934 H 0.46242 0.52497 0.3367 0.0
H935 H 0.43733 0.51475 0.31591 0.0
C936 C 0.52865 0.29501 0.37263 0.0
C937 C 0.53838 0.29738 0.38937 0.0
C938 C 0.52303 0.2774 0.36692 0.0
C939 C 0.51068 0.23253 0.38777 0.0
H940 H 0.4963 0.22297 0.33681 0.0
C941 C 0.45373 0.18878 0.34043 0.0
C942 C 0.43854 0.19181 0.35233 0.0
C943 C 0.47146 0.19515 0.34528 0.0
C944 C 0.50053 0.22497 0.3511 0.0
H945 H 0.55126 0.28289 0.41243 0.0
H946 H 0.54183 0.25197 0.40219 0.0
H947 H 0.51933 0.24659 0.34339 0.0
H948 H 0.43041 0.20238 0.37935 0.0
H949 H 0.46078 0.21388 0.38748 0.0
H950 H 0.49195 0.21085 0.39546 0.0
C951 C 0.53808 0.26383 0.39374 0.0
C952 C 0.51358 0.23881 0.35491 0.0
C953 C 0.54357 0.28155 0.39957 0.0
C954 C 0.44174 0.19997 0.36974 0.0
C955 C 0.45934 0.20641 0.37452 0.0
C956 C 0.49793 0.21843 0.38393 0.0
C957 C 0.52715 0.2616 0.37767 0.0
C958 C 0.51788 0.2436 0.37335 0.0
C959 C 0.47432 0.20473 0.36209 0.0
C960 C 0.49176 0.21532 0.36565 0.0
H961 H 0.52448 0.30686 0.36435 0.0
H962 H 0.51441 0.27644 0.35463 0.0
H963 H 0.51368 0.23563 0.40216 0.0
H964 H 0.45176 0.18235 0.32697 0.0
H965 H 0.48274 0.19327 0.33551 0.0
C966 C 0.95783 0.2516 0.56082 0.0
C967 C 0.96873 0.23548 0.56094 0.0
C968 C 0.95723 0.26315 0.57642 0.0
C969 C 0.97512 0.26742 0.62582 0.0
H970 H 0.92459 0.28394 0.63427 0.0
C971 C 0.93261 0.26294 0.6934 0.0
C972 C 0.92186 0.27837 0.69856 0.0
C973 C 0.94361 0.26353 0.67744 0.0
C974 C 0.93888 0.27977 0.63202 0.0
H975 H 0.98844 0.2193 0.57684 0.0
H976 H 0.98651 0.23844 0.60439 0.0
H977 H 0.93387 0.27449 0.60347 0.0
H978 H 0.91496 0.30686 0.69174 0.0
H979 H 0.93364 0.30759 0.66326 0.0
H980 H 0.97913 0.27092 0.65519 0.0
C981 C 0.97893 0.2429 0.59221 0.0
C982 C 0.94434 0.27441 0.61423 0.0
C983 C 0.98002 0.23176 0.57636 0.0
C984 C 0.92323 0.29482 0.68814 0.0
C985 C 0.93386 0.29525 0.67187 0.0
C986 C 0.96944 0.27229 0.64377 0.0
C987 C 0.96687 0.25834 0.59279 0.0
C988 C 0.96239 0.26754 0.61091 0.0
C989 C 0.94368 0.27941 0.66613 0.0
C990 C 0.95112 0.27805 0.64705 0.0
H991 H 0.94913 0.25483 0.54897 0.0
H992 H 0.9484 0.2753 0.57588 0.0
H993 H 0.9893 0.26281 0.62387 0.0
H994 H 0.93178 0.2501 0.70121 0.0
H995 H 0.95091 0.25108 0.67317 0.0
C996 C 0.99148 0.70055 0.86666 0.0
C997 C 0.9901 0.69783 0.88594 0.0
C998 C 0.9985 0.71717 0.85955 0.0
C999 C 0.03456 0.74823 0.87109 0.0
H1000 H 0.01853 0.77723 0.82866 0.0
C1001 C 0.08707 0.79472 0.83405 0.0
C1002 C 0.08599 0.79543 0.81464 0.0
C1003 C 0.07222 0.78784 0.84445 0.0
C1004 C 0.02334 0.76917 0.8404 0.0
H1005 H 0.99371 0.71078 0.91286 0.0
H1006 H 0.00663 0.73968 0.90037 0.0
H1007 H 0.99682 0.75584 0.84361 0.0
H1008 H 0.0686 0.79013 0.79076 0.0
H1009 H 0.04317 0.77677 0.80865 0.0
H1010 H 0.06139 0.75983 0.86715 0.0
C1011 C 0.002 0.72903 0.89083 0.0
C1012 C 0.01079 0.7571 0.84908 0.0
C1013 C 0.99458 0.71253 0.89794 0.0
C1014 C 0.06963 0.78976 0.80577 0.0
C1015 C 0.055 0.78224 0.81612 0.0
C1016 C 0.04721 0.75987 0.86219 0.0
C1017 C 0.00459 0.7312 0.87161 0.0
C1018 C 0.01642 0.74631 0.8643 0.0
C1019 C 0.05625 0.78075 0.83562 0.0
C1020 C 0.04195 0.77026 0.84645 0.0
H1021 H 0.98805 0.68945 0.8571 0.0
H1022 H 0.0005 0.71846 0.84469 0.0
H1023 H 0.03935 0.73979 0.88261 0.0
H1024 H 0.09952 0.79929 0.84116 0.0
H1025 H 0.07356 0.78764 0.85942 0.0
C1026 C 0.53698 0.70032 0.12225 0.0
C1027 C 0.54266 0.69235 0.13913 0.0
C1028 C 0.51874 0.70628 0.11982 0.0
C1029 C 0.48101 0.72377 0.14948 0.0
H1030 H 0.46319 0.73912 0.10111 0.0
C1031 C 0.43885 0.78722 0.10954 0.0
C1032 C 0.44597 0.80151 0.12076 0.0
C1033 C 0.44279 0.76861 0.11361 0.0
C1034 C 0.46744 0.73474 0.11485 0.0
H1035 H 0.53301 0.68212 0.16577 0.0
H1036 H 0.50087 0.69189 0.16125 0.0
H1037 H 0.48407 0.71296 0.10353 0.0
H1038 H 0.46147 0.80737 0.14591 0.0
H1039 H 0.46902 0.77546 0.1525 0.0
H1040 H 0.46404 0.74526 0.16084 0.0
C1041 C 0.51074 0.69428 0.15016 0.0
C1042 C 0.47979 0.71982 0.11619 0.0
C1043 C 0.52915 0.68851 0.1527 0.0
C1044 C 0.45584 0.79674 0.13689 0.0
C1045 C 0.46002 0.77825 0.14078 0.0
C1046 C 0.46823 0.73832 0.14819 0.0
C1047 C 0.50553 0.70421 0.1341 0.0
C1048 C 0.48788 0.71512 0.13336 0.0
C1049 C 0.45419 0.76392 0.12882 0.0
C1050 C 0.46242 0.74496 0.13074 0.0
H1051 H 0.54695 0.70329 0.11137 0.0
H1052 H 0.51555 0.71392 0.10726 0.0
H1053 H 0.48661 0.72054 0.16304 0.0
H1054 H 0.43095 0.79042 0.09714 0.0
H1055 H 0.43759 0.75799 0.10434 0.0
C1056 C 0.17548 0.30847 0.31508 0.0
C1057 C 0.17129 0.30325 0.33337 0.0
C1058 C 0.16927 0.32538 0.30804 0.0
C1059 C 0.15947 0.37107 0.3289 0.0
H1060 H 0.17453 0.38407 0.27902 0.0
C1061 C 0.21285 0.42131 0.2857 0.0
C1062 C 0.22568 0.42191 0.3004 0.0
C1063 C 0.19498 0.41412 0.28854 0.0
C1064 C 0.16988 0.3812 0.293 0.0
H1065 H 0.15453 0.30995 0.35744 0.0
H1066 H 0.14291 0.33919 0.34485 0.0
H1067 H 0.15961 0.35474 0.28457 0.0
H1068 H 0.22886 0.41821 0.33012 0.0
H1069 H 0.19874 0.40499 0.33492 0.0
H1070 H 0.16879 0.39792 0.33718 0.0
C1071 C 0.15185 0.33074 0.33623 0.0
C1072 C 0.16156 0.36397 0.29626 0.0
C1073 C 0.1583 0.3138 0.34339 0.0
C1074 C 0.21948 0.41757 0.31836 0.0
C1075 C 0.20186 0.41005 0.32113 0.0
C1076 C 0.16699 0.38864 0.3255 0.0
C1077 C 0.15853 0.33749 0.31907 0.0
C1078 C 0.1583 0.35783 0.31455 0.0
C1079 C 0.18976 0.40696 0.30603 0.0
C1080 C 0.17432 0.39307 0.30791 0.0
H1081 H 0.18515 0.30041 0.30684 0.0
H1082 H 0.17476 0.32961 0.29472 0.0
H1083 H 0.15655 0.36742 0.34317 0.0
H1084 H 0.21703 0.425 0.27173 0.0
H1085 H 0.18585 0.41292 0.27666 0.0
C1086 C 0.87271 0.95714 0.46079 0.0
C1087 C 0.88746 0.96986 0.46164 0.0
C1088 C 0.87364 0.94046 0.47079 0.0
C1089 C 0.90443 0.91184 0.50165 0.0
H1090 H 0.86327 0.91656 0.5359 0.0
C1091 C 0.91374 0.91302 0.57917 0.0
C1092 C 0.89805 0.91229 0.5907 0.0
C1093 C 0.91213 0.90887 0.56027 0.0
C1094 C 0.87469 0.91434 0.52639 0.0
H1095 H 0.91554 0.97422 0.47152 0.0
H1096 H 0.91725 0.94532 0.48873 0.0
H1097 H 0.86093 0.93014 0.50546 0.0
H1098 H 0.8693 0.90367 0.59242 0.0
H1099 H 0.86675 0.89532 0.55973 0.0
H1100 H 0.91862 0.89694 0.52314 0.0
C1101 C 0.90492 0.94803 0.48055 0.0
C1102 C 0.87331 0.92224 0.50875 0.0
C1103 C 0.90388 0.96473 0.47082 0.0
C1104 C 0.88153 0.90465 0.58371 0.0
C1105 C 0.88005 0.90005 0.56492 0.0
C1106 C 0.90577 0.90375 0.51929 0.0
C1107 C 0.88943 0.93619 0.48153 0.0
C1108 C 0.88861 0.92217 0.49667 0.0
C1109 C 0.89487 0.90361 0.55266 0.0
C1110 C 0.89139 0.90604 0.53235 0.0
H1111 H 0.85991 0.96077 0.45376 0.0
H1112 H 0.86154 0.93152 0.47117 0.0
H1113 H 0.91633 0.91123 0.49246 0.0
H1114 H 0.92666 0.91885 0.5842 0.0
H1115 H 0.92395 0.91176 0.55144 0.0
C1116 C 0.20614 0.61048 0.78692 0.0
C1117 C 0.20936 0.6083 0.76781 0.0
C1118 C 0.21925 0.61928 0.79815 0.0
C1119 C 0.25232 0.63431 0.82 0.0
H1120 H 0.26055 0.68438 0.80189 0.0
C1121 C 0.28135 0.69296 0.86675 0.0
C1122 C 0.26796 0.70706 0.86838 0.0
C1123 C 0.28005 0.67986 0.85242 0.0
C1124 C 0.25871 0.67034 0.80698 0.0
H1125 H 0.22921 0.61274 0.74561 0.0
H1126 H 0.25199 0.62869 0.76525 0.0
H1127 H 0.24775 0.66088 0.78103 0.0
H1128 H 0.24353 0.71935 0.85582 0.0
H1129 H 0.24164 0.69695 0.83052 0.0
H1130 H 0.26237 0.64409 0.84625 0.0
C1131 C 0.23939 0.62335 0.77151 0.0
C1132 C 0.25149 0.65687 0.79504 0.0
C1133 C 0.2264 0.61419 0.76032 0.0
C1134 C 0.254 0.70858 0.85487 0.0
C1135 C 0.25298 0.69583 0.84035 0.0
C1136 C 0.25982 0.64771 0.83186 0.0
C1137 C 0.23571 0.62637 0.79044 0.0
C1138 C 0.24748 0.63896 0.80166 0.0
C1139 C 0.26567 0.68106 0.83926 0.0
C1140 C 0.26233 0.66604 0.82566 0.0
H1141 H 0.19316 0.60601 0.79308 0.0
H1142 H 0.21595 0.62158 0.81264 0.0
H1143 H 0.2494 0.62058 0.82541 0.0
H1144 H 0.29217 0.69145 0.8771 0.0
H1145 H 0.28994 0.66854 0.85187 0.0
C1146 C 0.55532 0.09493 0.04247 0.0
C1147 C 0.55308 0.09239 0.06166 0.0
C1148 C 0.57293 0.09854 0.03509 0.0
C1149 C 0.62378 0.09786 0.0491 0.0
H1150 H 0.62452 0.0595 0.01143 0.0
C1151 C 0.67048 0.03439 0.05089 0.0
C1152 C 0.67418 0.02451 0.03447 0.0
C1153 C 0.66115 0.0514 0.05024 0.0
C1154 C 0.62485 0.07058 0.02159 0.0
H1155 H 0.56664 0.09488 0.08837 0.0
H1156 H 0.59722 0.10007 0.07574 0.0
H1157 H 0.59634 0.07631 0.01703 0.0
H1158 H 0.67314 0.02592 0.00437 0.0
H1159 H 0.65695 0.05563 0.00328 0.0
H1160 H 0.65214 0.09051 0.05464 0.0
C1161 C 0.5857 0.09961 0.06611 0.0
C1162 C 0.6085 0.08042 0.02484 0.0
C1163 C 0.56798 0.09665 0.07348 0.0
C1164 C 0.67025 0.03301 0.01731 0.0
C1165 C 0.66092 0.05004 0.01667 0.0
C1166 C 0.64015 0.08778 0.04598 0.0
C1167 C 0.58865 0.09883 0.04677 0.0
C1168 C 0.60735 0.09343 0.03941 0.0
C1169 C 0.65533 0.0589 0.03316 0.0
C1170 C 0.64052 0.07333 0.03286 0.0
H1171 H 0.54395 0.09202 0.03305 0.0
H1172 H 0.57445 0.09892 0.02014 0.0
H1173 H 0.6237 0.10819 0.06001 0.0
H1174 H 0.6735 0.02836 0.06434 0.0
H1175 H 0.65704 0.05777 0.06323 0.0
C1176 C 0.74215 0.15049 0.62681 0.0
C1177 C 0.73094 0.16586 0.62256 0.0
C1178 C 0.74092 0.14189 0.64413 0.0
C1179 C 0.73268 0.12315 0.68111 0.0
H1180 H 0.74256 0.15977 0.71932 0.0
C1181 C 0.75846 0.10386 0.75527 0.0
C1182 C 0.77565 0.11235 0.75892 0.0
C1183 C 0.74748 0.10992 0.74036 0.0
C1184 C 0.73948 0.14938 0.70888 0.0
H1185 H 0.70886 0.18367 0.6326 0.0
H1186 H 0.70703 0.16886 0.66327 0.0
H1187 H 0.73191 0.16989 0.68874 0.0
H1188 H 0.79443 0.13434 0.75049 0.0
H1189 H 0.77514 0.14513 0.72489 0.0
H1190 H 0.74128 0.10274 0.70103 0.0
C1191 C 0.71663 0.16338 0.65306 0.0
C1192 C 0.73326 0.15515 0.69143 0.0
C1193 C 0.71762 0.17179 0.63553 0.0
C1194 C 0.78129 0.12745 0.74794 0.0
C1195 C 0.77018 0.13373 0.73338 0.0
C1196 C 0.73868 0.11736 0.69867 0.0
C1197 C 0.72866 0.14869 0.65769 0.0
C1198 C 0.73056 0.14216 0.67714 0.0
C1199 C 0.75332 0.12487 0.72925 0.0
C1200 C 0.74289 0.13051 0.71244 0.0
H1201 H 0.75249 0.14559 0.61703 0.0
H1202 H 0.7505 0.13074 0.64733 0.0
H1203 H 0.73062 0.11285 0.67035 0.0
H1204 H 0.75381 0.09215 0.76351 0.0
H1205 H 0.73454 0.10284 0.73739 0.0
C1206 C 0.20393 0.46484 0.98822 0.0
C1207 C 0.19736 0.47535 0.00326 0.0
C1208 C 0.19514 0.44824 0.98326 0.0
C1209 C 0.15372 0.41799 0.99519 0.0
H1210 H 0.14636 0.42122 0.942 0.0
C1211 C 0.08491 0.42226 0.95897 0.0
C1212 C 0.08353 0.41771 0.94009 0.0
C1213 C 0.10085 0.41769 0.969 0.0
C1214 C 0.14848 0.41955 0.9568 0.0
H1215 H 0.17768 0.47584 0.02602 0.0
H1216 H 0.16174 0.44776 0.01689 0.0
H1217 H 0.17296 0.43594 0.95575 0.0
H1218 H 0.09649 0.4029 0.9174 0.0
H1219 H 0.1246 0.39506 0.93488 0.0
H1220 H 0.12784 0.40321 0.99609 0.0
C1221 C 0.17393 0.45177 0.00906 0.0
C1222 C 0.16391 0.42808 0.96482 0.0
C1223 C 0.18305 0.46806 0.01431 0.0
C1224 C 0.0972 0.40641 0.93202 0.0
C1225 C 0.11334 0.40206 0.94198 0.0
C1226 C 0.13806 0.4097 0.98715 0.0
C1227 C 0.17919 0.44215 0.99284 0.0
C1228 C 0.1662 0.42839 0.98425 0.0
C1229 C 0.11583 0.40882 0.96016 0.0
C1230 C 0.13478 0.41131 0.96797 0.0
H1231 H 0.21517 0.46998 0.97964 0.0
H1232 H 0.20014 0.44089 0.97114 0.0
H1233 H 0.15531 0.4173 0.01012 0.0
H1234 H 0.07455 0.43107 0.96542 0.0
H1235 H 0.10229 0.42317 0.98293 0.0
C1236 C 0.79291 0.90745 0.18717 0.0
C1237 C 0.78182 0.91059 0.20292 0.0
C1238 C 0.80948 0.89747 0.18867 0.0
C1239 C 0.8229 0.85815 0.21575 0.0
H1240 H 0.86332 0.8563 0.18029 0.0
C1241 C 0.84002 0.78879 0.18793 0.0
C1242 C 0.83984 0.78905 0.16847 0.0
C1243 C 0.84482 0.80477 0.19785 0.0
C1244 C 0.85214 0.85651 0.19034 0.0
H1245 H 0.78075 0.9081 0.23295 0.0
H1246 H 0.80964 0.89057 0.2355 0.0
H1247 H 0.84847 0.88595 0.18731 0.0
H1248 H 0.84683 0.80513 0.1441 0.0
H1249 H 0.85393 0.83318 0.161 0.0
H1250 H 0.82483 0.82888 0.2175 0.0
C1251 C 0.80539 0.8956 0.22197 0.0
C1252 C 0.84375 0.87358 0.19446 0.0
C1253 C 0.78883 0.90567 0.22049 0.0
C1254 C 0.84692 0.80459 0.15914 0.0
C1255 C 0.851 0.8208 0.16899 0.0
C1256 C 0.83102 0.84113 0.21141 0.0
C1257 C 0.81524 0.89037 0.20593 0.0
C1258 C 0.82829 0.87437 0.20636 0.0
C1259 C 0.84846 0.82155 0.18841 0.0
C1260 C 0.84491 0.83985 0.19767 0.0
H1261 H 0.78805 0.9113 0.17347 0.0
H1262 H 0.81669 0.89371 0.17601 0.0
H1263 H 0.811 0.85816 0.22495 0.0
H1264 H 0.83476 0.77685 0.19543 0.0
H1265 H 0.84371 0.80442 0.21284 0.0
C1266 C 0.3457 0.50086 0.46794 0.0
C1267 C 0.33586 0.50296 0.48463 0.0
C1268 C 0.35505 0.51592 0.46006 0.0
C1269 C 0.3775 0.55922 0.47484 0.0
H1270 H 0.39055 0.56038 0.42268 0.0
C1271 C 0.43938 0.58006 0.41954 0.0
C1272 C 0.45354 0.57211 0.43035 0.0
C1273 C 0.42139 0.58177 0.42679 0.0
C1274 C 0.38682 0.56082 0.43724 0.0
H1275 H 0.3269 0.52283 0.5054 0.0
H1276 H 0.34295 0.54924 0.49145 0.0
H1277 H 0.36379 0.54264 0.4327 0.0
H1278 H 0.46102 0.56309 0.45803 0.0
H1279 H 0.43006 0.56596 0.47063 0.0
H1280 H 0.40078 0.57712 0.47941 0.0
C1281 C 0.3438 0.53585 0.48465 0.0
C1282 C 0.37158 0.5503 0.44303 0.0
C1283 C 0.33452 0.52073 0.4926 0.0
C1284 C 0.45027 0.56905 0.44933 0.0
C1285 C 0.43238 0.57072 0.45655 0.0
C1286 C 0.39263 0.56993 0.46902 0.0
C1287 C 0.35469 0.53351 0.46861 0.0
C1288 C 0.36742 0.54846 0.46201 0.0
C1289 C 0.41742 0.57557 0.44492 0.0
C1290 C 0.3982 0.56992 0.45029 0.0
H1291 H 0.34705 0.48737 0.46145 0.0
H1292 H 0.36348 0.51343 0.44786 0.0
H1293 H 0.3747 0.55827 0.48958 0.0
H1294 H 0.44152 0.58268 0.40488 0.0
H1295 H 0.41031 0.58617 0.41761 0.0
C1296 C 0.22281 0.20528 0.37059 0.0
C1297 C 0.22354 0.21748 0.35537 0.0
C1298 C 0.23163 0.18795 0.36968 0.0
C1299 C 0.26763 0.16589 0.36811 0.0
H1300 H 0.27536 0.13745 0.32308 0.0
C1301 C 0.33304 0.1473 0.32343 0.0
C1302 C 0.34546 0.14663 0.33842 0.0
C1303 C 0.31403 0.14476 0.32643 0.0
C1304 C 0.27337 0.14513 0.33585 0.0
H1305 H 0.23225 0.2204 0.32669 0.0
H1306 H 0.24746 0.19036 0.32507 0.0
H1307 H 0.24704 0.15574 0.32678 0.0
H1308 H 0.34846 0.13917 0.36739 0.0
H1309 H 0.31549 0.13337 0.37238 0.0
H1310 H 0.29446 0.15708 0.37657 0.0
C1311 C 0.24021 0.19402 0.33773 0.0
C1312 C 0.25707 0.15553 0.33799 0.0
C1313 C 0.23167 0.21137 0.33873 0.0
C1314 C 0.33908 0.14008 0.35565 0.0
C1315 C 0.32012 0.13703 0.35854 0.0
C1316 C 0.28397 0.15573 0.36589 0.0
C1317 C 0.24104 0.18246 0.35344 0.0
C1318 C 0.25458 0.16689 0.35368 0.0
C1319 C 0.3072 0.14112 0.34443 0.0
C1320 C 0.28762 0.14616 0.34921 0.0
H1321 H 0.21657 0.20962 0.38357 0.0
H1322 H 0.23198 0.17929 0.38197 0.0
H1323 H 0.26621 0.17452 0.38035 0.0
H1324 H 0.33759 0.15227 0.30997 0.0
H1325 H 0.30471 0.14788 0.31506 0.0
C1326 C 0.91201 0.0103 0.6023 0.0
C1327 C 0.92152 7e-05 0.61594 0.0
C1328 C 0.9194 0.02689 0.59549 0.0
C1329 C 0.9455 0.05448 0.57605 0.0
H1330 H 0.95656 0.09452 0.61033 0.0
C1331 C 0.97423 0.12559 0.5518 0.0
C1332 C 0.9628 0.14046 0.55721 0.0
C1333 C 0.97207 0.10806 0.55997 0.0
C1334 C 0.9537 0.08338 0.60064 0.0
H1335 H 0.94611 -0.00065 0.63334 0.0
H1336 H 0.95873 0.0288 0.62177 0.0
H1337 H 0.947 0.06411 0.62239 0.0
H1338 H 0.94089 0.14893 0.57606 0.0
H1339 H 0.9375 0.1185 0.59062 0.0
H1340 H 0.95197 0.07375 0.5543 0.0
C1341 C 0.94569 0.02375 0.61624 0.0
C1342 C 0.94831 0.06602 0.60752 0.0
C1343 C 0.93848 0.00692 0.6228 0.0
C1344 C 0.94984 0.13771 0.57155 0.0
C1345 C 0.94796 0.12033 0.57996 0.0
C1346 C 0.95123 0.07171 0.56919 0.0
C1347 C 0.93627 0.03378 0.6024 0.0
C1348 C 0.94377 0.05155 0.59526 0.0
C1349 C 0.95876 0.10525 0.57397 0.0
C1350 C 0.95502 0.08643 0.5814 0.0
H1351 H 0.89896 0.00536 0.59668 0.0
H1352 H 0.91179 0.03447 0.58494 0.0
H1353 H 0.94217 0.0435 0.56634 0.0
H1354 H 0.98429 0.1273 0.54074 0.0
H1355 H 0.98058 0.09664 0.55515 0.0
C1356 C 0.2659 0.8029 0.89368 0.0
C1357 C 0.25301 0.79399 0.90534 0.0
C1358 C 0.26072 0.81869 0.88357 0.0
C1359 C 0.22209 0.85251 0.87526 0.0
H1360 H 0.22805 0.83685 0.82419 0.0
C1361 C 0.16337 0.85225 0.82416 0.0
C1362 C 0.16694 0.84843 0.80542 0.0
C1363 C 0.17795 0.85661 0.83619 0.0
C1364 C 0.22656 0.84209 0.83819 0.0
H1365 H 0.22547 0.79597 0.91735 0.0
H1366 H 0.21648 0.82338 0.89986 0.0
H1367 H 0.24768 0.82368 0.84782 0.0
H1368 H 0.18786 0.84857 0.78391 0.0
H1369 H 0.21323 0.85743 0.8046 0.0
H1370 H 0.20028 0.8703 0.86565 0.0
C1371 C 0.23054 0.81824 0.89837 0.0
C1372 C 0.23792 0.83439 0.85187 0.0
C1373 C 0.23564 0.80238 0.90831 0.0
C1374 C 0.18478 0.85163 0.79832 0.0
C1375 C 0.19935 0.85636 0.81029 0.0
C1376 C 0.21084 0.86044 0.8615 0.0
C1377 C 0.24264 0.82595 0.88512 0.0
C1378 C 0.23503 0.83863 0.87069 0.0
C1379 C 0.19638 0.85729 0.82963 0.0
C1380 C 0.21207 0.85436 0.84294 0.0
H1381 H 0.27944 0.79684 0.89117 0.0
H1382 H 0.27041 0.82446 0.87362 0.0
H1383 H 0.2198 0.85632 0.88963 0.0
H1384 H 0.14975 0.84956 0.82997 0.0
H1385 H 0.17489 0.85719 0.85089 0.0
C1386 C 0.459 0.03101 0.09076 0.0
C1387 C 0.4739 0.02598 0.07918 0.0
C1388 C 0.44271 0.0203 0.0911 0.0
C1389 C 0.41862 0.98709 0.10075 0.0
H1390 H 0.41037 0.95167 0.06124 0.0
C1391 C 0.41388 0.91165 0.11671 0.0
C1392 C 0.41176 0.89874 0.10226 0.0
C1393 C 0.41038 0.93044 0.11369 0.0
C1394 C 0.41182 0.96148 0.0725 0.0
H1395 H 0.48286 0.00648 0.05803 0.0
H1396 H 0.45543 0.98763 0.05921 0.0
H1397 H 0.42507 0.98079 0.05435 0.0
H1398 H 0.40072 0.89486 0.07454 0.0
H1399 H 0.39324 0.92743 0.06967 0.0
H1400 H 0.40446 0.96829 0.11872 0.0
C1401 C 0.4557 -1e-05 0.06773 0.0
C1402 C 0.42075 0.97823 0.06853 0.0
C1403 C 0.47174 0.01077 0.06721 0.0
C1404 C 0.40305 0.90455 0.08579 0.0
C1405 C 0.39904 0.92338 0.08292 0.0
C1406 C 0.40898 0.97066 0.10459 0.0
C1407 C 0.4411 0.00423 0.08004 0.0
C1408 C 0.42585 0.99042 0.0829 0.0
C1409 C 0.40421 0.93682 0.09622 0.0
C1410 C 0.40707 0.95679 0.09091 0.0
H1411 H 0.46015 0.0428 0.10001 0.0
H1412 H 0.43169 0.0243 0.1005 0.0
H1413 H 0.42173 0.99627 0.11223 0.0
H1414 H 0.42015 0.90763 0.12979 0.0
H1415 H 0.41444 0.93991 0.12458 0.0
C1416 C 0.7751 0.25882 0.59529 0.0
C1417 C 0.7568 0.25232 0.59365 0.0
C1418 C 0.77926 0.27351 0.60717 0.0
C1419 C 0.76174 0.28914 0.65158 0.0
H1420 H 0.80899 0.31488 0.65073 0.0
C1421 C 0.8276 0.31091 0.70204 0.0
C1422 C 0.82906 0.29337 0.71051 0.0
C1423 C 0.81339 0.31446 0.6892 0.0
C1424 C 0.79548 0.30829 0.65129 0.0
H1425 H 0.72815 0.25763 0.60126 0.0
H1426 H 0.73541 0.28347 0.62203 0.0
H1427 H 0.79353 0.30743 0.62165 0.0
H1428 H 0.81585 0.26653 0.71369 0.0
H1429 H 0.79127 0.27261 0.69156 0.0
H1430 H 0.76411 0.28928 0.68119 0.0
C1431 C 0.7466 0.27696 0.61438 0.0
C1432 C 0.7867 0.30382 0.63456 0.0
C1433 C 0.74243 0.26223 0.60238 0.0
C1434 C 0.81516 0.28012 0.70724 0.0
C1435 C 0.80092 0.28371 0.69465 0.0
C1436 C 0.77042 0.29377 0.66829 0.0
C1437 C 0.7652 0.28203 0.61774 0.0
C1438 C 0.77048 0.29293 0.63451 0.0
C1439 C 0.80029 0.30062 0.68487 0.0
C1440 C 0.78807 0.30212 0.66828 0.0
H1441 H 0.78645 0.25161 0.58853 0.0
H1442 H 0.79375 0.27688 0.60934 0.0
H1443 H 0.7492 0.28087 0.65219 0.0
H1444 H 0.83814 0.32139 0.70433 0.0
H1445 H 0.81319 0.32766 0.682 0.0
C1446 C 0.00671 0.49536 0.92736 0.0
C1447 C 0.00667 0.47905 0.91671 0.0
C1448 C 0.99064 0.50595 0.92922 0.0
C1449 C 0.94886 0.51726 0.903 0.0
H1450 H 0.94558 0.55259 0.94334 0.0
C1451 C 0.94679 0.59269 0.88948 0.0
C1452 C 0.94583 0.60518 0.90442 0.0
C1453 C 0.9421 0.57409 0.89197 0.0
C1454 C 0.94559 0.54274 0.93201 0.0
H1455 H 0.98936 0.46037 0.90064 0.0
H1456 H 0.96106 0.47901 0.90393 0.0
H1457 H 0.96138 0.5235 0.94816 0.0
H1458 H 0.93547 0.60889 0.93244 0.0
H1459 H 0.92631 0.5766 0.93652 0.0
H1460 H 0.93301 0.53645 0.88683 0.0
C1461 C 0.97366 0.48365 0.91069 0.0
C1462 C 0.95502 0.52604 0.93476 0.0
C1463 C 0.98985 0.47296 0.90885 0.0
C1464 C 0.93689 0.59947 0.9208 0.0
C1465 C 0.93185 0.58084 0.9232 0.0
C1466 C 0.93895 0.53378 0.90038 0.0
C1467 C 0.97399 0.50054 0.92054 0.0
C1468 C 0.95823 0.51393 0.9198 0.0
C1469 C 0.93606 0.56758 0.90942 0.0
C1470 C 0.93875 0.54753 0.9143 0.0
H1471 H 0.01937 0.50041 0.93373 0.0
H1472 H 0.99168 0.519 0.93661 0.0
H1473 H 0.95065 0.50808 0.89123 0.0
H1474 H 0.95313 0.59676 0.87645 0.0
H1475 H 0.94536 0.56465 0.88076 0.0
C1476 C 0.65376 0.65752 0.16115 0.0
C1477 C 0.64185 0.65939 0.14583 0.0
C1478 C 0.6727 0.65417 0.15846 0.0
C1479 C 0.70645 0.66556 0.12193 0.0
H1480 H 0.74117 0.65316 0.16113 0.0
C1481 C 0.77722 0.70026 0.12304 0.0
C1482 C 0.77877 0.7107 0.13944 0.0
C1483 C 0.76474 0.68535 0.12211 0.0
C1484 C 0.73171 0.65642 0.1499 0.0
H1485 H 0.63972 0.65641 0.11599 0.0
H1486 H 0.67251 0.64939 0.11134 0.0
H1487 H 0.7096 0.64078 0.16218 0.0
H1488 H 0.77024 0.71253 0.16823 0.0
H1489 H 0.74877 0.68656 0.16671 0.0
H1490 H 0.72821 0.68184 0.11011 0.0
C1491 C 0.66754 0.6515 0.12538 0.0
C1492 C 0.71356 0.64945 0.15054 0.0
C1493 C 0.64869 0.65531 0.12803 0.0
C1494 C 0.76918 0.7048 0.15537 0.0
C1495 C 0.75698 0.68979 0.15452 0.0
C1496 C 0.72459 0.67231 0.12118 0.0
C1497 C 0.68003 0.65228 0.14041 0.0
C1498 C 0.70037 0.65482 0.13712 0.0
C1499 C 0.7539 0.6805 0.13765 0.0
C1500 C 0.73711 0.66867 0.13567 0.0
H1501 H 0.64888 0.66064 0.17504 0.0
H1502 H 0.68173 0.65491 0.17046 0.0
H1503 H 0.69683 0.67026 0.11137 0.0
H1504 H 0.78446 0.70452 0.11056 0.0
H1505 H 0.76274 0.67835 0.10896 0.0
C1506 C 0.54554 0.50947 0.42126 0.0
C1507 C 0.53963 0.51927 0.40546 0.0
C1508 C 0.56162 0.4987 0.4207 0.0
C1509 C 0.58252 0.46967 0.38637 0.0
H1510 H 0.61018 0.45202 0.42905 0.0
C1511 C 0.59345 0.39344 0.39163 0.0
C1512 C 0.58665 0.3868 0.40865 0.0
C1513 C 0.5999 0.41168 0.39009 0.0
C1514 C 0.60268 0.45676 0.41691 0.0
H1515 H 0.54694 0.5272 0.37737 0.0
H1516 H 0.57505 0.50803 0.37627 0.0
H1517 H 0.59825 0.48376 0.42867 0.0
H1518 H 0.58352 0.39305 0.43788 0.0
H1519 H 0.59373 0.42495 0.43515 0.0
H1520 H 0.58512 0.44251 0.37528 0.0
C1521 C 0.56719 0.50868 0.38908 0.0
C1522 C 0.59595 0.47501 0.41666 0.0
C1523 C 0.55114 0.51968 0.38972 0.0
C1524 C 0.58866 0.39784 0.42456 0.0
C1525 C 0.59461 0.41624 0.42294 0.0
C1526 C 0.58905 0.45144 0.38669 0.0
C1527 C 0.57203 0.49731 0.40425 0.0
C1528 C 0.58477 0.48123 0.40189 0.0
C1529 C 0.59898 0.4238 0.4054 0.0
C1530 C 0.59813 0.44434 0.40251 0.0
H1531 H 0.53704 0.5091 0.43367 0.0
H1532 H 0.56481 0.49008 0.43262 0.0
H1533 H 0.57393 0.47392 0.37477 0.0
H1534 H 0.59232 0.38506 0.37919 0.0
H1535 H 0.60393 0.41673 0.3765 0.0
C1536 C 0.36879 0.23576 0.2855 0.0
C1537 C 0.36241 0.22985 0.30301 0.0
C1538 C 0.36003 0.25053 0.27628 0.0
C1539 C 0.31581 0.27574 0.2738 0.0
H1540 H 0.34459 0.31992 0.26292 0.0
C1541 C 0.28642 0.34817 0.28119 0.0
C1542 C 0.29272 0.3629 0.27009 0.0
C1543 C 0.29351 0.33034 0.27886 0.0
C1544 C 0.33636 0.30756 0.26534 0.0
H1545 H 0.34165 0.23452 0.32436 0.0
H1546 H 0.3263 0.2599 0.30819 0.0
H1547 H 0.36052 0.29102 0.27102 0.0
H1548 H 0.31068 0.37039 0.24715 0.0
H1549 H 0.32337 0.33895 0.24312 0.0
H1550 H 0.29165 0.29231 0.26889 0.0
C1551 C 0.33807 0.25321 0.30162 0.0
C1552 C 0.34551 0.29104 0.27004 0.0
C1553 C 0.34698 0.23878 0.31095 0.0
C1554 C 0.30553 0.35924 0.25583 0.0
C1555 C 0.31288 0.34131 0.25364 0.0
C1556 C 0.3067 0.29214 0.26896 0.0
C1557 C 0.3445 0.25927 0.28424 0.0
C1558 C 0.33526 0.27525 0.27515 0.0
C1559 C 0.30723 0.32677 0.26545 0.0
C1560 C 0.31684 0.30849 0.26558 0.0
H1561 H 0.38065 0.22913 0.27905 0.0
H1562 H 0.36527 0.25503 0.26292 0.0
H1563 H 0.30761 0.26364 0.2774 0.0
H1564 H 0.2765 0.35058 0.29225 0.0
H1565 H 0.289 0.3196 0.28838 0.0
C1566 C 0.81395 0.14425 0.84398 0.0
C1567 C 0.82776 0.13225 0.83722 0.0
C1568 C 0.81867 0.16223 0.84978 0.0
C1569 C 0.85966 0.19495 0.85299 0.0
H1570 H 0.82832 0.22525 0.82142 0.0
C1571 C 0.88434 0.2374 0.79258 0.0
C1572 C 0.87536 0.25388 0.78739 0.0
C1573 C 0.87921 0.22813 0.80879 0.0
C1574 C 0.83705 0.21731 0.83077 0.0
H1575 H 0.85739 0.12841 0.83389 0.0
H1576 H 0.86561 0.15936 0.84364 0.0
H1577 H 0.81636 0.19641 0.83378 0.0
H1578 H 0.85487 0.27433 0.79552 0.0
H1579 H 0.84522 0.25756 0.82365 0.0
H1580 H 0.88108 0.21501 0.84789 0.0
C1581 C 0.85116 0.15534 0.84457 0.0
C1582 C 0.83015 0.20067 0.83797 0.0
C1583 C 0.84645 0.13751 0.83879 0.0
C1584 C 0.86207 0.26168 0.79935 0.0
C1585 C 0.85655 0.25211 0.81539 0.0
C1586 C 0.86666 0.21145 0.8455 0.0
C1587 C 0.83724 0.16839 0.84888 0.0
C1588 C 0.84184 0.18859 0.848 0.0
C1589 C 0.86465 0.23492 0.81988 0.0
C1590 C 0.85577 0.22211 0.83332 0.0
H1591 H 0.79942 0.14049 0.84303 0.0
H1592 H 0.80763 0.17175 0.85348 0.0
H1593 H 0.86885 0.18633 0.86122 0.0
H1594 H 0.89462 0.23114 0.78354 0.0
H1595 H 0.88553 0.21479 0.81173 0.0
C1596 C 0.03247 0.63463 0.95953 0.0
C1597 C 0.02825 0.62694 0.94208 0.0
C1598 C 0.04689 0.62724 0.97032 0.0
C1599 C 0.0734 0.58483 0.97863 0.0
H1600 H 0.11474 0.61657 0.9922 0.0
C1601 C 0.13949 0.5575 0.01612 0.0
C1602 C 0.15548 0.56082 0.00543 0.0
C1603 C 0.12284 0.56673 0.01197 0.0
C1604 C 0.10316 0.60762 0.98873 0.0
H1605 H 0.03554 0.60528 0.92246 0.0
H1606 H 0.06034 0.59219 0.94147 0.0
H1607 H 0.08694 0.6302 0.97796 0.0
H1608 H 0.16691 0.57701 0.98274 0.0
H1609 H 0.13808 0.59341 0.9759 0.0
H1610 H 0.08977 0.56219 0.98897 0.0
C1611 C 0.05262 0.60399 0.94671 0.0
C1612 C 0.08728 0.6154 0.98066 0.0
C1613 C 0.03852 0.61159 0.93578 0.0
C1614 C 0.15476 0.57409 0.99113 0.0
C1615 C 0.13832 0.58358 0.9873 0.0
C1616 C 0.08912 0.5771 0.98702 0.0
C1617 C 0.05698 0.61177 0.96403 0.0
C1618 C 0.07251 0.60399 0.97505 0.0
C1619 C 0.12212 0.57975 0.99743 0.0
C1620 C 0.10435 0.58836 0.99165 0.0
H1621 H 0.02479 0.64646 0.96474 0.0
H1622 H 0.05006 0.63347 0.98363 0.0
H1623 H 0.06213 0.57577 0.97447 0.0
H1624 H 0.13968 0.5473 0.02718 0.0
H1625 H 0.11048 0.56354 0.01995 0.0
C1626 C 0.68217 0.86769 0.2251 0.0
C1627 C 0.69719 0.86831 0.21264 0.0
C1628 C 0.67119 0.85167 0.22643 0.0
C1629 C 0.67013 0.80161 0.21668 0.0
H1630 H 0.61863 0.8088 0.20253 0.0
C1631 C 0.614 0.75836 0.17358 0.0
C1632 C 0.6138 0.74118 0.18283 0.0
C1633 C 0.62181 0.77396 0.18199 0.0
C1634 C 0.6329 0.80661 0.20677 0.0
H1635 H 0.71317 0.85247 0.19265 0.0
H1636 H 0.69438 0.82445 0.19537 0.0
H1637 H 0.63811 0.83578 0.20954 0.0
H1638 H 0.62112 0.72699 0.20839 0.0
H1639 H 0.63532 0.75431 0.2229 0.0
H1640 H 0.66516 0.77249 0.21319 0.0
C1641 C 0.69095 0.83632 0.20394 0.0
C1642 C 0.64399 0.822 0.21089 0.0
C1643 C 0.70162 0.85239 0.2023 0.0
C1644 C 0.62105 0.74006 0.20094 0.0
C1645 C 0.62921 0.75564 0.20922 0.0
C1646 C 0.65897 0.7862 0.21286 0.0
C1647 C 0.6754 0.83593 0.21569 0.0
C1648 C 0.66287 0.81965 0.21523 0.0
C1649 C 0.62986 0.77266 0.1997 0.0
C1650 C 0.64044 0.78861 0.20723 0.0
H1651 H 0.67843 0.87981 0.23317 0.0
H1652 H 0.65923 0.85168 0.23556 0.0
H1653 H 0.68464 0.79947 0.22003 0.0
H1654 H 0.60844 0.75966 0.15966 0.0
H1655 H 0.62231 0.78687 0.17426 0.0
C1656 C 0.37896 0.44149 0.48541 0.0
C1657 C 0.3717 0.43946 0.5034 0.0
C1658 C 0.39604 0.4337 0.4807 0.0
C1659 C 0.42847 0.39649 0.49275 0.0
H1660 H 0.46148 0.42438 0.46058 0.0
C1661 C 0.49804 0.36707 0.46261 0.0
C1662 C 0.50066 0.37052 0.44354 0.0
C1663 C 0.48346 0.37565 0.4723 0.0
C1664 C 0.4524 0.41638 0.46952 0.0
H1665 H 0.37679 0.42777 0.53068 0.0
H1666 H 0.40687 0.41392 0.52234 0.0
H1667 H 0.43414 0.43944 0.47359 0.0
H1668 H 0.48979 0.38551 0.41972 0.0
H1669 H 0.4646 0.40028 0.43649 0.0
H1670 H 0.44664 0.37327 0.48824 0.0
C1671 C 0.39918 0.42157 0.51191 0.0
C1672 C 0.43675 0.42501 0.47699 0.0
C1673 C 0.38205 0.42956 0.5167 0.0
C1674 C 0.48829 0.38256 0.43439 0.0
C1675 C 0.47389 0.39116 0.44405 0.0
C1676 C 0.44422 0.38781 0.48525 0.0
C1677 C 0.40636 0.42361 0.49384 0.0
C1678 C 0.4243 0.41504 0.48824 0.0
C1679 C 0.47136 0.38796 0.46313 0.0
C1680 C 0.45604 0.39754 0.47311 0.0
H1681 H 0.37147 0.44917 0.47488 0.0
H1682 H 0.40101 0.43532 0.4666 0.0
H1683 H 0.4191 0.38842 0.50132 0.0
H1684 H 0.50731 0.35787 0.47008 0.0
H1685 H 0.48186 0.37293 0.48701 0.0
C1686 C 0.17035 0.64658 0.68918 0.0
C1687 C 0.1549 0.63792 0.69736 0.0
C1688 C 0.16958 0.66542 0.68441 0.0
C1689 C 0.13893 0.70726 0.68241 0.0
H1690 H 0.17673 0.7286 0.71415 0.0
C1691 C 0.12584 0.77141 0.72728 0.0
C1692 C 0.14093 0.78096 0.73499 0.0
C1693 C 0.12887 0.75696 0.71467 0.0
C1694 C 0.16632 0.72326 0.70471 0.0
H1695 H 0.1259 0.64131 0.7046 0.0
H1696 H 0.12444 0.67394 0.69603 0.0
H1697 H 0.17951 0.69674 0.70439 0.0
H1698 H 0.17074 0.78438 0.73447 0.0
H1699 H 0.17606 0.76016 0.7114 0.0
H1700 H 0.12541 0.73373 0.68325 0.0
C1701 C 0.1372 0.6664 0.69342 0.0
C1702 C 0.16796 0.7048 0.69911 0.0
C1703 C 0.13804 0.64769 0.69842 0.0
C1704 C 0.15892 0.77712 0.72865 0.0
C1705 C 0.16192 0.76306 0.71563 0.0
C1706 C 0.13742 0.7259 0.68778 0.0
C1707 C 0.15327 0.67575 0.6875 0.0
C1708 C 0.15387 0.69634 0.68862 0.0
C1709 C 0.14706 0.75201 0.7093 0.0
C1710 C 0.15065 0.7339 0.69978 0.0
H1711 H 0.18354 0.63939 0.68825 0.0
H1712 H 0.18213 0.67225 0.67969 0.0
H1713 H 0.12793 0.70113 0.67418 0.0
H1714 H 0.11187 0.77403 0.73222 0.0
H1715 H 0.11701 0.7488 0.71035 0.0
C1716 C 0.50626 0.88758 0.08391 0.0
C1717 C 0.4966 0.87269 0.07582 0.0
C1718 C 0.52204 0.89488 0.07537 0.0
C1719 C 0.56145 0.88335 0.04792 0.0
H1720 H 0.56497 0.93628 0.03828 0.0
C1721 C 0.6292 0.92565 0.04829 0.0
C1722 C 0.63243 0.93798 0.03351 0.0
C1723 C 0.61242 0.91606 0.04962 0.0
C1724 C 0.56409 0.92144 0.04063 0.0
H1725 H 0.496 0.85362 0.05253 0.0
H1726 H 0.52427 0.86603 0.03792 0.0
H1727 H 0.53528 0.92282 0.04809 0.0
H1728 H 0.62079 0.94976 0.00837 0.0
H1729 H 0.59095 0.93341 0.01114 0.0
H1730 H 0.59057 0.88218 0.04163 0.0
C1731 C 0.51929 0.87216 0.05072 0.0
C1732 C 0.54718 0.91379 0.04632 0.0
C1733 C 0.50318 0.86511 0.05906 0.0
C1734 C 0.61865 0.9403 0.01987 0.0
C1735 C 0.60163 0.931 0.02146 0.0
C1736 C 0.57846 0.89107 0.04261 0.0
C1737 C 0.52871 0.88721 0.05876 0.0
C1738 C 0.54583 0.89476 0.05034 0.0
C1739 C 0.59838 0.91888 0.0364 0.0
C1740 C 0.57998 0.91023 0.03925 0.0
H1741 H 0.50147 0.8938 0.09674 0.0
H1742 H 0.52921 0.90638 0.08189 0.0
H1743 H 0.56072 0.86865 0.05106 0.0
H1744 H 0.63962 0.92351 0.05894 0.0
H1745 H 0.61016 0.90693 0.06137 0.0
C1746 C 0.92961 0.06194 0.42228 0.0
C1747 C 0.91188 0.05759 0.41548 0.0
C1748 C 0.93779 0.07897 0.41816 0.0
C1749 C 0.92008 0.12596 0.40921 0.0
H1750 H 0.96981 0.13648 0.42666 0.0
C1751 C 0.96433 0.17878 0.46028 0.0
C1752 C 0.94963 0.18148 0.47286 0.0
C1753 C 0.9614 0.1692 0.44361 0.0
C1754 C 0.95594 0.13424 0.42135 0.0
H1755 H 0.89008 0.0663 0.39669 0.0
H1756 H 0.9047 0.0959 0.38881 0.0
H1757 H 0.9635 0.10735 0.41147 0.0
H1758 H 0.91999 0.17795 0.47685 0.0
H1759 H 0.91505 0.16067 0.44876 0.0
H1760 H 0.91265 0.1531 0.41848 0.0
C1761 C 0.91199 0.0865 0.398 0.0
C1762 C 0.95222 0.1172 0.41284 0.0
C1763 C 0.9037 0.06939 0.40228 0.0
C1764 C 0.93169 0.176 0.46759 0.0
C1765 C 0.92883 0.16613 0.45118 0.0
C1766 C 0.92394 0.14328 0.41708 0.0
C1767 C 0.92848 0.09209 0.40701 0.0
C1768 C 0.93389 0.11213 0.40832 0.0
C1769 C 0.9438 0.16174 0.43934 0.0
C1770 C 0.9415 0.14698 0.42486 0.0
H1771 H 0.93637 0.05296 0.4323 0.0
H1772 H 0.95047 0.08241 0.42545 0.0
H1773 H 0.90581 0.12298 0.40558 0.0
H1774 H 0.9783 0.18312 0.46379 0.0
H1775 H 0.9732 0.16676 0.43462 0.0
loop_
_geom_bond_atom_site_label_1
_geom_bond_atom_site_label_2
_geom_bond_distance
_geom_bond_site_symmetry_2
_ccdc_geom_bond_type
Zn0 O3 2.031 . S
Zn0 O5 2.049 . S
Zn0 O10 2.067 . S
Zn1 O2 1.962 . S
Zn1 O4 1.986 . S
Zn1 O6 1.996 . S
Zn1 O9 1.943 . S
O2 Zn1 1.962 . S
O2 C7 1.254 . S
O3 Zn0 2.031 . S
O3 C7 1.269 . S
O4 Zn1 1.986 . S
O4 C11 1.262 . S
O5 Zn0 2.049 . S
O5 C13 1.260 . S
O6 Zn1 1.996 . S
O6 C13 1.257 . S
C7 O2 1.254 . S
C7 O3 1.269 . S
C8 O9 1.249 . S
C8 O10 1.270 . S
O9 Zn1 1.943 . S
O9 C8 1.249 . S
O10 Zn0 2.067 . S
O10 C8 1.270 . S
C11 O4 1.262 . S
C11 O12 1.232 . S
O12 C11 1.232 . S
C13 O5 1.260 . S
C13 O6 1.257 . S
Zn14 O17 2.031 . S
Zn14 O19 2.049 . S
Zn14 O24 2.067 . S
Zn15 O16 1.962 . S
Zn15 O18 1.986 . S
Zn15 O20 1.996 . S
Zn15 O23 1.943 . S
O16 Zn15 1.962 . S
O16 C21 1.254 . S
O17 Zn14 2.031 . S
O17 C21 1.269 . S
O18 Zn15 1.986 . S
O18 C25 1.262 . S
O19 Zn14 2.049 . S
O19 C27 1.260 . S
O20 Zn15 1.996 . S
O20 C27 1.257 . S
C21 O16 1.254 . S
C21 O17 1.269 . S
C22 O23 1.249 . S
C22 O24 1.270 . S
O23 Zn15 1.943 . S
O23 C22 1.249 . S
O24 Zn14 2.067 . S
O24 C22 1.270 . S
C25 O18 1.262 . S
C25 O26 1.232 . S
O26 C25 1.232 . S
C27 O19 1.260 . S
C27 O20 1.257 . S
Zn28 O31 2.031 . S
Zn28 O33 2.049 . S
Zn28 O38 2.067 . S
Zn29 O30 1.962 . S
Zn29 O32 1.986 . S
Zn29 O34 1.996 . S
Zn29 O37 1.943 . S
O30 Zn29 1.962 . S
O30 C35 1.254 . S
O31 Zn28 2.031 . S
O31 C35 1.269 . S
O32 Zn29 1.986 . S
O32 C39 1.262 . S
O33 Zn28 2.049 . S
O33 C41 1.260 . S
O34 Zn29 1.996 . S
O34 C41 1.257 . S
C35 O30 1.254 . S
C35 O31 1.269 . S
C36 O37 1.249 . S
C36 O38 1.270 . S
O37 Zn29 1.943 . S
O37 C36 1.249 . S
O38 Zn28 2.067 . S
O38 C36 1.270 . S
C39 O32 1.262 . S
C39 O40 1.232 . S
O40 C39 1.232 . S
C41 O33 1.260 . S
C41 O34 1.257 . S
Zn42 O45 2.031 . S
Zn42 O47 2.049 . S
Zn42 O52 2.067 . S
Zn43 O44 1.962 . S
Zn43 O46 1.986 . S
Zn43 O48 1.996 . S
Zn43 O51 1.943 . S
O44 Zn43 1.962 . S
O44 C49 1.254 . S
O45 Zn42 2.031 . S
O45 C49 1.269 . S
O46 Zn43 1.986 . S
O46 C53 1.262 . S
O47 Zn42 2.049 . S
O47 C55 1.260 . S
O48 Zn43 1.996 . S
O48 C55 1.257 . S
C49 O44 1.254 . S
C49 O45 1.269 . S
C50 O51 1.249 . S
C50 O52 1.270 . S
O51 Zn43 1.943 . S
O51 C50 1.249 . S
O52 Zn42 2.067 . S
O52 C50 1.270 . S
C53 O46 1.262 . S
C53 O54 1.232 . S
O54 C53 1.232 . S
C55 O47 1.260 . S
C55 O48 1.257 . S
Zn56 O59 2.031 . S
Zn56 O61 2.049 . S
Zn56 O66 2.067 . S
Zn57 O58 1.962 . S
Zn57 O60 1.986 . S
Zn57 O62 1.996 . S
Zn57 O65 1.943 . S
O58 Zn57 1.962 . S
O58 C63 1.254 . S
O59 Zn56 2.031 . S
O59 C63 1.269 . S
O60 Zn57 1.986 . S
O60 C67 1.262 . S
O61 Zn56 2.049 . S
O61 C69 1.260 . S
O62 Zn57 1.996 . S
O62 C69 1.257 . S
C63 O58 1.254 . S
C63 O59 1.269 . S
C64 O65 1.249 . S
C64 O66 1.270 . S
O65 Zn57 1.943 . S
O65 C64 1.249 . S
O66 Zn56 2.067 . S
O66 C64 1.270 . S
C67 O60 1.262 . S
C67 O68 1.232 . S
O68 C67 1.232 . S
C69 O61 1.260 . S
C69 O62 1.257 . S
Zn70 O73 2.031 . S
Zn70 O75 2.049 . S
Zn70 O80 2.067 . S
Zn71 O72 1.962 . S
Zn71 O74 1.986 . S
Zn71 O76 1.996 . S
Zn71 O79 1.943 . S
O72 Zn71 1.962 . S
O72 C77 1.254 . S
O73 Zn70 2.031 . S
O73 C77 1.269 . S
O74 Zn71 1.986 . S
O74 C81 1.262 . S
O75 Zn70 2.049 . S
O75 C83 1.260 . S
O76 Zn71 1.996 . S
O76 C83 1.257 . S
C77 O72 1.254 . S
C77 O73 1.269 . S
C78 O79 1.249 . S
C78 O80 1.270 . S
O79 Zn71 1.943 . S
O79 C78 1.249 . S
O80 Zn70 2.067 . S
O80 C78 1.270 . S
C81 O74 1.262 . S
C81 O82 1.232 . S
O82 C81 1.232 . S
C83 O75 1.260 . S
C83 O76 1.257 . S
Zn84 O87 2.031 . S
Zn84 O89 2.049 . S
Zn84 O94 2.067 . S
Zn85 O86 1.962 . S
Zn85 O88 1.986 . S
Zn85 O90 1.996 . S
Zn85 O93 1.943 . S
O86 Zn85 1.962 . S
O86 C91 1.254 . S
O87 Zn84 2.031 . S
O87 C91 1.269 . S
O88 Zn85 1.986 . S
O88 C95 1.262 . S
O89 Zn84 2.049 . S
O89 C97 1.260 . S
O90 Zn85 1.996 . S
O90 C97 1.257 . S
C91 O86 1.254 . S
C91 O87 1.269 . S
C92 O93 1.249 . S
C92 O94 1.270 . S
O93 Zn85 1.943 . S
O93 C92 1.249 . S
O94 Zn84 2.067 . S
O94 C92 1.270 . S
C95 O88 1.262 . S
C95 O96 1.232 . S
O96 C95 1.232 . S
C97 O89 1.260 . S
C97 O90 1.257 . S
Zn98 O101 2.031 . S
Zn98 O103 2.049 . S
Zn98 O108 2.067 . S
Zn99 O100 1.962 . S
Zn99 O102 1.986 . S
Zn99 O104 1.996 . S
Zn99 O107 1.943 . S
O100 Zn99 1.962 . S
O100 C105 1.254 . S
O101 Zn98 2.031 . S
O101 C105 1.269 . S
O102 Zn99 1.986 . S
O102 C109 1.262 . S
O103 Zn98 2.049 . S
O103 C111 1.260 . S
O104 Zn99 1.996 . S
O104 C111 1.257 . S
C105 O100 1.254 . S
C105 O101 1.269 . S
C106 O107 1.249 . S
C106 O108 1.270 . S
O107 Zn99 1.943 . S
O107 C106 1.249 . S
O108 Zn98 2.067 . S
O108 C106 1.270 . S
C109 O102 1.262 . S
C109 O110 1.232 . S
O110 C109 1.232 . S
C111 O103 1.260 . S
C111 O104 1.257 . S
Zn112 O115 2.031 . S
Zn112 O117 2.049 . S
Zn112 O122 2.067 . S
Zn113 O114 1.962 . S
Zn113 O116 1.986 . S
Zn113 O118 1.996 . S
Zn113 O121 1.943 . S
O114 Zn113 1.962 . S
O114 C119 1.254 . S
O115 Zn112 2.031 . S
O115 C119 1.269 . S
O116 Zn113 1.986 . S
O116 C123 1.262 . S
O117 Zn112 2.049 . S
O117 C125 1.260 . S
O118 Zn113 1.996 . S
O118 C125 1.257 . S
C119 O114 1.254 . S
C119 O115 1.269 . S
C120 O121 1.249 . S
C120 O122 1.270 . S
O121 Zn113 1.943 . S
O121 C120 1.249 . S
O122 Zn112 2.067 . S
O122 C120 1.270 . S
C123 O116 1.262 . S
C123 O124 1.232 . S
O124 C123 1.232 . S
C125 O117 1.260 . S
C125 O118 1.257 . S
Zn126 O129 2.031 . S
Zn126 O131 2.049 . S
Zn126 O136 2.067 . S
Zn127 O128 1.962 . S
Zn127 O130 1.986 . S
Zn127 O132 1.996 . S
Zn127 O135 1.943 . S
O128 Zn127 1.962 . S
O128 C133 1.254 . S
O129 Zn126 2.031 . S
O129 C133 1.269 . S
O130 Zn127 1.986 . S
O130 C137 1.262 . S
O131 Zn126 2.049 . S
O131 C139 1.260 . S
O132 Zn127 1.996 . S
O132 C139 1.257 . S
C133 O128 1.254 . S
C133 O129 1.269 . S
C134 O135 1.249 . S
C134 O136 1.270 . S
O135 Zn127 1.943 . S
O135 C134 1.249 . S
O136 Zn126 2.067 . S
O136 C134 1.270 . S
C137 O130 1.262 . S
C137 O138 1.232 . S
O138 C137 1.232 . S
C139 O131 1.260 . S
C139 O132 1.257 . S
Zn140 O143 2.031 . S
Zn140 O145 2.049 . S
Zn140 O150 2.067 . S
Zn141 O142 1.962 . S
Zn141 O144 1.986 . S
Zn141 O146 1.996 . S
Zn141 O149 1.943 . S
O142 Zn141 1.962 . S
O142 C147 1.254 . S
O143 Zn140 2.031 . S
O143 C147 1.269 . S
O144 Zn141 1.986 . S
O144 C151 1.262 . S
O145 Zn140 2.049 . S
O145 C153 1.260 . S
O146 Zn141 1.996 . S
O146 C153 1.257 . S
C147 O142 1.254 . S
C147 O143 1.269 . S
C148 O149 1.249 . S
C148 O150 1.270 . S
O149 Zn141 1.943 . S
O149 C148 1.249 . S
O150 Zn140 2.067 . S
O150 C148 1.270 . S
C151 O144 1.262 . S
C151 O152 1.232 . S
O152 C151 1.232 . S
C153 O145 1.260 . S
C153 O146 1.257 . S
Zn154 O157 2.031 . S
Zn154 O159 2.049 . S
Zn154 O164 2.067 . S
Zn155 O156 1.962 . S
Zn155 O158 1.986 . S
Zn155 O160 1.996 . S
Zn155 O163 1.943 . S
O156 Zn155 1.962 . S
O156 C161 1.254 . S
O157 Zn154 2.031 . S
O157 C161 1.269 . S
O158 Zn155 1.986 . S
O158 C165 1.262 . S
O159 Zn154 2.049 . S
O159 C167 1.260 . S
O160 Zn155 1.996 . S
O160 C167 1.257 . S
C161 O156 1.254 . S
C161 O157 1.269 . S
C162 O163 1.249 . S
C162 O164 1.270 . S
O163 Zn155 1.943 . S
O163 C162 1.249 . S
O164 Zn154 2.067 . S
O164 C162 1.270 . S
C165 O158 1.262 . S
C165 O166 1.232 . S
O166 C165 1.232 . S
C167 O159 1.260 . S
C167 O160 1.257 . S
Zn168 O171 2.031 . S
Zn168 O173 2.049 . S
Zn168 O178 2.067 . S
Zn169 O170 1.962 . S
Zn169 O172 1.986 . S
Zn169 O174 1.996 . S
Zn169 O177 1.943 . S
O170 Zn169 1.962 . S
O170 C175 1.254 . S
O171 Zn168 2.031 . S
O171 C175 1.269 . S
O172 Zn169 1.986 . S
O172 C179 1.262 . S
O173 Zn168 2.049 . S
O173 C181 1.260 . S
O174 Zn169 1.996 . S
O174 C181 1.257 . S
C175 O170 1.254 . S
C175 O171 1.269 . S
C176 O177 1.249 . S
C176 O178 1.270 . S
O177 Zn169 1.943 . S
O177 C176 1.249 . S
O178 Zn168 2.067 . S
O178 C176 1.270 . S
C179 O172 1.262 . S
C179 O180 1.232 . S
O180 C179 1.232 . S
C181 O173 1.260 . S
C181 O174 1.257 . S
Zn182 O185 2.031 . S
Zn182 O187 2.049 . S
Zn182 O192 2.067 . S
Zn183 O184 1.962 . S
Zn183 O186 1.986 . S
Zn183 O188 1.996 . S
Zn183 O191 1.943 . S
O184 Zn183 1.962 . S
O184 C189 1.254 . S
O185 Zn182 2.031 . S
O185 C189 1.269 . S
O186 Zn183 1.986 . S
O186 C193 1.262 . S
O187 Zn182 2.049 . S
O187 C195 1.260 . S
O188 Zn183 1.996 . S
O188 C195 1.257 . S
C189 O184 1.254 . S
C189 O185 1.269 . S
C190 O191 1.249 . S
C190 O192 1.270 . S
O191 Zn183 1.943 . S
O191 C190 1.249 . S
O192 Zn182 2.067 . S
O192 C190 1.270 . S
C193 O186 1.262 . S
C193 O194 1.232 . S
O194 C193 1.232 . S
C195 O187 1.260 . S
C195 O188 1.257 . S
Zn196 O199 2.031 . S
Zn196 O201 2.049 . S
Zn196 O206 2.067 . S
Zn197 O198 1.962 . S
Zn197 O200 1.986 . S
Zn197 O202 1.996 . S
Zn197 O205 1.943 . S
O198 Zn197 1.962 . S
O198 C203 1.254 . S
O199 Zn196 2.031 . S
O199 C203 1.269 . S
O200 Zn197 1.986 . S
O200 C207 1.262 . S
O201 Zn196 2.049 . S
O201 C209 1.260 . S
O202 Zn197 1.996 . S
O202 C209 1.257 . S
C203 O198 1.254 . S
C203 O199 1.269 . S
C204 O205 1.249 . S
C204 O206 1.270 . S
O205 Zn197 1.943 . S
O205 C204 1.249 . S
O206 Zn196 2.067 . S
O206 C204 1.270 . S
C207 O200 1.262 . S
C207 O208 1.232 . S
O208 C207 1.232 . S
C209 O201 1.260 . S
C209 O202 1.257 . S
Zn210 O213 2.031 . S
Zn210 O215 2.049 . S
Zn210 O220 2.067 . S
Zn211 O212 1.962 . S
Zn211 O214 1.986 . S
Zn211 O216 1.996 . S
Zn211 O219 1.943 . S
O212 Zn211 1.962 . S
O212 C217 1.254 . S
O213 Zn210 2.031 . S
O213 C217 1.269 . S
O214 Zn211 1.986 . S
O214 C221 1.262 . S
O215 Zn210 2.049 . S
O215 C223 1.260 . S
O216 Zn211 1.996 . S
O216 C223 1.257 . S
C217 O212 1.254 . S
C217 O213 1.269 . S
C218 O219 1.249 . S
C218 O220 1.270 . S
O219 Zn211 1.943 . S
O219 C218 1.249 . S
O220 Zn210 2.067 . S
O220 C218 1.270 . S
C221 O214 1.262 . S
C221 O222 1.232 . S
O222 C221 1.232 . S
C223 O215 1.260 . S
C223 O216 1.257 . S
Zn224 O227 2.031 . S
Zn224 O229 2.049 . S
Zn224 O234 2.067 . S
Zn225 O226 1.962 . S
Zn225 O228 1.986 . S
Zn225 O230 1.996 . S
Zn225 O233 1.943 . S
O226 Zn225 1.962 . S
O226 C231 1.254 . S
O227 Zn224 2.031 . S
O227 C231 1.269 . S
O228 Zn225 1.986 . S
O228 C235 1.262 . S
O229 Zn224 2.049 . S
O229 C237 1.260 . S
O230 Zn225 1.996 . S
O230 C237 1.257 . S
C231 O226 1.254 . S
C231 O227 1.269 . S
C232 O233 1.249 . S
C232 O234 1.270 . S
O233 Zn225 1.943 . S
O233 C232 1.249 . S
O234 Zn224 2.067 . S
O234 C232 1.270 . S
C235 O228 1.262 . S
C235 O236 1.232 . S
O236 C235 1.232 . S
C237 O229 1.260 . S
C237 O230 1.257 . S
Zn238 O241 2.031 . S
Zn238 O243 2.049 . S
Zn238 O248 2.067 . S
Zn239 O240 1.962 . S
Zn239 O242 1.986 . S
Zn239 O244 1.996 . S
Zn239 O247 1.943 . S
O240 Zn239 1.962 . S
O240 C245 1.254 . S
O241 Zn238 2.031 . S
O241 C245 1.269 . S
O242 Zn239 1.986 . S
O242 C249 1.262 . S
O243 Zn238 2.049 . S
O243 C251 1.260 . S
O244 Zn239 1.996 . S
O244 C251 1.257 . S
C245 O240 1.254 . S
C245 O241 1.269 . S
C246 O247 1.249 . S
C246 O248 1.270 . S
O247 Zn239 1.943 . S
O247 C246 1.249 . S
O248 Zn238 2.067 . S
O248 C246 1.270 . S
C249 O242 1.262 . S
C249 O250 1.232 . S
O250 C249 1.232 . S
C251 O243 1.260 . S
C251 O244 1.257 . S
Zn252 O255 2.031 . S
Zn252 O257 2.049 . S
Zn252 O262 2.067 . S
Zn253 O254 1.962 . S
Zn253 O256 1.986 . S
Zn253 O258 1.996 . S
Zn253 O261 1.943 . S
O254 Zn253 1.962 . S
O254 C259 1.254 . S
O255 Zn252 2.031 . S
O255 C259 1.269 . S
O256 Zn253 1.986 . S
O256 C263 1.262 . S
O257 Zn252 2.049 . S
O257 C265 1.260 . S
O258 Zn253 1.996 . S
O258 C265 1.257 . S
C259 O254 1.254 . S
C259 O255 1.269 . S
C260 O261 1.249 . S
C260 O262 1.270 . S
O261 Zn253 1.943 . S
O261 C260 1.249 . S
O262 Zn252 2.067 . S
O262 C260 1.270 . S
C263 O256 1.262 . S
C263 O264 1.232 . S
O264 C263 1.232 . S
C265 O257 1.260 . S
C265 O258 1.257 . S
Zn266 O269 2.031 . S
Zn266 O271 2.049 . S
Zn266 O276 2.067 . S
Zn267 O268 1.962 . S
Zn267 O270 1.986 . S
Zn267 O272 1.996 . S
Zn267 O275 1.943 . S
O268 Zn267 1.962 . S
O268 C273 1.254 . S
O269 Zn266 2.031 . S
O269 C273 1.269 . S
O270 Zn267 1.986 . S
O270 C277 1.262 . S
O271 Zn266 2.049 . S
O271 C279 1.260 . S
O272 Zn267 1.996 . S
O272 C279 1.257 . S
C273 O268 1.254 . S
C273 O269 1.269 . S
C274 O275 1.249 . S
C274 O276 1.270 . S
O275 Zn267 1.943 . S
O275 C274 1.249 . S
O276 Zn266 2.067 . S
O276 C274 1.270 . S
C277 O270 1.262 . S
C277 O278 1.232 . S
O278 C277 1.232 . S
C279 O271 1.260 . S
C279 O272 1.257 . S
Zn280 O283 2.031 . S
Zn280 O285 2.049 . S
Zn280 O290 2.067 . S
Zn281 O282 1.962 . S
Zn281 O284 1.986 . S
Zn281 O286 1.996 . S
Zn281 O289 1.943 . S
O282 Zn281 1.962 . S
O282 C287 1.254 . S
O283 Zn280 2.031 . S
O283 C287 1.269 . S
O284 Zn281 1.986 . S
O284 C291 1.262 . S
O285 Zn280 2.049 . S
O285 C293 1.260 . S
O286 Zn281 1.996 . S
O286 C293 1.257 . S
C287 O282 1.254 . S
C287 O283 1.269 . S
C288 O289 1.249 . S
C288 O290 1.270 . S
O289 Zn281 1.943 . S
O289 C288 1.249 . S
O290 Zn280 2.067 . S
O290 C288 1.270 . S
C291 O284 1.262 . S
C291 O292 1.232 . S
O292 C291 1.232 . S
C293 O285 1.260 . S
C293 O286 1.257 . S
Zn294 O297 2.031 . S
Zn294 O299 2.049 . S
Zn294 O304 2.067 . S
Zn295 O296 1.962 . S
Zn295 O298 1.986 . S
Zn295 O300 1.996 . S
Zn295 O303 1.943 . S
O296 Zn295 1.962 . S
O296 C301 1.254 . S
O297 Zn294 2.031 . S
O297 C301 1.269 . S
O298 Zn295 1.986 . S
O298 C305 1.262 . S
O299 Zn294 2.049 . S
O299 C307 1.260 . S
O300 Zn295 1.996 . S
O300 C307 1.257 . S
C301 O296 1.254 . S
C301 O297 1.269 . S
C302 O303 1.249 . S
C302 O304 1.270 . S
O303 Zn295 1.943 . S
O303 C302 1.249 . S
O304 Zn294 2.067 . S
O304 C302 1.270 . S
C305 O298 1.262 . S
C305 O306 1.232 . S
O306 C305 1.232 . S
C307 O299 1.260 . S
C307 O300 1.257 . S
Zn308 O311 2.031 . S
Zn308 O313 2.049 . S
Zn308 O318 2.067 . S
Zn309 O310 1.962 . S
Zn309 O312 1.986 . S
Zn309 O314 1.996 . S
Zn309 O317 1.943 . S
O310 Zn309 1.962 . S
O310 C315 1.254 . S
O311 Zn308 2.031 . S
O311 C315 1.269 . S
O312 Zn309 1.986 . S
O312 C319 1.262 . S
O313 Zn308 2.049 . S
O313 C321 1.260 . S
O314 Zn309 1.996 . S
O314 C321 1.257 . S
C315 O310 1.254 . S
C315 O311 1.269 . S
C316 O317 1.249 . S
C316 O318 1.270 . S
O317 Zn309 1.943 . S
O317 C316 1.249 . S
O318 Zn308 2.067 . S
O318 C316 1.270 . S
C319 O312 1.262 . S
C319 O320 1.232 . S
O320 C319 1.232 . S
C321 O313 1.260 . S
C321 O314 1.257 . S
Zn322 O325 2.031 . S
Zn322 O327 2.049 . S
Zn322 O332 2.067 . S
Zn323 O324 1.962 . S
Zn323 O326 1.986 . S
Zn323 O328 1.996 . S
Zn323 O331 1.943 . S
O324 Zn323 1.962 . S
O324 C329 1.254 . S
O325 Zn322 2.031 . S
O325 C329 1.269 . S
O326 Zn323 1.986 . S
O326 C333 1.262 . S
O327 Zn322 2.049 . S
O327 C335 1.260 . S
O328 Zn323 1.996 . S
O328 C335 1.257 . S
C329 O324 1.254 . S
C329 O325 1.269 . S
C330 O331 1.249 . S
C330 O332 1.270 . S
O331 Zn323 1.943 . S
O331 C330 1.249 . S
O332 Zn322 2.067 . S
O332 C330 1.270 . S
C333 O326 1.262 . S
C333 O334 1.232 . S
O334 C333 1.232 . S
C335 O327 1.260 . S
C335 O328 1.257 . S
C336 C337 1.349 . S
C336 C338 1.327 . S
C336 H361 0.950 . S
C337 C336 1.349 . S
C337 C353 1.349 . S
C338 C336 1.327 . S
C338 C357 1.429 . S
C338 H362 0.950 . S
C339 C356 1.574 . S
C339 C358 1.368 . S
C339 H363 0.949 . S
H340 C344 0.949 . S
C341 C342 1.349 . S
C341 C343 1.327 . S
C341 H364 0.950 . S
C342 C341 1.349 . S
C342 C354 1.349 . S
C343 C341 1.327 . S
C343 C359 1.429 . S
C343 H365 0.950 . S
C344 H340 0.949 . S
C344 C352 1.574 . S
C344 C360 1.368 . S
H345 C353 0.950 . S
H346 C351 0.950 . S
H347 C352 0.949 . S
H348 C354 0.950 . S
H349 C355 0.950 . S
H350 C356 0.949 . S
C351 H346 0.950 . S
C351 C353 1.327 . S
C351 C357 1.429 . S
C352 C344 1.574 . S
C352 H347 0.949 . S
C352 C358 1.368 . S
C353 C337 1.349 . S
C353 H345 0.950 . S
C353 C351 1.327 . S
C354 C342 1.349 . S
C354 H348 0.950 . S
C354 C355 1.327 . S
C355 H349 0.950 . S
C355 C354 1.327 . S
C355 C359 1.429 . S
C356 C339 1.574 . S
C356 H350 0.949 . S
C356 C360 1.368 . S
C357 C338 1.429 . S
C357 C351 1.429 . S
C357 C358 1.523 . S
C358 C339 1.368 . S
C358 C352 1.368 . S
C358 C357 1.523 . S
C359 C343 1.429 . S
C359 C355 1.429 . S
C359 C360 1.523 . S
C360 C344 1.368 . S
C360 C356 1.368 . S
C360 C359 1.523 . S
H361 C336 0.950 . S
H362 C338 0.950 . S
H363 C339 0.949 . S
H364 C341 0.950 . S
H365 C343 0.950 . S
C366 C367 1.349 . S
C366 C368 1.327 1_655 S
C366 H391 0.954 . S
C367 C366 1.349 . S
C367 C383 1.349 . S
C368 C366 1.327 1_455 S
C368 C387 1.429 . S
C368 H392 0.950 . S
C369 C386 1.574 . S
C369 C388 1.368 . S
C369 H393 0.949 . S
H370 C374 0.949 . S
C371 C372 1.349 . S
C371 C373 1.327 . S
C371 H394 0.950 . S
C372 C371 1.349 . S
C372 C384 1.349 . S
C373 C371 1.327 . S
C373 C389 1.429 . S
C373 H395 0.950 . S
C374 H370 0.949 . S
C374 C382 1.574 . S
C374 C390 1.368 . S
H375 C383 0.950 . S
H376 C381 0.950 . S
H377 C382 0.949 . S
H378 C384 0.950 . S
H379 C385 0.950 . S
H380 C386 0.949 . S
C381 H376 0.950 . S
C381 C383 1.327 . S
C381 C387 1.429 1_655 S
C382 C374 1.574 . S
C382 H377 0.949 . S
C382 C388 1.368 . S
C383 C367 1.349 . S
C383 H375 0.950 . S
C383 C381 1.327 . S
C384 C372 1.349 . S
C384 H378 0.950 . S
C384 C385 1.327 . S
C385 H379 0.950 . S
C385 C384 1.327 . S
C385 C389 1.429 . S
C386 C369 1.574 . S
C386 H380 0.949 . S
C386 C390 1.368 . S
C387 C368 1.429 . S
C387 C381 1.429 1_455 S
C387 C388 1.523 . S
C388 C369 1.368 . S
C388 C382 1.368 . S
C388 C387 1.523 . S
C389 C373 1.429 . S
C389 C385 1.429 . S
C389 C390 1.523 . S
C390 C374 1.368 . S
C390 C386 1.368 . S
C390 C389 1.523 . S
H391 C366 0.954 . S
H392 C368 0.950 . S
H393 C369 0.949 . S
H394 C371 0.950 . S
H395 C373 0.950 . S
C396 C397 1.349 . S
C396 C398 1.327 . S
C396 H421 0.950 . S
C397 C396 1.349 . S
C397 C413 1.349 . S
C398 C396 1.327 . S
C398 C417 1.429 . S
C398 H422 0.950 . S
C399 C416 1.574 . S
C399 C418 1.368 . S
C399 H423 0.949 . S
H400 C404 0.949 . S
C401 C402 1.349 . S
C401 C403 1.327 . S
C401 H424 0.950 . S
C402 C401 1.349 . S
C402 C414 1.349 . S
C403 C401 1.327 . S
C403 C419 1.429 1_554 S
C403 H425 0.950 . S
C404 H400 0.949 . S
C404 C412 1.574 . S
C404 C420 1.368 . S
H405 C413 0.950 . S
H406 C411 0.950 . S
H407 C412 0.949 . S
H408 C414 0.950 . S
H409 C415 0.950 . S
H410 C416 0.949 . S
C411 H406 0.950 . S
C411 C413 1.327 . S
C411 C417 1.429 . S
C412 C404 1.574 . S
C412 H407 0.949 . S
C412 C418 1.368 . S
C413 C397 1.349 . S
C413 H405 0.950 . S
C413 C411 1.327 . S
C414 C402 1.349 . S
C414 H408 0.950 . S
C414 C415 1.327 1_554 S
C415 H409 0.950 . S
C415 C414 1.327 1_556 S
C415 C419 1.429 . S
C416 C399 1.574 . S
C416 H410 0.949 . S
C416 C420 1.368 . S
C417 C398 1.429 . S
C417 C411 1.429 . S
C417 C418 1.523 . S
C418 C399 1.368 . S
C418 C412 1.368 . S
C418 C417 1.523 . S
C419 C403 1.429 1_556 S
C419 C415 1.429 . S
C419 C420 1.523 . S
C420 C404 1.368 . S
C420 C416 1.368 . S
C420 C419 1.523 . S
H421 C396 0.950 . S
H422 C398 0.950 . S
H423 C399 0.949 . S
H424 C401 0.950 . S
H425 C403 0.950 . S
C426 C427 1.349 . S
C426 C428 1.327 . S
C426 H451 0.950 . S
C427 C426 1.349 . S
C427 C443 1.349 . S
C428 C426 1.327 . S
C428 C447 1.429 . S
C428 H452 0.950 . S
C429 C446 1.574 . S
C429 C448 1.368 . S
C429 H453 0.949 . S
H430 C434 0.949 . S
C431 C432 1.349 . S
C431 C433 1.327 . S
C431 H454 0.950 . S
C432 C431 1.349 . S
C432 C444 1.349 . S
C433 C431 1.327 . S
C433 C449 1.429 . S
C433 H455 0.950 . S
C434 H430 0.949 . S
C434 C442 1.574 . S
C434 C450 1.368 . S
H435 C443 0.950 . S
H436 C441 0.950 . S
H437 C442 0.949 . S
H438 C444 0.950 . S
H439 C445 0.950 . S
H440 C446 0.949 . S
C441 H436 0.950 . S
C441 C443 1.327 . S
C441 C447 1.429 . S
C442 C434 1.574 . S
C442 H437 0.949 . S
C442 C448 1.368 . S
C443 C427 1.349 . S
C443 H435 0.950 . S
C443 C441 1.327 . S
C444 C432 1.349 . S
C444 H438 0.950 . S
C444 C445 1.327 . S
C445 H439 0.950 . S
C445 C444 1.327 . S
C445 C449 1.429 . S
C446 C429 1.574 . S
C446 H440 0.949 . S
C446 C450 1.368 . S
C447 C428 1.429 . S
C447 C441 1.429 . S
C447 C448 1.523 . S
C448 C429 1.368 . S
C448 C442 1.368 . S
C448 C447 1.523 . S
C449 C433 1.429 . S
C449 C445 1.429 . S
C449 C450 1.523 . S
C450 C434 1.368 . S
C450 C446 1.368 . S
C450 C449 1.523 . S
H451 C426 0.950 . S
H452 C428 0.950 . S
H453 C429 0.949 . S
H454 C431 0.950 . S
H455 C433 0.950 . S
C456 C457 1.349 . S
C456 C458 1.327 . S
C456 H481 0.950 . S
C457 C456 1.349 . S
C457 C473 1.349 . S
C458 C456 1.327 . S
C458 C477 1.429 . S
C458 H482 0.950 . S
C459 C476 1.574 . S
C459 C478 1.368 . S
C459 H483 0.949 . S
H460 C464 0.949 . S
C461 C462 1.349 . S
C461 C463 1.327 . S
C461 H484 0.950 . S
C462 C461 1.349 . S
C462 C474 1.349 . S
C463 C461 1.327 . S
C463 C479 1.429 . S
C463 H485 0.950 . S
C464 H460 0.949 . S
C464 C472 1.574 . S
C464 C480 1.368 . S
H465 C473 0.950 . S
H466 C471 0.950 . S
H467 C472 0.949 . S
H468 C474 0.950 . S
H469 C475 0.950 . S
H470 C476 0.949 . S
C471 H466 0.950 . S
C471 C473 1.327 . S
C471 C477 1.429 . S
C472 C464 1.574 . S
C472 H467 0.949 . S
C472 C478 1.368 . S
C473 C457 1.349 . S
C473 H465 0.950 . S
C473 C471 1.327 . S
C474 C462 1.349 . S
C474 H468 0.950 . S
C474 C475 1.327 . S
C475 H469 0.950 . S
C475 C474 1.327 . S
C475 C479 1.429 . S
C476 C459 1.574 . S
C476 H470 0.949 . S
C476 C480 1.368 . S
C477 C458 1.429 . S
C477 C471 1.429 . S
C477 C478 1.523 . S
C478 C459 1.368 . S
C478 C472 1.368 . S
C478 C477 1.523 . S
C479 C463 1.429 . S
C479 C475 1.429 . S
C479 C480 1.523 . S
C480 C464 1.368 . S
C480 C476 1.368 . S
C480 C479 1.523 . S
H481 C456 0.950 . S
H482 C458 0.950 . S
H483 C459 0.949 . S
H484 C461 0.950 . S
H485 C463 0.950 . S
C486 C487 1.349 . S
C486 C488 1.327 . S
C486 H511 0.950 . S
C487 C486 1.349 . S
C487 C503 1.349 . S
C488 C486 1.327 . S
C488 C507 1.429 . S
C488 H512 0.950 . S
C489 C506 1.574 . S
C489 C508 1.368 . S
C489 H513 0.949 . S
H490 C494 0.996 . S
C491 C492 1.349 1_655 S
C491 C493 1.327 . S
C491 H514 0.950 . S
C492 C491 1.349 1_455 S
C492 C504 1.349 . S
C493 C491 1.327 . S
C493 C509 1.429 . S
C493 H515 0.950 . S
C494 H490 0.996 . S
C494 C502 1.574 . S
C494 C510 1.368 . S
H495 C503 0.950 . S
H496 C501 0.950 . S
H497 C502 0.949 . S
H498 C504 0.950 . S
H499 C505 0.950 . S
H500 C506 0.949 . S
C501 H496 0.950 . S
C501 C503 1.327 . S
C501 C507 1.429 . S
C502 C494 1.574 . S
C502 H497 0.949 . S
C502 C508 1.368 . S
C503 C487 1.349 . S
C503 H495 0.950 . S
C503 C501 1.327 . S
C504 C492 1.349 . S
C504 H498 0.950 . S
C504 C505 1.327 . S
C505 H499 0.950 . S
C505 C504 1.327 . S
C505 C509 1.429 1_455 S
C506 C489 1.574 . S
C506 H500 0.949 . S
C506 C510 1.368 . S
C507 C488 1.429 . S
C507 C501 1.429 . S
C507 C508 1.523 . S
C508 C489 1.368 . S
C508 C502 1.368 . S
C508 C507 1.523 . S
C509 C493 1.429 . S
C509 C505 1.429 1_655 S
C509 C510 1.523 . S
C510 C494 1.368 . S
C510 C506 1.368 . S
C510 C509 1.523 . S
H511 C486 0.950 . S
H512 C488 0.950 . S
H513 C489 0.949 . S
H514 C491 0.950 . S
H515 C493 0.950 . S
C516 C517 1.349 . S
C516 C518 1.327 . S
C516 H541 0.950 . S
C517 C516 1.349 . S
C517 C533 1.349 . S
C518 C516 1.327 . S
C518 C537 1.429 . S
C518 H542 0.950 . S
C519 C536 1.574 . S
C519 C538 1.368 . S
C519 H543 0.949 . S
H520 C524 0.949 . S
C521 C522 1.349 . S
C521 C523 1.327 1_556 S
C521 H544 0.950 . S
C522 C521 1.349 . S
C522 C534 1.349 . S
C523 C521 1.327 1_554 S
C523 C539 1.429 . S
C523 H545 0.950 . S
C524 H520 0.949 . S
C524 C532 1.574 . S
C524 C540 1.368 . S
H525 C533 0.950 . S
H526 C531 0.950 . S
H527 C532 0.949 . S
H528 C534 0.950 . S
H529 C535 0.950 . S
H530 C536 0.949 . S
C531 H526 0.950 . S
C531 C533 1.327 . S
C531 C537 1.429 . S
C532 C524 1.574 . S
C532 H527 0.949 . S
C532 C538 1.368 . S
C533 C517 1.349 . S
C533 H525 0.950 . S
C533 C531 1.327 . S
C534 C522 1.349 . S
C534 H528 0.950 . S
C534 C535 1.327 . S
C535 H529 0.950 . S
C535 C534 1.327 . S
C535 C539 1.429 1_556 S
C536 C519 1.574 . S
C536 H530 0.949 . S
C536 C540 1.368 . S
C537 C518 1.429 . S
C537 C531 1.429 . S
C537 C538 1.523 . S
C538 C519 1.368 . S
C538 C532 1.368 . S
C538 C537 1.523 . S
C539 C523 1.429 . S
C539 C535 1.429 1_554 S
C539 C540 1.523 . S
C540 C524 1.368 . S
C540 C536 1.368 . S
C540 C539 1.523 . S
H541 C516 0.950 . S
H542 C518 0.950 . S
H543 C519 0.949 . S
H544 C521 0.950 . S
H545 C523 0.950 . S
C546 C547 1.349 . S
C546 C548 1.327 . S
C546 H571 0.950 . S
C547 C546 1.349 . S
C547 C563 1.349 . S
C548 C546 1.327 . S
C548 C567 1.429 . S
C548 H572 0.950 . S
C549 C566 1.574 . S
C549 C568 1.368 . S
C549 H573 0.949 . S
H550 C554 0.949 . S
C551 C552 1.349 . S
C551 C553 1.327 . S
C551 H574 0.950 . S
C552 C551 1.349 . S
C552 C564 1.349 . S
C553 C551 1.327 . S
C553 C569 1.429 . S
C553 H575 0.950 . S
C554 H550 0.949 . S
C554 C562 1.574 . S
C554 C570 1.368 . S
H555 C563 0.950 . S
H556 C561 0.950 . S
H557 C562 0.949 . S
H558 C564 0.950 . S
H559 C565 0.950 . S
H560 C566 0.949 . S
C561 H556 0.950 . S
C561 C563 1.327 . S
C561 C567 1.429 . S
C562 C554 1.574 . S
C562 H557 0.949 . S
C562 C568 1.368 . S
C563 C547 1.349 . S
C563 H555 0.950 . S
C563 C561 1.327 . S
C564 C552 1.349 . S
C564 H558 0.950 . S
C564 C565 1.327 . S
C565 H559 0.950 . S
C565 C564 1.327 . S
C565 C569 1.429 . S
C566 C549 1.574 . S
C566 H560 0.949 . S
C566 C570 1.368 . S
C567 C548 1.429 . S
C567 C561 1.429 . S
C567 C568 1.523 . S
C568 C549 1.368 . S
C568 C562 1.368 . S
C568 C567 1.523 . S
C569 C553 1.429 . S
C569 C565 1.429 . S
C569 C570 1.523 . S
C570 C554 1.368 . S
C570 C566 1.368 . S
C570 C569 1.523 . S
H571 C546 0.950 . S
H572 C548 0.950 . S
H573 C549 0.949 . S
H574 C551 0.950 . S
H575 C553 0.950 . S
C576 C577 1.349 . S
C576 C578 1.327 . S
C576 H601 0.950 . S
C577 C576 1.349 . S
C577 C593 1.349 . S
C578 C576 1.327 . S
C578 C597 1.429 . S
C578 H602 0.950 . S
C579 C596 1.574 . S
C579 C598 1.368 . S
C579 H603 0.949 . S
H580 C584 0.949 . S
C581 C582 1.349 . S
C581 C583 1.327 . S
C581 H604 0.950 . S
C582 C581 1.349 . S
C582 C594 1.349 . S
C583 C581 1.327 . S
C583 C599 1.429 . S
C583 H605 0.950 . S
C584 H580 0.949 . S
C584 C592 1.574 . S
C584 C600 1.368 . S
H585 C593 0.950 . S
H586 C591 0.950 . S
H587 C592 0.949 . S
H588 C594 0.950 . S
H589 C595 0.950 . S
H590 C596 0.949 . S
C591 H586 0.950 . S
C591 C593 1.327 . S
C591 C597 1.429 . S
C592 C584 1.574 . S
C592 H587 0.949 . S
C592 C598 1.368 . S
C593 C577 1.349 . S
C593 H585 0.950 . S
C593 C591 1.327 . S
C594 C582 1.349 . S
C594 H588 0.950 . S
C594 C595 1.327 . S
C595 H589 0.950 . S
C595 C594 1.327 . S
C595 C599 1.429 . S
C596 C579 1.574 . S
C596 H590 0.949 . S
C596 C600 1.368 . S
C597 C578 1.429 . S
C597 C591 1.429 . S
C597 C598 1.523 . S
C598 C579 1.368 . S
C598 C592 1.368 . S
C598 C597 1.523 . S
C599 C583 1.429 . S
C599 C595 1.429 . S
C599 C600 1.523 . S
C600 C584 1.368 . S
C600 C596 1.368 . S
C600 C599 1.523 . S
H601 C576 0.950 . S
H602 C578 0.950 . S
H603 C579 0.949 . S
H604 C581 0.950 . S
H605 C583 0.950 . S
C606 C607 1.349 . S
C606 C608 1.327 . S
C606 H631 0.950 . S
C607 C606 1.349 . S
C607 C623 1.349 . S
C608 C606 1.327 . S
C608 C627 1.429 1_565 S
C608 H632 0.950 . S
C609 C626 1.574 . S
C609 C628 1.368 . S
C609 H633 0.949 . S
H610 C614 0.949 . S
C611 C612 1.349 . S
C611 C613 1.327 . S
C611 H634 0.950 . S
C612 C611 1.349 . S
C612 C624 1.349 . S
C613 C611 1.327 . S
C613 C629 1.429 . S
C613 H635 0.950 . S
C614 H610 0.949 . S
C614 C622 1.574 . S
C614 C630 1.368 . S
H615 C623 0.950 . S
H616 C621 0.950 . S
H617 C622 0.949 . S
H618 C624 0.950 . S
H619 C625 0.950 . S
H620 C626 0.949 . S
C621 H616 0.950 . S
C621 C623 1.327 1_545 S
C621 C627 1.429 . S
C622 C614 1.574 . S
C622 H617 0.949 . S
C622 C628 1.368 . S
C623 C607 1.349 . S
C623 H615 0.950 . S
C623 C621 1.327 1_565 S
C624 C612 1.349 . S
C624 H618 0.950 . S
C624 C625 1.327 . S
C625 H619 0.950 . S
C625 C624 1.327 . S
C625 C629 1.429 . S
C626 C609 1.574 . S
C626 H620 0.949 . S
C626 C630 1.368 . S
C627 C608 1.429 1_545 S
C627 C621 1.429 . S
C627 C628 1.523 . S
C628 C609 1.368 . S
C628 C622 1.368 . S
C628 C627 1.523 . S
C629 C613 1.429 . S
C629 C625 1.429 . S
C629 C630 1.523 . S
C630 C614 1.368 . S
C630 C626 1.368 . S
C630 C629 1.523 . S
H631 C606 0.950 . S
H632 C608 0.950 . S
H633 C609 0.949 . S
H634 C611 0.950 . S
H635 C613 0.950 . S
C636 C637 1.349 . S
C636 C638 1.327 . S
C636 H661 0.950 . S
C637 C636 1.349 . S
C637 C653 1.349 . S
C638 C636 1.327 . S
C638 C657 1.429 . S
C638 H662 0.950 . S
C639 C656 1.574 . S
C639 C658 1.368 . S
C639 H663 0.949 . S
H640 C644 0.949 . S
C641 C642 1.349 . S
C641 C643 1.327 . S
C641 H664 0.950 . S
C642 C641 1.349 . S
C642 C654 1.349 1_545 S
C643 C641 1.327 . S
C643 C659 1.429 1_545 S
C643 H665 0.950 . S
C644 H640 0.949 . S
C644 C652 1.574 . S
C644 C660 1.368 . S
H645 C653 0.950 . S
H646 C651 0.950 . S
H647 C652 0.949 . S
H648 C654 0.950 . S
H649 C655 0.950 . S
H650 C656 0.949 . S
C651 H646 0.950 . S
C651 C653 1.327 . S
C651 C657 1.429 . S
C652 C644 1.574 . S
C652 H647 0.949 . S
C652 C658 1.368 . S
C653 C637 1.349 . S
C653 H645 0.950 . S
C653 C651 1.327 . S
C654 C642 1.349 1_565 S
C654 H648 0.950 . S
C654 C655 1.327 . S
C655 H649 0.950 . S
C655 C654 1.327 . S
C655 C659 1.429 . S
C656 C639 1.574 . S
C656 H650 0.949 . S
C656 C660 1.368 . S
C657 C638 1.429 . S
C657 C651 1.429 . S
C657 C658 1.523 . S
C658 C639 1.368 . S
C658 C652 1.368 . S
C658 C657 1.523 . S
C659 C643 1.429 1_565 S
C659 C655 1.429 . S
C659 C660 1.523 . S
C660 C644 1.368 . S
C660 C656 1.368 . S
C660 C659 1.523 . S
H661 C636 0.950 . S
H662 C638 0.950 . S
H663 C639 0.949 . S
H664 C641 0.950 . S
H665 C643 0.950 . S
C666 C667 1.349 . S
C666 C668 1.327 . S
C666 H691 0.950 . S
C667 C666 1.349 . S
C667 C683 1.349 . S
C668 C666 1.327 . S
C668 C687 1.429 . S
C668 H692 0.950 . S
C669 C686 1.574 . S
C669 C688 1.368 . S
C669 H693 0.949 . S
H670 C674 0.949 . S
C671 C672 1.349 . S
C671 C673 1.327 . S
C671 H694 0.950 . S
C672 C671 1.349 . S
C672 C684 1.349 . S
C673 C671 1.327 . S
C673 C689 1.429 . S
C673 H695 0.950 . S
C674 H670 0.949 . S
C674 C682 1.574 . S
C674 C690 1.368 . S
H675 C683 0.950 . S
H676 C681 0.950 . S
H677 C682 0.949 . S
H678 C684 0.950 . S
H679 C685 0.950 . S
H680 C686 0.949 . S
C681 H676 0.950 . S
C681 C683 1.327 . S
C681 C687 1.429 . S
C682 C674 1.574 . S
C682 H677 0.949 . S
C682 C688 1.368 . S
C683 C667 1.349 . S
C683 H675 0.950 . S
C683 C681 1.327 . S
C684 C672 1.349 . S
C684 H678 0.950 . S
C684 C685 1.327 . S
C685 H679 0.950 . S
C685 C684 1.327 . S
C685 C689 1.429 . S
C686 C669 1.574 . S
C686 H680 0.949 . S
C686 C690 1.368 . S
C687 C668 1.429 . S
C687 C681 1.429 . S
C687 C688 1.523 . S
C688 C669 1.368 . S
C688 C682 1.368 . S
C688 C687 1.523 . S
C689 C673 1.429 . S
C689 C685 1.429 . S
C689 C690 1.523 . S
C690 C674 1.368 . S
C690 C686 1.368 . S
C690 C689 1.523 . S
H691 C666 0.950 . S
H692 C668 0.950 . S
H693 C669 0.949 . S
H694 C671 0.950 . S
H695 C673 0.950 . S
C696 C697 1.349 . S
C696 C698 1.327 . S
C696 H721 0.950 . S
C697 C696 1.349 . S
C697 C713 1.349 . S
C698 C696 1.327 . S
C698 C717 1.429 . S
C698 H722 0.950 . S
C699 C716 1.574 . S
C699 C718 1.368 . S
C699 H723 0.949 . S
H700 C704 0.949 . S
C701 C702 1.349 . S
C701 C703 1.327 . S
C701 H724 0.950 . S
C702 C701 1.349 . S
C702 C714 1.349 . S
C703 C701 1.327 . S
C703 C719 1.429 . S
C703 H725 0.950 . S
C704 H700 0.949 . S
C704 C712 1.574 . S
C704 C720 1.368 . S
H705 C713 0.950 . S
H706 C711 0.950 . S
H707 C712 0.949 . S
H708 C714 0.950 . S
H709 C715 0.950 . S
H710 C716 0.949 . S
C711 H706 0.950 . S
C711 C713 1.327 . S
C711 C717 1.429 . S
C712 C704 1.574 . S
C712 H707 0.949 . S
C712 C718 1.368 . S
C713 C697 1.349 . S
C713 H705 0.950 . S
C713 C711 1.327 . S
C714 C702 1.349 . S
C714 H708 0.950 . S
C714 C715 1.327 . S
C715 H709 0.950 . S
C715 C714 1.327 . S
C715 C719 1.429 . S
C716 C699 1.574 . S
C716 H710 0.949 . S
C716 C720 1.368 . S
C717 C698 1.429 . S
C717 C711 1.429 . S
C717 C718 1.523 . S
C718 C699 1.368 . S
C718 C712 1.368 . S
C718 C717 1.523 . S
C719 C703 1.429 . S
C719 C715 1.429 . S
C719 C720 1.523 . S
C720 C704 1.368 . S
C720 C716 1.368 . S
C720 C719 1.523 . S
H721 C696 0.950 . S
H722 C698 0.950 . S
H723 C699 0.949 . S
H724 C701 0.950 . S
H725 C703 0.950 . S
C726 C727 1.349 . S
C726 C728 1.327 . S
C726 H751 0.950 . S
C727 C726 1.349 . S
C727 C743 1.349 . S
C728 C726 1.327 . S
C728 C747 1.429 . S
C728 H752 0.950 . S
C729 C746 1.574 . S
C729 C748 1.368 . S
C729 H753 0.949 . S
H730 C734 0.949 . S
C731 C732 1.349 . S
C731 C733 1.327 . S
C731 H754 0.950 . S
C732 C731 1.349 . S
C732 C744 1.349 . S
C733 C731 1.327 . S
C733 C749 1.429 . S
C733 H755 0.950 . S
C734 H730 0.949 . S
C734 C742 1.574 . S
C734 C750 1.368 . S
H735 C743 0.950 . S
H736 C741 0.950 1_545 S
H737 C742 0.949 . S
H738 C744 0.950 . S
H739 C745 0.950 . S
H740 C746 0.949 . S
C741 H736 0.950 1_565 S
C741 C743 1.327 . S
C741 C747 1.429 . S
C742 C734 1.574 . S
C742 H737 0.949 . S
C742 C748 1.368 . S
C743 C727 1.349 . S
C743 H735 0.950 . S
C743 C741 1.327 . S
C744 C732 1.349 . S
C744 H738 0.950 . S
C744 C745 1.327 . S
C745 H739 0.950 . S
C745 C744 1.327 . S
C745 C749 1.429 . S
C746 C729 1.574 . S
C746 H740 0.949 . S
C746 C750 1.368 . S
C747 C728 1.429 . S
C747 C741 1.429 . S
C747 C748 1.523 1_565 S
C748 C729 1.368 . S
C748 C742 1.368 . S
C748 C747 1.523 1_545 S
C749 C733 1.429 . S
C749 C745 1.429 . S
C749 C750 1.523 . S
C750 C734 1.368 . S
C750 C746 1.368 . S
C750 C749 1.523 . S
H751 C726 0.950 . S
H752 C728 0.950 . S
H753 C729 0.949 . S
H754 C731 0.950 . S
H755 C733 0.950 . S
C756 C757 1.349 . S
C756 C758 1.327 . S
C756 H781 0.950 . S
C757 C756 1.349 . S
C757 C773 1.349 . S
C758 C756 1.327 . S
C758 C777 1.429 . S
C758 H782 0.950 . S
C759 C776 1.574 . S
C759 C778 1.368 . S
C759 H783 0.949 . S
H760 C764 0.949 . S
C761 C762 1.349 . S
C761 C763 1.327 . S
C761 H784 0.950 . S
C762 C761 1.349 . S
C762 C774 1.349 . S
C763 C761 1.327 . S
C763 C779 1.429 . S
C763 H785 0.950 . S
C764 H760 0.949 . S
C764 C772 1.574 . S
C764 C780 1.368 . S
H765 C773 0.950 . S
H766 C771 0.950 . S
H767 C772 0.949 . S
H768 C774 0.950 . S
H769 C775 0.947 1_556 S
H770 C776 0.949 . S
C771 H766 0.950 . S
C771 C773 1.327 . S
C771 C777 1.429 . S
C772 C764 1.574 . S
C772 H767 0.949 . S
C772 C778 1.368 . S
C773 C757 1.349 . S
C773 H765 0.950 . S
C773 C771 1.327 . S
C774 C762 1.349 . S
C774 H768 0.950 . S
C774 C775 1.327 . S
C775 H769 0.947 1_554 S
C775 C774 1.327 . S
C775 C779 1.429 . S
C776 C759 1.574 . S
C776 H770 0.949 . S
C776 C780 1.368 . S
C777 C758 1.429 . S
C777 C771 1.429 . S
C777 C778 1.523 . S
C778 C759 1.368 . S
C778 C772 1.368 . S
C778 C777 1.523 . S
C779 C763 1.429 . S
C779 C775 1.429 . S
C779 C780 1.523 1_554 S
C780 C764 1.368 . S
C780 C776 1.368 . S
C780 C779 1.523 1_556 S
H781 C756 0.950 . S
H782 C758 0.950 . S
H783 C759 0.949 . S
H784 C761 0.950 . S
H785 C763 0.950 . S
C786 C787 1.349 . S
C786 C788 1.327 1_545 S
C786 H811 0.950 . S
C787 C786 1.349 . S
C787 C803 1.349 . S
C788 C786 1.327 1_565 S
C788 C807 1.429 1_565 S
C788 H812 0.950 . S
C789 C806 1.574 . S
C789 C808 1.368 . S
C789 H813 0.949 1_565 S
H790 C794 0.949 . S
C791 C792 1.349 . S
C791 C793 1.327 . S
C791 H814 0.950 . S
C792 C791 1.349 . S
C792 C804 1.349 . S
C793 C791 1.327 . S
C793 C809 1.429 . S
C793 H815 0.950 . S
C794 H790 0.949 . S
C794 C802 1.574 . S
C794 C810 1.368 . S
H795 C803 0.950 . S
H796 C801 0.950 . S
H797 C802 0.949 . S
H798 C804 0.950 . S
H799 C805 0.950 . S
H800 C806 0.949 . S
C801 H796 0.950 . S
C801 C803 1.327 . S
C801 C807 1.429 . S
C802 C794 1.574 . S
C802 H797 0.949 . S
C802 C808 1.368 . S
C803 C787 1.349 . S
C803 H795 0.950 . S
C803 C801 1.327 . S
C804 C792 1.349 . S
C804 H798 0.950 . S
C804 C805 1.327 . S
C805 H799 0.950 . S
C805 C804 1.327 . S
C805 C809 1.429 . S
C806 C789 1.574 . S
C806 H800 0.949 . S
C806 C810 1.368 . S
C807 C788 1.429 1_545 S
C807 C801 1.429 . S
C807 C808 1.523 1_545 S
C808 C789 1.368 . S
C808 C802 1.368 . S
C808 C807 1.523 1_565 S
C809 C793 1.429 . S
C809 C805 1.429 . S
C809 C810 1.523 . S
C810 C794 1.368 . S
C810 C806 1.368 . S
C810 C809 1.523 . S
H811 C786 0.950 . S
H812 C788 0.950 . S
H813 C789 0.949 1_545 S
H814 C791 0.950 . S
H815 C793 0.950 . S
C816 C817 1.349 . S
C816 C818 1.327 . S
C816 H841 0.950 . S
C817 C816 1.349 . S
C817 C833 1.349 . S
C818 C816 1.327 . S
C818 C837 1.429 . S
C818 H842 0.950 . S
C819 C836 1.574 . S
C819 C838 1.368 . S
C819 H843 0.949 . S
H820 C824 0.949 . S
C821 C822 1.349 . S
C821 C823 1.327 . S
C821 H844 0.950 . S
C822 C821 1.349 . S
C822 C834 1.349 . S
C823 C821 1.327 . S
C823 C839 1.429 . S
C823 H845 0.950 . S
C824 H820 0.949 . S
C824 C832 1.574 . S
C824 C840 1.368 . S
H825 C833 0.950 . S
H826 C831 0.950 . S
H827 C832 0.949 . S
H828 C834 0.950 . S
H829 C835 0.950 . S
H830 C836 0.949 . S
C831 H826 0.950 . S
C831 C833 1.327 . S
C831 C837 1.429 . S
C832 C824 1.574 . S
C832 H827 0.949 . S
C832 C838 1.368 . S
C833 C817 1.349 . S
C833 H825 0.950 . S
C833 C831 1.327 . S
C834 C822 1.349 . S
C834 H828 0.950 . S
C834 C835 1.327 . S
C835 H829 0.950 . S
C835 C834 1.327 . S
C835 C839 1.429 . S
C836 C819 1.574 . S
C836 H830 0.949 . S
C836 C840 1.368 . S
C837 C818 1.429 . S
C837 C831 1.429 . S
C837 C838 1.523 . S
C838 C819 1.368 . S
C838 C832 1.368 . S
C838 C837 1.523 . S
C839 C823 1.429 . S
C839 C835 1.429 . S
C839 C840 1.523 . S
C840 C824 1.368 . S
C840 C836 1.368 . S
C840 C839 1.523 . S
H841 C816 0.950 . S
H842 C818 0.950 . S
H843 C819 0.949 . S
H844 C821 0.950 . S
H845 C823 0.950 . S
C846 C847 1.349 . S
C846 C848 1.327 . S
C846 H871 0.950 . S
C847 C846 1.349 . S
C847 C863 1.349 . S
C848 C846 1.327 . S
C848 C867 1.429 . S
C848 H872 0.950 . S
C849 C866 1.574 . S
C849 C868 1.368 . S
C849 H873 0.949 . S
H850 C854 0.949 . S
C851 C852 1.349 . S
C851 C853 1.327 . S
C851 H874 0.950 . S
C852 C851 1.349 . S
C852 C864 1.349 . S
C853 C851 1.327 . S
C853 C869 1.429 . S
C853 H875 0.950 . S
C854 H850 0.949 . S
C854 C862 1.574 . S
C854 C870 1.368 . S
H855 C863 0.950 . S
H856 C861 0.950 . S
H857 C862 0.949 . S
H858 C864 0.950 . S
H859 C865 0.950 . S
H860 C866 0.949 . S
C861 H856 0.950 . S
C861 C863 1.327 . S
C861 C867 1.429 . S
C862 C854 1.574 . S
C862 H857 0.949 . S
C862 C868 1.368 . S
C863 C847 1.349 . S
C863 H855 0.950 . S
C863 C861 1.327 . S
C864 C852 1.349 . S
C864 H858 0.950 . S
C864 C865 1.327 . S
C865 H859 0.950 . S
C865 C864 1.327 . S
C865 C869 1.429 . S
C866 C849 1.574 . S
C866 H860 0.949 . S
C866 C870 1.368 . S
C867 C848 1.429 . S
C867 C861 1.429 . S
C867 C868 1.523 . S
C868 C849 1.368 . S
C868 C862 1.368 . S
C868 C867 1.523 . S
C869 C853 1.429 . S
C869 C865 1.429 . S
C869 C870 1.523 . S
C870 C854 1.368 . S
C870 C866 1.368 . S
C870 C869 1.523 . S
H871 C846 0.950 . S
H872 C848 0.950 . S
H873 C849 0.949 . S
H874 C851 0.950 . S
H875 C853 0.950 . S
C876 C877 1.349 . S
C876 C878 1.327 1_556 S
C876 H901 0.932 1_556 S
C877 C876 1.349 . S
C877 C893 1.349 . S
C878 C876 1.327 1_554 S
C878 C897 1.429 1_554 S
C878 H902 0.950 . S
C879 C896 1.597 . S
C879 C898 1.390 . S
C879 H903 0.909 1_554 S
H880 C884 0.949 . S
C881 C882 1.349 . S
C881 C883 1.327 . S
C881 H904 0.950 . S
C882 C881 1.349 . S
C882 C894 1.349 . S
C883 C881 1.327 . S
C883 C899 1.429 . S
C883 H905 0.950 . S
C884 H880 0.949 . S
C884 C892 1.574 . S
C884 C900 1.368 . S
H885 C893 0.950 . S
H886 C891 0.950 . S
H887 C892 0.949 . S
H888 C894 0.950 . S
H889 C895 0.950 . S
H890 C896 0.949 . S
C891 H886 0.950 . S
C891 C893 1.327 . S
C891 C897 1.429 . S
C892 C884 1.574 . S
C892 H887 0.949 . S
C892 C898 1.368 . S
C893 C877 1.349 . S
C893 H885 0.950 . S
C893 C891 1.327 . S
C894 C882 1.349 . S
C894 H888 0.950 . S
C894 C895 1.327 . S
C895 H889 0.950 . S
C895 C894 1.327 . S
C895 C899 1.429 . S
C896 C879 1.597 . S
C896 H890 0.949 . S
C896 C900 1.368 . S
C897 C878 1.429 1_556 S
C897 C891 1.429 . S
C897 C898 1.523 1_556 S
C898 C879 1.390 . S
C898 C892 1.368 . S
C898 C897 1.523 1_554 S
C899 C883 1.429 . S
C899 C895 1.429 . S
C899 C900 1.523 . S
C900 C884 1.368 . S
C900 C896 1.368 . S
C900 C899 1.523 . S
H901 C876 0.932 1_554 S
H902 C878 0.950 . S
H903 C879 0.909 1_556 S
H904 C881 0.950 . S
H905 C883 0.950 . S
C906 C907 1.349 . S
C906 C908 1.327 . S
C906 H931 0.950 . S
C907 C906 1.349 . S
C907 C923 1.349 . S
C908 C906 1.327 . S
C908 C927 1.429 . S
C908 H932 0.950 . S
C909 C926 1.574 . S
C909 C928 1.368 . S
C909 H933 0.949 . S
H910 C914 0.949 . S
C911 C912 1.349 . S
C911 C913 1.327 . S
C911 H934 0.950 . S
C912 C911 1.349 . S
C912 C924 1.349 . S
C913 C911 1.327 . S
C913 C929 1.429 . S
C913 H935 0.950 . S
C914 H910 0.949 . S
C914 C922 1.574 . S
C914 C930 1.368 . S
H915 C923 0.950 . S
H916 C921 0.950 . S
H917 C922 0.949 . S
H918 C924 0.950 . S
H919 C925 0.950 . S
H920 C926 0.949 . S
C921 H916 0.950 . S
C921 C923 1.327 . S
C921 C927 1.429 . S
C922 C914 1.574 . S
C922 H917 0.949 . S
C922 C928 1.368 . S
C923 C907 1.349 . S
C923 H915 0.950 . S
C923 C921 1.327 . S
C924 C912 1.349 . S
C924 H918 0.950 . S
C924 C925 1.327 . S
C925 H919 0.950 . S
C925 C924 1.327 . S
C925 C929 1.429 . S
C926 C909 1.574 . S
C926 H920 0.949 . S
C926 C930 1.368 . S
C927 C908 1.429 . S
C927 C921 1.429 . S
C927 C928 1.523 . S
C928 C909 1.368 . S
C928 C922 1.368 . S
C928 C927 1.523 . S
C929 C913 1.429 . S
C929 C925 1.429 . S
C929 C930 1.523 . S
C930 C914 1.368 . S
C930 C926 1.368 . S
C930 C929 1.523 . S
H931 C906 0.950 . S
H932 C908 0.950 . S
H933 C909 0.949 . S
H934 C911 0.950 . S
H935 C913 0.950 . S
C936 C937 1.349 . S
C936 C938 1.327 . S
C936 H961 0.950 . S
C937 C936 1.349 . S
C937 C953 1.349 . S
C938 C936 1.327 . S
C938 C957 1.429 . S
C938 H962 0.950 . S
C939 C956 1.574 . S
C939 C958 1.368 . S
C939 H963 0.949 . S
H940 C944 0.949 . S
C941 C942 1.349 . S
C941 C943 1.327 . S
C941 H964 0.950 . S
C942 C941 1.349 . S
C942 C954 1.349 . S
C943 C941 1.327 . S
C943 C959 1.429 . S
C943 H965 0.950 . S
C944 H940 0.949 . S
C944 C952 1.574 . S
C944 C960 1.368 . S
H945 C953 0.950 . S
H946 C951 0.950 . S
H947 C952 0.949 . S
H948 C954 0.950 . S
H949 C955 0.950 . S
H950 C956 0.949 . S
C951 H946 0.950 . S
C951 C953 1.327 . S
C951 C957 1.429 . S
C952 C944 1.574 . S
C952 H947 0.949 . S
C952 C958 1.368 . S
C953 C937 1.349 . S
C953 H945 0.950 . S
C953 C951 1.327 . S
C954 C942 1.349 . S
C954 H948 0.950 . S
C954 C955 1.327 . S
C955 H949 0.950 . S
C955 C954 1.327 . S
C955 C959 1.429 . S
C956 C939 1.574 . S
C956 H950 0.949 . S
C956 C960 1.368 . S
C957 C938 1.429 . S
C957 C951 1.429 . S
C957 C958 1.523 . S
C958 C939 1.368 . S
C958 C952 1.368 . S
C958 C957 1.523 . S
C959 C943 1.429 . S
C959 C955 1.429 . S
C959 C960 1.523 . S
C960 C944 1.368 . S
C960 C956 1.368 . S
C960 C959 1.523 . S
H961 C936 0.950 . S
H962 C938 0.950 . S
H963 C939 0.949 . S
H964 C941 0.950 . S
H965 C943 0.950 . S
C966 C967 1.349 . S
C966 C968 1.327 1_455 S
C966 H991 0.950 . S
C967 C966 1.349 . S
C967 C983 1.349 . S
C968 C966 1.327 1_655 S
C968 C987 1.429 1_655 S
C968 H992 0.950 . S
C969 C986 1.574 . S
C969 C988 1.368 . S
C969 H993 0.949 1_655 S
H970 C974 0.949 . S
C971 C972 1.349 . S
C971 C973 1.327 . S
C971 H994 0.950 . S
C972 C971 1.349 . S
C972 C984 1.349 . S
C973 C971 1.327 . S
C973 C989 1.429 . S
C973 H995 0.950 . S
C974 H970 0.949 . S
C974 C982 1.574 . S
C974 C990 1.368 . S
H975 C983 0.950 . S
H976 C981 0.950 . S
H977 C982 0.949 . S
H978 C984 0.950 . S
H979 C985 0.950 . S
H980 C986 0.949 . S
C981 H976 0.950 . S
C981 C983 1.327 . S
C981 C987 1.429 . S
C982 C974 1.574 . S
C982 H977 0.949 . S
C982 C988 1.368 . S
C983 C967 1.349 . S
C983 H975 0.950 . S
C983 C981 1.327 . S
C984 C972 1.349 . S
C984 H978 0.950 . S
C984 C985 1.327 . S
C985 H979 0.950 . S
C985 C984 1.327 . S
C985 C989 1.429 . S
C986 C969 1.574 . S
C986 H980 0.949 . S
C986 C990 1.368 . S
C987 C968 1.429 1_455 S
C987 C981 1.429 . S
C987 C988 1.523 1_455 S
C988 C969 1.368 . S
C988 C982 1.368 . S
C988 C987 1.523 1_655 S
C989 C973 1.429 . S
C989 C985 1.429 . S
C989 C990 1.523 . S
C990 C974 1.368 . S
C990 C986 1.368 . S
C990 C989 1.523 . S
H991 C966 0.950 . S
H992 C968 0.950 . S
H993 C969 0.949 1_455 S
H994 C971 0.950 . S
H995 C973 0.950 . S
C996 C997 1.349 . S
C996 C998 1.327 . S
C996 H1021 0.950 . S
C997 C996 1.349 . S
C997 C1013 1.349 . S
C998 C996 1.327 . S
C998 C1017 1.429 . S
C998 H1022 0.950 . S
C999 C1016 1.574 . S
C999 C1018 1.368 . S
C999 H1023 0.949 . S
H1000 C1004 0.949 . S
C1001 C1002 1.349 . S
C1001 C1003 1.327 . S
C1001 H1024 0.950 . S
C1002 C1001 1.349 . S
C1002 C1014 1.349 . S
C1003 C1001 1.327 . S
C1003 C1019 1.429 . S
C1003 H1025 0.950 . S
C1004 H1000 0.949 . S
C1004 C1012 1.574 . S
C1004 C1020 1.368 . S
H1005 C1013 0.950 . S
H1006 C1011 0.950 . S
H1007 C1012 0.949 1_655 S
H1008 C1014 0.950 . S
H1009 C1015 0.950 . S
H1010 C1016 0.949 . S
C1011 H1006 0.950 . S
C1011 C1013 1.327 1_455 S
C1011 C1017 1.429 1_455 S
C1012 C1004 1.574 . S
C1012 H1007 0.949 1_455 S
C1012 C1018 1.368 . S
C1013 C997 1.349 . S
C1013 H1005 0.950 . S
C1013 C1011 1.327 1_655 S
C1014 C1002 1.349 . S
C1014 H1008 0.950 . S
C1014 C1015 1.327 . S
C1015 H1009 0.950 . S
C1015 C1014 1.327 . S
C1015 C1019 1.429 . S
C1016 C999 1.574 . S
C1016 H1010 0.949 . S
C1016 C1020 1.368 . S
C1017 C998 1.429 . S
C1017 C1011 1.429 1_655 S
C1017 C1018 1.523 1_655 S
C1018 C999 1.368 . S
C1018 C1012 1.368 . S
C1018 C1017 1.523 1_455 S
C1019 C1003 1.429 . S
C1019 C1015 1.429 . S
C1019 C1020 1.523 . S
C1020 C1004 1.368 . S
C1020 C1016 1.368 . S
C1020 C1019 1.523 . S
H1021 C996 0.950 . S
H1022 C998 0.950 . S
H1023 C999 0.949 . S
H1024 C1001 0.950 . S
H1025 C1003 0.950 . S
C1026 C1027 1.349 . S
C1026 C1028 1.327 . S
C1026 H1051 0.950 . S
C1027 C1026 1.349 . S
C1027 C1043 1.349 . S
C1028 C1026 1.327 . S
C1028 C1047 1.429 . S
C1028 H1052 0.950 . S
C1029 C1046 1.574 . S
C1029 C1048 1.368 . S
C1029 H1053 0.949 . S
H1030 C1034 0.949 . S
C1031 C1032 1.349 . S
C1031 C1033 1.327 . S
C1031 H1054 0.950 . S
C1032 C1031 1.349 . S
C1032 C1044 1.349 . S
C1033 C1031 1.327 . S
C1033 C1049 1.429 . S
C1033 H1055 0.950 . S
C1034 H1030 0.949 . S
C1034 C1042 1.574 . S
C1034 C1050 1.368 . S
H1035 C1043 0.950 . S
H1036 C1041 0.950 . S
H1037 C1042 0.949 . S
H1038 C1044 0.950 . S
H1039 C1045 0.950 . S
H1040 C1046 0.949 . S
C1041 H1036 0.950 . S
C1041 C1043 1.327 . S
C1041 C1047 1.429 . S
C1042 C1034 1.574 . S
C1042 H1037 0.949 . S
C1042 C1048 1.368 . S
C1043 C1027 1.349 . S
C1043 H1035 0.950 . S
C1043 C1041 1.327 . S
C1044 C1032 1.349 . S
C1044 H1038 0.950 . S
C1044 C1045 1.327 . S
C1045 H1039 0.950 . S
C1045 C1044 1.327 . S
C1045 C1049 1.429 . S
C1046 C1029 1.574 . S
C1046 H1040 0.949 . S
C1046 C1050 1.368 . S
C1047 C1028 1.429 . S
C1047 C1041 1.429 . S
C1047 C1048 1.523 . S
C1048 C1029 1.368 . S
C1048 C1042 1.368 . S
C1048 C1047 1.523 . S
C1049 C1033 1.429 . S
C1049 C1045 1.429 . S
C1049 C1050 1.523 . S
C1050 C1034 1.368 . S
C1050 C1046 1.368 . S
C1050 C1049 1.523 . S
H1051 C1026 0.950 . S
H1052 C1028 0.950 . S
H1053 C1029 0.949 . S
H1054 C1031 0.950 . S
H1055 C1033 0.950 . S
C1056 C1057 1.349 . S
C1056 C1058 1.327 . S
C1056 H1081 0.950 . S
C1057 C1056 1.349 . S
C1057 C1073 1.349 . S
C1058 C1056 1.327 . S
C1058 C1077 1.429 . S
C1058 H1082 0.950 . S
C1059 C1076 1.574 . S
C1059 C1078 1.368 . S
C1059 H1083 0.949 . S
H1060 C1064 0.949 . S
C1061 C1062 1.349 . S
C1061 C1063 1.327 . S
C1061 H1084 0.950 . S
C1062 C1061 1.349 . S
C1062 C1074 1.349 . S
C1063 C1061 1.327 . S
C1063 C1079 1.429 . S
C1063 H1085 0.950 . S
C1064 H1060 0.949 . S
C1064 C1072 1.574 . S
C1064 C1080 1.368 . S
H1065 C1073 0.950 . S
H1066 C1071 0.950 . S
H1067 C1072 0.949 . S
H1068 C1074 0.950 . S
H1069 C1075 0.950 . S
H1070 C1076 0.949 . S
C1071 H1066 0.950 . S
C1071 C1073 1.327 . S
C1071 C1077 1.429 . S
C1072 C1064 1.574 . S
C1072 H1067 0.949 . S
C1072 C1078 1.368 . S
C1073 C1057 1.349 . S
C1073 H1065 0.950 . S
C1073 C1071 1.327 . S
C1074 C1062 1.349 . S
C1074 H1068 0.950 . S
C1074 C1075 1.327 . S
C1075 H1069 0.950 . S
C1075 C1074 1.327 . S
C1075 C1079 1.429 . S
C1076 C1059 1.574 . S
C1076 H1070 0.949 . S
C1076 C1080 1.368 . S
C1077 C1058 1.429 . S
C1077 C1071 1.429 . S
C1077 C1078 1.523 . S
C1078 C1059 1.368 . S
C1078 C1072 1.368 . S
C1078 C1077 1.523 . S
C1079 C1063 1.429 . S
C1079 C1075 1.429 . S
C1079 C1080 1.523 . S
C1080 C1064 1.368 . S
C1080 C1076 1.368 . S
C1080 C1079 1.523 . S
H1081 C1056 0.950 . S
H1082 C1058 0.950 . S
H1083 C1059 0.949 . S
H1084 C1061 0.950 . S
H1085 C1063 0.950 . S
C1086 C1087 1.349 1_565 S
C1086 C1088 1.327 . S
C1086 H1111 0.950 . S
C1087 C1086 1.349 1_545 S
C1087 C1103 1.349 . S
C1088 C1086 1.327 . S
C1088 C1107 1.429 . S
C1088 H1112 0.950 . S
C1089 C1106 1.574 . S
C1089 C1108 1.368 . S
C1089 H1113 0.949 1_565 S
H1090 C1094 0.949 . S
C1091 C1092 1.349 . S
C1091 C1093 1.327 . S
C1091 H1114 0.950 . S
C1092 C1091 1.349 . S
C1092 C1104 1.349 . S
C1093 C1091 1.327 . S
C1093 C1109 1.429 . S
C1093 H1115 0.950 . S
C1094 H1090 0.949 . S
C1094 C1102 1.574 . S
C1094 C1110 1.368 . S
H1095 C1103 0.950 . S
H1096 C1101 0.950 . S
H1097 C1102 0.949 . S
H1098 C1104 0.950 . S
H1099 C1105 0.950 . S
H1100 C1106 0.949 . S
C1101 H1096 0.950 . S
C1101 C1103 1.327 . S
C1101 C1107 1.429 1_545 S
C1102 C1094 1.574 . S
C1102 H1097 0.949 . S
C1102 C1108 1.368 . S
C1103 C1087 1.349 . S
C1103 H1095 0.950 . S
C1103 C1101 1.327 . S
C1104 C1092 1.349 . S
C1104 H1098 0.950 . S
C1104 C1105 1.327 . S
C1105 H1099 0.950 . S
C1105 C1104 1.327 . S
C1105 C1109 1.429 . S
C1106 C1089 1.574 . S
C1106 H1100 0.949 . S
C1106 C1110 1.368 . S
C1107 C1088 1.429 . S
C1107 C1101 1.429 1_565 S
C1107 C1108 1.523 . S
C1108 C1089 1.368 . S
C1108 C1102 1.368 . S
C1108 C1107 1.523 . S
C1109 C1093 1.429 . S
C1109 C1105 1.429 . S
C1109 C1110 1.523 . S
C1110 C1094 1.368 . S
C1110 C1106 1.368 . S
C1110 C1109 1.523 . S
H1111 C1086 0.950 . S
H1112 C1088 0.950 . S
H1113 C1089 0.949 1_545 S
H1114 C1091 0.950 . S
H1115 C1093 0.950 . S
C1116 C1117 1.349 . S
C1116 C1118 1.327 . S
C1116 H1141 0.950 . S
C1117 C1116 1.349 . S
C1117 C1133 1.349 . S
C1118 C1116 1.327 . S
C1118 C1137 1.429 . S
C1118 H1142 0.950 . S
C1119 C1136 1.574 . S
C1119 C1138 1.368 . S
C1119 H1143 0.949 . S
H1120 C1124 0.949 . S
C1121 C1122 1.349 . S
C1121 C1123 1.327 . S
C1121 H1144 0.950 . S
C1122 C1121 1.349 . S
C1122 C1134 1.349 . S
C1123 C1121 1.327 . S
C1123 C1139 1.429 . S
C1123 H1145 0.950 . S
C1124 H1120 0.949 . S
C1124 C1132 1.574 . S
C1124 C1140 1.368 . S
H1125 C1133 0.950 . S
H1126 C1131 0.950 . S
H1127 C1132 0.949 . S
H1128 C1134 0.950 . S
H1129 C1135 0.950 . S
H1130 C1136 0.949 . S
C1131 H1126 0.950 . S
C1131 C1133 1.327 . S
C1131 C1137 1.429 . S
C1132 C1124 1.574 . S
C1132 H1127 0.949 . S
C1132 C1138 1.368 . S
C1133 C1117 1.349 . S
C1133 H1125 0.950 . S
C1133 C1131 1.327 . S
C1134 C1122 1.349 . S
C1134 H1128 0.950 . S
C1134 C1135 1.327 . S
C1135 H1129 0.950 . S
C1135 C1134 1.327 . S
C1135 C1139 1.429 . S
C1136 C1119 1.574 . S
C1136 H1130 0.949 . S
C1136 C1140 1.368 . S
C1137 C1118 1.429 . S
C1137 C1131 1.429 . S
C1137 C1138 1.523 . S
C1138 C1119 1.368 . S
C1138 C1132 1.368 . S
C1138 C1137 1.523 . S
C1139 C1123 1.429 . S
C1139 C1135 1.429 . S
C1139 C1140 1.523 . S
C1140 C1124 1.368 . S
C1140 C1136 1.368 . S
C1140 C1139 1.523 . S
H1141 C1116 0.950 . S
H1142 C1118 0.950 . S
H1143 C1119 0.949 . S
H1144 C1121 0.950 . S
H1145 C1123 0.950 . S
C1146 C1147 1.349 . S
C1146 C1148 1.327 . S
C1146 H1171 0.950 . S
C1147 C1146 1.349 . S
C1147 C1163 1.349 . S
C1148 C1146 1.327 . S
C1148 C1167 1.429 . S
C1148 H1172 0.950 . S
C1149 C1166 1.574 . S
C1149 C1168 1.368 . S
C1149 H1173 0.949 . S
H1150 C1154 0.949 1_565 S
C1151 C1152 1.349 1_545 S
C1151 C1153 1.327 1_556 S
C1151 H1174 0.950 . S
C1152 C1151 1.349 1_565 S
C1152 C1164 1.349 . S
C1153 C1151 1.327 1_554 S
C1153 C1169 1.429 . S
C1153 H1175 0.950 . S
C1154 H1150 0.949 1_545 S
C1154 C1162 1.574 . S
C1154 C1170 1.368 . S
H1155 C1163 0.950 . S
H1156 C1161 0.950 . S
H1157 C1162 0.949 . S
H1158 C1164 0.950 . S
H1159 C1165 0.950 . S
H1160 C1166 0.949 . S
C1161 H1156 0.950 . S
C1161 C1163 1.327 . S
C1161 C1167 1.429 . S
C1162 C1154 1.574 . S
C1162 H1157 0.949 . S
C1162 C1168 1.368 . S
C1163 C1147 1.349 . S
C1163 H1155 0.950 . S
C1163 C1161 1.327 . S
C1164 C1152 1.349 . S
C1164 H1158 0.950 . S
C1164 C1165 1.327 1_556 S
C1165 H1159 0.950 . S
C1165 C1164 1.327 1_554 S
C1165 C1169 1.429 1_565 S
C1166 C1149 1.574 . S
C1166 H1160 0.949 . S
C1166 C1170 1.368 . S
C1167 C1148 1.429 . S
C1167 C1161 1.429 . S
C1167 C1168 1.523 . S
C1168 C1149 1.368 . S
C1168 C1162 1.368 . S
C1168 C1167 1.523 . S
C1169 C1153 1.429 . S
C1169 C1165 1.429 1_545 S
C1169 C1170 1.523 . S
C1170 C1154 1.368 . S
C1170 C1166 1.368 . S
C1170 C1169 1.523 . S
H1171 C1146 0.950 . S
H1172 C1148 0.950 . S
H1173 C1149 0.949 . S
H1174 C1151 0.950 . S
H1175 C1153 0.950 . S
C1176 C1177 1.349 . S
C1176 C1178 1.327 . S
C1176 H1201 0.950 . S
C1177 C1176 1.349 . S
C1177 C1193 1.349 . S
C1178 C1176 1.327 . S
C1178 C1197 1.429 . S
C1178 H1202 0.950 . S
C1179 C1196 1.574 . S
C1179 C1198 1.368 . S
C1179 H1203 0.949 . S
H1180 C1184 0.949 . S
C1181 C1182 1.349 . S
C1181 C1183 1.327 . S
C1181 H1204 0.950 . S
C1182 C1181 1.349 . S
C1182 C1194 1.349 . S
C1183 C1181 1.327 . S
C1183 C1199 1.429 . S
C1183 H1205 0.950 . S
C1184 H1180 0.949 . S
C1184 C1192 1.574 . S
C1184 C1200 1.368 . S
H1185 C1193 0.950 . S
H1186 C1191 0.950 . S
H1187 C1192 0.949 . S
H1188 C1194 0.950 . S
H1189 C1195 0.950 . S
H1190 C1196 0.949 . S
C1191 H1186 0.950 . S
C1191 C1193 1.327 . S
C1191 C1197 1.429 . S
C1192 C1184 1.574 . S
C1192 H1187 0.949 . S
C1192 C1198 1.368 . S
C1193 C1177 1.349 . S
C1193 H1185 0.950 . S
C1193 C1191 1.327 . S
C1194 C1182 1.349 . S
C1194 H1188 0.950 . S
C1194 C1195 1.327 . S
C1195 H1189 0.950 . S
C1195 C1194 1.327 . S
C1195 C1199 1.429 . S
C1196 C1179 1.574 . S
C1196 H1190 0.949 . S
C1196 C1200 1.368 . S
C1197 C1178 1.429 . S
C1197 C1191 1.429 . S
C1197 C1198 1.523 . S
C1198 C1179 1.368 . S
C1198 C1192 1.368 . S
C1198 C1197 1.523 . S
C1199 C1183 1.429 . S
C1199 C1195 1.429 . S
C1199 C1200 1.523 . S
C1200 C1184 1.368 . S
C1200 C1196 1.368 . S
C1200 C1199 1.523 . S
H1201 C1176 0.950 . S
H1202 C1178 0.950 . S
H1203 C1179 0.949 . S
H1204 C1181 0.950 . S
H1205 C1183 0.950 . S
C1206 C1207 1.294 1_556 S
C1206 C1208 1.379 . S
C1206 H1231 0.956 . S
C1207 C1206 1.294 1_554 S
C1207 C1223 1.349 . S
C1208 C1206 1.379 . S
C1208 C1227 1.429 . S
C1208 H1232 0.950 . S
C1209 C1226 1.574 . S
C1209 C1228 1.368 . S
C1209 H1233 0.949 . S
H1210 C1214 0.949 . S
C1211 C1212 1.349 . S
C1211 C1213 1.327 . S
C1211 H1234 0.950 . S
C1212 C1211 1.349 . S
C1212 C1224 1.349 . S
C1213 C1211 1.327 . S
C1213 C1229 1.429 . S
C1213 H1235 0.950 . S
C1214 H1210 0.949 . S
C1214 C1222 1.574 . S
C1214 C1230 1.368 . S
H1215 C1223 0.950 . S
H1216 C1221 0.950 . S
H1217 C1222 0.949 . S
H1218 C1224 0.950 . S
H1219 C1225 0.950 . S
H1220 C1226 0.949 . S
C1221 H1216 0.950 . S
C1221 C1223 1.327 . S
C1221 C1227 1.429 1_554 S
C1222 C1214 1.574 . S
C1222 H1217 0.949 . S
C1222 C1228 1.368 . S
C1223 C1207 1.349 . S
C1223 H1215 0.950 . S
C1223 C1221 1.327 . S
C1224 C1212 1.349 . S
C1224 H1218 0.950 . S
C1224 C1225 1.327 . S
C1225 H1219 0.950 . S
C1225 C1224 1.327 . S
C1225 C1229 1.429 . S
C1226 C1209 1.574 . S
C1226 H1220 0.949 . S
C1226 C1230 1.368 . S
C1227 C1208 1.429 . S
C1227 C1221 1.429 1_556 S
C1227 C1228 1.523 . S
C1228 C1209 1.368 . S
C1228 C1222 1.368 . S
C1228 C1227 1.523 . S
C1229 C1213 1.429 . S
C1229 C1225 1.429 . S
C1229 C1230 1.523 . S
C1230 C1214 1.368 . S
C1230 C1226 1.368 . S
C1230 C1229 1.523 . S
H1231 C1206 0.956 . S
H1232 C1208 0.950 . S
H1233 C1209 0.949 . S
H1234 C1211 0.950 . S
H1235 C1213 0.950 . S
C1236 C1237 1.349 . S
C1236 C1238 1.327 . S
C1236 H1261 0.950 . S
C1237 C1236 1.349 . S
C1237 C1253 1.349 . S
C1238 C1236 1.327 . S
C1238 C1257 1.429 . S
C1238 H1262 0.950 . S
C1239 C1256 1.574 . S
C1239 C1258 1.368 . S
C1239 H1263 0.949 . S
H1240 C1244 0.949 . S
C1241 C1242 1.349 . S
C1241 C1243 1.327 . S
C1241 H1264 0.950 . S
C1242 C1241 1.349 . S
C1242 C1254 1.349 . S
C1243 C1241 1.327 . S
C1243 C1259 1.429 . S
C1243 H1265 0.950 . S
C1244 H1240 0.949 . S
C1244 C1252 1.574 . S
C1244 C1260 1.368 . S
H1245 C1253 0.950 . S
H1246 C1251 0.950 . S
H1247 C1252 0.949 . S
H1248 C1254 0.950 . S
H1249 C1255 0.950 . S
H1250 C1256 0.949 . S
C1251 H1246 0.950 . S
C1251 C1253 1.327 . S
C1251 C1257 1.429 . S
C1252 C1244 1.574 . S
C1252 H1247 0.949 . S
C1252 C1258 1.368 . S
C1253 C1237 1.349 . S
C1253 H1245 0.950 . S
C1253 C1251 1.327 . S
C1254 C1242 1.349 . S
C1254 H1248 0.950 . S
C1254 C1255 1.327 . S
C1255 H1249 0.950 . S
C1255 C1254 1.327 . S
C1255 C1259 1.429 . S
C1256 C1239 1.574 . S
C1256 H1250 0.949 . S
C1256 C1260 1.368 . S
C1257 C1238 1.429 . S
C1257 C1251 1.429 . S
C1257 C1258 1.523 . S
C1258 C1239 1.368 . S
C1258 C1252 1.368 . S
C1258 C1257 1.523 . S
C1259 C1243 1.429 . S
C1259 C1255 1.429 . S
C1259 C1260 1.523 . S
C1260 C1244 1.368 . S
C1260 C1256 1.368 . S
C1260 C1259 1.523 . S
H1261 C1236 0.950 . S
H1262 C1238 0.950 . S
H1263 C1239 0.949 . S
H1264 C1241 0.950 . S
H1265 C1243 0.950 . S
C1266 C1267 1.349 . S
C1266 C1268 1.327 . S
C1266 H1291 0.950 . S
C1267 C1266 1.349 . S
C1267 C1283 1.349 . S
C1268 C1266 1.327 . S
C1268 C1287 1.429 . S
C1268 H1292 0.950 . S
C1269 C1286 1.574 . S
C1269 C1288 1.368 . S
C1269 H1293 0.949 . S
H1270 C1274 0.949 . S
C1271 C1272 1.349 . S
C1271 C1273 1.327 . S
C1271 H1294 0.950 . S
C1272 C1271 1.349 . S
C1272 C1284 1.349 . S
C1273 C1271 1.327 . S
C1273 C1289 1.429 . S
C1273 H1295 0.950 . S
C1274 H1270 0.949 . S
C1274 C1282 1.574 . S
C1274 C1290 1.368 . S
H1275 C1283 0.950 . S
H1276 C1281 0.950 . S
H1277 C1282 0.949 . S
H1278 C1284 0.950 . S
H1279 C1285 0.950 . S
H1280 C1286 0.949 . S
C1281 H1276 0.950 . S
C1281 C1283 1.327 . S
C1281 C1287 1.429 . S
C1282 C1274 1.574 . S
C1282 H1277 0.949 . S
C1282 C1288 1.368 . S
C1283 C1267 1.349 . S
C1283 H1275 0.950 . S
C1283 C1281 1.327 . S
C1284 C1272 1.349 . S
C1284 H1278 0.950 . S
C1284 C1285 1.327 . S
C1285 H1279 0.950 . S
C1285 C1284 1.327 . S
C1285 C1289 1.429 . S
C1286 C1269 1.574 . S
C1286 H1280 0.949 . S
C1286 C1290 1.368 . S
C1287 C1268 1.429 . S
C1287 C1281 1.429 . S
C1287 C1288 1.523 . S
C1288 C1269 1.368 . S
C1288 C1282 1.368 . S
C1288 C1287 1.523 . S
C1289 C1273 1.429 . S
C1289 C1285 1.429 . S
C1289 C1290 1.523 . S
C1290 C1274 1.368 . S
C1290 C1286 1.368 . S
C1290 C1289 1.523 . S
H1291 C1266 0.950 . S
H1292 C1268 0.950 . S
H1293 C1269 0.949 . S
H1294 C1271 0.950 . S
H1295 C1273 0.950 . S
C1296 C1297 1.349 . S
C1296 C1298 1.327 . S
C1296 H1321 0.950 . S
C1297 C1296 1.349 . S
C1297 C1313 1.349 . S
C1298 C1296 1.327 . S
C1298 C1317 1.429 . S
C1298 H1322 0.950 . S
C1299 C1316 1.574 . S
C1299 C1318 1.368 . S
C1299 H1323 0.949 . S
H1300 C1304 0.949 . S
C1301 C1302 1.349 . S
C1301 C1303 1.327 . S
C1301 H1324 0.950 . S
C1302 C1301 1.349 . S
C1302 C1314 1.349 . S
C1303 C1301 1.327 . S
C1303 C1319 1.429 . S
C1303 H1325 0.950 . S
C1304 H1300 0.949 . S
C1304 C1312 1.574 . S
C1304 C1320 1.368 . S
H1305 C1313 0.950 . S
H1306 C1311 0.950 . S
H1307 C1312 0.949 . S
H1308 C1314 0.950 . S
H1309 C1315 0.950 . S
H1310 C1316 0.949 . S
C1311 H1306 0.950 . S
C1311 C1313 1.327 . S
C1311 C1317 1.429 . S
C1312 C1304 1.574 . S
C1312 H1307 0.949 . S
C1312 C1318 1.368 . S
C1313 C1297 1.349 . S
C1313 H1305 0.950 . S
C1313 C1311 1.327 . S
C1314 C1302 1.349 . S
C1314 H1308 0.950 . S
C1314 C1315 1.327 . S
C1315 H1309 0.950 . S
C1315 C1314 1.327 . S
C1315 C1319 1.429 . S
C1316 C1299 1.574 . S
C1316 H1310 0.949 . S
C1316 C1320 1.368 . S
C1317 C1298 1.429 . S
C1317 C1311 1.429 . S
C1317 C1318 1.523 . S
C1318 C1299 1.368 . S
C1318 C1312 1.368 . S
C1318 C1317 1.523 . S
C1319 C1303 1.429 . S
C1319 C1315 1.429 . S
C1319 C1320 1.523 . S
C1320 C1304 1.368 . S
C1320 C1316 1.368 . S
C1320 C1319 1.523 . S
H1321 C1296 0.950 . S
H1322 C1298 0.950 . S
H1323 C1299 0.949 . S
H1324 C1301 0.950 . S
H1325 C1303 0.950 . S
C1326 C1327 1.326 1_455 S
C1326 C1328 1.343 1_565 S
C1326 H1351 0.958 . S
C1327 C1326 1.326 1_655 S
C1327 C1343 1.349 . S
C1328 C1326 1.343 1_545 S
C1328 C1347 1.429 . S
C1328 H1352 0.950 . S
C1329 C1346 1.574 . S
C1329 C1348 1.368 . S
C1329 H1353 0.946 1_455 S
H1330 C1334 0.949 . S
C1331 C1332 1.349 . S
C1331 C1333 1.327 . S
C1331 H1354 0.950 . S
C1332 C1331 1.349 . S
C1332 C1344 1.349 . S
C1333 C1331 1.327 . S
C1333 C1349 1.429 . S
C1333 H1355 0.950 . S
C1334 H1330 0.949 . S
C1334 C1342 1.574 . S
C1334 C1350 1.368 . S
H1335 C1343 0.950 . S
H1336 C1341 0.950 . S
H1337 C1342 0.949 . S
H1338 C1344 0.950 . S
H1339 C1345 0.950 . S
H1340 C1346 0.949 . S
C1341 H1336 0.950 . S
C1341 C1343 1.327 1_545 S
C1341 C1347 1.429 1_655 S
C1342 C1334 1.574 . S
C1342 H1337 0.949 . S
C1342 C1348 1.368 . S
C1343 C1327 1.349 . S
C1343 H1335 0.950 . S
C1343 C1341 1.327 1_565 S
C1344 C1332 1.349 . S
C1344 H1338 0.950 . S
C1344 C1345 1.327 . S
C1345 H1339 0.950 . S
C1345 C1344 1.327 . S
C1345 C1349 1.429 . S
C1346 C1329 1.574 . S
C1346 H1340 0.949 . S
C1346 C1350 1.368 . S
C1347 C1328 1.429 . S
C1347 C1341 1.429 1_455 S
C1347 C1348 1.523 . S
C1348 C1329 1.368 . S
C1348 C1342 1.368 . S
C1348 C1347 1.523 . S
C1349 C1333 1.429 . S
C1349 C1345 1.429 . S
C1349 C1350 1.523 . S
C1350 C1334 1.368 . S
C1350 C1346 1.368 . S
C1350 C1349 1.523 . S
H1351 C1326 0.958 . S
H1352 C1328 0.950 . S
H1353 C1329 0.946 1_655 S
H1354 C1331 0.950 . S
H1355 C1333 0.950 . S
C1356 C1357 1.349 . S
C1356 C1358 1.327 . S
C1356 H1381 0.950 . S
C1357 C1356 1.349 . S
C1357 C1373 1.349 . S
C1358 C1356 1.327 . S
C1358 C1377 1.429 . S
C1358 H1382 0.950 . S
C1359 C1376 1.574 . S
C1359 C1378 1.368 . S
C1359 H1383 0.949 . S
H1360 C1364 0.949 . S
C1361 C1362 1.349 . S
C1361 C1363 1.327 . S
C1361 H1384 0.950 . S
C1362 C1361 1.349 . S
C1362 C1374 1.349 . S
C1363 C1361 1.327 . S
C1363 C1379 1.429 . S
C1363 H1385 0.950 . S
C1364 H1360 0.949 . S
C1364 C1372 1.574 . S
C1364 C1380 1.368 . S
H1365 C1373 0.950 . S
H1366 C1371 0.950 . S
H1367 C1372 0.949 . S
H1368 C1374 0.950 . S
H1369 C1375 0.950 . S
H1370 C1376 0.949 . S
C1371 H1366 0.950 . S
C1371 C1373 1.327 . S
C1371 C1377 1.429 . S
C1372 C1364 1.574 . S
C1372 H1367 0.949 . S
C1372 C1378 1.368 . S
C1373 C1357 1.349 . S
C1373 H1365 0.950 . S
C1373 C1371 1.327 . S
C1374 C1362 1.349 . S
C1374 H1368 0.950 . S
C1374 C1375 1.327 . S
C1375 H1369 0.950 . S
C1375 C1374 1.327 . S
C1375 C1379 1.429 . S
C1376 C1359 1.574 . S
C1376 H1370 0.949 . S
C1376 C1380 1.368 . S
C1377 C1358 1.429 . S
C1377 C1371 1.429 . S
C1377 C1378 1.523 . S
C1378 C1359 1.368 . S
C1378 C1372 1.368 . S
C1378 C1377 1.523 . S
C1379 C1363 1.429 . S
C1379 C1375 1.429 . S
C1379 C1380 1.523 . S
C1380 C1364 1.368 . S
C1380 C1376 1.368 . S
C1380 C1379 1.523 . S
H1381 C1356 0.950 . S
H1382 C1358 0.950 . S
H1383 C1359 0.949 . S
H1384 C1361 0.950 . S
H1385 C1363 0.950 . S
C1386 C1387 1.349 . S
C1386 C1388 1.327 1_545 S
C1386 H1411 0.950 . S
C1387 C1386 1.349 . S
C1387 C1403 1.349 . S
C1388 C1386 1.327 1_565 S
C1388 C1407 1.429 . S
C1388 H1412 0.950 . S
C1389 C1406 1.574 . S
C1389 C1408 1.368 . S
C1389 H1413 0.949 . S
H1390 C1394 0.949 . S
C1391 C1392 1.349 . S
C1391 C1393 1.327 . S
C1391 H1414 0.950 . S
C1392 C1391 1.349 . S
C1392 C1404 1.349 . S
C1393 C1391 1.327 . S
C1393 C1409 1.429 . S
C1393 H1415 0.950 . S
C1394 H1390 0.949 . S
C1394 C1402 1.574 . S
C1394 C1410 1.368 . S
H1395 C1403 0.950 . S
H1396 C1401 0.950 . S
H1397 C1402 0.949 . S
H1398 C1404 0.950 . S
H1399 C1405 0.950 . S
H1400 C1406 0.949 . S
C1401 H1396 0.950 . S
C1401 C1403 1.327 1_565 S
C1401 C1407 1.429 . S
C1402 C1394 1.574 . S
C1402 H1397 0.949 . S
C1402 C1408 1.368 . S
C1403 C1387 1.349 . S
C1403 H1395 0.950 . S
C1403 C1401 1.327 1_545 S
C1404 C1392 1.349 . S
C1404 H1398 0.950 . S
C1404 C1405 1.327 . S
C1405 H1399 0.950 . S
C1405 C1404 1.327 . S
C1405 C1409 1.429 . S
C1406 C1389 1.574 . S
C1406 H1400 0.949 . S
C1406 C1410 1.368 . S
C1407 C1388 1.429 . S
C1407 C1401 1.429 . S
C1407 C1408 1.523 . S
C1408 C1389 1.368 . S
C1408 C1402 1.368 . S
C1408 C1407 1.523 . S
C1409 C1393 1.429 . S
C1409 C1405 1.429 . S
C1409 C1410 1.523 . S
C1410 C1394 1.368 . S
C1410 C1406 1.368 . S
C1410 C1409 1.523 . S
H1411 C1386 0.950 . S
H1412 C1388 0.950 . S
H1413 C1389 0.949 . S
H1414 C1391 0.950 . S
H1415 C1393 0.950 . S
C1416 C1417 1.349 . S
C1416 C1418 1.327 . S
C1416 H1441 0.950 . S
C1417 C1416 1.349 . S
C1417 C1433 1.349 . S
C1418 C1416 1.327 . S
C1418 C1437 1.429 . S
C1418 H1442 0.950 . S
C1419 C1436 1.574 . S
C1419 C1438 1.368 . S
C1419 H1443 0.949 . S
H1420 C1424 0.949 . S
C1421 C1422 1.349 . S
C1421 C1423 1.327 . S
C1421 H1444 0.950 . S
C1422 C1421 1.349 . S
C1422 C1434 1.349 . S
C1423 C1421 1.327 . S
C1423 C1439 1.429 . S
C1423 H1445 0.950 . S
C1424 H1420 0.949 . S
C1424 C1432 1.574 . S
C1424 C1440 1.368 . S
H1425 C1433 0.950 . S
H1426 C1431 0.950 . S
H1427 C1432 0.949 . S
H1428 C1434 0.950 . S
H1429 C1435 0.950 . S
H1430 C1436 0.949 . S
C1431 H1426 0.950 . S
C1431 C1433 1.327 . S
C1431 C1437 1.429 . S
C1432 C1424 1.574 . S
C1432 H1427 0.949 . S
C1432 C1438 1.368 . S
C1433 C1417 1.349 . S
C1433 H1425 0.950 . S
C1433 C1431 1.327 . S
C1434 C1422 1.349 . S
C1434 H1428 0.950 . S
C1434 C1435 1.327 . S
C1435 H1429 0.950 . S
C1435 C1434 1.327 . S
C1435 C1439 1.429 . S
C1436 C1419 1.574 . S
C1436 H1430 0.949 . S
C1436 C1440 1.368 . S
C1437 C1418 1.429 . S
C1437 C1431 1.429 . S
C1437 C1438 1.523 . S
C1438 C1419 1.368 . S
C1438 C1432 1.368 . S
C1438 C1437 1.523 . S
C1439 C1423 1.429 . S
C1439 C1435 1.429 . S
C1439 C1440 1.523 . S
C1440 C1424 1.368 . S
C1440 C1436 1.368 . S
C1440 C1439 1.523 . S
H1441 C1416 0.950 . S
H1442 C1418 0.950 . S
H1443 C1419 0.949 . S
H1444 C1421 0.950 . S
H1445 C1423 0.950 . S
C1446 C1447 1.349 . S
C1446 C1448 1.327 . S
C1446 H1471 0.950 . S
C1447 C1446 1.349 . S
C1447 C1463 1.349 1_455 S
C1448 C1446 1.327 . S
C1448 C1467 1.429 1_455 S
C1448 H1472 0.950 . S
C1449 C1466 1.574 . S
C1449 C1468 1.368 . S
C1449 H1473 0.949 . S
H1450 C1454 0.949 . S
C1451 C1452 1.349 . S
C1451 C1453 1.327 . S
C1451 H1474 0.950 . S
C1452 C1451 1.349 . S
C1452 C1464 1.349 . S
C1453 C1451 1.327 . S
C1453 C1469 1.429 . S
C1453 H1475 0.950 . S
C1454 H1450 0.949 . S
C1454 C1462 1.574 . S
C1454 C1470 1.368 . S
H1455 C1463 0.950 . S
H1456 C1461 0.950 . S
H1457 C1462 0.949 1_455 S
H1458 C1464 0.950 . S
H1459 C1465 0.950 . S
H1460 C1466 0.949 . S
C1461 H1456 0.950 . S
C1461 C1463 1.327 . S
C1461 C1467 1.429 . S
C1462 C1454 1.574 . S
C1462 H1457 0.949 1_655 S
C1462 C1468 1.368 . S
C1463 C1447 1.349 1_655 S
C1463 H1455 0.950 . S
C1463 C1461 1.327 . S
C1464 C1452 1.349 . S
C1464 H1458 0.950 . S
C1464 C1465 1.327 . S
C1465 H1459 0.950 . S
C1465 C1464 1.327 . S
C1465 C1469 1.429 . S
C1466 C1449 1.574 . S
C1466 H1460 0.949 . S
C1466 C1470 1.368 . S
C1467 C1448 1.429 1_655 S
C1467 C1461 1.429 . S
C1467 C1468 1.523 . S
C1468 C1449 1.368 . S
C1468 C1462 1.368 . S
C1468 C1467 1.523 . S
C1469 C1453 1.429 . S
C1469 C1465 1.429 . S
C1469 C1470 1.523 . S
C1470 C1454 1.368 . S
C1470 C1466 1.368 . S
C1470 C1469 1.523 . S
H1471 C1446 0.950 . S
H1472 C1448 0.950 . S
H1473 C1449 0.949 . S
H1474 C1451 0.950 . S
H1475 C1453 0.950 . S
C1476 C1477 1.349 . S
C1476 C1478 1.327 . S
C1476 H1501 0.950 . S
C1477 C1476 1.349 . S
C1477 C1493 1.349 . S
C1478 C1476 1.327 . S
C1478 C1497 1.429 . S
C1478 H1502 0.950 . S
C1479 C1496 1.574 . S
C1479 C1498 1.368 . S
C1479 H1503 0.949 . S
H1480 C1484 0.949 . S
C1481 C1482 1.349 . S
C1481 C1483 1.327 . S
C1481 H1504 0.950 . S
C1482 C1481 1.349 . S
C1482 C1494 1.349 . S
C1483 C1481 1.327 . S
C1483 C1499 1.429 . S
C1483 H1505 0.950 . S
C1484 H1480 0.949 . S
C1484 C1492 1.574 . S
C1484 C1500 1.368 . S
H1485 C1493 0.950 . S
H1486 C1491 0.950 . S
H1487 C1492 0.949 . S
H1488 C1494 0.950 . S
H1489 C1495 0.950 . S
H1490 C1496 0.949 . S
C1491 H1486 0.950 . S
C1491 C1493 1.327 . S
C1491 C1497 1.429 . S
C1492 C1484 1.574 . S
C1492 H1487 0.949 . S
C1492 C1498 1.368 . S
C1493 C1477 1.349 . S
C1493 H1485 0.950 . S
C1493 C1491 1.327 . S
C1494 C1482 1.349 . S
C1494 H1488 0.950 . S
C1494 C1495 1.327 . S
C1495 H1489 0.950 . S
C1495 C1494 1.327 . S
C1495 C1499 1.429 . S
C1496 C1479 1.574 . S
C1496 H1490 0.949 . S
C1496 C1500 1.368 . S
C1497 C1478 1.429 . S
C1497 C1491 1.429 . S
C1497 C1498 1.523 . S
C1498 C1479 1.368 . S
C1498 C1492 1.368 . S
C1498 C1497 1.523 . S
C1499 C1483 1.429 . S
C1499 C1495 1.429 . S
C1499 C1500 1.523 . S
C1500 C1484 1.368 . S
C1500 C1496 1.368 . S
C1500 C1499 1.523 . S
H1501 C1476 0.950 . S
H1502 C1478 0.950 . S
H1503 C1479 0.949 . S
H1504 C1481 0.950 . S
H1505 C1483 0.950 . S
C1506 C1507 1.349 . S
C1506 C1508 1.327 . S
C1506 H1531 0.950 . S
C1507 C1506 1.349 . S
C1507 C1523 1.349 . S
C1508 C1506 1.327 . S
C1508 C1527 1.429 . S
C1508 H1532 0.950 . S
C1509 C1526 1.574 . S
C1509 C1528 1.368 . S
C1509 H1533 0.949 . S
H1510 C1514 0.949 . S
C1511 C1512 1.349 . S
C1511 C1513 1.327 . S
C1511 H1534 0.950 . S
C1512 C1511 1.349 . S
C1512 C1524 1.349 . S
C1513 C1511 1.327 . S
C1513 C1529 1.429 . S
C1513 H1535 0.950 . S
C1514 H1510 0.949 . S
C1514 C1522 1.574 . S
C1514 C1530 1.368 . S
H1515 C1523 0.950 . S
H1516 C1521 0.950 . S
H1517 C1522 0.949 . S
H1518 C1524 0.950 . S
H1519 C1525 0.950 . S
H1520 C1526 0.949 . S
C1521 H1516 0.950 . S
C1521 C1523 1.327 . S
C1521 C1527 1.429 . S
C1522 C1514 1.574 . S
C1522 H1517 0.949 . S
C1522 C1528 1.368 . S
C1523 C1507 1.349 . S
C1523 H1515 0.950 . S
C1523 C1521 1.327 . S
C1524 C1512 1.349 . S
C1524 H1518 0.950 . S
C1524 C1525 1.327 . S
C1525 H1519 0.950 . S
C1525 C1524 1.327 . S
C1525 C1529 1.429 . S
C1526 C1509 1.574 . S
C1526 H1520 0.949 . S
C1526 C1530 1.368 . S
C1527 C1508 1.429 . S
C1527 C1521 1.429 . S
C1527 C1528 1.523 . S
C1528 C1509 1.368 . S
C1528 C1522 1.368 . S
C1528 C1527 1.523 . S
C1529 C1513 1.429 . S
C1529 C1525 1.429 . S
C1529 C1530 1.523 . S
C1530 C1514 1.368 . S
C1530 C1526 1.368 . S
C1530 C1529 1.523 . S
H1531 C1506 0.950 . S
H1532 C1508 0.950 . S
H1533 C1509 0.949 . S
H1534 C1511 0.950 . S
H1535 C1513 0.950 . S
C1536 C1537 1.349 . S
C1536 C1538 1.327 . S
C1536 H1561 0.950 . S
C1537 C1536 1.349 . S
C1537 C1553 1.349 . S
C1538 C1536 1.327 . S
C1538 C1557 1.429 . S
C1538 H1562 0.950 . S
C1539 C1556 1.574 . S
C1539 C1558 1.368 . S
C1539 H1563 0.949 . S
H1540 C1544 0.949 . S
C1541 C1542 1.349 . S
C1541 C1543 1.327 . S
C1541 H1564 0.950 . S
C1542 C1541 1.349 . S
C1542 C1554 1.349 . S
C1543 C1541 1.327 . S
C1543 C1559 1.429 . S
C1543 H1565 0.950 . S
C1544 H1540 0.949 . S
C1544 C1552 1.574 . S
C1544 C1560 1.368 . S
H1545 C1553 0.950 . S
H1546 C1551 0.950 . S
H1547 C1552 0.949 . S
H1548 C1554 0.950 . S
H1549 C1555 0.950 . S
H1550 C1556 0.949 . S
C1551 H1546 0.950 . S
C1551 C1553 1.327 . S
C1551 C1557 1.429 . S
C1552 C1544 1.574 . S
C1552 H1547 0.949 . S
C1552 C1558 1.368 . S
C1553 C1537 1.349 . S
C1553 H1545 0.950 . S
C1553 C1551 1.327 . S
C1554 C1542 1.349 . S
C1554 H1548 0.950 . S
C1554 C1555 1.327 . S
C1555 H1549 0.950 . S
C1555 C1554 1.327 . S
C1555 C1559 1.429 . S
C1556 C1539 1.574 . S
C1556 H1550 0.949 . S
C1556 C1560 1.368 . S
C1557 C1538 1.429 . S
C1557 C1551 1.429 . S
C1557 C1558 1.523 . S
C1558 C1539 1.368 . S
C1558 C1552 1.368 . S
C1558 C1557 1.523 . S
C1559 C1543 1.429 . S
C1559 C1555 1.429 . S
C1559 C1560 1.523 . S
C1560 C1544 1.368 . S
C1560 C1556 1.368 . S
C1560 C1559 1.523 . S
H1561 C1536 0.950 . S
H1562 C1538 0.950 . S
H1563 C1539 0.949 . S
H1564 C1541 0.950 . S
H1565 C1543 0.950 . S
C1566 C1567 1.349 . S
C1566 C1568 1.327 . S
C1566 H1591 0.950 . S
C1567 C1566 1.349 . S
C1567 C1583 1.349 . S
C1568 C1566 1.327 . S
C1568 C1587 1.429 . S
C1568 H1592 0.950 . S
C1569 C1586 1.574 . S
C1569 C1588 1.368 . S
C1569 H1593 0.949 . S
H1570 C1574 0.949 . S
C1571 C1572 1.349 . S
C1571 C1573 1.327 . S
C1571 H1594 0.950 . S
C1572 C1571 1.349 . S
C1572 C1584 1.349 . S
C1573 C1571 1.327 . S
C1573 C1589 1.429 . S
C1573 H1595 0.950 . S
C1574 H1570 0.949 . S
C1574 C1582 1.574 . S
C1574 C1590 1.368 . S
H1575 C1583 0.950 . S
H1576 C1581 0.950 . S
H1577 C1582 0.949 . S
H1578 C1584 0.950 . S
H1579 C1585 0.950 . S
H1580 C1586 0.949 . S
C1581 H1576 0.950 . S
C1581 C1583 1.327 . S
C1581 C1587 1.429 . S
C1582 C1574 1.574 . S
C1582 H1577 0.949 . S
C1582 C1588 1.368 . S
C1583 C1567 1.349 . S
C1583 H1575 0.950 . S
C1583 C1581 1.327 . S
C1584 C1572 1.349 . S
C1584 H1578 0.950 . S
C1584 C1585 1.327 . S
C1585 H1579 0.950 . S
C1585 C1584 1.327 . S
C1585 C1589 1.429 . S
C1586 C1569 1.574 . S
C1586 H1580 0.949 . S
C1586 C1590 1.368 . S
C1587 C1568 1.429 . S
C1587 C1581 1.429 . S
C1587 C1588 1.523 . S
C1588 C1569 1.368 . S
C1588 C1582 1.368 . S
C1588 C1587 1.523 . S
C1589 C1573 1.429 . S
C1589 C1585 1.429 . S
C1589 C1590 1.523 . S
C1590 C1574 1.368 . S
C1590 C1586 1.368 . S
C1590 C1589 1.523 . S
H1591 C1566 0.950 . S
H1592 C1568 0.950 . S
H1593 C1569 0.949 . S
H1594 C1571 0.950 . S
H1595 C1573 0.950 . S
C1596 C1597 1.343 1_455 S
C1596 C1598 1.333 . S
C1596 H1621 0.949 . S
C1597 C1596 1.343 1_655 S
C1597 C1613 1.349 1_556 S
C1598 C1596 1.333 . S
C1598 C1617 1.429 1_556 S
C1598 H1622 0.950 . S
C1599 C1616 1.574 . S
C1599 C1618 1.368 . S
C1599 H1623 0.949 . S
H1600 C1604 0.949 . S
C1601 C1602 1.349 . S
C1601 C1603 1.327 . S
C1601 H1624 0.950 . S
C1602 C1601 1.349 . S
C1602 C1614 1.349 . S
C1603 C1601 1.327 . S
C1603 C1619 1.429 . S
C1603 H1625 0.950 . S
C1604 H1600 0.949 . S
C1604 C1612 1.574 . S
C1604 C1620 1.368 . S
H1605 C1613 0.950 . S
H1606 C1611 0.950 . S
H1607 C1612 0.949 1_556 S
H1608 C1614 0.950 . S
H1609 C1615 0.950 . S
H1610 C1616 0.949 . S
C1611 H1606 0.950 . S
C1611 C1613 1.327 . S
C1611 C1617 1.429 1_655 S
C1612 C1604 1.574 . S
C1612 H1607 0.949 1_554 S
C1612 C1618 1.368 . S
C1613 C1597 1.349 1_554 S
C1613 H1605 0.950 . S
C1613 C1611 1.327 . S
C1614 C1602 1.349 . S
C1614 H1608 0.950 . S
C1614 C1615 1.327 . S
C1615 H1609 0.950 . S
C1615 C1614 1.327 . S
C1615 C1619 1.429 . S
C1616 C1599 1.574 . S
C1616 H1610 0.949 . S
C1616 C1620 1.368 . S
C1617 C1598 1.429 1_554 S
C1617 C1611 1.429 1_455 S
C1617 C1618 1.523 . S
C1618 C1599 1.368 . S
C1618 C1612 1.368 . S
C1618 C1617 1.523 . S
C1619 C1603 1.429 . S
C1619 C1615 1.429 . S
C1619 C1620 1.523 . S
C1620 C1604 1.368 . S
C1620 C1616 1.368 . S
C1620 C1619 1.523 . S
H1621 C1596 0.949 . S
H1622 C1598 0.950 . S
H1623 C1599 0.949 . S
H1624 C1601 0.950 . S
H1625 C1603 0.950 . S
C1626 C1627 1.349 . S
C1626 C1628 1.327 . S
C1626 H1651 0.950 . S
C1627 C1626 1.349 . S
C1627 C1643 1.349 . S
C1628 C1626 1.327 . S
C1628 C1647 1.429 . S
C1628 H1652 0.950 . S
C1629 C1646 1.574 . S
C1629 C1648 1.368 . S
C1629 H1653 0.949 . S
H1630 C1634 0.949 . S
C1631 C1632 1.349 . S
C1631 C1633 1.327 . S
C1631 H1654 0.950 . S
C1632 C1631 1.349 . S
C1632 C1644 1.349 . S
C1633 C1631 1.327 . S
C1633 C1649 1.429 . S
C1633 H1655 0.950 . S
C1634 H1630 0.949 . S
C1634 C1642 1.574 . S
C1634 C1650 1.368 . S
H1635 C1643 0.950 . S
H1636 C1641 0.950 . S
H1637 C1642 0.949 . S
H1638 C1644 0.950 . S
H1639 C1645 0.950 . S
H1640 C1646 0.949 . S
C1641 H1636 0.950 . S
C1641 C1643 1.327 . S
C1641 C1647 1.429 . S
C1642 C1634 1.574 . S
C1642 H1637 0.949 . S
C1642 C1648 1.368 . S
C1643 C1627 1.349 . S
C1643 H1635 0.950 . S
C1643 C1641 1.327 . S
C1644 C1632 1.349 . S
C1644 H1638 0.950 . S
C1644 C1645 1.327 . S
C1645 H1639 0.950 . S
C1645 C1644 1.327 . S
C1645 C1649 1.429 . S
C1646 C1629 1.574 . S
C1646 H1640 0.949 . S
C1646 C1650 1.368 . S
C1647 C1628 1.429 . S
C1647 C1641 1.429 . S
C1647 C1648 1.523 . S
C1648 C1629 1.368 . S
C1648 C1642 1.368 . S
C1648 C1647 1.523 . S
C1649 C1633 1.429 . S
C1649 C1645 1.429 . S
C1649 C1650 1.523 . S
C1650 C1634 1.368 . S
C1650 C1646 1.368 . S
C1650 C1649 1.523 . S
H1651 C1626 0.950 . S
H1652 C1628 0.950 . S
H1653 C1629 0.949 . S
H1654 C1631 0.950 . S
H1655 C1633 0.950 . S
C1656 C1657 1.349 . S
C1656 C1658 1.327 . S
C1656 H1681 0.950 . S
C1657 C1656 1.349 . S
C1657 C1673 1.349 . S
C1658 C1656 1.327 . S
C1658 C1677 1.429 . S
C1658 H1682 0.950 . S
C1659 C1676 1.574 . S
C1659 C1678 1.368 . S
C1659 H1683 0.949 . S
H1660 C1664 0.949 . S
C1661 C1662 1.349 . S
C1661 C1663 1.327 . S
C1661 H1684 0.950 . S
C1662 C1661 1.349 . S
C1662 C1674 1.349 . S
C1663 C1661 1.327 . S
C1663 C1679 1.429 . S
C1663 H1685 0.950 . S
C1664 H1660 0.949 . S
C1664 C1672 1.574 . S
C1664 C1680 1.368 . S
H1665 C1673 0.950 . S
H1666 C1671 0.950 . S
H1667 C1672 0.949 . S
H1668 C1674 0.950 . S
H1669 C1675 0.950 . S
H1670 C1676 0.949 . S
C1671 H1666 0.950 . S
C1671 C1673 1.327 . S
C1671 C1677 1.429 . S
C1672 C1664 1.574 . S
C1672 H1667 0.949 . S
C1672 C1678 1.368 . S
C1673 C1657 1.349 . S
C1673 H1665 0.950 . S
C1673 C1671 1.327 . S
C1674 C1662 1.349 . S
C1674 H1668 0.950 . S
C1674 C1675 1.327 . S
C1675 H1669 0.950 . S
C1675 C1674 1.327 . S
C1675 C1679 1.429 . S
C1676 C1659 1.574 . S
C1676 H1670 0.949 . S
C1676 C1680 1.368 . S
C1677 C1658 1.429 . S
C1677 C1671 1.429 . S
C1677 C1678 1.523 . S
C1678 C1659 1.368 . S
C1678 C1672 1.368 . S
C1678 C1677 1.523 . S
C1679 C1663 1.429 . S
C1679 C1675 1.429 . S
C1679 C1680 1.523 . S
C1680 C1664 1.368 . S
C1680 C1676 1.368 . S
C1680 C1679 1.523 . S
H1681 C1656 0.950 . S
H1682 C1658 0.950 . S
H1683 C1659 0.949 . S
H1684 C1661 0.950 . S
H1685 C1663 0.950 . S
C1686 C1687 1.349 . S
C1686 C1688 1.327 . S
C1686 H1711 0.950 . S
C1687 C1686 1.349 . S
C1687 C1703 1.349 . S
C1688 C1686 1.327 . S
C1688 C1707 1.429 . S
C1688 H1712 0.950 . S
C1689 C1706 1.574 . S
C1689 C1708 1.368 . S
C1689 H1713 0.949 . S
H1690 C1694 0.949 . S
C1691 C1692 1.349 . S
C1691 C1693 1.327 . S
C1691 H1714 0.950 . S
C1692 C1691 1.349 . S
C1692 C1704 1.349 . S
C1693 C1691 1.327 . S
C1693 C1709 1.429 . S
C1693 H1715 0.950 . S
C1694 H1690 0.949 . S
C1694 C1702 1.574 . S
C1694 C1710 1.368 . S
H1695 C1703 0.950 . S
H1696 C1701 0.950 . S
H1697 C1702 0.949 . S
H1698 C1704 0.950 . S
H1699 C1705 0.950 . S
H1700 C1706 0.949 . S
C1701 H1696 0.950 . S
C1701 C1703 1.327 . S
C1701 C1707 1.429 . S
C1702 C1694 1.574 . S
C1702 H1697 0.949 . S
C1702 C1708 1.368 . S
C1703 C1687 1.349 . S
C1703 H1695 0.950 . S
C1703 C1701 1.327 . S
C1704 C1692 1.349 . S
C1704 H1698 0.950 . S
C1704 C1705 1.327 . S
C1705 H1699 0.950 . S
C1705 C1704 1.327 . S
C1705 C1709 1.429 . S
C1706 C1689 1.574 . S
C1706 H1700 0.949 . S
C1706 C1710 1.368 . S
C1707 C1688 1.429 . S
C1707 C1701 1.429 . S
C1707 C1708 1.523 . S
C1708 C1689 1.368 . S
C1708 C1702 1.368 . S
C1708 C1707 1.523 . S
C1709 C1693 1.429 . S
C1709 C1705 1.429 . S
C1709 C1710 1.523 . S
C1710 C1694 1.368 . S
C1710 C1706 1.368 . S
C1710 C1709 1.523 . S
H1711 C1686 0.950 . S
H1712 C1688 0.950 . S
H1713 C1689 0.949 . S
H1714 C1691 0.950 . S
H1715 C1693 0.950 . S
C1716 C1717 1.349 . S
C1716 C1718 1.327 . S
C1716 H1741 0.950 . S
C1717 C1716 1.349 . S
C1717 C1733 1.349 1_554 S
C1718 C1716 1.327 . S
C1718 C1737 1.429 1_554 S
C1718 H1742 0.950 . S
C1719 C1736 1.574 . S
C1719 C1738 1.368 . S
C1719 H1743 0.949 . S
H1720 C1724 0.949 . S
C1721 C1722 1.349 . S
C1721 C1723 1.327 . S
C1721 H1744 0.950 . S
C1722 C1721 1.349 . S
C1722 C1734 1.349 . S
C1723 C1721 1.327 . S
C1723 C1739 1.429 . S
C1723 H1745 0.950 . S
C1724 H1720 0.949 . S
C1724 C1732 1.574 . S
C1724 C1740 1.368 . S
H1725 C1733 0.950 . S
H1726 C1731 0.950 . S
H1727 C1732 0.949 1_554 S
H1728 C1734 0.950 . S
H1729 C1735 0.950 . S
H1730 C1736 0.949 . S
C1731 H1726 0.950 . S
C1731 C1733 1.327 . S
C1731 C1737 1.429 . S
C1732 C1724 1.574 . S
C1732 H1727 0.949 1_556 S
C1732 C1738 1.368 . S
C1733 C1717 1.349 1_556 S
C1733 H1725 0.950 . S
C1733 C1731 1.327 . S
C1734 C1722 1.349 . S
C1734 H1728 0.950 . S
C1734 C1735 1.327 . S
C1735 H1729 0.950 . S
C1735 C1734 1.327 . S
C1735 C1739 1.429 . S
C1736 C1719 1.574 . S
C1736 H1730 0.949 . S
C1736 C1740 1.368 . S
C1737 C1718 1.429 1_556 S
C1737 C1731 1.429 . S
C1737 C1738 1.523 . S
C1738 C1719 1.368 . S
C1738 C1732 1.368 . S
C1738 C1737 1.523 . S
C1739 C1723 1.429 . S
C1739 C1735 1.429 . S
C1739 C1740 1.523 . S
C1740 C1724 1.368 . S
C1740 C1736 1.368 . S
C1740 C1739 1.523 . S
H1741 C1716 0.950 . S
H1742 C1718 0.950 . S
H1743 C1719 0.949 . S
H1744 C1721 0.950 . S
H1745 C1723 0.950 . S
C1746 C1747 1.349 . S
C1746 C1748 1.327 . S
C1746 H1771 0.950 . S
C1747 C1746 1.349 . S
C1747 C1763 1.349 . S
C1748 C1746 1.327 . S
C1748 C1767 1.429 . S
C1748 H1772 0.950 . S
C1749 C1766 1.574 . S
C1749 C1768 1.368 . S
C1749 H1773 0.949 . S
H1750 C1754 0.949 . S
C1751 C1752 1.349 . S
C1751 C1753 1.327 1_455 S
C1751 H1774 0.950 . S
C1752 C1751 1.349 . S
C1752 C1764 1.349 . S
C1753 C1751 1.327 1_655 S
C1753 C1769 1.429 . S
C1753 H1775 0.950 . S
C1754 H1750 0.949 . S
C1754 C1762 1.574 . S
C1754 C1770 1.368 . S
H1755 C1763 0.950 . S
H1756 C1761 0.950 . S
H1757 C1762 0.949 . S
H1758 C1764 0.950 . S
H1759 C1765 0.950 . S
H1760 C1766 0.949 . S
C1761 H1756 0.950 . S
C1761 C1763 1.327 . S
C1761 C1767 1.429 . S
C1762 C1754 1.574 . S
C1762 H1757 0.949 . S
C1762 C1768 1.368 . S
C1763 C1747 1.349 . S
C1763 H1755 0.950 . S
C1763 C1761 1.327 . S
C1764 C1752 1.349 . S
C1764 H1758 0.950 . S
C1764 C1765 1.327 1_455 S
C1765 H1759 0.950 . S
C1765 C1764 1.327 1_655 S
C1765 C1769 1.429 . S
C1766 C1749 1.574 . S
C1766 H1760 0.949 . S
C1766 C1770 1.368 . S
C1767 C1748 1.429 . S
C1767 C1761 1.429 . S
C1767 C1768 1.523 . S
C1768 C1749 1.368 . S
C1768 C1762 1.368 . S
C1768 C1767 1.523 . S
C1769 C1753 1.429 . S
C1769 C1765 1.429 . S
C1769 C1770 1.523 . S
C1770 C1754 1.368 . S
C1770 C1766 1.368 . S
C1770 C1769 1.523 . S
H1771 C1746 0.950 . S
H1772 C1748 0.950 . S
H1773 C1749 0.949 . S
H1774 C1751 0.950 . S
H1775 C1753 0.950 . S
C337 C137 0.940 . S
C342 C11 0.940 . S
C367 C25 0.940 . S
C372 C151 0.940 . S
C397 C39 0.940 . S
C402 C165 0.940 . S
C427 C53 0.940 . S
C432 C123 0.940 . S
C457 C67 0.940 . S
C462 C221 0.940 . S
C487 C179 0.940 . S
C492 C81 0.940 . S
C517 C95 0.940 . S
C522 C193 0.940 . S
C547 C207 0.940 . S
C552 C109 0.940 . S
C577 C235 0.940 . S
C582 C263 0.940 . S
C607 C319 0.940 . S
C612 C249 0.940 . S
C637 C277 0.940 . S
C642 C333 0.940 . S
C667 C305 0.940 . S
C672 C291 0.940 . S
C697 C293 1.383 . S
C702 C13 1.383 . S
C727 C27 1.383 . S
C732 C251 1.383 . S
C757 C41 1.383 . S
C762 C265 1.383 . S
C787 C55 1.383 . S
C792 C279 1.383 . S
C817 C69 1.383 . S
C822 C335 1.383 . S
C847 C307 1.383 . S
C852 C83 1.383 . S
C877 C321 1.383 . S
C882 C97 1.383 . S
C907 C237 1.383 . S
C912 C111 1.383 . S
C937 C223 1.383 . S
C942 C125 1.383 . S
C967 C139 1.383 . S
C972 C181 1.383 . S
C997 C195 1.383 . S
C1002 C153 1.383 . S
C1027 C209 1.383 . S
C1032 C167 1.383 . S
C1057 C8 0.704 . S
C1062 C231 0.679 . S
C1087 C329 0.679 . S
C1092 C22 0.704 . S
C1117 C301 0.680 . S
C1122 C36 0.704 . S
C1147 C50 0.704 . S
C1152 C315 0.679 . S
C1177 C64 0.704 . S
C1182 C245 0.679 . S
C1207 C259 0.679 . S
C1212 C78 0.704 . S
C1237 C273 0.679 . S
C1242 C92 0.704 . S
C1267 C287 0.679 . S
C1272 C106 0.704 . S
C1297 C7 0.679 . S
C1302 C120 0.704 . S
C1327 C21 0.679 . S
C1332 C134 0.704 . S
C1357 C35 0.679 . S
C1362 C148 0.704 . S
C1387 C49 0.679 . S
C1392 C162 0.704 . S
C1417 C63 0.680 . S
C1422 C176 0.704 . S
C1447 C77 0.679 . S
C1452 C190 0.704 . S
C1477 C204 0.704 . S
C1482 C91 0.679 . S
C1507 C105 0.679 . S
C1512 C218 0.704 . S
C1537 C119 0.679 . S
C1542 C232 0.704 . S
C1567 C246 0.704 . S
C1572 C175 0.679 . S
C1597 C189 0.679 . S
C1602 C260 0.704 . S
C1627 C274 0.704 . S
C1632 C203 0.680 . S
C1657 C288 0.704 . S
C1662 C217 0.679 . S
C1687 C302 0.704 . S
C1692 C147 0.679 . S
C1717 C161 0.679 . S
C1722 C316 0.704 . S
C1747 C330 0.704 . S
C1752 C133 0.679 . S
