# Generated by pormake.
# Topology cag, (4)-cn, num edge types: 1
# Building blocks:
#     Node 0, Type 0, BuildingBlock: NAHDIM_clean_sbu_0, # of connection points: 4
#     Node 1, Type 0, BuildingBlock: NAHDIM_clean_sbu_0, # of connection points: 4
#     Node 2, Type 0, BuildingBlock: NAHDIM_clean_sbu_0, # of connection points: 4
#     Node 3, Type 0, BuildingBlock: NAHDIM_clean_sbu_0, # of connection points: 4
#     Node 4, Type 0, BuildingBlock: NAHDIM_clean_sbu_0, # of connection points: 4
#     Node 5, Type 0, BuildingBlock: NAHDIM_clean_sbu_0, # of connection points: 4
#     Node 6, Type 0, BuildingBlock: NAHDIM_clean_sbu_0, # of connection points: 4
#     Node 7, Type 0, BuildingBlock: NAHDIM_clean_sbu_0, # of connection points: 4
#     Node 8, Type 0, BuildingBlock: NAHDIM_clean_sbu_0, # of connection points: 4
#     Node 9, Type 0, BuildingBlock: NAHDIM_clean_sbu_0, # of connection points: 4
#     Node 10, Type 0, BuildingBlock: NAHDIM_clean_sbu_0, # of connection points: 4
#     Node 11, Type 0, BuildingBlock: NAHDIM_clean_sbu_0, # of connection points: 4
#     Node 12, Type 0, BuildingBlock: NAHDIM_clean_sbu_0, # of connection points: 4
#     Node 13, Type 0, BuildingBlock: NAHDIM_clean_sbu_0, # of connection points: 4
#     Node 14, Type 0, BuildingBlock: NAHDIM_clean_sbu_0, # of connection points: 4
#     Node 15, Type 0, BuildingBlock: NAHDIM_clean_sbu_0, # of connection points: 4
#     Edge 16, Type (0, 0), BuildingBlock: AJUNOK_clean_linker_0, # of connection points: 2
#     Edge 17, Type (0, 0), BuildingBlock: AJUNOK_clean_linker_0, # of connection points: 2
#     Edge 18, Type (0, 0), BuildingBlock: AJUNOK_clean_linker_0, # of connection points: 2
#     Edge 19, Type (0, 0), BuildingBlock: AJUNOK_clean_linker_0, # of connection points: 2
#     Edge 20, Type (0, 0), BuildingBlock: AJUNOK_clean_linker_0, # of connection points: 2
#     Edge 21, Type (0, 0), BuildingBlock: AJUNOK_clean_linker_0, # of connection points: 2
#     Edge 22, Type (0, 0), BuildingBlock: AJUNOK_clean_linker_0, # of connection points: 2
#     Edge 23, Type (0, 0), BuildingBlock: AJUNOK_clean_linker_0, # of connection points: 2
#     Edge 24, Type (0, 0), BuildingBlock: AJUNOK_clean_linker_0, # of connection points: 2
#     Edge 25, Type (0, 0), BuildingBlock: AJUNOK_clean_linker_0, # of connection points: 2
#     Edge 26, Type (0, 0), BuildingBlock: AJUNOK_clean_linker_0, # of connection points: 2
#     Edge 27, Type (0, 0), BuildingBlock: AJUNOK_clean_linker_0, # of connection points: 2
#     Edge 28, Type (0, 0), BuildingBlock: AJUNOK_clean_linker_0, # of connection points: 2
#     Edge 29, Type (0, 0), BuildingBlock: AJUNOK_clean_linker_0, # of connection points: 2
#     Edge 30, Type (0, 0), BuildingBlock: AJUNOK_clean_linker_0, # of connection points: 2
#     Edge 31, Type (0, 0), BuildingBlock: AJUNOK_clean_linker_0, # of connection points: 2
#     Edge 32, Type (0, 0), BuildingBlock: AJUNOK_clean_linker_0, # of connection points: 2
#     Edge 33, Type (0, 0), BuildingBlock: AJUNOK_clean_linker_0, # of connection points: 2
#     Edge 34, Type (0, 0), BuildingBlock: AJUNOK_clean_linker_0, # of connection points: 2
#     Edge 35, Type (0, 0), BuildingBlock: AJUNOK_clean_linker_0, # of connection points: 2
#     Edge 36, Type (0, 0), BuildingBlock: AJUNOK_clean_linker_0, # of connection points: 2
#     Edge 37, Type (0, 0), BuildingBlock: AJUNOK_clean_linker_0, # of connection points: 2
#     Edge 38, Type (0, 0), BuildingBlock: AJUNOK_clean_linker_0, # of connection points: 2
#     Edge 39, Type (0, 0), BuildingBlock: AJUNOK_clean_linker_0, # of connection points: 2
#     Edge 40, Type (0, 0), BuildingBlock: AJUNOK_clean_linker_0, # of connection points: 2
#     Edge 41, Type (0, 0), BuildingBlock: AJUNOK_clean_linker_0, # of connection points: 2
#     Edge 42, Type (0, 0), BuildingBlock: AJUNOK_clean_linker_0, # of connection points: 2
#     Edge 43, Type (0, 0), BuildingBlock: AJUNOK_clean_linker_0, # of connection points: 2
#     Edge 44, Type (0, 0), BuildingBlock: AJUNOK_clean_linker_0, # of connection points: 2
#     Edge 45, Type (0, 0), BuildingBlock: AJUNOK_clean_linker_0, # of connection points: 2
#     Edge 46, Type (0, 0), BuildingBlock: AJUNOK_clean_linker_0, # of connection points: 2
#     Edge 47, Type (0, 0), BuildingBlock: AJUNOK_clean_linker_0, # of connection points: 2
# Relax obj value: 0.040
# Max RMSD: 0.072
# Mean RMSD: 0.071
data_MOF--net-cag--node1-NAHDIM_clean_sbu_0--edge1-AJUNOK_clean_linker_0
_symmetry_space_group_name_H-M    P1
_symmetry_Int_Tables_number       1
_symmetry_cell_setting            triclinic
loop_
_symmetry_equiv_pos_as_xyz
'x, y, z'
_cell_length_a     30.824934
_cell_length_b     37.253841
_cell_length_c     31.807066
_cell_angle_alpha  90.06206
_cell_angle_beta   89.942625
_cell_angle_gamma 90.080229
loop_
_atom_site_label
_atom_site_type_symbol
_atom_site_fract_x
_atom_site_fract_y
_atom_site_fract_z
_atom_type_partial_charge
C0 C 0.278 0.20627 0.03382 0.0
O1 O 0.31125 0.19346 0.01274 0.0
O2 O 0.36328 0.15638 0.08616 0.0
Zn3 Zn 0.29868 0.14722 0.08883 0.0
O4 O 0.28167 0.13923 0.14943 0.0
C5 C 0.29316 0.07224 0.06259 0.0
O6 O 0.30768 0.06602 0.10071 0.0
O7 O 0.26648 0.19064 0.06751 0.0
C8 C 0.24962 0.12068 0.16208 0.0
O9 O 0.22508 0.10422 0.13432 0.0
C10 C 0.38838 0.14048 0.11178 0.0
O11 O 0.37132 0.11894 0.13998 0.0
O12 O 0.28569 0.10444 0.05157 0.0
C13 C 0.2301 0.79746 0.58312 0.0
O14 O 0.2138 0.79386 0.62106 0.0
O15 O 0.12682 0.85 0.59002 0.0
Zn16 Zn 0.18905 0.86614 0.59029 0.0
O17 O 0.20875 0.8749 0.64994 0.0
C18 C 0.20686 0.94121 0.56673 0.0
O19 O 0.22172 0.94465 0.60518 0.0
O20 O 0.2244 0.82688 0.5637 0.0
C21 C 0.2486 0.87883 0.65908 0.0
O22 O 0.27749 0.87788 0.62869 0.0
C23 C 0.09757 0.86779 0.60887 0.0
O24 O 0.10883 0.89655 0.63022 0.0
O25 O 0.19245 0.91092 0.55465 0.0
C26 C 0.28353 0.82553 0.98435 0.0
O27 O 0.29737 0.84996 0.01097 0.0
O28 O 0.37473 0.87653 0.92457 0.0
Zn29 Zn 0.30948 0.87837 0.92211 0.0
O30 O 0.28775 0.88293 0.86239 0.0
C31 C 0.29393 0.95234 0.94483 0.0
O32 O 0.30624 0.95762 0.90579 0.0
O33 O 0.2856 0.83205 0.9452 0.0
C34 C 0.30974 0.89495 0.83162 0.0
O35 O 0.34919 0.90701 0.83839 0.0
C36 C 0.39884 0.85636 0.90236 0.0
O37 O 0.381 0.83463 0.87478 0.0
O38 O 0.29112 0.92033 0.95841 0.0
C39 C 0.20989 0.21098 0.44574 0.0
O40 O 0.17873 0.21566 0.41813 0.0
O41 O 0.1281 0.14309 0.43147 0.0
Zn42 Zn 0.19301 0.13712 0.42601 0.0
O43 O 0.21218 0.13565 0.36516 0.0
C44 C 0.18403 0.06528 0.45783 0.0
O45 O 0.14798 0.06667 0.4359 0.0
O46 O 0.22189 0.1792 0.45427 0.0
C47 C 0.20492 0.10985 0.33991 0.0
O48 O 0.18351 0.08161 0.35336 0.0
C49 C 0.10118 0.14452 0.40129 0.0
O50 O 0.11551 0.14284 0.36244 0.0
O51 O 0.20963 0.09206 0.45727 0.0
C52 C 0.69827 0.86186 0.82484 0.0
O53 O 0.66336 0.84159 0.82422 0.0
O54 O 0.61307 0.86048 0.9008 0.0
Zn55 Zn 0.67648 0.86906 0.91323 0.0
O56 O 0.70087 0.82639 0.94443 0.0
C57 C 0.66277 0.94235 0.93461 0.0
O58 O 0.6419 0.94072 0.89865 0.0
O59 O 0.70983 0.87618 0.85934 0.0
C60 C 0.70237 0.82551 0.98436 0.0
O61 O 0.68765 0.85314 0.00569 0.0
C62 C 0.58547 0.86539 0.92994 0.0
O63 O 0.59933 0.87523 0.96727 0.0
O64 O 0.6816 0.91428 0.948 0.0
C65 C 0.7856 0.14798 0.34004 0.0
O66 O 0.79704 0.17897 0.35643 0.0
O67 O 0.88965 0.13036 0.40364 0.0
Zn68 Zn 0.82615 0.12227 0.41514 0.0
O69 O 0.80276 0.16378 0.4491 0.0
C70 C 0.83327 0.04724 0.4276 0.0
O71 O 0.85013 0.05048 0.38985 0.0
O72 O 0.79449 0.11938 0.35992 0.0
C73 C 0.79651 0.16233 0.48857 0.0
O74 O 0.80517 0.13236 0.50854 0.0
C75 C 0.91522 0.13761 0.4338 0.0
O76 O 0.89927 0.14 0.47199 0.0
O77 O 0.81948 0.07531 0.44598 0.0
C78 C 0.69687 0.1481 0.17813 0.0
O79 O 0.67952 0.17827 0.165 0.0
O80 O 0.60136 0.13132 0.10876 0.0
Zn81 Zn 0.66577 0.12651 0.09824 0.0
O82 O 0.69132 0.17098 0.0713 0.0
C83 C 0.64962 0.07353 0.03405 0.0
O84 O 0.61587 0.09423 0.02735 0.0
O85 O 0.69501 0.12069 0.15437 0.0
C86 C 0.69137 0.17786 0.03217 0.0
O87 O 0.6731 0.15507 0.0061 0.0
C88 C 0.57577 0.15242 0.08958 0.0
O89 O 0.5914 0.17388 0.06053 0.0
O90 O 0.67644 0.08224 0.06267 0.0
C91 C 0.79858 0.87834 0.67018 0.0
O92 O 0.83459 0.89717 0.66846 0.0
O93 O 0.8861 0.8601 0.60038 0.0
Zn94 Zn 0.82269 0.86171 0.58483 0.0
O95 O 0.80627 0.81885 0.54897 0.0
C96 C 0.83403 0.91091 0.5178 0.0
O97 O 0.85824 0.88407 0.5049 0.0
O98 O 0.78648 0.86126 0.63761 0.0
C99 C 0.77728 0.82162 0.52076 0.0
O100 O 0.75767 0.85259 0.51567 0.0
C101 C 0.91354 0.84002 0.58203 0.0
O102 O 0.90003 0.81791 0.55264 0.0
O103 O 0.81381 0.90776 0.55247 0.0
C104 C 0.77872 0.70039 0.06609 0.0
O105 O 0.79592 0.70269 0.10376 0.0
O106 O 0.87801 0.64134 0.07145 0.0
Zn107 Zn 0.81395 0.6304 0.07452 0.0
O108 O 0.795 0.62744 0.13515 0.0
C109 C 0.81763 0.55464 0.06256 0.0
O110 O 0.83727 0.55752 0.09905 0.0
O111 O 0.78185 0.67088 0.04616 0.0
C112 C 0.75668 0.61805 0.14492 0.0
O113 O 0.72942 0.60962 0.11473 0.0
C114 C 0.90408 0.63417 0.10119 0.0
O115 O 0.8889 0.61925 0.13561 0.0
O116 O 0.80327 0.58297 0.04521 0.0
C117 C 0.72981 0.28981 0.57351 0.0
O118 O 0.71146 0.28808 0.61075 0.0
O119 O 0.6371 0.35394 0.58121 0.0
Zn120 Zn 0.70168 0.36219 0.58208 0.0
O121 O 0.72221 0.36647 0.64208 0.0
C122 C 0.69922 0.41115 0.51327 0.0
O123 O 0.67737 0.38427 0.49684 0.0
O124 O 0.7303 0.31976 0.55438 0.0
C125 C 0.72865 0.39659 0.65987 0.0
O126 O 0.72214 0.42616 0.63834 0.0
C127 C 0.61164 0.37348 0.60276 0.0
O128 O 0.62819 0.39907 0.62623 0.0
O129 O 0.71443 0.40769 0.55013 0.0
C130 C 0.78329 0.30526 0.97309 0.0
O131 O 0.81562 0.31771 0.99571 0.0
O132 O 0.87221 0.35088 0.91368 0.0
Zn133 Zn 0.80806 0.36179 0.91385 0.0
O134 O 0.78883 0.36729 0.85366 0.0
C135 C 0.82024 0.4154 0.97833 0.0
O136 O 0.84897 0.39191 0.99136 0.0
O137 O 0.77438 0.32031 0.93835 0.0
C138 C 0.78193 0.3973 0.83592 0.0
O139 O 0.78715 0.42698 0.85767 0.0
C140 C 0.8969 0.3743 0.89714 0.0
O141 O 0.87925 0.40352 0.88173 0.0
O142 O 0.79761 0.40797 0.94606 0.0
C143 C 0.72532 0.69587 0.42363 0.0
O144 O 0.711 0.69836 0.38488 0.0
O145 O 0.63404 0.62613 0.41541 0.0
Zn146 Zn 0.69918 0.62305 0.41035 0.0
O147 O 0.71909 0.62363 0.34956 0.0
C148 C 0.69667 0.54826 0.42536 0.0
O149 O 0.66909 0.5512 0.39411 0.0
O150 O 0.72495 0.66533 0.44147 0.0
C151 C 0.69598 0.61306 0.31883 0.0
O152 O 0.65674 0.60081 0.32625 0.0
C153 C 0.60894 0.64716 0.39555 0.0
O154 O 0.6254 0.6696 0.368 0.0
O155 O 0.71616 0.57634 0.4381 0.0
C156 C 0.20374 0.35486 0.82204 0.0
O157 O 0.1885 0.32579 0.84018 0.0
O158 O 0.10954 0.38088 0.89404 0.0
Zn159 Zn 0.17444 0.38518 0.8993 0.0
O160 O 0.20128 0.34456 0.9323 0.0
C161 C 0.20186 0.44134 0.96045 0.0
O162 O 0.21825 0.41538 0.98336 0.0
O163 O 0.20081 0.3846 0.84144 0.0
C164 C 0.18847 0.3322 0.96742 0.0
O165 O 0.15499 0.34711 0.98607 0.0
C166 C 0.08462 0.35415 0.89989 0.0
O167 O 0.10129 0.32308 0.91071 0.0
O168 O 0.18445 0.4338 0.92535 0.0
C169 C 0.29232 0.66633 0.3439 0.0
O170 O 0.30644 0.6964 0.36065 0.0
O171 O 0.3951 0.64676 0.40531 0.0
Zn172 Zn 0.33193 0.63807 0.41771 0.0
O173 O 0.30869 0.67817 0.45369 0.0
C174 C 0.33986 0.56265 0.42787 0.0
O175 O 0.35736 0.56658 0.39047 0.0
O176 O 0.29943 0.63703 0.36306 0.0
C177 C 0.30839 0.67714 0.49362 0.0
O178 O 0.32395 0.64869 0.51271 0.0
C179 C 0.42384 0.63738 0.43166 0.0
O180 O 0.41149 0.62263 0.46723 0.0
O181 O 0.32537 0.5903 0.4466 0.0
C182 C 0.20559 0.66244 0.18122 0.0
O183 O 0.18629 0.69071 0.16521 0.0
O184 O 0.11573 0.63557 0.10742 0.0
Zn185 Zn 0.18096 0.63535 0.10182 0.0
O186 O 0.20244 0.68147 0.07556 0.0
C187 C 0.17899 0.58262 0.0359 0.0
O188 O 0.14776 0.60362 0.02249 0.0
O189 O 0.20676 0.63367 0.15973 0.0
C190 C 0.21687 0.68631 0.03859 0.0
O191 O 0.21753 0.65927 0.01207 0.0
C192 C 0.09104 0.65385 0.08369 0.0
O193 O 0.1085 0.67426 0.05457 0.0
O194 O 0.19909 0.59116 0.06933 0.0
C195 C 0.29295 0.35127 0.66021 0.0
O196 O 0.30792 0.32124 0.64416 0.0
O197 O 0.3979 0.37656 0.60043 0.0
Zn198 Zn 0.33416 0.37877 0.5868 0.0
O199 O 0.31521 0.33541 0.55346 0.0
C200 C 0.34175 0.42591 0.51702 0.0
O201 O 0.36356 0.39817 0.50279 0.0
O202 O 0.30022 0.38051 0.64086 0.0
C203 C 0.27998 0.33617 0.53279 0.0
O204 O 0.25708 0.36589 0.53263 0.0
C205 C 0.42486 0.35738 0.58024 0.0
O206 O 0.41064 0.33659 0.54982 0.0
O207 O 0.3245 0.42385 0.55325 0.0
C208 C 0.26798 0.25512 0.98077 0.0
C209 C 0.25451 0.23852 0.0183 0.0
C210 C 0.24661 0.28538 0.96496 0.0
C211 C 0.21075 0.30052 0.98594 0.0
H212 H 0.29529 0.24466 0.96317 0.0
H213 H 0.25839 0.29686 0.93583 0.0
S214 S 0.1625 0.26756 0.08579 0.0
N215 N 0.20296 0.23972 0.07636 0.0
N216 N 0.16283 0.29659 0.04663 0.0
C217 C 0.19697 0.28436 0.02368 0.0
C218 C 0.21879 0.25341 0.03983 0.0
C219 C 0.2788 0.73957 0.49688 0.0
C220 C 0.29009 0.70768 0.51789 0.0
C221 C 0.26035 0.76859 0.51841 0.0
C222 C 0.25204 0.76694 0.56188 0.0
H223 H 0.28402 0.74222 0.46334 0.0
H224 H 0.25186 0.79228 0.50052 0.0
S225 S 0.2769 0.69011 0.63215 0.0
N226 N 0.29269 0.6766 0.58513 0.0
N227 N 0.25782 0.73109 0.62555 0.0
C228 C 0.26375 0.73545 0.58351 0.0
C229 C 0.28282 0.70588 0.56157 0.0
C230 C 0.25692 0.76309 0.97011 0.0
C231 C 0.26626 0.7905 0.99932 0.0
C232 C 0.24104 0.7296 0.98309 0.0
C233 C 0.23346 0.72214 0.0258 0.0
H234 H 0.26215 0.76735 0.9368 0.0
H235 H 0.2345 0.70949 0.95931 0.0
S236 S 0.25257 0.78455 0.11518 0.0
N237 N 0.26671 0.80775 0.07316 0.0
N238 N 0.23676 0.74499 0.09751 0.0
C239 C 0.24246 0.74932 0.05542 0.0
C240 C 0.2589 0.7834 0.04221 0.0
C241 C 0.22841 0.30679 0.48274 0.0
C242 C 0.26406 0.30387 0.51012 0.0
C243 C 0.21163 0.27674 0.46178 0.0
C244 C 0.22956 0.24237 0.46747 0.0
H245 H 0.21309 0.33254 0.47742 0.0
H246 H 0.18397 0.28057 0.44129 0.0
S247 S 0.32382 0.22008 0.53532 0.0
N248 N 0.31729 0.26375 0.54136 0.0
N249 N 0.28568 0.20727 0.50213 0.0
C250 C 0.26555 0.23903 0.49448 0.0
C251 C 0.28281 0.26974 0.5157 0.0
C252 C 0.74927 0.73242 0.00298 0.0
C253 C 0.75785 0.73215 0.04643 0.0
C254 C 0.73129 0.76261 0.98333 0.0
C255 C 0.72076 0.79375 0.00631 0.0
H256 H 0.75709 0.7093 0.98375 0.0
H257 H 0.72571 0.76145 0.94973 0.0
S258 S 0.73519 0.8064 0.12136 0.0
N259 N 0.75331 0.76548 0.11215 0.0
N260 N 0.71943 0.82205 0.07533 0.0
C261 C 0.72851 0.79365 0.04996 0.0
C262 C 0.74707 0.76295 0.06994 0.0
C263 C 0.7749 0.22711 0.48993 0.0
C264 C 0.78009 0.19438 0.51146 0.0
C265 C 0.75924 0.25782 0.51037 0.0
C266 C 0.74782 0.25712 0.55321 0.0
H267 H 0.78293 0.22918 0.45685 0.0
H268 H 0.75561 0.28219 0.49218 0.0
S269 S 0.75624 0.17845 0.62444 0.0
N270 N 0.77325 0.16339 0.57849 0.0
N271 N 0.74372 0.22101 0.61684 0.0
C272 C 0.75316 0.22467 0.57531 0.0
C273 C 0.76932 0.19338 0.55449 0.0
C274 C 0.76373 0.26052 0.0287 0.0
C275 C 0.75834 0.27336 0.98745 0.0
C276 C 0.74149 0.23001 0.04293 0.0
C277 C 0.71324 0.21077 0.01639 0.0
H278 H 0.78536 0.27409 0.05033 0.0
H279 H 0.74708 0.2212 0.07492 0.0
S280 S 0.68685 0.2335 0.90569 0.0
N281 N 0.72178 0.26471 0.92033 0.0
N282 N 0.68032 0.20729 0.94702 0.0
C283 C 0.70721 0.22344 0.97514 0.0
C284 C 0.72961 0.25472 0.96072 0.0
C285 C 0.77502 0.75519 0.50838 0.0
C286 C 0.76505 0.79013 0.4947 0.0
C287 C 0.76233 0.72493 0.48511 0.0
C288 C 0.7397 0.72839 0.4469 0.0
H289 H 0.7921 0.75106 0.53773 0.0
H290 H 0.7703 0.69861 0.49729 0.0
S291 S 0.70745 0.81412 0.3962 0.0
N292 N 0.73228 0.82651 0.43982 0.0
N293 N 0.70881 0.76984 0.39594 0.0
C294 C 0.73033 0.76325 0.43241 0.0
C295 C 0.74286 0.79404 0.45634 0.0
C296 C 0.2911 0.00648 0.04615 0.0
C297 C 0.28888 0.04222 0.032 0.0
C298 C 0.29086 0.97757 0.01785 0.0
C299 C 0.28891 0.98319 0.97412 0.0
H300 H 0.29382 1.00067 0.07941 0.0
H301 H 0.29375 0.95067 0.03041 0.0
S302 S 0.27943 0.07142 0.92071 0.0
N303 N 0.28205 0.08147 0.9712 0.0
N304 N 0.28201 0.02722 0.91812 0.0
C305 C 0.28515 0.01872 0.95955 0.0
C306 C 0.285 0.04818 0.98842 0.0
C307 C 0.17693 0.97119 0.50272 0.0
C308 C 0.20394 0.97274 0.53835 0.0
C309 C 0.17136 1.00106 0.4766 0.0
C310 C 0.19302 0.0336 0.48461 0.0
H311 H 0.15904 0.94695 0.49536 0.0
H312 H 0.14959 0.99863 0.45002 0.0
S313 S 0.26903 0.05141 0.57273 0.0
N314 N 0.25369 0.00934 0.57956 0.0
N315 N 0.24357 0.06537 0.53015 0.0
C316 C 0.22108 0.03532 0.51946 0.0
C317 C 0.22639 0.00495 0.54641 0.0
C318 C 0.63381 0.0039 0.94822 0.0
C319 C 0.66183 0.97587 0.95997 0.0
C320 C 0.63055 0.03533 0.97217 0.0
C321 C 0.65543 0.04033 0.00878 0.0
H322 H 0.61357 1.00146 0.92054 0.0
H323 H 0.60811 0.05585 0.96183 0.0
S324 S 0.73483 0.97561 0.05282 0.0
N325 N 0.71571 0.95546 0.01045 0.0
N326 N 0.70981 0.01471 0.05533 0.0
C327 C 0.68424 0.01282 0.0206 0.0
C328 C 0.68734 0.98057 0.9963 0.0
C329 C 0.81508 0.00897 0.49011 0.0
C330 C 0.83193 0.01179 0.44905 0.0
C331 C 0.81504 0.97616 0.51173 0.0
C332 C 0.83205 0.94481 0.49331 0.0
H333 H 0.80222 0.03238 0.50601 0.0
H334 H 0.80231 0.9756 0.54348 0.0
S335 S 0.87759 0.93703 0.3855 0.0
N336 N 0.86431 0.97974 0.39011 0.0
N337 N 0.86433 0.91831 0.43072 0.0
C338 C 0.84812 0.94703 0.45194 0.0
C339 C 0.84802 0.98041 0.42985 0.0
C340 C 0.83778 0.45619 0.03841 0.0
C341 C 0.81635 0.45069 0.9999 0.0
C342 C 0.83708 0.48959 0.05864 0.0
C343 C 0.81516 0.51915 0.04118 0.0
H344 H 0.85573 0.43459 0.05306 0.0
H345 H 0.85467 0.49228 0.08794 0.0
S346 S 0.75239 0.5188 0.94153 0.0
N347 N 0.77127 0.4775 0.94558 0.0
N348 N 0.77014 0.54036 0.98352 0.0
C349 C 0.79279 0.51393 0.00305 0.0
C350 C 0.79331 0.47973 0.98248 0.0
C351 C 0.68198 0.44961 0.4512 0.0
C352 C 0.70272 0.44579 0.49032 0.0
C353 C 0.68143 0.48255 0.4301 0.0
C354 C 0.70169 0.5132 0.44705 0.0
H355 H 0.66509 0.42718 0.43698 0.0
H356 H 0.66418 0.48402 0.40049 0.0
S357 S 0.76311 0.51716 0.54735 0.0
N358 N 0.74606 0.47522 0.5443 0.0
N359 N 0.74505 0.53717 0.50453 0.0
C360 C 0.72393 0.50956 0.48546 0.0
C361 C 0.72441 0.47589 0.5071 0.0
C362 C 0.21083 0.52071 0.0354 0.0
C363 C 0.1881 0.54806 0.01435 0.0
C364 C 0.21625 0.48665 0.01725 0.0
C365 C 0.19943 0.47862 0.97718 0.0
H366 H 0.2234 0.52519 0.06676 0.0
H367 H 0.23291 0.46626 0.0353 0.0
S368 S 0.14123 0.54221 0.90706 0.0
N369 N 0.15144 0.56568 0.94995 0.0
N370 N 0.16175 0.50201 0.9157 0.0
C371 C 0.1783 0.50631 0.955 0.0
C372 C 0.17258 0.5409 0.97361 0.0
C373 C 0.32061 0.52355 0.48919 0.0
C374 C 0.33889 0.52701 0.44881 0.0
C375 C 0.32091 0.49066 0.51055 0.0
C376 C 0.33961 0.45981 0.49253 0.0
H377 H 0.30633 0.54653 0.5048 0.0
H378 H 0.30693 0.48967 0.54179 0.0
S379 S 0.39011 0.45393 0.38661 0.0
N380 N 0.37496 0.49623 0.39097 0.0
N381 N 0.37555 0.43456 0.43107 0.0
C382 C 0.35723 0.46266 0.45178 0.0
C383 C 0.35686 0.49618 0.42997 0.0
C384 C 0.4993 0.16819 0.07028 0.0
C385 C 0.5283 0.15077 0.09764 0.0
C386 C 0.45426 0.16522 0.07553 0.0
C387 C 0.43624 0.14477 0.10844 0.0
H388 H 0.51137 0.18372 0.04397 0.0
H389 H 0.43345 0.17866 0.0531 0.0
S390 S 0.49805 0.09602 0.19077 0.0
N391 N 0.53568 0.11385 0.16032 0.0
N392 N 0.45124 0.10831 0.17023 0.0
C393 C 0.46489 0.12804 0.13679 0.0
C394 C 0.51078 0.13102 0.13138 0.0
C395 C 0.97476 0.87249 0.61718 0.0
C396 C 0.96058 0.8443 0.59103 0.0
C397 C 0.019 0.87923 0.62355 0.0
C398 C 0.05104 0.85802 0.60416 0.0
H399 H 0.95157 0.89019 0.63218 0.0
H400 H 0.02801 0.90177 0.64324 0.0
S401 S 0.03123 0.7789 0.53547 0.0
N402 N 0.9823 0.79358 0.54759 0.0
N403 N 0.06537 0.80613 0.55961 0.0
C404 C 0.03736 0.82887 0.57914 0.0
C405 C 0.99222 0.82206 0.57256 0.0
C406 C 0.46372 0.87255 0.94532 0.0
C407 C 0.44656 0.85751 0.9083 0.0
C408 C 0.50852 0.87449 0.95206 0.0
C409 C 0.53821 0.86185 0.92188 0.0
H410 H 0.44238 0.88283 0.96958 0.0
H411 H 0.51985 0.88643 0.98112 0.0
S412 S 0.51015 0.82024 0.81924 0.0
N413 N 0.46281 0.82967 0.84089 0.0
N414 N 0.54716 0.83361 0.85335 0.0
C415 C 0.52157 0.8467 0.88461 0.0
C416 C 0.47576 0.84442 0.87791 0.0
C417 C 0.02425 0.13681 0.37779 0.0
C418 C 0.05386 0.14526 0.40996 0.0
C419 C 0.97956 0.13496 0.38568 0.0
C420 C 0.96254 0.14161 0.42605 0.0
H421 H 0.03565 0.13075 0.34635 0.0
H422 H 0.95831 0.12768 0.35993 0.0
S423 S 0.02601 0.16786 0.5205 0.0
N424 N 0.06277 0.16242 0.48329 0.0
N425 N 0.97889 0.15908 0.49812 0.0
C426 C 0.9917 0.15116 0.45826 0.0
C427 C 0.03727 0.15295 0.45023 0.0
C428 C 0.02537 0.63151 0.12198 0.0
C429 C 0.04316 0.65072 0.08797 0.0
C430 C 0.98047 0.62685 0.12624 0.0
C431 C 0.95135 0.64099 0.09654 0.0
H432 H 0.04626 0.61969 0.14556 0.0
H433 H 0.96866 0.61153 0.15282 0.0
S434 S 0.98093 0.69453 0.00225 0.0
N435 N 0.02783 0.68485 0.02447 0.0
N436 N 0.94352 0.67599 0.0324 0.0
C437 C 0.96858 0.66073 0.06263 0.0
C438 C 0.01439 0.66564 0.05839 0.0
C439 C 0.54669 0.34489 0.56925 0.0
C440 C 0.56392 0.36851 0.59955 0.0
C441 C 0.50182 0.34096 0.56391 0.0
C442 C 0.47216 0.36041 0.58869 0.0
H443 H 0.568 0.32969 0.54883 0.0
H444 H 0.49042 0.32289 0.5396 0.0
S445 S 0.50035 0.42404 0.67455 0.0
N446 N 0.54762 0.41039 0.65617 0.0
N447 N 0.46338 0.40299 0.64623 0.0
C448 C 0.4889 0.38341 0.61996 0.0
C449 C 0.53468 0.38747 0.62534 0.0
C450 C 0.00856 0.33291 0.9135 0.0
C451 C 0.03687 0.35896 0.89688 0.0
C452 C 0.96343 0.33793 0.91317 0.0
C453 C 0.94473 0.36914 0.89602 0.0
H454 H 0.0213 0.30868 0.92763 0.0
H455 H 0.94312 0.31727 0.92687 0.0
S456 S 0.0045 0.44469 0.84618 0.0
N457 N 0.04273 0.41653 0.86111 0.0
N458 N 0.95829 0.42593 0.86046 0.0
C459 C 0.97266 0.39506 0.87844 0.0
C460 C 0.01857 0.38999 0.87888 0.0
C461 C 0.546 0.62698 0.43912 0.0
C462 C 0.56158 0.64598 0.40395 0.0
C463 C 0.5016 0.62483 0.44796 0.0
C464 C 0.4707 0.64133 0.42186 0.0
H465 H 0.56828 0.61359 0.46023 0.0
H466 H 0.49151 0.6097 0.47534 0.0
S467 S 0.4943 0.69458 0.3258 0.0
N468 N 0.54244 0.68192 0.3429 0.0
N469 N 0.45887 0.67773 0.35938 0.0
C470 C 0.48573 0.66059 0.38661 0.0
C471 C 0.53113 0.66297 0.37773 0.0
C472 C 0.2106 0.09173 0.22235 0.0
C473 C 0.23974 0.11801 0.2077 0.0
C474 C 0.20017 0.08892 0.26516 0.0
C475 C 0.21807 0.11255 0.29507 0.0
H476 H 0.19565 0.07305 0.2006 0.0
H477 H 0.17734 0.06836 0.27469 0.0
S478 S 0.29668 0.1859 0.2733 0.0
N479 N 0.28693 0.16789 0.22683 0.0
N480 N 0.26709 0.16279 0.30705 0.0
C481 C 0.24752 0.13883 0.28093 0.0
C482 C 0.25843 0.1415 0.23737 0.0
C483 C 0.32027 0.8983 0.75363 0.0
C484 C 0.29242 0.89266 0.78809 0.0
C485 C 0.30569 0.89405 0.71218 0.0
C486 C 0.26253 0.88424 0.70336 0.0
H487 H 0.35397 0.90541 0.75857 0.0
H488 H 0.32866 0.89833 0.68687 0.0
S489 S 0.17579 0.86778 0.78223 0.0
N490 N 0.21902 0.87777 0.8105 0.0
N491 N 0.19163 0.86994 0.73272 0.0
C492 C 0.234 0.87927 0.73748 0.0
C493 C 0.24892 0.88342 0.77976 0.0
C494 C 0.71115 0.85067 0.74818 0.0
C495 C 0.72407 0.86742 0.78584 0.0
C496 C 0.73515 0.85471 0.71104 0.0
C497 C 0.77316 0.8757 0.70984 0.0
H498 H 0.68233 0.83402 0.74727 0.0
H499 H 0.72381 0.84097 0.68309 0.0
S500 S 0.82064 0.92611 0.79961 0.0
N501 N 0.77716 0.90649 0.81941 0.0
N502 N 0.82219 0.91406 0.74969 0.0
C503 C 0.78625 0.893 0.74715 0.0
C504 C 0.76177 0.88886 0.78506 0.0
C505 C 0.74803 0.17881 0.28059 0.0
C506 C 0.76272 0.14672 0.29898 0.0
C507 C 0.72659 0.1788 0.24181 0.0
C508 C 0.71913 0.14674 0.2195 0.0
H509 H 0.75299 0.20431 0.29626 0.0
H510 H 0.71611 0.20434 0.22914 0.0
S511 S 0.75087 0.0552 0.25383 0.0
N512 N 0.76803 0.08178 0.29192 0.0
N513 N 0.7279 0.08181 0.2189 0.0
C514 C 0.73355 0.11436 0.23748 0.0
C515 C 0.75524 0.11434 0.27721 0.0
C516 C 0.68636 0.60292 0.24156 0.0
C517 C 0.71276 0.61458 0.275 0.0
C518 C 0.70091 0.60409 0.19983 0.0
C519 C 0.74257 0.61693 0.18962 0.0
H520 H 0.65399 0.59277 0.2475 0.0
H521 H 0.67915 0.59479 0.17541 0.0
S522 S 0.82468 0.65091 0.26538 0.0
N523 N 0.78283 0.63958 0.29494 0.0
N524 N 0.81017 0.64174 0.21661 0.0
C525 C 0.76945 0.62867 0.22273 0.0
C526 C 0.75457 0.62752 0.26532 0.0
C527 C 0.74946 0.36583 0.72674 0.0
C528 C 0.74251 0.39799 0.70459 0.0
C529 C 0.76214 0.36601 0.76898 0.0
C530 C 0.76844 0.39836 0.79108 0.0
H531 H 0.74504 0.3401 0.71142 0.0
H532 H 0.76697 0.3404 0.78437 0.0
S533 S 0.75476 0.49021 0.74769 0.0
N534 N 0.74306 0.4633 0.70803 0.0
N535 N 0.76688 0.46362 0.78744 0.0
C536 C 0.76169 0.43082 0.76937 0.0
C537 C 0.74877 0.43063 0.72619 0.0
C538 C 0.25985 0.38397 0.72114 0.0
C539 C 0.26906 0.35128 0.7008 0.0
C540 C 0.2385 0.38481 0.76006 0.0
C541 C 0.2252 0.35302 0.78023 0.0
H542 H 0.26964 0.40924 0.70721 0.0
H543 H 0.23259 0.41071 0.77446 0.0
S544 S 0.24011 0.26029 0.73957 0.0
N545 N 0.2622 0.28621 0.70335 0.0
N546 N 0.22205 0.28778 0.77632 0.0
C547 C 0.23361 0.32011 0.75995 0.0
C548 C 0.25554 0.31925 0.72035 0.0
C549 C 0.26064 0.63354 0.28241 0.0
C550 C 0.26938 0.66629 0.30288 0.0
C551 C 0.23991 0.63258 0.24325 0.0
C552 C 0.2267 0.66431 0.22305 0.0
H553 H 0.27024 0.60831 0.29649 0.0
H554 H 0.23418 0.60668 0.22877 0.0
S555 S 0.24151 0.75717 0.26331 0.0
N556 N 0.26286 0.73136 0.29997 0.0
N557 N 0.22382 0.72955 0.22652 0.0
C558 C 0.23488 0.69727 0.24327 0.0
C559 C 0.25625 0.69827 0.28309 0.0
loop_
_geom_bond_atom_site_label_1
_geom_bond_atom_site_label_2
_geom_bond_distance
_geom_bond_site_symmetry_2
_ccdc_geom_bond_type
C0 O1 1.160 . S
C0 O7 1.185 . S
O1 C0 1.160 . S
O2 Zn3 1.899 . S
O2 C10 1.284 . S
Zn3 O2 1.899 . S
Zn3 O4 2.032 . S
Zn3 O7 2.086 . S
Zn3 O12 1.977 . S
O4 Zn3 2.032 . S
O4 C8 1.278 . S
C5 O6 1.203 . S
C5 O12 1.267 . S
O6 C5 1.203 . S
O7 C0 1.185 . S
O7 Zn3 2.086 . S
C8 O4 1.278 . S
C8 O9 1.211 . S
O9 C8 1.211 . S
C10 O2 1.284 . S
C10 O11 1.273 . S
O11 C10 1.273 . S
O12 Zn3 1.977 . S
O12 C5 1.267 . S
C13 O14 1.160 . S
C13 O20 1.185 . S
O14 C13 1.160 . S
O15 Zn16 1.899 . S
O15 C23 1.284 . S
Zn16 O15 1.899 . S
Zn16 O17 2.032 . S
Zn16 O20 2.086 . S
Zn16 O25 1.977 . S
O17 Zn16 2.032 . S
O17 C21 1.278 . S
C18 O19 1.203 . S
C18 O25 1.267 . S
O19 C18 1.203 . S
O20 C13 1.185 . S
O20 Zn16 2.086 . S
C21 O17 1.278 . S
C21 O22 1.211 . S
O22 C21 1.211 . S
C23 O15 1.284 . S
C23 O24 1.273 . S
O24 C23 1.273 . S
O25 Zn16 1.977 . S
O25 C18 1.267 . S
C26 O27 1.160 . S
C26 O33 1.185 . S
O27 C26 1.160 . S
O28 Zn29 1.899 . S
O28 C36 1.284 . S
Zn29 O28 1.899 . S
Zn29 O30 2.032 . S
Zn29 O33 2.086 . S
Zn29 O38 1.977 . S
O30 Zn29 2.032 . S
O30 C34 1.278 . S
C31 O32 1.203 . S
C31 O38 1.267 . S
O32 C31 1.203 . S
O33 C26 1.185 . S
O33 Zn29 2.086 . S
C34 O30 1.278 . S
C34 O35 1.211 . S
O35 C34 1.211 . S
C36 O28 1.284 . S
C36 O37 1.273 . S
O37 C36 1.273 . S
O38 Zn29 1.977 . S
O38 C31 1.267 . S
C39 O40 1.160 . S
C39 O46 1.185 . S
O40 C39 1.160 . S
O41 Zn42 1.899 . S
O41 C49 1.284 . S
Zn42 O41 1.899 . S
Zn42 O43 2.032 . S
Zn42 O46 2.086 . S
Zn42 O51 1.977 . S
O43 Zn42 2.032 . S
O43 C47 1.278 . S
C44 O45 1.203 . S
C44 O51 1.267 . S
O45 C44 1.203 . S
O46 C39 1.185 . S
O46 Zn42 2.086 . S
C47 O43 1.278 . S
C47 O48 1.211 . S
O48 C47 1.211 . S
C49 O41 1.284 . S
C49 O50 1.273 . S
O50 C49 1.273 . S
O51 Zn42 1.977 . S
O51 C44 1.267 . S
C52 O53 1.160 . S
C52 O59 1.185 . S
O53 C52 1.160 . S
O54 Zn55 1.899 . S
O54 C62 1.284 . S
Zn55 O54 1.899 . S
Zn55 O56 2.032 . S
Zn55 O59 2.086 . S
Zn55 O64 1.977 . S
O56 Zn55 2.032 . S
O56 C60 1.278 . S
C57 O58 1.203 . S
C57 O64 1.267 . S
O58 C57 1.203 . S
O59 C52 1.185 . S
O59 Zn55 2.086 . S
C60 O56 1.278 . S
C60 O61 1.211 . S
O61 C60 1.211 . S
C62 O54 1.284 . S
C62 O63 1.273 . S
O63 C62 1.273 . S
O64 Zn55 1.977 . S
O64 C57 1.267 . S
C65 O66 1.160 . S
C65 O72 1.185 . S
O66 C65 1.160 . S
O67 Zn68 1.899 . S
O67 C75 1.284 . S
Zn68 O67 1.899 . S
Zn68 O69 2.032 . S
Zn68 O72 2.086 . S
Zn68 O77 1.977 . S
O69 Zn68 2.032 . S
O69 C73 1.278 . S
C70 O71 1.203 . S
C70 O77 1.267 . S
O71 C70 1.203 . S
O72 C65 1.185 . S
O72 Zn68 2.086 . S
C73 O69 1.278 . S
C73 O74 1.211 . S
O74 C73 1.211 . S
C75 O67 1.284 . S
C75 O76 1.273 . S
O76 C75 1.273 . S
O77 Zn68 1.977 . S
O77 C70 1.267 . S
C78 O79 1.160 . S
C78 O85 1.185 . S
O79 C78 1.160 . S
O80 Zn81 1.899 . S
O80 C88 1.284 . S
Zn81 O80 1.899 . S
Zn81 O82 2.032 . S
Zn81 O85 2.086 . S
Zn81 O90 1.977 . S
O82 Zn81 2.032 . S
O82 C86 1.278 . S
C83 O84 1.203 . S
C83 O90 1.267 . S
O84 C83 1.203 . S
O85 C78 1.185 . S
O85 Zn81 2.086 . S
C86 O82 1.278 . S
C86 O87 1.211 . S
O87 C86 1.211 . S
C88 O80 1.284 . S
C88 O89 1.273 . S
O89 C88 1.273 . S
O90 Zn81 1.977 . S
O90 C83 1.267 . S
C91 O92 1.160 . S
C91 O98 1.185 . S
O92 C91 1.160 . S
O93 Zn94 1.899 . S
O93 C101 1.284 . S
Zn94 O93 1.899 . S
Zn94 O95 2.032 . S
Zn94 O98 2.086 . S
Zn94 O103 1.977 . S
O95 Zn94 2.032 . S
O95 C99 1.278 . S
C96 O97 1.203 . S
C96 O103 1.267 . S
O97 C96 1.203 . S
O98 C91 1.185 . S
O98 Zn94 2.086 . S
C99 O95 1.278 . S
C99 O100 1.211 . S
O100 C99 1.211 . S
C101 O93 1.284 . S
C101 O102 1.273 . S
O102 C101 1.273 . S
O103 Zn94 1.977 . S
O103 C96 1.267 . S
C104 O105 1.160 . S
C104 O111 1.185 . S
O105 C104 1.160 . S
O106 Zn107 1.899 . S
O106 C114 1.284 . S
Zn107 O106 1.899 . S
Zn107 O108 2.032 . S
Zn107 O111 2.086 . S
Zn107 O116 1.977 . S
O108 Zn107 2.032 . S
O108 C112 1.278 . S
C109 O110 1.203 . S
C109 O116 1.267 . S
O110 C109 1.203 . S
O111 C104 1.185 . S
O111 Zn107 2.086 . S
C112 O108 1.278 . S
C112 O113 1.211 . S
O113 C112 1.211 . S
C114 O106 1.284 . S
C114 O115 1.273 . S
O115 C114 1.273 . S
O116 Zn107 1.977 . S
O116 C109 1.267 . S
C117 O118 1.160 . S
C117 O124 1.185 . S
O118 C117 1.160 . S
O119 Zn120 1.899 . S
O119 C127 1.284 . S
Zn120 O119 1.899 . S
Zn120 O121 2.032 . S
Zn120 O124 2.086 . S
Zn120 O129 1.977 . S
O121 Zn120 2.032 . S
O121 C125 1.278 . S
C122 O123 1.203 . S
C122 O129 1.267 . S
O123 C122 1.203 . S
O124 C117 1.185 . S
O124 Zn120 2.086 . S
C125 O121 1.278 . S
C125 O126 1.211 . S
O126 C125 1.211 . S
C127 O119 1.284 . S
C127 O128 1.273 . S
O128 C127 1.273 . S
O129 Zn120 1.977 . S
O129 C122 1.267 . S
C130 O131 1.160 . S
C130 O137 1.185 . S
O131 C130 1.160 . S
O132 Zn133 1.899 . S
O132 C140 1.284 . S
Zn133 O132 1.899 . S
Zn133 O134 2.032 . S
Zn133 O137 2.086 . S
Zn133 O142 1.977 . S
O134 Zn133 2.032 . S
O134 C138 1.278 . S
C135 O136 1.203 . S
C135 O142 1.267 . S
O136 C135 1.203 . S
O137 C130 1.185 . S
O137 Zn133 2.086 . S
C138 O134 1.278 . S
C138 O139 1.211 . S
O139 C138 1.211 . S
C140 O132 1.284 . S
C140 O141 1.273 . S
O141 C140 1.273 . S
O142 Zn133 1.977 . S
O142 C135 1.267 . S
C143 O144 1.160 . S
C143 O150 1.185 . S
O144 C143 1.160 . S
O145 Zn146 1.899 . S
O145 C153 1.284 . S
Zn146 O145 1.899 . S
Zn146 O147 2.032 . S
Zn146 O150 2.086 . S
Zn146 O155 1.977 . S
O147 Zn146 2.032 . S
O147 C151 1.278 . S
C148 O149 1.203 . S
C148 O155 1.267 . S
O149 C148 1.203 . S
O150 C143 1.185 . S
O150 Zn146 2.086 . S
C151 O147 1.278 . S
C151 O152 1.211 . S
O152 C151 1.211 . S
C153 O145 1.284 . S
C153 O154 1.273 . S
O154 C153 1.273 . S
O155 Zn146 1.977 . S
O155 C148 1.267 . S
C156 O157 1.160 . S
C156 O163 1.185 . S
O157 C156 1.160 . S
O158 Zn159 1.899 . S
O158 C166 1.284 . S
Zn159 O158 1.899 . S
Zn159 O160 2.032 . S
Zn159 O163 2.086 . S
Zn159 O168 1.977 . S
O160 Zn159 2.032 . S
O160 C164 1.278 . S
C161 O162 1.203 . S
C161 O168 1.267 . S
O162 C161 1.203 . S
O163 C156 1.185 . S
O163 Zn159 2.086 . S
C164 O160 1.278 . S
C164 O165 1.211 . S
O165 C164 1.211 . S
C166 O158 1.284 . S
C166 O167 1.273 . S
O167 C166 1.273 . S
O168 Zn159 1.977 . S
O168 C161 1.267 . S
C169 O170 1.160 . S
C169 O176 1.185 . S
O170 C169 1.160 . S
O171 Zn172 1.899 . S
O171 C179 1.284 . S
Zn172 O171 1.899 . S
Zn172 O173 2.032 . S
Zn172 O176 2.086 . S
Zn172 O181 1.977 . S
O173 Zn172 2.032 . S
O173 C177 1.278 . S
C174 O175 1.203 . S
C174 O181 1.267 . S
O175 C174 1.203 . S
O176 C169 1.185 . S
O176 Zn172 2.086 . S
C177 O173 1.278 . S
C177 O178 1.211 . S
O178 C177 1.211 . S
C179 O171 1.284 . S
C179 O180 1.273 . S
O180 C179 1.273 . S
O181 Zn172 1.977 . S
O181 C174 1.267 . S
C182 O183 1.160 . S
C182 O189 1.185 . S
O183 C182 1.160 . S
O184 Zn185 1.899 . S
O184 C192 1.284 . S
Zn185 O184 1.899 . S
Zn185 O186 2.032 . S
Zn185 O189 2.086 . S
Zn185 O194 1.977 . S
O186 Zn185 2.032 . S
O186 C190 1.278 . S
C187 O188 1.203 . S
C187 O194 1.267 . S
O188 C187 1.203 . S
O189 C182 1.185 . S
O189 Zn185 2.086 . S
C190 O186 1.278 . S
C190 O191 1.211 . S
O191 C190 1.211 . S
C192 O184 1.284 . S
C192 O193 1.273 . S
O193 C192 1.273 . S
O194 Zn185 1.977 . S
O194 C187 1.267 . S
C195 O196 1.160 . S
C195 O202 1.185 . S
O196 C195 1.160 . S
O197 Zn198 1.899 . S
O197 C205 1.284 . S
Zn198 O197 1.899 . S
Zn198 O199 2.032 . S
Zn198 O202 2.086 . S
Zn198 O207 1.977 . S
O199 Zn198 2.032 . S
O199 C203 1.278 . S
C200 O201 1.203 . S
C200 O207 1.267 . S
O201 C200 1.203 . S
O202 C195 1.185 . S
O202 Zn198 2.086 . S
C203 O199 1.278 . S
C203 O204 1.211 . S
O204 C203 1.211 . S
C205 O197 1.284 . S
C205 O206 1.273 . S
O206 C205 1.273 . S
O207 Zn198 1.977 . S
O207 C200 1.267 . S
C208 C209 1.369 . S
C208 C210 1.419 1_554 S
C208 H212 0.930 . S
C209 C208 1.369 . S
C209 C218 1.429 . S
C210 C208 1.419 1_556 S
C210 C211 1.363 . S
C210 H213 0.929 . S
C211 C210 1.363 . S
C211 C217 1.428 . S
H212 C208 0.930 . S
H213 C210 0.929 . S
S214 N215 1.613 . S
S214 N216 1.610 1_554 S
N215 S214 1.613 . S
N215 C218 1.350 . S
N216 S214 1.610 1_556 S
N216 C217 1.351 . S
C217 C211 1.428 . S
C217 N216 1.351 . S
C217 C218 1.434 1_556 S
C218 C209 1.429 . S
C218 N215 1.350 . S
C218 C217 1.434 1_554 S
C219 C220 1.369 . S
C219 C221 1.419 . S
C219 H223 0.930 . S
C220 C219 1.369 . S
C220 C229 1.429 . S
C221 C219 1.419 . S
C221 C222 1.363 . S
C221 H224 0.929 . S
C222 C221 1.363 . S
C222 C228 1.428 . S
H223 C219 0.930 . S
H224 C221 0.929 . S
S225 N226 1.613 . S
S225 N227 1.610 . S
N226 S225 1.613 . S
N226 C229 1.350 . S
N227 S225 1.610 . S
N227 C228 1.351 . S
C228 C222 1.428 . S
C228 N227 1.351 . S
C228 C229 1.434 . S
C229 C220 1.429 . S
C229 N226 1.350 . S
C229 C228 1.434 . S
C230 C231 1.369 . S
C230 C232 1.419 1_556 S
C230 H234 0.930 . S
C231 C230 1.369 . S
C231 C240 1.429 . S
C232 C230 1.419 1_554 S
C232 C233 1.363 . S
C232 H235 0.929 . S
C233 C232 1.363 . S
C233 C239 1.428 . S
H234 C230 0.930 . S
H235 C232 0.929 . S
S236 N237 1.613 1_554 S
S236 N238 1.610 . S
N237 S236 1.613 1_556 S
N237 C240 1.350 . S
N238 S236 1.610 . S
N238 C239 1.351 . S
C239 C233 1.428 . S
C239 N238 1.351 . S
C239 C240 1.434 1_554 S
C240 C231 1.429 . S
C240 N237 1.350 . S
C240 C239 1.434 1_556 S
C241 C242 1.369 . S
C241 C243 1.419 . S
C241 H245 0.930 . S
C242 C241 1.369 . S
C242 C251 1.429 . S
C243 C241 1.419 . S
C243 C244 1.363 . S
C243 H246 0.929 . S
C244 C243 1.363 . S
C244 C250 1.428 . S
H245 C241 0.930 . S
H246 C243 0.929 . S
S247 N248 1.613 . S
S247 N249 1.610 . S
N248 S247 1.613 . S
N248 C251 1.350 . S
N249 S247 1.610 . S
N249 C250 1.351 . S
C250 C244 1.428 . S
C250 N249 1.351 . S
C250 C251 1.434 . S
C251 C242 1.429 . S
C251 N248 1.350 . S
C251 C250 1.434 . S
C252 C253 1.369 1_556 S
C252 C254 1.419 . S
C252 H256 0.930 . S
C253 C252 1.369 1_554 S
C253 C262 1.429 . S
C254 C252 1.419 . S
C254 C255 1.363 . S
C254 H257 0.929 . S
C255 C254 1.363 . S
C255 C261 1.428 1_556 S
H256 C252 0.930 . S
H257 C254 0.929 . S
S258 N259 1.613 . S
S258 N260 1.610 . S
N259 S258 1.613 . S
N259 C262 1.350 . S
N260 S258 1.610 . S
N260 C261 1.351 . S
C261 C255 1.428 1_554 S
C261 N260 1.351 . S
C261 C262 1.434 . S
C262 C253 1.429 . S
C262 N259 1.350 . S
C262 C261 1.434 . S
C263 C264 1.369 . S
C263 C265 1.419 . S
C263 H267 0.930 . S
C264 C263 1.369 . S
C264 C273 1.429 . S
C265 C263 1.419 . S
C265 C266 1.363 . S
C265 H268 0.929 . S
C266 C265 1.363 . S
C266 C272 1.428 . S
H267 C263 0.930 . S
H268 C265 0.929 . S
S269 N270 1.613 . S
S269 N271 1.610 . S
N270 S269 1.613 . S
N270 C273 1.350 . S
N271 S269 1.610 . S
N271 C272 1.351 . S
C272 C266 1.428 . S
C272 N271 1.351 . S
C272 C273 1.434 . S
C273 C264 1.429 . S
C273 N270 1.350 . S
C273 C272 1.434 . S
C274 C275 1.369 . S
C274 C276 1.419 1_556 S
C274 H278 0.930 . S
C275 C274 1.369 . S
C275 C284 1.429 . S
C276 C274 1.419 1_554 S
C276 C277 1.363 . S
C276 H279 0.929 . S
C277 C276 1.363 . S
C277 C283 1.428 . S
H278 C274 0.930 . S
H279 C276 0.929 . S
S280 N281 1.613 . S
S280 N282 1.610 1_556 S
N281 S280 1.613 . S
N281 C284 1.350 . S
N282 S280 1.610 1_554 S
N282 C283 1.351 . S
C283 C277 1.428 . S
C283 N282 1.351 . S
C283 C284 1.434 1_554 S
C284 C275 1.429 . S
C284 N281 1.350 . S
C284 C283 1.434 1_556 S
C285 C286 1.369 . S
C285 C287 1.419 . S
C285 H289 0.930 . S
C286 C285 1.369 . S
C286 C295 1.429 . S
C287 C285 1.419 . S
C287 C288 1.363 . S
C287 H290 0.929 . S
C288 C287 1.363 . S
C288 C294 1.428 . S
H289 C285 0.930 . S
H290 C287 0.929 . S
S291 N292 1.613 . S
S291 N293 1.610 . S
N292 S291 1.613 . S
N292 C295 1.350 . S
N293 S291 1.610 . S
N293 C294 1.351 . S
C294 C288 1.428 . S
C294 N293 1.351 . S
C294 C295 1.434 . S
C295 C286 1.429 . S
C295 N292 1.350 . S
C295 C294 1.434 . S
C296 C297 1.369 1_565 S
C296 C298 1.419 . S
C296 H300 0.930 . S
C297 C296 1.369 1_545 S
C297 C306 1.429 1_554 S
C298 C296 1.419 . S
C298 C299 1.363 1_554 S
C298 H301 0.929 . S
C299 C298 1.363 1_556 S
C299 C305 1.428 1_565 S
H300 C296 0.930 . S
H301 C298 0.929 . S
S302 N303 1.613 . S
S302 N304 1.610 . S
N303 S302 1.613 . S
N303 C306 1.350 . S
N304 S302 1.610 . S
N304 C305 1.351 . S
C305 C299 1.428 1_545 S
C305 N304 1.351 . S
C305 C306 1.434 . S
C306 C297 1.429 1_556 S
C306 N303 1.350 . S
C306 C305 1.434 . S
C307 C308 1.369 . S
C307 C309 1.419 1_565 S
C307 H311 0.930 . S
C308 C307 1.369 . S
C308 C317 1.421 1_565 S
C309 C307 1.419 1_545 S
C309 C310 1.363 . S
C309 H312 0.930 . S
C310 C309 1.363 . S
C310 C316 1.428 . S
H311 C307 0.930 . S
H312 C309 0.930 . S
S313 N314 1.613 . S
S313 N315 1.610 . S
N314 S313 1.613 . S
N314 C317 1.351 . S
N315 S313 1.610 . S
N315 C316 1.351 . S
C316 C310 1.428 . S
C316 N315 1.351 . S
C316 C317 1.441 . S
C317 C308 1.421 1_545 S
C317 N314 1.351 . S
C317 C316 1.441 . S
C318 C319 1.369 . S
C318 C320 1.419 1_565 S
C318 H322 0.930 . S
C319 C318 1.369 . S
C319 C328 1.429 1_556 S
C320 C318 1.419 1_545 S
C320 C321 1.363 1_556 S
C320 H323 0.929 . S
C321 C320 1.363 1_554 S
C321 C327 1.428 . S
H322 C318 0.930 . S
H323 C320 0.929 . S
S324 N325 1.613 . S
S324 N326 1.610 1_565 S
N325 S324 1.613 . S
N325 C328 1.350 . S
N326 S324 1.610 1_545 S
N326 C327 1.351 . S
C327 C321 1.428 . S
C327 N326 1.351 . S
C327 C328 1.434 1_545 S
C328 C319 1.429 1_554 S
C328 N325 1.350 . S
C328 C327 1.434 1_565 S
C329 C330 1.369 . S
C329 C331 1.419 1_545 S
C329 H333 0.930 . S
C330 C329 1.369 . S
C330 C339 1.429 . S
C331 C329 1.419 1_565 S
C331 C332 1.363 . S
C331 H334 0.929 . S
C332 C331 1.363 . S
C332 C338 1.428 . S
H333 C329 0.930 . S
H334 C331 0.929 . S
S335 N336 1.613 1_565 S
S335 N337 1.610 . S
N336 S335 1.613 1_545 S
N336 C339 1.350 . S
N337 S335 1.610 . S
N337 C338 1.351 . S
C338 C332 1.428 . S
C338 N337 1.351 . S
C338 C339 1.434 1_565 S
C339 C330 1.429 . S
C339 N336 1.350 . S
C339 C338 1.434 1_545 S
C340 C341 1.369 . S
C340 C342 1.419 1_556 S
C340 H344 0.930 . S
C341 C340 1.369 . S
C341 C350 1.429 . S
C342 C340 1.419 1_554 S
C342 C343 1.363 . S
C342 H345 0.929 . S
C343 C342 1.363 . S
C343 C349 1.428 . S
H344 C340 0.930 . S
H345 C342 0.929 . S
S346 N347 1.613 . S
S346 N348 1.610 1_556 S
N347 S346 1.613 . S
N347 C350 1.350 . S
N348 S346 1.610 1_554 S
N348 C349 1.351 . S
C349 C343 1.428 . S
C349 N348 1.351 . S
C349 C350 1.434 1_554 S
C350 C341 1.429 . S
C350 N347 1.350 . S
C350 C349 1.434 1_556 S
C351 C352 1.369 . S
C351 C353 1.419 . S
C351 H355 0.930 . S
C352 C351 1.369 . S
C352 C361 1.429 . S
C353 C351 1.419 . S
C353 C354 1.363 . S
C353 H356 0.929 . S
C354 C353 1.363 . S
C354 C360 1.428 . S
H355 C351 0.930 . S
H356 C353 0.929 . S
S357 N358 1.613 . S
S357 N359 1.610 . S
N358 S357 1.613 . S
N358 C361 1.350 . S
N359 S357 1.610 . S
N359 C360 1.351 . S
C360 C354 1.428 . S
C360 N359 1.351 . S
C360 C361 1.434 . S
C361 C352 1.429 . S
C361 N358 1.350 . S
C361 C360 1.434 . S
C362 C363 1.369 . S
C362 C364 1.419 . S
C362 H366 0.930 . S
C363 C362 1.369 . S
C363 C372 1.429 1_554 S
C364 C362 1.419 . S
C364 C365 1.363 1_554 S
C364 H367 0.929 . S
C365 C364 1.363 1_556 S
C365 C371 1.428 . S
H366 C362 0.930 . S
H367 C364 0.929 . S
S368 N369 1.613 . S
S368 N370 1.610 . S
N369 S368 1.613 . S
N369 C372 1.350 . S
N370 S368 1.610 . S
N370 C371 1.351 . S
C371 C365 1.428 . S
C371 N370 1.351 . S
C371 C372 1.434 . S
C372 C363 1.429 1_556 S
C372 N369 1.350 . S
C372 C371 1.434 . S
C373 C374 1.369 . S
C373 C375 1.419 . S
C373 H377 0.930 . S
C374 C373 1.369 . S
C374 C383 1.429 . S
C375 C373 1.419 . S
C375 C376 1.363 . S
C375 H378 0.929 . S
C376 C375 1.363 . S
C376 C382 1.428 . S
H377 C373 0.930 . S
H378 C375 0.929 . S
S379 N380 1.613 . S
S379 N381 1.610 . S
N380 S379 1.613 . S
N380 C383 1.350 . S
N381 S379 1.610 . S
N381 C382 1.351 . S
C382 C376 1.428 . S
C382 N381 1.351 . S
C382 C383 1.434 . S
C383 C374 1.429 . S
C383 N380 1.350 . S
C383 C382 1.434 . S
C384 C385 1.369 . S
C384 C386 1.419 . S
C384 H388 0.930 . S
C385 C384 1.369 . S
C385 C394 1.429 . S
C386 C384 1.419 . S
C386 C387 1.363 . S
C386 H389 0.929 . S
C387 C386 1.363 . S
C387 C393 1.428 . S
H388 C384 0.930 . S
H389 C386 0.929 . S
S390 N391 1.613 . S
S390 N392 1.610 . S
N391 S390 1.613 . S
N391 C394 1.350 . S
N392 S390 1.610 . S
N392 C393 1.351 . S
C393 C387 1.428 . S
C393 N392 1.351 . S
C393 C394 1.434 . S
C394 C385 1.429 . S
C394 N391 1.350 . S
C394 C393 1.434 . S
C395 C396 1.369 . S
C395 C397 1.419 1_655 S
C395 H399 0.930 . S
C396 C395 1.369 . S
C396 C405 1.429 . S
C397 C395 1.419 1_455 S
C397 C398 1.363 . S
C397 H400 0.929 . S
C398 C397 1.363 . S
C398 C404 1.428 . S
H399 C395 0.930 . S
H400 C397 0.929 . S
S401 N402 1.613 1_455 S
S401 N403 1.610 . S
N402 S401 1.613 1_655 S
N402 C405 1.350 . S
N403 S401 1.610 . S
N403 C404 1.351 . S
C404 C398 1.428 . S
C404 N403 1.351 . S
C404 C405 1.434 1_455 S
C405 C396 1.429 . S
C405 N402 1.350 . S
C405 C404 1.434 1_655 S
C406 C407 1.369 . S
C406 C408 1.419 . S
C406 H410 0.930 . S
C407 C406 1.369 . S
C407 C416 1.429 . S
C408 C406 1.419 . S
C408 C409 1.363 . S
C408 H411 0.929 . S
C409 C408 1.363 . S
C409 C415 1.428 . S
H410 C406 0.930 . S
H411 C408 0.929 . S
S412 N413 1.613 . S
S412 N414 1.610 . S
N413 S412 1.613 . S
N413 C416 1.350 . S
N414 S412 1.610 . S
N414 C415 1.351 . S
C415 C409 1.428 . S
C415 N414 1.351 . S
C415 C416 1.434 . S
C416 C407 1.429 . S
C416 N413 1.350 . S
C416 C415 1.434 . S
C417 C418 1.369 . S
C417 C419 1.419 1_455 S
C417 H421 0.930 . S
C418 C417 1.369 . S
C418 C427 1.429 . S
C419 C417 1.419 1_655 S
C419 C420 1.363 . S
C419 H422 0.929 . S
C420 C419 1.363 . S
C420 C426 1.428 . S
H421 C417 0.930 . S
H422 C419 0.929 . S
S423 N424 1.613 . S
S423 N425 1.610 1_455 S
N424 S423 1.613 . S
N424 C427 1.350 . S
N425 S423 1.610 1_655 S
N425 C426 1.351 . S
C426 C420 1.428 . S
C426 N425 1.351 . S
C426 C427 1.434 1_655 S
C427 C418 1.429 . S
C427 N424 1.350 . S
C427 C426 1.434 1_455 S
C428 C429 1.369 . S
C428 C430 1.419 1_455 S
C428 H432 0.930 . S
C429 C428 1.369 . S
C429 C438 1.429 . S
C430 C428 1.419 1_655 S
C430 C431 1.363 . S
C430 H433 0.929 . S
C431 C430 1.363 . S
C431 C437 1.428 . S
H432 C428 0.930 . S
H433 C430 0.929 . S
S434 N435 1.613 1_656 S
S434 N436 1.610 1_556 S
N435 S434 1.613 1_454 S
N435 C438 1.350 . S
N436 S434 1.610 1_554 S
N436 C437 1.351 . S
C437 C431 1.428 . S
C437 N436 1.351 . S
C437 C438 1.434 1_655 S
C438 C429 1.429 . S
C438 N435 1.350 . S
C438 C437 1.434 1_455 S
C439 C440 1.369 . S
C439 C441 1.419 . S
C439 H443 0.930 . S
C440 C439 1.369 . S
C440 C449 1.429 . S
C441 C439 1.419 . S
C441 C442 1.363 . S
C441 H444 0.929 . S
C442 C441 1.363 . S
C442 C448 1.428 . S
H443 C439 0.930 . S
H444 C441 0.929 . S
S445 N446 1.613 . S
S445 N447 1.610 . S
N446 S445 1.613 . S
N446 C449 1.350 . S
N447 S445 1.610 . S
N447 C448 1.351 . S
C448 C442 1.428 . S
C448 N447 1.351 . S
C448 C449 1.434 . S
C449 C440 1.429 . S
C449 N446 1.350 . S
C449 C448 1.434 . S
C450 C451 1.369 . S
C450 C452 1.419 1_455 S
C450 H454 0.930 . S
C451 C450 1.369 . S
C451 C460 1.429 . S
C452 C450 1.419 1_655 S
C452 C453 1.363 . S
C452 H455 0.929 . S
C453 C452 1.363 . S
C453 C459 1.428 . S
H454 C450 0.930 . S
H455 C452 0.929 . S
S456 N457 1.613 1_655 S
S456 N458 1.610 . S
N457 S456 1.613 1_455 S
N457 C460 1.350 . S
N458 S456 1.610 . S
N458 C459 1.351 . S
C459 C453 1.428 . S
C459 N458 1.351 . S
C459 C460 1.434 1_655 S
C460 C451 1.429 . S
C460 N457 1.350 . S
C460 C459 1.434 1_455 S
C461 C462 1.369 . S
C461 C463 1.419 . S
C461 H465 0.930 . S
C462 C461 1.369 . S
C462 C471 1.429 . S
C463 C461 1.419 . S
C463 C464 1.363 . S
C463 H466 0.929 . S
C464 C463 1.363 . S
C464 C470 1.428 . S
H465 C461 0.930 . S
H466 C463 0.929 . S
S467 N468 1.613 . S
S467 N469 1.610 . S
N468 S467 1.613 . S
N468 C471 1.350 . S
N469 S467 1.610 . S
N469 C470 1.351 . S
C470 C464 1.428 . S
C470 N469 1.351 . S
C470 C471 1.434 . S
C471 C462 1.429 . S
C471 N468 1.350 . S
C471 C470 1.434 . S
C472 C473 1.369 . S
C472 C474 1.419 . S
C472 H476 0.930 . S
C473 C472 1.369 . S
C473 C482 1.429 . S
C474 C472 1.419 . S
C474 C475 1.363 . S
C474 H477 0.929 . S
C475 C474 1.363 . S
C475 C481 1.428 . S
H476 C472 0.930 . S
H477 C474 0.929 . S
S478 N479 1.613 . S
S478 N480 1.610 . S
N479 S478 1.613 . S
N479 C482 1.350 . S
N480 S478 1.610 . S
N480 C481 1.351 . S
C481 C475 1.428 . S
C481 N480 1.351 . S
C481 C482 1.434 . S
C482 C473 1.429 . S
C482 N479 1.350 . S
C482 C481 1.434 . S
C483 C484 1.369 . S
C483 C485 1.419 . S
C483 H487 0.930 . S
C484 C483 1.369 . S
C484 C493 1.429 . S
C485 C483 1.419 . S
C485 C486 1.363 . S
C485 H488 0.929 . S
C486 C485 1.363 . S
C486 C492 1.428 . S
H487 C483 0.930 . S
H488 C485 0.929 . S
S489 N490 1.613 . S
S489 N491 1.610 . S
N490 S489 1.613 . S
N490 C493 1.350 . S
N491 S489 1.610 . S
N491 C492 1.351 . S
C492 C486 1.428 . S
C492 N491 1.351 . S
C492 C493 1.434 . S
C493 C484 1.429 . S
C493 N490 1.350 . S
C493 C492 1.434 . S
C494 C495 1.369 . S
C494 C496 1.419 . S
C494 H498 0.930 . S
C495 C494 1.369 . S
C495 C504 1.429 . S
C496 C494 1.419 . S
C496 C497 1.363 . S
C496 H499 0.929 . S
C497 C496 1.363 . S
C497 C503 1.428 . S
H498 C494 0.930 . S
H499 C496 0.929 . S
S500 N501 1.613 . S
S500 N502 1.610 . S
N501 S500 1.613 . S
N501 C504 1.350 . S
N502 S500 1.610 . S
N502 C503 1.351 . S
C503 C497 1.428 . S
C503 N502 1.351 . S
C503 C504 1.434 . S
C504 C495 1.429 . S
C504 N501 1.350 . S
C504 C503 1.434 . S
C505 C506 1.369 . S
C505 C507 1.419 . S
C505 H509 0.930 . S
C506 C505 1.369 . S
C506 C515 1.429 . S
C507 C505 1.419 . S
C507 C508 1.363 . S
C507 H510 0.929 . S
C508 C507 1.363 . S
C508 C514 1.428 . S
H509 C505 0.930 . S
H510 C507 0.929 . S
S511 N512 1.613 . S
S511 N513 1.610 . S
N512 S511 1.613 . S
N512 C515 1.350 . S
N513 S511 1.610 . S
N513 C514 1.351 . S
C514 C508 1.428 . S
C514 N513 1.351 . S
C514 C515 1.434 . S
C515 C506 1.429 . S
C515 N512 1.350 . S
C515 C514 1.434 . S
C516 C517 1.369 . S
C516 C518 1.419 . S
C516 H520 0.930 . S
C517 C516 1.369 . S
C517 C526 1.429 . S
C518 C516 1.419 . S
C518 C519 1.363 . S
C518 H521 0.929 . S
C519 C518 1.363 . S
C519 C525 1.428 . S
H520 C516 0.930 . S
H521 C518 0.929 . S
S522 N523 1.613 . S
S522 N524 1.610 . S
N523 S522 1.613 . S
N523 C526 1.350 . S
N524 S522 1.610 . S
N524 C525 1.351 . S
C525 C519 1.428 . S
C525 N524 1.351 . S
C525 C526 1.434 . S
C526 C517 1.429 . S
C526 N523 1.350 . S
C526 C525 1.434 . S
C527 C528 1.369 . S
C527 C529 1.419 . S
C527 H531 0.930 . S
C528 C527 1.369 . S
C528 C537 1.429 . S
C529 C527 1.419 . S
C529 C530 1.363 . S
C529 H532 0.929 . S
C530 C529 1.363 . S
C530 C536 1.428 . S
H531 C527 0.930 . S
H532 C529 0.929 . S
S533 N534 1.613 . S
S533 N535 1.610 . S
N534 S533 1.613 . S
N534 C537 1.350 . S
N535 S533 1.610 . S
N535 C536 1.351 . S
C536 C530 1.428 . S
C536 N535 1.351 . S
C536 C537 1.434 . S
C537 C528 1.429 . S
C537 N534 1.350 . S
C537 C536 1.434 . S
C538 C539 1.369 . S
C538 C540 1.419 . S
C538 H542 0.930 . S
C539 C538 1.369 . S
C539 C548 1.429 . S
C540 C538 1.419 . S
C540 C541 1.363 . S
C540 H543 0.929 . S
C541 C540 1.363 . S
C541 C547 1.428 . S
H542 C538 0.930 . S
H543 C540 0.929 . S
S544 N545 1.613 . S
S544 N546 1.610 . S
N545 S544 1.613 . S
N545 C548 1.350 . S
N546 S544 1.610 . S
N546 C547 1.351 . S
C547 C541 1.428 . S
C547 N546 1.351 . S
C547 C548 1.434 . S
C548 C539 1.429 . S
C548 N545 1.350 . S
C548 C547 1.434 . S
C549 C550 1.369 . S
C549 C551 1.419 . S
C549 H553 0.930 . S
C550 C549 1.369 . S
C550 C559 1.429 . S
C551 C549 1.419 . S
C551 C552 1.363 . S
C551 H554 0.929 . S
C552 C551 1.363 . S
C552 C558 1.428 . S
H553 C549 0.930 . S
H554 C551 0.929 . S
S555 N556 1.613 . S
S555 N557 1.610 . S
N556 S555 1.613 . S
N556 C559 1.350 . S
N557 S555 1.610 . S
N557 C558 1.351 . S
C558 C552 1.428 . S
C558 N557 1.351 . S
C558 C559 1.434 . S
C559 C550 1.429 . S
C559 N556 1.350 . S
C559 C558 1.434 . S
C209 C0 1.422 . S
C211 C164 1.427 . S
C220 C177 1.423 . S
C222 C13 1.419 . S
C231 C26 1.415 . S
C233 C190 1.425 . S
C242 C203 1.429 . S
C244 C39 1.419 . S
C253 C104 1.421 . S
C255 C60 1.424 . S
C264 C73 1.423 . S
C266 C117 1.420 . S
C275 C130 1.422 . S
C277 C86 1.427 . S
C286 C99 1.423 . S
C288 C143 1.418 . S
C297 C5 1.543 . S
C299 C31 1.543 . S
C308 C18 1.542 . S
C310 C44 1.542 . S
C319 C57 1.394 . S
C321 C83 1.394 . S
C330 C70 1.393 . S
C332 C96 1.393 . S
C341 C135 1.544 . S
C343 C109 1.544 . S
C352 C122 1.542 . S
C354 C148 1.543 . S
C363 C187 1.390 . S
C365 C161 1.391 . S
C374 C174 1.392 . S
C376 C200 1.392 . S
C385 C88 1.474 . S
C387 C10 1.470 . S
C396 C101 1.470 . S
C398 C23 1.474 . S
C407 C36 1.470 . S
C409 C62 1.473 . S
C418 C49 1.474 . S
C420 C75 1.470 . S
C429 C192 1.470 . S
C431 C114 1.473 . S
C440 C127 1.470 . S
C442 C205 1.473 . S
C451 C166 1.473 . S
C453 C140 1.471 . S
C462 C153 1.472 . S
C464 C179 1.472 . S
C473 C8 1.555 . S
C475 C47 1.554 . S
C484 C34 1.555 . S
C486 C21 1.554 . S
C495 C52 1.315 . S
C497 C91 1.310 . S
C506 C65 1.313 . S
C508 C78 1.311 . S
C517 C151 1.554 . S
C519 C112 1.553 . S
C528 C125 1.550 . S
C530 C138 1.550 . S
C539 C195 1.312 . S
C541 C156 1.313 . S
C550 C169 1.314 . S
C552 C182 1.311 . S
