# Generated by pormake.
# Topology rhr, (4)-cn, num edge types: 1
# Building blocks:
#     Node 0, Type 0, BuildingBlock: MUDLON_clean_sbu_0, # of connection points: 4
#     Node 1, Type 0, BuildingBlock: MUDLON_clean_sbu_0, # of connection points: 4
#     Node 2, Type 0, BuildingBlock: MUDLON_clean_sbu_0, # of connection points: 4
#     Node 3, Type 0, BuildingBlock: MUDLON_clean_sbu_0, # of connection points: 4
#     Node 4, Type 0, BuildingBlock: MUDLON_clean_sbu_0, # of connection points: 4
#     Node 5, Type 0, BuildingBlock: MUDLON_clean_sbu_0, # of connection points: 4
#     Node 6, Type 0, BuildingBlock: MUDLON_clean_sbu_0, # of connection points: 4
#     Node 7, Type 0, BuildingBlock: MUDLON_clean_sbu_0, # of connection points: 4
#     Node 8, Type 0, BuildingBlock: MUDLON_clean_sbu_0, # of connection points: 4
#     Node 9, Type 0, BuildingBlock: MUDLON_clean_sbu_0, # of connection points: 4
#     Node 10, Type 0, BuildingBlock: MUDLON_clean_sbu_0, # of connection points: 4
#     Node 11, Type 0, BuildingBlock: MUDLON_clean_sbu_0, # of connection points: 4
#     Node 12, Type 0, BuildingBlock: MUDLON_clean_sbu_0, # of connection points: 4
#     Node 13, Type 0, BuildingBlock: MUDLON_clean_sbu_0, # of connection points: 4
#     Node 14, Type 0, BuildingBlock: MUDLON_clean_sbu_0, # of connection points: 4
#     Node 15, Type 0, BuildingBlock: MUDLON_clean_sbu_0, # of connection points: 4
#     Node 16, Type 0, BuildingBlock: MUDLON_clean_sbu_0, # of connection points: 4
#     Node 17, Type 0, BuildingBlock: MUDLON_clean_sbu_0, # of connection points: 4
#     Node 18, Type 0, BuildingBlock: MUDLON_clean_sbu_0, # of connection points: 4
#     Node 19, Type 0, BuildingBlock: MUDLON_clean_sbu_0, # of connection points: 4
#     Node 20, Type 0, BuildingBlock: MUDLON_clean_sbu_0, # of connection points: 4
#     Node 21, Type 0, BuildingBlock: MUDLON_clean_sbu_0, # of connection points: 4
#     Node 22, Type 0, BuildingBlock: MUDLON_clean_sbu_0, # of connection points: 4
#     Node 23, Type 0, BuildingBlock: MUDLON_clean_sbu_0, # of connection points: 4
#     Edge 24, Type (0, 0), BuildingBlock: TEMPAE_clean_linker_10, # of connection points: 2
#     Edge 25, Type (0, 0), BuildingBlock: TEMPAE_clean_linker_10, # of connection points: 2
#     Edge 26, Type (0, 0), BuildingBlock: TEMPAE_clean_linker_10, # of connection points: 2
#     Edge 27, Type (0, 0), BuildingBlock: TEMPAE_clean_linker_10, # of connection points: 2
#     Edge 28, Type (0, 0), BuildingBlock: TEMPAE_clean_linker_10, # of connection points: 2
#     Edge 29, Type (0, 0), BuildingBlock: TEMPAE_clean_linker_10, # of connection points: 2
#     Edge 30, Type (0, 0), BuildingBlock: TEMPAE_clean_linker_10, # of connection points: 2
#     Edge 31, Type (0, 0), BuildingBlock: TEMPAE_clean_linker_10, # of connection points: 2
#     Edge 32, Type (0, 0), BuildingBlock: TEMPAE_clean_linker_10, # of connection points: 2
#     Edge 33, Type (0, 0), BuildingBlock: TEMPAE_clean_linker_10, # of connection points: 2
#     Edge 34, Type (0, 0), BuildingBlock: TEMPAE_clean_linker_10, # of connection points: 2
#     Edge 35, Type (0, 0), BuildingBlock: TEMPAE_clean_linker_10, # of connection points: 2
#     Edge 36, Type (0, 0), BuildingBlock: TEMPAE_clean_linker_10, # of connection points: 2
#     Edge 37, Type (0, 0), BuildingBlock: TEMPAE_clean_linker_10, # of connection points: 2
#     Edge 38, Type (0, 0), BuildingBlock: TEMPAE_clean_linker_10, # of connection points: 2
#     Edge 39, Type (0, 0), BuildingBlock: TEMPAE_clean_linker_10, # of connection points: 2
#     Edge 40, Type (0, 0), BuildingBlock: TEMPAE_clean_linker_10, # of connection points: 2
#     Edge 41, Type (0, 0), BuildingBlock: TEMPAE_clean_linker_10, # of connection points: 2
#     Edge 42, Type (0, 0), BuildingBlock: TEMPAE_clean_linker_10, # of connection points: 2
#     Edge 43, Type (0, 0), BuildingBlock: TEMPAE_clean_linker_10, # of connection points: 2
#     Edge 44, Type (0, 0), BuildingBlock: TEMPAE_clean_linker_10, # of connection points: 2
#     Edge 45, Type (0, 0), BuildingBlock: TEMPAE_clean_linker_10, # of connection points: 2
#     Edge 46, Type (0, 0), BuildingBlock: TEMPAE_clean_linker_10, # of connection points: 2
#     Edge 47, Type (0, 0), BuildingBlock: TEMPAE_clean_linker_10, # of connection points: 2
#     Edge 48, Type (0, 0), BuildingBlock: TEMPAE_clean_linker_10, # of connection points: 2
#     Edge 49, Type (0, 0), BuildingBlock: TEMPAE_clean_linker_10, # of connection points: 2
#     Edge 50, Type (0, 0), BuildingBlock: TEMPAE_clean_linker_10, # of connection points: 2
#     Edge 51, Type (0, 0), BuildingBlock: TEMPAE_clean_linker_10, # of connection points: 2
#     Edge 52, Type (0, 0), BuildingBlock: TEMPAE_clean_linker_10, # of connection points: 2
#     Edge 53, Type (0, 0), BuildingBlock: TEMPAE_clean_linker_10, # of connection points: 2
#     Edge 54, Type (0, 0), BuildingBlock: TEMPAE_clean_linker_10, # of connection points: 2
#     Edge 55, Type (0, 0), BuildingBlock: TEMPAE_clean_linker_10, # of connection points: 2
#     Edge 56, Type (0, 0), BuildingBlock: TEMPAE_clean_linker_10, # of connection points: 2
#     Edge 57, Type (0, 0), BuildingBlock: TEMPAE_clean_linker_10, # of connection points: 2
#     Edge 58, Type (0, 0), BuildingBlock: TEMPAE_clean_linker_10, # of connection points: 2
#     Edge 59, Type (0, 0), BuildingBlock: TEMPAE_clean_linker_10, # of connection points: 2
#     Edge 60, Type (0, 0), BuildingBlock: TEMPAE_clean_linker_10, # of connection points: 2
#     Edge 61, Type (0, 0), BuildingBlock: TEMPAE_clean_linker_10, # of connection points: 2
#     Edge 62, Type (0, 0), BuildingBlock: TEMPAE_clean_linker_10, # of connection points: 2
#     Edge 63, Type (0, 0), BuildingBlock: TEMPAE_clean_linker_10, # of connection points: 2
#     Edge 64, Type (0, 0), BuildingBlock: TEMPAE_clean_linker_10, # of connection points: 2
#     Edge 65, Type (0, 0), BuildingBlock: TEMPAE_clean_linker_10, # of connection points: 2
#     Edge 66, Type (0, 0), BuildingBlock: TEMPAE_clean_linker_10, # of connection points: 2
#     Edge 67, Type (0, 0), BuildingBlock: TEMPAE_clean_linker_10, # of connection points: 2
#     Edge 68, Type (0, 0), BuildingBlock: TEMPAE_clean_linker_10, # of connection points: 2
#     Edge 69, Type (0, 0), BuildingBlock: TEMPAE_clean_linker_10, # of connection points: 2
#     Edge 70, Type (0, 0), BuildingBlock: TEMPAE_clean_linker_10, # of connection points: 2
#     Edge 71, Type (0, 0), BuildingBlock: TEMPAE_clean_linker_10, # of connection points: 2
# Relax obj value: 0.018
# Max RMSD: 0.032
# Mean RMSD: 0.030
data_MOF--net-rhr--node1-MUDLON_clean_sbu_0--edge1-TEMPAE_clean_linker_10
_symmetry_space_group_name_H-M    P1
_symmetry_Int_Tables_number       1
_symmetry_cell_setting            triclinic
loop_
_symmetry_equiv_pos_as_xyz
'x, y, z'
_cell_length_a     53.038627
_cell_length_b     53.140226
_cell_length_c     53.087524
_cell_angle_alpha  89.590473
_cell_angle_beta   89.502702
_cell_angle_gamma 90.173657
loop_
_atom_site_label
_atom_site_type_symbol
_atom_site_fract_x
_atom_site_fract_y
_atom_site_fract_z
_atom_type_partial_charge
Mg0 Mg 0.3621 0.04821 0.36572 0.0
C1 C 0.37519 1.00437 0.33449 0.0
O2 O 0.38345 0.99821 0.35692 0.0
C3 C 0.33435 0.08778 0.39139 0.0
O4 O 0.35738 0.08868 0.40028 0.0
C5 C 0.38892 0.09404 0.34864 0.0
O6 O 0.36515 0.09822 0.3434 0.0
O7 O 0.39463 0.07365 0.36009 0.0
O8 O 0.36383 0.0253 0.33154 0.0
O9 O 0.3578 0.02013 0.39611 0.0
C10 C 0.3385 0.00663 0.39126 0.0
O11 O 0.32563 0.01185 0.37085 0.0
O12 O 0.32955 0.07207 0.37402 0.0
Mg13 Mg 0.01219 0.35298 0.36164 0.0
C14 C 0.99024 0.36269 0.30889 0.0
O15 O 0.01403 0.36457 0.30199 0.0
C16 C 0.04723 0.31703 0.38416 0.0
O17 O 0.05428 0.33913 0.3926 0.0
C18 C 0.03877 0.4008 0.34186 0.0
O19 O 0.01538 0.40758 0.33757 0.0
O20 O 0.04273 0.38012 0.35345 0.0
O21 O 0.98495 0.35543 0.33119 0.0
O22 O 0.98891 0.35736 0.39558 0.0
C23 C 0.96617 0.36482 0.39372 0.0
O24 O 0.95903 0.37536 0.37251 0.0
O25 O 0.02933 0.31622 0.36835 0.0
Mg26 Mg 0.70831 0.03729 0.31366 0.0
C27 C 0.68482 0.06878 0.27015 0.0
O28 O 0.70025 0.05412 0.25758 0.0
C29 C 0.75493 0.0074 0.33352 0.0
O30 O 0.76629 0.02544 0.32069 0.0
C31 C 0.68898 0.99793 0.27243 0.0
O32 O 0.71129 1.00179 0.26213 0.0
O33 O 0.68366 0.00835 0.29332 0.0
O34 O 0.68497 0.06795 0.29412 0.0
O35 O 0.7313 0.06648 0.33561 0.0
C36 C 0.72988 0.06477 0.35953 0.0
O37 O 0.71505 0.04747 0.36953 0.0
O38 O 0.73095 0.00632 0.33343 0.0
Mg39 Mg 0.01094 0.68512 0.34696 0.0
C40 C 0.05134 0.72385 0.36676 0.0
O41 O 0.04657 0.73397 0.34466 0.0
C42 C 0.97861 0.67479 0.29879 0.0
O43 O 0.99049 0.69532 0.29148 0.0
C44 C 0.97766 0.72613 0.37484 0.0
O45 O 0.99429 0.7412 0.3641 0.0
O46 O 0.9791 0.70259 0.37086 0.0
O47 O 0.04021 0.70345 0.37298 0.0
O48 O 0.04222 0.6657 0.32388 0.0
C49 C 0.05067 0.674 0.30289 0.0
O50 O 0.04299 0.69601 0.29462 0.0
O51 O 0.98196 0.6665 0.32106 0.0
Mg52 Mg 0.31732 0.01334 0.71598 0.0
C53 C 0.3372 0.044 0.76253 0.0
O54 O 0.3254 0.02569 0.77452 0.0
C55 C 0.28316 0.96661 0.69927 0.0
O56 O 0.27421 0.9681 0.72236 0.0
C57 C 0.33807 0.9721 0.75434 0.0
O58 O 0.31493 0.97332 0.76328 0.0
O59 O 0.34411 0.98543 0.7352 0.0
O60 O 0.33597 0.04508 0.7386 0.0
O61 O 0.29123 0.04131 0.69544 0.0
C62 C 0.26746 0.03781 0.69516 0.0
O63 O 0.2578 0.01917 0.70848 0.0
O64 O 0.3005 0.98173 0.69215 0.0
Mg65 Mg 0.00861 0.34884 0.71085 0.0
C66 C 0.98948 0.33068 0.65993 0.0
O67 O 0.01332 0.32462 0.65717 0.0
C68 C 0.03659 0.38543 0.7389 0.0
O69 O 0.03228 0.366 0.75377 0.0
C70 C 0.05794 0.32786 0.69477 0.0
O71 O 0.06135 0.35223 0.69219 0.0
O72 O 0.03758 0.32009 0.70521 0.0
O73 O 0.98274 0.34319 0.67925 0.0
O74 O 0.98521 0.34898 0.74503 0.0
C75 C 0.96479 0.36128 0.74257 0.0
O76 O 0.95774 0.36766 0.71974 0.0
O77 O 0.02865 0.38454 0.7163 0.0
Mg78 Mg 0.66643 0.02503 0.66749 0.0
C79 C 0.64449 0.98002 0.69194 0.0
O80 O 0.668 0.98133 0.69946 0.0
C81 C 0.68218 0.05072 0.61814 0.0
O82 O 0.69583 0.03026 0.61611 0.0
C83 C 0.65048 0.04931 0.71732 0.0
O84 O 0.64205 0.02658 0.72244 0.0
O85 O 0.66416 0.05274 0.69776 0.0
O86 O 0.63671 0.99689 0.6766 0.0
O87 O 0.70091 1.00298 0.66151 0.0
C88 C 0.69714 0.98277 0.64925 0.0
O89 O 0.67406 0.97723 0.64238 0.0
O90 O 0.66537 0.05164 0.63545 0.0
Mg91 Mg 0.03228 0.69095 0.64518 0.0
C92 C 0.06447 0.66196 0.6858 0.0
O93 O 0.04857 0.6732 0.70111 0.0
C94 C 0.00924 0.74081 0.62587 0.0
O95 O 0.03024 0.74842 0.63637 0.0
C96 C 0.98125 0.66383 0.66508 0.0
O97 O 0.97538 0.66472 0.64109 0.0
O98 O 1.00211 0.67337 0.67205 0.0
O99 O 0.06226 0.66515 0.66217 0.0
O100 O 0.0628 0.70774 0.61872 0.0
C101 C 0.08235 0.71795 0.62799 0.0
O102 O 0.08454 0.71871 0.65261 0.0
O103 O 1.00338 0.71759 0.62734 0.0
Mg104 Mg 0.34326 0.36356 0.99567 0.0
C105 C 0.35901 0.31607 0.96818 0.0
O106 O 0.36736 0.31031 0.99069 0.0
C107 C 0.311 0.38581 0.03385 0.0
O108 O 0.33361 0.39551 0.0367 0.0
C109 C 0.36473 0.33735 0.03995 0.0
O110 O 0.34089 0.33053 0.04014 0.0
O111 O 0.37216 0.35308 0.02319 0.0
O112 O 0.34523 0.33548 0.96563 0.0
O113 O 0.34688 0.39933 0.97532 0.0
C114 C 0.35299 0.39934 0.95206 0.0
O115 O 0.36289 0.37887 0.94249 0.0
O116 O 0.30803 0.36931 0.01679 0.0
Mg117 Mg 0.69377 0.36168 0.99245 0.0
C118 C 0.65375 0.3543 0.03617 0.0
O119 O 0.64219 0.37153 0.02271 0.0
C120 C 0.70288 0.3882 0.9378 0.0
O121 O 0.67826 0.39068 0.93747 0.0
C122 C 0.64663 0.33999 0.96294 0.0
O123 O 0.63841 0.3631 0.96569 0.0
O124 O 0.66858 0.33435 0.97061 0.0
O125 O 0.67538 0.34676 0.02898 0.0
O126 O 0.71955 0.38738 0.01531 0.0
C127 C 0.74318 0.38761 0.01092 0.0
O128 O 0.75229 0.37321 0.99302 0.0
O129 O 0.71312 0.37685 0.95625 0.0
Mg130 Mg 0.69532 0.69796 0.03683 0.0
C131 C 0.70105 0.65985 0.08378 0.0
O132 O 0.67635 0.66132 0.08481 0.0
C133 C 0.65818 0.71769 0.99488 0.0
O134 O 0.64917 0.69482 0.9981 0.0
C135 C 0.74198 0.67118 0.01003 0.0
O136 O 0.75209 0.67536 0.03212 0.0
O137 O 0.71948 0.67852 0.006 0.0
O138 O 0.71304 0.67226 0.06691 0.0
O139 O 0.67148 0.71759 0.06719 0.0
C140 C 0.64819 0.71234 0.07002 0.0
O141 O 0.63821 0.69476 0.05593 0.0
O142 O 0.67748 0.72431 0.00732 0.0
Mg143 Mg 0.34536 0.68937 0.02019 0.0
C144 C 0.30881 0.69253 0.97561 0.0
O145 O 0.32802 0.70341 0.96412 0.0
C146 C 0.37206 0.72269 0.05413 0.0
O147 O 0.38565 0.70207 0.05304 0.0
C148 C 0.3194 0.65472 0.05532 0.0
O149 O 0.3022 0.67095 0.04816 0.0
O150 O 0.3418 0.65738 0.04672 0.0
O151 O 0.31044 0.68735 0.99895 0.0
O152 O 0.37662 0.68985 0.99254 0.0
C153 C 0.38268 0.712 0.98521 0.0
O154 O 0.37016 0.73114 0.99453 0.0
O155 O 0.35126 0.72323 0.04238 0.0
Mg156 Mg 0.85419 0.53863 0.8359 0.0
C157 C 0.88367 0.49035 0.8499 0.0
O158 O 0.86422 0.48569 0.86473 0.0
C159 C 0.82393 0.56469 0.87581 0.0
O160 O 0.80662 0.55317 0.86264 0.0
C161 C 0.88029 0.55495 0.78732 0.0
O162 O 0.88781 0.53147 0.78911 0.0
O163 O 0.86439 0.56302 0.80351 0.0
O164 O 0.8851 0.51157 0.83868 0.0
O165 O 0.8199 0.51559 0.83354 0.0
C166 C 0.81823 0.49255 0.82733 0.0
O167 O 0.83744 0.48178 0.81598 0.0
O168 O 0.84702 0.56252 0.86917 0.0
Mg169 Mg 0.51698 0.83485 0.84292 0.0
C170 C 0.54425 0.86989 0.81067 0.0
O171 O 0.53885 0.88156 0.83178 0.0
C172 C 0.50608 0.7809 0.85973 0.0
O173 O 0.52972 0.78235 0.8667 0.0
C174 C 0.47019 0.85677 0.82652 0.0
O175 O 0.47355 0.83616 0.81338 0.0
O176 O 0.48629 0.86209 0.84336 0.0
O177 O 0.5377 0.84686 0.8088 0.0
O178 O 0.54276 0.83419 0.87493 0.0
C179 C 0.56506 0.8265 0.87037 0.0
O180 O 0.57193 0.8234 0.84676 0.0
O181 O 0.49715 0.79854 0.84609 0.0
Mg182 Mg 0.20268 0.53961 0.82489 0.0
C183 C 0.19201 0.55245 0.77085 0.0
O184 O 0.18863 0.52798 0.77017 0.0
C185 C 0.23231 0.50064 0.85069 0.0
O186 O 0.21022 0.49978 0.86205 0.0
C187 C 0.17062 0.495 0.81283 0.0
O188 O 0.19335 0.48636 0.80815 0.0
O189 O 0.1684 0.51685 0.82228 0.0
O190 O 0.20169 0.56202 0.79043 0.0
O191 O 0.20418 0.5668 0.85545 0.0
C192 C 0.22676 0.57365 0.85971 0.0
O193 O 0.24496 0.56424 0.84577 0.0
O194 O 0.23522 0.51539 0.83187 0.0
Mg195 Mg 0.50534 0.19419 0.83845 0.0
C196 C 0.45882 0.16244 0.8468 0.0
O197 O 0.45036 0.18433 0.85443 0.0
C198 C 0.52491 0.21475 0.88937 0.0
O199 O 0.50097 0.21694 0.89554 0.0
C200 C 0.52693 0.1695 0.79168 0.0
O201 O 0.50452 0.15888 0.79178 0.0
O202 O 0.53131 0.18704 0.80724 0.0
O203 O 0.48226 0.16019 0.84196 0.0
O204 O 0.47787 0.22455 0.83543 0.0
C205 C 0.48163 0.24617 0.84481 0.0
O206 O 0.50476 0.2527 0.85063 0.0
O207 O 0.53087 0.20406 0.86881 0.0
Mg208 Mg 0.85417 0.51199 0.17851 0.0
C209 C 0.87894 0.5645 0.18193 0.0
O210 O 0.85864 0.57213 0.17016 0.0
C211 C 0.85024 0.47179 0.14008 0.0
O212 O 0.84997 0.45869 0.16115 0.0
C213 C 0.876 0.48603 0.22429 0.0
O214 O 0.88278 0.50932 0.22898 0.0
O215 O 0.86185 0.48184 0.20554 0.0
O216 O 0.88239 0.54106 0.1854 0.0
O217 O 0.81659 0.5284 0.17872 0.0
C218 C 0.8092 0.54778 0.19056 0.0
O219 O 0.82356 0.55726 0.20819 0.0
O220 O 0.8546 0.49533 0.14113 0.0
Mg221 Mg 0.50394 0.87451 0.17708 0.0
C222 C 0.4602 0.85428 0.15282 0.0
O223 O 0.45954 0.84676 0.17646 0.0
C224 C 0.55021 0.8959 0.19404 0.0
O225 O 0.54597 0.87494 0.2067 0.0
C226 C 0.53513 0.83874 0.15287 0.0
O227 O 0.53165 0.8582 0.13789 0.0
O228 O 0.52467 0.83906 0.17459 0.0
O229 O 0.47784 0.8692 0.14587 0.0
O230 O 0.48089 0.88459 0.20988 0.0
C231 C 0.4623 0.89887 0.20482 0.0
O232 O 0.45799 0.90486 0.1812 0.0
O233 O 0.53432 0.90244 0.17735 0.0
Mg234 Mg 0.18717 0.5115 0.18714 0.0
C235 C 0.23995 0.52299 0.16681 0.0
O236 O 0.23688 0.50039 0.15749 0.0
C237 C 0.17073 0.49533 0.24037 0.0
O238 O 0.17184 0.51973 0.244 0.0
C239 C 0.19008 0.46541 0.15468 0.0
O240 O 0.19108 0.45531 0.17731 0.0
O241 O 0.18545 0.48887 0.15278 0.0
O242 O 0.22373 0.53105 0.18269 0.0
O243 O 0.15894 0.54125 0.19156 0.0
C244 C 0.16647 0.56099 0.20279 0.0
O245 O 0.19054 0.56304 0.20802 0.0
O246 O 0.17871 0.48656 0.21949 0.0
Mg247 Mg 0.5195 0.21685 0.18522 0.0
C248 C 0.55348 0.2443 0.15444 0.0
O249 O 0.54523 0.22433 0.14254 0.0
C250 C 0.4812 0.19814 0.22103 0.0
O251 O 0.4723 0.19306 0.1986 0.0
C252 C 0.48187 0.24747 0.16042 0.0
O253 O 0.4897 0.26024 0.17999 0.0
O254 O 0.49058 0.22537 0.15721 0.0
O255 O 0.54588 0.24765 0.17704 0.0
O256 O 0.5441 0.18428 0.18071 0.0
C257 C 0.54075 0.16377 0.19281 0.0
O258 O 0.51916 0.15986 0.20449 0.0
O259 O 0.50149 0.21098 0.22226 0.0
Mg260 Mg 0.85036 0.86734 0.50445 0.0
C261 C 0.82412 0.87955 0.55401 0.0
O262 O 0.84668 0.87469 0.56279 0.0
C263 C 0.85946 0.81211 0.49506 0.0
O264 O 0.8649 0.81263 0.51915 0.0
C265 C 0.84588 0.89085 0.45266 0.0
O266 O 0.84808 0.86711 0.44633 0.0
O267 O 0.84822 0.8968 0.47572 0.0
O268 O 0.81982 0.87604 0.53073 0.0
O269 O 0.88527 0.86497 0.52546 0.0
C270 C 0.90443 0.85439 0.51565 0.0
O271 O 0.90451 0.85002 0.49131 0.0
O272 O 0.84902 0.83127 0.48517 0.0
Mg273 Mg 0.21293 0.83485 0.51248 0.0
C274 C 0.18276 0.80648 0.47605 0.0
O275 O 0.20625 0.80043 0.47094 0.0
C276 C 0.22453 0.84691 0.5661 0.0
O277 O 0.24022 0.82838 0.56161 0.0
C278 C 0.23224 0.77929 0.52554 0.0
O279 O 0.25077 0.76297 0.52426 0.0
O280 O 0.23629 0.8013 0.51653 0.0
O281 O 0.17861 0.82229 0.49352 0.0
O282 O 0.23308 0.86301 0.48958 0.0
C283 C 0.25709 0.86386 0.48899 0.0
O284 O 0.26986 0.8465 0.5011 0.0
O285 O 0.20887 0.85308 0.54911 0.0
Mg286 Mg 0.1597 0.17858 0.53333 0.0
C287 C 0.13536 0.22277 0.55905 0.0
O288 O 0.11852 0.21773 0.54181 0.0
C289 C 0.2099 0.1602 0.51361 0.0
O290 O 0.20745 0.14595 0.53379 0.0
C291 C 0.13252 0.18191 0.48318 0.0
O292 O 0.15488 0.17508 0.47494 0.0
O293 O 0.12832 0.18186 0.50685 0.0
O294 O 0.15608 0.21069 0.55886 0.0
O295 O 0.16187 0.1452 0.55787 0.0
C296 C 0.16246 0.14838 0.58164 0.0
O297 O 0.15696 0.17066 0.59063 0.0
O298 O 0.19381 0.17751 0.50979 0.0
Mg299 Mg 0.82513 0.21725 0.52032 0.0
C300 C 0.80682 0.18991 0.47819 0.0
O301 O 0.79271 0.20994 0.48146 0.0
C302 C 0.85673 0.24618 0.55371 0.0
O303 O 0.83806 0.2609 0.54699 0.0
C304 C 0.79286 0.19096 0.55774 0.0
O305 O 0.8159 0.18434 0.56378 0.0
O306 O 0.79012 0.20775 0.54072 0.0
O307 O 0.82551 0.18678 0.49282 0.0
O308 O 0.82893 0.25164 0.49747 0.0
C309 C 0.84631 0.24956 0.48089 0.0
O310 O 0.85662 0.22738 0.47751 0.0
O311 O 0.85647 0.22333 0.54642 0.0
C312 C 0.22883 0.16518 0.47016 0.0
C313 C 0.22878 0.15345 0.49396 0.0
C314 C 0.24502 0.15692 0.45076 0.0
C315 C 0.26146 0.13644 0.45526 0.0
C316 C 0.26181 0.12491 0.47938 0.0
C317 C 0.24556 0.13358 0.49838 0.0
C318 C 0.24427 0.16983 0.42536 0.0
C319 C 0.27911 0.10309 0.48506 0.0
C320 C 0.28918 0.09506 0.40385 0.0
C321 C 0.31442 0.10293 0.40373 0.0
C322 C 0.27123 0.10681 0.41949 0.0
C323 C 0.27871 0.12702 0.43509 0.0
C324 C 0.30375 0.13618 0.43354 0.0
C325 C 0.3213 0.12395 0.41801 0.0
C326 C 0.24471 0.09648 0.42059 0.0
C327 C 0.31249 0.15786 0.44953 0.0
H328 H 0.21586 0.18047 0.4665 0.0
H329 H 0.24571 0.12437 0.51667 0.0
H330 H 0.26335 0.17672 0.42002 0.0
H331 H 0.23843 0.15619 0.41078 0.0
H332 H 0.23101 0.18597 0.42511 0.0
H333 H 0.27699 0.09612 0.50475 0.0
H334 H 0.27515 0.08732 0.47208 0.0
H335 H 0.29903 0.10883 0.48195 0.0
H336 H 0.28376 0.07881 0.39289 0.0
H337 H 0.34074 0.13032 0.41776 0.0
H338 H 0.23077 0.11195 0.41941 0.0
H339 H 0.2416 0.08669 0.4389 0.0
H340 H 0.24104 0.08293 0.4052 0.0
H341 H 0.29894 0.17369 0.44849 0.0
H342 H 0.33144 0.16483 0.4437 0.0
H343 H 0.31338 0.15171 0.46952 0.0
C344 C 0.95327 0.33924 0.43172 0.0
C345 C 0.9467 0.35562 0.412 0.0
C346 C 0.93471 0.32577 0.44534 0.0
C347 C 0.90894 0.32873 0.43911 0.0
C348 C 0.9021 0.34693 0.42083 0.0
C349 C 0.92103 0.36016 0.40752 0.0
C350 C 0.94287 0.30684 0.46495 0.0
C351 C 0.87488 0.35097 0.41384 0.0
C352 C 0.87079 0.26847 0.44544 0.0
C353 C 0.85822 0.27171 0.4685 0.0
C354 C 0.88644 0.28734 0.43528 0.0
C355 C 0.88991 0.31006 0.44863 0.0
C356 C 0.87634 0.31397 0.47141 0.0
C357 C 0.86053 0.29473 0.48106 0.0
C358 C 0.90022 0.2824 0.41079 0.0
C359 C 0.87957 0.33781 0.48631 0.0
H360 H 0.97299 0.33572 0.43555 0.0
H361 H 0.91566 0.37296 0.39253 0.0
H362 H 0.93111 0.30845 0.48223 0.0
H363 H 0.94026 0.28754 0.45754 0.0
H364 H 0.96299 0.30925 0.47009 0.0
H365 H 0.87233 0.36838 0.40245 0.0
H366 H 0.86818 0.33474 0.40266 0.0
H367 H 0.86281 0.35209 0.43096 0.0
H368 H 0.86904 0.25069 0.43568 0.0
H369 H 0.85118 0.29717 0.49911 0.0
H370 H 0.92082 0.28164 0.41419 0.0
H371 H 0.89682 0.29793 0.39718 0.0
H372 H 0.89432 0.26441 0.40204 0.0
H373 H 0.89828 0.33765 0.4955 0.0
H374 H 0.86485 0.33971 0.50119 0.0
H375 H 0.87898 0.35458 0.47377 0.0
C376 C 0.82908 0.93359 0.44148 0.0
C377 C 0.83666 0.90949 0.43393 0.0
C378 C 0.81715 0.95009 0.42458 0.0
C379 C 0.81276 0.94237 0.3995 0.0
C380 C 0.82137 0.91852 0.39148 0.0
C381 C 0.83319 0.90239 0.40877 0.0
C382 C 0.80834 0.97541 0.43384 0.0
C383 C 0.81724 0.90964 0.36487 0.0
C384 C 0.75766 0.97192 0.36481 0.0
C385 C 0.76979 0.98998 0.34954 0.0
C386 C 0.77145 0.95627 0.38105 0.0
C387 C 0.79803 0.95866 0.38205 0.0
C388 C 0.81042 0.97662 0.36646 0.0
C389 C 0.79617 0.99206 0.35041 0.0
C390 C 0.75751 0.93732 0.39736 0.0
C391 C 0.83873 0.9797 0.36692 0.0
H392 H 0.83166 0.93927 0.46085 0.0
H393 H 0.83906 0.88386 0.40269 0.0
H394 H 0.81551 0.99061 0.42124 0.0
H395 H 0.78744 0.97618 0.43344 0.0
H396 H 0.81462 0.97927 0.45335 0.0
H397 H 0.82659 0.89135 0.36111 0.0
H398 H 0.79675 0.90748 0.36145 0.0
H399 H 0.82453 0.9238 0.35116 0.0
H400 H 0.7373 0.97019 0.36433 0.0
H401 H 0.80574 0.00596 0.33872 0.0
H402 H 0.76108 0.9412 0.41753 0.0
H403 H 0.76455 0.91809 0.39347 0.0
H404 H 0.73684 0.93765 0.3942 0.0
H405 H 0.84481 0.98509 0.38609 0.0
H406 H 0.84554 0.99422 0.35331 0.0
H407 H 0.84798 0.96156 0.36243 0.0
C408 C 0.13663 0.80057 0.46626 0.0
C409 C 0.162 0.79461 0.46163 0.0
C410 C 0.1172 0.78938 0.4522 0.0
C411 C 0.12331 0.77179 0.43314 0.0
C412 C 0.14885 0.76549 0.42869 0.0
C413 C 0.1678 0.77695 0.44291 0.0
C414 C 0.09018 0.79656 0.45753 0.0
C415 C 0.15625 0.74679 0.40865 0.0
C416 C 0.075 0.72545 0.40763 0.0
C417 C 0.06894 0.73649 0.38435 0.0
C418 C 0.09203 0.7371 0.4241 0.0
C419 C 0.10326 0.7604 0.41718 0.0
C420 C 0.09675 0.77192 0.394 0.0
C421 C 0.07976 0.75983 0.37789 0.0
C422 C 0.09852 0.72416 0.4486 0.0
C423 C 0.10823 0.79676 0.38591 0.0
H424 H 0.13194 0.81408 0.48076 0.0
H425 H 0.1873 0.77206 0.43921 0.0
H426 H 0.08184 0.8053 0.4405 0.0
H427 H 0.07887 0.77951 0.46209 0.0
H428 H 0.08849 0.80998 0.47341 0.0
H429 H 0.1769 0.74341 0.40801 0.0
H430 H 0.14652 0.72857 0.41212 0.0
H431 H 0.15024 0.75375 0.38989 0.0
H432 H 0.06668 0.70749 0.41289 0.0
H433 H 0.0751 0.76865 0.36006 0.0
H434 H 0.09579 0.7372 0.4646 0.0
H435 H 0.11869 0.71867 0.44834 0.0
H436 H 0.0869 0.70702 0.45203 0.0
H437 H 0.10545 0.81101 0.40085 0.0
H438 H 0.09999 0.80404 0.36813 0.0
H439 H 0.12885 0.79454 0.38308 0.0
C440 C 0.21657 0.88627 0.59084 0.0
C441 C 0.22809 0.86264 0.58878 0.0
C442 C 0.22312 0.90288 0.61026 0.0
C443 C 0.24157 0.89563 0.62802 0.0
C444 C 0.25211 0.87123 0.62689 0.0
C445 C 0.24524 0.85505 0.60732 0.0
C446 C 0.2113 0.92867 0.61094 0.0
C447 C 0.27173 0.86267 0.64551 0.0
C448 C 0.28269 0.94629 0.65686 0.0
C449 C 0.2724 0.94837 0.68119 0.0
C450 C 0.27262 0.92942 0.63937 0.0
C451 C 0.25165 0.91423 0.64628 0.0
C452 C 0.24103 0.91632 0.67074 0.0
C453 C 0.25157 0.93332 0.68793 0.0
C454 C 0.2846 0.92769 0.61352 0.0
C455 C 0.21863 0.90051 0.67876 0.0
H456 H 0.20326 0.89228 0.57665 0.0
H457 H 0.25408 0.83674 0.60605 0.0
H458 H 0.20448 0.93301 0.63024 0.0
H459 H 0.22568 0.94306 0.60579 0.0
H460 H 0.19529 0.93039 0.5977 0.0
H461 H 0.27629 0.84239 0.64353 0.0
H462 H 0.2893 0.87374 0.64259 0.0
H463 H 0.26515 0.86606 0.66508 0.0
H464 H 0.29875 0.95784 0.65143 0.0
H465 H 0.24339 0.93487 0.70663 0.0
H466 H 0.27035 0.93159 0.59883 0.0
H467 H 0.2917 0.90834 0.61039 0.0
H468 H 0.30053 0.94111 0.61096 0.0
H469 H 0.20275 0.9036 0.66564 0.0
H470 H 0.21214 0.90486 0.69819 0.0
H471 H 0.22356 0.88026 0.67788 0.0
C472 C 0.09523 0.32024 0.6668 0.0
C473 C 0.07447 0.3105 0.68034 0.0
C474 C 0.10812 0.30569 0.64891 0.0
C475 C 0.1003 0.28063 0.64458 0.0
C476 C 0.08065 0.27004 0.65957 0.0
C477 C 0.0679 0.28513 0.67722 0.0
C478 C 0.12888 0.3178 0.63334 0.0
C479 C 0.072 0.24326 0.65582 0.0
C480 C 0.10718 0.25501 0.57826 0.0
C481 C 0.12835 0.2394 0.58032 0.0
C482 C 0.09817 0.26872 0.59893 0.0
C483 C 0.11048 0.26668 0.62243 0.0
C484 C 0.13223 0.25141 0.62454 0.0
C485 C 0.14101 0.23805 0.6034 0.0
C486 C 0.07513 0.28507 0.59571 0.0
C487 C 0.14577 0.24863 0.64928 0.0
H488 H 0.10065 0.33976 0.66918 0.0
H489 H 0.05198 0.27737 0.68763 0.0
H490 H 0.1456 0.30535 0.63236 0.0
H491 H 0.12221 0.32074 0.61379 0.0
H492 H 0.13476 0.33628 0.64101 0.0
H493 H 0.0591 0.23678 0.67115 0.0
H494 H 0.06192 0.24184 0.63766 0.0
H495 H 0.08841 0.23038 0.6549 0.0
H496 H 0.09732 0.25623 0.56049 0.0
H497 H 0.15724 0.22585 0.60522 0.0
H498 H 0.07948 0.3047 0.60121 0.0
H499 H 0.0597 0.27823 0.60826 0.0
H500 H 0.0682 0.28519 0.57602 0.0
H501 H 0.15122 0.26737 0.65655 0.0
H502 H 0.16297 0.23686 0.64759 0.0
H503 H 0.13294 0.23987 0.66347 0.0
C504 C 0.77466 0.16016 0.58873 0.0
C505 C 0.77125 0.17567 0.56753 0.0
C506 C 0.75648 0.14221 0.59603 0.0
C507 C 0.73419 0.13946 0.58177 0.0
C508 C 0.72994 0.156 0.56115 0.0
C509 C 0.7485 0.17395 0.55429 0.0
C510 C 0.76182 0.12524 0.6183 0.0
C511 C 0.70646 0.15383 0.54549 0.0
C512 C 0.70893 0.07251 0.58552 0.0
C513 C 0.69096 0.07411 0.60501 0.0
C514 C 0.72184 0.09396 0.57654 0.0
C515 C 0.7168 0.11776 0.58732 0.0
C516 C 0.69733 0.11983 0.60565 0.0
C517 C 0.68461 0.09801 0.61425 0.0
C518 C 0.74219 0.09079 0.55675 0.0
C519 C 0.69113 0.1448 0.6175 0.0
H520 H 0.79208 0.16143 0.59919 0.0
H521 H 0.74573 0.18572 0.53779 0.0
H522 H 0.74563 0.12523 0.63166 0.0
H523 H 0.7644 0.10563 0.61173 0.0
H524 H 0.77903 0.13103 0.62856 0.0
H525 H 0.70413 0.17025 0.53265 0.0
H526 H 0.70751 0.13655 0.53393 0.0
H527 H 0.68948 0.15214 0.55774 0.0
H528 H 0.71387 0.05421 0.57807 0.0
H529 H 0.67079 0.09955 0.62932 0.0
H530 H 0.76093 0.09379 0.5654 0.0
H531 H 0.74009 0.10503 0.54154 0.0
H532 H 0.74187 0.07176 0.54825 0.0
H533 H 0.70644 0.15017 0.63055 0.0
H534 H 0.67311 0.14408 0.62832 0.0
H535 H 0.68986 0.15979 0.60292 0.0
C536 C 1.00328 0.78303 0.60564 0.0
C537 C 0.99403 0.75872 0.61075 0.0
C538 C 0.98994 0.79989 0.59027 0.0
C539 C 0.96664 0.79239 0.57991 0.0
C540 C 0.95701 0.768 0.58523 0.0
C541 C 0.97086 0.75141 0.60051 0.0
C542 C 1.00096 0.82562 0.58486 0.0
C543 C 0.9321 0.75938 0.57468 0.0
C544 C 0.92002 0.84219 0.55845 0.0
C545 C 0.92275 0.84129 0.53214 0.0
C546 C 0.93449 0.82671 0.57422 0.0
C547 C 0.9523 0.81005 0.56349 0.0
C548 C 0.95589 0.80978 0.53702 0.0
C549 C 0.94105 0.82535 0.52167 0.0
C550 C 0.93001 0.8275 0.60234 0.0
C551 C 0.97488 0.79247 0.52485 0.0
H552 H 0.02122 0.78884 0.61332 0.0
H553 H 0.96358 0.73268 0.60434 0.0
H554 H 1.00384 0.82814 0.56426 0.0
H555 H 0.98765 0.84042 0.59111 0.0
H556 H 0.01929 0.82859 0.59439 0.0
H557 H 0.92707 0.73998 0.58085 0.0
H558 H 0.91687 0.77233 0.58072 0.0
H559 H 0.93285 0.75994 0.55379 0.0
H560 H 0.90588 0.85435 0.56674 0.0
H561 H 0.94325 0.82438 0.50138 0.0
H562 H 0.94798 0.83111 0.61224 0.0
H563 H 0.92281 0.80898 0.60903 0.0
H564 H 0.91622 0.84223 0.60779 0.0
H565 H 0.99378 0.79546 0.53313 0.0
H566 H 0.97626 0.79541 0.50414 0.0
H567 H 0.96951 0.77259 0.52857 0.0
C568 C 0.40877 0.3282 0.05505 0.0
C569 C 0.38261 0.32466 0.05733 0.0
C570 C 0.42558 0.3151 0.0708 0.0
C571 C 0.41602 0.29812 0.0893 0.0
C572 C 0.38966 0.29455 0.09168 0.0
C573 C 0.37334 0.30781 0.07572 0.0
C574 C 0.45357 0.31948 0.06771 0.0
C575 C 0.37861 0.2768 0.11123 0.0
C576 C 0.45853 0.2484 0.11917 0.0
C577 C 0.46464 0.25973 0.14212 0.0
C578 C 0.44303 0.26079 0.10158 0.0
C579 C 0.43336 0.28502 0.10711 0.0
C580 C 0.43946 0.29645 0.13026 0.0
C581 C 0.45496 0.28372 0.1474 0.0
C582 C 0.43693 0.24796 0.0771 0.0
C583 C 0.42948 0.32215 0.13705 0.0
H584 H 0.41613 0.34103 0.04081 0.0
H585 H 0.35319 0.30487 0.07769 0.0
H586 H 0.46138 0.32725 0.08536 0.0
H587 H 0.46327 0.30136 0.06415 0.0
H588 H 0.45805 0.33269 0.05198 0.0
H589 H 0.35773 0.27559 0.1102 0.0
H590 H 0.38651 0.25766 0.10876 0.0
H591 H 0.38381 0.28315 0.13037 0.0
H592 H 0.46602 0.22996 0.11484 0.0
H593 H 0.45953 0.29272 0.16505 0.0
H594 H 0.44283 0.26007 0.06097 0.0
H595 H 0.41627 0.24511 0.07567 0.0
H596 H 0.44638 0.22942 0.07533 0.0
H597 H 0.43516 0.33613 0.12244 0.0
H598 H 0.43641 0.32868 0.15559 0.0
H599 H 0.40857 0.32173 0.13767 0.0
C600 C 0.83217 0.47524 0.0966 0.0
C601 C 0.84012 0.46025 0.11689 0.0
C602 C 0.81817 0.46484 0.07682 0.0
C603 C 0.81201 0.43888 0.0774 0.0
C604 C 0.82138 0.42342 0.097 0.0
C605 C 0.83535 0.43427 0.11644 0.0
C606 C 0.80877 0.48188 0.05609 0.0
C607 C 0.81541 0.39562 0.09826 0.0
C608 C 0.75145 0.41497 0.04823 0.0
C609 C 0.76048 0.40265 0.02671 0.0
C610 C 0.76796 0.42761 0.06439 0.0
C611 C 0.79414 0.42808 0.05884 0.0
C612 C 0.80325 0.41658 0.03661 0.0
C613 C 0.78633 0.40393 0.02085 0.0
C614 C 0.75748 0.43964 0.08793 0.0
C615 C 0.83097 0.4169 0.0299 0.0
H616 H 0.83576 0.49533 0.09677 0.0
H617 H 0.84159 0.42249 0.13191 0.0
H618 H 0.81232 0.47337 0.03738 0.0
H619 H 0.78809 0.48434 0.05815 0.0
H620 H 0.81784 0.50075 0.05654 0.0
H621 H 0.82569 0.38589 0.11364 0.0
H622 H 0.79487 0.39291 0.10147 0.0
H623 H 0.8203 0.38649 0.08015 0.0
H624 H 0.73152 0.41418 0.05286 0.0
H625 H 0.79347 0.39466 1.00414 0.0
H626 H 0.76355 0.4596 0.08893 0.0
H627 H 0.76499 0.42986 0.1048 0.0
H628 H 0.73655 0.43888 0.08878 0.0
H629 H 0.83852 0.43636 0.03075 0.0
H630 H 0.83469 0.40928 0.0108 0.0
H631 H 0.84152 0.40544 0.04379 0.0
C632 C 0.60601 0.72245 0.08902 0.0
C633 C 0.63201 0.72726 0.08733 0.0
C634 C 0.58994 0.73818 0.10295 0.0
C635 C 0.60009 0.75928 0.11553 0.0
C636 C 0.6265 0.76334 0.11516 0.0
C637 C 0.64214 0.7473 0.10107 0.0
C638 C 0.56191 0.73313 0.10284 0.0
C639 C 0.63812 0.78556 0.12835 0.0
C640 C 0.55941 0.81768 0.11876 0.0
C641 C 0.55107 0.81762 0.14393 0.0
C642 C 0.57514 0.79875 0.10943 0.0
C643 C 0.58292 0.77906 0.12563 0.0
C644 C 0.57442 0.7786 0.15104 0.0
C645 C 0.55851 0.79791 0.15993 0.0
C646 C 0.58358 0.79997 0.08217 0.0
C647 C 0.58232 0.75788 0.16884 0.0
H648 H 0.59798 0.70688 0.07868 0.0
H649 H 0.66222 0.75107 0.10009 0.0
H650 H 0.55391 0.73456 0.12215 0.0
H651 H 0.55245 0.74751 0.09102 0.0
H652 H 0.55738 0.71424 0.09525 0.0
H653 H 0.65899 0.78422 0.12916 0.0
H654 H 0.63315 0.80314 0.11816 0.0
H655 H 0.63055 0.78712 0.14782 0.0
H656 H 0.55369 0.83269 0.10613 0.0
H657 H 0.55218 0.79774 0.17939 0.0
H658 H 0.57776 0.78261 0.07227 0.0
H659 H 0.60445 0.80111 0.08103 0.0
H660 H 0.57563 0.81644 0.072 0.0
H661 H 0.57695 0.7393 0.16111 0.0
H662 H 0.57364 0.75987 0.18784 0.0
H663 H 0.60313 0.75798 0.17077 0.0
C664 C 0.26071 0.5656 0.16261 0.0
C665 C 0.25831 0.54062 0.15453 0.0
C666 C 0.27443 0.58346 0.14827 0.0
C667 C 0.28572 0.57633 0.12509 0.0
C668 C 0.28472 0.55079 0.1177 0.0
C669 C 0.27124 0.53326 0.13257 0.0
C670 C 0.27542 0.61036 0.15715 0.0
C671 C 0.29617 0.54228 0.09306 0.0
C672 C 0.28646 0.62625 0.07342 0.0
C673 C 0.31184 0.63376 0.07253 0.0
C674 C 0.27797 0.60745 0.09015 0.0
C675 C 0.29516 0.596 0.10694 0.0
C676 C 0.32091 0.60333 0.1061 0.0
C677 C 0.32903 0.62198 0.0887 0.0
C678 C 0.25047 0.59993 0.08988 0.0
C679 C 0.33974 0.59186 0.12391 0.0
H680 H 0.25097 0.57149 0.1796 0.0
H681 H 0.26965 0.51403 0.12609 0.0
H682 H 0.2948 0.61806 0.15511 0.0
H683 H 0.26286 0.62211 0.14533 0.0
H684 H 0.26927 0.61212 0.17711 0.0
H685 H 0.29661 0.52144 0.09154 0.0
H686 H 0.28492 0.54989 0.07722 0.0
H687 H 0.31565 0.54964 0.0908 0.0
H688 H 0.27307 0.63507 0.06084 0.0
H689 H 0.34863 0.62781 0.08823 0.0
H690 H 0.24163 0.6039 0.10844 0.0
H691 H 0.24869 0.57941 0.08658 0.0
H692 H 0.23973 0.61008 0.07511 0.0
H693 H 0.3341 0.59589 0.14364 0.0
H694 H 0.35913 0.5992 0.12061 0.0
H695 H 0.33996 0.5711 0.12186 0.0
C696 C 0.41409 0.74085 0.96524 0.0
C697 C 0.4027 0.717 0.96607 0.0
C698 C 0.43149 0.74741 0.94627 0.0
C699 C 0.43755 0.72982 0.92726 0.0
C700 C 0.42654 0.70545 0.92822 0.0
C701 C 0.40933 0.69924 0.94776 0.0
C702 C 0.44304 0.77345 0.94637 0.0
C703 C 0.43236 0.68625 0.90822 0.0
C704 C 0.46269 0.76368 0.86896 0.0
C705 C 0.48879 0.76302 0.87308 0.0
C706 C 0.44577 0.75104 0.88529 0.0
C707 C 0.45511 0.73758 0.90638 0.0
C708 C 0.48149 0.73516 0.90941 0.0
C709 C 0.49798 0.74777 0.89268 0.0
C710 C 0.41781 0.75378 0.88106 0.0
C711 C 0.49236 0.7211 0.9316 0.0
H712 H 0.40924 0.75461 0.97945 0.0
H713 H 0.40045 0.68085 0.94821 0.0
H714 H 0.46391 0.77212 0.94624 0.0
H715 H 0.4375 0.78388 0.92911 0.0
H716 H 0.43708 0.78454 0.96303 0.0
H717 H 0.42362 0.66767 0.91251 0.0
H718 H 0.42527 0.69303 0.88979 0.0
H719 H 0.45304 0.68379 0.90619 0.0
H720 H 0.45534 0.77519 0.85379 0.0
H721 H 0.51809 0.74691 0.89602 0.0
H722 H 0.40983 0.76695 0.89515 0.0
H723 H 0.40807 0.73542 0.88363 0.0
H724 H 0.41363 0.76121 0.86194 0.0
H725 H 0.48949 0.73231 0.94894 0.0
H726 H 0.51289 0.71762 0.9292 0.0
H727 H 0.48261 0.70281 0.93447 0.0
C728 C 0.34181 0.41455 0.90885 0.0
C729 C 0.34256 0.41889 0.93491 0.0
C730 C 0.32699 0.42954 0.89291 0.0
C731 C 0.31285 0.44962 0.90317 0.0
C732 C 0.31538 0.45551 0.92903 0.0
C733 C 0.33006 0.43999 0.94463 0.0
C734 C 0.32481 0.42249 0.86551 0.0
C735 C 0.3011 0.47711 0.94064 0.0
C736 C 0.27842 0.4956 0.85991 0.0
C737 C 0.25363 0.4864 0.86154 0.0
C738 C 0.29808 0.48376 0.87314 0.0
C739 C 0.29283 0.462 0.8879 0.0
C740 C 0.26798 0.45214 0.8887 0.0
C741 C 0.2487 0.46459 0.87574 0.0
C742 C 0.32419 0.49508 0.87212 0.0
C743 C 0.26159 0.4287 0.90374 0.0
H744 H 0.35147 0.3984 0.90105 0.0
H745 H 0.3307 0.44367 0.96467 0.0
H746 H 0.30605 0.41384 0.86228 0.0
H747 H 0.32625 0.43942 0.85324 0.0
H748 H 0.33955 0.40885 0.85969 0.0
H749 H 0.30799 0.48161 0.9598 0.0
H750 H 0.30274 0.49421 0.92861 0.0
H751 H 0.2808 0.47216 0.94208 0.0
H752 H 0.28224 0.51266 0.84921 0.0
H753 H 0.22958 0.45737 0.87698 0.0
H754 H 0.3383 0.48057 0.86704 0.0
H755 H 0.32923 0.50223 0.89102 0.0
H756 H 0.32562 0.51087 0.85834 0.0
H757 H 0.27408 0.413 0.89802 0.0
H758 H 0.24168 0.42271 0.90129 0.0
H759 H 0.26479 0.43213 0.92406 0.0
C760 C 0.5387 0.24105 0.92598 0.0
C761 C 0.54437 0.22942 0.90298 0.0
C762 C 0.5559 0.25769 0.93721 0.0
C763 C 0.57911 0.26321 0.9249 0.0
C764 C 0.58527 0.25089 0.90213 0.0
C765 C 0.56798 0.23398 0.8916 0.0
C766 C 0.54888 0.27 0.96182 0.0
C767 C 0.60962 0.25646 0.88819 0.0
C768 C 0.60965 0.32685 0.93713 0.0
C769 C 0.62976 0.32028 0.95279 0.0
C770 C 0.59311 0.30846 0.92788 0.0
C771 C 0.59636 0.28291 0.93497 0.0
C772 C 0.61645 0.27621 0.95107 0.0
C773 C 0.63309 0.29493 0.95952 0.0
C774 C 0.57228 0.31634 0.91031 0.0
C775 C 0.62021 0.24931 0.95954 0.0
H776 H 0.52056 0.23761 0.93494 0.0
H777 H 0.57257 0.22522 0.87378 0.0
H778 H 0.56442 0.26796 0.97553 0.0
H779 H 0.5459 0.29043 0.95871 0.0
H780 H 0.5314 0.26184 0.97023 0.0
H781 H 0.6121 0.24449 0.87128 0.0
H782 H 0.60995 0.27649 0.88212 0.0
H783 H 0.62595 0.25354 0.90077 0.0
H784 H 0.60701 0.3464 0.93185 0.0
H785 H 0.64841 0.28977 0.97191 0.0
H786 H 0.55367 0.31124 0.91861 0.0
H787 H 0.57411 0.30615 0.89221 0.0
H788 H 0.57252 0.33689 0.90633 0.0
H789 H 0.60282 0.24217 0.96895 0.0
H790 H 0.63621 0.24733 0.97277 0.0
H791 H 0.62382 0.23718 0.94299 0.0
C792 C 0.74996 0.65859 0.9651 0.0
C793 C 0.75637 0.65701 0.99063 0.0
C794 C 0.7632 0.64472 0.94679 0.0
C795 C 0.78292 0.62838 0.95423 0.0
C796 C 0.78961 0.62693 0.97996 0.0
C797 C 0.77646 0.64145 0.99778 0.0
C798 C 0.75573 0.6472 0.91951 0.0
C799 C 0.81003 0.60931 0.98884 0.0
C800 C 0.79397 0.57267 0.91107 0.0
C801 C 0.81572 0.57996 0.89764 0.0
C802 C 0.7837 0.58786 0.93004 0.0
C803 C 0.79505 0.61134 0.93541 0.0
C804 C 0.81739 0.6186 0.9223 0.0
C805 C 0.82766 0.60265 0.90373 0.0
C806 C 0.7603 0.57898 0.94394 0.0
C807 C 0.82984 0.64364 0.92718 0.0
H808 H 0.73461 0.67073 0.95941 0.0
H809 H 0.78147 0.64 0.01749 0.0
H810 H 0.77259 0.65126 0.90761 0.0
H811 H 0.74759 0.62917 0.91295 0.0
H812 H 0.74164 0.66232 0.91651 0.0
H813 H 0.81387 0.61131 0.00927 0.0
H814 H 0.80433 0.58956 0.98522 0.0
H815 H 0.82777 0.61283 0.97817 0.0
H816 H 0.78476 0.55505 0.90653 0.0
H817 H 0.84431 0.60846 0.8932 0.0
H818 H 0.74433 0.59169 0.93965 0.0
H819 H 0.76335 0.5796 0.96458 0.0
H820 H 0.75483 0.5595 0.93875 0.0
H821 H 0.8168 0.65907 0.92197 0.0
H822 H 0.84768 0.64604 0.9163 0.0
H823 H 0.83396 0.64563 0.94752 0.0
C824 C 0.08526 0.40894 0.33505 0.0
C825 C 0.06005 0.41516 0.33004 0.0
C826 C 0.10534 0.42117 0.32235 0.0
C827 C 0.10016 0.43985 0.30392 0.0
C828 C 0.07478 0.44643 0.29908 0.0
C829 C 0.05513 0.43417 0.31226 0.0
C830 C 0.1321 0.41384 0.32837 0.0
C831 C 0.0683 0.46609 0.2795 0.0
C832 C 0.14843 0.48872 0.28182 0.0
C833 C 0.15594 0.47924 0.2583 0.0
C834 C 0.13129 0.47551 0.29743 0.0
C835 C 0.12107 0.45232 0.28927 0.0
C836 C 0.12943 0.4421 0.26606 0.0
C837 C 0.14686 0.45558 0.25096 0.0
C838 C 0.12324 0.48696 0.32216 0.0
C839 C 0.11895 0.41754 0.25652 0.0
H840 H 0.08931 0.39431 0.34874 0.0
H841 H 0.03578 0.43907 0.30807 0.0
H842 H 0.14126 0.40566 0.31146 0.0
H843 H 0.14316 0.43075 0.33358 0.0
H844 H 0.13305 0.39991 0.34403 0.0
H845 H 0.04765 0.46918 0.27806 0.0
H846 H 0.07746 0.48425 0.28413 0.0
H847 H 0.0756 0.46025 0.26079 0.0
H848 H 0.15539 0.50692 0.28777 0.0
H849 H 0.15241 0.44808 0.23281 0.0
H850 H 0.12453 0.47285 0.3376 0.0
H851 H 0.10326 0.49294 0.32104 0.0
H852 H 0.1349 0.50359 0.32709 0.0
H853 H 0.12062 0.40263 0.27113 0.0
H854 H 0.12872 0.41118 0.23911 0.0
H855 H 0.09859 0.41977 0.25242 0.0
C856 C 0.1599 0.55834 0.7372 0.0
C857 C 0.17832 0.56881 0.75285 0.0
C858 C 0.1429 0.57365 0.72407 0.0
C859 C 0.14461 0.60013 0.72625 0.0
C860 C 0.16436 0.61087 0.74045 0.0
C861 C 0.18089 0.59508 0.75373 0.0
C862 C 0.12201 0.56141 0.70932 0.0
C863 C 0.16715 0.63903 0.74282 0.0
C864 C 0.10607 0.64013 0.68103 0.0
C865 C 0.08502 0.64617 0.696 0.0
C866 C 0.12585 0.62551 0.69069 0.0
C867 C 0.12433 0.61637 0.71577 0.0
C868 C 0.10306 0.62231 0.73091 0.0
C869 C 0.08379 0.63731 0.72091 0.0
C870 C 0.14838 0.6199 0.67412 0.0
C871 C 0.10053 0.61262 0.75764 0.0
H872 H 0.1577 0.53807 0.73637 0.0
H873 H 0.19514 0.60334 0.76564 0.0
H874 H 0.10368 0.56482 0.71891 0.0
H875 H 0.12085 0.56979 0.69018 0.0
H876 H 0.12467 0.54076 0.70754 0.0
H877 H 0.18526 0.6444 0.75169 0.0
H878 H 0.16603 0.64824 0.72404 0.0
H879 H 0.15147 0.64649 0.75451 0.0
H880 H 0.10724 0.64711 0.66182 0.0
H881 H 0.06755 0.64181 0.73255 0.0
H882 H 0.15018 0.59929 0.67152 0.0
H883 H 0.1659 0.62649 0.68331 0.0
H884 H 0.14702 0.62902 0.65529 0.0
H885 H 0.1011 0.59175 0.75783 0.0
H886 H 0.08271 0.61877 0.76683 0.0
H887 H 0.1166 0.61935 0.76903 0.0
C888 C 0.36575 0.08175 0.76422 0.0
C889 C 0.3538 0.06149 0.77655 0.0
C890 C 0.38261 0.09749 0.77704 0.0
C891 C 0.38783 0.09279 0.80278 0.0
C892 C 0.37569 0.0725 0.81538 0.0
C893 C 0.35877 0.05718 0.80217 0.0
C894 C 0.39499 0.11909 0.76297 0.0
C895 C 0.38084 0.06675 0.84276 0.0
C896 C 0.44912 0.12058 0.8273 0.0
C897 C 0.44066 0.14276 0.83877 0.0
C898 C 0.43206 0.10372 0.81622 0.0
C899 C 0.40593 0.10921 0.81648 0.0
C900 C 0.3972 0.13103 0.82892 0.0
C901 C 0.41463 0.14745 0.83999 0.0
C902 C 0.44211 0.08049 0.80342 0.0
C903 C 0.36953 0.13762 0.82961 0.0
H904 H 0.36206 0.08524 0.74445 0.0
H905 H 0.34977 0.0415 0.81187 0.0
H906 H 0.39071 0.13709 0.77254 0.0
H907 H 0.41577 0.11676 0.76303 0.0
H908 H 0.38864 0.12047 0.74312 0.0
H909 H 0.36978 0.05036 0.84987 0.0
H910 H 0.40118 0.06277 0.84531 0.0
H911 H 0.37622 0.08334 0.85448 0.0
H912 H 0.46916 0.11677 0.82623 0.0
H913 H 0.40783 0.16451 0.84879 0.0
H914 H 0.43871 0.08182 0.78286 0.0
H915 H 0.43202 0.0635 0.81049 0.0
H916 H 0.46264 0.07794 0.80646 0.0
H917 H 0.36285 0.1413 0.81018 0.0
H918 H 0.36564 0.15451 0.84121 0.0
H919 H 0.35833 0.12161 0.83727 0.0
C920 C 0.89518 0.44448 0.84902 0.0
C921 C 0.90008 0.46937 0.84126 0.0
C922 C 0.90711 0.42404 0.83719 0.0
C923 C 0.92424 0.42855 0.81703 0.0
C924 C 0.93064 0.45366 0.81042 0.0
C925 C 0.91857 0.47372 0.82264 0.0
C926 C 0.9001 0.3976 0.84516 0.0
C927 C 0.94889 0.45942 0.78913 0.0
C928 C 0.96593 0.37874 0.78648 0.0
C929 C 0.95251 0.37378 0.76437 0.0
C930 C 0.95638 0.39548 0.80467 0.0
C931 C 0.9329 0.40748 0.80061 0.0
C932 C 0.91856 0.40109 0.77919 0.0
C933 C 0.92852 0.38436 0.76139 0.0
C934 C 0.97219 0.40155 0.82733 0.0
C935 C 0.89336 0.41322 0.77413 0.0
H936 H 0.88105 0.44084 0.86348 0.0
H937 H 0.92271 0.49283 0.8166 0.0
H938 H 0.88767 0.38915 0.83077 0.0
H939 H 0.91715 0.38564 0.84653 0.0
H940 H 0.88997 0.39719 0.86356 0.0
H941 H 0.95375 0.47974 0.78796 0.0
H942 H 0.96652 0.4485 0.79146 0.0
H943 H 0.94041 0.45373 0.77099 0.0
H944 H 0.98456 0.37079 0.78887 0.0
H945 H 0.91798 0.38051 0.74443 0.0
H946 H 0.96035 0.40221 0.84465 0.0
H947 H 0.98094 0.42039 0.82473 0.0
H948 H 0.98749 0.38759 0.83013 0.0
H949 H 0.88082 0.4114 0.79088 0.0
H950 H 0.8837 0.40477 0.75773 0.0
H951 H 0.8961 0.43361 0.77034 0.0
C952 C 0.63847 0.94072 0.71725 0.0
C953 C 0.62766 0.96054 0.70346 0.0
C954 C 0.62364 0.924 0.73164 0.0
C955 C 0.59713 0.92694 0.73231 0.0
C956 C 0.58589 0.94586 0.71712 0.0
C957 C 0.6013 0.9625 0.70288 0.0
C958 C 0.63656 0.90425 0.74751 0.0
C959 C 0.5577 0.94947 0.71704 0.0
C960 C 0.56005 0.87421 0.76564 0.0
C961 C 0.55728 0.88406 0.78997 0.0
C962 C 0.57215 0.88825 0.74629 0.0
C963 C 0.58193 0.91254 0.75149 0.0
C964 C 0.57893 0.92255 0.77597 0.0
C965 C 0.56664 0.9083 0.79475 0.0
C966 C 0.57474 0.877 0.7204 0.0
C967 C 0.58928 0.94818 0.78258 0.0
H968 H 0.6588 0.93876 0.71759 0.0
H969 H 0.59275 0.97767 0.69224 0.0
H970 H 0.63458 0.90912 0.76772 0.0
H971 H 0.6276 0.88559 0.74489 0.0
H972 H 0.65697 0.90268 0.74291 0.0
H973 H 0.55163 0.96213 0.70151 0.0
H974 H 0.5479 0.9311 0.71519 0.0
H975 H 0.55158 0.95779 0.73519 0.0
H976 H 0.55271 0.85562 0.76168 0.0
H977 H 0.56464 0.9162 0.81343 0.0
H978 H 0.59494 0.87377 0.71597 0.0
H979 H 0.56746 0.89029 0.70599 0.0
H980 H 0.56447 0.85884 0.71881 0.0
H981 H 0.6101 0.94826 0.78033 0.0
H982 H 0.58457 0.95365 0.80222 0.0
H983 H 0.5817 0.96269 0.7696 0.0
C984 C 0.9462 0.64191 0.28895 0.0
C985 C 0.96335 0.66034 0.28057 0.0
C986 C 0.93247 0.62742 0.27174 0.0
C987 C 0.93634 0.6311 0.24552 0.0
C988 C 0.95356 0.64975 0.23696 0.0
C989 C 0.96667 0.66429 0.25458 0.0
C990 C 0.91395 0.60803 0.28164 0.0
C991 C 0.95857 0.65395 0.2092 0.0
C992 C 0.91873 0.57552 0.20443 0.0
C993 C 0.89505 0.58278 0.19539 0.0
C994 C 0.93279 0.59147 0.22 0.0
C995 C 0.9227 0.61505 0.22712 0.0
C996 C 0.89913 0.62278 0.21747 0.0
C997 C 0.8857 0.60666 0.20153 0.0
C998 C 0.9581 0.58274 0.22943 0.0
C999 C 0.88757 0.64762 0.22487 0.0
H1000 H 0.94347 0.63883 0.309 0.0
H1001 H 0.98006 0.67835 0.24794 0.0
H1002 H 0.89504 0.61142 0.27351 0.0
H1003 H 0.91995 0.58896 0.27575 0.0
H1004 H 0.91228 0.60827 0.30251 0.0
H1005 H 0.9723 0.66941 0.20561 0.0
H1006 H 0.96604 0.63644 0.20071 0.0
H1007 H 0.94074 0.6585 0.19942 0.0
H1008 H 0.92609 0.55712 0.19972 0.0
H1009 H 0.86731 0.61232 0.19483 0.0
H1010 H 0.95718 0.57988 0.25014 0.0
H1011 H 0.97268 0.59732 0.22557 0.0
H1012 H 0.96416 0.56484 0.22058 0.0
H1013 H 0.8837 0.64764 0.24545 0.0
H1014 H 0.86965 0.65138 0.21484 0.0
H1015 H 0.90091 0.66327 0.22082 0.0
C1016 C 0.38131 0.96195 0.31626 0.0
C1017 C 0.38207 0.98814 0.31311 0.0
C1018 C 0.39206 0.94592 0.29825 0.0
C1019 C 0.4047 0.95641 0.27704 0.0
C1020 C 0.40476 0.98289 0.27336 0.0
C1021 C 0.3931 0.99846 0.29132 0.0
C1022 C 0.39075 0.91781 0.30246 0.0
C1023 C 0.41843 0.99486 0.25125 0.0
C1024 C 0.4579 0.91851 0.24731 0.0
C1025 C 0.44691 0.91077 0.22476 0.0
C1026 C 0.44431 0.93329 0.26457 0.0
C1027 C 0.41894 0.93981 0.25944 0.0
C1028 C 0.40742 0.93092 0.23726 0.0
C1029 C 0.42168 0.91685 0.22 0.0
C1030 C 0.45742 0.94276 0.2878 0.0
C1031 C 0.38021 0.93668 0.23149 0.0
H1032 H 0.3728 0.95401 0.33319 0.0
H1033 H 0.39406 0.01875 0.28913 0.0
H1034 H 0.38432 0.90827 0.28513 0.0
H1035 H 0.4098 0.91052 0.30683 0.0
H1036 H 0.3778 0.91263 0.31824 0.0
H1037 H 0.41589 0.01559 0.25056 0.0
H1038 H 0.43888 0.99073 0.25248 0.0
H1039 H 0.41163 0.98679 0.23333 0.0
H1040 H 0.4775 0.91409 0.25085 0.0
H1041 H 0.41313 0.91078 0.20257 0.0
H1042 H 0.44701 0.93658 0.30497 0.0
H1043 H 0.45757 0.96365 0.28769 0.0
H1044 H 0.47717 0.93599 0.28906 0.0
H1045 H 0.36798 0.93131 0.24774 0.0
H1046 H 0.37351 0.92666 0.21451 0.0
H1047 H 0.37788 0.9572 0.22836 0.0
C1048 C 0.66005 0.07799 0.23129 0.0
C1049 C 0.66539 0.08344 0.25654 0.0
C1050 C 0.64033 0.09012 0.2186 0.0
C1051 C 0.6258 0.10843 0.23134 0.0
C1052 C 0.63152 0.11449 0.25662 0.0
C1053 C 0.65111 0.10178 0.26898 0.0
C1054 C 0.63462 0.08286 0.1918 0.0
C1055 C 0.61669 0.13416 0.27075 0.0
C1056 C 0.58734 0.15652 0.19491 0.0
C1057 C 0.56267 0.14756 0.19879 0.0
C1058 C 0.60816 0.1436 0.20476 0.0
C1059 C 0.60428 0.12095 0.21848 0.0
C1060 C 0.57958 0.111 0.22111 0.0
C1061 C 0.55906 0.1245 0.21138 0.0
C1062 C 0.63417 0.1549 0.20164 0.0
C1063 C 0.57469 0.08663 0.23514 0.0
H1064 H 0.67082 0.06367 0.22157 0.0
H1065 H 0.65514 0.10611 0.28846 0.0
H1066 H 0.6153 0.07487 0.1908 0.0
H1067 H 0.63515 0.09973 0.17938 0.0
H1068 H 0.64814 0.06877 0.18432 0.0
H1069 H 0.62417 0.13744 0.28993 0.0
H1070 H 0.61705 0.15223 0.26015 0.0
H1071 H 0.59668 0.1282 0.2725 0.0
H1072 H 0.59035 0.17436 0.1853 0.0
H1073 H 0.54009 0.11737 0.21437 0.0
H1074 H 0.64746 0.14077 0.19396 0.0
H1075 H 0.64137 0.16065 0.22031 0.0
H1076 H 0.63425 0.17163 0.18897 0.0
H1077 H 0.58719 0.07159 0.22786 0.0
H1078 H 0.55479 0.0803 0.23355 0.0
H1079 H 0.57905 0.08909 0.25538 0.0
C1080 C 0.74142 0.97677 0.63353 0.0
C1081 C 0.71802 0.96652 0.64057 0.0
C1082 C 0.75963 0.96196 0.62117 0.0
C1083 C 0.75442 0.93626 0.61628 0.0
C1084 C 0.73141 0.92554 0.62483 0.0
C1085 C 0.7134 0.94087 0.63659 0.0
C1086 C 0.78381 0.97416 0.61209 0.0
C1087 C 0.7253 0.89814 0.62055 0.0
C1088 C 0.78513 0.90551 0.5593 0.0
C1089 C 0.80527 0.89243 0.57019 0.0
C1090 C 0.76863 0.91997 0.57409 0.0
C1091 C 0.77202 0.92105 0.60051 0.0
C1092 C 0.79189 0.90734 0.61171 0.0
C1093 C 0.80841 0.89337 0.5964 0.0
C1094 C 0.74779 0.93446 0.56135 0.0
C1095 C 0.7958 0.90756 0.63984 0.0
H1096 H 0.74493 0.99665 0.63637 0.0
H1097 H 0.69536 0.93286 0.64219 0.0
H1098 H 0.80031 0.96305 0.61835 0.0
H1099 H 0.78421 0.97456 0.59119 0.0
H1100 H 0.78585 0.99374 0.61901 0.0
H1101 H 0.70789 0.89211 0.63075 0.0
H1102 H 0.72261 0.89483 0.60014 0.0
H1103 H 0.74115 0.88608 0.62675 0.0
H1104 H 0.78267 0.90509 0.53906 0.0
H1105 H 0.8239 0.88329 0.60497 0.0
H1106 H 0.74963 0.9548 0.56557 0.0
H1107 H 0.72919 0.92815 0.56877 0.0
H1108 H 0.74801 0.93205 0.54058 0.0
H1109 H 0.79968 0.92703 0.64617 0.0
H1110 H 0.81169 0.89532 0.6457 0.0
H1111 H 0.77839 0.90111 0.64971 0.0
C1112 C 0.20384 0.74586 0.54338 0.0
C1113 C 0.20791 0.77142 0.5376 0.0
C1114 C 0.18219 0.73774 0.55654 0.0
C1115 C 0.1639 0.75553 0.56412 0.0
C1116 C 0.16736 0.78122 0.55763 0.0
C1117 C 0.18935 0.78882 0.54459 0.0
C1118 C 0.17933 0.71016 0.56308 0.0
C1119 C 0.14826 0.80082 0.56519 0.0
C1120 C 0.09996 0.72939 0.58517 0.0
C1121 C 0.10262 0.72854 0.61146 0.0
C1122 C 0.11944 0.73879 0.5695 0.0
C1123 C 0.14218 0.74738 0.58036 0.0
C1124 C 0.14476 0.74697 0.6069 0.0
C1125 C 0.12498 0.73763 0.62208 0.0
C1126 C 0.11587 0.73912 0.54131 0.0
C1127 C 0.1687 0.75587 0.61927 0.0
H1128 H 0.21787 0.73207 0.53801 0.0
H1129 H 0.19218 0.80848 0.54062 0.0
H1130 H 0.1797 0.70762 0.58384 0.0
H1131 H 0.16088 0.70301 0.55648 0.0
H1132 H 0.19453 0.69852 0.55463 0.0
H1133 H 0.1525 0.81954 0.55668 0.0
H1134 H 0.12907 0.79494 0.55945 0.0
H1135 H 0.14802 0.80273 0.58599 0.0
H1136 H 0.08271 0.72257 0.57678 0.0
H1137 H 0.12726 0.73713 0.64234 0.0
H1138 H 0.12959 0.72621 0.53229 0.0
H1139 H 0.11963 0.75825 0.53363 0.0
H1140 H 0.09654 0.7333 0.5359 0.0
H1141 H 0.18473 0.74392 0.61321 0.0
H1142 H 0.16737 0.75522 0.64017 0.0
H1143 H 0.17309 0.77545 0.6133 0.0
C1144 C 0.18554 0.10763 0.58875 0.0
C1145 C 0.17406 0.12928 0.59853 0.0
C1146 C 0.19982 0.09156 0.60424 0.0
C1147 C 0.20274 0.0973 0.63009 0.0
C1148 C 0.19035 0.11854 0.64024 0.0
C1149 C 0.17614 0.13417 0.62439 0.0
C1150 C 0.21253 0.06896 0.59274 0.0
C1151 C 0.19291 0.12534 0.66768 0.0
C1152 C 0.22526 0.04729 0.67641 0.0
C1153 C 0.25094 0.05332 0.67875 0.0
C1154 C 0.20946 0.06117 0.66039 0.0
C1155 C 0.21948 0.08172 0.64642 0.0
C1156 C 0.24537 0.08793 0.64868 0.0
C1157 C 0.26079 0.07364 0.66475 0.0
C1158 C 0.18201 0.05387 0.65847 0.0
C1159 C 0.25677 0.10979 0.63421 0.0
H1160 H 0.18413 0.10369 0.56881 0.0
H1161 H 0.16732 0.15079 0.63221 0.0
H1162 H 0.23329 0.0714 0.5934 0.0
H1163 H 0.20779 0.05172 0.60373 0.0
H1164 H 0.20697 0.06608 0.57283 0.0
H1165 H 0.18114 0.14179 0.6729 0.0
H1166 H 0.18739 0.10914 0.67983 0.0
H1167 H 0.21289 0.12983 0.6718 0.0
H1168 H 0.21745 0.03155 0.68699 0.0
H1169 H 0.28058 0.07843 0.66635 0.0
H1170 H 0.17724 0.04996 0.63857 0.0
H1171 H 0.16994 0.06969 0.66471 0.0
H1172 H 0.17728 0.03699 0.67006 0.0
H1173 H 0.25393 0.1072 0.61371 0.0
H1174 H 0.27728 0.11195 0.63773 0.0
H1175 H 0.24715 0.1275 0.63957 0.0
C1176 C 0.88348 0.28299 0.56447 0.0
C1177 C 0.87805 0.25729 0.56775 0.0
C1178 C 0.90241 0.29489 0.57836 0.0
C1179 C 0.91602 0.28092 0.59646 0.0
C1180 C 0.91099 0.25481 0.59956 0.0
C1181 C 0.89222 0.2432 0.58492 0.0
C1182 C 0.90751 0.32256 0.57391 0.0
C1183 C 0.92493 0.23932 0.61884 0.0
C1184 C 0.97796 0.30811 0.62029 0.0
C1185 C 0.97039 0.31961 0.64285 0.0
C1186 C 0.96053 0.29549 0.60501 0.0
C1187 C 0.9349 0.29396 0.61261 0.0
C1188 C 0.9271 0.30569 0.63527 0.0
C1189 C 0.94487 0.31852 0.64999 0.0
C1190 C 0.96956 0.28375 0.58075 0.0
C1191 C 0.9 0.3044 0.64414 0.0
H1192 H 0.87284 0.29392 0.55093 0.0
H1193 H 0.88804 0.22337 0.58754 0.0
H1194 H 0.9026 0.33331 0.59109 0.0
H1195 H 0.92786 0.32573 0.57 0.0
H1196 H 0.89652 0.33027 0.5579 0.0
H1197 H 0.91935 0.21915 0.61848 0.0
H1198 H 0.94555 0.24074 0.61547 0.0
H1199 H 0.92111 0.24678 0.63796 0.0
H1200 H 0.99763 0.30882 0.6146 0.0
H1201 H 0.93885 0.32709 0.6675 0.0
H1202 H 0.95909 0.29183 0.56461 0.0
H1203 H 0.96571 0.26323 0.5811 0.0
H1204 H 0.99006 0.28675 0.57742 0.0
H1205 H 0.88759 0.31341 0.63001 0.0
H1206 H 0.89709 0.31387 0.66253 0.0
H1207 H 0.89396 0.28446 0.64604 0.0
C1208 C 0.76311 0.09794 0.36618 0.0
C1209 C 0.74451 0.08176 0.37608 0.0
C1210 C 0.77646 0.11446 0.38188 0.0
C1211 C 0.77085 0.11502 0.40802 0.0
C1212 C 0.75256 0.09825 0.41817 0.0
C1213 C 0.73974 0.08178 0.40213 0.0
C1214 C 0.79604 0.13183 0.37038 0.0
C1215 C 0.74575 0.09839 0.44586 0.0
C1216 C 0.81241 0.1484 0.45589 0.0
C1217 C 0.79948 0.17119 0.45889 0.0
C1218 C 0.80392 0.13018 0.43869 0.0
C1219 C 0.78194 0.13485 0.42438 0.0
C1220 C 0.76932 0.15812 0.42687 0.0
C1221 C 0.77828 0.17595 0.44393 0.0
C1222 C 0.81803 0.10569 0.43634 0.0
C1223 C 0.74573 0.16388 0.41215 0.0
H1224 H 0.76713 0.09786 0.34613 0.0
H1225 H 0.72549 0.06929 0.41002 0.0
H1226 H 0.7893 0.15155 0.3713 0.0
H1227 H 0.81382 0.13081 0.38118 0.0
H1228 H 0.80015 0.12724 0.35038 0.0
H1229 H 0.73236 0.08306 0.45108 0.0
H1230 H 0.76294 0.09639 0.45744 0.0
H1231 H 0.73698 0.11667 0.45076 0.0
H1232 H 0.82883 0.14458 0.46729 0.0
H1233 H 0.76817 0.19353 0.44593 0.0
H1234 H 0.82217 0.10167 0.41625 0.0
H1235 H 0.80614 0.09003 0.44371 0.0
H1236 H 0.83603 0.10588 0.44689 0.0
H1237 H 0.74935 0.16164 0.39169 0.0
H1238 H 0.73875 0.18328 0.41549 0.0
H1239 H 0.73059 0.15039 0.41757 0.0
C1240 C 0.95951 0.76165 0.3998 0.0
C1241 C 0.95826 0.73641 0.3923 0.0
C1242 C 0.94188 0.77162 0.41687 0.0
C1243 C 0.92228 0.75609 0.42658 0.0
C1244 C 0.92075 0.73065 0.41896 0.0
C1245 C 0.93881 0.72107 0.402 0.0
C1246 C 0.94435 0.7988 0.42468 0.0
C1247 C 0.90008 0.71354 0.42879 0.0
C1248 C 0.89275 0.77972 0.48743 0.0
C1249 C 0.87225 0.79369 0.4784 0.0
C1250 C 0.90853 0.76636 0.47091 0.0
C1251 C 0.90355 0.76671 0.44473 0.0
C1252 C 0.8819 0.77935 0.43574 0.0
C1253 C 0.86659 0.7928 0.45265 0.0
C1254 C 0.9315 0.75333 0.48132 0.0
C1255 C 0.87574 0.77996 0.40804 0.0
H1256 H 0.9745 0.77364 0.39255 0.0
H1257 H 0.93767 0.70156 0.39632 0.0
H1258 H 0.92699 0.80926 0.41974 0.0
H1259 H 0.94654 0.79995 0.44541 0.0
H1260 H 0.96073 0.80834 0.41552 0.0
H1261 H 0.90126 0.69433 0.42076 0.0
H1262 H 0.90114 0.71206 0.44961 0.0
H1263 H 0.88138 0.7216 0.42423 0.0
H1264 H 0.89744 0.78041 0.50725 0.0
H1265 H 0.85078 0.8035 0.44552 0.0
H1266 H 0.94872 0.7637 0.47524 0.0
H1267 H 0.93298 0.73394 0.47386 0.0
H1268 H 0.93116 0.75238 0.50223 0.0
H1269 H 0.88998 0.79156 0.39779 0.0
H1270 H 0.85679 0.78802 0.40445 0.0
H1271 H 0.8765 0.76073 0.40007 0.0
C1272 C 0.318 0.96471 0.39536 0.0
C1273 C 0.33056 0.98475 0.40694 0.0
C1274 C 0.30773 0.94474 0.40949 0.0
C1275 C 0.30958 0.94491 0.43606 0.0
C1276 C 0.32284 0.96476 0.44791 0.0
C1277 C 0.33343 0.98439 0.43316 0.0
C1278 C 0.29426 0.92377 0.39596 0.0
C1279 C 0.32499 0.96577 0.4762 0.0
C1280 C 0.25805 0.90717 0.46974 0.0
C1281 C 0.27061 0.88477 0.47583 0.0
C1282 C 0.27079 0.92725 0.45775 0.0
C1283 C 0.29663 0.92476 0.4512 0.0
C1284 C 0.30944 0.90223 0.45741 0.0
C1285 C 0.29635 0.88263 0.46984 0.0
C1286 C 0.25648 0.95104 0.45176 0.0
C1287 C 0.3368 0.89856 0.45031 0.0
H1288 H 0.31595 0.96476 0.37505 0.0
H1289 H 0.34297 0.99993 0.44219 0.0
H1290 H 0.30195 0.90525 0.40182 0.0
H1291 H 0.27395 0.92388 0.40109 0.0
H1292 H 0.29602 0.92553 0.37515 0.0
H1293 H 0.33705 0.98163 0.48246 0.0
H1294 H 0.30594 0.96794 0.48473 0.0
H1295 H 0.33291 0.94792 0.48357 0.0
H1296 H 0.23825 0.90911 0.47455 0.0
H1297 H 0.30622 0.86539 0.47446 0.0
H1298 H 0.25519 0.95352 0.43105 0.0
H1299 H 0.26667 0.96764 0.4592 0.0
H1300 H 0.23707 0.95079 0.45981 0.0
H1301 H 0.33892 0.89894 0.4295 0.0
H1302 H 0.34437 0.88045 0.45752 0.0
H1303 H 0.34841 0.91417 0.45778 0.0
C1304 C 0.09402 0.20814 0.47522 0.0
C1305 C 0.11505 0.19517 0.4658 0.0
C1306 C 0.08061 0.2251 0.45994 0.0
C1307 C 0.08837 0.22918 0.43461 0.0
C1308 C 0.10825 0.21459 0.42446 0.0
C1309 C 0.12132 0.19777 0.44014 0.0
C1310 C 0.05937 0.24008 0.4715 0.0
C1311 C 0.11705 0.21814 0.39754 0.0
C1312 C 0.04731 0.27013 0.39206 0.0
C1313 C 0.0586 0.29385 0.39497 0.0
C1314 C 0.05691 0.24872 0.40451 0.0
C1315 C 0.07834 0.25111 0.42011 0.0
C1316 C 0.09019 0.27489 0.42244 0.0
C1317 C 0.08019 0.29587 0.40992 0.0
C1318 C 0.04377 0.22372 0.40152 0.0
C1319 C 0.11322 0.27833 0.43865 0.0
H1320 H 0.08885 0.20618 0.49493 0.0
H1321 H 0.13738 0.18768 0.43255 0.0
H1322 H 0.06564 0.25982 0.47415 0.0
H1323 H 0.04287 0.24046 0.45881 0.0
H1324 H 0.05334 0.23232 0.49009 0.0
H1325 H 0.12993 0.20287 0.39142 0.0
H1326 H 0.10077 0.21886 0.38459 0.0
H1327 H 0.12725 0.23634 0.39572 0.0
H1328 H 0.03056 0.26841 0.38064 0.0
H1329 H 0.08917 0.31406 0.41219 0.0
H1330 H 0.03554 0.21766 0.41987 0.0
H1331 H 0.05749 0.20909 0.39574 0.0
H1332 H 0.02845 0.22458 0.3874 0.0
H1333 H 0.10854 0.27353 0.45853 0.0
H1334 H 0.1206 0.29791 0.43792 0.0
H1335 H 0.12841 0.26541 0.43246 0.0
C1336 C 0.65202 0.76132 0.97723 0.0
C1337 C 0.64539 0.73571 0.97765 0.0
C1338 C 0.63962 0.77852 0.96133 0.0
C1339 C 0.62031 0.7699 0.94523 0.0
C1340 C 0.61351 0.74409 0.94562 0.0
C1341 C 0.62603 0.72738 0.96187 0.0
C1342 C 0.64723 0.80591 0.96169 0.0
C1343 C 0.59317 0.73404 0.92864 0.0
C1344 C 0.57166 0.81345 0.91555 0.0
C1345 C 0.58089 0.81569 0.89077 0.0
C1346 C 0.58487 0.79957 0.93386 0.0
C1347 C 0.60776 0.78751 0.92721 0.0
C1348 C 0.61776 0.79078 0.90259 0.0
C1349 C 0.6043 0.80488 0.88476 0.0
C1350 C 0.5737 0.79682 0.95999 0.0
C1351 C 0.64204 0.77824 0.89463 0.0
H1352 H 0.6668 0.768 0.98949 0.0
H1353 H 0.62073 0.70767 0.96203 0.0
H1354 H 0.65455 0.8117 0.94288 0.0
H1355 H 0.63055 0.81779 0.96583 0.0
H1356 H 0.66194 0.80979 0.97593 0.0
H1357 H 0.58992 0.71354 0.93139 0.0
H1358 H 0.57519 0.74405 0.93222 0.0
H1359 H 0.59846 0.73751 0.90864 0.0
H1360 H 0.55362 0.82169 0.92043 0.0
H1361 H 0.6117 0.80655 0.86573 0.0
H1362 H 0.58818 0.80073 0.97442 0.0
H1363 H 0.56714 0.77717 0.96296 0.0
H1364 H 0.55747 0.80964 0.96304 0.0
H1365 H 0.6573 0.78272 0.90805 0.0
H1366 H 0.64822 0.78409 0.87541 0.0
H1367 H 0.63947 0.7575 0.89489 0.0
C1368 C 0.27255 0.66255 0.97158 0.0
C1369 C 0.28845 0.68084 0.96061 0.0
C1370 C 0.25754 0.64691 0.95661 0.0
C1371 C 0.25825 0.64982 0.93009 0.0
C1372 C 0.27216 0.66998 0.91919 0.0
C1373 C 0.2872 0.68519 0.93456 0.0
C1374 C 0.24292 0.62574 0.96907 0.0
C1375 C 0.27303 0.67409 0.89103 0.0
C1376 C 0.2575 0.59145 0.88968 0.0
C1377 C 0.2332 0.59191 0.87955 0.0
C1378 C 0.26541 0.60971 0.90676 0.0
C1379 C 0.24874 0.62927 0.91371 0.0
C1380 C 0.22385 0.62948 0.90417 0.0
C1381 C 0.21628 0.61062 0.88727 0.0
C1382 C 0.29196 0.60839 0.91682 0.0
C1383 C 0.20561 0.65011 0.911 0.0
H1384 H 0.27315 0.65917 0.99173 0.0
H1385 H 0.29911 0.69952 0.92594 0.0
H1386 H 0.22407 0.62358 0.96045 0.0
H1387 H 0.25324 0.60781 0.96631 0.0
H1388 H 0.24048 0.62877 0.98963 0.0
H1389 H 0.281 0.69281 0.8859 0.0
H1390 H 0.28498 0.6594 0.88225 0.0
H1391 H 0.2539 0.67244 0.88291 0.0
H1392 H 0.27056 0.57683 0.884 0.0
H1393 H 0.19751 0.61108 0.87937 0.0
H1394 H 0.29162 0.60868 0.93772 0.0
H1395 H 0.30289 0.62507 0.91029 0.0
H1396 H 0.30204 0.59119 0.91062 0.0
H1397 H 0.20516 0.65299 0.93168 0.0
H1398 H 0.18619 0.64598 0.90451 0.0
H1399 H 0.21197 0.66806 0.9022 0.0
C1400 C 0.38632 0.28295 0.94906 0.0
C1401 C 0.37069 0.30395 0.9458 0.0
C1402 C 0.40166 0.27415 0.92936 0.0
C1403 C 0.40145 0.28662 0.90569 0.0
C1404 C 0.38451 0.3068 0.90173 0.0
C1405 C 0.36927 0.31519 0.92182 0.0
C1406 C 0.41921 0.25236 0.93436 0.0
C1407 C 0.38354 0.32049 0.87676 0.0
C1408 C 0.4642 0.28092 0.87135 0.0
C1409 C 0.45993 0.26012 0.8558 0.0
C1410 C 0.44482 0.2908 0.8865 0.0
C1411 C 0.4205 0.27969 0.88607 0.0
C1412 C 0.41556 0.26003 0.86894 0.0
C1413 C 0.43531 0.2505 0.85398 0.0
C1414 C 0.4509 0.31195 0.90432 0.0
C1415 C 0.38988 0.2478 0.86768 0.0
H1416 H 0.38743 0.27398 0.96743 0.0
H1417 H 0.35722 0.33139 0.91902 0.0
H1418 H 0.41705 0.23779 0.91967 0.0
H1419 H 0.43904 0.25905 0.93355 0.0
H1420 H 0.41573 0.24351 0.9531 0.0
H1421 H 0.36719 0.33346 0.87564 0.0
H1422 H 0.40107 0.33166 0.87404 0.0
H1423 H 0.38249 0.30691 0.86102 0.0
H1424 H 0.48307 0.28864 0.87283 0.0
H1425 H 0.43168 0.23457 0.84189 0.0
H1426 H 0.4506 0.30469 0.92398 0.0
H1427 H 0.4365 0.32698 0.90302 0.0
H1428 H 0.46976 0.32034 0.90043 0.0
H1429 H 0.38674 0.23603 0.88477 0.0
H1430 H 0.38801 0.23561 0.85087 0.0
H1431 H 0.37483 0.26224 0.86727 0.0
C1432 C 0.74471 0.40455 0.92243 0.0
C1433 C 0.71886 0.40086 0.91829 0.0
C1434 C 0.75967 0.41852 0.90537 0.0
C1435 C 0.74869 0.42877 0.88334 0.0
C1436 C 0.72284 0.42426 0.87853 0.0
C1437 C 0.70819 0.41056 0.89615 0.0
C1438 C 0.78706 0.42312 0.91145 0.0
C1439 C 0.7105 0.43445 0.85508 0.0
C1440 C 0.78139 0.48707 0.85678 0.0
C1441 C 0.79759 0.47686 0.83846 0.0
C1442 C 0.76484 0.47175 0.87092 0.0
C1443 C 0.76397 0.44554 0.86635 0.0
C1444 C 0.77908 0.43532 0.84682 0.0
C1445 C 0.79586 0.45104 0.83325 0.0
C1446 C 0.74932 0.48347 0.89172 0.0
C1447 C 0.77833 0.40758 0.84097 0.0
H1448 H 0.75315 0.39725 0.9395 0.0
H1449 H 0.68828 0.40769 0.8927 0.0
H1450 H 0.79927 0.41683 0.89565 0.0
H1451 H 0.79041 0.44358 0.91388 0.0
H1452 H 0.79295 0.41317 0.92891 0.0
H1453 H 0.69091 0.42738 0.85293 0.0
H1454 H 0.71 0.4553 0.85578 0.0
H1455 H 0.72164 0.42922 0.83813 0.0
H1456 H 0.78249 0.50694 0.86105 0.0
H1457 H 0.8082 0.44294 0.81911 0.0
H1458 H 0.75539 0.47583 0.91021 0.0
H1459 H 0.72912 0.47861 0.88953 0.0
H1460 H 0.75123 0.50429 0.89207 0.0
H1461 H 0.78681 0.39679 0.85672 0.0
H1462 H 0.78882 0.40309 0.82337 0.0
H1463 H 0.75855 0.40105 0.8391 0.0
C1464 C 0.61493 0.34626 0.06228 0.0
C1465 C 0.64075 0.3422 0.05803 0.0
C1466 C 0.60164 0.33275 0.081 0.0
C1467 C 0.6145 0.31491 0.09607 0.0
C1468 C 0.64088 0.31194 0.09297 0.0
C1469 C 0.65365 0.32548 0.07389 0.0
C1470 C 0.57349 0.33636 0.08345 0.0
C1471 C 0.65537 0.29335 0.10882 0.0
C1472 C 0.57878 0.28474 0.15155 0.0
C1473 C 0.57008 0.2624 0.14064 0.0
C1474 C 0.59369 0.30196 0.13751 0.0
C1475 C 0.59981 0.29673 0.11201 0.0
C1476 C 0.5913 0.27407 0.10112 0.0
C1477 C 0.57671 0.25725 0.11552 0.0
C1478 C 0.60263 0.32584 0.14981 0.0
C1479 C 0.59722 0.26769 0.07398 0.0
H1480 H 0.60478 0.35921 0.05022 0.0
H1481 H 0.67366 0.32243 0.07097 0.0
H1482 H 0.56365 0.31941 0.07633 0.0
H1483 H 0.56794 0.33861 0.10349 0.0
H1484 H 0.56684 0.35299 0.07263 0.0
H1485 H 0.67608 0.29601 0.10685 0.0
H1486 H 0.65005 0.2951 0.12899 0.0
H1487 H 0.65062 0.27392 0.10295 0.0
H1488 H 0.57378 0.28886 0.17092 0.0
H1489 H 0.57021 0.24006 0.10681 0.0
H1490 H 0.59424 0.34237 0.14017 0.0
H1491 H 0.62341 0.3276 0.14786 0.0
H1492 H 0.59748 0.32651 0.17012 0.0
H1493 H 0.58944 0.28238 0.06131 0.0
H1494 H 0.58931 0.24918 0.06843 0.0
H1495 H 0.61792 0.26731 0.07089 0.0
C1496 C 0.77422 0.55325 0.15965 0.0
C1497 C 0.78812 0.56274 0.1799 0.0
C1498 C 0.75788 0.56873 0.14585 0.0
C1499 C 0.75521 0.59434 0.15251 0.0
C1500 C 0.76779 0.60359 0.174 0.0
C1501 C 0.78411 0.58768 0.18744 0.0
C1502 C 0.74476 0.55804 0.12315 0.0
C1503 C 0.76522 0.63069 0.18189 0.0
C1504 C 0.74092 0.63987 0.09896 0.0
C1505 C 0.71488 0.64358 0.10183 0.0
C1506 C 0.75423 0.62414 0.1155 0.0
C1507 C 0.74126 0.61186 0.13556 0.0
C1508 C 0.71504 0.61576 0.1388 0.0
C1509 C 0.70215 0.6315 0.12186 0.0
C1510 C 0.78217 0.62039 0.11127 0.0
C1511 C 0.70058 0.60312 0.16001 0.0
H1512 H 0.777 0.53397 0.15375 0.0
H1513 H 0.79469 0.59522 0.20306 0.0
H1514 H 0.72439 0.56269 0.12365 0.0
H1515 H 0.75285 0.56661 0.10575 0.0
H1516 H 0.7468 0.53728 0.12196 0.0
H1517 H 0.77364 0.63416 0.20065 0.0
H1518 H 0.77485 0.64303 0.16784 0.0
H1519 H 0.74509 0.63627 0.18249 0.0
H1520 H 0.75095 0.64906 0.08356 0.0
H1521 H 0.68205 0.63431 0.1243 0.0
H1522 H 0.78609 0.60022 0.10774 0.0
H1523 H 0.79269 0.62579 0.12838 0.0
H1524 H 0.78953 0.63161 0.09505 0.0
H1525 H 0.70149 0.58239 0.1579 0.0
H1526 H 0.68046 0.60885 0.16055 0.0
H1527 H 0.70927 0.60774 0.17835 0.0
C1528 C 0.37159 0.76908 0.06368 0.0
C1529 C 0.3822 0.74514 0.06712 0.0
C1530 C 0.38224 0.79044 0.07509 0.0
C1531 C 0.40382 0.7877 0.09041 0.0
C1532 C 0.4145 0.76355 0.09393 0.0
C1533 C 0.40363 0.74267 0.08222 0.0
C1534 C 0.37045 0.81589 0.07077 0.0
C1535 C 0.43735 0.75967 0.11032 0.0
C1536 C 0.44944 0.83931 0.1094 0.0
C1537 C 0.44277 0.84234 0.1348 0.0
C1538 C 0.43562 0.82299 0.09389 0.0
C1539 C 0.41471 0.80954 0.1041 0.0
C1540 C 0.40668 0.81432 0.12909 0.0
C1541 C 0.4208 0.83064 0.14409 0.0
C1542 C 0.44462 0.81863 0.06725 0.0
C1543 C 0.38449 0.80054 0.14076 0.0
H1544 H 0.35518 0.77118 0.05183 0.0
H1545 H 0.41198 0.72428 0.08499 0.0
H1546 H 0.36378 0.82373 0.08896 0.0
H1547 H 0.38471 0.82919 0.06295 0.0
H1548 H 0.35426 0.81501 0.05767 0.0
H1549 H 0.44364 0.73976 0.1107 0.0
H1550 H 0.45322 0.77157 0.1034 0.0
H1551 H 0.43299 0.76552 0.1299 0.0
H1552 H 0.46639 0.84831 0.10211 0.0
H1553 H 0.41534 0.83317 0.16364 0.0
H1554 H 0.42847 0.81801 0.05413 0.0
H1555 H 0.45431 0.80019 0.06624 0.0
H1556 H 0.45802 0.83348 0.06078 0.0
H1557 H 0.36817 0.80066 0.12785 0.0
H1558 H 0.37857 0.8089 0.15899 0.0
H1559 H 0.38968 0.7806 0.14417 0.0
C1560 C 0.26454 0.39028 0.04393 0.0
C1561 C 0.28984 0.39501 0.04988 0.0
C1562 C 0.24477 0.40049 0.05858 0.0
C1563 C 0.25048 0.41552 0.07977 0.0
C1564 C 0.27601 0.42 0.08597 0.0
C1565 C 0.29525 0.4098 0.07097 0.0
C1566 C 0.21781 0.3955 0.05123 0.0
C1567 C 0.28307 0.43569 0.1085 0.0
C1568 C 0.20724 0.46362 0.11037 0.0
C1569 C 0.20046 0.45119 0.13286 0.0
C1570 C 0.22196 0.45156 0.09188 0.0
C1571 C 0.23014 0.42649 0.09597 0.0
C1572 C 0.22167 0.41327 0.1177 0.0
C1573 C 0.20692 0.42574 0.13582 0.0
C1574 C 0.23035 0.46633 0.0689 0.0
C1575 C 0.22989 0.38657 0.12291 0.0
H1576 H 0.26018 0.37903 0.02758 0.0
H1577 H 0.31471 0.41351 0.07584 0.0
H1578 H 0.20745 0.3864 0.0671 0.0
H1579 H 0.20821 0.41357 0.04712 0.0
H1580 H 0.21647 0.38325 0.03443 0.0
H1581 H 0.30381 0.43713 0.11093 0.0
H1582 H 0.27536 0.45498 0.10642 0.0
H1583 H 0.27472 0.42739 0.12591 0.0
H1584 H 0.20234 0.48326 0.10781 0.0
H1585 H 0.20162 0.41585 0.153 0.0
H1586 H 0.2289 0.4547 0.0517 0.0
H1587 H 0.25042 0.47184 0.07095 0.0
H1588 H 0.21905 0.48371 0.06626 0.0
H1589 H 0.22776 0.3748 0.10588 0.0
H1590 H 0.21897 0.37779 0.13864 0.0
H1591 H 0.25015 0.38648 0.12796 0.0
C1592 C 0.91051 0.56256 0.75145 0.0
C1593 C 0.89242 0.57208 0.76834 0.0
C1594 C 0.92385 0.57844 0.73472 0.0
C1595 C 0.91906 0.60464 0.73465 0.0
C1596 C 0.90042 0.61437 0.75122 0.0
C1597 C 0.88735 0.59801 0.76787 0.0
C1598 C 0.94348 0.56717 0.71741 0.0
C1599 C 0.89462 0.64215 0.75168 0.0
C1600 C 0.97214 0.64622 0.70844 0.0
C1601 C 0.96449 0.65034 0.68349 0.0
C1602 C 0.95723 0.63203 0.72546 0.0
C1603 C 0.93396 0.62172 0.71748 0.0
C1604 C 0.92578 0.62644 0.69256 0.0
C1605 C 0.94112 0.64059 0.6759 0.0
C1606 C 0.96676 0.62744 0.75181 0.0
C1607 C 0.90111 0.61593 0.68324 0.0
H1608 H 0.91465 0.5426 0.75156 0.0
H1609 H 0.87349 0.60562 0.78083 0.0
H1610 H 0.93913 0.57186 0.69752 0.0
H1611 H 0.96227 0.57531 0.72153 0.0
H1612 H 0.94461 0.54638 0.71938 0.0
H1613 H 0.87894 0.64665 0.76489 0.0
H1614 H 0.91163 0.65281 0.75742 0.0
H1615 H 0.88953 0.64882 0.73255 0.0
H1616 H 0.99013 0.65362 0.71457 0.0
H1617 H 0.9349 0.6437 0.65674 0.0
H1618 H 0.97027 0.60705 0.75465 0.0
H1619 H 0.95231 0.63313 0.76587 0.0
H1620 H 0.9845 0.63788 0.75557 0.0
H1621 H 0.90198 0.59508 0.68303 0.0
H1622 H 0.89658 0.62271 0.66396 0.0
H1623 H 0.88549 0.62123 0.69617 0.0
C1624 C 0.90416 0.46983 0.25826 0.0
C1625 C 0.88823 0.46488 0.23791 0.0
C1626 C 0.91866 0.45069 0.26924 0.0
C1627 C 0.91728 0.42591 0.25967 0.0
C1628 C 0.90043 0.42052 0.23986 0.0
C1629 C 0.88608 0.44006 0.22923 0.0
C1630 C 0.93622 0.45724 0.29049 0.0
C1631 C 0.89834 0.39435 0.22922 0.0
C1632 C 0.97668 0.38798 0.27137 0.0
C1633 C 0.9703 0.37481 0.29354 0.0
C1634 C 0.95911 0.40363 0.25934 0.0
C1635 C 0.93454 0.40617 0.26968 0.0
C1636 C 0.92746 0.39163 0.29105 0.0
C1637 C 0.9454 0.3761 0.30269 0.0
C1638 C 0.96738 0.41865 0.23646 0.0
C1639 C 0.90144 0.39364 0.30259 0.0
H1640 H 0.90589 0.48889 0.26519 0.0
H1641 H 0.87386 0.43602 0.21349 0.0
H1642 H 0.93265 0.44465 0.30691 0.0
H1643 H 0.95605 0.45433 0.28438 0.0
H1644 H 0.93408 0.47706 0.29666 0.0
H1645 H 0.88276 0.39273 0.21546 0.0
H1646 H 0.91627 0.38932 0.21962 0.0
H1647 H 0.89519 0.38039 0.24457 0.0
H1648 H 0.99579 0.38708 0.26406 0.0
H1649 H 0.94017 0.36591 0.31972 0.0
H1650 H 0.96845 0.43889 0.24136 0.0
H1651 H 0.95342 0.41675 0.22115 0.0
H1652 H 0.98613 0.41266 0.22925 0.0
H1653 H 0.89928 0.41234 0.31151 0.0
H1654 H 0.89791 0.3789 0.31715 0.0
H1655 H 0.8868 0.39212 0.28788 0.0
C1656 C 0.64531 0.98004 0.26966 0.0
C1657 C 0.6693 0.9836 0.2588 0.0
C1658 C 0.62626 0.96708 0.25685 0.0
C1659 C 0.63122 0.95741 0.23251 0.0
C1660 C 0.65525 0.96124 0.22126 0.0
C1661 C 0.674 0.97424 0.23455 0.0
C1662 C 0.60096 0.9633 0.2696 0.0
C1663 C 0.66127 0.95123 0.19537 0.0
C1664 C 0.59145 0.90079 0.21543 0.0
C1665 C 0.57228 0.91158 0.20086 0.0
C1666 C 0.61118 0.91536 0.22497 0.0
C1667 C 0.61189 0.94151 0.21992 0.0
C1668 C 0.59323 0.95244 0.2043 0.0
C1669 C 0.57362 0.9373 0.19487 0.0
C1670 C 0.63071 0.90286 0.24138 0.0
C1671 C 0.59343 0.98026 0.19842 0.0
H1672 H 0.64139 0.98731 0.28831 0.0
H1673 H 0.69238 0.97707 0.22588 0.0
H1674 H 0.58567 0.97028 0.25728 0.0
H1675 H 0.59755 0.94292 0.27289 0.0
H1676 H 0.59967 0.97312 0.28797 0.0
H1677 H 0.68024 0.95721 0.18856 0.0
H1678 H 0.66051 0.93037 0.1957 0.0
H1679 H 0.64698 0.95778 0.18167 0.0
H1680 H 0.59075 0.88087 0.21993 0.0
H1681 H 0.55887 0.94576 0.18366 0.0
H1682 H 0.62925 0.91024 0.26084 0.0
H1683 H 0.64996 0.90728 0.23429 0.0
H1684 H 0.6284 0.88208 0.24217 0.0
H1685 H 0.58952 0.99097 0.21588 0.0
H1686 H 0.5791 0.98544 0.18417 0.0
H1687 H 0.6123 0.98621 0.19139 0.0
C1688 C 0.15759 0.60032 0.22678 0.0
C1689 C 0.1484 0.57938 0.21369 0.0
C1690 C 0.14132 0.61632 0.24009 0.0
C1691 C 0.11507 0.61145 0.24027 0.0
C1692 C 0.1055 0.59096 0.22625 0.0
C1693 C 0.12228 0.57513 0.21316 0.0
C1694 C 0.15236 0.63791 0.25476 0.0
C1695 C 0.0776 0.5853 0.22576 0.0
C1696 C 0.07771 0.63581 0.29659 0.0
C1697 C 0.0674 0.65815 0.28698 0.0
C1698 C 0.09299 0.62032 0.2815 0.0
C1699 C 0.09794 0.62718 0.25608 0.0
C1700 C 0.0874 0.64958 0.2462 0.0
C1701 C 0.07239 0.66485 0.26178 0.0
C1702 C 0.10406 0.59672 0.29286 0.0
C1703 C 0.09204 0.65746 0.21918 0.0
H1704 H 0.17771 0.60389 0.22726 0.0
H1705 H 0.11497 0.559 0.20316 0.0
H1706 H 0.14323 0.65585 0.24923 0.0
H1707 H 0.14863 0.635 0.27517 0.0
H1708 H 0.17303 0.63984 0.25178 0.0
H1709 H 0.07297 0.56995 0.21245 0.0
H1710 H 0.07104 0.57965 0.24488 0.0
H1711 H 0.06693 0.60239 0.2203 0.0
H1712 H 0.07395 0.63043 0.31599 0.0
H1713 H 0.06434 0.68194 0.25409 0.0
H1714 H 0.12495 0.59774 0.29208 0.0
H1715 H 0.09829 0.58006 0.2818 0.0
H1716 H 0.09806 0.59379 0.31277 0.0
H1717 H 0.11249 0.6607 0.21592 0.0
H1718 H 0.08173 0.67492 0.21409 0.0
H1719 H 0.08613 0.64222 0.20631 0.0
C1720 C 0.44907 0.16934 0.24039 0.0
C1721 C 0.46982 0.18545 0.24356 0.0
C1722 C 0.43895 0.15531 0.26056 0.0
C1723 C 0.44953 0.15752 0.28484 0.0
C1724 C 0.47025 0.17403 0.28839 0.0
C1725 C 0.48024 0.18773 0.26768 0.0
C1726 C 0.41689 0.13796 0.25577 0.0
C1727 C 0.48188 0.17712 0.31402 0.0
C1728 C 0.40187 0.13687 0.33437 0.0
C1729 C 0.40815 0.11147 0.33788 0.0
C1730 C 0.41663 0.15279 0.31898 0.0
C1731 C 0.43801 0.14299 0.30632 0.0
C1732 C 0.44556 0.11785 0.31135 0.0
C1733 C 0.4306 0.10239 0.32725 0.0
C1734 C 0.40803 0.17951 0.3146 0.0
C1735 C 0.46814 0.10656 0.29822 0.0
H1736 H 0.44083 0.16729 0.22191 0.0
H1737 H 0.49634 0.20001 0.27033 0.0
H1738 H 0.42168 0.11845 0.26154 0.0
H1739 H 0.40038 0.14385 0.26723 0.0
H1740 H 0.41133 0.13782 0.23564 0.0
H1741 H 0.49768 0.1909 0.31377 0.0
H1742 H 0.46738 0.18349 0.32773 0.0
H1743 H 0.48903 0.15874 0.32089 0.0
H1744 H 0.3846 0.14402 0.3427 0.0
H1745 H 0.43544 0.08273 0.32974 0.0
H1746 H 0.39946 0.18107 0.29566 0.0
H1747 H 0.42425 0.19273 0.31509 0.0
H1748 H 0.39381 0.18546 0.32883 0.0
H1749 H 0.46343 0.10295 0.27824 0.0
H1750 H 0.47393 0.0885 0.30708 0.0
H1751 H 0.48435 0.11978 0.29836 0.0
C1752 C 0.06653 0.4219 0.73279 0.0
C1753 C 0.05172 0.40663 0.7487 0.0
C1754 C 0.08399 0.43907 0.74288 0.0
C1755 C 0.0865 0.44099 0.7694 0.0
C1756 C 0.07028 0.42686 0.7854 0.0
C1757 C 0.05316 0.40988 0.77486 0.0
C1758 C 0.10081 0.45399 0.72519 0.0
C1759 C 0.07209 0.42841 0.81373 0.0
C1760 C 0.15101 0.4559 0.79606 0.0
C1761 C 0.14841 0.48109 0.80329 0.0
C1762 C 0.13108 0.44283 0.78484 0.0
C1763 C 0.10791 0.45526 0.78053 0.0
C1764 C 0.10505 0.48067 0.78791 0.0
C1765 C 0.12531 0.49327 0.79932 0.0
C1766 C 0.13486 0.41565 0.77758 0.0
C1767 C 0.08069 0.49458 0.78353 0.0
H1768 H 0.06545 0.41949 0.71257 0.0
H1769 H 0.04145 0.39842 0.78728 0.0
H1770 H 0.10156 0.47401 0.73092 0.0
H1771 H 0.1203 0.44652 0.72609 0.0
H1772 H 0.09433 0.45298 0.70538 0.0
H1773 H 0.05626 0.41846 0.82342 0.0
H1774 H 0.09006 0.41981 0.81994 0.0
H1775 H 0.07221 0.44831 0.81987 0.0
H1776 H 0.16878 0.44636 0.79904 0.0
H1777 H 0.12326 0.51285 0.80454 0.0
H1778 H 0.13149 0.41329 0.75714 0.0
H1779 H 0.12104 0.40355 0.78781 0.0
H1780 H 0.15414 0.40885 0.78188 0.0
H1781 H 0.07623 0.49468 0.76315 0.0
H1782 H 0.08154 0.51434 0.79017 0.0
H1783 H 0.06493 0.4848 0.79343 0.0
C1784 C 0.54298 0.13951 0.75919 0.0
C1785 C 0.54804 0.15747 0.77772 0.0
C1786 C 0.56234 0.12474 0.74884 0.0
C1787 C 0.58739 0.12774 0.75742 0.0
C1788 C 0.59285 0.14676 0.77512 0.0
C1789 C 0.57314 0.16151 0.78495 0.0
C1790 C 0.55572 0.10501 0.72964 0.0
C1791 C 0.61925 0.15054 0.78484 0.0
C1792 C 0.6253 0.06743 0.75279 0.0
C1793 C 0.63873 0.07112 0.73019 0.0
C1794 C 0.6097 0.08633 0.76264 0.0
C1795 C 0.60719 0.10945 0.74944 0.0
C1796 C 0.62191 0.11389 0.72746 0.0
C1797 C 0.63764 0.09473 0.71817 0.0
C1798 C 0.59474 0.08096 0.78642 0.0
C1799 C 0.61979 0.13821 0.71278 0.0
H1800 H 0.52369 0.13637 0.75337 0.0
H1801 H 0.57727 0.17527 0.79932 0.0
H1802 H 0.56846 0.10655 0.71301 0.0
H1803 H 0.55834 0.08599 0.73797 0.0
H1804 H 0.53592 0.10665 0.72319 0.0
H1805 H 0.62098 0.16798 0.79611 0.0
H1806 H 0.62447 0.13427 0.79691 0.0
H1807 H 0.63302 0.1514 0.76902 0.0
H1808 H 0.62615 0.04932 0.76228 0.0
H1809 H 0.64785 0.09776 0.70063 0.0
H1810 H 0.57443 0.07933 0.78183 0.0
H1811 H 0.59677 0.09668 0.7999 0.0
H1812 H 0.60075 0.06325 0.79582 0.0
H1813 H 0.6012 0.13891 0.70337 0.0
H1814 H 0.6348 0.1401 0.69815 0.0
H1815 H 0.62084 0.15461 0.72555 0.0
C1816 C 0.44838 0.89879 0.82871 0.0
C1817 C 0.44931 0.87403 0.81978 0.0
C1818 C 0.42992 0.91572 0.82005 0.0
C1819 C 0.41203 0.90763 0.8021 0.0
C1820 C 0.4124 0.88242 0.79376 0.0
C1821 C 0.43096 0.86598 0.80269 0.0
C1822 C 0.43004 0.94244 0.82947 0.0
C1823 C 0.39366 0.87295 0.77473 0.0
C1824 C 0.35128 0.94334 0.78952 0.0
C1825 C 0.35722 0.95621 0.76704 0.0
C1826 C 0.36919 0.92815 0.80164 0.0
C1827 C 0.39361 0.92563 0.79098 0.0
C1828 C 0.39985 0.93891 0.76854 0.0
C1829 C 0.38162 0.95405 0.75688 0.0
C1830 C 0.36182 0.91438 0.82558 0.0
C1831 C 0.42563 0.93662 0.75647 0.0
H1832 H 0.4625 0.90517 0.84187 0.0
H1833 H 0.43137 0.84684 0.79579 0.0
H1834 H 0.43473 0.9555 0.81371 0.0
H1835 H 0.41105 0.94764 0.83659 0.0
H1836 H 0.44394 0.94529 0.84474 0.0
H1837 H 0.39576 0.85251 0.77104 0.0
H1838 H 0.37412 0.87646 0.78142 0.0
H1839 H 0.39619 0.88334 0.75667 0.0
H1840 H 0.33255 0.94503 0.79764 0.0
H1841 H 0.38646 0.96399 0.7396 0.0
H1842 H 0.37563 0.91837 0.84062 0.0
H1843 H 0.36211 0.89379 0.8223 0.0
H1844 H 0.34272 0.91969 0.8324 0.0
H1845 H 0.44047 0.94125 0.7703 0.0
H1846 H 0.42794 0.94918 0.73979 0.0
H1847 H 0.42876 0.91691 0.75044 0.0
loop_
_geom_bond_atom_site_label_1
_geom_bond_atom_site_label_2
_geom_bond_distance
_geom_bond_site_symmetry_2
_ccdc_geom_bond_type
Mg0 O7 2.141 . S
Mg0 O8 2.048 1_545 S
Mg0 O9 2.048 1_545 S
Mg0 O12 2.141 . S
C1 O2 1.313 . S
C1 O8 1.195 . S
O2 C1 1.313 . S
C3 O4 1.245 . S
C3 O12 1.289 . S
O4 C3 1.245 . S
C5 O6 1.245 . S
C5 O7 1.289 . S
O6 C5 1.245 . S
O7 Mg0 2.141 . S
O7 C5 1.289 . S
O8 Mg0 2.048 1_565 S
O8 C1 1.195 . S
O9 Mg0 2.048 1_565 S
O9 C10 1.195 . S
C10 O9 1.195 . S
C10 O11 1.313 . S
O11 C10 1.313 . S
O12 Mg0 2.141 . S
O12 C3 1.289 . S
Mg13 O20 2.141 . S
Mg13 O21 2.048 1_455 S
Mg13 O22 2.048 1_455 S
Mg13 O25 2.141 . S
C14 O15 1.313 . S
C14 O21 1.195 . S
O15 C14 1.313 . S
C16 O17 1.245 . S
C16 O25 1.289 . S
O17 C16 1.245 . S
C18 O19 1.245 . S
C18 O20 1.289 . S
O19 C18 1.245 . S
O20 Mg13 2.141 . S
O20 C18 1.289 . S
O21 Mg13 2.048 1_655 S
O21 C14 1.195 . S
O22 Mg13 2.048 1_655 S
O22 C23 1.195 . S
C23 O22 1.195 . S
C23 O24 1.313 . S
O24 C23 1.313 . S
O25 Mg13 2.141 . S
O25 C16 1.289 . S
Mg26 O33 2.141 1_545 S
Mg26 O34 2.048 . S
Mg26 O35 2.048 . S
Mg26 O38 2.141 1_545 S
C27 O28 1.313 . S
C27 O34 1.195 . S
O28 C27 1.313 . S
C29 O30 1.245 . S
C29 O38 1.289 . S
O30 C29 1.245 . S
C31 O32 1.245 . S
C31 O33 1.289 . S
O32 C31 1.245 . S
O33 Mg26 2.141 1_565 S
O33 C31 1.289 . S
O34 Mg26 2.048 . S
O34 C27 1.195 . S
O35 Mg26 2.048 . S
O35 C36 1.195 . S
C36 O35 1.195 . S
C36 O37 1.313 . S
O37 C36 1.313 . S
O38 Mg26 2.141 1_565 S
O38 C29 1.289 . S
Mg39 O46 2.141 1_455 S
Mg39 O47 2.048 . S
Mg39 O48 2.048 . S
Mg39 O51 2.141 1_455 S
C40 O41 1.313 . S
C40 O47 1.195 . S
O41 C40 1.313 . S
C42 O43 1.245 . S
C42 O51 1.289 . S
O43 C42 1.245 . S
C44 O45 1.245 . S
C44 O46 1.289 . S
O45 C44 1.245 . S
O46 Mg39 2.141 1_655 S
O46 C44 1.289 . S
O47 Mg39 2.048 . S
O47 C40 1.195 . S
O48 Mg39 2.048 . S
O48 C49 1.195 . S
C49 O48 1.195 . S
C49 O50 1.313 . S
O50 C49 1.313 . S
O51 Mg39 2.141 1_655 S
O51 C42 1.289 . S
Mg52 O59 2.141 1_545 S
Mg52 O60 2.048 . S
Mg52 O61 2.048 . S
Mg52 O64 2.141 1_545 S
C53 O54 1.313 . S
C53 O60 1.195 . S
O54 C53 1.313 . S
C55 O56 1.245 . S
C55 O64 1.289 . S
O56 C55 1.245 . S
C57 O58 1.245 . S
C57 O59 1.289 . S
O58 C57 1.245 . S
O59 Mg52 2.141 1_565 S
O59 C57 1.289 . S
O60 Mg52 2.048 . S
O60 C53 1.195 . S
O61 Mg52 2.048 . S
O61 C62 1.195 . S
C62 O61 1.195 . S
C62 O63 1.313 . S
O63 C62 1.313 . S
O64 Mg52 2.141 1_565 S
O64 C55 1.289 . S
Mg65 O72 2.141 . S
Mg65 O73 2.048 1_455 S
Mg65 O74 2.048 1_455 S
Mg65 O77 2.141 . S
C66 O67 1.313 . S
C66 O73 1.195 . S
O67 C66 1.313 . S
C68 O69 1.245 . S
C68 O77 1.289 . S
O69 C68 1.245 . S
C70 O71 1.245 . S
C70 O72 1.289 . S
O71 C70 1.245 . S
O72 Mg65 2.141 . S
O72 C70 1.289 . S
O73 Mg65 2.048 1_655 S
O73 C66 1.195 . S
O74 Mg65 2.048 1_655 S
O74 C75 1.195 . S
C75 O74 1.195 . S
C75 O76 1.313 . S
O76 C75 1.313 . S
O77 Mg65 2.141 . S
O77 C68 1.289 . S
Mg78 O85 2.141 . S
Mg78 O86 2.048 1_545 S
Mg78 O87 2.048 1_545 S
Mg78 O90 2.141 . S
C79 O80 1.313 . S
C79 O86 1.195 . S
O80 C79 1.313 . S
C81 O82 1.245 . S
C81 O90 1.289 . S
O82 C81 1.245 . S
C83 O84 1.245 . S
C83 O85 1.289 . S
O84 C83 1.245 . S
O85 Mg78 2.141 . S
O85 C83 1.289 . S
O86 Mg78 2.048 1_565 S
O86 C79 1.195 . S
O87 Mg78 2.048 1_565 S
O87 C88 1.195 . S
C88 O87 1.195 . S
C88 O89 1.313 . S
O89 C88 1.313 . S
O90 Mg78 2.141 . S
O90 C81 1.289 . S
Mg91 O98 2.141 1_455 S
Mg91 O99 2.048 . S
Mg91 O100 2.048 . S
Mg91 O103 2.141 1_455 S
C92 O93 1.313 . S
C92 O99 1.195 . S
O93 C92 1.313 . S
C94 O95 1.245 . S
C94 O103 1.289 . S
O95 C94 1.245 . S
C96 O97 1.245 . S
C96 O98 1.289 . S
O97 C96 1.245 . S
O98 Mg91 2.141 1_655 S
O98 C96 1.289 . S
O99 Mg91 2.048 . S
O99 C92 1.195 . S
O100 Mg91 2.048 . S
O100 C101 1.195 . S
C101 O100 1.195 . S
C101 O102 1.313 . S
O102 C101 1.313 . S
O103 Mg91 2.141 1_655 S
O103 C94 1.289 . S
Mg104 O111 2.141 . S
Mg104 O112 2.048 1_554 S
Mg104 O113 2.048 1_554 S
Mg104 O116 2.141 . S
C105 O106 1.313 . S
C105 O112 1.195 . S
O106 C105 1.313 . S
C107 O108 1.245 . S
C107 O116 1.289 . S
O108 C107 1.245 . S
C109 O110 1.245 . S
C109 O111 1.289 . S
O110 C109 1.245 . S
O111 Mg104 2.141 . S
O111 C109 1.289 . S
O112 Mg104 2.048 1_556 S
O112 C105 1.195 . S
O113 Mg104 2.048 1_556 S
O113 C114 1.195 . S
C114 O113 1.195 . S
C114 O115 1.313 . S
O115 C114 1.313 . S
O116 Mg104 2.141 . S
O116 C107 1.289 . S
Mg117 O124 2.141 1_554 S
Mg117 O125 2.048 . S
Mg117 O126 2.048 . S
Mg117 O129 2.141 1_554 S
C118 O119 1.313 . S
C118 O125 1.195 . S
O119 C118 1.313 . S
C120 O121 1.245 . S
C120 O129 1.289 . S
O121 C120 1.245 . S
C122 O123 1.245 . S
C122 O124 1.289 . S
O123 C122 1.245 . S
O124 Mg117 2.141 1_556 S
O124 C122 1.289 . S
O125 Mg117 2.048 . S
O125 C118 1.195 . S
O126 Mg117 2.048 . S
O126 C127 1.195 . S
C127 O126 1.195 . S
C127 O128 1.313 . S
O128 C127 1.313 . S
O129 Mg117 2.141 1_556 S
O129 C120 1.289 . S
Mg130 O137 2.141 1_554 S
Mg130 O138 2.048 . S
Mg130 O139 2.048 . S
Mg130 O142 2.141 1_554 S
C131 O132 1.313 . S
C131 O138 1.195 . S
O132 C131 1.313 . S
C133 O134 1.245 . S
C133 O142 1.289 . S
O134 C133 1.245 . S
C135 O136 1.245 . S
C135 O137 1.289 . S
O136 C135 1.245 . S
O137 Mg130 2.141 1_556 S
O137 C135 1.289 . S
O138 Mg130 2.048 . S
O138 C131 1.195 . S
O139 Mg130 2.048 . S
O139 C140 1.195 . S
C140 O139 1.195 . S
C140 O141 1.313 . S
O141 C140 1.313 . S
O142 Mg130 2.141 1_556 S
O142 C133 1.289 . S
Mg143 O150 2.141 . S
Mg143 O151 2.048 1_554 S
Mg143 O152 2.048 1_554 S
Mg143 O155 2.141 . S
C144 O145 1.313 . S
C144 O151 1.195 . S
O145 C144 1.313 . S
C146 O147 1.245 . S
C146 O155 1.289 . S
O147 C146 1.245 . S
C148 O149 1.245 . S
C148 O150 1.289 . S
O149 C148 1.245 . S
O150 Mg143 2.141 . S
O150 C148 1.289 . S
O151 Mg143 2.048 1_556 S
O151 C144 1.195 . S
O152 Mg143 2.048 1_556 S
O152 C153 1.195 . S
C153 O152 1.195 . S
C153 O154 1.313 . S
O154 C153 1.313 . S
O155 Mg143 2.141 . S
O155 C146 1.289 . S
Mg156 O163 2.141 . S
Mg156 O164 2.048 . S
Mg156 O165 2.048 . S
Mg156 O168 2.141 . S
C157 O158 1.313 . S
C157 O164 1.195 . S
O158 C157 1.313 . S
C159 O160 1.245 . S
C159 O168 1.289 . S
O160 C159 1.245 . S
C161 O162 1.245 . S
C161 O163 1.289 . S
O162 C161 1.245 . S
O163 Mg156 2.141 . S
O163 C161 1.289 . S
O164 Mg156 2.048 . S
O164 C157 1.195 . S
O165 Mg156 2.048 . S
O165 C166 1.195 . S
C166 O165 1.195 . S
C166 O167 1.313 . S
O167 C166 1.313 . S
O168 Mg156 2.141 . S
O168 C159 1.289 . S
Mg169 O176 2.141 . S
Mg169 O177 2.048 . S
Mg169 O178 2.048 . S
Mg169 O181 2.141 . S
C170 O171 1.313 . S
C170 O177 1.195 . S
O171 C170 1.313 . S
C172 O173 1.245 . S
C172 O181 1.289 . S
O173 C172 1.245 . S
C174 O175 1.245 . S
C174 O176 1.289 . S
O175 C174 1.245 . S
O176 Mg169 2.141 . S
O176 C174 1.289 . S
O177 Mg169 2.048 . S
O177 C170 1.195 . S
O178 Mg169 2.048 . S
O178 C179 1.195 . S
C179 O178 1.195 . S
C179 O180 1.313 . S
O180 C179 1.313 . S
O181 Mg169 2.141 . S
O181 C172 1.289 . S
Mg182 O189 2.141 . S
Mg182 O190 2.048 . S
Mg182 O191 2.048 . S
Mg182 O194 2.141 . S
C183 O184 1.313 . S
C183 O190 1.195 . S
O184 C183 1.313 . S
C185 O186 1.245 . S
C185 O194 1.289 . S
O186 C185 1.245 . S
C187 O188 1.245 . S
C187 O189 1.289 . S
O188 C187 1.245 . S
O189 Mg182 2.141 . S
O189 C187 1.289 . S
O190 Mg182 2.048 . S
O190 C183 1.195 . S
O191 Mg182 2.048 . S
O191 C192 1.195 . S
C192 O191 1.195 . S
C192 O193 1.313 . S
O193 C192 1.313 . S
O194 Mg182 2.141 . S
O194 C185 1.289 . S
Mg195 O202 2.141 . S
Mg195 O203 2.048 . S
Mg195 O204 2.048 . S
Mg195 O207 2.141 . S
C196 O197 1.313 . S
C196 O203 1.195 . S
O197 C196 1.313 . S
C198 O199 1.245 . S
C198 O207 1.289 . S
O199 C198 1.245 . S
C200 O201 1.245 . S
C200 O202 1.289 . S
O201 C200 1.245 . S
O202 Mg195 2.141 . S
O202 C200 1.289 . S
O203 Mg195 2.048 . S
O203 C196 1.195 . S
O204 Mg195 2.048 . S
O204 C205 1.195 . S
C205 O204 1.195 . S
C205 O206 1.313 . S
O206 C205 1.313 . S
O207 Mg195 2.141 . S
O207 C198 1.289 . S
Mg208 O215 2.141 . S
Mg208 O216 2.048 . S
Mg208 O217 2.048 . S
Mg208 O220 2.141 . S
C209 O210 1.313 . S
C209 O216 1.195 . S
O210 C209 1.313 . S
C211 O212 1.245 . S
C211 O220 1.289 . S
O212 C211 1.245 . S
C213 O214 1.245 . S
C213 O215 1.289 . S
O214 C213 1.245 . S
O215 Mg208 2.141 . S
O215 C213 1.289 . S
O216 Mg208 2.048 . S
O216 C209 1.195 . S
O217 Mg208 2.048 . S
O217 C218 1.195 . S
C218 O217 1.195 . S
C218 O219 1.313 . S
O219 C218 1.313 . S
O220 Mg208 2.141 . S
O220 C211 1.289 . S
Mg221 O228 2.141 . S
Mg221 O229 2.048 . S
Mg221 O230 2.048 . S
Mg221 O233 2.141 . S
C222 O223 1.313 . S
C222 O229 1.195 . S
O223 C222 1.313 . S
C224 O225 1.245 . S
C224 O233 1.289 . S
O225 C224 1.245 . S
C226 O227 1.245 . S
C226 O228 1.289 . S
O227 C226 1.245 . S
O228 Mg221 2.141 . S
O228 C226 1.289 . S
O229 Mg221 2.048 . S
O229 C222 1.195 . S
O230 Mg221 2.048 . S
O230 C231 1.195 . S
C231 O230 1.195 . S
C231 O232 1.313 . S
O232 C231 1.313 . S
O233 Mg221 2.141 . S
O233 C224 1.289 . S
Mg234 O241 2.141 . S
Mg234 O242 2.048 . S
Mg234 O243 2.048 . S
Mg234 O246 2.141 . S
C235 O236 1.313 . S
C235 O242 1.195 . S
O236 C235 1.313 . S
C237 O238 1.245 . S
C237 O246 1.289 . S
O238 C237 1.245 . S
C239 O240 1.245 . S
C239 O241 1.289 . S
O240 C239 1.245 . S
O241 Mg234 2.141 . S
O241 C239 1.289 . S
O242 Mg234 2.048 . S
O242 C235 1.195 . S
O243 Mg234 2.048 . S
O243 C244 1.195 . S
C244 O243 1.195 . S
C244 O245 1.313 . S
O245 C244 1.313 . S
O246 Mg234 2.141 . S
O246 C237 1.289 . S
Mg247 O254 2.141 . S
Mg247 O255 2.048 . S
Mg247 O256 2.048 . S
Mg247 O259 2.141 . S
C248 O249 1.313 . S
C248 O255 1.195 . S
O249 C248 1.313 . S
C250 O251 1.245 . S
C250 O259 1.289 . S
O251 C250 1.245 . S
C252 O253 1.245 . S
C252 O254 1.289 . S
O253 C252 1.245 . S
O254 Mg247 2.141 . S
O254 C252 1.289 . S
O255 Mg247 2.048 . S
O255 C248 1.195 . S
O256 Mg247 2.048 . S
O256 C257 1.195 . S
C257 O256 1.195 . S
C257 O258 1.313 . S
O258 C257 1.313 . S
O259 Mg247 2.141 . S
O259 C250 1.289 . S
Mg260 O267 2.141 . S
Mg260 O268 2.048 . S
Mg260 O269 2.048 . S
Mg260 O272 2.141 . S
C261 O262 1.313 . S
C261 O268 1.195 . S
O262 C261 1.313 . S
C263 O264 1.245 . S
C263 O272 1.289 . S
O264 C263 1.245 . S
C265 O266 1.245 . S
C265 O267 1.289 . S
O266 C265 1.245 . S
O267 Mg260 2.141 . S
O267 C265 1.289 . S
O268 Mg260 2.048 . S
O268 C261 1.195 . S
O269 Mg260 2.048 . S
O269 C270 1.195 . S
C270 O269 1.195 . S
C270 O271 1.313 . S
O271 C270 1.313 . S
O272 Mg260 2.141 . S
O272 C263 1.289 . S
Mg273 O280 2.141 . S
Mg273 O281 2.048 . S
Mg273 O282 2.048 . S
Mg273 O285 2.141 . S
C274 O275 1.313 . S
C274 O281 1.195 . S
O275 C274 1.313 . S
C276 O277 1.245 . S
C276 O285 1.289 . S
O277 C276 1.245 . S
C278 O279 1.245 . S
C278 O280 1.289 . S
O279 C278 1.245 . S
O280 Mg273 2.141 . S
O280 C278 1.289 . S
O281 Mg273 2.048 . S
O281 C274 1.195 . S
O282 Mg273 2.048 . S
O282 C283 1.195 . S
C283 O282 1.195 . S
C283 O284 1.313 . S
O284 C283 1.313 . S
O285 Mg273 2.141 . S
O285 C276 1.289 . S
Mg286 O293 2.141 . S
Mg286 O294 2.048 . S
Mg286 O295 2.048 . S
Mg286 O298 2.141 . S
C287 O288 1.313 . S
C287 O294 1.195 . S
O288 C287 1.313 . S
C289 O290 1.245 . S
C289 O298 1.289 . S
O290 C289 1.245 . S
C291 O292 1.245 . S
C291 O293 1.289 . S
O292 C291 1.245 . S
O293 Mg286 2.141 . S
O293 C291 1.289 . S
O294 Mg286 2.048 . S
O294 C287 1.195 . S
O295 Mg286 2.048 . S
O295 C296 1.195 . S
C296 O295 1.195 . S
C296 O297 1.313 . S
O297 C296 1.313 . S
O298 Mg286 2.141 . S
O298 C289 1.289 . S
Mg299 O306 2.141 . S
Mg299 O307 2.048 . S
Mg299 O308 2.048 . S
Mg299 O311 2.141 . S
C300 O301 1.313 . S
C300 O307 1.195 . S
O301 C300 1.313 . S
C302 O303 1.245 . S
C302 O311 1.289 . S
O303 C302 1.245 . S
C304 O305 1.245 . S
C304 O306 1.289 . S
O305 C304 1.245 . S
O306 Mg299 2.141 . S
O306 C304 1.289 . S
O307 Mg299 2.048 . S
O307 C300 1.195 . S
O308 Mg299 2.048 . S
O308 C309 1.195 . S
C309 O308 1.195 . S
C309 O310 1.313 . S
O310 C309 1.313 . S
O311 Mg299 2.141 . S
O311 C302 1.289 . S
C312 C313 1.391 . S
C312 C314 1.394 . S
C312 H328 0.931 . S
C313 C312 1.391 . S
C313 C317 1.376 . S
C314 C312 1.394 . S
C314 C315 1.369 . S
C314 C318 1.531 . S
C315 C314 1.369 . S
C315 C316 1.410 . S
C315 C323 1.503 . S
C316 C315 1.410 . S
C316 C317 1.392 . S
C316 C319 1.511 . S
C317 C313 1.376 . S
C317 C316 1.392 . S
C317 H329 0.929 . S
C318 C314 1.531 . S
C318 H330 0.960 . S
C318 H331 0.962 . S
C318 H332 0.960 . S
C319 C316 1.511 . S
C319 H333 0.961 . S
C319 H334 0.961 . S
C319 H335 0.961 . S
C320 C321 1.370 . S
C320 C322 1.363 . S
C320 H336 0.931 . S
C321 C320 1.370 . S
C321 C325 1.408 . S
C322 C320 1.363 . S
C322 C323 1.370 . S
C322 C326 1.524 . S
C323 C315 1.503 . S
C323 C322 1.370 . S
C323 C324 1.403 . S
C324 C323 1.403 . S
C324 C325 1.404 . S
C324 C327 1.539 . S
C325 C321 1.408 . S
C325 C324 1.404 . S
C325 H337 0.930 . S
C326 C322 1.524 . S
C326 H338 0.956 . S
C326 H339 0.961 . S
C326 H340 0.961 . S
C327 C324 1.539 . S
C327 H341 0.958 . S
C327 H342 0.961 . S
C327 H343 0.960 . S
H328 C312 0.931 . S
H329 C317 0.929 . S
H330 C318 0.960 . S
H331 C318 0.962 . S
H332 C318 0.960 . S
H333 C319 0.961 . S
H334 C319 0.961 . S
H335 C319 0.961 . S
H336 C320 0.931 . S
H337 C325 0.930 . S
H338 C326 0.956 . S
H339 C326 0.961 . S
H340 C326 0.961 . S
H341 C327 0.958 . S
H342 C327 0.961 . S
H343 C327 0.960 . S
C344 C345 1.391 . S
C344 C346 1.394 . S
C344 H360 0.931 . S
C345 C344 1.391 . S
C345 C349 1.376 . S
C346 C344 1.394 . S
C346 C347 1.369 . S
C346 C350 1.531 . S
C347 C346 1.369 . S
C347 C348 1.410 . S
C347 C355 1.503 . S
C348 C347 1.410 . S
C348 C349 1.392 . S
C348 C351 1.511 . S
C349 C345 1.376 . S
C349 C348 1.392 . S
C349 H361 0.929 . S
C350 C346 1.531 . S
C350 H362 0.960 . S
C350 H363 0.962 . S
C350 H364 0.960 . S
C351 C348 1.511 . S
C351 H365 0.961 . S
C351 H366 0.961 . S
C351 H367 0.961 . S
C352 C353 1.370 . S
C352 C354 1.363 . S
C352 H368 0.931 . S
C353 C352 1.370 . S
C353 C357 1.408 . S
C354 C352 1.363 . S
C354 C355 1.370 . S
C354 C358 1.524 . S
C355 C347 1.503 . S
C355 C354 1.370 . S
C355 C356 1.403 . S
C356 C355 1.403 . S
C356 C357 1.404 . S
C356 C359 1.539 . S
C357 C353 1.408 . S
C357 C356 1.404 . S
C357 H369 0.930 . S
C358 C354 1.524 . S
C358 H370 0.956 . S
C358 H371 0.961 . S
C358 H372 0.961 . S
C359 C356 1.539 . S
C359 H373 0.958 . S
C359 H374 0.961 . S
C359 H375 0.960 . S
H360 C344 0.931 . S
H361 C349 0.929 . S
H362 C350 0.960 . S
H363 C350 0.962 . S
H364 C350 0.960 . S
H365 C351 0.961 . S
H366 C351 0.961 . S
H367 C351 0.961 . S
H368 C352 0.931 . S
H369 C357 0.930 . S
H370 C358 0.956 . S
H371 C358 0.961 . S
H372 C358 0.961 . S
H373 C359 0.958 . S
H374 C359 0.961 . S
H375 C359 0.960 . S
C376 C377 1.391 . S
C376 C378 1.394 . S
C376 H392 0.931 . S
C377 C376 1.391 . S
C377 C381 1.376 . S
C378 C376 1.394 . S
C378 C379 1.369 . S
C378 C382 1.531 . S
C379 C378 1.369 . S
C379 C380 1.410 . S
C379 C387 1.503 . S
C380 C379 1.410 . S
C380 C381 1.392 . S
C380 C383 1.511 . S
C381 C377 1.376 . S
C381 C380 1.392 . S
C381 H393 0.929 . S
C382 C378 1.531 . S
C382 H394 0.960 . S
C382 H395 0.962 . S
C382 H396 0.960 . S
C383 C380 1.511 . S
C383 H397 0.961 . S
C383 H398 0.961 . S
C383 H399 0.961 . S
C384 C385 1.370 . S
C384 C386 1.363 . S
C384 H400 0.931 . S
C385 C384 1.370 . S
C385 C389 1.408 . S
C386 C384 1.363 . S
C386 C387 1.370 . S
C386 C390 1.524 . S
C387 C379 1.503 . S
C387 C386 1.370 . S
C387 C388 1.403 . S
C388 C387 1.403 . S
C388 C389 1.404 . S
C388 C391 1.539 . S
C389 C385 1.408 . S
C389 C388 1.404 . S
C389 H401 0.930 . S
C390 C386 1.524 . S
C390 H402 0.956 . S
C390 H403 0.961 . S
C390 H404 0.961 . S
C391 C388 1.539 . S
C391 H405 0.958 . S
C391 H406 0.961 . S
C391 H407 0.960 . S
H392 C376 0.931 . S
H393 C381 0.929 . S
H394 C382 0.960 . S
H395 C382 0.962 . S
H396 C382 0.960 . S
H397 C383 0.961 . S
H398 C383 0.961 . S
H399 C383 0.961 . S
H400 C384 0.931 . S
H401 C389 0.930 . S
H402 C390 0.956 . S
H403 C390 0.961 . S
H404 C390 0.961 . S
H405 C391 0.958 . S
H406 C391 0.961 . S
H407 C391 0.960 . S
C408 C409 1.391 . S
C408 C410 1.394 . S
C408 H424 0.931 . S
C409 C408 1.391 . S
C409 C413 1.376 . S
C410 C408 1.394 . S
C410 C411 1.369 . S
C410 C414 1.531 . S
C411 C410 1.369 . S
C411 C412 1.410 . S
C411 C419 1.503 . S
C412 C411 1.410 . S
C412 C413 1.392 . S
C412 C415 1.511 . S
C413 C409 1.376 . S
C413 C412 1.392 . S
C413 H425 0.929 . S
C414 C410 1.531 . S
C414 H426 0.960 . S
C414 H427 0.962 . S
C414 H428 0.960 . S
C415 C412 1.511 . S
C415 H429 0.961 . S
C415 H430 0.961 . S
C415 H431 0.961 . S
C416 C417 1.370 . S
C416 C418 1.363 . S
C416 H432 0.931 . S
C417 C416 1.370 . S
C417 C421 1.408 . S
C418 C416 1.363 . S
C418 C419 1.370 . S
C418 C422 1.524 . S
C419 C411 1.503 . S
C419 C418 1.370 . S
C419 C420 1.403 . S
C420 C419 1.403 . S
C420 C421 1.404 . S
C420 C423 1.539 . S
C421 C417 1.408 . S
C421 C420 1.404 . S
C421 H433 0.930 . S
C422 C418 1.524 . S
C422 H434 0.956 . S
C422 H435 0.961 . S
C422 H436 0.961 . S
C423 C420 1.539 . S
C423 H437 0.958 . S
C423 H438 0.961 . S
C423 H439 0.960 . S
H424 C408 0.931 . S
H425 C413 0.929 . S
H426 C414 0.960 . S
H427 C414 0.962 . S
H428 C414 0.960 . S
H429 C415 0.961 . S
H430 C415 0.961 . S
H431 C415 0.961 . S
H432 C416 0.931 . S
H433 C421 0.930 . S
H434 C422 0.956 . S
H435 C422 0.961 . S
H436 C422 0.961 . S
H437 C423 0.958 . S
H438 C423 0.961 . S
H439 C423 0.960 . S
C440 C441 1.391 . S
C440 C442 1.394 . S
C440 H456 0.931 . S
C441 C440 1.391 . S
C441 C445 1.376 . S
C442 C440 1.394 . S
C442 C443 1.369 . S
C442 C446 1.531 . S
C443 C442 1.369 . S
C443 C444 1.410 . S
C443 C451 1.503 . S
C444 C443 1.410 . S
C444 C445 1.392 . S
C444 C447 1.511 . S
C445 C441 1.376 . S
C445 C444 1.392 . S
C445 H457 0.929 . S
C446 C442 1.531 . S
C446 H458 0.960 . S
C446 H459 0.962 . S
C446 H460 0.960 . S
C447 C444 1.511 . S
C447 H461 0.961 . S
C447 H462 0.961 . S
C447 H463 0.961 . S
C448 C449 1.370 . S
C448 C450 1.363 . S
C448 H464 0.931 . S
C449 C448 1.370 . S
C449 C453 1.408 . S
C450 C448 1.363 . S
C450 C451 1.370 . S
C450 C454 1.524 . S
C451 C443 1.503 . S
C451 C450 1.370 . S
C451 C452 1.403 . S
C452 C451 1.403 . S
C452 C453 1.404 . S
C452 C455 1.539 . S
C453 C449 1.408 . S
C453 C452 1.404 . S
C453 H465 0.930 . S
C454 C450 1.524 . S
C454 H466 0.956 . S
C454 H467 0.961 . S
C454 H468 0.961 . S
C455 C452 1.539 . S
C455 H469 0.958 . S
C455 H470 0.961 . S
C455 H471 0.960 . S
H456 C440 0.931 . S
H457 C445 0.929 . S
H458 C446 0.960 . S
H459 C446 0.962 . S
H460 C446 0.960 . S
H461 C447 0.961 . S
H462 C447 0.961 . S
H463 C447 0.961 . S
H464 C448 0.931 . S
H465 C453 0.930 . S
H466 C454 0.956 . S
H467 C454 0.961 . S
H468 C454 0.961 . S
H469 C455 0.958 . S
H470 C455 0.961 . S
H471 C455 0.960 . S
C472 C473 1.391 . S
C472 C474 1.394 . S
C472 H488 0.931 . S
C473 C472 1.391 . S
C473 C477 1.376 . S
C474 C472 1.394 . S
C474 C475 1.369 . S
C474 C478 1.531 . S
C475 C474 1.369 . S
C475 C476 1.410 . S
C475 C483 1.503 . S
C476 C475 1.410 . S
C476 C477 1.392 . S
C476 C479 1.511 . S
C477 C473 1.376 . S
C477 C476 1.392 . S
C477 H489 0.929 . S
C478 C474 1.531 . S
C478 H490 0.960 . S
C478 H491 0.962 . S
C478 H492 0.960 . S
C479 C476 1.511 . S
C479 H493 0.961 . S
C479 H494 0.961 . S
C479 H495 0.961 . S
C480 C481 1.370 . S
C480 C482 1.363 . S
C480 H496 0.931 . S
C481 C480 1.370 . S
C481 C485 1.408 . S
C482 C480 1.363 . S
C482 C483 1.370 . S
C482 C486 1.524 . S
C483 C475 1.503 . S
C483 C482 1.370 . S
C483 C484 1.403 . S
C484 C483 1.403 . S
C484 C485 1.404 . S
C484 C487 1.539 . S
C485 C481 1.408 . S
C485 C484 1.404 . S
C485 H497 0.930 . S
C486 C482 1.524 . S
C486 H498 0.956 . S
C486 H499 0.961 . S
C486 H500 0.961 . S
C487 C484 1.539 . S
C487 H501 0.958 . S
C487 H502 0.961 . S
C487 H503 0.960 . S
H488 C472 0.931 . S
H489 C477 0.929 . S
H490 C478 0.960 . S
H491 C478 0.962 . S
H492 C478 0.960 . S
H493 C479 0.961 . S
H494 C479 0.961 . S
H495 C479 0.961 . S
H496 C480 0.931 . S
H497 C485 0.930 . S
H498 C486 0.956 . S
H499 C486 0.961 . S
H500 C486 0.961 . S
H501 C487 0.958 . S
H502 C487 0.961 . S
H503 C487 0.960 . S
C504 C505 1.391 . S
C504 C506 1.394 . S
C504 H520 0.931 . S
C505 C504 1.391 . S
C505 C509 1.376 . S
C506 C504 1.394 . S
C506 C507 1.369 . S
C506 C510 1.531 . S
C507 C506 1.369 . S
C507 C508 1.410 . S
C507 C515 1.503 . S
C508 C507 1.410 . S
C508 C509 1.392 . S
C508 C511 1.511 . S
C509 C505 1.376 . S
C509 C508 1.392 . S
C509 H521 0.929 . S
C510 C506 1.531 . S
C510 H522 0.960 . S
C510 H523 0.962 . S
C510 H524 0.960 . S
C511 C508 1.511 . S
C511 H525 0.961 . S
C511 H526 0.961 . S
C511 H527 0.961 . S
C512 C513 1.370 . S
C512 C514 1.363 . S
C512 H528 0.931 . S
C513 C512 1.370 . S
C513 C517 1.408 . S
C514 C512 1.363 . S
C514 C515 1.370 . S
C514 C518 1.524 . S
C515 C507 1.503 . S
C515 C514 1.370 . S
C515 C516 1.403 . S
C516 C515 1.403 . S
C516 C517 1.404 . S
C516 C519 1.539 . S
C517 C513 1.408 . S
C517 C516 1.404 . S
C517 H529 0.930 . S
C518 C514 1.524 . S
C518 H530 0.956 . S
C518 H531 0.961 . S
C518 H532 0.961 . S
C519 C516 1.539 . S
C519 H533 0.958 . S
C519 H534 0.961 . S
C519 H535 0.960 . S
H520 C504 0.931 . S
H521 C509 0.929 . S
H522 C510 0.960 . S
H523 C510 0.962 . S
H524 C510 0.960 . S
H525 C511 0.961 . S
H526 C511 0.961 . S
H527 C511 0.961 . S
H528 C512 0.931 . S
H529 C517 0.930 . S
H530 C518 0.956 . S
H531 C518 0.961 . S
H532 C518 0.961 . S
H533 C519 0.958 . S
H534 C519 0.961 . S
H535 C519 0.960 . S
C536 C537 1.391 . S
C536 C538 1.394 . S
C536 H552 0.931 . S
C537 C536 1.391 . S
C537 C541 1.376 . S
C538 C536 1.394 . S
C538 C539 1.369 . S
C538 C542 1.531 . S
C539 C538 1.369 . S
C539 C540 1.410 . S
C539 C547 1.503 . S
C540 C539 1.410 . S
C540 C541 1.392 . S
C540 C543 1.511 . S
C541 C537 1.376 . S
C541 C540 1.392 . S
C541 H553 0.929 . S
C542 C538 1.531 . S
C542 H554 0.960 . S
C542 H555 0.962 . S
C542 H556 0.960 . S
C543 C540 1.511 . S
C543 H557 0.961 . S
C543 H558 0.961 . S
C543 H559 0.961 . S
C544 C545 1.370 . S
C544 C546 1.363 . S
C544 H560 0.931 . S
C545 C544 1.370 . S
C545 C549 1.408 . S
C546 C544 1.363 . S
C546 C547 1.370 . S
C546 C550 1.524 . S
C547 C539 1.503 . S
C547 C546 1.370 . S
C547 C548 1.403 . S
C548 C547 1.403 . S
C548 C549 1.404 . S
C548 C551 1.539 . S
C549 C545 1.408 . S
C549 C548 1.404 . S
C549 H561 0.930 . S
C550 C546 1.524 . S
C550 H562 0.956 . S
C550 H563 0.961 . S
C550 H564 0.961 . S
C551 C548 1.539 . S
C551 H565 0.958 . S
C551 H566 0.961 . S
C551 H567 0.960 . S
H552 C536 0.931 . S
H553 C541 0.929 . S
H554 C542 0.960 . S
H555 C542 0.962 . S
H556 C542 0.960 . S
H557 C543 0.961 . S
H558 C543 0.961 . S
H559 C543 0.961 . S
H560 C544 0.931 . S
H561 C549 0.930 . S
H562 C550 0.956 . S
H563 C550 0.961 . S
H564 C550 0.961 . S
H565 C551 0.958 . S
H566 C551 0.961 . S
H567 C551 0.960 . S
C568 C569 1.391 . S
C568 C570 1.394 . S
C568 H584 0.931 . S
C569 C568 1.391 . S
C569 C573 1.376 . S
C570 C568 1.394 . S
C570 C571 1.369 . S
C570 C574 1.531 . S
C571 C570 1.369 . S
C571 C572 1.410 . S
C571 C579 1.503 . S
C572 C571 1.410 . S
C572 C573 1.392 . S
C572 C575 1.511 . S
C573 C569 1.376 . S
C573 C572 1.392 . S
C573 H585 0.929 . S
C574 C570 1.531 . S
C574 H586 0.960 . S
C574 H587 0.962 . S
C574 H588 0.960 . S
C575 C572 1.511 . S
C575 H589 0.961 . S
C575 H590 0.961 . S
C575 H591 0.961 . S
C576 C577 1.370 . S
C576 C578 1.363 . S
C576 H592 0.931 . S
C577 C576 1.370 . S
C577 C581 1.408 . S
C578 C576 1.363 . S
C578 C579 1.370 . S
C578 C582 1.524 . S
C579 C571 1.503 . S
C579 C578 1.370 . S
C579 C580 1.403 . S
C580 C579 1.403 . S
C580 C581 1.404 . S
C580 C583 1.539 . S
C581 C577 1.408 . S
C581 C580 1.404 . S
C581 H593 0.930 . S
C582 C578 1.524 . S
C582 H594 0.956 . S
C582 H595 0.961 . S
C582 H596 0.961 . S
C583 C580 1.539 . S
C583 H597 0.958 . S
C583 H598 0.961 . S
C583 H599 0.960 . S
H584 C568 0.931 . S
H585 C573 0.929 . S
H586 C574 0.960 . S
H587 C574 0.962 . S
H588 C574 0.960 . S
H589 C575 0.961 . S
H590 C575 0.961 . S
H591 C575 0.961 . S
H592 C576 0.931 . S
H593 C581 0.930 . S
H594 C582 0.956 . S
H595 C582 0.961 . S
H596 C582 0.961 . S
H597 C583 0.958 . S
H598 C583 0.961 . S
H599 C583 0.960 . S
C600 C601 1.391 . S
C600 C602 1.394 . S
C600 H616 0.931 . S
C601 C600 1.391 . S
C601 C605 1.376 . S
C602 C600 1.394 . S
C602 C603 1.369 . S
C602 C606 1.531 . S
C603 C602 1.369 . S
C603 C604 1.410 . S
C603 C611 1.503 . S
C604 C603 1.410 . S
C604 C605 1.392 . S
C604 C607 1.511 . S
C605 C601 1.376 . S
C605 C604 1.392 . S
C605 H617 0.929 . S
C606 C602 1.531 . S
C606 H618 0.960 . S
C606 H619 0.962 . S
C606 H620 0.960 . S
C607 C604 1.511 . S
C607 H621 0.961 . S
C607 H622 0.961 . S
C607 H623 0.961 . S
C608 C609 1.370 . S
C608 C610 1.363 . S
C608 H624 0.931 . S
C609 C608 1.370 . S
C609 C613 1.408 . S
C610 C608 1.363 . S
C610 C611 1.370 . S
C610 C614 1.524 . S
C611 C603 1.503 . S
C611 C610 1.370 . S
C611 C612 1.403 . S
C612 C611 1.403 . S
C612 C613 1.404 . S
C612 C615 1.539 . S
C613 C609 1.408 . S
C613 C612 1.404 . S
C613 H625 0.930 . S
C614 C610 1.524 . S
C614 H626 0.956 . S
C614 H627 0.961 . S
C614 H628 0.961 . S
C615 C612 1.539 . S
C615 H629 0.958 . S
C615 H630 0.961 . S
C615 H631 0.960 . S
H616 C600 0.931 . S
H617 C605 0.929 . S
H618 C606 0.960 . S
H619 C606 0.962 . S
H620 C606 0.960 . S
H621 C607 0.961 . S
H622 C607 0.961 . S
H623 C607 0.961 . S
H624 C608 0.931 . S
H625 C613 0.930 . S
H626 C614 0.956 . S
H627 C614 0.961 . S
H628 C614 0.961 . S
H629 C615 0.958 . S
H630 C615 0.961 . S
H631 C615 0.960 . S
C632 C633 1.391 . S
C632 C634 1.394 . S
C632 H648 0.931 . S
C633 C632 1.391 . S
C633 C637 1.376 . S
C634 C632 1.394 . S
C634 C635 1.369 . S
C634 C638 1.531 . S
C635 C634 1.369 . S
C635 C636 1.410 . S
C635 C643 1.503 . S
C636 C635 1.410 . S
C636 C637 1.392 . S
C636 C639 1.511 . S
C637 C633 1.376 . S
C637 C636 1.392 . S
C637 H649 0.929 . S
C638 C634 1.531 . S
C638 H650 0.960 . S
C638 H651 0.962 . S
C638 H652 0.960 . S
C639 C636 1.511 . S
C639 H653 0.961 . S
C639 H654 0.961 . S
C639 H655 0.961 . S
C640 C641 1.370 . S
C640 C642 1.363 . S
C640 H656 0.931 . S
C641 C640 1.370 . S
C641 C645 1.408 . S
C642 C640 1.363 . S
C642 C643 1.370 . S
C642 C646 1.524 . S
C643 C635 1.503 . S
C643 C642 1.370 . S
C643 C644 1.403 . S
C644 C643 1.403 . S
C644 C645 1.404 . S
C644 C647 1.539 . S
C645 C641 1.408 . S
C645 C644 1.404 . S
C645 H657 0.930 . S
C646 C642 1.524 . S
C646 H658 0.956 . S
C646 H659 0.961 . S
C646 H660 0.961 . S
C647 C644 1.539 . S
C647 H661 0.958 . S
C647 H662 0.961 . S
C647 H663 0.960 . S
H648 C632 0.931 . S
H649 C637 0.929 . S
H650 C638 0.960 . S
H651 C638 0.962 . S
H652 C638 0.960 . S
H653 C639 0.961 . S
H654 C639 0.961 . S
H655 C639 0.961 . S
H656 C640 0.931 . S
H657 C645 0.930 . S
H658 C646 0.956 . S
H659 C646 0.961 . S
H660 C646 0.961 . S
H661 C647 0.958 . S
H662 C647 0.961 . S
H663 C647 0.960 . S
C664 C665 1.391 . S
C664 C666 1.394 . S
C664 H680 0.931 . S
C665 C664 1.391 . S
C665 C669 1.376 . S
C666 C664 1.394 . S
C666 C667 1.369 . S
C666 C670 1.531 . S
C667 C666 1.369 . S
C667 C668 1.410 . S
C667 C675 1.503 . S
C668 C667 1.410 . S
C668 C669 1.392 . S
C668 C671 1.511 . S
C669 C665 1.376 . S
C669 C668 1.392 . S
C669 H681 0.929 . S
C670 C666 1.531 . S
C670 H682 0.960 . S
C670 H683 0.962 . S
C670 H684 0.960 . S
C671 C668 1.511 . S
C671 H685 0.961 . S
C671 H686 0.961 . S
C671 H687 0.961 . S
C672 C673 1.370 . S
C672 C674 1.363 . S
C672 H688 0.931 . S
C673 C672 1.370 . S
C673 C677 1.408 . S
C674 C672 1.363 . S
C674 C675 1.370 . S
C674 C678 1.524 . S
C675 C667 1.503 . S
C675 C674 1.370 . S
C675 C676 1.403 . S
C676 C675 1.403 . S
C676 C677 1.404 . S
C676 C679 1.539 . S
C677 C673 1.408 . S
C677 C676 1.404 . S
C677 H689 0.930 . S
C678 C674 1.524 . S
C678 H690 0.956 . S
C678 H691 0.961 . S
C678 H692 0.961 . S
C679 C676 1.539 . S
C679 H693 0.958 . S
C679 H694 0.961 . S
C679 H695 0.960 . S
H680 C664 0.931 . S
H681 C669 0.929 . S
H682 C670 0.960 . S
H683 C670 0.962 . S
H684 C670 0.960 . S
H685 C671 0.961 . S
H686 C671 0.961 . S
H687 C671 0.961 . S
H688 C672 0.931 . S
H689 C677 0.930 . S
H690 C678 0.956 . S
H691 C678 0.961 . S
H692 C678 0.961 . S
H693 C679 0.958 . S
H694 C679 0.961 . S
H695 C679 0.960 . S
C696 C697 1.391 . S
C696 C698 1.394 . S
C696 H712 0.931 . S
C697 C696 1.391 . S
C697 C701 1.376 . S
C698 C696 1.394 . S
C698 C699 1.369 . S
C698 C702 1.531 . S
C699 C698 1.369 . S
C699 C700 1.410 . S
C699 C707 1.503 . S
C700 C699 1.410 . S
C700 C701 1.392 . S
C700 C703 1.511 . S
C701 C697 1.376 . S
C701 C700 1.392 . S
C701 H713 0.929 . S
C702 C698 1.531 . S
C702 H714 0.960 . S
C702 H715 0.962 . S
C702 H716 0.960 . S
C703 C700 1.511 . S
C703 H717 0.961 . S
C703 H718 0.961 . S
C703 H719 0.961 . S
C704 C705 1.370 . S
C704 C706 1.363 . S
C704 H720 0.931 . S
C705 C704 1.370 . S
C705 C709 1.408 . S
C706 C704 1.363 . S
C706 C707 1.370 . S
C706 C710 1.524 . S
C707 C699 1.503 . S
C707 C706 1.370 . S
C707 C708 1.403 . S
C708 C707 1.403 . S
C708 C709 1.404 . S
C708 C711 1.539 . S
C709 C705 1.408 . S
C709 C708 1.404 . S
C709 H721 0.930 . S
C710 C706 1.524 . S
C710 H722 0.956 . S
C710 H723 0.961 . S
C710 H724 0.961 . S
C711 C708 1.539 . S
C711 H725 0.958 . S
C711 H726 0.961 . S
C711 H727 0.960 . S
H712 C696 0.931 . S
H713 C701 0.929 . S
H714 C702 0.960 . S
H715 C702 0.962 . S
H716 C702 0.960 . S
H717 C703 0.961 . S
H718 C703 0.961 . S
H719 C703 0.961 . S
H720 C704 0.931 . S
H721 C709 0.930 . S
H722 C710 0.956 . S
H723 C710 0.961 . S
H724 C710 0.961 . S
H725 C711 0.958 . S
H726 C711 0.961 . S
H727 C711 0.960 . S
C728 C729 1.391 . S
C728 C730 1.394 . S
C728 H744 0.931 . S
C729 C728 1.391 . S
C729 C733 1.376 . S
C730 C728 1.394 . S
C730 C731 1.369 . S
C730 C734 1.531 . S
C731 C730 1.369 . S
C731 C732 1.410 . S
C731 C739 1.503 . S
C732 C731 1.410 . S
C732 C733 1.392 . S
C732 C735 1.511 . S
C733 C729 1.376 . S
C733 C732 1.392 . S
C733 H745 0.929 . S
C734 C730 1.531 . S
C734 H746 0.960 . S
C734 H747 0.962 . S
C734 H748 0.960 . S
C735 C732 1.511 . S
C735 H749 0.961 . S
C735 H750 0.961 . S
C735 H751 0.961 . S
C736 C737 1.370 . S
C736 C738 1.363 . S
C736 H752 0.931 . S
C737 C736 1.370 . S
C737 C741 1.408 . S
C738 C736 1.363 . S
C738 C739 1.370 . S
C738 C742 1.524 . S
C739 C731 1.503 . S
C739 C738 1.370 . S
C739 C740 1.403 . S
C740 C739 1.403 . S
C740 C741 1.404 . S
C740 C743 1.539 . S
C741 C737 1.408 . S
C741 C740 1.404 . S
C741 H753 0.930 . S
C742 C738 1.524 . S
C742 H754 0.956 . S
C742 H755 0.961 . S
C742 H756 0.961 . S
C743 C740 1.539 . S
C743 H757 0.958 . S
C743 H758 0.961 . S
C743 H759 0.960 . S
H744 C728 0.931 . S
H745 C733 0.929 . S
H746 C734 0.960 . S
H747 C734 0.962 . S
H748 C734 0.960 . S
H749 C735 0.961 . S
H750 C735 0.961 . S
H751 C735 0.961 . S
H752 C736 0.931 . S
H753 C741 0.930 . S
H754 C742 0.956 . S
H755 C742 0.961 . S
H756 C742 0.961 . S
H757 C743 0.958 . S
H758 C743 0.961 . S
H759 C743 0.960 . S
C760 C761 1.391 . S
C760 C762 1.394 . S
C760 H776 0.931 . S
C761 C760 1.391 . S
C761 C765 1.376 . S
C762 C760 1.394 . S
C762 C763 1.369 . S
C762 C766 1.531 . S
C763 C762 1.369 . S
C763 C764 1.410 . S
C763 C771 1.503 . S
C764 C763 1.410 . S
C764 C765 1.392 . S
C764 C767 1.511 . S
C765 C761 1.376 . S
C765 C764 1.392 . S
C765 H777 0.929 . S
C766 C762 1.531 . S
C766 H778 0.960 . S
C766 H779 0.962 . S
C766 H780 0.960 . S
C767 C764 1.511 . S
C767 H781 0.961 . S
C767 H782 0.961 . S
C767 H783 0.961 . S
C768 C769 1.370 . S
C768 C770 1.363 . S
C768 H784 0.931 . S
C769 C768 1.370 . S
C769 C773 1.408 . S
C770 C768 1.363 . S
C770 C771 1.370 . S
C770 C774 1.524 . S
C771 C763 1.503 . S
C771 C770 1.370 . S
C771 C772 1.403 . S
C772 C771 1.403 . S
C772 C773 1.404 . S
C772 C775 1.539 . S
C773 C769 1.408 . S
C773 C772 1.404 . S
C773 H785 0.930 . S
C774 C770 1.524 . S
C774 H786 0.956 . S
C774 H787 0.961 . S
C774 H788 0.961 . S
C775 C772 1.539 . S
C775 H789 0.958 . S
C775 H790 0.961 . S
C775 H791 0.960 . S
H776 C760 0.931 . S
H777 C765 0.929 . S
H778 C766 0.960 . S
H779 C766 0.962 . S
H780 C766 0.960 . S
H781 C767 0.961 . S
H782 C767 0.961 . S
H783 C767 0.961 . S
H784 C768 0.931 . S
H785 C773 0.930 . S
H786 C774 0.956 . S
H787 C774 0.961 . S
H788 C774 0.961 . S
H789 C775 0.958 . S
H790 C775 0.961 . S
H791 C775 0.960 . S
C792 C793 1.391 . S
C792 C794 1.394 . S
C792 H808 0.931 . S
C793 C792 1.391 . S
C793 C797 1.376 . S
C794 C792 1.394 . S
C794 C795 1.369 . S
C794 C798 1.531 . S
C795 C794 1.369 . S
C795 C796 1.410 . S
C795 C803 1.503 . S
C796 C795 1.410 . S
C796 C797 1.392 . S
C796 C799 1.511 . S
C797 C793 1.376 . S
C797 C796 1.392 . S
C797 H809 0.929 . S
C798 C794 1.531 . S
C798 H810 0.960 . S
C798 H811 0.962 . S
C798 H812 0.960 . S
C799 C796 1.511 . S
C799 H813 0.961 . S
C799 H814 0.961 . S
C799 H815 0.961 . S
C800 C801 1.370 . S
C800 C802 1.363 . S
C800 H816 0.931 . S
C801 C800 1.370 . S
C801 C805 1.408 . S
C802 C800 1.363 . S
C802 C803 1.370 . S
C802 C806 1.524 . S
C803 C795 1.503 . S
C803 C802 1.370 . S
C803 C804 1.403 . S
C804 C803 1.403 . S
C804 C805 1.404 . S
C804 C807 1.539 . S
C805 C801 1.408 . S
C805 C804 1.404 . S
C805 H817 0.930 . S
C806 C802 1.524 . S
C806 H818 0.956 . S
C806 H819 0.961 . S
C806 H820 0.961 . S
C807 C804 1.539 . S
C807 H821 0.958 . S
C807 H822 0.961 . S
C807 H823 0.960 . S
H808 C792 0.931 . S
H809 C797 0.929 . S
H810 C798 0.960 . S
H811 C798 0.962 . S
H812 C798 0.960 . S
H813 C799 0.961 . S
H814 C799 0.961 . S
H815 C799 0.961 . S
H816 C800 0.931 . S
H817 C805 0.930 . S
H818 C806 0.956 . S
H819 C806 0.961 . S
H820 C806 0.961 . S
H821 C807 0.958 . S
H822 C807 0.961 . S
H823 C807 0.960 . S
C824 C825 1.391 . S
C824 C826 1.394 . S
C824 H840 0.931 . S
C825 C824 1.391 . S
C825 C829 1.376 . S
C826 C824 1.394 . S
C826 C827 1.369 . S
C826 C830 1.531 . S
C827 C826 1.369 . S
C827 C828 1.410 . S
C827 C835 1.503 . S
C828 C827 1.410 . S
C828 C829 1.392 . S
C828 C831 1.511 . S
C829 C825 1.376 . S
C829 C828 1.392 . S
C829 H841 0.929 . S
C830 C826 1.531 . S
C830 H842 0.960 . S
C830 H843 0.962 . S
C830 H844 0.960 . S
C831 C828 1.511 . S
C831 H845 0.961 . S
C831 H846 0.961 . S
C831 H847 0.961 . S
C832 C833 1.370 . S
C832 C834 1.363 . S
C832 H848 0.931 . S
C833 C832 1.370 . S
C833 C837 1.408 . S
C834 C832 1.363 . S
C834 C835 1.370 . S
C834 C838 1.524 . S
C835 C827 1.503 . S
C835 C834 1.370 . S
C835 C836 1.403 . S
C836 C835 1.403 . S
C836 C837 1.404 . S
C836 C839 1.539 . S
C837 C833 1.408 . S
C837 C836 1.404 . S
C837 H849 0.930 . S
C838 C834 1.524 . S
C838 H850 0.956 . S
C838 H851 0.961 . S
C838 H852 0.961 . S
C839 C836 1.539 . S
C839 H853 0.958 . S
C839 H854 0.961 . S
C839 H855 0.960 . S
H840 C824 0.931 . S
H841 C829 0.929 . S
H842 C830 0.960 . S
H843 C830 0.962 . S
H844 C830 0.960 . S
H845 C831 0.961 . S
H846 C831 0.961 . S
H847 C831 0.961 . S
H848 C832 0.931 . S
H849 C837 0.930 . S
H850 C838 0.956 . S
H851 C838 0.961 . S
H852 C838 0.961 . S
H853 C839 0.958 . S
H854 C839 0.961 . S
H855 C839 0.960 . S
C856 C857 1.391 . S
C856 C858 1.394 . S
C856 H872 0.931 . S
C857 C856 1.391 . S
C857 C861 1.376 . S
C858 C856 1.394 . S
C858 C859 1.369 . S
C858 C862 1.531 . S
C859 C858 1.369 . S
C859 C860 1.410 . S
C859 C867 1.503 . S
C860 C859 1.410 . S
C860 C861 1.392 . S
C860 C863 1.511 . S
C861 C857 1.376 . S
C861 C860 1.392 . S
C861 H873 0.929 . S
C862 C858 1.531 . S
C862 H874 0.960 . S
C862 H875 0.962 . S
C862 H876 0.960 . S
C863 C860 1.511 . S
C863 H877 0.961 . S
C863 H878 0.961 . S
C863 H879 0.961 . S
C864 C865 1.370 . S
C864 C866 1.363 . S
C864 H880 0.931 . S
C865 C864 1.370 . S
C865 C869 1.408 . S
C866 C864 1.363 . S
C866 C867 1.370 . S
C866 C870 1.524 . S
C867 C859 1.503 . S
C867 C866 1.370 . S
C867 C868 1.403 . S
C868 C867 1.403 . S
C868 C869 1.404 . S
C868 C871 1.539 . S
C869 C865 1.408 . S
C869 C868 1.404 . S
C869 H881 0.930 . S
C870 C866 1.524 . S
C870 H882 0.956 . S
C870 H883 0.961 . S
C870 H884 0.961 . S
C871 C868 1.539 . S
C871 H885 0.958 . S
C871 H886 0.961 . S
C871 H887 0.960 . S
H872 C856 0.931 . S
H873 C861 0.929 . S
H874 C862 0.960 . S
H875 C862 0.962 . S
H876 C862 0.960 . S
H877 C863 0.961 . S
H878 C863 0.961 . S
H879 C863 0.961 . S
H880 C864 0.931 . S
H881 C869 0.930 . S
H882 C870 0.956 . S
H883 C870 0.961 . S
H884 C870 0.961 . S
H885 C871 0.958 . S
H886 C871 0.961 . S
H887 C871 0.960 . S
C888 C889 1.391 . S
C888 C890 1.394 . S
C888 H904 0.931 . S
C889 C888 1.391 . S
C889 C893 1.376 . S
C890 C888 1.394 . S
C890 C891 1.369 . S
C890 C894 1.531 . S
C891 C890 1.369 . S
C891 C892 1.410 . S
C891 C899 1.503 . S
C892 C891 1.410 . S
C892 C893 1.392 . S
C892 C895 1.511 . S
C893 C889 1.376 . S
C893 C892 1.392 . S
C893 H905 0.929 . S
C894 C890 1.531 . S
C894 H906 0.960 . S
C894 H907 0.962 . S
C894 H908 0.960 . S
C895 C892 1.511 . S
C895 H909 0.961 . S
C895 H910 0.961 . S
C895 H911 0.961 . S
C896 C897 1.370 . S
C896 C898 1.363 . S
C896 H912 0.931 . S
C897 C896 1.370 . S
C897 C901 1.408 . S
C898 C896 1.363 . S
C898 C899 1.370 . S
C898 C902 1.524 . S
C899 C891 1.503 . S
C899 C898 1.370 . S
C899 C900 1.403 . S
C900 C899 1.403 . S
C900 C901 1.404 . S
C900 C903 1.539 . S
C901 C897 1.408 . S
C901 C900 1.404 . S
C901 H913 0.930 . S
C902 C898 1.524 . S
C902 H914 0.956 . S
C902 H915 0.961 . S
C902 H916 0.961 . S
C903 C900 1.539 . S
C903 H917 0.958 . S
C903 H918 0.961 . S
C903 H919 0.960 . S
H904 C888 0.931 . S
H905 C893 0.929 . S
H906 C894 0.960 . S
H907 C894 0.962 . S
H908 C894 0.960 . S
H909 C895 0.961 . S
H910 C895 0.961 . S
H911 C895 0.961 . S
H912 C896 0.931 . S
H913 C901 0.930 . S
H914 C902 0.956 . S
H915 C902 0.961 . S
H916 C902 0.961 . S
H917 C903 0.958 . S
H918 C903 0.961 . S
H919 C903 0.960 . S
C920 C921 1.391 . S
C920 C922 1.394 . S
C920 H936 0.931 . S
C921 C920 1.391 . S
C921 C925 1.376 . S
C922 C920 1.394 . S
C922 C923 1.369 . S
C922 C926 1.531 . S
C923 C922 1.369 . S
C923 C924 1.410 . S
C923 C931 1.503 . S
C924 C923 1.410 . S
C924 C925 1.392 . S
C924 C927 1.511 . S
C925 C921 1.376 . S
C925 C924 1.392 . S
C925 H937 0.929 . S
C926 C922 1.531 . S
C926 H938 0.960 . S
C926 H939 0.962 . S
C926 H940 0.960 . S
C927 C924 1.511 . S
C927 H941 0.961 . S
C927 H942 0.961 . S
C927 H943 0.961 . S
C928 C929 1.370 . S
C928 C930 1.363 . S
C928 H944 0.931 . S
C929 C928 1.370 . S
C929 C933 1.408 . S
C930 C928 1.363 . S
C930 C931 1.370 . S
C930 C934 1.524 . S
C931 C923 1.503 . S
C931 C930 1.370 . S
C931 C932 1.403 . S
C932 C931 1.403 . S
C932 C933 1.404 . S
C932 C935 1.539 . S
C933 C929 1.408 . S
C933 C932 1.404 . S
C933 H945 0.930 . S
C934 C930 1.524 . S
C934 H946 0.956 . S
C934 H947 0.961 . S
C934 H948 0.961 . S
C935 C932 1.539 . S
C935 H949 0.958 . S
C935 H950 0.961 . S
C935 H951 0.960 . S
H936 C920 0.931 . S
H937 C925 0.929 . S
H938 C926 0.960 . S
H939 C926 0.962 . S
H940 C926 0.960 . S
H941 C927 0.961 . S
H942 C927 0.961 . S
H943 C927 0.961 . S
H944 C928 0.931 . S
H945 C933 0.930 . S
H946 C934 0.956 . S
H947 C934 0.961 . S
H948 C934 0.961 . S
H949 C935 0.958 . S
H950 C935 0.961 . S
H951 C935 0.960 . S
C952 C953 1.391 . S
C952 C954 1.394 . S
C952 H968 0.931 . S
C953 C952 1.391 . S
C953 C957 1.376 . S
C954 C952 1.394 . S
C954 C955 1.369 . S
C954 C958 1.531 . S
C955 C954 1.369 . S
C955 C956 1.410 . S
C955 C963 1.503 . S
C956 C955 1.410 . S
C956 C957 1.392 . S
C956 C959 1.511 . S
C957 C953 1.376 . S
C957 C956 1.392 . S
C957 H969 0.929 . S
C958 C954 1.531 . S
C958 H970 0.960 . S
C958 H971 0.962 . S
C958 H972 0.960 . S
C959 C956 1.511 . S
C959 H973 0.961 . S
C959 H974 0.961 . S
C959 H975 0.961 . S
C960 C961 1.370 . S
C960 C962 1.363 . S
C960 H976 0.931 . S
C961 C960 1.370 . S
C961 C965 1.408 . S
C962 C960 1.363 . S
C962 C963 1.370 . S
C962 C966 1.524 . S
C963 C955 1.503 . S
C963 C962 1.370 . S
C963 C964 1.403 . S
C964 C963 1.403 . S
C964 C965 1.404 . S
C964 C967 1.539 . S
C965 C961 1.408 . S
C965 C964 1.404 . S
C965 H977 0.930 . S
C966 C962 1.524 . S
C966 H978 0.956 . S
C966 H979 0.961 . S
C966 H980 0.961 . S
C967 C964 1.539 . S
C967 H981 0.958 . S
C967 H982 0.961 . S
C967 H983 0.960 . S
H968 C952 0.931 . S
H969 C957 0.929 . S
H970 C958 0.960 . S
H971 C958 0.962 . S
H972 C958 0.960 . S
H973 C959 0.961 . S
H974 C959 0.961 . S
H975 C959 0.961 . S
H976 C960 0.931 . S
H977 C965 0.930 . S
H978 C966 0.956 . S
H979 C966 0.961 . S
H980 C966 0.961 . S
H981 C967 0.958 . S
H982 C967 0.961 . S
H983 C967 0.960 . S
C984 C985 1.391 . S
C984 C986 1.394 . S
C984 H1000 0.931 . S
C985 C984 1.391 . S
C985 C989 1.376 . S
C986 C984 1.394 . S
C986 C987 1.369 . S
C986 C990 1.531 . S
C987 C986 1.369 . S
C987 C988 1.410 . S
C987 C995 1.503 . S
C988 C987 1.410 . S
C988 C989 1.392 . S
C988 C991 1.511 . S
C989 C985 1.376 . S
C989 C988 1.392 . S
C989 H1001 0.929 . S
C990 C986 1.531 . S
C990 H1002 0.960 . S
C990 H1003 0.962 . S
C990 H1004 0.960 . S
C991 C988 1.511 . S
C991 H1005 0.961 . S
C991 H1006 0.961 . S
C991 H1007 0.961 . S
C992 C993 1.370 . S
C992 C994 1.363 . S
C992 H1008 0.931 . S
C993 C992 1.370 . S
C993 C997 1.408 . S
C994 C992 1.363 . S
C994 C995 1.370 . S
C994 C998 1.524 . S
C995 C987 1.503 . S
C995 C994 1.370 . S
C995 C996 1.403 . S
C996 C995 1.403 . S
C996 C997 1.404 . S
C996 C999 1.539 . S
C997 C993 1.408 . S
C997 C996 1.404 . S
C997 H1009 0.930 . S
C998 C994 1.524 . S
C998 H1010 0.956 . S
C998 H1011 0.961 . S
C998 H1012 0.961 . S
C999 C996 1.539 . S
C999 H1013 0.958 . S
C999 H1014 0.961 . S
C999 H1015 0.960 . S
H1000 C984 0.931 . S
H1001 C989 0.929 . S
H1002 C990 0.960 . S
H1003 C990 0.962 . S
H1004 C990 0.960 . S
H1005 C991 0.961 . S
H1006 C991 0.961 . S
H1007 C991 0.961 . S
H1008 C992 0.931 . S
H1009 C997 0.930 . S
H1010 C998 0.956 . S
H1011 C998 0.961 . S
H1012 C998 0.961 . S
H1013 C999 0.958 . S
H1014 C999 0.961 . S
H1015 C999 0.960 . S
C1016 C1017 1.391 . S
C1016 C1018 1.394 . S
C1016 H1032 0.931 . S
C1017 C1016 1.391 . S
C1017 C1021 1.376 . S
C1018 C1016 1.394 . S
C1018 C1019 1.369 . S
C1018 C1022 1.531 . S
C1019 C1018 1.369 . S
C1019 C1020 1.410 . S
C1019 C1027 1.503 . S
C1020 C1019 1.410 . S
C1020 C1021 1.392 . S
C1020 C1023 1.511 . S
C1021 C1017 1.376 . S
C1021 C1020 1.392 . S
C1021 H1033 0.929 . S
C1022 C1018 1.531 . S
C1022 H1034 0.960 . S
C1022 H1035 0.962 . S
C1022 H1036 0.960 . S
C1023 C1020 1.511 . S
C1023 H1037 0.961 . S
C1023 H1038 0.961 . S
C1023 H1039 0.961 . S
C1024 C1025 1.370 . S
C1024 C1026 1.363 . S
C1024 H1040 0.931 . S
C1025 C1024 1.370 . S
C1025 C1029 1.408 . S
C1026 C1024 1.363 . S
C1026 C1027 1.370 . S
C1026 C1030 1.524 . S
C1027 C1019 1.503 . S
C1027 C1026 1.370 . S
C1027 C1028 1.403 . S
C1028 C1027 1.403 . S
C1028 C1029 1.404 . S
C1028 C1031 1.539 . S
C1029 C1025 1.408 . S
C1029 C1028 1.404 . S
C1029 H1041 0.930 . S
C1030 C1026 1.524 . S
C1030 H1042 0.956 . S
C1030 H1043 0.961 . S
C1030 H1044 0.961 . S
C1031 C1028 1.539 . S
C1031 H1045 0.958 . S
C1031 H1046 0.961 . S
C1031 H1047 0.960 . S
H1032 C1016 0.931 . S
H1033 C1021 0.929 . S
H1034 C1022 0.960 . S
H1035 C1022 0.962 . S
H1036 C1022 0.960 . S
H1037 C1023 0.961 . S
H1038 C1023 0.961 . S
H1039 C1023 0.961 . S
H1040 C1024 0.931 . S
H1041 C1029 0.930 . S
H1042 C1030 0.956 . S
H1043 C1030 0.961 . S
H1044 C1030 0.961 . S
H1045 C1031 0.958 . S
H1046 C1031 0.961 . S
H1047 C1031 0.960 . S
C1048 C1049 1.391 . S
C1048 C1050 1.394 . S
C1048 H1064 0.931 . S
C1049 C1048 1.391 . S
C1049 C1053 1.376 . S
C1050 C1048 1.394 . S
C1050 C1051 1.369 . S
C1050 C1054 1.531 . S
C1051 C1050 1.369 . S
C1051 C1052 1.410 . S
C1051 C1059 1.503 . S
C1052 C1051 1.410 . S
C1052 C1053 1.392 . S
C1052 C1055 1.511 . S
C1053 C1049 1.376 . S
C1053 C1052 1.392 . S
C1053 H1065 0.929 . S
C1054 C1050 1.531 . S
C1054 H1066 0.960 . S
C1054 H1067 0.962 . S
C1054 H1068 0.960 . S
C1055 C1052 1.511 . S
C1055 H1069 0.961 . S
C1055 H1070 0.961 . S
C1055 H1071 0.961 . S
C1056 C1057 1.370 . S
C1056 C1058 1.363 . S
C1056 H1072 0.931 . S
C1057 C1056 1.370 . S
C1057 C1061 1.408 . S
C1058 C1056 1.363 . S
C1058 C1059 1.370 . S
C1058 C1062 1.524 . S
C1059 C1051 1.503 . S
C1059 C1058 1.370 . S
C1059 C1060 1.403 . S
C1060 C1059 1.403 . S
C1060 C1061 1.404 . S
C1060 C1063 1.539 . S
C1061 C1057 1.408 . S
C1061 C1060 1.404 . S
C1061 H1073 0.930 . S
C1062 C1058 1.524 . S
C1062 H1074 0.956 . S
C1062 H1075 0.961 . S
C1062 H1076 0.961 . S
C1063 C1060 1.539 . S
C1063 H1077 0.958 . S
C1063 H1078 0.961 . S
C1063 H1079 0.960 . S
H1064 C1048 0.931 . S
H1065 C1053 0.929 . S
H1066 C1054 0.960 . S
H1067 C1054 0.962 . S
H1068 C1054 0.960 . S
H1069 C1055 0.961 . S
H1070 C1055 0.961 . S
H1071 C1055 0.961 . S
H1072 C1056 0.931 . S
H1073 C1061 0.930 . S
H1074 C1062 0.956 . S
H1075 C1062 0.961 . S
H1076 C1062 0.961 . S
H1077 C1063 0.958 . S
H1078 C1063 0.961 . S
H1079 C1063 0.960 . S
C1080 C1081 1.391 . S
C1080 C1082 1.394 . S
C1080 H1096 0.931 . S
C1081 C1080 1.391 . S
C1081 C1085 1.376 . S
C1082 C1080 1.394 . S
C1082 C1083 1.369 . S
C1082 C1086 1.531 . S
C1083 C1082 1.369 . S
C1083 C1084 1.410 . S
C1083 C1091 1.503 . S
C1084 C1083 1.410 . S
C1084 C1085 1.392 . S
C1084 C1087 1.511 . S
C1085 C1081 1.376 . S
C1085 C1084 1.392 . S
C1085 H1097 0.929 . S
C1086 C1082 1.531 . S
C1086 H1098 0.960 . S
C1086 H1099 0.962 . S
C1086 H1100 0.960 . S
C1087 C1084 1.511 . S
C1087 H1101 0.961 . S
C1087 H1102 0.961 . S
C1087 H1103 0.961 . S
C1088 C1089 1.370 . S
C1088 C1090 1.363 . S
C1088 H1104 0.931 . S
C1089 C1088 1.370 . S
C1089 C1093 1.408 . S
C1090 C1088 1.363 . S
C1090 C1091 1.370 . S
C1090 C1094 1.524 . S
C1091 C1083 1.503 . S
C1091 C1090 1.370 . S
C1091 C1092 1.403 . S
C1092 C1091 1.403 . S
C1092 C1093 1.404 . S
C1092 C1095 1.539 . S
C1093 C1089 1.408 . S
C1093 C1092 1.404 . S
C1093 H1105 0.930 . S
C1094 C1090 1.524 . S
C1094 H1106 0.956 . S
C1094 H1107 0.961 . S
C1094 H1108 0.961 . S
C1095 C1092 1.539 . S
C1095 H1109 0.958 . S
C1095 H1110 0.961 . S
C1095 H1111 0.960 . S
H1096 C1080 0.931 . S
H1097 C1085 0.929 . S
H1098 C1086 0.960 . S
H1099 C1086 0.962 . S
H1100 C1086 0.960 . S
H1101 C1087 0.961 . S
H1102 C1087 0.961 . S
H1103 C1087 0.961 . S
H1104 C1088 0.931 . S
H1105 C1093 0.930 . S
H1106 C1094 0.956 . S
H1107 C1094 0.961 . S
H1108 C1094 0.961 . S
H1109 C1095 0.958 . S
H1110 C1095 0.961 . S
H1111 C1095 0.960 . S
C1112 C1113 1.391 . S
C1112 C1114 1.394 . S
C1112 H1128 0.931 . S
C1113 C1112 1.391 . S
C1113 C1117 1.376 . S
C1114 C1112 1.394 . S
C1114 C1115 1.369 . S
C1114 C1118 1.531 . S
C1115 C1114 1.369 . S
C1115 C1116 1.410 . S
C1115 C1123 1.503 . S
C1116 C1115 1.410 . S
C1116 C1117 1.392 . S
C1116 C1119 1.511 . S
C1117 C1113 1.376 . S
C1117 C1116 1.392 . S
C1117 H1129 0.929 . S
C1118 C1114 1.531 . S
C1118 H1130 0.960 . S
C1118 H1131 0.962 . S
C1118 H1132 0.960 . S
C1119 C1116 1.511 . S
C1119 H1133 0.961 . S
C1119 H1134 0.961 . S
C1119 H1135 0.961 . S
C1120 C1121 1.370 . S
C1120 C1122 1.363 . S
C1120 H1136 0.931 . S
C1121 C1120 1.370 . S
C1121 C1125 1.408 . S
C1122 C1120 1.363 . S
C1122 C1123 1.370 . S
C1122 C1126 1.524 . S
C1123 C1115 1.503 . S
C1123 C1122 1.370 . S
C1123 C1124 1.403 . S
C1124 C1123 1.403 . S
C1124 C1125 1.404 . S
C1124 C1127 1.539 . S
C1125 C1121 1.408 . S
C1125 C1124 1.404 . S
C1125 H1137 0.930 . S
C1126 C1122 1.524 . S
C1126 H1138 0.956 . S
C1126 H1139 0.961 . S
C1126 H1140 0.961 . S
C1127 C1124 1.539 . S
C1127 H1141 0.958 . S
C1127 H1142 0.961 . S
C1127 H1143 0.960 . S
H1128 C1112 0.931 . S
H1129 C1117 0.929 . S
H1130 C1118 0.960 . S
H1131 C1118 0.962 . S
H1132 C1118 0.960 . S
H1133 C1119 0.961 . S
H1134 C1119 0.961 . S
H1135 C1119 0.961 . S
H1136 C1120 0.931 . S
H1137 C1125 0.930 . S
H1138 C1126 0.956 . S
H1139 C1126 0.961 . S
H1140 C1126 0.961 . S
H1141 C1127 0.958 . S
H1142 C1127 0.961 . S
H1143 C1127 0.960 . S
C1144 C1145 1.391 . S
C1144 C1146 1.394 . S
C1144 H1160 0.931 . S
C1145 C1144 1.391 . S
C1145 C1149 1.376 . S
C1146 C1144 1.394 . S
C1146 C1147 1.369 . S
C1146 C1150 1.531 . S
C1147 C1146 1.369 . S
C1147 C1148 1.410 . S
C1147 C1155 1.503 . S
C1148 C1147 1.410 . S
C1148 C1149 1.392 . S
C1148 C1151 1.511 . S
C1149 C1145 1.376 . S
C1149 C1148 1.392 . S
C1149 H1161 0.929 . S
C1150 C1146 1.531 . S
C1150 H1162 0.960 . S
C1150 H1163 0.962 . S
C1150 H1164 0.960 . S
C1151 C1148 1.511 . S
C1151 H1165 0.961 . S
C1151 H1166 0.961 . S
C1151 H1167 0.961 . S
C1152 C1153 1.370 . S
C1152 C1154 1.363 . S
C1152 H1168 0.931 . S
C1153 C1152 1.370 . S
C1153 C1157 1.408 . S
C1154 C1152 1.363 . S
C1154 C1155 1.370 . S
C1154 C1158 1.524 . S
C1155 C1147 1.503 . S
C1155 C1154 1.370 . S
C1155 C1156 1.403 . S
C1156 C1155 1.403 . S
C1156 C1157 1.404 . S
C1156 C1159 1.539 . S
C1157 C1153 1.408 . S
C1157 C1156 1.404 . S
C1157 H1169 0.930 . S
C1158 C1154 1.524 . S
C1158 H1170 0.956 . S
C1158 H1171 0.961 . S
C1158 H1172 0.961 . S
C1159 C1156 1.539 . S
C1159 H1173 0.958 . S
C1159 H1174 0.961 . S
C1159 H1175 0.960 . S
H1160 C1144 0.931 . S
H1161 C1149 0.929 . S
H1162 C1150 0.960 . S
H1163 C1150 0.962 . S
H1164 C1150 0.960 . S
H1165 C1151 0.961 . S
H1166 C1151 0.961 . S
H1167 C1151 0.961 . S
H1168 C1152 0.931 . S
H1169 C1157 0.930 . S
H1170 C1158 0.956 . S
H1171 C1158 0.961 . S
H1172 C1158 0.961 . S
H1173 C1159 0.958 . S
H1174 C1159 0.961 . S
H1175 C1159 0.960 . S
C1176 C1177 1.391 . S
C1176 C1178 1.394 . S
C1176 H1192 0.931 . S
C1177 C1176 1.391 . S
C1177 C1181 1.376 . S
C1178 C1176 1.394 . S
C1178 C1179 1.369 . S
C1178 C1182 1.531 . S
C1179 C1178 1.369 . S
C1179 C1180 1.410 . S
C1179 C1187 1.503 . S
C1180 C1179 1.410 . S
C1180 C1181 1.392 . S
C1180 C1183 1.511 . S
C1181 C1177 1.376 . S
C1181 C1180 1.392 . S
C1181 H1193 0.929 . S
C1182 C1178 1.531 . S
C1182 H1194 0.960 . S
C1182 H1195 0.962 . S
C1182 H1196 0.960 . S
C1183 C1180 1.511 . S
C1183 H1197 0.961 . S
C1183 H1198 0.961 . S
C1183 H1199 0.961 . S
C1184 C1185 1.370 . S
C1184 C1186 1.363 . S
C1184 H1200 0.931 . S
C1185 C1184 1.370 . S
C1185 C1189 1.408 . S
C1186 C1184 1.363 . S
C1186 C1187 1.370 . S
C1186 C1190 1.524 . S
C1187 C1179 1.503 . S
C1187 C1186 1.370 . S
C1187 C1188 1.403 . S
C1188 C1187 1.403 . S
C1188 C1189 1.404 . S
C1188 C1191 1.539 . S
C1189 C1185 1.408 . S
C1189 C1188 1.404 . S
C1189 H1201 0.930 . S
C1190 C1186 1.524 . S
C1190 H1202 0.956 . S
C1190 H1203 0.961 . S
C1190 H1204 0.961 . S
C1191 C1188 1.539 . S
C1191 H1205 0.958 . S
C1191 H1206 0.961 . S
C1191 H1207 0.960 . S
H1192 C1176 0.931 . S
H1193 C1181 0.929 . S
H1194 C1182 0.960 . S
H1195 C1182 0.962 . S
H1196 C1182 0.960 . S
H1197 C1183 0.961 . S
H1198 C1183 0.961 . S
H1199 C1183 0.961 . S
H1200 C1184 0.931 . S
H1201 C1189 0.930 . S
H1202 C1190 0.956 . S
H1203 C1190 0.961 . S
H1204 C1190 0.961 . S
H1205 C1191 0.958 . S
H1206 C1191 0.961 . S
H1207 C1191 0.960 . S
C1208 C1209 1.391 . S
C1208 C1210 1.394 . S
C1208 H1224 0.931 . S
C1209 C1208 1.391 . S
C1209 C1213 1.376 . S
C1210 C1208 1.394 . S
C1210 C1211 1.369 . S
C1210 C1214 1.531 . S
C1211 C1210 1.369 . S
C1211 C1212 1.410 . S
C1211 C1219 1.503 . S
C1212 C1211 1.410 . S
C1212 C1213 1.392 . S
C1212 C1215 1.511 . S
C1213 C1209 1.376 . S
C1213 C1212 1.392 . S
C1213 H1225 0.929 . S
C1214 C1210 1.531 . S
C1214 H1226 0.960 . S
C1214 H1227 0.962 . S
C1214 H1228 0.960 . S
C1215 C1212 1.511 . S
C1215 H1229 0.961 . S
C1215 H1230 0.961 . S
C1215 H1231 0.961 . S
C1216 C1217 1.370 . S
C1216 C1218 1.363 . S
C1216 H1232 0.931 . S
C1217 C1216 1.370 . S
C1217 C1221 1.408 . S
C1218 C1216 1.363 . S
C1218 C1219 1.370 . S
C1218 C1222 1.524 . S
C1219 C1211 1.503 . S
C1219 C1218 1.370 . S
C1219 C1220 1.403 . S
C1220 C1219 1.403 . S
C1220 C1221 1.404 . S
C1220 C1223 1.539 . S
C1221 C1217 1.408 . S
C1221 C1220 1.404 . S
C1221 H1233 0.930 . S
C1222 C1218 1.524 . S
C1222 H1234 0.956 . S
C1222 H1235 0.961 . S
C1222 H1236 0.961 . S
C1223 C1220 1.539 . S
C1223 H1237 0.958 . S
C1223 H1238 0.961 . S
C1223 H1239 0.960 . S
H1224 C1208 0.931 . S
H1225 C1213 0.929 . S
H1226 C1214 0.960 . S
H1227 C1214 0.962 . S
H1228 C1214 0.960 . S
H1229 C1215 0.961 . S
H1230 C1215 0.961 . S
H1231 C1215 0.961 . S
H1232 C1216 0.931 . S
H1233 C1221 0.930 . S
H1234 C1222 0.956 . S
H1235 C1222 0.961 . S
H1236 C1222 0.961 . S
H1237 C1223 0.958 . S
H1238 C1223 0.961 . S
H1239 C1223 0.960 . S
C1240 C1241 1.391 . S
C1240 C1242 1.394 . S
C1240 H1256 0.931 . S
C1241 C1240 1.391 . S
C1241 C1245 1.376 . S
C1242 C1240 1.394 . S
C1242 C1243 1.369 . S
C1242 C1246 1.531 . S
C1243 C1242 1.369 . S
C1243 C1244 1.410 . S
C1243 C1251 1.503 . S
C1244 C1243 1.410 . S
C1244 C1245 1.392 . S
C1244 C1247 1.511 . S
C1245 C1241 1.376 . S
C1245 C1244 1.392 . S
C1245 H1257 0.929 . S
C1246 C1242 1.531 . S
C1246 H1258 0.960 . S
C1246 H1259 0.962 . S
C1246 H1260 0.960 . S
C1247 C1244 1.511 . S
C1247 H1261 0.961 . S
C1247 H1262 0.961 . S
C1247 H1263 0.961 . S
C1248 C1249 1.370 . S
C1248 C1250 1.363 . S
C1248 H1264 0.931 . S
C1249 C1248 1.370 . S
C1249 C1253 1.408 . S
C1250 C1248 1.363 . S
C1250 C1251 1.370 . S
C1250 C1254 1.524 . S
C1251 C1243 1.503 . S
C1251 C1250 1.370 . S
C1251 C1252 1.403 . S
C1252 C1251 1.403 . S
C1252 C1253 1.404 . S
C1252 C1255 1.539 . S
C1253 C1249 1.408 . S
C1253 C1252 1.404 . S
C1253 H1265 0.930 . S
C1254 C1250 1.524 . S
C1254 H1266 0.956 . S
C1254 H1267 0.961 . S
C1254 H1268 0.961 . S
C1255 C1252 1.539 . S
C1255 H1269 0.958 . S
C1255 H1270 0.961 . S
C1255 H1271 0.960 . S
H1256 C1240 0.931 . S
H1257 C1245 0.929 . S
H1258 C1246 0.960 . S
H1259 C1246 0.962 . S
H1260 C1246 0.960 . S
H1261 C1247 0.961 . S
H1262 C1247 0.961 . S
H1263 C1247 0.961 . S
H1264 C1248 0.931 . S
H1265 C1253 0.930 . S
H1266 C1254 0.956 . S
H1267 C1254 0.961 . S
H1268 C1254 0.961 . S
H1269 C1255 0.958 . S
H1270 C1255 0.961 . S
H1271 C1255 0.960 . S
C1272 C1273 1.391 . S
C1272 C1274 1.394 . S
C1272 H1288 0.931 . S
C1273 C1272 1.391 . S
C1273 C1277 1.376 . S
C1274 C1272 1.394 . S
C1274 C1275 1.369 . S
C1274 C1278 1.531 . S
C1275 C1274 1.369 . S
C1275 C1276 1.410 . S
C1275 C1283 1.503 . S
C1276 C1275 1.410 . S
C1276 C1277 1.392 . S
C1276 C1279 1.511 . S
C1277 C1273 1.376 . S
C1277 C1276 1.392 . S
C1277 H1289 0.929 . S
C1278 C1274 1.531 . S
C1278 H1290 0.960 . S
C1278 H1291 0.962 . S
C1278 H1292 0.960 . S
C1279 C1276 1.511 . S
C1279 H1293 0.961 . S
C1279 H1294 0.961 . S
C1279 H1295 0.961 . S
C1280 C1281 1.370 . S
C1280 C1282 1.363 . S
C1280 H1296 0.931 . S
C1281 C1280 1.370 . S
C1281 C1285 1.408 . S
C1282 C1280 1.363 . S
C1282 C1283 1.370 . S
C1282 C1286 1.524 . S
C1283 C1275 1.503 . S
C1283 C1282 1.370 . S
C1283 C1284 1.403 . S
C1284 C1283 1.403 . S
C1284 C1285 1.404 . S
C1284 C1287 1.539 . S
C1285 C1281 1.408 . S
C1285 C1284 1.404 . S
C1285 H1297 0.930 . S
C1286 C1282 1.524 . S
C1286 H1298 0.956 . S
C1286 H1299 0.961 . S
C1286 H1300 0.961 . S
C1287 C1284 1.539 . S
C1287 H1301 0.958 . S
C1287 H1302 0.961 . S
C1287 H1303 0.960 . S
H1288 C1272 0.931 . S
H1289 C1277 0.929 . S
H1290 C1278 0.960 . S
H1291 C1278 0.962 . S
H1292 C1278 0.960 . S
H1293 C1279 0.961 . S
H1294 C1279 0.961 . S
H1295 C1279 0.961 . S
H1296 C1280 0.931 . S
H1297 C1285 0.930 . S
H1298 C1286 0.956 . S
H1299 C1286 0.961 . S
H1300 C1286 0.961 . S
H1301 C1287 0.958 . S
H1302 C1287 0.961 . S
H1303 C1287 0.960 . S
C1304 C1305 1.391 . S
C1304 C1306 1.394 . S
C1304 H1320 0.931 . S
C1305 C1304 1.391 . S
C1305 C1309 1.376 . S
C1306 C1304 1.394 . S
C1306 C1307 1.369 . S
C1306 C1310 1.531 . S
C1307 C1306 1.369 . S
C1307 C1308 1.410 . S
C1307 C1315 1.503 . S
C1308 C1307 1.410 . S
C1308 C1309 1.392 . S
C1308 C1311 1.511 . S
C1309 C1305 1.376 . S
C1309 C1308 1.392 . S
C1309 H1321 0.929 . S
C1310 C1306 1.531 . S
C1310 H1322 0.960 . S
C1310 H1323 0.962 . S
C1310 H1324 0.960 . S
C1311 C1308 1.511 . S
C1311 H1325 0.961 . S
C1311 H1326 0.961 . S
C1311 H1327 0.961 . S
C1312 C1313 1.370 . S
C1312 C1314 1.363 . S
C1312 H1328 0.931 . S
C1313 C1312 1.370 . S
C1313 C1317 1.408 . S
C1314 C1312 1.363 . S
C1314 C1315 1.370 . S
C1314 C1318 1.524 . S
C1315 C1307 1.503 . S
C1315 C1314 1.370 . S
C1315 C1316 1.403 . S
C1316 C1315 1.403 . S
C1316 C1317 1.404 . S
C1316 C1319 1.539 . S
C1317 C1313 1.408 . S
C1317 C1316 1.404 . S
C1317 H1329 0.930 . S
C1318 C1314 1.524 . S
C1318 H1330 0.956 . S
C1318 H1331 0.961 . S
C1318 H1332 0.961 . S
C1319 C1316 1.539 . S
C1319 H1333 0.958 . S
C1319 H1334 0.961 . S
C1319 H1335 0.960 . S
H1320 C1304 0.931 . S
H1321 C1309 0.929 . S
H1322 C1310 0.960 . S
H1323 C1310 0.962 . S
H1324 C1310 0.960 . S
H1325 C1311 0.961 . S
H1326 C1311 0.961 . S
H1327 C1311 0.961 . S
H1328 C1312 0.931 . S
H1329 C1317 0.930 . S
H1330 C1318 0.956 . S
H1331 C1318 0.961 . S
H1332 C1318 0.961 . S
H1333 C1319 0.958 . S
H1334 C1319 0.961 . S
H1335 C1319 0.960 . S
C1336 C1337 1.391 . S
C1336 C1338 1.394 . S
C1336 H1352 0.931 . S
C1337 C1336 1.391 . S
C1337 C1341 1.376 . S
C1338 C1336 1.394 . S
C1338 C1339 1.369 . S
C1338 C1342 1.531 . S
C1339 C1338 1.369 . S
C1339 C1340 1.410 . S
C1339 C1347 1.503 . S
C1340 C1339 1.410 . S
C1340 C1341 1.392 . S
C1340 C1343 1.511 . S
C1341 C1337 1.376 . S
C1341 C1340 1.392 . S
C1341 H1353 0.929 . S
C1342 C1338 1.531 . S
C1342 H1354 0.960 . S
C1342 H1355 0.962 . S
C1342 H1356 0.960 . S
C1343 C1340 1.511 . S
C1343 H1357 0.961 . S
C1343 H1358 0.961 . S
C1343 H1359 0.961 . S
C1344 C1345 1.370 . S
C1344 C1346 1.363 . S
C1344 H1360 0.931 . S
C1345 C1344 1.370 . S
C1345 C1349 1.408 . S
C1346 C1344 1.363 . S
C1346 C1347 1.370 . S
C1346 C1350 1.524 . S
C1347 C1339 1.503 . S
C1347 C1346 1.370 . S
C1347 C1348 1.403 . S
C1348 C1347 1.403 . S
C1348 C1349 1.404 . S
C1348 C1351 1.539 . S
C1349 C1345 1.408 . S
C1349 C1348 1.404 . S
C1349 H1361 0.930 . S
C1350 C1346 1.524 . S
C1350 H1362 0.956 . S
C1350 H1363 0.961 . S
C1350 H1364 0.961 . S
C1351 C1348 1.539 . S
C1351 H1365 0.958 . S
C1351 H1366 0.961 . S
C1351 H1367 0.960 . S
H1352 C1336 0.931 . S
H1353 C1341 0.929 . S
H1354 C1342 0.960 . S
H1355 C1342 0.962 . S
H1356 C1342 0.960 . S
H1357 C1343 0.961 . S
H1358 C1343 0.961 . S
H1359 C1343 0.961 . S
H1360 C1344 0.931 . S
H1361 C1349 0.930 . S
H1362 C1350 0.956 . S
H1363 C1350 0.961 . S
H1364 C1350 0.961 . S
H1365 C1351 0.958 . S
H1366 C1351 0.961 . S
H1367 C1351 0.960 . S
C1368 C1369 1.391 . S
C1368 C1370 1.394 . S
C1368 H1384 0.931 . S
C1369 C1368 1.391 . S
C1369 C1373 1.376 . S
C1370 C1368 1.394 . S
C1370 C1371 1.369 . S
C1370 C1374 1.531 . S
C1371 C1370 1.369 . S
C1371 C1372 1.410 . S
C1371 C1379 1.503 . S
C1372 C1371 1.410 . S
C1372 C1373 1.392 . S
C1372 C1375 1.511 . S
C1373 C1369 1.376 . S
C1373 C1372 1.392 . S
C1373 H1385 0.929 . S
C1374 C1370 1.531 . S
C1374 H1386 0.960 . S
C1374 H1387 0.962 . S
C1374 H1388 0.960 . S
C1375 C1372 1.511 . S
C1375 H1389 0.961 . S
C1375 H1390 0.961 . S
C1375 H1391 0.961 . S
C1376 C1377 1.370 . S
C1376 C1378 1.363 . S
C1376 H1392 0.931 . S
C1377 C1376 1.370 . S
C1377 C1381 1.408 . S
C1378 C1376 1.363 . S
C1378 C1379 1.370 . S
C1378 C1382 1.524 . S
C1379 C1371 1.503 . S
C1379 C1378 1.370 . S
C1379 C1380 1.403 . S
C1380 C1379 1.403 . S
C1380 C1381 1.404 . S
C1380 C1383 1.539 . S
C1381 C1377 1.408 . S
C1381 C1380 1.404 . S
C1381 H1393 0.930 . S
C1382 C1378 1.524 . S
C1382 H1394 0.956 . S
C1382 H1395 0.961 . S
C1382 H1396 0.961 . S
C1383 C1380 1.539 . S
C1383 H1397 0.958 . S
C1383 H1398 0.961 . S
C1383 H1399 0.960 . S
H1384 C1368 0.931 . S
H1385 C1373 0.929 . S
H1386 C1374 0.960 . S
H1387 C1374 0.962 . S
H1388 C1374 0.960 . S
H1389 C1375 0.961 . S
H1390 C1375 0.961 . S
H1391 C1375 0.961 . S
H1392 C1376 0.931 . S
H1393 C1381 0.930 . S
H1394 C1382 0.956 . S
H1395 C1382 0.961 . S
H1396 C1382 0.961 . S
H1397 C1383 0.958 . S
H1398 C1383 0.961 . S
H1399 C1383 0.960 . S
C1400 C1401 1.391 . S
C1400 C1402 1.394 . S
C1400 H1416 0.931 . S
C1401 C1400 1.391 . S
C1401 C1405 1.376 . S
C1402 C1400 1.394 . S
C1402 C1403 1.369 . S
C1402 C1406 1.531 . S
C1403 C1402 1.369 . S
C1403 C1404 1.410 . S
C1403 C1411 1.503 . S
C1404 C1403 1.410 . S
C1404 C1405 1.392 . S
C1404 C1407 1.511 . S
C1405 C1401 1.376 . S
C1405 C1404 1.392 . S
C1405 H1417 0.929 . S
C1406 C1402 1.531 . S
C1406 H1418 0.960 . S
C1406 H1419 0.962 . S
C1406 H1420 0.960 . S
C1407 C1404 1.511 . S
C1407 H1421 0.961 . S
C1407 H1422 0.961 . S
C1407 H1423 0.961 . S
C1408 C1409 1.370 . S
C1408 C1410 1.363 . S
C1408 H1424 0.931 . S
C1409 C1408 1.370 . S
C1409 C1413 1.408 . S
C1410 C1408 1.363 . S
C1410 C1411 1.370 . S
C1410 C1414 1.524 . S
C1411 C1403 1.503 . S
C1411 C1410 1.370 . S
C1411 C1412 1.403 . S
C1412 C1411 1.403 . S
C1412 C1413 1.404 . S
C1412 C1415 1.539 . S
C1413 C1409 1.408 . S
C1413 C1412 1.404 . S
C1413 H1425 0.930 . S
C1414 C1410 1.524 . S
C1414 H1426 0.956 . S
C1414 H1427 0.961 . S
C1414 H1428 0.961 . S
C1415 C1412 1.539 . S
C1415 H1429 0.958 . S
C1415 H1430 0.961 . S
C1415 H1431 0.960 . S
H1416 C1400 0.931 . S
H1417 C1405 0.929 . S
H1418 C1406 0.960 . S
H1419 C1406 0.962 . S
H1420 C1406 0.960 . S
H1421 C1407 0.961 . S
H1422 C1407 0.961 . S
H1423 C1407 0.961 . S
H1424 C1408 0.931 . S
H1425 C1413 0.930 . S
H1426 C1414 0.956 . S
H1427 C1414 0.961 . S
H1428 C1414 0.961 . S
H1429 C1415 0.958 . S
H1430 C1415 0.961 . S
H1431 C1415 0.960 . S
C1432 C1433 1.391 . S
C1432 C1434 1.394 . S
C1432 H1448 0.931 . S
C1433 C1432 1.391 . S
C1433 C1437 1.376 . S
C1434 C1432 1.394 . S
C1434 C1435 1.369 . S
C1434 C1438 1.531 . S
C1435 C1434 1.369 . S
C1435 C1436 1.410 . S
C1435 C1443 1.503 . S
C1436 C1435 1.410 . S
C1436 C1437 1.392 . S
C1436 C1439 1.511 . S
C1437 C1433 1.376 . S
C1437 C1436 1.392 . S
C1437 H1449 0.929 . S
C1438 C1434 1.531 . S
C1438 H1450 0.960 . S
C1438 H1451 0.962 . S
C1438 H1452 0.960 . S
C1439 C1436 1.511 . S
C1439 H1453 0.961 . S
C1439 H1454 0.961 . S
C1439 H1455 0.961 . S
C1440 C1441 1.370 . S
C1440 C1442 1.363 . S
C1440 H1456 0.931 . S
C1441 C1440 1.370 . S
C1441 C1445 1.408 . S
C1442 C1440 1.363 . S
C1442 C1443 1.370 . S
C1442 C1446 1.524 . S
C1443 C1435 1.503 . S
C1443 C1442 1.370 . S
C1443 C1444 1.403 . S
C1444 C1443 1.403 . S
C1444 C1445 1.404 . S
C1444 C1447 1.539 . S
C1445 C1441 1.408 . S
C1445 C1444 1.404 . S
C1445 H1457 0.930 . S
C1446 C1442 1.524 . S
C1446 H1458 0.956 . S
C1446 H1459 0.961 . S
C1446 H1460 0.961 . S
C1447 C1444 1.539 . S
C1447 H1461 0.958 . S
C1447 H1462 0.961 . S
C1447 H1463 0.960 . S
H1448 C1432 0.931 . S
H1449 C1437 0.929 . S
H1450 C1438 0.960 . S
H1451 C1438 0.962 . S
H1452 C1438 0.960 . S
H1453 C1439 0.961 . S
H1454 C1439 0.961 . S
H1455 C1439 0.961 . S
H1456 C1440 0.931 . S
H1457 C1445 0.930 . S
H1458 C1446 0.956 . S
H1459 C1446 0.961 . S
H1460 C1446 0.961 . S
H1461 C1447 0.958 . S
H1462 C1447 0.961 . S
H1463 C1447 0.960 . S
C1464 C1465 1.391 . S
C1464 C1466 1.394 . S
C1464 H1480 0.931 . S
C1465 C1464 1.391 . S
C1465 C1469 1.376 . S
C1466 C1464 1.394 . S
C1466 C1467 1.369 . S
C1466 C1470 1.531 . S
C1467 C1466 1.369 . S
C1467 C1468 1.410 . S
C1467 C1475 1.503 . S
C1468 C1467 1.410 . S
C1468 C1469 1.392 . S
C1468 C1471 1.511 . S
C1469 C1465 1.376 . S
C1469 C1468 1.392 . S
C1469 H1481 0.929 . S
C1470 C1466 1.531 . S
C1470 H1482 0.960 . S
C1470 H1483 0.962 . S
C1470 H1484 0.960 . S
C1471 C1468 1.511 . S
C1471 H1485 0.961 . S
C1471 H1486 0.961 . S
C1471 H1487 0.961 . S
C1472 C1473 1.370 . S
C1472 C1474 1.363 . S
C1472 H1488 0.931 . S
C1473 C1472 1.370 . S
C1473 C1477 1.408 . S
C1474 C1472 1.363 . S
C1474 C1475 1.370 . S
C1474 C1478 1.524 . S
C1475 C1467 1.503 . S
C1475 C1474 1.370 . S
C1475 C1476 1.403 . S
C1476 C1475 1.403 . S
C1476 C1477 1.404 . S
C1476 C1479 1.539 . S
C1477 C1473 1.408 . S
C1477 C1476 1.404 . S
C1477 H1489 0.930 . S
C1478 C1474 1.524 . S
C1478 H1490 0.956 . S
C1478 H1491 0.961 . S
C1478 H1492 0.961 . S
C1479 C1476 1.539 . S
C1479 H1493 0.958 . S
C1479 H1494 0.961 . S
C1479 H1495 0.960 . S
H1480 C1464 0.931 . S
H1481 C1469 0.929 . S
H1482 C1470 0.960 . S
H1483 C1470 0.962 . S
H1484 C1470 0.960 . S
H1485 C1471 0.961 . S
H1486 C1471 0.961 . S
H1487 C1471 0.961 . S
H1488 C1472 0.931 . S
H1489 C1477 0.930 . S
H1490 C1478 0.956 . S
H1491 C1478 0.961 . S
H1492 C1478 0.961 . S
H1493 C1479 0.958 . S
H1494 C1479 0.961 . S
H1495 C1479 0.960 . S
C1496 C1497 1.391 . S
C1496 C1498 1.394 . S
C1496 H1512 0.931 . S
C1497 C1496 1.391 . S
C1497 C1501 1.376 . S
C1498 C1496 1.394 . S
C1498 C1499 1.369 . S
C1498 C1502 1.531 . S
C1499 C1498 1.369 . S
C1499 C1500 1.410 . S
C1499 C1507 1.503 . S
C1500 C1499 1.410 . S
C1500 C1501 1.392 . S
C1500 C1503 1.511 . S
C1501 C1497 1.376 . S
C1501 C1500 1.392 . S
C1501 H1513 0.929 . S
C1502 C1498 1.531 . S
C1502 H1514 0.960 . S
C1502 H1515 0.962 . S
C1502 H1516 0.960 . S
C1503 C1500 1.511 . S
C1503 H1517 0.961 . S
C1503 H1518 0.961 . S
C1503 H1519 0.961 . S
C1504 C1505 1.370 . S
C1504 C1506 1.363 . S
C1504 H1520 0.931 . S
C1505 C1504 1.370 . S
C1505 C1509 1.408 . S
C1506 C1504 1.363 . S
C1506 C1507 1.370 . S
C1506 C1510 1.524 . S
C1507 C1499 1.503 . S
C1507 C1506 1.370 . S
C1507 C1508 1.403 . S
C1508 C1507 1.403 . S
C1508 C1509 1.404 . S
C1508 C1511 1.539 . S
C1509 C1505 1.408 . S
C1509 C1508 1.404 . S
C1509 H1521 0.930 . S
C1510 C1506 1.524 . S
C1510 H1522 0.956 . S
C1510 H1523 0.961 . S
C1510 H1524 0.961 . S
C1511 C1508 1.539 . S
C1511 H1525 0.958 . S
C1511 H1526 0.961 . S
C1511 H1527 0.960 . S
H1512 C1496 0.931 . S
H1513 C1501 0.929 . S
H1514 C1502 0.960 . S
H1515 C1502 0.962 . S
H1516 C1502 0.960 . S
H1517 C1503 0.961 . S
H1518 C1503 0.961 . S
H1519 C1503 0.961 . S
H1520 C1504 0.931 . S
H1521 C1509 0.930 . S
H1522 C1510 0.956 . S
H1523 C1510 0.961 . S
H1524 C1510 0.961 . S
H1525 C1511 0.958 . S
H1526 C1511 0.961 . S
H1527 C1511 0.960 . S
C1528 C1529 1.391 . S
C1528 C1530 1.394 . S
C1528 H1544 0.931 . S
C1529 C1528 1.391 . S
C1529 C1533 1.376 . S
C1530 C1528 1.394 . S
C1530 C1531 1.369 . S
C1530 C1534 1.531 . S
C1531 C1530 1.369 . S
C1531 C1532 1.410 . S
C1531 C1539 1.503 . S
C1532 C1531 1.410 . S
C1532 C1533 1.392 . S
C1532 C1535 1.511 . S
C1533 C1529 1.376 . S
C1533 C1532 1.392 . S
C1533 H1545 0.929 . S
C1534 C1530 1.531 . S
C1534 H1546 0.960 . S
C1534 H1547 0.962 . S
C1534 H1548 0.960 . S
C1535 C1532 1.511 . S
C1535 H1549 0.961 . S
C1535 H1550 0.961 . S
C1535 H1551 0.961 . S
C1536 C1537 1.370 . S
C1536 C1538 1.363 . S
C1536 H1552 0.931 . S
C1537 C1536 1.370 . S
C1537 C1541 1.408 . S
C1538 C1536 1.363 . S
C1538 C1539 1.370 . S
C1538 C1542 1.524 . S
C1539 C1531 1.503 . S
C1539 C1538 1.370 . S
C1539 C1540 1.403 . S
C1540 C1539 1.403 . S
C1540 C1541 1.404 . S
C1540 C1543 1.539 . S
C1541 C1537 1.408 . S
C1541 C1540 1.404 . S
C1541 H1553 0.930 . S
C1542 C1538 1.524 . S
C1542 H1554 0.956 . S
C1542 H1555 0.961 . S
C1542 H1556 0.961 . S
C1543 C1540 1.539 . S
C1543 H1557 0.958 . S
C1543 H1558 0.961 . S
C1543 H1559 0.960 . S
H1544 C1528 0.931 . S
H1545 C1533 0.929 . S
H1546 C1534 0.960 . S
H1547 C1534 0.962 . S
H1548 C1534 0.960 . S
H1549 C1535 0.961 . S
H1550 C1535 0.961 . S
H1551 C1535 0.961 . S
H1552 C1536 0.931 . S
H1553 C1541 0.930 . S
H1554 C1542 0.956 . S
H1555 C1542 0.961 . S
H1556 C1542 0.961 . S
H1557 C1543 0.958 . S
H1558 C1543 0.961 . S
H1559 C1543 0.960 . S
C1560 C1561 1.391 . S
C1560 C1562 1.394 . S
C1560 H1576 0.931 . S
C1561 C1560 1.391 . S
C1561 C1565 1.376 . S
C1562 C1560 1.394 . S
C1562 C1563 1.369 . S
C1562 C1566 1.531 . S
C1563 C1562 1.369 . S
C1563 C1564 1.410 . S
C1563 C1571 1.503 . S
C1564 C1563 1.410 . S
C1564 C1565 1.392 . S
C1564 C1567 1.511 . S
C1565 C1561 1.376 . S
C1565 C1564 1.392 . S
C1565 H1577 0.929 . S
C1566 C1562 1.531 . S
C1566 H1578 0.960 . S
C1566 H1579 0.962 . S
C1566 H1580 0.960 . S
C1567 C1564 1.511 . S
C1567 H1581 0.961 . S
C1567 H1582 0.961 . S
C1567 H1583 0.961 . S
C1568 C1569 1.370 . S
C1568 C1570 1.363 . S
C1568 H1584 0.931 . S
C1569 C1568 1.370 . S
C1569 C1573 1.408 . S
C1570 C1568 1.363 . S
C1570 C1571 1.370 . S
C1570 C1574 1.524 . S
C1571 C1563 1.503 . S
C1571 C1570 1.370 . S
C1571 C1572 1.403 . S
C1572 C1571 1.403 . S
C1572 C1573 1.404 . S
C1572 C1575 1.539 . S
C1573 C1569 1.408 . S
C1573 C1572 1.404 . S
C1573 H1585 0.930 . S
C1574 C1570 1.524 . S
C1574 H1586 0.956 . S
C1574 H1587 0.961 . S
C1574 H1588 0.961 . S
C1575 C1572 1.539 . S
C1575 H1589 0.958 . S
C1575 H1590 0.961 . S
C1575 H1591 0.960 . S
H1576 C1560 0.931 . S
H1577 C1565 0.929 . S
H1578 C1566 0.960 . S
H1579 C1566 0.962 . S
H1580 C1566 0.960 . S
H1581 C1567 0.961 . S
H1582 C1567 0.961 . S
H1583 C1567 0.961 . S
H1584 C1568 0.931 . S
H1585 C1573 0.930 . S
H1586 C1574 0.956 . S
H1587 C1574 0.961 . S
H1588 C1574 0.961 . S
H1589 C1575 0.958 . S
H1590 C1575 0.961 . S
H1591 C1575 0.960 . S
C1592 C1593 1.391 . S
C1592 C1594 1.394 . S
C1592 H1608 0.931 . S
C1593 C1592 1.391 . S
C1593 C1597 1.376 . S
C1594 C1592 1.394 . S
C1594 C1595 1.369 . S
C1594 C1598 1.531 . S
C1595 C1594 1.369 . S
C1595 C1596 1.410 . S
C1595 C1603 1.503 . S
C1596 C1595 1.410 . S
C1596 C1597 1.392 . S
C1596 C1599 1.511 . S
C1597 C1593 1.376 . S
C1597 C1596 1.392 . S
C1597 H1609 0.929 . S
C1598 C1594 1.531 . S
C1598 H1610 0.960 . S
C1598 H1611 0.962 . S
C1598 H1612 0.960 . S
C1599 C1596 1.511 . S
C1599 H1613 0.961 . S
C1599 H1614 0.961 . S
C1599 H1615 0.961 . S
C1600 C1601 1.370 . S
C1600 C1602 1.363 . S
C1600 H1616 0.931 . S
C1601 C1600 1.370 . S
C1601 C1605 1.408 . S
C1602 C1600 1.363 . S
C1602 C1603 1.370 . S
C1602 C1606 1.524 . S
C1603 C1595 1.503 . S
C1603 C1602 1.370 . S
C1603 C1604 1.403 . S
C1604 C1603 1.403 . S
C1604 C1605 1.404 . S
C1604 C1607 1.539 . S
C1605 C1601 1.408 . S
C1605 C1604 1.404 . S
C1605 H1617 0.930 . S
C1606 C1602 1.524 . S
C1606 H1618 0.956 . S
C1606 H1619 0.961 . S
C1606 H1620 0.961 . S
C1607 C1604 1.539 . S
C1607 H1621 0.958 . S
C1607 H1622 0.961 . S
C1607 H1623 0.960 . S
H1608 C1592 0.931 . S
H1609 C1597 0.929 . S
H1610 C1598 0.960 . S
H1611 C1598 0.962 . S
H1612 C1598 0.960 . S
H1613 C1599 0.961 . S
H1614 C1599 0.961 . S
H1615 C1599 0.961 . S
H1616 C1600 0.931 . S
H1617 C1605 0.930 . S
H1618 C1606 0.956 . S
H1619 C1606 0.961 . S
H1620 C1606 0.961 . S
H1621 C1607 0.958 . S
H1622 C1607 0.961 . S
H1623 C1607 0.960 . S
C1624 C1625 1.391 . S
C1624 C1626 1.394 . S
C1624 H1640 0.931 . S
C1625 C1624 1.391 . S
C1625 C1629 1.376 . S
C1626 C1624 1.394 . S
C1626 C1627 1.369 . S
C1626 C1630 1.531 . S
C1627 C1626 1.369 . S
C1627 C1628 1.410 . S
C1627 C1635 1.503 . S
C1628 C1627 1.410 . S
C1628 C1629 1.392 . S
C1628 C1631 1.511 . S
C1629 C1625 1.376 . S
C1629 C1628 1.392 . S
C1629 H1641 0.929 . S
C1630 C1626 1.531 . S
C1630 H1642 0.960 . S
C1630 H1643 0.962 . S
C1630 H1644 0.960 . S
C1631 C1628 1.511 . S
C1631 H1645 0.961 . S
C1631 H1646 0.961 . S
C1631 H1647 0.961 . S
C1632 C1633 1.370 . S
C1632 C1634 1.363 . S
C1632 H1648 0.931 . S
C1633 C1632 1.370 . S
C1633 C1637 1.408 . S
C1634 C1632 1.363 . S
C1634 C1635 1.370 . S
C1634 C1638 1.524 . S
C1635 C1627 1.503 . S
C1635 C1634 1.370 . S
C1635 C1636 1.403 . S
C1636 C1635 1.403 . S
C1636 C1637 1.404 . S
C1636 C1639 1.539 . S
C1637 C1633 1.408 . S
C1637 C1636 1.404 . S
C1637 H1649 0.930 . S
C1638 C1634 1.524 . S
C1638 H1650 0.956 . S
C1638 H1651 0.961 . S
C1638 H1652 0.961 . S
C1639 C1636 1.539 . S
C1639 H1653 0.958 . S
C1639 H1654 0.961 . S
C1639 H1655 0.960 . S
H1640 C1624 0.931 . S
H1641 C1629 0.929 . S
H1642 C1630 0.960 . S
H1643 C1630 0.962 . S
H1644 C1630 0.960 . S
H1645 C1631 0.961 . S
H1646 C1631 0.961 . S
H1647 C1631 0.961 . S
H1648 C1632 0.931 . S
H1649 C1637 0.930 . S
H1650 C1638 0.956 . S
H1651 C1638 0.961 . S
H1652 C1638 0.961 . S
H1653 C1639 0.958 . S
H1654 C1639 0.961 . S
H1655 C1639 0.960 . S
C1656 C1657 1.391 . S
C1656 C1658 1.394 . S
C1656 H1672 0.931 . S
C1657 C1656 1.391 . S
C1657 C1661 1.376 . S
C1658 C1656 1.394 . S
C1658 C1659 1.369 . S
C1658 C1662 1.531 . S
C1659 C1658 1.369 . S
C1659 C1660 1.410 . S
C1659 C1667 1.503 . S
C1660 C1659 1.410 . S
C1660 C1661 1.392 . S
C1660 C1663 1.511 . S
C1661 C1657 1.376 . S
C1661 C1660 1.392 . S
C1661 H1673 0.929 . S
C1662 C1658 1.531 . S
C1662 H1674 0.960 . S
C1662 H1675 0.962 . S
C1662 H1676 0.960 . S
C1663 C1660 1.511 . S
C1663 H1677 0.961 . S
C1663 H1678 0.961 . S
C1663 H1679 0.961 . S
C1664 C1665 1.370 . S
C1664 C1666 1.363 . S
C1664 H1680 0.931 . S
C1665 C1664 1.370 . S
C1665 C1669 1.408 . S
C1666 C1664 1.363 . S
C1666 C1667 1.370 . S
C1666 C1670 1.524 . S
C1667 C1659 1.503 . S
C1667 C1666 1.370 . S
C1667 C1668 1.403 . S
C1668 C1667 1.403 . S
C1668 C1669 1.404 . S
C1668 C1671 1.539 . S
C1669 C1665 1.408 . S
C1669 C1668 1.404 . S
C1669 H1681 0.930 . S
C1670 C1666 1.524 . S
C1670 H1682 0.956 . S
C1670 H1683 0.961 . S
C1670 H1684 0.961 . S
C1671 C1668 1.539 . S
C1671 H1685 0.958 . S
C1671 H1686 0.961 . S
C1671 H1687 0.960 . S
H1672 C1656 0.931 . S
H1673 C1661 0.929 . S
H1674 C1662 0.960 . S
H1675 C1662 0.962 . S
H1676 C1662 0.960 . S
H1677 C1663 0.961 . S
H1678 C1663 0.961 . S
H1679 C1663 0.961 . S
H1680 C1664 0.931 . S
H1681 C1669 0.930 . S
H1682 C1670 0.956 . S
H1683 C1670 0.961 . S
H1684 C1670 0.961 . S
H1685 C1671 0.958 . S
H1686 C1671 0.961 . S
H1687 C1671 0.960 . S
C1688 C1689 1.391 . S
C1688 C1690 1.394 . S
C1688 H1704 0.931 . S
C1689 C1688 1.391 . S
C1689 C1693 1.376 . S
C1690 C1688 1.394 . S
C1690 C1691 1.369 . S
C1690 C1694 1.531 . S
C1691 C1690 1.369 . S
C1691 C1692 1.410 . S
C1691 C1699 1.503 . S
C1692 C1691 1.410 . S
C1692 C1693 1.392 . S
C1692 C1695 1.511 . S
C1693 C1689 1.376 . S
C1693 C1692 1.392 . S
C1693 H1705 0.929 . S
C1694 C1690 1.531 . S
C1694 H1706 0.960 . S
C1694 H1707 0.962 . S
C1694 H1708 0.960 . S
C1695 C1692 1.511 . S
C1695 H1709 0.961 . S
C1695 H1710 0.961 . S
C1695 H1711 0.961 . S
C1696 C1697 1.370 . S
C1696 C1698 1.363 . S
C1696 H1712 0.931 . S
C1697 C1696 1.370 . S
C1697 C1701 1.408 . S
C1698 C1696 1.363 . S
C1698 C1699 1.370 . S
C1698 C1702 1.524 . S
C1699 C1691 1.503 . S
C1699 C1698 1.370 . S
C1699 C1700 1.403 . S
C1700 C1699 1.403 . S
C1700 C1701 1.404 . S
C1700 C1703 1.539 . S
C1701 C1697 1.408 . S
C1701 C1700 1.404 . S
C1701 H1713 0.930 . S
C1702 C1698 1.524 . S
C1702 H1714 0.956 . S
C1702 H1715 0.961 . S
C1702 H1716 0.961 . S
C1703 C1700 1.539 . S
C1703 H1717 0.958 . S
C1703 H1718 0.961 . S
C1703 H1719 0.960 . S
H1704 C1688 0.931 . S
H1705 C1693 0.929 . S
H1706 C1694 0.960 . S
H1707 C1694 0.962 . S
H1708 C1694 0.960 . S
H1709 C1695 0.961 . S
H1710 C1695 0.961 . S
H1711 C1695 0.961 . S
H1712 C1696 0.931 . S
H1713 C1701 0.930 . S
H1714 C1702 0.956 . S
H1715 C1702 0.961 . S
H1716 C1702 0.961 . S
H1717 C1703 0.958 . S
H1718 C1703 0.961 . S
H1719 C1703 0.960 . S
C1720 C1721 1.391 . S
C1720 C1722 1.394 . S
C1720 H1736 0.931 . S
C1721 C1720 1.391 . S
C1721 C1725 1.376 . S
C1722 C1720 1.394 . S
C1722 C1723 1.369 . S
C1722 C1726 1.531 . S
C1723 C1722 1.369 . S
C1723 C1724 1.410 . S
C1723 C1731 1.503 . S
C1724 C1723 1.410 . S
C1724 C1725 1.392 . S
C1724 C1727 1.511 . S
C1725 C1721 1.376 . S
C1725 C1724 1.392 . S
C1725 H1737 0.929 . S
C1726 C1722 1.531 . S
C1726 H1738 0.960 . S
C1726 H1739 0.962 . S
C1726 H1740 0.960 . S
C1727 C1724 1.511 . S
C1727 H1741 0.961 . S
C1727 H1742 0.961 . S
C1727 H1743 0.961 . S
C1728 C1729 1.370 . S
C1728 C1730 1.363 . S
C1728 H1744 0.931 . S
C1729 C1728 1.370 . S
C1729 C1733 1.408 . S
C1730 C1728 1.363 . S
C1730 C1731 1.370 . S
C1730 C1734 1.524 . S
C1731 C1723 1.503 . S
C1731 C1730 1.370 . S
C1731 C1732 1.403 . S
C1732 C1731 1.403 . S
C1732 C1733 1.404 . S
C1732 C1735 1.539 . S
C1733 C1729 1.408 . S
C1733 C1732 1.404 . S
C1733 H1745 0.930 . S
C1734 C1730 1.524 . S
C1734 H1746 0.956 . S
C1734 H1747 0.961 . S
C1734 H1748 0.961 . S
C1735 C1732 1.539 . S
C1735 H1749 0.958 . S
C1735 H1750 0.961 . S
C1735 H1751 0.960 . S
H1736 C1720 0.931 . S
H1737 C1725 0.929 . S
H1738 C1726 0.960 . S
H1739 C1726 0.962 . S
H1740 C1726 0.960 . S
H1741 C1727 0.961 . S
H1742 C1727 0.961 . S
H1743 C1727 0.961 . S
H1744 C1728 0.931 . S
H1745 C1733 0.930 . S
H1746 C1734 0.956 . S
H1747 C1734 0.961 . S
H1748 C1734 0.961 . S
H1749 C1735 0.958 . S
H1750 C1735 0.961 . S
H1751 C1735 0.960 . S
C1752 C1753 1.391 . S
C1752 C1754 1.394 . S
C1752 H1768 0.931 . S
C1753 C1752 1.391 . S
C1753 C1757 1.376 . S
C1754 C1752 1.394 . S
C1754 C1755 1.369 . S
C1754 C1758 1.531 . S
C1755 C1754 1.369 . S
C1755 C1756 1.410 . S
C1755 C1763 1.503 . S
C1756 C1755 1.410 . S
C1756 C1757 1.392 . S
C1756 C1759 1.511 . S
C1757 C1753 1.376 . S
C1757 C1756 1.392 . S
C1757 H1769 0.929 . S
C1758 C1754 1.531 . S
C1758 H1770 0.960 . S
C1758 H1771 0.962 . S
C1758 H1772 0.960 . S
C1759 C1756 1.511 . S
C1759 H1773 0.961 . S
C1759 H1774 0.961 . S
C1759 H1775 0.961 . S
C1760 C1761 1.370 . S
C1760 C1762 1.363 . S
C1760 H1776 0.931 . S
C1761 C1760 1.370 . S
C1761 C1765 1.408 . S
C1762 C1760 1.363 . S
C1762 C1763 1.370 . S
C1762 C1766 1.524 . S
C1763 C1755 1.503 . S
C1763 C1762 1.370 . S
C1763 C1764 1.403 . S
C1764 C1763 1.403 . S
C1764 C1765 1.404 . S
C1764 C1767 1.539 . S
C1765 C1761 1.408 . S
C1765 C1764 1.404 . S
C1765 H1777 0.930 . S
C1766 C1762 1.524 . S
C1766 H1778 0.956 . S
C1766 H1779 0.961 . S
C1766 H1780 0.961 . S
C1767 C1764 1.539 . S
C1767 H1781 0.958 . S
C1767 H1782 0.961 . S
C1767 H1783 0.960 . S
H1768 C1752 0.931 . S
H1769 C1757 0.929 . S
H1770 C1758 0.960 . S
H1771 C1758 0.962 . S
H1772 C1758 0.960 . S
H1773 C1759 0.961 . S
H1774 C1759 0.961 . S
H1775 C1759 0.961 . S
H1776 C1760 0.931 . S
H1777 C1765 0.930 . S
H1778 C1766 0.956 . S
H1779 C1766 0.961 . S
H1780 C1766 0.961 . S
H1781 C1767 0.958 . S
H1782 C1767 0.961 . S
H1783 C1767 0.960 . S
C1784 C1785 1.391 . S
C1784 C1786 1.394 . S
C1784 H1800 0.931 . S
C1785 C1784 1.391 . S
C1785 C1789 1.376 . S
C1786 C1784 1.394 . S
C1786 C1787 1.369 . S
C1786 C1790 1.531 . S
C1787 C1786 1.369 . S
C1787 C1788 1.410 . S
C1787 C1795 1.503 . S
C1788 C1787 1.410 . S
C1788 C1789 1.392 . S
C1788 C1791 1.511 . S
C1789 C1785 1.376 . S
C1789 C1788 1.392 . S
C1789 H1801 0.929 . S
C1790 C1786 1.531 . S
C1790 H1802 0.960 . S
C1790 H1803 0.962 . S
C1790 H1804 0.960 . S
C1791 C1788 1.511 . S
C1791 H1805 0.961 . S
C1791 H1806 0.961 . S
C1791 H1807 0.961 . S
C1792 C1793 1.370 . S
C1792 C1794 1.363 . S
C1792 H1808 0.931 . S
C1793 C1792 1.370 . S
C1793 C1797 1.408 . S
C1794 C1792 1.363 . S
C1794 C1795 1.370 . S
C1794 C1798 1.524 . S
C1795 C1787 1.503 . S
C1795 C1794 1.370 . S
C1795 C1796 1.403 . S
C1796 C1795 1.403 . S
C1796 C1797 1.404 . S
C1796 C1799 1.539 . S
C1797 C1793 1.408 . S
C1797 C1796 1.404 . S
C1797 H1809 0.930 . S
C1798 C1794 1.524 . S
C1798 H1810 0.956 . S
C1798 H1811 0.961 . S
C1798 H1812 0.961 . S
C1799 C1796 1.539 . S
C1799 H1813 0.958 . S
C1799 H1814 0.961 . S
C1799 H1815 0.960 . S
H1800 C1784 0.931 . S
H1801 C1789 0.929 . S
H1802 C1790 0.960 . S
H1803 C1790 0.962 . S
H1804 C1790 0.960 . S
H1805 C1791 0.961 . S
H1806 C1791 0.961 . S
H1807 C1791 0.961 . S
H1808 C1792 0.931 . S
H1809 C1797 0.930 . S
H1810 C1798 0.956 . S
H1811 C1798 0.961 . S
H1812 C1798 0.961 . S
H1813 C1799 0.958 . S
H1814 C1799 0.961 . S
H1815 C1799 0.960 . S
C1816 C1817 1.391 . S
C1816 C1818 1.394 . S
C1816 H1832 0.931 . S
C1817 C1816 1.391 . S
C1817 C1821 1.376 . S
C1818 C1816 1.394 . S
C1818 C1819 1.369 . S
C1818 C1822 1.531 . S
C1819 C1818 1.369 . S
C1819 C1820 1.410 . S
C1819 C1827 1.503 . S
C1820 C1819 1.410 . S
C1820 C1821 1.392 . S
C1820 C1823 1.511 . S
C1821 C1817 1.376 . S
C1821 C1820 1.392 . S
C1821 H1833 0.929 . S
C1822 C1818 1.531 . S
C1822 H1834 0.960 . S
C1822 H1835 0.962 . S
C1822 H1836 0.960 . S
C1823 C1820 1.511 . S
C1823 H1837 0.961 . S
C1823 H1838 0.961 . S
C1823 H1839 0.961 . S
C1824 C1825 1.370 . S
C1824 C1826 1.363 . S
C1824 H1840 0.931 . S
C1825 C1824 1.370 . S
C1825 C1829 1.408 . S
C1826 C1824 1.363 . S
C1826 C1827 1.370 . S
C1826 C1830 1.524 . S
C1827 C1819 1.503 . S
C1827 C1826 1.370 . S
C1827 C1828 1.403 . S
C1828 C1827 1.403 . S
C1828 C1829 1.404 . S
C1828 C1831 1.539 . S
C1829 C1825 1.408 . S
C1829 C1828 1.404 . S
C1829 H1841 0.930 . S
C1830 C1826 1.524 . S
C1830 H1842 0.956 . S
C1830 H1843 0.961 . S
C1830 H1844 0.961 . S
C1831 C1828 1.539 . S
C1831 H1845 0.958 . S
C1831 H1846 0.961 . S
C1831 H1847 0.960 . S
H1832 C1816 0.931 . S
H1833 C1821 0.929 . S
H1834 C1822 0.960 . S
H1835 C1822 0.962 . S
H1836 C1822 0.960 . S
H1837 C1823 0.961 . S
H1838 C1823 0.961 . S
H1839 C1823 0.961 . S
H1840 C1824 0.931 . S
H1841 C1829 0.930 . S
H1842 C1830 0.956 . S
H1843 C1830 0.961 . S
H1844 C1830 0.961 . S
H1845 C1831 0.958 . S
H1846 C1831 0.961 . S
H1847 C1831 0.960 . S
C313 C289 1.718 . S
C321 C3 1.718 . S
C345 C23 1.706 . S
C353 C309 1.715 . S
C377 C265 1.610 . S
C385 C29 1.712 . S
C409 C274 1.813 . S
C417 C40 1.822 . S
C441 C276 1.751 . S
C449 C55 1.754 . S
C473 C70 1.682 . S
C481 C287 1.718 . S
C505 C304 1.689 . S
C513 C81 1.740 . S
C537 C94 1.750 . S
C545 C270 1.680 . S
C569 C109 1.670 . S
C577 C252 1.634 . S
C601 C211 1.761 . S
C609 C127 1.700 . S
C633 C140 1.655 . S
C641 C226 1.684 . S
C665 C235 1.728 . S
C673 C148 1.655 . S
C697 C153 1.671 . S
C705 C172 1.766 . S
C729 C114 1.700 . S
C737 C185 1.747 . S
C761 C198 1.715 . S
C769 C122 1.660 . S
C793 C135 1.657 . S
C801 C159 1.698 . S
C825 C18 1.651 . S
C833 C237 1.707 . S
C857 C183 1.778 . S
C865 C92 1.794 . S
C889 C53 1.764 . S
C897 C196 1.781 . S
C921 C157 1.767 . S
C929 C75 1.698 . S
C953 C79 1.783 . S
C961 C170 1.794 . S
C985 C42 1.793 . S
C993 C209 1.801 . S
C1017 C1 1.762 . S
C1025 C231 1.693 . S
C1049 C27 1.750 . S
C1057 C257 1.683 . S
C1081 C88 1.763 . S
C1089 C261 1.700 . S
C1113 C278 1.746 . S
C1121 C101 1.754 . S
C1145 C296 1.742 . S
C1153 C62 1.741 . S
C1177 C302 1.730 . S
C1185 C66 1.710 . S
C1209 C36 1.793 . S
C1217 C300 1.722 . S
C1241 C44 1.713 . S
C1249 C263 1.639 . S
C1273 C10 1.768 . S
C1281 C283 1.784 . S
C1305 C291 1.699 . S
C1313 C16 1.622 . S
C1337 C133 1.710 . S
C1345 C179 1.757 . S
C1369 C144 1.782 . S
C1377 C192 1.815 . S
C1401 C105 1.721 . S
C1409 C205 1.749 . S
C1433 C120 1.647 . S
C1441 C166 1.736 . S
C1465 C118 1.742 . S
C1473 C248 1.712 . S
C1497 C218 1.802 . S
C1505 C131 1.740 . S
C1529 C146 1.723 . S
C1537 C222 1.705 . S
C1561 C107 1.645 . S
C1569 C239 1.706 . S
C1593 C161 1.698 . S
C1601 C96 1.704 . S
C1625 C213 1.733 . S
C1633 C14 1.679 . S
C1657 C31 1.742 . S
C1665 C224 1.664 . S
C1689 C244 1.747 . S
C1697 C49 1.757 . S
C1721 C250 1.706 . S
C1729 C5 1.753 . S
C1753 C68 1.643 . S
C1761 C187 1.747 . S
C1785 C200 1.721 . S
C1793 C83 1.717 . S
C1817 C174 1.714 . S
C1825 C57 1.707 . S
