# Generated by pormake.
# Topology ghw, (5)-cn, num edge types: 1
# Building blocks:
#     Node 0, Type 0, BuildingBlock: BEQFEK_clean_sbu_0, # of connection points: 5
#     Node 1, Type 0, BuildingBlock: BEQFEK_clean_sbu_0, # of connection points: 5
#     Node 2, Type 0, BuildingBlock: BEQFEK_clean_sbu_0, # of connection points: 5
#     Node 3, Type 0, BuildingBlock: BEQFEK_clean_sbu_0, # of connection points: 5
#     Node 4, Type 0, BuildingBlock: BEQFEK_clean_sbu_0, # of connection points: 5
#     Node 5, Type 0, BuildingBlock: BEQFEK_clean_sbu_0, # of connection points: 5
#     Node 6, Type 0, BuildingBlock: BEQFEK_clean_sbu_0, # of connection points: 5
#     Node 7, Type 0, BuildingBlock: BEQFEK_clean_sbu_0, # of connection points: 5
#     Node 8, Type 0, BuildingBlock: BEQFEK_clean_sbu_0, # of connection points: 5
#     Node 9, Type 0, BuildingBlock: BEQFEK_clean_sbu_0, # of connection points: 5
#     Node 10, Type 0, BuildingBlock: BEQFEK_clean_sbu_0, # of connection points: 5
#     Node 11, Type 0, BuildingBlock: BEQFEK_clean_sbu_0, # of connection points: 5
#     Node 12, Type 0, BuildingBlock: BEQFEK_clean_sbu_0, # of connection points: 5
#     Node 13, Type 0, BuildingBlock: BEQFEK_clean_sbu_0, # of connection points: 5
#     Node 14, Type 0, BuildingBlock: BEQFEK_clean_sbu_0, # of connection points: 5
#     Node 15, Type 0, BuildingBlock: BEQFEK_clean_sbu_0, # of connection points: 5
#     Edge 16, Type (0, 0), BuildingBlock: ZUJKAS_clean_linker_0, # of connection points: 2
#     Edge 17, Type (0, 0), BuildingBlock: ZUJKAS_clean_linker_0, # of connection points: 2
#     Edge 18, Type (0, 0), BuildingBlock: ZUJKAS_clean_linker_0, # of connection points: 2
#     Edge 19, Type (0, 0), BuildingBlock: ZUJKAS_clean_linker_0, # of connection points: 2
#     Edge 20, Type (0, 0), BuildingBlock: ZUJKAS_clean_linker_0, # of connection points: 2
#     Edge 21, Type (0, 0), BuildingBlock: ZUJKAS_clean_linker_0, # of connection points: 2
#     Edge 22, Type (0, 0), BuildingBlock: ZUJKAS_clean_linker_0, # of connection points: 2
#     Edge 23, Type (0, 0), BuildingBlock: ZUJKAS_clean_linker_0, # of connection points: 2
#     Edge 24, Type (0, 0), BuildingBlock: ZUJKAS_clean_linker_0, # of connection points: 2
#     Edge 25, Type (0, 0), BuildingBlock: ZUJKAS_clean_linker_0, # of connection points: 2
#     Edge 26, Type (0, 0), BuildingBlock: ZUJKAS_clean_linker_0, # of connection points: 2
#     Edge 27, Type (0, 0), BuildingBlock: ZUJKAS_clean_linker_0, # of connection points: 2
#     Edge 28, Type (0, 0), BuildingBlock: ZUJKAS_clean_linker_0, # of connection points: 2
#     Edge 29, Type (0, 0), BuildingBlock: ZUJKAS_clean_linker_0, # of connection points: 2
#     Edge 30, Type (0, 0), BuildingBlock: ZUJKAS_clean_linker_0, # of connection points: 2
#     Edge 31, Type (0, 0), BuildingBlock: ZUJKAS_clean_linker_0, # of connection points: 2
#     Edge 32, Type (0, 0), BuildingBlock: ZUJKAS_clean_linker_0, # of connection points: 2
#     Edge 33, Type (0, 0), BuildingBlock: ZUJKAS_clean_linker_0, # of connection points: 2
#     Edge 34, Type (0, 0), BuildingBlock: ZUJKAS_clean_linker_0, # of connection points: 2
#     Edge 35, Type (0, 0), BuildingBlock: ZUJKAS_clean_linker_0, # of connection points: 2
#     Edge 36, Type (0, 0), BuildingBlock: ZUJKAS_clean_linker_0, # of connection points: 2
#     Edge 37, Type (0, 0), BuildingBlock: ZUJKAS_clean_linker_0, # of connection points: 2
#     Edge 38, Type (0, 0), BuildingBlock: ZUJKAS_clean_linker_0, # of connection points: 2
#     Edge 39, Type (0, 0), BuildingBlock: ZUJKAS_clean_linker_0, # of connection points: 2
#     Edge 40, Type (0, 0), BuildingBlock: ZUJKAS_clean_linker_0, # of connection points: 2
#     Edge 41, Type (0, 0), BuildingBlock: ZUJKAS_clean_linker_0, # of connection points: 2
#     Edge 42, Type (0, 0), BuildingBlock: ZUJKAS_clean_linker_0, # of connection points: 2
#     Edge 43, Type (0, 0), BuildingBlock: ZUJKAS_clean_linker_0, # of connection points: 2
#     Edge 44, Type (0, 0), BuildingBlock: ZUJKAS_clean_linker_0, # of connection points: 2
#     Edge 45, Type (0, 0), BuildingBlock: ZUJKAS_clean_linker_0, # of connection points: 2
#     Edge 46, Type (0, 0), BuildingBlock: ZUJKAS_clean_linker_0, # of connection points: 2
#     Edge 47, Type (0, 0), BuildingBlock: ZUJKAS_clean_linker_0, # of connection points: 2
#     Edge 48, Type (0, 0), BuildingBlock: ZUJKAS_clean_linker_0, # of connection points: 2
#     Edge 49, Type (0, 0), BuildingBlock: ZUJKAS_clean_linker_0, # of connection points: 2
#     Edge 50, Type (0, 0), BuildingBlock: ZUJKAS_clean_linker_0, # of connection points: 2
#     Edge 51, Type (0, 0), BuildingBlock: ZUJKAS_clean_linker_0, # of connection points: 2
#     Edge 52, Type (0, 0), BuildingBlock: ZUJKAS_clean_linker_0, # of connection points: 2
#     Edge 53, Type (0, 0), BuildingBlock: ZUJKAS_clean_linker_0, # of connection points: 2
#     Edge 54, Type (0, 0), BuildingBlock: ZUJKAS_clean_linker_0, # of connection points: 2
#     Edge 55, Type (0, 0), BuildingBlock: ZUJKAS_clean_linker_0, # of connection points: 2
# Relax obj value: 0.406
# Max RMSD: 0.273
# Mean RMSD: 0.273
data_MOF--net-ghw--node1-BEQFEK_clean_sbu_0--edge1-ZUJKAS_clean_linker_0
_symmetry_space_group_name_H-M    P1
_symmetry_Int_Tables_number       1
_symmetry_cell_setting            triclinic
loop_
_symmetry_equiv_pos_as_xyz
'x, y, z'
_cell_length_a     42.518822
_cell_length_b     58.204088
_cell_length_c     38.661623
_cell_angle_alpha  116.45487
_cell_angle_beta   89.984688
_cell_angle_gamma 89.930708
loop_
_atom_site_label
_atom_site_type_symbol
_atom_site_fract_x
_atom_site_fract_y
_atom_site_fract_z
_atom_type_partial_charge
Co0 Co 0.11547 0.07613 0.3359 0.0
Co1 Co 0.07432 0.12587 0.37808 0.0
C2 C 0.08138 0.10074 0.29227 0.0
O3 O 0.09926 0.08348 0.29342 0.0
O4 O 0.0695 0.11827 0.32296 0.0
C5 C 0.15935 0.03107 0.30764 0.0
O6 O 0.16285 0.00609 0.29176 0.0
C7 C 0.0206 0.16126 0.40194 0.0
C8 C 0.03205 0.18641 0.46309 0.0
C9 C 0.00933 0.18164 0.43507 0.0
N10 N 0.04878 0.15436 0.40996 0.0
N11 N 0.05575 0.16975 0.44635 0.0
C12 C 0.00337 0.14659 0.36476 0.0
H13 H 0.01171 0.12642 0.35035 0.0
H14 H 0.97763 0.14695 0.36977 0.0
H15 H 0.00798 0.15562 0.34532 0.0
C16 C 0.07379 0.05901 0.38125 0.0
N17 N 0.08263 0.07673 0.3697 0.0
N18 N 0.06452 0.09707 0.38647 0.0
C19 C 0.04336 0.09284 0.40905 0.0
C20 C 0.0485 0.06853 0.4064 0.0
C21 C 0.09113 0.03441 0.37108 0.0
H22 H 0.11676 0.03826 0.37474 0.0
H23 H 0.08657 0.02099 0.34037 0.0
H24 H 0.08393 0.02518 0.38948 0.0
O25 O 0.1485 0.10204 0.36426 0.0
O26 O 0.11809 0.13642 0.39392 0.0
H27 H 0.02964 0.12831 0.45616 0.0
H28 H 0.00124 0.10282 0.44439 0.0
C29 C 0.01845 0.11157 0.43223 0.0
H30 H 0.00575 0.11846 0.41364 0.0
H31 H 0.07614 0.1682 0.46019 0.0
O32 O 0.13181 0.04038 0.31195 0.0
C33 C 0.1451 0.12586 0.38681 0.0
Co34 Co 0.1186 0.14362 0.88981 0.0
Co35 Co 0.06262 0.10478 0.85481 0.0
C36 C 0.08045 0.1261 0.93892 0.0
O37 O 0.10263 0.13954 0.93508 0.0
O38 O 0.06303 0.11203 0.91044 0.0
C39 C 0.15969 0.18702 0.93812 0.0
O40 O 0.14147 0.19116 0.96778 0.0
C41 C -0.00127 0.08109 0.83862 0.0
C42 C 0.00416 0.05391 0.77689 0.0
C43 C 0.98271 0.06266 0.807 0.0
N44 N 0.02808 0.08326 0.82734 0.0
N45 N 0.03113 0.06683 0.79049 0.0
C46 C 0.98688 0.09576 0.8791 0.0
H47 H 0.00644 0.10051 0.89997 0.0
H48 H 0.97619 0.11403 0.88244 0.0
H49 H 0.96891 0.08455 0.88589 0.0
C50 C 0.08212 0.17188 0.85571 0.0
N51 N 0.08589 0.15193 0.8641 0.0
N52 N 0.06232 0.13583 0.84943 0.0
C53 C 0.04266 0.14515 0.83133 0.0
C54 C 0.05456 0.16829 0.83462 0.0
C55 C 0.1059 0.19277 0.86523 0.0
H56 H 0.12952 0.18414 0.85565 0.0
H57 H 0.10673 0.20456 0.89702 0.0
H58 H 0.10045 0.20526 0.85117 0.0
O59 O 0.13956 0.11151 0.85426 0.0
O60 O 0.10032 0.08408 0.82956 0.0
H61 H 0.01826 0.11433 0.78604 0.0
H62 H -0.00179 0.14492 0.80363 0.0
C63 C 0.01269 0.13239 0.81209 0.0
H64 H -0.00116 0.12745 0.8321 0.0
H65 H 0.05165 0.06455 0.77448 0.0
O66 O 0.15285 0.16923 0.90503 0.0
C67 C 0.12953 0.08919 0.83209 0.0
Co68 Co 0.87746 0.90095 0.6628 0.0
Co69 Co 0.92924 0.85989 0.61827 0.0
C70 C 0.92259 0.88228 0.70441 0.0
O71 O 0.89972 0.8963 0.70403 0.0
O72 O 0.93653 0.86721 0.67329 0.0
C73 C 0.83153 0.93169 0.71663 0.0
O74 O 0.83939 0.91719 0.73333 0.0
C75 C 0.99223 0.83746 0.59542 0.0
C76 C 0.98359 0.80602 0.53712 0.0
C77 C 0.00694 0.81767 0.56428 0.0
N78 N 0.96164 0.83761 0.58685 0.0
N79 N 0.9566 0.81874 0.55203 0.0
C80 C 0.00599 0.85474 0.63398 0.0
H81 H 0.99654 0.87447 0.6441 0.0
H82 H 0.03201 0.85503 0.63345 0.0
H83 H -0.0014 0.84774 0.65512 0.0
C84 C 0.90863 0.92802 0.62323 0.0
N85 N 0.90621 0.90796 0.63154 0.0
N86 N 0.92801 0.89088 0.6126 0.0
C87 C 0.94502 0.89956 0.59138 0.0
C88 C 0.93333 0.92341 0.59745 0.0
C89 C 0.88629 0.95026 0.63798 0.0
H90 H 0.86177 0.94302 0.63271 0.0
H91 H 0.88937 0.96149 0.66966 0.0
H92 H 0.88996 0.96296 0.62385 0.0
O93 O 0.85262 0.86979 0.63116 0.0
O94 O 0.88918 0.84071 0.59987 0.0
H95 H 0.96459 0.86662 0.54418 0.0
H96 H 0.98373 0.89649 0.55283 0.0
C97 C 0.97247 0.88554 0.56671 0.0
H98 H 0.99026 0.88213 0.58483 0.0
H99 H 0.9347 0.81451 0.53845 0.0
O100 O 0.84633 0.92903 0.6865 0.0
C101 C 0.8604 0.84706 0.60738 0.0
Co102 Co 0.87557 0.85326 0.10401 0.0
Co103 Co 0.92608 0.89523 0.14788 0.0
C104 C 0.92025 0.87158 0.06159 0.0
O105 O 0.89785 0.85726 0.06212 0.0
O106 O 0.93349 0.88732 0.09272 0.0
C107 C 0.83103 0.82158 0.04974 0.0
O108 O 0.84074 0.83454 0.03133 0.0
C109 C 0.98764 0.92025 0.16858 0.0
C110 C 0.97923 0.9505 0.22786 0.0
C111 C 0.00197 0.94066 0.19922 0.0
N112 N 0.95784 0.91841 0.17859 0.0
N113 N 0.95292 0.93657 0.214 0.0
C114 C 0.00234 0.90148 0.13151 0.0
H115 H 0.98943 0.88299 0.11966 0.0
H116 H 0.02736 0.89809 0.13601 0.0
H117 H 0.00116 0.90931 0.11012 0.0
C118 C 0.90804 0.82723 0.14462 0.0
N119 N 0.90452 0.84715 0.13614 0.0
N120 N 0.92597 0.86462 0.15464 0.0
C121 C 0.94392 0.85633 0.17561 0.0
C122 C 0.93319 0.83231 0.16996 0.0
C123 C 0.88661 0.80447 0.13 0.0
H124 H 0.8618 0.81105 0.1336 0.0
H125 H 0.89092 0.7926 0.09867 0.0
H126 H 0.89016 0.79257 0.14549 0.0
O127 O 0.84991 0.88426 0.13436 0.0
O128 O 0.88559 0.91401 0.16557 0.0
H129 H 0.96348 0.88903 0.22299 0.0
H130 H 0.98476 0.85948 0.21121 0.0
C131 C 0.97163 0.87071 0.19913 0.0
H132 H 0.98782 0.8754 0.18074 0.0
H133 H 0.93157 0.93946 0.22869 0.0
O134 O 0.8446 0.82514 0.08101 0.0
C135 C 0.857 0.90722 0.15772 0.0
Co136 Co 0.111 0.60539 0.8562 0.0
Co137 Co 0.05817 0.64695 0.89468 0.0
C138 C 0.06958 0.62241 0.80893 0.0
O139 O 0.09142 0.60835 0.81187 0.0
O140 O 0.05462 0.63838 0.83858 0.0
C141 C 0.15801 0.57098 0.80681 0.0
O142 O 0.1495 0.58031 0.78292 0.0
C143 C 0.99604 0.67331 0.91716 0.0
C144 C 0.00581 0.70062 0.9779 0.0
C145 C 0.98226 0.69226 0.95033 0.0
N146 N 0.02614 0.67037 0.92522 0.0
N147 N 0.03183 0.68696 0.96143 0.0
C148 C 0.98139 0.65881 0.87817 0.0
H149 H -0.00094 0.65493 0.85519 0.0
H150 H 0.9726 0.64009 0.87526 0.0
H151 H 0.9615 0.66972 0.87409 0.0
C152 C 0.07634 0.58033 0.89624 0.0
N153 N 0.0801 0.59965 0.88649 0.0
N154 N 0.0576 0.6167 0.90237 0.0
C155 C 0.03864 0.60864 0.92278 0.0
C156 C 0.04988 0.5853 0.91955 0.0
C157 C 0.09906 0.55852 0.88538 0.0
H158 H 0.12331 0.56621 0.89255 0.0
H159 H 0.09796 0.54629 0.85372 0.0
H160 H 0.09408 0.5467 0.90065 0.0
O161 O 0.13508 0.63686 0.88759 0.0
O162 O 0.0978 0.66599 0.91478 0.0
H163 H 0.01677 0.6409 0.96867 0.0
H164 H 0.99566 0.61109 0.95451 0.0
C165 C 0.00979 0.62264 0.94387 0.0
H166 H 0.99502 0.62731 0.92428 0.0
H167 H 0.05343 0.68866 0.97517 0.0
O168 O 0.14303 0.57781 0.8383 0.0
C169 C 0.1267 0.65975 0.90965 0.0
Co170 Co 0.11058 0.64946 0.3972 0.0
Co171 Co 0.05773 0.60828 0.35838 0.0
C172 C 0.07165 0.63053 0.44367 0.0
O173 O 0.09294 0.64512 0.44126 0.0
O174 O 0.05638 0.61521 0.41392 0.0
C175 C 0.14836 0.6919 0.45134 0.0
O176 O 0.12945 0.69198 0.47826 0.0
C177 C 0.99474 0.58378 0.34151 0.0
C178 C 2e-05 0.55664 0.27973 0.0
C179 C 0.97867 0.56545 0.30994 0.0
N180 N 0.02403 0.58599 0.33014 0.0
N181 N 0.02706 0.56953 0.29329 0.0
C182 C 0.98305 0.59828 0.38213 0.0
H183 H 0.97702 0.61818 0.38765 0.0
H184 H 0.9621 0.58899 0.38748 0.0
H185 H 0.00164 0.59932 0.40276 0.0
C186 C 0.0741 0.67663 0.3616 0.0
N187 N 0.07857 0.65659 0.36958 0.0
N188 N 0.05622 0.63952 0.3532 0.0
C189 C 0.0367 0.64827 0.33416 0.0
C190 C 0.04738 0.67208 0.33882 0.0
C191 C 0.09643 0.69872 0.37353 0.0
H192 H 0.1208 0.69134 0.36593 0.0
H193 H 0.09533 0.71026 0.40537 0.0
H194 H 0.09101 0.71117 0.35939 0.0
O195 O 0.13394 0.61813 0.3628 0.0
O196 O 0.09686 0.589 0.33481 0.0
H197 H 0.01508 0.61643 0.28742 0.0
H198 H 0.99349 0.64623 0.30306 0.0
C199 C 0.00794 0.63435 0.31282 0.0
H200 H 0.99342 0.62903 0.33193 0.0
H201 H 0.04754 0.56731 0.27722 0.0
O202 O 0.14295 0.67665 0.41617 0.0
C203 C 0.12571 0.59545 0.33953 0.0
Co204 Co 0.88256 0.40385 0.1542 0.0
Co205 Co 0.93729 0.36414 0.11647 0.0
C206 C 0.92249 0.38661 0.20169 0.0
O207 O 0.9006 0.40068 0.19896 0.0
O208 O 0.9382 0.37149 0.17215 0.0
C209 C 0.84069 0.44427 0.20591 0.0
O210 O 0.85729 0.44402 0.23438 0.0
C211 C 0.00202 0.34257 0.10069 0.0
C212 C 0.99726 0.31359 0.03983 0.0
C213 C 0.01875 0.32427 0.06969 0.0
N214 N 0.97218 0.34293 0.08929 0.0
N215 N 0.96951 0.32539 0.053 0.0
C216 C 0.01376 0.35883 0.14079 0.0
H217 H 0.99508 0.36165 0.16221 0.0
H218 H 0.02053 0.37797 0.14351 0.0
H219 H 0.03446 0.34989 0.14748 0.0
C220 C 0.9173 0.43155 0.11833 0.0
N221 N 0.91403 0.41158 0.12669 0.0
N222 N 0.93712 0.39514 0.11067 0.0
C223 C 0.95589 0.40419 0.09139 0.0
C224 C 0.94398 0.42759 0.09563 0.0
C225 C 0.89382 0.45289 0.12961 0.0
H226 H 0.86998 0.44466 0.12062 0.0
H227 H 0.89369 0.46415 0.16153 0.0
H228 H 0.89898 0.46578 0.11617 0.0
O229 O 0.86088 0.37165 0.12012 0.0
O230 O 0.89918 0.34358 0.0924 0.0
H231 H 0.97849 0.37226 0.04567 0.0
H232 H -0.00191 0.40261 0.05875 0.0
C233 C 0.98499 0.3909 0.07001 0.0
H234 H 0.00062 0.38699 0.08967 0.0
H235 H 0.94876 0.3217 0.03701 0.0
O236 O 0.8488 0.42993 0.17125 0.0
C237 C 0.87006 0.3492 0.09703 0.0
Co238 Co 0.87671 0.35019 0.60477 0.0
Co239 Co 0.92922 0.39071 0.64497 0.0
C240 C 0.91746 0.36945 0.5599 0.0
O241 O 0.89572 0.35494 0.56156 0.0
O242 O 0.9324 0.38449 0.59009 0.0
C243 C 0.84055 0.30803 0.54838 0.0
O244 O 0.8597 0.30921 0.52257 0.0
C245 C 0.99128 0.41464 0.66169 0.0
C246 C 0.98764 0.44068 0.72416 0.0
C247 C 0.00799 0.43237 0.69294 0.0
N248 N 0.9623 0.41269 0.67384 0.0
N249 N 0.9601 0.4285 0.71107 0.0
C250 C 0.00342 0.39781 0.62198 0.0
H251 H 0.99042 0.37936 0.60918 0.0
H252 H 0.02892 0.39394 0.62265 0.0
H253 H -0.00022 0.40761 0.60339 0.0
C254 C 0.91163 0.32263 0.64136 0.0
N255 N 0.90775 0.34268 0.63323 0.0
N256 N 0.93032 0.35947 0.64976 0.0
C257 C 0.94949 0.35051 0.66882 0.0
C258 C 0.93827 0.32687 0.66422 0.0
C259 C 0.88896 0.30078 0.62941 0.0
H260 H 0.86454 0.30826 0.63464 0.0
H261 H 0.89167 0.28831 0.598 0.0
H262 H 0.8929 0.28923 0.64537 0.0
O263 O 0.85271 0.38138 0.63859 0.0
O264 O 0.89016 0.40994 0.66746 0.0
H265 H 0.9718 0.38164 0.71597 0.0
H266 H 0.99312 0.35163 0.69866 0.0
C267 C 0.97856 0.36398 0.68992 0.0
H268 H 0.99288 0.36965 0.67106 0.0
H269 H 0.94004 0.43051 0.72773 0.0
O270 O 0.84497 0.32275 0.58398 0.0
C271 C 0.86123 0.40391 0.66215 0.0
Co272 Co 0.61463 0.10602 0.84874 0.0
Co273 Co 0.56307 0.14797 0.89112 0.0
C274 C 0.57362 0.12688 0.80594 0.0
O275 O 0.5952 0.1121 0.80718 0.0
O276 O 0.55874 0.14184 0.83631 0.0
C277 C 0.66457 0.08092 0.80183 0.0
O278 O 0.66042 0.10077 0.79467 0.0
C279 C 0.50053 0.17197 0.91112 0.0
C280 C 0.50787 0.20186 0.97095 0.0
C281 C 0.48539 0.19147 0.94222 0.0
N282 N 0.53049 0.17074 0.92123 0.0
N283 N 0.53477 0.18875 0.95693 0.0
C284 C 0.48779 0.15581 0.8715 0.0
H285 H 0.49358 0.13534 0.8625 0.0
H286 H 0.4621 0.15822 0.8697 0.0
H287 H 0.49952 0.16149 0.85087 0.0
C288 C 0.57973 0.07921 0.88626 0.0
N289 N 0.5837 0.09915 0.87795 0.0
N290 N 0.56191 0.11656 0.89569 0.0
C291 C 0.54328 0.10817 0.91593 0.0
C292 C 0.55396 0.08422 0.91068 0.0
C293 C 0.60167 0.05676 0.87304 0.0
H294 H 0.62635 0.06363 0.87728 0.0
H295 H 0.59814 0.04454 0.84167 0.0
H296 H 0.5978 0.04512 0.88886 0.0
O297 O 0.63952 0.13647 0.88242 0.0
O298 O 0.60326 0.16622 0.91208 0.0
H299 H 0.52335 0.14093 0.96307 0.0
H300 H 0.50198 0.11143 0.95098 0.0
C301 C 0.51538 0.12262 0.93908 0.0
H302 H 0.49943 0.12725 0.92044 0.0
H303 H 0.55606 0.19201 0.97179 0.0
O304 O 0.64559 0.07774 0.82475 0.0
C305 C 0.63196 0.15927 0.90605 0.0
Co306 Co 0.62537 0.163 0.40405 0.0
Co307 Co 0.56512 0.1304 0.36865 0.0
C308 C 0.58246 0.14957 0.45286 0.0
O309 O 0.60668 0.16128 0.44957 0.0
O310 O 0.56478 0.13692 0.42396 0.0
C311 C 0.68282 0.17874 0.43954 0.0
O312 O 0.67528 0.16081 0.44992 0.0
C313 C 0.49742 0.12128 0.36389 0.0
C314 C 0.49153 0.09081 0.30423 0.0
C315 C 0.47502 0.10597 0.33765 0.0
N316 N 0.52571 0.11559 0.34657 0.0
N317 N 0.52206 0.09741 0.3109 0.0
C318 C 0.4931 0.13931 0.40576 0.0
H319 H 0.50944 0.15579 0.41426 0.0
H320 H 0.46871 0.1464 0.41298 0.0
H321 H 0.49898 0.12893 0.42295 0.0
C322 C 0.59649 0.19593 0.37252 0.0
N323 N 0.59622 0.17527 0.37959 0.0
N324 N 0.57099 0.16147 0.36406 0.0
C325 C 0.55438 0.17289 0.34628 0.0
C326 C 0.56999 0.19508 0.351 0.0
C327 C 0.62299 0.21476 0.3837 0.0
H328 H 0.64463 0.20471 0.36829 0.0
H329 H 0.6276 0.22231 0.41511 0.0
H330 H 0.61798 0.23087 0.37658 0.0
O331 O 0.64098 0.1287 0.36771 0.0
O332 O 0.59897 0.10495 0.34079 0.0
H333 H 0.52727 0.14325 0.30247 0.0
H334 H 0.5142 0.17537 0.31336 0.0
C335 C 0.52385 0.16297 0.3258 0.0
H336 H 0.50644 0.16216 0.34654 0.0
H337 H 0.54044 0.08941 0.29122 0.0
O338 O 0.6632 0.18464 0.42005 0.0
C339 C 0.62873 0.10748 0.34441 0.0
Co340 Co 0.37356 0.90975 0.15088 0.0
Co341 Co 0.42721 0.8695 0.11187 0.0
C342 C 0.41546 0.89234 0.19735 0.0
O343 O 0.39277 0.90604 0.19519 0.0
O344 O 0.43104 0.8775 0.16743 0.0
C345 C 0.33047 0.95005 0.20184 0.0
O346 O 0.34497 0.94907 0.23115 0.0
C347 C 0.48878 0.84313 0.09181 0.0
C348 C 0.48328 0.82016 0.02867 0.0
C349 C 0.50427 0.826 0.05875 0.0
N350 N 0.45983 0.84717 0.08166 0.0
N351 N 0.45659 0.83313 0.044 0.0
C352 C 0.50206 0.85722 0.13162 0.0
H353 H 0.49101 0.87645 0.14679 0.0
H354 H 0.52795 0.85929 0.13065 0.0
H355 H 0.49682 0.84624 0.14815 0.0
C356 C 0.40777 0.93644 0.11254 0.0
N357 N 0.40437 0.91675 0.12158 0.0
N358 N 0.42721 0.90009 0.1055 0.0
C359 C 0.44616 0.90883 0.08599 0.0
C360 C 0.4344 0.93208 0.0896 0.0
C361 C 0.38463 0.95798 0.12366 0.0
H362 H 0.36061 0.94998 0.11541 0.0
H363 H 0.385 0.96963 0.1555 0.0
H364 H 0.38979 0.97043 0.10948 0.0
O365 O 0.35042 0.87803 0.11832 0.0
O366 O 0.38831 0.84962 0.09078 0.0
H367 H 0.46944 0.87857 0.03854 0.0
H368 H 0.49066 0.90857 0.05847 0.0
C369 C 0.47567 0.89569 0.06562 0.0
H370 H 0.48926 0.88927 0.08418 0.0
H371 H 0.43636 0.83294 0.02858 0.0
O372 O 0.34035 0.93629 0.16777 0.0
C373 C 0.35928 0.85538 0.09584 0.0
Co374 Co 0.38282 0.84234 0.58755 0.0
Co375 Co 0.43295 0.88508 0.63074 0.0
C376 C 0.42381 0.86321 0.54487 0.0
O377 O 0.40258 0.84795 0.54545 0.0
O378 O 0.43783 0.8785 0.57573 0.0
C379 C 0.33459 0.8135 0.53841 0.0
O380 O 0.34144 0.82884 0.52282 0.0
C381 C 0.49447 0.91074 0.65389 0.0
C382 C 0.48418 0.94049 0.71308 0.0
C383 C 0.50796 0.93061 0.68597 0.0
N384 N 0.46415 0.90874 0.66196 0.0
N385 N 0.4581 0.92672 0.69723 0.0
C386 C 0.50945 0.89463 0.61552 0.0
H387 H 0.49481 0.89532 0.59232 0.0
H388 H 0.5104 0.87434 0.61054 0.0
H389 H 0.53344 0.90138 0.61351 0.0
C390 C 0.41715 0.81676 0.62755 0.0
N391 N 0.41335 0.83627 0.61815 0.0
N392 N 0.43448 0.8541 0.63644 0.0
C393 C 0.45242 0.84649 0.65824 0.0
C394 C 0.44206 0.82256 0.65338 0.0
C395 C 0.39551 0.79418 0.61436 0.0
H396 H 0.37081 0.80102 0.61999 0.0
H397 H 0.39817 0.7825 0.58271 0.0
H398 H 0.40027 0.78205 0.62921 0.0
O399 O 0.35703 0.8727 0.61981 0.0
O400 O 0.39246 0.90283 0.65025 0.0
H401 H 0.46984 0.87999 0.70622 0.0
H402 H 0.49221 0.85117 0.69606 0.0
C403 C 0.47909 0.86183 0.68302 0.0
H404 H 0.49566 0.86674 0.66528 0.0
H405 H 0.43619 0.92943 0.71067 0.0
O406 O 0.35174 0.81416 0.56575 0.0
C407 C 0.36397 0.89562 0.6434 0.0
Co408 Co 0.60689 0.60409 0.35571 0.0
Co409 Co 0.55297 0.6435 0.39868 0.0
C410 C 0.56386 0.62419 0.31361 0.0
O411 O 0.58645 0.61014 0.31465 0.0
O412 O 0.54838 0.63825 0.34405 0.0
C413 C 0.65667 0.57921 0.30643 0.0
O414 O 0.65073 0.59765 0.29654 0.0
C415 C 0.49011 0.66801 0.42154 0.0
C416 C 0.49722 0.69219 0.48408 0.0
C417 C 0.47493 0.68511 0.45507 0.0
N418 N 0.51984 0.66484 0.43058 0.0
N419 N 0.52395 0.67952 0.46794 0.0
C420 C 0.4773 0.65578 0.38127 0.0
H421 H 0.49462 0.65752 0.36123 0.0
H422 H 0.4733 0.63505 0.37221 0.0
H423 H 0.45504 0.66493 0.37894 0.0
C424 C 0.57381 0.57421 0.38965 0.0
N425 N 0.57678 0.59514 0.38353 0.0
N426 N 0.5538 0.61133 0.40121 0.0
C427 C 0.53529 0.60104 0.41906 0.0
C428 C 0.54736 0.57716 0.4124 0.0
C429 C 0.59707 0.55261 0.37568 0.0
H430 H 0.62131 0.56045 0.38081 0.0
H431 H 0.59409 0.54087 0.34408 0.0
H432 H 0.59407 0.54021 0.39043 0.0
O433 O 0.63031 0.63513 0.39055 0.0
O434 O 0.59238 0.66307 0.42066 0.0
H435 H 0.5122 0.63044 0.46779 0.0
H436 H 0.49174 0.60002 0.44759 0.0
C437 C 0.50589 0.61341 0.44064 0.0
H438 H 0.49138 0.61998 0.42295 0.0
H439 H 0.54498 0.68071 0.48254 0.0
O440 O 0.63912 0.57702 0.33141 0.0
C441 C 0.62146 0.6574 0.41483 0.0
Co442 Co 0.61618 0.65493 0.90989 0.0
Co443 Co 0.56236 0.61547 0.8706 0.0
C444 C 0.57255 0.63892 0.95627 0.0
O445 O 0.59574 0.65203 0.95396 0.0
O446 O 0.55722 0.62403 0.92628 0.0
C447 C 0.65718 0.69464 0.96384 0.0
O448 O 0.63964 0.694 0.99137 0.0
C449 C 0.4999 0.59176 0.85221 0.0
C450 C 0.50614 0.56334 0.79121 0.0
C451 C 0.48444 0.57266 0.82106 0.0
N452 N 0.52942 0.59345 0.84128 0.0
N453 N 0.53308 0.57632 0.80489 0.0
C454 C 0.48638 0.60967 0.8906 0.0
H455 H 0.49954 0.62804 0.90307 0.0
H456 H 0.46116 0.6135 0.88784 0.0
H457 H 0.48844 0.60078 0.91062 0.0
C458 C 0.584 0.6816 0.86974 0.0
N459 N 0.58642 0.66221 0.87964 0.0
N460 N 0.56363 0.64565 0.86305 0.0
C461 C 0.54587 0.65401 0.84205 0.0
C462 C 0.55821 0.67705 0.84545 0.0
C463 C 0.60731 0.70301 0.88142 0.0
H464 H 0.63144 0.69491 0.8749 0.0
H465 H 0.60575 0.71512 0.9131 0.0
H466 H 0.60326 0.71504 0.86627 0.0
O467 O 0.63918 0.62281 0.87798 0.0
O468 O 0.60093 0.59487 0.85038 0.0
H469 H 0.52416 0.62226 0.79527 0.0
H470 H 0.50374 0.65241 0.80938 0.0
C471 C 0.51712 0.64052 0.82009 0.0
H472 H 0.50159 0.63587 0.8391 0.0
H473 H 0.55392 0.57368 0.78929 0.0
O474 O 0.64962 0.68105 0.92876 0.0
C475 C 0.63003 0.60022 0.85567 0.0
Co476 Co 0.38278 0.37921 0.62403 0.0
Co477 Co 0.43958 0.34218 0.58617 0.0
C478 C 0.42824 0.36464 0.67128 0.0
O479 O 0.40437 0.3767 0.66774 0.0
O480 O 0.44476 0.35021 0.642 0.0
C481 C 0.33477 0.4097 0.67565 0.0
O482 O 0.3443 0.39791 0.6959 0.0
C483 C 0.50287 0.31917 0.56352 0.0
C484 C 0.49361 0.29018 0.50357 0.0
C485 C 0.51713 0.29978 0.53114 0.0
N486 N 0.47249 0.32064 0.55519 0.0
N487 N 0.46712 0.30322 0.5194 0.0
C488 C 0.51775 0.33731 0.60081 0.0
H489 H 0.50312 0.35484 0.61547 0.0
H490 H 0.5417 0.34273 0.59569 0.0
H491 H 0.5195 0.3279 0.62016 0.0
C492 C 0.41336 0.4077 0.58592 0.0
N493 N 0.41201 0.38776 0.59465 0.0
N494 N 0.43627 0.37256 0.57911 0.0
C495 C 0.45389 0.38239 0.55987 0.0
C496 C 0.44 0.40506 0.56358 0.0
C497 C 0.38862 0.4281 0.5973 0.0
H498 H 0.36503 0.41904 0.59079 0.0
H499 H 0.38993 0.44045 0.62892 0.0
H500 H 0.39143 0.44011 0.58189 0.0
O501 O 0.36115 0.34632 0.59145 0.0
O502 O 0.40189 0.32068 0.56555 0.0
H503 H 0.47905 0.35208 0.51456 0.0
H504 H 0.49654 0.38344 0.52972 0.0
C505 C 0.48406 0.37076 0.53969 0.0
H506 H 0.49963 0.3671 0.55965 0.0
H507 H 0.44534 0.30033 0.50568 0.0
O508 O 0.349 0.40538 0.64443 0.0
C509 C 0.37239 0.32432 0.56948 0.0
Co510 Co 0.39091 0.3576 0.09744 0.0
Co511 Co 0.44008 0.40218 0.13392 0.0
C512 C 0.43119 0.37333 0.04769 0.0
O513 O 0.41032 0.35895 0.05167 0.0
O514 O 0.44478 0.39097 0.07695 0.0
C515 C 0.34912 0.31637 0.04855 0.0
O516 O 0.3616 0.31914 0.01954 0.0
C517 C 0.50106 0.42962 0.15615 0.0
C518 C 0.48868 0.46105 0.21317 0.0
C519 C 0.51357 0.45064 0.18779 0.0
N520 N 0.47037 0.42778 0.16294 0.0
N521 N 0.46308 0.44684 0.1968 0.0
C522 C 0.5182 0.41012 0.12175 0.0
H523 H 0.50429 0.39216 0.10778 0.0
H524 H 0.5416 0.40591 0.13033 0.0
H525 H 0.52169 0.41783 0.10045 0.0
C526 C 0.42736 0.3372 0.14274 0.0
N527 N 0.4221 0.35514 0.1304 0.0
N528 N 0.44288 0.37369 0.14603 0.0
C529 C 0.46202 0.36813 0.16916 0.0
C530 C 0.45288 0.34477 0.16775 0.0
C531 C 0.40693 0.31413 0.13238 0.0
H532 H 0.38206 0.32035 0.13895 0.0
H533 H 0.40871 0.30155 0.10086 0.0
H534 H 0.41352 0.30312 0.14844 0.0
O535 O 0.36448 0.38839 0.12551 0.0
O536 O 0.39909 0.4198 0.1514 0.0
H537 H 0.48055 0.40391 0.21102 0.0
H538 H 0.502 0.37615 0.20784 0.0
C539 C 0.48916 0.38446 0.19112 0.0
H540 H 0.50584 0.38633 0.17055 0.0
H541 H 0.44078 0.44969 0.20932 0.0
O542 O 0.36022 0.32919 0.08228 0.0
C543 C 0.3708 0.41196 0.14593 0.0
H544 H 0.20437 0.0337 0.26092 0.0
H545 H 0.2549 0.05566 0.27961 0.0
H546 H 0.22841 0.08642 0.39978 0.0
H547 H 0.17776 0.06365 0.38075 0.0
H548 H 0.27061 0.10698 0.32165 0.0
H549 H 0.31042 0.04836 0.39469 0.0
H550 H 0.27593 0.04018 0.36443 0.0
H551 H 0.2747 0.06644 0.41209 0.0
C552 C 0.20924 0.04538 0.29123 0.0
C553 C 0.18733 0.04734 0.31942 0.0
C554 C 0.238 0.05798 0.30193 0.0
C555 C 0.24547 0.07253 0.34108 0.0
C556 C 0.22323 0.07501 0.36943 0.0
H557 H 0.43231 0.14533 0.37001 0.0
H558 H 0.37602 0.14178 0.38004 0.0
C559 C 0.1943 0.06232 0.35861 0.0
C560 C 0.27734 0.08367 0.35133 0.0
H561 H 0.34768 0.0749 0.38617 0.0
C562 C 0.28746 0.10035 0.33631 0.0
C563 C 0.2991 0.07487 0.37041 0.0
C564 C 0.28972 0.05635 0.38619 0.0
C565 C 0.31924 0.10712 0.33748 0.0
C566 C 0.34128 0.09743 0.35514 0.0
C567 C 0.33073 0.08218 0.37251 0.0
C568 C 0.37567 0.10022 0.35197 0.0
C569 C 0.32909 0.12308 0.31746 0.0
C570 C 0.39437 0.0781 0.33398 0.0
C571 C 0.42666 0.08012 0.32963 0.0
C572 C 0.44092 0.1043 0.34332 0.0
C573 C 0.42219 0.12646 0.36086 0.0
C574 C 0.38989 0.12445 0.36578 0.0
H575 H 0.31038 0.12409 0.29811 0.0
H576 H 0.33409 0.14295 0.33949 0.0
H577 H 0.35072 0.11519 0.30007 0.0
H578 H 0.38389 0.0592 0.32283 0.0
H579 H 0.44052 0.06275 0.31562 0.0
H580 H 0.97764 0.20139 0.39314 0.0
H581 H 0.92217 0.21438 0.40008 0.0
H582 H 0.91348 0.19659 0.49683 0.0
H583 H 0.96908 0.18526 0.49133 0.0
H584 H 0.87617 0.18391 0.38856 0.0
H585 H 0.86137 0.25865 0.53866 0.0
H586 H 0.89945 0.25052 0.51558 0.0
H587 H 0.88241 0.2318 0.5375 0.0
C588 C 0.96392 0.20102 0.4165 0.0
C589 C 0.97736 0.19242 0.44176 0.0
C590 C 0.93233 0.20844 0.42051 0.0
C591 C 0.91363 0.20698 0.44948 0.0
C592 C 0.92749 0.19897 0.47529 0.0
H593 H 0.7296 0.17009 0.4804 0.0
H594 H 0.78474 0.18256 0.48398 0.0
C595 C 0.95922 0.19218 0.47187 0.0
C596 C 0.87897 0.21003 0.44923 0.0
H597 H 0.81515 0.23343 0.50845 0.0
C598 C 0.86289 0.19536 0.41458 0.0
C599 C 0.86152 0.22491 0.48316 0.0
C600 C 0.87716 0.24256 0.52065 0.0
C601 C 0.83001 0.19381 0.41347 0.0
C602 C 0.81277 0.20736 0.44789 0.0
C603 C 0.8286 0.22303 0.48216 0.0
C604 C 0.77874 0.20305 0.44952 0.0
C605 C 0.81403 0.17638 0.37602 0.0
C606 C 0.75711 0.21096 0.42963 0.0
C607 C 0.72544 0.20419 0.42796 0.0
C608 C 0.71516 0.18894 0.44552 0.0
C609 C 0.7368 0.18173 0.4664 0.0
C610 C 0.76828 0.18891 0.46861 0.0
H611 H 0.83112 0.1647 0.35316 0.0
H612 H 0.79751 0.16323 0.38062 0.0
H613 H 0.80016 0.18814 0.36544 0.0
H614 H 0.7649 0.22175 0.41453 0.0
H615 H 0.70931 0.21007 0.4117 0.0
H616 H 0.4605 0.23961 0.97046 0.0
H617 H 0.40442 0.25158 0.97967 0.0
H618 H 0.37934 0.17165 0.93437 0.0
H619 H 0.43499 0.15972 0.92555 0.0
H620 H 0.35404 0.23271 0.9198 0.0
H621 H 0.33416 0.20936 0.0421 0.0
H622 H 0.37273 0.21588 0.02888 0.0
H623 H 0.35517 0.18476 0.00259 0.0
C624 C 0.44288 0.22468 0.96234 0.0
C625 C 0.45186 0.19873 0.94644 0.0
C626 C 0.41101 0.23151 0.9676 0.0
C627 C 0.38789 0.21248 0.95785 0.0
C628 C 0.39691 0.1866 0.94223 0.0
H629 H 0.20351 0.18002 0.8829 0.0
H630 H 0.25781 0.19407 0.89253 0.0
C631 C 0.42862 0.17978 0.93672 0.0
C632 C 0.3541 0.21914 0.96327 0.0
H633 H 0.28862 0.2092 0.00537 0.0
C634 C 0.33965 0.22813 0.93905 0.0
C635 C 0.33558 0.21381 0.98912 0.0
C636 C 0.3502 0.20566 0.01747 0.0
C637 C 0.30676 0.22975 0.93759 0.0
C638 C 0.28798 0.22182 0.96063 0.0
C639 C 0.30275 0.21506 0.98733 0.0
C640 C 0.25359 0.21716 0.9544 0.0
C641 C 0.29275 0.23926 0.91049 0.0
C642 C 0.2328 0.22517 0.98592 0.0
C643 C 0.20157 0.21668 0.9806 0.0
C644 C 0.19066 0.19982 0.94358 0.0
C645 C 0.21105 0.19298 0.91185 0.0
C646 C 0.2422 0.20131 0.91726 0.0
H647 H 0.30722 0.25506 0.91019 0.0
H648 H 0.29287 0.22342 0.88068 0.0
H649 H 0.26827 0.24624 0.91841 0.0
H650 H 0.24123 0.23701 0.01488 0.0
H651 H 0.1865 0.22232 0.00566 0.0
H652 H 0.93101 0.09173 0.84321 0.0
H653 H 0.87623 0.07852 0.83428 0.0
H654 H 0.90328 1.00256 0.75051 0.0
H655 H 0.95878 0.01545 0.76038 0.0
H656 H 0.8559 0.02574 0.72531 0.0
H657 H 0.82595 0.03089 0.86748 0.0
H658 H 0.84724 0.05878 0.87237 0.0
H659 H 0.86595 0.02778 0.85007 0.0
C660 C 0.92565 0.07192 0.82416 0.0
C661 C 0.94945 0.05441 0.80357 0.0
C662 C 0.89418 0.06443 0.81881 0.0
C663 C 0.88579 0.03939 0.79245 0.0
C664 C 0.90936 0.02185 0.77146 0.0
H665 H 0.68182 0.0383 0.81083 0.0
H666 H 0.73392 0.01803 0.79838 0.0
C667 C 0.94097 0.02928 0.77709 0.0
C668 C 0.85211 0.03279 0.78478 0.0
H669 H 0.78326 0.0394 0.83313 0.0
C670 C 0.83992 0.02803 0.74851 0.0
C671 C 0.83139 0.03496 0.81462 0.0
C672 C 0.84334 0.0381 0.8532 0.0
C673 C 0.80738 0.02834 0.74268 0.0
C674 C 0.78666 0.03381 0.77414 0.0
C675 C 0.79891 0.03559 0.80902 0.0
C676 C 0.7535 0.04191 0.77402 0.0
C677 C 0.79601 0.02398 0.70327 0.0
C678 C 0.74695 0.06178 0.7639 0.0
C679 C 0.71731 0.07317 0.7706 0.0
C680 C 0.69366 0.06546 0.78857 0.0
C681 C 0.69961 0.04475 0.79709 0.0
C682 C 0.72931 0.03309 0.78987 0.0
H683 H 0.80933 0.00798 0.68041 0.0
H684 H 0.77055 0.0195 0.69905 0.0
H685 H 0.80063 0.04144 0.69935 0.0
H686 H 0.7653 0.06965 0.75292 0.0
H687 H 0.71361 0.08909 0.76373 0.0
H688 H 0.78608 0.93049 0.7656 0.0
H689 H 0.73151 0.94377 0.76773 0.0
H690 H 0.75402 0.97902 0.69364 0.0
H691 H 0.80875 0.96505 0.69025 0.0
H692 H 0.69444 0.98459 0.78396 0.0
H693 H 0.69708 0.92257 0.62515 0.0
H694 H 0.72998 0.92483 0.65576 0.0
H695 H 0.72252 0.94994 0.64167 0.0
C696 C 0.77969 0.94164 0.75049 0.0
C697 C 0.80149 0.946 0.72672 0.0
C698 C 0.74843 0.94931 0.75185 0.0
C699 C 0.73854 0.96167 0.72979 0.0
C700 C 0.76107 0.96889 0.70999 0.0
H701 H 0.53174 0.97916 0.71815 0.0
H702 H 0.58739 0.99176 0.7299 0.0
C703 C 0.79232 0.96093 0.70816 0.0
C704 C 0.70443 0.96336 0.72322 0.0
H705 H 0.64839 0.93859 0.653 0.0
C706 C 0.68436 0.97503 0.75527 0.0
C707 C 0.69128 0.95036 0.68573 0.0
C708 C 0.71123 0.93602 0.65012 0.0
C709 C 0.65151 0.97326 0.75105 0.0
C710 C 0.63853 0.95955 0.71371 0.0
C711 C 0.65853 0.94907 0.68155 0.0
C712 C 0.60478 0.95277 0.70739 0.0
C713 C 0.63107 0.98476 0.78667 0.0
C714 C 0.59623 0.92676 0.69032 0.0
C715 C 0.56477 0.9196 0.68306 0.0
C716 C 0.54124 0.93833 0.69261 0.0
C717 C 0.54962 0.96441 0.71026 0.0
C718 C 0.58127 0.9716 0.71723 0.0
H719 H 0.64498 0.99105 0.81368 0.0
H720 H 0.61861 1.00177 0.78753 0.0
H721 H 0.61307 0.97075 0.78596 0.0
H722 H 0.61399 0.91193 0.6828 0.0
H723 H 0.55881 0.89941 0.67056 0.0
H724 H 0.05643 0.84946 0.57443 0.0
H725 H 0.11225 0.83819 0.5653 0.0
H726 H 0.08905 0.75886 0.53132 0.0
H727 H 0.03287 0.77018 0.54021 0.0
H728 H 0.14717 0.81639 0.60338 0.0
H729 H 0.14797 0.75381 0.44455 0.0
H730 H 0.11558 0.77513 0.46849 0.0
H731 H 0.12055 0.74599 0.47306 0.0
C732 C 0.0633 0.82969 0.56553 0.0
C733 C 0.04058 0.81077 0.559 0.0
C734 C 0.09511 0.82322 0.55998 0.0
C735 C 0.1048 0.79767 0.54749 0.0
C736 C 0.08208 0.77862 0.54044 0.0
H737 H 0.30866 0.78561 0.57278 0.0
H738 H 0.25314 0.77435 0.57178 0.0
C739 C 0.05011 0.78511 0.54578 0.0
C740 C 0.13886 0.79164 0.54325 0.0
H741 H 0.19668 0.7628 0.47645 0.0
C742 C 0.15804 0.80433 0.57577 0.0
C743 C 0.15283 0.7759 0.50712 0.0
C744 C 0.13332 0.76199 0.47115 0.0
C745 C 0.1909 0.80287 0.57293 0.0
C746 C 0.20503 0.78768 0.53659 0.0
C747 C 0.18579 0.77416 0.5043 0.0
C748 C 0.23942 0.7885 0.53081 0.0
C749 C 0.21004 0.81909 0.6084 0.0
C750 C 0.25056 0.79818 0.50575 0.0
C751 C 0.28228 0.80429 0.50585 0.0
C752 C 0.30343 0.80095 0.53119 0.0
C753 C 0.29283 0.78888 0.55348 0.0
C754 C 0.26106 0.78258 0.55312 0.0
H755 H 0.19543 0.83371 0.63164 0.0
H756 H 0.22072 0.80657 0.62003 0.0
H757 H 0.22927 0.82914 0.60125 0.0
H758 H 0.23436 0.80264 0.48796 0.0
H759 H 0.28974 0.81318 0.48786 0.0
H760 H 0.80206 0.79487 0.08379 0.0
H761 H 0.74656 0.78315 0.07845 0.0
H762 H 0.73455 0.80833 0.98983 0.0
H763 H 0.78994 0.81941 0.99426 0.0
H764 H 0.70331 0.81786 0.09804 0.0
H765 H 0.69498 0.77713 0.94876 0.0
H766 H 0.67864 0.7485 0.94747 0.0
H767 H 0.71845 0.75776 0.96437 0.0
C768 C 0.78782 0.79709 0.06224 0.0
C769 C 0.80027 0.80845 0.03988 0.0
C770 C 0.75608 0.79031 0.05914 0.0
C771 C 0.7363 0.79457 0.03346 0.0
C772 C 0.74932 0.80418 0.00915 0.0
H773 H 0.54635 0.82721 0.00726 0.0
H774 H 0.60211 0.81592 0.00187 0.0
C775 C 0.78108 0.81076 0.012 0.0
C776 C 0.70163 0.79332 0.03677 0.0
H777 H 0.63387 0.77404 0.98442 0.0
C778 C 0.68812 0.80781 0.0733 0.0
C779 C 0.68177 0.78067 0.00439 0.0
C780 C 0.69437 0.76498 0.96417 0.0
C781 C 0.65551 0.81133 0.07807 0.0
C782 C 0.63565 0.799 0.04558 0.0
C783 C 0.64907 0.78344 0.00936 0.0
C784 C 0.60133 0.8041 0.0477 0.0
C785 C 0.64302 0.82966 0.11738 0.0
C786 C 0.58214 0.80082 0.07478 0.0
C787 C 0.55045 0.80802 0.07862 0.0
C788 C 0.53736 0.8178 0.05459 0.0
C789 C 0.55608 0.8198 0.02621 0.0
C790 C 0.58785 0.81325 0.02304 0.0
H791 H 0.66173 0.84246 0.13615 0.0
H792 H 0.62389 0.84184 0.1149 0.0
H793 H 0.63351 0.81853 0.13202 0.0
H794 H 0.5917 0.79299 0.09323 0.0
H795 H 0.53615 0.80582 0.10014 0.0
H796 H 0.03816 0.96029 0.26386 0.0
H797 H 0.09366 0.97248 0.26919 0.0
H798 H 0.09536 0.95397 0.14805 0.0
H799 H 0.03963 0.94287 0.14293 0.0
H800 H 0.13947 0.93743 0.22805 0.0
H801 H 0.14415 0.02159 0.19687 0.0
H802 H 0.10828 0.01109 0.21043 0.0
H803 H 0.1226 0.99488 0.16162 0.0
C804 C 0.05025 0.95919 0.2385 0.0
C805 C 0.03482 0.94978 0.20267 0.0
C806 C 0.08191 0.96618 0.2416 0.0
C807 C 0.09858 0.96416 0.20903 0.0
C808 C 0.08286 0.95593 0.17363 0.0
H809 H 0.2926 0.9516 0.14589 0.0
H810 H 0.23627 0.96022 0.15085 0.0
C811 C 0.05116 0.94902 0.17055 0.0
C812 C 0.13309 0.96768 0.21107 0.0
H813 H 0.19308 1.00053 0.19454 0.0
C814 C 0.15118 0.95153 0.22137 0.0
C815 C 0.14823 0.98587 0.20183 0.0
C816 C 0.12984 0.00452 0.1924 0.0
C817 C 0.18405 0.95282 0.2223 0.0
C818 C 0.19929 0.97101 0.21312 0.0
C819 C 0.18127 0.98696 0.20226 0.0
C820 C 0.234 0.97226 0.21237 0.0
C821 C 0.20221 0.9341 0.23194 0.0
C822 C 0.25169 0.9778 0.24583 0.0
C823 C 0.28396 0.97256 0.24309 0.0
C824 C 0.29893 0.96194 0.20685 0.0
C825 C 0.28171 0.9593 0.17417 0.0
C826 C 0.24948 0.96433 0.17692 0.0
H827 H 0.18733 0.91786 0.22988 0.0
H828 H 0.2227 0.92619 0.21232 0.0
H829 H 0.21114 0.9442 0.26198 0.0
H830 H 0.24015 0.98453 0.27364 0.0
H831 H 0.29663 0.97523 0.26891 0.0
H832 H 0.19944 0.55763 0.74675 0.0
H833 H 0.25476 0.54624 0.74665 0.0
H834 H 0.24187 0.5438 0.85555 0.0
H835 H 0.1866 0.55543 0.85621 0.0
H836 H 0.2849 0.58184 0.85373 0.0
H837 H 0.31177 0.48525 0.73399 0.0
H838 H 0.27817 0.50284 0.73012 0.0
H839 H 0.27819 0.49028 0.76496 0.0
C840 C 0.20808 0.55389 0.77011 0.0
C841 C 0.18873 0.55787 0.80179 0.0
C842 C 0.23968 0.5472 0.76985 0.0
C843 C 0.25229 0.54399 0.80094 0.0
C844 C 0.23246 0.54595 0.83112 0.0
H845 H 0.44913 0.56606 0.87518 0.0
H846 H 0.393 0.55585 0.87152 0.0
C847 C 0.20088 0.5527 0.83147 0.0
C848 C 0.28675 0.54411 0.80583 0.0
H849 H 0.35451 0.51174 0.76552 0.0
C850 C 0.30014 0.56635 0.83483 0.0
C851 C 0.30642 0.52396 0.78083 0.0
C852 C 0.2931 0.49916 0.75065 0.0
C853 C 0.33278 0.56951 0.83861 0.0
C854 C 0.35252 0.54957 0.81317 0.0
C855 C 0.33918 0.52698 0.78483 0.0
C856 C 0.38699 0.55274 0.814 0.0
C857 C 0.34579 0.59465 0.86858 0.0
C858 C 0.40233 0.55327 0.78226 0.0
C859 C 0.43429 0.55911 0.78432 0.0
C860 C 0.45128 0.5647 0.81826 0.0
C861 C 0.43627 0.56282 0.84926 0.0
C862 C 0.40433 0.55681 0.8471 0.0
H863 H 0.32748 0.60986 0.87996 0.0
H864 H 0.35522 0.59188 0.89322 0.0
H865 H 0.36528 0.60147 0.85639 0.0
H866 H 0.38933 0.55006 0.7564 0.0
H867 H 0.44544 0.56017 0.75987 0.0
H868 H 0.70256 0.69184 0.91242 0.0
H869 H 0.75737 0.70438 0.92602 0.0
H870 H 0.73894 0.73631 0.04833 0.0
H871 H 0.68359 0.72369 0.03501 0.0
H872 H 0.78933 0.7513 0.9703 0.0
H873 H 0.8043 0.67969 0.0283 0.0
H874 H 0.76935 0.68056 0.00251 0.0
H875 H 0.77567 0.70473 0.05105 0.0
C876 C 0.70989 0.70194 0.9423 0.0
C877 C 0.68875 0.70647 0.97266 0.0
C878 C 0.74129 0.70916 0.95 0.0
C879 C 0.75224 0.72113 0.98815 0.0
C880 C 0.73092 0.72704 0.01868 0.0
H881 H 0.95987 0.73993 0.99802 0.0
H882 H 0.90481 0.75278 0.01521 0.0
C883 C 0.69934 0.7198 0.011 0.0
C884 C 0.78651 0.72462 0.99477 0.0
H885 H 0.84976 0.696 0.01376 0.0
C886 C 0.80269 0.73977 0.98073 0.0
C887 C 0.8037 0.70947 0.00837 0.0
C888 C 0.78755 0.69256 0.02328 0.0
C889 C 0.83562 0.73882 0.9775 0.0
C890 C 0.85254 0.72215 0.98837 0.0
C891 C 0.83654 0.70857 0.00516 0.0
C892 C 0.88586 0.71545 0.97747 0.0
C893 C 0.85185 0.75424 0.96009 0.0
C894 C 0.89337 0.6902 0.95094 0.0
C895 C 0.9246 0.68279 0.94137 0.0
C896 C 0.94901 0.70057 0.95783 0.0
C897 C 0.94147 0.72592 0.98441 0.0
C898 C 0.91009 0.73333 0.99414 0.0
H899 H 0.83487 0.76425 0.94961 0.0
H900 H 0.86711 0.7689 0.98219 0.0
H901 H 0.86707 0.7416 0.93563 0.0
H902 H 0.87498 0.67604 0.93808 0.0
H903 H 0.92952 0.66288 0.92224 0.0
H904 H 0.42344 0.6553 0.42285 0.0
H905 H 0.36828 0.66803 0.4336 0.0
H906 H 0.39527 0.74476 0.51439 0.0
H907 H 0.45096 0.73229 0.50251 0.0
H908 H 0.33715 0.68699 0.50465 0.0
H909 H 0.33247 0.757 0.44274 0.0
H910 H 0.3641 0.73402 0.4315 0.0
H911 H 0.36225 0.76121 0.4781 0.0
C912 C 0.41774 0.67509 0.44194 0.0
C913 C 0.44152 0.69304 0.46078 0.0
C914 C 0.38619 0.68227 0.44848 0.0
C915 C 0.37771 0.70744 0.47432 0.0
C916 C 0.40134 0.72539 0.49373 0.0
H917 H 0.17484 0.71707 0.52337 0.0
H918 H 0.23027 0.72871 0.53755 0.0
C919 C 0.43305 0.7182 0.48708 0.0
C920 C 0.34394 0.71409 0.4816 0.0
H921 H 0.28466 0.74577 0.46133 0.0
C922 C 0.32563 0.70023 0.49595 0.0
C923 C 0.32918 0.73141 0.47021 0.0
C924 C 0.34783 0.74675 0.45457 0.0
C925 C 0.29273 0.70192 0.49698 0.0
C926 C 0.27775 0.71848 0.4841 0.0
C927 C 0.29621 0.73333 0.47155 0.0
C928 C 0.24323 0.7176 0.47804 0.0
C929 C 0.27442 0.68447 0.50907 0.0
C930 C 0.23165 0.70953 0.44046 0.0
C931 C 0.2 0.70319 0.43236 0.0
C932 C 0.17934 0.7047 0.46169 0.0
C933 C 0.19029 0.71523 0.5 0.0
C934 C 0.22202 0.72174 0.50812 0.0
H935 H 0.2895 0.66937 0.51067 0.0
H936 H 0.26412 0.69596 0.53812 0.0
H937 H 0.25494 0.67492 0.48854 0.0
H938 H 0.24749 0.70645 0.41682 0.0
H939 H 0.19221 0.69558 0.40263 0.0
H940 H 0.70329 0.58538 0.26308 0.0
H941 H 0.75631 0.56842 0.25444 0.0
H942 H 0.73105 0.52308 0.31326 0.0
H943 H 0.67792 0.54078 0.32318 0.0
H944 H 0.77976 0.54704 0.34383 0.0
H945 H 0.80375 0.50739 0.18845 0.0
H946 H 0.79104 0.53978 0.20427 0.0
H947 H 0.76442 0.51656 0.20709 0.0
C948 C 0.70871 0.57127 0.27331 0.0
C949 C 0.68648 0.56468 0.29425 0.0
C950 C 0.73912 0.56126 0.26788 0.0
C951 C 0.74783 0.54392 0.28236 0.0
C952 C 0.72501 0.53617 0.30135 0.0
H953 H 0.95373 0.51793 0.26705 0.0
H954 H 0.89784 0.50582 0.25922 0.0
C955 C 0.69458 0.54636 0.30711 0.0
C956 C 0.7816 0.5374 0.28305 0.0
H957 H 0.84972 0.52656 0.23122 0.0
C958 C 0.79482 0.54182 0.3188 0.0
C959 C 0.80161 0.53011 0.25048 0.0
C960 C 0.78925 0.52293 0.21043 0.0
C961 C 0.82746 0.54167 0.32366 0.0
C962 C 0.8474 0.53743 0.29218 0.0
C963 C 0.83432 0.5304 0.25557 0.0
C964 C 0.88125 0.54384 0.29794 0.0
C965 C 0.84036 0.54731 0.36297 0.0
C966 C 0.89023 0.56927 0.32159 0.0
C967 C 0.92186 0.57623 0.32584 0.0
C968 C 0.94522 0.55782 0.30681 0.0
C969 C 0.9362 0.5324 0.2826 0.0
C970 C 0.90439 0.52545 0.27815 0.0
H971 H 0.82348 0.54153 0.37959 0.0
H972 H 0.86304 0.53723 0.3606 0.0
H973 H 0.84442 0.56826 0.37954 0.0
H974 H 0.87264 0.58394 0.33602 0.0
H975 H 0.92785 0.5962 0.34305 0.0
H976 H 0.54191 0.47049 0.25806 0.0
H977 H 0.59735 0.48151 0.27303 0.0
H978 H 0.6157 0.4605 0.15293 0.0
H979 H 0.56012 0.45023 0.13794 0.0
H980 H 0.64489 0.44564 0.24147 0.0
H981 H 0.66482 0.52787 0.20874 0.0
H982 H 0.62624 0.51901 0.21832 0.0
H983 H 0.64377 0.50203 0.17127 0.0
C984 C 0.55765 0.46859 0.2349 0.0
C985 C 0.54678 0.45885 0.1966 0.0
C986 C 0.5893 0.47493 0.24355 0.0
C987 C 0.61057 0.47201 0.21417 0.0
C988 C 0.59958 0.46325 0.17615 0.0
H989 H 0.80054 0.44733 0.15313 0.0
H990 H 0.74521 0.45946 0.1626 0.0
C991 C 0.5679 0.45686 0.16746 0.0
C992 C 0.64475 0.4751 0.22223 0.0
H993 H 0.71054 0.50359 0.20879 0.0
C994 C 0.65927 0.45871 0.23519 0.0
C995 C 0.66332 0.49225 0.21417 0.0
C996 C 0.64874 0.51149 0.20273 0.0
C997 C 0.69209 0.45771 0.23773 0.0
C998 C 0.71083 0.47388 0.22761 0.0
C999 C 0.69619 0.49118 0.21646 0.0
C1000 C 0.74544 0.4708 0.22403 0.0
C1001 C 0.70641 0.43814 0.24876 0.0
C1002 C 0.76428 0.47417 0.25576 0.0
C1003 C 0.79609 0.46728 0.25047 0.0
C1004 C 0.8094 0.45671 0.21328 0.0
C1005 C 0.79095 0.45511 0.1821 0.0
C1006 C 0.75928 0.46208 0.18745 0.0
H1007 H 0.68881 0.424 0.24861 0.0
H1008 H 0.72578 0.42756 0.22869 0.0
H1009 H 0.71632 0.44811 0.27833 0.0
H1010 H 0.75416 0.48113 0.28433 0.0
H1011 H 0.80972 0.46899 0.27516 0.0
H1012 H 0.31406 0.29174 0.98262 0.0
H1013 H 0.25757 0.28303 0.97962 0.0
H1014 H 0.25623 0.30654 0.10223 0.0
H1015 H 0.31263 0.31438 0.10538 0.0
H1016 H 0.21312 0.27026 0.06687 0.0
H1017 H 0.20312 0.34578 0.01669 0.0
H1018 H 0.22503 0.31815 0.98452 0.0
H1019 H 0.23988 0.3381 0.03221 0.0
C1020 C 0.30193 0.29434 0.00875 0.0
C1021 C 0.31769 0.30447 0.04442 0.0
C1022 C 0.2696 0.28952 0.007 0.0
C1023 C 0.25252 0.29508 0.04091 0.0
C1024 C 0.26883 0.30247 0.07576 0.0
H1025 H 0.06806 0.35729 0.10126 0.0
H1026 H 0.12403 0.34718 0.09341 0.0
C1027 C 0.30115 0.30701 0.07749 0.0
C1028 C 0.21763 0.29623 0.04125 0.0
H1029 H 0.15607 0.32777 0.02476 0.0
C1030 C 0.2006 0.28247 0.05701 0.0
C1031 C 0.20134 0.31289 0.02961 0.0
C1032 C 0.21823 0.32977 0.01517 0.0
C1033 C 0.16776 0.28481 0.0613 0.0
C1034 C 0.15162 0.30142 0.0496 0.0
C1035 C 0.16856 0.31494 0.03347 0.0
C1036 C 0.1175 0.30666 0.05629 0.0
C1037 C 0.15078 0.27024 0.07959 0.0
C1038 C 0.09522 0.28721 0.03806 0.0
C1039 C 0.06306 0.2929 0.04314 0.0
C1040 C 0.05272 0.31809 0.06656 0.0
C1041 C 0.07514 0.33751 0.08447 0.0
C1042 C 0.10719 0.33182 0.07953 0.0
H1043 H 0.16725 0.26252 0.09416 0.0
H1044 H 0.13323 0.28271 0.10103 0.0
H1045 H 0.13806 0.25383 0.05686 0.0
H1046 H 0.10266 0.26779 0.01926 0.0
H1047 H 0.04628 0.27763 0.02849 0.0
H1048 H 0.56087 0.29992 0.58408 0.0
H1049 H 0.61641 0.28906 0.57274 0.0
H1050 H 0.60345 0.26567 0.45099 0.0
H1051 H 0.54827 0.27825 0.46251 0.0
H1052 H 0.64905 0.24617 0.53025 0.0
H1053 H 0.67094 0.31807 0.47468 0.0
H1054 H 0.63408 0.31645 0.49642 0.0
H1055 H 0.64304 0.29352 0.44765 0.0
C1056 C 0.56988 0.2932 0.55507 0.0
C1057 C 0.55038 0.29123 0.52456 0.0
C1058 C 0.60159 0.28641 0.54846 0.0
C1059 C 0.61431 0.2771 0.51113 0.0
C1060 C 0.59441 0.27342 0.48017 0.0
H1061 H 0.81603 0.2832 0.47544 0.0
H1062 H 0.76227 0.26748 0.45859 0.0
C1063 C 0.5628 0.28054 0.48685 0.0
C1064 C 0.64868 0.27284 0.50555 0.0
H1065 H 0.7144 0.29654 0.48247 0.0
C1066 C 0.66338 0.25691 0.51932 0.0
C1067 C 0.66735 0.28666 0.49092 0.0
C1068 C 0.65317 0.30479 0.47684 0.0
C1069 C 0.69626 0.25562 0.52103 0.0
C1070 C 0.71492 0.27055 0.50839 0.0
C1071 C 0.70018 0.28497 0.49199 0.0
C1072 C 0.74911 0.27465 0.51664 0.0
C1073 C 0.71034 0.23899 0.5378 0.0
C1074 C 0.75986 0.28361 0.55477 0.0
C1075 C 0.79051 0.29265 0.56448 0.0
C1076 C 0.8109 0.2934 0.53639 0.0
C1077 C 0.80085 0.28296 0.49778 0.0
C1078 C 0.77014 0.27385 0.48806 0.0
H1079 H 0.7098 0.24959 0.5698 0.0
H1080 H 0.69622 0.22127 0.52953 0.0
H1081 H 0.73502 0.23357 0.52839 0.0
H1082 H 0.744 0.28528 0.57768 0.0
H1083 H 0.79756 0.30048 0.59449 0.0
H1084 H 0.04136 0.44398 0.64251 0.0
H1085 H 0.09835 0.45036 0.64235 0.0
H1086 H 0.10695 0.44091 0.74652 0.0
H1087 H 0.04999 0.43532 0.74735 0.0
H1088 H 0.14498 0.47845 0.74773 0.0
H1089 H 0.15841 0.39067 0.60838 0.0
H1090 H 0.13328 0.4148 0.60629 0.0
H1091 H 0.12193 0.39886 0.63493 0.0
C1092 C 0.05552 0.44336 0.66536 0.0
C1093 C 0.04161 0.43864 0.6945 0.0
C1094 C 0.08798 0.44694 0.66521 0.0
C1095 C 0.10692 0.44539 0.69382 0.0
C1096 C 0.09276 0.442 0.72402 0.0
H1097 H 0.29444 0.41678 0.73454 0.0
H1098 H 0.2402 0.43179 0.74162 0.0
C1099 C 0.0603 0.4388 0.72448 0.0
C1100 C 0.1416 0.44606 0.69166 0.0
H1101 H 0.20447 0.41344 0.63692 0.0
C1102 C 0.15805 0.4643 0.72348 0.0
C1103 C 0.1585 0.42763 0.65983 0.0
C1104 C 0.1422 0.40673 0.62556 0.0
C1105 C 0.191 0.4642 0.72477 0.0
C1106 C 0.20786 0.44553 0.69329 0.0
C1107 C 0.19144 0.4279 0.66088 0.0
C1108 C 0.24225 0.44209 0.69435 0.0
C1109 C 0.20756 0.48433 0.75932 0.0
C1110 C 0.26154 0.44313 0.66564 0.0
C1111 C 0.29253 0.4342 0.66114 0.0
C1112 C 0.3046 0.42388 0.68512 0.0
C1113 C 0.28587 0.42454 0.71552 0.0
C1114 C 0.25489 0.43336 0.71988 0.0
H1115 H 0.19094 0.4986 0.77993 0.0
H1116 H 0.22068 0.47531 0.77487 0.0
H1117 H 0.22464 0.49442 0.74936 0.0
H1118 H 0.25211 0.44962 0.64547 0.0
H1119 H 0.30641 0.43413 0.63759 0.0
H1120 H 0.11325 0.07431 0.22436 0.0
H1121 H 0.10867 0.07925 0.16507 0.0
H1122 H 0.03278 0.13327 0.21549 0.0
H1123 H 0.03798 0.12917 0.27549 0.0
H1124 H 0.06341 0.07079 0.11366 0.0
H1125 H 0.09112 0.17474 0.18414 0.0
H1126 H 0.09533 0.15487 0.2087 0.0
H1127 H 0.05723 0.16684 0.20431 0.0
C1128 C 0.09546 0.08717 0.22284 0.0
C1129 C 0.07624 0.1016 0.2549 0.0
C1130 C 0.09287 0.08998 0.18887 0.0
C1131 C 0.0709 0.10712 0.18608 0.0
C1132 C 0.05058 0.12055 0.21733 0.0
H1133 H 0.03096 0.10637 0.96271 0.0
H1134 H 0.02624 0.10269 0.02308 0.0
C1135 C 0.05342 0.11802 0.25153 0.0
C1136 C 0.06974 0.1111 0.15066 0.0
H1137 H 0.07597 0.15685 0.1184 0.0
C1138 C 0.06612 0.08962 0.11469 0.0
C1139 C 0.07377 0.13563 0.15193 0.0
C1140 C 0.0799 0.1593 0.18928 0.0
C1141 C 0.06657 0.09192 0.08002 0.0
C1142 C 0.06973 0.11654 0.08138 0.0
C1143 C 0.07319 0.13803 0.11736 0.0
C1144 C 0.07126 0.12028 0.04576 0.0
C1145 C 0.06485 0.0678 0.0423 0.0
C1146 C 0.09736 0.13258 0.03919 0.0
C1147 C 0.09981 0.13521 0.00507 0.0
C1148 C 0.07629 0.12544 0.9766 0.0
C1149 C 0.04967 0.11386 0.98378 0.0
C1150 C 0.04705 0.11154 0.01819 0.0
H1151 H 0.07137 0.05051 0.04594 0.0
H1152 H 0.04039 0.06516 0.03121 0.0
H1153 H 0.08063 0.06901 0.02028 0.0
H1154 H 0.11626 0.13964 0.0601 0.0
H1155 H 0.12064 0.14425 1.00057 0.0
H1156 H 0.89066 0.84677 0.99205 0.0
H1157 H 0.9035 0.84794 0.93162 0.0
H1158 H 0.98449 0.89505 0.98488 0.0
H1159 H 0.97107 0.89475 0.0463 0.0
H1160 H 0.9526 0.91453 0.94647 0.0
H1161 H 0.9675 0.81148 0.85036 0.0
H1162 H 0.93018 0.81679 0.87419 0.0
H1163 H 0.96589 0.82388 0.90224 0.0
C1164 C 0.91147 0.85714 0.99095 0.0
C1165 C 0.92984 0.87068 0.02413 0.0
C1166 C 0.91897 0.85757 0.95612 0.0
C1167 C 0.94539 0.87109 0.95333 0.0
C1168 C 0.96414 0.8843 0.98622 0.0
H1169 H 0.97267 0.85808 0.71942 0.0
H1170 H 0.98528 0.85712 0.78062 0.0
C1171 C 0.95643 0.88412 0.02132 0.0
C1172 C 0.95147 0.87319 0.917 0.0
H1173 H 0.952 0.83793 0.81897 0.0
C1174 C 0.95314 0.89774 0.91863 0.0
C1175 C 0.95301 0.85136 0.88061 0.0
C1176 C 0.95442 0.82443 0.87681 0.0
C1177 C 0.95396 0.90107 0.88485 0.0
C1178 C 0.95208 0.87928 0.84846 0.0
C1179 C 0.9528 0.85469 0.84682 0.0
C1180 C 0.94644 0.88156 0.8122 0.0
C1181 C 0.95634 0.92795 0.88864 0.0
C1182 C 0.92042 0.89552 0.80952 0.0
C1183 C 0.91336 0.89631 0.77486 0.0
C1184 C 0.93181 0.88272 0.7417 0.0
C1185 C 0.95801 0.86881 0.74439 0.0
C1186 C 0.96524 0.86823 0.77934 0.0
H1187 H 0.9695 0.94063 0.91514 0.0
H1188 H 0.96822 0.92824 0.86325 0.0
H1189 H 0.93236 0.93609 0.89115 0.0
H1190 H 0.90492 0.90527 0.83401 0.0
H1191 H 0.89284 0.90705 0.77387 0.0
H1192 H 0.09306 0.66501 0.51455 0.0
H1193 H 0.08748 0.66313 0.57605 0.0
H1194 H 0.03235 0.59409 0.52044 0.0
H1195 H 0.03721 0.5961 0.45871 0.0
H1196 H 0.00883 0.62728 0.59243 0.0
H1197 H 0.13691 0.61235 0.60036 0.0
H1198 H 0.12776 0.64102 0.59593 0.0
H1199 H 0.11821 0.61019 0.55714 0.0
C1200 C 0.07957 0.64948 0.51533 0.0
C1201 C 0.06589 0.63053 0.48153 0.0
C1202 C 0.07652 0.64838 0.55054 0.0
C1203 C 0.06013 0.62814 0.55266 0.0
C1204 C 0.0453 0.60978 0.51939 0.0
H1205 H 0.08908 0.58574 0.73863 0.0
H1206 H 0.08334 0.5858 0.67591 0.0
C1207 C 0.04812 0.61096 0.48412 0.0
C1208 C 0.0594 0.62573 0.58931 0.0
H1209 H 0.10707 0.62066 0.6566 0.0
C1210 C 0.03027 0.62572 0.60643 0.0
C1211 C 0.08738 0.62323 0.60718 0.0
C1212 C 0.11932 0.62143 0.58905 0.0
C1213 C 0.02842 0.62383 0.64142 0.0
C1214 C 0.05648 0.6224 0.66006 0.0
C1215 C 0.08554 0.62196 0.64251 0.0
C1216 C 0.05661 0.62115 0.69764 0.0
C1217 C 0.99643 0.62294 0.65766 0.0
C1218 C 0.04308 0.64081 0.7308 0.0
C1219 C 0.04605 0.6407 0.76681 0.0
C1220 C 0.06309 0.62114 0.77041 0.0
C1221 C 0.07593 0.60117 0.73698 0.0
C1222 C 0.07268 0.60117 0.70104 0.0
H1223 H 0.97802 0.61658 0.63491 0.0
H1224 H 0.99637 0.6098 0.67147 0.0
H1225 H 0.99005 0.64245 0.67986 0.0
H1226 H 0.03119 0.65674 0.72912 0.0
H1227 H 0.03608 0.65647 0.792 0.0
H1228 H 0.95246 0.40445 0.54703 0.0
H1229 H 0.95794 0.40771 0.48633 0.0
H1230 H 0.90352 0.33855 0.42752 0.0
H1231 H 0.89722 0.33548 0.48807 0.0
H1232 H 0.98194 0.37627 0.41437 0.0
H1233 H 0.85365 0.39008 0.40573 0.0
H1234 H 0.87212 0.39129 0.4485 0.0
H1235 H 0.86322 0.36087 0.40836 0.0
C1236 C 0.94184 0.38982 0.52112 0.0
C1237 C 0.92397 0.36992 0.52255 0.0
C1238 C 0.94503 0.39171 0.48645 0.0
C1239 C 0.93051 0.37371 0.45261 0.0
C1240 C 0.91419 0.35304 0.45351 0.0
H1241 H 0.95634 0.35198 0.2168 0.0
H1242 H 0.96082 0.35002 0.27849 0.0
C1243 C 0.91074 0.35126 0.48816 0.0
C1244 C 0.93133 0.37707 0.41676 0.0
H1245 H 0.88385 0.38359 0.35053 0.0
C1246 C 0.96053 0.37798 0.40043 0.0
C1247 C 0.90338 0.37979 0.39904 0.0
C1248 C 0.87133 0.38073 0.41648 0.0
C1249 C 0.96249 0.381 0.36638 0.0
C1250 C 0.93447 0.38264 0.34782 0.0
C1251 C 0.90534 0.38215 0.36457 0.0
C1252 C 0.93447 0.38496 0.31108 0.0
C1253 C 0.99452 0.38288 0.35105 0.0
C1254 C 0.91796 0.40511 0.3087 0.0
C1255 C 0.91491 0.40605 0.27339 0.0
C1256 C 0.9284 0.38687 0.23964 0.0
C1257 C 0.94583 0.36715 0.24228 0.0
C1258 C 0.94859 0.36608 0.27762 0.0
H1259 H 0.01268 0.38906 0.3741 0.0
H1260 H 0.00146 0.36373 0.32823 0.0
H1261 H 0.99437 0.39661 0.33828 0.0
H1262 H 0.90683 0.41988 0.33411 0.0
H1263 H 0.90146 0.42158 0.27247 0.0
H1264 H 0.61925 0.16865 0.51766 0.0
H1265 H 0.61056 0.16521 0.57756 0.0
H1266 H 0.52177 0.1277 0.53398 0.0
H1267 H 0.53084 0.13013 0.47335 0.0
H1268 H 0.56575 0.18293 0.63237 0.0
H1269 H 0.56497 0.07637 0.56118 0.0
H1270 H 0.57646 0.09479 0.53616 0.0
H1271 H 0.5355 0.09048 0.54338 0.0
C1272 C 0.59779 0.15974 0.52077 0.0
C1273 C 0.57583 0.14949 0.49046 0.0
C1274 C 0.59284 0.15783 0.55512 0.0
C1275 C 0.5658 0.14575 0.55998 0.0
C1276 C 0.54319 0.13651 0.5305 0.0
H1277 H 0.52718 0.15322 0.78894 0.0
H1278 H 0.52083 0.15741 0.72903 0.0
C1279 C 0.54829 0.13812 0.49593 0.0
C1280 C 0.56189 0.14237 0.59558 0.0
H1281 H 0.55499 0.09689 0.6282 0.0
C1282 C 0.56324 0.16413 0.63152 0.0
C1283 C 0.55895 0.11778 0.59434 0.0
C1284 C 0.55918 0.09349 0.55675 0.0
C1285 C 0.56239 0.16199 0.66627 0.0
C1286 C 0.55918 0.13742 0.66502 0.0
C1287 C 0.55713 0.11571 0.62908 0.0
C1288 C 0.56092 0.13351 0.70038 0.0
C1289 C 0.5664 0.18594 0.70385 0.0
C1290 C 0.58459 0.11774 0.70349 0.0
C1291 C 0.58792 0.11493 0.73729 0.0
C1292 C 0.56771 0.12797 0.76891 0.0
C1293 C 0.54329 0.14309 0.76529 0.0
C1294 C 0.53978 0.14567 0.73117 0.0
H1295 H 0.57602 0.20211 0.69925 0.0
H1296 H 0.54317 0.19195 0.71818 0.0
H1297 H 0.58234 0.18237 0.72369 0.0
H1298 H 0.6011 0.10808 0.68007 0.0
H1299 H 0.60698 0.1031 0.73893 0.0
H1300 H 0.37955 0.91189 0.26298 0.0
H1301 H 0.38877 0.90821 0.32256 0.0
H1302 H 0.47677 0.86954 0.27701 0.0
H1303 H 0.4672 0.87238 0.21666 0.0
H1304 H 0.44427 0.84431 0.30662 0.0
H1305 H 0.44465 0.94646 0.41309 0.0
H1306 H 0.40932 0.93851 0.38492 0.0
H1307 H 0.44673 0.93644 0.36175 0.0
C1308 C 0.40112 0.90293 0.26578 0.0
C1309 C 0.42263 0.89242 0.23497 0.0
C1310 C 0.40647 0.901 0.30007 0.0
C1311 C 0.43375 0.88899 0.30466 0.0
C1312 C 0.45561 0.87899 0.27426 0.0
H1313 H 0.46864 0.89188 0.53052 0.0
H1314 H 0.47565 0.89688 0.47139 0.0
C1315 C 0.45011 0.88064 0.23976 0.0
C1316 C 0.43819 0.88515 0.33991 0.0
H1317 H 0.43525 0.91602 0.43847 0.0
C1318 C 0.44275 0.86007 0.33545 0.0
C1319 C 0.43681 0.90569 0.37762 0.0
C1320 C 0.43447 0.9333 0.38464 0.0
C1321 C 0.44455 0.85484 0.36752 0.0
C1322 C 0.4408 0.87514 0.40511 0.0
C1323 C 0.43769 0.90037 0.40967 0.0
C1324 C 0.4384 0.87054 0.4399 0.0
C1325 C 0.45049 0.82757 0.36067 0.0
C1326 C 0.41525 0.854 0.44189 0.0
C1327 C 0.41142 0.85087 0.47543 0.0
C1328 C 0.43031 0.86459 0.50809 0.0
C1329 C 0.45376 0.88094 0.50592 0.0
C1330 C 0.45774 0.88389 0.47215 0.0
H1331 H 0.46354 0.81661 0.33325 0.0
H1332 H 0.46408 0.82689 0.38471 0.0
H1333 H 0.42763 0.8178 0.35827 0.0
H1334 H 0.39944 0.84402 0.41786 0.0
H1335 H 0.39291 0.8383 0.47609 0.0
H1336 H 0.5205 0.61911 0.97536 0.0
H1337 H 0.50904 0.61884 0.03722 0.0
H1338 H 0.5953 0.6598 0.08431 0.0
H1339 H 0.60641 0.66086 0.02324 0.0
H1340 H 0.54082 0.59647 0.07221 0.0
H1341 H 0.53619 0.7001 0.17055 0.0
H1342 H 0.53554 0.68792 0.11869 0.0
H1343 H 0.57234 0.69204 0.14392 0.0
C1344 C 0.5368 0.6284 0.99907 0.0
C1345 C 0.56433 0.64008 0.99432 0.0
C1346 C 0.53021 0.62822 0.03443 0.0
C1347 C 0.551 0.6397 0.06573 0.0
C1348 C 0.57838 0.65151 0.06108 0.0
H1349 H 0.59522 0.59932 0.24525 0.0
H1350 H 0.58689 0.6027 0.18553 0.0
C1351 C 0.58483 0.65192 0.02593 0.0
C1352 C 0.54554 0.63761 0.10222 0.0
H1353 H 0.54704 0.67217 0.20043 0.0
C1354 C 0.54165 0.61309 0.10022 0.0
C1355 C 0.54593 0.65928 0.13886 0.0
C1356 C 0.54737 0.68631 0.14312 0.0
C1357 C 0.53995 0.60953 0.13377 0.0
C1358 C 0.54311 0.63098 0.17034 0.0
C1359 C 0.54513 0.65564 0.17242 0.0
C1360 C 0.54672 0.62811 0.20645 0.0
C1361 C 0.53506 0.58273 0.12957 0.0
C1362 C 0.5274 0.64179 0.23867 0.0
C1363 C 0.53239 0.64019 0.27337 0.0
C1364 C 0.55689 0.62493 0.27649 0.0
C1365 C 0.57595 0.6111 0.24396 0.0
C1366 C 0.57107 0.61284 0.20953 0.0
H1367 H 0.522 0.57069 0.10264 0.0
H1368 H 0.55829 0.57355 0.12779 0.0
H1369 H 0.52193 0.58291 0.15452 0.0
H1370 H 0.50863 0.65387 0.23707 0.0
H1371 H 0.51737 0.65119 0.29783 0.0
H1372 H 0.46696 0.33378 0.68974 0.0
H1373 H 0.47289 0.33411 0.75313 0.0
H1374 H 0.41196 0.40015 0.80381 0.0
H1375 H 0.40537 0.39967 0.74086 0.0
H1376 H 0.49342 0.37033 0.82592 0.0
H1377 H 0.36719 0.34802 0.82974 0.0
H1378 H 0.38621 0.34564 0.78655 0.0
H1379 H 0.37345 0.37634 0.82326 0.0
C1380 C 0.45507 0.34852 0.71447 0.0
C1381 C 0.4353 0.36645 0.71006 0.0
C1382 C 0.45848 0.34868 0.75067 0.0
C1383 C 0.44226 0.36679 0.78304 0.0
C1384 C 0.42403 0.38558 0.77908 0.0
H1385 H 0.46234 0.40672 0.02709 0.0
H1386 H 0.46794 0.40373 0.96222 0.0
C1387 C 0.42041 0.38532 0.74301 0.0
C1388 C 0.44317 0.36555 0.82063 0.0
H1389 H 0.39567 0.36068 0.88827 0.0
C1390 C 0.47211 0.36806 0.8395 0.0
C1391 C 0.41542 0.36212 0.83803 0.0
C1392 C 0.38385 0.35761 0.8182 0.0
C1393 C 0.47389 0.36794 0.8758 0.0
C1394 C 0.4459 0.36573 0.89399 0.0
C1395 C 0.41713 0.36261 0.87459 0.0
C1396 C 0.44553 0.36657 0.93307 0.0
C1397 C 0.50575 0.36982 0.894 0.0
C1398 C 0.43089 0.34681 0.93853 0.0
C1399 C 0.4272 0.34866 0.97561 0.0
C1400 C 0.43816 0.37032 0.00821 0.0
C1401 C 0.45381 0.3897 0.00264 0.0
C1402 C 0.45722 0.38794 0.96546 0.0
H1403 H 0.52479 0.36348 0.87199 0.0
H1404 H 0.51035 0.39011 0.91465 0.0
H1405 H 0.50684 0.35805 0.91002 0.0
H1406 H 0.42164 0.33014 0.91407 0.0
H1407 H 0.41517 0.3333 0.97874 0.0
H1408 H 0.38777 0.27744 0.5111 0.0
H1409 H 0.35278 0.24133 0.47524 0.0
H1410 H 0.27427 0.28492 0.54394 0.0
H1411 H 0.30892 0.32144 0.57924 0.0
H1412 H 0.3173 0.2126 0.49825 0.0
H1413 H 0.24046 0.26164 0.43649 0.0
H1414 H 0.27726 0.27518 0.45986 0.0
H1415 H 0.24225 0.27884 0.48812 0.0
C1416 C 0.36301 0.27944 0.5185 0.0
C1417 C 0.35108 0.30244 0.54789 0.0
C1418 C 0.34307 0.25873 0.49796 0.0
C1419 C 0.31082 0.26056 0.50639 0.0
C1420 C 0.29893 0.28331 0.53619 0.0
H1421 H 0.14638 0.17005 0.45331 0.0
H1422 H 0.18988 0.20016 0.47945 0.0
C1423 C 0.3188 0.30414 0.55652 0.0
C1424 C 0.28965 0.23854 0.48459 0.0
H1425 H 0.2204 0.22268 0.43492 0.0
C1426 C 0.29631 0.21468 0.48396 0.0
C1427 C 0.26258 0.24114 0.46534 0.0
C1428 C 0.25539 0.2655 0.46208 0.0
C1429 C 0.27563 0.1938 0.46648 0.0
C1430 C 0.24768 0.197 0.44938 0.0
C1431 C 0.24173 0.22045 0.44854 0.0
C1432 C 0.22291 0.17712 0.43487 0.0
C1433 C 0.28311 0.16881 0.46765 0.0
C1434 C 0.22729 0.15396 0.40136 0.0
C1435 C 0.20232 0.13661 0.38624 0.0
C1436 C 0.17274 0.14228 0.40446 0.0
C1437 C 0.16886 0.16517 0.43857 0.0
C1438 C 0.19368 0.18238 0.45357 0.0
H1439 H 0.30367 0.17051 0.48635 0.0
H1440 H 0.2625 0.16215 0.47835 0.0
H1441 H 0.28844 0.15391 0.43797 0.0
H1442 H 0.24957 0.14978 0.38619 0.0
H1443 H 0.20572 0.11943 0.35943 0.0
H1444 H 0.93929 0.90996 0.52076 0.0
H1445 H 0.95694 0.93704 0.49076 0.0
H1446 H 0.96731 1.00097 0.60359 0.0
H1447 H 0.9504 0.97371 0.63364 0.0
H1448 H 0.93049 0.98309 0.49699 0.0
H1449 H 0.05303 0.99751 0.55271 0.0
H1450 H 0.02767 0.97295 0.55369 0.0
H1451 H 0.02295 0.00579 0.58894 0.0
C1452 C 0.94569 0.92973 0.53906 0.0
C1453 C 0.94387 0.93976 0.57941 0.0
C1454 C 0.95555 0.94519 0.52196 0.0
C1455 C 0.96383 0.9709 0.54496 0.0
C1456 C 0.96158 0.98106 0.58533 0.0
H1457 H 0.039 0.08768 0.48402 0.0
H1458 H 0.01555 0.0655 0.51889 0.0
C1459 C 0.95174 0.96557 0.60243 0.0
C1460 C 0.97455 0.98707 0.52656 0.0
H1461 H 0.03768 0.02045 0.51817 0.0
C1462 C 0.95392 0.99128 0.50161 0.0
C1463 C 0.00508 0.9978 0.53278 0.0
C1464 C 0.02862 0.99317 0.55821 0.0
C1465 C 0.96297 0.00601 0.48274 0.0
C1466 C 0.99366 0.01641 0.4885 0.0
C1467 C 0.01413 0.01251 0.51389 0.0
C1468 C 0.00554 0.03052 0.46734 0.0
C1469 C 0.93949 0.01052 0.45715 0.0
C1470 C 0.00761 0.01823 0.42685 0.0
C1471 C 0.02078 0.03091 0.407 0.0
C1472 C 0.03231 0.056 0.42732 0.0
C1473 C 0.02989 0.06843 0.46776 0.0
C1474 C 0.01669 0.05575 0.48764 0.0
H1475 H 0.91494 0.00787 0.46455 0.0
H1476 H 0.94184 0.03015 0.45944 0.0
H1477 H 0.94379 0.99651 0.42666 0.0
H1478 H -0.00023 0.99859 0.41065 0.0
H1479 H 0.02247 0.02096 0.37579 0.0
H1480 H 0.36991 0.94625 0.6948 0.0
H1481 H 0.3279 0.97757 0.72478 0.0
H1482 H 0.25851 0.9193 0.66501 0.0
H1483 H 0.30032 0.88767 0.63504 0.0
H1484 H 0.28109 0.99187 0.68562 0.0
H1485 H 0.22921 0.95139 0.77872 0.0
H1486 H 0.26789 0.94256 0.75757 0.0
H1487 H 0.23352 0.92927 0.72852 0.0
C1488 C 0.34573 0.93999 0.68817 0.0
C1489 C 0.3385 0.91441 0.66254 0.0
C1490 C 0.32177 0.95794 0.70531 0.0
C1491 C 0.29017 0.95065 0.69738 0.0
C1492 C 0.28278 0.92517 0.67197 0.0
H1493 H 0.11724 0.03909 0.78163 0.0
H1494 H 0.15539 0.00512 0.74631 0.0
C1495 C 0.30673 0.90717 0.65475 0.0
C1496 C 0.26505 0.97003 0.71482 0.0
H1497 H 0.20305 0.98684 0.77743 0.0
C1498 C 0.264 0.9908 0.70569 0.0
C1499 C 0.24273 0.96841 0.74075 0.0
C1500 C 0.24339 0.94684 0.75231 0.0
C1501 C 0.24117 0.01009 0.72189 0.0
C1502 C 0.21924 0.00877 0.74843 0.0
C1503 C 0.21993 0.98776 0.75705 0.0
C1504 C 0.19615 0.0295 0.76873 0.0
C1505 C 0.24056 0.03159 0.71015 0.0
C1506 C 0.2065 0.05437 0.7932 0.0
C1507 C 0.18484 0.07382 0.81334 0.0
C1508 C 0.15236 0.0687 0.80965 0.0
C1509 C 0.14206 0.04371 0.78508 0.0
C1510 C 0.1638 0.02426 0.76491 0.0
H1511 H 0.25256 0.02603 0.682 0.0
H1512 H 0.21605 0.03742 0.70797 0.0
H1513 H 0.25304 0.04847 0.73227 0.0
H1514 H 0.2314 0.05867 0.79718 0.0
H1515 H 0.19363 0.09278 0.83217 0.0
H1516 H 0.95263 0.34116 0.73967 0.0
H1517 H 0.97325 0.31408 0.7682 0.0
H1518 H 0.97136 0.24848 0.65616 0.0
H1519 H 0.95165 0.27572 0.62741 0.0
H1520 H 0.94598 0.27131 0.76948 0.0
H1521 H 0.06063 0.24594 0.69279 0.0
H1522 H 0.03624 0.2717 0.694 0.0
H1523 H 0.02719 0.23895 0.66138 0.0
C1524 C 0.95706 0.32102 0.72113 0.0
C1525 C 0.95086 0.31051 0.68135 0.0
C1526 C 0.96864 0.30556 0.73744 0.0
C1527 C 0.9743 0.27934 0.71423 0.0
C1528 C 0.96779 0.26876 0.67449 0.0
H1529 H 0.03869 0.15361 0.7595 0.0
H1530 H 0.01816 0.18065 0.7308 0.0
C1531 C 0.95628 0.28425 0.65816 0.0
C1532 C 0.98615 0.26297 0.73185 0.0
H1533 H 0.04675 0.2236 0.7291 0.0
C1534 C 0.96809 0.26097 0.7608 0.0
C1535 C 0.01498 0.24947 0.72043 0.0
C1536 C 0.03606 0.25175 0.69071 0.0
C1537 C 0.9778 0.24549 0.77818 0.0
C1538 C 0.00659 0.23197 0.76672 0.0
C1539 C 0.02466 0.23396 0.73777 0.0
C1540 C 0.01844 0.21565 0.7844 0.0
C1541 C 0.95684 0.2433 0.80807 0.0
C1542 C 0.02562 0.2264 0.82397 0.0
C1543 C 0.03717 0.21097 0.84037 0.0
C1544 C 0.04188 0.18458 0.81744 0.0
C1545 C 0.03489 0.17387 0.77784 0.0
C1546 C 0.02335 0.18929 0.76143 0.0
H1547 H 0.93235 0.24944 0.80645 0.0
H1548 H 0.95637 0.22329 0.80452 0.0
H1549 H 0.96608 0.25585 0.83731 0.0
H1550 H 0.02257 0.24677 0.84209 0.0
H1551 H 0.04242 0.21963 0.87099 0.0
H1552 H 0.79654 0.85333 0.6167 0.0
H1553 H 0.75567 0.82116 0.58543 0.0
H1554 H 0.82665 0.76491 0.52294 0.0
H1555 H 0.86776 0.7968 0.55432 0.0
H1556 H 0.74276 0.79306 0.50649 0.0
H1557 H 0.77376 0.7286 0.57239 0.0
H1558 H 0.78846 0.761 0.59077 0.0
H1559 H 0.80595 0.73571 0.54866 0.0
C1560 C 0.80354 0.8341 0.59642 0.0
C1561 C 0.83551 0.82764 0.58822 0.0
C1562 C 0.78011 0.81575 0.57856 0.0
C1563 C 0.78814 0.79056 0.55235 0.0
C1564 C 0.81996 0.7841 0.54371 0.0
H1565 H 0.68554 0.6525 0.40857 0.0
H1566 H 0.7251 0.68532 0.44228 0.0
C1567 C 0.84343 0.80242 0.56154 0.0
C1568 C 0.7632 0.77119 0.53338 0.0
H1569 H 0.7361 0.71298 0.52178 0.0
C1570 C 0.74115 0.77562 0.50999 0.0
C1571 C 0.7612 0.74846 0.53801 0.0
C1572 C 0.7834 0.74318 0.56408 0.0
C1573 C 0.71757 0.75762 0.49036 0.0
C1574 C 0.71568 0.73482 0.49482 0.0
C1575 C 0.73762 0.73047 0.51838 0.0
C1576 C 0.69141 0.71503 0.47481 0.0
C1577 C 0.6954 0.76286 0.46421 0.0
C1578 C 0.65931 0.72074 0.48235 0.0
C1579 C 0.63656 0.70202 0.46309 0.0
C1580 C 0.64551 0.67716 0.43606 0.0
C1581 C 0.67775 0.67143 0.4291 0.0
C1582 C 0.70044 0.69016 0.44836 0.0
H1583 H 0.7047 0.77785 0.45658 0.0
H1584 H 0.69099 0.74513 0.43715 0.0
H1585 H 0.67257 0.76972 0.47922 0.0
H1586 H 0.65185 0.73967 0.50324 0.0
H1587 H 0.61198 0.70707 0.46935 0.0
H1588 H 0.61275 0.05776 0.29427 0.0
H1589 H 0.64856 0.02129 0.26112 0.0
H1590 H 0.72811 0.07089 0.31141 0.0
H1591 H 0.6929 0.10716 0.34469 0.0
H1592 H 0.69896 0.01489 0.20842 0.0
H1593 H 0.74168 0.01251 0.34223 0.0
H1594 H 0.70653 0.02958 0.34101 0.0
H1595 H 0.74463 0.04359 0.34334 0.0
C1596 C 0.63787 0.0609 0.2982 0.0
C1597 C 0.64988 0.08539 0.32243 0.0
C1598 C 0.65827 0.04005 0.27925 0.0
C1599 C 0.69094 0.04331 0.28443 0.0
C1600 C 0.70296 0.06782 0.3077 0.0
H1601 H 0.86296 0.95805 0.20867 0.0
H1602 H 0.82103 0.98963 0.23786 0.0
C1603 C 0.68271 0.08859 0.32656 0.0
C1604 C 0.71281 0.02131 0.26554 0.0
H1605 H 0.77152 0.98868 0.28499 0.0
C1606 C 0.71459 0.0089 0.22506 0.0
C1607 C 0.73313 0.01355 0.28739 0.0
C1608 C 0.73127 0.02532 0.33089 0.0
C1609 C 0.73711 0.98966 0.20587 0.0
C1610 C 0.758 0.98241 0.22781 0.0
C1611 C 0.75563 0.99438 0.26824 0.0
C1612 C 0.78318 0.96304 0.20955 0.0
C1613 C 0.73914 0.97795 0.16239 0.0
C1614 C 0.77581 0.93751 0.18426 0.0
C1615 C 0.79975 0.91937 0.16745 0.0
C1616 C 0.83155 0.92639 0.17579 0.0
C1617 C 0.83878 0.95195 0.20149 0.0
C1618 C 0.81483 0.97005 0.21825 0.0
H1619 H 0.72646 0.98963 0.15064 0.0
H1620 H 0.76404 0.97583 0.15273 0.0
H1621 H 0.72836 0.95857 0.14989 0.0
H1622 H 0.75153 0.93155 0.17776 0.0
H1623 H 0.79327 0.89984 0.14797 0.0
H1624 H 0.94343 0.84559 0.24611 0.0
H1625 H 0.96351 0.81825 0.27454 0.0
H1626 H 0.96916 0.75439 0.16095 0.0
H1627 H 0.95006 0.78192 0.13244 0.0
H1628 H 0.93787 0.77383 0.27147 0.0
H1629 H 0.05636 0.75428 0.20416 0.0
H1630 H 0.03116 0.77934 0.20444 0.0
H1631 H 0.02471 0.74649 0.17008 0.0
C1632 C 0.9494 0.8258 0.22726 0.0
C1633 C 0.94549 0.81587 0.18712 0.0
C1634 C 0.96067 0.81018 0.24349 0.0
C1635 C 0.9683 0.78437 0.21983 0.0
C1636 C 0.96408 0.77437 0.17971 0.0
H1637 H 0.0344 0.65806 0.26308 0.0
H1638 H 0.01397 0.68525 0.23453 0.0
C1639 C 0.9529 0.79001 0.16348 0.0
C1640 C 0.97982 0.76777 0.23727 0.0
H1641 H 0.04143 0.72999 0.23718 0.0
C1642 C 0.96058 0.76434 0.26413 0.0
C1643 C 0.00944 0.75537 0.22761 0.0
C1644 C 0.03177 0.7592 0.20027 0.0
C1645 C 0.96991 0.74852 0.2811 0.0
C1646 C -0.00051 0.73609 0.27138 0.0
C1647 C 0.01873 0.73949 0.24451 0.0
C1648 C 0.01102 0.71957 0.28891 0.0
C1649 C 0.94775 0.7448 0.30868 0.0
C1650 C 0.01631 0.72989 0.32888 0.0
C1651 C 0.02781 0.71437 0.34516 0.0
C1652 C 0.03436 0.68833 0.32173 0.0
C1653 C 0.02915 0.67803 0.28176 0.0
C1654 C 0.01767 0.69355 0.26546 0.0
H1655 H 0.92323 0.7502 0.30551 0.0
H1656 H 0.94798 0.72456 0.30408 0.0
H1657 H 0.95538 0.75714 0.33878 0.0
H1658 H 0.01189 0.75002 0.34742 0.0
H1659 H 0.03168 0.72272 0.37607 0.0
H1660 H 0.36933 0.80495 0.04543 0.0
H1661 H 0.32981 0.77174 0.01311 0.0
H1662 H 0.25597 0.8268 0.06884 0.0
H1663 H 0.29519 0.86024 0.10098 0.0
H1664 H 0.28307 0.75462 0.04776 0.0
H1665 H 0.23101 0.7946 0.95434 0.0
H1666 H 0.26846 0.80512 0.97816 0.0
H1667 H 0.23249 0.81674 0.00475 0.0
C1668 C 0.34469 0.81007 0.05068 0.0
C1669 C 0.33544 0.83531 0.0757 0.0
C1670 C 0.32217 0.79105 0.03221 0.0
C1671 C 0.29003 0.79692 0.03822 0.0
C1672 C 0.28067 0.82201 0.06326 0.0
H1673 H 0.11761 0.71032 0.95988 0.0
H1674 H 0.1577 0.74305 0.99176 0.0
C1675 C 0.30315 0.84107 0.08174 0.0
C1676 C 0.26628 0.77662 0.01913 0.0
H1677 H 0.20434 0.75948 0.95654 0.0
C1678 C 0.26594 0.75557 0.02764 0.0
C1679 C 0.24398 0.77802 0.99301 0.0
C1680 C 0.24406 0.7997 0.98168 0.0
C1681 C 0.24345 0.73605 0.01125 0.0
C1682 C 0.2211 0.73749 0.9852 0.0
C1683 C 0.22149 0.75851 0.97661 0.0
C1684 C 0.19705 0.71738 0.96647 0.0
C1685 C 0.24333 0.71439 0.02262 0.0
C1686 C 0.20595 0.69215 0.94148 0.0
C1687 C 0.18313 0.67336 0.92322 0.0
C1688 C 0.15095 0.67953 0.92944 0.0
C1689 C 0.14216 0.70489 0.95445 0.0
C1690 C 0.16501 0.72364 0.97269 0.0
H1691 H 0.25655 0.71943 0.04983 0.0
H1692 H 0.21892 0.70911 0.02639 0.0
H1693 H 0.25468 0.69728 0.99944 0.0
H1694 H 0.23057 0.68707 0.93573 0.0
H1695 H 0.19074 0.65407 0.90401 0.0
H1696 H 0.03502 0.53456 0.88426 0.0
H1697 H 0.01635 0.50803 0.91467 0.0
H1698 H 0.0175 0.57429 0.02601 0.0
H1699 H 0.03695 0.60071 0.99569 0.0
H1700 H 0.0464 0.53108 0.02575 0.0
H1701 H 0.92861 0.50676 0.95714 0.0
H1702 H 0.96055 0.49961 0.9235 0.0
H1703 H 0.95233 0.53239 0.95687 0.0
C1704 C 0.03118 0.5434 0.9152 0.0
C1705 C 0.03726 0.56961 0.93771 0.0
C1706 C 0.02029 0.52832 0.93249 0.0
C1707 C 0.01509 0.53928 0.97252 0.0
C1708 C 0.02116 0.56551 0.99503 0.0
H1709 H 0.95778 0.47854 0.13222 0.0
H1710 H 0.97541 0.50601 0.10288 0.0
C1711 C 0.03207 0.58058 0.97773 0.0
C1712 C 0.0045 0.52318 0.9911 0.0
H1713 H 0.94509 0.484 0.99197 0.0
C1714 C 0.02417 0.5209 0.01857 0.0
C1715 C 0.97552 0.50987 0.98157 0.0
C1716 C 0.95286 0.51241 0.95342 0.0
C1717 C 0.01595 0.50525 0.03621 0.0
C1718 C 0.98702 0.49188 0.02659 0.0
C1719 C 0.9673 0.49422 0.99921 0.0
C1720 C 0.97674 0.47532 0.04455 0.0
C1721 C 0.03866 0.50266 0.06427 0.0
C1722 C 0.971 0.44912 0.02143 0.0
C1723 C 0.96067 0.43352 0.0381 0.0
C1724 C 0.9558 0.44392 0.07814 0.0
C1725 C 0.96145 0.47013 0.10126 0.0
C1726 C 0.97173 0.48574 0.08459 0.0
H1727 H 0.06284 0.50857 0.06083 0.0
H1728 H 0.03081 0.5152 0.09422 0.0
H1729 H 0.03945 0.4826 0.06046 0.0
H1730 H 0.97451 0.44074 0.99045 0.0
H1731 H 0.95607 0.41341 0.01967 0.0
H1732 H 0.11775 0.54458 0.28932 0.0
H1733 H 0.15867 0.51274 0.25576 0.0
H1734 H 0.2299 0.57083 0.30705 0.0
H1735 H 0.18937 0.60269 0.34111 0.0
H1736 H 0.2044 0.51211 0.20321 0.0
H1737 H 0.25941 0.51421 0.33469 0.0
H1738 H 0.22116 0.52787 0.33532 0.0
H1739 H 0.2562 0.54521 0.33555 0.0
C1740 C 0.14212 0.5506 0.29354 0.0
C1741 C 0.15026 0.57618 0.31817 0.0
C1742 C 0.16546 0.53237 0.2743 0.0
C1743 C 0.19732 0.53934 0.27947 0.0
C1744 C 0.20548 0.56493 0.30335 0.0
H1745 H 0.3753 0.46357 0.19297 0.0
H1746 H 0.33246 0.49393 0.22381 0.0
C1747 C 0.18223 0.58315 0.32263 0.0
C1748 C 0.22208 0.51996 0.25956 0.0
H1749 H 0.28736 0.4919 0.27573 0.0
C1750 C 0.22243 0.50754 0.21901 0.0
C1751 C 0.24553 0.51403 0.2803 0.0
C1752 C 0.24549 0.52583 0.32387 0.0
C1753 C 0.24614 0.48983 0.19861 0.0
C1754 C 0.2698 0.48417 0.21938 0.0
C1755 C 0.26926 0.4964 0.25991 0.0
C1756 C 0.29549 0.46571 0.19969 0.0
C1757 C 0.24614 0.47783 0.15504 0.0
C1758 C 0.28889 0.43974 0.17613 0.0
C1759 C 0.3133 0.42231 0.1584 0.0
C1760 C 0.34484 0.43052 0.16409 0.0
C1761 C 0.35132 0.45658 0.18783 0.0
C1762 C 0.32688 0.47397 0.20554 0.0
H1763 H 0.23112 0.48871 0.14393 0.0
H1764 H 0.27038 0.47676 0.1437 0.0
H1765 H 0.2368 0.45801 0.14355 0.0
H1766 H 0.26485 0.43289 0.17184 0.0
H1767 H 0.30744 0.40237 0.14048 0.0
H1768 H 0.88014 0.2989 0.04533 0.0
H1769 H 0.84049 0.26609 0.0111 0.0
H1770 H 0.7668 0.32134 0.06672 0.0
H1771 H 0.80604 0.35428 0.10066 0.0
H1772 H 0.79259 0.24833 0.04319 0.0
H1773 H 0.74303 0.29111 0.95228 0.0
H1774 H 0.78027 0.30105 0.97692 0.0
H1775 H 0.74404 0.31277 0.0029 0.0
C1776 C 0.8555 0.30413 0.05012 0.0
C1777 C 0.8463 0.32928 0.07565 0.0
C1778 C 0.8329 0.28535 0.03056 0.0
C1779 C 0.80076 0.29141 0.03597 0.0
C1780 C 0.7915 0.31641 0.06153 0.0
H1781 H 0.62521 0.20974 0.95841 0.0
H1782 H 0.66685 0.24105 0.99023 0.0
C1783 C 0.81402 0.33518 0.08107 0.0
C1784 C 0.77678 0.27143 0.01591 0.0
H1785 H 0.71429 0.25669 0.95432 0.0
C1786 C 0.77561 0.25001 0.02351 0.0
C1787 C 0.75465 0.27376 0.99033 0.0
C1788 C 0.75564 0.29578 0.97978 0.0
C1789 C 0.75233 0.23115 0.00697 0.0
C1790 C 0.73001 0.23364 0.98173 0.0
C1791 C 0.73137 0.25493 0.97384 0.0
C1792 C 0.70498 0.21437 0.96316 0.0
C1793 C 0.75132 0.20909 0.01744 0.0
C1794 C 0.71267 0.18904 0.93723 0.0
C1795 C 0.68896 0.17108 0.91901 0.0
C1796 C 0.65707 0.17816 0.92622 0.0
C1797 C 0.64949 0.2036 0.95223 0.0
C1798 C 0.67324 0.22154 0.97042 0.0
H1799 H 0.76495 0.21328 0.0441 0.0
H1800 H 0.72671 0.20453 0.02175 0.0
H1801 H 0.7617 0.19181 0.99353 0.0
H1802 H 0.73702 0.18325 0.93068 0.0
H1803 H 0.69568 0.15171 0.89899 0.0
H1804 H 0.7971 0.39874 0.65711 0.0
H1805 H 0.75756 0.43201 0.68987 0.0
H1806 H 0.83102 0.48685 0.74731 0.0
H1807 H 0.87075 0.45391 0.71452 0.0
H1808 H 0.7477 0.46227 0.77011 0.0
H1809 H 0.77752 0.52204 0.69591 0.0
H1810 H 0.79072 0.48927 0.67857 0.0
H1811 H 0.8103 0.51464 0.71851 0.0
C1812 C 0.80489 0.41787 0.6767 0.0
C1813 C 0.83713 0.42368 0.68297 0.0
C1814 C 0.78225 0.43684 0.69539 0.0
C1815 C 0.79143 0.46194 0.72046 0.0
C1816 C 0.82351 0.4677 0.72743 0.0
H1817 H 0.69423 0.60411 0.86069 0.0
H1818 H 0.7329 0.57008 0.82816 0.0
C1819 C 0.84616 0.44878 0.7088 0.0
C1820 C 0.76745 0.4821 0.73968 0.0
H1821 H 0.74158 0.53994 0.74823 0.0
C1822 C 0.7462 0.4792 0.76522 0.0
C1823 C 0.76566 0.50413 0.73318 0.0
C1824 C 0.78706 0.5077 0.7048 0.0
C1825 C 0.72356 0.49807 0.78514 0.0
C1826 C 0.72187 0.52016 0.77876 0.0
C1827 C 0.74304 0.523 0.75309 0.0
C1828 C 0.6983 0.54059 0.79847 0.0
C1829 C 0.70214 0.4945 0.81349 0.0
C1830 C 0.66608 0.53531 0.79209 0.0
C1831 C 0.64389 0.55468 0.81063 0.0
C1832 C 0.65357 0.57975 0.83573 0.0
C1833 C 0.68594 0.58502 0.84165 0.0
C1834 C 0.70809 0.56562 0.82309 0.0
H1835 H 0.71152 0.47999 0.82214 0.0
H1836 H 0.69869 0.51288 0.83986 0.0
H1837 H 0.67881 0.48778 0.79988 0.0
H1838 H 0.65808 0.51622 0.77256 0.0
H1839 H 0.61918 0.54997 0.80519 0.0
H1840 H 0.44784 0.91653 0.0137 0.0
H1841 H 0.46887 0.94248 0.98348 0.0
H1842 H 0.46888 0.00918 0.09431 0.0
H1843 H 0.44841 0.98311 0.1247 0.0
H1844 H 0.44202 0.98702 0.98307 0.0
H1845 H 0.55922 0.00683 0.05391 0.0
H1846 H 0.53373 0.98175 0.05292 0.0
H1847 H 0.52628 0.01464 0.08632 0.0
C1848 C 0.45259 0.93669 0.03157 0.0
C1849 C 0.44669 0.94788 0.07147 0.0
C1850 C 0.46444 0.95149 0.01431 0.0
C1851 C 0.4708 0.97765 0.03674 0.0
C1852 C 0.46462 0.98892 0.0766 0.0
H1853 H 0.54353 0.09892 0.9871 0.0
H1854 H 0.52245 0.07287 0.01707 0.0
C1855 C 0.45271 0.97412 0.09385 0.0
C1856 C 0.48335 0.99321 0.01824 0.0
H1857 H 0.54666 0.02881 0.01683 0.0
C1858 C 0.46494 0.9961 0.9903 0.0
C1859 C 0.51323 0.00503 0.02783 0.0
C1860 C 0.53445 1.0018 0.05664 0.0
C1861 C 0.47538 0.0109 0.97214 0.0
C1862 C 0.50532 0.02268 0.98165 0.0
C1863 C 0.52372 0.01976 0.00959 0.0
C1864 C 0.51788 0.03832 0.96324 0.0
C1865 C 0.45393 0.01431 0.94366 0.0
C1866 C 0.52268 0.02745 0.92311 0.0
C1867 C 0.53442 0.04238 0.90598 0.0
C1868 C 0.54175 0.06833 0.92874 0.0
C1869 C 0.53754 0.07905 0.96892 0.0
C1870 C 0.5257 0.06417 0.98603 0.0
H1871 H 0.42907 0.00994 0.94732 0.0
H1872 H 0.45521 0.0342 0.94681 0.0
H1873 H 0.46133 1.00098 0.91386 0.0
H1874 H 0.51747 0.0074 0.90507 0.0
H1875 H 0.5376 0.0337 0.87493 0.0
H1876 H 0.47428 0.2956 0.13681 0.0
H1877 H 0.49611 0.27249 0.17115 0.0
H1878 H 0.48539 0.3404 0.27948 0.0
H1879 H 0.46265 0.36325 0.24524 0.0
H1880 H 0.54898 0.28326 0.21773 0.0
H1881 H 0.4412 0.28591 0.3007 0.0
H1882 H 0.44076 0.29361 0.26036 0.0
H1883 H 0.45447 0.31677 0.30686 0.0
C1884 C 0.47644 0.30547 0.16798 0.0
C1885 C 0.46678 0.33112 0.18848 0.0
C1886 C 0.489 0.29234 0.18753 0.0
C1887 C 0.49199 0.30461 0.22793 0.0
C1888 C 0.48277 0.3304 0.24839 0.0
H1889 H 0.55896 0.24658 0.38875 0.0
H1890 H 0.54225 0.27494 0.36027 0.0
C1891 C 0.4701 0.3435 0.22883 0.0
C1892 C 0.505 0.29039 0.24845 0.0
H1893 H 0.48709 0.26882 0.31508 0.0
C1894 C 0.53546 0.28012 0.23904 0.0
C1895 C 0.48735 0.28637 0.27633 0.0
C1896 C 0.45403 0.29603 0.2865 0.0
C1897 C 0.54875 0.26592 0.25672 0.0
C1898 C 0.53094 0.26161 0.28417 0.0
C1899 C 0.50071 0.27226 0.29412 0.0
C1900 C 0.54256 0.24497 0.30138 0.0
C1901 C 0.5818 0.25575 0.24603 0.0
C1902 C 0.54814 0.2188 0.27774 0.0
C1903 C 0.5576 0.20273 0.29393 0.0
C1904 C 0.56149 0.21251 0.33403 0.0
C1905 C 0.55624 0.23872 0.35772 0.0
C1906 C 0.54665 0.25483 0.34152 0.0
H1907 H 0.59514 0.26642 0.23309 0.0
H1908 H 0.59482 0.25694 0.27167 0.0
H1909 H 0.58082 0.23529 0.22441 0.0
H1910 H 0.5446 0.21071 0.24681 0.0
H1911 H 0.56158 0.18255 0.27517 0.0
H1912 H 0.46073 0.7725 0.62068 0.0
H1913 H 0.47992 0.74767 0.65376 0.0
H1914 H 0.46927 0.8143 0.76368 0.0
H1915 H 0.44918 0.83883 0.73076 0.0
H1916 H 0.53197 0.75657 0.7007 0.0
H1917 H 0.42331 0.7596 0.78207 0.0
H1918 H 0.42375 0.76825 0.74267 0.0
H1919 H 0.43701 0.7907 0.78991 0.0
C1920 C 0.46223 0.78168 0.65193 0.0
C1921 C 0.45352 0.80751 0.67325 0.0
C1922 C 0.47328 0.76757 0.67077 0.0
C1923 C 0.47562 0.77902 0.71124 0.0
C1924 C 0.46708 0.8049 0.73252 0.0
H1925 H 0.54347 0.72799 0.87823 0.0
H1926 H 0.52451 0.75314 0.84547 0.0
C1927 C 0.45594 0.81897 0.71369 0.0
C1928 C 0.48783 0.76412 0.73114 0.0
H1929 H 0.46939 0.7438 0.79907 0.0
C1930 C 0.51823 0.75366 0.72205 0.0
C1931 C 0.4699 0.76038 0.75908 0.0
C1932 C 0.43657 0.7701 0.76881 0.0
C1933 C 0.53137 0.73992 0.74058 0.0
C1934 C 0.51347 0.73626 0.76858 0.0
C1935 C 0.48311 0.74673 0.77771 0.0
C1936 C 0.52562 0.72124 0.78824 0.0
C1937 C 0.56453 0.72984 0.73058 0.0
C1938 C 0.5323 0.69499 0.76696 0.0
C1939 C 0.54312 0.6807 0.78558 0.0
C1940 C 0.54731 0.69239 0.82582 0.0
C1941 C 0.54063 0.71864 0.84713 0.0
C1942 C 0.52972 0.73294 0.8285 0.0
H1943 H 0.57767 0.73961 0.71609 0.0
H1944 H 0.57763 0.73231 0.75686 0.0
H1945 H 0.56375 0.70904 0.71057 0.0
H1946 H 0.52882 0.68549 0.73597 0.0
H1947 H 0.54823 0.66049 0.76855 0.0
H1948 H 0.53255 0.58807 0.48675 0.0
H1949 H 0.51393 0.55827 0.51143 0.0
H1950 H 0.517 0.49619 0.39607 0.0
H1951 H 0.53547 0.52599 0.37133 0.0
H1952 H 0.45982 0.52704 0.49092 0.0
H1953 H 0.56895 0.46858 0.45905 0.0
H1954 H 0.56768 0.49959 0.45907 0.0
H1955 H 0.5527 0.47175 0.41851 0.0
C1956 C 0.52903 0.56809 0.4667 0.0
C1957 C 0.53548 0.55927 0.42719 0.0
C1958 C 0.51853 0.55109 0.4808 0.0
C1959 C 0.51453 0.52494 0.45569 0.0
C1960 C 0.52055 0.51617 0.4161 0.0
H1961 H 0.45502 0.39283 0.48877 0.0
H1962 H 0.47254 0.42199 0.46231 0.0
C1963 C 0.53101 0.53319 0.40199 0.0
C1964 C 0.50369 0.50695 0.47093 0.0
H1965 H 0.52509 0.45361 0.48094 0.0
C1966 C 0.47412 0.51103 0.48886 0.0
C1967 C 0.52235 0.48603 0.46811 0.0
C1968 C 0.55481 0.48126 0.45046 0.0
C1969 C 0.46249 0.49455 0.50358 0.0
C1970 C 0.48123 0.47371 0.50097 0.0
C1971 C 0.51075 0.46957 0.48289 0.0
C1972 C 0.47073 0.45609 0.51709 0.0
C1973 C 0.42997 0.4993 0.52107 0.0
C1974 C 0.46438 0.4655 0.55673 0.0
C1975 C 0.45447 0.44888 0.57181 0.0
C1976 C 0.45098 0.42253 0.54759 0.0
C1977 C 0.45774 0.41305 0.50805 0.0
C1978 C 0.46763 0.42968 0.49294 0.0
H1979 H 0.41559 0.51131 0.51139 0.0
H1980 H 0.41741 0.48095 0.51343 0.0
H1981 H 0.43195 0.50961 0.553 0.0
H1982 H 0.46731 0.48568 0.57608 0.0
H1983 H 0.44975 0.45657 0.60248 0.0
loop_
_geom_bond_atom_site_label_1
_geom_bond_atom_site_label_2
_geom_bond_distance
_geom_bond_site_symmetry_2
_ccdc_geom_bond_type
Co0 O3 1.970 . S
Co0 N17 1.989 . S
Co0 O25 1.967 . S
Co0 O32 1.920 . S
Co1 O4 1.966 . S
Co1 N10 2.022 . S
Co1 N18 1.993 . S
Co1 O26 1.941 . S
C2 O3 1.258 . S
C2 O4 1.263 . S
O3 Co0 1.970 . S
O3 C2 1.258 . S
O4 Co1 1.966 . S
O4 C2 1.263 . S
C5 O6 1.235 . S
C5 O32 1.289 . S
O6 C5 1.235 . S
C7 C9 1.400 . S
C7 N10 1.351 1_655 S
C7 C12 1.501 1_655 S
C8 C9 1.387 . S
C8 N11 1.341 1_655 S
C9 C7 1.400 . S
C9 C8 1.387 . S
N10 Co1 2.022 . S
N10 C7 1.351 1_455 S
N10 N11 1.365 . S
N11 C8 1.341 1_455 S
N11 N10 1.365 . S
N11 H31 0.862 . S
C12 C7 1.501 1_455 S
C12 H13 0.961 . S
C12 H14 0.961 1_455 S
C12 H15 0.960 1_455 S
H13 C12 0.961 . S
H14 C12 0.961 1_655 S
H15 C12 0.960 1_655 S
C16 N17 1.342 . S
C16 C20 1.401 . S
C16 C21 1.499 . S
N17 Co0 1.989 . S
N17 C16 1.342 . S
N17 N18 1.388 . S
N18 Co1 1.993 . S
N18 N17 1.388 . S
N18 C19 1.346 . S
C19 N18 1.346 . S
C19 C20 1.396 . S
C19 C29 1.510 . S
C20 C16 1.401 . S
C20 C19 1.396 . S
C21 C16 1.499 . S
C21 H22 0.959 . S
C21 H23 0.960 . S
C21 H24 0.961 . S
H22 C21 0.959 . S
H23 C21 0.960 . S
H24 C21 0.961 . S
O25 Co0 1.967 . S
O25 C33 1.258 . S
O26 Co1 1.941 . S
O26 C33 1.266 . S
H27 C29 0.959 . S
H28 C29 0.961 . S
C29 C19 1.510 . S
C29 H27 0.959 . S
C29 H28 0.961 . S
C29 H30 0.960 . S
H30 C29 0.960 . S
H31 N11 0.862 . S
O32 Co0 1.920 . S
O32 C5 1.289 . S
C33 O25 1.258 . S
C33 O26 1.266 . S
Co34 O37 1.970 . S
Co34 N51 1.989 . S
Co34 O59 1.967 . S
Co34 O66 1.920 . S
Co35 O38 1.966 . S
Co35 N44 2.022 . S
Co35 N52 1.993 . S
Co35 O60 1.941 . S
C36 O37 1.258 . S
C36 O38 1.263 . S
O37 Co34 1.970 . S
O37 C36 1.258 . S
O38 Co35 1.966 . S
O38 C36 1.263 . S
C39 O40 1.235 . S
C39 O66 1.289 . S
O40 C39 1.235 . S
C41 C43 1.400 . S
C41 N44 1.351 1_655 S
C41 C46 1.501 1_655 S
C42 C43 1.387 . S
C42 N45 1.341 1_655 S
C43 C41 1.400 . S
C43 C42 1.387 . S
N44 Co35 2.022 . S
N44 C41 1.351 1_455 S
N44 N45 1.365 . S
N45 C42 1.341 1_455 S
N45 N44 1.365 . S
N45 H65 0.862 . S
C46 C41 1.501 1_455 S
C46 H47 0.961 . S
C46 H48 0.961 1_455 S
C46 H49 0.960 1_455 S
H47 C46 0.961 . S
H48 C46 0.961 1_655 S
H49 C46 0.960 1_655 S
C50 N51 1.342 . S
C50 C54 1.401 . S
C50 C55 1.499 . S
N51 Co34 1.989 . S
N51 C50 1.342 . S
N51 N52 1.388 . S
N52 Co35 1.993 . S
N52 N51 1.388 . S
N52 C53 1.346 . S
C53 N52 1.346 . S
C53 C54 1.396 . S
C53 C63 1.510 . S
C54 C50 1.401 . S
C54 C53 1.396 . S
C55 C50 1.499 . S
C55 H56 0.959 . S
C55 H57 0.960 . S
C55 H58 0.961 . S
H56 C55 0.959 . S
H57 C55 0.960 . S
H58 C55 0.961 . S
O59 Co34 1.967 . S
O59 C67 1.258 . S
O60 Co35 1.941 . S
O60 C67 1.266 . S
H61 C63 0.959 . S
H62 C63 0.961 . S
C63 C53 1.510 . S
C63 H61 0.959 . S
C63 H62 0.961 . S
C63 H64 0.960 . S
H64 C63 0.960 . S
H65 N45 0.862 . S
O66 Co34 1.920 . S
O66 C39 1.289 . S
C67 O59 1.258 . S
C67 O60 1.266 . S
Co68 O71 1.970 . S
Co68 N85 1.989 . S
Co68 O93 1.967 . S
Co68 O100 1.920 . S
Co69 O72 1.966 . S
Co69 N78 2.022 . S
Co69 N86 1.993 . S
Co69 O94 1.941 . S
C70 O71 1.258 . S
C70 O72 1.263 . S
O71 Co68 1.970 . S
O71 C70 1.258 . S
O72 Co69 1.966 . S
O72 C70 1.263 . S
C73 O74 1.235 . S
C73 O100 1.289 . S
O74 C73 1.235 . S
C75 C77 1.400 . S
C75 N78 1.351 1_455 S
C75 C80 1.501 1_455 S
C76 C77 1.387 . S
C76 N79 1.341 1_455 S
C77 C75 1.400 . S
C77 C76 1.387 . S
N78 Co69 2.022 . S
N78 C75 1.351 1_655 S
N78 N79 1.365 . S
N79 C76 1.341 1_655 S
N79 N78 1.365 . S
N79 H99 0.862 . S
C80 C75 1.501 1_655 S
C80 H81 0.961 . S
C80 H82 0.961 1_655 S
C80 H83 0.960 1_655 S
H81 C80 0.961 . S
H82 C80 0.961 1_455 S
H83 C80 0.960 1_455 S
C84 N85 1.342 . S
C84 C88 1.401 . S
C84 C89 1.499 . S
N85 Co68 1.989 . S
N85 C84 1.342 . S
N85 N86 1.388 . S
N86 Co69 1.993 . S
N86 N85 1.388 . S
N86 C87 1.346 . S
C87 N86 1.346 . S
C87 C88 1.396 . S
C87 C97 1.510 . S
C88 C84 1.401 . S
C88 C87 1.396 . S
C89 C84 1.499 . S
C89 H90 0.959 . S
C89 H91 0.960 . S
C89 H92 0.961 . S
H90 C89 0.959 . S
H91 C89 0.960 . S
H92 C89 0.961 . S
O93 Co68 1.967 . S
O93 C101 1.258 . S
O94 Co69 1.941 . S
O94 C101 1.266 . S
H95 C97 0.959 . S
H96 C97 0.961 . S
C97 C87 1.510 . S
C97 H95 0.959 . S
C97 H96 0.961 . S
C97 H98 0.960 . S
H98 C97 0.960 . S
H99 N79 0.862 . S
O100 Co68 1.920 . S
O100 C73 1.289 . S
C101 O93 1.258 . S
C101 O94 1.266 . S
Co102 O105 1.970 . S
Co102 N119 1.989 . S
Co102 O127 1.967 . S
Co102 O134 1.920 . S
Co103 O106 1.966 . S
Co103 N112 2.022 . S
Co103 N120 1.993 . S
Co103 O128 1.941 . S
C104 O105 1.258 . S
C104 O106 1.263 . S
O105 Co102 1.970 . S
O105 C104 1.258 . S
O106 Co103 1.966 . S
O106 C104 1.263 . S
C107 O108 1.235 . S
C107 O134 1.289 . S
O108 C107 1.235 . S
C109 C111 1.400 . S
C109 N112 1.351 1_455 S
C109 C114 1.501 1_455 S
C110 C111 1.387 . S
C110 N113 1.341 1_455 S
C111 C109 1.400 . S
C111 C110 1.387 . S
N112 Co103 2.022 . S
N112 C109 1.351 1_655 S
N112 N113 1.365 . S
N113 C110 1.341 1_655 S
N113 N112 1.365 . S
N113 H133 0.862 . S
C114 C109 1.501 1_655 S
C114 H115 0.961 . S
C114 H116 0.961 1_655 S
C114 H117 0.960 1_655 S
H115 C114 0.961 . S
H116 C114 0.961 1_455 S
H117 C114 0.960 1_455 S
C118 N119 1.342 . S
C118 C122 1.401 . S
C118 C123 1.499 . S
N119 Co102 1.989 . S
N119 C118 1.342 . S
N119 N120 1.388 . S
N120 Co103 1.993 . S
N120 N119 1.388 . S
N120 C121 1.346 . S
C121 N120 1.346 . S
C121 C122 1.396 . S
C121 C131 1.510 . S
C122 C118 1.401 . S
C122 C121 1.396 . S
C123 C118 1.499 . S
C123 H124 0.959 . S
C123 H125 0.960 . S
C123 H126 0.961 . S
H124 C123 0.959 . S
H125 C123 0.960 . S
H126 C123 0.961 . S
O127 Co102 1.967 . S
O127 C135 1.258 . S
O128 Co103 1.941 . S
O128 C135 1.266 . S
H129 C131 0.959 . S
H130 C131 0.961 . S
C131 C121 1.510 . S
C131 H129 0.959 . S
C131 H130 0.961 . S
C131 H132 0.960 . S
H132 C131 0.960 . S
H133 N113 0.862 . S
O134 Co102 1.920 . S
O134 C107 1.289 . S
C135 O127 1.258 . S
C135 O128 1.266 . S
Co136 O139 1.970 . S
Co136 N153 1.989 . S
Co136 O161 1.967 . S
Co136 O168 1.920 . S
Co137 O140 1.966 . S
Co137 N146 2.022 . S
Co137 N154 1.993 . S
Co137 O162 1.941 . S
C138 O139 1.258 . S
C138 O140 1.263 . S
O139 Co136 1.970 . S
O139 C138 1.258 . S
O140 Co137 1.966 . S
O140 C138 1.263 . S
C141 O142 1.235 . S
C141 O168 1.289 . S
O142 C141 1.235 . S
C143 C145 1.400 . S
C143 N146 1.351 1_655 S
C143 C148 1.501 1_655 S
C144 C145 1.387 . S
C144 N147 1.341 1_655 S
C145 C143 1.400 . S
C145 C144 1.387 . S
N146 Co137 2.022 . S
N146 C143 1.351 1_455 S
N146 N147 1.365 . S
N147 C144 1.341 1_455 S
N147 N146 1.365 . S
N147 H167 0.862 . S
C148 C143 1.501 1_455 S
C148 H149 0.961 . S
C148 H150 0.961 1_455 S
C148 H151 0.960 1_455 S
H149 C148 0.961 . S
H150 C148 0.961 1_655 S
H151 C148 0.960 1_655 S
C152 N153 1.342 . S
C152 C156 1.401 . S
C152 C157 1.499 . S
N153 Co136 1.989 . S
N153 C152 1.342 . S
N153 N154 1.388 . S
N154 Co137 1.993 . S
N154 N153 1.388 . S
N154 C155 1.346 . S
C155 N154 1.346 . S
C155 C156 1.396 . S
C155 C165 1.510 . S
C156 C152 1.401 . S
C156 C155 1.396 . S
C157 C152 1.499 . S
C157 H158 0.959 . S
C157 H159 0.960 . S
C157 H160 0.961 . S
H158 C157 0.959 . S
H159 C157 0.960 . S
H160 C157 0.961 . S
O161 Co136 1.967 . S
O161 C169 1.258 . S
O162 Co137 1.941 . S
O162 C169 1.266 . S
H163 C165 0.959 . S
H164 C165 0.961 . S
C165 C155 1.510 . S
C165 H163 0.959 . S
C165 H164 0.961 . S
C165 H166 0.960 . S
H166 C165 0.960 . S
H167 N147 0.862 . S
O168 Co136 1.920 . S
O168 C141 1.289 . S
C169 O161 1.258 . S
C169 O162 1.266 . S
Co170 O173 1.970 . S
Co170 N187 1.989 . S
Co170 O195 1.967 . S
Co170 O202 1.920 . S
Co171 O174 1.966 . S
Co171 N180 2.022 . S
Co171 N188 1.993 . S
Co171 O196 1.941 . S
C172 O173 1.258 . S
C172 O174 1.263 . S
O173 Co170 1.970 . S
O173 C172 1.258 . S
O174 Co171 1.966 . S
O174 C172 1.263 . S
C175 O176 1.235 . S
C175 O202 1.289 . S
O176 C175 1.235 . S
C177 C179 1.400 . S
C177 N180 1.351 1_655 S
C177 C182 1.501 1_655 S
C178 C179 1.387 . S
C178 N181 1.341 1_655 S
C179 C177 1.400 . S
C179 C178 1.387 . S
N180 Co171 2.022 . S
N180 C177 1.351 1_455 S
N180 N181 1.365 . S
N181 C178 1.341 1_455 S
N181 N180 1.365 . S
N181 H201 0.862 . S
C182 C177 1.501 1_455 S
C182 H183 0.961 . S
C182 H184 0.961 1_455 S
C182 H185 0.960 1_455 S
H183 C182 0.961 . S
H184 C182 0.961 1_655 S
H185 C182 0.960 1_655 S
C186 N187 1.342 . S
C186 C190 1.401 . S
C186 C191 1.499 . S
N187 Co170 1.989 . S
N187 C186 1.342 . S
N187 N188 1.388 . S
N188 Co171 1.993 . S
N188 N187 1.388 . S
N188 C189 1.346 . S
C189 N188 1.346 . S
C189 C190 1.396 . S
C189 C199 1.510 . S
C190 C186 1.401 . S
C190 C189 1.396 . S
C191 C186 1.499 . S
C191 H192 0.959 . S
C191 H193 0.960 . S
C191 H194 0.961 . S
H192 C191 0.959 . S
H193 C191 0.960 . S
H194 C191 0.961 . S
O195 Co170 1.967 . S
O195 C203 1.258 . S
O196 Co171 1.941 . S
O196 C203 1.266 . S
H197 C199 0.959 . S
H198 C199 0.961 . S
C199 C189 1.510 . S
C199 H197 0.959 . S
C199 H198 0.961 . S
C199 H200 0.960 . S
H200 C199 0.960 . S
H201 N181 0.862 . S
O202 Co170 1.920 . S
O202 C175 1.289 . S
C203 O195 1.258 . S
C203 O196 1.266 . S
Co204 O207 1.970 . S
Co204 N221 1.989 . S
Co204 O229 1.967 . S
Co204 O236 1.920 . S
Co205 O208 1.966 . S
Co205 N214 2.022 . S
Co205 N222 1.993 . S
Co205 O230 1.941 . S
C206 O207 1.258 . S
C206 O208 1.263 . S
O207 Co204 1.970 . S
O207 C206 1.258 . S
O208 Co205 1.966 . S
O208 C206 1.263 . S
C209 O210 1.235 . S
C209 O236 1.289 . S
O210 C209 1.235 . S
C211 C213 1.400 . S
C211 N214 1.351 1_455 S
C211 C216 1.501 1_455 S
C212 C213 1.387 . S
C212 N215 1.341 1_455 S
C213 C211 1.400 . S
C213 C212 1.387 . S
N214 Co205 2.022 . S
N214 C211 1.351 1_655 S
N214 N215 1.365 . S
N215 C212 1.341 1_655 S
N215 N214 1.365 . S
N215 H235 0.862 . S
C216 C211 1.501 1_655 S
C216 H217 0.961 . S
C216 H218 0.961 1_655 S
C216 H219 0.960 1_655 S
H217 C216 0.961 . S
H218 C216 0.961 1_455 S
H219 C216 0.960 1_455 S
C220 N221 1.342 . S
C220 C224 1.401 . S
C220 C225 1.499 . S
N221 Co204 1.989 . S
N221 C220 1.342 . S
N221 N222 1.388 . S
N222 Co205 1.993 . S
N222 N221 1.388 . S
N222 C223 1.346 . S
C223 N222 1.346 . S
C223 C224 1.396 . S
C223 C233 1.510 . S
C224 C220 1.401 . S
C224 C223 1.396 . S
C225 C220 1.499 . S
C225 H226 0.959 . S
C225 H227 0.960 . S
C225 H228 0.961 . S
H226 C225 0.959 . S
H227 C225 0.960 . S
H228 C225 0.961 . S
O229 Co204 1.967 . S
O229 C237 1.258 . S
O230 Co205 1.941 . S
O230 C237 1.266 . S
H231 C233 0.959 . S
H232 C233 0.961 . S
C233 C223 1.510 . S
C233 H231 0.959 . S
C233 H232 0.961 . S
C233 H234 0.960 . S
H234 C233 0.960 . S
H235 N215 0.862 . S
O236 Co204 1.920 . S
O236 C209 1.289 . S
C237 O229 1.258 . S
C237 O230 1.266 . S
Co238 O241 1.970 . S
Co238 N255 1.989 . S
Co238 O263 1.967 . S
Co238 O270 1.920 . S
Co239 O242 1.966 . S
Co239 N248 2.022 . S
Co239 N256 1.993 . S
Co239 O264 1.941 . S
C240 O241 1.258 . S
C240 O242 1.263 . S
O241 Co238 1.970 . S
O241 C240 1.258 . S
O242 Co239 1.966 . S
O242 C240 1.263 . S
C243 O244 1.235 . S
C243 O270 1.289 . S
O244 C243 1.235 . S
C245 C247 1.400 . S
C245 N248 1.351 1_455 S
C245 C250 1.501 1_455 S
C246 C247 1.387 . S
C246 N249 1.341 1_455 S
C247 C245 1.400 . S
C247 C246 1.387 . S
N248 Co239 2.022 . S
N248 C245 1.351 1_655 S
N248 N249 1.365 . S
N249 C246 1.341 1_655 S
N249 N248 1.365 . S
N249 H269 0.862 . S
C250 C245 1.501 1_655 S
C250 H251 0.961 . S
C250 H252 0.961 1_655 S
C250 H253 0.960 1_655 S
H251 C250 0.961 . S
H252 C250 0.961 1_455 S
H253 C250 0.960 1_455 S
C254 N255 1.342 . S
C254 C258 1.401 . S
C254 C259 1.499 . S
N255 Co238 1.989 . S
N255 C254 1.342 . S
N255 N256 1.388 . S
N256 Co239 1.993 . S
N256 N255 1.388 . S
N256 C257 1.346 . S
C257 N256 1.346 . S
C257 C258 1.396 . S
C257 C267 1.510 . S
C258 C254 1.401 . S
C258 C257 1.396 . S
C259 C254 1.499 . S
C259 H260 0.959 . S
C259 H261 0.960 . S
C259 H262 0.961 . S
H260 C259 0.959 . S
H261 C259 0.960 . S
H262 C259 0.961 . S
O263 Co238 1.967 . S
O263 C271 1.258 . S
O264 Co239 1.941 . S
O264 C271 1.266 . S
H265 C267 0.959 . S
H266 C267 0.961 . S
C267 C257 1.510 . S
C267 H265 0.959 . S
C267 H266 0.961 . S
C267 H268 0.960 . S
H268 C267 0.960 . S
H269 N249 0.862 . S
O270 Co238 1.920 . S
O270 C243 1.289 . S
C271 O263 1.258 . S
C271 O264 1.266 . S
Co272 O275 1.970 . S
Co272 N289 1.989 . S
Co272 O297 1.967 . S
Co272 O304 1.920 . S
Co273 O276 1.966 . S
Co273 N282 2.022 . S
Co273 N290 1.993 . S
Co273 O298 1.941 . S
C274 O275 1.258 . S
C274 O276 1.263 . S
O275 Co272 1.970 . S
O275 C274 1.258 . S
O276 Co273 1.966 . S
O276 C274 1.263 . S
C277 O278 1.235 . S
C277 O304 1.289 . S
O278 C277 1.235 . S
C279 C281 1.400 . S
C279 N282 1.351 . S
C279 C284 1.501 . S
C280 C281 1.387 . S
C280 N283 1.341 . S
C281 C279 1.400 . S
C281 C280 1.387 . S
N282 Co273 2.022 . S
N282 C279 1.351 . S
N282 N283 1.365 . S
N283 C280 1.341 . S
N283 N282 1.365 . S
N283 H303 0.862 . S
C284 C279 1.501 . S
C284 H285 0.961 . S
C284 H286 0.961 . S
C284 H287 0.960 . S
H285 C284 0.961 . S
H286 C284 0.961 . S
H287 C284 0.960 . S
C288 N289 1.342 . S
C288 C292 1.401 . S
C288 C293 1.499 . S
N289 Co272 1.989 . S
N289 C288 1.342 . S
N289 N290 1.388 . S
N290 Co273 1.993 . S
N290 N289 1.388 . S
N290 C291 1.346 . S
C291 N290 1.346 . S
C291 C292 1.396 . S
C291 C301 1.510 . S
C292 C288 1.401 . S
C292 C291 1.396 . S
C293 C288 1.499 . S
C293 H294 0.959 . S
C293 H295 0.960 . S
C293 H296 0.961 . S
H294 C293 0.959 . S
H295 C293 0.960 . S
H296 C293 0.961 . S
O297 Co272 1.967 . S
O297 C305 1.258 . S
O298 Co273 1.941 . S
O298 C305 1.266 . S
H299 C301 0.959 . S
H300 C301 0.961 . S
C301 C291 1.510 . S
C301 H299 0.959 . S
C301 H300 0.961 . S
C301 H302 0.960 . S
H302 C301 0.960 . S
H303 N283 0.862 . S
O304 Co272 1.920 . S
O304 C277 1.289 . S
C305 O297 1.258 . S
C305 O298 1.266 . S
Co306 O309 1.970 . S
Co306 N323 1.989 . S
Co306 O331 1.967 . S
Co306 O338 1.920 . S
Co307 O310 1.966 . S
Co307 N316 2.022 . S
Co307 N324 1.993 . S
Co307 O332 1.941 . S
C308 O309 1.258 . S
C308 O310 1.263 . S
O309 Co306 1.970 . S
O309 C308 1.258 . S
O310 Co307 1.966 . S
O310 C308 1.263 . S
C311 O312 1.235 . S
C311 O338 1.289 . S
O312 C311 1.235 . S
C313 C315 1.400 . S
C313 N316 1.351 . S
C313 C318 1.501 . S
C314 C315 1.387 . S
C314 N317 1.341 . S
C315 C313 1.400 . S
C315 C314 1.387 . S
N316 Co307 2.022 . S
N316 C313 1.351 . S
N316 N317 1.365 . S
N317 C314 1.341 . S
N317 N316 1.365 . S
N317 H337 0.862 . S
C318 C313 1.501 . S
C318 H319 0.961 . S
C318 H320 0.961 . S
C318 H321 0.960 . S
H319 C318 0.961 . S
H320 C318 0.961 . S
H321 C318 0.960 . S
C322 N323 1.342 . S
C322 C326 1.401 . S
C322 C327 1.499 . S
N323 Co306 1.989 . S
N323 C322 1.342 . S
N323 N324 1.388 . S
N324 Co307 1.993 . S
N324 N323 1.388 . S
N324 C325 1.346 . S
C325 N324 1.346 . S
C325 C326 1.396 . S
C325 C335 1.510 . S
C326 C322 1.401 . S
C326 C325 1.396 . S
C327 C322 1.499 . S
C327 H328 0.959 . S
C327 H329 0.960 . S
C327 H330 0.961 . S
H328 C327 0.959 . S
H329 C327 0.960 . S
H330 C327 0.961 . S
O331 Co306 1.967 . S
O331 C339 1.258 . S
O332 Co307 1.941 . S
O332 C339 1.266 . S
H333 C335 0.959 . S
H334 C335 0.961 . S
C335 C325 1.510 . S
C335 H333 0.959 . S
C335 H334 0.961 . S
C335 H336 0.960 . S
H336 C335 0.960 . S
H337 N317 0.862 . S
O338 Co306 1.920 . S
O338 C311 1.289 . S
C339 O331 1.258 . S
C339 O332 1.266 . S
Co340 O343 1.970 . S
Co340 N357 1.989 . S
Co340 O365 1.967 . S
Co340 O372 1.920 . S
Co341 O344 1.966 . S
Co341 N350 2.022 . S
Co341 N358 1.993 . S
Co341 O366 1.941 . S
C342 O343 1.258 . S
C342 O344 1.263 . S
O343 Co340 1.970 . S
O343 C342 1.258 . S
O344 Co341 1.966 . S
O344 C342 1.263 . S
C345 O346 1.235 . S
C345 O372 1.289 . S
O346 C345 1.235 . S
C347 C349 1.400 . S
C347 N350 1.351 . S
C347 C352 1.501 . S
C348 C349 1.387 . S
C348 N351 1.341 . S
C349 C347 1.400 . S
C349 C348 1.387 . S
N350 Co341 2.022 . S
N350 C347 1.351 . S
N350 N351 1.365 . S
N351 C348 1.341 . S
N351 N350 1.365 . S
N351 H371 0.862 . S
C352 C347 1.501 . S
C352 H353 0.961 . S
C352 H354 0.961 . S
C352 H355 0.960 . S
H353 C352 0.961 . S
H354 C352 0.961 . S
H355 C352 0.960 . S
C356 N357 1.342 . S
C356 C360 1.401 . S
C356 C361 1.499 . S
N357 Co340 1.989 . S
N357 C356 1.342 . S
N357 N358 1.388 . S
N358 Co341 1.993 . S
N358 N357 1.388 . S
N358 C359 1.346 . S
C359 N358 1.346 . S
C359 C360 1.396 . S
C359 C369 1.510 . S
C360 C356 1.401 . S
C360 C359 1.396 . S
C361 C356 1.499 . S
C361 H362 0.959 . S
C361 H363 0.960 . S
C361 H364 0.961 . S
H362 C361 0.959 . S
H363 C361 0.960 . S
H364 C361 0.961 . S
O365 Co340 1.967 . S
O365 C373 1.258 . S
O366 Co341 1.941 . S
O366 C373 1.266 . S
H367 C369 0.959 . S
H368 C369 0.961 . S
C369 C359 1.510 . S
C369 H367 0.959 . S
C369 H368 0.961 . S
C369 H370 0.960 . S
H370 C369 0.960 . S
H371 N351 0.862 . S
O372 Co340 1.920 . S
O372 C345 1.289 . S
C373 O365 1.258 . S
C373 O366 1.266 . S
Co374 O377 1.970 . S
Co374 N391 1.989 . S
Co374 O399 1.967 . S
Co374 O406 1.920 . S
Co375 O378 1.966 . S
Co375 N384 2.022 . S
Co375 N392 1.993 . S
Co375 O400 1.941 . S
C376 O377 1.258 . S
C376 O378 1.263 . S
O377 Co374 1.970 . S
O377 C376 1.258 . S
O378 Co375 1.966 . S
O378 C376 1.263 . S
C379 O380 1.235 . S
C379 O406 1.289 . S
O380 C379 1.235 . S
C381 C383 1.400 . S
C381 N384 1.351 . S
C381 C386 1.501 . S
C382 C383 1.387 . S
C382 N385 1.341 . S
C383 C381 1.400 . S
C383 C382 1.387 . S
N384 Co375 2.022 . S
N384 C381 1.351 . S
N384 N385 1.365 . S
N385 C382 1.341 . S
N385 N384 1.365 . S
N385 H405 0.862 . S
C386 C381 1.501 . S
C386 H387 0.961 . S
C386 H388 0.961 . S
C386 H389 0.960 . S
H387 C386 0.961 . S
H388 C386 0.961 . S
H389 C386 0.960 . S
C390 N391 1.342 . S
C390 C394 1.401 . S
C390 C395 1.499 . S
N391 Co374 1.989 . S
N391 C390 1.342 . S
N391 N392 1.388 . S
N392 Co375 1.993 . S
N392 N391 1.388 . S
N392 C393 1.346 . S
C393 N392 1.346 . S
C393 C394 1.396 . S
C393 C403 1.510 . S
C394 C390 1.401 . S
C394 C393 1.396 . S
C395 C390 1.499 . S
C395 H396 0.959 . S
C395 H397 0.960 . S
C395 H398 0.961 . S
H396 C395 0.959 . S
H397 C395 0.960 . S
H398 C395 0.961 . S
O399 Co374 1.967 . S
O399 C407 1.258 . S
O400 Co375 1.941 . S
O400 C407 1.266 . S
H401 C403 0.959 . S
H402 C403 0.961 . S
C403 C393 1.510 . S
C403 H401 0.959 . S
C403 H402 0.961 . S
C403 H404 0.960 . S
H404 C403 0.960 . S
H405 N385 0.862 . S
O406 Co374 1.920 . S
O406 C379 1.289 . S
C407 O399 1.258 . S
C407 O400 1.266 . S
Co408 O411 1.970 . S
Co408 N425 1.989 . S
Co408 O433 1.967 . S
Co408 O440 1.920 . S
Co409 O412 1.966 . S
Co409 N418 2.022 . S
Co409 N426 1.993 . S
Co409 O434 1.941 . S
C410 O411 1.258 . S
C410 O412 1.263 . S
O411 Co408 1.970 . S
O411 C410 1.258 . S
O412 Co409 1.966 . S
O412 C410 1.263 . S
C413 O414 1.235 . S
C413 O440 1.289 . S
O414 C413 1.235 . S
C415 C417 1.400 . S
C415 N418 1.351 . S
C415 C420 1.501 . S
C416 C417 1.387 . S
C416 N419 1.341 . S
C417 C415 1.400 . S
C417 C416 1.387 . S
N418 Co409 2.022 . S
N418 C415 1.351 . S
N418 N419 1.365 . S
N419 C416 1.341 . S
N419 N418 1.365 . S
N419 H439 0.862 . S
C420 C415 1.501 . S
C420 H421 0.961 . S
C420 H422 0.961 . S
C420 H423 0.960 . S
H421 C420 0.961 . S
H422 C420 0.961 . S
H423 C420 0.960 . S
C424 N425 1.342 . S
C424 C428 1.401 . S
C424 C429 1.499 . S
N425 Co408 1.989 . S
N425 C424 1.342 . S
N425 N426 1.388 . S
N426 Co409 1.993 . S
N426 N425 1.388 . S
N426 C427 1.346 . S
C427 N426 1.346 . S
C427 C428 1.396 . S
C427 C437 1.510 . S
C428 C424 1.401 . S
C428 C427 1.396 . S
C429 C424 1.499 . S
C429 H430 0.959 . S
C429 H431 0.960 . S
C429 H432 0.961 . S
H430 C429 0.959 . S
H431 C429 0.960 . S
H432 C429 0.961 . S
O433 Co408 1.967 . S
O433 C441 1.258 . S
O434 Co409 1.941 . S
O434 C441 1.266 . S
H435 C437 0.959 . S
H436 C437 0.961 . S
C437 C427 1.510 . S
C437 H435 0.959 . S
C437 H436 0.961 . S
C437 H438 0.960 . S
H438 C437 0.960 . S
H439 N419 0.862 . S
O440 Co408 1.920 . S
O440 C413 1.289 . S
C441 O433 1.258 . S
C441 O434 1.266 . S
Co442 O445 1.970 . S
Co442 N459 1.989 . S
Co442 O467 1.967 . S
Co442 O474 1.920 . S
Co443 O446 1.966 . S
Co443 N452 2.022 . S
Co443 N460 1.993 . S
Co443 O468 1.941 . S
C444 O445 1.258 . S
C444 O446 1.263 . S
O445 Co442 1.970 . S
O445 C444 1.258 . S
O446 Co443 1.966 . S
O446 C444 1.263 . S
C447 O448 1.235 . S
C447 O474 1.289 . S
O448 C447 1.235 . S
C449 C451 1.400 . S
C449 N452 1.351 . S
C449 C454 1.501 . S
C450 C451 1.387 . S
C450 N453 1.341 . S
C451 C449 1.400 . S
C451 C450 1.387 . S
N452 Co443 2.022 . S
N452 C449 1.351 . S
N452 N453 1.365 . S
N453 C450 1.341 . S
N453 N452 1.365 . S
N453 H473 0.862 . S
C454 C449 1.501 . S
C454 H455 0.961 . S
C454 H456 0.961 . S
C454 H457 0.960 . S
H455 C454 0.961 . S
H456 C454 0.961 . S
H457 C454 0.960 . S
C458 N459 1.342 . S
C458 C462 1.401 . S
C458 C463 1.499 . S
N459 Co442 1.989 . S
N459 C458 1.342 . S
N459 N460 1.388 . S
N460 Co443 1.993 . S
N460 N459 1.388 . S
N460 C461 1.346 . S
C461 N460 1.346 . S
C461 C462 1.396 . S
C461 C471 1.510 . S
C462 C458 1.401 . S
C462 C461 1.396 . S
C463 C458 1.499 . S
C463 H464 0.959 . S
C463 H465 0.960 . S
C463 H466 0.961 . S
H464 C463 0.959 . S
H465 C463 0.960 . S
H466 C463 0.961 . S
O467 Co442 1.967 . S
O467 C475 1.258 . S
O468 Co443 1.941 . S
O468 C475 1.266 . S
H469 C471 0.959 . S
H470 C471 0.961 . S
C471 C461 1.510 . S
C471 H469 0.959 . S
C471 H470 0.961 . S
C471 H472 0.960 . S
H472 C471 0.960 . S
H473 N453 0.862 . S
O474 Co442 1.920 . S
O474 C447 1.289 . S
C475 O467 1.258 . S
C475 O468 1.266 . S
Co476 O479 1.970 . S
Co476 N493 1.989 . S
Co476 O501 1.967 . S
Co476 O508 1.920 . S
Co477 O480 1.966 . S
Co477 N486 2.022 . S
Co477 N494 1.993 . S
Co477 O502 1.941 . S
C478 O479 1.258 . S
C478 O480 1.263 . S
O479 Co476 1.970 . S
O479 C478 1.258 . S
O480 Co477 1.966 . S
O480 C478 1.263 . S
C481 O482 1.235 . S
C481 O508 1.289 . S
O482 C481 1.235 . S
C483 C485 1.400 . S
C483 N486 1.351 . S
C483 C488 1.501 . S
C484 C485 1.387 . S
C484 N487 1.341 . S
C485 C483 1.400 . S
C485 C484 1.387 . S
N486 Co477 2.022 . S
N486 C483 1.351 . S
N486 N487 1.365 . S
N487 C484 1.341 . S
N487 N486 1.365 . S
N487 H507 0.862 . S
C488 C483 1.501 . S
C488 H489 0.961 . S
C488 H490 0.961 . S
C488 H491 0.960 . S
H489 C488 0.961 . S
H490 C488 0.961 . S
H491 C488 0.960 . S
C492 N493 1.342 . S
C492 C496 1.401 . S
C492 C497 1.499 . S
N493 Co476 1.989 . S
N493 C492 1.342 . S
N493 N494 1.388 . S
N494 Co477 1.993 . S
N494 N493 1.388 . S
N494 C495 1.346 . S
C495 N494 1.346 . S
C495 C496 1.396 . S
C495 C505 1.510 . S
C496 C492 1.401 . S
C496 C495 1.396 . S
C497 C492 1.499 . S
C497 H498 0.959 . S
C497 H499 0.960 . S
C497 H500 0.961 . S
H498 C497 0.959 . S
H499 C497 0.960 . S
H500 C497 0.961 . S
O501 Co476 1.967 . S
O501 C509 1.258 . S
O502 Co477 1.941 . S
O502 C509 1.266 . S
H503 C505 0.959 . S
H504 C505 0.961 . S
C505 C495 1.510 . S
C505 H503 0.959 . S
C505 H504 0.961 . S
C505 H506 0.960 . S
H506 C505 0.960 . S
H507 N487 0.862 . S
O508 Co476 1.920 . S
O508 C481 1.289 . S
C509 O501 1.258 . S
C509 O502 1.266 . S
Co510 O513 1.970 . S
Co510 N527 1.989 . S
Co510 O535 1.967 . S
Co510 O542 1.920 . S
Co511 O514 1.966 . S
Co511 N520 2.022 . S
Co511 N528 1.993 . S
Co511 O536 1.941 . S
C512 O513 1.258 . S
C512 O514 1.263 . S
O513 Co510 1.970 . S
O513 C512 1.258 . S
O514 Co511 1.966 . S
O514 C512 1.263 . S
C515 O516 1.235 . S
C515 O542 1.289 . S
O516 C515 1.235 . S
C517 C519 1.400 . S
C517 N520 1.351 . S
C517 C522 1.501 . S
C518 C519 1.387 . S
C518 N521 1.341 . S
C519 C517 1.400 . S
C519 C518 1.387 . S
N520 Co511 2.022 . S
N520 C517 1.351 . S
N520 N521 1.365 . S
N521 C518 1.341 . S
N521 N520 1.365 . S
N521 H541 0.862 . S
C522 C517 1.501 . S
C522 H523 0.961 . S
C522 H524 0.961 . S
C522 H525 0.960 . S
H523 C522 0.961 . S
H524 C522 0.961 . S
H525 C522 0.960 . S
C526 N527 1.342 . S
C526 C530 1.401 . S
C526 C531 1.499 . S
N527 Co510 1.989 . S
N527 C526 1.342 . S
N527 N528 1.388 . S
N528 Co511 1.993 . S
N528 N527 1.388 . S
N528 C529 1.346 . S
C529 N528 1.346 . S
C529 C530 1.396 . S
C529 C539 1.510 . S
C530 C526 1.401 . S
C530 C529 1.396 . S
C531 C526 1.499 . S
C531 H532 0.959 . S
C531 H533 0.960 . S
C531 H534 0.961 . S
H532 C531 0.959 . S
H533 C531 0.960 . S
H534 C531 0.961 . S
O535 Co510 1.967 . S
O535 C543 1.258 . S
O536 Co511 1.941 . S
O536 C543 1.266 . S
H537 C539 0.959 . S
H538 C539 0.961 . S
C539 C529 1.510 . S
C539 H537 0.959 . S
C539 H538 0.961 . S
C539 H540 0.960 . S
H540 C539 0.960 . S
H541 N521 0.862 . S
O542 Co510 1.920 . S
O542 C515 1.289 . S
C543 O535 1.258 . S
C543 O536 1.266 . S
H544 C552 0.929 . S
H545 C554 0.930 . S
H546 C556 0.930 . S
H547 C559 0.929 . S
H548 C562 0.930 . S
H549 C564 0.960 . S
H550 C564 0.960 . S
H551 C564 0.960 . S
C552 H544 0.929 . S
C552 C553 1.377 . S
C552 C554 1.384 . S
C553 C552 1.377 . S
C553 C559 1.390 . S
C554 H545 0.930 . S
C554 C552 1.384 . S
C554 C555 1.372 . S
C555 C554 1.372 . S
C555 C556 1.400 . S
C555 C560 1.490 . S
C556 H546 0.930 . S
C556 C555 1.400 . S
C556 C559 1.386 . S
H557 C573 0.930 . S
H558 C574 0.931 . S
C559 H547 0.929 . S
C559 C553 1.390 . S
C559 C556 1.386 . S
C560 C555 1.490 . S
C560 C562 1.395 . S
C560 C563 1.403 . S
H561 C567 0.930 . S
C562 H548 0.930 . S
C562 C560 1.395 . S
C562 C565 1.403 . S
C563 C560 1.403 . S
C563 C564 1.524 . S
C563 C567 1.400 . S
C564 H549 0.960 . S
C564 H550 0.960 . S
C564 H551 0.960 . S
C564 C563 1.524 . S
C565 C562 1.403 . S
C565 C566 1.392 . S
C565 C569 1.495 . S
C566 C565 1.392 . S
C566 C567 1.385 . S
C566 C568 1.478 . S
C567 H561 0.930 . S
C567 C563 1.400 . S
C567 C566 1.385 . S
C568 C566 1.478 . S
C568 C570 1.381 . S
C568 C574 1.383 . S
C569 C565 1.495 . S
C569 H575 0.959 . S
C569 H576 0.961 . S
C569 H577 0.960 . S
C570 C568 1.381 . S
C570 C571 1.394 . S
C570 H578 0.930 . S
C571 C570 1.394 . S
C571 C572 1.383 . S
C571 H579 0.929 . S
C572 C571 1.383 . S
C572 C573 1.377 . S
C573 H557 0.930 . S
C573 C572 1.377 . S
C573 C574 1.379 . S
C574 H558 0.931 . S
C574 C568 1.383 . S
C574 C573 1.379 . S
H575 C569 0.959 . S
H576 C569 0.961 . S
H577 C569 0.960 . S
H578 C570 0.930 . S
H579 C571 0.929 . S
H580 C588 0.929 . S
H581 C590 0.930 . S
H582 C592 0.930 . S
H583 C595 0.929 . S
H584 C598 0.930 . S
H585 C600 0.960 . S
H586 C600 0.960 . S
H587 C600 0.960 . S
C588 H580 0.929 . S
C588 C589 1.377 . S
C588 C590 1.384 . S
C589 C588 1.377 . S
C589 C595 1.390 . S
C590 H581 0.930 . S
C590 C588 1.384 . S
C590 C591 1.372 . S
C591 C590 1.372 . S
C591 C592 1.400 . S
C591 C596 1.490 . S
C592 H582 0.930 . S
C592 C591 1.400 . S
C592 C595 1.386 . S
H593 C609 0.930 . S
H594 C610 0.931 . S
C595 H583 0.929 . S
C595 C589 1.390 . S
C595 C592 1.386 . S
C596 C591 1.490 . S
C596 C598 1.395 . S
C596 C599 1.403 . S
H597 C603 0.930 . S
C598 H584 0.930 . S
C598 C596 1.395 . S
C598 C601 1.403 . S
C599 C596 1.403 . S
C599 C600 1.524 . S
C599 C603 1.400 . S
C600 H585 0.960 . S
C600 H586 0.960 . S
C600 H587 0.960 . S
C600 C599 1.524 . S
C601 C598 1.403 . S
C601 C602 1.392 . S
C601 C605 1.495 . S
C602 C601 1.392 . S
C602 C603 1.385 . S
C602 C604 1.478 . S
C603 H597 0.930 . S
C603 C599 1.400 . S
C603 C602 1.385 . S
C604 C602 1.478 . S
C604 C606 1.381 . S
C604 C610 1.383 . S
C605 C601 1.495 . S
C605 H611 0.959 . S
C605 H612 0.961 . S
C605 H613 0.960 . S
C606 C604 1.381 . S
C606 C607 1.394 . S
C606 H614 0.930 . S
C607 C606 1.394 . S
C607 C608 1.383 . S
C607 H615 0.929 . S
C608 C607 1.383 . S
C608 C609 1.377 . S
C609 H593 0.930 . S
C609 C608 1.377 . S
C609 C610 1.379 . S
C610 H594 0.931 . S
C610 C604 1.383 . S
C610 C609 1.379 . S
H611 C605 0.959 . S
H612 C605 0.961 . S
H613 C605 0.960 . S
H614 C606 0.930 . S
H615 C607 0.929 . S
H616 C624 0.929 . S
H617 C626 0.930 . S
H618 C628 0.930 . S
H619 C631 0.929 . S
H620 C634 0.930 . S
H621 C636 0.960 . S
H622 C636 0.960 . S
H623 C636 0.960 . S
C624 H616 0.929 . S
C624 C625 1.377 . S
C624 C626 1.384 . S
C625 C624 1.377 . S
C625 C631 1.390 . S
C626 H617 0.930 . S
C626 C624 1.384 . S
C626 C627 1.372 . S
C627 C626 1.372 . S
C627 C628 1.400 . S
C627 C632 1.490 . S
C628 H618 0.930 . S
C628 C627 1.400 . S
C628 C631 1.386 . S
H629 C645 0.930 . S
H630 C646 0.931 . S
C631 H619 0.929 . S
C631 C625 1.390 . S
C631 C628 1.386 . S
C632 C627 1.490 . S
C632 C634 1.395 . S
C632 C635 1.403 . S
H633 C639 0.930 . S
C634 H620 0.930 . S
C634 C632 1.395 . S
C634 C637 1.403 . S
C635 C632 1.403 . S
C635 C636 1.524 . S
C635 C639 1.400 . S
C636 H621 0.960 . S
C636 H622 0.960 . S
C636 H623 0.960 . S
C636 C635 1.524 . S
C637 C634 1.403 . S
C637 C638 1.392 . S
C637 C641 1.495 . S
C638 C637 1.392 . S
C638 C639 1.385 . S
C638 C640 1.478 . S
C639 H633 0.930 . S
C639 C635 1.400 . S
C639 C638 1.385 . S
C640 C638 1.478 . S
C640 C642 1.381 . S
C640 C646 1.383 . S
C641 C637 1.495 . S
C641 H647 0.959 . S
C641 H648 0.961 . S
C641 H649 0.960 . S
C642 C640 1.381 . S
C642 C643 1.394 . S
C642 H650 0.930 . S
C643 C642 1.394 . S
C643 C644 1.383 . S
C643 H651 0.929 . S
C644 C643 1.383 . S
C644 C645 1.377 . S
C645 H629 0.930 . S
C645 C644 1.377 . S
C645 C646 1.379 . S
C646 H630 0.931 . S
C646 C640 1.383 . S
C646 C645 1.379 . S
H647 C641 0.959 . S
H648 C641 0.961 . S
H649 C641 0.960 . S
H650 C642 0.930 . S
H651 C643 0.929 . S
H652 C660 0.929 . S
H653 C662 0.930 . S
H654 C664 0.930 . S
H655 C667 0.929 . S
H656 C670 0.930 . S
H657 C672 0.960 . S
H658 C672 0.960 . S
H659 C672 0.960 . S
C660 H652 0.929 . S
C660 C661 1.377 . S
C660 C662 1.384 . S
C661 C660 1.377 . S
C661 C667 1.390 . S
C662 H653 0.930 . S
C662 C660 1.384 . S
C662 C663 1.372 . S
C663 C662 1.372 . S
C663 C664 1.400 . S
C663 C668 1.490 . S
C664 H654 0.930 . S
C664 C663 1.400 . S
C664 C667 1.386 . S
H665 C681 0.930 . S
H666 C682 0.931 . S
C667 H655 0.929 . S
C667 C661 1.390 . S
C667 C664 1.386 . S
C668 C663 1.490 . S
C668 C670 1.395 . S
C668 C671 1.403 . S
H669 C675 0.930 . S
C670 H656 0.930 . S
C670 C668 1.395 . S
C670 C673 1.403 . S
C671 C668 1.403 . S
C671 C672 1.524 . S
C671 C675 1.400 . S
C672 H657 0.960 . S
C672 H658 0.960 . S
C672 H659 0.960 . S
C672 C671 1.524 . S
C673 C670 1.403 . S
C673 C674 1.392 . S
C673 C677 1.495 . S
C674 C673 1.392 . S
C674 C675 1.385 . S
C674 C676 1.478 . S
C675 H669 0.930 . S
C675 C671 1.400 . S
C675 C674 1.385 . S
C676 C674 1.478 . S
C676 C678 1.381 . S
C676 C682 1.383 . S
C677 C673 1.495 . S
C677 H683 0.959 . S
C677 H684 0.961 . S
C677 H685 0.960 . S
C678 C676 1.381 . S
C678 C679 1.394 . S
C678 H686 0.930 . S
C679 C678 1.394 . S
C679 C680 1.383 . S
C679 H687 0.929 . S
C680 C679 1.383 . S
C680 C681 1.377 . S
C681 H665 0.930 . S
C681 C680 1.377 . S
C681 C682 1.379 . S
C682 H666 0.931 . S
C682 C676 1.383 . S
C682 C681 1.379 . S
H683 C677 0.959 . S
H684 C677 0.961 . S
H685 C677 0.960 . S
H686 C678 0.930 . S
H687 C679 0.929 . S
H688 C696 0.929 . S
H689 C698 0.930 . S
H690 C700 0.930 . S
H691 C703 0.929 . S
H692 C706 0.930 . S
H693 C708 0.960 . S
H694 C708 0.960 . S
H695 C708 0.960 . S
C696 H688 0.929 . S
C696 C697 1.377 . S
C696 C698 1.384 . S
C697 C696 1.377 . S
C697 C703 1.390 . S
C698 H689 0.930 . S
C698 C696 1.384 . S
C698 C699 1.372 . S
C699 C698 1.372 . S
C699 C700 1.400 . S
C699 C704 1.490 . S
C700 H690 0.930 . S
C700 C699 1.400 . S
C700 C703 1.386 . S
H701 C717 0.930 . S
H702 C718 0.931 . S
C703 H691 0.929 . S
C703 C697 1.390 . S
C703 C700 1.386 . S
C704 C699 1.490 . S
C704 C706 1.395 . S
C704 C707 1.403 . S
H705 C711 0.930 . S
C706 H692 0.930 . S
C706 C704 1.395 . S
C706 C709 1.403 . S
C707 C704 1.403 . S
C707 C708 1.524 . S
C707 C711 1.400 . S
C708 H693 0.960 . S
C708 H694 0.960 . S
C708 H695 0.960 . S
C708 C707 1.524 . S
C709 C706 1.403 . S
C709 C710 1.392 . S
C709 C713 1.495 . S
C710 C709 1.392 . S
C710 C711 1.385 . S
C710 C712 1.478 . S
C711 H705 0.930 . S
C711 C707 1.400 . S
C711 C710 1.385 . S
C712 C710 1.478 . S
C712 C714 1.381 . S
C712 C718 1.383 . S
C713 C709 1.495 . S
C713 H719 0.959 . S
C713 H720 0.961 . S
C713 H721 0.960 . S
C714 C712 1.381 . S
C714 C715 1.394 . S
C714 H722 0.930 . S
C715 C714 1.394 . S
C715 C716 1.383 . S
C715 H723 0.929 . S
C716 C715 1.383 . S
C716 C717 1.377 . S
C717 H701 0.930 . S
C717 C716 1.377 . S
C717 C718 1.379 . S
C718 H702 0.931 . S
C718 C712 1.383 . S
C718 C717 1.379 . S
H719 C713 0.959 . S
H720 C713 0.961 . S
H721 C713 0.960 . S
H722 C714 0.930 . S
H723 C715 0.929 . S
H724 C732 0.929 . S
H725 C734 0.930 . S
H726 C736 0.930 . S
H727 C739 0.929 . S
H728 C742 0.930 . S
H729 C744 0.960 . S
H730 C744 0.960 . S
H731 C744 0.960 . S
C732 H724 0.929 . S
C732 C733 1.377 . S
C732 C734 1.384 . S
C733 C732 1.377 . S
C733 C739 1.390 . S
C734 H725 0.930 . S
C734 C732 1.384 . S
C734 C735 1.372 . S
C735 C734 1.372 . S
C735 C736 1.400 . S
C735 C740 1.490 . S
C736 H726 0.930 . S
C736 C735 1.400 . S
C736 C739 1.386 . S
H737 C753 0.930 . S
H738 C754 0.931 . S
C739 H727 0.929 . S
C739 C733 1.390 . S
C739 C736 1.386 . S
C740 C735 1.490 . S
C740 C742 1.395 . S
C740 C743 1.403 . S
H741 C747 0.930 . S
C742 H728 0.930 . S
C742 C740 1.395 . S
C742 C745 1.403 . S
C743 C740 1.403 . S
C743 C744 1.524 . S
C743 C747 1.400 . S
C744 H729 0.960 . S
C744 H730 0.960 . S
C744 H731 0.960 . S
C744 C743 1.524 . S
C745 C742 1.403 . S
C745 C746 1.392 . S
C745 C749 1.495 . S
C746 C745 1.392 . S
C746 C747 1.385 . S
C746 C748 1.478 . S
C747 H741 0.930 . S
C747 C743 1.400 . S
C747 C746 1.385 . S
C748 C746 1.478 . S
C748 C750 1.381 . S
C748 C754 1.383 . S
C749 C745 1.495 . S
C749 H755 0.959 . S
C749 H756 0.961 . S
C749 H757 0.960 . S
C750 C748 1.381 . S
C750 C751 1.394 . S
C750 H758 0.930 . S
C751 C750 1.394 . S
C751 C752 1.383 . S
C751 H759 0.929 . S
C752 C751 1.383 . S
C752 C753 1.377 . S
C753 H737 0.930 . S
C753 C752 1.377 . S
C753 C754 1.379 . S
C754 H738 0.931 . S
C754 C748 1.383 . S
C754 C753 1.379 . S
H755 C749 0.959 . S
H756 C749 0.961 . S
H757 C749 0.960 . S
H758 C750 0.930 . S
H759 C751 0.929 . S
H760 C768 0.929 . S
H761 C770 0.930 . S
H762 C772 0.930 . S
H763 C775 0.929 . S
H764 C778 0.930 . S
H765 C780 0.960 . S
H766 C780 0.960 . S
H767 C780 0.960 . S
C768 H760 0.929 . S
C768 C769 1.377 . S
C768 C770 1.384 . S
C769 C768 1.377 . S
C769 C775 1.390 . S
C770 H761 0.930 . S
C770 C768 1.384 . S
C770 C771 1.372 . S
C771 C770 1.372 . S
C771 C772 1.400 . S
C771 C776 1.490 . S
C772 H762 0.930 . S
C772 C771 1.400 . S
C772 C775 1.386 . S
H773 C789 0.930 . S
H774 C790 0.931 . S
C775 H763 0.929 . S
C775 C769 1.390 . S
C775 C772 1.386 . S
C776 C771 1.490 . S
C776 C778 1.395 . S
C776 C779 1.403 . S
H777 C783 0.930 . S
C778 H764 0.930 . S
C778 C776 1.395 . S
C778 C781 1.403 . S
C779 C776 1.403 . S
C779 C780 1.524 . S
C779 C783 1.400 . S
C780 H765 0.960 . S
C780 H766 0.960 . S
C780 H767 0.960 . S
C780 C779 1.524 . S
C781 C778 1.403 . S
C781 C782 1.392 . S
C781 C785 1.495 . S
C782 C781 1.392 . S
C782 C783 1.385 . S
C782 C784 1.478 . S
C783 H777 0.930 . S
C783 C779 1.400 . S
C783 C782 1.385 . S
C784 C782 1.478 . S
C784 C786 1.381 . S
C784 C790 1.383 . S
C785 C781 1.495 . S
C785 H791 0.959 . S
C785 H792 0.961 . S
C785 H793 0.960 . S
C786 C784 1.381 . S
C786 C787 1.394 . S
C786 H794 0.930 . S
C787 C786 1.394 . S
C787 C788 1.383 . S
C787 H795 0.929 . S
C788 C787 1.383 . S
C788 C789 1.377 . S
C789 H773 0.930 . S
C789 C788 1.377 . S
C789 C790 1.379 . S
C790 H774 0.931 . S
C790 C784 1.383 . S
C790 C789 1.379 . S
H791 C785 0.959 . S
H792 C785 0.961 . S
H793 C785 0.960 . S
H794 C786 0.930 . S
H795 C787 0.929 . S
H796 C804 0.929 . S
H797 C806 0.930 . S
H798 C808 0.930 . S
H799 C811 0.929 . S
H800 C814 0.930 . S
H801 C816 0.960 . S
H802 C816 0.960 . S
H803 C816 0.960 . S
C804 H796 0.929 . S
C804 C805 1.377 . S
C804 C806 1.384 . S
C805 C804 1.377 . S
C805 C811 1.390 . S
C806 H797 0.930 . S
C806 C804 1.384 . S
C806 C807 1.372 . S
C807 C806 1.372 . S
C807 C808 1.400 . S
C807 C812 1.490 . S
C808 H798 0.930 . S
C808 C807 1.400 . S
C808 C811 1.386 . S
H809 C825 0.930 . S
H810 C826 0.931 . S
C811 H799 0.929 . S
C811 C805 1.390 . S
C811 C808 1.386 . S
C812 C807 1.490 . S
C812 C814 1.395 . S
C812 C815 1.403 . S
H813 C819 0.930 . S
C814 H800 0.930 . S
C814 C812 1.395 . S
C814 C817 1.403 . S
C815 C812 1.403 . S
C815 C816 1.524 . S
C815 C819 1.400 . S
C816 H801 0.960 . S
C816 H802 0.960 . S
C816 H803 0.960 . S
C816 C815 1.524 . S
C817 C814 1.403 . S
C817 C818 1.392 . S
C817 C821 1.495 . S
C818 C817 1.392 . S
C818 C819 1.385 . S
C818 C820 1.478 . S
C819 H813 0.930 . S
C819 C815 1.400 . S
C819 C818 1.385 . S
C820 C818 1.478 . S
C820 C822 1.381 . S
C820 C826 1.383 . S
C821 C817 1.495 . S
C821 H827 0.959 . S
C821 H828 0.961 . S
C821 H829 0.960 . S
C822 C820 1.381 . S
C822 C823 1.394 . S
C822 H830 0.930 . S
C823 C822 1.394 . S
C823 C824 1.383 . S
C823 H831 0.929 . S
C824 C823 1.383 . S
C824 C825 1.377 . S
C825 H809 0.930 . S
C825 C824 1.377 . S
C825 C826 1.379 . S
C826 H810 0.931 . S
C826 C820 1.383 . S
C826 C825 1.379 . S
H827 C821 0.959 . S
H828 C821 0.961 . S
H829 C821 0.960 . S
H830 C822 0.930 . S
H831 C823 0.929 . S
H832 C840 0.929 . S
H833 C842 0.930 . S
H834 C844 0.930 . S
H835 C847 0.929 . S
H836 C850 0.930 . S
H837 C852 0.960 . S
H838 C852 0.960 . S
H839 C852 0.960 . S
C840 H832 0.929 . S
C840 C841 1.377 . S
C840 C842 1.384 . S
C841 C840 1.377 . S
C841 C847 1.390 . S
C842 H833 0.930 . S
C842 C840 1.384 . S
C842 C843 1.372 . S
C843 C842 1.372 . S
C843 C844 1.400 . S
C843 C848 1.490 . S
C844 H834 0.930 . S
C844 C843 1.400 . S
C844 C847 1.386 . S
H845 C861 0.930 . S
H846 C862 0.931 . S
C847 H835 0.929 . S
C847 C841 1.390 . S
C847 C844 1.386 . S
C848 C843 1.490 . S
C848 C850 1.395 . S
C848 C851 1.403 . S
H849 C855 0.930 . S
C850 H836 0.930 . S
C850 C848 1.395 . S
C850 C853 1.403 . S
C851 C848 1.403 . S
C851 C852 1.524 . S
C851 C855 1.400 . S
C852 H837 0.960 . S
C852 H838 0.960 . S
C852 H839 0.960 . S
C852 C851 1.524 . S
C853 C850 1.403 . S
C853 C854 1.392 . S
C853 C857 1.495 . S
C854 C853 1.392 . S
C854 C855 1.385 . S
C854 C856 1.478 . S
C855 H849 0.930 . S
C855 C851 1.400 . S
C855 C854 1.385 . S
C856 C854 1.478 . S
C856 C858 1.381 . S
C856 C862 1.383 . S
C857 C853 1.495 . S
C857 H863 0.959 . S
C857 H864 0.961 . S
C857 H865 0.960 . S
C858 C856 1.381 . S
C858 C859 1.394 . S
C858 H866 0.930 . S
C859 C858 1.394 . S
C859 C860 1.383 . S
C859 H867 0.929 . S
C860 C859 1.383 . S
C860 C861 1.377 . S
C861 H845 0.930 . S
C861 C860 1.377 . S
C861 C862 1.379 . S
C862 H846 0.931 . S
C862 C856 1.383 . S
C862 C861 1.379 . S
H863 C857 0.959 . S
H864 C857 0.961 . S
H865 C857 0.960 . S
H866 C858 0.930 . S
H867 C859 0.929 . S
H868 C876 0.929 . S
H869 C878 0.930 . S
H870 C880 0.930 . S
H871 C883 0.929 . S
H872 C886 0.930 . S
H873 C888 0.960 . S
H874 C888 0.960 . S
H875 C888 0.960 . S
C876 H868 0.929 . S
C876 C877 1.377 . S
C876 C878 1.384 . S
C877 C876 1.377 . S
C877 C883 1.390 . S
C878 H869 0.930 . S
C878 C876 1.384 . S
C878 C879 1.372 . S
C879 C878 1.372 . S
C879 C880 1.400 . S
C879 C884 1.490 . S
C880 H870 0.930 . S
C880 C879 1.400 . S
C880 C883 1.386 . S
H881 C897 0.930 . S
H882 C898 0.931 . S
C883 H871 0.929 . S
C883 C877 1.390 . S
C883 C880 1.386 . S
C884 C879 1.490 . S
C884 C886 1.395 . S
C884 C887 1.403 . S
H885 C891 0.930 . S
C886 H872 0.930 . S
C886 C884 1.395 . S
C886 C889 1.403 . S
C887 C884 1.403 . S
C887 C888 1.524 . S
C887 C891 1.400 . S
C888 H873 0.960 . S
C888 H874 0.960 . S
C888 H875 0.960 . S
C888 C887 1.524 . S
C889 C886 1.403 . S
C889 C890 1.392 . S
C889 C893 1.495 . S
C890 C889 1.392 . S
C890 C891 1.385 . S
C890 C892 1.478 . S
C891 H885 0.930 . S
C891 C887 1.400 . S
C891 C890 1.385 . S
C892 C890 1.478 . S
C892 C894 1.381 . S
C892 C898 1.383 . S
C893 C889 1.495 . S
C893 H899 0.959 . S
C893 H900 0.961 . S
C893 H901 0.960 . S
C894 C892 1.381 . S
C894 C895 1.394 . S
C894 H902 0.930 . S
C895 C894 1.394 . S
C895 C896 1.383 . S
C895 H903 0.929 . S
C896 C895 1.383 . S
C896 C897 1.377 . S
C897 H881 0.930 . S
C897 C896 1.377 . S
C897 C898 1.379 . S
C898 H882 0.931 . S
C898 C892 1.383 . S
C898 C897 1.379 . S
H899 C893 0.959 . S
H900 C893 0.961 . S
H901 C893 0.960 . S
H902 C894 0.930 . S
H903 C895 0.929 . S
H904 C912 0.929 . S
H905 C914 0.930 . S
H906 C916 0.930 . S
H907 C919 0.929 . S
H908 C922 0.930 . S
H909 C924 0.960 . S
H910 C924 0.960 . S
H911 C924 0.960 . S
C912 H904 0.929 . S
C912 C913 1.377 . S
C912 C914 1.384 . S
C913 C912 1.377 . S
C913 C919 1.390 . S
C914 H905 0.930 . S
C914 C912 1.384 . S
C914 C915 1.372 . S
C915 C914 1.372 . S
C915 C916 1.400 . S
C915 C920 1.490 . S
C916 H906 0.930 . S
C916 C915 1.400 . S
C916 C919 1.386 . S
H917 C933 0.930 . S
H918 C934 0.931 . S
C919 H907 0.929 . S
C919 C913 1.390 . S
C919 C916 1.386 . S
C920 C915 1.490 . S
C920 C922 1.395 . S
C920 C923 1.403 . S
H921 C927 0.930 . S
C922 H908 0.930 . S
C922 C920 1.395 . S
C922 C925 1.403 . S
C923 C920 1.403 . S
C923 C924 1.524 . S
C923 C927 1.400 . S
C924 H909 0.960 . S
C924 H910 0.960 . S
C924 H911 0.960 . S
C924 C923 1.524 . S
C925 C922 1.403 . S
C925 C926 1.392 . S
C925 C929 1.495 . S
C926 C925 1.392 . S
C926 C927 1.385 . S
C926 C928 1.478 . S
C927 H921 0.930 . S
C927 C923 1.400 . S
C927 C926 1.385 . S
C928 C926 1.478 . S
C928 C930 1.381 . S
C928 C934 1.383 . S
C929 C925 1.495 . S
C929 H935 0.959 . S
C929 H936 0.961 . S
C929 H937 0.960 . S
C930 C928 1.381 . S
C930 C931 1.394 . S
C930 H938 0.930 . S
C931 C930 1.394 . S
C931 C932 1.383 . S
C931 H939 0.929 . S
C932 C931 1.383 . S
C932 C933 1.377 . S
C933 H917 0.930 . S
C933 C932 1.377 . S
C933 C934 1.379 . S
C934 H918 0.931 . S
C934 C928 1.383 . S
C934 C933 1.379 . S
H935 C929 0.959 . S
H936 C929 0.961 . S
H937 C929 0.960 . S
H938 C930 0.930 . S
H939 C931 0.929 . S
H940 C948 0.929 . S
H941 C950 0.930 . S
H942 C952 0.930 . S
H943 C955 0.929 . S
H944 C958 0.930 . S
H945 C960 0.960 . S
H946 C960 0.960 . S
H947 C960 0.960 . S
C948 H940 0.929 . S
C948 C949 1.377 . S
C948 C950 1.384 . S
C949 C948 1.377 . S
C949 C955 1.390 . S
C950 H941 0.930 . S
C950 C948 1.384 . S
C950 C951 1.372 . S
C951 C950 1.372 . S
C951 C952 1.400 . S
C951 C956 1.490 . S
C952 H942 0.930 . S
C952 C951 1.400 . S
C952 C955 1.386 . S
H953 C969 0.930 . S
H954 C970 0.931 . S
C955 H943 0.929 . S
C955 C949 1.390 . S
C955 C952 1.386 . S
C956 C951 1.490 . S
C956 C958 1.395 . S
C956 C959 1.403 . S
H957 C963 0.930 . S
C958 H944 0.930 . S
C958 C956 1.395 . S
C958 C961 1.403 . S
C959 C956 1.403 . S
C959 C960 1.524 . S
C959 C963 1.400 . S
C960 H945 0.960 . S
C960 H946 0.960 . S
C960 H947 0.960 . S
C960 C959 1.524 . S
C961 C958 1.403 . S
C961 C962 1.392 . S
C961 C965 1.495 . S
C962 C961 1.392 . S
C962 C963 1.385 . S
C962 C964 1.478 . S
C963 H957 0.930 . S
C963 C959 1.400 . S
C963 C962 1.385 . S
C964 C962 1.478 . S
C964 C966 1.381 . S
C964 C970 1.383 . S
C965 C961 1.495 . S
C965 H971 0.959 . S
C965 H972 0.961 . S
C965 H973 0.960 . S
C966 C964 1.381 . S
C966 C967 1.394 . S
C966 H974 0.930 . S
C967 C966 1.394 . S
C967 C968 1.383 . S
C967 H975 0.929 . S
C968 C967 1.383 . S
C968 C969 1.377 . S
C969 H953 0.930 . S
C969 C968 1.377 . S
C969 C970 1.379 . S
C970 H954 0.931 . S
C970 C964 1.383 . S
C970 C969 1.379 . S
H971 C965 0.959 . S
H972 C965 0.961 . S
H973 C965 0.960 . S
H974 C966 0.930 . S
H975 C967 0.929 . S
H976 C984 0.929 . S
H977 C986 0.930 . S
H978 C988 0.930 . S
H979 C991 0.929 . S
H980 C994 0.930 . S
H981 C996 0.960 . S
H982 C996 0.960 . S
H983 C996 0.960 . S
C984 H976 0.929 . S
C984 C985 1.377 . S
C984 C986 1.384 . S
C985 C984 1.377 . S
C985 C991 1.390 . S
C986 H977 0.930 . S
C986 C984 1.384 . S
C986 C987 1.372 . S
C987 C986 1.372 . S
C987 C988 1.400 . S
C987 C992 1.490 . S
C988 H978 0.930 . S
C988 C987 1.400 . S
C988 C991 1.386 . S
H989 C1005 0.930 . S
H990 C1006 0.931 . S
C991 H979 0.929 . S
C991 C985 1.390 . S
C991 C988 1.386 . S
C992 C987 1.490 . S
C992 C994 1.395 . S
C992 C995 1.403 . S
H993 C999 0.930 . S
C994 H980 0.930 . S
C994 C992 1.395 . S
C994 C997 1.403 . S
C995 C992 1.403 . S
C995 C996 1.524 . S
C995 C999 1.400 . S
C996 H981 0.960 . S
C996 H982 0.960 . S
C996 H983 0.960 . S
C996 C995 1.524 . S
C997 C994 1.403 . S
C997 C998 1.392 . S
C997 C1001 1.495 . S
C998 C997 1.392 . S
C998 C999 1.385 . S
C998 C1000 1.478 . S
C999 H993 0.930 . S
C999 C995 1.400 . S
C999 C998 1.385 . S
C1000 C998 1.478 . S
C1000 C1002 1.381 . S
C1000 C1006 1.383 . S
C1001 C997 1.495 . S
C1001 H1007 0.959 . S
C1001 H1008 0.961 . S
C1001 H1009 0.960 . S
C1002 C1000 1.381 . S
C1002 C1003 1.394 . S
C1002 H1010 0.930 . S
C1003 C1002 1.394 . S
C1003 C1004 1.383 . S
C1003 H1011 0.929 . S
C1004 C1003 1.383 . S
C1004 C1005 1.377 . S
C1005 H989 0.930 . S
C1005 C1004 1.377 . S
C1005 C1006 1.379 . S
C1006 H990 0.931 . S
C1006 C1000 1.383 . S
C1006 C1005 1.379 . S
H1007 C1001 0.959 . S
H1008 C1001 0.961 . S
H1009 C1001 0.960 . S
H1010 C1002 0.930 . S
H1011 C1003 0.929 . S
H1012 C1020 0.929 . S
H1013 C1022 0.930 . S
H1014 C1024 0.930 . S
H1015 C1027 0.929 . S
H1016 C1030 0.930 . S
H1017 C1032 0.960 . S
H1018 C1032 0.960 . S
H1019 C1032 0.960 . S
C1020 H1012 0.929 . S
C1020 C1021 1.377 . S
C1020 C1022 1.384 . S
C1021 C1020 1.377 . S
C1021 C1027 1.390 . S
C1022 H1013 0.930 . S
C1022 C1020 1.384 . S
C1022 C1023 1.372 . S
C1023 C1022 1.372 . S
C1023 C1024 1.400 . S
C1023 C1028 1.490 . S
C1024 H1014 0.930 . S
C1024 C1023 1.400 . S
C1024 C1027 1.386 . S
H1025 C1041 0.930 . S
H1026 C1042 0.931 . S
C1027 H1015 0.929 . S
C1027 C1021 1.390 . S
C1027 C1024 1.386 . S
C1028 C1023 1.490 . S
C1028 C1030 1.395 . S
C1028 C1031 1.403 . S
H1029 C1035 0.930 . S
C1030 H1016 0.930 . S
C1030 C1028 1.395 . S
C1030 C1033 1.403 . S
C1031 C1028 1.403 . S
C1031 C1032 1.524 . S
C1031 C1035 1.400 . S
C1032 H1017 0.960 . S
C1032 H1018 0.960 . S
C1032 H1019 0.960 . S
C1032 C1031 1.524 . S
C1033 C1030 1.403 . S
C1033 C1034 1.392 . S
C1033 C1037 1.495 . S
C1034 C1033 1.392 . S
C1034 C1035 1.385 . S
C1034 C1036 1.478 . S
C1035 H1029 0.930 . S
C1035 C1031 1.400 . S
C1035 C1034 1.385 . S
C1036 C1034 1.478 . S
C1036 C1038 1.381 . S
C1036 C1042 1.383 . S
C1037 C1033 1.495 . S
C1037 H1043 0.959 . S
C1037 H1044 0.961 . S
C1037 H1045 0.960 . S
C1038 C1036 1.381 . S
C1038 C1039 1.394 . S
C1038 H1046 0.930 . S
C1039 C1038 1.394 . S
C1039 C1040 1.383 . S
C1039 H1047 0.929 . S
C1040 C1039 1.383 . S
C1040 C1041 1.377 . S
C1041 H1025 0.930 . S
C1041 C1040 1.377 . S
C1041 C1042 1.379 . S
C1042 H1026 0.931 . S
C1042 C1036 1.383 . S
C1042 C1041 1.379 . S
H1043 C1037 0.959 . S
H1044 C1037 0.961 . S
H1045 C1037 0.960 . S
H1046 C1038 0.930 . S
H1047 C1039 0.929 . S
H1048 C1056 0.929 . S
H1049 C1058 0.930 . S
H1050 C1060 0.930 . S
H1051 C1063 0.929 . S
H1052 C1066 0.930 . S
H1053 C1068 0.960 . S
H1054 C1068 0.960 . S
H1055 C1068 0.960 . S
C1056 H1048 0.929 . S
C1056 C1057 1.377 . S
C1056 C1058 1.384 . S
C1057 C1056 1.377 . S
C1057 C1063 1.390 . S
C1058 H1049 0.930 . S
C1058 C1056 1.384 . S
C1058 C1059 1.372 . S
C1059 C1058 1.372 . S
C1059 C1060 1.400 . S
C1059 C1064 1.490 . S
C1060 H1050 0.930 . S
C1060 C1059 1.400 . S
C1060 C1063 1.386 . S
H1061 C1077 0.930 . S
H1062 C1078 0.931 . S
C1063 H1051 0.929 . S
C1063 C1057 1.390 . S
C1063 C1060 1.386 . S
C1064 C1059 1.490 . S
C1064 C1066 1.395 . S
C1064 C1067 1.403 . S
H1065 C1071 0.930 . S
C1066 H1052 0.930 . S
C1066 C1064 1.395 . S
C1066 C1069 1.403 . S
C1067 C1064 1.403 . S
C1067 C1068 1.524 . S
C1067 C1071 1.400 . S
C1068 H1053 0.960 . S
C1068 H1054 0.960 . S
C1068 H1055 0.960 . S
C1068 C1067 1.524 . S
C1069 C1066 1.403 . S
C1069 C1070 1.392 . S
C1069 C1073 1.495 . S
C1070 C1069 1.392 . S
C1070 C1071 1.385 . S
C1070 C1072 1.478 . S
C1071 H1065 0.930 . S
C1071 C1067 1.400 . S
C1071 C1070 1.385 . S
C1072 C1070 1.478 . S
C1072 C1074 1.381 . S
C1072 C1078 1.383 . S
C1073 C1069 1.495 . S
C1073 H1079 0.959 . S
C1073 H1080 0.961 . S
C1073 H1081 0.960 . S
C1074 C1072 1.381 . S
C1074 C1075 1.394 . S
C1074 H1082 0.930 . S
C1075 C1074 1.394 . S
C1075 C1076 1.383 . S
C1075 H1083 0.929 . S
C1076 C1075 1.383 . S
C1076 C1077 1.377 . S
C1077 H1061 0.930 . S
C1077 C1076 1.377 . S
C1077 C1078 1.379 . S
C1078 H1062 0.931 . S
C1078 C1072 1.383 . S
C1078 C1077 1.379 . S
H1079 C1073 0.959 . S
H1080 C1073 0.961 . S
H1081 C1073 0.960 . S
H1082 C1074 0.930 . S
H1083 C1075 0.929 . S
H1084 C1092 0.929 . S
H1085 C1094 0.930 . S
H1086 C1096 0.930 . S
H1087 C1099 0.929 . S
H1088 C1102 0.930 . S
H1089 C1104 0.960 . S
H1090 C1104 0.960 . S
H1091 C1104 0.960 . S
C1092 H1084 0.929 . S
C1092 C1093 1.377 . S
C1092 C1094 1.384 . S
C1093 C1092 1.377 . S
C1093 C1099 1.390 . S
C1094 H1085 0.930 . S
C1094 C1092 1.384 . S
C1094 C1095 1.372 . S
C1095 C1094 1.372 . S
C1095 C1096 1.400 . S
C1095 C1100 1.490 . S
C1096 H1086 0.930 . S
C1096 C1095 1.400 . S
C1096 C1099 1.386 . S
H1097 C1113 0.930 . S
H1098 C1114 0.931 . S
C1099 H1087 0.929 . S
C1099 C1093 1.390 . S
C1099 C1096 1.386 . S
C1100 C1095 1.490 . S
C1100 C1102 1.395 . S
C1100 C1103 1.403 . S
H1101 C1107 0.930 . S
C1102 H1088 0.930 . S
C1102 C1100 1.395 . S
C1102 C1105 1.403 . S
C1103 C1100 1.403 . S
C1103 C1104 1.524 . S
C1103 C1107 1.400 . S
C1104 H1089 0.960 . S
C1104 H1090 0.960 . S
C1104 H1091 0.960 . S
C1104 C1103 1.524 . S
C1105 C1102 1.403 . S
C1105 C1106 1.392 . S
C1105 C1109 1.495 . S
C1106 C1105 1.392 . S
C1106 C1107 1.385 . S
C1106 C1108 1.478 . S
C1107 H1101 0.930 . S
C1107 C1103 1.400 . S
C1107 C1106 1.385 . S
C1108 C1106 1.478 . S
C1108 C1110 1.381 . S
C1108 C1114 1.383 . S
C1109 C1105 1.495 . S
C1109 H1115 0.959 . S
C1109 H1116 0.961 . S
C1109 H1117 0.960 . S
C1110 C1108 1.381 . S
C1110 C1111 1.394 . S
C1110 H1118 0.930 . S
C1111 C1110 1.394 . S
C1111 C1112 1.383 . S
C1111 H1119 0.929 . S
C1112 C1111 1.383 . S
C1112 C1113 1.377 . S
C1113 H1097 0.930 . S
C1113 C1112 1.377 . S
C1113 C1114 1.379 . S
C1114 H1098 0.931 . S
C1114 C1108 1.383 . S
C1114 C1113 1.379 . S
H1115 C1109 0.959 . S
H1116 C1109 0.961 . S
H1117 C1109 0.960 . S
H1118 C1110 0.930 . S
H1119 C1111 0.929 . S
H1120 C1128 0.929 . S
H1121 C1130 0.930 . S
H1122 C1132 0.930 . S
H1123 C1135 0.929 . S
H1124 C1138 0.930 . S
H1125 C1140 0.960 . S
H1126 C1140 0.960 . S
H1127 C1140 0.960 . S
C1128 H1120 0.929 . S
C1128 C1129 1.377 . S
C1128 C1130 1.384 . S
C1129 C1128 1.377 . S
C1129 C1135 1.390 . S
C1130 H1121 0.930 . S
C1130 C1128 1.384 . S
C1130 C1131 1.372 . S
C1131 C1130 1.372 . S
C1131 C1132 1.400 . S
C1131 C1136 1.490 . S
C1132 H1122 0.930 . S
C1132 C1131 1.400 . S
C1132 C1135 1.386 . S
H1133 C1149 0.930 . S
H1134 C1150 0.931 . S
C1135 H1123 0.929 . S
C1135 C1129 1.390 . S
C1135 C1132 1.386 . S
C1136 C1131 1.490 . S
C1136 C1138 1.395 . S
C1136 C1139 1.403 . S
H1137 C1143 0.930 . S
C1138 H1124 0.930 . S
C1138 C1136 1.395 . S
C1138 C1141 1.403 . S
C1139 C1136 1.403 . S
C1139 C1140 1.524 . S
C1139 C1143 1.400 . S
C1140 H1125 0.960 . S
C1140 H1126 0.960 . S
C1140 H1127 0.960 . S
C1140 C1139 1.524 . S
C1141 C1138 1.403 . S
C1141 C1142 1.392 . S
C1141 C1145 1.495 . S
C1142 C1141 1.392 . S
C1142 C1143 1.385 . S
C1142 C1144 1.478 . S
C1143 H1137 0.930 . S
C1143 C1139 1.400 . S
C1143 C1142 1.385 . S
C1144 C1142 1.478 . S
C1144 C1146 1.381 . S
C1144 C1150 1.383 . S
C1145 C1141 1.495 . S
C1145 H1151 0.959 . S
C1145 H1152 0.961 . S
C1145 H1153 0.960 . S
C1146 C1144 1.381 . S
C1146 C1147 1.383 1_554 S
C1146 H1154 0.930 . S
C1147 C1146 1.383 1_556 S
C1147 C1148 1.389 . S
C1147 H1155 0.935 . S
C1148 C1147 1.389 . S
C1148 C1149 1.377 . S
C1149 H1133 0.930 . S
C1149 C1148 1.377 . S
C1149 C1150 1.379 1_556 S
C1150 H1134 0.931 . S
C1150 C1144 1.383 . S
C1150 C1149 1.379 1_554 S
H1151 C1145 0.959 . S
H1152 C1145 0.961 . S
H1153 C1145 0.960 . S
H1154 C1146 0.930 . S
H1155 C1147 0.935 . S
H1156 C1164 0.929 . S
H1157 C1166 0.930 . S
H1158 C1168 0.930 . S
H1159 C1171 0.929 1_554 S
H1160 C1174 0.930 . S
H1161 C1176 0.960 . S
H1162 C1176 0.960 . S
H1163 C1176 0.960 . S
C1164 H1156 0.929 . S
C1164 C1165 1.377 . S
C1164 C1166 1.384 1_554 S
C1165 C1164 1.377 . S
C1165 C1171 1.390 1_554 S
C1166 H1157 0.930 . S
C1166 C1164 1.384 1_556 S
C1166 C1167 1.372 . S
C1167 C1166 1.372 . S
C1167 C1168 1.400 . S
C1167 C1172 1.490 . S
C1168 H1158 0.930 . S
C1168 C1167 1.400 . S
C1168 C1171 1.386 . S
H1169 C1185 0.930 . S
H1170 C1186 0.931 . S
C1171 H1159 0.929 1_556 S
C1171 C1165 1.390 1_556 S
C1171 C1168 1.386 . S
C1172 C1167 1.490 . S
C1172 C1174 1.395 . S
C1172 C1175 1.403 . S
H1173 C1179 0.930 . S
C1174 H1160 0.930 . S
C1174 C1172 1.395 . S
C1174 C1177 1.403 . S
C1175 C1172 1.403 . S
C1175 C1176 1.524 . S
C1175 C1179 1.400 . S
C1176 H1161 0.960 . S
C1176 H1162 0.960 . S
C1176 H1163 0.960 . S
C1176 C1175 1.524 . S
C1177 C1174 1.403 . S
C1177 C1178 1.392 . S
C1177 C1181 1.495 . S
C1178 C1177 1.392 . S
C1178 C1179 1.385 . S
C1178 C1180 1.478 . S
C1179 H1173 0.930 . S
C1179 C1175 1.400 . S
C1179 C1178 1.385 . S
C1180 C1178 1.478 . S
C1180 C1182 1.381 . S
C1180 C1186 1.383 . S
C1181 C1177 1.495 . S
C1181 H1187 0.959 . S
C1181 H1188 0.961 . S
C1181 H1189 0.960 . S
C1182 C1180 1.381 . S
C1182 C1183 1.394 . S
C1182 H1190 0.930 . S
C1183 C1182 1.394 . S
C1183 C1184 1.383 . S
C1183 H1191 0.929 . S
C1184 C1183 1.383 . S
C1184 C1185 1.377 . S
C1185 H1169 0.930 . S
C1185 C1184 1.377 . S
C1185 C1186 1.379 . S
C1186 H1170 0.931 . S
C1186 C1180 1.383 . S
C1186 C1185 1.379 . S
H1187 C1181 0.959 . S
H1188 C1181 0.961 . S
H1189 C1181 0.960 . S
H1190 C1182 0.930 . S
H1191 C1183 0.929 . S
H1192 C1200 0.929 . S
H1193 C1202 0.930 . S
H1194 C1204 0.930 . S
H1195 C1207 0.929 . S
H1196 C1210 0.930 . S
H1197 C1212 0.960 . S
H1198 C1212 0.960 . S
H1199 C1212 0.960 . S
C1200 H1192 0.929 . S
C1200 C1201 1.377 . S
C1200 C1202 1.384 . S
C1201 C1200 1.377 . S
C1201 C1207 1.390 . S
C1202 H1193 0.930 . S
C1202 C1200 1.384 . S
C1202 C1203 1.372 . S
C1203 C1202 1.372 . S
C1203 C1204 1.400 . S
C1203 C1208 1.490 . S
C1204 H1194 0.930 . S
C1204 C1203 1.400 . S
C1204 C1207 1.386 . S
H1205 C1221 0.930 . S
H1206 C1222 0.931 . S
C1207 H1195 0.929 . S
C1207 C1201 1.390 . S
C1207 C1204 1.386 . S
C1208 C1203 1.490 . S
C1208 C1210 1.395 . S
C1208 C1211 1.403 . S
H1209 C1215 0.930 . S
C1210 H1196 0.930 . S
C1210 C1208 1.395 . S
C1210 C1213 1.403 . S
C1211 C1208 1.403 . S
C1211 C1212 1.524 . S
C1211 C1215 1.400 . S
C1212 H1197 0.960 . S
C1212 H1198 0.960 . S
C1212 H1199 0.960 . S
C1212 C1211 1.524 . S
C1213 C1210 1.403 . S
C1213 C1214 1.392 . S
C1213 C1217 1.495 . S
C1214 C1213 1.392 . S
C1214 C1215 1.385 . S
C1214 C1216 1.478 . S
C1215 H1209 0.930 . S
C1215 C1211 1.400 . S
C1215 C1214 1.385 . S
C1216 C1214 1.478 . S
C1216 C1218 1.381 . S
C1216 C1222 1.383 . S
C1217 C1213 1.495 . S
C1217 H1223 0.959 . S
C1217 H1224 0.961 . S
C1217 H1225 0.960 . S
C1218 C1216 1.381 . S
C1218 C1219 1.394 . S
C1218 H1226 0.930 . S
C1219 C1218 1.394 . S
C1219 C1220 1.383 . S
C1219 H1227 0.929 . S
C1220 C1219 1.383 . S
C1220 C1221 1.377 . S
C1221 H1205 0.930 . S
C1221 C1220 1.377 . S
C1221 C1222 1.379 . S
C1222 H1206 0.931 . S
C1222 C1216 1.383 . S
C1222 C1221 1.379 . S
H1223 C1217 0.959 . S
H1224 C1217 0.961 . S
H1225 C1217 0.960 . S
H1226 C1218 0.930 . S
H1227 C1219 0.929 . S
H1228 C1236 0.929 . S
H1229 C1238 0.930 . S
H1230 C1240 0.930 . S
H1231 C1243 0.929 . S
H1232 C1246 0.930 . S
H1233 C1248 0.960 . S
H1234 C1248 0.960 . S
H1235 C1248 0.960 . S
C1236 H1228 0.929 . S
C1236 C1237 1.377 . S
C1236 C1238 1.384 . S
C1237 C1236 1.377 . S
C1237 C1243 1.390 . S
C1238 H1229 0.930 . S
C1238 C1236 1.384 . S
C1238 C1239 1.372 . S
C1239 C1238 1.372 . S
C1239 C1240 1.400 . S
C1239 C1244 1.490 . S
C1240 H1230 0.930 . S
C1240 C1239 1.400 . S
C1240 C1243 1.386 . S
H1241 C1257 0.930 . S
H1242 C1258 0.931 . S
C1243 H1231 0.929 . S
C1243 C1237 1.390 . S
C1243 C1240 1.386 . S
C1244 C1239 1.490 . S
C1244 C1246 1.395 . S
C1244 C1247 1.403 . S
H1245 C1251 0.930 . S
C1246 H1232 0.930 . S
C1246 C1244 1.395 . S
C1246 C1249 1.403 . S
C1247 C1244 1.403 . S
C1247 C1248 1.524 . S
C1247 C1251 1.400 . S
C1248 H1233 0.960 . S
C1248 H1234 0.960 . S
C1248 H1235 0.960 . S
C1248 C1247 1.524 . S
C1249 C1246 1.403 . S
C1249 C1250 1.392 . S
C1249 C1253 1.495 . S
C1250 C1249 1.392 . S
C1250 C1251 1.385 . S
C1250 C1252 1.478 . S
C1251 H1245 0.930 . S
C1251 C1247 1.400 . S
C1251 C1250 1.385 . S
C1252 C1250 1.478 . S
C1252 C1254 1.381 . S
C1252 C1258 1.383 . S
C1253 C1249 1.495 . S
C1253 H1259 0.959 . S
C1253 H1260 0.961 . S
C1253 H1261 0.960 . S
C1254 C1252 1.381 . S
C1254 C1255 1.394 . S
C1254 H1262 0.930 . S
C1255 C1254 1.394 . S
C1255 C1256 1.383 . S
C1255 H1263 0.929 . S
C1256 C1255 1.383 . S
C1256 C1257 1.377 . S
C1257 H1241 0.930 . S
C1257 C1256 1.377 . S
C1257 C1258 1.379 . S
C1258 H1242 0.931 . S
C1258 C1252 1.383 . S
C1258 C1257 1.379 . S
H1259 C1253 0.959 . S
H1260 C1253 0.961 . S
H1261 C1253 0.960 . S
H1262 C1254 0.930 . S
H1263 C1255 0.929 . S
H1264 C1272 0.929 . S
H1265 C1274 0.930 . S
H1266 C1276 0.930 . S
H1267 C1279 0.929 . S
H1268 C1282 0.930 . S
H1269 C1284 0.960 . S
H1270 C1284 0.960 . S
H1271 C1284 0.960 . S
C1272 H1264 0.929 . S
C1272 C1273 1.377 . S
C1272 C1274 1.384 . S
C1273 C1272 1.377 . S
C1273 C1279 1.390 . S
C1274 H1265 0.930 . S
C1274 C1272 1.384 . S
C1274 C1275 1.372 . S
C1275 C1274 1.372 . S
C1275 C1276 1.400 . S
C1275 C1280 1.490 . S
C1276 H1266 0.930 . S
C1276 C1275 1.400 . S
C1276 C1279 1.386 . S
H1277 C1293 0.930 . S
H1278 C1294 0.931 . S
C1279 H1267 0.929 . S
C1279 C1273 1.390 . S
C1279 C1276 1.386 . S
C1280 C1275 1.490 . S
C1280 C1282 1.395 . S
C1280 C1283 1.403 . S
H1281 C1287 0.930 . S
C1282 H1268 0.930 . S
C1282 C1280 1.395 . S
C1282 C1285 1.403 . S
C1283 C1280 1.403 . S
C1283 C1284 1.524 . S
C1283 C1287 1.400 . S
C1284 H1269 0.960 . S
C1284 H1270 0.960 . S
C1284 H1271 0.960 . S
C1284 C1283 1.524 . S
C1285 C1282 1.403 . S
C1285 C1286 1.392 . S
C1285 C1289 1.495 . S
C1286 C1285 1.392 . S
C1286 C1287 1.385 . S
C1286 C1288 1.478 . S
C1287 H1281 0.930 . S
C1287 C1283 1.400 . S
C1287 C1286 1.385 . S
C1288 C1286 1.478 . S
C1288 C1290 1.381 . S
C1288 C1294 1.383 . S
C1289 C1285 1.495 . S
C1289 H1295 0.959 . S
C1289 H1296 0.961 . S
C1289 H1297 0.960 . S
C1290 C1288 1.381 . S
C1290 C1291 1.394 . S
C1290 H1298 0.930 . S
C1291 C1290 1.394 . S
C1291 C1292 1.383 . S
C1291 H1299 0.929 . S
C1292 C1291 1.383 . S
C1292 C1293 1.377 . S
C1293 H1277 0.930 . S
C1293 C1292 1.377 . S
C1293 C1294 1.379 . S
C1294 H1278 0.931 . S
C1294 C1288 1.383 . S
C1294 C1293 1.379 . S
H1295 C1289 0.959 . S
H1296 C1289 0.961 . S
H1297 C1289 0.960 . S
H1298 C1290 0.930 . S
H1299 C1291 0.929 . S
H1300 C1308 0.929 . S
H1301 C1310 0.930 . S
H1302 C1312 0.930 . S
H1303 C1315 0.929 . S
H1304 C1318 0.930 . S
H1305 C1320 0.960 . S
H1306 C1320 0.960 . S
H1307 C1320 0.960 . S
C1308 H1300 0.929 . S
C1308 C1309 1.377 . S
C1308 C1310 1.384 . S
C1309 C1308 1.377 . S
C1309 C1315 1.390 . S
C1310 H1301 0.930 . S
C1310 C1308 1.384 . S
C1310 C1311 1.372 . S
C1311 C1310 1.372 . S
C1311 C1312 1.400 . S
C1311 C1316 1.490 . S
C1312 H1302 0.930 . S
C1312 C1311 1.400 . S
C1312 C1315 1.386 . S
H1313 C1329 0.930 . S
H1314 C1330 0.931 . S
C1315 H1303 0.929 . S
C1315 C1309 1.390 . S
C1315 C1312 1.386 . S
C1316 C1311 1.490 . S
C1316 C1318 1.395 . S
C1316 C1319 1.403 . S
H1317 C1323 0.930 . S
C1318 H1304 0.930 . S
C1318 C1316 1.395 . S
C1318 C1321 1.403 . S
C1319 C1316 1.403 . S
C1319 C1320 1.524 . S
C1319 C1323 1.400 . S
C1320 H1305 0.960 . S
C1320 H1306 0.960 . S
C1320 H1307 0.960 . S
C1320 C1319 1.524 . S
C1321 C1318 1.403 . S
C1321 C1322 1.392 . S
C1321 C1325 1.495 . S
C1322 C1321 1.392 . S
C1322 C1323 1.385 . S
C1322 C1324 1.478 . S
C1323 H1317 0.930 . S
C1323 C1319 1.400 . S
C1323 C1322 1.385 . S
C1324 C1322 1.478 . S
C1324 C1326 1.381 . S
C1324 C1330 1.383 . S
C1325 C1321 1.495 . S
C1325 H1331 0.959 . S
C1325 H1332 0.961 . S
C1325 H1333 0.960 . S
C1326 C1324 1.381 . S
C1326 C1327 1.394 . S
C1326 H1334 0.930 . S
C1327 C1326 1.394 . S
C1327 C1328 1.383 . S
C1327 H1335 0.929 . S
C1328 C1327 1.383 . S
C1328 C1329 1.377 . S
C1329 H1313 0.930 . S
C1329 C1328 1.377 . S
C1329 C1330 1.379 . S
C1330 H1314 0.931 . S
C1330 C1324 1.383 . S
C1330 C1329 1.379 . S
H1331 C1325 0.959 . S
H1332 C1325 0.961 . S
H1333 C1325 0.960 . S
H1334 C1326 0.930 . S
H1335 C1327 0.929 . S
H1336 C1344 0.929 1_556 S
H1337 C1346 0.930 . S
H1338 C1348 0.930 . S
H1339 C1351 0.929 . S
H1340 C1354 0.930 . S
H1341 C1356 0.960 . S
H1342 C1356 0.960 . S
H1343 C1356 0.960 . S
C1344 H1336 0.929 1_554 S
C1344 C1345 1.377 1_554 S
C1344 C1346 1.384 . S
C1345 C1344 1.377 1_556 S
C1345 C1351 1.390 . S
C1346 H1337 0.930 . S
C1346 C1344 1.384 . S
C1346 C1347 1.372 . S
C1347 C1346 1.372 . S
C1347 C1348 1.400 . S
C1347 C1352 1.490 . S
C1348 H1338 0.930 . S
C1348 C1347 1.400 . S
C1348 C1351 1.386 1_554 S
H1349 C1365 0.930 . S
H1350 C1366 0.931 . S
C1351 H1339 0.929 . S
C1351 C1345 1.390 . S
C1351 C1348 1.386 1_556 S
C1352 C1347 1.490 . S
C1352 C1354 1.395 . S
C1352 C1355 1.403 . S
H1353 C1359 0.930 . S
C1354 H1340 0.930 . S
C1354 C1352 1.395 . S
C1354 C1357 1.403 . S
C1355 C1352 1.403 . S
C1355 C1356 1.524 . S
C1355 C1359 1.400 . S
C1356 H1341 0.960 . S
C1356 H1342 0.960 . S
C1356 H1343 0.960 . S
C1356 C1355 1.524 . S
C1357 C1354 1.403 . S
C1357 C1358 1.392 . S
C1357 C1361 1.495 . S
C1358 C1357 1.392 . S
C1358 C1359 1.385 . S
C1358 C1360 1.478 . S
C1359 H1353 0.930 . S
C1359 C1355 1.400 . S
C1359 C1358 1.385 . S
C1360 C1358 1.478 . S
C1360 C1362 1.381 . S
C1360 C1366 1.383 . S
C1361 C1357 1.495 . S
C1361 H1367 0.959 . S
C1361 H1368 0.961 . S
C1361 H1369 0.960 . S
C1362 C1360 1.381 . S
C1362 C1363 1.394 . S
C1362 H1370 0.930 . S
C1363 C1362 1.394 . S
C1363 C1364 1.383 . S
C1363 H1371 0.929 . S
C1364 C1363 1.383 . S
C1364 C1365 1.377 . S
C1365 H1349 0.930 . S
C1365 C1364 1.377 . S
C1365 C1366 1.379 . S
C1366 H1350 0.931 . S
C1366 C1360 1.383 . S
C1366 C1365 1.379 . S
H1367 C1361 0.959 . S
H1368 C1361 0.961 . S
H1369 C1361 0.960 . S
H1370 C1362 0.930 . S
H1371 C1363 0.929 . S
H1372 C1380 0.929 . S
H1373 C1382 0.930 . S
H1374 C1384 0.930 . S
H1375 C1387 0.929 . S
H1376 C1390 0.930 . S
H1377 C1392 0.960 . S
H1378 C1392 0.960 . S
H1379 C1392 0.960 . S
C1380 H1372 0.929 . S
C1380 C1381 1.377 . S
C1380 C1382 1.384 . S
C1381 C1380 1.377 . S
C1381 C1387 1.390 . S
C1382 H1373 0.930 . S
C1382 C1380 1.384 . S
C1382 C1383 1.372 . S
C1383 C1382 1.372 . S
C1383 C1384 1.400 . S
C1383 C1388 1.490 . S
C1384 H1374 0.930 . S
C1384 C1383 1.400 . S
C1384 C1387 1.386 . S
H1385 C1401 0.930 . S
H1386 C1402 0.931 . S
C1387 H1375 0.929 . S
C1387 C1381 1.390 . S
C1387 C1384 1.386 . S
C1388 C1383 1.490 . S
C1388 C1390 1.395 . S
C1388 C1391 1.403 . S
H1389 C1395 0.930 . S
C1390 H1376 0.930 . S
C1390 C1388 1.395 . S
C1390 C1393 1.403 . S
C1391 C1388 1.403 . S
C1391 C1392 1.524 . S
C1391 C1395 1.400 . S
C1392 H1377 0.960 . S
C1392 H1378 0.960 . S
C1392 H1379 0.960 . S
C1392 C1391 1.524 . S
C1393 C1390 1.403 . S
C1393 C1394 1.392 . S
C1393 C1397 1.495 . S
C1394 C1393 1.392 . S
C1394 C1395 1.385 . S
C1394 C1396 1.478 . S
C1395 H1389 0.930 . S
C1395 C1391 1.400 . S
C1395 C1394 1.385 . S
C1396 C1394 1.478 . S
C1396 C1398 1.381 . S
C1396 C1402 1.383 . S
C1397 C1393 1.495 . S
C1397 H1403 0.959 . S
C1397 H1404 0.961 . S
C1397 H1405 0.960 . S
C1398 C1396 1.381 . S
C1398 C1399 1.394 . S
C1398 H1406 0.930 . S
C1399 C1398 1.394 . S
C1399 C1400 1.383 1_556 S
C1399 H1407 0.929 . S
C1400 C1399 1.383 1_554 S
C1400 C1401 1.377 . S
C1401 H1385 0.930 . S
C1401 C1400 1.377 . S
C1401 C1402 1.379 1_554 S
C1402 H1386 0.931 . S
C1402 C1396 1.383 . S
C1402 C1401 1.379 1_556 S
H1403 C1397 0.959 . S
H1404 C1397 0.961 . S
H1405 C1397 0.960 . S
H1406 C1398 0.930 . S
H1407 C1399 0.929 . S
H1408 C1416 0.929 . S
H1409 C1418 0.930 . S
H1410 C1420 0.930 . S
H1411 C1423 0.929 . S
H1412 C1426 0.930 . S
H1413 C1428 0.960 . S
H1414 C1428 0.960 . S
H1415 C1428 0.960 . S
C1416 H1408 0.929 . S
C1416 C1417 1.377 . S
C1416 C1418 1.384 . S
C1417 C1416 1.377 . S
C1417 C1423 1.390 . S
C1418 H1409 0.930 . S
C1418 C1416 1.384 . S
C1418 C1419 1.372 . S
C1419 C1418 1.372 . S
C1419 C1420 1.400 . S
C1419 C1424 1.490 . S
C1420 H1410 0.930 . S
C1420 C1419 1.400 . S
C1420 C1423 1.386 . S
H1421 C1437 0.930 . S
H1422 C1438 0.931 . S
C1423 H1411 0.929 . S
C1423 C1417 1.390 . S
C1423 C1420 1.386 . S
C1424 C1419 1.490 . S
C1424 C1426 1.395 . S
C1424 C1427 1.403 . S
H1425 C1431 0.930 . S
C1426 H1412 0.930 . S
C1426 C1424 1.395 . S
C1426 C1429 1.403 . S
C1427 C1424 1.403 . S
C1427 C1428 1.524 . S
C1427 C1431 1.400 . S
C1428 H1413 0.960 . S
C1428 H1414 0.960 . S
C1428 H1415 0.960 . S
C1428 C1427 1.524 . S
C1429 C1426 1.403 . S
C1429 C1430 1.392 . S
C1429 C1433 1.495 . S
C1430 C1429 1.392 . S
C1430 C1431 1.385 . S
C1430 C1432 1.478 . S
C1431 H1425 0.930 . S
C1431 C1427 1.400 . S
C1431 C1430 1.385 . S
C1432 C1430 1.478 . S
C1432 C1434 1.381 . S
C1432 C1438 1.383 . S
C1433 C1429 1.495 . S
C1433 H1439 0.959 . S
C1433 H1440 0.961 . S
C1433 H1441 0.960 . S
C1434 C1432 1.381 . S
C1434 C1435 1.394 . S
C1434 H1442 0.930 . S
C1435 C1434 1.394 . S
C1435 C1436 1.383 . S
C1435 H1443 0.929 . S
C1436 C1435 1.383 . S
C1436 C1437 1.377 . S
C1437 H1421 0.930 . S
C1437 C1436 1.377 . S
C1437 C1438 1.379 . S
C1438 H1422 0.931 . S
C1438 C1432 1.383 . S
C1438 C1437 1.379 . S
H1439 C1433 0.959 . S
H1440 C1433 0.961 . S
H1441 C1433 0.960 . S
H1442 C1434 0.930 . S
H1443 C1435 0.929 . S
H1444 C1452 0.929 . S
H1445 C1454 0.930 . S
H1446 C1456 0.930 . S
H1447 C1459 0.929 . S
H1448 C1462 0.930 . S
H1449 C1464 0.960 . S
H1450 C1464 0.960 1_565 S
H1451 C1464 0.960 . S
C1452 H1444 0.929 . S
C1452 C1453 1.377 . S
C1452 C1454 1.384 . S
C1453 C1452 1.377 . S
C1453 C1459 1.390 . S
C1454 H1445 0.930 . S
C1454 C1452 1.384 . S
C1454 C1455 1.372 . S
C1455 C1454 1.372 . S
C1455 C1456 1.400 . S
C1455 C1460 1.490 . S
C1456 H1446 0.930 . S
C1456 C1455 1.400 . S
C1456 C1459 1.386 . S
H1457 C1473 0.930 . S
H1458 C1474 0.931 . S
C1459 H1447 0.929 . S
C1459 C1453 1.390 . S
C1459 C1456 1.386 . S
C1460 C1455 1.490 . S
C1460 C1462 1.395 . S
C1460 C1463 1.405 1_655 S
H1461 C1467 0.930 . S
C1462 H1448 0.930 . S
C1462 C1460 1.395 . S
C1462 C1465 1.403 . S
C1463 C1460 1.405 1_455 S
C1463 C1464 1.525 1_565 S
C1463 C1467 1.396 1_565 S
C1464 H1449 0.960 . S
C1464 H1450 0.960 1_545 S
C1464 H1451 0.960 . S
C1464 C1463 1.525 1_545 S
C1465 C1462 1.403 . S
C1465 C1466 1.392 1_665 S
C1465 C1469 1.495 . S
C1466 C1465 1.392 1_445 S
C1466 C1467 1.385 . S
C1466 C1468 1.478 . S
C1467 H1461 0.930 . S
C1467 C1463 1.396 1_545 S
C1467 C1466 1.385 . S
C1468 C1466 1.478 . S
C1468 C1470 1.381 . S
C1468 C1474 1.383 . S
C1469 C1465 1.495 . S
C1469 H1475 0.959 . S
C1469 H1476 0.961 1_565 S
C1469 H1477 0.960 . S
C1470 C1468 1.381 . S
C1470 C1471 1.394 . S
C1470 H1478 0.908 1_545 S
C1471 C1470 1.394 . S
C1471 C1472 1.383 . S
C1471 H1479 0.929 . S
C1472 C1471 1.383 . S
C1472 C1473 1.377 . S
C1473 H1457 0.930 . S
C1473 C1472 1.377 . S
C1473 C1474 1.379 . S
C1474 H1458 0.931 . S
C1474 C1468 1.383 . S
C1474 C1473 1.379 . S
H1475 C1469 0.959 . S
H1476 C1469 0.961 1_545 S
H1477 C1469 0.960 . S
H1478 C1470 0.908 1_565 S
H1479 C1471 0.929 . S
H1480 C1488 0.929 . S
H1481 C1490 0.963 . S
H1482 C1492 0.930 . S
H1483 C1495 0.929 . S
H1484 C1498 0.930 . S
H1485 C1500 0.960 . S
H1486 C1500 0.960 . S
H1487 C1500 0.960 . S
C1488 H1480 0.929 . S
C1488 C1489 1.377 . S
C1488 C1490 1.384 . S
C1489 C1488 1.377 . S
C1489 C1495 1.390 . S
C1490 H1481 0.963 . S
C1490 C1488 1.384 . S
C1490 C1491 1.372 . S
C1491 C1490 1.372 . S
C1491 C1492 1.400 . S
C1491 C1496 1.490 . S
C1492 H1482 0.930 . S
C1492 C1491 1.400 . S
C1492 C1495 1.386 . S
H1493 C1509 0.930 . S
H1494 C1510 0.931 . S
C1495 H1483 0.929 . S
C1495 C1489 1.390 . S
C1495 C1492 1.386 . S
C1496 C1491 1.490 . S
C1496 C1498 1.395 1_565 S
C1496 C1499 1.403 . S
H1497 C1503 0.955 . S
C1498 H1484 0.930 . S
C1498 C1496 1.395 1_545 S
C1498 C1501 1.403 . S
C1499 C1496 1.403 . S
C1499 C1500 1.524 . S
C1499 C1503 1.427 . S
C1500 H1485 0.960 . S
C1500 H1486 0.960 . S
C1500 H1487 0.960 . S
C1500 C1499 1.524 . S
C1501 C1498 1.403 . S
C1501 C1502 1.392 . S
C1501 C1505 1.495 . S
C1502 C1501 1.392 . S
C1502 C1503 1.336 1_545 S
C1502 C1504 1.478 . S
C1503 H1497 0.955 . S
C1503 C1499 1.427 . S
C1503 C1502 1.336 1_565 S
C1504 C1502 1.478 . S
C1504 C1506 1.381 . S
C1504 C1510 1.383 . S
C1505 C1501 1.495 . S
C1505 H1511 0.959 . S
C1505 H1512 0.961 . S
C1505 H1513 0.960 . S
C1506 C1504 1.381 . S
C1506 C1507 1.394 . S
C1506 H1514 0.930 . S
C1507 C1506 1.394 . S
C1507 C1508 1.383 . S
C1507 H1515 0.929 . S
C1508 C1507 1.383 . S
C1508 C1509 1.377 . S
C1509 H1493 0.930 . S
C1509 C1508 1.377 . S
C1509 C1510 1.379 . S
C1510 H1494 0.931 . S
C1510 C1504 1.383 . S
C1510 C1509 1.379 . S
H1511 C1505 0.959 . S
H1512 C1505 0.961 . S
H1513 C1505 0.960 . S
H1514 C1506 0.930 . S
H1515 C1507 0.929 . S
H1516 C1524 0.929 . S
H1517 C1526 0.930 . S
H1518 C1528 0.930 . S
H1519 C1531 0.929 . S
H1520 C1534 0.930 . S
H1521 C1536 0.960 . S
H1522 C1536 0.960 . S
H1523 C1536 0.960 . S
C1524 H1516 0.929 . S
C1524 C1525 1.377 . S
C1524 C1526 1.384 . S
C1525 C1524 1.377 . S
C1525 C1531 1.390 . S
C1526 H1517 0.930 . S
C1526 C1524 1.384 . S
C1526 C1527 1.372 . S
C1527 C1526 1.372 . S
C1527 C1528 1.400 . S
C1527 C1532 1.490 . S
C1528 H1518 0.930 . S
C1528 C1527 1.400 . S
C1528 C1531 1.386 . S
H1529 C1545 0.930 . S
H1530 C1546 0.931 . S
C1531 H1519 0.929 . S
C1531 C1525 1.390 . S
C1531 C1528 1.386 . S
C1532 C1527 1.490 . S
C1532 C1534 1.395 . S
C1532 C1535 1.403 1_655 S
H1533 C1539 0.930 . S
C1534 H1520 0.930 . S
C1534 C1532 1.395 . S
C1534 C1537 1.403 . S
C1535 C1532 1.403 1_455 S
C1535 C1536 1.524 . S
C1535 C1539 1.400 . S
C1536 H1521 0.960 . S
C1536 H1522 0.960 . S
C1536 H1523 0.960 . S
C1536 C1535 1.524 . S
C1537 C1534 1.403 . S
C1537 C1538 1.392 1_655 S
C1537 C1541 1.495 . S
C1538 C1537 1.392 1_455 S
C1538 C1539 1.385 . S
C1538 C1540 1.478 . S
C1539 H1533 0.930 . S
C1539 C1535 1.400 . S
C1539 C1538 1.385 . S
C1540 C1538 1.478 . S
C1540 C1542 1.381 . S
C1540 C1546 1.383 . S
C1541 C1537 1.495 . S
C1541 H1547 0.959 . S
C1541 H1548 0.961 . S
C1541 H1549 0.960 . S
C1542 C1540 1.381 . S
C1542 C1543 1.394 . S
C1542 H1550 0.930 . S
C1543 C1542 1.394 . S
C1543 C1544 1.383 . S
C1543 H1551 0.929 . S
C1544 C1543 1.383 . S
C1544 C1545 1.377 . S
C1545 H1529 0.930 . S
C1545 C1544 1.377 . S
C1545 C1546 1.379 . S
C1546 H1530 0.931 . S
C1546 C1540 1.383 . S
C1546 C1545 1.379 . S
H1547 C1541 0.959 . S
H1548 C1541 0.961 . S
H1549 C1541 0.960 . S
H1550 C1542 0.930 . S
H1551 C1543 0.929 . S
H1552 C1560 0.929 . S
H1553 C1562 0.930 . S
H1554 C1564 0.930 . S
H1555 C1567 0.929 . S
H1556 C1570 0.930 . S
H1557 C1572 0.960 . S
H1558 C1572 0.960 . S
H1559 C1572 0.960 . S
C1560 H1552 0.929 . S
C1560 C1561 1.377 . S
C1560 C1562 1.384 . S
C1561 C1560 1.377 . S
C1561 C1567 1.390 . S
C1562 H1553 0.930 . S
C1562 C1560 1.384 . S
C1562 C1563 1.372 . S
C1563 C1562 1.372 . S
C1563 C1564 1.400 . S
C1563 C1568 1.490 . S
C1564 H1554 0.930 . S
C1564 C1563 1.400 . S
C1564 C1567 1.386 . S
H1565 C1581 0.930 . S
H1566 C1582 0.931 . S
C1567 H1555 0.929 . S
C1567 C1561 1.390 . S
C1567 C1564 1.386 . S
C1568 C1563 1.490 . S
C1568 C1570 1.395 . S
C1568 C1571 1.403 . S
H1569 C1575 0.930 . S
C1570 H1556 0.930 . S
C1570 C1568 1.395 . S
C1570 C1573 1.403 . S
C1571 C1568 1.403 . S
C1571 C1572 1.524 . S
C1571 C1575 1.400 . S
C1572 H1557 0.960 . S
C1572 H1558 0.960 . S
C1572 H1559 0.960 . S
C1572 C1571 1.524 . S
C1573 C1570 1.403 . S
C1573 C1574 1.392 . S
C1573 C1577 1.495 . S
C1574 C1573 1.392 . S
C1574 C1575 1.385 . S
C1574 C1576 1.478 . S
C1575 H1569 0.930 . S
C1575 C1571 1.400 . S
C1575 C1574 1.385 . S
C1576 C1574 1.478 . S
C1576 C1578 1.381 . S
C1576 C1582 1.383 . S
C1577 C1573 1.495 . S
C1577 H1583 0.959 . S
C1577 H1584 0.961 . S
C1577 H1585 0.960 . S
C1578 C1576 1.381 . S
C1578 C1579 1.394 . S
C1578 H1586 0.930 . S
C1579 C1578 1.394 . S
C1579 C1580 1.383 . S
C1579 H1587 0.929 . S
C1580 C1579 1.383 . S
C1580 C1581 1.377 . S
C1581 H1565 0.930 . S
C1581 C1580 1.377 . S
C1581 C1582 1.379 . S
C1582 H1566 0.931 . S
C1582 C1576 1.383 . S
C1582 C1581 1.379 . S
H1583 C1577 0.959 . S
H1584 C1577 0.961 . S
H1585 C1577 0.960 . S
H1586 C1578 0.930 . S
H1587 C1579 0.929 . S
H1588 C1596 0.929 . S
H1589 C1598 0.930 . S
H1590 C1600 0.930 . S
H1591 C1603 0.929 . S
H1592 C1606 0.930 . S
H1593 C1608 0.960 . S
H1594 C1608 0.960 . S
H1595 C1608 0.960 . S
C1596 H1588 0.929 . S
C1596 C1597 1.377 . S
C1596 C1598 1.384 . S
C1597 C1596 1.377 . S
C1597 C1603 1.390 . S
C1598 H1589 0.930 . S
C1598 C1596 1.384 . S
C1598 C1599 1.372 . S
C1599 C1598 1.372 . S
C1599 C1600 1.400 . S
C1599 C1604 1.490 . S
C1600 H1590 0.930 . S
C1600 C1599 1.400 . S
C1600 C1603 1.386 . S
H1601 C1617 0.930 . S
H1602 C1618 0.931 . S
C1603 H1591 0.929 . S
C1603 C1597 1.390 . S
C1603 C1600 1.386 . S
C1604 C1599 1.490 . S
C1604 C1606 1.395 1_545 S
C1604 C1607 1.403 . S
H1605 C1611 0.930 . S
C1606 H1592 0.930 . S
C1606 C1604 1.395 1_565 S
C1606 C1609 1.403 . S
C1607 C1604 1.403 . S
C1607 C1608 1.524 . S
C1607 C1611 1.400 . S
C1608 H1593 0.960 . S
C1608 H1594 0.960 . S
C1608 H1595 0.960 . S
C1608 C1607 1.524 . S
C1609 C1606 1.403 . S
C1609 C1610 1.392 . S
C1609 C1613 1.495 . S
C1610 C1609 1.392 . S
C1610 C1611 1.385 1_565 S
C1610 C1612 1.478 . S
C1611 H1605 0.930 . S
C1611 C1607 1.400 . S
C1611 C1610 1.385 1_545 S
C1612 C1610 1.478 . S
C1612 C1614 1.381 . S
C1612 C1618 1.383 . S
C1613 C1609 1.495 . S
C1613 H1619 0.959 . S
C1613 H1620 0.961 . S
C1613 H1621 0.960 . S
C1614 C1612 1.381 . S
C1614 C1615 1.394 . S
C1614 H1622 0.930 . S
C1615 C1614 1.394 . S
C1615 C1616 1.383 . S
C1615 H1623 0.929 . S
C1616 C1615 1.383 . S
C1616 C1617 1.377 . S
C1617 H1601 0.930 . S
C1617 C1616 1.377 . S
C1617 C1618 1.379 . S
C1618 H1602 0.931 . S
C1618 C1612 1.383 . S
C1618 C1617 1.379 . S
H1619 C1613 0.959 . S
H1620 C1613 0.961 . S
H1621 C1613 0.960 . S
H1622 C1614 0.930 . S
H1623 C1615 0.929 . S
H1624 C1632 0.929 . S
H1625 C1634 0.930 . S
H1626 C1636 0.930 . S
H1627 C1639 0.929 . S
H1628 C1642 0.930 . S
H1629 C1644 0.960 . S
H1630 C1644 0.960 . S
H1631 C1644 0.960 . S
C1632 H1624 0.929 . S
C1632 C1633 1.377 . S
C1632 C1634 1.384 . S
C1633 C1632 1.377 . S
C1633 C1639 1.390 . S
C1634 H1625 0.930 . S
C1634 C1632 1.384 . S
C1634 C1635 1.372 . S
C1635 C1634 1.372 . S
C1635 C1636 1.400 . S
C1635 C1640 1.490 . S
C1636 H1626 0.930 . S
C1636 C1635 1.400 . S
C1636 C1639 1.386 . S
H1637 C1653 0.930 . S
H1638 C1654 0.931 . S
C1639 H1627 0.929 . S
C1639 C1633 1.390 . S
C1639 C1636 1.386 . S
C1640 C1635 1.490 . S
C1640 C1642 1.395 . S
C1640 C1643 1.403 1_655 S
H1641 C1647 0.930 . S
C1642 H1628 0.930 . S
C1642 C1640 1.395 . S
C1642 C1645 1.403 . S
C1643 C1640 1.403 1_455 S
C1643 C1644 1.524 . S
C1643 C1647 1.400 . S
C1644 H1629 0.960 . S
C1644 H1630 0.960 . S
C1644 H1631 0.960 . S
C1644 C1643 1.524 . S
C1645 C1642 1.403 . S
C1645 C1646 1.392 1_655 S
C1645 C1649 1.495 . S
C1646 C1645 1.392 1_455 S
C1646 C1647 1.385 . S
C1646 C1648 1.478 . S
C1647 H1641 0.930 . S
C1647 C1643 1.400 . S
C1647 C1646 1.385 . S
C1648 C1646 1.478 . S
C1648 C1650 1.381 . S
C1648 C1654 1.383 . S
C1649 C1645 1.495 . S
C1649 H1655 0.959 . S
C1649 H1656 0.961 . S
C1649 H1657 0.960 . S
C1650 C1648 1.381 . S
C1650 C1651 1.394 . S
C1650 H1658 0.930 . S
C1651 C1650 1.394 . S
C1651 C1652 1.383 . S
C1651 H1659 0.929 . S
C1652 C1651 1.383 . S
C1652 C1653 1.377 . S
C1653 H1637 0.930 . S
C1653 C1652 1.377 . S
C1653 C1654 1.379 . S
C1654 H1638 0.931 . S
C1654 C1648 1.383 . S
C1654 C1653 1.379 . S
H1655 C1649 0.959 . S
H1656 C1649 0.961 . S
H1657 C1649 0.960 . S
H1658 C1650 0.930 . S
H1659 C1651 0.929 . S
H1660 C1668 0.929 . S
H1661 C1670 0.930 1_556 S
H1662 C1672 0.930 . S
H1663 C1675 0.929 . S
H1664 C1678 0.930 . S
H1665 C1680 0.960 1_556 S
H1666 C1680 0.960 1_556 S
H1667 C1680 0.960 . S
C1668 H1660 0.929 . S
C1668 C1669 1.377 . S
C1668 C1670 1.384 . S
C1669 C1668 1.377 . S
C1669 C1675 1.390 . S
C1670 H1661 0.930 1_554 S
C1670 C1668 1.384 . S
C1670 C1671 1.372 . S
C1671 C1670 1.372 . S
C1671 C1672 1.400 . S
C1671 C1676 1.490 . S
C1672 H1662 0.930 . S
C1672 C1671 1.400 . S
C1672 C1675 1.386 . S
H1673 C1689 0.930 . S
H1674 C1690 0.931 1_554 S
C1675 H1663 0.929 . S
C1675 C1669 1.390 . S
C1675 C1672 1.386 . S
C1676 C1671 1.490 . S
C1676 C1678 1.395 . S
C1676 C1679 1.403 . S
H1677 C1683 0.930 . S
C1678 H1664 0.930 . S
C1678 C1676 1.395 . S
C1678 C1681 1.403 1_554 S
C1679 C1676 1.403 . S
C1679 C1680 1.524 . S
C1679 C1683 1.400 1_554 S
C1680 H1665 0.960 1_554 S
C1680 H1666 0.960 1_554 S
C1680 H1667 0.960 . S
C1680 C1679 1.524 . S
C1681 C1678 1.403 1_556 S
C1681 C1682 1.392 . S
C1681 C1685 1.495 . S
C1682 C1681 1.392 . S
C1682 C1683 1.385 . S
C1682 C1684 1.478 . S
C1683 H1677 0.930 . S
C1683 C1679 1.400 1_556 S
C1683 C1682 1.385 . S
C1684 C1682 1.478 . S
C1684 C1686 1.381 . S
C1684 C1690 1.383 . S
C1685 C1681 1.495 . S
C1685 H1691 0.959 . S
C1685 H1692 0.961 1_556 S
C1685 H1693 0.960 . S
C1686 C1684 1.381 . S
C1686 C1687 1.394 . S
C1686 H1694 0.930 . S
C1687 C1686 1.394 . S
C1687 C1688 1.383 . S
C1687 H1695 0.929 . S
C1688 C1687 1.383 . S
C1688 C1689 1.377 . S
C1689 H1673 0.930 . S
C1689 C1688 1.377 . S
C1689 C1690 1.379 . S
C1690 H1674 0.931 1_556 S
C1690 C1684 1.383 . S
C1690 C1689 1.379 . S
H1691 C1685 0.959 . S
H1692 C1685 0.961 1_554 S
H1693 C1685 0.960 . S
H1694 C1686 0.930 . S
H1695 C1687 0.929 . S
H1696 C1704 0.929 . S
H1697 C1706 0.930 . S
H1698 C1708 0.930 1_655 S
H1699 C1711 0.929 . S
H1700 C1714 0.930 . S
H1701 C1716 0.960 . S
H1702 C1716 0.960 . S
H1703 C1716 0.960 . S
C1704 H1696 0.929 . S
C1704 C1705 1.377 . S
C1704 C1706 1.384 . S
C1705 C1704 1.377 . S
C1705 C1711 1.390 . S
C1706 H1697 0.930 . S
C1706 C1704 1.384 . S
C1706 C1707 1.372 . S
C1707 C1706 1.372 . S
C1707 C1708 1.400 . S
C1707 C1712 1.490 . S
C1708 H1698 0.930 1_455 S
C1708 C1707 1.400 . S
C1708 C1711 1.386 . S
H1709 C1725 0.930 . S
H1710 C1726 0.931 . S
C1711 H1699 0.929 . S
C1711 C1705 1.390 . S
C1711 C1708 1.386 . S
C1712 C1707 1.490 . S
C1712 C1714 1.395 1_556 S
C1712 C1715 1.403 1_455 S
H1713 C1719 0.930 . S
C1714 H1700 0.930 . S
C1714 C1712 1.395 1_554 S
C1714 C1717 1.403 . S
C1715 C1712 1.403 1_655 S
C1715 C1716 1.524 . S
C1715 C1719 1.400 . S
C1716 H1701 0.960 . S
C1716 H1702 0.960 . S
C1716 H1703 0.960 . S
C1716 C1715 1.524 . S
C1717 C1714 1.403 . S
C1717 C1718 1.392 1_455 S
C1717 C1721 1.495 . S
C1718 C1717 1.392 1_655 S
C1718 C1719 1.385 1_554 S
C1718 C1720 1.478 . S
C1719 H1713 0.930 . S
C1719 C1715 1.400 . S
C1719 C1718 1.385 1_556 S
C1720 C1718 1.478 . S
C1720 C1722 1.381 . S
C1720 C1726 1.383 . S
C1721 C1717 1.495 . S
C1721 H1727 0.959 . S
C1721 H1728 0.961 . S
C1721 H1729 0.960 . S
C1722 C1720 1.381 . S
C1722 C1723 1.394 . S
C1722 H1730 0.930 1_655 S
C1723 C1722 1.394 . S
C1723 C1724 1.383 . S
C1723 H1731 0.929 . S
C1724 C1723 1.383 . S
C1724 C1725 1.377 . S
C1725 H1709 0.930 . S
C1725 C1724 1.377 . S
C1725 C1726 1.379 . S
C1726 H1710 0.931 . S
C1726 C1720 1.383 . S
C1726 C1725 1.379 . S
H1727 C1721 0.959 . S
H1728 C1721 0.961 . S
H1729 C1721 0.960 . S
H1730 C1722 0.930 1_455 S
H1731 C1723 0.929 . S
H1732 C1740 0.929 . S
H1733 C1742 0.930 . S
H1734 C1744 0.930 . S
H1735 C1747 0.929 . S
H1736 C1750 0.930 . S
H1737 C1752 0.960 . S
H1738 C1752 0.960 . S
H1739 C1752 0.960 . S
C1740 H1732 0.929 . S
C1740 C1741 1.377 . S
C1740 C1742 1.384 . S
C1741 C1740 1.377 . S
C1741 C1747 1.390 . S
C1742 H1733 0.930 . S
C1742 C1740 1.384 . S
C1742 C1743 1.372 . S
C1743 C1742 1.372 . S
C1743 C1744 1.400 . S
C1743 C1748 1.490 . S
C1744 H1734 0.930 . S
C1744 C1743 1.400 . S
C1744 C1747 1.386 . S
H1745 C1761 0.930 . S
H1746 C1762 0.931 . S
C1747 H1735 0.929 . S
C1747 C1741 1.390 . S
C1747 C1744 1.386 . S
C1748 C1743 1.490 . S
C1748 C1750 1.395 . S
C1748 C1751 1.403 . S
H1749 C1755 0.930 . S
C1750 H1736 0.930 . S
C1750 C1748 1.395 . S
C1750 C1753 1.403 . S
C1751 C1748 1.403 . S
C1751 C1752 1.524 . S
C1751 C1755 1.400 . S
C1752 H1737 0.960 . S
C1752 H1738 0.960 . S
C1752 H1739 0.960 . S
C1752 C1751 1.524 . S
C1753 C1750 1.403 . S
C1753 C1754 1.392 . S
C1753 C1757 1.495 . S
C1754 C1753 1.392 . S
C1754 C1755 1.385 . S
C1754 C1756 1.478 . S
C1755 H1749 0.930 . S
C1755 C1751 1.400 . S
C1755 C1754 1.385 . S
C1756 C1754 1.478 . S
C1756 C1758 1.381 . S
C1756 C1762 1.383 . S
C1757 C1753 1.495 . S
C1757 H1763 0.959 . S
C1757 H1764 0.961 . S
C1757 H1765 0.960 . S
C1758 C1756 1.381 . S
C1758 C1759 1.394 . S
C1758 H1766 0.930 . S
C1759 C1758 1.394 . S
C1759 C1760 1.383 . S
C1759 H1767 0.929 . S
C1760 C1759 1.383 . S
C1760 C1761 1.377 . S
C1761 H1745 0.930 . S
C1761 C1760 1.377 . S
C1761 C1762 1.379 . S
C1762 H1746 0.931 . S
C1762 C1756 1.383 . S
C1762 C1761 1.379 . S
H1763 C1757 0.959 . S
H1764 C1757 0.961 . S
H1765 C1757 0.960 . S
H1766 C1758 0.930 . S
H1767 C1759 0.929 . S
H1768 C1776 0.929 . S
H1769 C1778 0.930 1_556 S
H1770 C1780 0.930 . S
H1771 C1783 0.929 . S
H1772 C1786 0.930 . S
H1773 C1788 0.960 1_556 S
H1774 C1788 0.960 1_556 S
H1775 C1788 0.960 . S
C1776 H1768 0.929 . S
C1776 C1777 1.377 . S
C1776 C1778 1.384 . S
C1777 C1776 1.377 . S
C1777 C1783 1.390 . S
C1778 H1769 0.930 1_554 S
C1778 C1776 1.384 . S
C1778 C1779 1.372 . S
C1779 C1778 1.372 . S
C1779 C1780 1.400 . S
C1779 C1784 1.490 . S
C1780 H1770 0.930 . S
C1780 C1779 1.400 . S
C1780 C1783 1.386 . S
H1781 C1797 0.930 . S
H1782 C1798 0.931 1_554 S
C1783 H1771 0.929 . S
C1783 C1777 1.390 . S
C1783 C1780 1.386 . S
C1784 C1779 1.490 . S
C1784 C1786 1.395 . S
C1784 C1787 1.403 . S
H1785 C1791 0.930 . S
C1786 H1772 0.930 . S
C1786 C1784 1.395 . S
C1786 C1789 1.403 1_554 S
C1787 C1784 1.403 . S
C1787 C1788 1.524 . S
C1787 C1791 1.400 1_554 S
C1788 H1773 0.960 1_554 S
C1788 H1774 0.960 1_554 S
C1788 H1775 0.960 . S
C1788 C1787 1.524 . S
C1789 C1786 1.403 1_556 S
C1789 C1790 1.392 . S
C1789 C1793 1.495 . S
C1790 C1789 1.392 . S
C1790 C1791 1.385 . S
C1790 C1792 1.478 . S
C1791 H1785 0.930 . S
C1791 C1787 1.400 1_556 S
C1791 C1790 1.385 . S
C1792 C1790 1.478 . S
C1792 C1794 1.381 . S
C1792 C1798 1.383 . S
C1793 C1789 1.495 . S
C1793 H1799 0.948 1_556 S
C1793 H1800 0.961 1_556 S
C1793 H1801 0.960 . S
C1794 C1792 1.381 . S
C1794 C1795 1.394 . S
C1794 H1802 0.930 . S
C1795 C1794 1.394 . S
C1795 C1796 1.383 . S
C1795 H1803 0.929 . S
C1796 C1795 1.383 . S
C1796 C1797 1.377 . S
C1797 H1781 0.930 . S
C1797 C1796 1.377 . S
C1797 C1798 1.379 . S
C1798 H1782 0.931 1_556 S
C1798 C1792 1.383 . S
C1798 C1797 1.379 . S
H1799 C1793 0.948 1_554 S
H1800 C1793 0.961 1_554 S
H1801 C1793 0.960 . S
H1802 C1794 0.930 . S
H1803 C1795 0.929 . S
H1804 C1812 0.929 . S
H1805 C1814 0.930 . S
H1806 C1816 0.930 . S
H1807 C1819 0.929 . S
H1808 C1822 0.930 . S
H1809 C1824 0.960 . S
H1810 C1824 0.960 . S
H1811 C1824 0.960 . S
C1812 H1804 0.929 . S
C1812 C1813 1.377 . S
C1812 C1814 1.384 . S
C1813 C1812 1.377 . S
C1813 C1819 1.390 . S
C1814 H1805 0.930 . S
C1814 C1812 1.384 . S
C1814 C1815 1.372 . S
C1815 C1814 1.372 . S
C1815 C1816 1.400 . S
C1815 C1820 1.490 . S
C1816 H1806 0.930 . S
C1816 C1815 1.400 . S
C1816 C1819 1.386 . S
H1817 C1833 0.930 . S
H1818 C1834 0.931 . S
C1819 H1807 0.929 . S
C1819 C1813 1.390 . S
C1819 C1816 1.386 . S
C1820 C1815 1.490 . S
C1820 C1822 1.395 . S
C1820 C1823 1.403 . S
H1821 C1827 0.930 . S
C1822 H1808 0.930 . S
C1822 C1820 1.395 . S
C1822 C1825 1.403 . S
C1823 C1820 1.403 . S
C1823 C1824 1.524 . S
C1823 C1827 1.400 . S
C1824 H1809 0.960 . S
C1824 H1810 0.960 . S
C1824 H1811 0.960 . S
C1824 C1823 1.524 . S
C1825 C1822 1.403 . S
C1825 C1826 1.392 . S
C1825 C1829 1.495 . S
C1826 C1825 1.392 . S
C1826 C1827 1.385 . S
C1826 C1828 1.478 . S
C1827 H1821 0.930 . S
C1827 C1823 1.400 . S
C1827 C1826 1.385 . S
C1828 C1826 1.478 . S
C1828 C1830 1.381 . S
C1828 C1834 1.383 . S
C1829 C1825 1.495 . S
C1829 H1835 0.959 . S
C1829 H1836 0.961 . S
C1829 H1837 0.960 . S
C1830 C1828 1.381 . S
C1830 C1831 1.394 . S
C1830 H1838 0.930 . S
C1831 C1830 1.394 . S
C1831 C1832 1.383 . S
C1831 H1839 0.929 . S
C1832 C1831 1.383 . S
C1832 C1833 1.377 . S
C1833 H1817 0.930 . S
C1833 C1832 1.377 . S
C1833 C1834 1.379 . S
C1834 H1818 0.931 . S
C1834 C1828 1.383 . S
C1834 C1833 1.379 . S
H1835 C1829 0.959 . S
H1836 C1829 0.961 . S
H1837 C1829 0.960 . S
H1838 C1830 0.930 . S
H1839 C1831 0.929 . S
H1840 C1848 0.929 . S
H1841 C1850 0.930 1_556 S
H1842 C1852 0.930 . S
H1843 C1855 0.929 . S
H1844 C1858 0.930 . S
H1845 C1860 0.960 . S
H1846 C1860 0.960 . S
H1847 C1860 0.960 . S
C1848 H1840 0.929 . S
C1848 C1849 1.377 . S
C1848 C1850 1.384 . S
C1849 C1848 1.377 . S
C1849 C1855 1.390 . S
C1850 H1841 0.930 1_554 S
C1850 C1848 1.384 . S
C1850 C1851 1.372 . S
C1851 C1850 1.372 . S
C1851 C1852 1.400 . S
C1851 C1856 1.490 . S
C1852 H1842 0.930 . S
C1852 C1851 1.400 . S
C1852 C1855 1.386 . S
H1853 C1869 0.930 . S
H1854 C1870 0.931 1_554 S
C1855 H1843 0.929 . S
C1855 C1849 1.390 . S
C1855 C1852 1.386 . S
C1856 C1851 1.490 . S
C1856 C1858 1.395 1_554 S
C1856 C1859 1.403 . S
H1857 C1863 0.930 . S
C1858 H1844 0.930 . S
C1858 C1856 1.395 1_556 S
C1858 C1861 1.403 1_565 S
C1859 C1856 1.403 . S
C1859 C1860 1.524 . S
C1859 C1863 1.400 1_564 S
C1860 H1845 0.960 . S
C1860 H1846 0.960 . S
C1860 H1847 0.960 . S
C1860 C1859 1.524 . S
C1861 C1858 1.403 1_545 S
C1861 C1862 1.392 . S
C1861 C1865 1.495 . S
C1862 C1861 1.392 . S
C1862 C1863 1.385 . S
C1862 C1864 1.478 . S
C1863 H1857 0.930 . S
C1863 C1859 1.400 1_546 S
C1863 C1862 1.385 . S
C1864 C1862 1.478 . S
C1864 C1866 1.381 . S
C1864 C1870 1.383 . S
C1865 C1861 1.495 . S
C1865 H1871 0.959 . S
C1865 H1872 0.961 . S
C1865 H1873 0.960 . S
C1866 C1864 1.381 . S
C1866 C1867 1.394 . S
C1866 H1874 0.930 . S
C1867 C1866 1.394 . S
C1867 C1868 1.383 . S
C1867 H1875 0.929 . S
C1868 C1867 1.383 . S
C1868 C1869 1.377 . S
C1869 H1853 0.930 . S
C1869 C1868 1.377 . S
C1869 C1870 1.379 . S
C1870 H1854 0.931 1_556 S
C1870 C1864 1.383 . S
C1870 C1869 1.379 . S
H1871 C1865 0.959 . S
H1872 C1865 0.961 . S
H1873 C1865 0.960 . S
H1874 C1866 0.930 . S
H1875 C1867 0.929 . S
H1876 C1884 0.929 . S
H1877 C1886 0.930 . S
H1878 C1888 0.930 . S
H1879 C1891 0.929 . S
H1880 C1894 0.930 . S
H1881 C1896 0.960 . S
H1882 C1896 0.960 . S
H1883 C1896 0.960 . S
C1884 H1876 0.929 . S
C1884 C1885 1.377 . S
C1884 C1886 1.384 . S
C1885 C1884 1.377 . S
C1885 C1891 1.390 . S
C1886 H1877 0.930 . S
C1886 C1884 1.384 . S
C1886 C1887 1.372 . S
C1887 C1886 1.372 . S
C1887 C1888 1.400 . S
C1887 C1892 1.490 . S
C1888 H1878 0.930 . S
C1888 C1887 1.400 . S
C1888 C1891 1.386 . S
H1889 C1905 0.930 . S
H1890 C1906 0.931 . S
C1891 H1879 0.929 . S
C1891 C1885 1.390 . S
C1891 C1888 1.386 . S
C1892 C1887 1.490 . S
C1892 C1894 1.395 . S
C1892 C1895 1.403 . S
H1893 C1899 0.930 . S
C1894 H1880 0.930 . S
C1894 C1892 1.395 . S
C1894 C1897 1.403 . S
C1895 C1892 1.403 . S
C1895 C1896 1.524 . S
C1895 C1899 1.400 . S
C1896 H1881 0.960 . S
C1896 H1882 0.960 . S
C1896 H1883 0.960 . S
C1896 C1895 1.524 . S
C1897 C1894 1.403 . S
C1897 C1898 1.392 . S
C1897 C1901 1.495 . S
C1898 C1897 1.392 . S
C1898 C1899 1.385 . S
C1898 C1900 1.478 . S
C1899 H1893 0.930 . S
C1899 C1895 1.400 . S
C1899 C1898 1.385 . S
C1900 C1898 1.478 . S
C1900 C1902 1.381 . S
C1900 C1906 1.383 . S
C1901 C1897 1.495 . S
C1901 H1907 0.959 . S
C1901 H1908 0.961 . S
C1901 H1909 0.960 . S
C1902 C1900 1.381 . S
C1902 C1903 1.394 . S
C1902 H1910 0.930 . S
C1903 C1902 1.394 . S
C1903 C1904 1.383 . S
C1903 H1911 0.929 . S
C1904 C1903 1.383 . S
C1904 C1905 1.377 . S
C1905 H1889 0.930 . S
C1905 C1904 1.377 . S
C1905 C1906 1.379 . S
C1906 H1890 0.931 . S
C1906 C1900 1.383 . S
C1906 C1905 1.379 . S
H1907 C1901 0.959 . S
H1908 C1901 0.961 . S
H1909 C1901 0.960 . S
H1910 C1902 0.930 . S
H1911 C1903 0.929 . S
H1912 C1920 0.929 . S
H1913 C1922 0.930 . S
H1914 C1924 0.930 . S
H1915 C1927 0.929 . S
H1916 C1930 0.930 . S
H1917 C1932 0.960 . S
H1918 C1932 0.960 . S
H1919 C1932 0.960 . S
C1920 H1912 0.929 . S
C1920 C1921 1.377 . S
C1920 C1922 1.384 . S
C1921 C1920 1.377 . S
C1921 C1927 1.390 . S
C1922 H1913 0.930 . S
C1922 C1920 1.384 . S
C1922 C1923 1.372 . S
C1923 C1922 1.372 . S
C1923 C1924 1.400 . S
C1923 C1928 1.490 . S
C1924 H1914 0.930 . S
C1924 C1923 1.400 . S
C1924 C1927 1.386 . S
H1925 C1941 0.930 . S
H1926 C1942 0.931 . S
C1927 H1915 0.929 . S
C1927 C1921 1.390 . S
C1927 C1924 1.386 . S
C1928 C1923 1.490 . S
C1928 C1930 1.395 . S
C1928 C1931 1.403 . S
H1929 C1935 0.930 . S
C1930 H1916 0.930 . S
C1930 C1928 1.395 . S
C1930 C1933 1.403 . S
C1931 C1928 1.403 . S
C1931 C1932 1.524 . S
C1931 C1935 1.400 . S
C1932 H1917 0.960 . S
C1932 H1918 0.960 . S
C1932 H1919 0.960 . S
C1932 C1931 1.524 . S
C1933 C1930 1.403 . S
C1933 C1934 1.392 . S
C1933 C1937 1.495 . S
C1934 C1933 1.392 . S
C1934 C1935 1.385 . S
C1934 C1936 1.478 . S
C1935 H1929 0.930 . S
C1935 C1931 1.400 . S
C1935 C1934 1.385 . S
C1936 C1934 1.478 . S
C1936 C1938 1.381 . S
C1936 C1942 1.383 . S
C1937 C1933 1.495 . S
C1937 H1943 0.959 . S
C1937 H1944 0.961 . S
C1937 H1945 0.960 . S
C1938 C1936 1.381 . S
C1938 C1939 1.394 . S
C1938 H1946 0.930 . S
C1939 C1938 1.394 . S
C1939 C1940 1.383 . S
C1939 H1947 0.929 . S
C1940 C1939 1.383 . S
C1940 C1941 1.377 . S
C1941 H1925 0.930 . S
C1941 C1940 1.377 . S
C1941 C1942 1.379 . S
C1942 H1926 0.931 . S
C1942 C1936 1.383 . S
C1942 C1941 1.379 . S
H1943 C1937 0.959 . S
H1944 C1937 0.961 . S
H1945 C1937 0.960 . S
H1946 C1938 0.930 . S
H1947 C1939 0.929 . S
H1948 C1956 0.929 . S
H1949 C1958 0.930 . S
H1950 C1960 0.930 . S
H1951 C1963 0.929 . S
H1952 C1966 0.930 . S
H1953 C1968 0.960 . S
H1954 C1968 0.960 . S
H1955 C1968 0.960 . S
C1956 H1948 0.929 . S
C1956 C1957 1.377 . S
C1956 C1958 1.384 . S
C1957 C1956 1.377 . S
C1957 C1963 1.390 . S
C1958 H1949 0.930 . S
C1958 C1956 1.384 . S
C1958 C1959 1.372 . S
C1959 C1958 1.372 . S
C1959 C1960 1.400 . S
C1959 C1964 1.490 . S
C1960 H1950 0.930 . S
C1960 C1959 1.400 . S
C1960 C1963 1.386 . S
H1961 C1977 0.930 . S
H1962 C1978 0.931 . S
C1963 H1951 0.929 . S
C1963 C1957 1.390 . S
C1963 C1960 1.386 . S
C1964 C1959 1.490 . S
C1964 C1966 1.395 . S
C1964 C1967 1.403 . S
H1965 C1971 0.930 . S
C1966 H1952 0.930 . S
C1966 C1964 1.395 . S
C1966 C1969 1.403 . S
C1967 C1964 1.403 . S
C1967 C1968 1.524 . S
C1967 C1971 1.400 . S
C1968 H1953 0.960 . S
C1968 H1954 0.960 . S
C1968 H1955 0.960 . S
C1968 C1967 1.524 . S
C1969 C1966 1.403 . S
C1969 C1970 1.392 . S
C1969 C1973 1.495 . S
C1970 C1969 1.392 . S
C1970 C1971 1.385 . S
C1970 C1972 1.478 . S
C1971 H1965 0.930 . S
C1971 C1967 1.400 . S
C1971 C1970 1.385 . S
C1972 C1970 1.478 . S
C1972 C1974 1.381 . S
C1972 C1978 1.383 . S
C1973 C1969 1.495 . S
C1973 H1979 0.959 . S
C1973 H1980 0.961 . S
C1973 H1981 0.960 . S
C1974 C1972 1.381 . S
C1974 C1975 1.394 . S
C1974 H1982 0.930 . S
C1975 C1974 1.394 . S
C1975 C1976 1.383 . S
C1975 H1983 0.929 . S
C1976 C1975 1.383 . S
C1976 C1977 1.377 . S
C1977 H1961 0.930 . S
C1977 C1976 1.377 . S
C1977 C1978 1.379 . S
C1978 H1962 0.931 . S
C1978 C1972 1.383 . S
C1978 C1977 1.379 . S
H1979 C1973 0.959 . S
H1980 C1973 0.961 . S
H1981 C1973 0.960 . S
H1982 C1974 0.930 . S
H1983 C1975 0.929 . S
C553 C5 0.360 . S
C572 C315 0.405 . S
C589 C9 0.454 . S
C608 C311 0.334 . S
C625 C281 0.448 . S
C644 C39 0.398 . S
C661 C43 0.486 . S
C680 C277 0.343 . S
C697 C73 0.343 . S
C716 C383 0.462 . S
C733 C77 0.460 . S
C752 C379 0.325 . S
C769 C107 0.359 . S
C788 C349 0.557 . S
C805 C111 0.447 . S
C824 C345 0.283 . S
C841 C141 0.345 . S
C860 C451 0.555 . S
C877 C447 0.332 . S
C896 C145 0.505 . S
C913 C417 0.477 . S
C932 C175 0.282 . S
C949 C413 0.333 . S
C968 C179 0.544 . S
C985 C519 0.448 . S
C1004 C209 0.284 . S
C1021 C515 0.346 . S
C1040 C213 0.470 . S
C1057 C485 0.486 . S
C1076 C243 0.414 . S
C1093 C247 0.478 . S
C1112 C481 0.391 . S
C1129 C2 1.640 . S
C1148 C36 1.638 . S
C1165 C104 1.639 . S
C1184 C70 1.634 . S
C1201 C172 1.639 . S
C1220 C138 1.639 . S
C1237 C240 1.640 . S
C1256 C206 1.636 . S
C1273 C308 1.640 . S
C1292 C274 1.639 . S
C1309 C342 1.640 . S
C1328 C376 1.635 . S
C1345 C444 1.640 . S
C1364 C410 1.636 . S
C1381 C478 1.640 . S
C1400 C512 1.635 . S
C1417 C509 1.322 . S
C1436 C33 1.291 . S
C1453 C88 1.871 . S
C1472 C20 1.857 . S
C1489 C407 1.327 . S
C1508 C67 1.310 . S
C1525 C258 1.871 . S
C1544 C54 1.857 . S
C1561 C101 1.326 . S
C1580 C441 1.350 . S
C1597 C339 1.319 . S
C1616 C135 1.289 . S
C1633 C122 1.871 . S
C1652 C190 1.856 . S
C1669 C373 1.324 . S
C1688 C169 1.298 . S
C1705 C156 1.873 . S
C1724 C224 1.858 . S
C1741 C203 1.322 . S
C1760 C543 1.293 . S
C1777 C237 1.324 . S
C1796 C305 1.298 . S
C1813 C271 1.322 . S
C1832 C475 1.345 . S
C1849 C360 1.873 . S
C1868 C292 1.857 . S
C1885 C530 1.874 . S
C1904 C326 1.881 . S
C1921 C394 1.873 . S
C1940 C462 1.881 . S
C1957 C428 1.875 . S
C1976 C496 1.881 . S
