# Generated by pormake.
# Topology bcu-f, (3)-cn, num edge types: 1
# Building blocks:
#     Node 0, Type 0, BuildingBlock: OLANEW_clean_sbu_2, # of connection points: 3
#     Node 1, Type 0, BuildingBlock: OLANEW_clean_sbu_2, # of connection points: 3
#     Node 2, Type 0, BuildingBlock: OLANEW_clean_sbu_2, # of connection points: 3
#     Node 3, Type 0, BuildingBlock: OLANEW_clean_sbu_2, # of connection points: 3
#     Node 4, Type 0, BuildingBlock: OLANEW_clean_sbu_2, # of connection points: 3
#     Node 5, Type 0, BuildingBlock: OLANEW_clean_sbu_2, # of connection points: 3
#     Node 6, Type 0, BuildingBlock: OLANEW_clean_sbu_2, # of connection points: 3
#     Node 7, Type 0, BuildingBlock: OLANEW_clean_sbu_2, # of connection points: 3
#     Node 8, Type 0, BuildingBlock: OLANEW_clean_sbu_2, # of connection points: 3
#     Node 9, Type 0, BuildingBlock: OLANEW_clean_sbu_2, # of connection points: 3
#     Node 10, Type 0, BuildingBlock: OLANEW_clean_sbu_2, # of connection points: 3
#     Node 11, Type 0, BuildingBlock: OLANEW_clean_sbu_2, # of connection points: 3
#     Node 12, Type 0, BuildingBlock: OLANEW_clean_sbu_2, # of connection points: 3
#     Node 13, Type 0, BuildingBlock: OLANEW_clean_sbu_2, # of connection points: 3
#     Node 14, Type 0, BuildingBlock: OLANEW_clean_sbu_2, # of connection points: 3
#     Node 15, Type 0, BuildingBlock: OLANEW_clean_sbu_2, # of connection points: 3
#     Edge 16, Type (0, 0), BuildingBlock: AJUNOK_clean_linker_0, # of connection points: 2
#     Edge 17, Type (0, 0), BuildingBlock: AJUNOK_clean_linker_0, # of connection points: 2
#     Edge 18, Type (0, 0), BuildingBlock: AJUNOK_clean_linker_0, # of connection points: 2
#     Edge 19, Type (0, 0), BuildingBlock: AJUNOK_clean_linker_0, # of connection points: 2
#     Edge 20, Type (0, 0), BuildingBlock: AJUNOK_clean_linker_0, # of connection points: 2
#     Edge 21, Type (0, 0), BuildingBlock: AJUNOK_clean_linker_0, # of connection points: 2
#     Edge 22, Type (0, 0), BuildingBlock: AJUNOK_clean_linker_0, # of connection points: 2
#     Edge 23, Type (0, 0), BuildingBlock: AJUNOK_clean_linker_0, # of connection points: 2
#     Edge 24, Type (0, 0), BuildingBlock: AJUNOK_clean_linker_0, # of connection points: 2
#     Edge 25, Type (0, 0), BuildingBlock: AJUNOK_clean_linker_0, # of connection points: 2
#     Edge 26, Type (0, 0), BuildingBlock: AJUNOK_clean_linker_0, # of connection points: 2
#     Edge 27, Type (0, 0), BuildingBlock: AJUNOK_clean_linker_0, # of connection points: 2
#     Edge 28, Type (0, 0), BuildingBlock: AJUNOK_clean_linker_0, # of connection points: 2
#     Edge 29, Type (0, 0), BuildingBlock: AJUNOK_clean_linker_0, # of connection points: 2
#     Edge 30, Type (0, 0), BuildingBlock: AJUNOK_clean_linker_0, # of connection points: 2
#     Edge 31, Type (0, 0), BuildingBlock: AJUNOK_clean_linker_0, # of connection points: 2
#     Edge 32, Type (0, 0), BuildingBlock: AJUNOK_clean_linker_0, # of connection points: 2
#     Edge 33, Type (0, 0), BuildingBlock: AJUNOK_clean_linker_0, # of connection points: 2
#     Edge 34, Type (0, 0), BuildingBlock: AJUNOK_clean_linker_0, # of connection points: 2
#     Edge 35, Type (0, 0), BuildingBlock: AJUNOK_clean_linker_0, # of connection points: 2
#     Edge 36, Type (0, 0), BuildingBlock: AJUNOK_clean_linker_0, # of connection points: 2
#     Edge 37, Type (0, 0), BuildingBlock: AJUNOK_clean_linker_0, # of connection points: 2
#     Edge 38, Type (0, 0), BuildingBlock: AJUNOK_clean_linker_0, # of connection points: 2
#     Edge 39, Type (0, 0), BuildingBlock: AJUNOK_clean_linker_0, # of connection points: 2
# Relax obj value: 0.001
# Max RMSD: 0.037
# Mean RMSD: 0.037
data_MOF--net-bcu-f--node1-OLANEW_clean_sbu_2--edge1-AJUNOK_clean_linker_0
_symmetry_space_group_name_H-M    P1
_symmetry_Int_Tables_number       1
_symmetry_cell_setting            triclinic
loop_
_symmetry_equiv_pos_as_xyz
'x, y, z'
_cell_length_a     56.036157
_cell_length_b     55.934925
_cell_length_c     16.491542
_cell_angle_alpha  89.997004
_cell_angle_beta   90.011893
_cell_angle_gamma 89.984137
loop_
_atom_site_label
_atom_site_type_symbol
_atom_site_fract_x
_atom_site_fract_y
_atom_site_fract_z
_atom_type_partial_charge
O0 O 0.18634 0.14219 0.9871 0.0
Cd1 Cd 0.21991 0.13882 0.08098 0.0
O2 O 0.20371 0.16875 0.90843 0.0
Cd3 Cd 0.23152 0.17544 0.99838 0.0
O4 O 0.25243 0.18869 0.10087 0.0
C5 C 0.24875 0.20985 0.12622 0.0
O6 O 0.23263 0.22299 0.08933 0.0
C7 C 0.18638 0.15471 0.92269 0.0
C8 C 0.23325 0.09083 0.09374 0.0
O9 O 0.21874 0.10025 0.14463 0.0
O10 O 0.24179 0.10425 0.03787 0.0
O11 O 0.89777 0.16279 0.2221 0.0
Cd12 Cd 0.93801 0.17893 0.23239 0.0
O13 O 0.88405 0.19838 0.19251 0.0
Cd14 Cd 0.85755 0.22511 0.15556 0.0
O15 O 0.83205 0.25429 0.13781 0.0
C16 C 0.81067 0.24988 0.11705 0.0
O17 O 0.80433 0.22754 0.10503 0.0
C18 C 0.88031 0.17616 0.20323 0.0
C19 C 0.96294 0.16829 0.09065 0.0
O20 O 0.96248 0.15366 0.1504 0.0
O21 O 0.95192 0.18824 0.09858 0.0
O22 O 0.8005 0.88479 0.02894 0.0
Cd23 Cd 0.76409 0.89463 0.10371 0.0
O24 O 0.78541 0.85254 0.97221 0.0
Cd25 Cd 0.75463 0.85109 0.05324 0.0
O26 O 0.73094 0.83539 0.14413 0.0
C27 C 0.7283 0.81282 0.14241 0.0
O28 O 0.73923 0.80059 0.08542 0.0
C29 C 0.80236 0.8675 0.97925 0.0
C30 C 0.75726 0.9442 0.10792 0.0
O31 O 0.7679 0.93328 0.16591 0.0
O32 O 0.74973 0.93164 0.04815 0.0
O33 O 0.12754 0.85128 0.17214 0.0
Cd34 Cd 0.08943 0.83126 0.1969 0.0
O35 O 0.14448 0.81699 0.14324 0.0
Cd36 Cd 0.17485 0.79332 0.12129 0.0
O37 O 0.19909 0.76269 0.1212 0.0
C38 C 0.21548 0.761 0.17417 0.0
O39 O 0.21821 0.77847 0.22664 0.0
C40 C 0.146 0.83951 0.15189 0.0
C41 C 0.05553 0.83969 0.07614 0.0
O42 O 0.05827 0.85427 0.13533 0.0
O43 O 0.06895 0.82114 0.07382 0.0
O44 O 0.23278 0.91553 0.14668 0.0
Cd45 Cd 0.26806 0.94126 0.14142 0.0
O46 O 0.25182 0.88829 0.0772 0.0
Cd47 Cd 0.26158 0.85481 0.01645 0.0
O48 O 0.27714 0.8293 0.93086 0.0
C49 C 0.26915 0.82852 0.85879 0.0
O50 O 0.25118 0.84243 0.83902 0.0
C51 C 0.23293 0.89498 0.11371 0.0
C52 C 0.25689 0.98964 0.12263 0.0
O53 O 0.26124 0.97635 0.06107 0.0
O54 O 0.25761 0.97996 0.19304 0.0
O55 O 0.08725 0.13725 0.72351 0.0
Cd56 Cd 0.04738 0.14036 0.66565 0.0
O57 O 0.09803 0.17147 0.66989 0.0
Cd58 Cd 0.12158 0.20248 0.65891 0.0
O59 O 0.14957 0.22933 0.64629 0.0
C60 C 0.16263 0.22937 0.58326 0.0
O61 O 0.15843 0.21353 0.52623 0.0
C62 C 0.1028 0.15355 0.71458 0.0
C63 C 0.01656 0.14828 0.79567 0.0
O64 O 0.02166 0.12706 0.7721 0.0
O65 O 0.02536 0.16581 0.75553 0.0
O66 O 0.78212 0.11627 0.11896 0.0
Cd67 Cd 0.74328 0.09783 0.09291 0.0
O68 O 0.76748 0.15058 0.16062 0.0
Cd69 Cd 0.73152 0.14359 0.11623 0.0
O70 O 0.70669 0.16036 0.03164 0.0
C71 C 0.71258 0.18166 0.01364 0.0
O72 O 0.73167 0.19073 0.0482 0.0
C73 C 0.78532 0.13698 0.14888 0.0
C74 C 0.74678 0.04795 0.10101 0.0
O75 O 0.74852 0.05898 0.03312 0.0
O76 O 0.7431 0.0605 0.16479 0.0
O77 O 0.90589 0.86476 0.79228 0.0
Cd78 Cd 0.94359 0.85708 0.72243 0.0
O79 O 0.89049 0.83089 0.75058 0.0
Cd80 Cd 0.86346 0.80253 0.74629 0.0
O81 O 0.83432 0.77655 0.74084 0.0
C82 C 0.82247 0.77381 0.67578 0.0
O83 O 0.8282 0.7867 0.61207 0.0
C84 C 0.8885 0.85019 0.79101 0.0
C85 C 0.98078 0.85245 0.83417 0.0
O86 O 0.97451 0.87298 0.8071 0.0
O87 O 0.96964 0.83404 0.80758 0.0
O88 O 0.65706 0.61604 0.59679 0.0
Cd89 Cd 0.68198 0.58112 0.62795 0.0
O90 O 0.68921 0.63796 0.58499 0.0
Cd91 Cd 0.71164 0.66962 0.56616 0.0
O92 O 0.73798 0.69832 0.57607 0.0
C93 C 0.74638 0.70299 0.64592 0.0
O94 O 0.73853 0.69068 0.70828 0.0
C95 C 0.66653 0.63649 0.58691 0.0
C96 C 0.68515 0.54436 0.51371 0.0
O97 O 0.66728 0.54584 0.56196 0.0
O98 O 0.70105 0.56081 0.51717 0.0
O99 O 0.34179 0.68437 0.52499 0.0
Cd100 Cd 0.35074 0.71403 0.62968 0.0
O101 O 0.34905 0.70947 0.42501 0.0
Cd102 Cd 0.34554 0.73962 0.50822 0.0
O103 O 0.33291 0.76313 0.60505 0.0
C104 C 0.31091 0.76865 0.60639 0.0
O105 O 0.297 0.7607 0.54817 0.0
C106 C 0.34461 0.6884 0.44968 0.0
C107 C 0.40023 0.7203 0.63927 0.0
O108 O 0.38948 0.70536 0.68545 0.0
O109 O 0.38754 0.73248 0.58959 0.0
O110 O 0.33482 0.37432 0.6128 0.0
Cd111 Cd 0.31343 0.41241 0.61115 0.0
O112 O 0.30369 0.3567 0.55918 0.0
Cd113 Cd 0.28237 0.32702 0.512 0.0
O114 O 0.25517 0.29918 0.50521 0.0
C115 C 0.24018 0.2987 0.56298 0.0
O116 O 0.24212 0.31469 0.62101 0.0
C117 C 0.32459 0.3553 0.58897 0.0
C118 C 0.32928 0.44453 0.49357 0.0
O119 O 0.33944 0.44322 0.56304 0.0
O120 O 0.31175 0.4304 0.47938 0.0
O121 O 0.62958 0.30062 0.62288 0.0
Cd122 Cd 0.61909 0.27255 0.73078 0.0
O123 O 0.63324 0.27242 0.53092 0.0
Cd124 Cd 0.63036 0.24407 0.6211 0.0
O125 O 0.64415 0.22344 0.72318 0.0
C126 C 0.66167 0.23318 0.75926 0.0
O127 O 0.66916 0.25405 0.73297 0.0
C128 C 0.63344 0.29448 0.54976 0.0
C129 C 0.57015 0.26356 0.73396 0.0
O130 O 0.5794 0.27997 0.77816 0.0
O131 O 0.58411 0.2514 0.68825 0.0
O132 O 0.67622 0.38318 0.3307 0.0
Cd133 Cd 0.69613 0.41292 0.24553 0.0
O134 O 0.68294 0.35174 0.25352 0.0
Cd135 Cd 0.70988 0.36632 0.17214 0.0
O136 O 0.74113 0.34544 0.13566 0.0
C137 C 0.73687 0.3233 0.12556 0.0
O138 O 0.71467 0.31592 0.1316 0.0
C139 C 0.67315 0.36112 0.31537 0.0
C140 C 0.69401 0.45771 0.3209 0.0
O141 O 0.67656 0.44994 0.27819 0.0
O142 O 0.71258 0.44446 0.32726 0.0
O143 O 0.57918 0.71088 0.61677 0.0
Cd144 Cd 0.5521 0.74465 0.63939 0.0
O145 O 0.60484 0.73753 0.57391 0.0
Cd146 Cd 0.63826 0.7499 0.51988 0.0
O147 O 0.66349 0.76939 0.44344 0.0
C148 C 0.66948 0.7608 0.3751 0.0
O149 O 0.66112 0.73976 0.35393 0.0
C150 C 0.59989 0.7159 0.5904 0.0
C151 C 0.50343 0.73377 0.64016 0.0
O152 O 0.51397 0.74045 0.57498 0.0
O153 O 0.51605 0.73179 0.70465 0.0
O154 O 0.36221 0.59406 0.23238 0.0
Cd155 Cd 0.36403 0.55667 0.15614 0.0
O156 O 0.32605 0.60194 0.1879 0.0
Cd157 Cd 0.29599 0.62683 0.18211 0.0
O158 O 0.27132 0.65688 0.17037 0.0
C159 C 0.27649 0.6768 0.20303 0.0
O160 O 0.29642 0.67856 0.24464 0.0
C161 C 0.34386 0.60737 0.23185 0.0
C162 C 0.35453 0.51848 0.26025 0.0
O163 O 0.37576 0.5266 0.2516 0.0
O164 O 0.33785 0.52816 0.21833 0.0
O165 O 0.3962 0.26959 0.68549 0.0
Cd166 Cd 0.4193 0.23408 0.72114 0.0
O167 O 0.3709 0.24695 0.61938 0.0
Cd168 Cd 0.34069 0.24091 0.53818 0.0
O169 O 0.31677 0.22973 0.44094 0.0
C170 C 0.30387 0.2446 0.40256 0.0
O171 O 0.3045 0.26723 0.42377 0.0
C172 C 0.37729 0.26754 0.64359 0.0
C173 C 0.46803 0.244 0.7282 0.0
O174 O 0.45843 0.2361 0.66293 0.0
O175 O 0.45455 0.24706 0.7901 0.0
C176 C 0.241 0.02811 0.17832 0.0
C177 C 0.25116 0.01542 0.1132 0.0
C178 C 0.23526 0.05242 0.17132 0.0
C179 C 0.23974 0.06515 0.09931 0.0
H180 H 0.23722 0.01918 0.23516 0.0
H181 H 0.22737 0.06132 0.22313 0.0
S182 S 0.26627 0.04034 0.91087 0.0
N183 N 0.26549 0.01747 0.97409 0.0
N184 N 0.25497 0.06318 0.96128 0.0
C185 C 0.25004 0.05273 0.0338 0.0
C186 C 0.25565 0.02788 0.04062 0.0
C187 C 0.9812 0.18067 0.95869 0.0
C188 C 0.97593 0.16247 0.0148 0.0
C189 C 0.99401 0.17583 0.88756 0.0
C190 C 0.00184 0.15255 0.8691 0.0
H191 H 0.97575 0.19893 0.97031 0.0
H192 H 0.99792 0.19056 0.84703 0.0
S193 S 0.99164 0.09825 0.99417 0.0
N194 N 0.97888 0.12004 0.04585 0.0
N195 N 0.00276 0.11091 0.91205 0.0
C196 C 0.99623 0.13406 0.92384 0.0
C197 C 0.98336 0.13903 0.99669 0.0
C198 C 0.7468 0.00774 0.03424 0.0
C199 C 0.74908 0.02152 0.10522 0.0
C200 C 0.74912 0.98278 0.03604 0.0
C201 C 0.75417 0.97057 0.10869 0.0
H202 H 0.74309 0.01627 0.97662 0.0
H203 H 0.74726 0.97303 0.97964 0.0
S204 S 0.76177 0.99825 0.31172 0.0
N205 N 0.75646 0.02102 0.25063 0.0
N206 N 0.76114 0.97419 0.25379 0.0
C207 C 0.75648 0.98411 0.18022 0.0
C208 C 0.75383 0.00953 0.17856 0.0
C209 C 0.02915 0.82453 0.96504 0.0
C210 C 0.03698 0.84372 0.01339 0.0
C211 C 0.01101 0.82755 0.90738 0.0
C212 C 0.00021 0.84996 0.89478 0.0
H213 H 0.03679 0.80688 0.97265 0.0
H214 H 0.00547 0.81215 0.87226 0.0
S215 S 0.01471 0.90619 0.00395 0.0
N216 N 0.03277 0.88607 0.04393 0.0
N217 N 0.99894 0.89182 0.93487 0.0
C218 C 0.00813 0.86942 0.9418 0.0
C219 C 0.02641 0.86627 0.00128 0.0
C220 C 0.6676 0.51041 0.43491 0.0
C221 C 0.68783 0.52353 0.45881 0.0
C222 C 0.66974 0.48961 0.38796 0.0
C223 C 0.69225 0.4808 0.36469 0.0
H224 H 0.64993 0.51615 0.45318 0.0
H225 H 0.65366 0.47996 0.372 0.0
S226 S 0.75079 0.50885 0.40941 0.0
N227 N 0.73111 0.52664 0.4531 0.0
N228 N 0.73515 0.48724 0.36665 0.0
C229 C 0.71262 0.49393 0.38703 0.0
C230 C 0.7104 0.51538 0.43351 0.0
C231 C 0.46308 0.73776 0.57673 0.0
C232 C 0.47729 0.72942 0.64118 0.0
C233 C 0.43825 0.73485 0.57712 0.0
C234 C 0.42656 0.7232 0.6415 0.0
H235 H 0.47113 0.74696 0.52581 0.0
H236 H 0.42817 0.7417 0.5261 0.0
S237 S 0.45554 0.69756 0.8244 0.0
N238 N 0.47781 0.70876 0.77104 0.0
N239 N 0.43117 0.70303 0.77129 0.0
C240 C 0.44055 0.7145 0.706 0.0
C241 C 0.46587 0.71769 0.706 0.0
C242 C 0.32718 0.48684 0.31372 0.0
C243 C 0.34919 0.49887 0.31811 0.0
C244 C 0.32119 0.4689 0.36945 0.0
C245 C 0.33682 0.46249 0.4326 0.0
H246 H 0.31435 0.49136 0.26703 0.0
H247 H 0.3039 0.46039 0.36395 0.0
S248 S 0.39701 0.48799 0.46973 0.0
N249 N 0.38703 0.50258 0.38959 0.0
N250 N 0.37563 0.4691 0.49484 0.0
C251 C 0.35905 0.47413 0.43714 0.0
C252 C 0.36527 0.49223 0.37977 0.0
C253 C 0.53374 0.24529 0.67197 0.0
C254 C 0.54411 0.25884 0.73465 0.0
C255 C 0.50916 0.24074 0.67026 0.0
C256 C 0.49396 0.24928 0.73171 0.0
H257 H 0.54464 0.23829 0.6232 0.0
H258 H 0.50207 0.23027 0.62052 0.0
S259 S 0.5122 0.28545 0.91012 0.0
N260 N 0.53725 0.28071 0.86005 0.0
N261 N 0.49112 0.27195 0.85732 0.0
C262 C 0.5041 0.26274 0.7951 0.0
C263 C 0.52913 0.26759 0.7964 0.0
C264 C 0.14342 0.14604 0.89576 0.0
C265 C 0.16578 0.15354 0.86652 0.0
C266 C 0.12332 0.1457 0.84536 0.0
C267 C 0.1248 0.15279 0.76376 0.0
H268 H 0.14124 0.14091 0.95867 0.0
H269 H 0.10634 0.1404 0.87114 0.0
S270 S 0.17985 0.17013 0.65395 0.0
N271 N 0.18867 0.16603 0.74851 0.0
N272 N 0.15089 0.16466 0.65322 0.0
C273 C 0.1472 0.15928 0.73256 0.0
C274 C 0.16769 0.15984 0.78412 0.0
C275 C 0.81291 0.16909 0.19844 0.0
C276 C 0.80977 0.14594 0.16625 0.0
C277 C 0.83572 0.17867 0.21103 0.0
C278 C 0.85633 0.16559 0.19152 0.0
H279 H 0.79763 0.18006 0.21372 0.0
H280 H 0.83715 0.19633 0.23732 0.0
S281 S 0.85827 0.10396 0.10833 0.0
N282 N 0.82955 0.1099 0.1176 0.0
N283 N 0.87232 0.12808 0.1406 0.0
C284 C 0.85356 0.14226 0.16111 0.0
C285 C 0.83034 0.13243 0.14842 0.0
C286 C 0.82352 0.85171 0.85696 0.0
C287 C 0.82439 0.86431 0.93076 0.0
C288 C 0.84421 0.84765 0.81121 0.0
C289 C 0.86666 0.85547 0.83847 0.0
H290 H 0.80666 0.84511 0.83383 0.0
H291 H 0.84244 0.83867 0.75346 0.0
S292 S 0.87867 0.8895 0.0274 0.0
N293 N 0.84953 0.88513 0.02808 0.0
N294 N 0.88849 0.87687 0.94332 0.0
C295 C 0.86774 0.86845 0.9115 0.0
C296 C 0.84662 0.87293 0.95748 0.0
C297 C 0.17608 0.86879 0.20086 0.0
C298 C 0.16898 0.85203 0.14233 0.0
C299 C 0.19707 0.88207 0.19134 0.0
C300 C 0.21163 0.87939 0.12229 0.0
H301 H 0.16529 0.87168 0.25451 0.0
H302 H 0.20182 0.8947 0.23846 0.0
S303 S 0.1991 0.8397 0.94695 0.0
N304 N 0.17722 0.83415 0.0113 0.0
N305 N 0.21607 0.86006 0.99101 0.0
C306 C 0.20443 0.86294 0.06249 0.0
C307 C 0.18324 0.84902 0.07313 0.0
C308 C 0.62831 0.6559 0.54494 0.0
C309 C 0.65099 0.65791 0.58119 0.0
C310 C 0.61206 0.675 0.54604 0.0
C311 C 0.61803 0.69691 0.58234 0.0
H312 H 0.62288 0.63926 0.51686 0.0
H313 H 0.5946 0.67252 0.51913 0.0
S314 S 0.67385 0.71076 0.69315 0.0
N315 N 0.67747 0.68302 0.66125 0.0
N316 N 0.64752 0.7193 0.65873 0.0
C317 C 0.64063 0.6993 0.61817 0.0
C318 C 0.65698 0.67969 0.61876 0.0
C319 C 0.36108 0.64602 0.27956 0.0
C320 C 0.34302 0.62866 0.28414 0.0
C321 C 0.36101 0.66587 0.33161 0.0
C322 C 0.34335 0.66846 0.39153 0.0
H323 H 0.3753 0.64423 0.23549 0.0
H324 H 0.37528 0.67886 0.32668 0.0
S325 S 0.29212 0.62794 0.42747 0.0
N326 N 0.30677 0.61553 0.35141 0.0
N327 N 0.30715 0.65235 0.45134 0.0
C328 C 0.3252 0.65123 0.39646 0.0
C329 C 0.32491 0.63142 0.34213 0.0
C330 C 0.36192 0.3311 0.58478 0.0
C331 C 0.33711 0.33214 0.59745 0.0
C332 C 0.37472 0.30993 0.5981 0.0
C333 C 0.36314 0.28899 0.62376 0.0
H334 H 0.37157 0.34687 0.56526 0.0
H335 H 0.39386 0.30998 0.58874 0.0
S336 S 0.29906 0.2829 0.67508 0.0
N337 N 0.30192 0.31091 0.64497 0.0
N338 N 0.32584 0.27084 0.66628 0.0
C339 C 0.33839 0.28972 0.63686 0.0
C340 C 0.3254 0.31139 0.62464 0.0
C341 C 0.65688 0.32109 0.35389 0.0
C342 C 0.65987 0.34546 0.37261 0.0
C343 C 0.64731 0.30504 0.41022 0.0
C344 C 0.64031 0.3126 0.48805 0.0
H345 H 0.66268 0.31404 0.29595 0.0
H346 H 0.64621 0.28637 0.39326 0.0
S347 S 0.64165 0.37509 0.5645 0.0
N348 N 0.653 0.37682 0.47235 0.0
N349 N 0.635 0.34664 0.57838 0.0
C350 C 0.6419 0.33718 0.50615 0.0
C351 C 0.65166 0.3536 0.44852 0.0
C352 C 0.28994 0.21223 0.30905 0.0
C353 C 0.28919 0.23641 0.33275 0.0
C354 C 0.27686 0.20391 0.24243 0.0
C355 C 0.26231 0.21935 0.19669 0.0
H356 H 0.30086 0.19951 0.34187 0.0
H357 H 0.27818 0.18514 0.22693 0.0
S358 S 0.25362 0.2843 0.23397 0.0
N359 N 0.27247 0.27574 0.30519 0.0
N360 N 0.24768 0.26007 0.18054 0.0
C361 C 0.26119 0.24357 0.21998 0.0
C362 C 0.27467 0.2521 0.28771 0.0
C363 C 0.75064 0.28119 0.106 0.0
C364 C 0.7564 0.30553 0.11577 0.0
C365 C 0.76833 0.26352 0.10404 0.0
C366 C 0.79263 0.26934 0.11242 0.0
H367 H 0.7322 0.27555 0.10152 0.0
H368 H 0.76276 0.24506 0.09803 0.0
S369 S 0.81755 0.33059 0.13358 0.0
N370 N 0.7884 0.33467 0.12925 0.0
N371 N 0.82169 0.30146 0.12613 0.0
C372 C 0.79879 0.29369 0.11953 0.0
C373 C 0.7807 0.31176 0.12104 0.0
C374 C 0.70763 0.77598 0.1918 0.0
C375 C 0.71336 0.80023 0.20342 0.0
C376 C 0.69361 0.76345 0.24783 0.0
C377 C 0.68485 0.77455 0.31837 0.0
H378 H 0.71385 0.76651 0.13855 0.0
H379 H 0.68964 0.74485 0.23548 0.0
S380 S 0.69511 0.83774 0.37861 0.0
N381 N 0.70939 0.83489 0.29161 0.0
N382 N 0.68317 0.81133 0.39719 0.0
C383 C 0.69063 0.79878 0.33132 0.0
C384 C 0.7048 0.81161 0.27381 0.0
C385 C 0.26526 0.71886 0.23834 0.0
C386 C 0.26057 0.69789 0.19387 0.0
C387 C 0.25067 0.7391 0.23118 0.0
C388 C 0.23083 0.73936 0.17884 0.0
H389 H 0.28029 0.71968 0.27957 0.0
H390 H 0.25508 0.7547 0.2671 0.0
S391 S 0.21074 0.68911 0.04821 0.0
N392 N 0.23457 0.67867 0.09518 0.0
N393 N 0.20725 0.71671 0.08147 0.0
C394 C 0.22596 0.71855 0.13358 0.0
C395 C 0.24077 0.69785 0.14122 0.0
C396 C 0.26799 0.80816 0.72391 0.0
C397 C 0.2802 0.81275 0.79683 0.0
C398 C 0.27804 0.79382 0.6632 0.0
C399 C 0.30087 0.78368 0.67232 0.0
H400 H 0.25042 0.81563 0.71348 0.0
H401 H 0.26784 0.79088 0.6083 0.0
S402 S 0.34037 0.79007 0.8519 0.0
N403 N 0.31639 0.80581 0.87504 0.0
N404 N 0.33537 0.77905 0.76062 0.0
C405 C 0.31332 0.78808 0.74499 0.0
C406 C 0.30296 0.80252 0.8073 0.0
C407 C 0.20395 0.28146 0.62914 0.0
C408 C 0.22072 0.28069 0.56564 0.0
C409 C 0.1853 0.26487 0.63401 0.0
C410 C 0.18253 0.24677 0.57551 0.0
H411 H 0.20513 0.29502 0.67585 0.0
H412 H 0.17293 0.26635 0.68422 0.0
S413 S 0.22188 0.23648 0.39761 0.0
N414 N 0.23352 0.26 0.4433 0.0
N415 N 0.19843 0.22885 0.4523 0.0
C416 C 0.19919 0.2457 0.51164 0.0
C417 C 0.21827 0.26262 0.50675 0.0
C418 C 0.66765 0.19743 0.84898 0.0
C419 C 0.67411 0.22088 0.82705 0.0
C420 C 0.67989 0.18504 0.91018 0.0
C421 C 0.69909 0.19559 0.95207 0.0
H422 H 0.65323 0.18836 0.81787 0.0
H423 H 0.67443 0.16691 0.92384 0.0
S424 S 0.72235 0.25715 0.92083 0.0
N425 N 0.70046 0.25453 0.85453 0.0
N426 N 0.72337 0.23135 0.96916 0.0
C427 C 0.70539 0.21925 0.932 0.0
C428 C 0.69294 0.23185 0.86967 0.0
C429 C 0.77381 0.73406 0.58825 0.0
C430 C 0.7653 0.72141 0.65616 0.0
C431 C 0.79209 0.75103 0.59546 0.0
C432 C 0.80275 0.75607 0.67086 0.0
H433 H 0.76642 0.73076 0.52859 0.0
H434 H 0.79804 0.76008 0.54104 0.0
S435 S 0.78646 0.72863 0.86841 0.0
N436 N 0.76859 0.71566 0.80214 0.0
N437 N 0.80293 0.74747 0.81554 0.0
C438 C 0.79424 0.74379 0.73959 0.0
C439 C 0.77554 0.72652 0.73229 0.0
loop_
_geom_bond_atom_site_label_1
_geom_bond_atom_site_label_2
_geom_bond_distance
_geom_bond_site_symmetry_2
_ccdc_geom_bond_type
O0 Cd1 2.300 . S
O0 C7 1.275 . S
Cd1 O0 2.300 . S
Cd1 O9 2.381 . S
Cd1 O10 2.378 . S
O2 Cd3 2.385 . S
O2 C7 1.255 . S
Cd3 O2 2.385 . S
Cd3 O4 2.317 . S
O4 Cd3 2.317 . S
O4 C5 1.232 . S
C5 O4 1.232 . S
C5 O6 1.218 . S
O6 C5 1.218 . S
C7 O0 1.275 . S
C7 O2 1.255 . S
C8 O9 1.258 . S
C8 O10 1.256 . S
O9 Cd1 2.381 . S
O9 C8 1.258 . S
O10 Cd1 2.378 . S
O10 C8 1.256 . S
O11 Cd12 2.300 . S
O11 C18 1.275 . S
Cd12 O11 2.300 . S
Cd12 O20 2.381 . S
Cd12 O21 2.378 . S
O13 Cd14 2.385 . S
O13 C18 1.255 . S
Cd14 O13 2.385 . S
Cd14 O15 2.317 . S
O15 Cd14 2.317 . S
O15 C16 1.232 . S
C16 O15 1.232 . S
C16 O17 1.218 . S
O17 C16 1.218 . S
C18 O11 1.275 . S
C18 O13 1.255 . S
C19 O20 1.258 . S
C19 O21 1.256 . S
O20 Cd12 2.381 . S
O20 C19 1.258 . S
O21 Cd12 2.378 . S
O21 C19 1.256 . S
O22 Cd23 2.300 . S
O22 C29 1.275 . S
Cd23 O22 2.300 . S
Cd23 O31 2.381 . S
Cd23 O32 2.378 . S
O24 Cd25 2.385 . S
O24 C29 1.255 . S
Cd25 O24 2.385 . S
Cd25 O26 2.317 . S
O26 Cd25 2.317 . S
O26 C27 1.232 . S
C27 O26 1.232 . S
C27 O28 1.218 . S
O28 C27 1.218 . S
C29 O22 1.275 . S
C29 O24 1.255 . S
C30 O31 1.258 . S
C30 O32 1.256 . S
O31 Cd23 2.381 . S
O31 C30 1.258 . S
O32 Cd23 2.378 . S
O32 C30 1.256 . S
O33 Cd34 2.300 . S
O33 C40 1.275 . S
Cd34 O33 2.300 . S
Cd34 O42 2.381 . S
Cd34 O43 2.378 . S
O35 Cd36 2.385 . S
O35 C40 1.255 . S
Cd36 O35 2.385 . S
Cd36 O37 2.317 . S
O37 Cd36 2.317 . S
O37 C38 1.232 . S
C38 O37 1.232 . S
C38 O39 1.218 . S
O39 C38 1.218 . S
C40 O33 1.275 . S
C40 O35 1.255 . S
C41 O42 1.258 . S
C41 O43 1.256 . S
O42 Cd34 2.381 . S
O42 C41 1.258 . S
O43 Cd34 2.378 . S
O43 C41 1.256 . S
O44 Cd45 2.300 . S
O44 C51 1.275 . S
Cd45 O44 2.300 . S
Cd45 O53 2.381 . S
Cd45 O54 2.378 . S
O46 Cd47 2.385 . S
O46 C51 1.255 . S
Cd47 O46 2.385 . S
Cd47 O48 2.317 . S
O48 Cd47 2.317 . S
O48 C49 1.232 . S
C49 O48 1.232 . S
C49 O50 1.218 . S
O50 C49 1.218 . S
C51 O44 1.275 . S
C51 O46 1.255 . S
C52 O53 1.258 . S
C52 O54 1.256 . S
O53 Cd45 2.381 . S
O53 C52 1.258 . S
O54 Cd45 2.378 . S
O54 C52 1.256 . S
O55 Cd56 2.300 . S
O55 C62 1.275 . S
Cd56 O55 2.300 . S
Cd56 O64 2.381 . S
Cd56 O65 2.378 . S
O57 Cd58 2.385 . S
O57 C62 1.255 . S
Cd58 O57 2.385 . S
Cd58 O59 2.317 . S
O59 Cd58 2.317 . S
O59 C60 1.232 . S
C60 O59 1.232 . S
C60 O61 1.218 . S
O61 C60 1.218 . S
C62 O55 1.275 . S
C62 O57 1.255 . S
C63 O64 1.258 . S
C63 O65 1.256 . S
O64 Cd56 2.381 . S
O64 C63 1.258 . S
O65 Cd56 2.378 . S
O65 C63 1.256 . S
O66 Cd67 2.300 . S
O66 C73 1.275 . S
Cd67 O66 2.300 . S
Cd67 O75 2.381 . S
Cd67 O76 2.378 . S
O68 Cd69 2.385 . S
O68 C73 1.255 . S
Cd69 O68 2.385 . S
Cd69 O70 2.317 . S
O70 Cd69 2.317 . S
O70 C71 1.232 . S
C71 O70 1.232 . S
C71 O72 1.218 . S
O72 C71 1.218 . S
C73 O66 1.275 . S
C73 O68 1.255 . S
C74 O75 1.258 . S
C74 O76 1.256 . S
O75 Cd67 2.381 . S
O75 C74 1.258 . S
O76 Cd67 2.378 . S
O76 C74 1.256 . S
O77 Cd78 2.300 . S
O77 C84 1.275 . S
Cd78 O77 2.300 . S
Cd78 O86 2.381 . S
Cd78 O87 2.378 . S
O79 Cd80 2.385 . S
O79 C84 1.255 . S
Cd80 O79 2.385 . S
Cd80 O81 2.317 . S
O81 Cd80 2.317 . S
O81 C82 1.232 . S
C82 O81 1.232 . S
C82 O83 1.218 . S
O83 C82 1.218 . S
C84 O77 1.275 . S
C84 O79 1.255 . S
C85 O86 1.258 . S
C85 O87 1.256 . S
O86 Cd78 2.381 . S
O86 C85 1.258 . S
O87 Cd78 2.378 . S
O87 C85 1.256 . S
O88 Cd89 2.300 . S
O88 C95 1.275 . S
Cd89 O88 2.300 . S
Cd89 O97 2.381 . S
Cd89 O98 2.378 . S
O90 Cd91 2.385 . S
O90 C95 1.255 . S
Cd91 O90 2.385 . S
Cd91 O92 2.317 . S
O92 Cd91 2.317 . S
O92 C93 1.232 . S
C93 O92 1.232 . S
C93 O94 1.218 . S
O94 C93 1.218 . S
C95 O88 1.275 . S
C95 O90 1.255 . S
C96 O97 1.258 . S
C96 O98 1.256 . S
O97 Cd89 2.381 . S
O97 C96 1.258 . S
O98 Cd89 2.378 . S
O98 C96 1.256 . S
O99 Cd100 2.300 . S
O99 C106 1.275 . S
Cd100 O99 2.300 . S
Cd100 O108 2.381 . S
Cd100 O109 2.378 . S
O101 Cd102 2.385 . S
O101 C106 1.255 . S
Cd102 O101 2.385 . S
Cd102 O103 2.317 . S
O103 Cd102 2.317 . S
O103 C104 1.232 . S
C104 O103 1.232 . S
C104 O105 1.218 . S
O105 C104 1.218 . S
C106 O99 1.275 . S
C106 O101 1.255 . S
C107 O108 1.258 . S
C107 O109 1.256 . S
O108 Cd100 2.381 . S
O108 C107 1.258 . S
O109 Cd100 2.378 . S
O109 C107 1.256 . S
O110 Cd111 2.300 . S
O110 C117 1.275 . S
Cd111 O110 2.300 . S
Cd111 O119 2.381 . S
Cd111 O120 2.378 . S
O112 Cd113 2.385 . S
O112 C117 1.255 . S
Cd113 O112 2.385 . S
Cd113 O114 2.317 . S
O114 Cd113 2.317 . S
O114 C115 1.232 . S
C115 O114 1.232 . S
C115 O116 1.218 . S
O116 C115 1.218 . S
C117 O110 1.275 . S
C117 O112 1.255 . S
C118 O119 1.258 . S
C118 O120 1.256 . S
O119 Cd111 2.381 . S
O119 C118 1.258 . S
O120 Cd111 2.378 . S
O120 C118 1.256 . S
O121 Cd122 2.300 . S
O121 C128 1.275 . S
Cd122 O121 2.300 . S
Cd122 O130 2.381 . S
Cd122 O131 2.378 . S
O123 Cd124 2.385 . S
O123 C128 1.255 . S
Cd124 O123 2.385 . S
Cd124 O125 2.317 . S
O125 Cd124 2.317 . S
O125 C126 1.232 . S
C126 O125 1.232 . S
C126 O127 1.218 . S
O127 C126 1.218 . S
C128 O121 1.275 . S
C128 O123 1.255 . S
C129 O130 1.258 . S
C129 O131 1.256 . S
O130 Cd122 2.381 . S
O130 C129 1.258 . S
O131 Cd122 2.378 . S
O131 C129 1.256 . S
O132 Cd133 2.300 . S
O132 C139 1.275 . S
Cd133 O132 2.300 . S
Cd133 O141 2.381 . S
Cd133 O142 2.378 . S
O134 Cd135 2.385 . S
O134 C139 1.255 . S
Cd135 O134 2.385 . S
Cd135 O136 2.317 . S
O136 Cd135 2.317 . S
O136 C137 1.232 . S
C137 O136 1.232 . S
C137 O138 1.218 . S
O138 C137 1.218 . S
C139 O132 1.275 . S
C139 O134 1.255 . S
C140 O141 1.258 . S
C140 O142 1.256 . S
O141 Cd133 2.381 . S
O141 C140 1.258 . S
O142 Cd133 2.378 . S
O142 C140 1.256 . S
O143 Cd144 2.300 . S
O143 C150 1.275 . S
Cd144 O143 2.300 . S
Cd144 O152 2.381 . S
Cd144 O153 2.378 . S
O145 Cd146 2.385 . S
O145 C150 1.255 . S
Cd146 O145 2.385 . S
Cd146 O147 2.317 . S
O147 Cd146 2.317 . S
O147 C148 1.232 . S
C148 O147 1.232 . S
C148 O149 1.218 . S
O149 C148 1.218 . S
C150 O143 1.275 . S
C150 O145 1.255 . S
C151 O152 1.258 . S
C151 O153 1.256 . S
O152 Cd144 2.381 . S
O152 C151 1.258 . S
O153 Cd144 2.378 . S
O153 C151 1.256 . S
O154 Cd155 2.300 . S
O154 C161 1.275 . S
Cd155 O154 2.300 . S
Cd155 O163 2.381 . S
Cd155 O164 2.378 . S
O156 Cd157 2.385 . S
O156 C161 1.255 . S
Cd157 O156 2.385 . S
Cd157 O158 2.317 . S
O158 Cd157 2.317 . S
O158 C159 1.232 . S
C159 O158 1.232 . S
C159 O160 1.218 . S
O160 C159 1.218 . S
C161 O154 1.275 . S
C161 O156 1.255 . S
C162 O163 1.258 . S
C162 O164 1.256 . S
O163 Cd155 2.381 . S
O163 C162 1.258 . S
O164 Cd155 2.378 . S
O164 C162 1.256 . S
O165 Cd166 2.300 . S
O165 C172 1.275 . S
Cd166 O165 2.300 . S
Cd166 O174 2.381 . S
Cd166 O175 2.378 . S
O167 Cd168 2.385 . S
O167 C172 1.255 . S
Cd168 O167 2.385 . S
Cd168 O169 2.317 . S
O169 Cd168 2.317 . S
O169 C170 1.232 . S
C170 O169 1.232 . S
C170 O171 1.218 . S
O171 C170 1.218 . S
C172 O165 1.275 . S
C172 O167 1.255 . S
C173 O174 1.258 . S
C173 O175 1.256 . S
O174 Cd166 2.381 . S
O174 C173 1.258 . S
O175 Cd166 2.378 . S
O175 C173 1.256 . S
C176 C177 1.369 1_554 S
C176 C178 1.419 1_565 S
C176 H180 0.930 . S
C177 C176 1.369 1_556 S
C177 C186 1.429 . S
C178 C176 1.419 1_545 S
C178 C179 1.363 . S
C178 H181 0.929 . S
C179 C178 1.363 . S
C179 C185 1.428 1_554 S
H180 C176 0.930 . S
H181 C178 0.929 . S
S182 N183 1.613 1_545 S
S182 N184 1.610 . S
N183 S182 1.613 1_565 S
N183 C186 1.350 . S
N184 S182 1.610 . S
N184 C185 1.351 . S
C185 C179 1.428 1_556 S
C185 N184 1.351 . S
C185 C186 1.434 1_545 S
C186 C177 1.429 . S
C186 N183 1.350 . S
C186 C185 1.434 1_565 S
C187 C188 1.369 . S
C187 C189 1.419 1_655 S
C187 H191 0.930 . S
C188 C187 1.369 . S
C188 C197 1.429 1_554 S
C189 C187 1.419 1_455 S
C189 C190 1.363 1_554 S
C189 H192 0.929 . S
C190 C189 1.363 1_556 S
C190 C196 1.428 . S
H191 C187 0.930 . S
H192 C189 0.929 . S
S193 N194 1.613 . S
S193 N195 1.610 1_655 S
N194 S193 1.613 . S
N194 C197 1.350 . S
N195 S193 1.610 1_455 S
N195 C196 1.351 . S
C196 C190 1.428 . S
C196 N195 1.351 . S
C196 C197 1.434 1_455 S
C197 C188 1.429 1_556 S
C197 N194 1.350 . S
C197 C196 1.434 1_655 S
C198 C199 1.369 . S
C198 C200 1.419 1_545 S
C198 H202 0.930 . S
C199 C198 1.369 . S
C199 C208 1.429 1_556 S
C200 C198 1.419 1_565 S
C200 C201 1.363 1_556 S
C200 H203 0.929 . S
C201 C200 1.363 1_554 S
C201 C207 1.428 . S
H202 C198 0.930 . S
H203 C200 0.929 . S
S204 N205 1.613 . S
S204 N206 1.610 1_545 S
N205 S204 1.613 . S
N205 C208 1.350 . S
N206 S204 1.610 1_565 S
N206 C207 1.351 . S
C207 C201 1.428 . S
C207 N206 1.351 . S
C207 C208 1.434 1_565 S
C208 C199 1.429 1_554 S
C208 N205 1.350 . S
C208 C207 1.434 1_545 S
C209 C210 1.369 . S
C209 C211 1.419 1_455 S
C209 H213 0.930 . S
C210 C209 1.369 . S
C210 C219 1.429 1_554 S
C211 C209 1.419 1_655 S
C211 C212 1.363 1_554 S
C211 H214 0.929 . S
C212 C211 1.363 1_556 S
C212 C218 1.428 . S
H213 C209 0.930 . S
H214 C211 0.929 . S
S215 N216 1.613 . S
S215 N217 1.610 1_455 S
N216 S215 1.613 . S
N216 C219 1.350 . S
N217 S215 1.610 1_655 S
N217 C218 1.351 . S
C218 C212 1.428 . S
C218 N217 1.351 . S
C218 C219 1.434 1_655 S
C219 C210 1.429 1_556 S
C219 N216 1.350 . S
C219 C218 1.434 1_455 S
C220 C221 1.369 . S
C220 C222 1.419 . S
C220 H224 0.930 . S
C221 C220 1.369 . S
C221 C230 1.429 . S
C222 C220 1.419 . S
C222 C223 1.363 . S
C222 H225 0.929 . S
C223 C222 1.363 . S
C223 C229 1.428 . S
H224 C220 0.930 . S
H225 C222 0.929 . S
S226 N227 1.613 . S
S226 N228 1.610 . S
N227 S226 1.613 . S
N227 C230 1.350 . S
N228 S226 1.610 . S
N228 C229 1.351 . S
C229 C223 1.428 . S
C229 N228 1.351 . S
C229 C230 1.434 . S
C230 C221 1.429 . S
C230 N227 1.350 . S
C230 C229 1.434 . S
C231 C232 1.369 . S
C231 C233 1.419 . S
C231 H235 0.930 . S
C232 C231 1.369 . S
C232 C241 1.429 . S
C233 C231 1.419 . S
C233 C234 1.363 . S
C233 H236 0.929 . S
C234 C233 1.363 . S
C234 C240 1.428 . S
H235 C231 0.930 . S
H236 C233 0.929 . S
S237 N238 1.613 . S
S237 N239 1.610 . S
N238 S237 1.613 . S
N238 C241 1.350 . S
N239 S237 1.610 . S
N239 C240 1.351 . S
C240 C234 1.428 . S
C240 N239 1.351 . S
C240 C241 1.434 . S
C241 C232 1.429 . S
C241 N238 1.350 . S
C241 C240 1.434 . S
C242 C243 1.369 . S
C242 C244 1.419 . S
C242 H246 0.930 . S
C243 C242 1.369 . S
C243 C252 1.429 . S
C244 C242 1.419 . S
C244 C245 1.363 . S
C244 H247 0.929 . S
C245 C244 1.363 . S
C245 C251 1.428 . S
H246 C242 0.930 . S
H247 C244 0.929 . S
S248 N249 1.613 . S
S248 N250 1.610 . S
N249 S248 1.613 . S
N249 C252 1.350 . S
N250 S248 1.610 . S
N250 C251 1.351 . S
C251 C245 1.428 . S
C251 N250 1.351 . S
C251 C252 1.434 . S
C252 C243 1.429 . S
C252 N249 1.350 . S
C252 C251 1.434 . S
C253 C254 1.369 . S
C253 C255 1.419 . S
C253 H257 0.930 . S
C254 C253 1.369 . S
C254 C263 1.429 . S
C255 C253 1.419 . S
C255 C256 1.363 . S
C255 H258 0.929 . S
C256 C255 1.363 . S
C256 C262 1.428 . S
H257 C253 0.930 . S
H258 C255 0.929 . S
S259 N260 1.613 . S
S259 N261 1.610 . S
N260 S259 1.613 . S
N260 C263 1.350 . S
N261 S259 1.610 . S
N261 C262 1.351 . S
C262 C256 1.428 . S
C262 N261 1.351 . S
C262 C263 1.434 . S
C263 C254 1.429 . S
C263 N260 1.350 . S
C263 C262 1.434 . S
C264 C265 1.369 . S
C264 C266 1.419 1_554 S
C264 H268 0.930 . S
C265 C264 1.369 . S
C265 C274 1.429 . S
C266 C264 1.419 1_556 S
C266 C267 1.363 . S
C266 H269 0.929 . S
C267 C266 1.363 . S
C267 C273 1.428 . S
H268 C264 0.930 . S
H269 C266 0.929 . S
S270 N271 1.613 . S
S270 N272 1.610 . S
N271 S270 1.613 . S
N271 C274 1.350 . S
N272 S270 1.610 . S
N272 C273 1.351 1_554 S
C273 C267 1.428 . S
C273 N272 1.351 1_556 S
C273 C274 1.434 1_556 S
C274 C265 1.429 . S
C274 N271 1.350 . S
C274 C273 1.434 1_554 S
C275 C276 1.369 . S
C275 C277 1.419 . S
C275 H279 0.930 . S
C276 C275 1.369 . S
C276 C285 1.429 1_556 S
C277 C275 1.419 . S
C277 C278 1.363 1_556 S
C277 H280 0.929 . S
C278 C277 1.363 1_554 S
C278 C284 1.428 . S
H279 C275 0.930 . S
H280 C277 0.929 . S
S281 N282 1.613 . S
S281 N283 1.610 . S
N282 S281 1.613 . S
N282 C285 1.350 . S
N283 S281 1.610 . S
N283 C284 1.351 . S
C284 C278 1.428 . S
C284 N283 1.351 . S
C284 C285 1.434 . S
C285 C276 1.429 1_554 S
C285 N282 1.350 . S
C285 C284 1.434 . S
C286 C287 1.369 1_556 S
C286 C288 1.419 . S
C286 H290 0.930 . S
C287 C286 1.369 1_554 S
C287 C296 1.429 . S
C288 C286 1.419 . S
C288 C289 1.363 . S
C288 H291 0.929 . S
C289 C288 1.363 . S
C289 C295 1.428 1_556 S
H290 C286 0.930 . S
H291 C288 0.929 . S
S292 N293 1.613 . S
S292 N294 1.610 . S
N293 S292 1.613 . S
N293 C296 1.350 . S
N294 S292 1.610 . S
N294 C295 1.351 . S
C295 C289 1.428 1_554 S
C295 N294 1.351 . S
C295 C296 1.434 . S
C296 C287 1.429 . S
C296 N293 1.350 . S
C296 C295 1.434 . S
C297 C298 1.369 . S
C297 C299 1.419 . S
C297 H301 0.930 . S
C298 C297 1.369 . S
C298 C307 1.429 1_554 S
C299 C297 1.419 . S
C299 C300 1.363 1_554 S
C299 H302 0.929 . S
C300 C299 1.363 1_556 S
C300 C306 1.428 . S
H301 C297 0.930 . S
H302 C299 0.929 . S
S303 N304 1.613 . S
S303 N305 1.610 . S
N304 S303 1.613 . S
N304 C307 1.350 . S
N305 S303 1.610 . S
N305 C306 1.351 . S
C306 C300 1.428 . S
C306 N305 1.351 . S
C306 C307 1.434 . S
C307 C298 1.429 1_556 S
C307 N304 1.350 . S
C307 C306 1.434 . S
C308 C309 1.369 . S
C308 C310 1.419 . S
C308 H312 0.930 . S
C309 C308 1.369 . S
C309 C318 1.429 . S
C310 C308 1.419 . S
C310 C311 1.363 . S
C310 H313 0.929 . S
C311 C310 1.363 . S
C311 C317 1.428 . S
H312 C308 0.930 . S
H313 C310 0.929 . S
S314 N315 1.613 . S
S314 N316 1.610 . S
N315 S314 1.613 . S
N315 C318 1.350 . S
N316 S314 1.610 . S
N316 C317 1.351 . S
C317 C311 1.428 . S
C317 N316 1.351 . S
C317 C318 1.434 . S
C318 C309 1.429 . S
C318 N315 1.350 . S
C318 C317 1.434 . S
C319 C320 1.369 . S
C319 C321 1.419 . S
C319 H323 0.930 . S
C320 C319 1.369 . S
C320 C329 1.429 . S
C321 C319 1.419 . S
C321 C322 1.363 . S
C321 H324 0.929 . S
C322 C321 1.363 . S
C322 C328 1.428 . S
H323 C319 0.930 . S
H324 C321 0.929 . S
S325 N326 1.613 . S
S325 N327 1.610 . S
N326 S325 1.613 . S
N326 C329 1.350 . S
N327 S325 1.610 . S
N327 C328 1.351 . S
C328 C322 1.428 . S
C328 N327 1.351 . S
C328 C329 1.434 . S
C329 C320 1.429 . S
C329 N326 1.350 . S
C329 C328 1.434 . S
C330 C331 1.369 . S
C330 C332 1.419 . S
C330 H334 0.930 . S
C331 C330 1.369 . S
C331 C340 1.429 . S
C332 C330 1.419 . S
C332 C333 1.363 . S
C332 H335 0.929 . S
C333 C332 1.363 . S
C333 C339 1.428 . S
H334 C330 0.930 . S
H335 C332 0.929 . S
S336 N337 1.613 . S
S336 N338 1.610 . S
N337 S336 1.613 . S
N337 C340 1.350 . S
N338 S336 1.610 . S
N338 C339 1.351 . S
C339 C333 1.428 . S
C339 N338 1.351 . S
C339 C340 1.434 . S
C340 C331 1.429 . S
C340 N337 1.350 . S
C340 C339 1.434 . S
C341 C342 1.369 . S
C341 C343 1.419 . S
C341 H345 0.930 . S
C342 C341 1.369 . S
C342 C351 1.429 . S
C343 C341 1.419 . S
C343 C344 1.363 . S
C343 H346 0.929 . S
C344 C343 1.363 . S
C344 C350 1.428 . S
H345 C341 0.930 . S
H346 C343 0.929 . S
S347 N348 1.613 . S
S347 N349 1.610 . S
N348 S347 1.613 . S
N348 C351 1.350 . S
N349 S347 1.610 . S
N349 C350 1.351 . S
C350 C344 1.428 . S
C350 N349 1.351 . S
C350 C351 1.434 . S
C351 C342 1.429 . S
C351 N348 1.350 . S
C351 C350 1.434 . S
C352 C353 1.369 . S
C352 C354 1.419 . S
C352 H356 0.930 . S
C353 C352 1.369 . S
C353 C362 1.429 . S
C354 C352 1.419 . S
C354 C355 1.363 . S
C354 H357 0.929 . S
C355 C354 1.363 . S
C355 C361 1.428 . S
H356 C352 0.930 . S
H357 C354 0.929 . S
S358 N359 1.613 . S
S358 N360 1.610 . S
N359 S358 1.613 . S
N359 C362 1.350 . S
N360 S358 1.610 . S
N360 C361 1.351 . S
C361 C355 1.428 . S
C361 N360 1.351 . S
C361 C362 1.434 . S
C362 C353 1.429 . S
C362 N359 1.350 . S
C362 C361 1.434 . S
C363 C364 1.369 . S
C363 C365 1.419 . S
C363 H367 0.930 . S
C364 C363 1.369 . S
C364 C373 1.429 . S
C365 C363 1.419 . S
C365 C366 1.363 . S
C365 H368 0.929 . S
C366 C365 1.363 . S
C366 C372 1.428 . S
H367 C363 0.930 . S
H368 C365 0.929 . S
S369 N370 1.613 . S
S369 N371 1.610 . S
N370 S369 1.613 . S
N370 C373 1.350 . S
N371 S369 1.610 . S
N371 C372 1.351 . S
C372 C366 1.428 . S
C372 N371 1.351 . S
C372 C373 1.434 . S
C373 C364 1.429 . S
C373 N370 1.350 . S
C373 C372 1.434 . S
C374 C375 1.369 . S
C374 C376 1.419 . S
C374 H378 0.930 . S
C375 C374 1.369 . S
C375 C384 1.429 . S
C376 C374 1.419 . S
C376 C377 1.363 . S
C376 H379 0.929 . S
C377 C376 1.363 . S
C377 C383 1.428 . S
H378 C374 0.930 . S
H379 C376 0.929 . S
S380 N381 1.613 . S
S380 N382 1.610 . S
N381 S380 1.613 . S
N381 C384 1.350 . S
N382 S380 1.610 . S
N382 C383 1.351 . S
C383 C377 1.428 . S
C383 N382 1.351 . S
C383 C384 1.434 . S
C384 C375 1.429 . S
C384 N381 1.350 . S
C384 C383 1.434 . S
C385 C386 1.369 . S
C385 C387 1.419 . S
C385 H389 0.930 . S
C386 C385 1.369 . S
C386 C395 1.429 . S
C387 C385 1.419 . S
C387 C388 1.363 . S
C387 H390 0.929 . S
C388 C387 1.363 . S
C388 C394 1.428 . S
H389 C385 0.930 . S
H390 C387 0.929 . S
S391 N392 1.613 . S
S391 N393 1.610 . S
N392 S391 1.613 . S
N392 C395 1.350 . S
N393 S391 1.610 . S
N393 C394 1.351 . S
C394 C388 1.428 . S
C394 N393 1.351 . S
C394 C395 1.434 . S
C395 C386 1.429 . S
C395 N392 1.350 . S
C395 C394 1.434 . S
C396 C397 1.369 . S
C396 C398 1.419 . S
C396 H400 0.930 . S
C397 C396 1.369 . S
C397 C406 1.429 . S
C398 C396 1.419 . S
C398 C399 1.363 . S
C398 H401 0.929 . S
C399 C398 1.363 . S
C399 C405 1.428 . S
H400 C396 0.930 . S
H401 C398 0.929 . S
S402 N403 1.613 . S
S402 N404 1.610 . S
N403 S402 1.613 . S
N403 C406 1.350 . S
N404 S402 1.610 . S
N404 C405 1.351 . S
C405 C399 1.428 . S
C405 N404 1.351 . S
C405 C406 1.434 . S
C406 C397 1.429 . S
C406 N403 1.350 . S
C406 C405 1.434 . S
C407 C408 1.369 . S
C407 C409 1.419 . S
C407 H411 0.930 . S
C408 C407 1.369 . S
C408 C417 1.429 . S
C409 C407 1.419 . S
C409 C410 1.363 . S
C409 H412 0.929 . S
C410 C409 1.363 . S
C410 C416 1.428 . S
H411 C407 0.930 . S
H412 C409 0.929 . S
S413 N414 1.613 . S
S413 N415 1.610 . S
N414 S413 1.613 . S
N414 C417 1.350 . S
N415 S413 1.610 . S
N415 C416 1.351 . S
C416 C410 1.428 . S
C416 N415 1.351 . S
C416 C417 1.434 . S
C417 C408 1.429 . S
C417 N414 1.350 . S
C417 C416 1.434 . S
C418 C419 1.369 . S
C418 C420 1.419 . S
C418 H422 0.930 . S
C419 C418 1.369 . S
C419 C428 1.429 . S
C420 C418 1.419 . S
C420 C421 1.363 . S
C420 H423 0.929 . S
C421 C420 1.363 . S
C421 C427 1.428 . S
H422 C418 0.930 . S
H423 C420 0.929 . S
S424 N425 1.613 . S
S424 N426 1.610 . S
N425 S424 1.613 . S
N425 C428 1.350 . S
N426 S424 1.610 . S
N426 C427 1.351 . S
C427 C421 1.428 . S
C427 N426 1.351 . S
C427 C428 1.434 . S
C428 C419 1.429 . S
C428 N425 1.350 . S
C428 C427 1.434 . S
C429 C430 1.369 . S
C429 C431 1.419 . S
C429 H433 0.930 . S
C430 C429 1.369 . S
C430 C439 1.429 . S
C431 C429 1.419 . S
C431 C432 1.363 . S
C431 H434 0.929 . S
C432 C431 1.363 . S
C432 C438 1.428 . S
H433 C429 0.930 . S
H434 C431 0.929 . S
S435 N436 1.613 . S
S435 N437 1.610 . S
N436 S435 1.613 . S
N436 C439 1.350 . S
N437 S435 1.610 . S
N437 C438 1.351 . S
C438 C432 1.428 . S
C438 N437 1.351 . S
C438 C439 1.434 . S
C439 C430 1.429 . S
C439 N436 1.350 . S
C439 C438 1.434 . S
C177 C52 1.551 . S
C179 C8 1.545 . S
C188 C19 1.548 . S
C190 C63 1.549 . S
C199 C74 1.544 . S
C201 C30 1.550 . S
C210 C41 1.546 . S
C212 C85 1.550 . S
C221 C96 1.545 . S
C223 C140 1.548 . S
C232 C151 1.544 . S
C234 C107 1.551 . S
C243 C162 1.551 . S
C245 C118 1.546 . S
C254 C129 1.551 . S
C256 C173 1.545 . S
C265 C7 1.463 . S
C267 C62 1.456 . S
C276 C73 1.452 . S
C278 C18 1.462 . S
C287 C29 1.460 . S
C289 C84 1.455 . S
C298 C40 1.453 . S
C300 C51 1.463 . S
C309 C95 1.464 . S
C311 C150 1.454 . S
C320 C161 1.455 . S
C322 C106 1.461 . S
C331 C117 1.457 . S
C333 C172 1.461 . S
C342 C139 1.456 . S
C344 C128 1.458 . S
C353 C170 1.274 . S
C355 C5 1.268 . S
C364 C137 1.280 . S
C366 C16 1.267 . S
C375 C27 1.280 . S
C377 C148 1.268 . S
C386 C159 1.277 . S
C388 C38 1.270 . S
C397 C49 1.274 . S
C399 C104 1.272 . S
C408 C115 1.274 . S
C410 C60 1.273 . S
C419 C126 1.269 . S
C421 C71 1.272 . S
C430 C93 1.279 . S
C432 C82 1.265 . S
