# Generated by pormake.
# Topology wiu, (6)-cn, num edge types: 1
# Building blocks:
#     Node 0, Type 0, BuildingBlock: PAMTOO_clean_sbu_0, # of connection points: 6
#     Node 1, Type 0, BuildingBlock: PAMTOO_clean_sbu_0, # of connection points: 6
#     Node 2, Type 0, BuildingBlock: PAMTOO_clean_sbu_0, # of connection points: 6
#     Node 3, Type 0, BuildingBlock: PAMTOO_clean_sbu_0, # of connection points: 6
#     Node 4, Type 0, BuildingBlock: PAMTOO_clean_sbu_0, # of connection points: 6
#     Node 5, Type 0, BuildingBlock: PAMTOO_clean_sbu_0, # of connection points: 6
#     Node 6, Type 0, BuildingBlock: PAMTOO_clean_sbu_0, # of connection points: 6
#     Node 7, Type 0, BuildingBlock: PAMTOO_clean_sbu_0, # of connection points: 6
#     Node 8, Type 0, BuildingBlock: PAMTOO_clean_sbu_0, # of connection points: 6
#     Node 9, Type 0, BuildingBlock: PAMTOO_clean_sbu_0, # of connection points: 6
#     Node 10, Type 0, BuildingBlock: PAMTOO_clean_sbu_0, # of connection points: 6
#     Node 11, Type 0, BuildingBlock: PAMTOO_clean_sbu_0, # of connection points: 6
#     Node 12, Type 0, BuildingBlock: PAMTOO_clean_sbu_0, # of connection points: 6
#     Node 13, Type 0, BuildingBlock: PAMTOO_clean_sbu_0, # of connection points: 6
#     Node 14, Type 0, BuildingBlock: PAMTOO_clean_sbu_0, # of connection points: 6
#     Node 15, Type 0, BuildingBlock: PAMTOO_clean_sbu_0, # of connection points: 6
#     Edge 16, Type (0, 0), BuildingBlock: XIVTED_clean_linker_0, # of connection points: 2
#     Edge 17, Type (0, 0), BuildingBlock: XIVTED_clean_linker_0, # of connection points: 2
#     Edge 18, Type (0, 0), BuildingBlock: XIVTED_clean_linker_0, # of connection points: 2
#     Edge 19, Type (0, 0), BuildingBlock: XIVTED_clean_linker_0, # of connection points: 2
#     Edge 20, Type (0, 0), BuildingBlock: XIVTED_clean_linker_0, # of connection points: 2
#     Edge 21, Type (0, 0), BuildingBlock: XIVTED_clean_linker_0, # of connection points: 2
#     Edge 22, Type (0, 0), BuildingBlock: XIVTED_clean_linker_0, # of connection points: 2
#     Edge 23, Type (0, 0), BuildingBlock: XIVTED_clean_linker_0, # of connection points: 2
#     Edge 24, Type (0, 0), BuildingBlock: XIVTED_clean_linker_0, # of connection points: 2
#     Edge 25, Type (0, 0), BuildingBlock: XIVTED_clean_linker_0, # of connection points: 2
#     Edge 26, Type (0, 0), BuildingBlock: XIVTED_clean_linker_0, # of connection points: 2
#     Edge 27, Type (0, 0), BuildingBlock: XIVTED_clean_linker_0, # of connection points: 2
#     Edge 28, Type (0, 0), BuildingBlock: XIVTED_clean_linker_0, # of connection points: 2
#     Edge 29, Type (0, 0), BuildingBlock: XIVTED_clean_linker_0, # of connection points: 2
#     Edge 30, Type (0, 0), BuildingBlock: XIVTED_clean_linker_0, # of connection points: 2
#     Edge 31, Type (0, 0), BuildingBlock: XIVTED_clean_linker_0, # of connection points: 2
#     Edge 32, Type (0, 0), BuildingBlock: XIVTED_clean_linker_0, # of connection points: 2
#     Edge 33, Type (0, 0), BuildingBlock: XIVTED_clean_linker_0, # of connection points: 2
#     Edge 34, Type (0, 0), BuildingBlock: XIVTED_clean_linker_0, # of connection points: 2
#     Edge 35, Type (0, 0), BuildingBlock: XIVTED_clean_linker_0, # of connection points: 2
#     Edge 36, Type (0, 0), BuildingBlock: XIVTED_clean_linker_0, # of connection points: 2
#     Edge 37, Type (0, 0), BuildingBlock: XIVTED_clean_linker_0, # of connection points: 2
#     Edge 38, Type (0, 0), BuildingBlock: XIVTED_clean_linker_0, # of connection points: 2
#     Edge 39, Type (0, 0), BuildingBlock: XIVTED_clean_linker_0, # of connection points: 2
#     Edge 40, Type (0, 0), BuildingBlock: XIVTED_clean_linker_0, # of connection points: 2
#     Edge 41, Type (0, 0), BuildingBlock: XIVTED_clean_linker_0, # of connection points: 2
#     Edge 42, Type (0, 0), BuildingBlock: XIVTED_clean_linker_0, # of connection points: 2
#     Edge 43, Type (0, 0), BuildingBlock: XIVTED_clean_linker_0, # of connection points: 2
#     Edge 44, Type (0, 0), BuildingBlock: XIVTED_clean_linker_0, # of connection points: 2
#     Edge 45, Type (0, 0), BuildingBlock: XIVTED_clean_linker_0, # of connection points: 2
#     Edge 46, Type (0, 0), BuildingBlock: XIVTED_clean_linker_0, # of connection points: 2
#     Edge 47, Type (0, 0), BuildingBlock: XIVTED_clean_linker_0, # of connection points: 2
#     Edge 48, Type (0, 0), BuildingBlock: XIVTED_clean_linker_0, # of connection points: 2
#     Edge 49, Type (0, 0), BuildingBlock: XIVTED_clean_linker_0, # of connection points: 2
#     Edge 50, Type (0, 0), BuildingBlock: XIVTED_clean_linker_0, # of connection points: 2
#     Edge 51, Type (0, 0), BuildingBlock: XIVTED_clean_linker_0, # of connection points: 2
#     Edge 52, Type (0, 0), BuildingBlock: XIVTED_clean_linker_0, # of connection points: 2
#     Edge 53, Type (0, 0), BuildingBlock: XIVTED_clean_linker_0, # of connection points: 2
#     Edge 54, Type (0, 0), BuildingBlock: XIVTED_clean_linker_0, # of connection points: 2
#     Edge 55, Type (0, 0), BuildingBlock: XIVTED_clean_linker_0, # of connection points: 2
#     Edge 56, Type (0, 0), BuildingBlock: XIVTED_clean_linker_0, # of connection points: 2
#     Edge 57, Type (0, 0), BuildingBlock: XIVTED_clean_linker_0, # of connection points: 2
#     Edge 58, Type (0, 0), BuildingBlock: XIVTED_clean_linker_0, # of connection points: 2
#     Edge 59, Type (0, 0), BuildingBlock: XIVTED_clean_linker_0, # of connection points: 2
#     Edge 60, Type (0, 0), BuildingBlock: XIVTED_clean_linker_0, # of connection points: 2
#     Edge 61, Type (0, 0), BuildingBlock: XIVTED_clean_linker_0, # of connection points: 2
#     Edge 62, Type (0, 0), BuildingBlock: XIVTED_clean_linker_0, # of connection points: 2
#     Edge 63, Type (0, 0), BuildingBlock: XIVTED_clean_linker_0, # of connection points: 2
# Relax obj value: 0.488
# Max RMSD: 0.302
# Mean RMSD: 0.302
data_MOF--net-wiu--node1-PAMTOO_clean_sbu_0--edge1-XIVTED_clean_linker_0
_symmetry_space_group_name_H-M    P1
_symmetry_Int_Tables_number       1
_symmetry_cell_setting            triclinic
loop_
_symmetry_equiv_pos_as_xyz
'x, y, z'
_cell_length_a     38.760692
_cell_length_b     38.806147
_cell_length_c     55.940857
_cell_angle_alpha  89.423932
_cell_angle_beta   89.970456
_cell_angle_gamma 90.023358
loop_
_atom_site_label
_atom_site_type_symbol
_atom_site_fract_x
_atom_site_fract_y
_atom_site_fract_z
_atom_type_partial_charge
Dy0 Dy 0.3767 0.09751 0.21468 0.0
Dy1 Dy 0.33323 0.15722 0.23609 0.0
C2 C 0.41354 0.17384 0.2248 0.0
O3 O 0.37715 0.08443 0.25428 0.0
O4 O 0.35117 0.13121 0.27121 0.0
O5 O 0.41556 0.07615 0.19172 0.0
O6 O 0.38932 0.04346 0.21781 0.0
O7 O 0.30294 0.11073 0.24419 0.0
O8 O 0.32138 0.07969 0.21277 0.0
O9 O 0.31189 0.15106 0.19731 0.0
O10 O 0.34529 0.10858 0.18159 0.0
O11 O 0.29385 0.17746 0.25943 0.0
O12 O 0.3132 0.20803 0.2295 0.0
C13 C 0.36579 0.10035 0.27344 0.0
O14 O 0.41431 0.14406 0.21325 0.0
O15 O 0.38595 0.18206 0.23719 0.0
C16 C 0.39626 0.02166 0.1792 0.0
C17 C 0.39882 0.98082 0.13926 0.0
C18 C 0.38304 0.01349 0.13743 0.0
C19 C 0.38437 0.035 0.15724 0.0
C20 C 0.39819 0.98582 0.18216 0.0
C21 C 0.39615 0.96489 0.16198 0.0
C22 C 0.40756 0.04471 0.19828 0.0
C23 C 0.29809 0.08609 0.22907 0.0
C24 C 0.31983 0.13063 0.17917 0.0
C25 C 0.28443 0.23761 0.26043 0.0
C26 C 0.26392 0.30209 0.27724 0.0
C27 C 0.24056 0.27444 0.2772 0.0
C28 C 0.25077 0.24244 0.26878 0.0
C29 C 0.30859 0.26436 0.26193 0.0
C30 C 0.29837 0.2965 0.27036 0.0
C31 C 0.29166 0.20618 0.24738 0.0
H32 H 0.3776 0.02519 1.1202 0.0
H33 H 0.37906 0.0622 0.15484 0.0
H34 H 0.40384 0.97438 0.19946 0.0
H35 H 0.40119 0.93761 0.16418 0.0
H36 H 0.21396 0.27799 0.2826 0.0
H37 H 0.23183 0.22195 0.26759 0.0
H38 H 0.3347 0.26097 0.25544 0.0
H39 H 0.31678 0.31749 0.26997 0.0
Dy40 Dy 0.68111 0.62502 0.46499 0.0
Dy41 Dy 0.62232 0.58054 0.48721 0.0
C42 C 0.60446 0.66105 0.47481 0.0
O43 O 0.69687 0.62087 0.50384 0.0
O44 O 0.64678 0.60299 0.52128 0.0
O45 O 0.70407 0.66105 0.44015 0.0
O46 O 0.73445 0.6394 0.46933 0.0
O47 O 0.67028 0.55197 0.49509 0.0
O48 O 0.69952 0.57003 0.46244 0.0
O49 O 0.63254 0.55566 0.45034 0.0
O50 O 0.66241 0.59835 0.43129 0.0
O51 O 0.59892 0.5519 0.51622 0.0
O52 O 0.57922 0.54726 0.48009 0.0
C53 C 0.6792 0.61364 0.52331 0.0
O54 O 0.63809 0.66548 0.47107 0.0
O55 O 0.59255 0.62979 0.47932 0.0
C56 C 0.76141 0.6439 0.43203 0.0
C57 C 0.80813 0.64866 0.39528 0.0
C58 C 0.77713 0.63043 0.39145 0.0
C59 C 0.75239 0.63068 0.4096 0.0
C60 C 0.79652 0.64792 0.43747 0.0
C61 C 0.82071 0.64677 0.4189 0.0
C62 C 0.73492 0.65548 0.44885 0.0
C63 C 0.6944 0.5471 0.47938 0.0
C64 C 0.64666 0.56823 0.43046 0.0
C65 C 0.54212 0.53198 0.51172 0.0
C66 C 0.47507 0.51594 0.52642 0.0
C67 C 0.50244 0.49344 0.5317 0.0
C68 C 0.5357 0.50137 0.52429 0.0
C69 C 0.51538 0.55543 0.50727 0.0
C70 C 0.48187 0.54742 0.51463 0.0
C71 C 0.5766 0.53723 0.50229 0.0
H72 H 0.76862 0.62421 0.37359 0.0
H73 H 0.72601 0.62365 0.40549 0.0
H74 H 0.80476 0.65484 0.45529 0.0
H75 H 0.84709 0.65401 0.42277 0.0
H76 H 0.49798 0.46921 0.541 0.0
H77 H 0.5563 0.4831 0.52777 0.0
H78 H 0.5202 0.57921 0.49751 0.0
H79 H 0.46115 0.56502 0.51011 0.0
Dy80 Dy 0.15077 0.93141 0.71645 0.0
Dy81 Dy 0.19087 0.86748 0.73604 0.0
C82 C 0.11066 0.85658 0.72097 0.0
O83 O 0.1458 0.94104 0.75592 0.0
O84 O 0.17974 0.89774 0.77074 0.0
O85 O 0.11476 0.95779 0.69356 0.0
O86 O 0.14505 0.9865 0.71949 0.0
O87 O 0.22327 0.91035 0.74795 0.0
O88 O 0.20782 0.94417 0.71668 0.0
O89 O 0.21438 0.87389 0.69824 0.0
O90 O 0.17918 0.91587 0.68266 0.0
O91 O 0.23568 0.83471 0.73797 0.0
O92 O 0.18789 0.82133 0.75769 0.0
C93 C 0.16137 0.92621 0.77413 0.0
O94 O 0.10729 0.89061 0.72011 0.0
O95 O 0.14162 0.84341 0.72304 0.0
C96 C 0.13721 1.01167 0.68162 0.0
C97 C 0.12989 0.0519 0.64127 0.0
C98 C 0.14786 0.0204 0.6395 0.0
C99 C 0.14911 0.99901 0.65968 0.0
C100 C 0.13307 0.04732 0.68414 0.0
C101 C 0.13272 0.06822 0.6636 0.0
C102 C 0.12559 0.98804 0.70054 0.0
C103 C 0.22996 0.93585 0.7335 0.0
C104 C 0.20543 0.89451 0.68018 0.0
C105 C 0.23655 0.78291 0.76223 0.0
C106 C 0.26817 0.72338 0.78049 0.0
C107 C 0.28788 0.7532 0.77592 0.0
C108 C 0.27212 0.78277 0.7667 0.0
C109 C 0.21669 0.75378 0.76754 0.0
C110 C 0.23237 0.72424 0.77651 0.0
C111 C 0.21991 0.81367 0.7527 0.0
H112 H 0.15295 1.00885 0.62234 0.0
H113 H 0.15577 0.9721 0.6576 0.0
H114 H 0.1269 0.05835 0.70133 0.0
H115 H 0.1255 0.095 0.66547 0.0
H116 H 0.31545 0.75347 0.77904 0.0
H117 H 0.28764 0.80546 0.76305 0.0
H118 H 0.18915 0.75353 0.76421 0.0
H119 H 0.2165 0.70158 0.77926 0.0
Dy120 Dy 0.84839 0.39861 0.96647 0.0
Dy121 Dy 0.90932 0.44167 0.98612 0.0
C122 C 0.92389 0.36167 0.97091 0.0
O123 O 0.83969 0.39148 1.00624 0.0
O124 O 0.87901 0.42974 1.02084 0.0
O125 O 0.82229 0.36244 0.94392 0.0
O126 O 0.79327 0.39268 0.96968 0.0
O127 O 0.86447 0.47073 0.99854 0.0
O128 O 0.83367 0.45505 0.96628 0.0
O129 O 0.90004 0.46653 0.94912 0.0
O130 O 0.86788 0.42403 0.93209 0.0
O131 O 0.9411 0.48762 0.98663 0.0
O132 O 0.95539 0.44092 1.00717 0.0
C133 C 0.85228 0.40883 1.02433 0.0
O134 O 0.89012 0.35657 0.97006 0.0
O135 O 0.93548 0.39323 0.97321 0.0
C136 C 0.76819 0.38457 0.93211 0.0
C137 C 0.72676 0.37789 0.89256 0.0
C138 C 0.75885 0.39476 0.89001 0.0
C139 C 0.7807 0.39581 0.9098 0.0
C140 C 0.73247 0.3813 0.9353 0.0
C141 C 0.71107 0.38117 0.91517 0.0
C142 C 0.79192 0.37314 0.95093 0.0
C143 C 0.83953 0.47673 0.98363 0.0
C144 C 0.88423 0.45383 0.93014 0.0
C145 C 0.99113 0.49079 1.01259 0.0
C146 C 0.05106 0.52385 1.02851 0.0
C147 C 0.02255 0.54338 1.02062 0.0
C148 C 0.99275 0.52689 1.01253 0.0
C149 C 0.01871 0.4715 1.02169 0.0
C150 C 0.04839 0.48779 1.02948 0.0
C151 C 0.96356 0.47222 1.0005 0.0
H152 H 0.77024 0.39922 0.87259 0.0
H153 H 0.80774 0.40188 0.9072 0.0
H154 H 0.72167 0.37566 0.95277 0.0
H155 H 0.68416 0.37448 0.91762 0.0
H156 H 0.02379 0.57125 1.01983 0.0
H157 H 0.97168 0.54223 1.00544 0.0
H158 H 0.01824 0.44357 1.02147 0.0
H159 H 0.07003 0.47183 1.03477 0.0
Dy160 Dy 0.69543 0.86733 1.01596 0.0
Dy161 Dy 0.65312 0.9275 1.03697 0.0
C162 C 0.7314 0.93661 1.02066 0.0
O163 O 0.72027 0.8745 1.05329 0.0
O164 O 0.67959 0.90827 1.07091 0.0
O165 O 0.74326 0.83875 1.01536 0.0
O166 O 0.69884 0.82289 0.99342 0.0
O167 O 0.61162 0.88542 1.03095 0.0
O168 O 0.64813 0.83979 1.03017 0.0
O169 O 0.65309 0.94298 0.99796 0.0
O170 O 0.67746 0.89531 0.98133 0.0
O171 O 0.61593 0.95033 1.06057 0.0
O172 O 0.64444 0.98235 1.03519 0.0
C173 C 0.70868 0.8907 1.07249 0.0
O174 O 0.72401 0.91366 1.00476 0.0
O175 O 0.70957 0.94203 1.03811 0.0
C176 C 0.75055 0.78811 0.99077 0.0
C177 C 0.78375 0.72635 0.97939 0.0
C178 C 0.80076 0.75112 0.99325 0.0
C179 C 0.78422 0.78186 0.99894 0.0
C180 C 0.73462 0.76455 0.97553 0.0
C181 C 0.75105 0.73389 0.96991 0.0
C182 C 0.73063 0.81703 1.00002 0.0
C183 C 0.6164 0.85152 1.03124 0.0
C184 C 0.66351 0.92646 0.97888 0.0
C185 C 0.63739 1.00374 1.07382 0.0
C186 C 0.6345 0.04363 1.11414 0.0
C187 C 0.64961 1.01062 1.1158 0.0
C188 C 0.64843 0.98961 1.09572 0.0
C189 C 0.63627 0.03969 1.07123 0.0
C190 C 0.63819 0.06009 1.09168 0.0
C191 C 0.62561 0.98151 1.05445 0.0
H192 H 0.82615 0.74605 1.00058 0.0
H193 H 0.79709 0.79986 1.01064 0.0
H194 H 0.70865 0.76886 0.969 0.0
H195 H 0.73705 0.71512 0.9595 0.0
H196 H 0.65426 0.99835 0.13296 0.0
H197 H 0.65307 0.96224 1.09781 0.0
H198 H 0.63118 0.05165 1.05401 0.0
H199 H 0.63357 0.08748 1.08976 0.0
Dy200 Dy 0.40765 0.44592 0.76497 0.0
Dy201 Dy 0.34958 0.40045 0.78787 0.0
C202 C 0.33699 0.47866 0.77438 0.0
O203 O 0.40203 0.46915 0.80289 0.0
O204 O 0.36776 0.42862 0.82112 0.0
O205 O 0.44403 0.4564 0.73698 0.0
O206 O 0.43507 0.49437 0.76463 0.0
O207 O 0.39379 0.36138 0.782 0.0
O208 O 0.43855 0.39891 0.77649 0.0
O209 O 0.3325 0.40253 0.74925 0.0
O210 O 0.37978 0.42631 0.7314 0.0
O211 O 0.32785 0.36401 0.81295 0.0
O212 O 0.29623 0.38585 0.78441 0.0
C213 C 0.38576 0.45751 0.82232 0.0
O214 O 0.35834 0.47196 0.75717 0.0
O215 O 0.33219 0.45553 0.79118 0.0
C216 C 0.48801 0.49602 0.74417 0.0
C217 C 0.55742 0.51238 0.73692 0.0
C218 C 0.53135 0.53341 0.72721 0.0
C219 C 0.49691 0.52536 0.73096 0.0
C220 C 0.51363 0.47498 0.75424 0.0
C221 C 0.54833 0.48318 0.75064 0.0
C222 C 0.45187 0.48667 0.74523 0.0
C223 C 0.42749 0.36707 0.77984 0.0
C224 C 0.34861 0.41256 0.72974 0.0
C225 C 0.27052 0.38033 0.82203 0.0
C226 C 0.22422 0.37474 0.85909 0.0
C227 C 0.2556 0.39229 0.86298 0.0
C228 C 0.27997 0.39266 0.84461 0.0
C229 C 0.23532 0.37652 0.81681 0.0
C230 C 0.2114 0.37704 0.83555 0.0
C231 C 0.29665 0.36939 0.80477 0.0
H232 H 0.53751 0.55575 0.71626 0.0
H233 H 0.47718 0.54157 0.72296 0.0
H234 H 0.5068 0.45209 0.76445 0.0
H235 H 0.56794 0.46682 0.75858 0.0
H236 H 0.26458 0.3977 0.88086 0.0
H237 H 0.30646 0.39941 0.84862 0.0
H238 H 0.2268 0.37015 0.79895 0.0
H239 H 0.185 0.36982 0.83174 0.0
Dy240 Dy 0.83888 0.15842 0.5167 0.0
Dy241 Dy 0.87962 0.09453 0.5368 0.0
C242 C 0.80018 0.08967 0.5217 0.0
O243 O 0.81693 0.15241 0.55506 0.0
O244 O 0.84944 0.10815 0.57022 0.0
O245 O 0.79322 0.1898 0.51866 0.0
O246 O 0.83587 0.20447 0.49485 0.0
O247 O 0.92219 0.13614 0.53186 0.0
O248 O 0.88789 0.18344 0.5292 0.0
O249 O 0.87793 0.08118 0.49781 0.0
O250 O 0.85323 0.12966 0.48162 0.0
O251 O 0.91563 0.0702 0.56079 0.0
O252 O 0.88971 0.04011 0.53344 0.0
C253 C 0.82443 0.13082 0.57287 0.0
O254 O 0.80679 0.11444 0.50658 0.0
O255 O 0.82311 0.08068 0.53779 0.0
C256 C 0.78243 0.23611 0.49075 0.0
C257 C 0.74718 0.29653 0.47759 0.0
C258 C 0.7318 0.27265 0.49336 0.0
C259 C 0.74935 0.24263 0.49994 0.0
C260 C 0.79606 0.25809 0.4731 0.0
C261 C 0.77857 0.28805 0.46655 0.0
C262 C 0.80558 0.21237 0.5035 0.0
C263 C 0.91883 0.17021 0.53115 0.0
C264 C 0.86661 0.09821 0.47899 0.0
C265 C 0.89483 0.0151 0.57157 0.0
C266 C 0.89846 0.97275 0.61113 0.0
C267 C 0.88071 1.00435 0.61302 0.0
C268 C 0.8815 0.02685 0.5934 0.0
C269 C 0.8985 0.97952 0.56833 0.0
C270 C 0.89683 0.95761 0.58833 0.0
C271 C 0.90718 0.03947 0.55331 0.0
H272 H 0.70738 0.27833 0.50189 0.0
H273 H 0.73826 0.22613 0.51366 0.0
H274 H 0.82163 0.25384 0.46588 0.0
H275 H 0.7913 0.30603 0.45453 0.0
H276 H 0.87432 0.01497 0.63027 0.0
H277 H 0.87492 0.05368 0.59591 0.0
H278 H 0.90552 0.9692 0.55108 0.0
H279 H 0.9035 0.93076 0.58606 0.0
Dy280 Dy 0.12188 0.58127 0.26495 0.0
Dy281 Dy 0.17984 0.62665 0.28705 0.0
C282 C 0.19353 0.54832 0.27358 0.0
O283 O 0.1314 0.55741 0.30261 0.0
O284 O 0.16201 0.59965 0.32095 0.0
O285 O 0.0989 0.54949 0.23784 0.0
O286 O 0.07732 0.55059 0.27367 0.0
O287 O 0.13411 0.66473 0.28658 0.0
O288 O 0.09421 0.63297 0.26605 0.0
O289 O 0.19082 0.63143 0.2472 0.0
O290 O 0.15022 0.59639 0.23046 0.0
O291 O 0.20273 0.66481 0.30977 0.0
O292 O 0.23431 0.6372 0.28412 0.0
C293 C 0.14586 0.56984 0.32222 0.0
O294 O 0.16998 0.55344 0.2575 0.0
O295 O 0.19864 0.57161 0.28994 0.0
C296 C 0.04171 0.53048 0.24271 0.0
C297 C 0.97527 0.51115 0.22907 0.0
C298 C 1.00307 0.48855 0.22578 0.0
C299 C 0.03608 0.49818 0.23262 0.0
C300 C 1.01452 0.55395 0.24499 0.0
C301 C 0.98132 0.5443 0.23813 0.0
C302 C 0.07568 0.53732 0.2524 0.0
C303 C 0.10315 0.66195 0.2766 0.0
C304 C 0.17807 0.61596 0.22825 0.0
C305 C 0.2573 0.64466 0.32231 0.0
C306 C 0.29896 0.64726 0.36208 0.0
C307 C 0.26622 0.63157 0.36412 0.0
C308 C 0.24435 0.63272 0.34434 0.0
C309 C 0.29314 0.64674 0.31923 0.0
C310 C 0.31451 0.64477 0.33936 0.0
C311 C 0.23389 0.65599 0.30324 0.0
H312 H 0.99908 0.463 0.21865 0.0
H313 H 0.05704 0.47988 0.23084 0.0
H314 H 0.01871 0.57901 0.25285 0.0
H315 H 0.96018 0.56201 0.24107 0.0
H316 H 0.25469 0.62638 0.38141 0.0
H317 H 0.21716 0.62732 0.34677 0.0
H318 H 0.30422 0.65261 0.30188 0.0
H319 H 0.34168 0.6504 0.3371 0.0
Dy320 Dy 0.87991 0.59888 0.71474 0.0
Dy321 Dy 0.83128 0.65498 0.73771 0.0
C322 C 0.91021 0.67769 0.72351 0.0
O323 O 0.87882 0.58154 0.75359 0.0
O324 O 0.85005 0.62596 0.77116 0.0
O325 O 0.91686 0.57987 0.68931 0.0
O326 O 0.89758 0.5464 0.71781 0.0
O327 O 0.80667 0.60439 0.74427 0.0
O328 O 0.82617 0.57853 0.71098 0.0
O329 O 0.80897 0.64994 0.69956 0.0
O330 O 0.84963 0.61592 0.68171 0.0
O331 O 0.81826 0.68952 0.76602 0.0
O332 O 0.78203 0.68109 0.73706 0.0
C333 C 0.86627 0.59604 0.7729 0.0
O334 O 0.91694 0.64456 0.72005 0.0
O335 O 0.87823 0.68753 0.72798 0.0
C336 C 0.90129 0.52271 0.67967 0.0
C337 C 0.90103 0.47662 0.64244 0.0
C338 C 0.8847 0.50886 0.63926 0.0
C339 C 0.8873 0.53294 0.65755 0.0
C340 C 0.9043 0.48737 0.68473 0.0
C341 C 0.90096 0.4638 0.66613 0.0
C342 C 0.91283 0.54821 0.69711 0.0
C343 C 0.80263 0.5819 0.72742 0.0
C344 C 0.82055 0.63369 0.68036 0.0
C345 C 0.77779 0.73313 0.75809 0.0
C346 C 0.75725 0.80132 0.76536 0.0
C347 C 0.73326 0.77434 0.76757 0.0
C348 C 0.74351 0.74045 0.76393 0.0
C349 C 0.80173 0.75992 0.75528 0.0
C350 C 0.7915 0.79389 0.75896 0.0
C351 C 0.78828 0.6972 0.7569 0.0
H352 H 0.87748 0.51817 0.62167 0.0
H353 H 0.88096 0.55963 0.6538 0.0
H354 H 0.91159 0.47831 0.7024 0.0
H355 H 0.90673 0.437 0.66986 0.0
H356 H 0.70673 0.77934 0.77256 0.0
H357 H 0.72484 0.71987 0.7662 0.0
H358 H 0.82832 0.75453 0.75065 0.0
H359 H 0.81029 0.81432 0.75665 0.0
Dy360 Dy 0.18118 0.12609 0.9654 0.0
Dy361 Dy 0.11836 0.0831 0.98495 0.0
C362 C 0.10501 0.16405 0.97002 0.0
O363 O 0.18881 0.13162 1.00518 0.0
O364 O 0.14887 0.09344 1.01982 0.0
O365 O 0.20803 0.16168 0.94232 0.0
O366 O 0.23567 0.13432 0.97068 0.0
O367 O 0.16274 0.05276 0.99703 0.0
O368 O 0.19514 0.06957 0.96549 0.0
O369 O 0.1248 0.06215 0.9466 0.0
O370 O 0.16859 0.09585 0.93191 0.0
O371 O 0.08702 0.03707 0.9838 0.0
O372 O 0.07167 0.08127 1.00549 0.0
C373 C 0.17582 0.11408 1.0233 0.0
O374 O 0.13852 0.16786 0.96577 0.0
O375 O 0.09295 0.13358 0.97587 0.0
C376 C 0.26371 0.14059 0.93375 0.0
C377 C 0.30786 0.14707 0.89561 0.0
C378 C 0.27697 0.12837 0.89255 0.0
C379 C 0.25351 0.12761 0.91149 0.0
C380 C 0.299 0.14533 0.93814 0.0
C381 C 0.32198 0.14516 0.91881 0.0
C382 C 0.23805 0.1525 0.95105 0.0
C383 C 0.18754 0.04668 0.98207 0.0
C384 C 0.14649 0.07033 0.92906 0.0
C385 C 0.04056 0.02863 1.01199 0.0
C386 C 0.98164 0.99216 1.02677 0.0
C387 C 1.00849 0.97506 1.01481 0.0
C388 C 0.03773 0.99326 1.00732 0.0
C389 C 0.01544 0.04472 1.026 0.0
C390 C 0.98623 0.02673 1.03327 0.0
C391 C 0.0639 0.05051 0.99791 0.0
H392 H 0.26729 0.12255 0.87491 0.0
H393 H 0.22697 0.12039 0.9081 0.0
H394 H 0.30817 0.15239 0.95571 0.0
H395 H 0.34835 0.15319 0.92192 0.0
H396 H 1.0059 0.94827 1.00986 0.0
H397 H 0.05673 0.98028 0.99642 0.0
H398 H 0.01671 0.0721 1.02955 0.0
H399 H 0.96594 0.04095 1.04209 0.0
Dy400 Dy 0.65061 0.43036 0.21545 0.0
Dy401 Dy 0.69248 0.36837 0.23674 0.0
C402 C 0.61202 0.35405 0.22233 0.0
O403 O 0.64748 0.44183 0.25501 0.0
O404 O 0.68078 0.3988 0.2711 0.0
O405 O 0.61372 0.45455 0.19207 0.0
O406 O 0.64163 0.48509 0.21819 0.0
O407 O 0.72294 0.41371 0.24664 0.0
O408 O 0.70695 0.44467 0.21418 0.0
O409 O 0.71175 0.37126 0.19728 0.0
O410 O 0.68292 0.41849 0.18291 0.0
O411 O 0.74012 0.33904 0.23609 0.0
O412 O 0.69675 0.32373 0.25938 0.0
C413 C 0.66272 0.42762 0.2737 0.0
O414 O 0.6102 0.38631 0.21421 0.0
O415 O 0.6408 0.3427 0.23188 0.0
C416 C 0.63527 0.50857 0.17967 0.0
C417 C 0.6304 0.54879 0.13912 0.0
C418 C 0.64738 0.51674 0.13765 0.0
C419 C 0.64728 0.4954 0.15788 0.0
C420 C 0.63233 0.54437 0.18204 0.0
C421 C 0.63331 0.56516 0.16144 0.0
C422 C 0.62322 0.48536 0.19873 0.0
C423 C 0.72959 0.43755 0.23086 0.0
C424 C 0.70618 0.39422 0.17986 0.0
C425 C 0.74737 0.28766 0.26086 0.0
C426 C 0.78022 0.22533 0.272 0.0
C427 C 0.79815 0.25138 0.25954 0.0
C428 C 0.78176 0.28244 0.25396 0.0
C429 C 0.73025 0.26251 0.27451 0.0
C430 C 0.74648 0.23158 0.27997 0.0
C431 C 0.72793 0.31728 0.25188 0.0
H432 H 0.65252 0.50493 1.12058 0.0
H433 H 0.65316 0.46831 0.15591 0.0
H434 H 0.62624 0.55574 0.19914 0.0
H435 H 0.62692 0.59218 0.16312 0.0
H436 H 0.8243 0.24724 0.25335 0.0
H437 H 0.79546 0.30166 0.24346 0.0
H438 H 0.70363 0.26588 0.2799 0.0
H439 H 0.73173 0.21178 0.28915 0.0
Dy440 Dy 0.35017 0.8974 0.46587 0.0
Dy441 Dy 0.40716 0.94521 0.48803 0.0
C442 C 0.42804 0.8646 0.47491 0.0
O443 O 0.3392 0.89174 0.50579 0.0
O444 O 0.37305 0.93455 0.52061 0.0
O445 O 0.32851 0.85998 0.44204 0.0
O446 O 0.29629 0.88448 0.46895 0.0
O447 O 0.3581 0.97223 0.49444 0.0
O448 O 0.33039 0.95166 0.46218 0.0
O449 O 0.40128 0.96789 0.44994 0.0
O450 O 0.36753 0.92693 0.43233 0.0
O451 O 0.43993 0.95925 0.51721 0.0
O452 O 0.43812 0.99128 0.48508 0.0
C453 C 0.34834 0.91152 0.52374 0.0
O454 O 0.39557 0.85939 0.46833 0.0
O455 O 0.43774 0.89552 0.48214 0.0
C456 C 0.27297 0.87908 0.43066 0.0
C457 C 0.22957 0.87831 0.39175 0.0
C458 C 0.26216 0.89421 0.38937 0.0
C459 C 0.28495 0.89203 0.40863 0.0
C460 C 0.23726 0.87696 0.43444 0.0
C461 C 0.21502 0.87997 0.41482 0.0
C462 C 0.29713 0.8672 0.44912 0.0
C463 C 0.33487 0.97585 0.4779 0.0
C464 C 0.38498 0.95622 0.43079 0.0
C465 C 0.48682 0.99576 0.50986 0.0
C466 C 0.55521 0.0133 0.51949 0.0
C467 C 0.52843 0.03636 0.52479 0.0
C468 C 0.49447 0.02766 0.51988 0.0
C469 C 0.5132 0.97239 0.50462 0.0
C470 C 0.54739 0.98116 0.50945 0.0
C471 C 0.45083 0.98714 0.50648 0.0
H472 H 0.27283 0.90034 0.37196 0.0
H473 H 0.31202 0.89764 0.40575 0.0
H474 H 0.2269 0.87041 0.45189 0.0
H475 H 0.18791 0.87446 0.41754 0.0
H476 H 0.53372 0.06113 0.53276 0.0
H477 H 0.4741 0.04573 0.52415 0.0
H478 H 0.50732 0.94756 0.49692 0.0
H479 H 0.56767 0.96318 0.5049 0.0
Dy480 Dy 0.19817 0.36919 0.5155 0.0
Dy481 Dy 0.15205 0.42768 0.53763 0.0
C482 C 0.23058 0.44061 0.52526 0.0
O483 O 0.22148 0.37696 0.55316 0.0
O484 O 0.17955 0.40891 0.57122 0.0
O485 O 0.21724 0.33998 0.48583 0.0
O486 O 0.24106 0.33452 0.5207 0.0
O487 O 0.11317 0.38322 0.53246 0.0
O488 O 0.14995 0.33858 0.52443 0.0
O489 O 0.15426 0.44376 0.49866 0.0
O490 O 0.17836 0.39638 0.4815 0.0
O491 O 0.11488 0.44897 0.56199 0.0
O492 O 0.13803 0.48127 0.53428 0.0
C493 C 0.20909 0.39206 0.57255 0.0
O494 O 0.22517 0.41831 0.5085 0.0
O495 O 0.20681 0.44595 0.54134 0.0
C496 C 0.24695 0.28877 0.4938 0.0
C497 C 0.2603 0.21967 0.48353 0.0
C498 C 0.28155 0.24588 0.47419 0.0
C499 C 0.27501 0.28013 0.47942 0.0
C500 C 0.22505 0.26306 0.50286 0.0
C501 C 0.23173 0.22852 0.49774 0.0
C502 C 0.24116 0.32501 0.49846 0.0
C503 C 0.11852 0.34977 0.52899 0.0
C504 C 0.16457 0.42749 0.47943 0.0
C505 C 0.13297 0.50503 0.57234 0.0
C506 C 0.13073 0.54843 0.61079 0.0
C507 C 0.14844 0.51683 0.61326 0.0
C508 C 0.14678 0.49375 0.59429 0.0
C509 C 0.12956 0.54058 0.56822 0.0
C510 C 0.13206 0.56299 0.5876 0.0
C511 C 0.12125 0.48035 0.55442 0.0
H512 H 0.30338 0.23992 0.46287 0.0
H513 H 0.2919 0.29994 0.47221 0.0
H514 H 0.20313 0.26967 0.51394 0.0
H515 H 0.21514 0.20879 0.50533 0.0
H516 H 0.15541 0.50674 0.6307 0.0
H517 H 0.15349 0.46698 0.59736 0.0
H518 H 0.12244 0.55059 0.55076 0.0
H519 H 0.12579 0.58989 0.5847 0.0
Dy520 Dy 0.90734 0.9427 0.26584 0.0
Dy521 Dy 0.84824 0.89871 0.28788 0.0
C522 C 0.83582 0.97606 0.27236 0.0
O523 O 0.89848 0.96571 0.30361 0.0
O524 O 0.86342 0.92643 0.32188 0.0
O525 O 0.92601 0.98478 0.24374 0.0
O526 O 0.95866 0.96191 0.27137 0.0
O527 O 0.89345 0.85983 0.28776 0.0
O528 O 0.93342 0.8903 0.26604 0.0
O529 O 0.83629 0.89859 0.248 0.0
O530 O 0.88387 0.92334 0.23074 0.0
O531 O 0.82372 0.86146 0.31106 0.0
O532 O 0.7943 0.8871 0.28298 0.0
C533 C 0.88187 0.95489 0.32305 0.0
O534 O 0.85942 0.97008 0.25652 0.0
O535 O 0.831 0.95397 0.28982 0.0
C536 C 0.98565 0.99825 0.2428 0.0
C537 C 0.0496 0.02363 0.22788 0.0
C538 C 0.02344 0.04647 0.23475 0.0
C539 C 0.99164 0.03379 0.24219 0.0
C540 C 1.01068 0.9754 0.23443 0.0
C541 C 0.04258 0.9881 0.22687 0.0
C542 C 0.95507 0.9862 0.25528 0.0
C543 C 0.92414 0.86167 0.2772 0.0
C544 C 0.85292 0.90899 0.22863 0.0
C545 C 0.76733 0.8803 0.32011 0.0
C546 C 0.7223 0.87483 0.35788 0.0
C547 C 0.75353 0.89289 0.36117 0.0
C548 C 0.77735 0.89314 0.34245 0.0
C549 C 0.73204 0.87614 0.31543 0.0
C550 C 0.70871 0.87678 0.33453 0.0
C551 C 0.79314 0.86912 0.30269 0.0
H552 H 0.02817 0.07396 0.23552 0.0
H553 H 0.97239 0.05163 0.24876 0.0
H554 H 1.00626 0.94783 0.23497 0.0
H555 H 0.06249 0.96997 0.22187 0.0
H556 H 0.76296 0.89872 0.37887 0.0
H557 H 0.8039 0.90012 0.34603 0.0
H558 H 0.72305 0.86944 0.29774 0.0
H559 H 0.68223 0.86937 0.33118 0.0
Dy560 Dy 0.33638 0.65868 1.01527 0.0
Dy561 Dy 0.37692 0.59671 1.0367 0.0
C562 C 0.29815 0.59058 1.02077 0.0
O563 O 0.31231 0.65291 1.05306 0.0
O564 O 0.34877 0.61356 1.07032 0.0
O565 O 0.28889 0.68791 1.01343 0.0
O566 O 0.33498 0.70385 0.99287 0.0
O567 O 0.41936 0.63864 1.03186 0.0
O568 O 0.38401 0.68512 1.02911 0.0
O569 O 0.37675 0.58223 0.99772 0.0
O570 O 0.35377 0.63082 0.98083 0.0
O571 O 0.41309 0.57228 1.06056 0.0
O572 O 0.38526 0.54191 1.0343 0.0
C573 C 0.32197 0.63434 1.07199 0.0
O574 O 0.30642 0.61337 1.00466 0.0
O575 O 0.32009 0.58354 1.03795 0.0
C576 C 0.28437 0.73958 0.98883 0.0
C577 C 0.2502 0.79998 0.97481 0.0
C578 C 0.23126 0.77139 0.98315 0.0
C579 C 0.2483 0.74136 0.99024 0.0
C580 C 0.30312 0.76743 0.9795 0.0
C581 C 0.28622 0.79742 0.97262 0.0
C582 C 0.30288 0.70992 0.99854 0.0
C583 C 0.41531 0.67267 1.03124 0.0
C584 C 0.36687 0.59936 0.97853 0.0
C585 C 0.39158 0.51793 1.0726 0.0
C586 C 0.39634 0.4762 1.11243 0.0
C587 C 0.37999 0.50851 1.11454 0.0
C588 C 0.38008 0.53053 1.09466 0.0
C589 C 0.39394 0.48218 1.06962 0.0
C590 C 0.39294 0.46069 1.08986 0.0
C591 C 0.40362 0.54151 1.05376 0.0
H592 H 0.20346 0.77263 0.9849 0.0
H593 H 0.23341 0.71996 0.99736 0.0
H594 H 0.33103 0.76667 0.9785 0.0
H595 H 0.30166 0.81924 0.96686 0.0
H596 H 0.37528 0.5198 0.13184 0.0
H597 H 0.37454 0.55763 1.09707 0.0
H598 H 0.39961 0.47132 1.05229 0.0
H599 H 0.3989 0.43365 1.08766 0.0
Dy600 Dy 0.61925 0.08459 0.76626 0.0
Dy601 Dy 0.68107 0.12703 0.78584 0.0
C602 C 0.68887 0.04828 0.76921 0.0
O603 O 0.62853 0.05992 0.80341 0.0
O604 O 0.66298 0.10065 0.82026 0.0
O605 O 0.58659 0.03978 0.76929 0.0
O606 O 0.57435 0.08138 0.74375 0.0
O607 O 0.6395 0.16958 0.78277 0.0
O608 O 0.59337 0.13452 0.77668 0.0
O609 O 0.68997 0.13313 0.746 0.0
O610 O 0.65038 0.09492 0.73158 0.0
O611 O 0.70707 0.16336 0.80834 0.0
O612 O 0.73617 0.13335 0.78253 0.0
C613 C 0.64559 0.07146 0.82222 0.0
O614 O 0.66369 0.05444 0.75448 0.0
O615 O 0.69606 0.07057 0.78598 0.0
C616 C 0.5407 0.02921 0.74116 0.0
C617 C 0.48029 0.99374 0.72884 0.0
C618 C 0.50549 0.97757 0.74313 0.0
C619 C 0.53549 0.99527 0.74935 0.0
C620 C 0.5172 0.04395 0.72503 0.0
C621 C 0.48725 0.02642 0.71894 0.0
C622 C 0.5652 0.05188 0.75326 0.0
C623 C 0.60569 0.16556 0.78033 0.0
C624 C 0.67743 0.11546 0.72801 0.0
C625 C 0.76108 0.1412 0.82021 0.0
C626 C 0.802 0.14685 0.86013 0.0
C627 C 0.76993 0.12984 0.86224 0.0
C628 C 0.74835 0.12931 0.8423 0.0
C629 C 0.79681 0.14473 0.81728 0.0
C630 C 0.81796 0.14435 0.83755 0.0
C631 C 0.73748 0.15277 0.80134 0.0
H632 H 0.50102 0.95217 0.75073 0.0
H633 H 0.55323 0.98334 0.76189 0.0
H634 H 0.52041 0.07023 0.7187 0.0
H635 H 0.46825 0.03986 0.70817 0.0
H636 H 0.75834 0.12481 0.87952 0.0
H637 H 0.72131 0.12307 0.84466 0.0
H638 H 0.80781 0.15086 0.79995 0.0
H639 H 0.84489 0.15112 0.83536 0.0
H640 H 0.43666 0.21735 0.26031 0.0
H641 H 0.56617 0.338 0.18493 0.0
H642 H 0.46012 0.19057 0.18763 0.0
H643 H 0.58768 0.31099 0.25818 0.0
H644 H 0.51999 0.29366 0.18459 0.0
H645 H 0.48361 0.2601 0.25925 0.0
C646 C 0.4516 0.22026 0.24405 0.0
C647 C 0.44401 0.1994 0.22414 0.0
C648 C 0.53466 0.29758 0.2008 0.0
C649 C 0.49818 0.25049 0.22253 0.0
C650 C 0.56099 0.32329 0.20108 0.0
C651 C 0.58117 0.32907 0.22172 0.0
C652 C 0.52716 0.27776 0.22153 0.0
C653 C 0.57307 0.30812 0.24184 0.0
C654 C 0.47863 0.24493 0.24349 0.0
C655 C 0.4648 0.2053 0.20363 0.0
N656 N 0.54681 0.28421 0.24133 0.0
N657 N 0.49027 0.23029 0.20327 0.0
H658 H 0.53319 0.6602 0.46861 0.0
H659 H 0.49829 0.86498 0.48665 0.0
H660 H 0.61568 0.73269 0.47934 0.0
H661 H 0.41999 0.79502 0.46213 0.0
H662 H 0.54041 0.81747 0.48614 0.0
H663 H 0.49177 0.7082 0.46801 0.0
C664 C 0.54288 0.68613 0.47092 0.0
C665 C 0.57874 0.69158 0.47402 0.0
C666 C 0.51408 0.81236 0.48079 0.0
C667 C 0.52993 0.74817 0.47369 0.0
C668 C 0.48966 0.83976 0.48109 0.0
C669 C 0.45474 0.83486 0.4744 0.0
C670 C 0.50423 0.77882 0.47391 0.0
C671 C 0.44615 0.80084 0.46749 0.0
C672 C 0.51887 0.71383 0.47053 0.0
C673 C 0.58872 0.72649 0.47676 0.0
N674 N 0.47029 0.77464 0.46752 0.0
N675 N 0.56478 0.75293 0.47671 0.0
H676 H 0.11209 0.78573 0.71627 0.0
H677 H 0.90697 0.74877 0.73098 0.0
H678 H 0.03837 0.86782 0.72427 0.0
H679 H 0.98103 0.66994 0.7142 0.0
H680 H 0.95359 0.7919 0.72989 0.0
H681 H 0.06486 0.7439 0.71662 0.0
C682 C 0.08599 0.79532 0.718 0.0
C683 C 0.08001 0.83119 0.72007 0.0
C684 C 0.95978 0.76523 0.72637 0.0
C685 C 0.0242 0.78173 0.72078 0.0
C686 C 0.93292 0.74025 0.72699 0.0
C687 C 0.93931 0.70491 0.72265 0.0
C688 C 0.99413 0.75551 0.72142 0.0
C689 C 0.97412 0.69643 0.71771 0.0
C690 C 0.05872 0.771 0.71823 0.0
C691 C 0.04494 0.84089 0.72239 0.0
N692 N 0.99972 0.72115 0.71729 0.0
N693 N 0.01879 0.8166 0.72277 0.0
H694 H 0.03383 0.16077 0.97234 0.0
H695 H 0.99533 0.36585 0.97053 0.0
H696 H 0.11473 0.23638 0.9654 0.0
H697 H 0.91478 0.28941 0.96877 0.0
H698 H 0.03859 0.31981 0.96972 0.0
H699 H 0.99101 0.20701 0.97207 0.0
C700 C 0.04294 0.18707 0.97066 0.0
C701 C 0.07878 0.19389 0.96878 0.0
C702 C 1.01153 0.31291 0.96941 0.0
C703 C 0.02818 0.24849 0.96865 0.0
C704 C 0.98641 0.33943 0.96987 0.0
C705 C 0.95054 0.33225 0.96962 0.0
C706 C 1.00152 0.27802 0.96883 0.0
C707 C 0.94167 0.2969 0.9689 0.0
C708 C 0.01803 0.21373 0.97052 0.0
C709 C 0.08783 0.22915 0.96675 0.0
N710 N 0.96666 0.27153 0.96859 0.0
N711 N 0.06301 0.25473 0.96683 0.0
H712 H 0.61935 0.78002 1.03388 0.0
H713 H 0.41311 0.74406 1.02926 0.0
H714 H 0.54398 0.86141 1.03071 0.0
H715 H 0.4877 0.6622 1.03527 0.0
H716 H 0.46004 0.7863 1.02975 0.0
H717 H 0.57254 0.73741 1.03442 0.0
C718 C 0.59301 0.78927 1.03336 0.0
C719 C 0.58642 0.8252 1.03229 0.0
C720 C 0.4664 0.75918 1.03103 0.0
C721 C 0.53117 0.77493 1.0328 0.0
C722 C 0.43931 0.73461 1.03078 0.0
C723 C 0.44559 0.69864 1.03226 0.0
C724 C 0.5011 0.74862 1.03276 0.0
C725 C 0.48081 0.68918 1.03409 0.0
C726 C 0.56601 0.76452 1.03366 0.0
C727 C 0.55108 0.83447 1.03161 0.0
N728 N 0.50678 0.71368 1.03426 0.0
N729 N 0.52527 0.80985 1.03183 0.0
H730 H 0.53414 0.16369 0.77833 0.0
H731 H 0.49941 0.3701 0.77936 0.0
H732 H 0.6165 0.23765 0.78408 0.0
H733 H 0.41762 0.29505 0.78216 0.0
H734 H 0.5419 0.32305 0.78005 0.0
H735 H 0.49215 0.21088 0.77866 0.0
C736 C 0.54374 0.18979 0.77975 0.0
C737 C 0.57976 0.19584 0.78126 0.0
C738 C 0.51472 0.31668 0.78056 0.0
C739 C 0.53017 0.25164 0.78147 0.0
C740 C 0.49007 0.34381 0.78016 0.0
C741 C 0.45408 0.33735 0.78074 0.0
C742 C 0.50409 0.28189 0.78138 0.0
C743 C 0.44464 0.30207 0.78174 0.0
C744 C 0.51933 0.21704 0.77992 0.0
C745 C 0.58946 0.23095 0.78295 0.0
N746 N 0.46911 0.27617 0.78193 0.0
N747 N 0.56515 0.25706 0.78294 0.0
H748 H 0.04785 0.35977 0.53791 0.0
H749 H 0.99064 0.15794 0.52828 0.0
H750 H 0.11988 0.27856 0.52232 0.0
H751 H 0.91827 0.24138 0.53545 0.0
H752 H 0.03818 0.20051 0.52796 0.0
H753 H 1.00099 0.31676 0.53896 0.0
C754 C 0.05408 0.33302 0.53469 0.0
C755 C 0.08861 0.32349 0.52997 0.0
C756 C 1.0119 0.20956 0.52969 0.0
C757 C 0.03383 0.27291 0.53124 0.0
C758 C 0.9845 0.18501 0.52995 0.0
C759 C 0.94966 0.19536 0.53196 0.0
C760 C 1.00508 0.2453 0.53161 0.0
C761 C 0.94424 0.23143 0.53387 0.0
C762 C 0.02702 0.30822 0.53529 0.0
C763 C 0.09412 0.28782 0.52605 0.0
N764 N 0.97116 0.25458 0.5337 0.0
N765 N 0.06747 0.26429 0.52678 0.0
H766 H 0.05759 0.68337 0.24119 0.0
H767 H 0.93975 0.815 0.31433 0.0
H768 H 0.08791 0.70971 0.31269 0.0
H769 H 0.96807 0.83817 0.24156 0.0
H770 H 0.98342 0.76834 0.31501 0.0
H771 H 0.01529 0.73085 0.24156 0.0
C772 C 0.05549 0.69899 0.25706 0.0
C773 C 0.07723 0.6921 0.27683 0.0
C774 C 0.97999 0.78351 0.29884 0.0
C775 C 0.02677 0.74685 0.27768 0.0
C776 C 0.95471 0.81019 0.29836 0.0
C777 C 0.94953 0.83109 0.27779 0.0
C778 C 0.99995 0.77623 0.27833 0.0
C779 C 0.97061 0.82319 0.25788 0.0
C780 C 0.03113 0.72633 0.25722 0.0
C781 C 0.07243 0.71379 0.29682 0.0
N782 N 0.99408 0.7965 0.25855 0.0
N783 N 0.04773 0.7395 0.29684 0.0
H784 H 0.45519 0.93777 0.15005 0.0
H785 H 0.57828 0.08609 1.10192 0.0
H786 H 0.424 0.01474 1.09805 0.0
H787 H 0.60834 1.0106 0.1553 0.0
H788 H 0.52047 0.06333 1.10286 0.0
H789 H 0.51295 0.96071 0.14891 0.0
C790 C 0.46007 0.95934 0.13814 0.0
C791 C 0.43299 0.97738 0.12668 0.0
C792 C 0.53982 0.05161 1.11429 0.0
C793 C 0.49996 1.00305 1.12488 0.0
C794 C 0.57314 0.06492 1.11412 0.0
C795 C 0.59995 0.04724 1.12617 0.0
C796 C 0.53291 0.02168 0.1276 0.0
C797 C 0.5897 0.02277 0.14358 0.0
C798 C 0.49335 0.97273 0.13785 0.0
C799 C 0.44286 1.0023 1.10944 0.0
N800 N 0.5573 1.00956 0.14301 0.0
N801 N 0.47526 0.01554 1.10986 0.0
H802 H 0.83787 0.71012 0.4116 0.0
H803 H 0.69238 0.8133 0.34201 0.0
H804 H 0.78274 0.67017 0.35067 0.0
H805 H 0.74795 0.85389 0.40254 0.0
H806 H 0.72143 0.75905 0.34751 0.0
H807 H 0.80871 0.76441 0.40632 0.0
C808 C 0.82004 0.71242 0.39682 0.0
C809 C 0.80973 0.68356 0.38335 0.0
C810 C 0.72734 0.77989 0.35958 0.0
C811 C 0.77664 0.74667 0.37711 0.0
C812 C 0.71026 0.81115 0.35677 0.0
C813 C 0.7207 0.84014 0.37006 0.0
C814 C 0.75375 0.77706 0.37652 0.0
C815 C 0.74145 0.83354 0.39027 0.0
C816 C 0.80292 0.74369 0.39413 0.0
C817 C 0.78913 0.69037 0.36309 0.0
N818 N 0.7585 0.8031 0.3923 0.0
N819 N 0.77205 0.7208 0.36117 0.0
H820 H 0.06969 0.08628 0.6555 0.0
H821 H 0.95855 0.93671 0.59853 0.0
H822 H 0.10683 0.01957 0.59959 0.0
H823 H 0.92046 1.00492 0.65322 0.0
H824 H 1.01452 0.96313 0.60176 0.0
H825 H 1.01383 0.05965 0.65263 0.0
C826 C 0.06652 0.06634 0.64233 0.0
C827 C 0.09484 0.05252 0.62971 0.0
C828 C 0.99382 0.97242 0.61299 0.0
C829 C 0.02987 0.02218 0.6263 0.0
C830 C 0.96154 0.95697 0.61149 0.0
C831 C 0.93296 0.97143 0.62347 0.0
C832 C 0.99802 1.00132 0.62746 0.0
C833 C 0.94052 0.9951 0.6417 0.0
C834 C 0.03428 0.05074 0.64104 0.0
C835 C 0.08701 0.02899 0.61145 0.0
N836 N 0.97199 1.0104 0.64246 0.0
N837 N 0.0556 0.01352 0.61093 0.0
H838 H 0.69261 0.31821 0.90852 0.0
H839 H 0.83703 0.20683 0.84568 0.0
H840 H 0.75501 0.35502 0.84943 0.0
H841 H 0.77266 0.16853 0.90328 0.0
H842 H 0.8111 0.26272 0.8498 0.0
H843 H 0.71842 0.2622 0.9047 0.0
C844 C 0.71137 0.31491 0.89442 0.0
C845 C 0.72446 0.34313 0.88105 0.0
C846 C 0.80254 0.24201 0.86149 0.0
C847 C 0.75388 0.27804 0.87662 0.0
C848 C 0.81778 0.20976 0.85951 0.0
C849 C 0.80417 0.1812 0.87225 0.0
C850 C 0.77467 0.24617 0.87709 0.0
C851 C 0.78171 0.18865 0.89133 0.0
C852 C 0.72654 0.2826 0.89259 0.0
C853 C 0.74635 0.3352 0.86176 0.0
N854 N 0.76653 0.22011 0.89255 0.0
N855 N 0.76151 0.30372 0.86072 0.0
H856 H 0.24674 0.35382 0.90448 0.0
H857 H 0.28184 0.16747 0.85103 0.0
H858 H 0.19498 0.31343 0.8423 0.0
H859 H 0.33513 0.20936 0.91213 0.0
H860 H 0.25246 0.22241 0.84583 0.0
H861 H 0.27492 0.29833 0.90998 0.0
C862 C 0.24078 0.33341 0.89209 0.0
C863 C 0.22158 0.34008 0.87118 0.0
C864 C 0.27058 0.21936 0.86042 0.0
C865 C 0.25322 0.2763 0.8777 0.0
C866 C 0.28787 0.18806 0.86324 0.0
C867 C 0.30824 0.18198 0.88371 0.0
C868 C 0.27499 0.24511 0.87759 0.0
C869 C 0.31742 0.21114 0.89726 0.0
C870 C 0.25738 0.3018 0.89509 0.0
C871 C 0.2121 0.31116 0.85747 0.0
N872 N 0.29971 0.24099 0.89455 0.0
N873 N 0.22916 0.28096 0.86035 0.0
H874 H 0.25758 0.857 0.348 0.0
H875 H 0.271 0.66905 0.40567 0.0
H876 H 0.19163 0.81928 0.40479 0.0
H877 H 0.33603 0.70635 0.34822 0.0
H878 H 0.24535 0.72607 0.4082 0.0
H879 H 0.28312 0.79999 0.34534 0.0
C880 C 0.24803 0.83692 0.35982 0.0
C881 C 0.22574 0.8446 0.37896 0.0
C882 C 0.26518 0.72156 0.39496 0.0
C883 C 0.25419 0.7791 0.37549 0.0
C884 C 0.28034 0.68905 0.3937 0.0
C885 C 0.30251 0.68124 0.37452 0.0
C886 C 0.27388 0.74671 0.37778 0.0
C887 C 0.31637 0.7096 0.3617 0.0
C888 C 0.26313 0.80439 0.35848 0.0
C889 C 0.21152 0.81612 0.39145 0.0
N890 N 0.30071 0.74073 0.36279 0.0
N891 N 0.22714 0.78496 0.39033 0.0
H892 H 0.07133 0.58648 0.59873 0.0
H893 H 0.95826 0.43388 0.65219 0.0
H894 H 0.10779 0.51472 0.65262 0.0
H895 H 0.92198 0.50537 0.59823 0.0
H896 H 0.0151 0.45891 0.64899 0.0
H897 H 0.01528 0.55965 0.6006 0.0
C898 C 0.06795 0.56528 0.6112 0.0
C899 C 0.09621 0.54987 0.62314 0.0
C900 C 0.99458 0.46929 0.63794 0.0
C901 C 0.03117 0.51967 0.62571 0.0
C902 C 0.96185 0.45468 0.63943 0.0
C903 C 0.9336 0.47125 0.62827 0.0
C904 C 0.99934 0.49898 0.6239 0.0
C905 C 0.94182 0.49459 0.60963 0.0
C906 C 0.03568 0.54961 0.61191 0.0
C907 C 0.08809 0.52522 0.64098 0.0
N908 N 0.97362 0.5092 0.60888 0.0
N909 N 0.05668 0.50976 0.64099 0.0
H910 H 0.60744 0.51761 1.09702 0.0
H911 H 0.42007 0.5051 0.15509 0.0
H912 H 0.57056 0.58368 0.15335 0.0
H913 H 0.45545 0.4407 1.09741 0.0
H914 H 0.47742 0.53015 0.15733 0.0
H915 H 0.55039 0.49181 1.09488 0.0
C916 C 0.58757 0.52712 1.10884 0.0
C917 C 0.59549 0.55012 0.1274 0.0
C918 C 0.47242 0.51056 0.14413 0.0
C919 C 0.52989 0.52106 1.12464 0.0
C920 C 0.43968 0.49578 0.14301 0.0
C921 C 0.43125 0.47366 1.12404 0.0
C922 C 0.49721 0.50178 0.12694 0.0
C923 C 0.45918 0.46007 1.1109 0.0
C924 C 0.555 0.51192 1.10777 0.0
C925 C 0.56725 0.56377 0.14019 0.0
N926 N 0.49055 0.47538 1.1119 0.0
N927 N 0.53608 0.54806 0.13927 0.0
H928 H 0.20551 0.33088 0.25927 0.0
H929 H 0.23504 0.52012 0.30902 0.0
H930 H 0.29405 0.35381 0.30315 0.0
H931 H 0.18332 0.49585 0.24284 0.0
H932 H 0.25086 0.45877 0.31332 0.0
H933 H 0.18836 0.39104 0.26099 0.0
C934 C 0.22098 0.34847 0.2697 0.0
C935 C 0.2513 0.33745 0.28107 0.0
C936 C 0.23621 0.46727 0.29787 0.0
C937 C 0.23227 0.40651 0.28256 0.0
C938 C 0.22746 0.50215 0.2953 0.0
C939 C 0.20798 0.51321 0.2755 0.0
C940 C 0.22475 0.44362 0.28076 0.0
C941 C 0.19837 0.48873 0.25841 0.0
C942 C 0.2114 0.38288 0.27043 0.0
C943 C 0.27069 0.36152 0.29395 0.0
N944 N 0.20658 0.45517 0.26157 0.0
N945 N 0.26094 0.39516 0.29427 0.0
H946 H 0.42102 0.55381 0.54414 0.0
H947 H 0.28755 0.40408 0.51535 0.0
H948 H 0.4478 0.45275 0.51842 0.0
H949 H 0.25487 0.50099 0.54501 0.0
H950 H 0.34704 0.42098 0.52027 0.0
H951 H 0.36076 0.5349 0.54804 0.0
C952 C 0.41423 0.52764 0.53951 0.0
C953 C 0.43931 0.50479 0.53096 0.0
C954 C 0.32708 0.43879 0.5257 0.0
C955 C 0.37105 0.48315 0.53538 0.0
C956 C 0.29299 0.42924 0.5227 0.0
C957 C 0.26633 0.4517 0.52911 0.0
C958 C 0.33485 0.47137 0.53487 0.0
C959 C 0.27485 0.48332 0.53944 0.0
C960 C 0.38001 0.51685 0.54185 0.0
C961 C 0.42943 0.47109 0.52541 0.0
N962 N 0.30861 0.49256 0.54168 0.0
N963 N 0.39608 0.46143 0.52758 0.0
H964 H 0.32896 0.69825 0.76308 0.0
H965 H 0.28713 0.50496 0.8043 0.0
H966 H 0.24479 0.67223 0.81061 0.0
H967 H 0.3652 0.5349 0.753 0.0
H968 H 0.2746 0.56631 0.81083 0.0
H969 H 0.34841 0.63884 0.76515 0.0
C970 C 0.31499 0.68027 0.77443 0.0
C971 C 0.28476 0.69008 0.7863 0.0
C972 C 0.29451 0.55925 0.79822 0.0
C973 C 0.3061 0.62161 0.78795 0.0
C974 C 0.30143 0.52435 0.79436 0.0
C975 C 0.32672 0.51482 0.77777 0.0
C976 C 0.31349 0.58449 0.78565 0.0
C977 C 0.34491 0.54091 0.76559 0.0
C978 C 0.32583 0.64614 0.77533 0.0
C979 C 0.26768 0.66547 0.8006 0.0
N980 N 0.33796 0.57443 0.7698 0.0
N981 N 0.27819 0.63214 0.80068 0.0
H982 H 0.0999 0.50648 1.06205 0.0
H983 H 0.24459 0.61693 0.99521 0.0
H984 H 0.08042 0.57707 1.0034 0.0
H985 H 0.26795 0.54248 1.05082 0.0
H986 H 0.18374 0.60557 1.00062 0.0
H987 H 0.1605 0.52356 1.06152 0.0
C988 C 0.10823 0.52598 1.04932 0.0
C989 C 0.08514 0.53992 1.03246 0.0
C990 C 0.20206 0.59155 1.01162 0.0
C991 C 0.15427 0.55969 1.03192 0.0
C992 C 0.237 0.59777 1.00841 0.0
C993 C 0.26156 0.58042 1.02252 0.0
C994 C 0.19131 0.56757 1.02896 0.0
C995 C 0.24989 0.55632 1.03953 0.0
C996 C 0.14282 0.53567 1.04904 0.0
C997 C 0.09715 0.56565 1.01678 0.0
N998 N 0.21548 0.55053 1.04227 0.0
N999 N 0.13099 0.57441 1.01673 0.0
H1000 H 0.83486 0.5204 1.02077 0.0
H1001 H 0.78339 0.68364 0.94062 0.0
H1002 H 0.81459 0.51335 0.94511 0.0
H1003 H 0.81322 0.68806 1.01489 0.0
H1004 H 0.79468 0.62159 0.94116 0.0
H1005 H 0.82428 0.58203 1.01867 0.0
C1006 C 0.8275 0.53183 1.00377 0.0
C1007 C 0.8255 0.51185 0.9831 0.0
C1008 C 0.79912 0.63627 0.95723 0.0
C1009 C 0.81405 0.58258 0.98041 0.0
C1010 C 0.79281 0.67162 0.95691 0.0
C1011 C 0.79717 0.69092 0.97777 0.0
C1012 C 0.80974 0.62028 0.97858 0.0
C1013 C 0.80979 0.67429 0.99833 0.0
C1014 C 0.8218 0.56708 1.00252 0.0
C1015 C 0.81598 0.52787 0.96151 0.0
N1016 N 0.81532 0.63986 0.99825 0.0
N1017 N 0.81083 0.56252 0.96067 0.0
H1018 H 0.58564 0.57637 0.73757 0.0
H1019 H 0.78017 0.51541 0.71974 0.0
H1020 H 0.61196 0.46945 0.72698 0.0
H1021 H 0.74597 0.6207 0.72551 0.0
H1022 H 0.71921 0.49682 0.71836 0.0
H1023 H 0.6448 0.59223 0.72965 0.0
C1024 C 0.60391 0.55619 0.73338 0.0
C1025 C 0.59385 0.52157 0.73283 0.0
C1026 C 0.72523 0.52399 0.71967 0.0
C1027 C 0.66232 0.53947 0.72431 0.0
C1028 C 0.75981 0.53448 0.72041 0.0
C1029 C 0.76761 0.56939 0.72339 0.0
C1030 C 0.69899 0.54885 0.72172 0.0
C1031 C 0.74077 0.5934 0.72388 0.0
C1032 C 0.63785 0.56523 0.72893 0.0
C1033 C 0.61885 0.49644 0.72786 0.0
N1034 N 0.7077 0.58266 0.72324 0.0
N1035 N 0.65217 0.50588 0.7239 0.0
H1036 H 0.74334 0.33867 0.43793 0.0
H1037 H 0.70687 0.50496 0.517 0.0
H1038 H 0.72356 0.33646 0.51388 0.0
H1039 H 0.71329 0.50967 0.44006 0.0
H1040 H 0.71718 0.44321 0.51579 0.0
H1041 H 0.73358 0.40104 0.43767 0.0
C1042 C 0.73642 0.35123 0.45445 0.0
C1043 C 0.73437 0.33237 0.47595 0.0
C1044 C 0.71675 0.45766 0.49913 0.0
C1045 C 0.72371 0.4035 0.47586 0.0
C1046 C 0.71128 0.493 0.49984 0.0
C1047 C 0.70943 0.51237 0.47861 0.0
C1048 C 0.72031 0.44142 0.47698 0.0
C1049 C 0.71506 0.49565 0.45684 0.0
C1050 C 0.731 0.38677 0.45431 0.0
C1051 C 0.72506 0.34981 0.49683 0.0
N1052 N 0.71997 0.46092 0.45656 0.0
N1053 N 0.7204 0.38441 0.49628 0.0
H1054 H 0.75638 0.48662 0.20008 0.0
H1055 H 0.94872 0.44985 0.24381 0.0
H1056 H 0.78424 0.4171 0.25777 0.0
H1057 H 0.92128 0.54438 0.20718 0.0
H1058 H 0.88888 0.4313 0.24173 0.0
H1059 H 0.81741 0.5034 0.19649 0.0
C1060 C 0.77516 0.4752 0.2121 0.0
C1061 C 0.76515 0.45077 0.22943 0.0
C1062 C 0.89594 0.45603 0.234 0.0
C1063 C 0.83442 0.46898 0.22496 0.0
C1064 C 0.93012 0.46646 0.23497 0.0
C1065 C 0.93978 0.49872 0.22568 0.0
C1066 C 0.87122 0.47801 0.22373 0.0
C1067 C 0.9146 0.51948 0.21476 0.0
C1068 C 0.80986 0.4846 0.20995 0.0
C1069 C 0.79058 0.43632 0.24431 0.0
N1070 N 0.88125 0.50881 0.21415 0.0
N1071 N 0.82399 0.44553 0.24164 0.0
H1072 H 0.69833 0.83174 0.74936 0.0
H1073 H 0.73422 0.01849 0.80159 0.0
H1074 H 0.79099 0.85235 0.7896 0.0
H1075 H 0.67472 0.99727 0.73807 0.0
H1076 H 0.75035 0.95703 0.80363 0.0
H1077 H 0.68195 0.89195 0.75303 0.0
C1078 C 0.71507 0.8489 0.75919 0.0
C1079 C 0.74624 0.83725 0.76894 0.0
C1080 C 0.73392 0.9662 0.78926 0.0
C1081 C 0.72802 0.90626 0.77279 0.0
C1082 C 0.72494 1.00115 0.78798 0.0
C1083 C 0.70316 0.01307 0.76962 0.0
C1084 C 0.72044 0.94339 0.77231 0.0
C1085 C 0.69152 0.98943 0.75259 0.0
C1086 C 0.70587 0.8833 0.76111 0.0
C1087 C 0.76707 0.86064 0.7814 0.0
N1088 N 0.70007 0.9558 0.75449 0.0
N1089 N 0.75767 0.89428 0.78289 0.0
H1090 H 0.76488 0.96686 1.0584 0.0
H1091 H 0.94854 0.95188 0.99417 0.0
H1092 H 0.78063 0.93092 0.98638 0.0
H1093 H 0.9349 0.99817 1.06345 0.0
H1094 H 0.88755 0.93754 0.99361 0.0
H1095 H 0.82729 0.97593 1.062 0.0
C1096 C 0.78133 0.9615 1.04322 0.0
C1097 C 0.76754 0.94824 1.02204 0.0
C1098 C 0.89791 0.95063 1.00903 0.0
C1099 C 0.83869 0.95749 1.02627 0.0
C1100 C 0.93295 0.95832 1.00956 0.0
C1101 C 0.94687 0.97661 1.02881 0.0
C1102 C 0.87653 0.96152 1.02778 0.0
C1103 C 0.9251 0.98467 1.04804 0.0
C1104 C 0.81694 0.96624 1.04539 0.0
C1105 C 0.7901 0.94119 1.00307 0.0
N1106 N 0.89088 0.97747 1.0469 0.0
N1107 N 0.82452 0.94571 1.00569 0.0
H1108 H 0.81135 1.01148 0.31105 0.0
H1109 H 0.8147 0.18933 0.23792 0.0
H1110 H 0.83073 0.02085 0.23524 0.0
H1111 H 0.7766 0.18109 0.31032 0.0
H1112 H 0.82743 0.12796 0.23866 0.0
H1113 H 0.80099 0.07381 0.31242 0.0
C1114 C 0.81252 0.02649 0.29463 0.0
C1115 C 0.82179 1.01113 0.27299 0.0
C1116 C 0.81645 0.13958 0.25446 0.0
C1117 C 0.81125 0.082 0.27456 0.0
C1118 C 0.80971 0.17474 0.25417 0.0
C1119 C 0.79432 0.19019 0.27404 0.0
C1120 C 0.80758 0.11977 0.2747 0.0
C1121 C 0.78796 0.16994 0.2945 0.0
C1122 C 0.80713 0.06204 0.29548 0.0
C1123 C 0.82371 0.03175 0.25231 0.0
N1124 N 0.79431 0.1356 0.29424 0.0
N1125 N 0.81878 0.06617 0.25365 0.0
H1126 H 0.74418 0.12075 0.50267 0.0
H1127 H 0.60886 0.97545 0.53822 0.0
H1128 H 0.77435 0.0317 0.54468 0.0
H1129 H 0.5833 0.07544 0.50868 0.0
H1130 H 0.66932 0.99393 0.5416 0.0
H1131 H 0.68485 0.10297 0.50542 0.0
C1132 C 0.73838 0.09708 0.51229 0.0
C1133 C 0.7644 0.07725 0.52307 0.0
C1134 C 0.65029 1.01181 0.53464 0.0
C1135 C 0.69576 0.05669 0.52642 0.0
C1136 C 0.61599 1.00126 0.53256 0.0
C1137 C 0.59124 0.02396 0.52307 0.0
C1138 C 0.65959 0.04507 0.52694 0.0
C1139 C 0.60147 0.05722 0.5163 0.0
C1140 C 0.70425 0.08709 0.51405 0.0
C1141 C 0.75501 0.0474 0.53585 0.0
N1142 N 0.63487 0.06665 0.51826 0.0
N1143 N 0.72126 0.03772 0.537 0.0
H1144 H 0.21719 0.16543 0.47309 0.0
H1145 H 0.37405 0.03234 0.47472 0.0
H1146 H 0.32422 0.19121 0.48475 0.0
H1147 H 0.26829 0.99866 0.47005 0.0
H1148 H 0.35523 0.09175 0.47169 0.0
H1149 H 0.23415 0.10513 0.46693 0.0
C1150 C 0.24418 0.15841 0.47432 0.0
C1151 C 0.26937 0.1833 0.47935 0.0
C1152 C 0.33593 0.07158 0.47127 0.0
C1153 C 0.28881 0.11503 0.47206 0.0
C1154 C 0.3467 0.03765 0.47302 0.0
C1155 C 0.3225 1.01089 0.47323 0.0
C1156 C 0.30054 0.07897 0.47013 0.0
C1157 C 0.28753 0.01887 0.47029 0.0
C1158 C 0.25382 0.12416 0.47063 0.0
C1159 C 0.30397 0.17305 0.4805 0.0
N1160 N 0.2774 0.05248 0.46926 0.0
N1161 N 0.31258 0.13976 0.47693 0.0
H1162 H 0.08338 0.06751 0.25719 0.0
H1163 H 0.26557 0.05381 0.19167 0.0
H1164 H 0.09703 1.00719 0.19345 0.0
H1165 H 0.25095 0.08568 0.2647 0.0
H1166 H 0.2036 0.04074 0.18926 0.0
H1167 H 0.1444 0.08182 0.25645 0.0
C1168 C 0.09916 0.05781 0.24274 0.0
C1169 C 0.08529 0.03608 0.22535 0.0
C1170 C 0.21422 0.05026 0.20584 0.0
C1171 C 0.15535 0.05153 0.22479 0.0
C1172 C 0.24953 0.05737 0.20728 0.0
C1173 C 0.26332 0.07095 0.22835 0.0
C1174 C 0.19293 0.05697 0.22558 0.0
C1175 C 0.24138 0.07544 0.24803 0.0
C1176 C 0.13409 0.0656 0.24251 0.0
C1177 C 0.10699 0.02375 0.2073 0.0
N1178 N 0.20727 0.06877 0.24609 0.0
N1179 N 0.14115 0.03154 0.20751 0.0
H1180 H 0.22512 0.01698 0.94599 0.0
H1181 H 0.20021 0.82883 1.00245 0.0
H1182 H 0.1754 0.99439 1.01351 0.0
H1183 H 0.2632 0.84859 0.94007 0.0
H1184 H 0.18293 0.88895 1.00229 0.0
H1185 H 0.23525 0.95512 0.94078 0.0
C1186 C 0.21686 0.99914 0.95986 0.0
C1187 C 0.1995 1.01084 0.98024 0.0
C1188 C 0.20033 0.88012 0.9885 0.0
C1189 C 0.20997 0.94045 0.97407 0.0
C1190 C 0.20979 0.84562 0.98835 0.0
C1191 C 0.23364 0.83386 0.97147 0.0
C1192 C 0.21512 0.90304 0.97181 0.0
C1193 C 0.2454 0.85692 0.95376 0.0
C1194 C 0.22224 0.96388 0.95674 0.0
C1195 C 0.18891 0.98659 0.99751 0.0
N1196 N 0.23644 0.89065 0.9546 0.0
N1197 N 0.19415 0.95259 0.99395 0.0
H1198 H 0.43624 0.99417 0.69038 0.0
H1199 H 0.27552 0.93484 0.77025 0.0
H1200 H 0.44306 0.96299 0.76456 0.0
H1201 H 0.26586 0.96501 0.69608 0.0
H1202 H 0.33721 0.94575 0.76813 0.0
H1203 H 0.37433 0.98209 0.69131 0.0
C1204 C 0.42482 0.98431 0.70675 0.0
C1205 C 0.44484 0.97978 0.72745 0.0
C1206 C 0.32167 0.9503 0.75233 0.0
C1207 C 0.37416 0.96614 0.72866 0.0
C1208 C 0.28637 0.94433 0.75358 0.0
C1209 C 0.26557 0.9491 0.73331 0.0
C1210 C 0.33644 0.96106 0.73061 0.0
C1211 C 0.28096 0.96138 0.71218 0.0
C1212 C 0.3895 0.97754 0.70728 0.0
C1213 C 0.42882 0.96655 0.74808 0.0
N1214 N 0.31563 0.96673 0.71132 0.0
N1215 N 0.39439 0.96048 0.7482 0.0
H1216 H 0.29715 0.07252 0.1556 0.0
H1217 H 0.21952 0.16542 1.0389 0.0
H1218 H 0.29026 0.183 0.15058 0.0
H1219 H 0.1769 0.06879 1.06328 0.0
H1220 H 0.25257 0.16934 1.07616 0.0
H1221 H 0.26048 0.06785 1.11976 0.0
C1222 C 0.28803 0.09595 0.14704 0.0
C1223 C 0.29703 0.12831 0.15673 0.0
C1224 C 0.23578 0.14739 1.07359 0.0
C1225 C 0.2553 0.12296 1.11426 0.0
C1226 C 0.21663 0.14504 1.05212 0.0
C1227 C 0.19427 0.11703 1.04758 0.0
C1228 C 0.23391 0.12113 1.09109 0.0
C1229 C 0.19291 0.09133 1.06575 0.0
C1230 C 0.2669 0.09316 1.12642 0.0
C1231 C 0.28413 0.15745 0.14428 0.0
N1232 N 0.21247 0.09384 1.08633 0.0
N1233 N 0.26467 0.15407 1.12377 0.0
H1234 H 0.65755 0.49757 0.28057 0.0
H1235 H 0.63353 0.4979 0.42399 0.0
H1236 H 0.666 0.4036 0.32168 0.0
H1237 H 0.66598 0.58764 0.38406 0.0
H1238 H 0.63928 0.46326 0.3874 0.0
H1239 H 0.6551 0.53034 0.31779 0.0
C1240 C 0.65862 0.48356 0.2974 0.0
C1241 C 0.66163 0.44724 0.29745 0.0
C1242 C 0.64506 0.49054 0.38657 0.0
C1243 C 0.6582 0.48566 0.34125 0.0
C1244 C 0.64152 0.51062 0.40759 0.0
C1245 C 0.64869 0.54641 0.40759 0.0
C1246 C 0.65538 0.50598 0.36474 0.0
C1247 C 0.65963 0.56053 0.38539 0.0
C1248 C 0.65736 0.50256 0.31885 0.0
C1249 C 0.66351 0.43132 0.32031 0.0
N1250 N 0.66223 0.54064 0.36519 0.0
N1251 N 0.66131 0.45038 0.34102 0.0
H1252 H 0.23787 0.84175 0.65485 0.0
H1253 H 0.34296 0.9598 0.56028 0.0
H1254 H 0.22358 0.9517 0.65252 0.0
H1255 H 0.3076 0.85822 0.54203 0.0
H1256 H 0.30879 0.95635 0.59752 0.0
H1257 H 0.27213 0.84597 0.61765 0.0
C1258 C 0.24188 0.86682 0.64667 0.0
C1259 C 0.227 0.89625 0.65712 0.0
C1260 C 0.3086 0.93472 0.58545 0.0
C1261 C 0.26788 0.90149 0.61419 0.0
C1262 C 0.32842 0.93655 0.56409 0.0
C1263 C 0.32881 0.90914 0.54759 0.0
C1264 C 0.28928 0.90486 0.59113 0.0
C1265 C 0.30865 0.88004 0.55391 0.0
C1266 C 0.26153 0.86922 0.62526 0.0
C1267 C 0.23378 0.92804 0.64525 0.0
N1268 N 0.29031 0.87858 0.57498 0.0
N1269 N 0.25376 0.92981 0.62488 0.0
H1270 H 0.85772 0.61948 0.81991 0.0
H1271 H 0.86815 0.43198 0.88412 0.0
H1272 H 0.87868 0.52663 0.78096 0.0
H1273 H 0.8935 0.5245 0.92217 0.0
H1274 H 0.86307 0.46633 0.84701 0.0
H1275 H 0.86173 0.58599 0.85768 0.0
C1276 C 0.86326 0.59216 0.81914 0.0
C1277 C 0.86847 0.57639 0.79677 0.0
C1278 C 0.86989 0.4792 0.86343 0.0
C1279 C 0.87229 0.53714 0.8406 0.0
C1280 C 0.87288 0.45945 0.88481 0.0
C1281 C 0.88205 0.47479 0.90672 0.0
C1282 C 0.87512 0.51521 0.86354 0.0
C1283 C 0.88711 0.51096 0.90594 0.0
C1284 C 0.86557 0.57295 0.84087 0.0
C1285 C 0.87503 0.5405 0.79746 0.0
N1286 N 0.8834 0.52968 0.88502 0.0
N1287 N 0.8765 0.52239 0.81868 0.0
H1288 H 0.87808 0.90588 0.18113 0.0
H1289 H 0.68996 0.91475 1.11751 0.0
H1290 H 0.78272 0.90842 0.22055 0.0
H1291 H 0.77799 0.87281 1.08096 0.0
H1292 H 0.72509 0.9202 0.15385 0.0
H1293 H 0.84438 0.90139 0.1436 0.0
C1294 C 0.85019 0.90554 0.18207 0.0
C1295 C 0.8337 0.90697 0.20459 0.0
C1296 C 0.73684 0.9096 0.13797 0.0
C1297 C 0.79426 0.90259 0.16091 0.0
C1298 C 0.71658 0.90637 1.11697 0.0
C1299 C 0.73028 0.89259 1.09565 0.0
C1300 C 0.7719 0.89968 0.13818 0.0
C1301 C 0.76557 0.88297 1.09671 0.0
C1302 C 0.8308 0.90289 0.16048 0.0
C1303 C 0.79712 0.90675 0.20402 0.0
N1304 N 0.78487 0.8868 1.11728 0.0
N1305 N 0.77904 0.90485 0.18292 0.0
H1306 H 0.36386 0.62501 0.93092 0.0
H1307 H 0.36646 0.43714 0.86828 0.0
H1308 H 0.37281 0.52957 0.97036 0.0
H1309 H 0.39825 0.52815 0.82952 0.0
H1310 H 0.36061 0.4718 0.9046 0.0
H1311 H 0.36813 0.5921 0.89323 0.0
C1312 C 0.36676 0.59728 0.93185 0.0
C1313 C 0.36858 0.58059 0.95441 0.0
C1314 C 0.36907 0.48433 0.88824 0.0
C1315 C 0.37283 0.54203 0.91059 0.0
C1316 C 0.37257 0.46435 0.86727 0.0
C1317 C 0.38379 0.47902 0.84536 0.0
C1318 C 0.37595 0.52007 0.88783 0.0
C1319 C 0.39036 0.515 0.84577 0.0
C1320 C 0.36927 0.57837 0.91015 0.0
C1321 C 0.37187 0.54421 0.95381 0.0
N1322 N 0.38623 0.53401 0.86634 0.0
N1323 N 0.37367 0.52656 0.93266 0.0
H1324 H 0.67904 0.06864 0.68987 0.0
H1325 H 0.79704 0.18416 0.60043 0.0
H1326 H 0.72173 0.16619 0.71085 0.0
H1327 H 0.79954 0.07344 0.59762 0.0
H1328 H 0.7616 0.18002 0.6371 0.0
H1329 H 0.71418 0.07147 0.6529 0.0
C1330 C 0.69524 0.09096 0.68669 0.0
C1331 C 0.69651 0.11747 0.70386 0.0
C1332 C 0.76978 0.15656 0.62847 0.0
C1333 C 0.73743 0.12097 0.66073 0.0
C1334 C 0.79013 0.15893 0.60735 0.0
C1335 C 0.80207 0.1292 0.59561 0.0
C1336 C 0.75969 0.12416 0.63795 0.0
C1337 C 0.79166 0.09726 0.60591 0.0
C1338 C 0.71569 0.09241 0.6655 0.0
C1339 C 0.71909 0.14519 0.6984 0.0
N1340 N 0.77106 0.09564 0.62602 0.0
N1341 N 0.73801 0.14632 0.67757 0.0
H1342 H 0.16375 0.40203 0.43239 0.0
H1343 H 0.1675 0.58964 0.36745 0.0
H1344 H 0.16143 0.49755 0.47087 0.0
H1345 H 0.13063 0.49993 0.33061 0.0
H1346 H 0.17296 0.5549 0.40419 0.0
H1347 H 0.15918 0.43522 0.39445 0.0
C1348 C 0.16231 0.42987 0.43301 0.0
C1349 C 0.16247 0.44659 0.45534 0.0
C1350 C 0.16348 0.5427 0.38815 0.0
C1351 C 0.15793 0.48535 0.41131 0.0
C1352 C 0.16026 0.5627 0.36694 0.0
C1353 C 0.14791 0.54835 0.34545 0.0
C1354 C 0.155 0.50733 0.38838 0.0
C1355 C 0.13969 0.51276 0.3465 0.0
C1356 C 0.15962 0.44892 0.4112 0.0
C1357 C 0.16084 0.48303 0.45446 0.0
N1358 N 0.14349 0.49372 0.36731 0.0
N1359 N 0.15889 0.50083 0.43315 0.0
H1360 H 0.7491 0.60985 0.53121 0.0
H1361 H 0.75151 0.65231 0.67246 0.0
H1362 H 0.65457 0.62074 0.5709 0.0
H1363 H 0.83827 0.60897 0.63524 0.0
H1364 H 0.71638 0.64583 0.63594 0.0
H1365 H 0.78178 0.61375 0.56847 0.0
C1366 C 0.73494 0.61328 0.54772 0.0
C1367 C 0.69849 0.6153 0.54731 0.0
C1368 C 0.74314 0.63785 0.63568 0.0
C1369 C 0.73701 0.62033 0.59123 0.0
C1370 C 0.76352 0.64182 0.65665 0.0
C1371 C 0.79864 0.63182 0.65738 0.0
C1372 C 0.7576 0.62408 0.61466 0.0
C1373 C 0.81176 0.61764 0.63597 0.0
C1374 C 0.75392 0.61539 0.56923 0.0
C1375 C 0.6824 0.61918 0.56985 0.0
N1376 N 0.79162 0.61455 0.61582 0.0
N1377 N 0.70159 0.62193 0.5906 0.0
H1378 H 0.10889 0.96693 0.79127 0.0
H1379 H 0.20479 0.05014 0.9039 0.0
H1380 H 0.20865 0.92894 0.81261 0.0
H1381 H 0.09443 0.03837 0.90229 0.0
H1382 H 0.20927 0.01335 0.86826 0.0
H1383 H 0.10563 1.00008 0.82834 0.0
C1384 C 0.1301 0.96511 0.80381 0.0
C1385 C 0.15879 0.94406 0.79849 0.0
C1386 C 0.18402 0.01883 0.8756 0.0
C1387 C 0.15557 0.9839 0.84167 0.0
C1388 C 0.18134 0.04019 0.89602 0.0
C1389 C 0.14903 0.04808 0.90649 0.0
C1390 C 0.15414 1.00563 0.86458 0.0
C1391 C 0.11992 0.0335 0.89521 0.0
C1392 C 0.12817 0.9843 0.82515 0.0
C1393 C 0.18556 0.94391 0.81577 0.0
N1394 N 0.12314 0.01375 0.87495 0.0
N1395 N 0.18346 0.9636 0.83619 0.0
H1396 H 0.81525 0.35399 1.04323 0.0
H1397 H 0.72416 0.45141 0.15253 0.0
H1398 H 0.84409 0.45782 1.06069 0.0
H1399 H 0.74114 0.34181 0.15478 0.0
H1400 H 0.76068 0.45554 1.11659 0.0
H1401 H 0.78159 0.35034 1.08047 0.0
C1402 C 0.81494 0.37603 1.05494 0.0
C1403 C 0.83366 0.40601 1.04856 0.0
C1404 C 0.75645 0.43053 1.12483 0.0
C1405 C 0.79321 0.40227 1.09181 0.0
C1406 C 0.73523 0.42799 0.14548 0.0
C1407 C 0.7288 0.39604 0.15717 0.0
C1408 C 0.77121 0.40079 1.11479 0.0
C1409 C 0.74483 0.36705 0.14679 0.0
C1410 C 0.79548 0.37388 1.07637 0.0
C1411 C 0.83108 0.43377 1.06474 0.0
N1412 N 0.76458 0.37007 1.12631 0.0
N1413 N 0.81119 0.43136 1.0852 0.0
H1414 H 0.39959 0.02625 0.42362 0.0
H1415 H 0.3687 0.03018 0.28076 0.0
H1416 H 0.36384 0.93803 0.38468 0.0
H1417 H 0.36632 0.12365 0.32154 0.0
H1418 H 0.37213 0.99664 0.31798 0.0
H1419 H 0.39322 0.06177 0.38703 0.0
C1420 C 0.39082 0.01401 0.40741 0.0
C1421 C 0.38291 0.97835 0.40772 0.0
C1422 C 0.37098 0.02446 0.31898 0.0
C1423 C 0.37542 0.01991 0.36482 0.0
C1424 C 0.36916 0.04396 0.2975 0.0
C1425 C 0.36758 0.08041 0.2974 0.0
C1426 C 0.37205 0.04089 0.34131 0.0
C1427 C 0.36767 0.09589 0.32023 0.0
C1428 C 0.38689 0.03462 0.38639 0.0
C1429 C 0.37084 0.96496 0.38577 0.0
N1430 N 0.37029 0.07629 0.34096 0.0
N1431 N 0.36788 0.98537 0.36554 0.0
H1432 H 0.27845 0.40974 0.72237 0.0
H1433 H 0.27908 0.3777 0.58002 0.0
H1434 H 0.3732 0.41177 0.68216 0.0
H1435 H 0.18954 0.41333 0.61808 0.0
H1436 H 0.31357 0.3845 0.61678 0.0
H1437 H 0.24596 0.40607 0.68495 0.0
C1438 C 0.29268 0.40915 0.70571 0.0
C1439 C 0.32911 0.41066 0.70594 0.0
C1440 C 0.28635 0.39071 0.61715 0.0
C1441 C 0.29104 0.40592 0.66198 0.0
C1442 C 0.26637 0.38654 0.59607 0.0
C1443 C 0.2307 0.39427 0.59555 0.0
C1444 C 0.27089 0.40231 0.63846 0.0
C1445 C 0.21656 0.40645 0.61723 0.0
C1446 C 0.27384 0.4072 0.68414 0.0
C1447 C 0.34536 0.41042 0.68328 0.0
N1448 N 0.23635 0.4097 0.6375 0.0
N1449 N 0.32642 0.40768 0.66248 0.0
H1450 H 0.86865 0.02822 0.47201 0.0
H1451 H 0.89781 0.02478 0.32911 0.0
H1452 H 0.86578 0.1223 0.43056 0.0
H1453 H 0.8608 0.93719 0.3694 0.0
H1454 H 0.8923 0.06042 0.36529 0.0
H1455 H 0.87146 0.99521 0.4351 0.0
C1456 C 0.86875 0.04228 0.45518 0.0
C1457 C 0.86723 0.07876 0.45505 0.0
C1458 C 0.88547 0.03339 0.36629 0.0
C1459 C 0.87099 0.03972 0.41141 0.0
C1460 C 0.88889 0.01272 0.34552 0.0
C1461 C 0.88028 0.97723 0.34573 0.0
C1462 C 0.87387 0.01884 0.38811 0.0
C1463 C 0.8682 0.96402 0.3679 0.0
C1464 C 0.87025 0.02304 0.43387 0.0
C1465 C 0.86702 0.09451 0.43208 0.0
N1466 N 0.86577 0.98443 0.38787 0.0
N1467 N 0.86927 0.07513 0.41147 0.0
H1468 H 0.23462 0.65685 0.21739 0.0
H1469 H 0.26943 0.58846 1.08294 0.0
H1470 H 0.16838 0.58212 0.18424 0.0
H1471 H 0.32305 0.67441 1.11339 0.0
H1472 H 0.23418 0.58345 1.11956 0.0
H1473 H 0.2683 0.66095 0.18044 0.0
C1474 C 0.2267 0.64143 0.20234 0.0
C1475 C 0.19767 0.61951 0.2044 0.0
C1476 C 0.25346 0.60359 1.11831 0.0
C1477 C 0.2376 0.62393 0.16093 0.0
C1478 C 0.2737 0.60657 1.09719 0.0
C1479 C 0.29929 0.6323 1.09448 0.0
C1480 C 0.25868 0.62628 0.13755 0.0
C1481 C 0.30363 0.65441 1.11416 0.0
C1482 C 0.24628 0.64379 0.18101 0.0
C1483 C 0.1899 0.5999 0.18384 0.0
N1484 N 0.28384 0.65086 0.13455 0.0
N1485 N 0.20954 0.60253 0.16327 0.0
H1486 H 0.6616 0.90157 0.93147 0.0
H1487 H 0.67009 0.08993 0.86725 0.0
H1488 H 0.66251 0.9966 0.97053 0.0
H1489 H 0.62803 1.00224 0.83077 0.0
H1490 H 0.67549 0.0545 0.90378 0.0
H1491 H 0.65739 0.93545 0.89374 0.0
C1492 C 0.66099 0.92942 0.93229 0.0
C1493 C 0.66191 0.94578 0.95475 0.0
C1494 C 0.66492 0.04291 0.88785 0.0
C1495 C 0.6578 0.98539 0.9109 0.0
C1496 C 0.66173 0.06333 0.86677 0.0
C1497 C 0.6479 0.04979 0.84544 0.0
C1498 C 0.65499 1.00787 0.88809 0.0
C1499 C 0.63826 0.01452 0.84653 0.0
C1500 C 0.65848 0.9489 0.91058 0.0
C1501 C 0.6613 0.9823 0.95404 0.0
N1502 N 0.6421 0.99506 0.86716 0.0
N1503 N 0.65954 1.00047 0.93286 0.0
loop_
_geom_bond_atom_site_label_1
_geom_bond_atom_site_label_2
_geom_bond_distance
_geom_bond_site_symmetry_2
_ccdc_geom_bond_type
Dy0 O3 2.307 . S
Dy0 O5 2.395 . S
Dy0 O6 2.379 . S
Dy0 O8 2.339 . S
Dy0 O10 2.298 . S
Dy0 O14 2.275 . S
Dy0 C22 2.738 . S
Dy1 O4 2.298 . S
Dy1 O7 2.275 . S
Dy1 O9 2.307 . S
Dy1 O11 2.395 . S
Dy1 O12 2.379 . S
Dy1 O15 2.339 . S
Dy1 C31 2.738 . S
C2 O14 1.254 . S
C2 O15 1.257 . S
O3 Dy0 2.307 . S
O3 C13 1.266 . S
O4 Dy1 2.298 . S
O4 C13 1.236 . S
O5 Dy0 2.395 . S
O5 C22 1.255 . S
O6 Dy0 2.379 . S
O6 C22 1.249 . S
O7 Dy1 2.275 . S
O7 C23 1.254 . S
O8 Dy0 2.339 . S
O8 C23 1.257 . S
O9 Dy1 2.307 . S
O9 C24 1.266 . S
O10 Dy0 2.298 . S
O10 C24 1.236 . S
O11 Dy1 2.395 . S
O11 C31 1.255 . S
O12 Dy1 2.379 . S
O12 C31 1.249 . S
C13 O3 1.266 . S
C13 O4 1.236 . S
O14 Dy0 2.275 . S
O14 C2 1.254 . S
O15 Dy1 2.339 . S
O15 C2 1.257 . S
C16 C19 1.344 . S
C16 C20 1.328 . S
C16 C22 1.516 . S
C17 C18 1.304 . S
C17 C21 1.323 1_545 S
C18 C17 1.304 . S
C18 C19 1.371 . S
C18 H32 0.930 . S
C19 C16 1.344 . S
C19 C18 1.371 . S
C19 H33 0.931 . S
C20 C16 1.328 . S
C20 C21 1.433 1_545 S
C20 H34 0.931 . S
C21 C17 1.323 1_565 S
C21 C20 1.433 1_565 S
C21 H35 0.933 . S
C22 Dy0 2.738 . S
C22 O5 1.255 . S
C22 O6 1.249 . S
C22 C16 1.516 . S
C23 O7 1.254 . S
C23 O8 1.257 . S
C24 O9 1.266 . S
C24 O10 1.236 . S
C25 C28 1.344 . S
C25 C29 1.328 . S
C25 C31 1.516 . S
C26 C27 1.304 . S
C26 C30 1.323 . S
C27 C26 1.304 . S
C27 C28 1.371 . S
C27 H36 0.930 . S
C28 C25 1.344 . S
C28 C27 1.371 . S
C28 H37 0.931 . S
C29 C25 1.328 . S
C29 C30 1.433 . S
C29 H38 0.931 . S
C30 C26 1.323 . S
C30 C29 1.433 . S
C30 H39 0.933 . S
C31 Dy1 2.738 . S
C31 O11 1.255 . S
C31 O12 1.249 . S
C31 C25 1.516 . S
H32 C18 0.930 . S
H33 C19 0.931 . S
H34 C20 0.931 . S
H35 C21 0.933 . S
H36 C27 0.930 . S
H37 C28 0.931 . S
H38 C29 0.931 . S
H39 C30 0.933 . S
Dy40 O43 2.307 . S
Dy40 O45 2.395 . S
Dy40 O46 2.379 . S
Dy40 O48 2.339 . S
Dy40 O50 2.298 . S
Dy40 O54 2.275 . S
Dy40 C62 2.738 . S
Dy41 O44 2.298 . S
Dy41 O47 2.275 . S
Dy41 O49 2.307 . S
Dy41 O51 2.395 . S
Dy41 O52 2.379 . S
Dy41 O55 2.339 . S
Dy41 C71 2.738 . S
C42 O54 1.254 . S
C42 O55 1.257 . S
O43 Dy40 2.307 . S
O43 C53 1.266 . S
O44 Dy41 2.298 . S
O44 C53 1.236 . S
O45 Dy40 2.395 . S
O45 C62 1.255 . S
O46 Dy40 2.379 . S
O46 C62 1.249 . S
O47 Dy41 2.275 . S
O47 C63 1.254 . S
O48 Dy40 2.339 . S
O48 C63 1.257 . S
O49 Dy41 2.307 . S
O49 C64 1.266 . S
O50 Dy40 2.298 . S
O50 C64 1.236 . S
O51 Dy41 2.395 . S
O51 C71 1.255 . S
O52 Dy41 2.379 . S
O52 C71 1.249 . S
C53 O43 1.266 . S
C53 O44 1.236 . S
O54 Dy40 2.275 . S
O54 C42 1.254 . S
O55 Dy41 2.339 . S
O55 C42 1.257 . S
C56 C59 1.344 . S
C56 C60 1.328 . S
C56 C62 1.516 . S
C57 C58 1.304 . S
C57 C61 1.323 . S
C58 C57 1.304 . S
C58 C59 1.371 . S
C58 H72 0.930 . S
C59 C56 1.344 . S
C59 C58 1.371 . S
C59 H73 0.931 . S
C60 C56 1.328 . S
C60 C61 1.433 . S
C60 H74 0.931 . S
C61 C57 1.323 . S
C61 C60 1.433 . S
C61 H75 0.933 . S
C62 Dy40 2.738 . S
C62 O45 1.255 . S
C62 O46 1.249 . S
C62 C56 1.516 . S
C63 O47 1.254 . S
C63 O48 1.257 . S
C64 O49 1.266 . S
C64 O50 1.236 . S
C65 C68 1.344 . S
C65 C69 1.328 . S
C65 C71 1.516 . S
C66 C67 1.304 . S
C66 C70 1.323 . S
C67 C66 1.304 . S
C67 C68 1.371 . S
C67 H76 0.930 . S
C68 C65 1.344 . S
C68 C67 1.371 . S
C68 H77 0.931 . S
C69 C65 1.328 . S
C69 C70 1.433 . S
C69 H78 0.931 . S
C70 C66 1.323 . S
C70 C69 1.433 . S
C70 H79 0.933 . S
C71 Dy41 2.738 . S
C71 O51 1.255 . S
C71 O52 1.249 . S
C71 C65 1.516 . S
H72 C58 0.930 . S
H73 C59 0.931 . S
H74 C60 0.931 . S
H75 C61 0.933 . S
H76 C67 0.930 . S
H77 C68 0.931 . S
H78 C69 0.931 . S
H79 C70 0.933 . S
Dy80 O83 2.307 . S
Dy80 O85 2.395 . S
Dy80 O86 2.379 . S
Dy80 O88 2.339 . S
Dy80 O90 2.298 . S
Dy80 O94 2.275 . S
Dy80 C102 2.738 . S
Dy81 O84 2.298 . S
Dy81 O87 2.275 . S
Dy81 O89 2.307 . S
Dy81 O91 2.395 . S
Dy81 O92 2.379 . S
Dy81 O95 2.339 . S
Dy81 C111 2.738 . S
C82 O94 1.254 . S
C82 O95 1.257 . S
O83 Dy80 2.307 . S
O83 C93 1.266 . S
O84 Dy81 2.298 . S
O84 C93 1.236 . S
O85 Dy80 2.395 . S
O85 C102 1.255 . S
O86 Dy80 2.379 . S
O86 C102 1.249 . S
O87 Dy81 2.275 . S
O87 C103 1.254 . S
O88 Dy80 2.339 . S
O88 C103 1.257 . S
O89 Dy81 2.307 . S
O89 C104 1.266 . S
O90 Dy80 2.298 . S
O90 C104 1.236 . S
O91 Dy81 2.395 . S
O91 C111 1.255 . S
O92 Dy81 2.379 . S
O92 C111 1.249 . S
C93 O83 1.266 . S
C93 O84 1.236 . S
O94 Dy80 2.275 . S
O94 C82 1.254 . S
O95 Dy81 2.339 . S
O95 C82 1.257 . S
C96 C99 1.344 . S
C96 C100 1.328 . S
C96 C102 1.516 . S
C97 C98 1.304 . S
C97 C101 1.323 1_565 S
C98 C97 1.304 . S
C98 C99 1.371 . S
C98 H112 0.930 . S
C99 C96 1.344 . S
C99 C98 1.371 . S
C99 H113 0.931 . S
C100 C96 1.328 . S
C100 C101 1.433 1_565 S
C100 H114 0.931 . S
C101 C97 1.323 1_545 S
C101 C100 1.433 1_545 S
C101 H115 0.933 . S
C102 Dy80 2.738 . S
C102 O85 1.255 . S
C102 O86 1.249 . S
C102 C96 1.516 . S
C103 O87 1.254 . S
C103 O88 1.257 . S
C104 O89 1.266 . S
C104 O90 1.236 . S
C105 C108 1.344 . S
C105 C109 1.328 . S
C105 C111 1.516 . S
C106 C107 1.304 . S
C106 C110 1.323 . S
C107 C106 1.304 . S
C107 C108 1.371 . S
C107 H116 0.930 . S
C108 C105 1.344 . S
C108 C107 1.371 . S
C108 H117 0.931 . S
C109 C105 1.328 . S
C109 C110 1.433 . S
C109 H118 0.931 . S
C110 C106 1.323 . S
C110 C109 1.433 . S
C110 H119 0.933 . S
C111 Dy81 2.738 . S
C111 O91 1.255 . S
C111 O92 1.249 . S
C111 C105 1.516 . S
H112 C98 0.930 . S
H113 C99 0.931 . S
H114 C100 0.931 . S
H115 C101 0.933 . S
H116 C107 0.930 . S
H117 C108 0.931 . S
H118 C109 0.931 . S
H119 C110 0.933 . S
Dy120 O123 2.307 . S
Dy120 O125 2.395 . S
Dy120 O126 2.379 . S
Dy120 O128 2.339 . S
Dy120 O130 2.298 . S
Dy120 O134 2.275 . S
Dy120 C142 2.738 . S
Dy121 O124 2.298 . S
Dy121 O127 2.275 . S
Dy121 O129 2.307 . S
Dy121 O131 2.395 . S
Dy121 O132 2.379 . S
Dy121 O135 2.339 . S
Dy121 C151 2.738 . S
C122 O134 1.254 . S
C122 O135 1.257 . S
O123 Dy120 2.307 . S
O123 C133 1.266 . S
O124 Dy121 2.298 . S
O124 C133 1.236 . S
O125 Dy120 2.395 . S
O125 C142 1.255 . S
O126 Dy120 2.379 . S
O126 C142 1.249 . S
O127 Dy121 2.275 . S
O127 C143 1.254 . S
O128 Dy120 2.339 . S
O128 C143 1.257 . S
O129 Dy121 2.307 . S
O129 C144 1.266 . S
O130 Dy120 2.298 . S
O130 C144 1.236 . S
O131 Dy121 2.395 . S
O131 C151 1.255 . S
O132 Dy121 2.379 . S
O132 C151 1.249 . S
C133 O123 1.266 . S
C133 O124 1.236 . S
O134 Dy120 2.275 . S
O134 C122 1.254 . S
O135 Dy121 2.339 . S
O135 C122 1.257 . S
C136 C139 1.344 . S
C136 C140 1.328 . S
C136 C142 1.516 . S
C137 C138 1.304 . S
C137 C141 1.323 . S
C138 C137 1.304 . S
C138 C139 1.371 . S
C138 H152 0.930 . S
C139 C136 1.344 . S
C139 C138 1.371 . S
C139 H153 0.931 . S
C140 C136 1.328 . S
C140 C141 1.433 . S
C140 H154 0.931 . S
C141 C137 1.323 . S
C141 C140 1.433 . S
C141 H155 0.933 . S
C142 Dy120 2.738 . S
C142 O125 1.255 . S
C142 O126 1.249 . S
C142 C136 1.516 . S
C143 O127 1.254 . S
C143 O128 1.257 . S
C144 O129 1.266 . S
C144 O130 1.236 . S
C145 C148 1.344 1_455 S
C145 C149 1.328 . S
C145 C151 1.516 1_455 S
C146 C147 1.304 . S
C146 C150 1.323 . S
C147 C146 1.304 . S
C147 C148 1.371 1_455 S
C147 H156 0.930 . S
C148 C145 1.344 1_655 S
C148 C147 1.371 1_655 S
C148 H157 0.931 . S
C149 C145 1.328 . S
C149 C150 1.433 . S
C149 H158 0.931 . S
C150 C146 1.323 . S
C150 C149 1.433 . S
C150 H159 0.933 . S
C151 Dy121 2.738 . S
C151 O131 1.255 . S
C151 O132 1.249 . S
C151 C145 1.516 1_655 S
H152 C138 0.930 . S
H153 C139 0.931 . S
H154 C140 0.931 . S
H155 C141 0.933 . S
H156 C147 0.930 . S
H157 C148 0.931 . S
H158 C149 0.931 . S
H159 C150 0.933 . S
Dy160 O163 2.307 . S
Dy160 O165 2.395 . S
Dy160 O166 2.379 . S
Dy160 O168 2.339 . S
Dy160 O170 2.298 . S
Dy160 O174 2.275 . S
Dy160 C182 2.738 . S
Dy161 O164 2.298 . S
Dy161 O167 2.275 . S
Dy161 O169 2.307 . S
Dy161 O171 2.395 . S
Dy161 O172 2.379 . S
Dy161 O175 2.339 . S
Dy161 C191 2.738 . S
C162 O174 1.254 . S
C162 O175 1.257 . S
O163 Dy160 2.307 . S
O163 C173 1.266 . S
O164 Dy161 2.298 . S
O164 C173 1.236 . S
O165 Dy160 2.395 . S
O165 C182 1.255 . S
O166 Dy160 2.379 . S
O166 C182 1.249 . S
O167 Dy161 2.275 . S
O167 C183 1.254 . S
O168 Dy160 2.339 . S
O168 C183 1.257 . S
O169 Dy161 2.307 . S
O169 C184 1.266 . S
O170 Dy160 2.298 . S
O170 C184 1.236 . S
O171 Dy161 2.395 . S
O171 C191 1.255 . S
O172 Dy161 2.379 . S
O172 C191 1.249 . S
C173 O163 1.266 . S
C173 O164 1.236 . S
O174 Dy160 2.275 . S
O174 C162 1.254 . S
O175 Dy161 2.339 . S
O175 C162 1.257 . S
C176 C179 1.344 . S
C176 C180 1.328 . S
C176 C182 1.516 . S
C177 C178 1.304 . S
C177 C181 1.323 . S
C178 C177 1.304 . S
C178 C179 1.371 . S
C178 H192 0.930 . S
C179 C176 1.344 . S
C179 C178 1.371 . S
C179 H193 0.931 . S
C180 C176 1.328 . S
C180 C181 1.433 . S
C180 H194 0.931 . S
C181 C177 1.323 . S
C181 C180 1.433 . S
C181 H195 0.933 . S
C182 Dy160 2.738 . S
C182 O165 1.255 . S
C182 O166 1.249 . S
C182 C176 1.516 . S
C183 O167 1.254 . S
C183 O168 1.257 . S
C184 O169 1.266 . S
C184 O170 1.236 . S
C185 C188 1.344 . S
C185 C189 1.328 . S
C185 C191 1.516 . S
C186 C187 1.304 . S
C186 C190 1.323 1_565 S
C187 C186 1.304 . S
C187 C188 1.371 . S
C187 H196 0.930 . S
C188 C185 1.344 . S
C188 C187 1.371 . S
C188 H197 0.931 . S
C189 C185 1.328 . S
C189 C190 1.433 1_565 S
C189 H198 0.931 . S
C190 C186 1.323 1_545 S
C190 C189 1.433 1_545 S
C190 H199 0.933 . S
C191 Dy161 2.738 . S
C191 O171 1.255 . S
C191 O172 1.249 . S
C191 C185 1.516 . S
H192 C178 0.930 . S
H193 C179 0.931 . S
H194 C180 0.931 . S
H195 C181 0.933 . S
H196 C187 0.930 . S
H197 C188 0.931 . S
H198 C189 0.931 . S
H199 C190 0.933 . S
Dy200 O203 2.307 . S
Dy200 O205 2.395 . S
Dy200 O206 2.379 . S
Dy200 O208 2.339 . S
Dy200 O210 2.298 . S
Dy200 O214 2.275 . S
Dy200 C222 2.738 . S
Dy201 O204 2.298 . S
Dy201 O207 2.275 . S
Dy201 O209 2.307 . S
Dy201 O211 2.395 . S
Dy201 O212 2.379 . S
Dy201 O215 2.339 . S
Dy201 C231 2.738 . S
C202 O214 1.254 . S
C202 O215 1.257 . S
O203 Dy200 2.307 . S
O203 C213 1.266 . S
O204 Dy201 2.298 . S
O204 C213 1.236 . S
O205 Dy200 2.395 . S
O205 C222 1.255 . S
O206 Dy200 2.379 . S
O206 C222 1.249 . S
O207 Dy201 2.275 . S
O207 C223 1.254 . S
O208 Dy200 2.339 . S
O208 C223 1.257 . S
O209 Dy201 2.307 . S
O209 C224 1.266 . S
O210 Dy200 2.298 . S
O210 C224 1.236 . S
O211 Dy201 2.395 . S
O211 C231 1.255 . S
O212 Dy201 2.379 . S
O212 C231 1.249 . S
C213 O203 1.266 . S
C213 O204 1.236 . S
O214 Dy200 2.275 . S
O214 C202 1.254 . S
O215 Dy201 2.339 . S
O215 C202 1.257 . S
C216 C219 1.344 . S
C216 C220 1.328 . S
C216 C222 1.516 . S
C217 C218 1.304 . S
C217 C221 1.323 . S
C218 C217 1.304 . S
C218 C219 1.371 . S
C218 H232 0.930 . S
C219 C216 1.344 . S
C219 C218 1.371 . S
C219 H233 0.931 . S
C220 C216 1.328 . S
C220 C221 1.433 . S
C220 H234 0.931 . S
C221 C217 1.323 . S
C221 C220 1.433 . S
C221 H235 0.933 . S
C222 Dy200 2.738 . S
C222 O205 1.255 . S
C222 O206 1.249 . S
C222 C216 1.516 . S
C223 O207 1.254 . S
C223 O208 1.257 . S
C224 O209 1.266 . S
C224 O210 1.236 . S
C225 C228 1.344 . S
C225 C229 1.328 . S
C225 C231 1.516 . S
C226 C227 1.304 . S
C226 C230 1.323 . S
C227 C226 1.304 . S
C227 C228 1.371 . S
C227 H236 0.930 . S
C228 C225 1.344 . S
C228 C227 1.371 . S
C228 H237 0.931 . S
C229 C225 1.328 . S
C229 C230 1.433 . S
C229 H238 0.931 . S
C230 C226 1.323 . S
C230 C229 1.433 . S
C230 H239 0.933 . S
C231 Dy201 2.738 . S
C231 O211 1.255 . S
C231 O212 1.249 . S
C231 C225 1.516 . S
H232 C218 0.930 . S
H233 C219 0.931 . S
H234 C220 0.931 . S
H235 C221 0.933 . S
H236 C227 0.930 . S
H237 C228 0.931 . S
H238 C229 0.931 . S
H239 C230 0.933 . S
Dy240 O243 2.307 . S
Dy240 O245 2.395 . S
Dy240 O246 2.379 . S
Dy240 O248 2.339 . S
Dy240 O250 2.298 . S
Dy240 O254 2.275 . S
Dy240 C262 2.738 . S
Dy241 O244 2.298 . S
Dy241 O247 2.275 . S
Dy241 O249 2.307 . S
Dy241 O251 2.395 . S
Dy241 O252 2.379 . S
Dy241 O255 2.339 . S
Dy241 C271 2.738 . S
C242 O254 1.254 . S
C242 O255 1.257 . S
O243 Dy240 2.307 . S
O243 C253 1.266 . S
O244 Dy241 2.298 . S
O244 C253 1.236 . S
O245 Dy240 2.395 . S
O245 C262 1.255 . S
O246 Dy240 2.379 . S
O246 C262 1.249 . S
O247 Dy241 2.275 . S
O247 C263 1.254 . S
O248 Dy240 2.339 . S
O248 C263 1.257 . S
O249 Dy241 2.307 . S
O249 C264 1.266 . S
O250 Dy240 2.298 . S
O250 C264 1.236 . S
O251 Dy241 2.395 . S
O251 C271 1.255 . S
O252 Dy241 2.379 . S
O252 C271 1.249 . S
C253 O243 1.266 . S
C253 O244 1.236 . S
O254 Dy240 2.275 . S
O254 C242 1.254 . S
O255 Dy241 2.339 . S
O255 C242 1.257 . S
C256 C259 1.344 . S
C256 C260 1.328 . S
C256 C262 1.516 . S
C257 C258 1.304 . S
C257 C261 1.323 . S
C258 C257 1.304 . S
C258 C259 1.371 . S
C258 H272 0.930 . S
C259 C256 1.344 . S
C259 C258 1.371 . S
C259 H273 0.931 . S
C260 C256 1.328 . S
C260 C261 1.433 . S
C260 H274 0.931 . S
C261 C257 1.323 . S
C261 C260 1.433 . S
C261 H275 0.933 . S
C262 Dy240 2.738 . S
C262 O245 1.255 . S
C262 O246 1.249 . S
C262 C256 1.516 . S
C263 O247 1.254 . S
C263 O248 1.257 . S
C264 O249 1.266 . S
C264 O250 1.236 . S
C265 C268 1.344 . S
C265 C269 1.328 . S
C265 C271 1.516 . S
C266 C267 1.304 . S
C266 C270 1.323 1_545 S
C267 C266 1.304 . S
C267 C268 1.371 . S
C267 H276 0.930 . S
C268 C265 1.344 . S
C268 C267 1.371 . S
C268 H277 0.931 . S
C269 C265 1.328 . S
C269 C270 1.433 1_545 S
C269 H278 0.931 . S
C270 C266 1.323 1_565 S
C270 C269 1.433 1_565 S
C270 H279 0.933 . S
C271 Dy241 2.738 . S
C271 O251 1.255 . S
C271 O252 1.249 . S
C271 C265 1.516 . S
H272 C258 0.930 . S
H273 C259 0.931 . S
H274 C260 0.931 . S
H275 C261 0.933 . S
H276 C267 0.930 . S
H277 C268 0.931 . S
H278 C269 0.931 . S
H279 C270 0.933 . S
Dy280 O283 2.307 . S
Dy280 O285 2.395 . S
Dy280 O286 2.379 . S
Dy280 O288 2.339 . S
Dy280 O290 2.298 . S
Dy280 O294 2.275 . S
Dy280 C302 2.738 . S
Dy281 O284 2.298 . S
Dy281 O287 2.275 . S
Dy281 O289 2.307 . S
Dy281 O291 2.395 . S
Dy281 O292 2.379 . S
Dy281 O295 2.339 . S
Dy281 C311 2.738 . S
C282 O294 1.254 . S
C282 O295 1.257 . S
O283 Dy280 2.307 . S
O283 C293 1.266 . S
O284 Dy281 2.298 . S
O284 C293 1.236 . S
O285 Dy280 2.395 . S
O285 C302 1.255 . S
O286 Dy280 2.379 . S
O286 C302 1.249 . S
O287 Dy281 2.275 . S
O287 C303 1.254 . S
O288 Dy280 2.339 . S
O288 C303 1.257 . S
O289 Dy281 2.307 . S
O289 C304 1.266 . S
O290 Dy280 2.298 . S
O290 C304 1.236 . S
O291 Dy281 2.395 . S
O291 C311 1.255 . S
O292 Dy281 2.379 . S
O292 C311 1.249 . S
C293 O283 1.266 . S
C293 O284 1.236 . S
O294 Dy280 2.275 . S
O294 C282 1.254 . S
O295 Dy281 2.339 . S
O295 C282 1.257 . S
C296 C299 1.344 1_655 S
C296 C300 1.328 . S
C296 C302 1.516 1_655 S
C297 C298 1.304 . S
C297 C301 1.323 . S
C298 C297 1.304 . S
C298 C299 1.371 1_655 S
C298 H312 0.930 . S
C299 C296 1.344 1_455 S
C299 C298 1.371 1_455 S
C299 H313 0.931 . S
C300 C296 1.328 . S
C300 C301 1.433 . S
C300 H314 0.931 . S
C301 C297 1.323 . S
C301 C300 1.433 . S
C301 H315 0.933 . S
C302 Dy280 2.738 . S
C302 O285 1.255 . S
C302 O286 1.249 . S
C302 C296 1.516 1_455 S
C303 O287 1.254 . S
C303 O288 1.257 . S
C304 O289 1.266 . S
C304 O290 1.236 . S
C305 C308 1.344 . S
C305 C309 1.328 . S
C305 C311 1.516 . S
C306 C307 1.304 . S
C306 C310 1.323 . S
C307 C306 1.304 . S
C307 C308 1.371 . S
C307 H316 0.930 . S
C308 C305 1.344 . S
C308 C307 1.371 . S
C308 H317 0.931 . S
C309 C305 1.328 . S
C309 C310 1.433 . S
C309 H318 0.931 . S
C310 C306 1.323 . S
C310 C309 1.433 . S
C310 H319 0.933 . S
C311 Dy281 2.738 . S
C311 O291 1.255 . S
C311 O292 1.249 . S
C311 C305 1.516 . S
H312 C298 0.930 . S
H313 C299 0.931 . S
H314 C300 0.931 . S
H315 C301 0.933 . S
H316 C307 0.930 . S
H317 C308 0.931 . S
H318 C309 0.931 . S
H319 C310 0.933 . S
Dy320 O323 2.307 . S
Dy320 O325 2.395 . S
Dy320 O326 2.379 . S
Dy320 O328 2.339 . S
Dy320 O330 2.298 . S
Dy320 O334 2.275 . S
Dy320 C342 2.738 . S
Dy321 O324 2.298 . S
Dy321 O327 2.275 . S
Dy321 O329 2.307 . S
Dy321 O331 2.395 . S
Dy321 O332 2.379 . S
Dy321 O335 2.339 . S
Dy321 C351 2.738 . S
C322 O334 1.254 . S
C322 O335 1.257 . S
O323 Dy320 2.307 . S
O323 C333 1.266 . S
O324 Dy321 2.298 . S
O324 C333 1.236 . S
O325 Dy320 2.395 . S
O325 C342 1.255 . S
O326 Dy320 2.379 . S
O326 C342 1.249 . S
O327 Dy321 2.275 . S
O327 C343 1.254 . S
O328 Dy320 2.339 . S
O328 C343 1.257 . S
O329 Dy321 2.307 . S
O329 C344 1.266 . S
O330 Dy320 2.298 . S
O330 C344 1.236 . S
O331 Dy321 2.395 . S
O331 C351 1.255 . S
O332 Dy321 2.379 . S
O332 C351 1.249 . S
C333 O323 1.266 . S
C333 O324 1.236 . S
O334 Dy320 2.275 . S
O334 C322 1.254 . S
O335 Dy321 2.339 . S
O335 C322 1.257 . S
C336 C339 1.344 . S
C336 C340 1.328 . S
C336 C342 1.516 . S
C337 C338 1.304 . S
C337 C341 1.323 . S
C338 C337 1.304 . S
C338 C339 1.371 . S
C338 H352 0.930 . S
C339 C336 1.344 . S
C339 C338 1.371 . S
C339 H353 0.931 . S
C340 C336 1.328 . S
C340 C341 1.433 . S
C340 H354 0.931 . S
C341 C337 1.323 . S
C341 C340 1.433 . S
C341 H355 0.933 . S
C342 Dy320 2.738 . S
C342 O325 1.255 . S
C342 O326 1.249 . S
C342 C336 1.516 . S
C343 O327 1.254 . S
C343 O328 1.257 . S
C344 O329 1.266 . S
C344 O330 1.236 . S
C345 C348 1.344 . S
C345 C349 1.328 . S
C345 C351 1.516 . S
C346 C347 1.304 . S
C346 C350 1.323 . S
C347 C346 1.304 . S
C347 C348 1.371 . S
C347 H356 0.930 . S
C348 C345 1.344 . S
C348 C347 1.371 . S
C348 H357 0.931 . S
C349 C345 1.328 . S
C349 C350 1.433 . S
C349 H358 0.931 . S
C350 C346 1.323 . S
C350 C349 1.433 . S
C350 H359 0.933 . S
C351 Dy321 2.738 . S
C351 O331 1.255 . S
C351 O332 1.249 . S
C351 C345 1.516 . S
H352 C338 0.930 . S
H353 C339 0.931 . S
H354 C340 0.931 . S
H355 C341 0.933 . S
H356 C347 0.930 . S
H357 C348 0.931 . S
H358 C349 0.931 . S
H359 C350 0.933 . S
Dy360 O363 2.307 . S
Dy360 O365 2.395 . S
Dy360 O366 2.379 . S
Dy360 O368 2.339 . S
Dy360 O370 2.298 . S
Dy360 O374 2.275 . S
Dy360 C382 2.738 . S
Dy361 O364 2.298 . S
Dy361 O367 2.275 . S
Dy361 O369 2.307 . S
Dy361 O371 2.395 1_545 S
Dy361 O372 2.379 . S
Dy361 O375 2.339 . S
Dy361 C391 2.738 . S
C362 O374 1.254 . S
C362 O375 1.257 . S
O363 Dy360 2.307 . S
O363 C373 1.266 . S
O364 Dy361 2.298 . S
O364 C373 1.236 . S
O365 Dy360 2.395 . S
O365 C382 1.255 . S
O366 Dy360 2.379 . S
O366 C382 1.249 . S
O367 Dy361 2.275 . S
O367 C383 1.254 . S
O368 Dy360 2.339 . S
O368 C383 1.257 . S
O369 Dy361 2.307 . S
O369 C384 1.266 . S
O370 Dy360 2.298 . S
O370 C384 1.236 . S
O371 Dy361 2.395 1_565 S
O371 C391 1.255 1_565 S
O372 Dy361 2.379 . S
O372 C391 1.249 . S
C373 O363 1.266 . S
C373 O364 1.236 . S
O374 Dy360 2.275 . S
O374 C362 1.254 . S
O375 Dy361 2.339 . S
O375 C362 1.257 . S
C376 C379 1.344 . S
C376 C380 1.328 . S
C376 C382 1.516 . S
C377 C378 1.304 . S
C377 C381 1.323 . S
C378 C377 1.304 . S
C378 C379 1.371 . S
C378 H392 0.930 . S
C379 C376 1.344 . S
C379 C378 1.371 . S
C379 H393 0.931 . S
C380 C376 1.328 . S
C380 C381 1.433 . S
C380 H394 0.931 . S
C381 C377 1.323 . S
C381 C380 1.433 . S
C381 H395 0.933 . S
C382 Dy360 2.738 . S
C382 O365 1.255 . S
C382 O366 1.249 . S
C382 C376 1.516 . S
C383 O367 1.254 . S
C383 O368 1.257 . S
C384 O369 1.266 . S
C384 O370 1.236 . S
C385 C388 1.344 1_655 S
C385 C389 1.328 . S
C385 C391 1.516 1_665 S
C386 C387 1.304 . S
C386 C390 1.323 . S
C387 C386 1.304 . S
C387 C388 1.371 1_655 S
C387 H396 0.930 . S
C388 C385 1.344 1_455 S
C388 C387 1.371 1_455 S
C388 H397 0.931 . S
C389 C385 1.328 . S
C389 C390 1.433 . S
C389 H398 0.931 1_565 S
C390 C386 1.323 . S
C390 C389 1.433 . S
C390 H399 0.933 . S
C391 Dy361 2.738 . S
C391 O371 1.255 1_545 S
C391 O372 1.249 . S
C391 C385 1.516 1_445 S
H392 C378 0.930 . S
H393 C379 0.931 . S
H394 C380 0.931 . S
H395 C381 0.933 . S
H396 C387 0.930 . S
H397 C388 0.931 . S
H398 C389 0.931 1_545 S
H399 C390 0.933 . S
Dy400 O403 2.307 . S
Dy400 O405 2.395 . S
Dy400 O406 2.379 . S
Dy400 O408 2.339 . S
Dy400 O410 2.298 . S
Dy400 O414 2.275 . S
Dy400 C422 2.738 . S
Dy401 O404 2.298 . S
Dy401 O407 2.275 . S
Dy401 O409 2.307 . S
Dy401 O411 2.395 . S
Dy401 O412 2.379 . S
Dy401 O415 2.339 . S
Dy401 C431 2.738 . S
C402 O414 1.254 . S
C402 O415 1.257 . S
O403 Dy400 2.307 . S
O403 C413 1.266 . S
O404 Dy401 2.298 . S
O404 C413 1.236 . S
O405 Dy400 2.395 . S
O405 C422 1.255 . S
O406 Dy400 2.379 . S
O406 C422 1.249 . S
O407 Dy401 2.275 . S
O407 C423 1.254 . S
O408 Dy400 2.339 . S
O408 C423 1.257 . S
O409 Dy401 2.307 . S
O409 C424 1.266 . S
O410 Dy400 2.298 . S
O410 C424 1.236 . S
O411 Dy401 2.395 . S
O411 C431 1.255 . S
O412 Dy401 2.379 . S
O412 C431 1.249 . S
C413 O403 1.266 . S
C413 O404 1.236 . S
O414 Dy400 2.275 . S
O414 C402 1.254 . S
O415 Dy401 2.339 . S
O415 C402 1.257 . S
C416 C419 1.344 . S
C416 C420 1.328 . S
C416 C422 1.516 . S
C417 C418 1.304 . S
C417 C421 1.323 . S
C418 C417 1.304 . S
C418 C419 1.371 . S
C418 H432 0.930 . S
C419 C416 1.344 . S
C419 C418 1.371 . S
C419 H433 0.931 . S
C420 C416 1.328 . S
C420 C421 1.433 . S
C420 H434 0.931 . S
C421 C417 1.323 . S
C421 C420 1.433 . S
C421 H435 0.933 . S
C422 Dy400 2.738 . S
C422 O405 1.255 . S
C422 O406 1.249 . S
C422 C416 1.516 . S
C423 O407 1.254 . S
C423 O408 1.257 . S
C424 O409 1.266 . S
C424 O410 1.236 . S
C425 C428 1.344 . S
C425 C429 1.328 . S
C425 C431 1.516 . S
C426 C427 1.304 . S
C426 C430 1.323 . S
C427 C426 1.304 . S
C427 C428 1.371 . S
C427 H436 0.930 . S
C428 C425 1.344 . S
C428 C427 1.371 . S
C428 H437 0.931 . S
C429 C425 1.328 . S
C429 C430 1.433 . S
C429 H438 0.931 . S
C430 C426 1.323 . S
C430 C429 1.433 . S
C430 H439 0.933 . S
C431 Dy401 2.738 . S
C431 O411 1.255 . S
C431 O412 1.249 . S
C431 C425 1.516 . S
H432 C418 0.930 . S
H433 C419 0.931 . S
H434 C420 0.931 . S
H435 C421 0.933 . S
H436 C427 0.930 . S
H437 C428 0.931 . S
H438 C429 0.931 . S
H439 C430 0.933 . S
Dy440 O443 2.307 . S
Dy440 O445 2.395 . S
Dy440 O446 2.379 . S
Dy440 O448 2.339 . S
Dy440 O450 2.298 . S
Dy440 O454 2.275 . S
Dy440 C462 2.738 . S
Dy441 O444 2.298 . S
Dy441 O447 2.275 . S
Dy441 O449 2.307 . S
Dy441 O451 2.395 1_565 S
Dy441 O452 2.379 . S
Dy441 O455 2.339 . S
Dy441 C471 2.738 . S
C442 O454 1.254 . S
C442 O455 1.257 . S
O443 Dy440 2.307 . S
O443 C453 1.266 . S
O444 Dy441 2.298 . S
O444 C453 1.236 . S
O445 Dy440 2.395 . S
O445 C462 1.255 . S
O446 Dy440 2.379 . S
O446 C462 1.249 . S
O447 Dy441 2.275 . S
O447 C463 1.254 . S
O448 Dy440 2.339 . S
O448 C463 1.257 . S
O449 Dy441 2.307 . S
O449 C464 1.266 . S
O450 Dy440 2.298 . S
O450 C464 1.236 . S
O451 Dy441 2.395 1_545 S
O451 C471 1.255 1_545 S
O452 Dy441 2.379 . S
O452 C471 1.249 . S
C453 O443 1.266 . S
C453 O444 1.236 . S
O454 Dy440 2.275 . S
O454 C442 1.254 . S
O455 Dy441 2.339 . S
O455 C442 1.257 . S
C456 C459 1.344 . S
C456 C460 1.328 . S
C456 C462 1.516 . S
C457 C458 1.304 . S
C457 C461 1.323 . S
C458 C457 1.304 . S
C458 C459 1.371 . S
C458 H472 0.930 . S
C459 C456 1.344 . S
C459 C458 1.371 . S
C459 H473 0.931 . S
C460 C456 1.328 . S
C460 C461 1.433 . S
C460 H474 0.931 . S
C461 C457 1.323 . S
C461 C460 1.433 . S
C461 H475 0.933 . S
C462 Dy440 2.738 . S
C462 O445 1.255 . S
C462 O446 1.249 . S
C462 C456 1.516 . S
C463 O447 1.254 . S
C463 O448 1.257 . S
C464 O449 1.266 . S
C464 O450 1.236 . S
C465 C468 1.344 . S
C465 C469 1.328 . S
C465 C471 1.516 1_545 S
C466 C467 1.304 . S
C466 C470 1.323 . S
C467 C466 1.304 . S
C467 C468 1.371 . S
C467 H476 0.930 . S
C468 C465 1.344 . S
C468 C467 1.371 . S
C468 H477 0.931 . S
C469 C465 1.328 . S
C469 C470 1.433 . S
C469 H478 0.931 1_545 S
C470 C466 1.323 . S
C470 C469 1.433 . S
C470 H479 0.933 . S
C471 Dy441 2.738 . S
C471 O451 1.255 1_565 S
C471 O452 1.249 . S
C471 C465 1.516 1_565 S
H472 C458 0.930 . S
H473 C459 0.931 . S
H474 C460 0.931 . S
H475 C461 0.933 . S
H476 C467 0.930 . S
H477 C468 0.931 . S
H478 C469 0.931 1_565 S
H479 C470 0.933 . S
Dy480 O483 2.307 . S
Dy480 O485 2.395 . S
Dy480 O486 2.379 . S
Dy480 O488 2.339 . S
Dy480 O490 2.298 . S
Dy480 O494 2.275 . S
Dy480 C502 2.738 . S
Dy481 O484 2.298 . S
Dy481 O487 2.275 . S
Dy481 O489 2.307 . S
Dy481 O491 2.395 . S
Dy481 O492 2.379 . S
Dy481 O495 2.339 . S
Dy481 C511 2.738 . S
C482 O494 1.254 . S
C482 O495 1.257 . S
O483 Dy480 2.307 . S
O483 C493 1.266 . S
O484 Dy481 2.298 . S
O484 C493 1.236 . S
O485 Dy480 2.395 . S
O485 C502 1.255 . S
O486 Dy480 2.379 . S
O486 C502 1.249 . S
O487 Dy481 2.275 . S
O487 C503 1.254 . S
O488 Dy480 2.339 . S
O488 C503 1.257 . S
O489 Dy481 2.307 . S
O489 C504 1.266 . S
O490 Dy480 2.298 . S
O490 C504 1.236 . S
O491 Dy481 2.395 . S
O491 C511 1.255 . S
O492 Dy481 2.379 . S
O492 C511 1.249 . S
C493 O483 1.266 . S
C493 O484 1.236 . S
O494 Dy480 2.275 . S
O494 C482 1.254 . S
O495 Dy481 2.339 . S
O495 C482 1.257 . S
C496 C499 1.344 . S
C496 C500 1.328 . S
C496 C502 1.516 . S
C497 C498 1.304 . S
C497 C501 1.323 . S
C498 C497 1.304 . S
C498 C499 1.371 . S
C498 H512 0.930 . S
C499 C496 1.344 . S
C499 C498 1.371 . S
C499 H513 0.931 . S
C500 C496 1.328 . S
C500 C501 1.433 . S
C500 H514 0.931 . S
C501 C497 1.323 . S
C501 C500 1.433 . S
C501 H515 0.933 . S
C502 Dy480 2.738 . S
C502 O485 1.255 . S
C502 O486 1.249 . S
C502 C496 1.516 . S
C503 O487 1.254 . S
C503 O488 1.257 . S
C504 O489 1.266 . S
C504 O490 1.236 . S
C505 C508 1.344 . S
C505 C509 1.328 . S
C505 C511 1.516 . S
C506 C507 1.304 . S
C506 C510 1.323 . S
C507 C506 1.304 . S
C507 C508 1.371 . S
C507 H516 0.930 . S
C508 C505 1.344 . S
C508 C507 1.371 . S
C508 H517 0.931 . S
C509 C505 1.328 . S
C509 C510 1.433 . S
C509 H518 0.931 . S
C510 C506 1.323 . S
C510 C509 1.433 . S
C510 H519 0.933 . S
C511 Dy481 2.738 . S
C511 O491 1.255 . S
C511 O492 1.249 . S
C511 C505 1.516 . S
H512 C498 0.930 . S
H513 C499 0.931 . S
H514 C500 0.931 . S
H515 C501 0.933 . S
H516 C507 0.930 . S
H517 C508 0.931 . S
H518 C509 0.931 . S
H519 C510 0.933 . S
Dy520 O523 2.307 . S
Dy520 O525 2.395 1_565 S
Dy520 O526 2.379 . S
Dy520 O528 2.339 . S
Dy520 O530 2.298 . S
Dy520 O534 2.275 . S
Dy520 C542 2.738 . S
Dy521 O524 2.298 . S
Dy521 O527 2.275 . S
Dy521 O529 2.307 . S
Dy521 O531 2.395 . S
Dy521 O532 2.379 . S
Dy521 O535 2.339 . S
Dy521 C551 2.738 . S
C522 O534 1.254 . S
C522 O535 1.257 . S
O523 Dy520 2.307 . S
O523 C533 1.266 . S
O524 Dy521 2.298 . S
O524 C533 1.236 . S
O525 Dy520 2.395 1_545 S
O525 C542 1.255 1_545 S
O526 Dy520 2.379 . S
O526 C542 1.249 . S
O527 Dy521 2.275 . S
O527 C543 1.254 . S
O528 Dy520 2.339 . S
O528 C543 1.257 . S
O529 Dy521 2.307 . S
O529 C544 1.266 . S
O530 Dy520 2.298 . S
O530 C544 1.236 . S
O531 Dy521 2.395 . S
O531 C551 1.255 . S
O532 Dy521 2.379 . S
O532 C551 1.249 . S
C533 O523 1.266 . S
C533 O524 1.236 . S
O534 Dy520 2.275 . S
O534 C522 1.254 . S
O535 Dy521 2.339 . S
O535 C522 1.257 . S
C536 C539 1.344 1_455 S
C536 C540 1.328 . S
C536 C542 1.516 1_445 S
C537 C538 1.304 . S
C537 C541 1.323 . S
C538 C537 1.304 . S
C538 C539 1.371 1_455 S
C538 H552 0.930 . S
C539 C536 1.344 1_655 S
C539 C538 1.371 1_655 S
C539 H553 0.931 . S
C540 C536 1.328 . S
C540 C541 1.433 . S
C540 H554 0.931 1_545 S
C541 C537 1.323 . S
C541 C540 1.433 . S
C541 H555 0.933 . S
C542 Dy520 2.738 . S
C542 O525 1.255 1_565 S
C542 O526 1.249 . S
C542 C536 1.516 1_665 S
C543 O527 1.254 . S
C543 O528 1.257 . S
C544 O529 1.266 . S
C544 O530 1.236 . S
C545 C548 1.344 . S
C545 C549 1.328 . S
C545 C551 1.516 . S
C546 C547 1.304 . S
C546 C550 1.323 . S
C547 C546 1.304 . S
C547 C548 1.371 . S
C547 H556 0.930 . S
C548 C545 1.344 . S
C548 C547 1.371 . S
C548 H557 0.931 . S
C549 C545 1.328 . S
C549 C550 1.433 . S
C549 H558 0.931 . S
C550 C546 1.323 . S
C550 C549 1.433 . S
C550 H559 0.933 . S
C551 Dy521 2.738 . S
C551 O531 1.255 . S
C551 O532 1.249 . S
C551 C545 1.516 . S
H552 C538 0.930 . S
H553 C539 0.931 . S
H554 C540 0.931 1_565 S
H555 C541 0.933 . S
H556 C547 0.930 . S
H557 C548 0.931 . S
H558 C549 0.931 . S
H559 C550 0.933 . S
Dy560 O563 2.307 . S
Dy560 O565 2.395 . S
Dy560 O566 2.379 . S
Dy560 O568 2.339 . S
Dy560 O570 2.298 . S
Dy560 O574 2.275 . S
Dy560 C582 2.738 . S
Dy561 O564 2.298 . S
Dy561 O567 2.275 . S
Dy561 O569 2.307 . S
Dy561 O571 2.395 . S
Dy561 O572 2.379 . S
Dy561 O575 2.339 . S
Dy561 C591 2.738 . S
C562 O574 1.254 . S
C562 O575 1.257 . S
O563 Dy560 2.307 . S
O563 C573 1.266 . S
O564 Dy561 2.298 . S
O564 C573 1.236 . S
O565 Dy560 2.395 . S
O565 C582 1.255 . S
O566 Dy560 2.379 . S
O566 C582 1.249 . S
O567 Dy561 2.275 . S
O567 C583 1.254 . S
O568 Dy560 2.339 . S
O568 C583 1.257 . S
O569 Dy561 2.307 . S
O569 C584 1.266 . S
O570 Dy560 2.298 . S
O570 C584 1.236 . S
O571 Dy561 2.395 . S
O571 C591 1.255 . S
O572 Dy561 2.379 . S
O572 C591 1.249 . S
C573 O563 1.266 . S
C573 O564 1.236 . S
O574 Dy560 2.275 . S
O574 C562 1.254 . S
O575 Dy561 2.339 . S
O575 C562 1.257 . S
C576 C579 1.344 . S
C576 C580 1.328 . S
C576 C582 1.516 . S
C577 C578 1.304 . S
C577 C581 1.323 . S
C578 C577 1.304 . S
C578 C579 1.371 . S
C578 H592 0.930 . S
C579 C576 1.344 . S
C579 C578 1.371 . S
C579 H593 0.931 . S
C580 C576 1.328 . S
C580 C581 1.433 . S
C580 H594 0.931 . S
C581 C577 1.323 . S
C581 C580 1.433 . S
C581 H595 0.933 . S
C582 Dy560 2.738 . S
C582 O565 1.255 . S
C582 O566 1.249 . S
C582 C576 1.516 . S
C583 O567 1.254 . S
C583 O568 1.257 . S
C584 O569 1.266 . S
C584 O570 1.236 . S
C585 C588 1.344 . S
C585 C589 1.328 . S
C585 C591 1.516 . S
C586 C587 1.304 . S
C586 C590 1.323 . S
C587 C586 1.304 . S
C587 C588 1.371 . S
C587 H596 0.930 . S
C588 C585 1.344 . S
C588 C587 1.371 . S
C588 H597 0.931 . S
C589 C585 1.328 . S
C589 C590 1.433 . S
C589 H598 0.931 . S
C590 C586 1.323 . S
C590 C589 1.433 . S
C590 H599 0.933 . S
C591 Dy561 2.738 . S
C591 O571 1.255 . S
C591 O572 1.249 . S
C591 C585 1.516 . S
H592 C578 0.930 . S
H593 C579 0.931 . S
H594 C580 0.931 . S
H595 C581 0.933 . S
H596 C587 0.930 . S
H597 C588 0.931 . S
H598 C589 0.931 . S
H599 C590 0.933 . S
Dy600 O603 2.307 . S
Dy600 O605 2.395 1_545 S
Dy600 O606 2.379 . S
Dy600 O608 2.339 . S
Dy600 O610 2.298 . S
Dy600 O614 2.275 . S
Dy600 C622 2.738 . S
Dy601 O604 2.298 . S
Dy601 O607 2.275 . S
Dy601 O609 2.307 . S
Dy601 O611 2.395 . S
Dy601 O612 2.379 . S
Dy601 O615 2.339 . S
Dy601 C631 2.738 . S
C602 O614 1.254 . S
C602 O615 1.257 . S
O603 Dy600 2.307 . S
O603 C613 1.266 . S
O604 Dy601 2.298 . S
O604 C613 1.236 . S
O605 Dy600 2.395 1_565 S
O605 C622 1.255 1_565 S
O606 Dy600 2.379 . S
O606 C622 1.249 . S
O607 Dy601 2.275 . S
O607 C623 1.254 . S
O608 Dy600 2.339 . S
O608 C623 1.257 . S
O609 Dy601 2.307 . S
O609 C624 1.266 . S
O610 Dy600 2.298 . S
O610 C624 1.236 . S
O611 Dy601 2.395 . S
O611 C631 1.255 . S
O612 Dy601 2.379 . S
O612 C631 1.249 . S
C613 O603 1.266 . S
C613 O604 1.236 . S
O614 Dy600 2.275 . S
O614 C602 1.254 . S
O615 Dy601 2.339 . S
O615 C602 1.257 . S
C616 C619 1.344 . S
C616 C620 1.328 . S
C616 C622 1.516 1_565 S
C617 C618 1.304 . S
C617 C621 1.323 . S
C618 C617 1.304 . S
C618 C619 1.371 . S
C618 H632 0.930 . S
C619 C616 1.344 . S
C619 C618 1.371 . S
C619 H633 0.931 . S
C620 C616 1.328 . S
C620 C621 1.433 . S
C620 H634 0.931 1_565 S
C621 C617 1.323 . S
C621 C620 1.433 . S
C621 H635 0.933 . S
C622 Dy600 2.738 . S
C622 O605 1.255 1_545 S
C622 O606 1.249 . S
C622 C616 1.516 1_545 S
C623 O607 1.254 . S
C623 O608 1.257 . S
C624 O609 1.266 . S
C624 O610 1.236 . S
C625 C628 1.344 . S
C625 C629 1.328 . S
C625 C631 1.516 . S
C626 C627 1.304 . S
C626 C630 1.323 . S
C627 C626 1.304 . S
C627 C628 1.371 . S
C627 H636 0.930 . S
C628 C625 1.344 . S
C628 C627 1.371 . S
C628 H637 0.931 . S
C629 C625 1.328 . S
C629 C630 1.433 . S
C629 H638 0.931 . S
C630 C626 1.323 . S
C630 C629 1.433 . S
C630 H639 0.933 . S
C631 Dy601 2.738 . S
C631 O611 1.255 . S
C631 O612 1.249 . S
C631 C625 1.516 . S
H632 C618 0.930 . S
H633 C619 0.931 . S
H634 C620 0.931 1_545 S
H635 C621 0.933 . S
H636 C627 0.930 . S
H637 C628 0.931 . S
H638 C629 0.931 . S
H639 C630 0.933 . S
H640 C646 0.930 . S
H641 C650 0.930 . S
H642 C655 0.929 . S
H643 C653 0.929 . S
H644 C648 0.929 . S
H645 C654 0.929 . S
C646 H640 0.930 . S
C646 C647 1.367 . S
C646 C654 1.378 . S
C647 C646 1.367 . S
C647 C655 1.433 . S
C648 H644 0.929 . S
C648 C650 1.378 . S
C648 C652 1.350 . S
C649 C652 1.463 . S
C649 C654 1.350 . S
C649 N657 1.427 . S
C650 H641 0.930 . S
C650 C648 1.378 . S
C650 C651 1.367 . S
C651 C650 1.367 . S
C651 C653 1.433 . S
C652 C648 1.350 . S
C652 C649 1.463 . S
C652 N656 1.427 . S
C653 H643 0.929 . S
C653 C651 1.433 . S
C653 N656 1.384 . S
C654 H645 0.929 . S
C654 C646 1.378 . S
C654 C649 1.350 . S
C655 H642 0.929 . S
C655 C647 1.433 . S
C655 N657 1.384 . S
N656 C652 1.427 . S
N656 C653 1.384 . S
N657 C649 1.427 . S
N657 C655 1.384 . S
H658 C664 0.930 . S
H659 C668 0.930 . S
H660 C673 0.929 . S
H661 C671 0.929 . S
H662 C666 0.929 . S
H663 C672 0.929 . S
C664 H658 0.930 . S
C664 C665 1.367 . S
C664 C672 1.378 . S
C665 C664 1.367 . S
C665 C673 1.433 . S
C666 H662 0.929 . S
C666 C668 1.378 . S
C666 C670 1.350 . S
C667 C670 1.463 . S
C667 C672 1.350 . S
C667 N675 1.427 . S
C668 H659 0.930 . S
C668 C666 1.378 . S
C668 C669 1.367 . S
C669 C668 1.367 . S
C669 C671 1.433 . S
C670 C666 1.350 . S
C670 C667 1.463 . S
C670 N674 1.427 . S
C671 H661 0.929 . S
C671 C669 1.433 . S
C671 N674 1.384 . S
C672 H663 0.929 . S
C672 C664 1.378 . S
C672 C667 1.350 . S
C673 H660 0.929 . S
C673 C665 1.433 . S
C673 N675 1.384 . S
N674 C670 1.427 . S
N674 C671 1.384 . S
N675 C667 1.427 . S
N675 C673 1.384 . S
H676 C682 0.930 . S
H677 C686 0.930 . S
H678 C691 0.929 . S
H679 C689 0.929 . S
H680 C684 0.929 . S
H681 C690 0.929 . S
C682 H676 0.930 . S
C682 C683 1.367 . S
C682 C690 1.378 . S
C683 C682 1.367 . S
C683 C691 1.433 . S
C684 H680 0.929 . S
C684 C686 1.378 . S
C684 C688 1.350 . S
C685 C688 1.463 1_455 S
C685 C690 1.350 . S
C685 N693 1.427 . S
C686 H677 0.930 . S
C686 C684 1.378 . S
C686 C687 1.367 . S
C687 C686 1.367 . S
C687 C689 1.433 . S
C688 C684 1.350 . S
C688 C685 1.463 1_655 S
C688 N692 1.427 . S
C689 H679 0.929 . S
C689 C687 1.433 . S
C689 N692 1.384 . S
C690 H681 0.929 . S
C690 C682 1.378 . S
C690 C685 1.350 . S
C691 H678 0.929 . S
C691 C683 1.433 . S
C691 N693 1.384 . S
N692 C688 1.427 . S
N692 C689 1.384 . S
N693 C685 1.427 . S
N693 C691 1.384 . S
H694 C700 0.930 1_655 S
H695 C704 0.930 1_455 S
H696 C709 0.929 . S
H697 C707 0.929 . S
H698 C702 0.929 . S
H699 C708 0.929 . S
C700 H694 0.930 1_455 S
C700 C701 1.367 . S
C700 C708 1.378 1_455 S
C701 C700 1.367 . S
C701 C709 1.433 . S
C702 H698 0.929 . S
C702 C704 1.378 1_455 S
C702 C706 1.350 1_455 S
C703 C706 1.463 1_455 S
C703 C708 1.350 1_455 S
C703 N711 1.427 . S
C704 H695 0.930 1_655 S
C704 C702 1.378 1_655 S
C704 C705 1.367 . S
C705 C704 1.367 . S
C705 C707 1.433 . S
C706 C702 1.350 1_655 S
C706 C703 1.463 1_655 S
C706 N710 1.427 . S
C707 H697 0.929 . S
C707 C705 1.433 . S
C707 N710 1.384 . S
C708 H699 0.929 . S
C708 C700 1.378 1_655 S
C708 C703 1.350 1_655 S
C709 H696 0.929 . S
C709 C701 1.433 . S
C709 N711 1.384 . S
N710 C706 1.427 . S
N710 C707 1.384 . S
N711 C703 1.427 . S
N711 C709 1.384 . S
H712 C718 0.930 . S
H713 C722 0.930 . S
H714 C727 0.929 . S
H715 C725 0.929 . S
H716 C720 0.929 . S
H717 C726 0.929 . S
C718 H712 0.930 . S
C718 C719 1.367 . S
C718 C726 1.378 . S
C719 C718 1.367 . S
C719 C727 1.433 . S
C720 H716 0.929 . S
C720 C722 1.378 . S
C720 C724 1.350 . S
C721 C724 1.463 . S
C721 C726 1.350 . S
C721 N729 1.427 . S
C722 H713 0.930 . S
C722 C720 1.378 . S
C722 C723 1.367 . S
C723 C722 1.367 . S
C723 C725 1.433 . S
C724 C720 1.350 . S
C724 C721 1.463 . S
C724 N728 1.427 . S
C725 H715 0.929 . S
C725 C723 1.433 . S
C725 N728 1.384 . S
C726 H717 0.929 . S
C726 C718 1.378 . S
C726 C721 1.350 . S
C727 H714 0.929 . S
C727 C719 1.433 . S
C727 N729 1.384 . S
N728 C724 1.427 . S
N728 C725 1.384 . S
N729 C721 1.427 . S
N729 C727 1.384 . S
H730 C736 0.930 . S
H731 C740 0.930 . S
H732 C745 0.929 . S
H733 C743 0.929 . S
H734 C738 0.929 . S
H735 C744 0.929 . S
C736 H730 0.930 . S
C736 C737 1.367 . S
C736 C744 1.378 . S
C737 C736 1.367 . S
C737 C745 1.433 . S
C738 H734 0.929 . S
C738 C740 1.378 . S
C738 C742 1.350 . S
C739 C742 1.463 . S
C739 C744 1.350 . S
C739 N747 1.427 . S
C740 H731 0.930 . S
C740 C738 1.378 . S
C740 C741 1.367 . S
C741 C740 1.367 . S
C741 C743 1.433 . S
C742 C738 1.350 . S
C742 C739 1.463 . S
C742 N746 1.427 . S
C743 H733 0.929 . S
C743 C741 1.433 . S
C743 N746 1.384 . S
C744 H735 0.929 . S
C744 C736 1.378 . S
C744 C739 1.350 . S
C745 H732 0.929 . S
C745 C737 1.433 . S
C745 N747 1.384 . S
N746 C742 1.427 . S
N746 C743 1.384 . S
N747 C739 1.427 . S
N747 C745 1.384 . S
H748 C754 0.930 . S
H749 C758 0.930 . S
H750 C763 0.929 . S
H751 C761 0.929 . S
H752 C756 0.929 . S
H753 C762 0.929 . S
C754 H748 0.930 . S
C754 C755 1.367 . S
C754 C762 1.378 . S
C755 C754 1.367 . S
C755 C763 1.433 . S
C756 H752 0.929 . S
C756 C758 1.378 . S
C756 C760 1.350 . S
C757 C760 1.463 1_455 S
C757 C762 1.350 . S
C757 N765 1.427 . S
C758 H749 0.930 . S
C758 C756 1.378 . S
C758 C759 1.367 . S
C759 C758 1.367 . S
C759 C761 1.433 . S
C760 C756 1.350 . S
C760 C757 1.463 1_655 S
C760 N764 1.427 . S
C761 H751 0.929 . S
C761 C759 1.433 . S
C761 N764 1.384 . S
C762 H753 0.929 . S
C762 C754 1.378 . S
C762 C757 1.350 . S
C763 H750 0.929 . S
C763 C755 1.433 . S
C763 N765 1.384 . S
N764 C760 1.427 . S
N764 C761 1.384 . S
N765 C757 1.427 . S
N765 C763 1.384 . S
H766 C772 0.930 . S
H767 C776 0.930 . S
H768 C781 0.929 . S
H769 C779 0.929 . S
H770 C774 0.929 . S
H771 C780 0.929 . S
C772 H766 0.930 . S
C772 C773 1.367 . S
C772 C780 1.378 . S
C773 C772 1.367 . S
C773 C781 1.433 . S
C774 H770 0.929 . S
C774 C776 1.378 . S
C774 C778 1.350 . S
C775 C778 1.463 1_455 S
C775 C780 1.350 . S
C775 N783 1.427 . S
C776 H767 0.930 . S
C776 C774 1.378 . S
C776 C777 1.367 . S
C777 C776 1.367 . S
C777 C779 1.433 . S
C778 C774 1.350 . S
C778 C775 1.463 1_655 S
C778 N782 1.427 . S
C779 H769 0.929 . S
C779 C777 1.433 . S
C779 N782 1.384 . S
C780 H771 0.929 . S
C780 C772 1.378 . S
C780 C775 1.350 . S
C781 H768 0.929 . S
C781 C773 1.433 . S
C781 N783 1.384 . S
N782 C778 1.427 . S
N782 C779 1.384 . S
N783 C775 1.427 . S
N783 C781 1.384 . S
H784 C790 0.930 . S
H785 C794 0.930 . S
H786 C799 0.929 . S
H787 C797 0.929 . S
H788 C792 0.937 . S
H789 C798 0.937 . S
C790 H784 0.930 . S
C790 C791 1.367 . S
C790 C798 1.378 . S
C791 C790 1.367 . S
C791 C799 1.433 1_565 S
C792 H788 0.937 . S
C792 C794 1.378 . S
C792 C796 1.350 . S
C793 C796 1.463 1_564 S
C793 C798 1.350 . S
C793 N801 1.427 1_565 S
C794 H785 0.930 . S
C794 C792 1.378 . S
C794 C795 1.367 . S
C795 C794 1.367 . S
C795 C797 1.433 1_545 S
C796 C792 1.350 . S
C796 C793 1.463 1_546 S
C796 N800 1.427 1_545 S
C797 H787 0.929 . S
C797 C795 1.433 1_565 S
C797 N800 1.384 . S
C798 H789 0.937 . S
C798 C790 1.378 . S
C798 C793 1.350 . S
C799 H786 0.929 . S
C799 C791 1.433 1_545 S
C799 N801 1.384 . S
N800 C796 1.427 1_565 S
N800 C797 1.384 . S
N801 C793 1.427 1_545 S
N801 C799 1.384 . S
H802 C808 0.930 . S
H803 C812 0.930 . S
H804 C817 0.929 . S
H805 C815 0.929 . S
H806 C810 0.929 . S
H807 C816 0.929 . S
C808 H802 0.930 . S
C808 C809 1.367 . S
C808 C816 1.378 . S
C809 C808 1.367 . S
C809 C817 1.433 . S
C810 H806 0.929 . S
C810 C812 1.378 . S
C810 C814 1.350 . S
C811 C814 1.463 . S
C811 C816 1.350 . S
C811 N819 1.427 . S
C812 H803 0.930 . S
C812 C810 1.378 . S
C812 C813 1.367 . S
C813 C812 1.367 . S
C813 C815 1.433 . S
C814 C810 1.350 . S
C814 C811 1.463 . S
C814 N818 1.427 . S
C815 H805 0.929 . S
C815 C813 1.433 . S
C815 N818 1.384 . S
C816 H807 0.929 . S
C816 C808 1.378 . S
C816 C811 1.350 . S
C817 H804 0.929 . S
C817 C809 1.433 . S
C817 N819 1.384 . S
N818 C814 1.427 . S
N818 C815 1.384 . S
N819 C811 1.427 . S
N819 C817 1.384 . S
H820 C826 0.930 . S
H821 C830 0.930 . S
H822 C835 0.929 . S
H823 C833 0.929 . S
H824 C828 0.929 . S
H825 C834 0.929 . S
C826 H820 0.930 . S
C826 C827 1.367 . S
C826 C834 1.378 . S
C827 C826 1.367 . S
C827 C835 1.433 1_545 S
C828 H824 0.929 . S
C828 C830 1.378 . S
C828 C832 1.350 . S
C829 C832 1.463 1_445 S
C829 C834 1.350 . S
C829 N837 1.427 1_545 S
C830 H821 0.930 . S
C830 C828 1.378 . S
C830 C831 1.367 . S
C831 C830 1.367 . S
C831 C833 1.433 1_565 S
C832 C828 1.350 . S
C832 C829 1.463 1_665 S
C832 N836 1.427 1_565 S
C833 H823 0.929 . S
C833 C831 1.433 1_545 S
C833 N836 1.384 . S
C834 H825 0.929 . S
C834 C826 1.378 . S
C834 C829 1.350 . S
C835 H822 0.929 . S
C835 C827 1.433 1_565 S
C835 N837 1.384 . S
N836 C832 1.427 1_545 S
N836 C833 1.384 . S
N837 C829 1.427 1_565 S
N837 C835 1.384 . S
H838 C844 0.930 . S
H839 C848 0.930 . S
H840 C853 0.929 . S
H841 C851 0.929 . S
H842 C846 0.929 . S
H843 C852 0.929 . S
C844 H838 0.930 . S
C844 C845 1.367 . S
C844 C852 1.378 . S
C845 C844 1.367 . S
C845 C853 1.433 . S
C846 H842 0.929 . S
C846 C848 1.378 . S
C846 C850 1.350 . S
C847 C850 1.463 . S
C847 C852 1.350 . S
C847 N855 1.427 . S
C848 H839 0.930 . S
C848 C846 1.378 . S
C848 C849 1.367 . S
C849 C848 1.367 . S
C849 C851 1.433 . S
C850 C846 1.350 . S
C850 C847 1.463 . S
C850 N854 1.427 . S
C851 H841 0.929 . S
C851 C849 1.433 . S
C851 N854 1.384 . S
C852 H843 0.929 . S
C852 C844 1.378 . S
C852 C847 1.350 . S
C853 H840 0.929 . S
C853 C845 1.433 . S
C853 N855 1.384 . S
N854 C850 1.427 . S
N854 C851 1.384 . S
N855 C847 1.427 . S
N855 C853 1.384 . S
H856 C862 0.930 . S
H857 C866 0.930 . S
H858 C871 0.929 . S
H859 C869 0.929 . S
H860 C864 0.929 . S
H861 C870 0.929 . S
C862 H856 0.930 . S
C862 C863 1.367 . S
C862 C870 1.378 . S
C863 C862 1.367 . S
C863 C871 1.433 . S
C864 H860 0.929 . S
C864 C866 1.378 . S
C864 C868 1.350 . S
C865 C868 1.463 . S
C865 C870 1.350 . S
C865 N873 1.427 . S
C866 H857 0.930 . S
C866 C864 1.378 . S
C866 C867 1.367 . S
C867 C866 1.367 . S
C867 C869 1.433 . S
C868 C864 1.350 . S
C868 C865 1.463 . S
C868 N872 1.427 . S
C869 H859 0.929 . S
C869 C867 1.433 . S
C869 N872 1.384 . S
C870 H861 0.929 . S
C870 C862 1.378 . S
C870 C865 1.350 . S
C871 H858 0.929 . S
C871 C863 1.433 . S
C871 N873 1.384 . S
N872 C868 1.427 . S
N872 C869 1.384 . S
N873 C865 1.427 . S
N873 C871 1.384 . S
H874 C880 0.930 . S
H875 C884 0.930 . S
H876 C889 0.929 . S
H877 C887 0.929 . S
H878 C882 0.929 . S
H879 C888 0.929 . S
C880 H874 0.930 . S
C880 C881 1.367 . S
C880 C888 1.378 . S
C881 C880 1.367 . S
C881 C889 1.433 . S
C882 H878 0.929 . S
C882 C884 1.378 . S
C882 C886 1.350 . S
C883 C886 1.463 . S
C883 C888 1.350 . S
C883 N891 1.427 . S
C884 H875 0.930 . S
C884 C882 1.378 . S
C884 C885 1.367 . S
C885 C884 1.367 . S
C885 C887 1.433 . S
C886 C882 1.350 . S
C886 C883 1.463 . S
C886 N890 1.427 . S
C887 H877 0.929 . S
C887 C885 1.433 . S
C887 N890 1.384 . S
C888 H879 0.929 . S
C888 C880 1.378 . S
C888 C883 1.350 . S
C889 H876 0.929 . S
C889 C881 1.433 . S
C889 N891 1.384 . S
N890 C886 1.427 . S
N890 C887 1.384 . S
N891 C883 1.427 . S
N891 C889 1.384 . S
H892 C898 0.930 . S
H893 C902 0.930 . S
H894 C907 0.929 . S
H895 C905 0.929 . S
H896 C900 0.929 . S
H897 C906 0.929 . S
C898 H892 0.930 . S
C898 C899 1.367 . S
C898 C906 1.378 . S
C899 C898 1.367 . S
C899 C907 1.433 . S
C900 H896 0.929 . S
C900 C902 1.378 . S
C900 C904 1.350 . S
C901 C904 1.463 1_455 S
C901 C906 1.350 . S
C901 N909 1.427 . S
C902 H893 0.930 . S
C902 C900 1.378 . S
C902 C903 1.367 . S
C903 C902 1.367 . S
C903 C905 1.433 . S
C904 C900 1.350 . S
C904 C901 1.463 1_655 S
C904 N908 1.427 . S
C905 H895 0.929 . S
C905 C903 1.433 . S
C905 N908 1.384 . S
C906 H897 0.929 . S
C906 C898 1.378 . S
C906 C901 1.350 . S
C907 H894 0.929 . S
C907 C899 1.433 . S
C907 N909 1.384 . S
N908 C904 1.427 . S
N908 C905 1.384 . S
N909 C901 1.427 . S
N909 C907 1.384 . S
H910 C916 0.935 . S
H911 C920 0.935 . S
H912 C925 0.929 . S
H913 C923 0.929 . S
H914 C918 0.929 . S
H915 C924 0.929 . S
C916 H910 0.935 . S
C916 C917 1.360 1_556 S
C916 C924 1.381 . S
C917 C916 1.360 1_554 S
C917 C925 1.433 . S
C918 H914 0.929 . S
C918 C920 1.381 . S
C918 C922 1.350 1_554 S
C919 C922 1.463 1_554 S
C919 C924 1.350 1_554 S
C919 N927 1.427 . S
C920 H911 0.935 . S
C920 C918 1.381 . S
C920 C921 1.360 1_554 S
C921 C920 1.360 1_556 S
C921 C923 1.433 . S
C922 C918 1.350 1_556 S
C922 C919 1.463 1_556 S
C922 N926 1.427 . S
C923 H913 0.929 . S
C923 C921 1.433 . S
C923 N926 1.384 . S
C924 H915 0.929 . S
C924 C916 1.381 . S
C924 C919 1.350 1_556 S
C925 H912 0.929 . S
C925 C917 1.433 . S
C925 N927 1.384 . S
N926 C922 1.427 . S
N926 C923 1.384 . S
N927 C919 1.427 . S
N927 C925 1.384 . S
H928 C934 0.930 . S
H929 C938 0.930 . S
H930 C943 0.929 . S
H931 C941 0.929 . S
H932 C936 0.929 . S
H933 C942 0.929 . S
C934 H928 0.930 . S
C934 C935 1.367 . S
C934 C942 1.378 . S
C935 C934 1.367 . S
C935 C943 1.433 . S
C936 H932 0.929 . S
C936 C938 1.378 . S
C936 C940 1.350 . S
C937 C940 1.463 . S
C937 C942 1.350 . S
C937 N945 1.427 . S
C938 H929 0.930 . S
C938 C936 1.378 . S
C938 C939 1.367 . S
C939 C938 1.367 . S
C939 C941 1.433 . S
C940 C936 1.350 . S
C940 C937 1.463 . S
C940 N944 1.427 . S
C941 H931 0.929 . S
C941 C939 1.433 . S
C941 N944 1.384 . S
C942 H933 0.929 . S
C942 C934 1.378 . S
C942 C937 1.350 . S
C943 H930 0.929 . S
C943 C935 1.433 . S
C943 N945 1.384 . S
N944 C940 1.427 . S
N944 C941 1.384 . S
N945 C937 1.427 . S
N945 C943 1.384 . S
H946 C952 0.930 . S
H947 C956 0.930 . S
H948 C961 0.929 . S
H949 C959 0.929 . S
H950 C954 0.929 . S
H951 C960 0.929 . S
C952 H946 0.930 . S
C952 C953 1.367 . S
C952 C960 1.378 . S
C953 C952 1.367 . S
C953 C961 1.433 . S
C954 H950 0.929 . S
C954 C956 1.378 . S
C954 C958 1.350 . S
C955 C958 1.463 . S
C955 C960 1.350 . S
C955 N963 1.427 . S
C956 H947 0.930 . S
C956 C954 1.378 . S
C956 C957 1.367 . S
C957 C956 1.367 . S
C957 C959 1.433 . S
C958 C954 1.350 . S
C958 C955 1.463 . S
C958 N962 1.427 . S
C959 H949 0.929 . S
C959 C957 1.433 . S
C959 N962 1.384 . S
C960 H951 0.929 . S
C960 C952 1.378 . S
C960 C955 1.350 . S
C961 H948 0.929 . S
C961 C953 1.433 . S
C961 N963 1.384 . S
N962 C958 1.427 . S
N962 C959 1.384 . S
N963 C955 1.427 . S
N963 C961 1.384 . S
H964 C970 0.930 . S
H965 C974 0.930 . S
H966 C979 0.929 . S
H967 C977 0.929 . S
H968 C972 0.929 . S
H969 C978 0.929 . S
C970 H964 0.930 . S
C970 C971 1.367 . S
C970 C978 1.378 . S
C971 C970 1.367 . S
C971 C979 1.433 . S
C972 H968 0.929 . S
C972 C974 1.378 . S
C972 C976 1.350 . S
C973 C976 1.463 . S
C973 C978 1.350 . S
C973 N981 1.427 . S
C974 H965 0.930 . S
C974 C972 1.378 . S
C974 C975 1.367 . S
C975 C974 1.367 . S
C975 C977 1.433 . S
C976 C972 1.350 . S
C976 C973 1.463 . S
C976 N980 1.427 . S
C977 H967 0.929 . S
C977 C975 1.433 . S
C977 N980 1.384 . S
C978 H969 0.929 . S
C978 C970 1.378 . S
C978 C973 1.350 . S
C979 H966 0.929 . S
C979 C971 1.433 . S
C979 N981 1.384 . S
N980 C976 1.427 . S
N980 C977 1.384 . S
N981 C973 1.427 . S
N981 C979 1.384 . S
H982 C988 0.930 . S
H983 C992 0.930 . S
H984 C997 0.929 . S
H985 C995 0.929 . S
H986 C990 0.929 . S
H987 C996 0.929 . S
C988 H982 0.930 . S
C988 C989 1.367 . S
C988 C996 1.378 . S
C989 C988 1.367 . S
C989 C997 1.433 . S
C990 H986 0.929 . S
C990 C992 1.378 . S
C990 C994 1.350 . S
C991 C994 1.463 . S
C991 C996 1.350 . S
C991 N999 1.427 . S
C992 H983 0.930 . S
C992 C990 1.378 . S
C992 C993 1.367 . S
C993 C992 1.367 . S
C993 C995 1.433 . S
C994 C990 1.350 . S
C994 C991 1.463 . S
C994 N998 1.427 . S
C995 H985 0.929 . S
C995 C993 1.433 . S
C995 N998 1.384 . S
C996 H987 0.929 . S
C996 C988 1.378 . S
C996 C991 1.350 . S
C997 H984 0.929 . S
C997 C989 1.433 . S
C997 N999 1.384 . S
N998 C994 1.427 . S
N998 C995 1.384 . S
N999 C991 1.427 . S
N999 C997 1.384 . S
H1000 C1006 0.930 . S
H1001 C1010 0.930 . S
H1002 C1015 0.929 . S
H1003 C1013 0.929 . S
H1004 C1008 0.929 . S
H1005 C1014 0.929 . S
C1006 H1000 0.930 . S
C1006 C1007 1.367 . S
C1006 C1014 1.378 . S
C1007 C1006 1.367 . S
C1007 C1015 1.433 . S
C1008 H1004 0.929 . S
C1008 C1010 1.378 . S
C1008 C1012 1.350 . S
C1009 C1012 1.463 . S
C1009 C1014 1.350 . S
C1009 N1017 1.427 . S
C1010 H1001 0.930 . S
C1010 C1008 1.378 . S
C1010 C1011 1.367 . S
C1011 C1010 1.367 . S
C1011 C1013 1.433 . S
C1012 C1008 1.350 . S
C1012 C1009 1.463 . S
C1012 N1016 1.427 . S
C1013 H1003 0.929 . S
C1013 C1011 1.433 . S
C1013 N1016 1.384 . S
C1014 H1005 0.929 . S
C1014 C1006 1.378 . S
C1014 C1009 1.350 . S
C1015 H1002 0.929 . S
C1015 C1007 1.433 . S
C1015 N1017 1.384 . S
N1016 C1012 1.427 . S
N1016 C1013 1.384 . S
N1017 C1009 1.427 . S
N1017 C1015 1.384 . S
H1018 C1024 0.930 . S
H1019 C1028 0.930 . S
H1020 C1033 0.929 . S
H1021 C1031 0.929 . S
H1022 C1026 0.929 . S
H1023 C1032 0.929 . S
C1024 H1018 0.930 . S
C1024 C1025 1.367 . S
C1024 C1032 1.378 . S
C1025 C1024 1.367 . S
C1025 C1033 1.433 . S
C1026 H1022 0.929 . S
C1026 C1028 1.378 . S
C1026 C1030 1.350 . S
C1027 C1030 1.463 . S
C1027 C1032 1.350 . S
C1027 N1035 1.427 . S
C1028 H1019 0.930 . S
C1028 C1026 1.378 . S
C1028 C1029 1.367 . S
C1029 C1028 1.367 . S
C1029 C1031 1.433 . S
C1030 C1026 1.350 . S
C1030 C1027 1.463 . S
C1030 N1034 1.427 . S
C1031 H1021 0.929 . S
C1031 C1029 1.433 . S
C1031 N1034 1.384 . S
C1032 H1023 0.929 . S
C1032 C1024 1.378 . S
C1032 C1027 1.350 . S
C1033 H1020 0.929 . S
C1033 C1025 1.433 . S
C1033 N1035 1.384 . S
N1034 C1030 1.427 . S
N1034 C1031 1.384 . S
N1035 C1027 1.427 . S
N1035 C1033 1.384 . S
H1036 C1042 0.930 . S
H1037 C1046 0.930 . S
H1038 C1051 0.929 . S
H1039 C1049 0.929 . S
H1040 C1044 0.929 . S
H1041 C1050 0.929 . S
C1042 H1036 0.930 . S
C1042 C1043 1.367 . S
C1042 C1050 1.378 . S
C1043 C1042 1.367 . S
C1043 C1051 1.433 . S
C1044 H1040 0.929 . S
C1044 C1046 1.378 . S
C1044 C1048 1.350 . S
C1045 C1048 1.463 . S
C1045 C1050 1.350 . S
C1045 N1053 1.427 . S
C1046 H1037 0.930 . S
C1046 C1044 1.378 . S
C1046 C1047 1.367 . S
C1047 C1046 1.367 . S
C1047 C1049 1.433 . S
C1048 C1044 1.350 . S
C1048 C1045 1.463 . S
C1048 N1052 1.427 . S
C1049 H1039 0.929 . S
C1049 C1047 1.433 . S
C1049 N1052 1.384 . S
C1050 H1041 0.929 . S
C1050 C1042 1.378 . S
C1050 C1045 1.350 . S
C1051 H1038 0.929 . S
C1051 C1043 1.433 . S
C1051 N1053 1.384 . S
N1052 C1048 1.427 . S
N1052 C1049 1.384 . S
N1053 C1045 1.427 . S
N1053 C1051 1.384 . S
H1054 C1060 0.930 . S
H1055 C1064 0.930 . S
H1056 C1069 0.929 . S
H1057 C1067 0.929 . S
H1058 C1062 0.929 . S
H1059 C1068 0.929 . S
C1060 H1054 0.930 . S
C1060 C1061 1.367 . S
C1060 C1068 1.378 . S
C1061 C1060 1.367 . S
C1061 C1069 1.433 . S
C1062 H1058 0.929 . S
C1062 C1064 1.378 . S
C1062 C1066 1.350 . S
C1063 C1066 1.463 . S
C1063 C1068 1.350 . S
C1063 N1071 1.427 . S
C1064 H1055 0.930 . S
C1064 C1062 1.378 . S
C1064 C1065 1.367 . S
C1065 C1064 1.367 . S
C1065 C1067 1.433 . S
C1066 C1062 1.350 . S
C1066 C1063 1.463 . S
C1066 N1070 1.427 . S
C1067 H1057 0.929 . S
C1067 C1065 1.433 . S
C1067 N1070 1.384 . S
C1068 H1059 0.929 . S
C1068 C1060 1.378 . S
C1068 C1063 1.350 . S
C1069 H1056 0.929 . S
C1069 C1061 1.433 . S
C1069 N1071 1.384 . S
N1070 C1066 1.427 . S
N1070 C1067 1.384 . S
N1071 C1063 1.427 . S
N1071 C1069 1.384 . S
H1072 C1078 0.930 . S
H1073 C1082 0.930 . S
H1074 C1087 0.929 . S
H1075 C1085 0.929 . S
H1076 C1080 0.929 . S
H1077 C1086 0.929 . S
C1078 H1072 0.930 . S
C1078 C1079 1.367 . S
C1078 C1086 1.378 . S
C1079 C1078 1.367 . S
C1079 C1087 1.433 . S
C1080 H1076 0.929 . S
C1080 C1082 1.378 . S
C1080 C1084 1.350 . S
C1081 C1084 1.463 . S
C1081 C1086 1.350 . S
C1081 N1089 1.427 . S
C1082 H1073 0.930 . S
C1082 C1080 1.378 . S
C1082 C1083 1.367 . S
C1083 C1082 1.367 . S
C1083 C1085 1.433 . S
C1084 C1080 1.350 . S
C1084 C1081 1.463 . S
C1084 N1088 1.427 . S
C1085 H1075 0.929 . S
C1085 C1083 1.433 . S
C1085 N1088 1.384 . S
C1086 H1077 0.929 . S
C1086 C1078 1.378 . S
C1086 C1081 1.350 . S
C1087 H1074 0.929 . S
C1087 C1079 1.433 . S
C1087 N1089 1.384 . S
N1088 C1084 1.427 . S
N1088 C1085 1.384 . S
N1089 C1081 1.427 . S
N1089 C1087 1.384 . S
H1090 C1096 0.930 . S
H1091 C1100 0.930 . S
H1092 C1105 0.929 . S
H1093 C1103 0.929 . S
H1094 C1098 0.929 . S
H1095 C1104 0.929 . S
C1096 H1090 0.930 . S
C1096 C1097 1.367 . S
C1096 C1104 1.378 . S
C1097 C1096 1.367 . S
C1097 C1105 1.433 . S
C1098 H1094 0.929 . S
C1098 C1100 1.378 . S
C1098 C1102 1.350 . S
C1099 C1102 1.463 . S
C1099 C1104 1.350 . S
C1099 N1107 1.427 . S
C1100 H1091 0.930 . S
C1100 C1098 1.378 . S
C1100 C1101 1.367 . S
C1101 C1100 1.367 . S
C1101 C1103 1.433 . S
C1102 C1098 1.350 . S
C1102 C1099 1.463 . S
C1102 N1106 1.427 . S
C1103 H1093 0.929 . S
C1103 C1101 1.433 . S
C1103 N1106 1.384 . S
C1104 H1095 0.929 . S
C1104 C1096 1.378 . S
C1104 C1099 1.350 . S
C1105 H1092 0.929 . S
C1105 C1097 1.433 . S
C1105 N1107 1.384 . S
N1106 C1102 1.427 . S
N1106 C1103 1.384 . S
N1107 C1099 1.427 . S
N1107 C1105 1.384 . S
H1108 C1114 0.930 . S
H1109 C1118 0.930 . S
H1110 C1123 0.929 . S
H1111 C1121 0.929 . S
H1112 C1116 0.929 . S
H1113 C1122 0.929 . S
C1114 H1108 0.930 . S
C1114 C1115 1.367 . S
C1114 C1122 1.378 . S
C1115 C1114 1.367 . S
C1115 C1123 1.433 . S
C1116 H1112 0.929 . S
C1116 C1118 1.378 . S
C1116 C1120 1.350 . S
C1117 C1120 1.463 . S
C1117 C1122 1.350 . S
C1117 N1125 1.427 . S
C1118 H1109 0.930 . S
C1118 C1116 1.378 . S
C1118 C1119 1.367 . S
C1119 C1118 1.367 . S
C1119 C1121 1.433 . S
C1120 C1116 1.350 . S
C1120 C1117 1.463 . S
C1120 N1124 1.427 . S
C1121 H1111 0.929 . S
C1121 C1119 1.433 . S
C1121 N1124 1.384 . S
C1122 H1113 0.929 . S
C1122 C1114 1.378 . S
C1122 C1117 1.350 . S
C1123 H1110 0.929 . S
C1123 C1115 1.433 . S
C1123 N1125 1.384 . S
N1124 C1120 1.427 . S
N1124 C1121 1.384 . S
N1125 C1117 1.427 . S
N1125 C1123 1.384 . S
H1126 C1132 0.930 . S
H1127 C1136 0.930 . S
H1128 C1141 0.929 . S
H1129 C1139 0.929 . S
H1130 C1134 0.929 . S
H1131 C1140 0.929 . S
C1132 H1126 0.930 . S
C1132 C1133 1.367 . S
C1132 C1140 1.378 . S
C1133 C1132 1.367 . S
C1133 C1141 1.433 . S
C1134 H1130 0.929 . S
C1134 C1136 1.378 . S
C1134 C1138 1.350 . S
C1135 C1138 1.463 . S
C1135 C1140 1.350 . S
C1135 N1143 1.427 . S
C1136 H1127 0.930 . S
C1136 C1134 1.378 . S
C1136 C1137 1.367 . S
C1137 C1136 1.367 . S
C1137 C1139 1.433 . S
C1138 C1134 1.350 . S
C1138 C1135 1.463 . S
C1138 N1142 1.427 . S
C1139 H1129 0.929 . S
C1139 C1137 1.433 . S
C1139 N1142 1.384 . S
C1140 H1131 0.929 . S
C1140 C1132 1.378 . S
C1140 C1135 1.350 . S
C1141 H1128 0.929 . S
C1141 C1133 1.433 . S
C1141 N1143 1.384 . S
N1142 C1138 1.427 . S
N1142 C1139 1.384 . S
N1143 C1135 1.427 . S
N1143 C1141 1.384 . S
H1144 C1150 0.930 . S
H1145 C1154 0.930 . S
H1146 C1159 0.929 . S
H1147 C1157 0.929 . S
H1148 C1152 0.929 . S
H1149 C1158 0.929 . S
C1150 H1144 0.930 . S
C1150 C1151 1.367 . S
C1150 C1158 1.378 . S
C1151 C1150 1.367 . S
C1151 C1159 1.433 . S
C1152 H1148 0.929 . S
C1152 C1154 1.378 . S
C1152 C1156 1.350 . S
C1153 C1156 1.463 . S
C1153 C1158 1.350 . S
C1153 N1161 1.427 . S
C1154 H1145 0.930 . S
C1154 C1152 1.378 . S
C1154 C1155 1.367 . S
C1155 C1154 1.367 . S
C1155 C1157 1.433 . S
C1156 C1152 1.350 . S
C1156 C1153 1.463 . S
C1156 N1160 1.427 . S
C1157 H1147 0.929 . S
C1157 C1155 1.433 . S
C1157 N1160 1.384 . S
C1158 H1149 0.929 . S
C1158 C1150 1.378 . S
C1158 C1153 1.350 . S
C1159 H1146 0.929 . S
C1159 C1151 1.433 . S
C1159 N1161 1.384 . S
N1160 C1156 1.427 . S
N1160 C1157 1.384 . S
N1161 C1153 1.427 . S
N1161 C1159 1.384 . S
H1162 C1168 0.930 . S
H1163 C1172 0.930 . S
H1164 C1177 0.929 . S
H1165 C1175 0.929 . S
H1166 C1170 0.929 . S
H1167 C1176 0.929 . S
C1168 H1162 0.930 . S
C1168 C1169 1.367 . S
C1168 C1176 1.378 . S
C1169 C1168 1.367 . S
C1169 C1177 1.433 . S
C1170 H1166 0.929 . S
C1170 C1172 1.378 . S
C1170 C1174 1.350 . S
C1171 C1174 1.463 . S
C1171 C1176 1.350 . S
C1171 N1179 1.427 . S
C1172 H1163 0.930 . S
C1172 C1170 1.378 . S
C1172 C1173 1.367 . S
C1173 C1172 1.367 . S
C1173 C1175 1.433 . S
C1174 C1170 1.350 . S
C1174 C1171 1.463 . S
C1174 N1178 1.427 . S
C1175 H1165 0.929 . S
C1175 C1173 1.433 . S
C1175 N1178 1.384 . S
C1176 H1167 0.929 . S
C1176 C1168 1.378 . S
C1176 C1171 1.350 . S
C1177 H1164 0.929 . S
C1177 C1169 1.433 . S
C1177 N1179 1.384 . S
N1178 C1174 1.427 . S
N1178 C1175 1.384 . S
N1179 C1171 1.427 . S
N1179 C1177 1.384 . S
H1180 C1186 0.930 . S
H1181 C1190 0.930 . S
H1182 C1195 0.929 . S
H1183 C1193 0.929 . S
H1184 C1188 0.929 . S
H1185 C1194 0.929 . S
C1186 H1180 0.930 . S
C1186 C1187 1.367 . S
C1186 C1194 1.378 . S
C1187 C1186 1.367 . S
C1187 C1195 1.433 . S
C1188 H1184 0.929 . S
C1188 C1190 1.378 . S
C1188 C1192 1.350 . S
C1189 C1192 1.463 . S
C1189 C1194 1.350 . S
C1189 N1197 1.427 . S
C1190 H1181 0.930 . S
C1190 C1188 1.378 . S
C1190 C1191 1.367 . S
C1191 C1190 1.367 . S
C1191 C1193 1.433 . S
C1192 C1188 1.350 . S
C1192 C1189 1.463 . S
C1192 N1196 1.427 . S
C1193 H1183 0.929 . S
C1193 C1191 1.433 . S
C1193 N1196 1.384 . S
C1194 H1185 0.929 . S
C1194 C1186 1.378 . S
C1194 C1189 1.350 . S
C1195 H1182 0.929 . S
C1195 C1187 1.433 . S
C1195 N1197 1.384 . S
N1196 C1192 1.427 . S
N1196 C1193 1.384 . S
N1197 C1189 1.427 . S
N1197 C1195 1.384 . S
H1198 C1204 0.930 . S
H1199 C1208 0.930 . S
H1200 C1213 0.929 . S
H1201 C1211 0.929 . S
H1202 C1206 0.929 . S
H1203 C1212 0.929 . S
C1204 H1198 0.930 . S
C1204 C1205 1.367 . S
C1204 C1212 1.378 . S
C1205 C1204 1.367 . S
C1205 C1213 1.433 . S
C1206 H1202 0.929 . S
C1206 C1208 1.378 . S
C1206 C1210 1.350 . S
C1207 C1210 1.463 . S
C1207 C1212 1.350 . S
C1207 N1215 1.427 . S
C1208 H1199 0.930 . S
C1208 C1206 1.378 . S
C1208 C1209 1.367 . S
C1209 C1208 1.367 . S
C1209 C1211 1.433 . S
C1210 C1206 1.350 . S
C1210 C1207 1.463 . S
C1210 N1214 1.427 . S
C1211 H1201 0.929 . S
C1211 C1209 1.433 . S
C1211 N1214 1.384 . S
C1212 H1203 0.929 . S
C1212 C1204 1.378 . S
C1212 C1207 1.350 . S
C1213 H1200 0.929 . S
C1213 C1205 1.433 . S
C1213 N1215 1.384 . S
N1214 C1210 1.427 . S
N1214 C1211 1.384 . S
N1215 C1207 1.427 . S
N1215 C1213 1.384 . S
H1216 C1222 0.930 . S
H1217 C1226 0.930 . S
H1218 C1231 0.929 . S
H1219 C1229 0.929 . S
H1220 C1224 0.929 . S
H1221 C1230 0.929 . S
C1222 H1216 0.930 . S
C1222 C1223 1.367 . S
C1222 C1230 1.378 1_554 S
C1223 C1222 1.367 . S
C1223 C1231 1.433 1_554 S
C1224 H1220 0.929 . S
C1224 C1226 1.378 . S
C1224 C1228 1.350 . S
C1225 C1228 1.463 . S
C1225 C1230 1.350 . S
C1225 N1233 1.427 . S
C1226 H1217 0.930 . S
C1226 C1224 1.378 . S
C1226 C1227 1.367 . S
C1227 C1226 1.367 . S
C1227 C1229 1.433 . S
C1228 C1224 1.350 . S
C1228 C1225 1.463 . S
C1228 N1232 1.427 . S
C1229 H1219 0.929 . S
C1229 C1227 1.433 . S
C1229 N1232 1.384 . S
C1230 H1221 0.929 . S
C1230 C1222 1.378 1_556 S
C1230 C1225 1.350 . S
C1231 H1218 0.929 . S
C1231 C1223 1.433 1_556 S
C1231 N1233 1.384 . S
N1232 C1228 1.427 . S
N1232 C1229 1.384 . S
N1233 C1225 1.427 . S
N1233 C1231 1.384 . S
H1234 C1240 0.930 . S
H1235 C1244 0.930 . S
H1236 C1249 0.929 . S
H1237 C1247 0.929 . S
H1238 C1242 0.929 . S
H1239 C1248 0.929 . S
C1240 H1234 0.930 . S
C1240 C1241 1.367 . S
C1240 C1248 1.378 . S
C1241 C1240 1.367 . S
C1241 C1249 1.433 . S
C1242 H1238 0.929 . S
C1242 C1244 1.378 . S
C1242 C1246 1.350 . S
C1243 C1246 1.463 . S
C1243 C1248 1.350 . S
C1243 N1251 1.427 . S
C1244 H1235 0.930 . S
C1244 C1242 1.378 . S
C1244 C1245 1.367 . S
C1245 C1244 1.367 . S
C1245 C1247 1.433 . S
C1246 C1242 1.350 . S
C1246 C1243 1.463 . S
C1246 N1250 1.427 . S
C1247 H1237 0.929 . S
C1247 C1245 1.433 . S
C1247 N1250 1.384 . S
C1248 H1239 0.929 . S
C1248 C1240 1.378 . S
C1248 C1243 1.350 . S
C1249 H1236 0.929 . S
C1249 C1241 1.433 . S
C1249 N1251 1.384 . S
N1250 C1246 1.427 . S
N1250 C1247 1.384 . S
N1251 C1243 1.427 . S
N1251 C1249 1.384 . S
H1252 C1258 0.930 . S
H1253 C1262 0.930 . S
H1254 C1267 0.929 . S
H1255 C1265 0.929 . S
H1256 C1260 0.929 . S
H1257 C1266 0.929 . S
C1258 H1252 0.930 . S
C1258 C1259 1.367 . S
C1258 C1266 1.378 . S
C1259 C1258 1.367 . S
C1259 C1267 1.433 . S
C1260 H1256 0.929 . S
C1260 C1262 1.378 . S
C1260 C1264 1.350 . S
C1261 C1264 1.463 . S
C1261 C1266 1.350 . S
C1261 N1269 1.427 . S
C1262 H1253 0.930 . S
C1262 C1260 1.378 . S
C1262 C1263 1.367 . S
C1263 C1262 1.367 . S
C1263 C1265 1.433 . S
C1264 C1260 1.350 . S
C1264 C1261 1.463 . S
C1264 N1268 1.427 . S
C1265 H1255 0.929 . S
C1265 C1263 1.433 . S
C1265 N1268 1.384 . S
C1266 H1257 0.929 . S
C1266 C1258 1.378 . S
C1266 C1261 1.350 . S
C1267 H1254 0.929 . S
C1267 C1259 1.433 . S
C1267 N1269 1.384 . S
N1268 C1264 1.427 . S
N1268 C1265 1.384 . S
N1269 C1261 1.427 . S
N1269 C1267 1.384 . S
H1270 C1276 0.930 . S
H1271 C1280 0.930 . S
H1272 C1285 0.929 . S
H1273 C1283 0.929 . S
H1274 C1278 0.929 . S
H1275 C1284 0.929 . S
C1276 H1270 0.930 . S
C1276 C1277 1.367 . S
C1276 C1284 1.378 . S
C1277 C1276 1.367 . S
C1277 C1285 1.433 . S
C1278 H1274 0.929 . S
C1278 C1280 1.378 . S
C1278 C1282 1.350 . S
C1279 C1282 1.463 . S
C1279 C1284 1.350 . S
C1279 N1287 1.427 . S
C1280 H1271 0.930 . S
C1280 C1278 1.378 . S
C1280 C1281 1.367 . S
C1281 C1280 1.367 . S
C1281 C1283 1.433 . S
C1282 C1278 1.350 . S
C1282 C1279 1.463 . S
C1282 N1286 1.427 . S
C1283 H1273 0.929 . S
C1283 C1281 1.433 . S
C1283 N1286 1.384 . S
C1284 H1275 0.929 . S
C1284 C1276 1.378 . S
C1284 C1279 1.350 . S
C1285 H1272 0.929 . S
C1285 C1277 1.433 . S
C1285 N1287 1.384 . S
N1286 C1282 1.427 . S
N1286 C1283 1.384 . S
N1287 C1279 1.427 . S
N1287 C1285 1.384 . S
H1288 C1294 0.930 . S
H1289 C1298 0.930 . S
H1290 C1303 0.929 . S
H1291 C1301 0.929 1_556 S
H1292 C1296 0.929 . S
H1293 C1302 0.929 . S
C1294 H1288 0.930 . S
C1294 C1295 1.367 . S
C1294 C1302 1.378 . S
C1295 C1294 1.367 . S
C1295 C1303 1.433 . S
C1296 H1292 0.929 . S
C1296 C1298 1.378 . S
C1296 C1300 1.350 . S
C1297 C1300 1.463 . S
C1297 C1302 1.350 . S
C1297 N1305 1.427 . S
C1298 H1289 0.930 . S
C1298 C1296 1.378 . S
C1298 C1299 1.341 1_554 S
C1299 C1298 1.341 1_556 S
C1299 C1301 1.425 1_556 S
C1300 C1296 1.350 . S
C1300 C1297 1.463 . S
C1300 N1304 1.427 . S
C1301 H1291 0.929 1_554 S
C1301 C1299 1.425 1_554 S
C1301 N1304 1.384 . S
C1302 H1293 0.929 . S
C1302 C1294 1.378 . S
C1302 C1297 1.350 . S
C1303 H1290 0.929 . S
C1303 C1295 1.433 . S
C1303 N1305 1.384 . S
N1304 C1300 1.427 . S
N1304 C1301 1.384 . S
N1305 C1297 1.427 . S
N1305 C1303 1.384 . S
H1306 C1312 0.930 . S
H1307 C1316 0.930 . S
H1308 C1321 0.929 . S
H1309 C1319 0.929 . S
H1310 C1314 0.929 . S
H1311 C1320 0.929 . S
C1312 H1306 0.930 . S
C1312 C1313 1.367 . S
C1312 C1320 1.378 . S
C1313 C1312 1.367 . S
C1313 C1321 1.433 . S
C1314 H1310 0.929 . S
C1314 C1316 1.378 . S
C1314 C1318 1.350 . S
C1315 C1318 1.463 . S
C1315 C1320 1.350 . S
C1315 N1323 1.427 . S
C1316 H1307 0.930 . S
C1316 C1314 1.378 . S
C1316 C1317 1.367 . S
C1317 C1316 1.367 . S
C1317 C1319 1.433 . S
C1318 C1314 1.350 . S
C1318 C1315 1.463 . S
C1318 N1322 1.427 . S
C1319 H1309 0.929 . S
C1319 C1317 1.433 . S
C1319 N1322 1.384 . S
C1320 H1311 0.929 . S
C1320 C1312 1.378 . S
C1320 C1315 1.350 . S
C1321 H1308 0.929 . S
C1321 C1313 1.433 . S
C1321 N1323 1.384 . S
N1322 C1318 1.427 . S
N1322 C1319 1.384 . S
N1323 C1315 1.427 . S
N1323 C1321 1.384 . S
H1324 C1330 0.930 . S
H1325 C1334 0.930 . S
H1326 C1339 0.929 . S
H1327 C1337 0.929 . S
H1328 C1332 0.929 . S
H1329 C1338 0.929 . S
C1330 H1324 0.930 . S
C1330 C1331 1.367 . S
C1330 C1338 1.378 . S
C1331 C1330 1.367 . S
C1331 C1339 1.433 . S
C1332 H1328 0.929 . S
C1332 C1334 1.378 . S
C1332 C1336 1.350 . S
C1333 C1336 1.463 . S
C1333 C1338 1.350 . S
C1333 N1341 1.427 . S
C1334 H1325 0.930 . S
C1334 C1332 1.378 . S
C1334 C1335 1.367 . S
C1335 C1334 1.367 . S
C1335 C1337 1.433 . S
C1336 C1332 1.350 . S
C1336 C1333 1.463 . S
C1336 N1340 1.427 . S
C1337 H1327 0.929 . S
C1337 C1335 1.433 . S
C1337 N1340 1.384 . S
C1338 H1329 0.929 . S
C1338 C1330 1.378 . S
C1338 C1333 1.350 . S
C1339 H1326 0.929 . S
C1339 C1331 1.433 . S
C1339 N1341 1.384 . S
N1340 C1336 1.427 . S
N1340 C1337 1.384 . S
N1341 C1333 1.427 . S
N1341 C1339 1.384 . S
H1342 C1348 0.930 . S
H1343 C1352 0.930 . S
H1344 C1357 0.929 . S
H1345 C1355 0.929 . S
H1346 C1350 0.929 . S
H1347 C1356 0.929 . S
C1348 H1342 0.930 . S
C1348 C1349 1.367 . S
C1348 C1356 1.378 . S
C1349 C1348 1.367 . S
C1349 C1357 1.433 . S
C1350 H1346 0.929 . S
C1350 C1352 1.378 . S
C1350 C1354 1.350 . S
C1351 C1354 1.463 . S
C1351 C1356 1.350 . S
C1351 N1359 1.427 . S
C1352 H1343 0.930 . S
C1352 C1350 1.378 . S
C1352 C1353 1.367 . S
C1353 C1352 1.367 . S
C1353 C1355 1.433 . S
C1354 C1350 1.350 . S
C1354 C1351 1.463 . S
C1354 N1358 1.427 . S
C1355 H1345 0.929 . S
C1355 C1353 1.433 . S
C1355 N1358 1.384 . S
C1356 H1347 0.929 . S
C1356 C1348 1.378 . S
C1356 C1351 1.350 . S
C1357 H1344 0.929 . S
C1357 C1349 1.433 . S
C1357 N1359 1.384 . S
N1358 C1354 1.427 . S
N1358 C1355 1.384 . S
N1359 C1351 1.427 . S
N1359 C1357 1.384 . S
H1360 C1366 0.930 . S
H1361 C1370 0.930 . S
H1362 C1375 0.929 . S
H1363 C1373 0.929 . S
H1364 C1368 0.929 . S
H1365 C1374 0.929 . S
C1366 H1360 0.930 . S
C1366 C1367 1.367 . S
C1366 C1374 1.378 . S
C1367 C1366 1.367 . S
C1367 C1375 1.433 . S
C1368 H1364 0.929 . S
C1368 C1370 1.378 . S
C1368 C1372 1.350 . S
C1369 C1372 1.463 . S
C1369 C1374 1.350 . S
C1369 N1377 1.427 . S
C1370 H1361 0.930 . S
C1370 C1368 1.378 . S
C1370 C1371 1.367 . S
C1371 C1370 1.367 . S
C1371 C1373 1.433 . S
C1372 C1368 1.350 . S
C1372 C1369 1.463 . S
C1372 N1376 1.427 . S
C1373 H1363 0.929 . S
C1373 C1371 1.433 . S
C1373 N1376 1.384 . S
C1374 H1365 0.929 . S
C1374 C1366 1.378 . S
C1374 C1369 1.350 . S
C1375 H1362 0.929 . S
C1375 C1367 1.433 . S
C1375 N1377 1.384 . S
N1376 C1372 1.427 . S
N1376 C1373 1.384 . S
N1377 C1369 1.427 . S
N1377 C1375 1.384 . S
H1378 C1384 0.930 . S
H1379 C1388 0.930 . S
H1380 C1393 0.929 . S
H1381 C1391 0.929 1_545 S
H1382 C1386 0.929 . S
H1383 C1392 0.929 . S
C1384 H1378 0.930 . S
C1384 C1385 1.367 . S
C1384 C1392 1.378 . S
C1385 C1384 1.367 . S
C1385 C1393 1.433 . S
C1386 H1382 0.929 . S
C1386 C1388 1.378 . S
C1386 C1390 1.350 . S
C1387 C1390 1.463 . S
C1387 C1392 1.350 . S
C1387 N1395 1.427 . S
C1388 H1379 0.930 . S
C1388 C1386 1.378 . S
C1388 C1389 1.367 . S
C1389 C1388 1.367 . S
C1389 C1391 1.433 . S
C1390 C1386 1.350 . S
C1390 C1387 1.463 . S
C1390 N1394 1.427 . S
C1391 H1381 0.929 1_565 S
C1391 C1389 1.433 . S
C1391 N1394 1.384 . S
C1392 H1383 0.929 . S
C1392 C1384 1.378 . S
C1392 C1387 1.350 . S
C1393 H1380 0.929 . S
C1393 C1385 1.433 . S
C1393 N1395 1.384 . S
N1394 C1390 1.427 . S
N1394 C1391 1.384 . S
N1395 C1387 1.427 . S
N1395 C1393 1.384 . S
H1396 C1402 0.930 . S
H1397 C1406 0.930 1_554 S
H1398 C1411 0.929 . S
H1399 C1409 0.929 . S
H1400 C1404 0.929 . S
H1401 C1410 0.929 . S
C1402 H1396 0.930 . S
C1402 C1403 1.367 . S
C1402 C1410 1.378 . S
C1403 C1402 1.367 . S
C1403 C1411 1.433 . S
C1404 H1400 0.929 . S
C1404 C1406 1.378 . S
C1404 C1408 1.350 . S
C1405 C1408 1.463 . S
C1405 C1410 1.350 . S
C1405 N1413 1.427 . S
C1406 H1397 0.930 1_556 S
C1406 C1404 1.378 . S
C1406 C1407 1.359 1_556 S
C1407 C1406 1.359 1_554 S
C1407 C1409 1.398 1_554 S
C1408 C1404 1.350 . S
C1408 C1405 1.463 . S
C1408 N1412 1.427 . S
C1409 H1399 0.929 . S
C1409 C1407 1.398 1_556 S
C1409 N1412 1.384 . S
C1410 H1401 0.929 . S
C1410 C1402 1.378 . S
C1410 C1405 1.350 . S
C1411 H1398 0.929 . S
C1411 C1403 1.433 . S
C1411 N1413 1.384 . S
N1412 C1408 1.427 . S
N1412 C1409 1.384 . S
N1413 C1405 1.427 . S
N1413 C1411 1.384 . S
H1414 C1420 0.930 . S
H1415 C1424 0.930 . S
H1416 C1429 0.929 . S
H1417 C1427 0.929 . S
H1418 C1422 0.929 . S
H1419 C1428 0.929 . S
C1420 H1414 0.930 . S
C1420 C1421 1.367 . S
C1420 C1428 1.378 . S
C1421 C1420 1.367 . S
C1421 C1429 1.433 1_545 S
C1422 H1418 0.929 . S
C1422 C1424 1.378 . S
C1422 C1426 1.350 . S
C1423 C1426 1.463 . S
C1423 C1428 1.350 . S
C1423 N1431 1.427 . S
C1424 H1415 0.930 . S
C1424 C1422 1.378 . S
C1424 C1425 1.367 . S
C1425 C1424 1.367 . S
C1425 C1427 1.433 . S
C1426 C1422 1.350 . S
C1426 C1423 1.463 . S
C1426 N1430 1.427 . S
C1427 H1417 0.929 . S
C1427 C1425 1.433 . S
C1427 N1430 1.384 . S
C1428 H1419 0.929 . S
C1428 C1420 1.378 . S
C1428 C1423 1.350 . S
C1429 H1416 0.929 . S
C1429 C1421 1.433 1_565 S
C1429 N1431 1.384 1_565 S
N1430 C1426 1.427 . S
N1430 C1427 1.384 . S
N1431 C1423 1.427 . S
N1431 C1429 1.384 1_545 S
H1432 C1438 0.930 . S
H1433 C1442 0.930 . S
H1434 C1447 0.929 . S
H1435 C1445 0.929 . S
H1436 C1440 0.929 . S
H1437 C1446 0.929 . S
C1438 H1432 0.930 . S
C1438 C1439 1.367 . S
C1438 C1446 1.378 . S
C1439 C1438 1.367 . S
C1439 C1447 1.433 . S
C1440 H1436 0.929 . S
C1440 C1442 1.378 . S
C1440 C1444 1.350 . S
C1441 C1444 1.463 . S
C1441 C1446 1.350 . S
C1441 N1449 1.427 . S
C1442 H1433 0.930 . S
C1442 C1440 1.378 . S
C1442 C1443 1.367 . S
C1443 C1442 1.367 . S
C1443 C1445 1.433 . S
C1444 C1440 1.350 . S
C1444 C1441 1.463 . S
C1444 N1448 1.427 . S
C1445 H1435 0.929 . S
C1445 C1443 1.433 . S
C1445 N1448 1.384 . S
C1446 H1437 0.929 . S
C1446 C1438 1.378 . S
C1446 C1441 1.350 . S
C1447 H1434 0.929 . S
C1447 C1439 1.433 . S
C1447 N1449 1.384 . S
N1448 C1444 1.427 . S
N1448 C1445 1.384 . S
N1449 C1441 1.427 . S
N1449 C1447 1.384 . S
H1450 C1456 0.930 . S
H1451 C1460 0.930 . S
H1452 C1465 0.929 . S
H1453 C1463 0.929 . S
H1454 C1458 0.929 . S
H1455 C1464 0.929 . S
C1456 H1450 0.930 . S
C1456 C1457 1.367 . S
C1456 C1464 1.378 . S
C1457 C1456 1.367 . S
C1457 C1465 1.433 . S
C1458 H1454 0.929 . S
C1458 C1460 1.378 . S
C1458 C1462 1.350 . S
C1459 C1462 1.463 . S
C1459 C1464 1.350 . S
C1459 N1467 1.427 . S
C1460 H1451 0.930 . S
C1460 C1458 1.378 . S
C1460 C1461 1.367 . S
C1461 C1460 1.367 . S
C1461 C1463 1.433 1_545 S
C1462 C1458 1.350 . S
C1462 C1459 1.463 . S
C1462 N1466 1.427 . S
C1463 H1453 0.929 . S
C1463 C1461 1.433 1_565 S
C1463 N1466 1.384 1_565 S
C1464 H1455 0.929 . S
C1464 C1456 1.378 . S
C1464 C1459 1.350 . S
C1465 H1452 0.929 . S
C1465 C1457 1.433 . S
C1465 N1467 1.384 . S
N1466 C1462 1.427 . S
N1466 C1463 1.384 1_545 S
N1467 C1459 1.427 . S
N1467 C1465 1.384 . S
H1468 C1474 0.930 . S
H1469 C1478 0.930 . S
H1470 C1483 0.929 . S
H1471 C1481 0.929 . S
H1472 C1476 0.929 . S
H1473 C1482 0.929 . S
C1474 H1468 0.930 . S
C1474 C1475 1.367 . S
C1474 C1482 1.378 . S
C1475 C1474 1.367 . S
C1475 C1483 1.433 . S
C1476 H1472 0.929 . S
C1476 C1478 1.378 1_554 S
C1476 C1480 1.350 . S
C1477 C1480 1.463 . S
C1477 C1482 1.350 . S
C1477 N1485 1.427 . S
C1478 H1469 0.930 . S
C1478 C1476 1.378 1_556 S
C1478 C1479 1.367 . S
C1479 C1478 1.367 . S
C1479 C1481 1.433 1_556 S
C1480 C1476 1.350 . S
C1480 C1477 1.463 . S
C1480 N1484 1.427 . S
C1481 H1471 0.929 . S
C1481 C1479 1.433 1_554 S
C1481 N1484 1.384 . S
C1482 H1473 0.929 . S
C1482 C1474 1.378 . S
C1482 C1477 1.350 . S
C1483 H1470 0.929 . S
C1483 C1475 1.433 . S
C1483 N1485 1.384 . S
N1484 C1480 1.427 . S
N1484 C1481 1.384 . S
N1485 C1477 1.427 . S
N1485 C1483 1.384 . S
H1486 C1492 0.930 . S
H1487 C1496 0.930 . S
H1488 C1501 0.929 . S
H1489 C1499 0.929 . S
H1490 C1494 0.929 . S
H1491 C1500 0.929 . S
C1492 H1486 0.930 . S
C1492 C1493 1.367 . S
C1492 C1500 1.378 . S
C1493 C1492 1.367 . S
C1493 C1501 1.433 . S
C1494 H1490 0.929 . S
C1494 C1496 1.378 1_565 S
C1494 C1498 1.350 . S
C1495 C1498 1.463 . S
C1495 C1500 1.350 . S
C1495 N1503 1.427 . S
C1496 H1487 0.930 . S
C1496 C1494 1.378 1_545 S
C1496 C1497 1.367 1_545 S
C1497 C1496 1.367 1_565 S
C1497 C1499 1.433 . S
C1498 C1494 1.350 . S
C1498 C1495 1.463 . S
C1498 N1502 1.427 . S
C1499 H1489 0.929 . S
C1499 C1497 1.433 . S
C1499 N1502 1.384 . S
C1500 H1491 0.929 . S
C1500 C1492 1.378 . S
C1500 C1495 1.350 . S
C1501 H1488 0.929 . S
C1501 C1493 1.433 . S
C1501 N1503 1.384 . S
N1502 C1498 1.427 . S
N1502 C1499 1.384 . S
N1503 C1495 1.427 . S
N1503 C1501 1.384 . S
C647 C2 2.778 . S
C651 C402 2.783 . S
C665 C42 2.783 . S
C669 C442 2.778 . S
C683 C82 2.782 . S
C687 C322 2.778 . S
C701 C362 2.778 . S
C705 C122 2.780 . S
C719 C183 2.780 . S
C723 C583 2.778 . S
C737 C623 2.778 . S
C741 C223 2.781 . S
C755 C503 2.784 . S
C759 C263 2.780 . S
C773 C303 2.778 . S
C777 C543 2.783 . S
C791 C17 0.800 1_565 S
C795 C186 0.800 1_545 S
C809 C57 0.756 . S
C813 C546 0.756 . S
C827 C97 0.788 1_545 S
C831 C266 0.788 1_565 S
C845 C137 0.778 . S
C849 C626 0.778 . S
C863 C226 0.796 . S
C867 C377 0.796 . S
C881 C457 0.772 . S
C885 C306 0.772 . S
C899 C506 0.779 . S
C903 C337 0.779 . S
C917 C417 0.765 . S
C921 C586 0.765 . S
C935 C26 0.998 . S
C939 C282 1.020 . S
C953 C66 1.003 . S
C957 C482 1.033 . S
C971 C106 1.007 . S
C975 C202 1.024 . S
C989 C146 1.006 . S
C993 C562 1.035 . S
C1007 C143 1.035 . S
C1011 C177 1.018 . S
C1025 C217 1.014 . S
C1029 C343 1.030 . S
C1043 C257 1.017 . S
C1047 C63 1.033 . S
C1061 C423 1.022 . S
C1065 C297 1.002 . S
C1079 C346 0.995 . S
C1083 C602 1.020 1_565 S
C1097 C162 1.021 . S
C1101 C386 0.993 . S
C1115 C522 1.025 1_545 S
C1119 C426 0.994 . S
C1133 C242 1.035 . S
C1137 C466 1.005 . S
C1151 C497 0.997 . S
C1155 C463 1.029 1_545 S
C1169 C537 0.993 . S
C1173 C23 1.023 . S
C1187 C383 1.020 1_565 S
C1191 C577 0.997 . S
C1205 C617 1.018 . S
C1209 C103 1.035 . S
C1223 C24 4.001 . S
C1227 C373 4.043 . S
C1241 C413 4.043 . S
C1245 C64 4.001 . S
C1259 C104 4.007 . S
C1263 C453 4.047 . S
C1277 C333 4.048 . S
C1281 C144 4.007 . S
C1295 C544 4.046 . S
C1299 C173 4.045 . S
C1313 C584 4.048 . S
C1317 C213 4.007 . S
C1331 C624 4.048 . S
C1335 C253 4.007 . S
C1349 C504 4.046 . S
C1353 C293 4.005 . S
C1367 C53 4.044 . S
C1371 C344 4.003 . S
C1385 C93 4.043 . S
C1389 C384 4.001 1_565 S
C1403 C133 4.044 . S
C1407 C424 4.053 . S
C1421 C464 4.002 1_545 S
C1425 C13 4.043 . S
C1439 C224 4.043 . S
C1443 C493 4.002 . S
C1457 C264 4.042 . S
C1461 C533 4.001 1_545 S
C1475 C304 4.042 . S
C1479 C573 4.001 . S
C1493 C184 4.046 . S
C1497 C613 4.005 1_565 S
