# Generated by pormake.
# Topology vbm, (6)-cn, num edge types: 1
# Building blocks:
#     Node 0, Type 0, BuildingBlock: KUMBOL_clean_sbu_1, # of connection points: 6
#     Node 1, Type 0, BuildingBlock: KUMBOL_clean_sbu_1, # of connection points: 6
#     Node 2, Type 0, BuildingBlock: KUMBOL_clean_sbu_1, # of connection points: 6
#     Node 3, Type 0, BuildingBlock: KUMBOL_clean_sbu_1, # of connection points: 6
#     Node 4, Type 0, BuildingBlock: KUMBOL_clean_sbu_1, # of connection points: 6
#     Node 5, Type 0, BuildingBlock: KUMBOL_clean_sbu_1, # of connection points: 6
#     Node 6, Type 0, BuildingBlock: KUMBOL_clean_sbu_1, # of connection points: 6
#     Node 7, Type 0, BuildingBlock: KUMBOL_clean_sbu_1, # of connection points: 6
#     Node 8, Type 0, BuildingBlock: KUMBOL_clean_sbu_1, # of connection points: 6
#     Node 9, Type 0, BuildingBlock: KUMBOL_clean_sbu_1, # of connection points: 6
#     Node 10, Type 0, BuildingBlock: KUMBOL_clean_sbu_1, # of connection points: 6
#     Node 11, Type 0, BuildingBlock: KUMBOL_clean_sbu_1, # of connection points: 6
#     Node 12, Type 0, BuildingBlock: KUMBOL_clean_sbu_1, # of connection points: 6
#     Node 13, Type 0, BuildingBlock: KUMBOL_clean_sbu_1, # of connection points: 6
#     Node 14, Type 0, BuildingBlock: KUMBOL_clean_sbu_1, # of connection points: 6
#     Node 15, Type 0, BuildingBlock: KUMBOL_clean_sbu_1, # of connection points: 6
#     Edge 16, Type (0, 0), BuildingBlock: CIFDUS_clean_linker_0, # of connection points: 2
#     Edge 17, Type (0, 0), BuildingBlock: CIFDUS_clean_linker_0, # of connection points: 2
#     Edge 18, Type (0, 0), BuildingBlock: CIFDUS_clean_linker_0, # of connection points: 2
#     Edge 19, Type (0, 0), BuildingBlock: CIFDUS_clean_linker_0, # of connection points: 2
#     Edge 20, Type (0, 0), BuildingBlock: CIFDUS_clean_linker_0, # of connection points: 2
#     Edge 21, Type (0, 0), BuildingBlock: CIFDUS_clean_linker_0, # of connection points: 2
#     Edge 22, Type (0, 0), BuildingBlock: CIFDUS_clean_linker_0, # of connection points: 2
#     Edge 23, Type (0, 0), BuildingBlock: CIFDUS_clean_linker_0, # of connection points: 2
#     Edge 24, Type (0, 0), BuildingBlock: CIFDUS_clean_linker_0, # of connection points: 2
#     Edge 25, Type (0, 0), BuildingBlock: CIFDUS_clean_linker_0, # of connection points: 2
#     Edge 26, Type (0, 0), BuildingBlock: CIFDUS_clean_linker_0, # of connection points: 2
#     Edge 27, Type (0, 0), BuildingBlock: CIFDUS_clean_linker_0, # of connection points: 2
#     Edge 28, Type (0, 0), BuildingBlock: CIFDUS_clean_linker_0, # of connection points: 2
#     Edge 29, Type (0, 0), BuildingBlock: CIFDUS_clean_linker_0, # of connection points: 2
#     Edge 30, Type (0, 0), BuildingBlock: CIFDUS_clean_linker_0, # of connection points: 2
#     Edge 31, Type (0, 0), BuildingBlock: CIFDUS_clean_linker_0, # of connection points: 2
#     Edge 32, Type (0, 0), BuildingBlock: CIFDUS_clean_linker_0, # of connection points: 2
#     Edge 33, Type (0, 0), BuildingBlock: CIFDUS_clean_linker_0, # of connection points: 2
#     Edge 34, Type (0, 0), BuildingBlock: CIFDUS_clean_linker_0, # of connection points: 2
#     Edge 35, Type (0, 0), BuildingBlock: CIFDUS_clean_linker_0, # of connection points: 2
#     Edge 36, Type (0, 0), BuildingBlock: CIFDUS_clean_linker_0, # of connection points: 2
#     Edge 37, Type (0, 0), BuildingBlock: CIFDUS_clean_linker_0, # of connection points: 2
#     Edge 38, Type (0, 0), BuildingBlock: CIFDUS_clean_linker_0, # of connection points: 2
#     Edge 39, Type (0, 0), BuildingBlock: CIFDUS_clean_linker_0, # of connection points: 2
#     Edge 40, Type (0, 0), BuildingBlock: CIFDUS_clean_linker_0, # of connection points: 2
#     Edge 41, Type (0, 0), BuildingBlock: CIFDUS_clean_linker_0, # of connection points: 2
#     Edge 42, Type (0, 0), BuildingBlock: CIFDUS_clean_linker_0, # of connection points: 2
#     Edge 43, Type (0, 0), BuildingBlock: CIFDUS_clean_linker_0, # of connection points: 2
#     Edge 44, Type (0, 0), BuildingBlock: CIFDUS_clean_linker_0, # of connection points: 2
#     Edge 45, Type (0, 0), BuildingBlock: CIFDUS_clean_linker_0, # of connection points: 2
#     Edge 46, Type (0, 0), BuildingBlock: CIFDUS_clean_linker_0, # of connection points: 2
#     Edge 47, Type (0, 0), BuildingBlock: CIFDUS_clean_linker_0, # of connection points: 2
#     Edge 48, Type (0, 0), BuildingBlock: CIFDUS_clean_linker_0, # of connection points: 2
#     Edge 49, Type (0, 0), BuildingBlock: CIFDUS_clean_linker_0, # of connection points: 2
#     Edge 50, Type (0, 0), BuildingBlock: CIFDUS_clean_linker_0, # of connection points: 2
#     Edge 51, Type (0, 0), BuildingBlock: CIFDUS_clean_linker_0, # of connection points: 2
#     Edge 52, Type (0, 0), BuildingBlock: CIFDUS_clean_linker_0, # of connection points: 2
#     Edge 53, Type (0, 0), BuildingBlock: CIFDUS_clean_linker_0, # of connection points: 2
#     Edge 54, Type (0, 0), BuildingBlock: CIFDUS_clean_linker_0, # of connection points: 2
#     Edge 55, Type (0, 0), BuildingBlock: CIFDUS_clean_linker_0, # of connection points: 2
#     Edge 56, Type (0, 0), BuildingBlock: CIFDUS_clean_linker_0, # of connection points: 2
#     Edge 57, Type (0, 0), BuildingBlock: CIFDUS_clean_linker_0, # of connection points: 2
#     Edge 58, Type (0, 0), BuildingBlock: CIFDUS_clean_linker_0, # of connection points: 2
#     Edge 59, Type (0, 0), BuildingBlock: CIFDUS_clean_linker_0, # of connection points: 2
#     Edge 60, Type (0, 0), BuildingBlock: CIFDUS_clean_linker_0, # of connection points: 2
#     Edge 61, Type (0, 0), BuildingBlock: CIFDUS_clean_linker_0, # of connection points: 2
#     Edge 62, Type (0, 0), BuildingBlock: CIFDUS_clean_linker_0, # of connection points: 2
#     Edge 63, Type (0, 0), BuildingBlock: CIFDUS_clean_linker_0, # of connection points: 2
# Relax obj value: 0.075
# Max RMSD: 0.142
# Mean RMSD: 0.142
data_MOF--net-vbm--node1-KUMBOL_clean_sbu_1--edge1-CIFDUS_clean_linker_0
_symmetry_space_group_name_H-M    P1
_symmetry_Int_Tables_number       1
_symmetry_cell_setting            triclinic
loop_
_symmetry_equiv_pos_as_xyz
'x, y, z'
_cell_length_a     46.685697
_cell_length_b     23.153064
_cell_length_c     50.180548
_cell_angle_alpha  89.998496
_cell_angle_beta   90.31408
_cell_angle_gamma 89.96907
loop_
_atom_site_label
_atom_site_type_symbol
_atom_site_fract_x
_atom_site_fract_y
_atom_site_fract_z
_atom_type_partial_charge
C0 C 0.22608 0.04265 0.09916 0.0
C1 C 0.25852 0.01386 0.13467 0.0
C2 C 0.23049 0.0254 0.12543 0.0
C3 C 0.28183 0.02075 0.11739 0.0
C4 C 0.24945 0.05036 0.08187 0.0
C5 C 0.27733 0.03911 0.09111 0.0
N6 N 0.19893 0.05412 0.09079 0.0
C7 C 0.19344 0.07018 0.06519 0.0
C8 C 0.24411 0.07023 0.05595 0.0
C9 C 0.21596 0.08063 0.0477 0.0
Gd10 Gd 0.13068 0.19208 0.15126 0.0
Gd11 Gd 0.1627 0.04039 0.12185 0.0
N12 N 0.20751 0.02035 0.14192 0.0
C13 C 0.26235 0.99568 0.16101 0.0
C14 C 0.21122 1.00074 0.16741 0.0
C15 C 0.23858 0.9887 0.17736 0.0
H16 H 0.19342 0.99283 0.18025 0.0
H17 H 0.24126 0.97353 0.19762 0.0
H18 H 0.09868 0.23133 0.09402 0.0
H19 H 0.17171 0.07491 0.05826 0.0
H20 H 0.05029 0.25514 0.07768 0.0
H21 H 0.28351 0.98636 0.16886 0.0
H22 H 0.30348 0.01226 0.12418 0.0
H23 H 0.12754 0.20032 0.21806 0.0
H24 H 0.26152 0.07776 0.0422 0.0
H25 H 0.2115 0.09709 0.02801 0.0
H26 H 0.99249 0.25359 0.15652 0.0
H27 H 0.29556 0.04467 0.0781 0.0
H28 H 0.03985 0.22249 0.24029 0.0
H29 H 0.09066 0.20803 0.25297 0.0
N30 N 0.09761 0.20397 0.18604 0.0
C31 C 0.07018 0.21569 0.17872 0.0
C32 C 0.10527 0.20378 0.21234 0.0
C33 C 0.05588 0.21769 0.22491 0.0
C34 C 0.08451 0.20936 0.23215 0.0
C35 C 0.04849 0.22227 0.19793 0.0
H36 H 1.00336 0.23945 0.20413 0.0
N37 N 0.08563 0.21877 0.13413 0.0
C38 C 0.06408 0.22418 0.15199 0.0
C39 C 0.03105 0.24886 0.11651 0.0
C40 C 0.0361 0.23879 0.14364 0.0
C41 C 0.08118 0.23174 0.10788 0.0
C42 C 0.05379 0.24599 0.0986 0.0
O43 O 0.19004 0.12159 0.1202 0.0
O44 O 0.17538 0.15932 0.15925 0.0
O45 O 0.1371 0.27913 0.13518 0.0
O46 O 0.1484 0.2599 0.1759 0.0
O47 O 0.15194 0.03797 0.16516 0.0
O48 O 0.13837 0.12562 0.18451 0.0
O49 O 0.09755 0.12857 0.13498 0.0
O50 O 0.11874 0.03897 0.14055 0.0
O51 O 0.1676 0.9471 0.12582 0.0
O52 O 0.14825 0.98425 0.08972 0.0
O53 O 0.14639 0.18689 0.10837 0.0
O54 O 0.13411 0.09465 0.09578 0.0
C55 C 0.1942 0.15696 0.14015 0.0
C56 C 0.14475 0.06981 0.18581 0.0
C57 C 0.13324 0.35558 0.16696 0.0
C58 C 0.13124 0.46146 0.1633 0.0
C59 C 0.11014 0.41211 0.20141 0.0
C60 C 0.11806 0.35882 0.19099 0.0
C61 C 0.11711 0.46292 0.18808 0.0
C62 C 0.13912 0.40683 0.15287 0.0
C63 C 0.14553 0.29997 0.15796 0.0
C64 C 0.01419 0.24307 0.16258 0.0
C65 C 0.02036 0.23482 0.18967 0.0
H66 H 1.00985 0.25997 0.10928 0.0
C67 C 0.09603 0.07178 0.13688 0.0
C68 C 0.13853 0.14921 0.09007 0.0
C69 C 0.15195 0.87944 0.09161 0.0
C70 C 0.14559 0.77539 0.0973 0.0
C71 C 0.14784 0.81715 0.05292 0.0
C72 C 0.15111 0.87206 0.06388 0.0
C73 C 0.14521 0.76909 0.06945 0.0
C74 C 0.14897 0.83093 0.10837 0.0
C75 C 0.15585 0.93783 0.10265 0.0
H76 H 0.09914 0.41414 0.22033 0.0
H77 H 0.11308 0.3204 0.20225 0.0
H78 H 0.11178 0.50325 0.19771 0.0
H79 H 0.15015 0.40361 0.13401 0.0
H80 H 0.14727 0.81183 0.0315 0.0
H81 H 0.15325 0.90876 0.05064 0.0
H82 H 0.14234 0.72694 0.06046 0.0
H83 H 0.14928 0.83626 0.12984 0.0
C84 C 0.8006 0.96814 0.10669 0.0
C85 C 0.77209 0.98473 0.14623 0.0
C86 C 0.79904 0.98017 0.13385 0.0
C87 C 0.74699 0.97631 0.13114 0.0
C88 C 0.7755 0.95997 0.09147 0.0
C89 C 0.7487 0.96404 0.10385 0.0
N90 N 0.82678 0.96319 0.09526 0.0
C91 C 0.8296 0.95299 0.06866 0.0
C92 C 0.77812 0.94775 0.06424 0.0
C93 C 0.80529 0.94432 0.0528 0.0
Gd94 Gd 0.90198 0.83098 0.14675 0.0
Gd95 Gd 0.86595 0.97899 0.12304 0.0
N96 N 0.82373 0.98816 0.148 0.0
C97 C 0.77111 0.99838 0.17337 0.0
C98 C 0.82275 1.00469 0.1741 0.0
C99 C 0.79654 1.00894 0.18727 0.0
H100 H 0.84185 0.01644 0.18483 0.0
H101 H 0.79594 0.02135 0.20806 0.0
H102 H 0.93614 0.79461 0.09079 0.0
H103 H 0.85058 0.95144 0.05974 0.0
H104 H 0.98545 0.77453 0.07628 0.0
H105 H 0.75083 1.00221 0.18361 0.0
H106 H 0.72612 0.97963 0.14036 0.0
H107 H 0.90458 0.83048 0.21468 0.0
H108 H 0.75933 0.94109 0.05186 0.0
H109 H 0.80747 0.93494 0.03181 0.0
H110 H 0.0416 0.79169 0.15621 0.0
H111 H 0.72914 0.9579 0.09248 0.0
H112 H 0.99256 0.82658 0.2381 0.0
H113 H 0.94133 0.83361 0.24982 0.0
N114 N 0.93461 0.83073 0.18276 0.0
C115 C 0.96256 0.82289 0.17598 0.0
C116 C 0.92683 0.8315 0.209 0.0
C117 C 0.97652 0.82748 0.22241 0.0
C118 C 0.94764 0.83164 0.22912 0.0
C119 C 0.98426 0.82128 0.19567 0.0
H120 H 0.02972 0.81041 0.20309 0.0
N121 N 0.94814 0.81353 0.13083 0.0
C122 C 0.96939 0.81239 0.14945 0.0
C123 C 1.00368 0.78726 0.11538 0.0
C124 C 0.99786 0.79991 0.14211 0.0
C125 C 0.9534 0.79794 0.10506 0.0
C126 C 0.98129 0.78571 0.09684 0.0
O127 O 0.84366 0.89153 0.11783 0.0
O128 O 0.85552 0.84764 0.1566 0.0
O129 O 0.8838 0.75172 0.12997 0.0
O130 O 0.91054 0.74847 0.16519 0.0
O131 O 0.8845 0.9804 0.1642 0.0
O132 O 0.88382 0.88709 0.18068 0.0
O133 O 0.93243 0.89885 0.12984 0.0
O134 O 0.91073 0.98513 0.14015 0.0
O135 O 0.85646 0.07109 0.12729 0.0
O136 O 0.87806 0.03815 0.09167 0.0
O137 O 0.88986 0.83888 0.10243 0.0
O138 O 0.89416 0.93638 0.09314 0.0
C139 C 0.83708 0.8558 0.13719 0.0
C140 C 0.88628 0.94363 0.18407 0.0
C141 C 0.87927 0.67039 0.15882 0.0
C142 C 0.87194 0.56571 0.16008 0.0
C143 C 0.85054 0.62811 0.19374 0.0
C144 C 0.8625 0.67669 0.18168 0.0
C145 C 0.85545 0.57304 0.18329 0.0
C146 C 0.88348 0.61531 0.14783 0.0
C147 C 0.89564 0.71904 0.14805 0.0
C148 C 0.01956 0.80043 0.16155 0.0
C149 C 0.0128 0.81133 0.18823 0.0
H150 H 0.02529 0.77768 0.10896 0.0
C151 C 0.93372 0.95477 0.13459 0.0
C152 C 0.8942 0.88214 0.08572 0.0
C153 C 0.87048 0.14178 0.09361 0.0
C154 C 0.87323 0.24638 0.09975 0.0
C155 C 0.88251 0.20387 0.05635 0.0
C156 C 0.87764 0.14896 0.06668 0.0
C157 C 0.88048 0.25223 0.07273 0.0
C158 C 0.86793 0.19082 0.11011 0.0
C159 C 0.86873 0.08295 0.10469 0.0
H160 H 0.83797 0.63296 0.21166 0.0
H161 H 0.85934 0.71886 0.19056 0.0
H162 H 0.84678 0.5363 0.19384 0.0
H163 H 0.89623 0.61144 0.12995 0.0
H164 H 0.88809 0.20894 0.03558 0.0
H165 H 0.8799 0.11199 0.05363 0.0
H166 H 0.88425 0.29445 0.06415 0.0
H167 H 0.8629 0.18572 0.13104 0.0
C168 C 0.22192 0.96245 0.41225 0.0
C169 C 0.25336 0.98752 0.37541 0.0
C170 C 0.22566 0.97986 0.38584 0.0
C171 C 0.27731 0.97712 0.3917 0.0
C172 C 0.24608 0.95215 0.42857 0.0
C173 C 0.2737 0.95932 0.41814 0.0
N174 N 0.19487 0.95561 0.42195 0.0
C175 C 0.19073 0.94321 0.44823 0.0
C176 C 0.2418 0.935 0.45497 0.0
C177 C 0.21401 0.9307 0.46481 0.0
Gd178 Gd 0.12907 0.82059 0.37063 0.0
Gd179 Gd 0.15817 0.97569 0.39116 0.0
N180 N 0.20215 0.98668 0.36997 0.0
C181 C 0.25615 1.00472 0.34877 0.0
C182 C 0.20462 1.0053 0.34429 0.0
C183 C 0.23166 0.01399 0.33321 0.0
H184 H 0.18573 0.01358 0.33248 0.0
H185 H 0.23359 0.02801 0.31272 0.0
H186 H 0.10014 0.77059 0.42828 0.0
H187 H 0.16976 0.94427 0.4569 0.0
H188 H 0.05374 0.7346 0.44365 0.0
H189 H 0.2771 1.01113 0.34007 0.0
H190 H 0.29875 0.98241 0.38401 0.0
H191 H 0.12371 0.82483 0.30383 0.0
H192 H 0.25979 0.92603 0.46806 0.0
H193 H 0.21043 0.91823 0.48523 0.0
H194 H 0.99521 0.72985 0.36492 0.0
H195 H 0.29246 0.95145 0.43041 0.0
H196 H 0.03723 0.7873 0.28222 0.0
H197 H 0.08625 0.81636 0.26946 0.0
N198 N 0.09554 0.80933 0.33615 0.0
C199 C 0.06959 0.78832 0.34337 0.0
C200 C 0.10209 0.8162 0.30988 0.0
C201 C 0.0535 0.79273 0.2975 0.0
C202 C 0.08105 0.80957 0.29023 0.0
C203 C 0.04764 0.78054 0.32425 0.0
H204 H 1.00363 0.75416 0.31792 0.0
N205 N 0.08647 0.78232 0.38801 0.0
C206 C 0.06505 0.77364 0.36992 0.0
C207 C 0.03405 0.73868 0.4048 0.0
C208 C 0.03815 0.75215 0.37793 0.0
C209 C 0.08285 0.7673 0.4141 0.0
C210 C 0.05656 0.74587 0.4229 0.0
O211 O 0.18501 0.90536 0.37087 0.0
O212 O 0.16947 0.8299 0.39422 0.0
O213 O 0.12839 0.72699 0.37386 0.0
O214 O 0.15617 0.76989 0.34454 0.0
O215 O 0.13181 0.97158 0.35468 0.0
O216 O 0.14417 0.88377 0.33752 0.0
O217 O 0.09374 0.88639 0.37275 0.0
O218 O 0.10942 0.96755 0.39638 0.0
O219 O 0.15571 0.06225 0.37472 0.0
O220 O 0.16354 0.04995 0.41692 0.0
O221 O 0.13737 0.83342 0.41546 0.0
O222 O 0.13371 0.93209 0.4235 0.0
C223 C 0.19049 0.85556 0.38228 0.0
C224 C 0.13711 0.93889 0.3343 0.0
C225 C 0.15701 0.66471 0.34544 0.0
C226 C 0.15702 0.55957 0.34846 0.0
C227 C 0.18602 0.60798 0.31518 0.0
C228 C 0.17641 0.66144 0.32422 0.0
C229 C 0.1765 0.55733 0.32724 0.0
C230 C 0.14715 0.61351 0.35741 0.0
C231 C 0.14683 0.72141 0.35462 0.0
C232 C 0.01605 0.7458 0.35904 0.0
C233 C 0.0208 0.75991 0.33229 0.0
H234 H 0.01367 0.72234 0.41174 0.0
C235 C 0.08888 0.93446 0.38602 0.0
C236 C 0.1313 0.87796 0.43103 0.0
C237 C 0.13976 0.13517 0.4036 0.0
C238 C 0.13073 0.23892 0.40142 0.0
C239 C 0.09735 0.17496 0.42419 0.0
C240 C 0.1145 0.1274 0.41809 0.0
C241 C 0.10549 0.23042 0.41622 0.0
C242 C 0.14742 0.19037 0.39484 0.0
C243 C 0.15902 0.08692 0.3978 0.0
H244 H 0.20088 0.60577 0.29874 0.0
H245 H 0.1841 0.7002 0.31452 0.0
H246 H 0.18412 0.51626 0.31975 0.0
H247 H 0.13217 0.61549 0.37382 0.0
H248 H 0.07793 0.16898 0.43554 0.0
H249 H 0.10826 0.08486 0.42489 0.0
H250 H 0.09226 0.26654 0.42213 0.0
H251 H 0.16657 0.19513 0.38293 0.0
C252 C 0.80051 0.05812 0.41516 0.0
C253 C 0.76853 0.05065 0.37696 0.0
C254 C 0.79652 0.05137 0.38774 0.0
C255 C 0.74484 0.05503 0.39395 0.0
C256 C 0.77673 0.0637 0.43216 0.0
C257 C 0.74893 0.06135 0.42145 0.0
N258 N 0.82764 0.06186 0.42506 0.0
C259 C 0.83254 0.06944 0.45165 0.0
C260 C 0.78158 0.07258 0.45941 0.0
C261 C 0.80959 0.07587 0.46913 0.0
Gd262 Gd 0.89767 0.19619 0.36956 0.0
Gd263 Gd 0.86415 0.04717 0.39433 0.0
N264 N 0.81988 0.04801 0.37158 0.0
C265 C 0.7651 0.04641 0.34934 0.0
C266 C 0.81649 0.04361 0.34466 0.0
C267 C 0.78919 0.04308 0.33314 0.0
H268 H 0.83447 0.04038 0.33181 0.0
H269 H 0.78677 0.03988 0.31172 0.0
H270 H 0.93145 0.24533 0.42362 0.0
H271 H 0.85408 0.06974 0.45951 0.0
H272 H 0.98043 0.27335 0.43719 0.0
H273 H 0.74397 0.04598 0.34031 0.0
H274 H 0.72324 0.05433 0.38598 0.0
H275 H 0.89708 0.20694 0.30236 0.0
H276 H 0.76386 0.07735 0.47309 0.0
H277 H 0.81346 0.08336 0.49009 0.0
H278 H 0.03568 0.25131 0.3574 0.0
H279 H 0.73041 0.06527 0.43425 0.0
H280 H 0.98406 0.21772 0.27622 0.0
H281 H 0.93232 0.21081 0.26584 0.0
N282 N 0.92878 0.20431 0.33298 0.0
C283 C 0.95687 0.21288 0.33912 0.0
C284 C 0.91971 0.20729 0.30709 0.0
C285 C 0.96875 0.21432 0.29231 0.0
C286 C 0.93957 0.21051 0.28636 0.0
C287 C 0.97765 0.21772 0.31894 0.0
H288 H 0.0226 0.23234 0.31065 0.0
N289 N 0.94352 0.22207 0.38422 0.0
C290 C 0.96438 0.22321 0.36548 0.0
C291 C 0.99853 0.25598 0.39857 0.0
C292 C 0.99263 0.23912 0.37229 0.0
C293 C 0.94863 0.2423 0.40939 0.0
C294 C 0.97629 0.25868 0.41706 0.0
O295 O 0.84191 0.13459 0.39762 0.0
O296 O 0.8528 0.17268 0.35775 0.0
O297 O 0.87429 0.26888 0.38649 0.0
O298 O 0.90307 0.28213 0.3534 0.0
O299 O 0.88342 0.04102 0.35399 0.0
O300 O 0.88593 0.13264 0.33527 0.0
O301 O 0.92904 0.1367 0.38937 0.0
O302 O 0.9119 0.04375 0.38378 0.0
O303 O 0.85369 0.9578 0.38502 0.0
O304 O 0.86888 0.98104 0.42443 0.0
O305 O 0.88834 0.18558 0.41473 0.0
O306 O 0.89191 0.08783 0.42488 0.0
C307 C 0.83468 0.16707 0.37727 0.0
C308 C 0.88624 0.07522 0.33338 0.0
C309 C 0.8688 0.35445 0.36075 0.0
C310 C 0.86337 0.45879 0.35685 0.0
C311 C 0.83012 0.39406 0.33421 0.0
C312 C 0.84478 0.34618 0.34439 0.0
C313 C 0.83949 0.45002 0.34019 0.0
C314 C 0.87795 0.41051 0.36703 0.0
C315 C 0.88602 0.3061 0.37045 0.0
C316 C 0.01375 0.24007 0.35249 0.0
C317 C 1.0063 0.22917 0.32587 0.0
H318 H 0.01995 0.26872 0.40456 0.0
C319 C 0.93314 0.08096 0.38716 0.0
C320 C 0.89295 0.14239 0.4317 0.0
C321 C 0.88294 0.89019 0.40761 0.0
C322 C 0.89174 0.7873 0.39975 0.0
C323 C 0.92928 0.8488 0.41836 0.0
C324 C 0.91112 0.89646 0.41706 0.0
C325 C 0.91961 0.79455 0.41027 0.0
C326 C 0.87363 0.83612 0.39833 0.0
C327 C 0.86278 0.93915 0.40805 0.0
H328 H 0.81168 0.38783 0.32137 0.0
H329 H 0.8377 0.30304 0.33924 0.0
H330 H 0.82843 0.48653 0.33145 0.0
H331 H 0.89652 0.41645 0.37983 0.0
H332 H 0.95081 0.85371 0.42614 0.0
H333 H 0.91902 0.93796 0.42383 0.0
H334 H 0.934 0.75834 0.41279 0.0
H335 H 0.85222 0.8326 0.3901 0.0
C336 C 0.96382 0.82371 0.84532 0.0
C337 C 0.99597 0.81427 0.88325 0.0
C338 C 0.96795 0.81824 0.87274 0.0
C339 C 0.01956 0.81672 0.86604 0.0
C340 C 0.98746 0.82591 0.82799 0.0
C341 C 0.01532 0.82243 0.83851 0.0
N342 N 0.93664 0.82842 0.83567 0.0
C343 C 0.93155 0.8331 0.80896 0.0
C344 C 0.9824 0.83174 0.80058 0.0
C345 C 0.9543 0.83511 0.79103 0.0
Gd346 Gd 0.86851 0.97174 0.8916 0.0
Gd347 Gd 0.89999 0.82267 0.86719 0.0
N348 N 0.94467 0.81676 0.88907 0.0
C349 C 0.99948 0.80714 0.91075 0.0
C350 C 0.94806 0.80503 0.91555 0.0
C351 C 0.97541 0.80165 0.9269 0.0
H352 H 0.93 0.79584 0.92798 0.0
H353 H 0.9779 0.79348 0.94802 0.0
H354 H 0.83407 0.9933 0.83286 0.0
H355 H 0.90992 0.83356 0.80142 0.0
H356 H 0.78507 1.00869 0.8171 0.0
H357 H 0.02065 0.80402 0.91959 0.0
H358 H 0.04122 0.8138 0.87382 0.0
H359 H 0.86554 0.96745 0.95823 0.0
H360 H 1.00001 0.83332 0.78662 0.0
H361 H 0.95014 0.83876 0.76986 0.0
H362 H 0.72923 1.00924 0.89695 0.0
H363 H 0.03375 0.82403 0.8255 0.0
H364 H 0.77782 0.9876 0.98057 0.0
H365 H 0.82875 0.97337 0.99308 0.0
N366 N 0.83569 0.97486 0.92633 0.0
C367 C 0.80805 0.98442 0.91889 0.0
C368 C 0.84332 0.97145 0.95254 0.0
C369 C 0.79388 0.98422 0.96515 0.0
C370 C 0.82253 0.97573 0.97233 0.0
C371 C 0.78635 0.98901 0.93818 0.0
H372 H 0.7409 1.00135 0.94451 0.0
N373 N 0.82255 0.98241 0.87349 0.0
C374 C 0.80132 0.98854 0.8918 0.0
C375 C 0.767 1.00495 0.85644 0.0
C376 C 0.77285 0.99857 0.88365 0.0
C377 C 0.81711 0.9914 0.84708 0.0
C378 C 0.78925 1.00178 0.8381 0.0
O379 O 0.92606 0.90456 0.86234 0.0
O380 O 0.91577 0.95783 0.89934 0.0
O381 O 0.8743 0.05526 0.87271 0.0
O382 O 0.86823 0.0493 0.91546 0.0
O383 O 0.88371 0.82852 0.91012 0.0
O384 O 0.89474 0.92212 0.9212 0.0
O385 O 0.83839 0.89429 0.89359 0.0
O386 O 0.85221 0.83056 0.86078 0.0
O387 O 0.89891 0.7348 0.88254 0.0
O388 O 0.90157 0.75028 0.84012 0.0
O389 O 0.88204 0.96465 0.84865 0.0
O390 O 0.87465 0.87024 0.83551 0.0
C391 C 0.93368 0.94148 0.8808 0.0
C392 C 0.8885 0.86905 0.92809 0.0
C393 C 0.89341 0.12944 0.8995 0.0
C394 C 0.9026 0.23272 0.89872 0.0
C395 C 0.93766 0.16657 0.91794 0.0
C396 C 0.91987 0.11984 0.91202 0.0
C397 C 0.92911 0.2228 0.91145 0.0
C398 C 0.88513 0.18532 0.89247 0.0
C399 C 0.87287 0.08299 0.89525 0.0
C400 C 0.75123 1.00264 0.90286 0.0
C401 C 0.75791 0.99795 0.93 0.0
H402 H 0.74559 0.01422 0.84944 0.0
C403 C 0.83301 0.85063 0.87749 0.0
C404 C 0.87754 0.92561 0.83004 0.0
C405 C 0.8806 0.66305 0.85372 0.0
C406 C 0.8728 0.55946 0.8565 0.0
C407 C 0.83918 0.62024 0.83216 0.0
C408 C 0.85579 0.66873 0.83806 0.0
C409 C 0.84761 0.5658 0.84125 0.0
C410 C 0.88885 0.60867 0.86307 0.0
C411 C 0.89963 0.71193 0.85886 0.0
H412 H 0.9578 0.15924 0.92813 0.0
H413 H 0.92644 0.07663 0.91765 0.0
H414 H 0.94295 0.25839 0.91697 0.0
H415 H 0.86476 0.19169 0.88238 0.0
H416 H 0.82018 0.62454 0.81989 0.0
H417 H 0.84974 0.71021 0.82988 0.0
H418 H 0.83494 0.52856 0.8356 0.0
H419 H 0.90817 0.60465 0.87504 0.0
C420 C 0.06417 0.20084 0.84065 0.0
C421 C 0.02655 0.20164 0.87396 0.0
C422 C 0.05578 0.19866 0.86728 0.0
C423 C 1.00584 0.20529 0.85364 0.0
C424 C 0.04344 0.20601 0.82027 0.0
C425 C 0.01425 0.20736 0.82689 0.0
N426 N 0.0926 0.2004 0.83478 0.0
C427 C 0.1018 0.20791 0.80926 0.0
C428 C 0.0527 0.21087 0.79385 0.0
C429 C 0.08201 0.21238 0.78836 0.0
Gd430 Gd 0.16159 0.04421 0.89371 0.0
Gd431 Gd 0.12346 0.18935 0.87123 0.0
N432 N 0.07625 0.19408 0.88665 0.0
C433 C 0.01902 0.20185 0.90091 0.0
C434 C 0.06908 0.19706 0.91293 0.0
C435 C 0.04037 0.20005 0.92046 0.0
H436 H 0.08528 0.19782 0.92819 0.0
H437 H 0.03475 0.20166 0.94135 0.0
H438 H 0.18815 0.03687 0.83107 0.0
H439 H 0.12443 0.2112 0.8051 0.0
H440 H 0.23525 0.04239 0.80963 0.0
H441 H 0.99685 0.20497 0.9068 0.0
H442 H 0.98325 0.20729 0.85843 0.0
H443 H 0.17342 0.05039 0.9594 0.0
H444 H 0.03741 0.21483 0.77762 0.0
H445 H 0.08935 0.21755 0.76808 0.0
H446 H 0.30117 0.05999 0.88262 0.0
H447 H 0.99801 0.21102 0.81147 0.0
H448 H 0.26417 0.05642 0.97143 0.0
H449 H 0.21515 0.05139 0.98959 0.0
N450 N 0.19874 0.0524 0.92433 0.0
C451 C 0.22545 0.05255 0.91367 0.0
C452 C 0.19473 0.05288 0.95121 0.0
C453 C 0.24596 0.05543 0.95796 0.0
C454 C 0.21831 0.05352 0.96838 0.0
C455 C 0.24981 0.05522 0.93031 0.0
H456 H 0.29613 0.05993 0.93133 0.0
N457 N 0.20459 0.04827 0.87025 0.0
C458 C 0.22846 0.0508 0.88597 0.0
C459 C 0.25826 0.0508 0.84677 0.0
C460 C 0.2559 0.05287 0.87455 0.0
C461 C 0.20679 0.04345 0.84328 0.0
C462 C 0.2336 0.04552 0.83109 0.0
O463 O 0.0942 0.11198 0.87537 0.0
O464 O 0.11439 0.04445 0.90399 0.0
O465 O 0.16135 0.95837 0.87574 0.0
O466 O 0.16906 0.96843 0.91797 0.0
O467 O 0.13535 0.18078 0.91575 0.0
O468 O 0.13619 0.08305 0.92636 0.0
O469 O 0.18488 0.13189 0.89431 0.0
O470 O 0.16787 0.17319 0.8565 0.0
O471 O 0.1444 0.26621 0.88781 0.0
O472 O 0.11145 0.27454 0.85777 0.0
O473 O 0.13792 0.04449 0.85477 0.0
O474 O 0.14149 0.13575 0.83697 0.0
C475 C 0.09247 0.06623 0.89073 0.0
C476 C 0.1341 0.13763 0.93304 0.0
C477 C 0.14476 0.88431 0.90436 0.0
C478 C 0.1316 0.78299 0.8994 0.0
C479 C 0.105 0.84467 0.92952 0.0
C480 C 0.12231 0.89145 0.92265 0.0
C481 C 0.10975 0.79055 0.91813 0.0
C482 C 0.14907 0.83004 0.89245 0.0
C483 C 0.16451 0.9323 0.89859 0.0
C484 C 0.28009 0.05694 0.89113 0.0
C485 C 0.27714 0.05745 0.91888 0.0
H486 H 0.27903 0.05223 0.83726 0.0
C487 C 0.18848 0.16697 0.87395 0.0
C488 C 0.13754 0.07949 0.83429 0.0
C489 C 0.14472 0.3497 0.85983 0.0
C490 C 0.15326 0.45363 0.85741 0.0
C491 C 0.16692 0.39116 0.82065 0.0
C492 C 0.15686 0.343 0.8345 0.0
C493 C 0.16493 0.44622 0.83189 0.0
C494 C 0.14332 0.40494 0.87138 0.0
C495 C 0.12977 0.30147 0.87272 0.0
H496 H 0.08795 0.85031 0.94381 0.0
H497 H 0.1184 0.93296 0.93192 0.0
H498 H 0.09617 0.75463 0.92371 0.0
H499 H 0.16619 0.82416 0.87819 0.0
H500 H 0.17591 0.38593 0.80096 0.0
H501 H 0.15775 0.30085 0.82516 0.0
H502 H 0.17272 0.48301 0.82073 0.0
H503 H 0.13341 0.41034 0.89071 0.0
C504 C 0.95943 0.22293 0.67414 0.0
C505 C 0.99281 0.23741 0.63789 0.0
C506 C 0.9648 0.2272 0.64712 0.0
C507 C 0.01546 0.24173 0.6563 0.0
C508 C 0.98188 0.23024 0.69276 0.0
C509 C 1.01 0.23828 0.68369 0.0
N510 N 0.93199 0.21556 0.68224 0.0
C511 C 0.92516 0.22225 0.70843 0.0
C512 C 0.9752 0.23152 0.71991 0.0
C513 C 0.9466 0.22882 0.72774 0.0
Gd514 Gd 0.86801 0.04453 0.62666 0.0
Gd515 Gd 0.89745 0.20143 0.64855 0.0
N516 N 0.94243 0.22218 0.62985 0.0
C517 C 0.99713 0.2434 0.61045 0.0
C518 C 0.94629 0.23116 0.60319 0.0
C519 C 0.9737 0.24091 0.59306 0.0
H520 H 0.9283 0.23076 0.58968 0.0
H521 H 0.97671 0.2468 0.57186 0.0
H522 H 0.82814 0.03588 0.68446 0.0
H523 H 0.90303 0.22525 0.71425 0.0
H524 H 0.7785 0.02002 0.69654 0.0
H525 H 0.01834 0.25102 0.60254 0.0
H526 H 0.03719 0.24895 0.64958 0.0
H527 H 0.8688 0.04349 0.56055 0.0
H528 H 0.99179 0.23729 0.73486 0.0
H529 H 0.94098 0.23314 0.74854 0.0
H530 H 0.72937 0.99668 0.61332 0.0
H531 H 0.02756 0.24335 0.6977 0.0
H532 H 0.78349 0.01222 0.53278 0.0
H533 H 0.8349 0.02914 0.52352 0.0
N534 N 0.83707 0.03611 0.59048 0.0
C535 C 0.80929 0.02439 0.59625 0.0
C536 C 0.84636 0.03788 0.56482 0.0
C537 C 0.79833 0.0188 0.54917 0.0
C538 C 0.8272 0.02908 0.54379 0.0
C539 C 0.78903 0.01632 0.57564 0.0
H540 H 0.7444 0.99972 0.56647 0.0
N541 N 0.8209 0.03059 0.64237 0.0
C542 C 0.80093 0.02189 0.62285 0.0
C543 C 0.76387 0.01168 0.65602 0.0
C544 C 0.7719 0.01231 0.62922 0.0
C545 C 0.81301 0.02974 0.66859 0.0
C546 C 0.78451 0.02048 0.67574 0.0
O547 O 0.93032 0.13478 0.6345 0.0
O548 O 0.90935 0.05251 0.64934 0.0
O549 O 0.86347 0.95353 0.63561 0.0
O550 O 0.8907 0.98129 0.60296 0.0
O551 O 0.88048 0.19032 0.6064 0.0
O552 O 0.894 0.09695 0.5974 0.0
O553 O 0.83836 0.12056 0.61974 0.0
O554 O 0.85149 0.17388 0.65564 0.0
O555 O 0.89443 0.28841 0.63165 0.0
O556 O 0.87877 0.27083 0.67116 0.0
O557 O 0.87437 0.05264 0.67097 0.0
O558 O 0.88787 0.1451 0.68482 0.0
C559 C 0.93203 0.08001 0.6412 0.0
C560 C 0.8874 0.14941 0.58941 0.0
C561 C 0.87197 0.8859 0.60143 0.0
C562 C 0.86802 0.78117 0.60126 0.0
C563 C 0.85818 0.83593 0.56091 0.0
C564 C 0.8642 0.88727 0.5744 0.0
C565 C 0.86016 0.78305 0.57419 0.0
C566 C 0.87377 0.83294 0.61472 0.0
C567 C 0.88018 0.93782 0.61622 0.0
C568 C 0.75172 1.00422 0.60873 0.0
C569 C 0.76026 1.00603 0.58204 0.0
H570 H 0.74179 1.00456 0.66169 0.0
C571 C 0.83305 0.1625 0.63657 0.0
C572 C 0.8801 0.09111 0.68967 0.0
C573 C 0.8964 0.36445 0.66353 0.0
C574 C 0.90113 0.46855 0.65919 0.0
C575 C 0.91715 0.42096 0.69964 0.0
C576 C 0.90864 0.36793 0.68917 0.0
C577 C 0.91323 0.4712 0.68484 0.0
C578 C 0.89304 0.41495 0.64848 0.0
C579 C 0.88411 0.31012 0.65348 0.0
H580 H 0.85225 0.83706 0.54004 0.0
H581 H 0.86327 0.92748 0.56358 0.0
H582 H 0.85545 0.74373 0.56333 0.0
H583 H 0.88056 0.83204 0.63544 0.0
H584 H 0.92628 0.42323 0.71948 0.0
H585 H 0.91087 0.33026 0.70156 0.0
H586 H 0.9196 0.51219 0.69342 0.0
H587 H 0.88298 0.41288 0.62896 0.0
C588 C 0.06893 0.80592 0.67947 0.0
C589 C 0.03337 0.78729 0.6451 0.0
C590 C 0.06168 0.8008 0.65277 0.0
C591 C 1.01234 0.78014 0.66472 0.0
C592 C 0.04809 0.79698 0.69928 0.0
C593 C 0.01969 0.78494 0.69175 0.0
N594 N 0.09656 0.81748 0.68609 0.0
C595 C 0.10523 0.81642 0.7121 0.0
C596 C 0.05655 0.79922 0.72606 0.0
C597 C 0.08534 0.80824 0.73249 0.0
Gd598 Gd 0.16243 0.98219 0.62214 0.0
Gd599 Gd 0.12807 0.83316 0.65052 0.0
N600 N 0.08241 0.80874 0.63425 0.0
C601 C 0.0271 0.78096 0.61795 0.0
C602 C 0.07674 0.79985 0.60784 0.0
C603 C 0.04897 0.78668 0.59926 0.0
H604 H 0.09351 0.8028 0.5933 0.0
H605 H 0.0445 0.78062 0.57826 0.0
H606 H 0.19171 0.99967 0.68496 0.0
H607 H 0.12765 0.82109 0.71712 0.0
H608 H 0.23927 1.00335 0.70485 0.0
H609 H 1.00561 0.77067 0.61124 0.0
H610 H 0.99043 0.77015 0.65922 0.0
H611 H 0.17272 0.96032 0.55761 0.0
H612 H 0.04119 0.79258 0.74188 0.0
H613 H 0.09228 0.80834 0.7531 0.0
H614 H 0.30322 0.98627 0.631 0.0
H615 H 1.00334 0.77836 0.70669 0.0
H616 H 0.26314 0.96105 0.5437 0.0
H617 H 0.21348 0.95413 0.52664 0.0
N618 N 0.19923 0.9707 0.59175 0.0
C619 C 0.22623 0.97672 0.60168 0.0
C620 C 0.19437 0.96287 0.56523 0.0
C621 C 0.24537 0.96404 0.55742 0.0
C622 C 0.21737 0.95958 0.54767 0.0
C623 C 0.2501 0.97249 0.58474 0.0
H624 H 0.29644 0.97333 0.58281 0.0
N625 N 0.2065 0.98746 0.64514 0.0
C626 C 0.22998 0.98455 0.62908 0.0
C627 C 0.26107 0.99404 0.66745 0.0
C628 C 0.25787 0.98757 0.63991 0.0
C629 C 0.2097 0.99501 0.67201 0.0
C630 C 0.23693 0.99779 0.68353 0.0
O631 O 0.09396 0.89838 0.63808 0.0
O632 O 0.11582 0.98835 0.63319 0.0
O633 O 0.17021 0.07449 0.62908 0.0
O634 O 0.15367 0.04358 0.59063 0.0
O635 O 0.14268 0.83821 0.60716 0.0
O636 O 0.13332 0.93217 0.5949 0.0
O637 O 0.18757 0.89786 0.61941 0.0
O638 O 0.17247 0.86621 0.659 0.0
O639 O 0.13246 0.74517 0.63487 0.0
O640 O 0.14833 0.76631 0.67408 0.0
O641 O 0.14708 0.98848 0.66412 0.0
O642 O 0.13491 0.89991 0.68349 0.0
C643 C 0.09304 0.95515 0.63552 0.0
C644 C 0.13648 0.87743 0.58892 0.0
C645 C 0.1609 0.14687 0.59446 0.0
C646 C 0.15609 0.25169 0.60005 0.0
C647 C 0.16216 0.20976 0.55588 0.0
C648 C 0.16304 0.15465 0.56684 0.0
C649 C 0.15892 0.25783 0.57224 0.0
C650 C 0.15747 0.19552 0.61113 0.0
C651 C 0.16137 0.08756 0.60516 0.0
C652 C 0.28168 0.98373 0.62301 0.0
C653 C 0.27782 0.97639 0.59553 0.0
H654 H 0.28204 0.9966 0.67654 0.0
C655 C 0.19139 0.86418 0.64002 0.0
C656 C 0.13927 0.95648 0.68451 0.0
C657 C 0.13309 0.6696 0.66747 0.0
C658 C 0.12994 0.56429 0.66377 0.0
C659 C 0.11578 0.61219 0.70467 0.0
C660 C 0.12241 0.66571 0.69356 0.0
C661 C 0.11974 0.56174 0.69001 0.0
C662 C 0.13642 0.61856 0.65248 0.0
C663 C 0.14362 0.72543 0.65687 0.0
H664 H 0.16411 0.21531 0.53455 0.0
H665 H 0.1656 0.11798 0.55365 0.0
H666 H 0.15897 0.30004 0.56297 0.0
H667 H 0.15513 0.18945 0.63242 0.0
H668 H 0.10783 0.60976 0.72486 0.0
H669 H 0.11983 0.70373 0.70576 0.0
H670 H 0.11445 0.52066 0.69906 0.0
H671 H 0.14487 0.62086 0.63242 0.0
C672 C 0.71973 0.53556 0.09604 0.0
C673 C 0.75494 0.52655 0.13171 0.0
C674 C 0.72626 0.53318 0.12326 0.0
C675 C 0.7767 0.5207 0.1127 0.0
C676 C 0.74155 0.52953 0.07697 0.0
C677 C 0.77002 0.52185 0.08545 0.0
N678 N 0.69218 0.54513 0.08821 0.0
C679 C 0.68468 0.54733 0.06201 0.0
C680 C 0.73403 0.53099 0.0499 0.0
C681 C 0.70541 0.53914 0.04247 0.0
Gd682 Gd 0.6295 0.70106 0.14923 0.0
Gd683 Gd 0.6589 0.54685 0.12216 0.0
N684 N 0.70477 0.53938 0.14135 0.0
C685 C 0.76099 0.5265 0.15906 0.0
C686 C 0.71061 0.53907 0.16805 0.0
C687 C 0.73873 0.53291 0.17726 0.0
H688 H 0.69397 0.54363 0.18254 0.0
H689 H 0.74322 0.53296 0.19845 0.0
H690 H 0.59682 0.73584 0.09124 0.0
H691 H 0.6625 0.55285 0.05626 0.0
H692 H 0.54878 0.76171 0.07521 0.0
H693 H 0.78277 0.52174 0.16632 0.0
H694 H 0.79882 0.51533 0.11889 0.0
H695 H 0.62674 0.7095 0.21625 0.0
H696 H 0.75008 0.52525 0.0346 0.0
H697 H 0.69907 0.53775 0.02179 0.0
H698 H 0.49301 0.7772 0.15488 0.0
H699 H 0.78708 0.51712 0.07106 0.0
H700 H 0.54042 0.74655 0.23858 0.0
H701 H 0.59049 0.72391 0.25113 0.0
N702 N 0.59704 0.71808 0.18415 0.0
C703 C 0.57004 0.73361 0.17688 0.0
C704 C 0.60468 0.71646 0.21048 0.0
C705 C 0.55615 0.73902 0.22316 0.0
C706 C 0.58433 0.72595 0.23032 0.0
C707 C 0.54877 0.74384 0.19619 0.0
H708 H 0.50431 0.76672 0.20257 0.0
N709 N 0.58466 0.72952 0.13192 0.0
C710 C 0.56369 0.73991 0.15001 0.0
C711 C 0.53041 0.76281 0.11448 0.0
C712 C 0.53588 0.756 0.14174 0.0
C713 C 0.57979 0.7392 0.10544 0.0
C714 C 0.55257 0.755 0.09629 0.0
O715 O 0.68817 0.62681 0.11836 0.0
O716 O 0.67282 0.66332 0.1568 0.0
O717 O 0.63849 0.78667 0.13282 0.0
O718 O 0.64665 0.76851 0.17433 0.0
O719 O 0.64636 0.54566 0.16449 0.0
O720 O 0.63714 0.63578 0.18322 0.0
O721 O 0.59345 0.63971 0.14103 0.0
O722 O 0.61115 0.5477 0.13168 0.0
O723 O 0.66297 0.45679 0.13384 0.0
O724 O 0.64641 0.4796 0.09458 0.0
O725 O 0.64219 0.69113 0.10486 0.0
O726 O 0.62963 0.59716 0.09615 0.0
C727 C 0.69178 0.66397 0.13787 0.0
C728 C 0.64023 0.57883 0.18477 0.0
C729 C 0.63105 0.86276 0.16392 0.0
C730 C 0.62537 0.96666 0.1581 0.0
C731 C 0.60276 0.91851 0.19539 0.0
C732 C 0.61398 0.86592 0.18692 0.0
C733 C 0.60856 0.96876 0.1812 0.0
C734 C 0.63638 0.91337 0.14937 0.0
C735 C 0.64496 0.80809 0.15608 0.0
C736 C 0.51452 0.76506 0.16087 0.0
C737 C 0.52095 0.75904 0.18802 0.0
H738 H 0.50934 0.77514 0.10733 0.0
C739 C 0.59012 0.58406 0.13714 0.0
C740 C 0.6344 0.64973 0.08807 0.0
C741 C 0.66415 0.3842 0.10036 0.0
C742 C 0.66526 0.27911 0.10294 0.0
C743 C 0.68552 0.32874 0.06469 0.0
C744 C 0.67815 0.38201 0.07574 0.0
C745 C 0.67903 0.27754 0.0781 0.0
C746 C 0.65795 0.33284 0.11394 0.0
C747 C 0.65281 0.43823 0.11117 0.0
H748 H 0.58985 0.92041 0.21321 0.0
H749 H 0.60973 0.82824 0.19882 0.0
H750 H 0.59983 1.00933 0.18822 0.0
H751 H 0.64984 0.91162 0.13184 0.0
H752 H 0.69609 0.32708 0.04556 0.0
H753 H 0.68286 0.42115 0.06483 0.0
H754 H 0.68507 0.23678 0.06915 0.0
H755 H 0.64649 0.33474 0.13267 0.0
C756 C 0.30964 0.50499 0.09375 0.0
C757 C 0.27464 0.5147 0.12908 0.0
C758 C 0.30293 0.5035 0.12077 0.0
C759 C 0.25376 0.53029 0.11022 0.0
C760 C 0.28861 0.5203 0.07475 0.0
C761 C 0.26073 0.53345 0.08316 0.0
N762 N 0.33653 0.49062 0.08597 0.0
C763 C 0.34421 0.49248 0.05982 0.0
C764 C 0.29631 0.52249 0.04783 0.0
C765 C 0.32433 0.50915 0.04042 0.0
Gd766 Gd 0.39794 0.32547 0.14555 0.0
Gd767 Gd 0.3696 0.47739 0.12014 0.0
N768 N 0.32357 0.48801 0.13867 0.0
C769 C 0.26791 0.50841 0.15604 0.0
C770 C 0.31663 0.4791 0.16475 0.0
C771 C 0.28891 0.48967 0.17386 0.0
H772 H 0.33176 0.46202 0.17863 0.0
H773 H 0.28371 0.48272 0.19461 0.0
H774 H 0.42884 0.27826 0.08974 0.0
H775 H 0.36598 0.4834 0.05396 0.0
H776 H 0.47754 0.25562 0.07361 0.0
H777 H 0.24639 0.51632 0.16315 0.0
H778 H 0.23206 0.53933 0.11639 0.0
H779 H 0.40311 0.31967 0.2127 0.0
H780 H 0.28091 0.53505 0.03268 0.0
H781 H 0.33085 0.513 0.01988 0.0
H782 H 0.53794 0.28731 0.14997 0.0
H783 H 0.24432 0.54549 0.06886 0.0
H784 H 0.49205 0.32066 0.23358 0.0
H785 H 0.44118 0.32265 0.24701 0.0
N786 N 0.43209 0.32461 0.18019 0.0
C787 C 0.45977 0.31792 0.17244 0.0
C788 C 0.42524 0.3224 0.2066 0.0
C789 C 0.47543 0.32138 0.21843 0.0
C790 C 0.44675 0.3226 0.22609 0.0
C791 C 0.48223 0.31686 0.19138 0.0
H792 H 0.52805 0.30779 0.19713 0.0
N793 N 0.44319 0.30409 0.12824 0.0
C794 C 0.46544 0.3061 0.14582 0.0
C795 C 0.49791 0.27625 0.11108 0.0
C796 C 0.49353 0.29332 0.13754 0.0
C797 C 0.44698 0.28353 0.10296 0.0
C798 C 0.47446 0.27036 0.09386 0.0
O799 O 0.33959 0.39985 0.11739 0.0
O800 O 0.35234 0.34969 0.15485 0.0
O801 O 0.37758 0.2466 0.13084 0.0
O802 O 0.40506 0.24404 0.16555 0.0
O803 O 0.38286 0.4801 0.16281 0.0
O804 O 0.38434 0.38661 0.18001 0.0
O805 O 0.42787 0.38521 0.12347 0.0
O806 O 0.41387 0.47273 0.13871 0.0
O807 O 0.36313 0.57019 0.12609 0.0
O808 O 0.39049 0.53727 0.09381 0.0
O809 O 0.38192 0.3296 0.10224 0.0
O810 O 0.39143 0.42327 0.08897 0.0
C811 C 0.33374 0.36099 0.1358 0.0
C812 C 0.38401 0.44385 0.18292 0.0
C813 C 0.37335 0.16629 0.16021 0.0
C814 C 0.36752 0.0618 0.16269 0.0
C815 C 0.34213 0.12476 0.19344 0.0
C816 C 0.35496 0.17316 0.18193 0.0
C817 C 0.34843 0.06934 0.18402 0.0
C818 C 0.37927 0.11097 0.15051 0.0
C819 C 0.38949 0.21453 0.14905 0.0
C820 C 0.51614 0.29615 0.15605 0.0
C821 C 0.51051 0.308 0.18289 0.0
H822 H 0.51919 0.26597 0.10398 0.0
C823 C 0.43414 0.43787 0.13078 0.0
C824 C 0.38616 0.36886 0.08351 0.0
C825 C 0.38584 0.64101 0.09673 0.0
C826 C 0.38628 0.74517 0.10378 0.0
C827 C 0.40716 0.70417 0.06374 0.0
C828 C 0.39996 0.64897 0.07236 0.0
C829 C 0.40044 0.75199 0.07931 0.0
C830 C 0.37877 0.68937 0.11235 0.0
C831 C 0.3796 0.58205 0.10585 0.0
H832 H 0.32783 0.13007 0.21016 0.0
H833 H 0.35099 0.21556 0.19023 0.0
H834 H 0.33904 0.03252 0.19398 0.0
H835 H 0.39369 0.10637 0.13377 0.0
H836 H 0.418 0.70991 0.04492 0.0
H837 H 0.40555 0.61246 0.05993 0.0
H838 H 0.40604 0.79452 0.07202 0.0
H839 H 0.36811 0.6836 0.13131 0.0
C840 C 0.72368 0.47256 0.41618 0.0
C841 C 0.75594 0.47527 0.37834 0.0
C842 C 0.72798 0.47443 0.38867 0.0
C843 C 0.77948 0.47434 0.39587 0.0
C844 C 0.74727 0.47206 0.43379 0.0
C845 C 0.77517 0.47308 0.42348 0.0
N846 N 0.69649 0.47025 0.4257 0.0
C847 C 0.69122 0.46869 0.45238 0.0
C848 C 0.7421 0.4703 0.46126 0.0
C849 C 0.71395 0.46887 0.47055 0.0
Gd850 Gd 0.62337 0.33259 0.36649 0.0
Gd851 Gd 0.66056 0.4743 0.39355 0.0
N852 N 0.70481 0.47355 0.37203 0.0
C853 C 0.7594 0.47684 0.35066 0.0
C854 C 0.70807 0.47739 0.34512 0.0
C855 C 0.7354 0.47821 0.334 0.0
H856 H 0.68987 0.48063 0.33211 0.0
H857 H 0.73794 0.48054 0.3126 0.0
H858 H 0.59026 0.3158 0.42548 0.0
H859 H 0.66948 0.46889 0.45965 0.0
H860 H 0.54111 0.30814 0.44233 0.0
H861 H 0.78044 0.47787 0.34192 0.0
H862 H 0.80113 0.47427 0.38829 0.0
H863 H 0.61816 0.33389 0.29972 0.0
H864 H 0.75967 0.47029 0.47545 0.0
H865 H 0.7097 0.46852 0.49168 0.0
H866 H 0.48256 0.31203 0.36345 0.0
H867 H 0.79358 0.47256 0.43671 0.0
H868 H 0.52925 0.32777 0.27893 0.0
H869 H 0.58005 0.3342 0.26546 0.0
N870 N 0.58919 0.33193 0.33222 0.0
C871 C 0.56147 0.32721 0.34009 0.0
C872 C 0.59604 0.33369 0.30581 0.0
C873 C 0.54588 0.3289 0.29407 0.0
C874 C 0.57452 0.33273 0.28637 0.0
C875 C 0.53905 0.32561 0.32117 0.0
H876 H 0.49312 0.31898 0.31558 0.0
N877 N 0.57754 0.32591 0.38505 0.0
C878 C 0.55548 0.32342 0.3672 0.0
C879 C 0.52181 0.31325 0.40329 0.0
C880 C 0.52697 0.3178 0.37592 0.0
C881 C 0.57274 0.31856 0.41161 0.0
C882 C 0.54482 0.31313 0.42118 0.0
O883 O 0.68679 0.39029 0.39105 0.0
O884 O 0.66867 0.34763 0.35372 0.0
O885 O 0.63236 0.24843 0.3842 0.0
O886 O 0.61833 0.25466 0.34317 0.0
O887 O 0.63727 0.47842 0.35442 0.0
O888 O 0.64323 0.38994 0.33464 0.0
O889 O 0.59456 0.41062 0.37141 0.0
O890 O 0.61391 0.46644 0.40519 0.0
O891 O 0.66025 0.5594 0.37534 0.0
O892 O 0.6641 0.55073 0.4182 0.0
O893 O 0.64074 0.33301 0.40958 0.0
O894 O 0.63628 0.42681 0.42477 0.0
C895 C 0.68942 0.35366 0.37111 0.0
C896 C 0.63838 0.44607 0.33309 0.0
C897 C 0.64433 0.17145 0.35509 0.0
C898 C 0.65251 0.06739 0.35602 0.0
C899 C 0.68299 0.12985 0.32939 0.0
C900 C 0.66718 0.17796 0.33737 0.0
C901 C 0.67569 0.07484 0.33855 0.0
C902 C 0.63716 0.11631 0.36446 0.0
C903 C 0.62612 0.22049 0.36238 0.0
C904 C 0.5046 0.31641 0.35711 0.0
C905 C 0.51062 0.32036 0.32984 0.0
H906 H 0.5002 0.30879 0.41078 0.0
C907 C 0.59236 0.45035 0.38993 0.0
C908 C 0.63868 0.37124 0.42908 0.0
C909 C 0.64073 0.63353 0.40169 0.0
C910 C 0.63031 0.73673 0.39826 0.0
C911 C 0.5958 0.67086 0.41831 0.0
C912 C 0.61412 0.62436 0.41377 0.0
C913 C 0.60391 0.72669 0.41099 0.0
C914 C 0.64843 0.68918 0.39343 0.0
C915 C 0.66116 0.58604 0.3982 0.0
H916 H 0.70055 0.13502 0.3156 0.0
H917 H 0.67227 0.21993 0.32928 0.0
H918 H 0.68768 0.03802 0.33134 0.0
H919 H 0.61929 0.1115 0.37801 0.0
H920 H 0.57542 0.66379 0.42797 0.0
H921 H 0.60771 0.58152 0.42002 0.0
H922 H 0.5896 0.7619 0.41582 0.0
H923 H 0.66866 0.695 0.3833 0.0
C924 C 0.31287 0.52043 0.42112 0.0
C925 C 0.27806 0.5048 0.38567 0.0
C926 C 0.30638 0.51642 0.39401 0.0
C927 C 0.25662 0.49624 0.40477 0.0
C928 C 0.29133 0.51228 0.44032 0.0
C929 C 0.26325 0.49977 0.43199 0.0
N930 N 0.34 0.53441 0.4287 0.0
C931 C 0.34729 0.53992 0.45489 0.0
C932 C 0.29863 0.5176 0.46733 0.0
C933 C 0.32676 0.53132 0.47462 0.0
Gd934 Gd 0.39375 0.69586 0.36382 0.0
Gd935 Gd 0.3731 0.5431 0.3945 0.0
N936 N 0.32748 0.52618 0.37587 0.0
C937 C 0.27203 0.50255 0.35834 0.0
C938 C 0.32184 0.52172 0.34924 0.0
C939 C 0.29406 0.51078 0.34008 0.0
H940 H 0.33847 0.52539 0.33479 0.0
H941 H 0.28973 0.50806 0.3189 0.0
H942 H 0.425 0.73559 0.42264 0.0
H943 H 0.36914 0.54953 0.46055 0.0
H944 H 0.47298 0.75699 0.43965 0.0
H945 H 0.25052 0.49401 0.35115 0.0
H946 H 0.23478 0.48711 0.39869 0.0
H947 H 0.40016 0.68638 0.29757 0.0
H948 H 0.28273 0.51129 0.4827 0.0
H949 H 0.33277 0.53485 0.49539 0.0
H950 H 0.53199 0.75775 0.36184 0.0
H951 H 0.24641 0.49331 0.44645 0.0
H952 H 0.48755 0.71934 0.27742 0.0
H953 H 0.43802 0.69498 0.26373 0.0
N954 N 0.42814 0.70359 0.33019 0.0
C955 C 0.45505 0.71839 0.33811 0.0
C956 C 0.42181 0.6957 0.30385 0.0
C957 C 0.47105 0.71517 0.2924 0.0
C958 C 0.44315 0.7012 0.28459 0.0
C959 C 0.47731 0.72401 0.31941 0.0
H960 H 0.52241 0.74252 0.31412 0.0
N961 N 0.43846 0.72099 0.38271 0.0
C962 C 0.4604 0.7271 0.36511 0.0
C963 C 0.49285 0.75095 0.40115 0.0
C964 C 0.48823 0.74158 0.37394 0.0
C965 C 0.44258 0.73391 0.409 0.0
C966 C 0.46984 0.74777 0.41869 0.0
O967 O 0.33958 0.6153 0.39719 0.0
O968 O 0.3483 0.66536 0.35912 0.0
O969 O 0.38571 0.78387 0.3771 0.0
O970 O 0.38032 0.76122 0.33556 0.0
O971 O 0.38899 0.5431 0.35238 0.0
O972 O 0.37673 0.63071 0.33357 0.0
O973 O 0.42783 0.62653 0.36258 0.0
O974 O 0.41928 0.57153 0.39971 0.0
O975 O 0.37942 0.45578 0.37962 0.0
O976 O 0.38505 0.47465 0.42164 0.0
O977 O 0.38024 0.69193 0.40782 0.0
O978 O 0.39669 0.60315 0.42166 0.0
C979 C 0.33176 0.65418 0.37941 0.0
C980 C 0.38532 0.57647 0.33151 0.0
C981 C 0.39569 0.85614 0.3452 0.0
C982 C 0.39896 0.9611 0.34804 0.0
C983 C 0.42981 0.90792 0.31781 0.0
C984 C 0.41741 0.85614 0.32595 0.0
C985 C 0.42054 0.96016 0.32858 0.0
C986 C 0.38685 0.90855 0.35643 0.0
C987 C 0.381 0.80265 0.35301 0.0
C988 C 0.51049 0.74674 0.35538 0.0
C989 C 0.50503 0.73812 0.3282 0.0
H990 H 0.51393 0.76203 0.40872 0.0
C991 C 0.43637 0.58953 0.38073 0.0
C992 C 0.3876 0.65533 0.42689 0.0
C993 C 0.36979 0.38068 0.41023 0.0
C994 C 0.36742 0.27599 0.40579 0.0
C995 C 0.33675 0.32581 0.4374 0.0
C996 C 0.34846 0.37861 0.42982 0.0
C997 C 0.34628 0.27474 0.42568 0.0
C998 C 0.37892 0.32948 0.39805 0.0
C999 C 0.3842 0.43491 0.40335 0.0
H1000 H 0.44632 0.90766 0.30275 0.0
H1001 H 0.42449 0.8165 0.31679 0.0
H1002 H 0.4299 0.99983 0.32125 0.0
H1003 H 0.37036 0.90821 0.37156 0.0
H1004 H 0.32059 0.32435 0.45277 0.0
H1005 H 0.34124 0.41739 0.43967 0.0
H1006 H 0.33745 0.23421 0.43259 0.0
H1007 H 0.39517 0.33146 0.38272 0.0
C1008 C 0.45005 0.28529 0.83194 0.0
C1009 C 0.48475 0.25237 0.86478 0.0
C1010 C 0.45731 0.27391 0.85825 0.0
C1011 C 0.50482 0.24301 0.84451 0.0
C1012 C 0.46992 0.27439 0.81144 0.0
C1013 C 0.49743 0.254 0.81791 0.0
N1014 N 0.42326 0.30491 0.82627 0.0
C1015 C 0.41422 0.30934 0.8004 0.0
C1016 C 0.46134 0.28297 0.78498 0.0
C1017 C 0.43322 0.29966 0.77943 0.0
Gd1018 Gd 0.36732 0.47353 0.89355 0.0
Gd1019 Gd 0.39306 0.3205 0.86299 0.0
N1020 N 0.4377 0.28484 0.87753 0.0
C1021 C 0.49124 0.24096 0.89152 0.0
C1022 C 0.44352 0.27122 0.90349 0.0
C1023 C 0.47041 0.24992 0.91091 0.0
H1024 H 0.42747 0.27568 0.9186 0.0
H1025 H 0.47496 0.23994 0.93158 0.0
H1026 H 0.33526 0.48521 0.83141 0.0
H1027 H 0.39212 0.31933 0.79583 0.0
H1028 H 0.28731 0.49664 0.81326 0.0
H1029 H 0.51207 0.22444 0.89734 0.0
H1030 H 0.52605 0.22682 0.84918 0.0
H1031 H 0.35857 0.45096 0.95836 0.0
H1032 H 0.47597 0.2751 0.76869 0.0
H1033 H 0.42604 0.30434 0.759 0.0
H1034 H 0.22644 0.49571 0.88958 0.0
H1035 H 0.513 0.24577 0.80243 0.0
H1036 H 0.26886 0.46024 0.97509 0.0
H1037 H 0.31854 0.44222 0.99021 0.0
N1038 N 0.33128 0.46636 0.9252 0.0
C1039 C 0.30414 0.47589 0.91622 0.0
C1040 C 0.33679 0.45626 0.95147 0.0
C1041 C 0.28623 0.46261 0.96091 0.0
C1042 C 0.31428 0.45282 0.9696 0.0
C1043 C 0.28084 0.47425 0.93395 0.0
H1044 H 0.23477 0.48175 0.93753 0.0
N1045 N 0.3223 0.48132 0.87196 0.0
C1046 C 0.29951 0.48336 0.88891 0.0
C1047 C 0.267 0.49502 0.8516 0.0
C1048 C 0.2713 0.48998 0.87908 0.0
C1049 C 0.31797 0.48622 0.84511 0.0
C1050 C 0.29042 0.49294 0.83458 0.0
O1051 O 0.43049 0.37803 0.87261 0.0
O1052 O 0.41523 0.47024 0.88519 0.0
O1053 O 0.36203 0.56616 0.88582 0.0
O1054 O 0.37669 0.53478 0.92487 0.0
O1055 O 0.38361 0.32721 0.9081 0.0
O1056 O 0.3959 0.42067 0.91984 0.0
O1057 O 0.34046 0.39242 0.89908 0.0
O1058 O 0.34851 0.35588 0.85849 0.0
O1059 O 0.38395 0.23425 0.87855 0.0
O1060 O 0.37385 0.25522 0.83769 0.0
O1061 O 0.38238 0.48059 0.85156 0.0
O1062 O 0.38578 0.39052 0.83094 0.0
C1063 C 0.43534 0.43247 0.8787 0.0
C1064 C 0.39219 0.36614 0.92585 0.0
C1065 C 0.37114 0.63798 0.92058 0.0
C1066 C 0.37644 0.74178 0.91435 0.0
C1067 C 0.36678 0.70277 0.95833 0.0
C1068 C 0.36662 0.64705 0.94788 0.0
C1069 C 0.37154 0.74992 0.94169 0.0
C1070 C 0.37625 0.68551 0.90377 0.0
C1071 C 0.36994 0.57886 0.91005 0.0
C1072 C 0.24818 0.49036 0.89685 0.0
C1073 C 0.25292 0.48247 0.92418 0.0
H1074 H 0.24566 0.50004 0.84331 0.0
C1075 C 0.33254 0.35817 0.87968 0.0
C1076 C 0.38613 0.44793 0.83045 0.0
C1077 C 0.38971 0.1598 0.84628 0.0
C1078 C 0.39438 0.05452 0.8498 0.0
C1079 C 0.41816 0.10663 0.81411 0.0
C1080 C 0.40713 0.15852 0.82356 0.0
C1081 C 0.41156 0.05496 0.82682 0.0
C1082 C 0.38385 0.10776 0.85961 0.0
C1083 C 0.37629 0.21436 0.85532 0.0
H1084 H 0.3632 0.70943 0.97939 0.0
H1085 H 0.3626 0.61103 0.96113 0.0
H1086 H 0.37183 0.79287 0.95026 0.0
H1087 H 0.3799 0.67889 0.88267 0.0
H1088 H 0.43129 0.10632 0.79639 0.0
H1089 H 0.41177 0.19716 0.81253 0.0
H1090 H 0.41938 0.01531 0.81807 0.0
H1091 H 0.37084 0.10907 0.8774 0.0
C1092 C 0.56575 0.70861 0.83932 0.0
C1093 C 0.53144 0.73479 0.87343 0.0
C1094 C 0.55939 0.71894 0.86586 0.0
C1095 C 0.50953 0.73613 0.85416 0.0
C1096 C 0.54413 0.71314 0.81969 0.0
C1097 C 0.51584 0.72509 0.82735 0.0
N1098 N 0.59352 0.69984 0.83244 0.0
C1099 C 0.60146 0.7014 0.80632 0.0
C1100 C 0.55186 0.70869 0.79284 0.0
C1101 C 0.58075 0.70394 0.78612 0.0
Gd1102 Gd 0.65823 0.5444 0.8947 0.0
Gd1103 Gd 0.62644 0.69425 0.86788 0.0
N1104 N 0.58101 0.71746 0.88404 0.0
C1105 C 0.52662 0.75108 0.89992 0.0
C1106 C 0.57694 0.73712 0.90942 0.0
C1107 C 0.54959 0.7532 0.91789 0.0
H1108 H 0.59476 0.73979 0.92316 0.0
H1109 H 0.54628 0.76738 0.93819 0.0
H1110 H 0.68638 0.50984 0.83423 0.0
H1111 H 0.62387 0.70204 0.80109 0.0
H1112 H 0.73363 0.49525 0.81454 0.0
H1113 H 0.50547 0.76377 0.90649 0.0
H1114 H 0.48783 0.74755 0.85963 0.0
H1115 H 0.67017 0.57263 0.95926 0.0
H1116 H 0.53589 0.71189 0.77716 0.0
H1117 H 0.58714 0.70361 0.76542 0.0
H1118 H 0.799 0.52776 0.88687 0.0
H1119 H 0.49891 0.72829 0.81257 0.0
H1120 H 0.76063 0.58055 0.97172 0.0
H1121 H 0.71147 0.59464 0.9883 0.0
N1122 N 0.69569 0.55866 0.92494 0.0
C1123 C 0.72254 0.5502 0.91528 0.0
C1124 C 0.69147 0.5709 0.95118 0.0
C1125 C 0.74258 0.57357 0.95845 0.0
C1126 C 0.71483 0.58095 0.96801 0.0
C1127 C 0.74673 0.55725 0.9319 0.0
H1128 H 0.79305 0.55386 0.93397 0.0
N1129 N 0.70216 0.53146 0.87262 0.0
C1130 C 0.72586 0.53604 0.88848 0.0
C1131 C 0.75628 0.51309 0.85109 0.0
C1132 C 0.75354 0.52758 0.87801 0.0
C1133 C 0.7048 0.51623 0.8465 0.0
C1134 C 0.73178 0.50714 0.83532 0.0
O1135 O 0.59622 0.63408 0.88921 0.0
O1136 O 0.61214 0.54262 0.87965 0.0
O1137 O 0.66839 0.45356 0.88961 0.0
O1138 O 0.64705 0.4825 0.92541 0.0
O1139 O 0.64256 0.68879 0.91109 0.0
O1140 O 0.63325 0.59548 0.92489 0.0
O1141 O 0.68444 0.6277 0.89344 0.0
O1142 O 0.67012 0.66766 0.85426 0.0
O1143 O 0.64692 0.76943 0.8855 0.0
O1144 O 0.62252 0.77845 0.84897 0.0
O1145 O 0.64024 0.53921 0.85331 0.0
O1146 O 0.63932 0.63079 0.8342 0.0
C1147 C 0.59126 0.57926 0.88461 0.0
C1148 C 0.63664 0.65082 0.92995 0.0
C1149 C 0.63491 0.38972 0.90841 0.0
C1150 C 0.62646 0.28708 0.89897 0.0
C1151 C 0.58685 0.35062 0.911 0.0
C1152 C 0.60553 0.39737 0.91299 0.0
C1153 C 0.59717 0.29585 0.90445 0.0
C1154 C 0.64513 0.33498 0.90085 0.0
C1155 C 0.65522 0.43822 0.91125 0.0
C1156 C 0.77762 0.53389 0.89463 0.0
C1157 C 0.77423 0.54877 0.92146 0.0
H1158 H 0.77716 0.50612 0.84234 0.0
C1159 C 0.69011 0.65795 0.87199 0.0
C1160 C 0.63868 0.5734 0.83242 0.0
C1161 C 0.65454 0.85406 0.85993 0.0
C1162 C 0.66029 0.95876 0.85824 0.0
C1163 C 0.69796 0.89516 0.84198 0.0
C1164 C 0.68161 0.84675 0.84857 0.0
C1165 C 0.68733 0.95074 0.84664 0.0
C1166 C 0.64393 0.90987 0.8647 0.0
C1167 C 0.63686 0.80475 0.86758 0.0
H1168 H 0.56426 0.35667 0.91488 0.0
H1169 H 0.597 0.43932 0.91828 0.0
H1170 H 0.58209 0.26041 0.90416 0.0
H1171 H 0.66766 0.33026 0.89633 0.0
H1172 H 0.71887 0.88965 0.83312 0.0
H1173 H 0.68999 0.8039 0.84481 0.0
H1174 H 0.69996 0.98762 0.84076 0.0
H1175 H 0.62311 0.91513 0.8739 0.0
C1176 C 0.45423 0.71355 0.68092 0.0
C1177 C 0.4916 0.74415 0.65055 0.0
C1178 C 0.46316 0.72667 0.65529 0.0
C1179 C 0.51152 0.74375 0.67161 0.0
C1180 C 0.47378 0.71671 0.7024 0.0
C1181 C 0.50266 0.72975 0.69746 0.0
N1182 N 0.42589 0.70394 0.68519 0.0
C1183 C 0.41536 0.70433 0.71054 0.0
C1184 C 0.46342 0.7101 0.72835 0.0
C1185 C 0.43397 0.70518 0.73245 0.0
Gd1186 Gd 0.36625 0.54752 0.62198 0.0
Gd1187 Gd 0.39698 0.69972 0.64664 0.0
N1188 N 0.44348 0.72654 0.63529 0.0
C1189 C 0.49887 0.76353 0.625 0.0
C1190 C 0.44988 0.74859 0.61078 0.0
C1191 C 0.47778 0.76665 0.60514 0.0
H1192 H 0.43351 0.7515 0.59554 0.0
H1193 H 0.483 0.78282 0.58553 0.0
H1194 H 0.34338 0.52183 0.68544 0.0
H1195 H 0.39253 0.7047 0.7139 0.0
H1196 H 0.29797 0.52208 0.70965 0.0
H1197 H 0.52047 0.77751 0.62059 0.0
H1198 H 0.53359 0.75612 0.66828 0.0
H1199 H 0.34959 0.5653 0.55794 0.0
H1200 H 0.47776 0.71207 0.74538 0.0
H1201 H 0.42553 0.70343 0.75249 0.0
H1202 H 0.22688 0.54916 0.64154 0.0
H1203 H 0.51804 0.73176 0.71369 0.0
H1204 H 0.2582 0.57169 0.55137 0.0
H1205 H 0.30585 0.57601 0.53034 0.0
N1206 N 0.32663 0.55855 0.59424 0.0
C1207 C 0.30069 0.55468 0.60629 0.0
C1208 C 0.32883 0.56471 0.56732 0.0
C1209 C 0.27727 0.56751 0.56362 0.0
C1210 C 0.30417 0.56997 0.55163 0.0
C1211 C 0.27526 0.55975 0.59124 0.0
H1212 H 0.22893 0.56155 0.59293 0.0
N1213 N 0.32465 0.54354 0.64807 0.0
C1214 C 0.29967 0.54786 0.63392 0.0
C1215 C 0.27249 0.53785 0.6745 0.0
C1216 C 0.27296 0.54567 0.64687 0.0
C1217 C 0.32414 0.53203 0.67472 0.0
C1218 C 0.29818 0.53035 0.68842 0.0
O1219 O 0.42937 0.64148 0.62651 0.0
O1220 O 0.41402 0.54692 0.63129 0.0
O1221 O 0.35672 0.45757 0.63079 0.0
O1222 O 0.37249 0.4817 0.5919 0.0
O1223 O 0.38817 0.69041 0.60169 0.0
O1224 O 0.39021 0.59286 0.58966 0.0
O1225 O 0.34246 0.63332 0.61719 0.0
O1226 O 0.35156 0.67672 0.65653 0.0
O1227 O 0.37426 0.77328 0.62926 0.0
O1228 O 0.40202 0.78496 0.6635 0.0
O1229 O 0.38938 0.54627 0.66112 0.0
O1230 O 0.38169 0.63635 0.67888 0.0
C1231 C 0.43441 0.58558 0.62765 0.0
C1232 C 0.39091 0.64829 0.58395 0.0
C1233 C 0.38668 0.39052 0.609 0.0
C1234 C 0.39677 0.28979 0.61983 0.0
C1235 C 0.43293 0.34846 0.59829 0.0
C1236 C 0.4144 0.39577 0.59844 0.0
C1237 C 0.4241 0.29554 0.60868 0.0
C1238 C 0.37812 0.33748 0.62012 0.0
C1239 C 0.36636 0.43937 0.608 0.0
C1240 C 0.24757 0.55077 0.63188 0.0
C1241 C 0.24872 0.55768 0.60418 0.0
H1242 H 0.2524 0.53604 0.68517 0.0
C1243 C 0.33412 0.66763 0.63652 0.0
C1244 C 0.38923 0.58156 0.68151 0.0
C1245 C 0.36819 0.85799 0.65557 0.0
C1246 C 0.36046 0.9622 0.65607 0.0
C1247 C 0.33469 0.89965 0.68675 0.0
C1248 C 0.34833 0.85119 0.67612 0.0
C1249 C 0.341 0.95487 0.67709 0.0
C1250 C 0.37402 0.91318 0.64548 0.0
C1251 C 0.38554 0.80976 0.64604 0.0
H1252 H 0.45415 0.35273 0.58995 0.0
H1253 H 0.42172 0.43625 0.59008 0.0
H1254 H 0.43869 0.25914 0.60825 0.0
H1255 H 0.35685 0.33295 0.62845 0.0
H1256 H 0.31948 0.89454 0.70277 0.0
H1257 H 0.34396 0.80883 0.68429 0.0
H1258 H 0.33046 0.99178 0.68589 0.0
H1259 H 0.38994 0.91804 0.62998 0.0
C1260 C 0.57178 0.29593 0.67873 0.0
C1261 C 0.53687 0.26221 0.64626 0.0
C1262 C 0.56465 0.28208 0.65259 0.0
C1263 C 0.51621 0.258 0.6664 0.0
C1264 C 0.55138 0.28957 0.69917 0.0
C1265 C 0.52343 0.27176 0.69278 0.0
N1266 N 0.599 0.31283 0.68436 0.0
C1267 C 0.60811 0.31647 0.71017 0.0
C1268 C 0.55996 0.29945 0.72555 0.0
C1269 C 0.58864 0.31171 0.73112 0.0
Gd1270 Gd 0.65867 0.47891 0.62541 0.0
Gd1271 Gd 0.62946 0.32315 0.64759 0.0
N1272 N 0.5848 0.28843 0.63332 0.0
C1273 C 0.53058 0.24795 0.61975 0.0
C1274 C 0.57894 0.27368 0.60753 0.0
C1275 C 0.55176 0.25342 0.60035 0.0
H1276 H 0.59517 0.27695 0.59242 0.0
H1277 H 0.54715 0.24208 0.57985 0.0
H1278 H 0.68316 0.52245 0.68448 0.0
H1279 H 0.63056 0.32134 0.71471 0.0
H1280 H 0.72991 0.54257 0.70591 0.0
H1281 H 0.50948 0.23268 0.61406 0.0
H1282 H 0.49465 0.24363 0.66182 0.0
H1283 H 0.67312 0.44657 0.56027 0.0
H1284 H 0.54494 0.29512 0.74182 0.0
H1285 H 0.59589 0.31628 0.75154 0.0
H1286 H 0.7985 0.4998 0.63775 0.0
H1287 H 0.50741 0.26728 0.70819 0.0
H1288 H 0.76379 0.43757 0.55259 0.0
H1289 H 0.71537 0.42566 0.53334 0.0
N1290 N 0.69671 0.45938 0.59629 0.0
C1291 C 0.72324 0.46917 0.607 0.0
C1292 C 0.69378 0.44703 0.56981 0.0
C1293 C 0.74517 0.44419 0.56502 0.0
C1294 C 0.71788 0.43736 0.55407 0.0
C1295 C 0.74814 0.46151 0.5916 0.0
H1296 H 0.79449 0.4665 0.59139 0.0
N1297 N 0.70151 0.49382 0.64827 0.0
C1298 C 0.72566 0.48822 0.63338 0.0
C1299 C 0.75422 0.51884 0.67115 0.0
C1300 C 0.75276 0.49965 0.64469 0.0
C1301 C 0.70263 0.51475 0.67364 0.0
C1302 C 0.72902 0.52677 0.68562 0.0
O1303 O 0.59364 0.38611 0.63893 0.0
O1304 O 0.61038 0.47104 0.61884 0.0
O1305 O 0.65291 0.56742 0.6396 0.0
O1306 O 0.66703 0.55071 0.59929 0.0
O1307 O 0.63799 0.3325 0.60302 0.0
O1308 O 0.63687 0.43066 0.59201 0.0
O1309 O 0.68578 0.41225 0.64799 0.0
O1310 O 0.67027 0.33568 0.62545 0.0
O1311 O 0.63015 0.23138 0.63935 0.0
O1312 O 0.65592 0.26613 0.67179 0.0
O1313 O 0.63149 0.4751 0.66158 0.0
O1314 O 0.64391 0.38826 0.68017 0.0
C1315 C 0.58956 0.43618 0.62689 0.0
C1316 C 0.63447 0.37549 0.58594 0.0
C1317 C 0.64502 0.64124 0.60711 0.0
C1318 C 0.63722 0.74548 0.61132 0.0
C1319 C 0.62323 0.69447 0.57072 0.0
C1320 C 0.63274 0.64246 0.58153 0.0
C1321 C 0.62592 0.74564 0.58518 0.0
C1322 C 0.64648 0.69235 0.62215 0.0
C1323 C 0.66026 0.58967 0.61683 0.0
C1324 C 0.77748 0.49139 0.62937 0.0
C1325 C 0.77518 0.47225 0.60297 0.0
H1326 H 0.77466 0.52813 0.68052 0.0
C1327 C 0.69105 0.3613 0.63787 0.0
C1328 C 0.63648 0.44339 0.68256 0.0
C1329 C 0.64103 0.1673 0.6746 0.0
C1330 C 0.63507 0.06254 0.67509 0.0
C1331 C 0.6361 0.11635 0.71662 0.0
C1332 C 0.63957 0.16794 0.70255 0.0
C1333 C 0.63416 0.06382 0.70303 0.0
C1334 C 0.63839 0.11448 0.66099 0.0
C1335 C 0.64735 0.21984 0.65914 0.0
H1336 H 0.6145 0.69543 0.5507 0.0
H1337 H 0.63143 0.60369 0.56951 0.0
H1338 H 0.61966 0.78536 0.57541 0.0
H1339 H 0.65551 0.69042 0.64206 0.0
H1340 H 0.63517 0.11702 0.73816 0.0
H1341 H 0.64156 0.20796 0.71354 0.0
H1342 H 0.63154 0.02428 0.71429 0.0
H1343 H 0.63967 0.11357 0.63941 0.0
H1344 H 0.20837 0.25951 0.11727 0.0
H1345 H 0.2417 0.12483 0.16778 0.0
H1346 H 0.28771 0.17547 0.1712 0.0
H1347 H 0.31845 0.25941 0.16013 0.0
H1348 H 0.28547 0.39174 0.10802 0.0
H1349 H 0.23949 0.34243 0.1056 0.0
C1350 C 0.22576 0.24156 0.12909 0.0
C1351 C 0.22171 0.1887 0.1424 0.0
C1352 C 0.25217 0.27118 0.131 0.0
C1353 C 0.24434 0.16559 0.15751 0.0
C1354 C 0.27064 0.19462 0.15946 0.0
C1355 C 0.3012 0.27751 0.14837 0.0
C1356 C 0.30557 0.33001 0.13469 0.0
C1357 C 0.27481 0.24768 0.14641 0.0
C1358 C 0.2829 0.35214 0.11914 0.0
C1359 C 0.25648 0.32362 0.11758 0.0
H1360 H 0.78771 0.85107 0.16588 0.0
H1361 H 0.83087 0.7698 0.1003 0.0
H1362 H 0.79046 0.70292 0.09423 0.0
H1363 H 0.74185 0.66761 0.10754 0.0
H1364 H 0.69994 0.75054 0.17372 0.0
H1365 H 0.73973 0.81684 0.17881 0.0
C1366 C 0.78826 0.81856 0.15033 0.0
C1367 C 0.81243 0.81512 0.13375 0.0
C1368 C 0.76466 0.78083 0.14667 0.0
C1369 C 0.8126 0.77326 0.11341 0.0
C1370 C 0.7894 0.73503 0.10991 0.0
C1371 C 0.74137 0.7003 0.123 0.0
C1372 C 0.71722 0.70405 0.1399 0.0
C1373 C 0.76512 0.73836 0.12637 0.0
C1374 C 0.71756 0.74662 0.15999 0.0
C1375 C 0.74063 0.78465 0.16315 0.0
H1376 H 0.31214 0.74989 0.35217 0.0
H1377 H 0.28868 0.63111 0.4146 0.0
H1378 H 0.2433 0.68115 0.42035 0.0
H1379 H 0.21002 0.75961 0.4083 0.0
H1380 H 0.23345 0.88056 0.34688 0.0
H1381 H 0.27894 0.82997 0.34059 0.0
C1382 C 0.29705 0.73469 0.36694 0.0
C1383 C 0.30389 0.68566 0.38256 0.0
C1384 C 0.27093 0.76477 0.37061 0.0
C1385 C 0.2841 0.66771 0.40192 0.0
C1386 C 0.25803 0.69668 0.40535 0.0
C1387 C 0.22502 0.7749 0.39347 0.0
C1388 C 0.21823 0.82437 0.37824 0.0
C1389 C 0.25118 0.74529 0.38987 0.0
C1390 C 0.23812 0.84333 0.35919 0.0
C1391 C 0.26414 0.81405 0.35545 0.0
H1392 H 0.79338 0.18972 0.34019 0.0
H1393 H 0.82028 0.23329 0.41989 0.0
H1394 H 0.77891 0.29762 0.42474 0.0
H1395 H 0.73366 0.33845 0.40696 0.0
H1396 H 0.70643 0.29278 0.32744 0.0
H1397 H 0.74843 0.23132 0.32226 0.0
C1398 C 0.7902 0.21367 0.35851 0.0
C1399 C 0.80992 0.20711 0.37958 0.0
C1400 C 0.76587 0.24942 0.36142 0.0
C1401 C 0.80534 0.23759 0.40341 0.0
C1402 C 0.78167 0.27437 0.40619 0.0
C1403 C 0.73699 0.31539 0.38842 0.0
C1404 C 0.71639 0.31954 0.36781 0.0
C1405 C 0.76157 0.28025 0.38543 0.0
C1406 C 0.72135 0.28938 0.34394 0.0
C1407 C 0.74561 0.25452 0.34082 0.0
H1408 H 0.70898 0.74942 0.90117 0.0
H1409 H 0.73281 0.63511 0.83739 0.0
H1410 H 0.77903 0.68422 0.83326 0.0
H1411 H 0.81237 0.76089 0.84735 0.0
H1412 H 0.78873 0.87446 0.91159 0.0
H1413 H 0.74241 0.82725 0.91492 0.0
C1414 C 0.72442 0.7354 0.88644 0.0
C1415 C 0.71779 0.68845 0.86972 0.0
C1416 C 0.75075 0.76472 0.88384 0.0
C1417 C 0.73765 0.67094 0.85051 0.0
C1418 C 0.76403 0.69911 0.84813 0.0
C1419 C 0.79731 0.77501 0.86225 0.0
C1420 C 0.80438 0.82173 0.87905 0.0
C1421 C 0.77083 0.74619 0.86464 0.0
C1422 C 0.78405 0.83963 0.89798 0.0
C1423 C 0.7575 0.81202 0.90015 0.0
H1424 H 0.29682 0.3163 0.8408 0.0
H1425 H 0.31033 0.31578 0.92582 0.0
H1426 H 0.26835 0.25388 0.93168 0.0
H1427 H 0.22686 0.20077 0.91267 0.0
H1428 H 0.21078 0.20985 0.82808 0.0
H1429 H 0.25428 0.26686 0.82206 0.0
C1430 C 0.29064 0.3023 0.86057 0.0
C1431 C 0.30698 0.32014 0.88279 0.0
C1432 C 0.2658 0.26814 0.8639 0.0
C1433 C 0.29828 0.30256 0.90834 0.0
C1434 C 0.27423 0.26707 0.91172 0.0
C1435 C 0.23296 0.21506 0.89292 0.0
C1436 C 0.21552 0.20071 0.87084 0.0
C1437 C 0.2577 0.24964 0.88966 0.0
C1438 C 0.22367 0.22023 0.84544 0.0
C1439 C 0.24863 0.25289 0.84196 0.0
H1440 H 0.70934 0.2641 0.61276 0.0
H1441 H 0.73628 0.39059 0.67068 0.0
H1442 H 0.78261 0.3417 0.6753 0.0
H1443 H 0.81549 0.26095 0.66329 0.0
H1444 H 0.78759 0.1369 0.6044 0.0
H1445 H 0.7418 0.18562 0.60041 0.0
C1446 C 0.72527 0.28106 0.62648 0.0
C1447 C 0.71927 0.33152 0.64116 0.0
C1448 C 0.75178 0.25239 0.62918 0.0
C1449 C 0.74035 0.35254 0.65878 0.0
C1450 C 0.76685 0.32423 0.66157 0.0
C1451 C 0.79937 0.24448 0.64964 0.0
C1452 C 0.80514 0.19427 0.63452 0.0
C1453 C 0.77284 0.27386 0.64692 0.0
C1454 C 0.78394 0.17448 0.61668 0.0
C1455 C 0.7576 0.20268 0.61423 0.0
H1456 H 0.22181 0.80585 0.6021 0.0
H1457 H 0.2221 0.84814 0.68569 0.0
H1458 H 0.26668 0.79387 0.69201 0.0
H1459 H 0.30517 0.7315 0.67404 0.0
H1460 H 0.30303 0.68442 0.59089 0.0
H1461 H 0.25968 0.74156 0.58436 0.0
C1462 C 0.23168 0.80311 0.62168 0.0
C1463 C 0.21857 0.83098 0.64342 0.0
C1464 C 0.25696 0.77016 0.62534 0.0
C1465 C 0.23156 0.82669 0.66869 0.0
C1466 C 0.25712 0.79569 0.6723 0.0
C1467 C 0.29532 0.73399 0.65447 0.0
C1468 C 0.30761 0.70346 0.63303 0.0
C1469 C 0.26996 0.76677 0.65083 0.0
C1470 C 0.29418 0.70695 0.60787 0.0
C1471 C 0.26932 0.73997 0.60404 0.0
H1472 H 0.1475 0.89579 0.28341 0.0
H1473 H 0.12656 0.05288 0.32566 0.0
H1474 H 0.12788 0.10704 0.28469 0.0
H1475 H 0.13554 0.11163 0.23659 0.0
H1476 H 0.14855 0.95292 0.19314 0.0
H1477 H 0.14919 0.89874 0.23436 0.0
C1478 C 0.14251 0.94138 0.28371 0.0
C1479 C 0.13682 0.96919 0.30799 0.0
C1480 C 0.14204 0.97291 0.25961 0.0
C1481 C 0.13113 0.02927 0.30756 0.0
C1482 C 0.13183 0.06091 0.28398 0.0
C1483 C 0.1382 0.06533 0.23596 0.0
C1484 C 0.14284 0.03752 0.21153 0.0
C1485 C 0.13731 0.03335 0.25983 0.0
C1486 C 0.14592 0.97672 0.21154 0.0
C1487 C 0.1461 0.9451 0.23521 0.0
H1488 H 0.90299 0.11177 0.28252 0.0
H1489 H 0.86964 0.96383 0.32448 0.0
H1490 H 0.86716 0.90972 0.28349 0.0
H1491 H 0.87278 0.90348 0.23467 0.0
H1492 H 0.91081 0.04769 0.19346 0.0
H1493 H 0.91346 0.10227 0.23465 0.0
C1494 C 0.89528 0.06797 0.28289 0.0
C1495 C 0.88612 0.04355 0.30706 0.0
C1496 C 0.89479 0.03526 0.259 0.0
C1497 C 0.8767 0.98531 0.30652 0.0
C1498 C 0.87523 0.95358 0.28289 0.0
C1499 C 0.88215 0.94629 0.23478 0.0
C1500 C 0.89116 0.97115 0.2107 0.0
C1501 C 0.88411 0.97796 0.25888 0.0
C1502 C 0.90313 0.02725 0.21148 0.0
C1503 C 0.90471 0.05892 0.23514 0.0
H1504 H 0.86981 0.98071 0.70669 0.0
H1505 H 0.88918 0.15125 0.73643 0.0
H1506 H 0.89223 0.11412 0.78138 0.0
H1507 H 0.8887 0.03402 0.81254 0.0
H1508 H 0.86387 0.86495 0.78436 0.0
H1509 H 0.86334 0.90106 0.73849 0.0
C1510 C 0.8746 1.01015 0.72291 0.0
C1511 C 0.88009 0.06915 0.71765 0.0
C1512 C 0.87518 0.98862 0.74912 0.0
C1513 C 0.88591 0.10586 0.73927 0.0
C1514 C 0.88732 0.08455 0.76525 0.0
C1515 C 0.8831 1.00471 0.79648 0.0
C1516 C 0.87674 0.9464 0.80199 0.0
C1517 C 0.88201 0.02607 0.77037 0.0
C1518 C 0.86935 0.90969 0.78075 0.0
C1519 C 0.86889 0.93043 0.75452 0.0
H1520 H 0.14214 0.12659 0.78365 0.0
H1521 H 0.12644 0.96604 0.82501 0.0
H1522 H 0.12524 0.91438 0.78323 0.0
H1523 H 0.13059 0.91277 0.73489 0.0
H1524 H 0.14292 0.07313 0.69264 0.0
H1525 H 0.14304 0.12587 0.73442 0.0
C1526 C 0.13792 0.08063 0.78354 0.0
C1527 C 0.13453 0.05092 0.80775 0.0
C1528 C 0.13674 0.05042 0.75909 0.0
C1529 C 0.12942 0.99077 0.80693 0.0
C1530 C 0.12866 0.96069 0.78291 0.0
C1531 C 0.13287 0.95914 0.73463 0.0
C1532 C 0.13693 0.98809 0.71037 0.0
C1533 C 0.13258 0.98984 0.75885 0.0
C1534 C 0.14002 0.04882 0.71087 0.0
C1535 C 0.14009 0.07945 0.73486 0.0
H1536 H 0.6482 0.40545 0.28235 0.0
H1537 H 0.62265 0.55825 0.32544 0.0
H1538 H 0.62102 0.61326 0.28431 0.0
H1539 H 0.62793 0.61938 0.23575 0.0
H1540 H 0.65053 0.46412 0.19284 0.0
H1541 H 0.65152 0.40992 0.23372 0.0
C1542 C 0.6417 0.45035 0.28275 0.0
C1543 C 0.63556 0.47702 0.30715 0.0
C1544 C 0.6403 0.48215 0.25882 0.0
C1545 C 0.62773 0.53601 0.30708 0.0
C1546 C 0.62672 0.5679 0.28346 0.0
C1547 C 0.63294 0.57389 0.2352 0.0
C1548 C 0.63938 0.54714 0.21081 0.0
C1549 C 0.63319 0.54165 0.25913 0.0
C1550 C 0.64562 0.48724 0.211 0.0
C1551 C 0.64624 0.45549 0.23455 0.0
H1552 H 0.36521 0.61016 0.28211 0.0
H1553 H 0.41356 0.47608 0.32173 0.0
H1554 H 0.41616 0.42126 0.28054 0.0
H1555 H 0.40407 0.40999 0.2331 0.0
H1556 H 0.35878 0.54739 0.19288 0.0
H1557 H 0.35548 0.60084 0.23406 0.0
C1558 C 0.37659 0.56934 0.28167 0.0
C1559 C 0.38884 0.54743 0.3052 0.0
C1560 C 0.37826 0.5376 0.2577 0.0
C1561 C 0.40347 0.49407 0.30409 0.0
C1562 C 0.40502 0.46236 0.28046 0.0
C1563 C 0.39325 0.45096 0.23321 0.0
C1564 C 0.38131 0.473 0.20954 0.0
C1565 C 0.39218 0.48324 0.25712 0.0
C1566 C 0.36797 0.5279 0.21058 0.0
C1567 C 0.36613 0.55923 0.23425 0.0
H1568 H 0.40381 0.41238 0.78006 0.0
H1569 H 0.37125 0.56086 0.8221 0.0
H1570 H 0.36958 0.61543 0.78102 0.0
H1571 H 0.37466 0.62055 0.73215 0.0
H1572 H 0.41206 0.47546 0.69096 0.0
H1573 H 0.41377 0.42073 0.73215 0.0
C1574 C 0.39621 0.45625 0.78039 0.0
C1575 C 0.38699 0.48082 0.80452 0.0
C1576 C 0.39597 0.48876 0.75649 0.0
C1577 C 0.37816 0.53935 0.80409 0.0
C1578 C 0.37715 0.57119 0.78043 0.0
C1579 C 0.38404 0.57782 0.73222 0.0
C1580 C 0.39328 0.55299 0.70814 0.0
C1581 C 0.38576 0.54634 0.75637 0.0
C1582 C 0.40455 0.49631 0.70894 0.0
C1583 C 0.4056 0.46455 0.73262 0.0
H1584 H 0.63168 0.61659 0.78068 0.0
H1585 H 0.64314 0.45704 0.8241 0.0
H1586 H 0.64572 0.40392 0.78283 0.0
H1587 H 0.64598 0.40159 0.73391 0.0
H1588 H 0.62464 0.55737 0.69084 0.0
H1589 H 0.62463 0.61183 0.73202 0.0
C1590 C 0.63425 0.57037 0.78136 0.0
C1591 C 0.63777 0.54223 0.80604 0.0
C1592 C 0.63405 0.53852 0.75726 0.0
C1593 C 0.6409 0.48134 0.80576 0.0
C1594 C 0.64235 0.45022 0.78199 0.0
C1595 C 0.64052 0.44687 0.73339 0.0
C1596 C 0.63521 0.47428 0.70885 0.0
C1597 C 0.63906 0.47823 0.75752 0.0
C1598 C 0.62898 0.53412 0.70914 0.0
C1599 C 0.62893 0.56585 0.73284 0.0
H1600 H 0.16094 0.20937 0.96917 0.0
H1601 H 0.09212 0.08689 0.96024 0.0
H1602 H 0.08564 0.08355 0.00825 0.0
H1603 H 0.10291 0.10651 0.05283 0.0
H1604 H 0.17162 0.22846 0.06357 0.0
H1605 H 0.17456 0.24195 0.01508 0.0
C1606 C 0.14402 0.1835 0.97782 0.0
C1607 C 0.12701 0.14823 0.96126 0.0
C1608 C 0.14063 0.18122 1.0058 0.0
C1609 C 0.10548 0.11406 0.97265 0.0
C1610 C 0.10182 0.11202 1.00011 0.0
C1611 C 0.11818 0.13687 0.04457 0.0
C1612 C 0.13712 0.16616 0.06164 0.0
C1613 C 0.11981 0.14397 0.01689 0.0
C1614 C 0.15668 0.20568 0.05076 0.0
C1615 C 0.15851 0.213 0.02303 0.0
H1616 H 0.92516 0.90864 0.96526 0.0
H1617 H 0.85133 0.79927 0.95531 0.0
H1618 H 0.8479 0.78779 1.00392 0.0
H1619 H 0.8638 0.81683 0.04966 0.0
H1620 H 0.93758 0.92737 0.05805 0.0
H1621 H 0.94353 0.92964 0.00983 0.0
C1622 C 0.90857 0.88158 0.97376 0.0
C1623 C 0.88849 0.85492 0.95687 0.0
C1624 C 0.90682 0.87534 1.00152 0.0
C1625 C 0.86717 0.81977 0.96801 0.0
C1626 C 0.86513 0.81355 0.99578 0.0
C1627 C 0.88163 0.83981 0.04084 0.0
C1628 C 0.9004 0.87157 0.0573 0.0
C1629 C 0.88459 0.84194 0.01282 0.0
C1630 C 0.92299 0.90247 0.04571 0.0
C1631 C 0.92631 0.90407 0.01815 0.0
H1632 H 0.15517 0.80424 0.46846 0.0
H1633 H 0.09188 0.93817 0.4577 0.0
H1634 H 0.08704 0.94821 0.50568 0.0
H1635 H 0.10409 0.92674 0.55057 0.0
H1636 H 0.16633 0.79195 0.56313 0.0
H1637 H 0.1681 0.77396 0.51491 0.0
C1638 C 0.13964 0.83404 0.47671 0.0
C1639 C 0.12388 0.87041 0.45951 0.0
C1640 C 0.13713 0.84021 0.50468 0.0
C1641 C 0.10423 0.90969 0.4705 0.0
C1642 C 0.10158 0.91581 0.49797 0.0
C1643 C 0.11781 0.89292 0.54279 0.0
C1644 C 0.13523 0.86111 0.56033 0.0
C1645 C 0.11851 0.88264 0.51522 0.0
C1646 C 0.15266 0.81701 0.54999 0.0
C1647 C 0.15375 0.80689 0.5224 0.0
H1648 H 0.92207 0.10371 0.55187 0.0
H1649 H 0.8529 0.22471 0.56215 0.0
H1650 H 0.85045 0.2401 0.51381 0.0
H1651 H 0.86539 0.21165 0.46797 0.0
H1652 H 0.93541 0.09186 0.45904 0.0
H1653 H 0.94042 0.08419 0.50722 0.0
C1654 C 0.90662 0.13382 0.54352 0.0
C1655 C 0.88748 0.16248 0.56047 0.0
C1656 C 0.90559 0.14288 0.51584 0.0
C1657 C 0.86784 0.20199 0.54945 0.0
C1658 C 0.8664 0.21073 0.52181 0.0
C1659 C 0.88238 0.18572 0.47668 0.0
C1660 C 0.90016 0.1527 0.46001 0.0
C1661 C 0.88491 0.18074 0.50469 0.0
C1662 C 0.92162 0.11797 0.47151 0.0
C1663 C 0.92434 0.1131 0.49907 0.0
H1664 H 0.66626 0.70899 0.05035 0.0
H1665 H 0.58844 0.61172 0.06132 0.0
H1666 H 0.58123 0.60642 0.01337 0.0
H1667 H 0.5994 0.61973 0.96817 0.0
H1668 H 0.67584 0.71951 0.95545 0.0
H1669 H 0.68124 0.73375 1.00377 0.0
C1670 C 0.6473 0.68839 0.04218 0.0
C1671 C 0.6279 0.6608 0.05946 0.0
C1672 C 0.64326 0.68508 0.01416 0.0
C1673 C 0.60372 0.63321 0.0485 0.0
C1674 C 0.59961 0.62985 0.02102 0.0
C1675 C 0.61688 0.64567 0.97599 0.0
C1676 C 0.63714 0.66862 0.95836 0.0
C1677 C 0.61961 0.65409 1.00366 0.0
C1678 C 0.65974 0.70209 0.96868 0.0
C1679 C 0.66294 0.7098 0.99633 0.0
H1680 H 0.35249 0.33091 0.96252 0.0
H1681 H 0.44182 0.37192 0.95304 0.0
H1682 H 0.44862 0.37124 1.00139 0.0
H1683 H 0.42798 0.37128 0.04649 0.0
H1684 H 0.33839 0.33453 0.05672 0.0
H1685 H 0.33251 0.3228 0.00833 0.0
C1686 C 0.37357 0.33781 0.97112 0.0
C1687 C 0.39678 0.35067 0.95425 0.0
C1688 C 0.37704 0.33974 0.99916 0.0
C1689 C 0.42378 0.36129 0.96564 0.0
C1690 C 0.4276 0.36151 0.99329 0.0
C1691 C 0.40736 0.35932 0.03807 0.0
C1692 C 0.38374 0.3528 0.05503 0.0
C1693 C 0.40424 0.35268 0.01027 0.0
C1694 C 0.35699 0.33836 0.04401 0.0
C1695 C 0.35362 0.33203 0.01633 0.0
H1696 H 0.59774 0.38532 0.46592 0.0
H1697 H 0.68345 0.32124 0.4552 0.0
H1698 H 0.68918 0.31085 0.50368 0.0
H1699 H 0.67088 0.32891 0.54943 0.0
H1700 H 0.58552 0.396 0.55926 0.0
H1701 H 0.57789 0.39382 0.51097 0.0
C1702 C 0.6173 0.3673 0.47425 0.0
C1703 C 0.63995 0.35287 0.45719 0.0
C1704 C 0.62035 0.36172 0.502 0.0
C1705 C 0.66549 0.33095 0.46805 0.0
C1706 C 0.66883 0.32561 0.49574 0.0
C1707 C 0.65041 0.3415 0.5409 0.0
C1708 C 0.62864 0.36231 0.55768 0.0
C1709 C 0.64655 0.34182 0.51298 0.0
C1710 C 0.60242 0.37969 0.54658 0.0
C1711 C 0.59815 0.3788 0.51902 0.0
H1712 H 0.3518 0.68286 0.54699 0.0
H1713 H 0.44113 0.64253 0.55814 0.0
H1714 H 0.44876 0.64694 0.50993 0.0
H1715 H 0.4288 0.65095 0.4645 0.0
H1716 H 0.33954 0.69048 0.45266 0.0
H1717 H 0.33276 0.697 0.50108 0.0
C1718 C 0.37302 0.67665 0.53876 0.0
C1719 C 0.39602 0.66299 0.55586 0.0
C1720 C 0.37706 0.67812 0.51093 0.0
C1721 C 0.4233 0.65365 0.54519 0.0
C1722 C 0.42759 0.65577 0.51768 0.0
C1723 C 0.40809 0.66262 0.47261 0.0
C1724 C 0.38478 0.67113 0.45523 0.0
C1725 C 0.40449 0.66638 0.50034 0.0
C1726 C 0.35789 0.68528 0.46576 0.0
C1727 C 0.35399 0.68841 0.49341 0.0
H1728 H 0.98738 0.90962 0.12709 0.0
H1729 H 0.94359 0.07082 0.14001 0.0
H1730 H 0.98936 0.12157 0.1407 0.0
H1731 H 0.04212 0.1196 0.13919 0.0
H1732 H 0.08576 0.95649 0.13063 0.0
H1733 H 0.03994 0.90672 0.12784 0.0
C1734 C 0.98776 0.95531 0.13084 0.0
C1735 C 0.96187 0.98545 0.13425 0.0
C1736 C 0.01429 0.98405 0.13222 0.0
C1737 C 0.96303 0.04583 0.13768 0.0
C1738 C 0.98928 0.07509 0.13811 0.0
C1739 C 0.0417 0.07336 0.13677 0.0
C1740 C 0.06762 0.04236 0.13519 0.0
C1741 C 0.01511 0.04456 0.13568 0.0
C1742 C 0.06635 0.98192 0.13204 0.0
C1743 C 0.04006 0.95321 0.13037 0.0
H1744 H 0.95484 0.9727 0.3781 0.0
H1745 H 0.97885 0.14092 0.40695 0.0
H1746 H 0.02884 0.11307 0.40858 0.0
H1747 H 0.06665 0.04031 0.4009 0.0
H1748 H 0.04145 0.87092 0.3746 0.0
H1749 H 0.99184 0.89821 0.37424 0.0
C1750 C 0.97094 1.00314 0.38492 0.0
C1751 C 0.96302 0.05997 0.39108 0.0
C1752 C 0.99983 0.98599 0.3868 0.0
C1753 C 0.98432 0.09812 0.4005 0.0
C1754 C 0.01306 0.08182 0.40193 0.0
C1755 C 0.05034 1.00925 0.39532 0.0
C1756 C 0.05831 0.95304 0.38775 0.0
C1757 C 0.02123 0.02589 0.39481 0.0
C1758 C 0.0365 0.91397 0.38055 0.0
C1759 C 1.00777 0.92981 0.38019 0.0
H1760 H 0.052 0.05568 0.85253 0.0
H1761 H 0.06917 0.01619 0.935 0.0
H1762 H 0.02045 0.97867 0.94004 0.0
H1763 H 0.97278 0.95619 0.92057 0.0
H1764 H 0.9587 0.98332 0.83655 0.0
H1765 H 1.00636 0.02606 0.83234 0.0
C1766 C 0.04505 0.03872 0.87159 0.0
C1767 C 0.06391 0.03958 0.89352 0.0
C1768 C 0.01753 0.01502 0.87398 0.0
C1769 C 0.0549 0.01656 0.91795 0.0
C1770 C 0.02706 0.99508 0.92081 0.0
C1771 C 0.98019 0.9721 0.90148 0.0
C1772 C 0.96221 0.96815 0.87901 0.0
C1773 C 1.00813 0.99424 0.89897 0.0
C1774 C 0.97217 0.98688 0.85414 0.0
C1775 C 0.99938 1.01112 0.85171 0.0
H1776 H 0.9847 0.11949 0.62527 0.0
H1777 H 0.94239 0.96847 0.65633 0.0
H1778 H 0.98769 0.91615 0.65683 0.0
H1779 H 0.03986 0.91356 0.64948 0.0
H1780 H 0.08216 0.06571 0.61935 0.0
H1781 H 0.03675 0.11715 0.61816 0.0
C1782 C 0.98539 0.07552 0.63248 0.0
C1783 C 0.96003 0.04873 0.64111 0.0
C1784 C 1.01171 0.04556 0.63301 0.0
C1785 C 0.96145 0.9908 0.64973 0.0
C1786 C 0.98744 0.96061 0.65004 0.0
C1787 C 0.03918 0.95767 0.64243 0.0
C1788 C 0.06467 0.98515 0.63448 0.0
C1789 C 0.0128 0.98756 0.64184 0.0
C1790 C 0.06312 0.043 0.62574 0.0
C1791 C 0.03704 0.07271 0.62496 0.0
H1792 H 0.45875 0.53007 0.15589 0.0
H1793 H 0.47706 0.39348 0.10027 0.0
H1794 H 0.52719 0.42287 0.09857 0.0
H1795 H 0.56611 0.48968 0.11215 0.0
H1796 H 0.54678 0.6277 0.16683 0.0
H1797 H 0.49715 0.59706 0.16893 0.0
C1798 C 0.47368 0.50691 0.1433 0.0
C1799 C 0.46423 0.45855 0.12879 0.0
C1800 C 0.50245 0.52504 0.14193 0.0
C1801 C 0.48391 0.42946 0.11243 0.0
C1802 C 0.5126 0.44671 0.1112 0.0
C1803 C 0.55106 0.51276 0.12463 0.0
C1804 C 0.56025 0.56176 0.13895 0.0
C1805 C 0.52221 0.49449 0.12591 0.0
C1806 C 0.54031 0.59107 0.15497 0.0
C1807 C 0.51183 0.57316 0.15641 0.0
H1808 H 0.46941 0.54203 0.42039 0.0
H1809 H 0.46987 0.58664 0.33684 0.0
H1810 H 0.51806 0.54784 0.33247 0.0
H1811 H 0.55981 0.49877 0.35188 0.0
H1812 H 0.56182 0.46028 0.43579 0.0
H1813 H 0.51297 0.49844 0.44061 0.0
C1814 C 0.4801 0.54316 0.40127 0.0
C1815 C 0.46595 0.56686 0.37895 0.0
C1816 C 0.50823 0.52168 0.39896 0.0
C1817 C 0.48023 0.56876 0.35436 0.0
C1818 C 0.50781 0.54641 0.35179 0.0
C1819 C 0.54953 0.49932 0.37123 0.0
C1820 C 0.56411 0.47718 0.39349 0.0
C1821 C 0.52193 0.52251 0.37387 0.0
C1822 C 0.5509 0.47793 0.41851 0.0
C1823 C 0.52299 0.49939 0.42119 0.0
H1824 H 0.45819 0.53414 0.89764 0.0
H1825 H 0.48182 0.3751 0.85891 0.0
H1826 H 0.53165 0.40337 0.859 0.0
H1827 H 0.569 0.47579 0.86791 0.0
H1828 H 0.54593 0.63373 0.9077 0.0
H1829 H 0.49592 0.60506 0.90818 0.0
C1830 C 0.47417 0.50565 0.88916 0.0
C1831 C 0.46588 0.45177 0.87864 0.0
C1832 C 0.50316 0.52289 0.88879 0.0
C1833 C 0.48722 0.41586 0.8678 0.0
C1834 C 0.51595 0.43241 0.86755 0.0
C1835 C 0.55308 0.5038 0.87681 0.0
C1836 C 0.56124 0.5581 0.88681 0.0
C1837 C 0.52422 0.48605 0.87779 0.0
C1838 C 0.54022 0.59316 0.89864 0.0
C1839 C 0.51152 0.5763 0.89932 0.0
H1840 H 0.45551 0.47467 0.62928 0.0
H1841 H 0.48161 0.65022 0.6158 0.0
H1842 H 0.53148 0.62174 0.61491 0.0
H1843 H 0.56855 0.54612 0.61929 0.0
H1844 H 0.54179 0.36914 0.6258 0.0
H1845 H 0.49193 0.39791 0.62732 0.0
C1846 C 0.47202 0.50674 0.62597 0.0
C1847 C 0.46459 0.56551 0.62406 0.0
C1848 C 0.50088 0.48928 0.62404 0.0
C1849 C 0.48652 0.60563 0.61902 0.0
C1850 C 0.51524 0.58902 0.618 0.0
C1851 C 0.55183 0.51379 0.62074 0.0
C1852 C 0.5592 0.45518 0.62357 0.0
C1853 C 0.5228 0.53092 0.62082 0.0
C1854 C 0.537 0.4143 0.62496 0.0
C1855 C 0.50829 0.43088 0.62552 0.0
H1856 H 0.17543 0.67521 0.09551 0.0
H1857 H 0.10608 0.75939 0.1365 0.0
H1858 H 0.09493 0.66921 0.15981 0.0
H1859 H 0.10281 0.56574 0.16578 0.0
H1860 H 0.17565 0.48395 0.12825 0.0
H1861 H 0.18597 0.57327 0.1048 0.0
C1862 C 0.15805 0.67379 0.10977 0.0
C1863 C 0.14149 0.72359 0.11423 0.0
C1864 C 0.15187 0.622 0.12311 0.0
C1865 C 0.11922 0.72163 0.1329 0.0
C1866 C 0.11271 0.66999 0.14602 0.0
C1867 C 0.12159 0.56712 0.15325 0.0
C1868 C 0.13821 0.51684 0.14908 0.0
C1869 C 0.12866 0.6197 0.14096 0.0
C1870 C 0.16177 0.52057 0.13167 0.0
C1871 C 0.16816 0.5722 0.11853 0.0
H1872 H 0.91124 0.33453 0.10343 0.0
H1873 H 0.82988 0.27623 0.13346 0.0
H1874 H 0.82248 0.3698 0.15514 0.0
H1875 H 0.83697 0.47051 0.16156 0.0
H1876 H 0.92004 0.52658 0.13389 0.0
H1877 H 0.92816 0.43221 0.11414 0.0
C1878 C 0.89197 0.34226 0.11489 0.0
C1879 C 0.8709 0.29899 0.11649 0.0
C1880 C 0.88779 0.39613 0.12707 0.0
C1881 C 0.84637 0.30893 0.13191 0.0
C1882 C 0.84203 0.36256 0.14408 0.0
C1883 C 0.85719 0.46214 0.1518 0.0
C1884 C 0.87757 0.5067 0.14906 0.0
C1885 C 0.86229 0.40692 0.14123 0.0
C1886 C 0.90339 0.49436 0.13574 0.0
C1887 C 0.90832 0.43992 0.12469 0.0
H1888 H 0.09711 0.33194 0.38811 0.0
H1889 H 0.1857 0.27993 0.39678 0.0
H1890 H 0.20122 0.3743 0.38162 0.0
H1891 H 0.19002 0.47121 0.36538 0.0
H1892 H 0.10203 0.52658 0.35951 0.0
H1893 H 0.08598 0.43208 0.37561 0.0
C1894 C 0.11983 0.3413 0.38725 0.0
C1895 C 0.14006 0.29794 0.3933 0.0
C1896 C 0.12878 0.39659 0.37936 0.0
C1897 C 0.16944 0.31132 0.39152 0.0
C1898 C 0.17846 0.3657 0.38315 0.0
C1899 C 0.16733 0.46253 0.3677 0.0
C1900 C 0.14721 0.50522 0.36094 0.0
C1901 C 0.15834 0.40843 0.37686 0.0
C1902 C 0.1179 0.49417 0.36457 0.0
C1903 C 0.10873 0.44011 0.37358 0.0
H1904 H 0.83072 0.55042 0.37159 0.0
H1905 H 0.91821 0.50009 0.35694 0.0
H1906 H 0.9344 0.59783 0.36754 0.0
H1907 H 0.92356 0.6972 0.38004 0.0
H1908 H 0.83646 0.74419 0.39981 0.0
H1909 H 0.82022 0.64889 0.38657 0.0
C1910 C 0.85331 0.56086 0.37063 0.0
C1911 C 0.87319 0.51808 0.36342 0.0
C1912 C 0.86251 0.6168 0.37715 0.0
C1913 C 0.90247 0.53216 0.36258 0.0
C1914 C 0.91172 0.58808 0.3685 0.0
C1915 C 0.90108 0.68678 0.38213 0.0
C1916 C 0.8815 0.72889 0.3911 0.0
C1917 C 0.89191 0.63071 0.37583 0.0
C1918 C 0.85226 0.71397 0.39251 0.0
C1919 C 0.84285 0.65889 0.38526 0.0
H1920 H 0.93457 0.32355 0.88159 0.0
H1921 H 0.84796 0.27558 0.90191 0.0
H1922 H 0.83123 0.37186 0.89026 0.0
H1923 H 0.84114 0.46995 0.87495 0.0
H1924 H 0.92781 0.51897 0.85578 0.0
H1925 H 0.9447 0.42267 0.86767 0.0
C1926 C 0.91212 0.33432 0.8839 0.0
C1927 C 0.89264 0.2921 0.89248 0.0
C1928 C 0.90265 0.39018 0.87775 0.0
C1929 C 0.86346 0.30671 0.89484 0.0
C1930 C 0.85383 0.36198 0.88843 0.0
C1931 C 0.86368 0.45948 0.87323 0.0
C1932 C 0.88311 0.50151 0.86448 0.0
C1933 C 0.87324 0.40398 0.87984 0.0
C1934 C 0.91239 0.48758 0.86277 0.0
C1935 C 0.92207 0.4324 0.86936 0.0
H1936 H 0.13083 0.54997 0.83454 0.0
H1937 H 0.17112 0.48834 0.90663 0.0
H1938 H 0.1694 0.58572 0.9256 0.0
H1939 H 0.1557 0.68853 0.92184 0.0
H1940 H 0.11529 0.74992 0.84988 0.0
H1941 H 0.11764 0.65269 0.83058 0.0
C1942 C 0.13931 0.55806 0.85436 0.0
C1943 C 0.15117 0.51225 0.86918 0.0
C1944 C 0.13819 0.61406 0.86509 0.0
C1945 C 0.1617 0.52293 0.89498 0.0
C1946 C 0.16084 0.57859 0.90575 0.0
C1947 C 0.14775 0.68038 0.90183 0.0
C1948 C 0.13563 0.72581 0.88706 0.0
C1949 C 0.14911 0.62446 0.89101 0.0
C1950 C 0.12509 0.71536 0.8613 0.0
C1951 C 0.12628 0.65986 0.85039 0.0
H1952 H 0.89308 0.68345 0.58293 0.0
H1953 H 0.85016 0.75458 0.65149 0.0
H1954 H 0.85651 0.6636 0.67538 0.0
H1955 H 0.87432 0.56412 0.67674 0.0
H1956 H 0.91633 0.49201 0.60804 0.0
H1957 H 0.90963 0.58293 0.58383 0.0
C1958 C 0.88474 0.67871 0.60294 0.0
C1959 C 0.87107 0.72546 0.61538 0.0
C1960 C 0.88822 0.62625 0.61643 0.0
C1961 C 0.86096 0.71926 0.64157 0.0
C1962 C 0.86445 0.66726 0.65519 0.0
C1963 C 0.88206 0.56858 0.65649 0.0
C1964 C 0.896 0.52213 0.64415 0.0
C1965 C 0.87811 0.62062 0.64282 0.0
C1966 C 0.90548 0.52752 0.61779 0.0
C1967 C 0.90177 0.57939 0.60405 0.0
H1968 H 0.12526 0.34815 0.58773 0.0
H1969 H 0.17747 0.27441 0.65038 0.0
H1970 H 0.17393 0.36451 0.67562 0.0
H1971 H 0.15772 0.46607 0.67889 0.0
H1972 H 0.1088 0.54076 0.61439 0.0
H1973 H 0.11049 0.44903 0.59025 0.0
C1974 C 0.1363 0.35174 0.60672 0.0
C1975 C 0.15199 0.30441 0.61683 0.0
C1976 C 0.13516 0.40427 0.62058 0.0
C1977 C 0.16509 0.30967 0.64205 0.0
C1978 C 0.16335 0.3615 0.65639 0.0
C1979 C 0.14752 0.46212 0.6595 0.0
C1980 C 0.13316 0.51003 0.64836 0.0
C1981 C 0.14877 0.40933 0.64567 0.0
C1982 C 0.12023 0.50468 0.62318 0.0
C1983 C 0.12099 0.45216 0.60951 0.0
H1984 H 0.64577 0.06591 0.17903 0.0
H1985 H 0.61924 0.98765 0.10496 0.0
H1986 H 0.62822 0.07848 0.0814 0.0
H1987 H 0.64354 0.17991 0.08209 0.0
H1988 H 0.67125 0.25707 0.15617 0.0
H1989 H 0.66118 0.16716 0.17972 0.0
C1990 C 0.6419 0.06897 0.15774 0.0
C1991 C 0.63185 0.02056 0.14367 0.0
C1992 C 0.64715 0.12102 0.14443 0.0
C1993 C 0.62723 0.02445 0.11607 0.0
C1994 C 0.6322 0.07633 0.10268 0.0
C1995 C 0.64765 0.17684 0.10333 0.0
C1996 C 0.65835 0.22493 0.1173 0.0
C1997 C 0.64222 0.12482 0.11667 0.0
C1998 C 0.66285 0.22079 0.14497 0.0
C1999 C 0.65728 0.16932 0.15842 0.0
H2000 H 0.42138 0.83435 0.11538 0.0
H2001 H 0.33552 0.77188 0.12798 0.0
H2002 H 0.32236 0.86403 0.1486 0.0
H2003 H 0.33428 0.96493 0.15906 0.0
H2004 H 0.42055 0.02616 0.14644 0.0
H2005 H 0.43425 0.93224 0.12896 0.0
C2006 C 0.3998 0.8409 0.12272 0.0
C2007 C 0.37931 0.79696 0.11978 0.0
C2008 C 0.39232 0.89401 0.13401 0.0
C2009 C 0.35165 0.80522 0.13001 0.0
C2010 C 0.34407 0.85799 0.14157 0.0
C2011 C 0.35615 0.95764 0.15283 0.0
C2012 C 0.3761 1.00317 0.1536 0.0
C2013 C 0.36407 0.90315 0.14307 0.0
C2014 C 0.40442 0.99265 0.14536 0.0
C2015 C 0.41242 0.93871 0.1356 0.0
H2016 H 0.68688 0.97788 0.37075 0.0
H2017 H 0.59805 0.02467 0.36004 0.0
H2018 H 0.58349 0.92673 0.37174 0.0
H2019 H 0.59605 0.82718 0.38291 0.0
H2020 H 0.68489 0.78218 0.39653 0.0
H2021 H 0.69929 0.8792 0.38411 0.0
C2022 C 0.66434 0.9666 0.37084 0.0
C2023 C 0.64364 1.00855 0.36441 0.0
C2024 C 0.65609 0.91018 0.37748 0.0
C2025 C 0.61447 0.99344 0.36514 0.0
C2026 C 0.60611 0.93728 0.3716 0.0
C2027 C 0.61856 0.83847 0.38376 0.0
C2028 C 0.63919 0.79652 0.39068 0.0
C2029 C 0.62677 0.89521 0.37762 0.0
C2030 C 0.66834 0.81248 0.39076 0.0
C2031 C 0.67669 0.86844 0.38397 0.0
H2032 H 0.43051 0.05656 0.36017 0.0
H2033 H 0.34391 0.99114 0.36026 0.0
H2034 H 0.32667 0.08268 0.37801 0.0
H2035 H 0.33596 0.18171 0.39236 0.0
H2036 H 0.42248 0.24774 0.39191 0.0
H2037 H 0.43968 0.15647 0.37376 0.0
C2038 C 0.40781 0.06247 0.36373 0.0
C2039 C 0.38858 0.01682 0.35899 0.0
C2040 C 0.39794 0.11564 0.37335 0.0
C2041 C 0.35929 0.02504 0.36425 0.0
C2042 C 0.34935 0.0776 0.37411 0.0
C2043 C 0.35864 0.17601 0.38861 0.0
C2044 C 0.37786 0.22144 0.39372 0.0
C2045 C 0.36848 0.12316 0.37868 0.0
C2046 C 0.40709 0.21377 0.38797 0.0
C2047 C 0.41703 0.16138 0.37782 0.0
H2048 H 0.34323 0.83621 0.90863 0.0
H2049 H 0.42303 0.76142 0.88309 0.0
H2050 H 0.43611 0.85237 0.86127 0.0
H2051 H 0.42624 0.95472 0.85271 0.0
H2052 H 0.34476 0.02685 0.87548 0.0
H2053 H 0.33137 0.936 0.89623 0.0
C2054 C 0.36332 0.83982 0.89798 0.0
C2055 C 0.38226 0.79273 0.89752 0.0
C2056 C 0.37064 0.892 0.88565 0.0
C2057 C 0.40811 0.79725 0.88352 0.0
C2058 C 0.41567 0.84932 0.87131 0.0
C2059 C 0.40528 0.95061 0.86168 0.0
C2060 C 0.38658 0.99847 0.8626 0.0
C2061 C 0.39731 0.8973 0.8727 0.0
C2062 C 0.35987 0.99176 0.87502 0.0
C2063 C 0.35204 0.93939 0.8866 0.0
H2064 H 0.59809 0.19895 0.87311 0.0
H2065 H 0.6799 0.24064 0.90925 0.0
H2066 H 0.69752 0.14489 0.89849 0.0
H2067 H 0.68941 0.04812 0.88038 0.0
H2068 H 0.60656 1.00233 0.84874 0.0
H2069 H 0.58922 0.10033 0.85741 0.0
C2070 C 0.61961 0.18724 0.87922 0.0
C2071 C 0.63745 0.2281 0.89204 0.0
C2072 C 0.62936 0.1309 0.87409 0.0
C2073 C 0.66562 0.21148 0.89885 0.0
C2074 C 0.67573 0.15615 0.893 0.0
C2075 C 0.66763 0.05951 0.87536 0.0
C2076 C 0.64944 0.01795 0.86386 0.0
C2077 C 0.65774 0.11548 0.8808 0.0
C2078 C 0.62102 0.03337 0.85773 0.0
C2079 C 0.61115 0.08947 0.86257 0.0
H2080 H 0.36775 0.06293 0.6836 0.0
H2081 H 0.36713 0.99279 0.60388 0.0
H2082 H 0.37795 0.08798 0.58571 0.0
H2083 H 0.38798 0.19132 0.59241 0.0
H2084 H 0.38651 0.26272 0.67162 0.0
H2085 H 0.3757 0.16707 0.69013 0.0
C2086 C 0.36962 0.06857 0.66223 0.0
C2087 C 0.36671 0.02061 0.64517 0.0
C2088 C 0.37538 0.12369 0.65184 0.0
C2089 C 0.36972 0.02865 0.61753 0.0
C2090 C 0.3757 0.08318 0.60708 0.0
C2091 C 0.38503 0.18571 0.61369 0.0
C2092 C 0.38789 0.23343 0.63073 0.0
C2093 C 0.37864 0.13093 0.62404 0.0
C2094 C 0.38409 0.22631 0.65824 0.0
C2095 C 0.37807 0.17174 0.66876 0.0
H2096 H 0.6039 0.84265 0.60757 0.0
H2097 H 0.67749 0.77443 0.64993 0.0
H2098 H 0.68227 0.86487 0.67407 0.0
H2099 H 0.66672 0.96527 0.68217 0.0
H2100 H 0.59733 0.03637 0.63556 0.0
H2101 H 0.59093 0.94368 0.6129 0.0
C2102 C 0.62151 0.8474 0.62153 0.0
C2103 C 0.64021 0.80078 0.6266 0.0
C2104 C 0.62522 0.90065 0.63437 0.0
C2105 C 0.66217 0.80832 0.64574 0.0
C2106 C 0.66525 0.8606 0.65941 0.0
C2107 C 0.6502 0.9602 0.66706 0.0
C2108 C 0.63229 1.0071 0.66067 0.0
C2109 C 0.64701 0.90716 0.65377 0.0
C2110 C 0.6113 1.00067 0.64077 0.0
C2111 C 0.60757 0.94772 0.62793 0.0
loop_
_geom_bond_atom_site_label_1
_geom_bond_atom_site_label_2
_geom_bond_distance
_geom_bond_site_symmetry_2
_ccdc_geom_bond_type
C0 C2 1.422 . S
C0 C4 1.415 . S
C0 N6 1.369 . S
C1 C2 1.421 . S
C1 C3 1.418 . S
C1 C13 1.422 1_545 S
C2 C0 1.422 . S
C2 C1 1.421 . S
C2 N12 1.359 . S
C3 C1 1.418 . S
C3 C5 1.332 . S
C3 H22 0.927 1_545 S
C4 C0 1.415 . S
C4 C5 1.437 . S
C4 C8 1.413 . S
C5 C3 1.332 . S
C5 C4 1.437 . S
C5 H27 0.929 . S
N6 C0 1.369 . S
N6 C7 1.338 . S
N6 Gd11 2.622 . S
C7 N6 1.338 . S
C7 C9 1.378 . S
C7 H19 0.929 . S
C8 C4 1.413 . S
C8 C9 1.348 . S
C8 H24 0.931 . S
C9 C7 1.378 . S
C9 C8 1.348 . S
C9 H25 0.930 . S
Gd10 N30 2.622 . S
Gd10 N37 2.570 . S
Gd10 O44 2.353 . S
Gd10 O45 2.468 . S
Gd10 O46 2.427 . S
Gd10 O48 2.388 . S
Gd10 O49 2.386 . S
Gd10 O53 2.307 . S
Gd10 C63 2.805 . S
Gd11 N6 2.622 . S
Gd11 N12 2.570 . S
Gd11 O43 2.386 . S
Gd11 O47 2.307 . S
Gd11 O50 2.353 . S
Gd11 O51 2.468 1_545 S
Gd11 O52 2.427 1_545 S
Gd11 O54 2.388 . S
Gd11 C75 2.805 1_545 S
N12 C2 1.359 . S
N12 Gd11 2.570 . S
N12 C14 1.343 . S
C13 C1 1.422 1_565 S
C13 C15 1.321 . S
C13 H21 0.931 . S
C14 N12 1.343 . S
C14 C15 1.390 1_545 S
C14 H16 0.931 . S
C15 C13 1.321 . S
C15 C14 1.390 1_565 S
C15 H17 0.930 . S
H16 C14 0.931 . S
H17 C15 0.930 . S
H18 C41 0.931 . S
H19 C7 0.929 . S
H20 C42 0.930 . S
H21 C13 0.931 . S
H22 C3 0.927 1_565 S
H23 C32 0.929 . S
H24 C8 0.931 . S
H25 C9 0.930 . S
H26 C64 0.930 . S
H27 C5 0.929 . S
H28 C33 0.931 . S
H29 C34 0.930 . S
N30 Gd10 2.622 . S
N30 C31 1.369 . S
N30 C32 1.338 . S
C31 N30 1.369 . S
C31 C35 1.415 . S
C31 C38 1.422 . S
C32 H23 0.929 . S
C32 N30 1.338 . S
C32 C34 1.378 . S
C33 H28 0.931 . S
C33 C34 1.348 . S
C33 C35 1.413 . S
C34 H29 0.930 . S
C34 C32 1.378 . S
C34 C33 1.348 . S
C35 C31 1.415 . S
C35 C33 1.413 . S
C35 C65 1.437 1_455 S
H36 C65 0.929 . S
N37 Gd10 2.570 . S
N37 C38 1.359 . S
N37 C41 1.343 . S
C38 C31 1.422 . S
C38 N37 1.359 . S
C38 C40 1.421 . S
C39 C40 1.422 . S
C39 C42 1.321 . S
C39 H66 0.931 1_455 S
C40 C38 1.421 . S
C40 C39 1.422 . S
C40 C64 1.417 1_455 S
C41 H18 0.931 . S
C41 N37 1.343 . S
C41 C42 1.390 . S
C42 H20 0.930 . S
C42 C39 1.321 . S
C42 C41 1.390 . S
O43 Gd11 2.386 . S
O43 C55 1.265 . S
O44 Gd10 2.353 . S
O44 C55 1.242 . S
O45 Gd10 2.468 . S
O45 C63 1.263 . S
O46 Gd10 2.427 . S
O46 C63 1.252 . S
O47 Gd11 2.307 . S
O47 C56 1.261 . S
O48 Gd10 2.388 . S
O48 C56 1.252 . S
O49 Gd10 2.386 . S
O49 C67 1.265 . S
O50 Gd11 2.353 . S
O50 C67 1.242 . S
O51 Gd11 2.468 1_565 S
O51 C75 1.263 . S
O52 Gd11 2.427 1_565 S
O52 C75 1.252 . S
O53 Gd10 2.307 . S
O53 C68 1.261 . S
O54 Gd11 2.388 . S
O54 C68 1.252 . S
C55 O43 1.265 . S
C55 O44 1.242 . S
C56 O47 1.261 . S
C56 O48 1.252 . S
C57 C60 1.394 . S
C57 C62 1.370 . S
C57 C63 1.500 . S
C58 C61 1.383 . S
C58 C62 1.395 . S
C59 C60 1.396 . S
C59 C61 1.365 . S
C59 H76 0.929 . S
C60 C57 1.394 . S
C60 C59 1.396 . S
C60 H77 0.930 . S
C61 C58 1.383 . S
C61 C59 1.365 . S
C61 H78 0.931 . S
C62 C57 1.370 . S
C62 C58 1.395 . S
C62 H79 0.930 . S
C63 Gd10 2.805 . S
C63 O45 1.263 . S
C63 O46 1.252 . S
C63 C57 1.500 . S
C64 H26 0.930 . S
C64 C40 1.417 1_655 S
C64 C65 1.329 . S
C65 C35 1.437 1_655 S
C65 H36 0.929 . S
C65 C64 1.329 . S
H66 C39 0.931 1_655 S
C67 O49 1.265 . S
C67 O50 1.242 . S
C68 O53 1.261 . S
C68 O54 1.252 . S
C69 C72 1.394 . S
C69 C74 1.370 . S
C69 C75 1.500 . S
C70 C73 1.383 . S
C70 C74 1.395 . S
C71 C72 1.396 . S
C71 C73 1.365 . S
C71 H80 0.929 . S
C72 C69 1.394 . S
C72 C71 1.396 . S
C72 H81 0.930 . S
C73 C70 1.383 . S
C73 C71 1.365 . S
C73 H82 0.931 . S
C74 C69 1.370 . S
C74 C70 1.395 . S
C74 H83 0.930 . S
C75 Gd11 2.805 1_565 S
C75 O51 1.263 . S
C75 O52 1.252 . S
C75 C69 1.500 . S
H76 C59 0.929 . S
H77 C60 0.930 . S
H78 C61 0.931 . S
H79 C62 0.930 . S
H80 C71 0.929 . S
H81 C72 0.930 . S
H82 C73 0.931 . S
H83 C74 0.930 . S
C84 C86 1.422 . S
C84 C88 1.415 . S
C84 N90 1.369 . S
C85 C86 1.421 . S
C85 C87 1.418 . S
C85 C97 1.422 1_565 S
C86 C84 1.422 . S
C86 C85 1.421 . S
C86 N96 1.359 . S
C87 C85 1.418 . S
C87 C89 1.332 . S
C87 H106 0.927 1_565 S
C88 C84 1.415 . S
C88 C89 1.437 . S
C88 C92 1.413 . S
C89 C87 1.332 . S
C89 C88 1.437 . S
C89 H111 0.929 . S
N90 C84 1.369 . S
N90 C91 1.338 . S
N90 Gd95 2.622 . S
C91 N90 1.338 . S
C91 C93 1.378 . S
C91 H103 0.929 . S
C92 C88 1.413 . S
C92 C93 1.348 . S
C92 H108 0.931 . S
C93 C91 1.378 . S
C93 C92 1.348 . S
C93 H109 0.930 . S
Gd94 N114 2.622 . S
Gd94 N121 2.570 . S
Gd94 O128 2.353 . S
Gd94 O129 2.468 . S
Gd94 O130 2.427 . S
Gd94 O132 2.388 . S
Gd94 O133 2.386 . S
Gd94 O137 2.307 . S
Gd94 C147 2.805 . S
Gd95 N90 2.622 . S
Gd95 N96 2.570 . S
Gd95 O127 2.386 . S
Gd95 O131 2.307 . S
Gd95 O134 2.353 . S
Gd95 O135 2.468 1_565 S
Gd95 O136 2.427 1_565 S
Gd95 O138 2.388 . S
Gd95 C159 2.805 1_565 S
N96 C86 1.359 . S
N96 Gd95 2.570 . S
N96 C98 1.343 . S
C97 C85 1.422 1_545 S
C97 C99 1.321 . S
C97 H105 0.931 . S
C98 N96 1.343 . S
C98 C99 1.390 1_565 S
C98 H100 0.931 . S
C99 C97 1.321 . S
C99 C98 1.390 1_545 S
C99 H101 0.930 . S
H100 C98 0.931 . S
H101 C99 0.930 . S
H102 C125 0.931 . S
H103 C91 0.929 . S
H104 C126 0.930 . S
H105 C97 0.931 . S
H106 C87 0.927 1_545 S
H107 C116 0.929 . S
H108 C92 0.931 . S
H109 C93 0.930 . S
H110 C148 0.930 . S
H111 C89 0.929 . S
H112 C117 0.931 . S
H113 C118 0.930 . S
N114 Gd94 2.622 . S
N114 C115 1.369 . S
N114 C116 1.338 . S
C115 N114 1.369 . S
C115 C119 1.415 . S
C115 C122 1.422 . S
C116 H107 0.929 . S
C116 N114 1.338 . S
C116 C118 1.378 . S
C117 H112 0.931 . S
C117 C118 1.348 . S
C117 C119 1.413 . S
C118 H113 0.930 . S
C118 C116 1.378 . S
C118 C117 1.348 . S
C119 C115 1.415 . S
C119 C117 1.413 . S
C119 C149 1.437 1_655 S
H120 C149 0.929 . S
N121 Gd94 2.570 . S
N121 C122 1.359 . S
N121 C125 1.343 . S
C122 C115 1.422 . S
C122 N121 1.359 . S
C122 C124 1.421 . S
C123 C124 1.422 . S
C123 C126 1.321 . S
C123 H150 0.931 1_655 S
C124 C122 1.421 . S
C124 C123 1.422 . S
C124 C148 1.417 1_655 S
C125 H102 0.931 . S
C125 N121 1.343 . S
C125 C126 1.390 . S
C126 H104 0.930 . S
C126 C123 1.321 . S
C126 C125 1.390 . S
O127 Gd95 2.386 . S
O127 C139 1.265 . S
O128 Gd94 2.353 . S
O128 C139 1.242 . S
O129 Gd94 2.468 . S
O129 C147 1.263 . S
O130 Gd94 2.427 . S
O130 C147 1.252 . S
O131 Gd95 2.307 . S
O131 C140 1.261 . S
O132 Gd94 2.388 . S
O132 C140 1.252 . S
O133 Gd94 2.386 . S
O133 C151 1.265 . S
O134 Gd95 2.353 . S
O134 C151 1.242 . S
O135 Gd95 2.468 1_545 S
O135 C159 1.263 . S
O136 Gd95 2.427 1_545 S
O136 C159 1.252 . S
O137 Gd94 2.307 . S
O137 C152 1.261 . S
O138 Gd95 2.388 . S
O138 C152 1.252 . S
C139 O127 1.265 . S
C139 O128 1.242 . S
C140 O131 1.261 . S
C140 O132 1.252 . S
C141 C144 1.394 . S
C141 C146 1.370 . S
C141 C147 1.500 . S
C142 C145 1.383 . S
C142 C146 1.395 . S
C143 C144 1.396 . S
C143 C145 1.365 . S
C143 H160 0.929 . S
C144 C141 1.394 . S
C144 C143 1.396 . S
C144 H161 0.930 . S
C145 C142 1.383 . S
C145 C143 1.365 . S
C145 H162 0.931 . S
C146 C141 1.370 . S
C146 C142 1.395 . S
C146 H163 0.930 . S
C147 Gd94 2.805 . S
C147 O129 1.263 . S
C147 O130 1.252 . S
C147 C141 1.500 . S
C148 H110 0.930 . S
C148 C124 1.417 1_455 S
C148 C149 1.329 . S
C149 C119 1.437 1_455 S
C149 H120 0.929 . S
C149 C148 1.329 . S
H150 C123 0.931 1_455 S
C151 O133 1.265 . S
C151 O134 1.242 . S
C152 O137 1.261 . S
C152 O138 1.252 . S
C153 C156 1.394 . S
C153 C158 1.370 . S
C153 C159 1.500 . S
C154 C157 1.383 . S
C154 C158 1.395 . S
C155 C156 1.396 . S
C155 C157 1.365 . S
C155 H164 0.929 . S
C156 C153 1.394 . S
C156 C155 1.396 . S
C156 H165 0.930 . S
C157 C154 1.383 . S
C157 C155 1.365 . S
C157 H166 0.931 . S
C158 C153 1.370 . S
C158 C154 1.395 . S
C158 H167 0.930 . S
C159 Gd95 2.805 1_545 S
C159 O135 1.263 . S
C159 O136 1.252 . S
C159 C153 1.500 . S
H160 C143 0.929 . S
H161 C144 0.930 . S
H162 C145 0.931 . S
H163 C146 0.930 . S
H164 C155 0.929 . S
H165 C156 0.930 . S
H166 C157 0.931 . S
H167 C158 0.930 . S
C168 C170 1.422 . S
C168 C172 1.415 . S
C168 N174 1.369 . S
C169 C170 1.421 . S
C169 C171 1.418 . S
C169 C181 1.422 1_565 S
C170 C168 1.422 . S
C170 C169 1.421 . S
C170 N180 1.359 . S
C171 C169 1.418 . S
C171 C173 1.332 . S
C171 H190 0.927 1_565 S
C172 C168 1.415 . S
C172 C173 1.437 . S
C172 C176 1.413 . S
C173 C171 1.332 . S
C173 C172 1.437 . S
C173 H195 0.929 . S
N174 C168 1.369 . S
N174 C175 1.338 . S
N174 Gd179 2.622 . S
C175 N174 1.338 . S
C175 C177 1.378 . S
C175 H187 0.929 . S
C176 C172 1.413 . S
C176 C177 1.348 . S
C176 H192 0.931 . S
C177 C175 1.378 . S
C177 C176 1.348 . S
C177 H193 0.930 . S
Gd178 N198 2.622 . S
Gd178 N205 2.570 . S
Gd178 O212 2.353 . S
Gd178 O213 2.468 . S
Gd178 O214 2.427 . S
Gd178 O216 2.388 . S
Gd178 O217 2.386 . S
Gd178 O221 2.307 . S
Gd178 C231 2.805 . S
Gd179 N174 2.622 . S
Gd179 N180 2.570 . S
Gd179 O211 2.386 . S
Gd179 O215 2.307 . S
Gd179 O218 2.353 . S
Gd179 O219 2.468 1_565 S
Gd179 O220 2.427 1_565 S
Gd179 O222 2.388 . S
Gd179 C243 2.805 1_565 S
N180 C170 1.359 . S
N180 Gd179 2.570 . S
N180 C182 1.343 . S
C181 C169 1.422 1_545 S
C181 C183 1.321 . S
C181 H189 0.931 . S
C182 N180 1.343 . S
C182 C183 1.390 1_565 S
C182 H184 0.931 . S
C183 C181 1.321 . S
C183 C182 1.390 1_545 S
C183 H185 0.930 . S
H184 C182 0.931 . S
H185 C183 0.930 . S
H186 C209 0.931 . S
H187 C175 0.929 . S
H188 C210 0.930 . S
H189 C181 0.931 . S
H190 C171 0.927 1_545 S
H191 C200 0.929 . S
H192 C176 0.931 . S
H193 C177 0.930 . S
H194 C232 0.930 . S
H195 C173 0.929 . S
H196 C201 0.931 . S
H197 C202 0.930 . S
N198 Gd178 2.622 . S
N198 C199 1.369 . S
N198 C200 1.338 . S
C199 N198 1.369 . S
C199 C203 1.415 . S
C199 C206 1.422 . S
C200 H191 0.929 . S
C200 N198 1.338 . S
C200 C202 1.378 . S
C201 H196 0.931 . S
C201 C202 1.348 . S
C201 C203 1.413 . S
C202 H197 0.930 . S
C202 C200 1.378 . S
C202 C201 1.348 . S
C203 C199 1.415 . S
C203 C201 1.413 . S
C203 C233 1.437 1_455 S
H204 C233 0.929 . S
N205 Gd178 2.570 . S
N205 C206 1.359 . S
N205 C209 1.343 . S
C206 C199 1.422 . S
C206 N205 1.359 . S
C206 C208 1.421 . S
C207 C208 1.422 . S
C207 C210 1.321 . S
C207 H234 0.931 1_455 S
C208 C206 1.421 . S
C208 C207 1.422 . S
C208 C232 1.417 1_455 S
C209 H186 0.931 . S
C209 N205 1.343 . S
C209 C210 1.390 . S
C210 H188 0.930 . S
C210 C207 1.321 . S
C210 C209 1.390 . S
O211 Gd179 2.386 . S
O211 C223 1.265 . S
O212 Gd178 2.353 . S
O212 C223 1.242 . S
O213 Gd178 2.468 . S
O213 C231 1.263 . S
O214 Gd178 2.427 . S
O214 C231 1.252 . S
O215 Gd179 2.307 . S
O215 C224 1.261 . S
O216 Gd178 2.388 . S
O216 C224 1.252 . S
O217 Gd178 2.386 . S
O217 C235 1.265 . S
O218 Gd179 2.353 . S
O218 C235 1.242 . S
O219 Gd179 2.468 1_545 S
O219 C243 1.263 . S
O220 Gd179 2.427 1_545 S
O220 C243 1.252 . S
O221 Gd178 2.307 . S
O221 C236 1.261 . S
O222 Gd179 2.388 . S
O222 C236 1.252 . S
C223 O211 1.265 . S
C223 O212 1.242 . S
C224 O215 1.261 . S
C224 O216 1.252 . S
C225 C228 1.394 . S
C225 C230 1.370 . S
C225 C231 1.500 . S
C226 C229 1.383 . S
C226 C230 1.395 . S
C227 C228 1.396 . S
C227 C229 1.365 . S
C227 H244 0.929 . S
C228 C225 1.394 . S
C228 C227 1.396 . S
C228 H245 0.930 . S
C229 C226 1.383 . S
C229 C227 1.365 . S
C229 H246 0.931 . S
C230 C225 1.370 . S
C230 C226 1.395 . S
C230 H247 0.930 . S
C231 Gd178 2.805 . S
C231 O213 1.263 . S
C231 O214 1.252 . S
C231 C225 1.500 . S
C232 H194 0.930 . S
C232 C208 1.417 1_655 S
C232 C233 1.329 . S
C233 C203 1.437 1_655 S
C233 H204 0.929 . S
C233 C232 1.329 . S
H234 C207 0.931 1_655 S
C235 O217 1.265 . S
C235 O218 1.242 . S
C236 O221 1.261 . S
C236 O222 1.252 . S
C237 C240 1.394 . S
C237 C242 1.370 . S
C237 C243 1.500 . S
C238 C241 1.383 . S
C238 C242 1.395 . S
C239 C240 1.396 . S
C239 C241 1.365 . S
C239 H248 0.929 . S
C240 C237 1.394 . S
C240 C239 1.396 . S
C240 H249 0.930 . S
C241 C238 1.383 . S
C241 C239 1.365 . S
C241 H250 0.931 . S
C242 C237 1.370 . S
C242 C238 1.395 . S
C242 H251 0.930 . S
C243 Gd179 2.805 1_545 S
C243 O219 1.263 . S
C243 O220 1.252 . S
C243 C237 1.500 . S
H244 C227 0.929 . S
H245 C228 0.930 . S
H246 C229 0.931 . S
H247 C230 0.930 . S
H248 C239 0.929 . S
H249 C240 0.930 . S
H250 C241 0.931 . S
H251 C242 0.930 . S
C252 C254 1.422 . S
C252 C256 1.415 . S
C252 N258 1.369 . S
C253 C254 1.421 . S
C253 C255 1.418 . S
C253 C265 1.422 1_545 S
C254 C252 1.422 . S
C254 C253 1.421 . S
C254 N264 1.359 . S
C255 C253 1.418 . S
C255 C257 1.332 . S
C255 H274 0.927 1_545 S
C256 C252 1.415 . S
C256 C257 1.437 . S
C256 C260 1.413 . S
C257 C255 1.332 . S
C257 C256 1.437 . S
C257 H279 0.929 . S
N258 C252 1.369 . S
N258 C259 1.338 . S
N258 Gd263 2.622 . S
C259 N258 1.338 . S
C259 C261 1.378 . S
C259 H271 0.929 . S
C260 C256 1.413 . S
C260 C261 1.348 . S
C260 H276 0.931 . S
C261 C259 1.378 . S
C261 C260 1.348 . S
C261 H277 0.930 . S
Gd262 N282 2.622 . S
Gd262 N289 2.570 . S
Gd262 O296 2.353 . S
Gd262 O297 2.468 . S
Gd262 O298 2.427 . S
Gd262 O300 2.388 . S
Gd262 O301 2.386 . S
Gd262 O305 2.307 . S
Gd262 C315 2.805 . S
Gd263 N258 2.622 . S
Gd263 N264 2.570 . S
Gd263 O295 2.386 . S
Gd263 O299 2.307 . S
Gd263 O302 2.353 . S
Gd263 O303 2.468 1_545 S
Gd263 O304 2.427 1_545 S
Gd263 O306 2.388 . S
Gd263 C327 2.805 1_545 S
N264 C254 1.359 . S
N264 Gd263 2.570 . S
N264 C266 1.343 . S
C265 C253 1.422 1_565 S
C265 C267 1.321 . S
C265 H273 0.931 . S
C266 N264 1.343 . S
C266 C267 1.390 1_545 S
C266 H268 0.931 . S
C267 C265 1.321 . S
C267 C266 1.390 1_565 S
C267 H269 0.930 . S
H268 C266 0.931 . S
H269 C267 0.930 . S
H270 C293 0.931 . S
H271 C259 0.929 . S
H272 C294 0.930 . S
H273 C265 0.931 . S
H274 C255 0.927 1_565 S
H275 C284 0.929 . S
H276 C260 0.931 . S
H277 C261 0.930 . S
H278 C316 0.930 . S
H279 C257 0.929 . S
H280 C285 0.931 . S
H281 C286 0.930 . S
N282 Gd262 2.622 . S
N282 C283 1.369 . S
N282 C284 1.338 . S
C283 N282 1.369 . S
C283 C287 1.415 . S
C283 C290 1.422 . S
C284 H275 0.929 . S
C284 N282 1.338 . S
C284 C286 1.378 . S
C285 H280 0.931 . S
C285 C286 1.348 . S
C285 C287 1.413 . S
C286 H281 0.930 . S
C286 C284 1.378 . S
C286 C285 1.348 . S
C287 C283 1.415 . S
C287 C285 1.413 . S
C287 C317 1.437 1_655 S
H288 C317 0.929 . S
N289 Gd262 2.570 . S
N289 C290 1.359 . S
N289 C293 1.343 . S
C290 C283 1.422 . S
C290 N289 1.359 . S
C290 C292 1.421 . S
C291 C292 1.422 . S
C291 C294 1.321 . S
C291 H318 0.931 1_655 S
C292 C290 1.421 . S
C292 C291 1.422 . S
C292 C316 1.417 1_655 S
C293 H270 0.931 . S
C293 N289 1.343 . S
C293 C294 1.390 . S
C294 H272 0.930 . S
C294 C291 1.321 . S
C294 C293 1.390 . S
O295 Gd263 2.386 . S
O295 C307 1.265 . S
O296 Gd262 2.353 . S
O296 C307 1.242 . S
O297 Gd262 2.468 . S
O297 C315 1.263 . S
O298 Gd262 2.427 . S
O298 C315 1.252 . S
O299 Gd263 2.307 . S
O299 C308 1.261 . S
O300 Gd262 2.388 . S
O300 C308 1.252 . S
O301 Gd262 2.386 . S
O301 C319 1.265 . S
O302 Gd263 2.353 . S
O302 C319 1.242 . S
O303 Gd263 2.468 1_565 S
O303 C327 1.263 . S
O304 Gd263 2.427 1_565 S
O304 C327 1.252 . S
O305 Gd262 2.307 . S
O305 C320 1.261 . S
O306 Gd263 2.388 . S
O306 C320 1.252 . S
C307 O295 1.265 . S
C307 O296 1.242 . S
C308 O299 1.261 . S
C308 O300 1.252 . S
C309 C312 1.394 . S
C309 C314 1.370 . S
C309 C315 1.500 . S
C310 C313 1.383 . S
C310 C314 1.395 . S
C311 C312 1.396 . S
C311 C313 1.365 . S
C311 H328 0.929 . S
C312 C309 1.394 . S
C312 C311 1.396 . S
C312 H329 0.930 . S
C313 C310 1.383 . S
C313 C311 1.365 . S
C313 H330 0.931 . S
C314 C309 1.370 . S
C314 C310 1.395 . S
C314 H331 0.930 . S
C315 Gd262 2.805 . S
C315 O297 1.263 . S
C315 O298 1.252 . S
C315 C309 1.500 . S
C316 H278 0.930 . S
C316 C292 1.417 1_455 S
C316 C317 1.329 . S
C317 C287 1.437 1_455 S
C317 H288 0.929 . S
C317 C316 1.329 . S
H318 C291 0.931 1_455 S
C319 O301 1.265 . S
C319 O302 1.242 . S
C320 O305 1.261 . S
C320 O306 1.252 . S
C321 C324 1.394 . S
C321 C326 1.370 . S
C321 C327 1.500 . S
C322 C325 1.383 . S
C322 C326 1.395 . S
C323 C324 1.396 . S
C323 C325 1.365 . S
C323 H332 0.929 . S
C324 C321 1.394 . S
C324 C323 1.396 . S
C324 H333 0.930 . S
C325 C322 1.383 . S
C325 C323 1.365 . S
C325 H334 0.931 . S
C326 C321 1.370 . S
C326 C322 1.395 . S
C326 H335 0.930 . S
C327 Gd263 2.805 1_565 S
C327 O303 1.263 . S
C327 O304 1.252 . S
C327 C321 1.500 . S
H328 C311 0.929 . S
H329 C312 0.930 . S
H330 C313 0.931 . S
H331 C314 0.930 . S
H332 C323 0.929 . S
H333 C324 0.930 . S
H334 C325 0.931 . S
H335 C326 0.930 . S
C336 C338 1.422 . S
C336 C340 1.415 . S
C336 N342 1.369 . S
C337 C338 1.421 . S
C337 C339 1.417 1_655 S
C337 C349 1.422 . S
C338 C336 1.422 . S
C338 C337 1.421 . S
C338 N348 1.359 . S
C339 C337 1.417 1_455 S
C339 C341 1.329 . S
C339 H358 0.930 . S
C340 C336 1.415 . S
C340 C341 1.437 1_655 S
C340 C344 1.413 . S
C341 C339 1.329 . S
C341 C340 1.437 1_455 S
C341 H363 0.929 . S
N342 C336 1.369 . S
N342 C343 1.338 . S
N342 Gd347 2.622 . S
C343 N342 1.338 . S
C343 C345 1.378 . S
C343 H355 0.929 . S
C344 C340 1.413 . S
C344 C345 1.348 . S
C344 H360 0.931 . S
C345 C343 1.378 . S
C345 C344 1.348 . S
C345 H361 0.930 . S
Gd346 N366 2.622 . S
Gd346 N373 2.570 . S
Gd346 O380 2.353 . S
Gd346 O381 2.468 1_565 S
Gd346 O382 2.427 1_565 S
Gd346 O384 2.388 . S
Gd346 O385 2.386 . S
Gd346 O389 2.307 . S
Gd346 C399 2.805 1_565 S
Gd347 N342 2.622 . S
Gd347 N348 2.570 . S
Gd347 O379 2.386 . S
Gd347 O383 2.307 . S
Gd347 O386 2.353 . S
Gd347 O387 2.468 . S
Gd347 O388 2.427 . S
Gd347 O390 2.388 . S
Gd347 C411 2.805 . S
N348 C338 1.359 . S
N348 Gd347 2.570 . S
N348 C350 1.343 . S
C349 C337 1.422 . S
C349 C351 1.321 . S
C349 H357 0.931 1_655 S
C350 N348 1.343 . S
C350 C351 1.390 . S
C350 H352 0.931 . S
C351 C349 1.321 . S
C351 C350 1.390 . S
C351 H353 0.930 . S
H352 C350 0.931 . S
H353 C351 0.930 . S
H354 C377 0.931 . S
H355 C343 0.929 . S
H356 C378 0.930 . S
H357 C349 0.931 1_455 S
H358 C339 0.930 . S
H359 C368 0.929 . S
H360 C344 0.931 . S
H361 C345 0.930 . S
H362 C400 0.927 1_545 S
H363 C341 0.929 . S
H364 C369 0.931 . S
H365 C370 0.930 . S
N366 Gd346 2.622 . S
N366 C367 1.369 . S
N366 C368 1.338 . S
C367 N366 1.369 . S
C367 C371 1.415 . S
C367 C374 1.422 . S
C368 H359 0.929 . S
C368 N366 1.338 . S
C368 C370 1.378 . S
C369 H364 0.931 . S
C369 C370 1.348 . S
C369 C371 1.413 . S
C370 H365 0.930 . S
C370 C368 1.378 . S
C370 C369 1.348 . S
C371 C367 1.415 . S
C371 C369 1.413 . S
C371 C401 1.437 . S
H372 C401 0.929 . S
N373 Gd346 2.570 . S
N373 C374 1.359 . S
N373 C377 1.343 . S
C374 C367 1.422 . S
C374 N373 1.359 . S
C374 C376 1.421 . S
C375 C376 1.422 1_545 S
C375 C378 1.321 . S
C375 H402 0.931 . S
C376 C374 1.421 . S
C376 C375 1.422 1_565 S
C376 C400 1.418 . S
C377 H354 0.931 . S
C377 N373 1.343 . S
C377 C378 1.390 1_565 S
C378 H356 0.930 . S
C378 C375 1.321 . S
C378 C377 1.390 1_545 S
O379 Gd347 2.386 . S
O379 C391 1.265 . S
O380 Gd346 2.353 . S
O380 C391 1.242 . S
O381 Gd346 2.468 1_545 S
O381 C399 1.263 . S
O382 Gd346 2.427 1_545 S
O382 C399 1.252 . S
O383 Gd347 2.307 . S
O383 C392 1.261 . S
O384 Gd346 2.388 . S
O384 C392 1.252 . S
O385 Gd346 2.386 . S
O385 C403 1.265 . S
O386 Gd347 2.353 . S
O386 C403 1.242 . S
O387 Gd347 2.468 . S
O387 C411 1.263 . S
O388 Gd347 2.427 . S
O388 C411 1.252 . S
O389 Gd346 2.307 . S
O389 C404 1.261 . S
O390 Gd347 2.388 . S
O390 C404 1.252 . S
C391 O379 1.265 . S
C391 O380 1.242 . S
C392 O383 1.261 . S
C392 O384 1.252 . S
C393 C396 1.394 . S
C393 C398 1.370 . S
C393 C399 1.500 . S
C394 C397 1.383 . S
C394 C398 1.395 . S
C395 C396 1.396 . S
C395 C397 1.365 . S
C395 H412 0.929 . S
C396 C393 1.394 . S
C396 C395 1.396 . S
C396 H413 0.930 . S
C397 C394 1.383 . S
C397 C395 1.365 . S
C397 H414 0.931 . S
C398 C393 1.370 . S
C398 C394 1.395 . S
C398 H415 0.930 . S
C399 Gd346 2.805 1_545 S
C399 O381 1.263 . S
C399 O382 1.252 . S
C399 C393 1.500 . S
C400 H362 0.927 1_565 S
C400 C376 1.418 . S
C400 C401 1.332 . S
C401 C371 1.437 . S
C401 H372 0.929 . S
C401 C400 1.332 . S
H402 C375 0.931 . S
C403 O385 1.265 . S
C403 O386 1.242 . S
C404 O389 1.261 . S
C404 O390 1.252 . S
C405 C408 1.394 . S
C405 C410 1.370 . S
C405 C411 1.500 . S
C406 C409 1.383 . S
C406 C410 1.395 . S
C407 C408 1.396 . S
C407 C409 1.365 . S
C407 H416 0.929 . S
C408 C405 1.394 . S
C408 C407 1.396 . S
C408 H417 0.930 . S
C409 C406 1.383 . S
C409 C407 1.365 . S
C409 H418 0.931 . S
C410 C405 1.370 . S
C410 C406 1.395 . S
C410 H419 0.930 . S
C411 Gd347 2.805 . S
C411 O387 1.263 . S
C411 O388 1.252 . S
C411 C405 1.500 . S
H412 C395 0.929 . S
H413 C396 0.930 . S
H414 C397 0.931 . S
H415 C398 0.930 . S
H416 C407 0.929 . S
H417 C408 0.930 . S
H418 C409 0.931 . S
H419 C410 0.930 . S
C420 C422 1.422 . S
C420 C424 1.415 . S
C420 N426 1.369 . S
C421 C422 1.421 . S
C421 C423 1.417 1_455 S
C421 C433 1.422 . S
C422 C420 1.422 . S
C422 C421 1.421 . S
C422 N432 1.359 . S
C423 C421 1.417 1_655 S
C423 C425 1.329 . S
C423 H442 0.930 . S
C424 C420 1.415 . S
C424 C425 1.437 1_455 S
C424 C428 1.413 . S
C425 C423 1.329 . S
C425 C424 1.437 1_655 S
C425 H447 0.929 . S
N426 C420 1.369 . S
N426 C427 1.338 . S
N426 Gd431 2.622 . S
C427 N426 1.338 . S
C427 C429 1.378 . S
C427 H439 0.929 . S
C428 C424 1.413 . S
C428 C429 1.348 . S
C428 H444 0.931 . S
C429 C427 1.378 . S
C429 C428 1.348 . S
C429 H445 0.930 . S
Gd430 N450 2.622 . S
Gd430 N457 2.570 . S
Gd430 O464 2.353 . S
Gd430 O465 2.468 1_545 S
Gd430 O466 2.427 1_545 S
Gd430 O468 2.388 . S
Gd430 O469 2.386 . S
Gd430 O473 2.307 . S
Gd430 C483 2.805 1_545 S
Gd431 N426 2.622 . S
Gd431 N432 2.570 . S
Gd431 O463 2.386 . S
Gd431 O467 2.307 . S
Gd431 O470 2.353 . S
Gd431 O471 2.468 . S
Gd431 O472 2.427 . S
Gd431 O474 2.388 . S
Gd431 C495 2.805 . S
N432 C422 1.359 . S
N432 Gd431 2.570 . S
N432 C434 1.343 . S
C433 C421 1.422 . S
C433 C435 1.321 . S
C433 H441 0.931 1_455 S
C434 N432 1.343 . S
C434 C435 1.390 . S
C434 H436 0.931 . S
C435 C433 1.321 . S
C435 C434 1.390 . S
C435 H437 0.930 . S
H436 C434 0.931 . S
H437 C435 0.930 . S
H438 C461 0.931 . S
H439 C427 0.929 . S
H440 C462 0.930 . S
H441 C433 0.931 1_655 S
H442 C423 0.930 . S
H443 C452 0.929 . S
H444 C428 0.931 . S
H445 C429 0.930 . S
H446 C484 0.927 1_565 S
H447 C425 0.929 . S
H448 C453 0.931 . S
H449 C454 0.930 . S
N450 Gd430 2.622 . S
N450 C451 1.369 . S
N450 C452 1.338 . S
C451 N450 1.369 . S
C451 C455 1.415 . S
C451 C458 1.422 . S
C452 H443 0.929 . S
C452 N450 1.338 . S
C452 C454 1.378 . S
C453 H448 0.931 . S
C453 C454 1.348 . S
C453 C455 1.413 . S
C454 H449 0.930 . S
C454 C452 1.378 . S
C454 C453 1.348 . S
C455 C451 1.415 . S
C455 C453 1.413 . S
C455 C485 1.437 . S
H456 C485 0.929 . S
N457 Gd430 2.570 . S
N457 C458 1.359 . S
N457 C461 1.343 . S
C458 C451 1.422 . S
C458 N457 1.359 . S
C458 C460 1.421 . S
C459 C460 1.422 1_565 S
C459 C462 1.321 . S
C459 H486 0.931 . S
C460 C458 1.421 . S
C460 C459 1.422 1_545 S
C460 C484 1.418 . S
C461 H438 0.931 . S
C461 N457 1.343 . S
C461 C462 1.390 1_545 S
C462 H440 0.930 . S
C462 C459 1.321 . S
C462 C461 1.390 1_565 S
O463 Gd431 2.386 . S
O463 C475 1.265 . S
O464 Gd430 2.353 . S
O464 C475 1.242 . S
O465 Gd430 2.468 1_565 S
O465 C483 1.263 . S
O466 Gd430 2.427 1_565 S
O466 C483 1.252 . S
O467 Gd431 2.307 . S
O467 C476 1.261 . S
O468 Gd430 2.388 . S
O468 C476 1.252 . S
O469 Gd430 2.386 . S
O469 C487 1.265 . S
O470 Gd431 2.353 . S
O470 C487 1.242 . S
O471 Gd431 2.468 . S
O471 C495 1.263 . S
O472 Gd431 2.427 . S
O472 C495 1.252 . S
O473 Gd430 2.307 . S
O473 C488 1.261 . S
O474 Gd431 2.388 . S
O474 C488 1.252 . S
C475 O463 1.265 . S
C475 O464 1.242 . S
C476 O467 1.261 . S
C476 O468 1.252 . S
C477 C480 1.394 . S
C477 C482 1.370 . S
C477 C483 1.500 . S
C478 C481 1.383 . S
C478 C482 1.395 . S
C479 C480 1.396 . S
C479 C481 1.365 . S
C479 H496 0.929 . S
C480 C477 1.394 . S
C480 C479 1.396 . S
C480 H497 0.930 . S
C481 C478 1.383 . S
C481 C479 1.365 . S
C481 H498 0.931 . S
C482 C477 1.370 . S
C482 C478 1.395 . S
C482 H499 0.930 . S
C483 Gd430 2.805 1_565 S
C483 O465 1.263 . S
C483 O466 1.252 . S
C483 C477 1.500 . S
C484 H446 0.927 1_545 S
C484 C460 1.418 . S
C484 C485 1.332 . S
C485 C455 1.437 . S
C485 H456 0.929 . S
C485 C484 1.332 . S
H486 C459 0.931 . S
C487 O469 1.265 . S
C487 O470 1.242 . S
C488 O473 1.261 . S
C488 O474 1.252 . S
C489 C492 1.394 . S
C489 C494 1.370 . S
C489 C495 1.500 . S
C490 C493 1.383 . S
C490 C494 1.395 . S
C491 C492 1.396 . S
C491 C493 1.365 . S
C491 H500 0.929 . S
C492 C489 1.394 . S
C492 C491 1.396 . S
C492 H501 0.930 . S
C493 C490 1.383 . S
C493 C491 1.365 . S
C493 H502 0.931 . S
C494 C489 1.370 . S
C494 C490 1.395 . S
C494 H503 0.930 . S
C495 Gd431 2.805 . S
C495 O471 1.263 . S
C495 O472 1.252 . S
C495 C489 1.500 . S
H496 C479 0.929 . S
H497 C480 0.930 . S
H498 C481 0.931 . S
H499 C482 0.930 . S
H500 C491 0.929 . S
H501 C492 0.930 . S
H502 C493 0.931 . S
H503 C494 0.930 . S
C504 C506 1.422 . S
C504 C508 1.415 . S
C504 N510 1.369 . S
C505 C506 1.421 . S
C505 C507 1.417 1_655 S
C505 C517 1.422 . S
C506 C504 1.422 . S
C506 C505 1.421 . S
C506 N516 1.359 . S
C507 C505 1.417 1_455 S
C507 C509 1.329 . S
C507 H526 0.930 . S
C508 C504 1.415 . S
C508 C509 1.437 1_655 S
C508 C512 1.413 . S
C509 C507 1.329 . S
C509 C508 1.437 1_455 S
C509 H531 0.929 . S
N510 C504 1.369 . S
N510 C511 1.338 . S
N510 Gd515 2.622 . S
C511 N510 1.338 . S
C511 C513 1.378 . S
C511 H523 0.929 . S
C512 C508 1.413 . S
C512 C513 1.348 . S
C512 H528 0.931 . S
C513 C511 1.378 . S
C513 C512 1.348 . S
C513 H529 0.930 . S
Gd514 N534 2.622 . S
Gd514 N541 2.570 . S
Gd514 O548 2.353 . S
Gd514 O549 2.468 1_545 S
Gd514 O550 2.427 1_545 S
Gd514 O552 2.388 . S
Gd514 O553 2.386 . S
Gd514 O557 2.307 . S
Gd514 C567 2.805 1_545 S
Gd515 N510 2.622 . S
Gd515 N516 2.570 . S
Gd515 O547 2.386 . S
Gd515 O551 2.307 . S
Gd515 O554 2.353 . S
Gd515 O555 2.468 . S
Gd515 O556 2.427 . S
Gd515 O558 2.388 . S
Gd515 C579 2.805 . S
N516 C506 1.359 . S
N516 Gd515 2.570 . S
N516 C518 1.343 . S
C517 C505 1.422 . S
C517 C519 1.321 . S
C517 H525 0.931 1_655 S
C518 N516 1.343 . S
C518 C519 1.390 . S
C518 H520 0.931 . S
C519 C517 1.321 . S
C519 C518 1.390 . S
C519 H521 0.930 . S
H520 C518 0.931 . S
H521 C519 0.930 . S
H522 C545 0.931 . S
H523 C511 0.929 . S
H524 C546 0.930 . S
H525 C517 0.931 1_455 S
H526 C507 0.930 . S
H527 C536 0.929 . S
H528 C512 0.931 . S
H529 C513 0.930 . S
H530 C568 0.927 1_565 S
H531 C509 0.929 . S
H532 C537 0.931 . S
H533 C538 0.930 . S
N534 Gd514 2.622 . S
N534 C535 1.369 . S
N534 C536 1.338 . S
C535 N534 1.369 . S
C535 C539 1.415 . S
C535 C542 1.422 . S
C536 H527 0.929 . S
C536 N534 1.338 . S
C536 C538 1.378 . S
C537 H532 0.931 . S
C537 C538 1.348 . S
C537 C539 1.413 . S
C538 H533 0.930 . S
C538 C536 1.378 . S
C538 C537 1.348 . S
C539 C535 1.415 . S
C539 C537 1.413 . S
C539 C569 1.437 . S
H540 C569 0.929 . S
N541 Gd514 2.570 . S
N541 C542 1.359 . S
N541 C545 1.343 . S
C542 C535 1.422 . S
C542 N541 1.359 . S
C542 C544 1.421 . S
C543 C544 1.422 1_565 S
C543 C546 1.321 . S
C543 H570 0.931 . S
C544 C542 1.421 . S
C544 C543 1.422 1_545 S
C544 C568 1.418 . S
C545 H522 0.931 . S
C545 N541 1.343 . S
C545 C546 1.390 1_545 S
C546 H524 0.930 . S
C546 C543 1.321 . S
C546 C545 1.390 1_565 S
O547 Gd515 2.386 . S
O547 C559 1.265 . S
O548 Gd514 2.353 . S
O548 C559 1.242 . S
O549 Gd514 2.468 1_565 S
O549 C567 1.263 . S
O550 Gd514 2.427 1_565 S
O550 C567 1.252 . S
O551 Gd515 2.307 . S
O551 C560 1.261 . S
O552 Gd514 2.388 . S
O552 C560 1.252 . S
O553 Gd514 2.386 . S
O553 C571 1.265 . S
O554 Gd515 2.353 . S
O554 C571 1.242 . S
O555 Gd515 2.468 . S
O555 C579 1.263 . S
O556 Gd515 2.427 . S
O556 C579 1.252 . S
O557 Gd514 2.307 . S
O557 C572 1.261 . S
O558 Gd515 2.388 . S
O558 C572 1.252 . S
C559 O547 1.265 . S
C559 O548 1.242 . S
C560 O551 1.261 . S
C560 O552 1.252 . S
C561 C564 1.394 . S
C561 C566 1.370 . S
C561 C567 1.500 . S
C562 C565 1.383 . S
C562 C566 1.395 . S
C563 C564 1.396 . S
C563 C565 1.365 . S
C563 H580 0.929 . S
C564 C561 1.394 . S
C564 C563 1.396 . S
C564 H581 0.930 . S
C565 C562 1.383 . S
C565 C563 1.365 . S
C565 H582 0.931 . S
C566 C561 1.370 . S
C566 C562 1.395 . S
C566 H583 0.930 . S
C567 Gd514 2.805 1_565 S
C567 O549 1.263 . S
C567 O550 1.252 . S
C567 C561 1.500 . S
C568 H530 0.927 1_545 S
C568 C544 1.418 . S
C568 C569 1.332 . S
C569 C539 1.437 . S
C569 H540 0.929 . S
C569 C568 1.332 . S
H570 C543 0.931 . S
C571 O553 1.265 . S
C571 O554 1.242 . S
C572 O557 1.261 . S
C572 O558 1.252 . S
C573 C576 1.394 . S
C573 C578 1.370 . S
C573 C579 1.500 . S
C574 C577 1.383 . S
C574 C578 1.395 . S
C575 C576 1.396 . S
C575 C577 1.365 . S
C575 H584 0.929 . S
C576 C573 1.394 . S
C576 C575 1.396 . S
C576 H585 0.930 . S
C577 C574 1.383 . S
C577 C575 1.365 . S
C577 H586 0.931 . S
C578 C573 1.370 . S
C578 C574 1.395 . S
C578 H587 0.930 . S
C579 Gd515 2.805 . S
C579 O555 1.263 . S
C579 O556 1.252 . S
C579 C573 1.500 . S
H580 C563 0.929 . S
H581 C564 0.930 . S
H582 C565 0.931 . S
H583 C566 0.930 . S
H584 C575 0.929 . S
H585 C576 0.930 . S
H586 C577 0.931 . S
H587 C578 0.930 . S
C588 C590 1.422 . S
C588 C592 1.415 . S
C588 N594 1.369 . S
C589 C590 1.421 . S
C589 C591 1.417 1_455 S
C589 C601 1.422 . S
C590 C588 1.422 . S
C590 C589 1.421 . S
C590 N600 1.359 . S
C591 C589 1.417 1_655 S
C591 C593 1.329 . S
C591 H610 0.930 . S
C592 C588 1.415 . S
C592 C593 1.437 1_455 S
C592 C596 1.413 . S
C593 C591 1.329 . S
C593 C592 1.437 1_655 S
C593 H615 0.929 . S
N594 C588 1.369 . S
N594 C595 1.338 . S
N594 Gd599 2.622 . S
C595 N594 1.338 . S
C595 C597 1.378 . S
C595 H607 0.929 . S
C596 C592 1.413 . S
C596 C597 1.348 . S
C596 H612 0.931 . S
C597 C595 1.378 . S
C597 C596 1.348 . S
C597 H613 0.930 . S
Gd598 N618 2.622 . S
Gd598 N625 2.570 . S
Gd598 O632 2.353 . S
Gd598 O633 2.468 1_565 S
Gd598 O634 2.427 1_565 S
Gd598 O636 2.388 . S
Gd598 O637 2.386 . S
Gd598 O641 2.307 . S
Gd598 C651 2.805 1_565 S
Gd599 N594 2.622 . S
Gd599 N600 2.570 . S
Gd599 O631 2.386 . S
Gd599 O635 2.307 . S
Gd599 O638 2.353 . S
Gd599 O639 2.468 . S
Gd599 O640 2.427 . S
Gd599 O642 2.388 . S
Gd599 C663 2.805 . S
N600 C590 1.359 . S
N600 Gd599 2.570 . S
N600 C602 1.343 . S
C601 C589 1.422 . S
C601 C603 1.321 . S
C601 H609 0.931 1_455 S
C602 N600 1.343 . S
C602 C603 1.390 . S
C602 H604 0.931 . S
C603 C601 1.321 . S
C603 C602 1.390 . S
C603 H605 0.930 . S
H604 C602 0.931 . S
H605 C603 0.930 . S
H606 C629 0.931 . S
H607 C595 0.929 . S
H608 C630 0.930 . S
H609 C601 0.931 1_655 S
H610 C591 0.930 . S
H611 C620 0.929 . S
H612 C596 0.931 . S
H613 C597 0.930 . S
H614 C652 0.927 1_545 S
H615 C593 0.929 . S
H616 C621 0.931 . S
H617 C622 0.930 . S
N618 Gd598 2.622 . S
N618 C619 1.369 . S
N618 C620 1.338 . S
C619 N618 1.369 . S
C619 C623 1.415 . S
C619 C626 1.422 . S
C620 H611 0.929 . S
C620 N618 1.338 . S
C620 C622 1.378 . S
C621 H616 0.931 . S
C621 C622 1.348 . S
C621 C623 1.413 . S
C622 H617 0.930 . S
C622 C620 1.378 . S
C622 C621 1.348 . S
C623 C619 1.415 . S
C623 C621 1.413 . S
C623 C653 1.437 . S
H624 C653 0.929 . S
N625 Gd598 2.570 . S
N625 C626 1.359 . S
N625 C629 1.343 . S
C626 C619 1.422 . S
C626 N625 1.359 . S
C626 C628 1.421 . S
C627 C628 1.422 1_545 S
C627 C630 1.321 . S
C627 H654 0.931 . S
C628 C626 1.421 . S
C628 C627 1.422 1_565 S
C628 C652 1.418 . S
C629 H606 0.931 . S
C629 N625 1.343 . S
C629 C630 1.390 1_565 S
C630 H608 0.930 . S
C630 C627 1.321 . S
C630 C629 1.390 1_545 S
O631 Gd599 2.386 . S
O631 C643 1.265 . S
O632 Gd598 2.353 . S
O632 C643 1.242 . S
O633 Gd598 2.468 1_545 S
O633 C651 1.263 . S
O634 Gd598 2.427 1_545 S
O634 C651 1.252 . S
O635 Gd599 2.307 . S
O635 C644 1.261 . S
O636 Gd598 2.388 . S
O636 C644 1.252 . S
O637 Gd598 2.386 . S
O637 C655 1.265 . S
O638 Gd599 2.353 . S
O638 C655 1.242 . S
O639 Gd599 2.468 . S
O639 C663 1.263 . S
O640 Gd599 2.427 . S
O640 C663 1.252 . S
O641 Gd598 2.307 . S
O641 C656 1.261 . S
O642 Gd599 2.388 . S
O642 C656 1.252 . S
C643 O631 1.265 . S
C643 O632 1.242 . S
C644 O635 1.261 . S
C644 O636 1.252 . S
C645 C648 1.394 . S
C645 C650 1.370 . S
C645 C651 1.500 . S
C646 C649 1.383 . S
C646 C650 1.395 . S
C647 C648 1.396 . S
C647 C649 1.365 . S
C647 H664 0.929 . S
C648 C645 1.394 . S
C648 C647 1.396 . S
C648 H665 0.930 . S
C649 C646 1.383 . S
C649 C647 1.365 . S
C649 H666 0.931 . S
C650 C645 1.370 . S
C650 C646 1.395 . S
C650 H667 0.930 . S
C651 Gd598 2.805 1_545 S
C651 O633 1.263 . S
C651 O634 1.252 . S
C651 C645 1.500 . S
C652 H614 0.927 1_565 S
C652 C628 1.418 . S
C652 C653 1.332 . S
C653 C623 1.437 . S
C653 H624 0.929 . S
C653 C652 1.332 . S
H654 C627 0.931 . S
C655 O637 1.265 . S
C655 O638 1.242 . S
C656 O641 1.261 . S
C656 O642 1.252 . S
C657 C660 1.394 . S
C657 C662 1.370 . S
C657 C663 1.500 . S
C658 C661 1.383 . S
C658 C662 1.395 . S
C659 C660 1.396 . S
C659 C661 1.365 . S
C659 H668 0.929 . S
C660 C657 1.394 . S
C660 C659 1.396 . S
C660 H669 0.930 . S
C661 C658 1.383 . S
C661 C659 1.365 . S
C661 H670 0.931 . S
C662 C657 1.370 . S
C662 C658 1.395 . S
C662 H671 0.930 . S
C663 Gd599 2.805 . S
C663 O639 1.263 . S
C663 O640 1.252 . S
C663 C657 1.500 . S
H664 C647 0.929 . S
H665 C648 0.930 . S
H666 C649 0.931 . S
H667 C650 0.930 . S
H668 C659 0.929 . S
H669 C660 0.930 . S
H670 C661 0.931 . S
H671 C662 0.930 . S
C672 C674 1.422 . S
C672 C676 1.415 . S
C672 N678 1.369 . S
C673 C674 1.421 . S
C673 C675 1.417 . S
C673 C685 1.422 . S
C674 C672 1.422 . S
C674 C673 1.421 . S
C674 N684 1.359 . S
C675 C673 1.417 . S
C675 C677 1.329 . S
C675 H694 0.930 . S
C676 C672 1.415 . S
C676 C677 1.437 . S
C676 C680 1.413 . S
C677 C675 1.329 . S
C677 C676 1.437 . S
C677 H699 0.929 . S
N678 C672 1.369 . S
N678 C679 1.338 . S
N678 Gd683 2.622 . S
C679 N678 1.338 . S
C679 C681 1.378 . S
C679 H691 0.929 . S
C680 C676 1.413 . S
C680 C681 1.348 . S
C680 H696 0.931 . S
C681 C679 1.378 . S
C681 C680 1.348 . S
C681 H697 0.930 . S
Gd682 N702 2.622 . S
Gd682 N709 2.570 . S
Gd682 O716 2.353 . S
Gd682 O717 2.468 . S
Gd682 O718 2.427 . S
Gd682 O720 2.388 . S
Gd682 O721 2.386 . S
Gd682 O725 2.307 . S
Gd682 C735 2.805 . S
Gd683 N678 2.622 . S
Gd683 N684 2.570 . S
Gd683 O715 2.386 . S
Gd683 O719 2.307 . S
Gd683 O722 2.353 . S
Gd683 O723 2.468 . S
Gd683 O724 2.427 . S
Gd683 O726 2.388 . S
Gd683 C747 2.805 . S
N684 C674 1.359 . S
N684 Gd683 2.570 . S
N684 C686 1.343 . S
C685 C673 1.422 . S
C685 C687 1.321 . S
C685 H693 0.931 . S
C686 N684 1.343 . S
C686 C687 1.390 . S
C686 H688 0.931 . S
C687 C685 1.321 . S
C687 C686 1.390 . S
C687 H689 0.930 . S
H688 C686 0.931 . S
H689 C687 0.930 . S
H690 C713 0.931 . S
H691 C679 0.929 . S
H692 C714 0.930 . S
H693 C685 0.931 . S
H694 C675 0.930 . S
H695 C704 0.929 . S
H696 C680 0.931 . S
H697 C681 0.930 . S
H698 C736 0.930 . S
H699 C677 0.929 . S
H700 C705 0.931 . S
H701 C706 0.930 . S
N702 Gd682 2.622 . S
N702 C703 1.369 . S
N702 C704 1.338 . S
C703 N702 1.369 . S
C703 C707 1.415 . S
C703 C710 1.422 . S
C704 H695 0.929 . S
C704 N702 1.338 . S
C704 C706 1.378 . S
C705 H700 0.931 . S
C705 C706 1.348 . S
C705 C707 1.413 . S
C706 H701 0.930 . S
C706 C704 1.378 . S
C706 C705 1.348 . S
C707 C703 1.415 . S
C707 C705 1.413 . S
C707 C737 1.437 . S
H708 C737 0.929 . S
N709 Gd682 2.570 . S
N709 C710 1.359 . S
N709 C713 1.343 . S
C710 C703 1.422 . S
C710 N709 1.359 . S
C710 C712 1.421 . S
C711 C712 1.422 . S
C711 C714 1.321 . S
C711 H738 0.931 . S
C712 C710 1.421 . S
C712 C711 1.422 . S
C712 C736 1.417 . S
C713 H690 0.931 . S
C713 N709 1.343 . S
C713 C714 1.390 . S
C714 H692 0.930 . S
C714 C711 1.321 . S
C714 C713 1.390 . S
O715 Gd683 2.386 . S
O715 C727 1.265 . S
O716 Gd682 2.353 . S
O716 C727 1.242 . S
O717 Gd682 2.468 . S
O717 C735 1.263 . S
O718 Gd682 2.427 . S
O718 C735 1.252 . S
O719 Gd683 2.307 . S
O719 C728 1.261 . S
O720 Gd682 2.388 . S
O720 C728 1.252 . S
O721 Gd682 2.386 . S
O721 C739 1.265 . S
O722 Gd683 2.353 . S
O722 C739 1.242 . S
O723 Gd683 2.468 . S
O723 C747 1.263 . S
O724 Gd683 2.427 . S
O724 C747 1.252 . S
O725 Gd682 2.307 . S
O725 C740 1.261 . S
O726 Gd683 2.388 . S
O726 C740 1.252 . S
C727 O715 1.265 . S
C727 O716 1.242 . S
C728 O719 1.261 . S
C728 O720 1.252 . S
C729 C732 1.394 . S
C729 C734 1.370 . S
C729 C735 1.500 . S
C730 C733 1.383 . S
C730 C734 1.395 . S
C731 C732 1.396 . S
C731 C733 1.365 . S
C731 H748 0.929 . S
C732 C729 1.394 . S
C732 C731 1.396 . S
C732 H749 0.930 . S
C733 C730 1.383 . S
C733 C731 1.365 . S
C733 H750 0.931 1_565 S
C734 C729 1.370 . S
C734 C730 1.395 . S
C734 H751 0.930 . S
C735 Gd682 2.805 . S
C735 O717 1.263 . S
C735 O718 1.252 . S
C735 C729 1.500 . S
C736 H698 0.930 . S
C736 C712 1.417 . S
C736 C737 1.329 . S
C737 C707 1.437 . S
C737 H708 0.929 . S
C737 C736 1.329 . S
H738 C711 0.931 . S
C739 O721 1.265 . S
C739 O722 1.242 . S
C740 O725 1.261 . S
C740 O726 1.252 . S
C741 C744 1.394 . S
C741 C746 1.370 . S
C741 C747 1.500 . S
C742 C745 1.383 . S
C742 C746 1.395 . S
C743 C744 1.396 . S
C743 C745 1.365 . S
C743 H752 0.929 . S
C744 C741 1.394 . S
C744 C743 1.396 . S
C744 H753 0.930 . S
C745 C742 1.383 . S
C745 C743 1.365 . S
C745 H754 0.931 . S
C746 C741 1.370 . S
C746 C742 1.395 . S
C746 H755 0.930 . S
C747 Gd683 2.805 . S
C747 O723 1.263 . S
C747 O724 1.252 . S
C747 C741 1.500 . S
H748 C731 0.929 . S
H749 C732 0.930 . S
H750 C733 0.931 1_545 S
H751 C734 0.930 . S
H752 C743 0.929 . S
H753 C744 0.930 . S
H754 C745 0.931 . S
H755 C746 0.930 . S
C756 C758 1.422 . S
C756 C760 1.415 . S
C756 N762 1.369 . S
C757 C758 1.421 . S
C757 C759 1.417 . S
C757 C769 1.422 . S
C758 C756 1.422 . S
C758 C757 1.421 . S
C758 N768 1.359 . S
C759 C757 1.417 . S
C759 C761 1.329 . S
C759 H778 0.930 . S
C760 C756 1.415 . S
C760 C761 1.437 . S
C760 C764 1.413 . S
C761 C759 1.329 . S
C761 C760 1.437 . S
C761 H783 0.929 . S
N762 C756 1.369 . S
N762 C763 1.338 . S
N762 Gd767 2.622 . S
C763 N762 1.338 . S
C763 C765 1.378 . S
C763 H775 0.929 . S
C764 C760 1.413 . S
C764 C765 1.348 . S
C764 H780 0.931 . S
C765 C763 1.378 . S
C765 C764 1.348 . S
C765 H781 0.930 . S
Gd766 N786 2.622 . S
Gd766 N793 2.570 . S
Gd766 O800 2.353 . S
Gd766 O801 2.468 . S
Gd766 O802 2.427 . S
Gd766 O804 2.388 . S
Gd766 O805 2.386 . S
Gd766 O809 2.307 . S
Gd766 C819 2.805 . S
Gd767 N762 2.622 . S
Gd767 N768 2.570 . S
Gd767 O799 2.386 . S
Gd767 O803 2.307 . S
Gd767 O806 2.353 . S
Gd767 O807 2.468 . S
Gd767 O808 2.427 . S
Gd767 O810 2.388 . S
Gd767 C831 2.805 . S
N768 C758 1.359 . S
N768 Gd767 2.570 . S
N768 C770 1.343 . S
C769 C757 1.422 . S
C769 C771 1.321 . S
C769 H777 0.931 . S
C770 N768 1.343 . S
C770 C771 1.390 . S
C770 H772 0.931 . S
C771 C769 1.321 . S
C771 C770 1.390 . S
C771 H773 0.930 . S
H772 C770 0.931 . S
H773 C771 0.930 . S
H774 C797 0.931 . S
H775 C763 0.929 . S
H776 C798 0.930 . S
H777 C769 0.931 . S
H778 C759 0.930 . S
H779 C788 0.929 . S
H780 C764 0.931 . S
H781 C765 0.930 . S
H782 C820 0.930 . S
H783 C761 0.929 . S
H784 C789 0.931 . S
H785 C790 0.930 . S
N786 Gd766 2.622 . S
N786 C787 1.369 . S
N786 C788 1.338 . S
C787 N786 1.369 . S
C787 C791 1.415 . S
C787 C794 1.422 . S
C788 H779 0.929 . S
C788 N786 1.338 . S
C788 C790 1.378 . S
C789 H784 0.931 . S
C789 C790 1.348 . S
C789 C791 1.413 . S
C790 H785 0.930 . S
C790 C788 1.378 . S
C790 C789 1.348 . S
C791 C787 1.415 . S
C791 C789 1.413 . S
C791 C821 1.437 . S
H792 C821 0.929 . S
N793 Gd766 2.570 . S
N793 C794 1.359 . S
N793 C797 1.343 . S
C794 C787 1.422 . S
C794 N793 1.359 . S
C794 C796 1.421 . S
C795 C796 1.422 . S
C795 C798 1.321 . S
C795 H822 0.931 . S
C796 C794 1.421 . S
C796 C795 1.422 . S
C796 C820 1.417 . S
C797 H774 0.931 . S
C797 N793 1.343 . S
C797 C798 1.390 . S
C798 H776 0.930 . S
C798 C795 1.321 . S
C798 C797 1.390 . S
O799 Gd767 2.386 . S
O799 C811 1.265 . S
O800 Gd766 2.353 . S
O800 C811 1.242 . S
O801 Gd766 2.468 . S
O801 C819 1.263 . S
O802 Gd766 2.427 . S
O802 C819 1.252 . S
O803 Gd767 2.307 . S
O803 C812 1.261 . S
O804 Gd766 2.388 . S
O804 C812 1.252 . S
O805 Gd766 2.386 . S
O805 C823 1.265 . S
O806 Gd767 2.353 . S
O806 C823 1.242 . S
O807 Gd767 2.468 . S
O807 C831 1.263 . S
O808 Gd767 2.427 . S
O808 C831 1.252 . S
O809 Gd766 2.307 . S
O809 C824 1.261 . S
O810 Gd767 2.388 . S
O810 C824 1.252 . S
C811 O799 1.265 . S
C811 O800 1.242 . S
C812 O803 1.261 . S
C812 O804 1.252 . S
C813 C816 1.394 . S
C813 C818 1.370 . S
C813 C819 1.500 . S
C814 C817 1.383 . S
C814 C818 1.395 . S
C815 C816 1.396 . S
C815 C817 1.365 . S
C815 H832 0.929 . S
C816 C813 1.394 . S
C816 C815 1.396 . S
C816 H833 0.930 . S
C817 C814 1.383 . S
C817 C815 1.365 . S
C817 H834 0.931 1_545 S
C818 C813 1.370 . S
C818 C814 1.395 . S
C818 H835 0.930 . S
C819 Gd766 2.805 . S
C819 O801 1.263 . S
C819 O802 1.252 . S
C819 C813 1.500 . S
C820 H782 0.930 . S
C820 C796 1.417 . S
C820 C821 1.329 . S
C821 C791 1.437 . S
C821 H792 0.929 . S
C821 C820 1.329 . S
H822 C795 0.931 . S
C823 O805 1.265 . S
C823 O806 1.242 . S
C824 O809 1.261 . S
C824 O810 1.252 . S
C825 C828 1.394 . S
C825 C830 1.370 . S
C825 C831 1.500 . S
C826 C829 1.383 . S
C826 C830 1.395 . S
C827 C828 1.396 . S
C827 C829 1.365 . S
C827 H836 0.929 . S
C828 C825 1.394 . S
C828 C827 1.396 . S
C828 H837 0.930 . S
C829 C826 1.383 . S
C829 C827 1.365 . S
C829 H838 0.931 . S
C830 C825 1.370 . S
C830 C826 1.395 . S
C830 H839 0.930 . S
C831 Gd767 2.805 . S
C831 O807 1.263 . S
C831 O808 1.252 . S
C831 C825 1.500 . S
H832 C815 0.929 . S
H833 C816 0.930 . S
H834 C817 0.931 1_565 S
H835 C818 0.930 . S
H836 C827 0.929 . S
H837 C828 0.930 . S
H838 C829 0.931 . S
H839 C830 0.930 . S
C840 C842 1.422 . S
C840 C844 1.415 . S
C840 N846 1.369 . S
C841 C842 1.421 . S
C841 C843 1.417 . S
C841 C853 1.422 . S
C842 C840 1.422 . S
C842 C841 1.421 . S
C842 N852 1.359 . S
C843 C841 1.417 . S
C843 C845 1.329 . S
C843 H862 0.930 . S
C844 C840 1.415 . S
C844 C845 1.437 . S
C844 C848 1.413 . S
C845 C843 1.329 . S
C845 C844 1.437 . S
C845 H867 0.929 . S
N846 C840 1.369 . S
N846 C847 1.338 . S
N846 Gd851 2.622 . S
C847 N846 1.338 . S
C847 C849 1.378 . S
C847 H859 0.929 . S
C848 C844 1.413 . S
C848 C849 1.348 . S
C848 H864 0.931 . S
C849 C847 1.378 . S
C849 C848 1.348 . S
C849 H865 0.930 . S
Gd850 N870 2.622 . S
Gd850 N877 2.570 . S
Gd850 O884 2.353 . S
Gd850 O885 2.468 . S
Gd850 O886 2.427 . S
Gd850 O888 2.388 . S
Gd850 O889 2.386 . S
Gd850 O893 2.307 . S
Gd850 C903 2.805 . S
Gd851 N846 2.622 . S
Gd851 N852 2.570 . S
Gd851 O883 2.386 . S
Gd851 O887 2.307 . S
Gd851 O890 2.353 . S
Gd851 O891 2.468 . S
Gd851 O892 2.427 . S
Gd851 O894 2.388 . S
Gd851 C915 2.805 . S
N852 C842 1.359 . S
N852 Gd851 2.570 . S
N852 C854 1.343 . S
C853 C841 1.422 . S
C853 C855 1.321 . S
C853 H861 0.931 . S
C854 N852 1.343 . S
C854 C855 1.390 . S
C854 H856 0.931 . S
C855 C853 1.321 . S
C855 C854 1.390 . S
C855 H857 0.930 . S
H856 C854 0.931 . S
H857 C855 0.930 . S
H858 C881 0.931 . S
H859 C847 0.929 . S
H860 C882 0.930 . S
H861 C853 0.931 . S
H862 C843 0.930 . S
H863 C872 0.929 . S
H864 C848 0.931 . S
H865 C849 0.930 . S
H866 C904 0.930 . S
H867 C845 0.929 . S
H868 C873 0.931 . S
H869 C874 0.930 . S
N870 Gd850 2.622 . S
N870 C871 1.369 . S
N870 C872 1.338 . S
C871 N870 1.369 . S
C871 C875 1.415 . S
C871 C878 1.422 . S
C872 H863 0.929 . S
C872 N870 1.338 . S
C872 C874 1.378 . S
C873 H868 0.931 . S
C873 C874 1.348 . S
C873 C875 1.413 . S
C874 H869 0.930 . S
C874 C872 1.378 . S
C874 C873 1.348 . S
C875 C871 1.415 . S
C875 C873 1.413 . S
C875 C905 1.437 . S
H876 C905 0.929 . S
N877 Gd850 2.570 . S
N877 C878 1.359 . S
N877 C881 1.343 . S
C878 C871 1.422 . S
C878 N877 1.359 . S
C878 C880 1.421 . S
C879 C880 1.422 . S
C879 C882 1.321 . S
C879 H906 0.931 . S
C880 C878 1.421 . S
C880 C879 1.422 . S
C880 C904 1.417 . S
C881 H858 0.931 . S
C881 N877 1.343 . S
C881 C882 1.390 . S
C882 H860 0.930 . S
C882 C879 1.321 . S
C882 C881 1.390 . S
O883 Gd851 2.386 . S
O883 C895 1.265 . S
O884 Gd850 2.353 . S
O884 C895 1.242 . S
O885 Gd850 2.468 . S
O885 C903 1.263 . S
O886 Gd850 2.427 . S
O886 C903 1.252 . S
O887 Gd851 2.307 . S
O887 C896 1.261 . S
O888 Gd850 2.388 . S
O888 C896 1.252 . S
O889 Gd850 2.386 . S
O889 C907 1.265 . S
O890 Gd851 2.353 . S
O890 C907 1.242 . S
O891 Gd851 2.468 . S
O891 C915 1.263 . S
O892 Gd851 2.427 . S
O892 C915 1.252 . S
O893 Gd850 2.307 . S
O893 C908 1.261 . S
O894 Gd851 2.388 . S
O894 C908 1.252 . S
C895 O883 1.265 . S
C895 O884 1.242 . S
C896 O887 1.261 . S
C896 O888 1.252 . S
C897 C900 1.394 . S
C897 C902 1.370 . S
C897 C903 1.500 . S
C898 C901 1.383 . S
C898 C902 1.395 . S
C899 C900 1.396 . S
C899 C901 1.365 . S
C899 H916 0.929 . S
C900 C897 1.394 . S
C900 C899 1.396 . S
C900 H917 0.930 . S
C901 C898 1.383 . S
C901 C899 1.365 . S
C901 H918 0.931 1_545 S
C902 C897 1.370 . S
C902 C898 1.395 . S
C902 H919 0.930 . S
C903 Gd850 2.805 . S
C903 O885 1.263 . S
C903 O886 1.252 . S
C903 C897 1.500 . S
C904 H866 0.930 . S
C904 C880 1.417 . S
C904 C905 1.329 . S
C905 C875 1.437 . S
C905 H876 0.929 . S
C905 C904 1.329 . S
H906 C879 0.931 . S
C907 O889 1.265 . S
C907 O890 1.242 . S
C908 O893 1.261 . S
C908 O894 1.252 . S
C909 C912 1.394 . S
C909 C914 1.370 . S
C909 C915 1.500 . S
C910 C913 1.383 . S
C910 C914 1.395 . S
C911 C912 1.396 . S
C911 C913 1.365 . S
C911 H920 0.929 . S
C912 C909 1.394 . S
C912 C911 1.396 . S
C912 H921 0.930 . S
C913 C910 1.383 . S
C913 C911 1.365 . S
C913 H922 0.931 . S
C914 C909 1.370 . S
C914 C910 1.395 . S
C914 H923 0.930 . S
C915 Gd851 2.805 . S
C915 O891 1.263 . S
C915 O892 1.252 . S
C915 C909 1.500 . S
H916 C899 0.929 . S
H917 C900 0.930 . S
H918 C901 0.931 1_565 S
H919 C902 0.930 . S
H920 C911 0.929 . S
H921 C912 0.930 . S
H922 C913 0.931 . S
H923 C914 0.930 . S
C924 C926 1.422 . S
C924 C928 1.415 . S
C924 N930 1.369 . S
C925 C926 1.421 . S
C925 C927 1.417 . S
C925 C937 1.422 . S
C926 C924 1.422 . S
C926 C925 1.421 . S
C926 N936 1.359 . S
C927 C925 1.417 . S
C927 C929 1.329 . S
C927 H946 0.930 . S
C928 C924 1.415 . S
C928 C929 1.437 . S
C928 C932 1.413 . S
C929 C927 1.329 . S
C929 C928 1.437 . S
C929 H951 0.929 . S
N930 C924 1.369 . S
N930 C931 1.338 . S
N930 Gd935 2.622 . S
C931 N930 1.338 . S
C931 C933 1.378 . S
C931 H943 0.929 . S
C932 C928 1.413 . S
C932 C933 1.348 . S
C932 H948 0.931 . S
C933 C931 1.378 . S
C933 C932 1.348 . S
C933 H949 0.930 . S
Gd934 N954 2.622 . S
Gd934 N961 2.570 . S
Gd934 O968 2.353 . S
Gd934 O969 2.468 . S
Gd934 O970 2.427 . S
Gd934 O972 2.388 . S
Gd934 O973 2.386 . S
Gd934 O977 2.307 . S
Gd934 C987 2.805 . S
Gd935 N930 2.622 . S
Gd935 N936 2.570 . S
Gd935 O967 2.386 . S
Gd935 O971 2.307 . S
Gd935 O974 2.353 . S
Gd935 O975 2.468 . S
Gd935 O976 2.427 . S
Gd935 O978 2.388 . S
Gd935 C999 2.805 . S
N936 C926 1.359 . S
N936 Gd935 2.570 . S
N936 C938 1.343 . S
C937 C925 1.422 . S
C937 C939 1.321 . S
C937 H945 0.931 . S
C938 N936 1.343 . S
C938 C939 1.390 . S
C938 H940 0.931 . S
C939 C937 1.321 . S
C939 C938 1.390 . S
C939 H941 0.930 . S
H940 C938 0.931 . S
H941 C939 0.930 . S
H942 C965 0.931 . S
H943 C931 0.929 . S
H944 C966 0.930 . S
H945 C937 0.931 . S
H946 C927 0.930 . S
H947 C956 0.929 . S
H948 C932 0.931 . S
H949 C933 0.930 . S
H950 C988 0.930 . S
H951 C929 0.929 . S
H952 C957 0.931 . S
H953 C958 0.930 . S
N954 Gd934 2.622 . S
N954 C955 1.369 . S
N954 C956 1.338 . S
C955 N954 1.369 . S
C955 C959 1.415 . S
C955 C962 1.422 . S
C956 H947 0.929 . S
C956 N954 1.338 . S
C956 C958 1.378 . S
C957 H952 0.931 . S
C957 C958 1.348 . S
C957 C959 1.413 . S
C958 H953 0.930 . S
C958 C956 1.378 . S
C958 C957 1.348 . S
C959 C955 1.415 . S
C959 C957 1.413 . S
C959 C989 1.437 . S
H960 C989 0.929 . S
N961 Gd934 2.570 . S
N961 C962 1.359 . S
N961 C965 1.343 . S
C962 C955 1.422 . S
C962 N961 1.359 . S
C962 C964 1.421 . S
C963 C964 1.422 . S
C963 C966 1.321 . S
C963 H990 0.931 . S
C964 C962 1.421 . S
C964 C963 1.422 . S
C964 C988 1.417 . S
C965 H942 0.931 . S
C965 N961 1.343 . S
C965 C966 1.390 . S
C966 H944 0.930 . S
C966 C963 1.321 . S
C966 C965 1.390 . S
O967 Gd935 2.386 . S
O967 C979 1.265 . S
O968 Gd934 2.353 . S
O968 C979 1.242 . S
O969 Gd934 2.468 . S
O969 C987 1.263 . S
O970 Gd934 2.427 . S
O970 C987 1.252 . S
O971 Gd935 2.307 . S
O971 C980 1.261 . S
O972 Gd934 2.388 . S
O972 C980 1.252 . S
O973 Gd934 2.386 . S
O973 C991 1.265 . S
O974 Gd935 2.353 . S
O974 C991 1.242 . S
O975 Gd935 2.468 . S
O975 C999 1.263 . S
O976 Gd935 2.427 . S
O976 C999 1.252 . S
O977 Gd934 2.307 . S
O977 C992 1.261 . S
O978 Gd935 2.388 . S
O978 C992 1.252 . S
C979 O967 1.265 . S
C979 O968 1.242 . S
C980 O971 1.261 . S
C980 O972 1.252 . S
C981 C984 1.394 . S
C981 C986 1.370 . S
C981 C987 1.500 . S
C982 C985 1.383 . S
C982 C986 1.395 . S
C983 C984 1.396 . S
C983 C985 1.365 . S
C983 H1000 0.929 . S
C984 C981 1.394 . S
C984 C983 1.396 . S
C984 H1001 0.930 . S
C985 C982 1.383 . S
C985 C983 1.365 . S
C985 H1002 0.931 1_565 S
C986 C981 1.370 . S
C986 C982 1.395 . S
C986 H1003 0.930 . S
C987 Gd934 2.805 . S
C987 O969 1.263 . S
C987 O970 1.252 . S
C987 C981 1.500 . S
C988 H950 0.930 . S
C988 C964 1.417 . S
C988 C989 1.329 . S
C989 C959 1.437 . S
C989 H960 0.929 . S
C989 C988 1.329 . S
H990 C963 0.931 . S
C991 O973 1.265 . S
C991 O974 1.242 . S
C992 O977 1.261 . S
C992 O978 1.252 . S
C993 C996 1.394 . S
C993 C998 1.370 . S
C993 C999 1.500 . S
C994 C997 1.383 . S
C994 C998 1.395 . S
C995 C996 1.396 . S
C995 C997 1.365 . S
C995 H1004 0.929 . S
C996 C993 1.394 . S
C996 C995 1.396 . S
C996 H1005 0.930 . S
C997 C994 1.383 . S
C997 C995 1.365 . S
C997 H1006 0.931 . S
C998 C993 1.370 . S
C998 C994 1.395 . S
C998 H1007 0.930 . S
C999 Gd935 2.805 . S
C999 O975 1.263 . S
C999 O976 1.252 . S
C999 C993 1.500 . S
H1000 C983 0.929 . S
H1001 C984 0.930 . S
H1002 C985 0.931 1_545 S
H1003 C986 0.930 . S
H1004 C995 0.929 . S
H1005 C996 0.930 . S
H1006 C997 0.931 . S
H1007 C998 0.930 . S
C1008 C1010 1.422 . S
C1008 C1012 1.415 . S
C1008 N1014 1.369 . S
C1009 C1010 1.421 . S
C1009 C1011 1.417 . S
C1009 C1021 1.422 . S
C1010 C1008 1.422 . S
C1010 C1009 1.421 . S
C1010 N1020 1.359 . S
C1011 C1009 1.417 . S
C1011 C1013 1.329 . S
C1011 H1030 0.930 . S
C1012 C1008 1.415 . S
C1012 C1013 1.437 . S
C1012 C1016 1.413 . S
C1013 C1011 1.329 . S
C1013 C1012 1.437 . S
C1013 H1035 0.929 . S
N1014 C1008 1.369 . S
N1014 C1015 1.338 . S
N1014 Gd1019 2.622 . S
C1015 N1014 1.338 . S
C1015 C1017 1.378 . S
C1015 H1027 0.929 . S
C1016 C1012 1.413 . S
C1016 C1017 1.348 . S
C1016 H1032 0.931 . S
C1017 C1015 1.378 . S
C1017 C1016 1.348 . S
C1017 H1033 0.930 . S
Gd1018 N1038 2.622 . S
Gd1018 N1045 2.570 . S
Gd1018 O1052 2.353 . S
Gd1018 O1053 2.468 . S
Gd1018 O1054 2.427 . S
Gd1018 O1056 2.388 . S
Gd1018 O1057 2.386 . S
Gd1018 O1061 2.307 . S
Gd1018 C1071 2.805 . S
Gd1019 N1014 2.622 . S
Gd1019 N1020 2.570 . S
Gd1019 O1051 2.386 . S
Gd1019 O1055 2.307 . S
Gd1019 O1058 2.353 . S
Gd1019 O1059 2.468 . S
Gd1019 O1060 2.427 . S
Gd1019 O1062 2.388 . S
Gd1019 C1083 2.805 . S
N1020 C1010 1.359 . S
N1020 Gd1019 2.570 . S
N1020 C1022 1.343 . S
C1021 C1009 1.422 . S
C1021 C1023 1.321 . S
C1021 H1029 0.931 . S
C1022 N1020 1.343 . S
C1022 C1023 1.390 . S
C1022 H1024 0.931 . S
C1023 C1021 1.321 . S
C1023 C1022 1.390 . S
C1023 H1025 0.930 . S
H1024 C1022 0.931 . S
H1025 C1023 0.930 . S
H1026 C1049 0.931 . S
H1027 C1015 0.929 . S
H1028 C1050 0.930 . S
H1029 C1021 0.931 . S
H1030 C1011 0.930 . S
H1031 C1040 0.929 . S
H1032 C1016 0.931 . S
H1033 C1017 0.930 . S
H1034 C1072 0.930 . S
H1035 C1013 0.929 . S
H1036 C1041 0.931 . S
H1037 C1042 0.930 . S
N1038 Gd1018 2.622 . S
N1038 C1039 1.369 . S
N1038 C1040 1.338 . S
C1039 N1038 1.369 . S
C1039 C1043 1.415 . S
C1039 C1046 1.422 . S
C1040 H1031 0.929 . S
C1040 N1038 1.338 . S
C1040 C1042 1.378 . S
C1041 H1036 0.931 . S
C1041 C1042 1.348 . S
C1041 C1043 1.413 . S
C1042 H1037 0.930 . S
C1042 C1040 1.378 . S
C1042 C1041 1.348 . S
C1043 C1039 1.415 . S
C1043 C1041 1.413 . S
C1043 C1073 1.437 . S
H1044 C1073 0.929 . S
N1045 Gd1018 2.570 . S
N1045 C1046 1.359 . S
N1045 C1049 1.343 . S
C1046 C1039 1.422 . S
C1046 N1045 1.359 . S
C1046 C1048 1.421 . S
C1047 C1048 1.422 . S
C1047 C1050 1.321 . S
C1047 H1074 0.931 . S
C1048 C1046 1.421 . S
C1048 C1047 1.422 . S
C1048 C1072 1.417 . S
C1049 H1026 0.931 . S
C1049 N1045 1.343 . S
C1049 C1050 1.390 . S
C1050 H1028 0.930 . S
C1050 C1047 1.321 . S
C1050 C1049 1.390 . S
O1051 Gd1019 2.386 . S
O1051 C1063 1.265 . S
O1052 Gd1018 2.353 . S
O1052 C1063 1.242 . S
O1053 Gd1018 2.468 . S
O1053 C1071 1.263 . S
O1054 Gd1018 2.427 . S
O1054 C1071 1.252 . S
O1055 Gd1019 2.307 . S
O1055 C1064 1.261 . S
O1056 Gd1018 2.388 . S
O1056 C1064 1.252 . S
O1057 Gd1018 2.386 . S
O1057 C1075 1.265 . S
O1058 Gd1019 2.353 . S
O1058 C1075 1.242 . S
O1059 Gd1019 2.468 . S
O1059 C1083 1.263 . S
O1060 Gd1019 2.427 . S
O1060 C1083 1.252 . S
O1061 Gd1018 2.307 . S
O1061 C1076 1.261 . S
O1062 Gd1019 2.388 . S
O1062 C1076 1.252 . S
C1063 O1051 1.265 . S
C1063 O1052 1.242 . S
C1064 O1055 1.261 . S
C1064 O1056 1.252 . S
C1065 C1068 1.394 . S
C1065 C1070 1.370 . S
C1065 C1071 1.500 . S
C1066 C1069 1.383 . S
C1066 C1070 1.395 . S
C1067 C1068 1.396 . S
C1067 C1069 1.365 . S
C1067 H1084 0.929 . S
C1068 C1065 1.394 . S
C1068 C1067 1.396 . S
C1068 H1085 0.930 . S
C1069 C1066 1.383 . S
C1069 C1067 1.365 . S
C1069 H1086 0.931 . S
C1070 C1065 1.370 . S
C1070 C1066 1.395 . S
C1070 H1087 0.930 . S
C1071 Gd1018 2.805 . S
C1071 O1053 1.263 . S
C1071 O1054 1.252 . S
C1071 C1065 1.500 . S
C1072 H1034 0.930 . S
C1072 C1048 1.417 . S
C1072 C1073 1.329 . S
C1073 C1043 1.437 . S
C1073 H1044 0.929 . S
C1073 C1072 1.329 . S
H1074 C1047 0.931 . S
C1075 O1057 1.265 . S
C1075 O1058 1.242 . S
C1076 O1061 1.261 . S
C1076 O1062 1.252 . S
C1077 C1080 1.394 . S
C1077 C1082 1.370 . S
C1077 C1083 1.500 . S
C1078 C1081 1.383 . S
C1078 C1082 1.395 . S
C1079 C1080 1.396 . S
C1079 C1081 1.365 . S
C1079 H1088 0.929 . S
C1080 C1077 1.394 . S
C1080 C1079 1.396 . S
C1080 H1089 0.930 . S
C1081 C1078 1.383 . S
C1081 C1079 1.365 . S
C1081 H1090 0.931 1_545 S
C1082 C1077 1.370 . S
C1082 C1078 1.395 . S
C1082 H1091 0.930 . S
C1083 Gd1019 2.805 . S
C1083 O1059 1.263 . S
C1083 O1060 1.252 . S
C1083 C1077 1.500 . S
H1084 C1067 0.929 . S
H1085 C1068 0.930 . S
H1086 C1069 0.931 . S
H1087 C1070 0.930 . S
H1088 C1079 0.929 . S
H1089 C1080 0.930 . S
H1090 C1081 0.931 1_565 S
H1091 C1082 0.930 . S
C1092 C1094 1.422 . S
C1092 C1096 1.415 . S
C1092 N1098 1.369 . S
C1093 C1094 1.421 . S
C1093 C1095 1.417 . S
C1093 C1105 1.422 . S
C1094 C1092 1.422 . S
C1094 C1093 1.421 . S
C1094 N1104 1.359 . S
C1095 C1093 1.417 . S
C1095 C1097 1.329 . S
C1095 H1114 0.930 . S
C1096 C1092 1.415 . S
C1096 C1097 1.437 . S
C1096 C1100 1.413 . S
C1097 C1095 1.329 . S
C1097 C1096 1.437 . S
C1097 H1119 0.929 . S
N1098 C1092 1.369 . S
N1098 C1099 1.338 . S
N1098 Gd1103 2.622 . S
C1099 N1098 1.338 . S
C1099 C1101 1.378 . S
C1099 H1111 0.929 . S
C1100 C1096 1.413 . S
C1100 C1101 1.348 . S
C1100 H1116 0.931 . S
C1101 C1099 1.378 . S
C1101 C1100 1.348 . S
C1101 H1117 0.930 . S
Gd1102 N1122 2.622 . S
Gd1102 N1129 2.570 . S
Gd1102 O1136 2.353 . S
Gd1102 O1137 2.468 . S
Gd1102 O1138 2.427 . S
Gd1102 O1140 2.388 . S
Gd1102 O1141 2.386 . S
Gd1102 O1145 2.307 . S
Gd1102 C1155 2.805 . S
Gd1103 N1098 2.622 . S
Gd1103 N1104 2.570 . S
Gd1103 O1135 2.386 . S
Gd1103 O1139 2.307 . S
Gd1103 O1142 2.353 . S
Gd1103 O1143 2.468 . S
Gd1103 O1144 2.427 . S
Gd1103 O1146 2.388 . S
Gd1103 C1167 2.805 . S
N1104 C1094 1.359 . S
N1104 Gd1103 2.570 . S
N1104 C1106 1.343 . S
C1105 C1093 1.422 . S
C1105 C1107 1.321 . S
C1105 H1113 0.931 . S
C1106 N1104 1.343 . S
C1106 C1107 1.390 . S
C1106 H1108 0.931 . S
C1107 C1105 1.321 . S
C1107 C1106 1.390 . S
C1107 H1109 0.930 . S
H1108 C1106 0.931 . S
H1109 C1107 0.930 . S
H1110 C1133 0.931 . S
H1111 C1099 0.929 . S
H1112 C1134 0.930 . S
H1113 C1105 0.931 . S
H1114 C1095 0.930 . S
H1115 C1124 0.929 . S
H1116 C1100 0.931 . S
H1117 C1101 0.930 . S
H1118 C1156 0.930 . S
H1119 C1097 0.929 . S
H1120 C1125 0.931 . S
H1121 C1126 0.930 . S
N1122 Gd1102 2.622 . S
N1122 C1123 1.369 . S
N1122 C1124 1.338 . S
C1123 N1122 1.369 . S
C1123 C1127 1.415 . S
C1123 C1130 1.422 . S
C1124 H1115 0.929 . S
C1124 N1122 1.338 . S
C1124 C1126 1.378 . S
C1125 H1120 0.931 . S
C1125 C1126 1.348 . S
C1125 C1127 1.413 . S
C1126 H1121 0.930 . S
C1126 C1124 1.378 . S
C1126 C1125 1.348 . S
C1127 C1123 1.415 . S
C1127 C1125 1.413 . S
C1127 C1157 1.437 . S
H1128 C1157 0.929 . S
N1129 Gd1102 2.570 . S
N1129 C1130 1.359 . S
N1129 C1133 1.343 . S
C1130 C1123 1.422 . S
C1130 N1129 1.359 . S
C1130 C1132 1.421 . S
C1131 C1132 1.422 . S
C1131 C1134 1.321 . S
C1131 H1158 0.931 . S
C1132 C1130 1.421 . S
C1132 C1131 1.422 . S
C1132 C1156 1.417 . S
C1133 H1110 0.931 . S
C1133 N1129 1.343 . S
C1133 C1134 1.390 . S
C1134 H1112 0.930 . S
C1134 C1131 1.321 . S
C1134 C1133 1.390 . S
O1135 Gd1103 2.386 . S
O1135 C1147 1.265 . S
O1136 Gd1102 2.353 . S
O1136 C1147 1.242 . S
O1137 Gd1102 2.468 . S
O1137 C1155 1.263 . S
O1138 Gd1102 2.427 . S
O1138 C1155 1.252 . S
O1139 Gd1103 2.307 . S
O1139 C1148 1.261 . S
O1140 Gd1102 2.388 . S
O1140 C1148 1.252 . S
O1141 Gd1102 2.386 . S
O1141 C1159 1.265 . S
O1142 Gd1103 2.353 . S
O1142 C1159 1.242 . S
O1143 Gd1103 2.468 . S
O1143 C1167 1.263 . S
O1144 Gd1103 2.427 . S
O1144 C1167 1.252 . S
O1145 Gd1102 2.307 . S
O1145 C1160 1.261 . S
O1146 Gd1103 2.388 . S
O1146 C1160 1.252 . S
C1147 O1135 1.265 . S
C1147 O1136 1.242 . S
C1148 O1139 1.261 . S
C1148 O1140 1.252 . S
C1149 C1152 1.394 . S
C1149 C1154 1.370 . S
C1149 C1155 1.500 . S
C1150 C1153 1.383 . S
C1150 C1154 1.395 . S
C1151 C1152 1.396 . S
C1151 C1153 1.365 . S
C1151 H1168 0.929 . S
C1152 C1149 1.394 . S
C1152 C1151 1.396 . S
C1152 H1169 0.930 . S
C1153 C1150 1.383 . S
C1153 C1151 1.365 . S
C1153 H1170 0.931 . S
C1154 C1149 1.370 . S
C1154 C1150 1.395 . S
C1154 H1171 0.930 . S
C1155 Gd1102 2.805 . S
C1155 O1137 1.263 . S
C1155 O1138 1.252 . S
C1155 C1149 1.500 . S
C1156 H1118 0.930 . S
C1156 C1132 1.417 . S
C1156 C1157 1.329 . S
C1157 C1127 1.437 . S
C1157 H1128 0.929 . S
C1157 C1156 1.329 . S
H1158 C1131 0.931 . S
C1159 O1141 1.265 . S
C1159 O1142 1.242 . S
C1160 O1145 1.261 . S
C1160 O1146 1.252 . S
C1161 C1164 1.394 . S
C1161 C1166 1.370 . S
C1161 C1167 1.500 . S
C1162 C1165 1.383 . S
C1162 C1166 1.395 . S
C1163 C1164 1.396 . S
C1163 C1165 1.365 . S
C1163 H1172 0.929 . S
C1164 C1161 1.394 . S
C1164 C1163 1.396 . S
C1164 H1173 0.930 . S
C1165 C1162 1.383 . S
C1165 C1163 1.365 . S
C1165 H1174 0.931 1_565 S
C1166 C1161 1.370 . S
C1166 C1162 1.395 . S
C1166 H1175 0.930 . S
C1167 Gd1103 2.805 . S
C1167 O1143 1.263 . S
C1167 O1144 1.252 . S
C1167 C1161 1.500 . S
H1168 C1151 0.929 . S
H1169 C1152 0.930 . S
H1170 C1153 0.931 . S
H1171 C1154 0.930 . S
H1172 C1163 0.929 . S
H1173 C1164 0.930 . S
H1174 C1165 0.931 1_545 S
H1175 C1166 0.930 . S
C1176 C1178 1.422 . S
C1176 C1180 1.415 . S
C1176 N1182 1.369 . S
C1177 C1178 1.421 . S
C1177 C1179 1.417 . S
C1177 C1189 1.422 . S
C1178 C1176 1.422 . S
C1178 C1177 1.421 . S
C1178 N1188 1.359 . S
C1179 C1177 1.417 . S
C1179 C1181 1.329 . S
C1179 H1198 0.930 . S
C1180 C1176 1.415 . S
C1180 C1181 1.437 . S
C1180 C1184 1.413 . S
C1181 C1179 1.329 . S
C1181 C1180 1.437 . S
C1181 H1203 0.929 . S
N1182 C1176 1.369 . S
N1182 C1183 1.338 . S
N1182 Gd1187 2.622 . S
C1183 N1182 1.338 . S
C1183 C1185 1.378 . S
C1183 H1195 0.929 . S
C1184 C1180 1.413 . S
C1184 C1185 1.348 . S
C1184 H1200 0.931 . S
C1185 C1183 1.378 . S
C1185 C1184 1.348 . S
C1185 H1201 0.930 . S
Gd1186 N1206 2.622 . S
Gd1186 N1213 2.570 . S
Gd1186 O1220 2.353 . S
Gd1186 O1221 2.468 . S
Gd1186 O1222 2.427 . S
Gd1186 O1224 2.388 . S
Gd1186 O1225 2.386 . S
Gd1186 O1229 2.307 . S
Gd1186 C1239 2.805 . S
Gd1187 N1182 2.622 . S
Gd1187 N1188 2.570 . S
Gd1187 O1219 2.386 . S
Gd1187 O1223 2.307 . S
Gd1187 O1226 2.353 . S
Gd1187 O1227 2.468 . S
Gd1187 O1228 2.427 . S
Gd1187 O1230 2.388 . S
Gd1187 C1251 2.805 . S
N1188 C1178 1.359 . S
N1188 Gd1187 2.570 . S
N1188 C1190 1.343 . S
C1189 C1177 1.422 . S
C1189 C1191 1.321 . S
C1189 H1197 0.931 . S
C1190 N1188 1.343 . S
C1190 C1191 1.390 . S
C1190 H1192 0.931 . S
C1191 C1189 1.321 . S
C1191 C1190 1.390 . S
C1191 H1193 0.930 . S
H1192 C1190 0.931 . S
H1193 C1191 0.930 . S
H1194 C1217 0.931 . S
H1195 C1183 0.929 . S
H1196 C1218 0.930 . S
H1197 C1189 0.931 . S
H1198 C1179 0.930 . S
H1199 C1208 0.929 . S
H1200 C1184 0.931 . S
H1201 C1185 0.930 . S
H1202 C1240 0.930 . S
H1203 C1181 0.929 . S
H1204 C1209 0.931 . S
H1205 C1210 0.930 . S
N1206 Gd1186 2.622 . S
N1206 C1207 1.369 . S
N1206 C1208 1.338 . S
C1207 N1206 1.369 . S
C1207 C1211 1.415 . S
C1207 C1214 1.422 . S
C1208 H1199 0.929 . S
C1208 N1206 1.338 . S
C1208 C1210 1.378 . S
C1209 H1204 0.931 . S
C1209 C1210 1.348 . S
C1209 C1211 1.413 . S
C1210 H1205 0.930 . S
C1210 C1208 1.378 . S
C1210 C1209 1.348 . S
C1211 C1207 1.415 . S
C1211 C1209 1.413 . S
C1211 C1241 1.437 . S
H1212 C1241 0.929 . S
N1213 Gd1186 2.570 . S
N1213 C1214 1.359 . S
N1213 C1217 1.343 . S
C1214 C1207 1.422 . S
C1214 N1213 1.359 . S
C1214 C1216 1.421 . S
C1215 C1216 1.422 . S
C1215 C1218 1.321 . S
C1215 H1242 0.931 . S
C1216 C1214 1.421 . S
C1216 C1215 1.422 . S
C1216 C1240 1.417 . S
C1217 H1194 0.931 . S
C1217 N1213 1.343 . S
C1217 C1218 1.390 . S
C1218 H1196 0.930 . S
C1218 C1215 1.321 . S
C1218 C1217 1.390 . S
O1219 Gd1187 2.386 . S
O1219 C1231 1.265 . S
O1220 Gd1186 2.353 . S
O1220 C1231 1.242 . S
O1221 Gd1186 2.468 . S
O1221 C1239 1.263 . S
O1222 Gd1186 2.427 . S
O1222 C1239 1.252 . S
O1223 Gd1187 2.307 . S
O1223 C1232 1.261 . S
O1224 Gd1186 2.388 . S
O1224 C1232 1.252 . S
O1225 Gd1186 2.386 . S
O1225 C1243 1.265 . S
O1226 Gd1187 2.353 . S
O1226 C1243 1.242 . S
O1227 Gd1187 2.468 . S
O1227 C1251 1.263 . S
O1228 Gd1187 2.427 . S
O1228 C1251 1.252 . S
O1229 Gd1186 2.307 . S
O1229 C1244 1.261 . S
O1230 Gd1187 2.388 . S
O1230 C1244 1.252 . S
C1231 O1219 1.265 . S
C1231 O1220 1.242 . S
C1232 O1223 1.261 . S
C1232 O1224 1.252 . S
C1233 C1236 1.394 . S
C1233 C1238 1.370 . S
C1233 C1239 1.500 . S
C1234 C1237 1.383 . S
C1234 C1238 1.395 . S
C1235 C1236 1.396 . S
C1235 C1237 1.365 . S
C1235 H1252 0.929 . S
C1236 C1233 1.394 . S
C1236 C1235 1.396 . S
C1236 H1253 0.930 . S
C1237 C1234 1.383 . S
C1237 C1235 1.365 . S
C1237 H1254 0.931 . S
C1238 C1233 1.370 . S
C1238 C1234 1.395 . S
C1238 H1255 0.930 . S
C1239 Gd1186 2.805 . S
C1239 O1221 1.263 . S
C1239 O1222 1.252 . S
C1239 C1233 1.500 . S
C1240 H1202 0.930 . S
C1240 C1216 1.417 . S
C1240 C1241 1.329 . S
C1241 C1211 1.437 . S
C1241 H1212 0.929 . S
C1241 C1240 1.329 . S
H1242 C1215 0.931 . S
C1243 O1225 1.265 . S
C1243 O1226 1.242 . S
C1244 O1229 1.261 . S
C1244 O1230 1.252 . S
C1245 C1248 1.394 . S
C1245 C1250 1.370 . S
C1245 C1251 1.500 . S
C1246 C1249 1.383 . S
C1246 C1250 1.395 . S
C1247 C1248 1.396 . S
C1247 C1249 1.365 . S
C1247 H1256 0.929 . S
C1248 C1245 1.394 . S
C1248 C1247 1.396 . S
C1248 H1257 0.930 . S
C1249 C1246 1.383 . S
C1249 C1247 1.365 . S
C1249 H1258 0.931 1_565 S
C1250 C1245 1.370 . S
C1250 C1246 1.395 . S
C1250 H1259 0.930 . S
C1251 Gd1187 2.805 . S
C1251 O1227 1.263 . S
C1251 O1228 1.252 . S
C1251 C1245 1.500 . S
H1252 C1235 0.929 . S
H1253 C1236 0.930 . S
H1254 C1237 0.931 . S
H1255 C1238 0.930 . S
H1256 C1247 0.929 . S
H1257 C1248 0.930 . S
H1258 C1249 0.931 1_545 S
H1259 C1250 0.930 . S
C1260 C1262 1.422 . S
C1260 C1264 1.415 . S
C1260 N1266 1.369 . S
C1261 C1262 1.421 . S
C1261 C1263 1.417 . S
C1261 C1273 1.422 . S
C1262 C1260 1.422 . S
C1262 C1261 1.421 . S
C1262 N1272 1.359 . S
C1263 C1261 1.417 . S
C1263 C1265 1.329 . S
C1263 H1282 0.930 . S
C1264 C1260 1.415 . S
C1264 C1265 1.437 . S
C1264 C1268 1.413 . S
C1265 C1263 1.329 . S
C1265 C1264 1.437 . S
C1265 H1287 0.929 . S
N1266 C1260 1.369 . S
N1266 C1267 1.338 . S
N1266 Gd1271 2.622 . S
C1267 N1266 1.338 . S
C1267 C1269 1.378 . S
C1267 H1279 0.929 . S
C1268 C1264 1.413 . S
C1268 C1269 1.348 . S
C1268 H1284 0.931 . S
C1269 C1267 1.378 . S
C1269 C1268 1.348 . S
C1269 H1285 0.930 . S
Gd1270 N1290 2.622 . S
Gd1270 N1297 2.570 . S
Gd1270 O1304 2.353 . S
Gd1270 O1305 2.468 . S
Gd1270 O1306 2.427 . S
Gd1270 O1308 2.388 . S
Gd1270 O1309 2.386 . S
Gd1270 O1313 2.307 . S
Gd1270 C1323 2.805 . S
Gd1271 N1266 2.622 . S
Gd1271 N1272 2.570 . S
Gd1271 O1303 2.386 . S
Gd1271 O1307 2.307 . S
Gd1271 O1310 2.353 . S
Gd1271 O1311 2.468 . S
Gd1271 O1312 2.427 . S
Gd1271 O1314 2.388 . S
Gd1271 C1335 2.805 . S
N1272 C1262 1.359 . S
N1272 Gd1271 2.570 . S
N1272 C1274 1.343 . S
C1273 C1261 1.422 . S
C1273 C1275 1.321 . S
C1273 H1281 0.931 . S
C1274 N1272 1.343 . S
C1274 C1275 1.390 . S
C1274 H1276 0.931 . S
C1275 C1273 1.321 . S
C1275 C1274 1.390 . S
C1275 H1277 0.930 . S
H1276 C1274 0.931 . S
H1277 C1275 0.930 . S
H1278 C1301 0.931 . S
H1279 C1267 0.929 . S
H1280 C1302 0.930 . S
H1281 C1273 0.931 . S
H1282 C1263 0.930 . S
H1283 C1292 0.929 . S
H1284 C1268 0.931 . S
H1285 C1269 0.930 . S
H1286 C1324 0.930 . S
H1287 C1265 0.929 . S
H1288 C1293 0.931 . S
H1289 C1294 0.930 . S
N1290 Gd1270 2.622 . S
N1290 C1291 1.369 . S
N1290 C1292 1.338 . S
C1291 N1290 1.369 . S
C1291 C1295 1.415 . S
C1291 C1298 1.422 . S
C1292 H1283 0.929 . S
C1292 N1290 1.338 . S
C1292 C1294 1.378 . S
C1293 H1288 0.931 . S
C1293 C1294 1.348 . S
C1293 C1295 1.413 . S
C1294 H1289 0.930 . S
C1294 C1292 1.378 . S
C1294 C1293 1.348 . S
C1295 C1291 1.415 . S
C1295 C1293 1.413 . S
C1295 C1325 1.437 . S
H1296 C1325 0.929 . S
N1297 Gd1270 2.570 . S
N1297 C1298 1.359 . S
N1297 C1301 1.343 . S
C1298 C1291 1.422 . S
C1298 N1297 1.359 . S
C1298 C1300 1.421 . S
C1299 C1300 1.422 . S
C1299 C1302 1.321 . S
C1299 H1326 0.931 . S
C1300 C1298 1.421 . S
C1300 C1299 1.422 . S
C1300 C1324 1.417 . S
C1301 H1278 0.931 . S
C1301 N1297 1.343 . S
C1301 C1302 1.390 . S
C1302 H1280 0.930 . S
C1302 C1299 1.321 . S
C1302 C1301 1.390 . S
O1303 Gd1271 2.386 . S
O1303 C1315 1.265 . S
O1304 Gd1270 2.353 . S
O1304 C1315 1.242 . S
O1305 Gd1270 2.468 . S
O1305 C1323 1.263 . S
O1306 Gd1270 2.427 . S
O1306 C1323 1.252 . S
O1307 Gd1271 2.307 . S
O1307 C1316 1.261 . S
O1308 Gd1270 2.388 . S
O1308 C1316 1.252 . S
O1309 Gd1270 2.386 . S
O1309 C1327 1.265 . S
O1310 Gd1271 2.353 . S
O1310 C1327 1.242 . S
O1311 Gd1271 2.468 . S
O1311 C1335 1.263 . S
O1312 Gd1271 2.427 . S
O1312 C1335 1.252 . S
O1313 Gd1270 2.307 . S
O1313 C1328 1.261 . S
O1314 Gd1271 2.388 . S
O1314 C1328 1.252 . S
C1315 O1303 1.265 . S
C1315 O1304 1.242 . S
C1316 O1307 1.261 . S
C1316 O1308 1.252 . S
C1317 C1320 1.394 . S
C1317 C1322 1.370 . S
C1317 C1323 1.500 . S
C1318 C1321 1.383 . S
C1318 C1322 1.395 . S
C1319 C1320 1.396 . S
C1319 C1321 1.365 . S
C1319 H1336 0.929 . S
C1320 C1317 1.394 . S
C1320 C1319 1.396 . S
C1320 H1337 0.930 . S
C1321 C1318 1.383 . S
C1321 C1319 1.365 . S
C1321 H1338 0.931 . S
C1322 C1317 1.370 . S
C1322 C1318 1.395 . S
C1322 H1339 0.930 . S
C1323 Gd1270 2.805 . S
C1323 O1305 1.263 . S
C1323 O1306 1.252 . S
C1323 C1317 1.500 . S
C1324 H1286 0.930 . S
C1324 C1300 1.417 . S
C1324 C1325 1.329 . S
C1325 C1295 1.437 . S
C1325 H1296 0.929 . S
C1325 C1324 1.329 . S
H1326 C1299 0.931 . S
C1327 O1309 1.265 . S
C1327 O1310 1.242 . S
C1328 O1313 1.261 . S
C1328 O1314 1.252 . S
C1329 C1332 1.394 . S
C1329 C1334 1.370 . S
C1329 C1335 1.500 . S
C1330 C1333 1.383 . S
C1330 C1334 1.395 . S
C1331 C1332 1.396 . S
C1331 C1333 1.365 . S
C1331 H1340 0.929 . S
C1332 C1329 1.394 . S
C1332 C1331 1.396 . S
C1332 H1341 0.930 . S
C1333 C1330 1.383 . S
C1333 C1331 1.365 . S
C1333 H1342 0.931 1_545 S
C1334 C1329 1.370 . S
C1334 C1330 1.395 . S
C1334 H1343 0.930 . S
C1335 Gd1271 2.805 . S
C1335 O1311 1.263 . S
C1335 O1312 1.252 . S
C1335 C1329 1.500 . S
H1336 C1319 0.929 . S
H1337 C1320 0.930 . S
H1338 C1321 0.931 . S
H1339 C1322 0.930 . S
H1340 C1331 0.929 . S
H1341 C1332 0.930 . S
H1342 C1333 0.931 1_565 S
H1343 C1334 0.930 . S
H1344 C1350 0.930 . S
H1345 C1353 0.930 . S
H1346 C1354 0.930 . S
H1347 C1355 0.930 . S
H1348 C1358 0.930 . S
H1349 C1359 0.930 . S
C1350 H1344 0.930 . S
C1350 C1351 1.355 . S
C1350 C1352 1.415 . S
C1351 C1350 1.355 . S
C1351 C1353 1.419 . S
C1352 C1350 1.415 . S
C1352 C1357 1.425 . S
C1352 C1359 1.409 . S
C1353 H1345 0.930 . S
C1353 C1351 1.419 . S
C1353 C1354 1.362 . S
C1354 H1346 0.930 . S
C1354 C1353 1.362 . S
C1354 C1357 1.409 . S
C1355 H1347 0.930 . S
C1355 C1356 1.355 . S
C1355 C1357 1.415 . S
C1356 C1355 1.355 . S
C1356 C1358 1.419 . S
C1357 C1352 1.425 . S
C1357 C1354 1.409 . S
C1357 C1355 1.415 . S
C1358 H1348 0.930 . S
C1358 C1356 1.419 . S
C1358 C1359 1.362 . S
C1359 H1349 0.930 . S
C1359 C1352 1.409 . S
C1359 C1358 1.362 . S
H1360 C1366 0.930 . S
H1361 C1369 0.930 . S
H1362 C1370 0.930 . S
H1363 C1371 0.930 . S
H1364 C1374 0.930 . S
H1365 C1375 0.930 . S
C1366 H1360 0.930 . S
C1366 C1367 1.355 . S
C1366 C1368 1.415 . S
C1367 C1366 1.355 . S
C1367 C1369 1.419 . S
C1368 C1366 1.415 . S
C1368 C1373 1.425 . S
C1368 C1375 1.409 . S
C1369 H1361 0.930 . S
C1369 C1367 1.419 . S
C1369 C1370 1.362 . S
C1370 H1362 0.930 . S
C1370 C1369 1.362 . S
C1370 C1373 1.409 . S
C1371 H1363 0.930 . S
C1371 C1372 1.355 . S
C1371 C1373 1.415 . S
C1372 C1371 1.355 . S
C1372 C1374 1.419 . S
C1373 C1368 1.425 . S
C1373 C1370 1.409 . S
C1373 C1371 1.415 . S
C1374 H1364 0.930 . S
C1374 C1372 1.419 . S
C1374 C1375 1.362 . S
C1375 H1365 0.930 . S
C1375 C1368 1.409 . S
C1375 C1374 1.362 . S
H1376 C1382 0.930 . S
H1377 C1385 0.930 . S
H1378 C1386 0.930 . S
H1379 C1387 0.930 . S
H1380 C1390 0.930 . S
H1381 C1391 0.930 . S
C1382 H1376 0.930 . S
C1382 C1383 1.355 . S
C1382 C1384 1.415 . S
C1383 C1382 1.355 . S
C1383 C1385 1.419 . S
C1384 C1382 1.415 . S
C1384 C1389 1.425 . S
C1384 C1391 1.409 . S
C1385 H1377 0.930 . S
C1385 C1383 1.419 . S
C1385 C1386 1.362 . S
C1386 H1378 0.930 . S
C1386 C1385 1.362 . S
C1386 C1389 1.409 . S
C1387 H1379 0.930 . S
C1387 C1388 1.355 . S
C1387 C1389 1.415 . S
C1388 C1387 1.355 . S
C1388 C1390 1.419 . S
C1389 C1384 1.425 . S
C1389 C1386 1.409 . S
C1389 C1387 1.415 . S
C1390 H1380 0.930 . S
C1390 C1388 1.419 . S
C1390 C1391 1.362 . S
C1391 H1381 0.930 . S
C1391 C1384 1.409 . S
C1391 C1390 1.362 . S
H1392 C1398 0.930 . S
H1393 C1401 0.930 . S
H1394 C1402 0.930 . S
H1395 C1403 0.930 . S
H1396 C1406 0.930 . S
H1397 C1407 0.930 . S
C1398 H1392 0.930 . S
C1398 C1399 1.355 . S
C1398 C1400 1.415 . S
C1399 C1398 1.355 . S
C1399 C1401 1.419 . S
C1400 C1398 1.415 . S
C1400 C1405 1.425 . S
C1400 C1407 1.409 . S
C1401 H1393 0.930 . S
C1401 C1399 1.419 . S
C1401 C1402 1.362 . S
C1402 H1394 0.930 . S
C1402 C1401 1.362 . S
C1402 C1405 1.409 . S
C1403 H1395 0.930 . S
C1403 C1404 1.355 . S
C1403 C1405 1.415 . S
C1404 C1403 1.355 . S
C1404 C1406 1.419 . S
C1405 C1400 1.425 . S
C1405 C1402 1.409 . S
C1405 C1403 1.415 . S
C1406 H1396 0.930 . S
C1406 C1404 1.419 . S
C1406 C1407 1.362 . S
C1407 H1397 0.930 . S
C1407 C1400 1.409 . S
C1407 C1406 1.362 . S
H1408 C1414 0.930 . S
H1409 C1417 0.930 . S
H1410 C1418 0.930 . S
H1411 C1419 0.930 . S
H1412 C1422 0.930 . S
H1413 C1423 0.930 . S
C1414 H1408 0.930 . S
C1414 C1415 1.355 . S
C1414 C1416 1.415 . S
C1415 C1414 1.355 . S
C1415 C1417 1.419 . S
C1416 C1414 1.415 . S
C1416 C1421 1.425 . S
C1416 C1423 1.409 . S
C1417 H1409 0.930 . S
C1417 C1415 1.419 . S
C1417 C1418 1.362 . S
C1418 H1410 0.930 . S
C1418 C1417 1.362 . S
C1418 C1421 1.409 . S
C1419 H1411 0.930 . S
C1419 C1420 1.355 . S
C1419 C1421 1.415 . S
C1420 C1419 1.355 . S
C1420 C1422 1.419 . S
C1421 C1416 1.425 . S
C1421 C1418 1.409 . S
C1421 C1419 1.415 . S
C1422 H1412 0.930 . S
C1422 C1420 1.419 . S
C1422 C1423 1.362 . S
C1423 H1413 0.930 . S
C1423 C1416 1.409 . S
C1423 C1422 1.362 . S
H1424 C1430 0.930 . S
H1425 C1433 0.930 . S
H1426 C1434 0.930 . S
H1427 C1435 0.930 . S
H1428 C1438 0.930 . S
H1429 C1439 0.930 . S
C1430 H1424 0.930 . S
C1430 C1431 1.355 . S
C1430 C1432 1.415 . S
C1431 C1430 1.355 . S
C1431 C1433 1.419 . S
C1432 C1430 1.415 . S
C1432 C1437 1.425 . S
C1432 C1439 1.409 . S
C1433 H1425 0.930 . S
C1433 C1431 1.419 . S
C1433 C1434 1.362 . S
C1434 H1426 0.930 . S
C1434 C1433 1.362 . S
C1434 C1437 1.409 . S
C1435 H1427 0.930 . S
C1435 C1436 1.355 . S
C1435 C1437 1.415 . S
C1436 C1435 1.355 . S
C1436 C1438 1.419 . S
C1437 C1432 1.425 . S
C1437 C1434 1.409 . S
C1437 C1435 1.415 . S
C1438 H1428 0.930 . S
C1438 C1436 1.419 . S
C1438 C1439 1.362 . S
C1439 H1429 0.930 . S
C1439 C1432 1.409 . S
C1439 C1438 1.362 . S
H1440 C1446 0.930 . S
H1441 C1449 0.930 . S
H1442 C1450 0.930 . S
H1443 C1451 0.930 . S
H1444 C1454 0.930 . S
H1445 C1455 0.930 . S
C1446 H1440 0.930 . S
C1446 C1447 1.355 . S
C1446 C1448 1.415 . S
C1447 C1446 1.355 . S
C1447 C1449 1.419 . S
C1448 C1446 1.415 . S
C1448 C1453 1.425 . S
C1448 C1455 1.409 . S
C1449 H1441 0.930 . S
C1449 C1447 1.419 . S
C1449 C1450 1.362 . S
C1450 H1442 0.930 . S
C1450 C1449 1.362 . S
C1450 C1453 1.409 . S
C1451 H1443 0.930 . S
C1451 C1452 1.355 . S
C1451 C1453 1.415 . S
C1452 C1451 1.355 . S
C1452 C1454 1.419 . S
C1453 C1448 1.425 . S
C1453 C1450 1.409 . S
C1453 C1451 1.415 . S
C1454 H1444 0.930 . S
C1454 C1452 1.419 . S
C1454 C1455 1.362 . S
C1455 H1445 0.930 . S
C1455 C1448 1.409 . S
C1455 C1454 1.362 . S
H1456 C1462 0.930 . S
H1457 C1465 0.930 . S
H1458 C1466 0.930 . S
H1459 C1467 0.930 . S
H1460 C1470 0.930 . S
H1461 C1471 0.930 . S
C1462 H1456 0.930 . S
C1462 C1463 1.355 . S
C1462 C1464 1.415 . S
C1463 C1462 1.355 . S
C1463 C1465 1.419 . S
C1464 C1462 1.415 . S
C1464 C1469 1.425 . S
C1464 C1471 1.409 . S
C1465 H1457 0.930 . S
C1465 C1463 1.419 . S
C1465 C1466 1.362 . S
C1466 H1458 0.930 . S
C1466 C1465 1.362 . S
C1466 C1469 1.409 . S
C1467 H1459 0.930 . S
C1467 C1468 1.355 . S
C1467 C1469 1.415 . S
C1468 C1467 1.355 . S
C1468 C1470 1.419 . S
C1469 C1464 1.425 . S
C1469 C1466 1.409 . S
C1469 C1467 1.415 . S
C1470 H1460 0.930 . S
C1470 C1468 1.419 . S
C1470 C1471 1.362 . S
C1471 H1461 0.930 . S
C1471 C1464 1.409 . S
C1471 C1470 1.362 . S
H1472 C1478 0.930 . S
H1473 C1481 0.930 . S
H1474 C1482 0.930 . S
H1475 C1483 0.930 . S
H1476 C1486 0.930 . S
H1477 C1487 0.930 . S
C1478 H1472 0.930 . S
C1478 C1479 1.355 . S
C1478 C1480 1.415 . S
C1479 C1478 1.355 . S
C1479 C1481 1.419 1_565 S
C1480 C1478 1.415 . S
C1480 C1485 1.425 1_565 S
C1480 C1487 1.409 . S
C1481 H1473 0.930 . S
C1481 C1479 1.419 1_545 S
C1481 C1482 1.362 . S
C1482 H1474 0.930 . S
C1482 C1481 1.362 . S
C1482 C1485 1.409 . S
C1483 H1475 0.930 . S
C1483 C1484 1.355 . S
C1483 C1485 1.415 . S
C1484 C1483 1.355 . S
C1484 C1486 1.419 1_545 S
C1485 C1480 1.425 1_545 S
C1485 C1482 1.409 . S
C1485 C1483 1.415 . S
C1486 H1476 0.930 . S
C1486 C1484 1.419 1_565 S
C1486 C1487 1.362 . S
C1487 H1477 0.930 . S
C1487 C1480 1.409 . S
C1487 C1486 1.362 . S
H1488 C1494 0.930 . S
H1489 C1497 0.930 . S
H1490 C1498 0.930 . S
H1491 C1499 0.930 . S
H1492 C1502 0.930 . S
H1493 C1503 0.930 . S
C1494 H1488 0.930 . S
C1494 C1495 1.355 . S
C1494 C1496 1.415 . S
C1495 C1494 1.355 . S
C1495 C1497 1.419 . S
C1496 C1494 1.415 . S
C1496 C1501 1.425 1_545 S
C1496 C1503 1.409 . S
C1497 H1489 0.930 . S
C1497 C1495 1.419 . S
C1497 C1498 1.362 1_545 S
C1498 H1490 0.930 . S
C1498 C1497 1.362 1_565 S
C1498 C1501 1.409 . S
C1499 H1491 0.930 . S
C1499 C1500 1.355 . S
C1499 C1501 1.415 . S
C1500 C1499 1.355 . S
C1500 C1502 1.419 . S
C1501 C1496 1.425 1_565 S
C1501 C1498 1.409 . S
C1501 C1499 1.415 . S
C1502 H1492 0.930 . S
C1502 C1500 1.419 . S
C1502 C1503 1.362 1_565 S
C1503 H1493 0.930 . S
C1503 C1496 1.409 . S
C1503 C1502 1.362 1_545 S
H1504 C1510 0.930 1_565 S
H1505 C1513 0.930 . S
H1506 C1514 0.930 . S
H1507 C1515 0.930 1_545 S
H1508 C1518 0.930 . S
H1509 C1519 0.930 . S
C1510 H1504 0.930 1_545 S
C1510 C1511 1.355 . S
C1510 C1512 1.415 1_545 S
C1511 C1510 1.355 . S
C1511 C1513 1.419 . S
C1512 C1510 1.415 1_565 S
C1512 C1517 1.425 1_565 S
C1512 C1519 1.409 . S
C1513 H1505 0.930 . S
C1513 C1511 1.419 . S
C1513 C1514 1.362 . S
C1514 H1506 0.930 . S
C1514 C1513 1.362 . S
C1514 C1517 1.409 . S
C1515 H1507 0.930 1_565 S
C1515 C1516 1.355 . S
C1515 C1517 1.415 1_565 S
C1516 C1515 1.355 . S
C1516 C1518 1.419 . S
C1517 C1512 1.425 1_545 S
C1517 C1514 1.409 . S
C1517 C1515 1.415 1_545 S
C1518 H1508 0.930 . S
C1518 C1516 1.419 . S
C1518 C1519 1.362 . S
C1519 H1509 0.930 . S
C1519 C1512 1.409 . S
C1519 C1518 1.362 . S
H1520 C1526 0.930 . S
H1521 C1529 0.930 . S
H1522 C1530 0.930 . S
H1523 C1531 0.930 . S
H1524 C1534 0.930 . S
H1525 C1535 0.930 . S
C1526 H1520 0.930 . S
C1526 C1527 1.355 . S
C1526 C1528 1.415 . S
C1527 C1526 1.355 . S
C1527 C1529 1.419 1_545 S
C1528 C1526 1.415 . S
C1528 C1533 1.425 1_545 S
C1528 C1535 1.409 . S
C1529 H1521 0.930 . S
C1529 C1527 1.419 1_565 S
C1529 C1530 1.362 . S
C1530 H1522 0.930 . S
C1530 C1529 1.362 . S
C1530 C1533 1.409 . S
C1531 H1523 0.930 . S
C1531 C1532 1.355 . S
C1531 C1533 1.415 . S
C1532 C1531 1.355 . S
C1532 C1534 1.419 1_565 S
C1533 C1528 1.425 1_565 S
C1533 C1530 1.409 . S
C1533 C1531 1.415 . S
C1534 H1524 0.930 . S
C1534 C1532 1.419 1_545 S
C1534 C1535 1.362 . S
C1535 H1525 0.930 . S
C1535 C1528 1.409 . S
C1535 C1534 1.362 . S
H1536 C1542 0.930 . S
H1537 C1545 0.930 . S
H1538 C1546 0.930 . S
H1539 C1547 0.930 . S
H1540 C1550 0.930 . S
H1541 C1551 0.930 . S
C1542 H1536 0.930 . S
C1542 C1543 1.355 . S
C1542 C1544 1.415 . S
C1543 C1542 1.355 . S
C1543 C1545 1.419 . S
C1544 C1542 1.415 . S
C1544 C1549 1.425 . S
C1544 C1551 1.409 . S
C1545 H1537 0.930 . S
C1545 C1543 1.419 . S
C1545 C1546 1.362 . S
C1546 H1538 0.930 . S
C1546 C1545 1.362 . S
C1546 C1549 1.409 . S
C1547 H1539 0.930 . S
C1547 C1548 1.355 . S
C1547 C1549 1.415 . S
C1548 C1547 1.355 . S
C1548 C1550 1.419 . S
C1549 C1544 1.425 . S
C1549 C1546 1.409 . S
C1549 C1547 1.415 . S
C1550 H1540 0.930 . S
C1550 C1548 1.419 . S
C1550 C1551 1.362 . S
C1551 H1541 0.930 . S
C1551 C1544 1.409 . S
C1551 C1550 1.362 . S
H1552 C1558 0.930 . S
H1553 C1561 0.930 . S
H1554 C1562 0.930 . S
H1555 C1563 0.930 . S
H1556 C1566 0.930 . S
H1557 C1567 0.930 . S
C1558 H1552 0.930 . S
C1558 C1559 1.355 . S
C1558 C1560 1.415 . S
C1559 C1558 1.355 . S
C1559 C1561 1.419 . S
C1560 C1558 1.415 . S
C1560 C1565 1.425 . S
C1560 C1567 1.409 . S
C1561 H1553 0.930 . S
C1561 C1559 1.419 . S
C1561 C1562 1.362 . S
C1562 H1554 0.930 . S
C1562 C1561 1.362 . S
C1562 C1565 1.409 . S
C1563 H1555 0.930 . S
C1563 C1564 1.355 . S
C1563 C1565 1.415 . S
C1564 C1563 1.355 . S
C1564 C1566 1.419 . S
C1565 C1560 1.425 . S
C1565 C1562 1.409 . S
C1565 C1563 1.415 . S
C1566 H1556 0.930 . S
C1566 C1564 1.419 . S
C1566 C1567 1.362 . S
C1567 H1557 0.930 . S
C1567 C1560 1.409 . S
C1567 C1566 1.362 . S
H1568 C1574 0.930 . S
H1569 C1577 0.930 . S
H1570 C1578 0.930 . S
H1571 C1579 0.930 . S
H1572 C1582 0.930 . S
H1573 C1583 0.930 . S
C1574 H1568 0.930 . S
C1574 C1575 1.355 . S
C1574 C1576 1.415 . S
C1575 C1574 1.355 . S
C1575 C1577 1.419 . S
C1576 C1574 1.415 . S
C1576 C1581 1.425 . S
C1576 C1583 1.409 . S
C1577 H1569 0.930 . S
C1577 C1575 1.419 . S
C1577 C1578 1.362 . S
C1578 H1570 0.930 . S
C1578 C1577 1.362 . S
C1578 C1581 1.409 . S
C1579 H1571 0.930 . S
C1579 C1580 1.355 . S
C1579 C1581 1.415 . S
C1580 C1579 1.355 . S
C1580 C1582 1.419 . S
C1581 C1576 1.425 . S
C1581 C1578 1.409 . S
C1581 C1579 1.415 . S
C1582 H1572 0.930 . S
C1582 C1580 1.419 . S
C1582 C1583 1.362 . S
C1583 H1573 0.930 . S
C1583 C1576 1.409 . S
C1583 C1582 1.362 . S
H1584 C1590 0.930 . S
H1585 C1593 0.930 . S
H1586 C1594 0.930 . S
H1587 C1595 0.930 . S
H1588 C1598 0.930 . S
H1589 C1599 0.930 . S
C1590 H1584 0.930 . S
C1590 C1591 1.355 . S
C1590 C1592 1.415 . S
C1591 C1590 1.355 . S
C1591 C1593 1.419 . S
C1592 C1590 1.415 . S
C1592 C1597 1.425 . S
C1592 C1599 1.409 . S
C1593 H1585 0.930 . S
C1593 C1591 1.419 . S
C1593 C1594 1.362 . S
C1594 H1586 0.930 . S
C1594 C1593 1.362 . S
C1594 C1597 1.409 . S
C1595 H1587 0.930 . S
C1595 C1596 1.355 . S
C1595 C1597 1.415 . S
C1596 C1595 1.355 . S
C1596 C1598 1.419 . S
C1597 C1592 1.425 . S
C1597 C1594 1.409 . S
C1597 C1595 1.415 . S
C1598 H1588 0.930 . S
C1598 C1596 1.419 . S
C1598 C1599 1.362 . S
C1599 H1589 0.930 . S
C1599 C1592 1.409 . S
C1599 C1598 1.362 . S
H1600 C1606 0.930 . S
H1601 C1609 0.930 . S
H1602 C1610 0.930 . S
H1603 C1611 0.930 . S
H1604 C1614 0.930 . S
H1605 C1615 0.930 . S
C1606 H1600 0.930 . S
C1606 C1607 1.355 . S
C1606 C1608 1.415 . S
C1607 C1606 1.355 . S
C1607 C1609 1.419 . S
C1608 C1606 1.415 . S
C1608 C1613 1.425 1_556 S
C1608 C1615 1.409 1_556 S
C1609 H1601 0.930 . S
C1609 C1607 1.419 . S
C1609 C1610 1.362 . S
C1610 H1602 0.930 . S
C1610 C1609 1.362 . S
C1610 C1613 1.409 1_556 S
C1611 H1603 0.930 . S
C1611 C1612 1.355 . S
C1611 C1613 1.415 . S
C1612 C1611 1.355 . S
C1612 C1614 1.419 . S
C1613 C1608 1.425 1_554 S
C1613 C1610 1.409 1_554 S
C1613 C1611 1.415 . S
C1614 H1604 0.930 . S
C1614 C1612 1.419 . S
C1614 C1615 1.362 . S
C1615 H1605 0.930 . S
C1615 C1608 1.409 1_554 S
C1615 C1614 1.362 . S
H1616 C1622 0.930 . S
H1617 C1625 0.930 . S
H1618 C1626 0.930 . S
H1619 C1627 0.930 . S
H1620 C1630 0.930 . S
H1621 C1631 0.930 . S
C1622 H1616 0.930 . S
C1622 C1623 1.355 . S
C1622 C1624 1.415 . S
C1623 C1622 1.355 . S
C1623 C1625 1.419 . S
C1624 C1622 1.415 . S
C1624 C1629 1.425 1_556 S
C1624 C1631 1.409 1_556 S
C1625 H1617 0.930 . S
C1625 C1623 1.419 . S
C1625 C1626 1.362 . S
C1626 H1618 0.930 . S
C1626 C1625 1.362 . S
C1626 C1629 1.409 1_556 S
C1627 H1619 0.930 . S
C1627 C1628 1.355 . S
C1627 C1629 1.415 . S
C1628 C1627 1.355 . S
C1628 C1630 1.419 . S
C1629 C1624 1.425 1_554 S
C1629 C1626 1.409 1_554 S
C1629 C1627 1.415 . S
C1630 H1620 0.930 . S
C1630 C1628 1.419 . S
C1630 C1631 1.362 . S
C1631 H1621 0.930 . S
C1631 C1624 1.409 1_554 S
C1631 C1630 1.362 . S
H1632 C1638 0.930 . S
H1633 C1641 0.930 . S
H1634 C1642 0.930 . S
H1635 C1643 0.930 . S
H1636 C1646 0.930 . S
H1637 C1647 0.930 . S
C1638 H1632 0.930 . S
C1638 C1639 1.355 . S
C1638 C1640 1.415 . S
C1639 C1638 1.355 . S
C1639 C1641 1.419 . S
C1640 C1638 1.415 . S
C1640 C1645 1.425 . S
C1640 C1647 1.409 . S
C1641 H1633 0.930 . S
C1641 C1639 1.419 . S
C1641 C1642 1.362 . S
C1642 H1634 0.930 . S
C1642 C1641 1.362 . S
C1642 C1645 1.409 . S
C1643 H1635 0.930 . S
C1643 C1644 1.355 . S
C1643 C1645 1.415 . S
C1644 C1643 1.355 . S
C1644 C1646 1.419 . S
C1645 C1640 1.425 . S
C1645 C1642 1.409 . S
C1645 C1643 1.415 . S
C1646 H1636 0.930 . S
C1646 C1644 1.419 . S
C1646 C1647 1.362 . S
C1647 H1637 0.930 . S
C1647 C1640 1.409 . S
C1647 C1646 1.362 . S
H1648 C1654 0.930 . S
H1649 C1657 0.930 . S
H1650 C1658 0.930 . S
H1651 C1659 0.930 . S
H1652 C1662 0.930 . S
H1653 C1663 0.930 . S
C1654 H1648 0.930 . S
C1654 C1655 1.355 . S
C1654 C1656 1.415 . S
C1655 C1654 1.355 . S
C1655 C1657 1.419 . S
C1656 C1654 1.415 . S
C1656 C1661 1.425 . S
C1656 C1663 1.409 . S
C1657 H1649 0.930 . S
C1657 C1655 1.419 . S
C1657 C1658 1.362 . S
C1658 H1650 0.930 . S
C1658 C1657 1.362 . S
C1658 C1661 1.409 . S
C1659 H1651 0.930 . S
C1659 C1660 1.355 . S
C1659 C1661 1.415 . S
C1660 C1659 1.355 . S
C1660 C1662 1.419 . S
C1661 C1656 1.425 . S
C1661 C1658 1.409 . S
C1661 C1659 1.415 . S
C1662 H1652 0.930 . S
C1662 C1660 1.419 . S
C1662 C1663 1.362 . S
C1663 H1653 0.930 . S
C1663 C1656 1.409 . S
C1663 C1662 1.362 . S
H1664 C1670 0.930 . S
H1665 C1673 0.930 . S
H1666 C1674 0.930 . S
H1667 C1675 0.930 . S
H1668 C1678 0.930 . S
H1669 C1679 0.930 . S
C1670 H1664 0.930 . S
C1670 C1671 1.355 . S
C1670 C1672 1.415 . S
C1671 C1670 1.355 . S
C1671 C1673 1.419 . S
C1672 C1670 1.415 . S
C1672 C1677 1.425 1_554 S
C1672 C1679 1.409 1_554 S
C1673 H1665 0.930 . S
C1673 C1671 1.419 . S
C1673 C1674 1.362 . S
C1674 H1666 0.930 . S
C1674 C1673 1.362 . S
C1674 C1677 1.409 1_554 S
C1675 H1667 0.930 . S
C1675 C1676 1.355 . S
C1675 C1677 1.415 . S
C1676 C1675 1.355 . S
C1676 C1678 1.419 . S
C1677 C1672 1.425 1_556 S
C1677 C1674 1.409 1_556 S
C1677 C1675 1.415 . S
C1678 H1668 0.930 . S
C1678 C1676 1.419 . S
C1678 C1679 1.362 . S
C1679 H1669 0.930 . S
C1679 C1672 1.409 1_556 S
C1679 C1678 1.362 . S
H1680 C1686 0.930 . S
H1681 C1689 0.930 . S
H1682 C1690 0.930 . S
H1683 C1691 0.930 . S
H1684 C1694 0.930 . S
H1685 C1695 0.930 . S
C1686 H1680 0.930 . S
C1686 C1687 1.355 . S
C1686 C1688 1.415 . S
C1687 C1686 1.355 . S
C1687 C1689 1.419 . S
C1688 C1686 1.415 . S
C1688 C1693 1.425 1_556 S
C1688 C1695 1.409 1_556 S
C1689 H1681 0.930 . S
C1689 C1687 1.419 . S
C1689 C1690 1.362 . S
C1690 H1682 0.930 . S
C1690 C1689 1.362 . S
C1690 C1693 1.409 1_556 S
C1691 H1683 0.930 . S
C1691 C1692 1.355 . S
C1691 C1693 1.415 . S
C1692 C1691 1.355 . S
C1692 C1694 1.419 . S
C1693 C1688 1.425 1_554 S
C1693 C1690 1.409 1_554 S
C1693 C1691 1.415 . S
C1694 H1684 0.930 . S
C1694 C1692 1.419 . S
C1694 C1695 1.362 . S
C1695 H1685 0.930 . S
C1695 C1688 1.409 1_554 S
C1695 C1694 1.362 . S
H1696 C1702 0.930 . S
H1697 C1705 0.930 . S
H1698 C1706 0.930 . S
H1699 C1707 0.930 . S
H1700 C1710 0.930 . S
H1701 C1711 0.930 . S
C1702 H1696 0.930 . S
C1702 C1703 1.355 . S
C1702 C1704 1.415 . S
C1703 C1702 1.355 . S
C1703 C1705 1.419 . S
C1704 C1702 1.415 . S
C1704 C1709 1.425 . S
C1704 C1711 1.409 . S
C1705 H1697 0.930 . S
C1705 C1703 1.419 . S
C1705 C1706 1.362 . S
C1706 H1698 0.930 . S
C1706 C1705 1.362 . S
C1706 C1709 1.409 . S
C1707 H1699 0.930 . S
C1707 C1708 1.355 . S
C1707 C1709 1.415 . S
C1708 C1707 1.355 . S
C1708 C1710 1.419 . S
C1709 C1704 1.425 . S
C1709 C1706 1.409 . S
C1709 C1707 1.415 . S
C1710 H1700 0.930 . S
C1710 C1708 1.419 . S
C1710 C1711 1.362 . S
C1711 H1701 0.930 . S
C1711 C1704 1.409 . S
C1711 C1710 1.362 . S
H1712 C1718 0.930 . S
H1713 C1721 0.930 . S
H1714 C1722 0.930 . S
H1715 C1723 0.930 . S
H1716 C1726 0.930 . S
H1717 C1727 0.930 . S
C1718 H1712 0.930 . S
C1718 C1719 1.355 . S
C1718 C1720 1.415 . S
C1719 C1718 1.355 . S
C1719 C1721 1.419 . S
C1720 C1718 1.415 . S
C1720 C1725 1.425 . S
C1720 C1727 1.409 . S
C1721 H1713 0.930 . S
C1721 C1719 1.419 . S
C1721 C1722 1.362 . S
C1722 H1714 0.930 . S
C1722 C1721 1.362 . S
C1722 C1725 1.409 . S
C1723 H1715 0.930 . S
C1723 C1724 1.355 . S
C1723 C1725 1.415 . S
C1724 C1723 1.355 . S
C1724 C1726 1.419 . S
C1725 C1720 1.425 . S
C1725 C1722 1.409 . S
C1725 C1723 1.415 . S
C1726 H1716 0.930 . S
C1726 C1724 1.419 . S
C1726 C1727 1.362 . S
C1727 H1717 0.930 . S
C1727 C1720 1.409 . S
C1727 C1726 1.362 . S
H1728 C1734 0.930 . S
H1729 C1737 0.930 . S
H1730 C1738 0.930 . S
H1731 C1739 0.930 . S
H1732 C1742 0.930 . S
H1733 C1743 0.930 . S
C1734 H1728 0.930 . S
C1734 C1735 1.355 . S
C1734 C1736 1.415 1_655 S
C1735 C1734 1.355 . S
C1735 C1737 1.419 1_565 S
C1736 C1734 1.415 1_455 S
C1736 C1741 1.425 1_465 S
C1736 C1743 1.409 . S
C1737 H1729 0.930 . S
C1737 C1735 1.419 1_545 S
C1737 C1738 1.362 . S
C1738 H1730 0.930 . S
C1738 C1737 1.362 . S
C1738 C1741 1.409 . S
C1739 H1731 0.930 . S
C1739 C1740 1.355 . S
C1739 C1741 1.415 1_455 S
C1740 C1739 1.355 . S
C1740 C1742 1.419 1_545 S
C1741 C1736 1.425 1_645 S
C1741 C1738 1.409 . S
C1741 C1739 1.415 1_655 S
C1742 H1732 0.930 . S
C1742 C1740 1.419 1_565 S
C1742 C1743 1.362 . S
C1743 H1733 0.930 . S
C1743 C1736 1.409 . S
C1743 C1742 1.362 . S
H1744 C1750 0.930 . S
H1745 C1753 0.930 . S
H1746 C1754 0.954 . S
H1747 C1755 0.930 . S
H1748 C1758 0.930 . S
H1749 C1759 0.954 . S
C1750 H1744 0.930 . S
C1750 C1751 1.355 1_565 S
C1750 C1752 1.415 . S
C1751 C1750 1.355 1_545 S
C1751 C1753 1.419 . S
C1752 C1750 1.415 . S
C1752 C1757 1.425 1_665 S
C1752 C1759 1.420 . S
C1753 H1745 0.930 . S
C1753 C1751 1.419 . S
C1753 C1754 1.329 1_655 S
C1754 H1746 0.954 . S
C1754 C1753 1.329 1_455 S
C1754 C1757 1.420 . S
C1755 H1747 0.930 . S
C1755 C1756 1.355 1_545 S
C1755 C1757 1.415 . S
C1756 C1755 1.355 1_565 S
C1756 C1758 1.419 . S
C1757 C1752 1.425 1_445 S
C1757 C1754 1.420 . S
C1757 C1755 1.415 . S
C1758 H1748 0.930 . S
C1758 C1756 1.419 . S
C1758 C1759 1.329 1_455 S
C1759 H1749 0.954 . S
C1759 C1752 1.420 . S
C1759 C1758 1.329 1_655 S
H1760 C1766 0.930 . S
H1761 C1769 0.930 . S
H1762 C1770 0.930 . S
H1763 C1771 0.930 . S
H1764 C1774 0.930 . S
H1765 C1775 0.930 . S
C1766 H1760 0.930 . S
C1766 C1767 1.355 . S
C1766 C1768 1.415 . S
C1767 C1766 1.355 . S
C1767 C1769 1.419 . S
C1768 C1766 1.415 . S
C1768 C1773 1.425 1_445 S
C1768 C1775 1.409 1_445 S
C1769 H1761 0.930 . S
C1769 C1767 1.419 . S
C1769 C1770 1.362 . S
C1770 H1762 0.930 . S
C1770 C1769 1.362 . S
C1770 C1773 1.409 1_445 S
C1771 H1763 0.930 . S
C1771 C1772 1.355 . S
C1771 C1773 1.415 . S
C1772 C1771 1.355 . S
C1772 C1774 1.419 . S
C1773 C1768 1.425 1_665 S
C1773 C1770 1.409 1_665 S
C1773 C1771 1.415 . S
C1774 H1764 0.930 . S
C1774 C1772 1.419 . S
C1774 C1775 1.362 . S
C1775 H1765 0.930 . S
C1775 C1768 1.409 1_665 S
C1775 C1774 1.362 . S
H1776 C1782 0.930 . S
H1777 C1785 0.930 . S
H1778 C1786 0.930 . S
H1779 C1787 0.930 . S
H1780 C1790 0.930 . S
H1781 C1791 0.930 . S
C1782 H1776 0.930 . S
C1782 C1783 1.355 . S
C1782 C1784 1.391 1_655 S
C1783 C1782 1.355 . S
C1783 C1785 1.419 1_545 S
C1784 C1782 1.391 1_455 S
C1784 C1789 1.424 1_445 S
C1784 C1791 1.435 . S
C1785 H1777 0.930 . S
C1785 C1783 1.419 1_565 S
C1785 C1786 1.362 . S
C1786 H1778 0.930 . S
C1786 C1785 1.362 . S
C1786 C1789 1.435 . S
C1787 H1779 0.930 . S
C1787 C1788 1.355 . S
C1787 C1789 1.391 1_455 S
C1788 C1787 1.355 . S
C1788 C1790 1.419 1_565 S
C1789 C1784 1.424 1_665 S
C1789 C1786 1.435 . S
C1789 C1787 1.391 1_655 S
C1790 H1780 0.930 . S
C1790 C1788 1.419 1_545 S
C1790 C1791 1.362 . S
C1791 H1781 0.930 . S
C1791 C1784 1.435 . S
C1791 C1790 1.362 . S
H1792 C1798 0.930 . S
H1793 C1801 0.930 . S
H1794 C1802 0.930 . S
H1795 C1803 0.930 . S
H1796 C1806 0.930 . S
H1797 C1807 0.930 . S
C1798 H1792 0.930 . S
C1798 C1799 1.355 . S
C1798 C1800 1.415 . S
C1799 C1798 1.355 . S
C1799 C1801 1.419 . S
C1800 C1798 1.415 . S
C1800 C1805 1.425 . S
C1800 C1807 1.409 . S
C1801 H1793 0.930 . S
C1801 C1799 1.419 . S
C1801 C1802 1.362 . S
C1802 H1794 0.930 . S
C1802 C1801 1.362 . S
C1802 C1805 1.409 . S
C1803 H1795 0.930 . S
C1803 C1804 1.355 . S
C1803 C1805 1.415 . S
C1804 C1803 1.355 . S
C1804 C1806 1.419 . S
C1805 C1800 1.425 . S
C1805 C1802 1.409 . S
C1805 C1803 1.415 . S
C1806 H1796 0.930 . S
C1806 C1804 1.419 . S
C1806 C1807 1.362 . S
C1807 H1797 0.930 . S
C1807 C1800 1.409 . S
C1807 C1806 1.362 . S
H1808 C1814 0.930 . S
H1809 C1817 0.930 . S
H1810 C1818 0.930 . S
H1811 C1819 0.930 . S
H1812 C1822 0.930 . S
H1813 C1823 0.930 . S
C1814 H1808 0.930 . S
C1814 C1815 1.355 . S
C1814 C1816 1.415 . S
C1815 C1814 1.355 . S
C1815 C1817 1.419 . S
C1816 C1814 1.415 . S
C1816 C1821 1.425 . S
C1816 C1823 1.409 . S
C1817 H1809 0.930 . S
C1817 C1815 1.419 . S
C1817 C1818 1.362 . S
C1818 H1810 0.930 . S
C1818 C1817 1.362 . S
C1818 C1821 1.409 . S
C1819 H1811 0.930 . S
C1819 C1820 1.355 . S
C1819 C1821 1.415 . S
C1820 C1819 1.355 . S
C1820 C1822 1.419 . S
C1821 C1816 1.425 . S
C1821 C1818 1.409 . S
C1821 C1819 1.415 . S
C1822 H1812 0.930 . S
C1822 C1820 1.419 . S
C1822 C1823 1.362 . S
C1823 H1813 0.930 . S
C1823 C1816 1.409 . S
C1823 C1822 1.362 . S
H1824 C1830 0.930 . S
H1825 C1833 0.930 . S
H1826 C1834 0.930 . S
H1827 C1835 0.930 . S
H1828 C1838 0.930 . S
H1829 C1839 0.930 . S
C1830 H1824 0.930 . S
C1830 C1831 1.355 . S
C1830 C1832 1.415 . S
C1831 C1830 1.355 . S
C1831 C1833 1.419 . S
C1832 C1830 1.415 . S
C1832 C1837 1.425 . S
C1832 C1839 1.409 . S
C1833 H1825 0.930 . S
C1833 C1831 1.419 . S
C1833 C1834 1.362 . S
C1834 H1826 0.930 . S
C1834 C1833 1.362 . S
C1834 C1837 1.409 . S
C1835 H1827 0.930 . S
C1835 C1836 1.355 . S
C1835 C1837 1.415 . S
C1836 C1835 1.355 . S
C1836 C1838 1.419 . S
C1837 C1832 1.425 . S
C1837 C1834 1.409 . S
C1837 C1835 1.415 . S
C1838 H1828 0.930 . S
C1838 C1836 1.419 . S
C1838 C1839 1.362 . S
C1839 H1829 0.930 . S
C1839 C1832 1.409 . S
C1839 C1838 1.362 . S
H1840 C1846 0.930 . S
H1841 C1849 0.930 . S
H1842 C1850 0.930 . S
H1843 C1851 0.930 . S
H1844 C1854 0.930 . S
H1845 C1855 0.930 . S
C1846 H1840 0.930 . S
C1846 C1847 1.355 . S
C1846 C1848 1.415 . S
C1847 C1846 1.355 . S
C1847 C1849 1.419 . S
C1848 C1846 1.415 . S
C1848 C1853 1.425 . S
C1848 C1855 1.409 . S
C1849 H1841 0.930 . S
C1849 C1847 1.419 . S
C1849 C1850 1.362 . S
C1850 H1842 0.930 . S
C1850 C1849 1.362 . S
C1850 C1853 1.409 . S
C1851 H1843 0.930 . S
C1851 C1852 1.355 . S
C1851 C1853 1.415 . S
C1852 C1851 1.355 . S
C1852 C1854 1.419 . S
C1853 C1848 1.425 . S
C1853 C1850 1.409 . S
C1853 C1851 1.415 . S
C1854 H1844 0.930 . S
C1854 C1852 1.419 . S
C1854 C1855 1.362 . S
C1855 H1845 0.930 . S
C1855 C1848 1.409 . S
C1855 C1854 1.362 . S
H1856 C1862 0.930 . S
H1857 C1865 0.930 . S
H1858 C1866 0.930 . S
H1859 C1867 0.930 . S
H1860 C1870 0.930 . S
H1861 C1871 0.930 . S
C1862 H1856 0.930 . S
C1862 C1863 1.355 . S
C1862 C1864 1.415 . S
C1863 C1862 1.355 . S
C1863 C1865 1.419 . S
C1864 C1862 1.415 . S
C1864 C1869 1.425 . S
C1864 C1871 1.409 . S
C1865 H1857 0.930 . S
C1865 C1863 1.419 . S
C1865 C1866 1.362 . S
C1866 H1858 0.930 . S
C1866 C1865 1.362 . S
C1866 C1869 1.409 . S
C1867 H1859 0.930 . S
C1867 C1868 1.355 . S
C1867 C1869 1.415 . S
C1868 C1867 1.355 . S
C1868 C1870 1.419 . S
C1869 C1864 1.425 . S
C1869 C1866 1.409 . S
C1869 C1867 1.415 . S
C1870 H1860 0.930 . S
C1870 C1868 1.419 . S
C1870 C1871 1.362 . S
C1871 H1861 0.930 . S
C1871 C1864 1.409 . S
C1871 C1870 1.362 . S
H1872 C1878 0.930 . S
H1873 C1881 0.930 . S
H1874 C1882 0.930 . S
H1875 C1883 0.930 . S
H1876 C1886 0.930 . S
H1877 C1887 0.930 . S
C1878 H1872 0.930 . S
C1878 C1879 1.355 . S
C1878 C1880 1.415 . S
C1879 C1878 1.355 . S
C1879 C1881 1.419 . S
C1880 C1878 1.415 . S
C1880 C1885 1.425 . S
C1880 C1887 1.409 . S
C1881 H1873 0.930 . S
C1881 C1879 1.419 . S
C1881 C1882 1.362 . S
C1882 H1874 0.930 . S
C1882 C1881 1.362 . S
C1882 C1885 1.409 . S
C1883 H1875 0.930 . S
C1883 C1884 1.355 . S
C1883 C1885 1.415 . S
C1884 C1883 1.355 . S
C1884 C1886 1.419 . S
C1885 C1880 1.425 . S
C1885 C1882 1.409 . S
C1885 C1883 1.415 . S
C1886 H1876 0.930 . S
C1886 C1884 1.419 . S
C1886 C1887 1.362 . S
C1887 H1877 0.930 . S
C1887 C1880 1.409 . S
C1887 C1886 1.362 . S
H1888 C1894 0.930 . S
H1889 C1897 0.930 . S
H1890 C1898 0.930 . S
H1891 C1899 0.930 . S
H1892 C1902 0.930 . S
H1893 C1903 0.930 . S
C1894 H1888 0.930 . S
C1894 C1895 1.355 . S
C1894 C1896 1.415 . S
C1895 C1894 1.355 . S
C1895 C1897 1.419 . S
C1896 C1894 1.415 . S
C1896 C1901 1.425 . S
C1896 C1903 1.409 . S
C1897 H1889 0.930 . S
C1897 C1895 1.419 . S
C1897 C1898 1.362 . S
C1898 H1890 0.930 . S
C1898 C1897 1.362 . S
C1898 C1901 1.409 . S
C1899 H1891 0.930 . S
C1899 C1900 1.355 . S
C1899 C1901 1.415 . S
C1900 C1899 1.355 . S
C1900 C1902 1.419 . S
C1901 C1896 1.425 . S
C1901 C1898 1.409 . S
C1901 C1899 1.415 . S
C1902 H1892 0.930 . S
C1902 C1900 1.419 . S
C1902 C1903 1.362 . S
C1903 H1893 0.930 . S
C1903 C1896 1.409 . S
C1903 C1902 1.362 . S
H1904 C1910 0.930 . S
H1905 C1913 0.930 . S
H1906 C1914 0.930 . S
H1907 C1915 0.930 . S
H1908 C1918 0.930 . S
H1909 C1919 0.930 . S
C1910 H1904 0.930 . S
C1910 C1911 1.355 . S
C1910 C1912 1.415 . S
C1911 C1910 1.355 . S
C1911 C1913 1.419 . S
C1912 C1910 1.415 . S
C1912 C1917 1.425 . S
C1912 C1919 1.409 . S
C1913 H1905 0.930 . S
C1913 C1911 1.419 . S
C1913 C1914 1.362 . S
C1914 H1906 0.930 . S
C1914 C1913 1.362 . S
C1914 C1917 1.409 . S
C1915 H1907 0.930 . S
C1915 C1916 1.355 . S
C1915 C1917 1.415 . S
C1916 C1915 1.355 . S
C1916 C1918 1.419 . S
C1917 C1912 1.425 . S
C1917 C1914 1.409 . S
C1917 C1915 1.415 . S
C1918 H1908 0.930 . S
C1918 C1916 1.419 . S
C1918 C1919 1.362 . S
C1919 H1909 0.930 . S
C1919 C1912 1.409 . S
C1919 C1918 1.362 . S
H1920 C1926 0.930 . S
H1921 C1929 0.930 . S
H1922 C1930 0.930 . S
H1923 C1931 0.930 . S
H1924 C1934 0.930 . S
H1925 C1935 0.930 . S
C1926 H1920 0.930 . S
C1926 C1927 1.355 . S
C1926 C1928 1.415 . S
C1927 C1926 1.355 . S
C1927 C1929 1.419 . S
C1928 C1926 1.415 . S
C1928 C1933 1.425 . S
C1928 C1935 1.409 . S
C1929 H1921 0.930 . S
C1929 C1927 1.419 . S
C1929 C1930 1.362 . S
C1930 H1922 0.930 . S
C1930 C1929 1.362 . S
C1930 C1933 1.409 . S
C1931 H1923 0.930 . S
C1931 C1932 1.355 . S
C1931 C1933 1.415 . S
C1932 C1931 1.355 . S
C1932 C1934 1.419 . S
C1933 C1928 1.425 . S
C1933 C1930 1.409 . S
C1933 C1931 1.415 . S
C1934 H1924 0.930 . S
C1934 C1932 1.419 . S
C1934 C1935 1.362 . S
C1935 H1925 0.930 . S
C1935 C1928 1.409 . S
C1935 C1934 1.362 . S
H1936 C1942 0.930 . S
H1937 C1945 0.930 . S
H1938 C1946 0.930 . S
H1939 C1947 0.930 . S
H1940 C1950 0.930 . S
H1941 C1951 0.930 . S
C1942 H1936 0.930 . S
C1942 C1943 1.355 . S
C1942 C1944 1.415 . S
C1943 C1942 1.355 . S
C1943 C1945 1.419 . S
C1944 C1942 1.415 . S
C1944 C1949 1.425 . S
C1944 C1951 1.409 . S
C1945 H1937 0.930 . S
C1945 C1943 1.419 . S
C1945 C1946 1.362 . S
C1946 H1938 0.930 . S
C1946 C1945 1.362 . S
C1946 C1949 1.409 . S
C1947 H1939 0.930 . S
C1947 C1948 1.355 . S
C1947 C1949 1.415 . S
C1948 C1947 1.355 . S
C1948 C1950 1.419 . S
C1949 C1944 1.425 . S
C1949 C1946 1.409 . S
C1949 C1947 1.415 . S
C1950 H1940 0.930 . S
C1950 C1948 1.419 . S
C1950 C1951 1.362 . S
C1951 H1941 0.930 . S
C1951 C1944 1.409 . S
C1951 C1950 1.362 . S
H1952 C1958 0.930 . S
H1953 C1961 0.930 . S
H1954 C1962 0.930 . S
H1955 C1963 0.930 . S
H1956 C1966 0.930 . S
H1957 C1967 0.930 . S
C1958 H1952 0.930 . S
C1958 C1959 1.355 . S
C1958 C1960 1.415 . S
C1959 C1958 1.355 . S
C1959 C1961 1.419 . S
C1960 C1958 1.415 . S
C1960 C1965 1.425 . S
C1960 C1967 1.409 . S
C1961 H1953 0.930 . S
C1961 C1959 1.419 . S
C1961 C1962 1.362 . S
C1962 H1954 0.930 . S
C1962 C1961 1.362 . S
C1962 C1965 1.409 . S
C1963 H1955 0.930 . S
C1963 C1964 1.355 . S
C1963 C1965 1.415 . S
C1964 C1963 1.355 . S
C1964 C1966 1.419 . S
C1965 C1960 1.425 . S
C1965 C1962 1.409 . S
C1965 C1963 1.415 . S
C1966 H1956 0.930 . S
C1966 C1964 1.419 . S
C1966 C1967 1.362 . S
C1967 H1957 0.930 . S
C1967 C1960 1.409 . S
C1967 C1966 1.362 . S
H1968 C1974 0.930 . S
H1969 C1977 0.930 . S
H1970 C1978 0.930 . S
H1971 C1979 0.930 . S
H1972 C1982 0.930 . S
H1973 C1983 0.930 . S
C1974 H1968 0.930 . S
C1974 C1975 1.355 . S
C1974 C1976 1.415 . S
C1975 C1974 1.355 . S
C1975 C1977 1.419 . S
C1976 C1974 1.415 . S
C1976 C1981 1.425 . S
C1976 C1983 1.409 . S
C1977 H1969 0.930 . S
C1977 C1975 1.419 . S
C1977 C1978 1.362 . S
C1978 H1970 0.930 . S
C1978 C1977 1.362 . S
C1978 C1981 1.409 . S
C1979 H1971 0.930 . S
C1979 C1980 1.355 . S
C1979 C1981 1.415 . S
C1980 C1979 1.355 . S
C1980 C1982 1.419 . S
C1981 C1976 1.425 . S
C1981 C1978 1.409 . S
C1981 C1979 1.415 . S
C1982 H1972 0.930 . S
C1982 C1980 1.419 . S
C1982 C1983 1.362 . S
C1983 H1973 0.930 . S
C1983 C1976 1.409 . S
C1983 C1982 1.362 . S
H1984 C1990 0.930 . S
H1985 C1993 0.930 . S
H1986 C1994 0.930 . S
H1987 C1995 0.930 . S
H1988 C1998 0.930 . S
H1989 C1999 0.930 . S
C1990 H1984 0.930 . S
C1990 C1991 1.355 . S
C1990 C1992 1.415 . S
C1991 C1990 1.355 . S
C1991 C1993 1.419 . S
C1992 C1990 1.415 . S
C1992 C1997 1.425 . S
C1992 C1999 1.409 . S
C1993 H1985 0.930 . S
C1993 C1991 1.419 . S
C1993 C1994 1.362 . S
C1994 H1986 0.930 . S
C1994 C1993 1.362 . S
C1994 C1997 1.409 . S
C1995 H1987 0.930 . S
C1995 C1996 1.355 . S
C1995 C1997 1.415 . S
C1996 C1995 1.355 . S
C1996 C1998 1.419 . S
C1997 C1992 1.425 . S
C1997 C1994 1.409 . S
C1997 C1995 1.415 . S
C1998 H1988 0.930 . S
C1998 C1996 1.419 . S
C1998 C1999 1.362 . S
C1999 H1989 0.930 . S
C1999 C1992 1.409 . S
C1999 C1998 1.362 . S
H2000 C2006 0.930 . S
H2001 C2009 0.930 . S
H2002 C2010 0.930 . S
H2003 C2011 0.930 . S
H2004 C2014 0.941 . S
H2005 C2015 0.930 . S
C2006 H2000 0.930 . S
C2006 C2007 1.355 . S
C2006 C2008 1.415 . S
C2007 C2006 1.355 . S
C2007 C2009 1.419 . S
C2008 C2006 1.415 . S
C2008 C2013 1.425 . S
C2008 C2015 1.409 . S
C2009 H2001 0.930 . S
C2009 C2007 1.419 . S
C2009 C2010 1.362 . S
C2010 H2002 0.930 . S
C2010 C2009 1.362 . S
C2010 C2013 1.409 . S
C2011 H2003 0.930 . S
C2011 C2012 1.355 . S
C2011 C2013 1.415 . S
C2012 C2011 1.355 . S
C2012 C2014 1.419 . S
C2013 C2008 1.425 . S
C2013 C2010 1.409 . S
C2013 C2011 1.415 . S
C2014 H2004 0.941 . S
C2014 C2012 1.419 . S
C2014 C2015 1.362 . S
C2015 H2005 0.930 . S
C2015 C2008 1.409 . S
C2015 C2014 1.362 . S
H2016 C2022 0.930 . S
H2017 C2025 0.930 1_545 S
H2018 C2026 0.930 . S
H2019 C2027 0.930 . S
H2020 C2030 0.930 . S
H2021 C2031 0.930 . S
C2022 H2016 0.930 . S
C2022 C2023 1.355 . S
C2022 C2024 1.415 . S
C2023 C2022 1.355 . S
C2023 C2025 1.419 . S
C2024 C2022 1.415 . S
C2024 C2029 1.425 . S
C2024 C2031 1.409 . S
C2025 H2017 0.930 1_565 S
C2025 C2023 1.419 . S
C2025 C2026 1.362 . S
C2026 H2018 0.930 . S
C2026 C2025 1.362 . S
C2026 C2029 1.409 . S
C2027 H2019 0.930 . S
C2027 C2028 1.355 . S
C2027 C2029 1.415 . S
C2028 C2027 1.355 . S
C2028 C2030 1.419 . S
C2029 C2024 1.425 . S
C2029 C2026 1.409 . S
C2029 C2027 1.415 . S
C2030 H2020 0.930 . S
C2030 C2028 1.419 . S
C2030 C2031 1.362 . S
C2031 H2021 0.930 . S
C2031 C2024 1.409 . S
C2031 C2030 1.362 . S
H2032 C2038 0.930 . S
H2033 C2041 0.930 . S
H2034 C2042 0.930 . S
H2035 C2043 0.930 . S
H2036 C2046 0.930 . S
H2037 C2047 0.930 . S
C2038 H2032 0.930 . S
C2038 C2039 1.355 . S
C2038 C2040 1.415 . S
C2039 C2038 1.355 . S
C2039 C2041 1.419 . S
C2040 C2038 1.415 . S
C2040 C2045 1.425 . S
C2040 C2047 1.409 . S
C2041 H2033 0.930 . S
C2041 C2039 1.419 . S
C2041 C2042 1.362 . S
C2042 H2034 0.930 . S
C2042 C2041 1.362 . S
C2042 C2045 1.409 . S
C2043 H2035 0.930 . S
C2043 C2044 1.355 . S
C2043 C2045 1.415 . S
C2044 C2043 1.355 . S
C2044 C2046 1.419 . S
C2045 C2040 1.425 . S
C2045 C2042 1.409 . S
C2045 C2043 1.415 . S
C2046 H2036 0.930 . S
C2046 C2044 1.419 . S
C2046 C2047 1.362 . S
C2047 H2037 0.930 . S
C2047 C2040 1.409 . S
C2047 C2046 1.362 . S
H2048 C2054 0.930 . S
H2049 C2057 0.930 . S
H2050 C2058 0.930 . S
H2051 C2059 0.930 . S
H2052 C2062 0.930 . S
H2053 C2063 0.930 . S
C2054 H2048 0.930 . S
C2054 C2055 1.355 . S
C2054 C2056 1.415 . S
C2055 C2054 1.355 . S
C2055 C2057 1.419 . S
C2056 C2054 1.415 . S
C2056 C2061 1.425 . S
C2056 C2063 1.409 . S
C2057 H2049 0.930 . S
C2057 C2055 1.419 . S
C2057 C2058 1.362 . S
C2058 H2050 0.930 . S
C2058 C2057 1.362 . S
C2058 C2061 1.409 . S
C2059 H2051 0.930 . S
C2059 C2060 1.355 . S
C2059 C2061 1.415 . S
C2060 C2059 1.355 . S
C2060 C2062 1.419 . S
C2061 C2056 1.425 . S
C2061 C2058 1.409 . S
C2061 C2059 1.415 . S
C2062 H2052 0.930 . S
C2062 C2060 1.419 . S
C2062 C2063 1.362 . S
C2063 H2053 0.930 . S
C2063 C2056 1.409 . S
C2063 C2062 1.362 . S
H2064 C2070 0.930 . S
H2065 C2073 0.930 . S
H2066 C2074 0.930 . S
H2067 C2075 0.930 . S
H2068 C2078 0.930 1_565 S
H2069 C2079 0.930 . S
C2070 H2064 0.930 . S
C2070 C2071 1.355 . S
C2070 C2072 1.415 . S
C2071 C2070 1.355 . S
C2071 C2073 1.419 . S
C2072 C2070 1.415 . S
C2072 C2077 1.425 . S
C2072 C2079 1.409 . S
C2073 H2065 0.930 . S
C2073 C2071 1.419 . S
C2073 C2074 1.362 . S
C2074 H2066 0.930 . S
C2074 C2073 1.362 . S
C2074 C2077 1.409 . S
C2075 H2067 0.930 . S
C2075 C2076 1.355 . S
C2075 C2077 1.415 . S
C2076 C2075 1.355 . S
C2076 C2078 1.419 . S
C2077 C2072 1.425 . S
C2077 C2074 1.409 . S
C2077 C2075 1.415 . S
C2078 H2068 0.930 1_545 S
C2078 C2076 1.419 . S
C2078 C2079 1.362 . S
C2079 H2069 0.930 . S
C2079 C2072 1.409 . S
C2079 C2078 1.362 . S
H2080 C2086 0.930 . S
H2081 C2089 0.930 . S
H2082 C2090 0.930 . S
H2083 C2091 0.930 . S
H2084 C2094 0.930 . S
H2085 C2095 0.930 . S
C2086 H2080 0.930 . S
C2086 C2087 1.355 . S
C2086 C2088 1.415 . S
C2087 C2086 1.355 . S
C2087 C2089 1.419 . S
C2088 C2086 1.415 . S
C2088 C2093 1.425 . S
C2088 C2095 1.409 . S
C2089 H2081 0.930 . S
C2089 C2087 1.419 . S
C2089 C2090 1.362 . S
C2090 H2082 0.930 . S
C2090 C2089 1.362 . S
C2090 C2093 1.409 . S
C2091 H2083 0.930 . S
C2091 C2092 1.355 . S
C2091 C2093 1.415 . S
C2092 C2091 1.355 . S
C2092 C2094 1.419 . S
C2093 C2088 1.425 . S
C2093 C2090 1.409 . S
C2093 C2091 1.415 . S
C2094 H2084 0.930 . S
C2094 C2092 1.419 . S
C2094 C2095 1.362 . S
C2095 H2085 0.930 . S
C2095 C2088 1.409 . S
C2095 C2094 1.362 . S
H2096 C2102 0.930 . S
H2097 C2105 0.930 . S
H2098 C2106 0.930 . S
H2099 C2107 0.930 . S
H2100 C2110 0.930 . S
H2101 C2111 0.930 . S
C2102 H2096 0.930 . S
C2102 C2103 1.355 . S
C2102 C2104 1.415 . S
C2103 C2102 1.355 . S
C2103 C2105 1.419 . S
C2104 C2102 1.415 . S
C2104 C2109 1.425 . S
C2104 C2111 1.409 . S
C2105 H2097 0.930 . S
C2105 C2103 1.419 . S
C2105 C2106 1.362 . S
C2106 H2098 0.930 . S
C2106 C2105 1.362 . S
C2106 C2109 1.409 . S
C2107 H2099 0.930 . S
C2107 C2108 1.355 . S
C2107 C2109 1.415 . S
C2108 C2107 1.355 . S
C2108 C2110 1.419 . S
C2109 C2104 1.425 . S
C2109 C2106 1.409 . S
C2109 C2107 1.415 . S
C2110 H2100 0.930 . S
C2110 C2108 1.419 . S
C2110 C2111 1.362 . S
C2111 H2101 0.930 . S
C2111 C2104 1.409 . S
C2111 C2110 1.362 . S
C1351 C55 1.495 . S
C1356 C811 1.503 . S
C1367 C139 1.486 . S
C1372 C727 1.487 . S
C1383 C979 1.485 . S
C1388 C223 1.508 . S
C1399 C307 1.483 . S
C1404 C895 1.491 . S
C1415 C1159 1.506 . S
C1420 C403 1.491 . S
C1431 C1075 1.480 . S
C1436 C487 1.508 . S
C1447 C1327 1.507 . S
C1452 C571 1.490 . S
C1463 C655 1.508 . S
C1468 C1243 1.480 . S
C1479 C224 1.666 . S
C1484 C56 1.668 . S
C1495 C308 1.662 . S
C1500 C140 1.669 . S
C1511 C572 1.661 . S
C1516 C404 1.660 . S
C1527 C488 1.668 . S
C1532 C656 1.666 . S
C1543 C896 1.667 . S
C1548 C728 1.668 . S
C1559 C980 1.668 . S
C1564 C812 1.666 . S
C1575 C1076 1.667 . S
C1580 C1244 1.667 . S
C1591 C1160 1.665 . S
C1596 C1328 1.668 . S
C1607 C476 1.638 . S
C1612 C68 1.708 . S
C1623 C392 1.698 . S
C1628 C152 1.649 . S
C1639 C236 1.638 . S
C1644 C644 1.709 . S
C1655 C560 1.709 . S
C1660 C320 1.638 . S
C1671 C740 1.673 . S
C1676 C1148 1.675 . S
C1687 C1064 1.688 . S
C1692 C824 1.659 . S
C1703 C908 1.646 . S
C1708 C1316 1.701 . S
C1719 C1232 1.689 . S
C1724 C992 1.658 . S
C1735 C151 1.492 . S
C1740 C67 1.498 . S
C1751 C319 1.502 . S
C1756 C235 1.490 . S
C1767 C475 1.509 . S
C1772 C391 1.483 . S
C1783 C559 1.495 . S
C1788 C643 1.496 . S
C1799 C823 1.504 . S
C1804 C739 1.488 . S
C1815 C991 1.485 . S
C1820 C907 1.507 . S
C1831 C1063 1.490 . S
C1836 C1147 1.502 . S
C1847 C1231 1.491 . S
C1852 C1315 1.502 . S
C1863 C70 1.335 . S
C1868 C58 1.335 . S
C1879 C154 1.384 . S
C1884 C142 1.384 . S
C1895 C238 1.328 . S
C1900 C226 1.328 . S
C1911 C310 1.291 . S
C1916 C322 1.291 . S
C1927 C394 1.286 . S
C1932 C406 1.286 . S
C1943 C490 1.360 . S
C1948 C478 1.360 . S
C1959 C562 1.398 . S
C1964 C574 1.398 . S
C1975 C646 1.386 . S
C1980 C658 1.386 . S
C1991 C730 1.410 1_545 S
C1996 C742 1.410 . S
C2007 C826 1.349 . S
C2012 C814 1.349 1_565 S
C2023 C898 1.290 1_565 S
C2028 C910 1.290 . S
C2039 C982 1.347 1_545 S
C2044 C994 1.347 . S
C2055 C1066 1.363 . S
C2060 C1078 1.363 1_565 S
C2071 C1150 1.285 . S
C2076 C1162 1.285 1_545 S
C2087 C1246 1.425 1_545 S
C2092 C1234 1.425 . S
C2103 C1318 1.364 . S
C2108 C1330 1.364 1_565 S
