# Generated by pormake.
# Topology upb, (4)-cn, num edge types: 1
# Building blocks:
#     Node 0, Type 0, BuildingBlock: GALJAG_clean_sbu_0, # of connection points: 4
#     Node 1, Type 0, BuildingBlock: GALJAG_clean_sbu_0, # of connection points: 4
#     Node 2, Type 0, BuildingBlock: GALJAG_clean_sbu_0, # of connection points: 4
#     Node 3, Type 0, BuildingBlock: GALJAG_clean_sbu_0, # of connection points: 4
#     Node 4, Type 0, BuildingBlock: GALJAG_clean_sbu_0, # of connection points: 4
#     Node 5, Type 0, BuildingBlock: GALJAG_clean_sbu_0, # of connection points: 4
#     Node 6, Type 0, BuildingBlock: GALJAG_clean_sbu_0, # of connection points: 4
#     Node 7, Type 0, BuildingBlock: GALJAG_clean_sbu_0, # of connection points: 4
#     Node 8, Type 0, BuildingBlock: GALJAG_clean_sbu_0, # of connection points: 4
#     Node 9, Type 0, BuildingBlock: GALJAG_clean_sbu_0, # of connection points: 4
#     Node 10, Type 0, BuildingBlock: GALJAG_clean_sbu_0, # of connection points: 4
#     Node 11, Type 0, BuildingBlock: GALJAG_clean_sbu_0, # of connection points: 4
#     Node 12, Type 0, BuildingBlock: GALJAG_clean_sbu_0, # of connection points: 4
#     Node 13, Type 0, BuildingBlock: GALJAG_clean_sbu_0, # of connection points: 4
#     Node 14, Type 0, BuildingBlock: GALJAG_clean_sbu_0, # of connection points: 4
#     Node 15, Type 0, BuildingBlock: GALJAG_clean_sbu_0, # of connection points: 4
#     Edge 16, Type (0, 0), BuildingBlock: OJICUG_clean_linker_0, # of connection points: 2
#     Edge 17, Type (0, 0), BuildingBlock: OJICUG_clean_linker_0, # of connection points: 2
#     Edge 18, Type (0, 0), BuildingBlock: OJICUG_clean_linker_0, # of connection points: 2
#     Edge 19, Type (0, 0), BuildingBlock: OJICUG_clean_linker_0, # of connection points: 2
#     Edge 20, Type (0, 0), BuildingBlock: OJICUG_clean_linker_0, # of connection points: 2
#     Edge 21, Type (0, 0), BuildingBlock: OJICUG_clean_linker_0, # of connection points: 2
#     Edge 22, Type (0, 0), BuildingBlock: OJICUG_clean_linker_0, # of connection points: 2
#     Edge 23, Type (0, 0), BuildingBlock: OJICUG_clean_linker_0, # of connection points: 2
#     Edge 24, Type (0, 0), BuildingBlock: OJICUG_clean_linker_0, # of connection points: 2
#     Edge 25, Type (0, 0), BuildingBlock: OJICUG_clean_linker_0, # of connection points: 2
#     Edge 26, Type (0, 0), BuildingBlock: OJICUG_clean_linker_0, # of connection points: 2
#     Edge 27, Type (0, 0), BuildingBlock: OJICUG_clean_linker_0, # of connection points: 2
#     Edge 28, Type (0, 0), BuildingBlock: OJICUG_clean_linker_0, # of connection points: 2
#     Edge 29, Type (0, 0), BuildingBlock: OJICUG_clean_linker_0, # of connection points: 2
#     Edge 30, Type (0, 0), BuildingBlock: OJICUG_clean_linker_0, # of connection points: 2
#     Edge 31, Type (0, 0), BuildingBlock: OJICUG_clean_linker_0, # of connection points: 2
#     Edge 32, Type (0, 0), BuildingBlock: OJICUG_clean_linker_0, # of connection points: 2
#     Edge 33, Type (0, 0), BuildingBlock: OJICUG_clean_linker_0, # of connection points: 2
#     Edge 34, Type (0, 0), BuildingBlock: OJICUG_clean_linker_0, # of connection points: 2
#     Edge 35, Type (0, 0), BuildingBlock: OJICUG_clean_linker_0, # of connection points: 2
#     Edge 36, Type (0, 0), BuildingBlock: OJICUG_clean_linker_0, # of connection points: 2
#     Edge 37, Type (0, 0), BuildingBlock: OJICUG_clean_linker_0, # of connection points: 2
#     Edge 38, Type (0, 0), BuildingBlock: OJICUG_clean_linker_0, # of connection points: 2
#     Edge 39, Type (0, 0), BuildingBlock: OJICUG_clean_linker_0, # of connection points: 2
#     Edge 40, Type (0, 0), BuildingBlock: OJICUG_clean_linker_0, # of connection points: 2
#     Edge 41, Type (0, 0), BuildingBlock: OJICUG_clean_linker_0, # of connection points: 2
#     Edge 42, Type (0, 0), BuildingBlock: OJICUG_clean_linker_0, # of connection points: 2
#     Edge 43, Type (0, 0), BuildingBlock: OJICUG_clean_linker_0, # of connection points: 2
#     Edge 44, Type (0, 0), BuildingBlock: OJICUG_clean_linker_0, # of connection points: 2
#     Edge 45, Type (0, 0), BuildingBlock: OJICUG_clean_linker_0, # of connection points: 2
#     Edge 46, Type (0, 0), BuildingBlock: OJICUG_clean_linker_0, # of connection points: 2
#     Edge 47, Type (0, 0), BuildingBlock: OJICUG_clean_linker_0, # of connection points: 2
# Relax obj value: 0.253
# Max RMSD: 0.089
# Mean RMSD: 0.089
data_MOF--net-upb--node1-GALJAG_clean_sbu_0--edge1-OJICUG_clean_linker_0
_symmetry_space_group_name_H-M    P1
_symmetry_Int_Tables_number       1
_symmetry_cell_setting            triclinic
loop_
_symmetry_equiv_pos_as_xyz
'x, y, z'
_cell_length_a     32.430254
_cell_length_b     32.438096
_cell_length_c     26.855038
_cell_angle_alpha  89.954235
_cell_angle_beta   89.967977
_cell_angle_gamma 89.997128
loop_
_atom_site_label
_atom_site_type_symbol
_atom_site_fract_x
_atom_site_fract_y
_atom_site_fract_z
_atom_type_partial_charge
In0 In 0.04149 0.22465 0.29498 0.0
O1 O 0.09907 0.18781 0.3144 0.0
O2 O 0.07494 0.18184 0.24114 0.0
C3 C 0.02064 0.22003 0.39148 0.0
C4 C 0.07641 0.29721 0.27024 0.0
C5 C 0.96625 0.2034 0.2604 0.0
O6 O 0.03186 0.18853 0.36735 0.0
O7 O 0.02026 0.25315 0.36693 0.0
O8 O 0.97224 0.23566 0.2855 0.0
O9 O -0.00149 0.18365 0.24989 0.0
C10 C 0.10222 0.17124 0.27207 0.0
O11 O 0.05385 0.2777 0.24001 0.0
O12 O 0.08074 0.28022 0.31193 0.0
In13 In 0.76938 0.04258 0.29383 0.0
O14 O 0.80569 0.10031 0.3138 0.0
O15 O 0.81184 0.07686 0.24023 0.0
C16 C 0.77371 0.02155 0.39029 0.0
C17 C 0.69672 0.07712 0.26884 0.0
C18 C 0.79132 0.96759 0.25914 0.0
O19 O 0.80524 0.03304 0.36633 0.0
O20 O 0.74068 0.02102 0.36558 0.0
O21 O 0.75863 0.97339 0.28353 0.0
O22 O 0.81122 -8e-05 0.24936 0.0
C23 C 0.82219 0.10399 0.27145 0.0
O24 O 0.7167 0.05508 0.23847 0.0
O25 O 0.71326 0.08105 0.31083 0.0
In26 In 0.95184 0.77029 0.2922 0.0
O27 O 0.93908 0.71762 0.23701 0.0
O28 O 0.91305 0.71444 0.30942 0.0
C29 C 0.02687 0.79171 0.2571 0.0
C30 C 0.89066 0.82339 0.27001 0.0
C31 C 0.9735 0.77444 0.38845 0.0
O32 O 0.02083 0.75885 0.28109 0.0
O33 O 0.9947 0.81205 0.24786 0.0
O34 O 0.96195 0.80603 0.36467 0.0
O35 O 0.97369 0.74145 0.36371 0.0
C36 C 0.91697 0.69778 0.26749 0.0
O37 O 0.89424 0.8068 0.31231 0.0
O38 O 0.91776 0.81298 0.23873 0.0
In39 In 0.22344 0.95174 0.29428 0.0
O40 O 0.27668 0.93961 0.23956 0.0
O41 O 0.2791 0.91274 0.31158 0.0
C42 C 0.20085 0.02664 0.25986 0.0
C43 C 0.17101 0.89054 0.27046 0.0
C44 C 0.21951 0.97265 0.39077 0.0
O45 O 0.23426 0.02083 0.28278 0.0
O46 O 0.18049 0.99437 0.25141 0.0
O47 O 0.18808 0.96019 0.36741 0.0
O48 O 0.25222 0.97416 0.36548 0.0
C49 C 0.29619 0.91712 0.26994 0.0
O50 O 0.18664 0.89412 0.31328 0.0
O51 O 0.18204 0.91766 0.23949 0.0
In52 In 0.04378 0.77005 0.69067 0.0
O53 O 0.10152 0.80664 0.67135 0.0
O54 O 0.07817 0.81153 0.74514 0.0
C55 C 0.02321 0.77431 0.59409 0.0
C56 C 0.07786 0.69719 0.71564 0.0
C57 C 0.9687 0.79227 0.72494 0.0
O58 O 0.03437 0.8059 0.61808 0.0
O59 O 0.02284 0.74127 0.6188 0.0
O60 O 0.97455 0.75935 0.70106 0.0
O61 O 0.00101 0.8123 0.73438 0.0
C62 C 0.10527 0.82239 0.71408 0.0
O63 O 0.05539 0.71696 0.74576 0.0
O64 O 0.0825 0.71407 0.67391 0.0
In65 In 0.22515 0.04177 0.6933 0.0
O66 O 0.18819 0.09928 0.67396 0.0
O67 O 0.1824 0.07521 0.74732 0.0
C68 C 0.22035 0.02111 0.59681 0.0
C69 C 0.29774 0.0767 0.71768 0.0
C70 C 0.2045 0.96627 0.72763 0.0
O71 O 0.18875 0.03152 0.62132 0.0
O72 O 0.25365 0.0215 0.62098 0.0
O73 O 0.23675 0.97263 0.70255 0.0
O74 O 0.1845 -0.00167 0.73835 0.0
C75 C 0.17172 0.10246 0.71637 0.0
O76 O 0.27824 0.05425 0.74811 0.0
O77 O 0.2807 0.08093 0.67602 0.0
In78 In 0.95209 0.2233 0.6944 0.0
O79 O 0.93946 0.27593 0.7498 0.0
O80 O 0.91391 0.27953 0.67721 0.0
C81 C 0.02713 0.20112 0.72881 0.0
C82 C 0.89054 0.17071 0.71691 0.0
C83 C 0.97291 0.2193 0.59786 0.0
O84 O 0.02123 0.23418 0.70516 0.0
O85 O 0.99485 0.18094 0.738 0.0
O86 O 0.96133 0.18771 0.62164 0.0
O87 O 0.97368 0.25219 0.62279 0.0
C88 C 0.91768 0.29603 0.71924 0.0
O89 O 0.89434 0.18703 0.67447 0.0
O90 O 0.91762 0.18115 0.74818 0.0
In91 In 0.77004 0.95152 0.69275 0.0
O92 O 0.80682 0.89411 0.67246 0.0
O93 O 0.81343 0.91789 0.74579 0.0
C94 C 0.77408 0.9728 0.59634 0.0
C95 C 0.69767 0.91645 0.71807 0.0
C96 C 0.79121 0.02666 0.72766 0.0
O97 O 0.80577 0.9617 0.62022 0.0
O98 O 0.74105 0.97284 0.6211 0.0
O99 O 0.75896 0.0207 0.70251 0.0
O100 O 0.81101 0.9944 0.73805 0.0
C101 C 0.8238 0.89078 0.71454 0.0
O102 O 0.71748 0.93876 0.74828 0.0
O103 O 0.71429 0.91243 0.67612 0.0
In104 In 0.54298 0.72333 0.79477 0.0
O105 O 0.5551 0.77645 0.73987 0.0
O106 O 0.58206 0.77898 0.81179 0.0
C107 C 0.46804 0.70088 0.76039 0.0
C108 C 0.60411 0.67074 0.77097 0.0
C109 C 0.522 0.71939 0.89129 0.0
O110 O 0.47384 0.73413 0.78363 0.0
O111 O 0.50034 0.68062 0.75165 0.0
O112 O 0.53445 0.68796 0.86791 0.0
O113 O 0.52056 0.75211 0.86601 0.0
C114 C 0.57765 0.79599 0.77011 0.0
O115 O 0.60069 0.68659 0.81369 0.0
O116 O 0.57687 0.68163 0.74011 0.0
In117 In 0.2697 0.54152 0.79363 0.0
O118 O 0.30636 0.59906 0.8136 0.0
O119 O 0.31291 0.57512 0.74032 0.0
C120 C 0.2738 0.52045 0.89009 0.0
C121 C 0.19727 0.57641 0.76829 0.0
C122 C 0.29113 0.46638 0.75895 0.0
O123 O 0.30545 0.53161 0.86614 0.0
O124 O 0.24076 0.52026 0.86539 0.0
O125 O 0.25878 0.4723 0.78398 0.0
O126 O 0.31088 0.49867 0.74855 0.0
C127 C 0.32327 0.60232 0.77144 0.0
O128 O 0.21709 0.55401 0.73815 0.0
O129 O 0.21389 0.58058 0.8102 0.0
In130 In 0.4523 0.26997 0.79296 0.0
O131 O 0.43989 0.21715 0.73782 0.0
O132 O 0.41398 0.21384 0.81027 0.0
C133 C 0.52742 0.29178 0.75837 0.0
C134 C 0.39081 0.32257 0.77027 0.0
C135 C 0.4731 0.27443 0.88943 0.0
O136 O 0.52146 0.25899 0.78253 0.0
O137 O 0.49517 0.31186 0.74876 0.0
O138 O 0.46175 0.30595 0.86538 0.0
O139 O 0.47363 0.24138 0.86481 0.0
C140 C 0.41795 0.19718 0.76836 0.0
O141 O 0.39448 0.30623 0.81271 0.0
O142 O 0.418 0.31217 0.7391 0.0
In143 In 0.72468 0.45182 0.79305 0.0
O144 O 0.77794 0.43891 0.73863 0.0
O145 O 0.78014 0.41272 0.81102 0.0
C146 C 0.70308 0.52668 0.75762 0.0
C147 C 0.67175 0.39072 0.77027 0.0
C148 C 0.72014 0.47372 0.88918 0.0
O149 O 0.73611 0.52074 0.78128 0.0
O150 O 0.68267 0.49448 0.74884 0.0
O151 O 0.68875 0.46153 0.86553 0.0
O152 O 0.75312 0.47444 0.86438 0.0
C153 C 0.79732 0.41664 0.76936 0.0
O154 O 0.68778 0.39443 0.81286 0.0
O155 O 0.68264 0.41766 0.739 0.0
In156 In 0.54212 0.27041 0.1921 0.0
O157 O 0.59963 0.30721 0.17223 0.0
O158 O 0.57581 0.31325 0.24567 0.0
C159 C 0.52114 0.27465 0.09564 0.0
C160 C 0.57699 0.19787 0.217 0.0
C161 C 0.46689 0.29165 0.22679 0.0
O162 O 0.5323 0.30627 0.11958 0.0
O163 O 0.52091 0.24161 0.12037 0.0
O164 O 0.47295 0.25922 0.20204 0.0
O165 O 0.49909 0.31163 0.23691 0.0
C166 C 0.60296 0.32382 0.21452 0.0
O167 O 0.55455 0.21753 0.24727 0.0
O168 O 0.58127 0.21475 0.17522 0.0
In169 In 0.7236 0.54363 0.19148 0.0
O170 O 0.68685 0.60121 0.17202 0.0
O171 O 0.6822 0.57816 0.24599 0.0
C172 C 0.71953 0.52312 0.0949 0.0
C173 C 0.79643 0.57785 0.21613 0.0
C174 C 0.70151 0.46853 0.2258 0.0
O175 O 0.68782 0.534 0.11892 0.0
O176 O 0.75256 0.52295 0.11959 0.0
O177 O 0.73449 0.47446 0.202 0.0
O178 O 0.68135 0.50078 0.23514 0.0
C179 C 0.67122 0.60512 0.21481 0.0
O180 O 0.77669 0.55548 0.24644 0.0
O181 O 0.77952 0.58232 0.17442 0.0
In182 In 0.45174 0.72467 0.19361 0.0
O183 O 0.39413 0.68805 0.17374 0.0
O184 O 0.41823 0.68132 0.24691 0.0
C185 C 0.47273 0.72004 0.09716 0.0
C186 C 0.41681 0.79712 0.21865 0.0
C187 C 0.52722 0.70422 0.22809 0.0
O188 O 0.46252 0.68836 0.12168 0.0
O189 O 0.47195 0.75334 0.12129 0.0
O190 O 0.52086 0.73635 0.20281 0.0
O191 O 0.49517 0.68424 0.23893 0.0
C192 C 0.39093 0.67106 0.21586 0.0
O193 O 0.43895 0.77724 0.24902 0.0
O194 O 0.41289 0.78054 0.17669 0.0
In195 In 0.26952 0.45161 0.19293 0.0
O196 O 0.30592 0.39386 0.17325 0.0
O197 O 0.31188 0.41751 0.24674 0.0
C198 C 0.2737 0.47226 0.09634 0.0
C199 C 0.1968 0.41728 0.21818 0.0
C200 C 0.29175 0.52667 0.22713 0.0
O201 O 0.30524 0.46072 0.1202 0.0
O202 O 0.24073 0.47303 0.1212 0.0
O203 O 0.25898 0.52088 0.20292 0.0
O204 O 0.31158 0.49432 0.23697 0.0
C205 C 0.32235 0.39033 0.21563 0.0
O206 O 0.21677 0.43944 0.2484 0.0
O207 O 0.2134 0.41308 0.17625 0.0
C208 C 0.12431 0.10878 0.22503 0.0
C209 C 0.13256 0.13857 0.2616 0.0
H210 H 0.13996 0.04938 0.19569 0.0
C211 C 0.16775 0.13431 0.29159 0.0
H212 H 0.09738 0.1114 0.20139 0.0
C213 C 0.19272 0.09939 0.28739 0.0
C214 C 0.18225 0.06778 0.25399 0.0
H215 H 0.1749 0.15705 0.31981 0.0
H216 H 0.21825 0.09571 0.31302 0.0
C217 C 0.1487 0.07338 0.22166 0.0
C218 C 0.91937 0.15201 0.22102 0.0
C219 C 0.92509 0.18488 0.2543 0.0
H220 H 0.88146 0.10092 0.19975 0.0
C221 C 0.89362 0.19457 0.2883 0.0
H222 H 0.94323 0.14389 0.19452 0.0
C223 C 0.85882 0.16939 0.29216 0.0
C224 C 0.85454 0.13475 0.26129 0.0
H225 H 0.89734 0.21959 0.31461 0.0
H226 H 0.83624 0.17589 0.32084 0.0
C227 C 0.88411 0.12739 0.22411 0.0
C228 C 0.80008 0.8949 0.28678 0.0
C229 C 0.80997 0.92649 0.25302 0.0
H230 H 0.81853 0.83737 0.3191 0.0
C231 C 0.84307 0.92092 0.21997 0.0
H232 H 0.77488 0.89852 0.31292 0.0
C233 C 0.86765 0.88561 0.22301 0.0
C234 C 0.86003 0.85589 0.25993 0.0
H235 H 0.85136 0.94488 0.19368 0.0
H236 H 0.89426 0.88305 0.19881 0.0
C237 C 0.82522 0.86007 0.29061 0.0
C238 C 0.0995 0.79976 0.28505 0.0
C239 C 0.06812 0.81009 0.25124 0.0
H240 H 0.15682 0.81783 0.31814 0.0
C241 C 0.07397 0.84348 0.21868 0.0
H242 H 0.09566 0.77434 0.31083 0.0
C243 C 0.1093 0.86795 0.22235 0.0
C244 C 0.13873 0.85993 0.25944 0.0
H245 H 0.05016 0.85209 0.19236 0.0
H246 H 0.11205 0.89482 0.19859 0.0
C247 C 0.13433 0.82482 0.28954 0.0
C248 C 0.17075 0.85924 0.69413 0.0
C249 C 0.13607 0.85454 0.72491 0.0
H250 H 0.22095 0.89808 0.67236 0.0
C251 C 0.12867 0.88355 0.76266 0.0
H252 H 0.17728 0.83708 0.66502 0.0
C253 C 0.15327 0.91878 0.7664 0.0
C254 C 0.18616 0.92498 0.73319 0.0
H255 H 0.10217 0.88056 0.78697 0.0
H256 H 0.1451 0.94227 0.79331 0.0
C257 C 0.19592 0.89398 0.69864 0.0
C258 C 0.13476 0.16794 0.69677 0.0
C259 C 0.13909 0.13284 0.72691 0.0
H260 H 0.09612 0.21838 0.67525 0.0
C261 C 0.10939 0.1247 0.7637 0.0
H262 H 0.15744 0.17503 0.66839 0.0
C263 C 0.07399 0.1491 0.76712 0.0
C264 C 0.06829 0.18255 0.73461 0.0
H265 H 0.11206 0.09784 0.78747 0.0
H266 H 0.05005 0.14044 0.79327 0.0
C267 C 0.09985 0.19292 0.70101 0.0
C268 C 0.86714 0.10879 0.76422 0.0
C269 C 0.85975 0.1384 0.7271 0.0
H270 H 0.8507 0.04961 0.79366 0.0
C271 C 0.8251 0.13415 0.69623 0.0
H272 H 0.89363 0.11142 0.78857 0.0
C273 C 0.79994 0.09934 0.70001 0.0
C274 C 0.80968 0.06782 0.73392 0.0
H275 H 0.81857 0.15678 0.66759 0.0
H276 H 0.77491 0.09565 0.67368 0.0
C277 C 0.84255 0.0735 0.76723 0.0
C278 C 0.86092 0.82563 0.69381 0.0
C279 C 0.85662 0.86044 0.72438 0.0
H280 H 0.89959 0.77547 0.67149 0.0
C281 C 0.88647 0.86835 0.76101 0.0
H282 H 0.83813 0.81873 0.66553 0.0
C283 C 0.92194 0.844 0.76392 0.0
C284 C 0.92756 0.81084 0.73104 0.0
H285 H 0.88383 0.89499 0.78511 0.0
H286 H 0.94594 0.85248 0.79002 0.0
C287 C 0.89591 0.8007 0.69752 0.0
C288 C 0.66995 0.63417 0.7898 0.0
C289 C 0.6347 0.63844 0.75995 0.0
H290 H 0.72058 0.59565 0.81089 0.0
C291 C 0.62658 0.60887 0.72306 0.0
H292 H 0.67702 0.65677 0.81823 0.0
C293 C 0.65109 0.57358 0.71938 0.0
C294 C 0.68463 0.56788 0.7517 0.0
H295 H 0.5996 0.61151 0.6995 0.0
H296 H 0.6424 0.54968 0.69325 0.0
C297 C 0.69505 0.59938 0.78528 0.0
C298 C 0.42135 0.64901 0.72171 0.0
C299 C 0.42691 0.68232 0.75436 0.0
H300 H 0.38332 0.59789 0.70086 0.0
C301 C 0.39523 0.69259 0.78782 0.0
H302 H 0.44539 0.64044 0.69567 0.0
C303 C 0.36026 0.66764 0.79171 0.0
C304 C 0.35602 0.63268 0.76137 0.0
H305 H 0.39888 0.71794 0.8137 0.0
H306 H 0.33745 0.67463 0.81996 0.0
C307 C 0.38591 0.62464 0.72478 0.0
C308 C 0.34272 0.41962 0.71966 0.0
C309 C 0.30973 0.42526 0.75285 0.0
H310 H 0.39397 0.38182 0.69854 0.0
C311 C 0.29998 0.39376 0.7868 0.0
H312 H 0.35088 0.4435 0.6932 0.0
C313 C 0.32523 0.35902 0.79073 0.0
C314 C 0.35998 0.35482 0.75997 0.0
H315 H 0.27486 0.39742 0.81304 0.0
H316 H 0.31868 0.33642 0.81938 0.0
C317 C 0.36741 0.3844 0.72282 0.0
C318 C 0.63489 0.32531 0.79041 0.0
C319 C 0.63929 0.36016 0.75985 0.0
H320 H 0.59623 0.27502 0.81238 0.0
C321 C 0.60975 0.36792 0.7228 0.0
H322 H 0.65745 0.31851 0.819 0.0
C323 C 0.5744 0.34345 0.71951 0.0
C324 C 0.5686 0.3103 0.75244 0.0
H325 H 0.61249 0.39459 0.6987 0.0
H326 H 0.55056 0.35185 0.69314 0.0
C327 C 0.60003 0.30025 0.78631 0.0
C328 C 0.69322 0.39583 0.19816 0.0
C329 C 0.68299 0.42736 0.23179 0.0
H330 H 0.67523 0.33819 0.16584 0.0
C331 C 0.64974 0.42164 0.26459 0.0
H332 H 0.71852 0.39959 0.17219 0.0
C333 C 0.62538 0.3862 0.26146 0.0
C334 C 0.63336 0.35649 0.22469 0.0
H335 H 0.64121 0.44556 0.29077 0.0
H336 H 0.59867 0.3835 0.28548 0.0
C337 C 0.66827 0.36087 0.19423 0.0
C338 C 0.59957 0.69566 0.19915 0.0
C339 C 0.56854 0.68594 0.23375 0.0
H340 H 0.65653 0.677 0.16557 0.0
C341 C 0.57475 0.65315 0.26707 0.0
H342 H 0.59546 0.72062 0.17279 0.0
C343 C 0.61002 0.62858 0.2634 0.0
C344 C 0.63906 0.63591 0.2256 0.0
H345 H 0.55124 0.64502 0.29402 0.0
H346 H 0.61302 0.60213 0.2878 0.0
C347 C 0.63434 0.67052 0.19472 0.0
C348 C 0.32555 0.63422 0.19547 0.0
C349 C 0.36045 0.63841 0.22594 0.0
H350 H 0.27515 0.59577 0.17343 0.0
C351 C 0.36826 0.60861 0.26271 0.0
H352 H 0.31871 0.65698 0.1671 0.0
C353 C 0.34373 0.57329 0.26585 0.0
C354 C 0.31049 0.56775 0.23305 0.0
H355 H 0.39496 0.61118 0.28675 0.0
H356 H 0.35213 0.54931 0.29206 0.0
C357 C 0.30045 0.59937 0.1994 0.0
C358 C 0.35923 0.32498 0.19528 0.0
C359 C 0.35484 0.35974 0.22592 0.0
H360 H 0.39796 0.27486 0.17301 0.0
C361 C 0.38444 0.36744 0.26291 0.0
H362 H 0.33662 0.31823 0.16674 0.0
C363 C 0.41985 0.34302 0.26601 0.0
C364 C 0.42566 0.31001 0.23294 0.0
H365 H 0.38171 0.39402 0.28709 0.0
H366 H 0.44372 0.35139 0.29234 0.0
C367 C 0.39416 0.29999 0.19916 0.0
C368 C 0.12081 0.35651 0.29434 0.0
C369 C 0.10026 0.3342 0.25692 0.0
H370 H 0.16731 0.40123 0.31132 0.0
C371 C 0.10712 0.34432 0.20687 0.0
H372 H 0.11573 0.34952 0.33333 0.0
C373 C 0.13685 0.37367 0.19436 0.0
C374 C 0.15976 0.3936 0.23174 0.0
H375 H 0.09158 0.3277 0.17737 0.0
H376 H 0.14339 0.37918 0.15535 0.0
C377 C 0.15021 0.38619 0.28184 0.0
C378 C 0.65027 0.10847 0.2053 0.0
C379 C 0.65981 0.10102 0.25538 0.0
H380 H 0.61597 0.14532 0.15388 0.0
C381 C 0.63706 0.12111 0.2928 0.0
H382 H 0.66724 0.0933 0.17579 0.0
C383 C 0.60752 0.15066 0.28035 0.0
C384 C 0.60068 0.1608 0.23031 0.0
H385 H 0.6436 0.11558 0.3318 0.0
H386 H 0.59211 0.1674 0.30988 0.0
C387 C 0.62105 0.13833 0.19285 0.0
C388 C 0.85616 0.62162 0.19188 0.0
C389 C 0.83355 0.60146 0.2294 0.0
H390 H 0.90121 0.66776 0.17462 0.0
C391 C 0.84345 0.60859 0.27943 0.0
H392 H 0.84935 0.61631 0.15291 0.0
C393 C 0.8729 0.63825 0.29177 0.0
C394 C 0.89312 0.66081 0.25424 0.0
H395 H 0.82658 0.59336 0.30901 0.0
H396 H 0.87825 0.64503 0.33073 0.0
C397 C 0.88592 0.65095 0.20421 0.0
C398 C 0.34352 0.88649 0.20682 0.0
C399 C 0.33328 0.89338 0.25682 0.0
H400 H 0.3786 0.85028 0.15553 0.0
C401 C 0.35558 0.87294 0.29438 0.0
H402 H 0.3269 0.90194 0.17722 0.0
C403 C 0.38538 0.84362 0.28206 0.0
C404 C 0.39292 0.83404 0.23202 0.0
H405 H 0.3485 0.87805 0.33332 0.0
H406 H 0.40042 0.8266 0.31164 0.0
C407 C 0.37299 0.85685 0.1945 0.0
C408 C 0.15089 0.60755 0.70452 0.0
C409 C 0.16042 0.60032 0.75465 0.0
H410 H 0.11666 0.64423 0.65283 0.0
C411 C 0.13768 0.62061 0.79193 0.0
H412 H 0.16786 0.59222 0.67511 0.0
C413 C 0.10817 0.65012 0.77927 0.0
C414 C 0.10136 0.66004 0.72916 0.0
H415 H 0.14421 0.61524 0.83096 0.0
H416 H 0.09279 0.66702 0.80869 0.0
C417 C 0.12171 0.63739 0.69186 0.0
C418 C 0.37435 0.13736 0.79283 0.0
C419 C 0.39425 0.16009 0.75519 0.0
H420 H 0.32834 0.09224 0.81035 0.0
C421 C 0.38679 0.15031 0.7052 0.0
H422 H 0.37991 0.14409 0.83176 0.0
C423 C 0.35708 0.12087 0.69304 0.0
C424 C 0.33478 0.10054 0.7307 0.0
H425 H 0.40182 0.16726 0.67553 0.0
H426 H 0.35006 0.11562 0.65412 0.0
C427 C 0.34496 0.10761 0.78066 0.0
C428 C 0.87445 0.35607 0.69473 0.0
C429 C 0.89394 0.33309 0.73243 0.0
H430 H 0.82874 0.40142 0.67698 0.0
C431 C 0.886 0.3426 0.7824 0.0
H432 H 0.88038 0.34956 0.65582 0.0
C433 C 0.85625 0.37205 0.79442 0.0
C434 C 0.83436 0.39266 0.75664 0.0
H435 H 0.9007 0.32544 0.81212 0.0
H436 H 0.84886 0.37712 0.83329 0.0
C437 C 0.84501 0.38582 0.70676 0.0
C438 C 0.63798 0.87251 0.69422 0.0
C439 C 0.66077 0.89255 0.7316 0.0
H440 H 0.59287 0.82639 0.67721 0.0
C441 C 0.65119 0.88517 0.7817 0.0
H442 H 0.64455 0.878 0.65521 0.0
C443 C 0.62186 0.85542 0.7942 0.0
C444 C 0.60142 0.83302 0.75678 0.0
H445 H 0.6682 0.90031 0.81118 0.0
H446 H 0.61675 0.84846 0.83318 0.0
C447 C 0.60832 0.84309 0.70672 0.0
C448 C 0.00263 0.2561 0.46992 0.0
C449 C 0.00865 0.21891 0.44431 0.0
H450 H 0.98677 0.2852 0.53848 0.0
C451 C 0.00265 0.18138 0.46943 0.0
H452 H 0.00707 0.28551 0.45152 0.0
C453 C 0.99057 0.1812 0.51948 0.0
C454 C 0.98482 0.21855 0.54501 0.0
H455 H 0.00699 0.15228 0.45038 0.0
H456 H 0.98605 0.15197 0.53824 0.0
C457 C 0.99104 0.25592 0.51977 0.0
C458 C 0.73755 0.99109 0.51826 0.0
C459 C 0.7749 0.98505 0.54359 0.0
H460 H 0.70808 0.00722 0.45 0.0
C461 C 0.8123 0.99128 0.51826 0.0
H462 H 0.70824 0.98648 0.53683 0.0
C463 C 0.8122 0.00361 0.4683 0.0
C464 C 0.77471 0.0094 0.44306 0.0
H465 H 0.84151 0.98692 0.53709 0.0
H466 H 0.84134 0.00829 0.44939 0.0
C467 C 0.73746 0.00295 0.46849 0.0
C468 C 0.00507 0.73801 0.51587 0.0
C469 C 0.01104 0.77528 0.54134 0.0
H470 H 0.98867 0.70871 0.44765 0.0
C471 C 0.00456 0.81273 0.51623 0.0
H472 H 0.00989 0.70866 0.53426 0.0
C473 C 0.99194 0.81276 0.46639 0.0
C474 C 0.98611 0.77534 0.44105 0.0
H475 H 0.00885 0.84189 0.53517 0.0
H476 H 0.98701 0.84194 0.44767 0.0
C477 C 0.99292 0.73804 0.46623 0.0
C478 C 0.18165 0.00163 0.51951 0.0
C479 C 0.21917 0.00907 0.54404 0.0
H480 H 0.15225 0.98366 0.45128 0.0
C481 C 0.25634 0.00431 0.51791 0.0
H482 H 0.15258 0.00497 0.53898 0.0
C483 C 0.25614 0.99249 0.46816 0.0
C484 C 0.21879 0.98479 0.44353 0.0
H485 H 0.28573 0.00988 0.53584 0.0
H486 H 0.28539 0.98921 0.44905 0.0
C487 C 0.18147 0.98933 0.46955 0.0
C488 C 0.50525 0.6813 0.97006 0.0
C489 C 0.5097 0.71862 0.94403 0.0
H490 H 0.48948 0.65236 0.03944 0.0
C491 C 0.50171 0.75594 0.9686 0.0
H492 H 0.51114 0.65211 0.95183 0.0
C493 C 0.48968 0.75609 0.0183 0.0
C494 C 0.485 0.71891 0.04444 0.0
H495 H 0.50491 0.78519 0.94949 0.0
H496 H 0.48388 0.78545 0.03619 0.0
C497 C 0.49275 0.68144 0.01997 0.0
C498 C 0.31211 0.50212 0.9681 0.0
C499 C 0.27467 0.50832 0.94288 0.0
H500 H 0.34124 0.48527 0.03694 0.0
C501 C 0.23736 0.50234 0.96835 0.0
H502 H 0.34129 0.50642 0.94917 0.0
C503 C 0.23734 0.49061 0.01817 0.0
C504 C 0.27462 0.48422 0.0435 0.0
H505 H 0.20803 0.50692 0.94986 0.0
H506 H 0.20799 0.4864 0.03677 0.0
C507 C 0.31208 0.48992 0.01811 0.0
C508 C 0.50312 0.31295 0.01747 0.0
C509 C 0.50907 0.27554 0.04286 0.0
H510 H 0.4865 0.34204 0.9485 0.0
C511 C 0.50292 0.23823 0.01755 0.0
H512 H 0.50757 0.34214 0.03629 0.0
C513 C 0.49123 0.23817 0.96774 0.0
C514 C 0.48507 0.27543 0.94224 0.0
H515 H 0.50731 0.2089 0.03615 0.0
H516 H 0.48687 0.20881 0.94928 0.0
C517 C 0.49097 0.3129 0.96746 0.0
C518 C 0.75623 0.49387 0.96683 0.0
C519 C 0.71904 0.48636 0.94177 0.0
H520 H 0.78536 0.51127 0.03481 0.0
C521 C 0.68153 0.49146 0.96722 0.0
H522 H 0.78563 0.4902 0.94816 0.0
C523 C 0.68136 0.50399 0.01709 0.0
C524 C 0.71872 0.5111 0.04211 0.0
H525 H 0.65243 0.48598 0.94859 0.0
H526 H 0.65215 0.50768 0.03615 0.0
C527 C 0.75608 0.50592 0.0165 0.0
loop_
_geom_bond_atom_site_label_1
_geom_bond_atom_site_label_2
_geom_bond_distance
_geom_bond_site_symmetry_2
_ccdc_geom_bond_type
In0 O1 2.294 . S
In0 O2 2.326 . S
In0 O6 2.266 . S
In0 O7 2.326 1_455 S
In0 O8 2.266 1_455 S
In0 O9 2.326 1_455 S
In0 O11 2.294 . S
In0 O12 2.326 . S
O1 In0 2.294 . S
O1 C10 1.240 . S
O2 In0 2.326 . S
O2 C10 1.252 . S
C3 O6 1.252 . S
C3 O7 1.260 1_455 S
C4 O11 1.240 . S
C4 O12 1.252 . S
C5 O8 1.252 . S
C5 O9 1.260 . S
O6 In0 2.266 . S
O6 C3 1.252 . S
O7 In0 2.326 1_655 S
O7 C3 1.260 1_655 S
O8 In0 2.266 1_655 S
O8 C5 1.252 . S
O9 In0 2.326 1_655 S
O9 C5 1.260 . S
C10 O1 1.240 . S
C10 O2 1.252 . S
O11 In0 2.294 . S
O11 C4 1.240 . S
O12 In0 2.326 . S
O12 C4 1.252 . S
In13 O14 2.294 . S
In13 O15 2.326 . S
In13 O19 2.266 . S
In13 O20 2.326 1_545 S
In13 O21 2.266 1_545 S
In13 O22 2.326 1_545 S
In13 O24 2.294 . S
In13 O25 2.326 . S
O14 In13 2.294 . S
O14 C23 1.240 . S
O15 In13 2.326 . S
O15 C23 1.252 . S
C16 O19 1.252 . S
C16 O20 1.260 1_545 S
C17 O24 1.240 . S
C17 O25 1.252 . S
C18 O21 1.252 . S
C18 O22 1.260 . S
O19 In13 2.266 . S
O19 C16 1.252 . S
O20 In13 2.326 1_565 S
O20 C16 1.260 1_565 S
O21 In13 2.266 1_565 S
O21 C18 1.252 . S
O22 In13 2.326 1_565 S
O22 C18 1.260 . S
C23 O14 1.240 . S
C23 O15 1.252 . S
O24 In13 2.294 . S
O24 C17 1.240 . S
O25 In13 2.326 . S
O25 C17 1.252 . S
In26 O27 2.294 . S
In26 O28 2.326 . S
In26 O32 2.266 1_655 S
In26 O33 2.326 1_655 S
In26 O34 2.266 . S
In26 O35 2.326 1_655 S
In26 O37 2.294 . S
In26 O38 2.326 . S
O27 In26 2.294 . S
O27 C36 1.240 . S
O28 In26 2.326 . S
O28 C36 1.252 . S
C29 O32 1.252 . S
C29 O33 1.260 . S
C30 O37 1.240 . S
C30 O38 1.252 . S
C31 O34 1.252 . S
C31 O35 1.260 1_655 S
O32 In26 2.266 1_455 S
O32 C29 1.252 . S
O33 In26 2.326 1_455 S
O33 C29 1.260 . S
O34 In26 2.266 . S
O34 C31 1.252 . S
O35 In26 2.326 1_455 S
O35 C31 1.260 1_455 S
C36 O27 1.240 . S
C36 O28 1.252 . S
O37 In26 2.294 . S
O37 C30 1.240 . S
O38 In26 2.326 . S
O38 C30 1.252 . S
In39 O40 2.294 . S
In39 O41 2.326 . S
In39 O45 2.266 1_565 S
In39 O46 2.326 1_565 S
In39 O47 2.266 . S
In39 O48 2.326 1_565 S
In39 O50 2.294 . S
In39 O51 2.326 . S
O40 In39 2.294 . S
O40 C49 1.240 . S
O41 In39 2.326 . S
O41 C49 1.252 . S
C42 O45 1.252 . S
C42 O46 1.260 . S
C43 O50 1.240 . S
C43 O51 1.252 . S
C44 O47 1.252 . S
C44 O48 1.260 1_565 S
O45 In39 2.266 1_545 S
O45 C42 1.252 . S
O46 In39 2.326 1_545 S
O46 C42 1.260 . S
O47 In39 2.266 . S
O47 C44 1.252 . S
O48 In39 2.326 1_545 S
O48 C44 1.260 1_545 S
C49 O40 1.240 . S
C49 O41 1.252 . S
O50 In39 2.294 . S
O50 C43 1.240 . S
O51 In39 2.326 . S
O51 C43 1.252 . S
In52 O53 2.294 . S
In52 O54 2.326 . S
In52 O58 2.266 . S
In52 O59 2.326 1_455 S
In52 O60 2.266 1_455 S
In52 O61 2.326 1_455 S
In52 O63 2.294 . S
In52 O64 2.326 . S
O53 In52 2.294 . S
O53 C62 1.240 . S
O54 In52 2.326 . S
O54 C62 1.252 . S
C55 O58 1.252 . S
C55 O59 1.260 1_455 S
C56 O63 1.240 . S
C56 O64 1.252 . S
C57 O60 1.252 . S
C57 O61 1.260 . S
O58 In52 2.266 . S
O58 C55 1.252 . S
O59 In52 2.326 1_655 S
O59 C55 1.260 1_655 S
O60 In52 2.266 1_655 S
O60 C57 1.252 . S
O61 In52 2.326 1_655 S
O61 C57 1.260 . S
C62 O53 1.240 . S
C62 O54 1.252 . S
O63 In52 2.294 . S
O63 C56 1.240 . S
O64 In52 2.326 . S
O64 C56 1.252 . S
In65 O66 2.294 . S
In65 O67 2.326 . S
In65 O71 2.266 . S
In65 O72 2.326 1_545 S
In65 O73 2.266 1_545 S
In65 O74 2.326 1_545 S
In65 O76 2.294 . S
In65 O77 2.326 . S
O66 In65 2.294 . S
O66 C75 1.240 . S
O67 In65 2.326 . S
O67 C75 1.252 . S
C68 O71 1.252 . S
C68 O72 1.260 1_545 S
C69 O76 1.240 . S
C69 O77 1.252 . S
C70 O73 1.252 . S
C70 O74 1.260 . S
O71 In65 2.266 . S
O71 C68 1.252 . S
O72 In65 2.326 1_565 S
O72 C68 1.260 1_565 S
O73 In65 2.266 1_565 S
O73 C70 1.252 . S
O74 In65 2.326 1_565 S
O74 C70 1.260 . S
C75 O66 1.240 . S
C75 O67 1.252 . S
O76 In65 2.294 . S
O76 C69 1.240 . S
O77 In65 2.326 . S
O77 C69 1.252 . S
In78 O79 2.294 . S
In78 O80 2.326 . S
In78 O84 2.266 1_655 S
In78 O85 2.326 1_655 S
In78 O86 2.266 . S
In78 O87 2.326 1_655 S
In78 O89 2.294 . S
In78 O90 2.326 . S
O79 In78 2.294 . S
O79 C88 1.240 . S
O80 In78 2.326 . S
O80 C88 1.252 . S
C81 O84 1.252 . S
C81 O85 1.260 . S
C82 O89 1.240 . S
C82 O90 1.252 . S
C83 O86 1.252 . S
C83 O87 1.260 1_655 S
O84 In78 2.266 1_455 S
O84 C81 1.252 . S
O85 In78 2.326 1_455 S
O85 C81 1.260 . S
O86 In78 2.266 . S
O86 C83 1.252 . S
O87 In78 2.326 1_455 S
O87 C83 1.260 1_455 S
C88 O79 1.240 . S
C88 O80 1.252 . S
O89 In78 2.294 . S
O89 C82 1.240 . S
O90 In78 2.326 . S
O90 C82 1.252 . S
In91 O92 2.294 . S
In91 O93 2.326 . S
In91 O97 2.266 . S
In91 O98 2.326 1_565 S
In91 O99 2.266 1_565 S
In91 O100 2.326 1_565 S
In91 O102 2.294 . S
In91 O103 2.326 . S
O92 In91 2.294 . S
O92 C101 1.240 . S
O93 In91 2.326 . S
O93 C101 1.252 . S
C94 O97 1.252 . S
C94 O98 1.260 1_565 S
C95 O102 1.240 . S
C95 O103 1.252 . S
C96 O99 1.252 . S
C96 O100 1.260 . S
O97 In91 2.266 . S
O97 C94 1.252 . S
O98 In91 2.326 1_545 S
O98 C94 1.260 1_545 S
O99 In91 2.266 1_545 S
O99 C96 1.252 . S
O100 In91 2.326 1_545 S
O100 C96 1.260 . S
C101 O92 1.240 . S
C101 O93 1.252 . S
O102 In91 2.294 . S
O102 C95 1.240 . S
O103 In91 2.326 . S
O103 C95 1.252 . S
In104 O105 2.294 . S
In104 O106 2.326 . S
In104 O110 2.266 . S
In104 O111 2.326 . S
In104 O112 2.266 . S
In104 O113 2.326 . S
In104 O115 2.294 . S
In104 O116 2.326 . S
O105 In104 2.294 . S
O105 C114 1.240 . S
O106 In104 2.326 . S
O106 C114 1.252 . S
C107 O110 1.252 . S
C107 O111 1.260 . S
C108 O115 1.240 . S
C108 O116 1.252 . S
C109 O112 1.252 . S
C109 O113 1.260 . S
O110 In104 2.266 . S
O110 C107 1.252 . S
O111 In104 2.326 . S
O111 C107 1.260 . S
O112 In104 2.266 . S
O112 C109 1.252 . S
O113 In104 2.326 . S
O113 C109 1.260 . S
C114 O105 1.240 . S
C114 O106 1.252 . S
O115 In104 2.294 . S
O115 C108 1.240 . S
O116 In104 2.326 . S
O116 C108 1.252 . S
In117 O118 2.294 . S
In117 O119 2.326 . S
In117 O123 2.266 . S
In117 O124 2.326 . S
In117 O125 2.266 . S
In117 O126 2.326 . S
In117 O128 2.294 . S
In117 O129 2.326 . S
O118 In117 2.294 . S
O118 C127 1.240 . S
O119 In117 2.326 . S
O119 C127 1.252 . S
C120 O123 1.252 . S
C120 O124 1.260 . S
C121 O128 1.240 . S
C121 O129 1.252 . S
C122 O125 1.252 . S
C122 O126 1.260 . S
O123 In117 2.266 . S
O123 C120 1.252 . S
O124 In117 2.326 . S
O124 C120 1.260 . S
O125 In117 2.266 . S
O125 C122 1.252 . S
O126 In117 2.326 . S
O126 C122 1.260 . S
C127 O118 1.240 . S
C127 O119 1.252 . S
O128 In117 2.294 . S
O128 C121 1.240 . S
O129 In117 2.326 . S
O129 C121 1.252 . S
In130 O131 2.294 . S
In130 O132 2.326 . S
In130 O136 2.266 . S
In130 O137 2.326 . S
In130 O138 2.266 . S
In130 O139 2.326 . S
In130 O141 2.294 . S
In130 O142 2.326 . S
O131 In130 2.294 . S
O131 C140 1.240 . S
O132 In130 2.326 . S
O132 C140 1.252 . S
C133 O136 1.252 . S
C133 O137 1.260 . S
C134 O141 1.240 . S
C134 O142 1.252 . S
C135 O138 1.252 . S
C135 O139 1.260 . S
O136 In130 2.266 . S
O136 C133 1.252 . S
O137 In130 2.326 . S
O137 C133 1.260 . S
O138 In130 2.266 . S
O138 C135 1.252 . S
O139 In130 2.326 . S
O139 C135 1.260 . S
C140 O131 1.240 . S
C140 O132 1.252 . S
O141 In130 2.294 . S
O141 C134 1.240 . S
O142 In130 2.326 . S
O142 C134 1.252 . S
In143 O144 2.294 . S
In143 O145 2.326 . S
In143 O149 2.266 . S
In143 O150 2.326 . S
In143 O151 2.266 . S
In143 O152 2.326 . S
In143 O154 2.294 . S
In143 O155 2.326 . S
O144 In143 2.294 . S
O144 C153 1.240 . S
O145 In143 2.326 . S
O145 C153 1.252 . S
C146 O149 1.252 . S
C146 O150 1.260 . S
C147 O154 1.240 . S
C147 O155 1.252 . S
C148 O151 1.252 . S
C148 O152 1.260 . S
O149 In143 2.266 . S
O149 C146 1.252 . S
O150 In143 2.326 . S
O150 C146 1.260 . S
O151 In143 2.266 . S
O151 C148 1.252 . S
O152 In143 2.326 . S
O152 C148 1.260 . S
C153 O144 1.240 . S
C153 O145 1.252 . S
O154 In143 2.294 . S
O154 C147 1.240 . S
O155 In143 2.326 . S
O155 C147 1.252 . S
In156 O157 2.294 . S
In156 O158 2.326 . S
In156 O162 2.266 . S
In156 O163 2.326 . S
In156 O164 2.266 . S
In156 O165 2.326 . S
In156 O167 2.294 . S
In156 O168 2.326 . S
O157 In156 2.294 . S
O157 C166 1.240 . S
O158 In156 2.326 . S
O158 C166 1.252 . S
C159 O162 1.252 . S
C159 O163 1.260 . S
C160 O167 1.240 . S
C160 O168 1.252 . S
C161 O164 1.252 . S
C161 O165 1.260 . S
O162 In156 2.266 . S
O162 C159 1.252 . S
O163 In156 2.326 . S
O163 C159 1.260 . S
O164 In156 2.266 . S
O164 C161 1.252 . S
O165 In156 2.326 . S
O165 C161 1.260 . S
C166 O157 1.240 . S
C166 O158 1.252 . S
O167 In156 2.294 . S
O167 C160 1.240 . S
O168 In156 2.326 . S
O168 C160 1.252 . S
In169 O170 2.294 . S
In169 O171 2.326 . S
In169 O175 2.266 . S
In169 O176 2.326 . S
In169 O177 2.266 . S
In169 O178 2.326 . S
In169 O180 2.294 . S
In169 O181 2.326 . S
O170 In169 2.294 . S
O170 C179 1.240 . S
O171 In169 2.326 . S
O171 C179 1.252 . S
C172 O175 1.252 . S
C172 O176 1.260 . S
C173 O180 1.240 . S
C173 O181 1.252 . S
C174 O177 1.252 . S
C174 O178 1.260 . S
O175 In169 2.266 . S
O175 C172 1.252 . S
O176 In169 2.326 . S
O176 C172 1.260 . S
O177 In169 2.266 . S
O177 C174 1.252 . S
O178 In169 2.326 . S
O178 C174 1.260 . S
C179 O170 1.240 . S
C179 O171 1.252 . S
O180 In169 2.294 . S
O180 C173 1.240 . S
O181 In169 2.326 . S
O181 C173 1.252 . S
In182 O183 2.294 . S
In182 O184 2.326 . S
In182 O188 2.266 . S
In182 O189 2.326 . S
In182 O190 2.266 . S
In182 O191 2.326 . S
In182 O193 2.294 . S
In182 O194 2.326 . S
O183 In182 2.294 . S
O183 C192 1.240 . S
O184 In182 2.326 . S
O184 C192 1.252 . S
C185 O188 1.252 . S
C185 O189 1.260 . S
C186 O193 1.240 . S
C186 O194 1.252 . S
C187 O190 1.252 . S
C187 O191 1.260 . S
O188 In182 2.266 . S
O188 C185 1.252 . S
O189 In182 2.326 . S
O189 C185 1.260 . S
O190 In182 2.266 . S
O190 C187 1.252 . S
O191 In182 2.326 . S
O191 C187 1.260 . S
C192 O183 1.240 . S
C192 O184 1.252 . S
O193 In182 2.294 . S
O193 C186 1.240 . S
O194 In182 2.326 . S
O194 C186 1.252 . S
In195 O196 2.294 . S
In195 O197 2.326 . S
In195 O201 2.266 . S
In195 O202 2.326 . S
In195 O203 2.266 . S
In195 O204 2.326 . S
In195 O206 2.294 . S
In195 O207 2.326 . S
O196 In195 2.294 . S
O196 C205 1.240 . S
O197 In195 2.326 . S
O197 C205 1.252 . S
C198 O201 1.252 . S
C198 O202 1.260 . S
C199 O206 1.240 . S
C199 O207 1.252 . S
C200 O203 1.252 . S
C200 O204 1.260 . S
O201 In195 2.266 . S
O201 C198 1.252 . S
O202 In195 2.326 . S
O202 C198 1.260 . S
O203 In195 2.266 . S
O203 C200 1.252 . S
O204 In195 2.326 . S
O204 C200 1.260 . S
C205 O196 1.240 . S
C205 O197 1.252 . S
O206 In195 2.294 . S
O206 C199 1.240 . S
O207 In195 2.326 . S
O207 C199 1.252 . S
C208 C209 1.387 . S
C208 H212 0.950 . S
C208 C217 1.390 . S
C209 C208 1.387 . S
C209 C211 1.387 . S
H210 C217 0.950 . S
C211 C209 1.387 . S
C211 C213 1.390 . S
C211 H215 0.950 . S
H212 C208 0.950 . S
C213 C211 1.390 . S
C213 C214 1.387 . S
C213 H216 0.950 . S
C214 C213 1.387 . S
C214 C217 1.387 . S
H215 C211 0.950 . S
H216 C213 0.950 . S
C217 C208 1.390 . S
C217 H210 0.950 . S
C217 C214 1.387 . S
C218 C219 1.387 . S
C218 H222 0.950 . S
C218 C227 1.390 . S
C219 C218 1.387 . S
C219 C221 1.387 . S
H220 C227 0.950 . S
C221 C219 1.387 . S
C221 C223 1.390 . S
C221 H225 0.950 . S
H222 C218 0.950 . S
C223 C221 1.390 . S
C223 C224 1.387 . S
C223 H226 0.950 . S
C224 C223 1.387 . S
C224 C227 1.387 . S
H225 C221 0.950 . S
H226 C223 0.950 . S
C227 C218 1.390 . S
C227 H220 0.950 . S
C227 C224 1.387 . S
C228 C229 1.387 . S
C228 H232 0.950 . S
C228 C237 1.390 . S
C229 C228 1.387 . S
C229 C231 1.387 . S
H230 C237 0.950 . S
C231 C229 1.387 . S
C231 C233 1.390 . S
C231 H235 0.950 . S
H232 C228 0.950 . S
C233 C231 1.390 . S
C233 C234 1.387 . S
C233 H236 0.950 . S
C234 C233 1.387 . S
C234 C237 1.387 . S
H235 C231 0.950 . S
H236 C233 0.950 . S
C237 C228 1.390 . S
C237 H230 0.950 . S
C237 C234 1.387 . S
C238 C239 1.387 . S
C238 H242 0.950 . S
C238 C247 1.390 . S
C239 C238 1.387 . S
C239 C241 1.387 . S
H240 C247 0.950 . S
C241 C239 1.387 . S
C241 C243 1.390 . S
C241 H245 0.950 . S
H242 C238 0.950 . S
C243 C241 1.390 . S
C243 C244 1.387 . S
C243 H246 0.950 . S
C244 C243 1.387 . S
C244 C247 1.387 . S
H245 C241 0.950 . S
H246 C243 0.950 . S
C247 C238 1.390 . S
C247 H240 0.950 . S
C247 C244 1.387 . S
C248 C249 1.387 . S
C248 H252 0.950 . S
C248 C257 1.390 . S
C249 C248 1.387 . S
C249 C251 1.387 . S
H250 C257 0.950 . S
C251 C249 1.387 . S
C251 C253 1.390 . S
C251 H255 0.950 . S
H252 C248 0.950 . S
C253 C251 1.390 . S
C253 C254 1.387 . S
C253 H256 0.950 . S
C254 C253 1.387 . S
C254 C257 1.387 . S
H255 C251 0.950 . S
H256 C253 0.950 . S
C257 C248 1.390 . S
C257 H250 0.950 . S
C257 C254 1.387 . S
C258 C259 1.387 . S
C258 H262 0.950 . S
C258 C267 1.390 . S
C259 C258 1.387 . S
C259 C261 1.387 . S
H260 C267 0.950 . S
C261 C259 1.387 . S
C261 C263 1.390 . S
C261 H265 0.950 . S
H262 C258 0.950 . S
C263 C261 1.390 . S
C263 C264 1.387 . S
C263 H266 0.950 . S
C264 C263 1.387 . S
C264 C267 1.387 . S
H265 C261 0.950 . S
H266 C263 0.950 . S
C267 C258 1.390 . S
C267 H260 0.950 . S
C267 C264 1.387 . S
C268 C269 1.387 . S
C268 H272 0.950 . S
C268 C277 1.390 . S
C269 C268 1.387 . S
C269 C271 1.387 . S
H270 C277 0.950 . S
C271 C269 1.387 . S
C271 C273 1.390 . S
C271 H275 0.950 . S
H272 C268 0.950 . S
C273 C271 1.390 . S
C273 C274 1.387 . S
C273 H276 0.950 . S
C274 C273 1.387 . S
C274 C277 1.387 . S
H275 C271 0.950 . S
H276 C273 0.950 . S
C277 C268 1.390 . S
C277 H270 0.950 . S
C277 C274 1.387 . S
C278 C279 1.387 . S
C278 H282 0.950 . S
C278 C287 1.390 . S
C279 C278 1.387 . S
C279 C281 1.387 . S
H280 C287 0.950 . S
C281 C279 1.387 . S
C281 C283 1.390 . S
C281 H285 0.950 . S
H282 C278 0.950 . S
C283 C281 1.390 . S
C283 C284 1.387 . S
C283 H286 0.950 . S
C284 C283 1.387 . S
C284 C287 1.387 . S
H285 C281 0.950 . S
H286 C283 0.950 . S
C287 C278 1.390 . S
C287 H280 0.950 . S
C287 C284 1.387 . S
C288 C289 1.387 . S
C288 H292 0.950 . S
C288 C297 1.390 . S
C289 C288 1.387 . S
C289 C291 1.387 . S
H290 C297 0.950 . S
C291 C289 1.387 . S
C291 C293 1.390 . S
C291 H295 0.950 . S
H292 C288 0.950 . S
C293 C291 1.390 . S
C293 C294 1.387 . S
C293 H296 0.950 . S
C294 C293 1.387 . S
C294 C297 1.387 . S
H295 C291 0.950 . S
H296 C293 0.950 . S
C297 C288 1.390 . S
C297 H290 0.950 . S
C297 C294 1.387 . S
C298 C299 1.387 . S
C298 H302 0.950 . S
C298 C307 1.390 . S
C299 C298 1.387 . S
C299 C301 1.387 . S
H300 C307 0.950 . S
C301 C299 1.387 . S
C301 C303 1.390 . S
C301 H305 0.950 . S
H302 C298 0.950 . S
C303 C301 1.390 . S
C303 C304 1.387 . S
C303 H306 0.950 . S
C304 C303 1.387 . S
C304 C307 1.387 . S
H305 C301 0.950 . S
H306 C303 0.950 . S
C307 C298 1.390 . S
C307 H300 0.950 . S
C307 C304 1.387 . S
C308 C309 1.387 . S
C308 H312 0.950 . S
C308 C317 1.390 . S
C309 C308 1.387 . S
C309 C311 1.387 . S
H310 C317 0.950 . S
C311 C309 1.387 . S
C311 C313 1.390 . S
C311 H315 0.950 . S
H312 C308 0.950 . S
C313 C311 1.390 . S
C313 C314 1.387 . S
C313 H316 0.950 . S
C314 C313 1.387 . S
C314 C317 1.387 . S
H315 C311 0.950 . S
H316 C313 0.950 . S
C317 C308 1.390 . S
C317 H310 0.950 . S
C317 C314 1.387 . S
C318 C319 1.387 . S
C318 H322 0.950 . S
C318 C327 1.390 . S
C319 C318 1.387 . S
C319 C321 1.387 . S
H320 C327 0.950 . S
C321 C319 1.387 . S
C321 C323 1.390 . S
C321 H325 0.950 . S
H322 C318 0.950 . S
C323 C321 1.390 . S
C323 C324 1.387 . S
C323 H326 0.950 . S
C324 C323 1.387 . S
C324 C327 1.387 . S
H325 C321 0.950 . S
H326 C323 0.950 . S
C327 C318 1.390 . S
C327 H320 0.950 . S
C327 C324 1.387 . S
C328 C329 1.387 . S
C328 H332 0.950 . S
C328 C337 1.390 . S
C329 C328 1.387 . S
C329 C331 1.387 . S
H330 C337 0.950 . S
C331 C329 1.387 . S
C331 C333 1.390 . S
C331 H335 0.950 . S
H332 C328 0.950 . S
C333 C331 1.390 . S
C333 C334 1.387 . S
C333 H336 0.950 . S
C334 C333 1.387 . S
C334 C337 1.387 . S
H335 C331 0.950 . S
H336 C333 0.950 . S
C337 C328 1.390 . S
C337 H330 0.950 . S
C337 C334 1.387 . S
C338 C339 1.387 . S
C338 H342 0.950 . S
C338 C347 1.390 . S
C339 C338 1.387 . S
C339 C341 1.387 . S
H340 C347 0.950 . S
C341 C339 1.387 . S
C341 C343 1.390 . S
C341 H345 0.950 . S
H342 C338 0.950 . S
C343 C341 1.390 . S
C343 C344 1.387 . S
C343 H346 0.950 . S
C344 C343 1.387 . S
C344 C347 1.387 . S
H345 C341 0.950 . S
H346 C343 0.950 . S
C347 C338 1.390 . S
C347 H340 0.950 . S
C347 C344 1.387 . S
C348 C349 1.387 . S
C348 H352 0.950 . S
C348 C357 1.390 . S
C349 C348 1.387 . S
C349 C351 1.387 . S
H350 C357 0.950 . S
C351 C349 1.387 . S
C351 C353 1.390 . S
C351 H355 0.950 . S
H352 C348 0.950 . S
C353 C351 1.390 . S
C353 C354 1.387 . S
C353 H356 0.950 . S
C354 C353 1.387 . S
C354 C357 1.387 . S
H355 C351 0.950 . S
H356 C353 0.950 . S
C357 C348 1.390 . S
C357 H350 0.950 . S
C357 C354 1.387 . S
C358 C359 1.387 . S
C358 H362 0.950 . S
C358 C367 1.390 . S
C359 C358 1.387 . S
C359 C361 1.387 . S
H360 C367 0.950 . S
C361 C359 1.387 . S
C361 C363 1.390 . S
C361 H365 0.950 . S
H362 C358 0.950 . S
C363 C361 1.390 . S
C363 C364 1.387 . S
C363 H366 0.950 . S
C364 C363 1.387 . S
C364 C367 1.387 . S
H365 C361 0.950 . S
H366 C363 0.950 . S
C367 C358 1.390 . S
C367 H360 0.950 . S
C367 C364 1.387 . S
C368 C369 1.387 . S
C368 H372 0.950 . S
C368 C377 1.390 . S
C369 C368 1.387 . S
C369 C371 1.387 . S
H370 C377 0.950 . S
C371 C369 1.387 . S
C371 C373 1.390 . S
C371 H375 0.950 . S
H372 C368 0.950 . S
C373 C371 1.390 . S
C373 C374 1.387 . S
C373 H376 0.950 . S
C374 C373 1.387 . S
C374 C377 1.387 . S
H375 C371 0.950 . S
H376 C373 0.950 . S
C377 C368 1.390 . S
C377 H370 0.950 . S
C377 C374 1.387 . S
C378 C379 1.387 . S
C378 H382 0.950 . S
C378 C387 1.390 . S
C379 C378 1.387 . S
C379 C381 1.387 . S
H380 C387 0.950 . S
C381 C379 1.387 . S
C381 C383 1.390 . S
C381 H385 0.950 . S
H382 C378 0.950 . S
C383 C381 1.390 . S
C383 C384 1.387 . S
C383 H386 0.950 . S
C384 C383 1.387 . S
C384 C387 1.387 . S
H385 C381 0.950 . S
H386 C383 0.950 . S
C387 C378 1.390 . S
C387 H380 0.950 . S
C387 C384 1.387 . S
C388 C389 1.387 . S
C388 H392 0.950 . S
C388 C397 1.390 . S
C389 C388 1.387 . S
C389 C391 1.387 . S
H390 C397 0.950 . S
C391 C389 1.387 . S
C391 C393 1.390 . S
C391 H395 0.950 . S
H392 C388 0.950 . S
C393 C391 1.390 . S
C393 C394 1.387 . S
C393 H396 0.950 . S
C394 C393 1.387 . S
C394 C397 1.387 . S
H395 C391 0.950 . S
H396 C393 0.950 . S
C397 C388 1.390 . S
C397 H390 0.950 . S
C397 C394 1.387 . S
C398 C399 1.387 . S
C398 H402 0.950 . S
C398 C407 1.390 . S
C399 C398 1.387 . S
C399 C401 1.387 . S
H400 C407 0.950 . S
C401 C399 1.387 . S
C401 C403 1.390 . S
C401 H405 0.950 . S
H402 C398 0.950 . S
C403 C401 1.390 . S
C403 C404 1.387 . S
C403 H406 0.950 . S
C404 C403 1.387 . S
C404 C407 1.387 . S
H405 C401 0.950 . S
H406 C403 0.950 . S
C407 C398 1.390 . S
C407 H400 0.950 . S
C407 C404 1.387 . S
C408 C409 1.387 . S
C408 H412 0.950 . S
C408 C417 1.390 . S
C409 C408 1.387 . S
C409 C411 1.387 . S
H410 C417 0.950 . S
C411 C409 1.387 . S
C411 C413 1.390 . S
C411 H415 0.950 . S
H412 C408 0.950 . S
C413 C411 1.390 . S
C413 C414 1.387 . S
C413 H416 0.950 . S
C414 C413 1.387 . S
C414 C417 1.387 . S
H415 C411 0.950 . S
H416 C413 0.950 . S
C417 C408 1.390 . S
C417 H410 0.950 . S
C417 C414 1.387 . S
C418 C419 1.387 . S
C418 H422 0.950 . S
C418 C427 1.390 . S
C419 C418 1.387 . S
C419 C421 1.387 . S
H420 C427 0.950 . S
C421 C419 1.387 . S
C421 C423 1.390 . S
C421 H425 0.950 . S
H422 C418 0.950 . S
C423 C421 1.390 . S
C423 C424 1.387 . S
C423 H426 0.950 . S
C424 C423 1.387 . S
C424 C427 1.387 . S
H425 C421 0.950 . S
H426 C423 0.950 . S
C427 C418 1.390 . S
C427 H420 0.950 . S
C427 C424 1.387 . S
C428 C429 1.387 . S
C428 H432 0.950 . S
C428 C437 1.390 . S
C429 C428 1.387 . S
C429 C431 1.387 . S
H430 C437 0.950 . S
C431 C429 1.387 . S
C431 C433 1.390 . S
C431 H435 0.950 . S
H432 C428 0.950 . S
C433 C431 1.390 . S
C433 C434 1.387 . S
C433 H436 0.950 . S
C434 C433 1.387 . S
C434 C437 1.387 . S
H435 C431 0.950 . S
H436 C433 0.950 . S
C437 C428 1.390 . S
C437 H430 0.950 . S
C437 C434 1.387 . S
C438 C439 1.387 . S
C438 H442 0.950 . S
C438 C447 1.390 . S
C439 C438 1.387 . S
C439 C441 1.387 . S
H440 C447 0.950 . S
C441 C439 1.387 . S
C441 C443 1.390 . S
C441 H445 0.950 . S
H442 C438 0.950 . S
C443 C441 1.390 . S
C443 C444 1.387 . S
C443 H446 0.950 . S
C444 C443 1.387 . S
C444 C447 1.387 . S
H445 C441 0.950 . S
H446 C443 0.950 . S
C447 C438 1.390 . S
C447 H440 0.950 . S
C447 C444 1.387 . S
C448 C449 1.388 . S
C448 H452 0.950 . S
C448 C457 1.389 1_455 S
C449 C448 1.388 . S
C449 C451 1.388 . S
H450 C457 0.950 . S
C451 C449 1.388 . S
C451 C453 1.389 1_455 S
C451 H455 0.950 . S
H452 C448 0.950 . S
C453 C451 1.389 1_655 S
C453 C454 1.388 . S
C453 H456 0.950 . S
C454 C453 1.388 . S
C454 C457 1.388 . S
H455 C451 0.950 . S
H456 C453 0.950 . S
C457 C448 1.389 1_655 S
C457 H450 0.950 . S
C457 C454 1.388 . S
C458 C459 1.388 . S
C458 H462 0.950 . S
C458 C467 1.389 1_565 S
C459 C458 1.388 . S
C459 C461 1.388 . S
H460 C467 0.950 . S
C461 C459 1.388 . S
C461 C463 1.389 1_565 S
C461 H465 0.950 . S
H462 C458 0.950 . S
C463 C461 1.389 1_545 S
C463 C464 1.388 . S
C463 H466 0.950 . S
C464 C463 1.388 . S
C464 C467 1.388 . S
H465 C461 0.950 . S
H466 C463 0.950 . S
C467 C458 1.389 1_545 S
C467 H460 0.950 . S
C467 C464 1.388 . S
C468 C469 1.388 . S
C468 H472 0.950 . S
C468 C477 1.389 1_455 S
C469 C468 1.388 . S
C469 C471 1.388 . S
H470 C477 0.950 . S
C471 C469 1.388 . S
C471 C473 1.389 1_455 S
C471 H475 0.950 . S
H472 C468 0.950 . S
C473 C471 1.389 1_655 S
C473 C474 1.388 . S
C473 H476 0.950 . S
C474 C473 1.388 . S
C474 C477 1.388 . S
H475 C471 0.950 . S
H476 C473 0.950 . S
C477 C468 1.389 1_655 S
C477 H470 0.950 . S
C477 C474 1.388 . S
C478 C479 1.387 . S
C478 H482 0.950 . S
C478 C487 1.390 1_545 S
C479 C478 1.387 . S
C479 C481 1.387 . S
H480 C487 0.950 . S
C481 C479 1.387 . S
C481 C483 1.390 1_545 S
C481 H485 0.950 . S
H482 C478 0.950 . S
C483 C481 1.390 1_565 S
C483 C484 1.387 . S
C483 H486 0.950 . S
C484 C483 1.387 . S
C484 C487 1.387 . S
H485 C481 0.950 . S
H486 C483 0.950 . S
C487 C478 1.390 1_565 S
C487 H480 0.950 . S
C487 C484 1.387 . S
C488 C489 1.387 . S
C488 H492 0.950 . S
C488 C497 1.390 1_556 S
C489 C488 1.387 . S
C489 C491 1.387 . S
H490 C497 0.950 . S
C491 C489 1.387 . S
C491 C493 1.390 1_556 S
C491 H495 0.950 . S
H492 C488 0.950 . S
C493 C491 1.390 1_554 S
C493 C494 1.387 . S
C493 H496 0.950 . S
C494 C493 1.387 . S
C494 C497 1.387 . S
H495 C491 0.950 . S
H496 C493 0.950 . S
C497 C488 1.390 1_554 S
C497 H490 0.950 . S
C497 C494 1.387 . S
C498 C499 1.387 . S
C498 H502 0.950 . S
C498 C507 1.390 1_556 S
C499 C498 1.387 . S
C499 C501 1.387 . S
H500 C507 0.950 . S
C501 C499 1.387 . S
C501 C503 1.390 1_556 S
C501 H505 0.950 . S
H502 C498 0.950 . S
C503 C501 1.390 1_554 S
C503 C504 1.387 . S
C503 H506 0.950 . S
C504 C503 1.387 . S
C504 C507 1.387 . S
H505 C501 0.950 . S
H506 C503 0.950 . S
C507 C498 1.390 1_554 S
C507 H500 0.950 . S
C507 C504 1.387 . S
C508 C509 1.387 . S
C508 H512 0.950 . S
C508 C517 1.390 1_554 S
C509 C508 1.387 . S
C509 C511 1.387 . S
H510 C517 0.950 . S
C511 C509 1.387 . S
C511 C513 1.390 1_554 S
C511 H515 0.950 . S
H512 C508 0.950 . S
C513 C511 1.390 1_556 S
C513 C514 1.387 . S
C513 H516 0.950 . S
C514 C513 1.387 . S
C514 C517 1.387 . S
H515 C511 0.950 . S
H516 C513 0.950 . S
C517 C508 1.390 1_556 S
C517 H510 0.950 . S
C517 C514 1.387 . S
C518 C519 1.387 . S
C518 H522 0.950 . S
C518 C527 1.390 1_556 S
C519 C518 1.387 . S
C519 C521 1.387 . S
H520 C527 0.950 . S
C521 C519 1.387 . S
C521 C523 1.390 1_556 S
C521 H525 0.950 . S
H522 C518 0.950 . S
C523 C521 1.390 1_554 S
C523 C524 1.387 . S
C523 H526 0.950 . S
C524 C523 1.387 . S
C524 C527 1.387 . S
H525 C521 0.950 . S
H526 C523 0.950 . S
C527 C518 1.390 1_554 S
C527 H520 0.950 . S
C527 C524 1.387 . S
C209 C10 1.608 . S
C214 C42 1.622 . S
C219 C5 1.622 . S
C224 C23 1.607 . S
C229 C18 1.620 . S
C234 C30 1.608 . S
C239 C29 1.620 . S
C244 C43 1.608 . S
C249 C62 1.608 . S
C254 C70 1.620 . S
C259 C75 1.608 . S
C264 C81 1.620 . S
C269 C82 1.607 . S
C274 C96 1.622 . S
C279 C101 1.608 . S
C284 C57 1.620 . S
C289 C108 1.608 . S
C294 C146 1.620 . S
C299 C107 1.622 . S
C304 C127 1.607 . S
C309 C122 1.622 . S
C314 C134 1.607 . S
C319 C147 1.608 . S
C324 C133 1.620 . S
C329 C174 1.620 . S
C334 C166 1.608 . S
C339 C187 1.620 . S
C344 C179 1.608 . S
C349 C192 1.608 . S
C354 C200 1.620 . S
C359 C205 1.608 . S
C364 C161 1.620 . S
C369 C4 1.271 . S
C374 C199 1.270 . S
C379 C17 1.270 . S
C384 C160 1.271 . S
C389 C173 1.271 . S
C394 C36 1.270 . S
C399 C49 1.270 . S
C404 C186 1.271 . S
C409 C121 1.270 . S
C414 C56 1.271 . S
C419 C140 1.271 . S
C424 C69 1.270 . S
C429 C88 1.271 . S
C434 C153 1.270 . S
C439 C95 1.271 . S
C444 C114 1.270 . S
C449 C3 1.688 . S
C454 C83 1.688 . S
C459 C94 1.688 . S
C464 C16 1.688 . S
C469 C55 1.688 . S
C474 C31 1.688 . S
C479 C68 1.694 . S
C484 C44 1.694 . S
C489 C109 1.690 . S
C494 C185 1.690 . S
C499 C120 1.690 . S
C504 C198 1.690 . S
C509 C159 1.690 . S
C514 C135 1.690 . S
C519 C148 1.688 . S
C524 C172 1.688 . S
