# Generated by pormake.
# Topology uow, (4)-cn, num edge types: 1
# Building blocks:
#     Node 0, Type 0, BuildingBlock: KUFVIS_clean_sbu_0, # of connection points: 4
#     Node 1, Type 0, BuildingBlock: KUFVIS_clean_sbu_0, # of connection points: 4
#     Node 2, Type 0, BuildingBlock: KUFVIS_clean_sbu_0, # of connection points: 4
#     Node 3, Type 0, BuildingBlock: KUFVIS_clean_sbu_0, # of connection points: 4
#     Node 4, Type 0, BuildingBlock: KUFVIS_clean_sbu_0, # of connection points: 4
#     Node 5, Type 0, BuildingBlock: KUFVIS_clean_sbu_0, # of connection points: 4
#     Node 6, Type 0, BuildingBlock: KUFVIS_clean_sbu_0, # of connection points: 4
#     Node 7, Type 0, BuildingBlock: KUFVIS_clean_sbu_0, # of connection points: 4
#     Node 8, Type 0, BuildingBlock: KUFVIS_clean_sbu_0, # of connection points: 4
#     Node 9, Type 0, BuildingBlock: KUFVIS_clean_sbu_0, # of connection points: 4
#     Node 10, Type 0, BuildingBlock: KUFVIS_clean_sbu_0, # of connection points: 4
#     Node 11, Type 0, BuildingBlock: KUFVIS_clean_sbu_0, # of connection points: 4
#     Node 12, Type 0, BuildingBlock: KUFVIS_clean_sbu_0, # of connection points: 4
#     Node 13, Type 0, BuildingBlock: KUFVIS_clean_sbu_0, # of connection points: 4
#     Node 14, Type 0, BuildingBlock: KUFVIS_clean_sbu_0, # of connection points: 4
#     Node 15, Type 0, BuildingBlock: KUFVIS_clean_sbu_0, # of connection points: 4
#     Node 16, Type 0, BuildingBlock: KUFVIS_clean_sbu_0, # of connection points: 4
#     Node 17, Type 0, BuildingBlock: KUFVIS_clean_sbu_0, # of connection points: 4
#     Node 18, Type 0, BuildingBlock: KUFVIS_clean_sbu_0, # of connection points: 4
#     Node 19, Type 0, BuildingBlock: KUFVIS_clean_sbu_0, # of connection points: 4
#     Node 20, Type 0, BuildingBlock: KUFVIS_clean_sbu_0, # of connection points: 4
#     Node 21, Type 0, BuildingBlock: KUFVIS_clean_sbu_0, # of connection points: 4
#     Node 22, Type 0, BuildingBlock: KUFVIS_clean_sbu_0, # of connection points: 4
#     Node 23, Type 0, BuildingBlock: KUFVIS_clean_sbu_0, # of connection points: 4
#     Node 24, Type 0, BuildingBlock: KUFVIS_clean_sbu_0, # of connection points: 4
#     Node 25, Type 0, BuildingBlock: KUFVIS_clean_sbu_0, # of connection points: 4
#     Node 26, Type 0, BuildingBlock: KUFVIS_clean_sbu_0, # of connection points: 4
#     Node 27, Type 0, BuildingBlock: KUFVIS_clean_sbu_0, # of connection points: 4
#     Node 28, Type 0, BuildingBlock: KUFVIS_clean_sbu_0, # of connection points: 4
#     Node 29, Type 0, BuildingBlock: KUFVIS_clean_sbu_0, # of connection points: 4
#     Node 30, Type 0, BuildingBlock: KUFVIS_clean_sbu_0, # of connection points: 4
#     Node 31, Type 0, BuildingBlock: KUFVIS_clean_sbu_0, # of connection points: 4
#     Edge 32, Type (0, 0), BuildingBlock: CIFDUS_clean_linker_0, # of connection points: 2
#     Edge 33, Type (0, 0), BuildingBlock: CIFDUS_clean_linker_0, # of connection points: 2
#     Edge 34, Type (0, 0), BuildingBlock: CIFDUS_clean_linker_0, # of connection points: 2
#     Edge 35, Type (0, 0), BuildingBlock: CIFDUS_clean_linker_0, # of connection points: 2
#     Edge 36, Type (0, 0), BuildingBlock: CIFDUS_clean_linker_0, # of connection points: 2
#     Edge 37, Type (0, 0), BuildingBlock: CIFDUS_clean_linker_0, # of connection points: 2
#     Edge 38, Type (0, 0), BuildingBlock: CIFDUS_clean_linker_0, # of connection points: 2
#     Edge 39, Type (0, 0), BuildingBlock: CIFDUS_clean_linker_0, # of connection points: 2
#     Edge 40, Type (0, 0), BuildingBlock: CIFDUS_clean_linker_0, # of connection points: 2
#     Edge 41, Type (0, 0), BuildingBlock: CIFDUS_clean_linker_0, # of connection points: 2
#     Edge 42, Type (0, 0), BuildingBlock: CIFDUS_clean_linker_0, # of connection points: 2
#     Edge 43, Type (0, 0), BuildingBlock: CIFDUS_clean_linker_0, # of connection points: 2
#     Edge 44, Type (0, 0), BuildingBlock: CIFDUS_clean_linker_0, # of connection points: 2
#     Edge 45, Type (0, 0), BuildingBlock: CIFDUS_clean_linker_0, # of connection points: 2
#     Edge 46, Type (0, 0), BuildingBlock: CIFDUS_clean_linker_0, # of connection points: 2
#     Edge 47, Type (0, 0), BuildingBlock: CIFDUS_clean_linker_0, # of connection points: 2
#     Edge 48, Type (0, 0), BuildingBlock: CIFDUS_clean_linker_0, # of connection points: 2
#     Edge 49, Type (0, 0), BuildingBlock: CIFDUS_clean_linker_0, # of connection points: 2
#     Edge 50, Type (0, 0), BuildingBlock: CIFDUS_clean_linker_0, # of connection points: 2
#     Edge 51, Type (0, 0), BuildingBlock: CIFDUS_clean_linker_0, # of connection points: 2
#     Edge 52, Type (0, 0), BuildingBlock: CIFDUS_clean_linker_0, # of connection points: 2
#     Edge 53, Type (0, 0), BuildingBlock: CIFDUS_clean_linker_0, # of connection points: 2
#     Edge 54, Type (0, 0), BuildingBlock: CIFDUS_clean_linker_0, # of connection points: 2
#     Edge 55, Type (0, 0), BuildingBlock: CIFDUS_clean_linker_0, # of connection points: 2
#     Edge 56, Type (0, 0), BuildingBlock: CIFDUS_clean_linker_0, # of connection points: 2
#     Edge 57, Type (0, 0), BuildingBlock: CIFDUS_clean_linker_0, # of connection points: 2
#     Edge 58, Type (0, 0), BuildingBlock: CIFDUS_clean_linker_0, # of connection points: 2
#     Edge 59, Type (0, 0), BuildingBlock: CIFDUS_clean_linker_0, # of connection points: 2
#     Edge 60, Type (0, 0), BuildingBlock: CIFDUS_clean_linker_0, # of connection points: 2
#     Edge 61, Type (0, 0), BuildingBlock: CIFDUS_clean_linker_0, # of connection points: 2
#     Edge 62, Type (0, 0), BuildingBlock: CIFDUS_clean_linker_0, # of connection points: 2
#     Edge 63, Type (0, 0), BuildingBlock: CIFDUS_clean_linker_0, # of connection points: 2
#     Edge 64, Type (0, 0), BuildingBlock: CIFDUS_clean_linker_0, # of connection points: 2
#     Edge 65, Type (0, 0), BuildingBlock: CIFDUS_clean_linker_0, # of connection points: 2
#     Edge 66, Type (0, 0), BuildingBlock: CIFDUS_clean_linker_0, # of connection points: 2
#     Edge 67, Type (0, 0), BuildingBlock: CIFDUS_clean_linker_0, # of connection points: 2
#     Edge 68, Type (0, 0), BuildingBlock: CIFDUS_clean_linker_0, # of connection points: 2
#     Edge 69, Type (0, 0), BuildingBlock: CIFDUS_clean_linker_0, # of connection points: 2
#     Edge 70, Type (0, 0), BuildingBlock: CIFDUS_clean_linker_0, # of connection points: 2
#     Edge 71, Type (0, 0), BuildingBlock: CIFDUS_clean_linker_0, # of connection points: 2
#     Edge 72, Type (0, 0), BuildingBlock: CIFDUS_clean_linker_0, # of connection points: 2
#     Edge 73, Type (0, 0), BuildingBlock: CIFDUS_clean_linker_0, # of connection points: 2
#     Edge 74, Type (0, 0), BuildingBlock: CIFDUS_clean_linker_0, # of connection points: 2
#     Edge 75, Type (0, 0), BuildingBlock: CIFDUS_clean_linker_0, # of connection points: 2
#     Edge 76, Type (0, 0), BuildingBlock: CIFDUS_clean_linker_0, # of connection points: 2
#     Edge 77, Type (0, 0), BuildingBlock: CIFDUS_clean_linker_0, # of connection points: 2
#     Edge 78, Type (0, 0), BuildingBlock: CIFDUS_clean_linker_0, # of connection points: 2
#     Edge 79, Type (0, 0), BuildingBlock: CIFDUS_clean_linker_0, # of connection points: 2
#     Edge 80, Type (0, 0), BuildingBlock: CIFDUS_clean_linker_0, # of connection points: 2
#     Edge 81, Type (0, 0), BuildingBlock: CIFDUS_clean_linker_0, # of connection points: 2
#     Edge 82, Type (0, 0), BuildingBlock: CIFDUS_clean_linker_0, # of connection points: 2
#     Edge 83, Type (0, 0), BuildingBlock: CIFDUS_clean_linker_0, # of connection points: 2
#     Edge 84, Type (0, 0), BuildingBlock: CIFDUS_clean_linker_0, # of connection points: 2
#     Edge 85, Type (0, 0), BuildingBlock: CIFDUS_clean_linker_0, # of connection points: 2
#     Edge 86, Type (0, 0), BuildingBlock: CIFDUS_clean_linker_0, # of connection points: 2
#     Edge 87, Type (0, 0), BuildingBlock: CIFDUS_clean_linker_0, # of connection points: 2
#     Edge 88, Type (0, 0), BuildingBlock: CIFDUS_clean_linker_0, # of connection points: 2
#     Edge 89, Type (0, 0), BuildingBlock: CIFDUS_clean_linker_0, # of connection points: 2
#     Edge 90, Type (0, 0), BuildingBlock: CIFDUS_clean_linker_0, # of connection points: 2
#     Edge 91, Type (0, 0), BuildingBlock: CIFDUS_clean_linker_0, # of connection points: 2
#     Edge 92, Type (0, 0), BuildingBlock: CIFDUS_clean_linker_0, # of connection points: 2
#     Edge 93, Type (0, 0), BuildingBlock: CIFDUS_clean_linker_0, # of connection points: 2
#     Edge 94, Type (0, 0), BuildingBlock: CIFDUS_clean_linker_0, # of connection points: 2
#     Edge 95, Type (0, 0), BuildingBlock: CIFDUS_clean_linker_0, # of connection points: 2
# Relax obj value: 0.133
# Max RMSD: 0.177
# Mean RMSD: 0.165
data_MOF--net-uow--node1-KUFVIS_clean_sbu_0--edge1-CIFDUS_clean_linker_0
_symmetry_space_group_name_H-M    P1
_symmetry_Int_Tables_number       1
_symmetry_cell_setting            triclinic
loop_
_symmetry_equiv_pos_as_xyz
'x, y, z'
_cell_length_a     53.125499
_cell_length_b     55.023528
_cell_length_c     35.735433
_cell_angle_alpha  90.079015
_cell_angle_beta   90.061025
_cell_angle_gamma 89.984387
loop_
_atom_site_label
_atom_site_type_symbol
_atom_site_fract_x
_atom_site_fract_y
_atom_site_fract_z
_atom_type_partial_charge
Mn0 Mn 0.05156 0.37625 0.28577 0.0
Mn1 Mn -6e-05 0.3725 0.2319 0.0
C2 C 0.01296 0.36846 0.31298 0.0
C3 C 0.08584 0.35709 0.31217 0.0
C4 C 0.02594 0.41997 0.25199 0.0
O5 O 0.06551 0.37239 0.233 0.0
O6 O 0.0299 0.36335 0.20131 0.0
C7 C -0.00097 0.31932 0.21904 0.0
N8 N 0.98749 0.33987 0.23159 0.0
C9 C 0.95136 0.31705 0.25193 0.0
C10 C 0.96266 0.29573 0.2385 0.0
C11 C 0.98664 0.29687 0.2221 0.0
C12 C 0.96451 0.33894 0.24777 0.0
H13 H 0.01767 0.32 0.20721 0.0
C14 C 0.05394 0.36512 0.20369 0.0
O15 O 0.08598 0.38049 0.3074 0.0
O16 O 0.06641 0.34504 0.30058 0.0
N17 N 0.96986 0.3803 0.259 0.0
C18 C 0.96231 0.40217 0.27299 0.0
C19 C 0.93909 0.40397 0.29152 0.0
C20 C 0.92385 0.38329 0.29548 0.0
C21 C 0.93194 0.361 0.28075 0.0
C22 C 0.95511 0.36037 0.2621 0.0
H23 H 0.97392 0.41815 0.27021 0.0
O24 O 0.03141 0.37663 0.33319 0.0
O25 O 0.01799 0.36498 0.27788 0.0
O26 O 0.0415 0.41106 0.27529 0.0
O27 O 0.01099 0.40718 0.23188 0.0
C28 C 0.91817 0.33927 0.28462 0.0
C29 C 0.92789 0.3173 0.27027 0.0
H30 H 0.95329 0.27834 0.24118 0.0
H31 H 0.99566 0.28045 0.21216 0.0
H32 H 0.93302 0.42123 0.30294 0.0
H33 H 0.90611 0.38468 0.31025 0.0
H34 H 0.90028 0.33918 0.29913 0.0
H35 H 0.91734 0.30064 0.27399 0.0
Mn36 Mn 0.86641 0.81539 0.57849 0.0
Mn37 Mn 0.85744 0.876 0.57347 0.0
C38 C 0.89822 0.84148 0.59625 0.0
C39 C 0.86388 0.77923 0.61179 0.0
C40 C 0.87196 0.84534 0.5066 0.0
O41 O 0.82866 0.8176 0.57049 0.0
O42 O 0.82519 0.85826 0.56767 0.0
C43 C 0.82951 0.87917 0.64497 0.0
N44 N 0.84936 0.886 0.62331 0.0
C45 C 0.86658 0.9103 0.67317 0.0
C46 C 0.84625 0.90363 0.69594 0.0
C47 C 0.82766 0.88796 0.68178 0.0
C48 C 0.86757 0.90074 0.63688 0.0
H49 H 0.81527 0.86697 0.63435 0.0
C50 C 0.81576 0.83689 0.56625 0.0
O51 O 0.86527 0.7792 0.57546 0.0
O52 O 0.86229 0.80017 0.62824 0.0
N53 N 0.88653 0.89618 0.57864 0.0
C54 C 0.90253 0.90378 0.55127 0.0
C55 C 0.92157 0.92059 0.56005 0.0
C56 C 0.92346 0.92993 0.59656 0.0
C57 C 0.90571 0.92306 0.62357 0.0
C58 C 0.88704 0.90644 0.61304 0.0
H59 H 0.90096 0.89683 0.52308 0.0
O60 O 0.90299 0.81897 0.5885 0.0
O61 O 0.87463 0.8479 0.59509 0.0
O62 O 0.87194 0.82506 0.52402 0.0
O63 O 0.86691 0.86586 0.52203 0.0
C64 C 0.90529 0.9327 0.66012 0.0
C65 C 0.88578 0.92622 0.68496 0.0
H66 H 0.8447 0.91047 0.72428 0.0
H67 H 0.81195 0.88267 0.69921 0.0
H68 H 0.93477 0.92629 0.53875 0.0
H69 H 0.9382 0.94282 0.60327 0.0
H70 H 0.91962 0.94541 0.66921 0.0
H71 H 0.88543 0.93395 0.71284 0.0
Mn72 Mn 0.45263 0.62906 0.77542 0.0
Mn73 Mn 0.4959 0.60744 0.71509 0.0
C74 C 0.49422 0.62596 0.79314 0.0
C75 C 0.43101 0.66154 0.80126 0.0
C76 C 0.45954 0.5753 0.75708 0.0
O77 O 0.43473 0.63192 0.72532 0.0
O78 O 0.46512 0.61733 0.68714 0.0
C79 C 0.50701 0.65324 0.67504 0.0
N80 N 0.51502 0.63413 0.69611 0.0
C81 C 0.55733 0.64972 0.69757 0.0
C82 C 0.54957 0.66947 0.67563 0.0
C83 C 0.5243 0.67123 0.66434 0.0
C84 C 0.53932 0.63219 0.70699 0.0
H85 H 0.48755 0.65479 0.66661 0.0
C86 C 0.44314 0.62616 0.69308 0.0
O87 O 0.42192 0.63966 0.80334 0.0
O88 O 0.45168 0.66456 0.78268 0.0
N89 N 0.52651 0.59751 0.73891 0.0
C90 C 0.53056 0.57816 0.76189 0.0
C91 C 0.55471 0.57424 0.77673 0.0
C92 C 0.57441 0.59023 0.76776 0.0
C93 C 0.5698 0.60993 0.74386 0.0
C94 C 0.54542 0.61277 0.72959 0.0
H95 H 0.51542 0.56597 0.76918 0.0
O96 O 0.47658 0.62648 0.8182 0.0
O97 O 0.48685 0.62712 0.75851 0.0
O98 O 0.44825 0.59209 0.77506 0.0
O99 O 0.47745 0.57895 0.73398 0.0
C100 C 0.58831 0.62717 0.73431 0.0
C101 C 0.58209 0.64703 0.71116 0.0
H102 H 0.56279 0.68351 0.66763 0.0
H103 H 0.51813 0.6865 0.64761 0.0
H104 H 0.55809 0.55905 0.79527 0.0
H105 H 0.59293 0.58731 0.77963 0.0
H106 H 0.60732 0.62548 0.74501 0.0
H107 H 0.5964 0.66033 0.7044 0.0
Mn108 Mn 0.63842 0.1939 0.05904 0.0
Mn109 Mn 0.65396 0.13468 0.05196 0.0
C110 C 0.61227 0.16451 0.0843 0.0
C111 C 0.63865 0.23086 0.09063 0.0
C112 C 0.62979 0.1627 0.98902 0.0
O113 O 0.67541 0.19592 0.04421 0.0
O114 O 0.68295 0.15582 0.03946 0.0
C115 C 0.6889 0.13447 0.11655 0.0
N116 N 0.66802 0.12557 0.09915 0.0
C117 C 0.65998 0.09798 0.14992 0.0
C118 C 0.68144 0.10679 0.16835 0.0
C119 C 0.6959 0.12519 0.15165 0.0
C120 C 0.65365 0.10829 0.11537 0.0
H121 H 0.7001 0.14857 0.10376 0.0
C122 C 0.68976 0.17803 0.03651 0.0
O123 O 0.63436 0.22978 0.05487 0.0
O124 O 0.64464 0.21074 0.10727 0.0
N125 N 0.62811 0.11159 0.0627 0.0
C126 C 0.6102 0.10279 0.03892 0.0
C127 C 0.5947 0.08354 0.0505 0.0
C128 C 0.59838 0.07298 0.08582 0.0
C129 C 0.61797 0.08133 0.10879 0.0
C130 C 0.63273 0.10062 0.09582 0.0
H131 H 0.6076 0.11053 0.01144 0.0
O132 O 0.60388 0.18598 0.07632 0.0
O133 O 0.63611 0.16092 0.07795 0.0
O134 O 0.62903 0.18305 0.00616 0.0
O135 O 0.63866 0.14317 0.00325 0.0
C136 C 0.62407 0.07057 0.14333 0.0
C137 C 0.64489 0.07906 0.16411 0.0
H138 H 0.68706 0.09947 0.19522 0.0
H139 H 0.71248 0.1321 0.1657 0.0
H140 H 0.58004 0.0768 0.03217 0.0
H141 H 0.58646 0.05807 0.09462 0.0
H142 H 0.61321 0.05538 0.15365 0.0
H143 H 0.64947 0.07053 0.19057 0.0
Mn144 Mn 0.03622 0.61245 0.19676 0.0
Mn145 Mn 0.98918 0.60534 0.25824 0.0
C146 C 0.99503 0.61847 0.178 0.0
C147 C 0.06499 0.63863 0.16984 0.0
C148 C 0.01834 0.56331 0.22349 0.0
O149 O 0.05407 0.61304 0.2472 0.0
O150 O 0.02053 0.61386 0.2862 0.0
C151 C 0.9844 0.65565 0.28687 0.0
N152 N 0.97406 0.63608 0.26926 0.0
C153 C 0.93515 0.65754 0.25934 0.0
C154 C 0.94533 0.67785 0.27761 0.0
C155 C 0.97007 0.67689 0.29144 0.0
C156 C 0.95022 0.63675 0.25605 0.0
H157 H 0.00348 0.6551 0.29716 0.0
C158 C 0.04425 0.61515 0.27964 0.0
O159 O 0.06876 0.61528 0.1687 0.0
O160 O 0.04544 0.64646 0.18763 0.0
N161 N 0.9581 0.59776 0.2336 0.0
C162 C 0.95169 0.57728 0.21434 0.0
C163 C 0.92783 0.57566 0.19759 0.0
C164 C 0.91084 0.59511 0.2007 0.0
C165 C 0.91783 0.616 0.22067 0.0
C166 C 0.94175 0.61646 0.23718 0.0
H167 H 0.96473 0.56235 0.21151 0.0
O168 O 0.01234 0.61391 0.15341 0.0
O169 O 0.00262 0.61906 0.21247 0.0
O170 O 0.0314 0.5758 0.20061 0.0
O171 O 0.00325 0.57264 0.24747 0.0
C172 C 0.90224 0.63659 0.22405 0.0
C173 C 0.91088 0.65734 0.2434 0.0
H174 H 0.93444 0.69437 0.2808 0.0
H175 H 0.97813 0.69254 0.30535 0.0
H176 H 0.92261 0.55953 0.18206 0.0
H177 H 0.89257 0.59392 0.18732 0.0
H178 H 0.88369 0.63679 0.21143 0.0
H179 H 0.89884 0.67318 0.24537 0.0
Mn180 Mn 0.63345 0.80672 0.44316 0.0
Mn181 Mn 0.64686 0.86664 0.44533 0.0
C182 C 0.60454 0.83436 0.42082 0.0
C183 C 0.63462 0.76959 0.41168 0.0
C184 C 0.62627 0.8398 0.51198 0.0
O185 O 0.67088 0.80635 0.45503 0.0
O186 O 0.67651 0.84668 0.45869 0.0
C187 C 0.67988 0.86399 0.37878 0.0
N188 N 0.65934 0.87347 0.39629 0.0
C189 C 0.64793 0.89636 0.34149 0.0
C190 C 0.66903 0.88692 0.32291 0.0
C191 C 0.68504 0.87064 0.34164 0.0
C192 C 0.64357 0.88881 0.37831 0.0
H193 H 0.69214 0.85135 0.39297 0.0
C194 C 0.68436 0.82486 0.46231 0.0
O195 O 0.63146 0.77047 0.44776 0.0
O196 O 0.63874 0.79001 0.39482 0.0
N197 N 0.62053 0.88902 0.43359 0.0
C198 C 0.6042 0.89991 0.45776 0.0
C199 C 0.5877 0.91791 0.44445 0.0
C200 C 0.58886 0.92515 0.4068 0.0
C201 C 0.60724 0.91508 0.38328 0.0
C202 C 0.62324 0.89735 0.39826 0.0
H203 H 0.60354 0.89459 0.48683 0.0
O204 O 0.5978 0.81247 0.42919 0.0
O205 O 0.62847 0.8392 0.42381 0.0
O206 O 0.6262 0.81874 0.49654 0.0
O207 O 0.63294 0.85945 0.49536 0.0
C208 C 0.61103 0.9227 0.3461 0.0
C209 C 0.63126 0.91319 0.3251 0.0
H210 H 0.67316 0.89212 0.29434 0.0
H211 H 0.70133 0.86323 0.32747 0.0
H212 H 0.57414 0.92615 0.46314 0.0
H213 H 0.57611 0.93901 0.39659 0.0
H214 H 0.59882 0.93624 0.33366 0.0
H215 H 0.63417 0.91936 0.29666 0.0
Mn216 Mn 0.43257 0.38244 0.72332 0.0
Mn217 Mn 0.4805 0.3936 0.78229 0.0
C218 C 0.47358 0.38229 0.70153 0.0
C219 C 0.40611 0.35426 0.69554 0.0
C220 C 0.44541 0.43266 0.75227 0.0
O221 O 0.41666 0.37846 0.77481 0.0
O222 O 0.45133 0.38093 0.81138 0.0
C223 C 0.49188 0.3431 0.80533 0.0
N224 N 0.49952 0.3645 0.79001 0.0
C225 C 0.54075 0.34827 0.77748 0.0
C226 C 0.53345 0.32623 0.79384 0.0
C227 C 0.50888 0.32362 0.80772 0.0
C228 C 0.52308 0.36716 0.77632 0.0
H229 H 0.47287 0.34082 0.81521 0.0
C230 C 0.42774 0.37701 0.80647 0.0
O231 O 0.39962 0.37701 0.6973 0.0
O232 O 0.427 0.34795 0.71142 0.0
N233 N 0.5098 0.40543 0.75692 0.0
C234 C 0.51326 0.42716 0.7394 0.0
C235 C 0.53653 0.43227 0.72256 0.0
C236 C 0.55598 0.415 0.72385 0.0
C237 C 0.55202 0.3928 0.74214 0.0
C238 C 0.52855 0.38886 0.75889 0.0
H239 H 0.49836 0.44046 0.73806 0.0
O240 O 0.455 0.38509 0.67838 0.0
O241 O 0.46734 0.37961 0.73633 0.0
O242 O 0.43309 0.41913 0.72983 0.0
O243 O 0.46237 0.42476 0.77465 0.0
C244 C 0.57024 0.37422 0.74362 0.0
C245 C 0.56461 0.35197 0.76126 0.0
H246 H 0.54641 0.31106 0.79532 0.0
H247 H 0.50298 0.30655 0.81989 0.0
H248 H 0.53941 0.4494 0.70837 0.0
H249 H 0.57379 0.41887 0.71036 0.0
H250 H 0.58851 0.37672 0.73075 0.0
H251 H 0.57862 0.33767 0.76166 0.0
Mn252 Mn 0.87816 0.18634 0.93593 0.0
Mn253 Mn 0.86635 0.12623 0.94315 0.0
C254 C 0.90801 0.15833 0.91652 0.0
C255 C 0.87604 0.22224 0.90157 0.0
C256 C 0.8838 0.15723 0.0084 0.0
O257 O 0.84035 0.18577 0.94637 0.0
O258 O 0.83487 0.14526 0.94745 0.0
C259 C 0.83852 0.12255 0.87154 0.0
N260 N 0.85779 0.11519 0.89401 0.0
C261 C 0.87313 0.08785 0.84668 0.0
C262 C 0.85326 0.09488 0.82323 0.0
C263 C 0.83594 0.1124 0.83566 0.0
C264 C 0.87492 0.09881 0.88195 0.0
H265 H 0.82534 0.13621 0.88077 0.0
C266 C 0.82644 0.16699 0.94932 0.0
O267 O 0.87879 0.22265 0.93771 0.0
O268 O 0.87302 0.20115 0.88601 0.0
N269 N 0.89469 0.10492 0.93932 0.0
C270 C 0.91106 0.09821 0.96683 0.0
C271 C 0.92916 0.0802 0.95946 0.0
C272 C 0.92982 0.06886 0.92422 0.0
C273 C 0.91194 0.07517 0.89703 0.0
C274 C 0.89422 0.09308 0.90615 0.0
H275 H 0.91044 0.10665 0.99412 0.0
O276 O 0.91427 0.18066 0.9231 0.0
O277 O 0.88424 0.15326 0.91992 0.0
O278 O 0.8853 0.17719 0.99026 0.0
O279 O 0.87631 0.13711 0.99406 0.0
C280 C 0.91053 0.06391 0.86166 0.0
C281 C 0.89114 0.07029 0.83651 0.0
H282 H 0.85116 0.087 0.7956 0.0
H283 H 0.82067 0.11808 0.81763 0.0
H284 H 0.94256 0.07508 0.98088 0.0
H285 H 0.94384 0.05504 0.91859 0.0
H286 H 0.92404 0.05008 0.85372 0.0
H287 H 0.8899 0.06127 0.80968 0.0
Mn288 Mn 0.93802 0.62176 0.71053 0.0
Mn289 Mn 0.98367 0.60117 0.7677 0.0
C290 C 0.97854 0.61868 0.68739 0.0
C291 C 0.91323 0.65341 0.6886 0.0
C292 C 0.94304 0.56943 0.73358 0.0
O293 O 0.92319 0.62491 0.76277 0.0
O294 O 0.95747 0.61736 0.79832 0.0
C295 C 0.00523 0.64629 0.79957 0.0
N296 N 0.00829 0.62503 0.78055 0.0
C297 C 0.05319 0.63055 0.7779 0.0
C298 C 0.05054 0.65251 0.79748 0.0
C299 C 0.02646 0.66044 0.80825 0.0
C300 C 0.03138 0.61719 0.77013 0.0
H301 H 0.98675 0.65234 0.80804 0.0
C302 C 0.93466 0.62444 0.79419 0.0
O303 O 0.90558 0.63106 0.68666 0.0
O304 O 0.93505 0.65745 0.70375 0.0
N305 N 0.01021 0.58529 0.74117 0.0
C306 C 0.00924 0.56468 0.72005 0.0
C307 C 0.03165 0.55443 0.70662 0.0
C308 C 0.05478 0.56546 0.71506 0.0
C309 C 0.0553 0.58701 0.73603 0.0
C310 C 0.03238 0.59617 0.74915 0.0
H311 H 0.99157 0.55589 0.71393 0.0
O312 O 0.9592 0.61933 0.66516 0.0
O313 O 0.97355 0.62009 0.72313 0.0
O314 O 0.93398 0.58492 0.71098 0.0
O315 O 0.96015 0.57436 0.75733 0.0
C316 C 0.0776 0.59978 0.74443 0.0
C317 C 0.07653 0.62162 0.76514 0.0
H318 H 0.06685 0.66354 0.80411 0.0
H319 H 0.02427 0.6774 0.82328 0.0
H320 H 0.03113 0.53789 0.69021 0.0
H321 H 0.07198 0.55705 0.70548 0.0
H322 H 0.09565 0.59315 0.73473 0.0
H323 H 0.09375 0.6315 0.77084 0.0
Mn324 Mn 0.12783 0.20917 0.44438 0.0
Mn325 Mn 0.14617 0.24907 0.51081 0.0
C326 C 0.13293 0.24961 0.42984 0.0
C327 C 0.09572 0.18914 0.41293 0.0
C328 C 0.18145 0.21352 0.47313 0.0
O329 O 0.12114 0.19102 0.49277 0.0
O330 O 0.13195 0.21971 0.53512 0.0
C331 C 0.09664 0.26196 0.54304 0.0
N332 N 0.11839 0.26882 0.5259 0.0
C333 C 0.10558 0.31077 0.52568 0.0
C334 C 0.08311 0.30418 0.54356 0.0
C335 C 0.07863 0.27967 0.55226 0.0
C336 C 0.12299 0.29239 0.51768 0.0
H337 H 0.09306 0.24312 0.54956 0.0
C338 C 0.12358 0.19859 0.52637 0.0
O339 O 0.11836 0.18019 0.41365 0.0
O340 O 0.09167 0.20901 0.43142 0.0
N341 N 0.15997 0.27829 0.49035 0.0
C342 C 0.18159 0.28129 0.47039 0.0
C343 C 0.18826 0.30459 0.45787 0.0
C344 C 0.17268 0.32454 0.46604 0.0
C345 C 0.15056 0.321 0.48671 0.0
C346 C 0.14499 0.29739 0.49872 0.0
H347 H 0.19351 0.26599 0.46376 0.0
O348 O 0.13385 0.23321 0.40372 0.0
O349 O 0.12919 0.24171 0.46361 0.0
O350 O 0.16572 0.2041 0.45043 0.0
O351 O 0.176 0.23002 0.49687 0.0
C352 C 0.13352 0.33986 0.49506 0.0
C353 C 0.11106 0.33476 0.51459 0.0
H354 H 0.06905 0.31774 0.55035 0.0
H355 H 0.06128 0.27442 0.56586 0.0
H356 H 0.20529 0.30716 0.44178 0.0
H357 H 0.17776 0.34244 0.456 0.0
H358 H 0.13731 0.3583 0.48611 0.0
H359 H 0.09794 0.34936 0.52035 0.0
Mn360 Mn 0.5482 0.37888 0.19549 0.0
Mn361 Mn 0.5025 0.39308 0.25717 0.0
C362 C 0.50698 0.3806 0.17477 0.0
C363 C 0.57473 0.35017 0.16881 0.0
C364 C 0.53939 0.42964 0.2253 0.0
O365 O 0.56479 0.37432 0.24614 0.0
O366 O 0.53152 0.37896 0.28466 0.0
C367 C 0.48767 0.34469 0.28568 0.0
N368 N 0.48141 0.36611 0.26908 0.0
C369 C 0.43741 0.35579 0.26949 0.0
C370 C 0.44336 0.33363 0.28671 0.0
C371 C 0.46861 0.32802 0.2947 0.0
C372 C 0.45719 0.3717 0.26127 0.0
H373 H 0.50705 0.34044 0.29211 0.0
C374 C 0.55463 0.37367 0.27844 0.0
O375 O 0.58063 0.37305 0.16907 0.0
O376 O 0.55354 0.34393 0.18403 0.0
N377 N 0.47334 0.40677 0.23411 0.0
C378 C 0.47122 0.42772 0.2141 0.0
C379 C 0.44739 0.43532 0.20187 0.0
C380 C 0.42604 0.42142 0.2106 0.0
C381 C 0.42871 0.39982 0.23101 0.0
C382 C 0.45293 0.39318 0.24247 0.0
H383 H 0.48758 0.43854 0.20758 0.0
O384 O 0.52571 0.38226 0.1516 0.0
O385 O 0.51296 0.3774 0.20992 0.0
O386 O 0.54974 0.41579 0.20129 0.0
O387 O 0.52245 0.42258 0.24799 0.0
C388 C 0.40839 0.38444 0.24003 0.0
C389 C 0.41273 0.36245 0.25926 0.0
H390 H 0.42872 0.32067 0.29353 0.0
H391 H 0.47335 0.31091 0.30786 0.0
H392 H 0.44545 0.45194 0.18595 0.0
H393 H 0.40776 0.42753 0.20136 0.0
H394 H 0.3894 0.38917 0.23198 0.0
H395 H 0.39701 0.35057 0.26537 0.0
Mn396 Mn 0.36734 0.80914 0.92794 0.0
Mn397 Mn 0.36363 0.76118 0.98591 0.0
C398 C 0.36218 0.77055 0.90386 0.0
C399 C 0.39305 0.83516 0.89471 0.0
C400 C 0.32107 0.797 0.9738 0.0
O401 O 0.38067 0.82228 0.97708 0.0
O402 O 0.38043 0.78844 0.01271 0.0
C403 C 0.41799 0.74996 0.99133 0.0
N404 N 0.39416 0.74293 0.98236 0.0
C405 C 0.40876 0.70385 0.96123 0.0
C406 C 0.43344 0.7106 0.97052 0.0
C407 C 0.43806 0.73377 0.9856 0.0
C408 C 0.38949 0.72068 0.96781 0.0
H409 H 0.42165 0.76786 0.00252 0.0
C410 C 0.38521 0.81102 0.00749 0.0
O411 O 0.37055 0.84203 0.90444 0.0
O412 O 0.40031 0.81364 0.90449 0.0
N413 N 0.3479 0.73361 0.963 0.0
C414 C 0.32329 0.7305 0.95341 0.0
C415 C 0.31557 0.70846 0.9372 0.0
C416 C 0.33324 0.68989 0.93099 0.0
C417 C 0.35846 0.69348 0.94121 0.0
C418 C 0.36497 0.71569 0.95777 0.0
H419 H 0.30966 0.74477 0.95793 0.0
O420 O 0.3563 0.78935 0.88374 0.0
O421 O 0.37068 0.77526 0.93712 0.0
O422 O 0.3316 0.80976 0.94849 0.0
O423 O 0.33147 0.7789 0.99008 0.0
C424 C 0.37749 0.67612 0.93487 0.0
C425 C 0.40263 0.68132 0.94479 0.0
H426 H 0.44901 0.69826 0.96579 0.0
H427 H 0.45708 0.73919 0.99257 0.0
H428 H 0.29609 0.70585 0.92929 0.0
H429 H 0.32728 0.67303 0.91804 0.0
H430 H 0.37305 0.65885 0.92186 0.0
H431 H 0.41715 0.66798 0.93919 0.0
Mn432 Mn 0.94492 0.37709 0.78472 0.0
Mn433 Mn 0.98969 0.3938 0.72307 0.0
C434 C 0.98591 0.38212 0.8068 0.0
C435 C 0.92159 0.34653 0.81327 0.0
C436 C 0.9502 0.4282 0.75404 0.0
O437 O 0.92878 0.36965 0.73435 0.0
O438 O 0.96144 0.37796 0.69663 0.0
C439 C 0.00595 0.34457 0.69991 0.0
N440 N 0.01172 0.36717 0.7129 0.0
C441 C 0.05596 0.35789 0.71358 0.0
C442 C 0.05055 0.33456 0.6999 0.0
C443 C 0.02541 0.32785 0.69318 0.0
C444 C 0.03577 0.37372 0.71984 0.0
H445 H 0.98664 0.33939 0.69475 0.0
C446 C 0.93903 0.37045 0.70218 0.0
O447 O 0.91314 0.36865 0.81162 0.0
O448 O 0.94331 0.34217 0.79819 0.0
N449 N 0.01874 0.40977 0.74271 0.0
C450 C 0.02063 0.43259 0.75735 0.0
C451 C 0.04452 0.44214 0.76565 0.0
C452 C 0.06621 0.42829 0.75839 0.0
C453 C 0.06383 0.40501 0.74275 0.0
C454 C 0.03955 0.39658 0.7345 0.0
H455 H 0.00406 0.44343 0.76259 0.0
O456 O 0.96648 0.38389 0.82857 0.0
O457 O 0.98059 0.37829 0.77146 0.0
O458 O 0.94006 0.41337 0.77676 0.0
O459 O 0.96822 0.42258 0.73206 0.0
C460 C 0.0845 0.38955 0.73607 0.0
C461 C 0.08056 0.36596 0.72165 0.0
H462 H 0.0655 0.32161 0.69469 0.0
H463 H 0.02107 0.30984 0.68281 0.0
H464 H 0.04622 0.46016 0.77758 0.0
H465 H 0.08457 0.43565 0.76517 0.0
H466 H 0.10347 0.39547 0.7425 0.0
H467 H 0.09656 0.35412 0.7171 0.0
Mn468 Mn 0.3775 0.20305 0.54436 0.0
Mn469 Mn 0.3651 0.24994 0.48672 0.0
C470 C 0.3727 0.24172 0.5682 0.0
C471 C 0.40658 0.17842 0.57405 0.0
C472 C 0.32642 0.21222 0.50885 0.0
O473 O 0.38705 0.18997 0.4932 0.0
O474 O 0.3806 0.22317 0.45728 0.0
C475 C 0.41725 0.26415 0.46762 0.0
N476 N 0.3944 0.2699 0.48245 0.0
C477 C 0.4085 0.31017 0.49837 0.0
C478 C 0.43213 0.30473 0.48302 0.0
C479 C 0.43651 0.28162 0.46759 0.0
C480 C 0.38994 0.29212 0.49723 0.0
H481 H 0.42077 0.24633 0.45605 0.0
C482 C 0.38765 0.20107 0.46186 0.0
O483 O 0.3838 0.17076 0.56802 0.0
O484 O 0.41249 0.19988 0.56207 0.0
N485 N 0.35037 0.27697 0.51247 0.0
C486 C 0.32712 0.27875 0.5283 0.0
C487 C 0.32003 0.30048 0.54606 0.0
C488 C 0.3369 0.32011 0.54737 0.0
C489 C 0.3607 0.31787 0.53076 0.0
C490 C 0.36661 0.29588 0.51308 0.0
H491 H 0.31416 0.26364 0.52766 0.0
O492 O 0.36951 0.22298 0.58972 0.0
O493 O 0.37828 0.237 0.53361 0.0
O494 O 0.3403 0.20036 0.53142 0.0
O495 O 0.33386 0.23067 0.49021 0.0
C496 C 0.37897 0.33641 0.5318 0.0
C497 C 0.40285 0.33257 0.51559 0.0
H498 H 0.44712 0.31808 0.48328 0.0
H499 H 0.45475 0.27724 0.4559 0.0
H500 H 0.30168 0.30203 0.55894 0.0
H501 H 0.33148 0.33673 0.56151 0.0
H502 H 0.37498 0.35358 0.54542 0.0
H503 H 0.41686 0.34684 0.51701 0.0
Mn504 Mn 0.55247 0.6209 0.2946 0.0
Mn505 Mn 0.50957 0.60785 0.22759 0.0
C506 C 0.51023 0.62065 0.30988 0.0
C507 C 0.57784 0.64916 0.32496 0.0
C508 C 0.54342 0.57027 0.26397 0.0
O509 O 0.57182 0.62527 0.2461 0.0
O510 O 0.54047 0.62091 0.2039 0.0
C511 C 0.49824 0.65661 0.19708 0.0
N512 N 0.49023 0.63549 0.21291 0.0
C513 C 0.44692 0.64803 0.20877 0.0
C514 C 0.45469 0.66988 0.19226 0.0
C515 C 0.48046 0.6742 0.18646 0.0
C516 C 0.46547 0.63104 0.2183 0.0
H517 H 0.51804 0.65999 0.19259 0.0
C518 C 0.56325 0.62606 0.21274 0.0
O519 O 0.58338 0.62618 0.32537 0.0
O520 O 0.55782 0.6557 0.30678 0.0
N521 N 0.47869 0.59536 0.24719 0.0
C522 C 0.47465 0.57468 0.26724 0.0
C523 C 0.44997 0.56834 0.27734 0.0
C524 C 0.42976 0.58327 0.26663 0.0
C525 C 0.43442 0.60455 0.2463 0.0
C526 C 0.45936 0.60982 0.23671 0.0
H527 H 0.49013 0.56316 0.27549 0.0
O528 O 0.52741 0.61818 0.33546 0.0
O529 O 0.51833 0.62335 0.27568 0.0
O530 O 0.55329 0.58389 0.28879 0.0
O531 O 0.52779 0.57777 0.23955 0.0
C532 C 0.41535 0.62106 0.23602 0.0
C533 C 0.4216 0.64278 0.21726 0.0
H534 H 0.44106 0.68361 0.1844 0.0
H535 H 0.4866 0.69107 0.1739 0.0
H536 H 0.44652 0.55197 0.29328 0.0
H537 H 0.41077 0.57832 0.27434 0.0
H538 H 0.39588 0.61746 0.24309 0.0
H539 H 0.40684 0.65557 0.2102 0.0
Mn540 Mn 0.13202 0.79511 0.08279 0.0
Mn541 Mn 0.14356 0.7524 0.01721 0.0
C542 C 0.13583 0.75486 0.09991 0.0
C543 C 0.10305 0.81878 0.11464 0.0
C544 C 0.18264 0.78788 0.04591 0.0
O545 O 0.12343 0.81197 0.03386 0.0
O546 O 0.12785 0.78103 0.99279 0.0
C547 C 0.09168 0.7392 0.99487 0.0
N548 N 0.11455 0.73262 0.00882 0.0
C549 C 0.10172 0.69081 0.01369 0.0
C550 C 0.07808 0.69711 -0.00085 0.0
C551 C 0.07303 0.72142 0.98978 0.0
C552 C 0.11965 0.70927 0.01778 0.0
H553 H 0.08773 0.75788 0.98771 0.0
C554 C 0.12187 0.80298 0.00099 0.0
O555 O 0.12625 0.82587 0.11108 0.0
O556 O 0.09682 0.79814 0.09978 0.0
N557 N 0.15854 0.72377 0.03787 0.0
C558 C 0.18152 0.72112 0.05433 0.0
C559 C 0.18899 0.69814 0.06726 0.0
C560 C 0.1728 0.67813 0.06305 0.0
C561 C 0.14926 0.6813 0.04593 0.0
C562 C 0.14291 0.7046 0.03338 0.0
H563 H 0.19397 0.73647 0.0578 0.0
O564 O 0.13897 0.77191 0.12467 0.0
O565 O 0.13055 0.76206 0.06622 0.0
O566 O 0.16949 0.79784 0.0714 0.0
O567 O 0.17457 0.77142 0.02381 0.0
C568 C 0.13165 0.66236 0.04157 0.0
C569 C 0.10793 0.66709 0.02535 0.0
H570 H 0.06355 0.68349 0.99556 0.0
H571 H 0.05477 0.72645 0.97877 0.0
H572 H 0.20714 0.69586 0.08058 0.0
H573 H 0.17854 0.66047 0.07336 0.0
H574 H 0.13602 0.64415 0.05107 0.0
H575 H 0.0944 0.65247 0.02268 0.0
Mn576 Mn 0.55912 0.88542 0.78829 0.0
Mn577 Mn 0.51555 0.89667 0.72215 0.0
C578 C 0.51681 0.88481 0.80311 0.0
C579 C 0.58385 0.85728 0.81928 0.0
C580 C 0.54858 0.93545 0.75758 0.0
O581 O 0.57856 0.88177 0.73942 0.0
O582 O 0.54642 0.88389 0.69783 0.0
C583 C 0.50527 0.84658 0.69591 0.0
N584 N 0.4969 0.86782 0.71103 0.0
C585 C 0.45477 0.8521 0.71625 0.0
C586 C 0.46292 0.83015 0.70038 0.0
C587 C 0.48829 0.82738 0.69022 0.0
C588 C 0.47251 0.87069 0.72088 0.0
H589 H 0.52479 0.84427 0.68851 0.0
C590 C 0.56956 0.88015 0.70635 0.0
O591 O 0.59019 0.88009 0.81891 0.0
O592 O 0.56408 0.8509 0.80049 0.0
N593 N 0.48478 0.90865 0.74318 0.0
C594 C 0.48037 0.93024 0.76072 0.0
C595 C 0.45609 0.93549 0.77398 0.0
C596 C 0.43662 0.91852 0.7691 0.0
C597 C 0.44159 0.89645 0.75089 0.0
C598 C 0.46608 0.89233 0.73787 0.0
H599 H 0.49526 0.94331 0.76479 0.0
O600 O 0.53346 0.88761 0.82936 0.0
O601 O 0.52565 0.88255 0.76958 0.0
O602 O 0.55892 0.9221 0.78229 0.0
O603 O 0.53335 0.92755 0.73263 0.0
C604 C 0.42334 0.87814 0.74597 0.0
C605 C 0.42993 0.85599 0.72865 0.0
H606 H 0.44993 0.8152 0.69632 0.0
H607 H 0.49478 0.81042 0.67826 0.0
H608 H 0.45243 0.95252 0.78815 0.0
H609 H 0.418 0.92251 0.77979 0.0
H610 H 0.40428 0.88077 0.75592 0.0
H611 H 0.41583 0.8419 0.72556 0.0
Mn612 Mn 0.36239 0.29012 0.0597 0.0
Mn613 Mn 0.34187 0.34805 0.064 0.0
C614 C 0.38657 0.31915 0.08949 0.0
C615 C 0.36513 0.25091 0.08403 0.0
C616 C 0.36961 0.3283 0.99744 0.0
O617 O 0.32562 0.28629 0.04437 0.0
O618 O 0.31599 0.32591 0.04331 0.0
C619 C 0.30464 0.3375 0.1234 0.0
N620 N 0.32492 0.35033 0.11104 0.0
C621 C 0.32686 0.37307 0.16847 0.0
C622 C 0.30599 0.36013 0.18179 0.0
C623 C 0.29492 0.34217 0.1592 0.0
C624 C 0.33617 0.36715 0.13295 0.0
H625 H 0.29591 0.32379 0.10611 0.0
C626 C 0.31056 0.30365 0.03718 0.0
O627 O 0.36918 0.25508 0.04876 0.0
O628 O 0.35786 0.26916 0.1043 0.0
N629 N 0.36395 0.37248 0.0833 0.0
C630 C 0.38074 0.38624 0.06379 0.0
C631 C 0.39294 0.40571 0.08164 0.0
C632 C 0.38665 0.41175 0.11864 0.0
C633 C 0.36772 0.39867 0.13707 0.0
C634 C 0.35663 0.37911 0.1181 0.0
H635 H 0.38503 0.38214 0.03492 0.0
O636 O 0.39632 0.29891 0.07814 0.0
O637 O 0.36232 0.32157 0.08481 0.0
O638 O 0.37051 0.30636 0.00933 0.0
O639 O 0.36003 0.34603 0.01585 0.0
C640 C 0.35846 0.40511 0.17266 0.0
C641 C 0.33835 0.39206 0.18863 0.0
H642 H 0.29818 0.36397 0.20916 0.0
H643 H 0.27879 0.3321 0.16924 0.0
H644 H 0.4069 0.41624 0.06673 0.0
H645 H 0.39578 0.42705 0.13207 0.0
H646 H 0.36621 0.42045 0.18771 0.0
H647 H 0.33139 0.39725 0.21599 0.0
Mn648 Mn 0.94343 0.11614 0.29135 0.0
Mn649 Mn 0.99296 0.11493 0.23288 0.0
C650 C 0.98374 0.11833 0.31521 0.0
C651 C 0.91332 0.13963 0.32113 0.0
C652 C 0.96243 0.07031 0.25387 0.0
O653 O 0.92772 0.12189 0.24022 0.0
O654 O 0.96267 0.12608 0.20494 0.0
C655 C 0.99771 0.16781 0.21955 0.0
N656 N 0.00802 0.14646 0.23125 0.0
C657 C 0.04685 0.16634 0.24767 0.0
C658 C 0.03674 0.18848 0.2354 0.0
C659 C 0.01204 0.18922 0.22134 0.0
C660 C 0.03172 0.14557 0.24498 0.0
H661 H 0.97862 0.16851 0.20922 0.0
C662 C 0.93873 0.12663 0.2094 0.0
O663 O 0.90947 0.11653 0.31592 0.0
O664 O 0.93392 0.14887 0.30822 0.0
N665 N 0.0235 0.10473 0.25664 0.0
C666 C 0.02993 0.08221 0.26929 0.0
C667 C 0.05385 0.07849 0.28503 0.0
C668 C 0.07092 0.09793 0.28755 0.0
C669 C 0.06395 0.12089 0.27408 0.0
C670 C 0.03999 0.12342 0.25818 0.0
H671 H 0.01687 0.06722 0.26756 0.0
O672 O 0.96514 0.11238 0.3368 0.0
O673 O 0.97789 0.12332 0.2808 0.0
O674 O 0.94836 0.08042 0.27828 0.0
O675 O 0.97874 0.08163 0.23411 0.0
C676 C 0.07966 0.14147 0.27648 0.0
C677 C 0.07109 0.16418 0.26336 0.0
H678 H 0.04765 0.20508 0.23705 0.0
H679 H 0.00403 0.20628 0.21214 0.0
H680 H 0.05907 0.06072 0.29541 0.0
H681 H 0.08923 0.09506 0.30013 0.0
H682 H 0.09822 0.1401 0.28887 0.0
H683 H 0.08318 0.17995 0.26593 0.0
Mn684 Mn 0.1183 0.69124 0.53545 0.0
Mn685 Mn 0.12867 0.63068 0.53532 0.0
C686 C 0.08763 0.66494 0.55724 0.0
C687 C 0.12119 0.72856 0.56662 0.0
C688 C 0.11189 0.65843 0.46643 0.0
O689 O 0.15622 0.68941 0.52616 0.0
O690 O 0.16042 0.64883 0.52875 0.0
C691 C 0.15672 0.63031 0.60694 0.0
N692 N 0.13726 0.62209 0.58552 0.0
C693 C 0.12233 0.59669 0.63542 0.0
C694 C 0.14242 0.60457 0.65784 0.0
C695 C 0.15959 0.62159 0.6436 0.0
C696 C 0.12018 0.60633 0.59936 0.0
H697 H 0.16986 0.64353 0.59627 0.0
C698 C 0.16957 0.67017 0.52519 0.0
O699 O 0.11859 0.72758 0.53046 0.0
O700 O 0.12346 0.70803 0.58396 0.0
N701 N 0.10004 0.61004 0.54177 0.0
C702 C 0.08352 0.60216 0.51518 0.0
C703 C 0.06536 0.58466 0.52459 0.0
C704 C 0.06489 0.57487 0.56087 0.0
C705 C 0.08302 0.58221 0.58708 0.0
C706 C 0.10066 0.5997 0.57606 0.0
H707 H 0.08406 0.60931 0.48707 0.0
O708 O 0.08195 0.68702 0.54807 0.0
O709 O 0.11128 0.65916 0.55502 0.0
O710 O 0.11133 0.67949 0.48179 0.0
O711 O 0.11866 0.63904 0.48356 0.0
C712 C 0.08488 0.57218 0.62323 0.0
C713 C 0.10456 0.57944 0.64734 0.0
H714 H 0.1448 0.59772 0.68603 0.0
H715 H 0.17503 0.62794 0.66081 0.0
H716 H 0.05181 0.57867 0.5039 0.0
H717 H 0.0509 0.56134 0.56802 0.0
H718 H 0.07157 0.55856 0.63247 0.0
H719 H 0.10631 0.5713 0.67471 0.0
Mn720 Mn 0.56564 0.12814 0.70707 0.0
Mn721 Mn 0.5176 0.11781 0.76581 0.0
C722 C 0.52472 0.13046 0.68565 0.0
C723 C 0.59275 0.15632 0.68131 0.0
C724 C 0.55115 0.07817 0.73373 0.0
O725 O 0.58194 0.12994 0.75853 0.0
O726 O 0.5473 0.12883 0.79523 0.0
C727 C 0.50811 0.1681 0.79171 0.0
N728 N 0.4997 0.14737 0.77503 0.0
C729 C 0.4591 0.16527 0.7634 0.0
C730 C 0.46722 0.18668 0.78097 0.0
C731 C 0.49186 0.18811 0.79511 0.0
C732 C 0.47605 0.14582 0.76121 0.0
H733 H 0.52715 0.16943 0.802 0.0
C734 C 0.57107 0.1314 0.79031 0.0
O735 O 0.5986 0.13336 0.68098 0.0
O736 O 0.57225 0.16267 0.69814 0.0
N737 N 0.48783 0.10746 0.74002 0.0
C738 C 0.4835 0.08618 0.72155 0.0
C739 C 0.46001 0.0822 0.70455 0.0
C740 C 0.44124 0.10012 0.70667 0.0
C741 C 0.44608 0.12183 0.72594 0.0
C742 C 0.46973 0.12465 0.74278 0.0
H743 H 0.49789 0.07239 0.7196 0.0
O744 O 0.54306 0.1276 0.66215 0.0
O745 O 0.53116 0.13201 0.72053 0.0
O746 O 0.56364 0.09137 0.71113 0.0
O747 O 0.5347 0.08636 0.75667 0.0
C748 C 0.42859 0.14102 0.72834 0.0
C749 C 0.43509 0.16272 0.74704 0.0
H750 H 0.45483 0.20224 0.78327 0.0
H751 H 0.49837 0.20466 0.80833 0.0
H752 H 0.45645 0.06542 0.68961 0.0
H753 H 0.42327 0.09712 0.69307 0.0
H754 H 0.41021 0.13941 0.71541 0.0
H755 H 0.42162 0.17748 0.74819 0.0
Mn756 Mn 0.12202 0.2849 0.94421 0.0
Mn757 Mn 0.12677 0.34623 0.94718 0.0
C758 C 0.08918 0.30828 0.92183 0.0
C759 C 0.1281 0.24818 0.91259 0.0
C760 C 0.11257 0.31565 0.01433 0.0
O761 O 0.15936 0.28994 0.95452 0.0
O762 O 0.16034 0.33077 0.95277 0.0
C763 C 0.15546 0.35387 0.87717 0.0
N764 N 0.13525 0.35902 0.89918 0.0
C765 C 0.12198 0.39114 0.85798 0.0
C766 C 0.14269 0.38623 0.83487 0.0
C767 C 0.15941 0.36741 0.84439 0.0
C768 C 0.11887 0.37686 0.89003 0.0
H769 H 0.16853 0.33966 0.88475 0.0
C770 C 0.17115 0.31008 0.95615 0.0
O771 O 0.12545 0.24877 0.94874 0.0
O772 O 0.12905 0.26891 0.89553 0.0
N773 N 0.0962 0.36428 0.94218 0.0
C774 C 0.07597 0.36508 0.96554 0.0
C775 C 0.05662 0.3819 0.95866 0.0
C776 C 0.05859 0.39811 0.92845 0.0
C777 C 0.07976 0.39717 0.90509 0.0
C778 C 0.09824 0.37976 0.91298 0.0
H779 H 0.07461 0.35294 0.98918 0.0
O780 O 0.08595 0.28577 0.93115 0.0
O781 O 0.11214 0.31669 0.92453 0.0
O782 O 0.11322 0.29485 0.99833 0.0
O783 O 0.11772 0.33553 0.99774 0.0
C784 C 0.08304 0.41247 0.87385 0.0
C785 C 0.10413 0.40943 0.85028 0.0
H786 H 0.14584 0.39668 0.80963 0.0
H787 H 0.1754 0.36348 0.82665 0.0
H788 H 0.04034 0.38252 0.97681 0.0
H789 H 0.04365 0.41109 0.92328 0.0
H790 H 0.06912 0.42617 0.8671 0.0
H791 H 0.10615 0.4209 0.82587 0.0
Mn792 Mn 0.94003 0.88123 0.22644 0.0
Mn793 Mn 0.98549 0.88008 0.2919 0.0
C794 C 0.98139 0.87444 0.20942 0.0
C795 C 0.91054 0.85976 0.19195 0.0
C796 C 0.95999 0.92627 0.26479 0.0
O797 O 0.92052 0.87795 0.2753 0.0
O798 O 0.95285 0.87153 0.31542 0.0
C799 C 0.98579 0.8274 0.30852 0.0
N800 N 0.99818 0.84774 0.29711 0.0
C801 C 0.03638 0.82512 0.28718 0.0
C802 C 0.02411 0.80399 0.29928 0.0
C803 C -0.00131 0.80514 0.30992 0.0
C804 C 0.02261 0.84683 0.28667 0.0
H805 H 0.96618 0.82813 0.31618 0.0
C806 C 0.92932 0.87276 0.30761 0.0
O807 O 0.90836 0.88315 0.19598 0.0
O808 O 0.92878 0.84904 0.20934 0.0
N809 N 0.01795 0.88775 0.27187 0.0
C810 C 0.02657 0.90943 0.25865 0.0
C811 C 0.05149 0.91122 0.24586 0.0
C812 C 0.06728 0.89075 0.2468 0.0
C813 C 0.05803 0.86867 0.26067 0.0
C814 C 0.03313 0.86805 0.2735 0.0
H815 H 0.01451 0.9252 0.2577 0.0
O816 O 0.96523 0.88176 0.18467 0.0
O817 O 0.97264 0.87139 0.24287 0.0
O818 O 0.94714 0.91672 0.23845 0.0
O819 O 0.97383 0.91418 0.28745 0.0
C820 C 0.07236 0.84713 0.26149 0.0
C821 C 0.06153 0.82536 0.27469 0.0
H822 H 0.03393 0.78674 0.30007 0.0
H823 H 0.98901 0.78886 0.31894 0.0
H824 H 0.05846 0.92831 0.23507 0.0
H825 H 0.08638 0.89213 0.23645 0.0
H826 H 0.0916 0.84702 0.25152 0.0
H827 H 0.07262 0.80884 0.27465 0.0
Mn828 Mn 0.36327 0.69427 0.43917 0.0
Mn829 Mn 0.34722 0.63513 0.44169 0.0
C830 C 0.39177 0.66512 0.42058 0.0
C831 C 0.36528 0.73045 0.40514 0.0
C832 C 0.36766 0.6616 0.50914 0.0
O833 O 0.32544 0.69657 0.44676 0.0
O834 O 0.31838 0.65667 0.45357 0.0
C835 C 0.31506 0.63893 0.37415 0.0
N836 N 0.33496 0.62866 0.39229 0.0
C837 C 0.34565 0.60486 0.33799 0.0
C838 C 0.32525 0.61517 0.3188 0.0
C839 C 0.30991 0.6323 0.33696 0.0
C840 C 0.35008 0.61246 0.37483 0.0
H841 H 0.30325 0.65218 0.38786 0.0
C842 C 0.31108 0.6788 0.45449 0.0
O843 O 0.36695 0.73068 0.4415 0.0
O844 O 0.36076 0.70972 0.38956 0.0
N845 N 0.37242 0.61131 0.4308 0.0
C846 C 0.38779 0.5996 0.45543 0.0
C847 C 0.40347 0.58078 0.44266 0.0
C848 C 0.40236 0.57347 0.40504 0.0
C849 C 0.38481 0.58435 0.381 0.0
C850 C 0.3697 0.60301 0.3954 0.0
H851 H 0.38842 0.60491 0.48442 0.0
O852 O 0.39912 0.6868 0.42918 0.0
O853 O 0.36756 0.66133 0.42101 0.0
O854 O 0.36778 0.6828 0.49396 0.0
O855 O 0.36114 0.64207 0.49187 0.0
C856 C 0.38089 0.57661 0.34388 0.0
C857 C 0.36149 0.58705 0.32223 0.0
H858 H 0.32109 0.60995 0.29021 0.0
H859 H 0.29413 0.64035 0.32235 0.0
H860 H 0.41632 0.57191 0.46178 0.0
H861 H 0.41441 0.55891 0.39526 0.0
H862 H 0.39232 0.56223 0.33204 0.0
H863 H 0.35853 0.58081 0.2938 0.0
Mn864 Mn 0.45943 0.11664 0.22299 0.0
Mn865 Mn 0.50849 0.10078 0.27786 0.0
C866 C 0.49826 0.11031 0.19561 0.0
C867 C 0.43399 0.14719 0.19854 0.0
C868 C 0.4663 0.06633 0.25598 0.0
O869 O 0.4476 0.12453 0.27545 0.0
O870 O 0.48304 0.1181 0.30875 0.0
C871 C 0.52902 0.14892 0.29873 0.0
N872 N 0.53235 0.12645 0.28352 0.0
C873 C 0.57672 0.13346 0.2755 0.0
C874 C 0.57381 0.15666 0.2912 0.0
C875 C 0.54983 0.16446 0.30272 0.0
C876 C 0.55531 0.11878 0.27229 0.0
H877 H 0.51064 0.15488 0.30784 0.0
C878 C 0.46019 0.1253 0.3058 0.0
O879 O 0.42574 0.12508 0.20165 0.0
O880 O 0.45685 0.1515 0.20939 0.0
N881 N 0.53459 0.08401 0.25163 0.0
C882 C 0.53372 0.06197 0.23427 0.0
C883 C 0.55597 0.05186 0.21987 0.0
C884 C 0.57882 0.06446 0.22365 0.0
C885 C 0.57918 0.08728 0.24112 0.0
C886 C 0.55647 0.09633 0.25521 0.0
H887 H 0.51624 0.05209 0.23175 0.0
O888 O 0.47767 0.10953 0.17605 0.0
O889 O 0.49557 0.11534 0.23115 0.0
O890 O 0.45503 0.0802 0.23285 0.0
O891 O 0.48565 0.07269 0.27468 0.0
C892 C 0.60112 0.10145 0.24494 0.0
C893 C 0.59989 0.12455 0.26205 0.0
H894 H 0.58978 0.16874 0.29416 0.0
H895 H 0.54742 0.18237 0.31473 0.0
H896 H 0.55555 0.03428 0.20626 0.0
H897 H 0.596 0.05639 0.21326 0.0
H898 H 0.61899 0.09491 0.23443 0.0
H899 H 0.6168 0.13546 0.2642 0.0
Mn900 Mn 0.62666 0.70065 0.95072 0.0
Mn901 Mn 0.62408 0.74448 0.01672 0.0
C902 C 0.62336 0.74078 0.93347 0.0
C903 C 0.6057 0.67249 0.91398 0.0
C904 C 0.67212 0.71896 0.99434 0.0
O905 O 0.61842 0.68196 0.99796 0.0
O906 O 0.61505 0.71273 0.03951 0.0
C907 C 0.56914 0.74404 0.03032 0.0
N908 N 0.5903 0.75625 0.01992 0.0
C909 C 0.56671 0.79293 0.00919 0.0
C910 C 0.54469 0.7808 0.02004 0.0
C911 C 0.54592 0.75624 0.03062 0.0
C912 C 0.58934 0.77989 0.00975 0.0
H913 H 0.56997 0.72512 0.03821 0.0
C914 C 0.61403 0.69016 0.03068 0.0
O915 O 0.62947 0.66973 0.92144 0.0
O916 O 0.59427 0.69113 0.92813 0.0
N917 N 0.63224 0.77609 0.99799 0.0
C918 C 0.655 0.78482 0.9867 0.0
C919 C 0.65691 0.80897 0.97436 0.0
C920 C 0.63544 0.82388 0.97384 0.0
C921 C 0.61228 0.81455 0.98591 0.0
C922 C 0.61157 0.79043 0.99829 0.0
H923 H 0.67152 0.77338 0.98682 0.0
O924 O 0.63173 0.72479 0.90982 0.0
O925 O 0.61701 0.73263 0.96622 0.0
O926 O 0.66279 0.70569 0.96853 0.0
O927 O 0.65942 0.7337 0.01448 0.0
C928 C 0.58978 0.82811 0.98552 0.0
C929 C 0.56701 0.81731 0.99715 0.0
H930 H 0.52671 0.79009 0.02005 0.0
H931 H 0.52898 0.74672 0.03883 0.0
H932 H 0.67484 0.81602 0.96502 0.0
H933 H 0.63693 0.84241 0.96388 0.0
H934 H 0.58972 0.84678 0.97595 0.0
H935 H 0.54979 0.82784 0.99635 0.0
Mn936 Mn 0.05854 0.86723 0.73242 0.0
Mn937 Mn 0.01758 0.88785 0.79732 0.0
C938 C 0.01717 0.87392 0.71532 0.0
C939 C 0.07874 0.83439 0.70395 0.0
C940 C 0.05806 0.91902 0.76146 0.0
O941 O 0.07617 0.86084 0.78183 0.0
O942 O 0.0453 0.87013 0.82284 0.0
C943 C 0.99689 0.84243 0.82915 0.0
N944 N 0.99321 0.86415 0.81178 0.0
C945 C 0.94822 0.85917 0.81369 0.0
C946 C 0.95152 0.83677 0.83173 0.0
C947 C 0.97596 0.82836 0.83946 0.0
C948 C 0.96977 0.87259 0.80467 0.0
H949 H 0.01566 0.83594 0.83514 0.0
C950 C 0.06717 0.86167 0.81492 0.0
O951 O 0.08842 0.85605 0.70283 0.0
O952 O 0.05774 0.83181 0.7219 0.0
N953 N 0.98987 0.90507 0.77571 0.0
C954 C 0.99011 0.92575 0.75479 0.0
C955 C 0.96724 0.93588 0.74276 0.0
C956 C 0.94441 0.92467 0.75242 0.0
C957 C 0.94465 0.9033 0.77374 0.0
C958 C 0.96801 0.89416 0.78521 0.0
H959 H 0.00761 0.93441 0.74725 0.0
O960 O 0.03497 0.8732 0.69047 0.0
O961 O 0.02417 0.87054 0.74997 0.0
O962 O 0.0656 0.90383 0.73694 0.0
O963 O 0.04116 0.91425 0.78559 0.0
C964 C 0.92267 0.89039 0.78328 0.0
C965 C 0.92446 0.86837 0.8033 0.0
H966 H 0.93545 0.82573 0.83936 0.0
H967 H 0.97865 0.81106 0.85328 0.0
H968 H 0.9672 0.95228 0.72609 0.0
H969 H 0.92684 0.93254 0.74308 0.0
H970 H 0.90434 0.89702 0.77477 0.0
H971 H 0.90746 0.85839 0.8099 0.0
Mn972 Mn 0.8681 0.29139 0.45773 0.0
Mn973 Mn 0.85062 0.24611 0.51568 0.0
C974 C 0.86603 0.25187 0.43621 0.0
C975 C 0.89912 0.31589 0.4319 0.0
C976 C 0.81437 0.28296 0.48329 0.0
O977 O 0.87254 0.30607 0.50967 0.0
O978 O 0.86355 0.27364 0.54607 0.0
C979 C 0.9003 0.23224 0.54652 0.0
N980 N 0.87903 0.22618 0.52736 0.0
C981 C 0.89379 0.18528 0.51798 0.0
C982 C 0.9158 0.19103 0.53781 0.0
C983 C 0.91906 0.21462 0.55212 0.0
C984 C 0.87562 0.20351 0.51366 0.0
H985 H 0.90297 0.2504 0.55732 0.0
C986 C 0.87057 0.29575 0.5416 0.0
O987 O 0.87584 0.32302 0.43311 0.0
O988 O 0.90447 0.29502 0.44673 0.0
N989 N 0.83815 0.21844 0.48895 0.0
C990 C 0.81668 0.21635 0.46829 0.0
C991 C 0.81105 0.19413 0.45081 0.0
C992 C 0.82753 0.17433 0.45473 0.0
C993 C 0.84948 0.1769 0.4762 0.0
C994 C 0.85397 0.1994 0.49329 0.0
H995 H 0.80406 0.23158 0.46494 0.0
O996 O 0.86472 0.26985 0.41276 0.0
O997 O 0.86819 0.25778 0.4712 0.0
O998 O 0.83003 0.29392 0.4624 0.0
O999 O 0.82008 0.26534 0.5049 0.0
C1000 C 0.86734 0.15819 0.48061 0.0
C1001 C 0.88947 0.16237 0.50152 0.0
H1002 H 0.93042 0.17756 0.54188 0.0
H1003 H 0.93605 0.21923 0.56728 0.0
H1004 H 0.79413 0.19232 0.43414 0.0
H1005 H 0.82327 0.15731 0.44083 0.0
H1006 H 0.86442 0.14062 0.46761 0.0
H1007 H 0.90322 0.14794 0.5043 0.0
Mn1008 Mn 0.44963 0.87478 0.277 0.0
Mn1009 Mn 0.49464 0.88674 0.2128 0.0
C1010 C 0.4912 0.87671 0.29585 0.0
C1011 C 0.4241 0.84714 0.30838 0.0
C1012 C 0.45817 0.92448 0.24265 0.0
O1013 O 0.43239 0.8678 0.22732 0.0
O1014 O 0.46512 0.8719 0.18747 0.0
C1015 C 0.50889 0.83754 0.18679 0.0
N1016 N 0.51547 0.85934 0.20198 0.0
C1017 C 0.55929 0.84823 0.20272 0.0
C1018 C 0.55299 0.82567 0.18696 0.0
C1019 C 0.52768 0.8203 0.17901 0.0
C1020 C 0.53981 0.86483 0.20931 0.0
H1021 H 0.48945 0.83337 0.18064 0.0
C1022 C 0.44224 0.86625 0.1948 0.0
O1023 O 0.41782 0.86987 0.30576 0.0
O1024 O 0.44483 0.8404 0.29228 0.0
N1025 N 0.5242 0.90089 0.23425 0.0
C1026 C 0.52666 0.92225 0.25321 0.0
C1027 C 0.55061 0.92973 0.26525 0.0
C1028 C 0.57173 0.91518 0.25762 0.0
C1029 C 0.56869 0.89316 0.23838 0.0
C1030 C 0.5444 0.88677 0.22676 0.0
H1031 H 0.51047 0.93347 0.25914 0.0
O1032 O 0.47298 0.87992 0.31954 0.0
O1033 O 0.48452 0.87255 0.26126 0.0
O1034 O 0.44782 0.91148 0.26772 0.0
O1035 O 0.47503 0.91663 0.22045 0.0
C1036 C 0.5887 0.87702 0.23112 0.0
C1037 C 0.584 0.85458 0.21326 0.0
H1038 H 0.56739 0.81222 0.18131 0.0
H1039 H 0.52267 0.8029 0.16699 0.0
H1040 H 0.5528 0.94666 0.28035 0.0
H1041 H 0.59015 0.92101 0.26689 0.0
H1042 H 0.60769 0.88148 0.2398 0.0
H1043 H 0.59946 0.84211 0.2085 0.0
Mn1044 Mn 0.86778 0.71691 0.03126 0.0
Mn1045 Mn 0.86592 0.76476 0.97228 0.0
C1046 C 0.8693 0.75595 0.05441 0.0
C1047 C 0.89048 0.68749 0.06324 0.0
C1048 C 0.82015 0.73512 0.99275 0.0
O1049 O 0.87604 0.7018 0.98096 0.0
O1050 O 0.87574 0.73506 0.94403 0.0
C1051 C 0.92016 0.76822 0.95427 0.0
N1052 N 0.89885 0.77849 0.96835 0.0
C1053 C 0.92066 0.81579 0.98203 0.0
C1054 C 0.94281 0.80566 0.96745 0.0
C1055 C 0.94255 0.78177 0.95352 0.0
C1056 C 0.89885 0.80151 0.98162 0.0
H1057 H 0.92007 0.74982 0.94371 0.0
C1058 C 0.87852 0.71216 0.94924 0.0
O1059 O 0.86685 0.6842 0.05541 0.0
O1060 O 0.90093 0.70744 0.05187 0.0
N1061 N 0.85682 0.79456 0.99643 0.0
C1062 C 0.83421 0.80114 0.01128 0.0
C1063 C 0.83152 0.82424 0.02757 0.0
C1064 C 0.85204 0.84033 0.02829 0.0
C1065 C 0.87507 0.8332 0.01257 0.0
C1066 C 0.87658 0.81003 0.99647 0.0
H1067 H 0.81843 0.78877 0.01102 0.0
O1068 O 0.86214 0.73817 0.07575 0.0
O1069 O 0.87534 0.75022 0.02029 0.0
O1070 O 0.83115 0.72078 0.01546 0.0
O1071 O 0.83126 0.7521 0.97495 0.0
C1072 C 0.89672 0.84799 0.01291 0.0
C1073 C 0.91948 0.83931 0.99759 0.0
H1074 H 0.96017 0.81599 0.96709 0.0
H1075 H 0.9596 0.7738 0.94236 0.0
H1076 H 0.81371 0.82958 0.03974 0.0
H1077 H 0.84996 0.85803 0.04123 0.0
H1078 H 0.89614 0.86597 0.02525 0.0
H1079 H 0.93606 0.85075 0.99836 0.0
Mn1080 Mn 0.05324 0.11038 0.75956 0.0
Mn1081 Mn 0.00704 0.09013 0.70299 0.0
C1082 C 0.01317 0.10593 0.78401 0.0
C1083 C 0.07676 0.14288 0.78279 0.0
C1084 C 0.04996 0.0587 0.73174 0.0
O1085 O 0.06681 0.11536 0.70706 0.0
O1086 O 0.03221 0.10774 0.67212 0.0
C1087 C 0.98332 0.13499 0.67401 0.0
N1088 N 0.98142 0.11353 0.69274 0.0
C1089 C 0.93662 0.11831 0.69958 0.0
C1090 C 0.93809 0.14049 0.6804 0.0
C1091 C 0.96154 0.14886 0.6676 0.0
C1092 C 0.9589 0.10514 0.70478 0.0
H1093 H 0.00131 0.14144 0.66408 0.0
C1094 C 0.05494 0.11525 0.67593 0.0
O1095 O 0.08567 0.1209 0.78314 0.0
O1096 O 0.05453 0.14597 0.76859 0.0
N1097 N 0.98168 0.07307 0.7303 0.0
C1098 C 0.9839 0.0524 0.75098 0.0
C1099 C 0.96233 0.04203 0.76701 0.0
C1100 C 0.93875 0.05301 0.76161 0.0
C1101 C 0.93697 0.07449 0.74067 0.0
C1102 C 0.95909 0.08384 0.72505 0.0
H1103 H 0.00195 0.04381 0.75508 0.0
O1104 O 0.03289 0.10597 0.80552 0.0
O1105 O 0.01764 0.10811 0.74822 0.0
O1106 O 0.05899 0.07362 0.75548 0.0
O1107 O 0.03162 0.06382 0.71022 0.0
C1108 C 0.91421 0.08713 0.73501 0.0
C1109 C 0.91405 0.10905 0.71455 0.0
H1110 H 0.92138 0.15135 0.67567 0.0
H1111 H 0.96282 0.16598 0.65285 0.0
H1112 H 0.96385 0.02553 0.78332 0.0
H1113 H 0.92219 0.04474 0.77369 0.0
H1114 H 0.89677 0.08033 0.74662 0.0
H1115 H 0.8965 0.11881 0.71093 0.0
Mn1116 Mn 0.61924 0.31569 0.55096 0.0
Mn1117 Mn 0.62818 0.27116 0.48729 0.0
C1118 C 0.62205 0.27574 0.56972 0.0
C1119 C 0.59147 0.34009 0.58416 0.0
C1120 C 0.66971 0.30445 0.51447 0.0
O1121 O 0.61037 0.33212 0.5018 0.0
O1122 O 0.61488 0.30054 0.46196 0.0
C1123 C 0.57498 0.26214 0.46683 0.0
N1124 N 0.59736 0.2538 0.4803 0.0
C1125 C 0.58037 0.21367 0.48904 0.0
C1126 C 0.55719 0.22179 0.47501 0.0
C1127 C 0.55449 0.24614 0.4639 0.0
C1128 C 0.60019 0.2304 0.49101 0.0
H1129 H 0.57278 0.28088 0.4585 0.0
C1130 C 0.60923 0.3227 0.4692 0.0
O1131 O 0.61465 0.34691 0.57913 0.0
O1132 O 0.58448 0.31975 0.56921 0.0
N1133 N 0.64077 0.24162 0.50852 0.0
C1134 C 0.66393 0.23704 0.52334 0.0
C1135 C 0.66947 0.21369 0.53685 0.0
C1136 C 0.65118 0.19529 0.53487 0.0
C1137 C 0.62756 0.20038 0.5192 0.0
C1138 C 0.62321 0.22393 0.50584 0.0
H1139 H 0.67801 0.25114 0.52511 0.0
O1140 O 0.62617 0.29311 0.59355 0.0
O1141 O 0.6163 0.28239 0.53598 0.0
O1142 O 0.65676 0.31657 0.53807 0.0
O1143 O 0.66074 0.28766 0.49365 0.0
C1144 C 0.608 0.18315 0.51698 0.0
C1145 C 0.58442 0.18979 0.50192 0.0
H1146 H 0.54128 0.20955 0.47298 0.0
H1147 H 0.53661 0.25257 0.45325 0.0
H1148 H 0.68772 0.20991 0.54898 0.0
H1149 H 0.65542 0.17738 0.54573 0.0
H1150 H 0.61078 0.16483 0.52724 0.0
H1151 H 0.56943 0.17647 0.50082 0.0
H1152 H 0.04469 0.32749 0.15647 0.0
H1153 H 0.09762 0.38518 0.17857 0.0
H1154 H 0.12215 0.37325 0.12355 0.0
H1155 H 0.12678 0.34813 0.06702 0.0
H1156 H 0.07516 0.28909 0.04675 0.0
H1157 H 0.05223 0.29931 0.10408 0.0
C1158 C 0.06163 0.33738 0.14933 0.0
C1159 C 0.06913 0.35744 0.17114 0.0
C1160 C 0.07598 0.32999 0.11835 0.0
C1161 C 0.0914 0.3698 0.16199 0.0
C1162 C 0.10542 0.36296 0.13063 0.0
C1163 C 0.1108 0.3372 0.07561 0.0
C1164 C 0.10258 0.31794 0.05271 0.0
C1165 C 0.0977 0.34328 0.10838 0.0
C1166 C 0.08198 0.30383 0.06414 0.0
C1167 C 0.06869 0.30987 0.09664 0.0
H1168 H 0.92904 0.83459 0.35403 0.0
H1169 H 0.89125 0.90218 0.33107 0.0
H1170 H 0.8684 0.89916 0.3906 0.0
H1171 H 0.86305 0.8792 0.45217 0.0
H1172 H 0.90048 0.81079 0.47285 0.0
H1173 H 0.91944 0.8121 0.41106 0.0
C1174 C 0.91542 0.84839 0.36181 0.0
C1175 C 0.91183 0.86862 0.33869 0.0
C1176 C 0.90253 0.84649 0.39578 0.0
C1177 C 0.89408 0.88637 0.3486 0.0
C1178 C 0.88124 0.88473 0.3827 0.0
C1179 C 0.87512 0.86448 0.44292 0.0
C1180 C 0.88058 0.84511 0.46731 0.0
C1181 C 0.88591 0.8652 0.40703 0.0
C1182 C 0.89597 0.82596 0.45475 0.0
C1183 C 0.90693 0.82669 0.41942 0.0
H1184 H 0.42012 0.66719 0.66818 0.0
H1185 H 0.42962 0.59084 0.64509 0.0
H1186 H 0.40431 0.59469 0.58823 0.0
H1187 H 0.38198 0.61997 0.54363 0.0
H1188 H 0.37633 0.69736 0.56158 0.0
H1189 H 0.39718 0.69292 0.62235 0.0
C1190 C 0.4163 0.65145 0.65076 0.0
C1191 C 0.42646 0.62875 0.66056 0.0
C1192 C 0.40254 0.65402 0.61732 0.0
C1193 C 0.42189 0.60845 0.63781 0.0
C1194 C 0.40746 0.61065 0.60541 0.0
C1195 C 0.38517 0.63595 0.56066 0.0
C1196 C 0.37775 0.65899 0.5477 0.0
C1197 C 0.39806 0.6334 0.59462 0.0
C1198 C 0.38196 0.67939 0.57067 0.0
C1199 C 0.39394 0.67687 0.6054 0.0
H1200 H 0.5602 0.16192 0.84693 0.0
H1201 H 0.61658 0.11162 0.80791 0.0
H1202 H 0.64039 0.11705 0.8662 0.0
H1203 H 0.64375 0.13474 0.9297 0.0
H1204 H 0.58859 0.18734 0.96579 0.0
H1205 H 0.56574 0.18257 0.90701 0.0
C1206 C 0.57778 0.15229 0.85113 0.0
C1207 C 0.58658 0.13623 0.8236 0.0
C1208 C 0.59151 0.15592 0.88413 0.0
C1209 C 0.60955 0.1241 0.82893 0.0
C1210 C 0.62306 0.12713 0.86222 0.0
C1211 C 0.62684 0.14525 0.92443 0.0
C1212 C 0.61774 0.16124 0.95198 0.0
C1213 C 0.61403 0.14277 0.89023 0.0
C1214 C 0.59599 0.17501 0.94485 0.0
C1215 C 0.58285 0.17221 0.91137 0.0
H1216 H 0.04664 0.6567 0.31919 0.0
H1217 H 0.07939 0.58535 0.31027 0.0
H1218 H 0.10512 0.59313 0.36616 0.0
H1219 H 0.11586 0.61932 0.41973 0.0
H1220 H 0.08366 0.69126 0.42724 0.0
H1221 H 0.06049 0.68436 0.36929 0.0
C1222 C 0.05949 0.64295 0.32955 0.0
C1223 C 0.06099 0.6204 0.31136 0.0
C1224 C 0.07434 0.64771 0.36123 0.0
C1225 C 0.07797 0.60279 0.32423 0.0
C1226 C 0.0926 0.60724 0.35609 0.0
C1227 C 0.10405 0.63363 0.40847 0.0
C1228 C 0.10138 0.6557 0.42815 0.0
C1229 C 0.09064 0.62952 0.37515 0.0
C1230 C 0.08615 0.6741 0.41282 0.0
C1231 C 0.07271 0.67012 0.37977 0.0
H1232 H 0.63772 0.87433 0.56379 0.0
H1233 H 0.59301 0.80975 0.5465 0.0
H1234 H 0.57311 0.81545 0.60732 0.0
H1235 H 0.56559 0.84082 0.66253 0.0
H1236 H 0.61052 0.9048 0.68134 0.0
H1237 H 0.63359 0.89717 0.62295 0.0
C1238 C 0.62379 0.86141 0.57354 0.0
C1239 C 0.61659 0.84184 0.55052 0.0
C1240 C 0.61251 0.8647 0.60867 0.0
C1241 C 0.59884 0.82498 0.56368 0.0
C1242 C 0.58738 0.82826 0.59839 0.0
C1243 C 0.58067 0.85285 0.65398 0.0
C1244 C 0.58635 0.87339 0.6756 0.0
C1245 C 0.59366 0.84834 0.62066 0.0
C1246 C 0.60605 0.88881 0.66489 0.0
C1247 C 0.61904 0.88454 0.63149 0.0
H1248 H 0.35435 0.35948 0.94283 0.0
H1249 H 0.41358 0.30953 0.97284 0.0
H1250 H 0.437 0.32056 0.91662 0.0
H1251 H 0.44127 0.34527 0.86021 0.0
H1252 H 0.38073 0.39244 0.8261 0.0
H1253 H 0.35704 0.38169 0.88265 0.0
C1254 C 0.37231 0.35096 0.93678 0.0
C1255 C 0.38233 0.33381 0.96184 0.0
C1256 C 0.3854 0.35696 0.90389 0.0
C1257 C 0.40547 0.32266 0.95374 0.0
C1258 C 0.41891 0.32904 0.92175 0.0
C1259 C 0.42287 0.35313 0.86509 0.0
C1260 C 0.41283 0.36978 0.83938 0.0
C1261 C 0.40916 0.3463 0.89684 0.0
C1262 C 0.38879 0.37958 0.84567 0.0
C1263 C 0.37531 0.37348 0.87796 0.0
H1264 H 0.86957 0.12808 0.06632 0.0
H1265 H 0.9211 0.18549 0.03646 0.0
H1266 H 0.94199 0.18188 0.09693 0.0
H1267 H 0.94781 0.16025 0.15621 0.0
H1268 H 0.89504 0.10465 0.18851 0.0
H1269 H 0.87227 0.1098 0.12935 0.0
C1270 C 0.88518 0.13996 0.07332 0.0
C1271 C 0.89389 0.15688 0.04689 0.0
C1272 C 0.89694 0.13803 0.10844 0.0
C1273 C 0.91396 0.17238 0.05639 0.0
C1274 C 0.92603 0.17024 0.09088 0.0
C1275 C 0.93114 0.14949 0.15041 0.0
C1276 C 0.92319 0.13196 0.17629 0.0
C1277 C 0.91801 0.15282 0.11678 0.0
C1278 C 0.90142 0.1183 0.16886 0.0
C1279 C 0.88851 0.12115 0.13502 0.0
H1280 H 0.90327 0.66293 0.79441 0.0
H1281 H 0.93932 0.61103 0.8672 0.0
H1282 H 0.92347 0.63281 0.92211 0.0
H1283 H 0.90219 0.66837 0.94914 0.0
H1284 H 0.86935 0.72206 0.87585 0.0
H1285 H 0.88119 0.69788 0.82136 0.0
C1286 C 0.90718 0.65613 0.82231 0.0
C1287 C 0.92219 0.63534 0.82691 0.0
C1288 C 0.89892 0.66927 0.85359 0.0
C1289 C 0.92768 0.62699 0.86313 0.0
C1290 C 0.91873 0.63947 0.89445 0.0
C1291 C 0.89744 0.67465 0.92125 0.0
C1292 C 0.885 0.69699 0.91653 0.0
C1293 C 0.9048 0.66093 0.89 0.0
C1294 C 0.87914 0.70502 0.88021 0.0
C1295 C 0.88581 0.69117 0.84904 0.0
H1296 H 0.08948 0.16181 0.52346 0.0
H1297 H 0.13966 0.19973 0.59861 0.0
H1298 H 0.12432 0.17558 0.65098 0.0
H1299 H 0.09479 0.14589 0.6761 0.0
H1300 H 0.04266 0.10954 0.60206 0.0
H1301 H 0.06081 0.13078 0.54849 0.0
C1302 C 0.09727 0.16455 0.55122 0.0
C1303 C 0.11559 0.18257 0.55719 0.0
C1304 C 0.08796 0.15099 0.5814 0.0
C1305 C 0.12537 0.1861 0.59336 0.0
C1306 C 0.11665 0.17229 0.62332 0.0
C1307 C 0.08761 0.14231 0.6482 0.0
C1308 C 0.06741 0.12616 0.64309 0.0
C1309 C 0.09767 0.15499 0.61775 0.0
C1310 C 0.05815 0.12197 0.60677 0.0
C1311 C 0.0685 0.13411 0.57613 0.0
H1312 H 0.62121 0.31841 0.3961 0.0
H1313 H 0.57547 0.36003 0.47258 0.0
H1314 H 0.55532 0.38069 0.41985 0.0
H1315 H 0.54836 0.38426 0.35201 0.0
H1316 H 0.59505 0.34329 0.27584 0.0
H1317 H 0.61735 0.3251 0.32859 0.0
C1318 C 0.60699 0.33217 0.40119 0.0
C1319 C 0.59958 0.33751 0.43802 0.0
C1320 C 0.5956 0.34395 0.37088 0.0
C1321 C 0.58146 0.35565 0.44439 0.0
C1322 C 0.56985 0.36734 0.41429 0.0
C1323 C 0.56355 0.3715 0.34701 0.0
C1324 C 0.56987 0.3649 0.31017 0.0
C1325 C 0.57639 0.36122 0.37742 0.0
C1326 C 0.58985 0.34865 0.30398 0.0
C1327 C 0.60253 0.33817 0.33409 0.0
H1328 H 0.44713 0.87512 0.12072 0.0
H1329 H 0.40366 0.83376 0.20026 0.0
H1330 H 0.38202 0.81294 0.14902 0.0
H1331 H 0.37711 0.80504 0.08162 0.0
H1332 H 0.41907 0.84787 0.00223 0.0
H1333 H 0.43977 0.86959 0.05348 0.0
C1334 C 0.43278 0.86167 0.1268 0.0
C1335 C 0.4271 0.85584 0.16412 0.0
C1336 C 0.42033 0.84993 0.0973 0.0
C1337 C 0.40826 0.83863 0.1717 0.0
C1338 C 0.39601 0.8266 0.14245 0.0
C1339 C 0.39079 0.81915 0.07565 0.0
C1340 C 0.39684 0.82471 0.03839 0.0
C1341 C 0.40219 0.83185 0.10518 0.0
C1342 C 0.41419 0.8433 0.03081 0.0
C1343 C 0.42603 0.85567 0.06004 0.0
H1344 H 0.90245 0.33587 0.70003 0.0
H1345 H 0.94468 0.3851 0.63025 0.0
H1346 H 0.92536 0.36777 0.57437 0.0
H1347 H 0.89929 0.33651 0.54505 0.0
H1348 H 0.85882 0.28557 0.61432 0.0
H1349 H 0.87447 0.30577 0.67053 0.0
C1350 C 0.90707 0.34302 0.67261 0.0
C1351 C 0.92502 0.36162 0.66922 0.0
C1352 C 0.89638 0.33255 0.64044 0.0
C1353 C 0.93106 0.37061 0.63352 0.0
C1354 C 0.92003 0.36073 0.60155 0.0
C1355 C 0.8936 0.33002 0.57241 0.0
C1356 C 0.87804 0.30949 0.57542 0.0
C1357 C 0.9031 0.34135 0.60462 0.0
C1358 C 0.87098 0.30123 0.61117 0.0
C1359 C 0.8799 0.31277 0.64337 0.0
H1360 H 0.42277 0.15863 0.30682 0.0
H1361 H 0.47081 0.11632 0.37923 0.0
H1362 H 0.45152 0.13515 0.43421 0.0
H1363 H 0.42191 0.16454 0.46148 0.0
H1364 H 0.37598 0.20868 0.38865 0.0
H1365 H 0.39351 0.18814 0.33394 0.0
C1366 C 0.42885 0.15336 0.33465 0.0
C1367 C 0.44806 0.13603 0.33903 0.0
C1368 C 0.41813 0.16463 0.36598 0.0
C1369 C 0.45607 0.12968 0.3752 0.0
C1370 C 0.44504 0.1404 0.40661 0.0
C1371 C 0.4156 0.16949 0.43363 0.0
C1372 C 0.39763 0.188 0.42905 0.0
C1373 C 0.42618 0.15801 0.4023 0.0
C1374 C 0.38987 0.19452 0.39283 0.0
C1375 C 0.39984 0.18278 0.36157 0.0
H1376 H 0.56092 0.61646 0.13849 0.0
H1377 H 0.60136 0.65875 0.2207 0.0
H1378 H 0.62217 0.68149 0.17092 0.0
H1379 H 0.62507 0.69237 0.10439 0.0
H1380 H 0.58564 0.6494 0.02207 0.0
H1381 H 0.56826 0.62376 0.07159 0.0
C1382 C 0.57462 0.63038 0.14544 0.0
C1383 C 0.5794 0.63614 0.1831 0.0
C1384 C 0.58643 0.64341 0.11674 0.0
C1385 C 0.59741 0.65396 0.19186 0.0
C1386 C 0.60916 0.66711 0.16344 0.0
C1387 C 0.61287 0.67722 0.09737 0.0
C1388 C 0.60626 0.67294 0.05989 0.0
C1389 C 0.60319 0.66249 0.12587 0.0
C1390 C 0.59087 0.65303 0.05086 0.0
C1391 C 0.58089 0.63845 0.07911 0.0
H1392 H 0.06272 0.87054 0.88942 0.0
H1393 H 0.10489 0.82825 0.80915 0.0
H1394 H 0.1264 0.80713 0.85992 0.0
H1395 H 0.13118 0.79879 0.92686 0.0
H1396 H 0.08989 0.84161 0.00735 0.0
H1397 H 0.07017 0.86454 0.95662 0.0
C1398 C 0.07674 0.85681 0.88304 0.0
C1399 C 0.08202 0.85082 0.84559 0.0
C1400 C 0.0891 0.84478 0.91234 0.0
C1401 C 0.10049 0.83324 0.83775 0.0
C1402 C 0.11272 0.82106 0.86675 0.0
C1403 C 0.11795 0.81323 0.93329 0.0
C1404 C 0.11176 0.81833 0.9707 0.0
C1405 C 0.10684 0.82638 0.90409 0.0
C1406 C 0.09494 0.83734 0.97872 0.0
C1407 C 0.08359 0.85039 0.94975 0.0
H1408 H 0.07743 0.34362 0.38153 0.0
H1409 H 0.13329 0.34149 0.29455 0.0
H1410 H 0.15639 0.30963 0.3285 0.0
H1411 H 0.1555 0.27728 0.3768 0.0
H1412 H 0.09467 0.27626 0.45645 0.0
H1413 H 0.07893 0.31467 0.43256 0.0
C1414 C 0.09522 0.33676 0.37089 0.0
C1415 C 0.10398 0.34475 0.33616 0.0
C1416 C 0.10727 0.31768 0.38929 0.0
C1417 C 0.12661 0.33565 0.32172 0.0
C1418 C 0.13953 0.31728 0.34087 0.0
C1419 C 0.13925 0.28598 0.3894 0.0
C1420 C 0.12683 0.27466 0.41934 0.0
C1421 C 0.12931 0.30733 0.37374 0.0
C1422 C 0.10525 0.28538 0.43472 0.0
C1423 C 0.096 0.30713 0.42065 0.0
H1424 H 0.90778 0.84183 0.66926 0.0
H1425 H 0.93538 0.86762 0.56364 0.0
H1426 H 0.97158 0.88653 0.59462 0.0
H1427 H 0.99797 0.89083 0.65067 0.0
H1428 H 0.97982 0.84666 0.74578 0.0
H1429 H 0.93727 0.84036 0.72216 0.0
C1430 C 0.92138 0.85238 0.65349 0.0
C1431 C 0.91787 0.85564 0.61493 0.0
C1432 C 0.94383 0.85992 0.67057 0.0
C1433 C 0.93665 0.86706 0.59386 0.0
C1434 C 0.95761 0.87728 0.61147 0.0
C1435 C 0.9844 0.88038 0.66661 0.0
C1436 C 0.99091 0.87163 0.70228 0.0
C1437 C 0.96166 0.87337 0.64977 0.0
C1438 C 0.97402 0.85634 0.72101 0.0
C1439 C 0.95004 0.85189 0.70658 0.0
H1440 H 0.40845 0.7533 0.89932 0.0
H1441 H 0.33244 0.73885 0.86407 0.0
H1442 H 0.34669 0.7022 0.83046 0.0
H1443 H 0.3817 0.67497 0.81005 0.0
H1444 H 0.45779 0.69313 0.84179 0.0
H1445 H 0.44267 0.72749 0.87844 0.0
C1446 C 0.395 0.74192 0.88456 0.0
C1447 C 0.36946 0.74806 0.88483 0.0
C1448 C 0.40343 0.72166 0.8647 0.0
C1449 C 0.35218 0.73394 0.86463 0.0
C1450 C 0.36034 0.71313 0.84547 0.0
C1451 C 0.39479 0.68651 0.82513 0.0
C1452 C 0.42075 0.68175 0.82329 0.0
C1453 C 0.38601 0.70685 0.84518 0.0
C1454 C 0.43773 0.69673 0.84261 0.0
C1455 C 0.42914 0.71632 0.86356 0.0
H1456 H 0.57648 0.13053 0.07051 0.0
H1457 H 0.61291 0.17058 0.15855 0.0
H1458 H 0.58044 0.1575 0.20257 0.0
H1459 H 0.53837 0.13912 0.21178 0.0
H1460 H 0.50998 0.08868 0.12995 0.0
H1461 H 0.54339 0.10058 0.08678 0.0
C1462 C 0.57881 0.13445 0.09996 0.0
C1463 C 0.59786 0.15035 0.11166 0.0
C1464 C 0.56147 0.12513 0.12582 0.0
C1465 C 0.59889 0.15757 0.14931 0.0
C1466 C 0.5803 0.15019 0.17443 0.0
C1467 C 0.54083 0.12887 0.18627 0.0
C1468 C 0.52232 0.11219 0.17508 0.0
C1469 C 0.5612 0.13431 0.16274 0.0
C1470 C 0.52426 0.10128 0.13958 0.0
C1471 C 0.5433 0.10812 0.11482 0.0
H1472 H 0.11318 0.65495 0.17931 0.0
H1473 H 0.04673 0.66181 0.11081 0.0
H1474 H 0.06361 0.69834 0.08183 0.0
H1475 H 0.09444 0.73074 0.08167 0.0
H1476 H 0.16169 0.72524 0.14828 0.0
H1477 H 0.14735 0.68584 0.17302 0.0
C1478 C 0.103 0.66405 0.15704 0.0
C1479 C 0.07895 0.65582 0.14672 0.0
C1480 C 0.11272 0.68539 0.14085 0.0
C1481 C 0.06542 0.66787 0.11865 0.0
C1482 C 0.07492 0.68884 0.1024 0.0
C1483 C 0.10636 0.72049 0.10061 0.0
C1484 C 0.12936 0.73025 0.11231 0.0
C1485 C 0.09813 0.69811 0.11411 0.0
C1486 C 0.14408 0.71762 0.13845 0.0
C1487 C 0.1359 0.69518 0.15246 0.0
H1488 H 0.51132 0.89245 0.36087 0.0
H1489 H 0.52453 0.84339 0.26958 0.0
H1490 H 0.56574 0.83285 0.29475 0.0
H1491 H 0.59517 0.83315 0.3478 0.0
H1492 H 0.56988 0.86462 0.45111 0.0
H1493 H 0.5362 0.88632 0.4182 0.0
C1494 C 0.52358 0.87993 0.3461 0.0
C1495 C 0.5165 0.87109 0.31068 0.0
C1496 C 0.54505 0.87073 0.36409 0.0
C1497 C 0.53134 0.85313 0.29374 0.0
C1498 C 0.55441 0.84631 0.30914 0.0
C1499 C 0.58272 0.8455 0.36261 0.0
C1500 C 0.58645 0.84967 0.40091 0.0
C1501 C 0.56132 0.85478 0.34464 0.0
C1502 C 0.56875 0.86336 0.42092 0.0
C1503 C 0.54917 0.87519 0.40224 0.0
H1504 H 0.34563 0.27032 0.61612 0.0
H1505 H 0.41698 0.26384 0.55954 0.0
H1506 H 0.43265 0.29977 0.5918 0.0
H1507 H 0.42752 0.3307 0.63969 0.0
H1508 H 0.35677 0.33891 0.69692 0.0
H1509 H 0.33901 0.3049 0.66045 0.0
C1510 C 0.36442 0.27714 0.61067 0.0
C1511 C 0.38007 0.2649 0.58518 0.0
C1512 C 0.37334 0.29794 0.62943 0.0
C1513 C 0.40452 0.27341 0.57852 0.0
C1514 C 0.41353 0.29382 0.59707 0.0
C1515 C 0.40809 0.32519 0.64377 0.0
C1516 C 0.39344 0.33683 0.67092 0.0
C1517 C 0.39829 0.3059 0.623 0.0
C1518 C 0.36826 0.32999 0.67598 0.0
C1519 C 0.35825 0.31052 0.65537 0.0
H1520 H -0.0013 0.09676 0.85506 0.0
H1521 H 0.97587 0.1344 0.75565 0.0
H1522 H 0.93666 0.1467 0.78503 0.0
H1523 H 0.91219 0.1525 0.84269 0.0
H1524 H 0.94639 0.13257 0.94727 0.0
H1525 H 0.97836 0.10862 0.91415 0.0
C1526 C 0.98478 0.10711 0.83959 0.0
C1527 C 0.98859 0.11189 0.80131 0.0
C1528 C 0.96466 0.11797 0.85888 0.0
C1529 C 0.97151 0.12719 0.78284 0.0
C1530 C 0.94966 0.13531 0.8005 0.0
C1531 C 0.92633 0.14232 0.85802 0.0
C1532 C 0.92597 0.14246 0.89723 0.0
C1533 C 0.94629 0.13123 0.83881 0.0
C1534 C 0.94546 0.13113 0.91708 0.0
C1535 C 0.96388 0.1178 0.89813 0.0
H1536 H 0.90708 0.69839 0.71706 0.0
H1537 H 0.88663 0.65289 0.62367 0.0
H1538 H 0.86722 0.68772 0.59213 0.0
H1539 H 0.86009 0.73206 0.58874 0.0
H1540 H 0.87838 0.77669 0.68442 0.0
H1541 H 0.89411 0.74123 0.71775 0.0
C1542 C 0.89806 0.69613 0.69002 0.0
C1543 C 0.89852 0.6734 0.67232 0.0
C1544 C 0.88658 0.71606 0.6725 0.0
C1545 C 0.88647 0.67038 0.63765 0.0
C1546 C 0.87548 0.69026 0.6196 0.0
C1547 C 0.86707 0.73389 0.61714 0.0
C1548 C 0.86837 0.75698 0.63386 0.0
C1549 C 0.87598 0.71333 0.63638 0.0
C1550 C 0.8772 0.75911 0.67084 0.0
C1551 C 0.88638 0.73887 0.68989 0.0
H1552 H 0.00167 0.16344 0.31425 0.0
H1553 H 0.01717 0.09172 0.35622 0.0
H1554 H 0.0551 0.10688 0.38813 0.0
H1555 H 0.0827 0.14142 0.40617 0.0
H1556 H 0.06372 0.21358 0.36864 0.0
H1557 H 0.02856 0.19748 0.33222 0.0
C1558 C 0.01365 0.15114 0.32996 0.0
C1559 C 0.0074 0.12648 0.33212 0.0
C1560 C 0.03469 0.16015 0.34902 0.0
C1561 C 0.02221 0.11072 0.35369 0.0
C1562 C 0.04375 0.1194 0.37192 0.0
C1563 C 0.07091 0.15345 0.38973 0.0
C1564 C 0.07561 0.17856 0.3899 0.0
C1565 C 0.05007 0.14416 0.37002 0.0
C1566 C 0.06019 0.19418 0.36897 0.0
C1567 C 0.04013 0.18502 0.34822 0.0
H1568 H 0.63403 0.27746 0.06567 0.0
H1569 H 0.62802 0.23308 0.16476 0.0
H1570 H 0.60846 0.26664 0.19846 0.0
H1571 H 0.58876 0.30708 0.19765 0.0
H1572 H 0.59714 0.35275 0.10069 0.0
H1573 H 0.62009 0.32031 0.06818 0.0
C1574 C 0.62891 0.27535 0.09486 0.0
C1575 C 0.63221 0.25276 0.11254 0.0
C1576 C 0.61777 0.29482 0.11425 0.0
C1577 C 0.62572 0.2503 0.15048 0.0
C1578 C 0.61432 0.26942 0.16973 0.0
C1579 C 0.59591 0.30992 0.16956 0.0
C1580 C 0.59106 0.33192 0.15118 0.0
C1581 C 0.60954 0.29148 0.15154 0.0
C1582 C 0.60068 0.33579 0.11514 0.0
C1583 C 0.61371 0.31727 0.09659 0.0
H1584 H 0.42392 0.82038 0.84108 0.0
H1585 H 0.40164 0.8841 0.90282 0.0
H1586 H 0.43803 0.90645 0.87777 0.0
H1587 H 0.47923 0.90558 0.84429 0.0
H1588 H 0.50044 0.84076 0.78414 0.0
H1589 H 0.46156 0.82085 0.80292 0.0
C1590 C 0.42681 0.83933 0.84847 0.0
C1591 C 0.41054 0.85063 0.87386 0.0
C1592 C 0.44779 0.85161 0.83478 0.0
C1593 C 0.41406 0.87518 0.88309 0.0
C1594 C 0.43497 0.88779 0.86916 0.0
C1595 C 0.47498 0.88724 0.83508 0.0
C1596 C 0.49223 0.87464 0.81254 0.0
C1597 C 0.45247 0.87587 0.84603 0.0
C1598 C 0.48705 0.85081 0.80099 0.0
C1599 C 0.46492 0.83942 0.81176 0.0
H1600 H 0.87392 0.26999 0.92294 0.0
H1601 H 0.88793 0.22338 0.82793 0.0
H1602 H 0.90204 0.25809 0.79145 0.0
H1603 H 0.91448 0.30096 0.78842 0.0
H1604 H 0.8981 0.34862 0.88091 0.0
H1605 H 0.88068 0.31439 0.91646 0.0
C1606 C 0.87966 0.26756 0.89406 0.0
C1607 C 0.88015 0.2441 0.87836 0.0
C1608 C 0.88754 0.28774 0.87291 0.0
C1609 C 0.88738 0.24122 0.84077 0.0
C1610 C 0.89561 0.26105 0.81987 0.0
C1611 C 0.90674 0.30383 0.81617 0.0
C1612 C 0.90774 0.32702 0.83236 0.0
C1613 C 0.89641 0.28425 0.83597 0.0
C1614 C 0.89743 0.3308 0.86803 0.0
C1615 C 0.88762 0.31124 0.88837 0.0
H1616 H 0.49035 0.1095 0.63932 0.0
H1617 H 0.50736 0.17498 0.70062 0.0
H1618 H 0.47108 0.19532 0.6728 0.0
H1619 H 0.4367 0.19545 0.62756 0.0
H1620 H 0.41731 0.1299 0.56819 0.0
H1621 H 0.45208 0.10824 0.59916 0.0
C1622 C 0.4857 0.12806 0.64686 0.0
C1623 C 0.50104 0.14076 0.67218 0.0
C1624 C 0.4646 0.13954 0.63105 0.0
C1625 C 0.49536 0.16488 0.68161 0.0
C1626 C 0.47478 0.17651 0.66561 0.0
C1627 C 0.44001 0.17635 0.62171 0.0
C1628 C 0.42499 0.16425 0.59541 0.0
C1629 C 0.45959 0.16416 0.63983 0.0
C1630 C 0.42889 0.13946 0.58838 0.0
C1631 C 0.44877 0.12718 0.60588 0.0
H1632 H 0.62856 0.72282 0.43672 0.0
H1633 H 0.6288 0.76664 0.33652 0.0
H1634 H 0.61248 0.73269 0.30039 0.0
H1635 H 0.59375 0.69204 0.29831 0.0
H1636 H 0.59569 0.64668 0.39634 0.0
H1637 H 0.61563 0.67957 0.43223 0.0
C1638 C 0.62549 0.72475 0.40687 0.0
C1639 C 0.62957 0.74736 0.38954 0.0
C1640 C 0.61621 0.70497 0.38592 0.0
C1641 C 0.62573 0.74951 0.35072 0.0
C1642 C 0.61624 0.73013 0.32995 0.0
C1643 C 0.59891 0.68933 0.32741 0.0
C1644 C 0.59309 0.66729 0.34496 0.0
C1645 C 0.61071 0.70805 0.34746 0.0
C1646 C 0.60007 0.66364 0.38242 0.0
C1647 C 0.61134 0.68244 0.40292 0.0
H1648 H 0.06474 0.80205 0.15578 0.0
H1649 H 0.09907 0.86828 0.11687 0.0
H1650 H 0.06416 0.89203 0.14325 0.0
H1651 H 0.0222 0.89327 0.17387 0.0
H1652 H 0.99016 0.82683 0.21612 0.0
H1653 H 0.02571 0.80364 0.19166 0.0
C1654 C 0.06462 0.82171 0.15334 0.0
C1655 C 0.08407 0.83348 0.13413 0.0
C1656 C 0.04482 0.83508 0.16885 0.0
C1657 C 0.08413 0.85894 0.13161 0.0
C1658 C 0.06414 0.87244 0.14642 0.0
C1659 C 0.02332 0.87377 0.17792 0.0
C1660 C 0.00401 0.86165 0.19699 0.0
C1661 C 0.04414 0.86064 0.16449 0.0
C1662 C 0.00519 0.83641 0.20192 0.0
C1663 C 0.0254 0.82318 0.18789 0.0
H1664 H 0.64913 0.7764 0.89741 0.0
H1665 H 0.5754 0.75554 0.93598 0.0
H1666 H 0.55689 0.79106 0.90582 0.0
H1667 H 0.56119 0.82594 0.86444 0.0
H1668 H 0.63451 0.8488 0.82716 0.0
H1669 H 0.654 0.81482 0.86138 0.0
C1670 C 0.62911 0.78001 0.89954 0.0
C1671 C 0.61358 0.76383 0.9192 0.0
C1672 C 0.61864 0.80061 0.8823 0.0
C1673 C 0.58764 0.76818 0.92154 0.0
C1674 C 0.57707 0.78834 0.90416 0.0
C1675 C 0.58148 0.82355 0.86414 0.0
C1676 C 0.59649 0.83934 0.84305 0.0
C1677 C 0.59232 0.80436 0.88393 0.0
C1678 C 0.62272 0.83661 0.84323 0.0
C1679 C 0.63377 0.81719 0.86257 0.0
H1680 H 0.47062 0.34969 0.19961 0.0
H1681 H 0.4881 0.39992 0.11121 0.0
H1682 H 0.45134 0.38599 0.07609 0.0
H1683 H 0.41812 0.35484 0.06794 0.0
H1684 H 0.3931 0.31417 0.1635 0.0
H1685 H 0.42913 0.329 0.19959 0.0
C1686 C 0.46523 0.35925 0.17446 0.0
C1687 C 0.48153 0.37664 0.15907 0.0
C1688 C 0.44301 0.35256 0.15571 0.0
C1689 C 0.47561 0.38681 0.12406 0.0
C1690 C 0.45464 0.37883 0.10391 0.0
C1691 C 0.41913 0.35106 0.09765 0.0
C1692 C 0.4021 0.33465 0.1137 0.0
C1693 C 0.43855 0.36128 0.11916 0.0
C1694 C 0.40534 0.32771 0.15116 0.0
C1695 C 0.42602 0.33606 0.17171 0.0
H1696 H 0.84411 0.22203 0.38438 0.0
H1697 H 0.9085 0.2297 0.45699 0.0
H1698 H 0.92687 0.19269 0.43157 0.0
H1699 H 0.92709 0.16113 0.38395 0.0
H1700 H 0.86422 0.15301 0.30898 0.0
H1701 H 0.84228 0.18675 0.34049 0.0
C1702 C 0.86194 0.21523 0.39484 0.0
C1703 C 0.87481 0.22813 0.42289 0.0
C1704 C 0.87255 0.19392 0.37975 0.0
C1705 C 0.89808 0.21964 0.43598 0.0
C1706 C 0.90865 0.19858 0.42136 0.0
C1707 C 0.90827 0.16639 0.37525 0.0
C1708 C 0.89711 0.15485 0.34454 0.0
C1709 C 0.89633 0.18593 0.39274 0.0
C1710 C 0.87289 0.16165 0.33301 0.0
C1711 C 0.86057 0.18107 0.3507 0.0
H1712 H 0.08211 0.66074 0.63125 0.0
H1713 H 0.04914 0.63967 0.52619 0.0
H1714 H 0.01571 0.6176 0.55902 0.0
H1715 H 0.99385 0.60784 0.61756 0.0
H1716 H 0.01661 0.64575 0.71699 0.0
H1717 H 0.05666 0.65646 0.68841 0.0
C1718 C 0.06788 0.65074 0.61581 0.0
C1719 C 0.06887 0.65009 0.57662 0.0
C1720 C 0.04724 0.64064 0.6347 0.0
C1721 C 0.0494 0.63894 0.55648 0.0
C1722 C 0.0302 0.62665 0.57523 0.0
C1723 C 0.0079 0.61792 0.63322 0.0
C1724 C 0.00364 0.62346 0.67114 0.0
C1725 C 0.02875 0.62767 0.61439 0.0
C1726 C 0.02105 0.63824 0.68996 0.0
C1727 C 0.04344 0.64537 0.67279 0.0
H1728 H 0.65044 0.24505 0.61225 0.0
H1729 H 0.57789 0.25361 0.55968 0.0
H1730 H 0.5638 0.21514 0.58594 0.0
H1731 H 0.57068 0.18123 0.62789 0.0
H1732 H 0.64208 0.17182 0.68304 0.0
H1733 H 0.65861 0.20811 0.65093 0.0
C1734 C 0.63173 0.23816 0.60635 0.0
C1735 C 0.61531 0.25162 0.58355 0.0
C1736 C 0.62371 0.21598 0.62179 0.0
C1737 C 0.59092 0.24308 0.57646 0.0
C1738 C 0.58285 0.22121 0.59156 0.0
C1739 C 0.59004 0.18693 0.63229 0.0
C1740 C 0.60523 0.17426 0.6576 0.0
C1741 C 0.59893 0.20777 0.61463 0.0
C1742 C 0.63024 0.18144 0.66331 0.0
C1743 C 0.63951 0.20225 0.64532 0.0
H1744 H 0.9863 0.34621 0.8576 0.0
H1745 H 0.03579 0.39668 0.80459 0.0
H1746 H 0.07239 0.3731 0.82391 0.0
H1747 H 0.09005 0.34039 0.86386 0.0
H1748 H 0.04013 0.3026 0.93869 0.0
H1749 H 0.00372 0.31991 0.9066 0.0
C1750 C 0.00513 0.35235 0.85062 0.0
C1751 C 0.00848 0.37121 0.82449 0.0
C1752 C 0.02587 0.34185 0.86867 0.0
C1753 C 0.03284 0.37968 0.81804 0.0
C1754 C 0.05374 0.36714 0.83175 0.0
C1755 C 0.07129 0.33699 0.87436 0.0
C1756 C 0.06785 0.32124 0.90469 0.0
C1757 C 0.05048 0.34842 0.85776 0.0
C1758 C 0.04327 0.31527 0.91598 0.0
C1759 C 0.02245 0.32509 0.89765 0.0
H1760 H 0.84389 0.78616 0.10154 0.0
H1761 H 0.91565 0.7746 0.04818 0.0
H1762 H 0.93367 0.80865 0.08263 0.0
H1763 H 0.93045 0.8383 0.13295 0.0
H1764 H 0.85983 0.84996 0.18907 0.0
H1765 H 0.83956 0.81961 0.14819 0.0
C1766 C 0.8633 0.79153 0.09715 0.0
C1767 C 0.87836 0.77844 0.07186 0.0
C1768 C 0.87366 0.81098 0.11759 0.0
C1769 C 0.90362 0.78497 0.06676 0.0
C1770 C 0.91397 0.80427 0.08663 0.0
C1771 C 0.91047 0.83452 0.13557 0.0
C1772 C 0.89652 0.84605 0.16367 0.0
C1773 C 0.89934 0.81697 0.11268 0.0
C1774 C 0.87073 0.84125 0.16724 0.0
C1775 C 0.8593 0.8238 0.14416 0.0
H1776 H 0.40445 0.66541 0.34883 0.0
H1777 H 0.4236 0.63383 0.45488 0.0
H1778 H 0.45854 0.61151 0.42618 0.0
H1779 H 0.48666 0.60534 0.37233 0.0
H1780 H 0.47872 0.65388 0.27916 0.0
H1781 H 0.43646 0.66505 0.29946 0.0
C1782 C 0.41582 0.65287 0.36509 0.0
C1783 C 0.41004 0.64894 0.40284 0.0
C1784 C 0.43799 0.64327 0.34982 0.0
C1785 C 0.42632 0.63495 0.42491 0.0
C1786 C 0.44664 0.62278 0.40869 0.0
C1787 C 0.47532 0.61788 0.35608 0.0
C1788 C 0.48435 0.62656 0.32165 0.0
C1789 C 0.45296 0.62721 0.37124 0.0
C1790 C 0.47062 0.6445 0.30274 0.0
C1791 C 0.44688 0.65158 0.31527 0.0
H1792 H 0.40839 0.14875 0.1327 0.0
H1793 H 0.42496 0.19009 0.23221 0.0
H1794 H 0.40176 0.2249 0.20723 0.0
H1795 H 0.38011 0.24463 0.15524 0.0
H1796 H 0.36806 0.20564 0.05205 0.0
H1797 H 0.38586 0.16875 0.08017 0.0
C1798 C 0.40652 0.16532 0.14895 0.0
C1799 C 0.41811 0.167 0.18423 0.0
C1800 C 0.39409 0.18563 0.13364 0.0
C1801 C 0.41611 0.18856 0.20496 0.0
C1802 C 0.40288 0.2084 0.1907 0.0
C1803 C 0.38091 0.22793 0.1391 0.0
C1804 C 0.37257 0.22774 0.10176 0.0
C1805 C 0.39223 0.2073 0.15482 0.0
C1806 C 0.37426 0.20614 0.08092 0.0
C1807 C 0.38453 0.18512 0.09695 0.0
H1808 H 0.5233 0.60513 0.84661 0.0
H1809 H 0.52091 0.66371 0.76679 0.0
H1810 H 0.55914 0.6811 0.79347 0.0
H1811 H 0.58861 0.68337 0.84604 0.0
H1812 H 0.59056 0.62618 0.92798 0.0
H1813 H 0.55745 0.60415 0.89391 0.0
C1814 C 0.53167 0.62131 0.83459 0.0
C1815 C 0.51978 0.63293 0.80443 0.0
C1816 C 0.55338 0.63151 0.85072 0.0
C1817 C 0.53026 0.65415 0.78936 0.0
C1818 C 0.55194 0.66423 0.80485 0.0
C1819 C 0.58232 0.66566 0.85557 0.0
C1820 C 0.59182 0.65619 0.88906 0.0
C1821 C 0.56307 0.65356 0.83635 0.0
C1822 C 0.58355 0.63349 0.90183 0.0
C1823 C 0.56448 0.6211 0.88261 0.0
H1824 H 0.0997 0.83288 0.63441 0.0
H1825 H 0.08276 0.78878 0.73074 0.0
H1826 H 0.09735 0.7525 0.69778 0.0
H1827 H 0.11132 0.73289 0.64028 0.0
H1828 H 0.12407 0.77561 0.541 0.0
H1829 H 0.11491 0.81289 0.57626 0.0
C1830 C 0.09968 0.81535 0.64823 0.0
C1831 C 0.09038 0.8134 0.68497 0.0
C1832 C 0.10712 0.79435 0.62846 0.0
C1833 C 0.08989 0.79061 0.70249 0.0
C1834 C 0.09818 0.7699 0.68364 0.0
C1835 C 0.1125 0.75037 0.62639 0.0
C1836 C 0.11848 0.75148 0.58809 0.0
C1837 C 0.10631 0.77148 0.6464 0.0
C1838 C 0.11954 0.77427 0.57047 0.0
C1839 C 0.11425 0.79557 0.59062 0.0
H1840 H 0.93585 0.29775 0.38881 0.0
H1841 H 0.90499 0.36522 0.42936 0.0
H1842 H 0.93796 0.38796 0.3963 0.0
H1843 H 0.97636 0.38822 0.35664 0.0
H1844 H 0.00389 0.32061 0.31154 0.0
H1845 H 0.97153 0.29818 0.34562 0.0
C1846 C 0.93647 0.31744 0.39052 0.0
C1847 C 0.91848 0.32987 0.41191 0.0
C1848 C 0.95484 0.33026 0.37059 0.0
C1849 C 0.9189 0.35536 0.41321 0.0
C1850 C 0.93772 0.3683 0.3944 0.0
C1851 C 0.97497 0.36861 0.35418 0.0
C1852 C 0.99202 0.35597 0.33139 0.0
C1853 C 0.95587 0.35592 0.37313 0.0
C1854 C 0.99052 0.3306 0.32853 0.0
C1855 C 0.97217 0.31781 0.34811 0.0
H1856 H 0.41102 0.80216 0.28683 0.0
H1857 H 0.40365 0.85305 0.37775 0.0
H1858 H 0.38334 0.82174 0.41629 0.0
H1859 H 0.37081 0.77854 0.42531 0.0
H1860 H 0.37574 0.72937 0.33123 0.0
H1861 H 0.39344 0.76131 0.29276 0.0
C1862 C 0.40465 0.80641 0.31494 0.0
C1863 C 0.40896 0.82961 0.32974 0.0
C1864 C 0.39259 0.78858 0.33641 0.0
C1865 C 0.40042 0.83518 0.36592 0.0
C1866 C 0.38894 0.81728 0.38795 0.0
C1867 C 0.3754 0.77499 0.39625 0.0
C1868 C 0.37218 0.75149 0.38144 0.0
C1869 C 0.38536 0.79371 0.37372 0.0
C1870 C 0.37802 0.74723 0.34356 0.0
C1871 C 0.3883 0.76548 0.32142 0.0
H1872 H 0.95825 0.60417 0.12963 0.0
H1873 H 0.98352 0.66406 0.19781 0.0
H1874 H 0.95181 0.69052 0.16998 0.0
H1875 H 0.92026 0.69777 0.1214 0.0
H1876 H 0.89297 0.6382 0.05447 0.0
H1877 H 0.92189 0.61026 0.0867 0.0
C1878 C 0.95629 0.62287 0.13881 0.0
C1879 C 0.9728 0.63219 0.16595 0.0
C1880 C 0.93795 0.63801 0.12261 0.0
C1881 C 0.97057 0.65648 0.17746 0.0
C1882 C 0.95263 0.67165 0.16134 0.0
C1883 C 0.92049 0.67858 0.11428 0.0
C1884 C 0.90501 0.66996 0.08542 0.0
C1885 C 0.93674 0.66279 0.13319 0.0
C1886 C 0.90494 0.6451 0.07663 0.0
C1887 C 0.92149 0.62922 0.09491 0.0
H1888 H 0.11564 0.24388 0.83974 0.0
H1889 H 0.13365 0.20123 0.93733 0.0
H1890 H 0.12248 0.16395 0.90345 0.0
H1891 H 0.10293 0.14413 0.84821 0.0
H1892 H 0.08034 0.18816 0.75434 0.0
H1893 H 0.0981 0.22424 0.78435 0.0
C1894 C 0.11765 0.2264 0.85343 0.0
C1895 C 0.12556 0.22531 0.89097 0.0
C1896 C 0.11008 0.2053 0.83442 0.0
C1897 C 0.12766 0.20253 0.90842 0.0
C1898 C 0.12115 0.18124 0.8891 0.0
C1899 C 0.10241 0.16158 0.83416 0.0
C1900 C 0.09051 0.1636 0.79912 0.0
C1901 C 0.11167 0.18247 0.85242 0.0
C1902 C 0.08943 0.18629 0.78135 0.0
C1903 C 0.09953 0.20689 0.79851 0.0
H1904 H 0.56366 0.3216 0.63902 0.0
H1905 H 0.57956 0.38853 0.58148 0.0
H1906 H 0.54463 0.40858 0.6146 0.0
H1907 H 0.50681 0.40532 0.65553 0.0
H1908 H 0.4931 0.33831 0.71439 0.0
H1909 H 0.52998 0.31987 0.6853 0.0
C1910 C 0.55965 0.34069 0.63421 0.0
C1911 C 0.57373 0.35362 0.60778 0.0
C1912 C 0.53987 0.35191 0.65337 0.0
C1913 C 0.5688 0.37836 0.60187 0.0
C1914 C 0.54878 0.38969 0.62056 0.0
C1915 C 0.5123 0.38685 0.66227 0.0
C1916 C 0.49766 0.37318 0.68727 0.0
C1917 C 0.53375 0.37643 0.64566 0.0
C1918 C 0.50449 0.34918 0.69566 0.0
C1919 C 0.52544 0.33862 0.67893 0.0
H1920 H 0.02762 0.45046 0.19196 0.0
H1921 H 0.01864 0.44865 0.31178 0.0
H1922 H 0.01468 0.49287 0.31356 0.0
H1923 H 0.01438 0.53204 0.28132 0.0
H1924 H 0.02696 0.53479 0.16224 0.0
H1925 H 0.02911 0.49034 0.15974 0.0
C1926 C 0.0247 0.45988 0.21829 0.0
C1927 C 0.02331 0.44655 0.25167 0.0
C1928 C 0.02325 0.48541 0.21924 0.0
C1929 C 0.01985 0.45874 0.2858 0.0
C1930 C 0.01756 0.48395 0.28684 0.0
C1931 C 0.01754 0.52288 0.25483 0.0
C1932 C 0.02039 0.53658 0.22203 0.0
C1933 C 0.01934 0.49747 0.25378 0.0
C1934 C 0.02483 0.52456 0.18792 0.0
C1935 C 0.02596 0.49918 0.18646 0.0
H1936 H 0.79269 0.80082 0.5263 0.0
H1937 H 0.77905 0.86952 0.58125 0.0
H1938 H 0.73708 0.87129 0.55408 0.0
H1939 H 0.70582 0.85531 0.51128 0.0
H1940 H 0.71792 0.78678 0.45541 0.0
H1941 H 0.75912 0.78293 0.48633 0.0
C1942 C 0.78027 0.81587 0.53294 0.0
C1943 C 0.78899 0.83509 0.55561 0.0
C1944 C 0.75621 0.81704 0.51649 0.0
C1945 C 0.77282 0.8546 0.56372 0.0
C1946 C 0.74888 0.85569 0.54805 0.0
C1947 C 0.7175 0.83956 0.50555 0.0
C1948 C 0.70916 0.82164 0.48038 0.0
C1949 C 0.74072 0.83741 0.52362 0.0
C1950 C 0.72414 0.80097 0.47431 0.0
C1951 C 0.7476 0.79876 0.49205 0.0
H1952 H 0.45086 0.46657 0.80714 0.0
H1953 H 0.43283 0.4581 0.69007 0.0
H1954 H 0.43381 0.50206 0.6817 0.0
H1955 H 0.44419 0.54257 0.70623 0.0
H1956 H 0.45997 0.55173 0.82362 0.0
H1957 H 0.45531 0.50784 0.83358 0.0
C1958 C 0.44678 0.47443 0.77998 0.0
C1959 C 0.44204 0.45917 0.74921 0.0
C1960 C 0.44713 0.49977 0.77542 0.0
C1961 C 0.43647 0.4695 0.71422 0.0
C1962 C 0.43718 0.49462 0.70933 0.0
C1963 C 0.44612 0.53489 0.73404 0.0
C1964 C 0.45251 0.55 0.76416 0.0
C1965 C 0.44312 0.50985 0.7395 0.0
C1966 C 0.4549 0.5402 0.80019 0.0
C1967 C 0.4524 0.51518 0.80578 0.0
H1968 H 0.80198 0.2023 0.98992 0.0
H1969 H 0.78975 0.13685 0.92558 0.0
H1970 H 0.7461 0.1357 0.94535 0.0
H1971 H 0.71266 0.1506 0.98511 0.0
H1972 H 0.72303 0.21553 0.0509 0.0
H1973 H 0.76609 0.2197 0.02631 0.0
C1974 C 0.78955 0.18814 0.97968 0.0
C1975 C 0.79917 0.16958 0.95651 0.0
C1976 C 0.76431 0.18726 0.99189 0.0
C1977 C 0.78292 0.15123 0.94362 0.0
C1978 C 0.75794 0.15049 0.95501 0.0
C1979 C 0.72431 0.16572 0.99414 0.0
C1980 C 0.71496 0.18243 0.02037 0.0
C1981 C 0.7487 0.16793 0.97996 0.0
C1982 C 0.72997 0.2023 0.03095 0.0
C1983 C 0.75456 0.20464 0.01693 0.0
H1984 H 0.9458 0.45915 0.69553 0.0
H1985 H 0.93661 0.45425 0.81519 0.0
H1986 H 0.92977 0.4981 0.81889 0.0
H1987 H 0.93235 0.53818 0.78904 0.0
H1988 H 0.94009 0.54328 0.66931 0.0
H1989 H 0.94095 0.49888 0.66438 0.0
C1990 C 0.94189 0.46772 0.72227 0.0
C1991 C 0.9421 0.45373 0.75511 0.0
C1992 C 0.93772 0.49286 0.72411 0.0
C1993 C 0.9366 0.46477 0.78958 0.0
C1994 C 0.93278 0.48981 0.79173 0.0
C1995 C 0.93346 0.52946 0.76183 0.0
C1996 C 0.9363 0.54372 0.72961 0.0
C1997 C 0.9341 0.50408 0.75934 0.0
C1998 C 0.93767 0.5325 0.6944 0.0
C1999 C 0.93847 0.50717 0.69165 0.0
H2000 H 0.29711 0.21328 0.44699 0.0
H2001 H 0.29623 0.19638 0.56481 0.0
H2002 H 0.25049 0.19189 0.56298 0.0
H2003 H 0.21064 0.19853 0.52968 0.0
H2004 H 0.21123 0.2142 0.41163 0.0
H2005 H 0.25737 0.21298 0.41132 0.0
C2006 C 0.28685 0.20823 0.47204 0.0
C2007 C 0.29974 0.20556 0.5061 0.0
C2008 C 0.26065 0.20552 0.47069 0.0
C2009 C 0.28654 0.19859 0.53834 0.0
C2010 C 0.26044 0.19613 0.53734 0.0
C2011 C 0.22097 0.20098 0.50377 0.0
C2012 C 0.20794 0.20656 0.47079 0.0
C2013 C 0.24728 0.20035 0.50396 0.0
C2014 C 0.22114 0.20969 0.43721 0.0
C2015 C 0.24743 0.20925 0.43716 0.0
H2016 H 0.55108 0.54196 0.20365 0.0
H2017 H 0.5474 0.54016 0.32412 0.0
H2018 H 0.54805 0.49562 0.32283 0.0
H2019 H 0.54445 0.45762 0.2868 0.0
H2020 H 0.54936 0.45944 0.16639 0.0
H2021 H 0.55376 0.50374 0.16813 0.0
C2022 C 0.55089 0.53174 0.22961 0.0
C2023 C 0.54891 0.5441 0.26392 0.0
C2024 C 0.55127 0.5063 0.22856 0.0
C2025 C 0.54899 0.5309 0.29745 0.0
C2026 C 0.54916 0.5055 0.29667 0.0
C2027 C 0.54686 0.46775 0.26102 0.0
C2028 C 0.54623 0.45552 0.22647 0.0
C2029 C 0.54949 0.49307 0.26232 0.0
C2030 C 0.54978 0.4686 0.19324 0.0
C2031 C 0.55214 0.49387 0.19425 0.0
H2032 H 0.20403 0.80415 0.98318 0.0
H2033 H 0.21943 0.78705 0.09854 0.0
H2034 H 0.26479 0.79085 0.08707 0.0
H2035 H 0.29962 0.79366 0.04194 0.0
H2036 H 0.28395 0.81182 0.92686 0.0
H2037 H 0.23888 0.81344 0.94047 0.0
C2038 C 0.21742 0.80182 0.00587 0.0
C2039 C 0.20885 0.79515 0.04144 0.0
C2040 C 0.2432 0.80403 -0.001 0.0
C2041 C 0.22594 0.79229 0.07098 0.0
C2042 C 0.25175 0.79427 0.06434 0.0
C2043 C 0.28629 0.79834 0.02008 0.0
C2044 C 0.29481 0.80221 0.9834 0.0
C2045 C 0.26055 0.7993 0.02814 0.0
C2046 C 0.27764 0.80872 0.95528 0.0
C2047 C 0.25194 0.80951 0.96299 0.0
H2048 H 0.55365 0.96636 0.69946 0.0
H2049 H 0.55286 0.96317 0.82002 0.0
H2050 H 0.55473 0.00752 0.82347 0.0
H2051 H 0.55328 0.04716 0.79194 0.0
H2052 H 0.55665 0.05041 0.67152 0.0
H2053 H 0.5573 0.00598 0.66809 0.0
C2054 C 0.55416 0.97546 0.72641 0.0
C2055 C 0.55289 0.96175 0.75941 0.0
C2056 C 0.55559 0.00085 0.72815 0.0
C2057 C 0.5539 0.9735 0.79428 0.0
C2058 C 0.55482 0.9988 0.79626 0.0
C2059 C 0.55442 0.03804 0.76504 0.0
C2060 C 0.55467 0.05177 0.73203 0.0
C2061 C 0.55517 0.01264 0.76337 0.0
C2062 C 0.5565 0.04002 0.69726 0.0
C2063 C 0.55674 0.0147 0.69529 0.0
H2064 H 0.28375 0.334 0.99399 0.0
H2065 H 0.28136 0.26225 0.04224 0.0
H2066 H 0.23825 0.25683 0.01856 0.0
H2067 H 0.20007 0.27424 0.98827 0.0
H2068 H 0.204 0.34648 0.94131 0.0
H2069 H 0.24775 0.34983 0.96027 0.0
C2070 C 0.27387 0.31709 -0.00065 0.0
C2071 C 0.28557 0.29871 0.02039 0.0
C2072 C 0.24932 0.31424 0.98593 0.0
C2073 C 0.27271 0.27673 0.02626 0.0
C2074 C 0.24805 0.27369 0.01283 0.0
C2075 C 0.21064 0.29054 0.98174 0.0
C2076 C 0.19859 0.3102 0.96379 0.0
C2077 C 0.23597 0.29254 0.99319 0.0
C2078 C 0.2126 0.3312 0.95553 0.0
C2079 C 0.23767 0.33317 0.96634 0.0
H2080 H 0.95836 0.03707 0.30871 0.0
H2081 H 0.96327 0.04463 0.1889 0.0
H2082 H 0.96151 0.00038 0.18152 0.0
H2083 H 0.95967 0.95961 0.20951 0.0
H2084 H 0.95903 0.95207 0.32958 0.0
H2085 H 0.95804 0.99632 0.33675 0.0
C2086 C 0.95881 0.02894 0.28103 0.0
C2087 C 0.96065 0.04386 0.24933 0.0
C2088 C 0.95868 0.0036 0.27717 0.0
C2089 C 0.9618 0.03332 0.2136 0.0
C2090 C 0.96079 0.00811 0.20941 0.0
C2091 C 0.95915 0.96774 0.23718 0.0
C2092 C 0.95922 0.95281 0.26899 0.0
C2093 C 0.95938 0.99309 0.24103 0.0
C2094 C 0.95902 0.96336 0.30476 0.0
C2095 C 0.95841 0.98858 0.30884 0.0
H2096 H 0.28445 0.65088 0.50108 0.0
H2097 H 0.27943 0.71705 0.43709 0.0
H2098 H 0.23517 0.7218 0.45604 0.0
H2099 H 0.19698 0.70494 0.48752 0.0
H2100 H 0.20412 0.63821 0.55029 0.0
H2101 H 0.24851 0.6361 0.53542 0.0
C2102 C 0.27372 0.66638 0.49116 0.0
C2103 C 0.285 0.68333 0.46716 0.0
C2104 C 0.24863 0.66891 0.50209 0.0
C2105 C 0.27105 0.70365 0.45541 0.0
C2106 C 0.24577 0.70632 0.4662 0.0
C2107 C 0.20841 0.69021 0.49836 0.0
C2108 C 0.19713 0.67165 0.5197 0.0
C2109 C 0.23421 0.6888 0.48911 0.0
C2110 C 0.21217 0.65262 0.5335 0.0
C2111 C 0.23762 0.65132 0.52498 0.0
H2112 H 0.45281 0.03482 0.20133 0.0
H2113 H 0.46224 0.04119 0.32071 0.0
H2114 H 0.45606 0.99743 0.32794 0.0
H2115 H 0.45404 0.9568 0.29937 0.0
H2116 H 0.44963 0.95016 0.17941 0.0
H2117 H 0.44737 0.99436 0.17316 0.0
C2118 C 0.45282 0.02663 0.22892 0.0
C2119 C 0.45791 0.04103 0.26043 0.0
C2120 C 0.4504 0.00132 0.23266 0.0
C2121 C 0.45839 0.0303 0.29608 0.0
C2122 C 0.45494 0.00531 0.30021 0.0
C2123 C 0.45188 0.9651 0.27203 0.0
C2124 C 0.45191 0.95045 0.23991 0.0
C2125 C 0.4518 0.99053 0.26859 0.0
C2126 C 0.44964 0.96126 0.20448 0.0
C2127 C 0.44845 0.98648 0.2009 0.0
H2128 H 0.78542 0.72221 0.04405 0.0
H2129 H 0.79445 0.74098 0.9277 0.0
H2130 H 0.74931 0.73541 0.9172 0.0
H2131 H 0.70713 0.72643 0.94171 0.0
H2132 H 0.69745 0.71196 0.05925 0.0
H2133 H 0.7431 0.71434 0.06892 0.0
C2134 C 0.77744 0.72493 0.0164 0.0
C2135 C 0.79304 0.73186 0.98662 0.0
C2136 C 0.75148 0.72238 0.01088 0.0
C2137 C 0.78263 0.73574 0.95101 0.0
C2138 C 0.75691 0.73248 0.94499 0.0
C2139 C 0.71519 0.7235 0.96926 0.0
C2140 C 0.69938 0.71867 -0.00032 0.0
C2141 C 0.74116 0.72592 0.97476 0.0
C2142 C 0.70959 0.71551 0.03553 0.0
C2143 C 0.73556 0.71693 0.04102 0.0
H2144 H 0.06618 0.03039 0.78924 0.0
H2145 H 0.05429 0.03055 0.66989 0.0
H2146 H 0.06115 0.98674 0.66741 0.0
H2147 H 0.06312 0.94773 0.70059 0.0
H2148 H 0.07082 0.94723 0.8206 0.0
H2149 H 0.07365 0.99156 0.82148 0.0
C2150 C 0.06584 0.02088 0.76263 0.0
C2151 C 0.05953 0.03355 0.7299 0.0
C2152 C 0.06885 0.99549 0.76161 0.0
C2153 C 0.05886 0.02105 0.69555 0.0
C2154 C 0.06274 0.996 0.6941 0.0
C2155 C 0.06634 0.95735 0.72669 0.0
C2156 C 0.06679 0.94439 0.76043 0.0
C2157 C 0.0667 0.98289 0.72714 0.0
C2158 C 0.07044 0.95697 0.79427 0.0
C2159 C 0.07187 0.9823 0.79481 0.0
H2160 H 0.69996 0.3026 0.45404 0.0
H2161 H 0.70068 0.31223 0.5738 0.0
H2162 H 0.74647 0.30741 0.57462 0.0
H2163 H 0.78542 0.29554 0.54189 0.0
H2164 H 0.78498 0.28784 0.42189 0.0
H2165 H 0.73979 0.29677 0.42031 0.0
C2166 C 0.71028 0.30418 0.48015 0.0
C2167 C 0.69715 0.30755 0.51382 0.0
C2168 C 0.73646 0.30132 0.48037 0.0
C2169 C 0.71054 0.30979 0.54753 0.0
C2170 C 0.73663 0.30677 0.54806 0.0
C2171 C 0.77535 0.2961 0.51547 0.0
C2172 C 0.78805 0.29072 0.48211 0.0
C2173 C 0.74963 0.30171 0.5148 0.0
C2174 C 0.77527 0.29185 0.44783 0.0
C2175 C 0.74954 0.29691 0.44696 0.0
loop_
_geom_bond_atom_site_label_1
_geom_bond_atom_site_label_2
_geom_bond_distance
_geom_bond_site_symmetry_2
_ccdc_geom_bond_type
Mn0 O5 2.095 . S
Mn0 O15 2.162 . S
Mn0 O16 2.297 . S
Mn0 O24 2.385 . S
Mn0 O25 2.209 . S
Mn0 O26 2.094 . S
Mn1 O6 2.121 . S
Mn1 N8 2.257 1_455 S
Mn1 N17 2.284 . S
Mn1 O25 2.215 . S
Mn1 O27 2.117 . S
C2 O24 1.234 . S
C2 O25 1.283 . S
C3 O15 1.281 . S
C3 O16 1.236 . S
C4 O26 1.240 . S
C4 O27 1.264 . S
O5 Mn0 2.095 . S
O5 C14 1.250 . S
O6 Mn1 2.121 . S
O6 C14 1.258 . S
C7 N8 1.326 . S
C7 C11 1.460 . S
C7 H13 0.929 1_655 S
N8 Mn1 2.257 1_655 S
N8 C7 1.326 . S
N8 C12 1.362 . S
C9 C10 1.258 . S
C9 C12 1.431 . S
C9 C29 1.449 . S
C10 C9 1.258 . S
C10 C11 1.477 . S
C10 H30 0.931 . S
C11 C7 1.460 . S
C11 C10 1.477 . S
C11 H31 0.930 . S
C12 N8 1.362 . S
C12 C9 1.431 . S
C12 C22 1.476 . S
H13 C7 0.929 1_455 S
C14 O5 1.250 . S
C14 O6 1.258 . S
O15 Mn0 2.162 . S
O15 C3 1.281 . S
O16 Mn0 2.297 . S
O16 C3 1.236 . S
N17 Mn1 2.284 . S
N17 C18 1.328 . S
N17 C22 1.316 1_455 S
C18 N17 1.328 . S
C18 C19 1.457 1_455 S
C18 H23 0.929 . S
C19 C18 1.457 1_655 S
C19 C20 1.291 . S
C19 H32 0.931 . S
C20 C19 1.291 . S
C20 C21 1.373 . S
C20 H33 0.929 . S
C21 C20 1.373 . S
C21 C22 1.396 . S
C21 C28 1.403 . S
C22 C12 1.476 . S
C22 N17 1.316 1_655 S
C22 C21 1.396 . S
H23 C18 0.929 . S
O24 Mn0 2.385 . S
O24 C2 1.234 . S
O25 Mn0 2.209 . S
O25 Mn1 2.215 . S
O25 C2 1.283 . S
O26 Mn0 2.094 . S
O26 C4 1.240 . S
O27 Mn1 2.117 . S
O27 C4 1.264 . S
C28 C21 1.403 . S
C28 C29 1.399 . S
C28 H34 0.929 . S
C29 C9 1.449 . S
C29 C28 1.399 . S
C29 H35 0.930 . S
H30 C10 0.931 . S
H31 C11 0.930 . S
H32 C19 0.931 . S
H33 C20 0.929 . S
H34 C28 0.929 . S
H35 C29 0.930 . S
Mn36 O41 2.095 . S
Mn36 O51 2.162 . S
Mn36 O52 2.297 . S
Mn36 O60 2.385 . S
Mn36 O61 2.209 . S
Mn36 O62 2.094 . S
Mn37 O42 2.121 . S
Mn37 N44 2.257 . S
Mn37 N53 2.282 . S
Mn37 O61 2.215 . S
Mn37 O63 2.117 . S
C38 O60 1.234 . S
C38 O61 1.283 . S
C39 O51 1.281 . S
C39 O52 1.236 . S
C40 O62 1.240 . S
C40 O63 1.264 . S
O41 Mn36 2.095 . S
O41 C50 1.250 . S
O42 Mn37 2.121 . S
O42 C50 1.258 . S
C43 N44 1.326 . S
C43 C47 1.460 . S
C43 H49 0.929 . S
N44 Mn37 2.257 . S
N44 C43 1.326 . S
N44 C48 1.362 . S
C45 C46 1.258 . S
C45 C48 1.431 . S
C45 C65 1.449 . S
C46 C45 1.258 . S
C46 C47 1.477 . S
C46 H66 0.931 . S
C47 C43 1.460 . S
C47 C46 1.477 . S
C47 H67 0.930 . S
C48 N44 1.362 . S
C48 C45 1.431 . S
C48 C58 1.476 . S
H49 C43 0.929 . S
C50 O41 1.250 . S
C50 O42 1.258 . S
O51 Mn36 2.162 . S
O51 C39 1.281 . S
O52 Mn36 2.297 . S
O52 C39 1.236 . S
N53 Mn37 2.282 . S
N53 C54 1.328 . S
N53 C58 1.318 . S
C54 N53 1.328 . S
C54 C55 1.457 . S
C54 H59 0.929 . S
C55 C54 1.457 . S
C55 C56 1.291 . S
C55 H68 0.931 . S
C56 C55 1.291 . S
C56 C57 1.373 . S
C56 H69 0.929 . S
C57 C56 1.373 . S
C57 C58 1.396 . S
C57 C64 1.403 . S
C58 C48 1.476 . S
C58 N53 1.318 . S
C58 C57 1.396 . S
H59 C54 0.929 . S
O60 Mn36 2.385 . S
O60 C38 1.234 . S
O61 Mn36 2.209 . S
O61 Mn37 2.215 . S
O61 C38 1.283 . S
O62 Mn36 2.094 . S
O62 C40 1.240 . S
O63 Mn37 2.117 . S
O63 C40 1.264 . S
C64 C57 1.403 . S
C64 C65 1.399 . S
C64 H70 0.929 . S
C65 C45 1.449 . S
C65 C64 1.399 . S
C65 H71 0.930 . S
H66 C46 0.931 . S
H67 C47 0.930 . S
H68 C55 0.931 . S
H69 C56 0.929 . S
H70 C64 0.929 . S
H71 C65 0.930 . S
Mn72 O77 2.095 . S
Mn72 O87 2.162 . S
Mn72 O88 2.297 . S
Mn72 O96 2.385 . S
Mn72 O97 2.209 . S
Mn72 O98 2.094 . S
Mn73 O78 2.121 . S
Mn73 N80 2.257 . S
Mn73 N89 2.282 . S
Mn73 O97 2.215 . S
Mn73 O99 2.117 . S
C74 O96 1.234 . S
C74 O97 1.283 . S
C75 O87 1.281 . S
C75 O88 1.236 . S
C76 O98 1.240 . S
C76 O99 1.264 . S
O77 Mn72 2.095 . S
O77 C86 1.250 . S
O78 Mn73 2.121 . S
O78 C86 1.258 . S
C79 N80 1.326 . S
C79 C83 1.460 . S
C79 H85 0.929 . S
N80 Mn73 2.257 . S
N80 C79 1.326 . S
N80 C84 1.362 . S
C81 C82 1.258 . S
C81 C84 1.431 . S
C81 C101 1.449 . S
C82 C81 1.258 . S
C82 C83 1.477 . S
C82 H102 0.931 . S
C83 C79 1.460 . S
C83 C82 1.477 . S
C83 H103 0.930 . S
C84 N80 1.362 . S
C84 C81 1.431 . S
C84 C94 1.476 . S
H85 C79 0.929 . S
C86 O77 1.250 . S
C86 O78 1.258 . S
O87 Mn72 2.162 . S
O87 C75 1.281 . S
O88 Mn72 2.297 . S
O88 C75 1.236 . S
N89 Mn73 2.282 . S
N89 C90 1.328 . S
N89 C94 1.318 . S
C90 N89 1.328 . S
C90 C91 1.457 . S
C90 H95 0.929 . S
C91 C90 1.457 . S
C91 C92 1.291 . S
C91 H104 0.931 . S
C92 C91 1.291 . S
C92 C93 1.373 . S
C92 H105 0.929 . S
C93 C92 1.373 . S
C93 C94 1.396 . S
C93 C100 1.403 . S
C94 C84 1.476 . S
C94 N89 1.318 . S
C94 C93 1.396 . S
H95 C90 0.929 . S
O96 Mn72 2.385 . S
O96 C74 1.234 . S
O97 Mn72 2.209 . S
O97 Mn73 2.215 . S
O97 C74 1.283 . S
O98 Mn72 2.094 . S
O98 C76 1.240 . S
O99 Mn73 2.117 . S
O99 C76 1.264 . S
C100 C93 1.403 . S
C100 C101 1.399 . S
C100 H106 0.929 . S
C101 C81 1.449 . S
C101 C100 1.399 . S
C101 H107 0.930 . S
H102 C82 0.931 . S
H103 C83 0.930 . S
H104 C91 0.931 . S
H105 C92 0.929 . S
H106 C100 0.929 . S
H107 C101 0.930 . S
Mn108 O113 2.095 . S
Mn108 O123 2.162 . S
Mn108 O124 2.297 . S
Mn108 O132 2.385 . S
Mn108 O133 2.209 . S
Mn108 O134 2.094 1_554 S
Mn109 O114 2.121 . S
Mn109 N116 2.257 . S
Mn109 N125 2.282 . S
Mn109 O133 2.215 . S
Mn109 O135 2.117 1_554 S
C110 O132 1.234 . S
C110 O133 1.283 . S
C111 O123 1.281 . S
C111 O124 1.236 . S
C112 O134 1.240 . S
C112 O135 1.264 . S
O113 Mn108 2.095 . S
O113 C122 1.250 . S
O114 Mn109 2.121 . S
O114 C122 1.258 . S
C115 N116 1.326 . S
C115 C119 1.460 . S
C115 H121 0.929 . S
N116 Mn109 2.257 . S
N116 C115 1.326 . S
N116 C120 1.362 . S
C117 C118 1.258 . S
C117 C120 1.431 . S
C117 C137 1.449 . S
C118 C117 1.258 . S
C118 C119 1.477 . S
C118 H138 0.931 . S
C119 C115 1.460 . S
C119 C118 1.477 . S
C119 H139 0.930 . S
C120 N116 1.362 . S
C120 C117 1.431 . S
C120 C130 1.476 . S
H121 C115 0.929 . S
C122 O113 1.250 . S
C122 O114 1.258 . S
O123 Mn108 2.162 . S
O123 C111 1.281 . S
O124 Mn108 2.297 . S
O124 C111 1.236 . S
N125 Mn109 2.282 . S
N125 C126 1.328 . S
N125 C130 1.318 . S
C126 N125 1.328 . S
C126 C127 1.457 . S
C126 H131 0.920 1_554 S
C127 C126 1.457 . S
C127 C128 1.291 . S
C127 H140 0.931 . S
C128 C127 1.291 . S
C128 C129 1.373 . S
C128 H141 0.929 . S
C129 C128 1.373 . S
C129 C130 1.396 . S
C129 C136 1.403 . S
C130 C120 1.476 . S
C130 N125 1.318 . S
C130 C129 1.396 . S
H131 C126 0.920 1_556 S
O132 Mn108 2.385 . S
O132 C110 1.234 . S
O133 Mn108 2.209 . S
O133 Mn109 2.215 . S
O133 C110 1.283 . S
O134 Mn108 2.094 1_556 S
O134 C112 1.240 . S
O135 Mn109 2.117 1_556 S
O135 C112 1.264 . S
C136 C129 1.403 . S
C136 C137 1.399 . S
C136 H142 0.929 . S
C137 C117 1.449 . S
C137 C136 1.399 . S
C137 H143 0.930 . S
H138 C118 0.931 . S
H139 C119 0.930 . S
H140 C127 0.931 . S
H141 C128 0.929 . S
H142 C136 0.929 . S
H143 C137 0.930 . S
Mn144 O149 2.095 . S
Mn144 O159 2.162 . S
Mn144 O160 2.297 . S
Mn144 O168 2.385 . S
Mn144 O169 2.209 . S
Mn144 O170 2.094 . S
Mn145 O150 2.121 . S
Mn145 N152 2.257 1_455 S
Mn145 N161 2.284 . S
Mn145 O169 2.215 . S
Mn145 O171 2.117 . S
C146 O168 1.234 . S
C146 O169 1.283 . S
C147 O159 1.281 . S
C147 O160 1.236 . S
C148 O170 1.240 . S
C148 O171 1.264 . S
O149 Mn144 2.095 . S
O149 C158 1.250 . S
O150 Mn145 2.121 . S
O150 C158 1.258 . S
C151 N152 1.326 . S
C151 C155 1.460 . S
C151 H157 0.929 1_655 S
N152 Mn145 2.257 1_655 S
N152 C151 1.326 . S
N152 C156 1.362 . S
C153 C154 1.258 . S
C153 C156 1.431 . S
C153 C173 1.449 . S
C154 C153 1.258 . S
C154 C155 1.477 . S
C154 H174 0.931 . S
C155 C151 1.460 . S
C155 C154 1.477 . S
C155 H175 0.930 . S
C156 N152 1.362 . S
C156 C153 1.431 . S
C156 C166 1.476 . S
H157 C151 0.929 1_455 S
C158 O149 1.250 . S
C158 O150 1.258 . S
O159 Mn144 2.162 . S
O159 C147 1.281 . S
O160 Mn144 2.297 . S
O160 C147 1.236 . S
N161 Mn145 2.284 . S
N161 C162 1.328 . S
N161 C166 1.316 1_455 S
C162 N161 1.328 . S
C162 C163 1.457 1_455 S
C162 H167 0.929 . S
C163 C162 1.457 1_655 S
C163 C164 1.291 . S
C163 H176 0.931 . S
C164 C163 1.291 . S
C164 C165 1.373 . S
C164 H177 0.929 . S
C165 C164 1.373 . S
C165 C166 1.396 . S
C165 C172 1.403 . S
C166 C156 1.476 . S
C166 N161 1.316 1_655 S
C166 C165 1.396 . S
H167 C162 0.929 . S
O168 Mn144 2.385 . S
O168 C146 1.234 . S
O169 Mn144 2.209 . S
O169 Mn145 2.215 . S
O169 C146 1.283 . S
O170 Mn144 2.094 . S
O170 C148 1.240 . S
O171 Mn145 2.117 . S
O171 C148 1.264 . S
C172 C165 1.403 . S
C172 C173 1.399 . S
C172 H178 0.929 . S
C173 C153 1.449 . S
C173 C172 1.399 . S
C173 H179 0.930 . S
H174 C154 0.931 . S
H175 C155 0.930 . S
H176 C163 0.931 . S
H177 C164 0.929 . S
H178 C172 0.929 . S
H179 C173 0.930 . S
Mn180 O185 2.095 . S
Mn180 O195 2.162 . S
Mn180 O196 2.297 . S
Mn180 O204 2.385 . S
Mn180 O205 2.209 . S
Mn180 O206 2.094 . S
Mn181 O186 2.121 . S
Mn181 N188 2.257 . S
Mn181 N197 2.282 . S
Mn181 O205 2.215 . S
Mn181 O207 2.117 . S
C182 O204 1.234 . S
C182 O205 1.283 . S
C183 O195 1.281 . S
C183 O196 1.236 . S
C184 O206 1.240 . S
C184 O207 1.264 . S
O185 Mn180 2.095 . S
O185 C194 1.250 . S
O186 Mn181 2.121 . S
O186 C194 1.258 . S
C187 N188 1.326 . S
C187 C191 1.460 . S
C187 H193 0.929 . S
N188 Mn181 2.257 . S
N188 C187 1.326 . S
N188 C192 1.362 . S
C189 C190 1.258 . S
C189 C192 1.431 . S
C189 C209 1.449 . S
C190 C189 1.258 . S
C190 C191 1.477 . S
C190 H210 0.931 . S
C191 C187 1.460 . S
C191 C190 1.477 . S
C191 H211 0.930 . S
C192 N188 1.362 . S
C192 C189 1.431 . S
C192 C202 1.476 . S
H193 C187 0.929 . S
C194 O185 1.250 . S
C194 O186 1.258 . S
O195 Mn180 2.162 . S
O195 C183 1.281 . S
O196 Mn180 2.297 . S
O196 C183 1.236 . S
N197 Mn181 2.282 . S
N197 C198 1.328 . S
N197 C202 1.318 . S
C198 N197 1.328 . S
C198 C199 1.457 . S
C198 H203 0.929 . S
C199 C198 1.457 . S
C199 C200 1.291 . S
C199 H212 0.931 . S
C200 C199 1.291 . S
C200 C201 1.373 . S
C200 H213 0.929 . S
C201 C200 1.373 . S
C201 C202 1.396 . S
C201 C208 1.403 . S
C202 C192 1.476 . S
C202 N197 1.318 . S
C202 C201 1.396 . S
H203 C198 0.929 . S
O204 Mn180 2.385 . S
O204 C182 1.234 . S
O205 Mn180 2.209 . S
O205 Mn181 2.215 . S
O205 C182 1.283 . S
O206 Mn180 2.094 . S
O206 C184 1.240 . S
O207 Mn181 2.117 . S
O207 C184 1.264 . S
C208 C201 1.403 . S
C208 C209 1.399 . S
C208 H214 0.929 . S
C209 C189 1.449 . S
C209 C208 1.399 . S
C209 H215 0.930 . S
H210 C190 0.931 . S
H211 C191 0.930 . S
H212 C199 0.931 . S
H213 C200 0.929 . S
H214 C208 0.929 . S
H215 C209 0.930 . S
Mn216 O221 2.095 . S
Mn216 O231 2.162 . S
Mn216 O232 2.297 . S
Mn216 O240 2.385 . S
Mn216 O241 2.209 . S
Mn216 O242 2.094 . S
Mn217 O222 2.121 . S
Mn217 N224 2.257 . S
Mn217 N233 2.282 . S
Mn217 O241 2.215 . S
Mn217 O243 2.117 . S
C218 O240 1.234 . S
C218 O241 1.283 . S
C219 O231 1.281 . S
C219 O232 1.236 . S
C220 O242 1.240 . S
C220 O243 1.264 . S
O221 Mn216 2.095 . S
O221 C230 1.250 . S
O222 Mn217 2.121 . S
O222 C230 1.258 . S
C223 N224 1.326 . S
C223 C227 1.460 . S
C223 H229 0.929 . S
N224 Mn217 2.257 . S
N224 C223 1.326 . S
N224 C228 1.362 . S
C225 C226 1.258 . S
C225 C228 1.431 . S
C225 C245 1.449 . S
C226 C225 1.258 . S
C226 C227 1.477 . S
C226 H246 0.931 . S
C227 C223 1.460 . S
C227 C226 1.477 . S
C227 H247 0.930 . S
C228 N224 1.362 . S
C228 C225 1.431 . S
C228 C238 1.476 . S
H229 C223 0.929 . S
C230 O221 1.250 . S
C230 O222 1.258 . S
O231 Mn216 2.162 . S
O231 C219 1.281 . S
O232 Mn216 2.297 . S
O232 C219 1.236 . S
N233 Mn217 2.282 . S
N233 C234 1.328 . S
N233 C238 1.318 . S
C234 N233 1.328 . S
C234 C235 1.457 . S
C234 H239 0.929 . S
C235 C234 1.457 . S
C235 C236 1.291 . S
C235 H248 0.931 . S
C236 C235 1.291 . S
C236 C237 1.373 . S
C236 H249 0.929 . S
C237 C236 1.373 . S
C237 C238 1.396 . S
C237 C244 1.403 . S
C238 C228 1.476 . S
C238 N233 1.318 . S
C238 C237 1.396 . S
H239 C234 0.929 . S
O240 Mn216 2.385 . S
O240 C218 1.234 . S
O241 Mn216 2.209 . S
O241 Mn217 2.215 . S
O241 C218 1.283 . S
O242 Mn216 2.094 . S
O242 C220 1.240 . S
O243 Mn217 2.117 . S
O243 C220 1.264 . S
C244 C237 1.403 . S
C244 C245 1.399 . S
C244 H250 0.929 . S
C245 C225 1.449 . S
C245 C244 1.399 . S
C245 H251 0.930 . S
H246 C226 0.931 . S
H247 C227 0.930 . S
H248 C235 0.931 . S
H249 C236 0.929 . S
H250 C244 0.929 . S
H251 C245 0.930 . S
Mn252 O257 2.095 . S
Mn252 O267 2.162 . S
Mn252 O268 2.297 . S
Mn252 O276 2.385 . S
Mn252 O277 2.209 . S
Mn252 O278 2.094 1_556 S
Mn253 O258 2.121 . S
Mn253 N260 2.257 . S
Mn253 N269 2.282 . S
Mn253 O277 2.215 . S
Mn253 O279 2.117 1_556 S
C254 O276 1.234 . S
C254 O277 1.283 . S
C255 O267 1.281 . S
C255 O268 1.236 . S
C256 O278 1.240 . S
C256 O279 1.264 . S
O257 Mn252 2.095 . S
O257 C266 1.250 . S
O258 Mn253 2.121 . S
O258 C266 1.258 . S
C259 N260 1.326 . S
C259 C263 1.460 . S
C259 H265 0.929 . S
N260 Mn253 2.257 . S
N260 C259 1.326 . S
N260 C264 1.362 . S
C261 C262 1.258 . S
C261 C264 1.431 . S
C261 C281 1.449 . S
C262 C261 1.258 . S
C262 C263 1.477 . S
C262 H282 0.931 . S
C263 C259 1.460 . S
C263 C262 1.477 . S
C263 H283 0.930 . S
C264 N260 1.362 . S
C264 C261 1.431 . S
C264 C274 1.476 . S
H265 C259 0.929 . S
C266 O257 1.250 . S
C266 O258 1.258 . S
O267 Mn252 2.162 . S
O267 C255 1.281 . S
O268 Mn252 2.297 . S
O268 C255 1.236 . S
N269 Mn253 2.282 . S
N269 C270 1.328 . S
N269 C274 1.318 . S
C270 N269 1.328 . S
C270 C271 1.457 . S
C270 H275 0.920 1_556 S
C271 C270 1.457 . S
C271 C272 1.291 . S
C271 H284 0.931 . S
C272 C271 1.291 . S
C272 C273 1.373 . S
C272 H285 0.929 . S
C273 C272 1.373 . S
C273 C274 1.396 . S
C273 C280 1.403 . S
C274 C264 1.476 . S
C274 N269 1.318 . S
C274 C273 1.396 . S
H275 C270 0.920 1_554 S
O276 Mn252 2.385 . S
O276 C254 1.234 . S
O277 Mn252 2.209 . S
O277 Mn253 2.215 . S
O277 C254 1.283 . S
O278 Mn252 2.094 1_554 S
O278 C256 1.240 . S
O279 Mn253 2.117 1_554 S
O279 C256 1.264 . S
C280 C273 1.403 . S
C280 C281 1.399 . S
C280 H286 0.929 . S
C281 C261 1.449 . S
C281 C280 1.399 . S
C281 H287 0.930 . S
H282 C262 0.931 . S
H283 C263 0.930 . S
H284 C271 0.931 . S
H285 C272 0.929 . S
H286 C280 0.929 . S
H287 C281 0.930 . S
Mn288 O293 2.095 . S
Mn288 O303 2.162 . S
Mn288 O304 2.297 . S
Mn288 O312 2.385 . S
Mn288 O313 2.209 . S
Mn288 O314 2.094 . S
Mn289 O294 2.121 . S
Mn289 N296 2.257 1_655 S
Mn289 N305 2.282 1_655 S
Mn289 O313 2.215 . S
Mn289 O315 2.117 . S
C290 O312 1.234 . S
C290 O313 1.283 . S
C291 O303 1.281 . S
C291 O304 1.236 . S
C292 O314 1.240 . S
C292 O315 1.264 . S
O293 Mn288 2.095 . S
O293 C302 1.250 . S
O294 Mn289 2.121 . S
O294 C302 1.258 . S
C295 N296 1.326 . S
C295 C299 1.460 . S
C295 H301 0.935 . S
N296 Mn289 2.257 1_455 S
N296 C295 1.326 . S
N296 C300 1.362 . S
C297 C298 1.258 . S
C297 C300 1.431 . S
C297 C317 1.449 . S
C298 C297 1.258 . S
C298 C299 1.477 . S
C298 H318 0.931 . S
C299 C295 1.460 . S
C299 C298 1.477 . S
C299 H319 0.930 . S
C300 N296 1.362 . S
C300 C297 1.431 . S
C300 C310 1.476 . S
H301 C295 0.935 . S
C302 O293 1.250 . S
C302 O294 1.258 . S
O303 Mn288 2.162 . S
O303 C291 1.281 . S
O304 Mn288 2.297 . S
O304 C291 1.236 . S
N305 Mn289 2.282 1_455 S
N305 C306 1.328 . S
N305 C310 1.318 . S
C306 N305 1.328 . S
C306 C307 1.457 . S
C306 H311 0.929 1_455 S
C307 C306 1.457 . S
C307 C308 1.291 . S
C307 H320 0.931 . S
C308 C307 1.291 . S
C308 C309 1.373 . S
C308 H321 0.929 . S
C309 C308 1.373 . S
C309 C310 1.396 . S
C309 C316 1.403 . S
C310 C300 1.476 . S
C310 N305 1.318 . S
C310 C309 1.396 . S
H311 C306 0.929 1_655 S
O312 Mn288 2.385 . S
O312 C290 1.234 . S
O313 Mn288 2.209 . S
O313 Mn289 2.215 . S
O313 C290 1.283 . S
O314 Mn288 2.094 . S
O314 C292 1.240 . S
O315 Mn289 2.117 . S
O315 C292 1.264 . S
C316 C309 1.403 . S
C316 C317 1.399 . S
C316 H322 0.929 . S
C317 C297 1.449 . S
C317 C316 1.399 . S
C317 H323 0.930 . S
H318 C298 0.931 . S
H319 C299 0.930 . S
H320 C307 0.931 . S
H321 C308 0.929 . S
H322 C316 0.929 . S
H323 C317 0.930 . S
Mn324 O329 2.095 . S
Mn324 O339 2.162 . S
Mn324 O340 2.297 . S
Mn324 O348 2.385 . S
Mn324 O349 2.209 . S
Mn324 O350 2.094 . S
Mn325 O330 2.121 . S
Mn325 N332 2.257 . S
Mn325 N341 2.282 . S
Mn325 O349 2.215 . S
Mn325 O351 2.117 . S
C326 O348 1.234 . S
C326 O349 1.283 . S
C327 O339 1.281 . S
C327 O340 1.236 . S
C328 O350 1.240 . S
C328 O351 1.264 . S
O329 Mn324 2.095 . S
O329 C338 1.250 . S
O330 Mn325 2.121 . S
O330 C338 1.258 . S
C331 N332 1.326 . S
C331 C335 1.460 . S
C331 H337 0.929 . S
N332 Mn325 2.257 . S
N332 C331 1.326 . S
N332 C336 1.362 . S
C333 C334 1.258 . S
C333 C336 1.431 . S
C333 C353 1.449 . S
C334 C333 1.258 . S
C334 C335 1.477 . S
C334 H354 0.931 . S
C335 C331 1.460 . S
C335 C334 1.477 . S
C335 H355 0.930 . S
C336 N332 1.362 . S
C336 C333 1.431 . S
C336 C346 1.476 . S
H337 C331 0.929 . S
C338 O329 1.250 . S
C338 O330 1.258 . S
O339 Mn324 2.162 . S
O339 C327 1.281 . S
O340 Mn324 2.297 . S
O340 C327 1.236 . S
N341 Mn325 2.282 . S
N341 C342 1.328 . S
N341 C346 1.318 . S
C342 N341 1.328 . S
C342 C343 1.457 . S
C342 H347 0.929 . S
C343 C342 1.457 . S
C343 C344 1.291 . S
C343 H356 0.931 . S
C344 C343 1.291 . S
C344 C345 1.373 . S
C344 H357 0.929 . S
C345 C344 1.373 . S
C345 C346 1.396 . S
C345 C352 1.403 . S
C346 C336 1.476 . S
C346 N341 1.318 . S
C346 C345 1.396 . S
H347 C342 0.929 . S
O348 Mn324 2.385 . S
O348 C326 1.234 . S
O349 Mn324 2.209 . S
O349 Mn325 2.215 . S
O349 C326 1.283 . S
O350 Mn324 2.094 . S
O350 C328 1.240 . S
O351 Mn325 2.117 . S
O351 C328 1.264 . S
C352 C345 1.403 . S
C352 C353 1.399 . S
C352 H358 0.929 . S
C353 C333 1.449 . S
C353 C352 1.399 . S
C353 H359 0.930 . S
H354 C334 0.931 . S
H355 C335 0.930 . S
H356 C343 0.931 . S
H357 C344 0.929 . S
H358 C352 0.929 . S
H359 C353 0.930 . S
Mn360 O365 2.095 . S
Mn360 O375 2.162 . S
Mn360 O376 2.297 . S
Mn360 O384 2.385 . S
Mn360 O385 2.209 . S
Mn360 O386 2.094 . S
Mn361 O366 2.121 . S
Mn361 N368 2.257 . S
Mn361 N377 2.282 . S
Mn361 O385 2.215 . S
Mn361 O387 2.117 . S
C362 O384 1.234 . S
C362 O385 1.283 . S
C363 O375 1.281 . S
C363 O376 1.236 . S
C364 O386 1.240 . S
C364 O387 1.264 . S
O365 Mn360 2.095 . S
O365 C374 1.250 . S
O366 Mn361 2.121 . S
O366 C374 1.258 . S
C367 N368 1.326 . S
C367 C371 1.460 . S
C367 H373 0.929 . S
N368 Mn361 2.257 . S
N368 C367 1.326 . S
N368 C372 1.362 . S
C369 C370 1.258 . S
C369 C372 1.431 . S
C369 C389 1.449 . S
C370 C369 1.258 . S
C370 C371 1.477 . S
C370 H390 0.931 . S
C371 C367 1.460 . S
C371 C370 1.477 . S
C371 H391 0.930 . S
C372 N368 1.362 . S
C372 C369 1.431 . S
C372 C382 1.476 . S
H373 C367 0.929 . S
C374 O365 1.250 . S
C374 O366 1.258 . S
O375 Mn360 2.162 . S
O375 C363 1.281 . S
O376 Mn360 2.297 . S
O376 C363 1.236 . S
N377 Mn361 2.282 . S
N377 C378 1.328 . S
N377 C382 1.318 . S
C378 N377 1.328 . S
C378 C379 1.457 . S
C378 H383 0.929 . S
C379 C378 1.457 . S
C379 C380 1.291 . S
C379 H392 0.931 . S
C380 C379 1.291 . S
C380 C381 1.373 . S
C380 H393 0.929 . S
C381 C380 1.373 . S
C381 C382 1.396 . S
C381 C388 1.403 . S
C382 C372 1.476 . S
C382 N377 1.318 . S
C382 C381 1.396 . S
H383 C378 0.929 . S
O384 Mn360 2.385 . S
O384 C362 1.234 . S
O385 Mn360 2.209 . S
O385 Mn361 2.215 . S
O385 C362 1.283 . S
O386 Mn360 2.094 . S
O386 C364 1.240 . S
O387 Mn361 2.117 . S
O387 C364 1.264 . S
C388 C381 1.403 . S
C388 C389 1.399 . S
C388 H394 0.929 . S
C389 C369 1.449 . S
C389 C388 1.399 . S
C389 H395 0.930 . S
H390 C370 0.931 . S
H391 C371 0.930 . S
H392 C379 0.931 . S
H393 C380 0.929 . S
H394 C388 0.929 . S
H395 C389 0.930 . S
Mn396 O401 2.095 1_556 S
Mn396 O411 2.162 . S
Mn396 O412 2.297 . S
Mn396 O420 2.385 . S
Mn396 O421 2.209 . S
Mn396 O422 2.094 . S
Mn397 O402 2.121 . S
Mn397 N404 2.257 . S
Mn397 N413 2.282 1_554 S
Mn397 O421 2.215 1_554 S
Mn397 O423 2.117 1_554 S
C398 O420 1.234 . S
C398 O421 1.283 . S
C399 O411 1.281 . S
C399 O412 1.236 . S
C400 O422 1.240 . S
C400 O423 1.264 . S
O401 Mn396 2.095 1_554 S
O401 C410 1.250 . S
O402 Mn397 2.121 . S
O402 C410 1.258 . S
C403 N404 1.326 . S
C403 C407 1.460 . S
C403 H409 0.929 . S
N404 Mn397 2.257 . S
N404 C403 1.326 . S
N404 C408 1.362 . S
C405 C406 1.258 . S
C405 C408 1.431 . S
C405 C425 1.449 . S
C406 C405 1.258 . S
C406 C407 1.477 . S
C406 H426 0.931 . S
C407 C403 1.460 . S
C407 C406 1.477 . S
C407 H427 0.930 . S
C408 N404 1.362 . S
C408 C405 1.431 . S
C408 C418 1.476 1_554 S
H409 C403 0.929 . S
C410 O401 1.250 . S
C410 O402 1.258 . S
O411 Mn396 2.162 . S
O411 C399 1.281 . S
O412 Mn396 2.297 . S
O412 C399 1.236 . S
N413 Mn397 2.282 1_556 S
N413 C414 1.328 . S
N413 C418 1.318 . S
C414 N413 1.328 . S
C414 C415 1.457 . S
C414 H419 0.929 . S
C415 C414 1.457 . S
C415 C416 1.291 . S
C415 H428 0.931 . S
C416 C415 1.291 . S
C416 C417 1.373 . S
C416 H429 0.929 . S
C417 C416 1.373 . S
C417 C418 1.396 . S
C417 C424 1.403 . S
C418 C408 1.476 1_556 S
C418 N413 1.318 . S
C418 C417 1.396 . S
H419 C414 0.929 . S
O420 Mn396 2.385 . S
O420 C398 1.234 . S
O421 Mn396 2.209 . S
O421 Mn397 2.215 1_556 S
O421 C398 1.283 . S
O422 Mn396 2.094 . S
O422 C400 1.240 . S
O423 Mn397 2.117 1_556 S
O423 C400 1.264 . S
C424 C417 1.403 . S
C424 C425 1.399 1_556 S
C424 H430 0.929 . S
C425 C405 1.449 . S
C425 C424 1.399 1_554 S
C425 H431 0.930 . S
H426 C406 0.931 . S
H427 C407 0.930 . S
H428 C415 0.931 . S
H429 C416 0.929 . S
H430 C424 0.929 . S
H431 C425 0.930 . S
Mn432 O437 2.095 . S
Mn432 O447 2.162 . S
Mn432 O448 2.297 . S
Mn432 O456 2.385 . S
Mn432 O457 2.209 . S
Mn432 O458 2.094 . S
Mn433 O438 2.121 . S
Mn433 N440 2.257 1_655 S
Mn433 N449 2.282 1_655 S
Mn433 O457 2.215 . S
Mn433 O459 2.117 . S
C434 O456 1.234 . S
C434 O457 1.283 . S
C435 O447 1.281 . S
C435 O448 1.236 . S
C436 O458 1.240 . S
C436 O459 1.264 . S
O437 Mn432 2.095 . S
O437 C446 1.250 . S
O438 Mn433 2.121 . S
O438 C446 1.258 . S
C439 N440 1.326 . S
C439 C443 1.460 . S
C439 H445 0.935 . S
N440 Mn433 2.257 1_455 S
N440 C439 1.326 . S
N440 C444 1.362 . S
C441 C442 1.258 . S
C441 C444 1.431 . S
C441 C461 1.449 . S
C442 C441 1.258 . S
C442 C443 1.477 . S
C442 H462 0.931 . S
C443 C439 1.460 . S
C443 C442 1.477 . S
C443 H463 0.930 . S
C444 N440 1.362 . S
C444 C441 1.431 . S
C444 C454 1.476 . S
H445 C439 0.935 . S
C446 O437 1.250 . S
C446 O438 1.258 . S
O447 Mn432 2.162 . S
O447 C435 1.281 . S
O448 Mn432 2.297 . S
O448 C435 1.236 . S
N449 Mn433 2.282 1_455 S
N449 C450 1.328 . S
N449 C454 1.318 . S
C450 N449 1.328 . S
C450 C451 1.457 . S
C450 H455 0.929 1_455 S
C451 C450 1.457 . S
C451 C452 1.291 . S
C451 H464 0.931 . S
C452 C451 1.291 . S
C452 C453 1.373 . S
C452 H465 0.929 . S
C453 C452 1.373 . S
C453 C454 1.396 . S
C453 C460 1.403 . S
C454 C444 1.476 . S
C454 N449 1.318 . S
C454 C453 1.396 . S
H455 C450 0.929 1_655 S
O456 Mn432 2.385 . S
O456 C434 1.234 . S
O457 Mn432 2.209 . S
O457 Mn433 2.215 . S
O457 C434 1.283 . S
O458 Mn432 2.094 . S
O458 C436 1.240 . S
O459 Mn433 2.117 . S
O459 C436 1.264 . S
C460 C453 1.403 . S
C460 C461 1.399 . S
C460 H466 0.929 . S
C461 C441 1.449 . S
C461 C460 1.399 . S
C461 H467 0.930 . S
H462 C442 0.931 . S
H463 C443 0.930 . S
H464 C451 0.931 . S
H465 C452 0.929 . S
H466 C460 0.929 . S
H467 C461 0.930 . S
Mn468 O473 2.095 . S
Mn468 O483 2.162 . S
Mn468 O484 2.297 . S
Mn468 O492 2.385 . S
Mn468 O493 2.209 . S
Mn468 O494 2.094 . S
Mn469 O474 2.121 . S
Mn469 N476 2.257 . S
Mn469 N485 2.282 . S
Mn469 O493 2.215 . S
Mn469 O495 2.117 . S
C470 O492 1.234 . S
C470 O493 1.283 . S
C471 O483 1.281 . S
C471 O484 1.236 . S
C472 O494 1.240 . S
C472 O495 1.264 . S
O473 Mn468 2.095 . S
O473 C482 1.250 . S
O474 Mn469 2.121 . S
O474 C482 1.258 . S
C475 N476 1.326 . S
C475 C479 1.460 . S
C475 H481 0.929 . S
N476 Mn469 2.257 . S
N476 C475 1.326 . S
N476 C480 1.362 . S
C477 C478 1.258 . S
C477 C480 1.431 . S
C477 C497 1.449 . S
C478 C477 1.258 . S
C478 C479 1.477 . S
C478 H498 0.931 . S
C479 C475 1.460 . S
C479 C478 1.477 . S
C479 H499 0.930 . S
C480 N476 1.362 . S
C480 C477 1.431 . S
C480 C490 1.476 . S
H481 C475 0.929 . S
C482 O473 1.250 . S
C482 O474 1.258 . S
O483 Mn468 2.162 . S
O483 C471 1.281 . S
O484 Mn468 2.297 . S
O484 C471 1.236 . S
N485 Mn469 2.282 . S
N485 C486 1.328 . S
N485 C490 1.318 . S
C486 N485 1.328 . S
C486 C487 1.457 . S
C486 H491 0.929 . S
C487 C486 1.457 . S
C487 C488 1.291 . S
C487 H500 0.931 . S
C488 C487 1.291 . S
C488 C489 1.373 . S
C488 H501 0.929 . S
C489 C488 1.373 . S
C489 C490 1.396 . S
C489 C496 1.403 . S
C490 C480 1.476 . S
C490 N485 1.318 . S
C490 C489 1.396 . S
H491 C486 0.929 . S
O492 Mn468 2.385 . S
O492 C470 1.234 . S
O493 Mn468 2.209 . S
O493 Mn469 2.215 . S
O493 C470 1.283 . S
O494 Mn468 2.094 . S
O494 C472 1.240 . S
O495 Mn469 2.117 . S
O495 C472 1.264 . S
C496 C489 1.403 . S
C496 C497 1.399 . S
C496 H502 0.929 . S
C497 C477 1.449 . S
C497 C496 1.399 . S
C497 H503 0.930 . S
H498 C478 0.931 . S
H499 C479 0.930 . S
H500 C487 0.931 . S
H501 C488 0.929 . S
H502 C496 0.929 . S
H503 C497 0.930 . S
Mn504 O509 2.095 . S
Mn504 O519 2.162 . S
Mn504 O520 2.297 . S
Mn504 O528 2.385 . S
Mn504 O529 2.209 . S
Mn504 O530 2.094 . S
Mn505 O510 2.121 . S
Mn505 N512 2.257 . S
Mn505 N521 2.282 . S
Mn505 O529 2.215 . S
Mn505 O531 2.117 . S
C506 O528 1.234 . S
C506 O529 1.283 . S
C507 O519 1.281 . S
C507 O520 1.236 . S
C508 O530 1.240 . S
C508 O531 1.264 . S
O509 Mn504 2.095 . S
O509 C518 1.250 . S
O510 Mn505 2.121 . S
O510 C518 1.258 . S
C511 N512 1.326 . S
C511 C515 1.460 . S
C511 H517 0.929 . S
N512 Mn505 2.257 . S
N512 C511 1.326 . S
N512 C516 1.362 . S
C513 C514 1.258 . S
C513 C516 1.431 . S
C513 C533 1.449 . S
C514 C513 1.258 . S
C514 C515 1.477 . S
C514 H534 0.931 . S
C515 C511 1.460 . S
C515 C514 1.477 . S
C515 H535 0.930 . S
C516 N512 1.362 . S
C516 C513 1.431 . S
C516 C526 1.476 . S
H517 C511 0.929 . S
C518 O509 1.250 . S
C518 O510 1.258 . S
O519 Mn504 2.162 . S
O519 C507 1.281 . S
O520 Mn504 2.297 . S
O520 C507 1.236 . S
N521 Mn505 2.282 . S
N521 C522 1.328 . S
N521 C526 1.318 . S
C522 N521 1.328 . S
C522 C523 1.457 . S
C522 H527 0.929 . S
C523 C522 1.457 . S
C523 C524 1.291 . S
C523 H536 0.931 . S
C524 C523 1.291 . S
C524 C525 1.373 . S
C524 H537 0.929 . S
C525 C524 1.373 . S
C525 C526 1.396 . S
C525 C532 1.403 . S
C526 C516 1.476 . S
C526 N521 1.318 . S
C526 C525 1.396 . S
H527 C522 0.929 . S
O528 Mn504 2.385 . S
O528 C506 1.234 . S
O529 Mn504 2.209 . S
O529 Mn505 2.215 . S
O529 C506 1.283 . S
O530 Mn504 2.094 . S
O530 C508 1.240 . S
O531 Mn505 2.117 . S
O531 C508 1.264 . S
C532 C525 1.403 . S
C532 C533 1.399 . S
C532 H538 0.929 . S
C533 C513 1.449 . S
C533 C532 1.399 . S
C533 H539 0.930 . S
H534 C514 0.931 . S
H535 C515 0.930 . S
H536 C523 0.931 . S
H537 C524 0.929 . S
H538 C532 0.929 . S
H539 C533 0.930 . S
Mn540 O545 2.095 1_554 S
Mn540 O555 2.162 . S
Mn540 O556 2.297 . S
Mn540 O564 2.385 . S
Mn540 O565 2.209 . S
Mn540 O566 2.094 . S
Mn541 O546 2.121 . S
Mn541 N548 2.257 . S
Mn541 N557 2.282 1_556 S
Mn541 O565 2.215 1_556 S
Mn541 O567 2.117 1_556 S
C542 O564 1.234 . S
C542 O565 1.283 . S
C543 O555 1.281 . S
C543 O556 1.236 . S
C544 O566 1.240 . S
C544 O567 1.264 . S
O545 Mn540 2.095 1_556 S
O545 C554 1.250 . S
O546 Mn541 2.121 . S
O546 C554 1.258 . S
C547 N548 1.326 . S
C547 C551 1.460 . S
C547 H553 0.929 . S
N548 Mn541 2.257 . S
N548 C547 1.326 . S
N548 C552 1.362 . S
C549 C550 1.258 . S
C549 C552 1.431 . S
C549 C569 1.449 . S
C550 C549 1.258 . S
C550 C551 1.477 . S
C550 H570 0.931 . S
C551 C547 1.460 . S
C551 C550 1.477 . S
C551 H571 0.930 . S
C552 N548 1.362 . S
C552 C549 1.431 . S
C552 C562 1.476 1_556 S
H553 C547 0.929 . S
C554 O545 1.250 . S
C554 O546 1.258 . S
O555 Mn540 2.162 . S
O555 C543 1.281 . S
O556 Mn540 2.297 . S
O556 C543 1.236 . S
N557 Mn541 2.282 1_554 S
N557 C558 1.328 . S
N557 C562 1.318 . S
C558 N557 1.328 . S
C558 C559 1.457 . S
C558 H563 0.929 . S
C559 C558 1.457 . S
C559 C560 1.291 . S
C559 H572 0.931 . S
C560 C559 1.291 . S
C560 C561 1.373 . S
C560 H573 0.929 . S
C561 C560 1.373 . S
C561 C562 1.396 . S
C561 C568 1.403 . S
C562 C552 1.476 1_554 S
C562 N557 1.318 . S
C562 C561 1.396 . S
H563 C558 0.929 . S
O564 Mn540 2.385 . S
O564 C542 1.234 . S
O565 Mn540 2.209 . S
O565 Mn541 2.215 1_554 S
O565 C542 1.283 . S
O566 Mn540 2.094 . S
O566 C544 1.240 . S
O567 Mn541 2.117 1_554 S
O567 C544 1.264 . S
C568 C561 1.403 . S
C568 C569 1.399 1_554 S
C568 H574 0.929 . S
C569 C549 1.449 . S
C569 C568 1.399 1_556 S
C569 H575 0.930 . S
H570 C550 0.931 . S
H571 C551 0.930 . S
H572 C559 0.931 . S
H573 C560 0.929 . S
H574 C568 0.929 . S
H575 C569 0.930 . S
Mn576 O581 2.095 . S
Mn576 O591 2.162 . S
Mn576 O592 2.297 . S
Mn576 O600 2.385 . S
Mn576 O601 2.209 . S
Mn576 O602 2.094 . S
Mn577 O582 2.121 . S
Mn577 N584 2.257 . S
Mn577 N593 2.282 . S
Mn577 O601 2.215 . S
Mn577 O603 2.117 . S
C578 O600 1.234 . S
C578 O601 1.283 . S
C579 O591 1.281 . S
C579 O592 1.236 . S
C580 O602 1.240 . S
C580 O603 1.264 . S
O581 Mn576 2.095 . S
O581 C590 1.250 . S
O582 Mn577 2.121 . S
O582 C590 1.258 . S
C583 N584 1.326 . S
C583 C587 1.460 . S
C583 H589 0.929 . S
N584 Mn577 2.257 . S
N584 C583 1.326 . S
N584 C588 1.362 . S
C585 C586 1.258 . S
C585 C588 1.431 . S
C585 C605 1.449 . S
C586 C585 1.258 . S
C586 C587 1.477 . S
C586 H606 0.931 . S
C587 C583 1.460 . S
C587 C586 1.477 . S
C587 H607 0.930 . S
C588 N584 1.362 . S
C588 C585 1.431 . S
C588 C598 1.476 . S
H589 C583 0.929 . S
C590 O581 1.250 . S
C590 O582 1.258 . S
O591 Mn576 2.162 . S
O591 C579 1.281 . S
O592 Mn576 2.297 . S
O592 C579 1.236 . S
N593 Mn577 2.282 . S
N593 C594 1.328 . S
N593 C598 1.318 . S
C594 N593 1.328 . S
C594 C595 1.457 . S
C594 H599 0.929 . S
C595 C594 1.457 . S
C595 C596 1.291 . S
C595 H608 0.931 . S
C596 C595 1.291 . S
C596 C597 1.373 . S
C596 H609 0.929 . S
C597 C596 1.373 . S
C597 C598 1.396 . S
C597 C604 1.403 . S
C598 C588 1.476 . S
C598 N593 1.318 . S
C598 C597 1.396 . S
H599 C594 0.929 . S
O600 Mn576 2.385 . S
O600 C578 1.234 . S
O601 Mn576 2.209 . S
O601 Mn577 2.215 . S
O601 C578 1.283 . S
O602 Mn576 2.094 . S
O602 C580 1.240 . S
O603 Mn577 2.117 . S
O603 C580 1.264 . S
C604 C597 1.403 . S
C604 C605 1.399 . S
C604 H610 0.929 . S
C605 C585 1.449 . S
C605 C604 1.399 . S
C605 H611 0.930 . S
H606 C586 0.931 . S
H607 C587 0.930 . S
H608 C595 0.931 . S
H609 C596 0.929 . S
H610 C604 0.929 . S
H611 C605 0.930 . S
Mn612 O617 2.095 . S
Mn612 O627 2.162 . S
Mn612 O628 2.297 . S
Mn612 O636 2.385 . S
Mn612 O637 2.209 . S
Mn612 O638 2.094 1_554 S
Mn613 O618 2.121 . S
Mn613 N620 2.257 . S
Mn613 N629 2.282 . S
Mn613 O637 2.215 . S
Mn613 O639 2.117 1_554 S
C614 O636 1.234 . S
C614 O637 1.283 . S
C615 O627 1.281 . S
C615 O628 1.236 . S
C616 O638 1.240 . S
C616 O639 1.264 . S
O617 Mn612 2.095 . S
O617 C626 1.250 . S
O618 Mn613 2.121 . S
O618 C626 1.258 . S
C619 N620 1.326 . S
C619 C623 1.460 . S
C619 H625 0.929 . S
N620 Mn613 2.257 . S
N620 C619 1.326 . S
N620 C624 1.362 . S
C621 C622 1.258 . S
C621 C624 1.431 . S
C621 C641 1.449 . S
C622 C621 1.258 . S
C622 C623 1.477 . S
C622 H642 0.931 . S
C623 C619 1.460 . S
C623 C622 1.477 . S
C623 H643 0.930 . S
C624 N620 1.362 . S
C624 C621 1.431 . S
C624 C634 1.476 . S
H625 C619 0.929 . S
C626 O617 1.250 . S
C626 O618 1.258 . S
O627 Mn612 2.162 . S
O627 C615 1.281 . S
O628 Mn612 2.297 . S
O628 C615 1.236 . S
N629 Mn613 2.282 . S
N629 C630 1.328 . S
N629 C634 1.318 . S
C630 N629 1.328 . S
C630 C631 1.457 . S
C630 H635 0.920 1_554 S
C631 C630 1.457 . S
C631 C632 1.291 . S
C631 H644 0.931 . S
C632 C631 1.291 . S
C632 C633 1.373 . S
C632 H645 0.929 . S
C633 C632 1.373 . S
C633 C634 1.396 . S
C633 C640 1.403 . S
C634 C624 1.476 . S
C634 N629 1.318 . S
C634 C633 1.396 . S
H635 C630 0.920 1_556 S
O636 Mn612 2.385 . S
O636 C614 1.234 . S
O637 Mn612 2.209 . S
O637 Mn613 2.215 . S
O637 C614 1.283 . S
O638 Mn612 2.094 1_556 S
O638 C616 1.240 . S
O639 Mn613 2.117 1_556 S
O639 C616 1.264 . S
C640 C633 1.403 . S
C640 C641 1.399 . S
C640 H646 0.929 . S
C641 C621 1.449 . S
C641 C640 1.399 . S
C641 H647 0.930 . S
H642 C622 0.931 . S
H643 C623 0.930 . S
H644 C631 0.931 . S
H645 C632 0.929 . S
H646 C640 0.929 . S
H647 C641 0.930 . S
Mn648 O653 2.095 . S
Mn648 O663 2.162 . S
Mn648 O664 2.297 . S
Mn648 O672 2.385 . S
Mn648 O673 2.209 . S
Mn648 O674 2.094 . S
Mn649 O654 2.121 . S
Mn649 N656 2.257 1_655 S
Mn649 N665 2.284 . S
Mn649 O673 2.215 . S
Mn649 O675 2.117 . S
C650 O672 1.234 . S
C650 O673 1.283 . S
C651 O663 1.281 . S
C651 O664 1.236 . S
C652 O674 1.240 . S
C652 O675 1.264 . S
O653 Mn648 2.095 . S
O653 C662 1.250 . S
O654 Mn649 2.121 . S
O654 C662 1.258 . S
C655 N656 1.326 . S
C655 C659 1.460 . S
C655 H661 0.929 1_455 S
N656 Mn649 2.257 1_455 S
N656 C655 1.326 . S
N656 C660 1.362 . S
C657 C658 1.258 . S
C657 C660 1.431 . S
C657 C677 1.449 . S
C658 C657 1.258 . S
C658 C659 1.477 . S
C658 H678 0.931 . S
C659 C655 1.460 . S
C659 C658 1.477 . S
C659 H679 0.930 . S
C660 N656 1.362 . S
C660 C657 1.431 . S
C660 C670 1.476 . S
H661 C655 0.929 1_655 S
C662 O653 1.250 . S
C662 O654 1.258 . S
O663 Mn648 2.162 . S
O663 C651 1.281 . S
O664 Mn648 2.297 . S
O664 C651 1.236 . S
N665 Mn649 2.284 . S
N665 C666 1.328 . S
N665 C670 1.316 1_655 S
C666 N665 1.328 . S
C666 C667 1.457 1_655 S
C666 H671 0.929 . S
C667 C666 1.457 1_455 S
C667 C668 1.291 . S
C667 H680 0.931 . S
C668 C667 1.291 . S
C668 C669 1.373 . S
C668 H681 0.929 . S
C669 C668 1.373 . S
C669 C670 1.396 . S
C669 C676 1.403 . S
C670 C660 1.476 . S
C670 N665 1.316 1_455 S
C670 C669 1.396 . S
H671 C666 0.929 . S
O672 Mn648 2.385 . S
O672 C650 1.234 . S
O673 Mn648 2.209 . S
O673 Mn649 2.215 . S
O673 C650 1.283 . S
O674 Mn648 2.094 . S
O674 C652 1.240 . S
O675 Mn649 2.117 . S
O675 C652 1.264 . S
C676 C669 1.403 . S
C676 C677 1.399 . S
C676 H682 0.929 . S
C677 C657 1.449 . S
C677 C676 1.399 . S
C677 H683 0.930 . S
H678 C658 0.931 . S
H679 C659 0.930 . S
H680 C667 0.931 . S
H681 C668 0.929 . S
H682 C676 0.929 . S
H683 C677 0.930 . S
Mn684 O689 2.095 . S
Mn684 O699 2.162 . S
Mn684 O700 2.297 . S
Mn684 O708 2.385 . S
Mn684 O709 2.209 . S
Mn684 O710 2.094 . S
Mn685 O690 2.121 . S
Mn685 N692 2.257 . S
Mn685 N701 2.282 . S
Mn685 O709 2.215 . S
Mn685 O711 2.117 . S
C686 O708 1.234 . S
C686 O709 1.283 . S
C687 O699 1.281 . S
C687 O700 1.236 . S
C688 O710 1.240 . S
C688 O711 1.264 . S
O689 Mn684 2.095 . S
O689 C698 1.250 . S
O690 Mn685 2.121 . S
O690 C698 1.258 . S
C691 N692 1.326 . S
C691 C695 1.460 . S
C691 H697 0.929 . S
N692 Mn685 2.257 . S
N692 C691 1.326 . S
N692 C696 1.362 . S
C693 C694 1.258 . S
C693 C696 1.431 . S
C693 C713 1.449 . S
C694 C693 1.258 . S
C694 C695 1.477 . S
C694 H714 0.931 . S
C695 C691 1.460 . S
C695 C694 1.477 . S
C695 H715 0.930 . S
C696 N692 1.362 . S
C696 C693 1.431 . S
C696 C706 1.476 . S
H697 C691 0.929 . S
C698 O689 1.250 . S
C698 O690 1.258 . S
O699 Mn684 2.162 . S
O699 C687 1.281 . S
O700 Mn684 2.297 . S
O700 C687 1.236 . S
N701 Mn685 2.282 . S
N701 C702 1.328 . S
N701 C706 1.318 . S
C702 N701 1.328 . S
C702 C703 1.457 . S
C702 H707 0.929 . S
C703 C702 1.457 . S
C703 C704 1.291 . S
C703 H716 0.931 . S
C704 C703 1.291 . S
C704 C705 1.373 . S
C704 H717 0.929 . S
C705 C704 1.373 . S
C705 C706 1.396 . S
C705 C712 1.403 . S
C706 C696 1.476 . S
C706 N701 1.318 . S
C706 C705 1.396 . S
H707 C702 0.929 . S
O708 Mn684 2.385 . S
O708 C686 1.234 . S
O709 Mn684 2.209 . S
O709 Mn685 2.215 . S
O709 C686 1.283 . S
O710 Mn684 2.094 . S
O710 C688 1.240 . S
O711 Mn685 2.117 . S
O711 C688 1.264 . S
C712 C705 1.403 . S
C712 C713 1.399 . S
C712 H718 0.929 . S
C713 C693 1.449 . S
C713 C712 1.399 . S
C713 H719 0.930 . S
H714 C694 0.931 . S
H715 C695 0.930 . S
H716 C703 0.931 . S
H717 C704 0.929 . S
H718 C712 0.929 . S
H719 C713 0.930 . S
Mn720 O725 2.095 . S
Mn720 O735 2.162 . S
Mn720 O736 2.297 . S
Mn720 O744 2.385 . S
Mn720 O745 2.209 . S
Mn720 O746 2.094 . S
Mn721 O726 2.121 . S
Mn721 N728 2.257 . S
Mn721 N737 2.282 . S
Mn721 O745 2.215 . S
Mn721 O747 2.117 . S
C722 O744 1.234 . S
C722 O745 1.283 . S
C723 O735 1.281 . S
C723 O736 1.236 . S
C724 O746 1.240 . S
C724 O747 1.264 . S
O725 Mn720 2.095 . S
O725 C734 1.250 . S
O726 Mn721 2.121 . S
O726 C734 1.258 . S
C727 N728 1.326 . S
C727 C731 1.460 . S
C727 H733 0.929 . S
N728 Mn721 2.257 . S
N728 C727 1.326 . S
N728 C732 1.362 . S
C729 C730 1.258 . S
C729 C732 1.431 . S
C729 C749 1.449 . S
C730 C729 1.258 . S
C730 C731 1.477 . S
C730 H750 0.931 . S
C731 C727 1.460 . S
C731 C730 1.477 . S
C731 H751 0.930 . S
C732 N728 1.362 . S
C732 C729 1.431 . S
C732 C742 1.476 . S
H733 C727 0.929 . S
C734 O725 1.250 . S
C734 O726 1.258 . S
O735 Mn720 2.162 . S
O735 C723 1.281 . S
O736 Mn720 2.297 . S
O736 C723 1.236 . S
N737 Mn721 2.282 . S
N737 C738 1.328 . S
N737 C742 1.318 . S
C738 N737 1.328 . S
C738 C739 1.457 . S
C738 H743 0.929 . S
C739 C738 1.457 . S
C739 C740 1.291 . S
C739 H752 0.931 . S
C740 C739 1.291 . S
C740 C741 1.373 . S
C740 H753 0.929 . S
C741 C740 1.373 . S
C741 C742 1.396 . S
C741 C748 1.403 . S
C742 C732 1.476 . S
C742 N737 1.318 . S
C742 C741 1.396 . S
H743 C738 0.929 . S
O744 Mn720 2.385 . S
O744 C722 1.234 . S
O745 Mn720 2.209 . S
O745 Mn721 2.215 . S
O745 C722 1.283 . S
O746 Mn720 2.094 . S
O746 C724 1.240 . S
O747 Mn721 2.117 . S
O747 C724 1.264 . S
C748 C741 1.403 . S
C748 C749 1.399 . S
C748 H754 0.929 . S
C749 C729 1.449 . S
C749 C748 1.399 . S
C749 H755 0.930 . S
H750 C730 0.931 . S
H751 C731 0.930 . S
H752 C739 0.931 . S
H753 C740 0.929 . S
H754 C748 0.929 . S
H755 C749 0.930 . S
Mn756 O761 2.095 . S
Mn756 O771 2.162 . S
Mn756 O772 2.297 . S
Mn756 O780 2.385 . S
Mn756 O781 2.209 . S
Mn756 O782 2.094 1_556 S
Mn757 O762 2.121 . S
Mn757 N764 2.257 . S
Mn757 N773 2.282 . S
Mn757 O781 2.215 . S
Mn757 O783 2.117 1_556 S
C758 O780 1.234 . S
C758 O781 1.283 . S
C759 O771 1.281 . S
C759 O772 1.236 . S
C760 O782 1.240 . S
C760 O783 1.264 . S
O761 Mn756 2.095 . S
O761 C770 1.250 . S
O762 Mn757 2.121 . S
O762 C770 1.258 . S
C763 N764 1.326 . S
C763 C767 1.460 . S
C763 H769 0.929 . S
N764 Mn757 2.257 . S
N764 C763 1.326 . S
N764 C768 1.362 . S
C765 C766 1.258 . S
C765 C768 1.431 . S
C765 C785 1.449 . S
C766 C765 1.258 . S
C766 C767 1.477 . S
C766 H786 0.931 . S
C767 C763 1.460 . S
C767 C766 1.477 . S
C767 H787 0.930 . S
C768 N764 1.362 . S
C768 C765 1.431 . S
C768 C778 1.476 . S
H769 C763 0.929 . S
C770 O761 1.250 . S
C770 O762 1.258 . S
O771 Mn756 2.162 . S
O771 C759 1.281 . S
O772 Mn756 2.297 . S
O772 C759 1.236 . S
N773 Mn757 2.282 . S
N773 C774 1.328 . S
N773 C778 1.318 . S
C774 N773 1.328 . S
C774 C775 1.457 . S
C774 H779 0.920 1_556 S
C775 C774 1.457 . S
C775 C776 1.291 . S
C775 H788 0.931 . S
C776 C775 1.291 . S
C776 C777 1.373 . S
C776 H789 0.929 . S
C777 C776 1.373 . S
C777 C778 1.396 . S
C777 C784 1.403 . S
C778 C768 1.476 . S
C778 N773 1.318 . S
C778 C777 1.396 . S
H779 C774 0.920 1_554 S
O780 Mn756 2.385 . S
O780 C758 1.234 . S
O781 Mn756 2.209 . S
O781 Mn757 2.215 . S
O781 C758 1.283 . S
O782 Mn756 2.094 1_554 S
O782 C760 1.240 . S
O783 Mn757 2.117 1_554 S
O783 C760 1.264 . S
C784 C777 1.403 . S
C784 C785 1.399 . S
C784 H790 0.929 . S
C785 C765 1.449 . S
C785 C784 1.399 . S
C785 H791 0.930 . S
H786 C766 0.931 . S
H787 C767 0.930 . S
H788 C775 0.931 . S
H789 C776 0.929 . S
H790 C784 0.929 . S
H791 C785 0.930 . S
Mn792 O797 2.095 . S
Mn792 O807 2.162 . S
Mn792 O808 2.297 . S
Mn792 O816 2.385 . S
Mn792 O817 2.209 . S
Mn792 O818 2.094 . S
Mn793 O798 2.121 . S
Mn793 N800 2.257 1_655 S
Mn793 N809 2.284 . S
Mn793 O817 2.215 . S
Mn793 O819 2.117 . S
C794 O816 1.234 . S
C794 O817 1.283 . S
C795 O807 1.281 . S
C795 O808 1.236 . S
C796 O818 1.240 . S
C796 O819 1.264 . S
O797 Mn792 2.095 . S
O797 C806 1.250 . S
O798 Mn793 2.121 . S
O798 C806 1.258 . S
C799 N800 1.326 . S
C799 C803 1.460 . S
C799 H805 0.929 1_455 S
N800 Mn793 2.257 1_455 S
N800 C799 1.326 . S
N800 C804 1.362 . S
C801 C802 1.258 . S
C801 C804 1.431 . S
C801 C821 1.449 . S
C802 C801 1.258 . S
C802 C803 1.477 . S
C802 H822 0.931 . S
C803 C799 1.460 . S
C803 C802 1.477 . S
C803 H823 0.930 . S
C804 N800 1.362 . S
C804 C801 1.431 . S
C804 C814 1.476 . S
H805 C799 0.929 1_655 S
C806 O797 1.250 . S
C806 O798 1.258 . S
O807 Mn792 2.162 . S
O807 C795 1.281 . S
O808 Mn792 2.297 . S
O808 C795 1.236 . S
N809 Mn793 2.284 . S
N809 C810 1.328 . S
N809 C814 1.316 1_655 S
C810 N809 1.328 . S
C810 C811 1.457 1_655 S
C810 H815 0.929 . S
C811 C810 1.457 1_455 S
C811 C812 1.291 . S
C811 H824 0.931 . S
C812 C811 1.291 . S
C812 C813 1.373 . S
C812 H825 0.929 . S
C813 C812 1.373 . S
C813 C814 1.396 . S
C813 C820 1.403 . S
C814 C804 1.476 . S
C814 N809 1.316 1_455 S
C814 C813 1.396 . S
H815 C810 0.929 . S
O816 Mn792 2.385 . S
O816 C794 1.234 . S
O817 Mn792 2.209 . S
O817 Mn793 2.215 . S
O817 C794 1.283 . S
O818 Mn792 2.094 . S
O818 C796 1.240 . S
O819 Mn793 2.117 . S
O819 C796 1.264 . S
C820 C813 1.403 . S
C820 C821 1.399 . S
C820 H826 0.929 . S
C821 C801 1.449 . S
C821 C820 1.399 . S
C821 H827 0.930 . S
H822 C802 0.931 . S
H823 C803 0.930 . S
H824 C811 0.931 . S
H825 C812 0.929 . S
H826 C820 0.929 . S
H827 C821 0.930 . S
Mn828 O833 2.095 . S
Mn828 O843 2.162 . S
Mn828 O844 2.297 . S
Mn828 O852 2.385 . S
Mn828 O853 2.209 . S
Mn828 O854 2.094 . S
Mn829 O834 2.121 . S
Mn829 N836 2.257 . S
Mn829 N845 2.282 . S
Mn829 O853 2.215 . S
Mn829 O855 2.117 . S
C830 O852 1.234 . S
C830 O853 1.283 . S
C831 O843 1.281 . S
C831 O844 1.236 . S
C832 O854 1.240 . S
C832 O855 1.264 . S
O833 Mn828 2.095 . S
O833 C842 1.250 . S
O834 Mn829 2.121 . S
O834 C842 1.258 . S
C835 N836 1.326 . S
C835 C839 1.460 . S
C835 H841 0.929 . S
N836 Mn829 2.257 . S
N836 C835 1.326 . S
N836 C840 1.362 . S
C837 C838 1.258 . S
C837 C840 1.431 . S
C837 C857 1.449 . S
C838 C837 1.258 . S
C838 C839 1.477 . S
C838 H858 0.931 . S
C839 C835 1.460 . S
C839 C838 1.477 . S
C839 H859 0.930 . S
C840 N836 1.362 . S
C840 C837 1.431 . S
C840 C850 1.476 . S
H841 C835 0.929 . S
C842 O833 1.250 . S
C842 O834 1.258 . S
O843 Mn828 2.162 . S
O843 C831 1.281 . S
O844 Mn828 2.297 . S
O844 C831 1.236 . S
N845 Mn829 2.282 . S
N845 C846 1.328 . S
N845 C850 1.318 . S
C846 N845 1.328 . S
C846 C847 1.457 . S
C846 H851 0.929 . S
C847 C846 1.457 . S
C847 C848 1.291 . S
C847 H860 0.931 . S
C848 C847 1.291 . S
C848 C849 1.373 . S
C848 H861 0.929 . S
C849 C848 1.373 . S
C849 C850 1.396 . S
C849 C856 1.403 . S
C850 C840 1.476 . S
C850 N845 1.318 . S
C850 C849 1.396 . S
H851 C846 0.929 . S
O852 Mn828 2.385 . S
O852 C830 1.234 . S
O853 Mn828 2.209 . S
O853 Mn829 2.215 . S
O853 C830 1.283 . S
O854 Mn828 2.094 . S
O854 C832 1.240 . S
O855 Mn829 2.117 . S
O855 C832 1.264 . S
C856 C849 1.403 . S
C856 C857 1.399 . S
C856 H862 0.929 . S
C857 C837 1.449 . S
C857 C856 1.399 . S
C857 H863 0.930 . S
H858 C838 0.931 . S
H859 C839 0.930 . S
H860 C847 0.931 . S
H861 C848 0.929 . S
H862 C856 0.929 . S
H863 C857 0.930 . S
Mn864 O869 2.095 . S
Mn864 O879 2.162 . S
Mn864 O880 2.297 . S
Mn864 O888 2.385 . S
Mn864 O889 2.209 . S
Mn864 O890 2.094 . S
Mn865 O870 2.121 . S
Mn865 N872 2.257 . S
Mn865 N881 2.282 . S
Mn865 O889 2.215 . S
Mn865 O891 2.117 . S
C866 O888 1.234 . S
C866 O889 1.283 . S
C867 O879 1.281 . S
C867 O880 1.236 . S
C868 O890 1.240 . S
C868 O891 1.264 . S
O869 Mn864 2.095 . S
O869 C878 1.250 . S
O870 Mn865 2.121 . S
O870 C878 1.258 . S
C871 N872 1.326 . S
C871 C875 1.460 . S
C871 H877 0.929 . S
N872 Mn865 2.257 . S
N872 C871 1.326 . S
N872 C876 1.362 . S
C873 C874 1.258 . S
C873 C876 1.431 . S
C873 C893 1.449 . S
C874 C873 1.258 . S
C874 C875 1.477 . S
C874 H894 0.931 . S
C875 C871 1.460 . S
C875 C874 1.477 . S
C875 H895 0.930 . S
C876 N872 1.362 . S
C876 C873 1.431 . S
C876 C886 1.476 . S
H877 C871 0.929 . S
C878 O869 1.250 . S
C878 O870 1.258 . S
O879 Mn864 2.162 . S
O879 C867 1.281 . S
O880 Mn864 2.297 . S
O880 C867 1.236 . S
N881 Mn865 2.282 . S
N881 C882 1.328 . S
N881 C886 1.318 . S
C882 N881 1.328 . S
C882 C883 1.457 . S
C882 H887 0.929 . S
C883 C882 1.457 . S
C883 C884 1.291 . S
C883 H896 0.931 . S
C884 C883 1.291 . S
C884 C885 1.373 . S
C884 H897 0.929 . S
C885 C884 1.373 . S
C885 C886 1.396 . S
C885 C892 1.403 . S
C886 C876 1.476 . S
C886 N881 1.318 . S
C886 C885 1.396 . S
H887 C882 0.929 . S
O888 Mn864 2.385 . S
O888 C866 1.234 . S
O889 Mn864 2.209 . S
O889 Mn865 2.215 . S
O889 C866 1.283 . S
O890 Mn864 2.094 . S
O890 C868 1.240 . S
O891 Mn865 2.117 . S
O891 C868 1.264 . S
C892 C885 1.403 . S
C892 C893 1.399 . S
C892 H898 0.929 . S
C893 C873 1.449 . S
C893 C892 1.399 . S
C893 H899 0.930 . S
H894 C874 0.931 . S
H895 C875 0.930 . S
H896 C883 0.931 . S
H897 C884 0.929 . S
H898 C892 0.929 . S
H899 C893 0.930 . S
Mn900 O905 2.095 1_556 S
Mn900 O915 2.162 . S
Mn900 O916 2.297 . S
Mn900 O924 2.385 . S
Mn900 O925 2.209 . S
Mn900 O926 2.094 . S
Mn901 O906 2.121 . S
Mn901 N908 2.257 . S
Mn901 N917 2.282 1_554 S
Mn901 O925 2.215 1_554 S
Mn901 O927 2.117 1_554 S
C902 O924 1.234 . S
C902 O925 1.283 . S
C903 O915 1.281 . S
C903 O916 1.236 . S
C904 O926 1.240 . S
C904 O927 1.264 . S
O905 Mn900 2.095 1_554 S
O905 C914 1.250 . S
O906 Mn901 2.121 . S
O906 C914 1.258 . S
C907 N908 1.326 . S
C907 C911 1.460 . S
C907 H913 0.929 . S
N908 Mn901 2.257 . S
N908 C907 1.326 . S
N908 C912 1.362 . S
C909 C910 1.258 . S
C909 C912 1.431 . S
C909 C929 1.449 . S
C910 C909 1.258 . S
C910 C911 1.477 . S
C910 H930 0.931 . S
C911 C907 1.460 . S
C911 C910 1.477 . S
C911 H931 0.930 . S
C912 N908 1.362 . S
C912 C909 1.431 . S
C912 C922 1.476 1_554 S
H913 C907 0.929 . S
C914 O905 1.250 . S
C914 O906 1.258 . S
O915 Mn900 2.162 . S
O915 C903 1.281 . S
O916 Mn900 2.297 . S
O916 C903 1.236 . S
N917 Mn901 2.282 1_556 S
N917 C918 1.328 . S
N917 C922 1.318 . S
C918 N917 1.328 . S
C918 C919 1.457 . S
C918 H923 0.929 . S
C919 C918 1.457 . S
C919 C920 1.291 . S
C919 H932 0.931 . S
C920 C919 1.291 . S
C920 C921 1.373 . S
C920 H933 0.929 . S
C921 C920 1.373 . S
C921 C922 1.396 . S
C921 C928 1.403 . S
C922 C912 1.476 1_556 S
C922 N917 1.318 . S
C922 C921 1.396 . S
H923 C918 0.929 . S
O924 Mn900 2.385 . S
O924 C902 1.234 . S
O925 Mn900 2.209 . S
O925 Mn901 2.215 1_556 S
O925 C902 1.283 . S
O926 Mn900 2.094 . S
O926 C904 1.240 . S
O927 Mn901 2.117 1_556 S
O927 C904 1.264 . S
C928 C921 1.403 . S
C928 C929 1.399 1_556 S
C928 H934 0.929 . S
C929 C909 1.449 . S
C929 C928 1.399 1_554 S
C929 H935 0.930 . S
H930 C910 0.931 . S
H931 C911 0.930 . S
H932 C919 0.931 . S
H933 C920 0.929 . S
H934 C928 0.929 . S
H935 C929 0.930 . S
Mn936 O941 2.095 . S
Mn936 O951 2.162 . S
Mn936 O952 2.297 . S
Mn936 O960 2.385 . S
Mn936 O961 2.209 . S
Mn936 O962 2.094 . S
Mn937 O942 2.121 . S
Mn937 N944 2.257 1_455 S
Mn937 N953 2.282 1_455 S
Mn937 O961 2.215 . S
Mn937 O963 2.117 . S
C938 O960 1.234 . S
C938 O961 1.283 . S
C939 O951 1.281 . S
C939 O952 1.236 . S
C940 O962 1.240 . S
C940 O963 1.264 . S
O941 Mn936 2.095 . S
O941 C950 1.250 . S
O942 Mn937 2.121 . S
O942 C950 1.258 . S
C943 N944 1.326 . S
C943 C947 1.460 . S
C943 H949 0.935 . S
N944 Mn937 2.257 1_655 S
N944 C943 1.326 . S
N944 C948 1.362 . S
C945 C946 1.258 . S
C945 C948 1.431 . S
C945 C965 1.449 . S
C946 C945 1.258 . S
C946 C947 1.477 . S
C946 H966 0.931 . S
C947 C943 1.460 . S
C947 C946 1.477 . S
C947 H967 0.930 . S
C948 N944 1.362 . S
C948 C945 1.431 . S
C948 C958 1.476 . S
H949 C943 0.935 . S
C950 O941 1.250 . S
C950 O942 1.258 . S
O951 Mn936 2.162 . S
O951 C939 1.281 . S
O952 Mn936 2.297 . S
O952 C939 1.236 . S
N953 Mn937 2.282 1_655 S
N953 C954 1.328 . S
N953 C958 1.318 . S
C954 N953 1.328 . S
C954 C955 1.457 . S
C954 H959 0.929 1_655 S
C955 C954 1.457 . S
C955 C956 1.291 . S
C955 H968 0.931 . S
C956 C955 1.291 . S
C956 C957 1.373 . S
C956 H969 0.929 . S
C957 C956 1.373 . S
C957 C958 1.396 . S
C957 C964 1.403 . S
C958 C948 1.476 . S
C958 N953 1.318 . S
C958 C957 1.396 . S
H959 C954 0.929 1_455 S
O960 Mn936 2.385 . S
O960 C938 1.234 . S
O961 Mn936 2.209 . S
O961 Mn937 2.215 . S
O961 C938 1.283 . S
O962 Mn936 2.094 . S
O962 C940 1.240 . S
O963 Mn937 2.117 . S
O963 C940 1.264 . S
C964 C957 1.403 . S
C964 C965 1.399 . S
C964 H970 0.929 . S
C965 C945 1.449 . S
C965 C964 1.399 . S
C965 H971 0.930 . S
H966 C946 0.931 . S
H967 C947 0.930 . S
H968 C955 0.931 . S
H969 C956 0.929 . S
H970 C964 0.929 . S
H971 C965 0.930 . S
Mn972 O977 2.095 . S
Mn972 O987 2.162 . S
Mn972 O988 2.297 . S
Mn972 O996 2.385 . S
Mn972 O997 2.209 . S
Mn972 O998 2.094 . S
Mn973 O978 2.121 . S
Mn973 N980 2.257 . S
Mn973 N989 2.282 . S
Mn973 O997 2.215 . S
Mn973 O999 2.117 . S
C974 O996 1.234 . S
C974 O997 1.283 . S
C975 O987 1.281 . S
C975 O988 1.236 . S
C976 O998 1.240 . S
C976 O999 1.264 . S
O977 Mn972 2.095 . S
O977 C986 1.250 . S
O978 Mn973 2.121 . S
O978 C986 1.258 . S
C979 N980 1.326 . S
C979 C983 1.460 . S
C979 H985 0.929 . S
N980 Mn973 2.257 . S
N980 C979 1.326 . S
N980 C984 1.362 . S
C981 C982 1.258 . S
C981 C984 1.431 . S
C981 C1001 1.449 . S
C982 C981 1.258 . S
C982 C983 1.477 . S
C982 H1002 0.931 . S
C983 C979 1.460 . S
C983 C982 1.477 . S
C983 H1003 0.930 . S
C984 N980 1.362 . S
C984 C981 1.431 . S
C984 C994 1.476 . S
H985 C979 0.929 . S
C986 O977 1.250 . S
C986 O978 1.258 . S
O987 Mn972 2.162 . S
O987 C975 1.281 . S
O988 Mn972 2.297 . S
O988 C975 1.236 . S
N989 Mn973 2.282 . S
N989 C990 1.328 . S
N989 C994 1.318 . S
C990 N989 1.328 . S
C990 C991 1.457 . S
C990 H995 0.929 . S
C991 C990 1.457 . S
C991 C992 1.291 . S
C991 H1004 0.931 . S
C992 C991 1.291 . S
C992 C993 1.373 . S
C992 H1005 0.929 . S
C993 C992 1.373 . S
C993 C994 1.396 . S
C993 C1000 1.403 . S
C994 C984 1.476 . S
C994 N989 1.318 . S
C994 C993 1.396 . S
H995 C990 0.929 . S
O996 Mn972 2.385 . S
O996 C974 1.234 . S
O997 Mn972 2.209 . S
O997 Mn973 2.215 . S
O997 C974 1.283 . S
O998 Mn972 2.094 . S
O998 C976 1.240 . S
O999 Mn973 2.117 . S
O999 C976 1.264 . S
C1000 C993 1.403 . S
C1000 C1001 1.399 . S
C1000 H1006 0.929 . S
C1001 C981 1.449 . S
C1001 C1000 1.399 . S
C1001 H1007 0.930 . S
H1002 C982 0.931 . S
H1003 C983 0.930 . S
H1004 C991 0.931 . S
H1005 C992 0.929 . S
H1006 C1000 0.929 . S
H1007 C1001 0.930 . S
Mn1008 O1013 2.095 . S
Mn1008 O1023 2.162 . S
Mn1008 O1024 2.297 . S
Mn1008 O1032 2.385 . S
Mn1008 O1033 2.209 . S
Mn1008 O1034 2.094 . S
Mn1009 O1014 2.121 . S
Mn1009 N1016 2.257 . S
Mn1009 N1025 2.282 . S
Mn1009 O1033 2.215 . S
Mn1009 O1035 2.117 . S
C1010 O1032 1.234 . S
C1010 O1033 1.283 . S
C1011 O1023 1.281 . S
C1011 O1024 1.236 . S
C1012 O1034 1.240 . S
C1012 O1035 1.264 . S
O1013 Mn1008 2.095 . S
O1013 C1022 1.250 . S
O1014 Mn1009 2.121 . S
O1014 C1022 1.258 . S
C1015 N1016 1.326 . S
C1015 C1019 1.460 . S
C1015 H1021 0.929 . S
N1016 Mn1009 2.257 . S
N1016 C1015 1.326 . S
N1016 C1020 1.362 . S
C1017 C1018 1.258 . S
C1017 C1020 1.431 . S
C1017 C1037 1.449 . S
C1018 C1017 1.258 . S
C1018 C1019 1.477 . S
C1018 H1038 0.931 . S
C1019 C1015 1.460 . S
C1019 C1018 1.477 . S
C1019 H1039 0.930 . S
C1020 N1016 1.362 . S
C1020 C1017 1.431 . S
C1020 C1030 1.476 . S
H1021 C1015 0.929 . S
C1022 O1013 1.250 . S
C1022 O1014 1.258 . S
O1023 Mn1008 2.162 . S
O1023 C1011 1.281 . S
O1024 Mn1008 2.297 . S
O1024 C1011 1.236 . S
N1025 Mn1009 2.282 . S
N1025 C1026 1.328 . S
N1025 C1030 1.318 . S
C1026 N1025 1.328 . S
C1026 C1027 1.457 . S
C1026 H1031 0.929 . S
C1027 C1026 1.457 . S
C1027 C1028 1.291 . S
C1027 H1040 0.931 . S
C1028 C1027 1.291 . S
C1028 C1029 1.373 . S
C1028 H1041 0.929 . S
C1029 C1028 1.373 . S
C1029 C1030 1.396 . S
C1029 C1036 1.403 . S
C1030 C1020 1.476 . S
C1030 N1025 1.318 . S
C1030 C1029 1.396 . S
H1031 C1026 0.929 . S
O1032 Mn1008 2.385 . S
O1032 C1010 1.234 . S
O1033 Mn1008 2.209 . S
O1033 Mn1009 2.215 . S
O1033 C1010 1.283 . S
O1034 Mn1008 2.094 . S
O1034 C1012 1.240 . S
O1035 Mn1009 2.117 . S
O1035 C1012 1.264 . S
C1036 C1029 1.403 . S
C1036 C1037 1.399 . S
C1036 H1042 0.929 . S
C1037 C1017 1.449 . S
C1037 C1036 1.399 . S
C1037 H1043 0.930 . S
H1038 C1018 0.931 . S
H1039 C1019 0.930 . S
H1040 C1027 0.931 . S
H1041 C1028 0.929 . S
H1042 C1036 0.929 . S
H1043 C1037 0.930 . S
Mn1044 O1049 2.095 1_554 S
Mn1044 O1059 2.162 . S
Mn1044 O1060 2.297 . S
Mn1044 O1068 2.385 . S
Mn1044 O1069 2.209 . S
Mn1044 O1070 2.094 . S
Mn1045 O1050 2.121 . S
Mn1045 N1052 2.257 . S
Mn1045 N1061 2.282 1_556 S
Mn1045 O1069 2.215 1_556 S
Mn1045 O1071 2.117 1_556 S
C1046 O1068 1.234 . S
C1046 O1069 1.283 . S
C1047 O1059 1.281 . S
C1047 O1060 1.236 . S
C1048 O1070 1.240 . S
C1048 O1071 1.264 . S
O1049 Mn1044 2.095 1_556 S
O1049 C1058 1.250 . S
O1050 Mn1045 2.121 . S
O1050 C1058 1.258 . S
C1051 N1052 1.326 . S
C1051 C1055 1.460 . S
C1051 H1057 0.929 . S
N1052 Mn1045 2.257 . S
N1052 C1051 1.326 . S
N1052 C1056 1.362 . S
C1053 C1054 1.258 . S
C1053 C1056 1.431 . S
C1053 C1073 1.449 . S
C1054 C1053 1.258 . S
C1054 C1055 1.477 . S
C1054 H1074 0.931 . S
C1055 C1051 1.460 . S
C1055 C1054 1.477 . S
C1055 H1075 0.930 . S
C1056 N1052 1.362 . S
C1056 C1053 1.431 . S
C1056 C1066 1.476 1_556 S
H1057 C1051 0.929 . S
C1058 O1049 1.250 . S
C1058 O1050 1.258 . S
O1059 Mn1044 2.162 . S
O1059 C1047 1.281 . S
O1060 Mn1044 2.297 . S
O1060 C1047 1.236 . S
N1061 Mn1045 2.282 1_554 S
N1061 C1062 1.328 . S
N1061 C1066 1.318 . S
C1062 N1061 1.328 . S
C1062 C1063 1.457 . S
C1062 H1067 0.929 . S
C1063 C1062 1.457 . S
C1063 C1064 1.291 . S
C1063 H1076 0.931 . S
C1064 C1063 1.291 . S
C1064 C1065 1.373 . S
C1064 H1077 0.929 . S
C1065 C1064 1.373 . S
C1065 C1066 1.396 . S
C1065 C1072 1.403 . S
C1066 C1056 1.476 1_554 S
C1066 N1061 1.318 . S
C1066 C1065 1.396 . S
H1067 C1062 0.929 . S
O1068 Mn1044 2.385 . S
O1068 C1046 1.234 . S
O1069 Mn1044 2.209 . S
O1069 Mn1045 2.215 1_554 S
O1069 C1046 1.283 . S
O1070 Mn1044 2.094 . S
O1070 C1048 1.240 . S
O1071 Mn1045 2.117 1_554 S
O1071 C1048 1.264 . S
C1072 C1065 1.403 . S
C1072 C1073 1.399 1_554 S
C1072 H1078 0.929 . S
C1073 C1053 1.449 . S
C1073 C1072 1.399 1_556 S
C1073 H1079 0.930 . S
H1074 C1054 0.931 . S
H1075 C1055 0.930 . S
H1076 C1063 0.931 . S
H1077 C1064 0.929 . S
H1078 C1072 0.929 . S
H1079 C1073 0.930 . S
Mn1080 O1085 2.095 . S
Mn1080 O1095 2.162 . S
Mn1080 O1096 2.297 . S
Mn1080 O1104 2.385 . S
Mn1080 O1105 2.209 . S
Mn1080 O1106 2.094 . S
Mn1081 O1086 2.121 . S
Mn1081 N1088 2.257 1_455 S
Mn1081 N1097 2.282 1_455 S
Mn1081 O1105 2.215 . S
Mn1081 O1107 2.117 . S
C1082 O1104 1.234 . S
C1082 O1105 1.283 . S
C1083 O1095 1.281 . S
C1083 O1096 1.236 . S
C1084 O1106 1.240 . S
C1084 O1107 1.264 . S
O1085 Mn1080 2.095 . S
O1085 C1094 1.250 . S
O1086 Mn1081 2.121 . S
O1086 C1094 1.258 . S
C1087 N1088 1.326 . S
C1087 C1091 1.460 . S
C1087 H1093 0.935 . S
N1088 Mn1081 2.257 1_655 S
N1088 C1087 1.326 . S
N1088 C1092 1.362 . S
C1089 C1090 1.258 . S
C1089 C1092 1.431 . S
C1089 C1109 1.449 . S
C1090 C1089 1.258 . S
C1090 C1091 1.477 . S
C1090 H1110 0.931 . S
C1091 C1087 1.460 . S
C1091 C1090 1.477 . S
C1091 H1111 0.930 . S
C1092 N1088 1.362 . S
C1092 C1089 1.431 . S
C1092 C1102 1.476 . S
H1093 C1087 0.935 . S
C1094 O1085 1.250 . S
C1094 O1086 1.258 . S
O1095 Mn1080 2.162 . S
O1095 C1083 1.281 . S
O1096 Mn1080 2.297 . S
O1096 C1083 1.236 . S
N1097 Mn1081 2.282 1_655 S
N1097 C1098 1.328 . S
N1097 C1102 1.318 . S
C1098 N1097 1.328 . S
C1098 C1099 1.457 . S
C1098 H1103 0.929 1_655 S
C1099 C1098 1.457 . S
C1099 C1100 1.291 . S
C1099 H1112 0.931 . S
C1100 C1099 1.291 . S
C1100 C1101 1.373 . S
C1100 H1113 0.929 . S
C1101 C1100 1.373 . S
C1101 C1102 1.396 . S
C1101 C1108 1.403 . S
C1102 C1092 1.476 . S
C1102 N1097 1.318 . S
C1102 C1101 1.396 . S
H1103 C1098 0.929 1_455 S
O1104 Mn1080 2.385 . S
O1104 C1082 1.234 . S
O1105 Mn1080 2.209 . S
O1105 Mn1081 2.215 . S
O1105 C1082 1.283 . S
O1106 Mn1080 2.094 . S
O1106 C1084 1.240 . S
O1107 Mn1081 2.117 . S
O1107 C1084 1.264 . S
C1108 C1101 1.403 . S
C1108 C1109 1.399 . S
C1108 H1114 0.929 . S
C1109 C1089 1.449 . S
C1109 C1108 1.399 . S
C1109 H1115 0.930 . S
H1110 C1090 0.931 . S
H1111 C1091 0.930 . S
H1112 C1099 0.931 . S
H1113 C1100 0.929 . S
H1114 C1108 0.929 . S
H1115 C1109 0.930 . S
Mn1116 O1121 2.095 . S
Mn1116 O1131 2.162 . S
Mn1116 O1132 2.297 . S
Mn1116 O1140 2.385 . S
Mn1116 O1141 2.209 . S
Mn1116 O1142 2.094 . S
Mn1117 O1122 2.121 . S
Mn1117 N1124 2.257 . S
Mn1117 N1133 2.282 . S
Mn1117 O1141 2.215 . S
Mn1117 O1143 2.117 . S
C1118 O1140 1.234 . S
C1118 O1141 1.283 . S
C1119 O1131 1.281 . S
C1119 O1132 1.236 . S
C1120 O1142 1.240 . S
C1120 O1143 1.264 . S
O1121 Mn1116 2.095 . S
O1121 C1130 1.250 . S
O1122 Mn1117 2.121 . S
O1122 C1130 1.258 . S
C1123 N1124 1.326 . S
C1123 C1127 1.460 . S
C1123 H1129 0.929 . S
N1124 Mn1117 2.257 . S
N1124 C1123 1.326 . S
N1124 C1128 1.362 . S
C1125 C1126 1.258 . S
C1125 C1128 1.431 . S
C1125 C1145 1.449 . S
C1126 C1125 1.258 . S
C1126 C1127 1.477 . S
C1126 H1146 0.931 . S
C1127 C1123 1.460 . S
C1127 C1126 1.477 . S
C1127 H1147 0.930 . S
C1128 N1124 1.362 . S
C1128 C1125 1.431 . S
C1128 C1138 1.476 . S
H1129 C1123 0.929 . S
C1130 O1121 1.250 . S
C1130 O1122 1.258 . S
O1131 Mn1116 2.162 . S
O1131 C1119 1.281 . S
O1132 Mn1116 2.297 . S
O1132 C1119 1.236 . S
N1133 Mn1117 2.282 . S
N1133 C1134 1.328 . S
N1133 C1138 1.318 . S
C1134 N1133 1.328 . S
C1134 C1135 1.457 . S
C1134 H1139 0.929 . S
C1135 C1134 1.457 . S
C1135 C1136 1.291 . S
C1135 H1148 0.931 . S
C1136 C1135 1.291 . S
C1136 C1137 1.373 . S
C1136 H1149 0.929 . S
C1137 C1136 1.373 . S
C1137 C1138 1.396 . S
C1137 C1144 1.403 . S
C1138 C1128 1.476 . S
C1138 N1133 1.318 . S
C1138 C1137 1.396 . S
H1139 C1134 0.929 . S
O1140 Mn1116 2.385 . S
O1140 C1118 1.234 . S
O1141 Mn1116 2.209 . S
O1141 Mn1117 2.215 . S
O1141 C1118 1.283 . S
O1142 Mn1116 2.094 . S
O1142 C1120 1.240 . S
O1143 Mn1117 2.117 . S
O1143 C1120 1.264 . S
C1144 C1137 1.403 . S
C1144 C1145 1.399 . S
C1144 H1150 0.929 . S
C1145 C1125 1.449 . S
C1145 C1144 1.399 . S
C1145 H1151 0.930 . S
H1146 C1126 0.931 . S
H1147 C1127 0.930 . S
H1148 C1135 0.931 . S
H1149 C1136 0.929 . S
H1150 C1144 0.929 . S
H1151 C1145 0.930 . S
H1152 C1158 0.930 . S
H1153 C1161 0.930 . S
H1154 C1162 0.930 . S
H1155 C1163 0.930 . S
H1156 C1166 0.930 . S
H1157 C1167 0.930 . S
C1158 H1152 0.930 . S
C1158 C1159 1.355 . S
C1158 C1160 1.415 . S
C1159 C1158 1.355 . S
C1159 C1161 1.419 . S
C1160 C1158 1.415 . S
C1160 C1165 1.425 . S
C1160 C1167 1.409 . S
C1161 H1153 0.930 . S
C1161 C1159 1.419 . S
C1161 C1162 1.362 . S
C1162 H1154 0.930 . S
C1162 C1161 1.362 . S
C1162 C1165 1.409 . S
C1163 H1155 0.930 . S
C1163 C1164 1.355 . S
C1163 C1165 1.415 . S
C1164 C1163 1.355 . S
C1164 C1166 1.419 . S
C1165 C1160 1.425 . S
C1165 C1162 1.409 . S
C1165 C1163 1.415 . S
C1166 H1156 0.930 . S
C1166 C1164 1.419 . S
C1166 C1167 1.362 . S
C1167 H1157 0.930 . S
C1167 C1160 1.409 . S
C1167 C1166 1.362 . S
H1168 C1174 0.930 . S
H1169 C1177 0.930 . S
H1170 C1178 0.930 . S
H1171 C1179 0.930 . S
H1172 C1182 0.930 . S
H1173 C1183 0.930 . S
C1174 H1168 0.930 . S
C1174 C1175 1.355 . S
C1174 C1176 1.415 . S
C1175 C1174 1.355 . S
C1175 C1177 1.419 . S
C1176 C1174 1.415 . S
C1176 C1181 1.425 . S
C1176 C1183 1.409 . S
C1177 H1169 0.930 . S
C1177 C1175 1.419 . S
C1177 C1178 1.362 . S
C1178 H1170 0.930 . S
C1178 C1177 1.362 . S
C1178 C1181 1.409 . S
C1179 H1171 0.930 . S
C1179 C1180 1.355 . S
C1179 C1181 1.415 . S
C1180 C1179 1.355 . S
C1180 C1182 1.419 . S
C1181 C1176 1.425 . S
C1181 C1178 1.409 . S
C1181 C1179 1.415 . S
C1182 H1172 0.930 . S
C1182 C1180 1.419 . S
C1182 C1183 1.362 . S
C1183 H1173 0.930 . S
C1183 C1176 1.409 . S
C1183 C1182 1.362 . S
H1184 C1190 0.930 . S
H1185 C1193 0.930 . S
H1186 C1194 0.930 . S
H1187 C1195 0.930 . S
H1188 C1198 0.930 . S
H1189 C1199 0.930 . S
C1190 H1184 0.930 . S
C1190 C1191 1.355 . S
C1190 C1192 1.415 . S
C1191 C1190 1.355 . S
C1191 C1193 1.419 . S
C1192 C1190 1.415 . S
C1192 C1197 1.425 . S
C1192 C1199 1.409 . S
C1193 H1185 0.930 . S
C1193 C1191 1.419 . S
C1193 C1194 1.362 . S
C1194 H1186 0.930 . S
C1194 C1193 1.362 . S
C1194 C1197 1.409 . S
C1195 H1187 0.930 . S
C1195 C1196 1.355 . S
C1195 C1197 1.415 . S
C1196 C1195 1.355 . S
C1196 C1198 1.419 . S
C1197 C1192 1.425 . S
C1197 C1194 1.409 . S
C1197 C1195 1.415 . S
C1198 H1188 0.930 . S
C1198 C1196 1.419 . S
C1198 C1199 1.362 . S
C1199 H1189 0.930 . S
C1199 C1192 1.409 . S
C1199 C1198 1.362 . S
H1200 C1206 0.930 . S
H1201 C1209 0.930 . S
H1202 C1210 0.930 . S
H1203 C1211 0.930 . S
H1204 C1214 0.930 . S
H1205 C1215 0.930 . S
C1206 H1200 0.930 . S
C1206 C1207 1.355 . S
C1206 C1208 1.415 . S
C1207 C1206 1.355 . S
C1207 C1209 1.419 . S
C1208 C1206 1.415 . S
C1208 C1213 1.425 . S
C1208 C1215 1.409 . S
C1209 H1201 0.930 . S
C1209 C1207 1.419 . S
C1209 C1210 1.362 . S
C1210 H1202 0.930 . S
C1210 C1209 1.362 . S
C1210 C1213 1.409 . S
C1211 H1203 0.930 . S
C1211 C1212 1.355 . S
C1211 C1213 1.415 . S
C1212 C1211 1.355 . S
C1212 C1214 1.419 . S
C1213 C1208 1.425 . S
C1213 C1210 1.409 . S
C1213 C1211 1.415 . S
C1214 H1204 0.930 . S
C1214 C1212 1.419 . S
C1214 C1215 1.362 . S
C1215 H1205 0.930 . S
C1215 C1208 1.409 . S
C1215 C1214 1.362 . S
H1216 C1222 0.930 . S
H1217 C1225 0.930 . S
H1218 C1226 0.930 . S
H1219 C1227 0.930 . S
H1220 C1230 0.930 . S
H1221 C1231 0.930 . S
C1222 H1216 0.930 . S
C1222 C1223 1.355 . S
C1222 C1224 1.415 . S
C1223 C1222 1.355 . S
C1223 C1225 1.419 . S
C1224 C1222 1.415 . S
C1224 C1229 1.425 . S
C1224 C1231 1.409 . S
C1225 H1217 0.930 . S
C1225 C1223 1.419 . S
C1225 C1226 1.362 . S
C1226 H1218 0.930 . S
C1226 C1225 1.362 . S
C1226 C1229 1.409 . S
C1227 H1219 0.930 . S
C1227 C1228 1.355 . S
C1227 C1229 1.415 . S
C1228 C1227 1.355 . S
C1228 C1230 1.419 . S
C1229 C1224 1.425 . S
C1229 C1226 1.409 . S
C1229 C1227 1.415 . S
C1230 H1220 0.930 . S
C1230 C1228 1.419 . S
C1230 C1231 1.362 . S
C1231 H1221 0.930 . S
C1231 C1224 1.409 . S
C1231 C1230 1.362 . S
H1232 C1238 0.930 . S
H1233 C1241 0.930 . S
H1234 C1242 0.930 . S
H1235 C1243 0.930 . S
H1236 C1246 0.930 . S
H1237 C1247 0.930 . S
C1238 H1232 0.930 . S
C1238 C1239 1.355 . S
C1238 C1240 1.415 . S
C1239 C1238 1.355 . S
C1239 C1241 1.419 . S
C1240 C1238 1.415 . S
C1240 C1245 1.425 . S
C1240 C1247 1.409 . S
C1241 H1233 0.930 . S
C1241 C1239 1.419 . S
C1241 C1242 1.362 . S
C1242 H1234 0.930 . S
C1242 C1241 1.362 . S
C1242 C1245 1.409 . S
C1243 H1235 0.930 . S
C1243 C1244 1.355 . S
C1243 C1245 1.415 . S
C1244 C1243 1.355 . S
C1244 C1246 1.419 . S
C1245 C1240 1.425 . S
C1245 C1242 1.409 . S
C1245 C1243 1.415 . S
C1246 H1236 0.930 . S
C1246 C1244 1.419 . S
C1246 C1247 1.362 . S
C1247 H1237 0.930 . S
C1247 C1240 1.409 . S
C1247 C1246 1.362 . S
H1248 C1254 0.930 . S
H1249 C1257 0.930 . S
H1250 C1258 0.930 . S
H1251 C1259 0.930 . S
H1252 C1262 0.930 . S
H1253 C1263 0.930 . S
C1254 H1248 0.930 . S
C1254 C1255 1.355 . S
C1254 C1256 1.415 . S
C1255 C1254 1.355 . S
C1255 C1257 1.419 . S
C1256 C1254 1.415 . S
C1256 C1261 1.425 . S
C1256 C1263 1.409 . S
C1257 H1249 0.930 . S
C1257 C1255 1.419 . S
C1257 C1258 1.362 . S
C1258 H1250 0.930 . S
C1258 C1257 1.362 . S
C1258 C1261 1.409 . S
C1259 H1251 0.930 . S
C1259 C1260 1.355 . S
C1259 C1261 1.415 . S
C1260 C1259 1.355 . S
C1260 C1262 1.419 . S
C1261 C1256 1.425 . S
C1261 C1258 1.409 . S
C1261 C1259 1.415 . S
C1262 H1252 0.930 . S
C1262 C1260 1.419 . S
C1262 C1263 1.362 . S
C1263 H1253 0.930 . S
C1263 C1256 1.409 . S
C1263 C1262 1.362 . S
H1264 C1270 0.930 . S
H1265 C1273 0.930 . S
H1266 C1274 0.930 . S
H1267 C1275 0.930 . S
H1268 C1278 0.930 . S
H1269 C1279 0.930 . S
C1270 H1264 0.930 . S
C1270 C1271 1.355 . S
C1270 C1272 1.415 . S
C1271 C1270 1.355 . S
C1271 C1273 1.419 . S
C1272 C1270 1.415 . S
C1272 C1277 1.425 . S
C1272 C1279 1.409 . S
C1273 H1265 0.930 . S
C1273 C1271 1.419 . S
C1273 C1274 1.362 . S
C1274 H1266 0.930 . S
C1274 C1273 1.362 . S
C1274 C1277 1.409 . S
C1275 H1267 0.930 . S
C1275 C1276 1.355 . S
C1275 C1277 1.415 . S
C1276 C1275 1.355 . S
C1276 C1278 1.419 . S
C1277 C1272 1.425 . S
C1277 C1274 1.409 . S
C1277 C1275 1.415 . S
C1278 H1268 0.930 . S
C1278 C1276 1.419 . S
C1278 C1279 1.362 . S
C1279 H1269 0.930 . S
C1279 C1272 1.409 . S
C1279 C1278 1.362 . S
H1280 C1286 0.930 . S
H1281 C1289 0.930 . S
H1282 C1290 0.930 . S
H1283 C1291 0.930 . S
H1284 C1294 0.930 . S
H1285 C1295 0.930 . S
C1286 H1280 0.930 . S
C1286 C1287 1.355 . S
C1286 C1288 1.415 . S
C1287 C1286 1.355 . S
C1287 C1289 1.419 . S
C1288 C1286 1.415 . S
C1288 C1293 1.425 . S
C1288 C1295 1.409 . S
C1289 H1281 0.930 . S
C1289 C1287 1.419 . S
C1289 C1290 1.362 . S
C1290 H1282 0.930 . S
C1290 C1289 1.362 . S
C1290 C1293 1.409 . S
C1291 H1283 0.930 . S
C1291 C1292 1.355 . S
C1291 C1293 1.415 . S
C1292 C1291 1.355 . S
C1292 C1294 1.419 . S
C1293 C1288 1.425 . S
C1293 C1290 1.409 . S
C1293 C1291 1.415 . S
C1294 H1284 0.930 . S
C1294 C1292 1.419 . S
C1294 C1295 1.362 . S
C1295 H1285 0.930 . S
C1295 C1288 1.409 . S
C1295 C1294 1.362 . S
H1296 C1302 0.930 . S
H1297 C1305 0.930 . S
H1298 C1306 0.930 . S
H1299 C1307 0.930 . S
H1300 C1310 0.930 . S
H1301 C1311 0.930 . S
C1302 H1296 0.930 . S
C1302 C1303 1.355 . S
C1302 C1304 1.415 . S
C1303 C1302 1.355 . S
C1303 C1305 1.419 . S
C1304 C1302 1.415 . S
C1304 C1309 1.425 . S
C1304 C1311 1.409 . S
C1305 H1297 0.930 . S
C1305 C1303 1.419 . S
C1305 C1306 1.362 . S
C1306 H1298 0.930 . S
C1306 C1305 1.362 . S
C1306 C1309 1.409 . S
C1307 H1299 0.930 . S
C1307 C1308 1.355 . S
C1307 C1309 1.415 . S
C1308 C1307 1.355 . S
C1308 C1310 1.419 . S
C1309 C1304 1.425 . S
C1309 C1306 1.409 . S
C1309 C1307 1.415 . S
C1310 H1300 0.930 . S
C1310 C1308 1.419 . S
C1310 C1311 1.362 . S
C1311 H1301 0.930 . S
C1311 C1304 1.409 . S
C1311 C1310 1.362 . S
H1312 C1318 0.930 . S
H1313 C1321 0.930 . S
H1314 C1322 0.930 . S
H1315 C1323 0.930 . S
H1316 C1326 0.930 . S
H1317 C1327 0.930 . S
C1318 H1312 0.930 . S
C1318 C1319 1.355 . S
C1318 C1320 1.415 . S
C1319 C1318 1.355 . S
C1319 C1321 1.419 . S
C1320 C1318 1.415 . S
C1320 C1325 1.425 . S
C1320 C1327 1.409 . S
C1321 H1313 0.930 . S
C1321 C1319 1.419 . S
C1321 C1322 1.362 . S
C1322 H1314 0.930 . S
C1322 C1321 1.362 . S
C1322 C1325 1.409 . S
C1323 H1315 0.930 . S
C1323 C1324 1.355 . S
C1323 C1325 1.415 . S
C1324 C1323 1.355 . S
C1324 C1326 1.419 . S
C1325 C1320 1.425 . S
C1325 C1322 1.409 . S
C1325 C1323 1.415 . S
C1326 H1316 0.930 . S
C1326 C1324 1.419 . S
C1326 C1327 1.362 . S
C1327 H1317 0.930 . S
C1327 C1320 1.409 . S
C1327 C1326 1.362 . S
H1328 C1334 0.930 . S
H1329 C1337 0.930 . S
H1330 C1338 0.930 . S
H1331 C1339 0.930 . S
H1332 C1342 0.930 . S
H1333 C1343 0.930 . S
C1334 H1328 0.930 . S
C1334 C1335 1.355 . S
C1334 C1336 1.415 . S
C1335 C1334 1.355 . S
C1335 C1337 1.419 . S
C1336 C1334 1.415 . S
C1336 C1341 1.425 . S
C1336 C1343 1.409 . S
C1337 H1329 0.930 . S
C1337 C1335 1.419 . S
C1337 C1338 1.362 . S
C1338 H1330 0.930 . S
C1338 C1337 1.362 . S
C1338 C1341 1.409 . S
C1339 H1331 0.930 . S
C1339 C1340 1.355 . S
C1339 C1341 1.415 . S
C1340 C1339 1.355 . S
C1340 C1342 1.419 . S
C1341 C1336 1.425 . S
C1341 C1338 1.409 . S
C1341 C1339 1.415 . S
C1342 H1332 0.930 . S
C1342 C1340 1.419 . S
C1342 C1343 1.362 . S
C1343 H1333 0.930 . S
C1343 C1336 1.409 . S
C1343 C1342 1.362 . S
H1344 C1350 0.930 . S
H1345 C1353 0.930 . S
H1346 C1354 0.930 . S
H1347 C1355 0.930 . S
H1348 C1358 0.930 . S
H1349 C1359 0.930 . S
C1350 H1344 0.930 . S
C1350 C1351 1.355 . S
C1350 C1352 1.415 . S
C1351 C1350 1.355 . S
C1351 C1353 1.419 . S
C1352 C1350 1.415 . S
C1352 C1357 1.425 . S
C1352 C1359 1.409 . S
C1353 H1345 0.930 . S
C1353 C1351 1.419 . S
C1353 C1354 1.362 . S
C1354 H1346 0.930 . S
C1354 C1353 1.362 . S
C1354 C1357 1.409 . S
C1355 H1347 0.930 . S
C1355 C1356 1.355 . S
C1355 C1357 1.415 . S
C1356 C1355 1.355 . S
C1356 C1358 1.419 . S
C1357 C1352 1.425 . S
C1357 C1354 1.409 . S
C1357 C1355 1.415 . S
C1358 H1348 0.930 . S
C1358 C1356 1.419 . S
C1358 C1359 1.362 . S
C1359 H1349 0.930 . S
C1359 C1352 1.409 . S
C1359 C1358 1.362 . S
H1360 C1366 0.930 . S
H1361 C1369 0.930 . S
H1362 C1370 0.930 . S
H1363 C1371 0.930 . S
H1364 C1374 0.930 . S
H1365 C1375 0.930 . S
C1366 H1360 0.930 . S
C1366 C1367 1.355 . S
C1366 C1368 1.415 . S
C1367 C1366 1.355 . S
C1367 C1369 1.419 . S
C1368 C1366 1.415 . S
C1368 C1373 1.425 . S
C1368 C1375 1.409 . S
C1369 H1361 0.930 . S
C1369 C1367 1.419 . S
C1369 C1370 1.362 . S
C1370 H1362 0.930 . S
C1370 C1369 1.362 . S
C1370 C1373 1.409 . S
C1371 H1363 0.930 . S
C1371 C1372 1.355 . S
C1371 C1373 1.415 . S
C1372 C1371 1.355 . S
C1372 C1374 1.419 . S
C1373 C1368 1.425 . S
C1373 C1370 1.409 . S
C1373 C1371 1.415 . S
C1374 H1364 0.930 . S
C1374 C1372 1.419 . S
C1374 C1375 1.362 . S
C1375 H1365 0.930 . S
C1375 C1368 1.409 . S
C1375 C1374 1.362 . S
H1376 C1382 0.930 . S
H1377 C1385 0.930 . S
H1378 C1386 0.930 . S
H1379 C1387 0.930 . S
H1380 C1390 0.930 . S
H1381 C1391 0.930 . S
C1382 H1376 0.930 . S
C1382 C1383 1.355 . S
C1382 C1384 1.415 . S
C1383 C1382 1.355 . S
C1383 C1385 1.419 . S
C1384 C1382 1.415 . S
C1384 C1389 1.425 . S
C1384 C1391 1.409 . S
C1385 H1377 0.930 . S
C1385 C1383 1.419 . S
C1385 C1386 1.362 . S
C1386 H1378 0.930 . S
C1386 C1385 1.362 . S
C1386 C1389 1.409 . S
C1387 H1379 0.930 . S
C1387 C1388 1.355 . S
C1387 C1389 1.415 . S
C1388 C1387 1.355 . S
C1388 C1390 1.419 . S
C1389 C1384 1.425 . S
C1389 C1386 1.409 . S
C1389 C1387 1.415 . S
C1390 H1380 0.930 . S
C1390 C1388 1.419 . S
C1390 C1391 1.362 . S
C1391 H1381 0.930 . S
C1391 C1384 1.409 . S
C1391 C1390 1.362 . S
H1392 C1398 0.930 . S
H1393 C1401 0.930 . S
H1394 C1402 0.930 . S
H1395 C1403 0.930 . S
H1396 C1406 0.930 . S
H1397 C1407 0.930 . S
C1398 H1392 0.930 . S
C1398 C1399 1.355 . S
C1398 C1400 1.415 . S
C1399 C1398 1.355 . S
C1399 C1401 1.419 . S
C1400 C1398 1.415 . S
C1400 C1405 1.425 . S
C1400 C1407 1.409 . S
C1401 H1393 0.930 . S
C1401 C1399 1.419 . S
C1401 C1402 1.362 . S
C1402 H1394 0.930 . S
C1402 C1401 1.362 . S
C1402 C1405 1.409 . S
C1403 H1395 0.930 . S
C1403 C1404 1.355 . S
C1403 C1405 1.415 . S
C1404 C1403 1.355 . S
C1404 C1406 1.419 . S
C1405 C1400 1.425 . S
C1405 C1402 1.409 . S
C1405 C1403 1.415 . S
C1406 H1396 0.930 . S
C1406 C1404 1.419 . S
C1406 C1407 1.362 . S
C1407 H1397 0.930 . S
C1407 C1400 1.409 . S
C1407 C1406 1.362 . S
H1408 C1414 0.930 . S
H1409 C1417 0.930 . S
H1410 C1418 0.930 . S
H1411 C1419 0.930 . S
H1412 C1422 0.930 . S
H1413 C1423 0.930 . S
C1414 H1408 0.930 . S
C1414 C1415 1.355 . S
C1414 C1416 1.415 . S
C1415 C1414 1.355 . S
C1415 C1417 1.419 . S
C1416 C1414 1.415 . S
C1416 C1421 1.425 . S
C1416 C1423 1.409 . S
C1417 H1409 0.930 . S
C1417 C1415 1.419 . S
C1417 C1418 1.362 . S
C1418 H1410 0.930 . S
C1418 C1417 1.362 . S
C1418 C1421 1.409 . S
C1419 H1411 0.930 . S
C1419 C1420 1.355 . S
C1419 C1421 1.415 . S
C1420 C1419 1.355 . S
C1420 C1422 1.419 . S
C1421 C1416 1.425 . S
C1421 C1418 1.409 . S
C1421 C1419 1.415 . S
C1422 H1412 0.930 . S
C1422 C1420 1.419 . S
C1422 C1423 1.362 . S
C1423 H1413 0.930 . S
C1423 C1416 1.409 . S
C1423 C1422 1.362 . S
H1424 C1430 0.930 . S
H1425 C1433 0.930 . S
H1426 C1434 0.930 . S
H1427 C1435 0.952 . S
H1428 C1438 0.930 . S
H1429 C1439 0.930 . S
C1430 H1424 0.930 . S
C1430 C1431 1.355 . S
C1430 C1432 1.415 . S
C1431 C1430 1.355 . S
C1431 C1433 1.419 . S
C1432 C1430 1.415 . S
C1432 C1437 1.425 . S
C1432 C1439 1.409 . S
C1433 H1425 0.930 . S
C1433 C1431 1.419 . S
C1433 C1434 1.362 . S
C1434 H1426 0.930 . S
C1434 C1433 1.362 . S
C1434 C1437 1.409 . S
C1435 H1427 0.952 . S
C1435 C1436 1.355 . S
C1435 C1437 1.415 . S
C1436 C1435 1.355 . S
C1436 C1438 1.419 . S
C1437 C1432 1.425 . S
C1437 C1434 1.409 . S
C1437 C1435 1.415 . S
C1438 H1428 0.930 . S
C1438 C1436 1.419 . S
C1438 C1439 1.362 . S
C1439 H1429 0.930 . S
C1439 C1432 1.409 . S
C1439 C1438 1.362 . S
H1440 C1446 0.930 . S
H1441 C1449 0.930 . S
H1442 C1450 0.930 . S
H1443 C1451 0.930 . S
H1444 C1454 0.930 . S
H1445 C1455 0.930 . S
C1446 H1440 0.930 . S
C1446 C1447 1.355 . S
C1446 C1448 1.415 . S
C1447 C1446 1.355 . S
C1447 C1449 1.419 . S
C1448 C1446 1.415 . S
C1448 C1453 1.425 . S
C1448 C1455 1.409 . S
C1449 H1441 0.930 . S
C1449 C1447 1.419 . S
C1449 C1450 1.362 . S
C1450 H1442 0.930 . S
C1450 C1449 1.362 . S
C1450 C1453 1.409 . S
C1451 H1443 0.930 . S
C1451 C1452 1.355 . S
C1451 C1453 1.415 . S
C1452 C1451 1.355 . S
C1452 C1454 1.419 . S
C1453 C1448 1.425 . S
C1453 C1450 1.409 . S
C1453 C1451 1.415 . S
C1454 H1444 0.930 . S
C1454 C1452 1.419 . S
C1454 C1455 1.362 . S
C1455 H1445 0.930 . S
C1455 C1448 1.409 . S
C1455 C1454 1.362 . S
H1456 C1462 0.930 . S
H1457 C1465 0.930 . S
H1458 C1466 0.930 . S
H1459 C1467 0.930 . S
H1460 C1470 0.930 . S
H1461 C1471 0.930 . S
C1462 H1456 0.930 . S
C1462 C1463 1.355 . S
C1462 C1464 1.415 . S
C1463 C1462 1.355 . S
C1463 C1465 1.419 . S
C1464 C1462 1.415 . S
C1464 C1469 1.425 . S
C1464 C1471 1.409 . S
C1465 H1457 0.930 . S
C1465 C1463 1.419 . S
C1465 C1466 1.362 . S
C1466 H1458 0.930 . S
C1466 C1465 1.362 . S
C1466 C1469 1.409 . S
C1467 H1459 0.930 . S
C1467 C1468 1.355 . S
C1467 C1469 1.415 . S
C1468 C1467 1.355 . S
C1468 C1470 1.419 . S
C1469 C1464 1.425 . S
C1469 C1466 1.409 . S
C1469 C1467 1.415 . S
C1470 H1460 0.930 . S
C1470 C1468 1.419 . S
C1470 C1471 1.362 . S
C1471 H1461 0.930 . S
C1471 C1464 1.409 . S
C1471 C1470 1.362 . S
H1472 C1478 0.930 . S
H1473 C1481 0.930 . S
H1474 C1482 0.930 . S
H1475 C1483 0.930 . S
H1476 C1486 0.930 . S
H1477 C1487 0.930 . S
C1478 H1472 0.930 . S
C1478 C1479 1.355 . S
C1478 C1480 1.415 . S
C1479 C1478 1.355 . S
C1479 C1481 1.419 . S
C1480 C1478 1.415 . S
C1480 C1485 1.425 . S
C1480 C1487 1.409 . S
C1481 H1473 0.930 . S
C1481 C1479 1.419 . S
C1481 C1482 1.362 . S
C1482 H1474 0.930 . S
C1482 C1481 1.362 . S
C1482 C1485 1.409 . S
C1483 H1475 0.930 . S
C1483 C1484 1.355 . S
C1483 C1485 1.415 . S
C1484 C1483 1.355 . S
C1484 C1486 1.419 . S
C1485 C1480 1.425 . S
C1485 C1482 1.409 . S
C1485 C1483 1.415 . S
C1486 H1476 0.930 . S
C1486 C1484 1.419 . S
C1486 C1487 1.362 . S
C1487 H1477 0.930 . S
C1487 C1480 1.409 . S
C1487 C1486 1.362 . S
H1488 C1494 0.930 . S
H1489 C1497 0.930 . S
H1490 C1498 0.930 . S
H1491 C1499 0.930 . S
H1492 C1502 0.930 . S
H1493 C1503 0.930 . S
C1494 H1488 0.930 . S
C1494 C1495 1.355 . S
C1494 C1496 1.415 . S
C1495 C1494 1.355 . S
C1495 C1497 1.419 . S
C1496 C1494 1.415 . S
C1496 C1501 1.425 . S
C1496 C1503 1.409 . S
C1497 H1489 0.930 . S
C1497 C1495 1.419 . S
C1497 C1498 1.362 . S
C1498 H1490 0.930 . S
C1498 C1497 1.362 . S
C1498 C1501 1.409 . S
C1499 H1491 0.930 . S
C1499 C1500 1.355 . S
C1499 C1501 1.415 . S
C1500 C1499 1.355 . S
C1500 C1502 1.419 . S
C1501 C1496 1.425 . S
C1501 C1498 1.409 . S
C1501 C1499 1.415 . S
C1502 H1492 0.930 . S
C1502 C1500 1.419 . S
C1502 C1503 1.362 . S
C1503 H1493 0.930 . S
C1503 C1496 1.409 . S
C1503 C1502 1.362 . S
H1504 C1510 0.930 . S
H1505 C1513 0.930 . S
H1506 C1514 0.930 . S
H1507 C1515 0.930 . S
H1508 C1518 0.930 . S
H1509 C1519 0.930 . S
C1510 H1504 0.930 . S
C1510 C1511 1.355 . S
C1510 C1512 1.415 . S
C1511 C1510 1.355 . S
C1511 C1513 1.419 . S
C1512 C1510 1.415 . S
C1512 C1517 1.425 . S
C1512 C1519 1.409 . S
C1513 H1505 0.930 . S
C1513 C1511 1.419 . S
C1513 C1514 1.362 . S
C1514 H1506 0.930 . S
C1514 C1513 1.362 . S
C1514 C1517 1.409 . S
C1515 H1507 0.930 . S
C1515 C1516 1.355 . S
C1515 C1517 1.415 . S
C1516 C1515 1.355 . S
C1516 C1518 1.419 . S
C1517 C1512 1.425 . S
C1517 C1514 1.409 . S
C1517 C1515 1.415 . S
C1518 H1508 0.930 . S
C1518 C1516 1.419 . S
C1518 C1519 1.362 . S
C1519 H1509 0.930 . S
C1519 C1512 1.409 . S
C1519 C1518 1.362 . S
H1520 C1526 0.930 1_455 S
H1521 C1529 0.930 . S
H1522 C1530 0.930 . S
H1523 C1531 0.930 . S
H1524 C1534 0.930 . S
H1525 C1535 0.930 . S
C1526 H1520 0.930 1_655 S
C1526 C1527 1.355 . S
C1526 C1528 1.415 . S
C1527 C1526 1.355 . S
C1527 C1529 1.419 . S
C1528 C1526 1.415 . S
C1528 C1533 1.425 . S
C1528 C1535 1.409 . S
C1529 H1521 0.930 . S
C1529 C1527 1.419 . S
C1529 C1530 1.362 . S
C1530 H1522 0.930 . S
C1530 C1529 1.362 . S
C1530 C1533 1.409 . S
C1531 H1523 0.930 . S
C1531 C1532 1.355 . S
C1531 C1533 1.415 . S
C1532 C1531 1.355 . S
C1532 C1534 1.419 . S
C1533 C1528 1.425 . S
C1533 C1530 1.409 . S
C1533 C1531 1.415 . S
C1534 H1524 0.930 . S
C1534 C1532 1.419 . S
C1534 C1535 1.362 . S
C1535 H1525 0.930 . S
C1535 C1528 1.409 . S
C1535 C1534 1.362 . S
H1536 C1542 0.930 . S
H1537 C1545 0.930 . S
H1538 C1546 0.930 . S
H1539 C1547 0.930 . S
H1540 C1550 0.930 . S
H1541 C1551 0.930 . S
C1542 H1536 0.930 . S
C1542 C1543 1.355 . S
C1542 C1544 1.415 . S
C1543 C1542 1.355 . S
C1543 C1545 1.419 . S
C1544 C1542 1.415 . S
C1544 C1549 1.425 . S
C1544 C1551 1.409 . S
C1545 H1537 0.930 . S
C1545 C1543 1.419 . S
C1545 C1546 1.362 . S
C1546 H1538 0.930 . S
C1546 C1545 1.362 . S
C1546 C1549 1.409 . S
C1547 H1539 0.930 . S
C1547 C1548 1.355 . S
C1547 C1549 1.415 . S
C1548 C1547 1.355 . S
C1548 C1550 1.419 . S
C1549 C1544 1.425 . S
C1549 C1546 1.409 . S
C1549 C1547 1.415 . S
C1550 H1540 0.930 . S
C1550 C1548 1.419 . S
C1550 C1551 1.362 . S
C1551 H1541 0.930 . S
C1551 C1544 1.409 . S
C1551 C1550 1.362 . S
H1552 C1558 0.930 . S
H1553 C1561 0.930 . S
H1554 C1562 0.930 . S
H1555 C1563 0.930 . S
H1556 C1566 0.930 . S
H1557 C1567 0.930 . S
C1558 H1552 0.930 . S
C1558 C1559 1.355 1_455 S
C1558 C1560 1.415 . S
C1559 C1558 1.355 1_655 S
C1559 C1561 1.419 . S
C1560 C1558 1.415 . S
C1560 C1565 1.425 . S
C1560 C1567 1.409 . S
C1561 H1553 0.930 . S
C1561 C1559 1.419 . S
C1561 C1562 1.362 1_655 S
C1562 H1554 0.930 . S
C1562 C1561 1.362 1_455 S
C1562 C1565 1.409 . S
C1563 H1555 0.930 . S
C1563 C1564 1.355 . S
C1563 C1565 1.415 . S
C1564 C1563 1.355 . S
C1564 C1566 1.419 . S
C1565 C1560 1.425 . S
C1565 C1562 1.409 . S
C1565 C1563 1.415 . S
C1566 H1556 0.930 . S
C1566 C1564 1.419 . S
C1566 C1567 1.362 . S
C1567 H1557 0.930 . S
C1567 C1560 1.409 . S
C1567 C1566 1.362 . S
H1568 C1574 0.930 . S
H1569 C1577 0.930 . S
H1570 C1578 0.930 . S
H1571 C1579 0.930 . S
H1572 C1582 0.930 . S
H1573 C1583 0.930 . S
C1574 H1568 0.930 . S
C1574 C1575 1.355 . S
C1574 C1576 1.415 . S
C1575 C1574 1.355 . S
C1575 C1577 1.419 . S
C1576 C1574 1.415 . S
C1576 C1581 1.425 . S
C1576 C1583 1.409 . S
C1577 H1569 0.930 . S
C1577 C1575 1.419 . S
C1577 C1578 1.362 . S
C1578 H1570 0.930 . S
C1578 C1577 1.362 . S
C1578 C1581 1.409 . S
C1579 H1571 0.930 . S
C1579 C1580 1.355 . S
C1579 C1581 1.415 . S
C1580 C1579 1.355 . S
C1580 C1582 1.419 . S
C1581 C1576 1.425 . S
C1581 C1578 1.409 . S
C1581 C1579 1.415 . S
C1582 H1572 0.930 . S
C1582 C1580 1.419 . S
C1582 C1583 1.362 . S
C1583 H1573 0.930 . S
C1583 C1576 1.409 . S
C1583 C1582 1.362 . S
H1584 C1590 0.930 . S
H1585 C1593 0.930 . S
H1586 C1594 0.930 . S
H1587 C1595 0.930 . S
H1588 C1598 0.930 . S
H1589 C1599 0.930 . S
C1590 H1584 0.930 . S
C1590 C1591 1.355 . S
C1590 C1592 1.415 . S
C1591 C1590 1.355 . S
C1591 C1593 1.419 . S
C1592 C1590 1.415 . S
C1592 C1597 1.425 . S
C1592 C1599 1.409 . S
C1593 H1585 0.930 . S
C1593 C1591 1.419 . S
C1593 C1594 1.362 . S
C1594 H1586 0.930 . S
C1594 C1593 1.362 . S
C1594 C1597 1.409 . S
C1595 H1587 0.930 . S
C1595 C1596 1.355 . S
C1595 C1597 1.415 . S
C1596 C1595 1.355 . S
C1596 C1598 1.419 . S
C1597 C1592 1.425 . S
C1597 C1594 1.409 . S
C1597 C1595 1.415 . S
C1598 H1588 0.930 . S
C1598 C1596 1.419 . S
C1598 C1599 1.362 . S
C1599 H1589 0.930 . S
C1599 C1592 1.409 . S
C1599 C1598 1.362 . S
H1600 C1606 0.930 . S
H1601 C1609 0.930 . S
H1602 C1610 0.930 . S
H1603 C1611 0.930 . S
H1604 C1614 0.930 . S
H1605 C1615 0.930 . S
C1606 H1600 0.930 . S
C1606 C1607 1.355 . S
C1606 C1608 1.415 . S
C1607 C1606 1.355 . S
C1607 C1609 1.419 . S
C1608 C1606 1.415 . S
C1608 C1613 1.425 . S
C1608 C1615 1.409 . S
C1609 H1601 0.930 . S
C1609 C1607 1.419 . S
C1609 C1610 1.362 . S
C1610 H1602 0.930 . S
C1610 C1609 1.362 . S
C1610 C1613 1.409 . S
C1611 H1603 0.930 . S
C1611 C1612 1.355 . S
C1611 C1613 1.415 . S
C1612 C1611 1.355 . S
C1612 C1614 1.419 . S
C1613 C1608 1.425 . S
C1613 C1610 1.409 . S
C1613 C1611 1.415 . S
C1614 H1604 0.930 . S
C1614 C1612 1.419 . S
C1614 C1615 1.362 . S
C1615 H1605 0.930 . S
C1615 C1608 1.409 . S
C1615 C1614 1.362 . S
H1616 C1622 0.930 . S
H1617 C1625 0.930 . S
H1618 C1626 0.930 . S
H1619 C1627 0.930 . S
H1620 C1630 0.930 . S
H1621 C1631 0.930 . S
C1622 H1616 0.930 . S
C1622 C1623 1.355 . S
C1622 C1624 1.415 . S
C1623 C1622 1.355 . S
C1623 C1625 1.419 . S
C1624 C1622 1.415 . S
C1624 C1629 1.425 . S
C1624 C1631 1.409 . S
C1625 H1617 0.930 . S
C1625 C1623 1.419 . S
C1625 C1626 1.362 . S
C1626 H1618 0.930 . S
C1626 C1625 1.362 . S
C1626 C1629 1.409 . S
C1627 H1619 0.930 . S
C1627 C1628 1.355 . S
C1627 C1629 1.415 . S
C1628 C1627 1.355 . S
C1628 C1630 1.419 . S
C1629 C1624 1.425 . S
C1629 C1626 1.409 . S
C1629 C1627 1.415 . S
C1630 H1620 0.930 . S
C1630 C1628 1.419 . S
C1630 C1631 1.362 . S
C1631 H1621 0.930 . S
C1631 C1624 1.409 . S
C1631 C1630 1.362 . S
H1632 C1638 0.930 . S
H1633 C1641 0.930 . S
H1634 C1642 0.930 . S
H1635 C1643 0.930 . S
H1636 C1646 0.930 . S
H1637 C1647 0.930 . S
C1638 H1632 0.930 . S
C1638 C1639 1.355 . S
C1638 C1640 1.415 . S
C1639 C1638 1.355 . S
C1639 C1641 1.419 . S
C1640 C1638 1.415 . S
C1640 C1645 1.425 . S
C1640 C1647 1.409 . S
C1641 H1633 0.930 . S
C1641 C1639 1.419 . S
C1641 C1642 1.362 . S
C1642 H1634 0.930 . S
C1642 C1641 1.362 . S
C1642 C1645 1.409 . S
C1643 H1635 0.930 . S
C1643 C1644 1.355 . S
C1643 C1645 1.415 . S
C1644 C1643 1.355 . S
C1644 C1646 1.419 . S
C1645 C1640 1.425 . S
C1645 C1642 1.409 . S
C1645 C1643 1.415 . S
C1646 H1636 0.930 . S
C1646 C1644 1.419 . S
C1646 C1647 1.362 . S
C1647 H1637 0.930 . S
C1647 C1640 1.409 . S
C1647 C1646 1.362 . S
H1648 C1654 0.930 . S
H1649 C1657 0.930 . S
H1650 C1658 0.930 . S
H1651 C1659 0.930 . S
H1652 C1662 0.930 . S
H1653 C1663 0.930 . S
C1654 H1648 0.930 . S
C1654 C1655 1.355 . S
C1654 C1656 1.415 . S
C1655 C1654 1.355 . S
C1655 C1657 1.419 . S
C1656 C1654 1.415 . S
C1656 C1661 1.425 . S
C1656 C1663 1.409 . S
C1657 H1649 0.930 . S
C1657 C1655 1.419 . S
C1657 C1658 1.362 . S
C1658 H1650 0.930 . S
C1658 C1657 1.362 . S
C1658 C1661 1.409 . S
C1659 H1651 0.930 . S
C1659 C1660 1.355 1_455 S
C1659 C1661 1.415 . S
C1660 C1659 1.355 1_655 S
C1660 C1662 1.419 . S
C1661 C1656 1.425 . S
C1661 C1658 1.409 . S
C1661 C1659 1.415 . S
C1662 H1652 0.930 . S
C1662 C1660 1.419 . S
C1662 C1663 1.362 1_655 S
C1663 H1653 0.930 . S
C1663 C1656 1.409 . S
C1663 C1662 1.362 1_455 S
H1664 C1670 0.930 . S
H1665 C1673 0.930 . S
H1666 C1674 0.930 . S
H1667 C1675 0.930 . S
H1668 C1678 0.930 . S
H1669 C1679 0.930 . S
C1670 H1664 0.930 . S
C1670 C1671 1.355 . S
C1670 C1672 1.415 . S
C1671 C1670 1.355 . S
C1671 C1673 1.419 . S
C1672 C1670 1.415 . S
C1672 C1677 1.425 . S
C1672 C1679 1.409 . S
C1673 H1665 0.930 . S
C1673 C1671 1.419 . S
C1673 C1674 1.362 . S
C1674 H1666 0.930 . S
C1674 C1673 1.362 . S
C1674 C1677 1.409 . S
C1675 H1667 0.930 . S
C1675 C1676 1.355 . S
C1675 C1677 1.415 . S
C1676 C1675 1.355 . S
C1676 C1678 1.419 . S
C1677 C1672 1.425 . S
C1677 C1674 1.409 . S
C1677 C1675 1.415 . S
C1678 H1668 0.930 . S
C1678 C1676 1.419 . S
C1678 C1679 1.362 . S
C1679 H1669 0.930 . S
C1679 C1672 1.409 . S
C1679 C1678 1.362 . S
H1680 C1686 0.930 . S
H1681 C1689 0.930 . S
H1682 C1690 0.930 . S
H1683 C1691 0.930 . S
H1684 C1694 0.930 . S
H1685 C1695 0.930 . S
C1686 H1680 0.930 . S
C1686 C1687 1.355 . S
C1686 C1688 1.415 . S
C1687 C1686 1.355 . S
C1687 C1689 1.419 . S
C1688 C1686 1.415 . S
C1688 C1693 1.425 . S
C1688 C1695 1.409 . S
C1689 H1681 0.930 . S
C1689 C1687 1.419 . S
C1689 C1690 1.362 . S
C1690 H1682 0.930 . S
C1690 C1689 1.362 . S
C1690 C1693 1.409 . S
C1691 H1683 0.930 . S
C1691 C1692 1.355 . S
C1691 C1693 1.415 . S
C1692 C1691 1.355 . S
C1692 C1694 1.419 . S
C1693 C1688 1.425 . S
C1693 C1690 1.409 . S
C1693 C1691 1.415 . S
C1694 H1684 0.930 . S
C1694 C1692 1.419 . S
C1694 C1695 1.362 . S
C1695 H1685 0.930 . S
C1695 C1688 1.409 . S
C1695 C1694 1.362 . S
H1696 C1702 0.930 . S
H1697 C1705 0.930 . S
H1698 C1706 0.930 . S
H1699 C1707 0.930 . S
H1700 C1710 0.930 . S
H1701 C1711 0.930 . S
C1702 H1696 0.930 . S
C1702 C1703 1.355 . S
C1702 C1704 1.415 . S
C1703 C1702 1.355 . S
C1703 C1705 1.419 . S
C1704 C1702 1.415 . S
C1704 C1709 1.425 . S
C1704 C1711 1.409 . S
C1705 H1697 0.930 . S
C1705 C1703 1.419 . S
C1705 C1706 1.362 . S
C1706 H1698 0.930 . S
C1706 C1705 1.362 . S
C1706 C1709 1.409 . S
C1707 H1699 0.930 . S
C1707 C1708 1.355 . S
C1707 C1709 1.415 . S
C1708 C1707 1.355 . S
C1708 C1710 1.419 . S
C1709 C1704 1.425 . S
C1709 C1706 1.409 . S
C1709 C1707 1.415 . S
C1710 H1700 0.930 . S
C1710 C1708 1.419 . S
C1710 C1711 1.362 . S
C1711 H1701 0.930 . S
C1711 C1704 1.409 . S
C1711 C1710 1.362 . S
H1712 C1718 0.930 . S
H1713 C1721 0.930 . S
H1714 C1722 0.930 . S
H1715 C1723 0.930 1_655 S
H1716 C1726 0.930 . S
H1717 C1727 0.930 . S
C1718 H1712 0.930 . S
C1718 C1719 1.355 . S
C1718 C1720 1.415 . S
C1719 C1718 1.355 . S
C1719 C1721 1.419 . S
C1720 C1718 1.415 . S
C1720 C1725 1.425 . S
C1720 C1727 1.409 . S
C1721 H1713 0.930 . S
C1721 C1719 1.419 . S
C1721 C1722 1.362 . S
C1722 H1714 0.930 . S
C1722 C1721 1.362 . S
C1722 C1725 1.409 . S
C1723 H1715 0.930 1_455 S
C1723 C1724 1.355 . S
C1723 C1725 1.415 . S
C1724 C1723 1.355 . S
C1724 C1726 1.419 . S
C1725 C1720 1.425 . S
C1725 C1722 1.409 . S
C1725 C1723 1.415 . S
C1726 H1716 0.930 . S
C1726 C1724 1.419 . S
C1726 C1727 1.362 . S
C1727 H1717 0.930 . S
C1727 C1720 1.409 . S
C1727 C1726 1.362 . S
H1728 C1734 0.930 . S
H1729 C1737 0.930 . S
H1730 C1738 0.930 . S
H1731 C1739 0.930 . S
H1732 C1742 0.930 . S
H1733 C1743 0.930 . S
C1734 H1728 0.930 . S
C1734 C1735 1.355 . S
C1734 C1736 1.415 . S
C1735 C1734 1.355 . S
C1735 C1737 1.419 . S
C1736 C1734 1.415 . S
C1736 C1741 1.425 . S
C1736 C1743 1.409 . S
C1737 H1729 0.930 . S
C1737 C1735 1.419 . S
C1737 C1738 1.362 . S
C1738 H1730 0.930 . S
C1738 C1737 1.362 . S
C1738 C1741 1.409 . S
C1739 H1731 0.930 . S
C1739 C1740 1.355 . S
C1739 C1741 1.415 . S
C1740 C1739 1.355 . S
C1740 C1742 1.419 . S
C1741 C1736 1.425 . S
C1741 C1738 1.409 . S
C1741 C1739 1.415 . S
C1742 H1732 0.930 . S
C1742 C1740 1.419 . S
C1742 C1743 1.362 . S
C1743 H1733 0.930 . S
C1743 C1736 1.409 . S
C1743 C1742 1.362 . S
H1744 C1750 0.930 . S
H1745 C1753 0.930 . S
H1746 C1754 0.930 . S
H1747 C1755 0.930 . S
H1748 C1758 0.930 . S
H1749 C1759 0.930 . S
C1750 H1744 0.930 . S
C1750 C1751 1.355 . S
C1750 C1752 1.415 . S
C1751 C1750 1.355 . S
C1751 C1753 1.419 . S
C1752 C1750 1.415 . S
C1752 C1757 1.425 . S
C1752 C1759 1.409 . S
C1753 H1745 0.930 . S
C1753 C1751 1.419 . S
C1753 C1754 1.362 . S
C1754 H1746 0.930 . S
C1754 C1753 1.362 . S
C1754 C1757 1.409 . S
C1755 H1747 0.930 . S
C1755 C1756 1.355 . S
C1755 C1757 1.415 . S
C1756 C1755 1.355 . S
C1756 C1758 1.419 . S
C1757 C1752 1.425 . S
C1757 C1754 1.409 . S
C1757 C1755 1.415 . S
C1758 H1748 0.930 . S
C1758 C1756 1.419 . S
C1758 C1759 1.362 . S
C1759 H1749 0.930 . S
C1759 C1752 1.409 . S
C1759 C1758 1.362 . S
H1760 C1766 0.930 . S
H1761 C1769 0.930 . S
H1762 C1770 0.930 . S
H1763 C1771 0.930 . S
H1764 C1774 0.930 . S
H1765 C1775 0.930 . S
C1766 H1760 0.930 . S
C1766 C1767 1.355 . S
C1766 C1768 1.415 . S
C1767 C1766 1.355 . S
C1767 C1769 1.419 . S
C1768 C1766 1.415 . S
C1768 C1773 1.425 . S
C1768 C1775 1.409 . S
C1769 H1761 0.930 . S
C1769 C1767 1.419 . S
C1769 C1770 1.362 . S
C1770 H1762 0.930 . S
C1770 C1769 1.362 . S
C1770 C1773 1.409 . S
C1771 H1763 0.930 . S
C1771 C1772 1.355 . S
C1771 C1773 1.415 . S
C1772 C1771 1.355 . S
C1772 C1774 1.419 . S
C1773 C1768 1.425 . S
C1773 C1770 1.409 . S
C1773 C1771 1.415 . S
C1774 H1764 0.930 . S
C1774 C1772 1.419 . S
C1774 C1775 1.362 . S
C1775 H1765 0.930 . S
C1775 C1768 1.409 . S
C1775 C1774 1.362 . S
H1776 C1782 0.930 . S
H1777 C1785 0.930 . S
H1778 C1786 0.930 . S
H1779 C1787 0.930 . S
H1780 C1790 0.930 . S
H1781 C1791 0.930 . S
C1782 H1776 0.930 . S
C1782 C1783 1.355 . S
C1782 C1784 1.415 . S
C1783 C1782 1.355 . S
C1783 C1785 1.419 . S
C1784 C1782 1.415 . S
C1784 C1789 1.425 . S
C1784 C1791 1.409 . S
C1785 H1777 0.930 . S
C1785 C1783 1.419 . S
C1785 C1786 1.362 . S
C1786 H1778 0.930 . S
C1786 C1785 1.362 . S
C1786 C1789 1.409 . S
C1787 H1779 0.930 . S
C1787 C1788 1.355 . S
C1787 C1789 1.415 . S
C1788 C1787 1.355 . S
C1788 C1790 1.419 . S
C1789 C1784 1.425 . S
C1789 C1786 1.409 . S
C1789 C1787 1.415 . S
C1790 H1780 0.930 . S
C1790 C1788 1.419 . S
C1790 C1791 1.362 . S
C1791 H1781 0.930 . S
C1791 C1784 1.409 . S
C1791 C1790 1.362 . S
H1792 C1798 0.930 . S
H1793 C1801 0.930 . S
H1794 C1802 0.930 . S
H1795 C1803 0.930 . S
H1796 C1806 0.930 . S
H1797 C1807 0.930 . S
C1798 H1792 0.930 . S
C1798 C1799 1.355 . S
C1798 C1800 1.415 . S
C1799 C1798 1.355 . S
C1799 C1801 1.419 . S
C1800 C1798 1.415 . S
C1800 C1805 1.425 . S
C1800 C1807 1.409 . S
C1801 H1793 0.930 . S
C1801 C1799 1.419 . S
C1801 C1802 1.362 . S
C1802 H1794 0.930 . S
C1802 C1801 1.362 . S
C1802 C1805 1.409 . S
C1803 H1795 0.930 . S
C1803 C1804 1.355 . S
C1803 C1805 1.415 . S
C1804 C1803 1.355 . S
C1804 C1806 1.419 . S
C1805 C1800 1.425 . S
C1805 C1802 1.409 . S
C1805 C1803 1.415 . S
C1806 H1796 0.930 . S
C1806 C1804 1.419 . S
C1806 C1807 1.362 . S
C1807 H1797 0.930 . S
C1807 C1800 1.409 . S
C1807 C1806 1.362 . S
H1808 C1814 0.930 . S
H1809 C1817 0.930 . S
H1810 C1818 0.930 . S
H1811 C1819 0.930 . S
H1812 C1822 0.930 . S
H1813 C1823 0.930 . S
C1814 H1808 0.930 . S
C1814 C1815 1.355 . S
C1814 C1816 1.415 . S
C1815 C1814 1.355 . S
C1815 C1817 1.419 . S
C1816 C1814 1.415 . S
C1816 C1821 1.425 . S
C1816 C1823 1.409 . S
C1817 H1809 0.930 . S
C1817 C1815 1.419 . S
C1817 C1818 1.362 . S
C1818 H1810 0.930 . S
C1818 C1817 1.362 . S
C1818 C1821 1.409 . S
C1819 H1811 0.930 . S
C1819 C1820 1.355 . S
C1819 C1821 1.415 . S
C1820 C1819 1.355 . S
C1820 C1822 1.419 . S
C1821 C1816 1.425 . S
C1821 C1818 1.409 . S
C1821 C1819 1.415 . S
C1822 H1812 0.930 . S
C1822 C1820 1.419 . S
C1822 C1823 1.362 . S
C1823 H1813 0.930 . S
C1823 C1816 1.409 . S
C1823 C1822 1.362 . S
H1824 C1830 0.930 . S
H1825 C1833 0.930 . S
H1826 C1834 0.930 . S
H1827 C1835 0.930 . S
H1828 C1838 0.930 . S
H1829 C1839 0.930 . S
C1830 H1824 0.930 . S
C1830 C1831 1.355 . S
C1830 C1832 1.415 . S
C1831 C1830 1.355 . S
C1831 C1833 1.419 . S
C1832 C1830 1.415 . S
C1832 C1837 1.425 . S
C1832 C1839 1.409 . S
C1833 H1825 0.930 . S
C1833 C1831 1.419 . S
C1833 C1834 1.362 . S
C1834 H1826 0.930 . S
C1834 C1833 1.362 . S
C1834 C1837 1.409 . S
C1835 H1827 0.930 . S
C1835 C1836 1.355 . S
C1835 C1837 1.415 . S
C1836 C1835 1.355 . S
C1836 C1838 1.419 . S
C1837 C1832 1.425 . S
C1837 C1834 1.409 . S
C1837 C1835 1.415 . S
C1838 H1828 0.930 . S
C1838 C1836 1.419 . S
C1838 C1839 1.362 . S
C1839 H1829 0.930 . S
C1839 C1832 1.409 . S
C1839 C1838 1.362 . S
H1840 C1846 0.930 . S
H1841 C1849 0.930 . S
H1842 C1850 0.930 . S
H1843 C1851 0.930 . S
H1844 C1854 0.930 . S
H1845 C1855 0.930 . S
C1846 H1840 0.930 . S
C1846 C1847 1.355 . S
C1846 C1848 1.415 . S
C1847 C1846 1.355 . S
C1847 C1849 1.419 . S
C1848 C1846 1.415 . S
C1848 C1853 1.425 . S
C1848 C1855 1.409 . S
C1849 H1841 0.930 . S
C1849 C1847 1.419 . S
C1849 C1850 1.362 . S
C1850 H1842 0.930 . S
C1850 C1849 1.362 . S
C1850 C1853 1.409 . S
C1851 H1843 0.930 . S
C1851 C1852 1.355 . S
C1851 C1853 1.415 1_455 S
C1852 C1851 1.355 . S
C1852 C1854 1.419 1_455 S
C1853 C1848 1.425 . S
C1853 C1850 1.409 . S
C1853 C1851 1.415 1_655 S
C1854 H1844 0.930 . S
C1854 C1852 1.419 1_655 S
C1854 C1855 1.362 . S
C1855 H1845 0.930 . S
C1855 C1848 1.409 . S
C1855 C1854 1.362 . S
H1856 C1862 0.930 . S
H1857 C1865 0.930 . S
H1858 C1866 0.930 . S
H1859 C1867 0.930 . S
H1860 C1870 0.930 . S
H1861 C1871 0.930 . S
C1862 H1856 0.930 . S
C1862 C1863 1.355 . S
C1862 C1864 1.415 . S
C1863 C1862 1.355 . S
C1863 C1865 1.419 . S
C1864 C1862 1.415 . S
C1864 C1869 1.425 . S
C1864 C1871 1.409 . S
C1865 H1857 0.930 . S
C1865 C1863 1.419 . S
C1865 C1866 1.362 . S
C1866 H1858 0.930 . S
C1866 C1865 1.362 . S
C1866 C1869 1.409 . S
C1867 H1859 0.930 . S
C1867 C1868 1.355 . S
C1867 C1869 1.415 . S
C1868 C1867 1.355 . S
C1868 C1870 1.419 . S
C1869 C1864 1.425 . S
C1869 C1866 1.409 . S
C1869 C1867 1.415 . S
C1870 H1860 0.930 . S
C1870 C1868 1.419 . S
C1870 C1871 1.362 . S
C1871 H1861 0.930 . S
C1871 C1864 1.409 . S
C1871 C1870 1.362 . S
H1872 C1878 0.930 . S
H1873 C1881 0.930 . S
H1874 C1882 0.930 . S
H1875 C1883 0.930 . S
H1876 C1886 0.930 . S
H1877 C1887 0.930 . S
C1878 H1872 0.930 . S
C1878 C1879 1.355 . S
C1878 C1880 1.415 1_455 S
C1879 C1878 1.355 . S
C1879 C1881 1.419 1_455 S
C1880 C1878 1.415 1_655 S
C1880 C1885 1.425 . S
C1880 C1887 1.409 . S
C1881 H1873 0.930 . S
C1881 C1879 1.419 1_655 S
C1881 C1882 1.362 . S
C1882 H1874 0.930 . S
C1882 C1881 1.362 . S
C1882 C1885 1.409 . S
C1883 H1875 0.930 . S
C1883 C1884 1.355 . S
C1883 C1885 1.415 . S
C1884 C1883 1.355 . S
C1884 C1886 1.419 . S
C1885 C1880 1.425 . S
C1885 C1882 1.409 . S
C1885 C1883 1.415 . S
C1886 H1876 0.930 . S
C1886 C1884 1.419 . S
C1886 C1887 1.362 . S
C1887 H1877 0.930 . S
C1887 C1880 1.409 . S
C1887 C1886 1.362 . S
H1888 C1894 0.930 . S
H1889 C1897 0.930 . S
H1890 C1898 0.930 . S
H1891 C1899 0.930 . S
H1892 C1902 0.930 . S
H1893 C1903 0.930 . S
C1894 H1888 0.930 . S
C1894 C1895 1.355 . S
C1894 C1896 1.415 . S
C1895 C1894 1.355 . S
C1895 C1897 1.419 . S
C1896 C1894 1.415 . S
C1896 C1901 1.425 . S
C1896 C1903 1.409 . S
C1897 H1889 0.930 . S
C1897 C1895 1.419 . S
C1897 C1898 1.362 . S
C1898 H1890 0.930 . S
C1898 C1897 1.362 . S
C1898 C1901 1.409 . S
C1899 H1891 0.930 . S
C1899 C1900 1.355 . S
C1899 C1901 1.415 . S
C1900 C1899 1.355 . S
C1900 C1902 1.419 . S
C1901 C1896 1.425 . S
C1901 C1898 1.409 . S
C1901 C1899 1.415 . S
C1902 H1892 0.930 . S
C1902 C1900 1.419 . S
C1902 C1903 1.362 . S
C1903 H1893 0.930 . S
C1903 C1896 1.409 . S
C1903 C1902 1.362 . S
H1904 C1910 0.930 . S
H1905 C1913 0.930 . S
H1906 C1914 0.930 . S
H1907 C1915 0.930 . S
H1908 C1918 0.930 . S
H1909 C1919 0.930 . S
C1910 H1904 0.930 . S
C1910 C1911 1.355 . S
C1910 C1912 1.415 . S
C1911 C1910 1.355 . S
C1911 C1913 1.419 . S
C1912 C1910 1.415 . S
C1912 C1917 1.425 . S
C1912 C1919 1.409 . S
C1913 H1905 0.930 . S
C1913 C1911 1.419 . S
C1913 C1914 1.362 . S
C1914 H1906 0.930 . S
C1914 C1913 1.362 . S
C1914 C1917 1.409 . S
C1915 H1907 0.930 . S
C1915 C1916 1.355 . S
C1915 C1917 1.415 . S
C1916 C1915 1.355 . S
C1916 C1918 1.419 . S
C1917 C1912 1.425 . S
C1917 C1914 1.409 . S
C1917 C1915 1.415 . S
C1918 H1908 0.930 . S
C1918 C1916 1.419 . S
C1918 C1919 1.362 . S
C1919 H1909 0.930 . S
C1919 C1912 1.409 . S
C1919 C1918 1.362 . S
H1920 C1926 0.930 . S
H1921 C1929 0.930 . S
H1922 C1930 0.930 . S
H1923 C1931 0.930 . S
H1924 C1934 0.930 . S
H1925 C1935 0.930 . S
C1926 H1920 0.930 . S
C1926 C1927 1.355 . S
C1926 C1928 1.415 . S
C1927 C1926 1.355 . S
C1927 C1929 1.419 . S
C1928 C1926 1.415 . S
C1928 C1933 1.425 . S
C1928 C1935 1.409 . S
C1929 H1921 0.930 . S
C1929 C1927 1.419 . S
C1929 C1930 1.362 . S
C1930 H1922 0.930 . S
C1930 C1929 1.362 . S
C1930 C1933 1.409 . S
C1931 H1923 0.930 . S
C1931 C1932 1.355 . S
C1931 C1933 1.415 . S
C1932 C1931 1.355 . S
C1932 C1934 1.419 . S
C1933 C1928 1.425 . S
C1933 C1930 1.409 . S
C1933 C1931 1.415 . S
C1934 H1924 0.930 . S
C1934 C1932 1.419 . S
C1934 C1935 1.362 . S
C1935 H1925 0.930 . S
C1935 C1928 1.409 . S
C1935 C1934 1.362 . S
H1936 C1942 0.930 . S
H1937 C1945 0.930 . S
H1938 C1946 0.930 . S
H1939 C1947 0.930 . S
H1940 C1950 0.930 . S
H1941 C1951 0.930 . S
C1942 H1936 0.930 . S
C1942 C1943 1.355 . S
C1942 C1944 1.415 . S
C1943 C1942 1.355 . S
C1943 C1945 1.419 . S
C1944 C1942 1.415 . S
C1944 C1949 1.425 . S
C1944 C1951 1.409 . S
C1945 H1937 0.930 . S
C1945 C1943 1.419 . S
C1945 C1946 1.362 . S
C1946 H1938 0.930 . S
C1946 C1945 1.362 . S
C1946 C1949 1.409 . S
C1947 H1939 0.930 . S
C1947 C1948 1.355 . S
C1947 C1949 1.415 . S
C1948 C1947 1.355 . S
C1948 C1950 1.419 . S
C1949 C1944 1.425 . S
C1949 C1946 1.409 . S
C1949 C1947 1.415 . S
C1950 H1940 0.930 . S
C1950 C1948 1.419 . S
C1950 C1951 1.362 . S
C1951 H1941 0.930 . S
C1951 C1944 1.409 . S
C1951 C1950 1.362 . S
H1952 C1958 0.930 . S
H1953 C1961 0.930 . S
H1954 C1962 0.930 . S
H1955 C1963 0.930 . S
H1956 C1966 0.930 . S
H1957 C1967 0.930 . S
C1958 H1952 0.930 . S
C1958 C1959 1.355 . S
C1958 C1960 1.415 . S
C1959 C1958 1.355 . S
C1959 C1961 1.419 . S
C1960 C1958 1.415 . S
C1960 C1965 1.425 . S
C1960 C1967 1.409 . S
C1961 H1953 0.930 . S
C1961 C1959 1.419 . S
C1961 C1962 1.362 . S
C1962 H1954 0.930 . S
C1962 C1961 1.362 . S
C1962 C1965 1.409 . S
C1963 H1955 0.930 . S
C1963 C1964 1.355 . S
C1963 C1965 1.415 . S
C1964 C1963 1.355 . S
C1964 C1966 1.419 . S
C1965 C1960 1.425 . S
C1965 C1962 1.409 . S
C1965 C1963 1.415 . S
C1966 H1956 0.930 . S
C1966 C1964 1.419 . S
C1966 C1967 1.362 . S
C1967 H1957 0.930 . S
C1967 C1960 1.409 . S
C1967 C1966 1.362 . S
H1968 C1974 0.930 1_554 S
H1969 C1977 0.930 . S
H1970 C1978 0.930 . S
H1971 C1979 0.930 1_556 S
H1972 C1982 0.930 . S
H1973 C1983 0.930 . S
C1974 H1968 0.930 1_556 S
C1974 C1975 1.355 . S
C1974 C1976 1.415 1_556 S
C1975 C1974 1.355 . S
C1975 C1977 1.419 . S
C1976 C1974 1.415 1_554 S
C1976 C1981 1.425 1_554 S
C1976 C1983 1.409 . S
C1977 H1969 0.930 . S
C1977 C1975 1.419 . S
C1977 C1978 1.362 . S
C1978 H1970 0.930 . S
C1978 C1977 1.362 . S
C1978 C1981 1.409 . S
C1979 H1971 0.930 1_554 S
C1979 C1980 1.355 . S
C1979 C1981 1.415 1_554 S
C1980 C1979 1.355 . S
C1980 C1982 1.419 . S
C1981 C1976 1.425 1_556 S
C1981 C1978 1.409 . S
C1981 C1979 1.415 1_556 S
C1982 H1972 0.930 . S
C1982 C1980 1.419 . S
C1982 C1983 1.362 . S
C1983 H1973 0.930 . S
C1983 C1976 1.409 . S
C1983 C1982 1.362 . S
H1984 C1990 0.930 . S
H1985 C1993 0.930 . S
H1986 C1994 0.930 . S
H1987 C1995 0.930 . S
H1988 C1998 0.930 . S
H1989 C1999 0.930 . S
C1990 H1984 0.930 . S
C1990 C1991 1.355 . S
C1990 C1992 1.415 . S
C1991 C1990 1.355 . S
C1991 C1993 1.419 . S
C1992 C1990 1.415 . S
C1992 C1997 1.425 . S
C1992 C1999 1.409 . S
C1993 H1985 0.930 . S
C1993 C1991 1.419 . S
C1993 C1994 1.362 . S
C1994 H1986 0.930 . S
C1994 C1993 1.362 . S
C1994 C1997 1.409 . S
C1995 H1987 0.930 . S
C1995 C1996 1.355 . S
C1995 C1997 1.415 . S
C1996 C1995 1.355 . S
C1996 C1998 1.419 . S
C1997 C1992 1.425 . S
C1997 C1994 1.409 . S
C1997 C1995 1.415 . S
C1998 H1988 0.930 . S
C1998 C1996 1.419 . S
C1998 C1999 1.362 . S
C1999 H1989 0.930 . S
C1999 C1992 1.409 . S
C1999 C1998 1.362 . S
H2000 C2006 0.930 . S
H2001 C2009 0.930 . S
H2002 C2010 0.930 . S
H2003 C2011 0.930 . S
H2004 C2014 0.930 . S
H2005 C2015 0.930 . S
C2006 H2000 0.930 . S
C2006 C2007 1.355 . S
C2006 C2008 1.415 . S
C2007 C2006 1.355 . S
C2007 C2009 1.419 . S
C2008 C2006 1.415 . S
C2008 C2013 1.425 . S
C2008 C2015 1.409 . S
C2009 H2001 0.930 . S
C2009 C2007 1.419 . S
C2009 C2010 1.362 . S
C2010 H2002 0.930 . S
C2010 C2009 1.362 . S
C2010 C2013 1.409 . S
C2011 H2003 0.930 . S
C2011 C2012 1.355 . S
C2011 C2013 1.415 . S
C2012 C2011 1.355 . S
C2012 C2014 1.419 . S
C2013 C2008 1.425 . S
C2013 C2010 1.409 . S
C2013 C2011 1.415 . S
C2014 H2004 0.930 . S
C2014 C2012 1.419 . S
C2014 C2015 1.362 . S
C2015 H2005 0.930 . S
C2015 C2008 1.409 . S
C2015 C2014 1.362 . S
H2016 C2022 0.930 . S
H2017 C2025 0.930 . S
H2018 C2026 0.930 . S
H2019 C2027 0.930 . S
H2020 C2030 0.930 . S
H2021 C2031 0.930 . S
C2022 H2016 0.930 . S
C2022 C2023 1.355 . S
C2022 C2024 1.415 . S
C2023 C2022 1.355 . S
C2023 C2025 1.419 . S
C2024 C2022 1.415 . S
C2024 C2029 1.425 . S
C2024 C2031 1.409 . S
C2025 H2017 0.930 . S
C2025 C2023 1.419 . S
C2025 C2026 1.362 . S
C2026 H2018 0.930 . S
C2026 C2025 1.362 . S
C2026 C2029 1.409 . S
C2027 H2019 0.930 . S
C2027 C2028 1.355 . S
C2027 C2029 1.415 . S
C2028 C2027 1.355 . S
C2028 C2030 1.419 . S
C2029 C2024 1.425 . S
C2029 C2026 1.409 . S
C2029 C2027 1.415 . S
C2030 H2020 0.930 . S
C2030 C2028 1.419 . S
C2030 C2031 1.362 . S
C2031 H2021 0.930 . S
C2031 C2024 1.409 . S
C2031 C2030 1.362 . S
H2032 C2038 0.930 . S
H2033 C2041 0.930 . S
H2034 C2042 0.930 . S
H2035 C2043 0.930 . S
H2036 C2046 0.930 . S
H2037 C2047 0.930 . S
C2038 H2032 0.930 . S
C2038 C2039 1.355 1_556 S
C2038 C2040 1.415 . S
C2039 C2038 1.355 1_554 S
C2039 C2041 1.419 . S
C2040 C2038 1.415 . S
C2040 C2045 1.425 1_556 S
C2040 C2047 1.409 . S
C2041 H2033 0.930 . S
C2041 C2039 1.419 . S
C2041 C2042 1.362 . S
C2042 H2034 0.930 . S
C2042 C2041 1.362 . S
C2042 C2045 1.409 . S
C2043 H2035 0.930 . S
C2043 C2044 1.355 1_554 S
C2043 C2045 1.415 . S
C2044 C2043 1.355 1_556 S
C2044 C2046 1.419 . S
C2045 C2040 1.425 1_554 S
C2045 C2042 1.409 . S
C2045 C2043 1.415 . S
C2046 H2036 0.930 . S
C2046 C2044 1.419 . S
C2046 C2047 1.362 . S
C2047 H2037 0.930 . S
C2047 C2040 1.409 . S
C2047 C2046 1.362 . S
H2048 C2054 0.930 . S
H2049 C2057 0.930 . S
H2050 C2058 0.906 1_545 S
H2051 C2059 0.930 . S
H2052 C2062 0.930 . S
H2053 C2063 0.906 1_565 S
C2054 H2048 0.930 . S
C2054 C2055 1.355 . S
C2054 C2056 1.415 . S
C2055 C2054 1.355 . S
C2055 C2057 1.419 . S
C2056 C2054 1.415 . S
C2056 C2061 1.425 1_565 S
C2056 C2063 1.396 1_565 S
C2057 H2049 0.930 . S
C2057 C2055 1.419 . S
C2057 C2058 1.401 . S
C2058 H2050 0.906 1_565 S
C2058 C2057 1.401 . S
C2058 C2061 1.396 1_565 S
C2059 H2051 0.930 . S
C2059 C2060 1.355 . S
C2059 C2061 1.415 . S
C2060 C2059 1.355 . S
C2060 C2062 1.419 . S
C2061 C2056 1.425 1_545 S
C2061 C2058 1.396 1_545 S
C2061 C2059 1.415 . S
C2062 H2052 0.930 . S
C2062 C2060 1.419 . S
C2062 C2063 1.401 . S
C2063 H2053 0.906 1_545 S
C2063 C2056 1.396 1_545 S
C2063 C2062 1.401 . S
H2064 C2070 0.930 . S
H2065 C2073 0.930 . S
H2066 C2074 0.930 . S
H2067 C2075 0.930 . S
H2068 C2078 0.930 . S
H2069 C2079 0.930 . S
C2070 H2064 0.930 . S
C2070 C2071 1.355 . S
C2070 C2072 1.415 . S
C2071 C2070 1.355 . S
C2071 C2073 1.419 1_554 S
C2072 C2070 1.415 . S
C2072 C2077 1.425 1_554 S
C2072 C2079 1.409 . S
C2073 H2065 0.930 . S
C2073 C2071 1.419 1_556 S
C2073 C2074 1.362 . S
C2074 H2066 0.930 . S
C2074 C2073 1.362 . S
C2074 C2077 1.409 . S
C2075 H2067 0.930 . S
C2075 C2076 1.355 . S
C2075 C2077 1.415 . S
C2076 C2075 1.355 . S
C2076 C2078 1.419 1_556 S
C2077 C2072 1.425 1_556 S
C2077 C2074 1.409 . S
C2077 C2075 1.415 . S
C2078 H2068 0.930 . S
C2078 C2076 1.419 1_554 S
C2078 C2079 1.362 . S
C2079 H2069 0.930 . S
C2079 C2072 1.409 . S
C2079 C2078 1.362 . S
H2080 C2086 0.930 . S
H2081 C2089 0.930 . S
H2082 C2090 0.930 . S
H2083 C2091 0.930 . S
H2084 C2094 0.930 . S
H2085 C2095 0.930 . S
C2086 H2080 0.930 . S
C2086 C2087 1.355 . S
C2086 C2088 1.405 1_545 S
C2087 C2086 1.355 . S
C2087 C2089 1.419 . S
C2088 C2086 1.405 1_565 S
C2088 C2093 1.425 1_565 S
C2088 C2095 1.419 . S
C2089 H2081 0.930 . S
C2089 C2087 1.419 . S
C2089 C2090 1.362 . S
C2090 H2082 0.930 . S
C2090 C2089 1.362 . S
C2090 C2093 1.419 . S
C2091 H2083 0.930 . S
C2091 C2092 1.355 . S
C2091 C2093 1.405 1_565 S
C2092 C2091 1.355 . S
C2092 C2094 1.419 . S
C2093 C2088 1.425 1_545 S
C2093 C2090 1.419 . S
C2093 C2091 1.405 1_545 S
C2094 H2084 0.930 . S
C2094 C2092 1.419 . S
C2094 C2095 1.362 . S
C2095 H2085 0.930 . S
C2095 C2088 1.419 . S
C2095 C2094 1.362 . S
H2096 C2102 0.930 . S
H2097 C2105 0.930 . S
H2098 C2106 0.930 . S
H2099 C2107 0.930 . S
H2100 C2110 0.930 . S
H2101 C2111 0.930 . S
C2102 H2096 0.930 . S
C2102 C2103 1.355 . S
C2102 C2104 1.415 . S
C2103 C2102 1.355 . S
C2103 C2105 1.419 . S
C2104 C2102 1.415 . S
C2104 C2109 1.425 . S
C2104 C2111 1.409 . S
C2105 H2097 0.930 . S
C2105 C2103 1.419 . S
C2105 C2106 1.362 . S
C2106 H2098 0.930 . S
C2106 C2105 1.362 . S
C2106 C2109 1.409 . S
C2107 H2099 0.930 . S
C2107 C2108 1.355 . S
C2107 C2109 1.415 . S
C2108 C2107 1.355 . S
C2108 C2110 1.419 . S
C2109 C2104 1.425 . S
C2109 C2106 1.409 . S
C2109 C2107 1.415 . S
C2110 H2100 0.930 . S
C2110 C2108 1.419 . S
C2110 C2111 1.362 . S
C2111 H2101 0.930 . S
C2111 C2104 1.409 . S
C2111 C2110 1.362 . S
H2112 C2118 0.930 . S
H2113 C2121 0.930 . S
H2114 C2122 0.930 . S
H2115 C2123 0.930 . S
H2116 C2126 0.930 . S
H2117 C2127 0.930 . S
C2118 H2112 0.930 . S
C2118 C2119 1.355 . S
C2118 C2120 1.415 . S
C2119 C2118 1.355 . S
C2119 C2121 1.419 . S
C2120 C2118 1.415 . S
C2120 C2125 1.425 1_545 S
C2120 C2127 1.409 1_545 S
C2121 H2113 0.930 . S
C2121 C2119 1.419 . S
C2121 C2122 1.362 . S
C2122 H2114 0.930 . S
C2122 C2121 1.362 . S
C2122 C2125 1.409 1_545 S
C2123 H2115 0.930 . S
C2123 C2124 1.355 . S
C2123 C2125 1.415 . S
C2124 C2123 1.355 . S
C2124 C2126 1.419 . S
C2125 C2120 1.425 1_565 S
C2125 C2122 1.409 1_565 S
C2125 C2123 1.415 . S
C2126 H2116 0.930 . S
C2126 C2124 1.419 . S
C2126 C2127 1.362 . S
C2127 H2117 0.930 . S
C2127 C2120 1.409 1_565 S
C2127 C2126 1.362 . S
H2128 C2134 0.930 . S
H2129 C2137 0.930 . S
H2130 C2138 0.930 . S
H2131 C2139 0.930 . S
H2132 C2142 0.930 . S
H2133 C2143 0.930 . S
C2134 H2128 0.930 . S
C2134 C2135 1.355 . S
C2134 C2136 1.415 . S
C2135 C2134 1.355 . S
C2135 C2137 1.419 1_554 S
C2136 C2134 1.415 . S
C2136 C2141 1.425 1_554 S
C2136 C2143 1.409 . S
C2137 H2129 0.930 . S
C2137 C2135 1.419 1_556 S
C2137 C2138 1.362 . S
C2138 H2130 0.930 . S
C2138 C2137 1.362 . S
C2138 C2141 1.409 . S
C2139 H2131 0.930 . S
C2139 C2140 1.355 . S
C2139 C2141 1.415 . S
C2140 C2139 1.355 . S
C2140 C2142 1.419 1_556 S
C2141 C2136 1.425 1_556 S
C2141 C2138 1.409 . S
C2141 C2139 1.415 . S
C2142 H2132 0.930 . S
C2142 C2140 1.419 1_554 S
C2142 C2143 1.362 . S
C2143 H2133 0.930 . S
C2143 C2136 1.409 . S
C2143 C2142 1.362 . S
H2144 C2150 0.930 . S
H2145 C2153 0.930 . S
H2146 C2154 0.930 . S
H2147 C2155 0.930 . S
H2148 C2158 0.930 . S
H2149 C2159 0.930 . S
C2150 H2144 0.930 . S
C2150 C2151 1.355 . S
C2150 C2152 1.415 1_545 S
C2151 C2150 1.355 . S
C2151 C2153 1.419 . S
C2152 C2150 1.415 1_565 S
C2152 C2157 1.425 1_565 S
C2152 C2159 1.409 . S
C2153 H2145 0.930 . S
C2153 C2151 1.419 . S
C2153 C2154 1.362 . S
C2154 H2146 0.930 . S
C2154 C2153 1.362 . S
C2154 C2157 1.409 . S
C2155 H2147 0.930 . S
C2155 C2156 1.355 . S
C2155 C2157 1.415 1_565 S
C2156 C2155 1.355 . S
C2156 C2158 1.419 . S
C2157 C2152 1.425 1_545 S
C2157 C2154 1.409 . S
C2157 C2155 1.415 1_545 S
C2158 H2148 0.930 . S
C2158 C2156 1.419 . S
C2158 C2159 1.362 . S
C2159 H2149 0.930 . S
C2159 C2152 1.409 . S
C2159 C2158 1.362 . S
H2160 C2166 0.930 . S
H2161 C2169 0.930 . S
H2162 C2170 0.930 . S
H2163 C2171 0.930 . S
H2164 C2174 0.930 . S
H2165 C2175 0.930 . S
C2166 H2160 0.930 . S
C2166 C2167 1.355 . S
C2166 C2168 1.415 . S
C2167 C2166 1.355 . S
C2167 C2169 1.419 . S
C2168 C2166 1.415 . S
C2168 C2173 1.425 . S
C2168 C2175 1.409 . S
C2169 H2161 0.930 . S
C2169 C2167 1.419 . S
C2169 C2170 1.362 . S
C2170 H2162 0.930 . S
C2170 C2169 1.362 . S
C2170 C2173 1.409 . S
C2171 H2163 0.930 . S
C2171 C2172 1.355 . S
C2171 C2173 1.415 . S
C2172 C2171 1.355 . S
C2172 C2174 1.419 . S
C2173 C2168 1.425 . S
C2173 C2170 1.409 . S
C2173 C2171 1.415 . S
C2174 H2164 0.930 . S
C2174 C2172 1.419 . S
C2174 C2175 1.362 . S
C2175 H2165 0.930 . S
C2175 C2168 1.409 . S
C2175 C2174 1.362 . S
C1159 C14 1.269 . S
C1164 C760 1.264 . S
C1175 C806 1.273 . S
C1180 C40 1.262 . S
C1191 C86 1.210 . S
C1196 C832 1.284 . S
C1207 C734 1.246 . S
C1212 C112 1.274 . S
C1223 C158 1.278 . S
C1228 C688 1.256 . S
C1239 C184 1.280 . S
C1244 C590 1.229 . S
C1255 C616 1.273 . S
C1260 C230 1.249 . S
C1271 C256 1.274 . S
C1276 C662 1.246 . S
C1287 C302 1.347 . S
C1292 C1058 1.339 . S
C1303 C338 1.327 . S
C1308 C1094 1.329 . S
C1319 C1130 1.376 . S
C1324 C374 1.380 . S
C1335 C1022 1.377 . S
C1340 C410 1.379 . S
C1351 C446 1.348 . S
C1356 C986 1.340 . S
C1367 C878 1.329 . S
C1372 C482 1.326 . S
C1383 C518 1.383 . S
C1388 C914 1.383 . S
C1399 C950 1.382 . S
C1404 C554 1.383 . S
C1415 C3 1.396 . S
C1420 C326 1.450 . S
C1431 C38 1.347 . S
C1436 C938 1.430 1_655 S
C1447 C398 1.423 . S
C1452 C75 1.415 . S
C1463 C110 1.381 . S
C1468 C866 1.391 . S
C1479 C147 1.396 . S
C1484 C542 1.435 . S
C1495 C1010 1.427 . S
C1500 C182 1.311 . S
C1511 C470 1.433 . S
C1516 C219 1.446 . S
C1527 C1082 1.425 1_655 S
C1532 C254 1.311 . S
C1543 C291 1.309 . S
C1548 C39 1.302 . S
C1559 C650 1.241 . S
C1564 C327 1.269 . S
C1575 C111 1.310 . S
C1580 C363 1.288 . S
C1591 C399 1.264 . S
C1596 C578 1.264 . S
C1607 C255 1.309 . S
C1612 C435 1.294 . S
C1623 C722 1.274 . S
C1628 C471 1.248 . S
C1639 C183 1.289 . S
C1644 C507 1.303 . S
C1655 C543 1.256 . S
C1660 C794 1.269 . S
C1671 C902 1.450 . S
C1676 C579 1.396 . S
C1687 C362 1.391 . S
C1692 C614 1.383 . S
C1703 C974 1.447 . S
C1708 C651 1.431 . S
C1719 C686 1.325 . S
C1724 C290 1.432 1_455 S
C1735 C1118 1.451 . S
C1740 C723 1.422 . S
C1751 C434 1.412 1_455 S
C1756 C758 1.320 . S
C1767 C1046 1.446 . S
C1772 C795 1.433 . S
C1783 C830 1.373 . S
C1788 C506 1.421 . S
C1799 C867 1.289 . S
C1804 C615 1.286 . S
C1815 C74 1.268 . S
C1820 C903 1.258 . S
C1831 C939 1.264 . S
C1836 C687 1.300 . S
C1847 C975 1.227 . S
C1852 C2 1.274 . S
C1863 C1011 1.289 . S
C1868 C831 1.309 . S
C1879 C146 1.279 . S
C1884 C1047 1.234 . S
C1895 C759 1.298 . S
C1900 C1083 1.264 . S
C1911 C1119 1.276 . S
C1916 C218 1.250 . S
C1927 C4 1.382 . S
C1932 C148 1.349 . S
C1943 C50 1.223 . S
C1948 C194 1.258 . S
C1959 C220 1.343 . S
C1964 C76 1.304 . S
C1975 C266 1.275 . S
C1980 C122 1.324 . S
C1991 C436 1.265 . S
C1996 C292 1.293 . S
C2007 C472 1.291 . S
C2012 C328 1.323 . S
C2023 C508 1.233 . S
C2028 C364 1.273 . S
C2039 C544 1.310 . S
C2044 C400 1.323 . S
C2055 C580 1.365 . S
C2060 C724 1.384 . S
C2071 C626 1.239 . S
C2076 C770 1.226 . S
C2087 C652 1.305 . S
C2092 C796 1.344 . S
C2103 C842 1.330 . S
C2108 C698 1.288 . S
C2119 C868 1.210 . S
C2124 C1012 1.239 . S
C2135 C1048 1.268 . S
C2140 C904 1.239 . S
C2151 C1084 1.218 . S
C2156 C940 1.211 . S
C2167 C1120 1.315 . S
C2172 C976 1.321 . S
