# Generated by pormake.
# Topology mdf, (4)-cn, num edge types: 1
# Building blocks:
#     Node 0, Type 0, BuildingBlock: QUQFOY_clean_sbu_3, # of connection points: 4
#     Node 1, Type 0, BuildingBlock: QUQFOY_clean_sbu_3, # of connection points: 4
#     Node 2, Type 0, BuildingBlock: QUQFOY_clean_sbu_3, # of connection points: 4
#     Node 3, Type 0, BuildingBlock: QUQFOY_clean_sbu_3, # of connection points: 4
#     Node 4, Type 0, BuildingBlock: QUQFOY_clean_sbu_3, # of connection points: 4
#     Node 5, Type 0, BuildingBlock: QUQFOY_clean_sbu_3, # of connection points: 4
#     Node 6, Type 0, BuildingBlock: QUQFOY_clean_sbu_3, # of connection points: 4
#     Node 7, Type 0, BuildingBlock: QUQFOY_clean_sbu_3, # of connection points: 4
#     Edge 8, Type (0, 0), BuildingBlock: EZIPEK_clean_linker_0, # of connection points: 2
#     Edge 9, Type (0, 0), BuildingBlock: EZIPEK_clean_linker_0, # of connection points: 2
#     Edge 10, Type (0, 0), BuildingBlock: EZIPEK_clean_linker_0, # of connection points: 2
#     Edge 11, Type (0, 0), BuildingBlock: EZIPEK_clean_linker_0, # of connection points: 2
#     Edge 12, Type (0, 0), BuildingBlock: EZIPEK_clean_linker_0, # of connection points: 2
#     Edge 13, Type (0, 0), BuildingBlock: EZIPEK_clean_linker_0, # of connection points: 2
#     Edge 14, Type (0, 0), BuildingBlock: EZIPEK_clean_linker_0, # of connection points: 2
#     Edge 15, Type (0, 0), BuildingBlock: EZIPEK_clean_linker_0, # of connection points: 2
#     Edge 16, Type (0, 0), BuildingBlock: EZIPEK_clean_linker_0, # of connection points: 2
#     Edge 17, Type (0, 0), BuildingBlock: EZIPEK_clean_linker_0, # of connection points: 2
#     Edge 18, Type (0, 0), BuildingBlock: EZIPEK_clean_linker_0, # of connection points: 2
#     Edge 19, Type (0, 0), BuildingBlock: EZIPEK_clean_linker_0, # of connection points: 2
#     Edge 20, Type (0, 0), BuildingBlock: EZIPEK_clean_linker_0, # of connection points: 2
#     Edge 21, Type (0, 0), BuildingBlock: EZIPEK_clean_linker_0, # of connection points: 2
#     Edge 22, Type (0, 0), BuildingBlock: EZIPEK_clean_linker_0, # of connection points: 2
#     Edge 23, Type (0, 0), BuildingBlock: EZIPEK_clean_linker_0, # of connection points: 2
# Relax obj value: 0.015
# Max RMSD: 0.038
# Mean RMSD: 0.038
data_MOF--net-mdf--node1-QUQFOY_clean_sbu_3--edge1-EZIPEK_clean_linker_0
_symmetry_space_group_name_H-M    P1
_symmetry_Int_Tables_number       1
_symmetry_cell_setting            triclinic
loop_
_symmetry_equiv_pos_as_xyz
'x, y, z'
_cell_length_a     29.528256
_cell_length_b     29.421085
_cell_length_c     8.839578
_cell_angle_alpha  90.143622
_cell_angle_beta   90.022874
_cell_angle_gamma 92.359708
loop_
_atom_site_label
_atom_site_type_symbol
_atom_site_fract_x
_atom_site_fract_y
_atom_site_fract_z
_atom_type_partial_charge
C0 C 0.25425 0.53753 0.1198 0.0
O1 O 0.23403 0.50533 0.04776 0.0
Cd2 Cd 0.19957 0.44151 0.17604 0.0
O3 O 0.25273 0.53982 0.26324 0.0
Cd4 Cd 0.21741 0.50177 0.48063 0.0
C5 C 0.29032 0.41866 0.41058 0.0
O6 O 0.14963 0.47113 0.35949 0.0
O7 O 0.1642 0.44333 0.57945 0.0
O8 O 0.1862 0.57315 0.54559 0.0
C9 C 0.13767 0.44488 0.46684 0.0
O10 O 0.26486 0.40833 0.29812 0.0
C11 C 0.19982 0.57363 0.68155 0.0
O12 O 0.28226 0.45224 0.49675 0.0
O13 O 0.22511 0.54197 0.72328 0.0
C14 C 0.38876 0.66412 0.89119 0.0
O15 O 0.41908 0.6729 0.98981 0.0
Cd16 Cd 0.48953 0.71235 0.935 0.0
O17 O 0.39306 0.67786 0.75584 0.0
Cd18 Cd 0.44651 0.72451 0.6074 0.0
C19 C 0.52635 0.64669 0.63865 0.0
O20 O 0.475 0.77959 0.79606 0.0
O21 O 0.51328 0.77399 0.58793 0.0
O22 O 0.38562 0.77042 0.52611 0.0
C23 C 0.50729 0.7943 0.71244 0.0
O24 O 0.53152 0.66144 0.77339 0.0
C25 C 0.39018 0.76279 0.38589 0.0
O26 O 0.49555 0.66123 0.55231 0.0
O27 O 0.42022 0.73534 0.34645 0.0
C28 C 0.17249 0.94503 0.63292 0.0
O29 O 0.17933 0.9834 0.56977 0.0
Cd30 Cd 0.23255 0.0403 0.66111 0.0
O31 O 0.19437 0.93463 0.75067 0.0
Cd32 Cd 0.24897 0.9673 0.92972 0.0
C33 C 0.17411 0.04957 0.99426 0.0
O34 O 0.29885 0.00438 0.74812 0.0
O35 O 0.30931 0.02341 0.98316 0.0
O36 O 0.27816 0.89169 0.91717 0.0
C37 C 0.32242 0.02589 0.84686 0.0
O38 O 0.18807 0.06697 0.87035 0.0
C39 C 0.28533 0.88853 0.05808 0.0
O40 O 0.18805 0.01168 0.0421 0.0
O41 O 0.27277 0.92087 0.14207 0.0
C42 C 0.03449 0.81877 0.40342 0.0
O43 O -0.00417 0.81352 0.46519 0.0
Cd44 Cd 0.93748 0.76392 0.36301 0.0
O45 O 0.04456 0.79679 0.28511 0.0
Cd46 Cd 0.01292 0.74118 0.1079 0.0
C47 C 0.93543 0.81758 0.01702 0.0
O48 O 0.9717 0.69503 0.29134 0.0
O49 O 0.95404 0.68346 0.05581 0.0
O50 O 0.08416 0.70364 0.12748 0.0
C51 C 0.94999 0.67155 0.193 0.0
O52 O 0.91627 0.80683 0.14164 0.0
C53 C 0.08987 0.6995 0.98605 0.0
O54 O 0.97301 0.80117 0.97796 0.0
O55 O 0.0608 0.71669 0.89938 0.0
C56 C 0.75257 0.03061 0.45552 0.0
O57 O 0.73465 -0.00248 0.38162 0.0
Cd58 Cd 0.71251 0.93186 0.52753 0.0
O59 O 0.75082 0.03195 0.59887 0.0
Cd60 Cd 0.71994 -0.00466 0.82321 0.0
C61 C 0.80937 0.93114 0.75446 0.0
O62 O 0.65702 0.95442 0.70678 0.0
O63 O 0.67703 0.93072 0.92844 0.0
O64 O 0.68285 0.06561 0.86506 0.0
C65 C 0.64943 0.92826 0.81845 0.0
O66 O 0.78521 0.91456 0.64653 0.0
C67 C 0.69268 0.06854 0.00443 0.0
O68 O 0.79322 0.96095 0.84188 0.0
O69 O 0.71738 0.0383 0.05991 0.0
C70 C 0.88623 0.16951 0.35704 0.0
O71 O 0.90759 0.17853 0.47871 0.0
Cd72 Cd 0.97808 0.22235 0.47998 0.0
O73 O 0.8991 0.18631 0.23169 0.0
Cd74 Cd 0.95442 0.24146 0.13276 0.0
C75 C 0.03406 0.16434 0.20057 0.0
O76 O 0.96831 0.29237 0.34887 0.0
O77 O 0.0155 0.29674 0.16075 0.0
O78 O 0.88871 0.27795 0.04113 0.0
C79 C 0.0027 0.31198 0.28723 0.0
O80 O 0.02988 0.17496 0.33956 0.0
C81 C 0.90121 0.27992 0.90416 0.0
O82 O 0.00934 0.18153 0.09868 0.0
O83 O 0.939 0.26325 0.86996 0.0
C84 C 0.69339 0.43004 0.03976 0.0
O85 O 0.70412 0.46626 0.96854 0.0
Cd86 Cd 0.73999 0.53 0.09155 0.0
O87 O 0.70472 0.42447 0.17695 0.0
Cd88 Cd 0.74883 0.46214 0.37823 0.0
C89 C 0.66585 0.5362 0.39602 0.0
O90 O 0.80379 0.50435 0.22558 0.0
O91 O 0.79625 0.52712 0.45746 0.0
O92 O 0.7913 0.39375 0.40255 0.0
C93 C 0.81723 0.53024 0.33273 0.0
O94 O 0.68281 0.55223 0.27384 0.0
C95 C 0.78773 0.39138 0.54524 0.0
O96 O 0.68138 0.50124 0.45964 0.0
O97 O 0.76405 0.42068 0.61102 0.0
C98 C 0.5641 0.2938 0.83348 0.0
O99 O 0.53402 0.28171 0.92927 0.0
Cd100 Cd 0.46771 0.23763 0.86273 0.0
O101 O 0.56255 0.27981 0.69752 0.0
Cd102 Cd 0.51815 0.22699 0.53803 0.0
C103 C 0.43642 0.30271 0.55428 0.0
O104 O 0.49032 0.17278 0.72628 0.0
O105 O 0.45562 0.17158 0.51032 0.0
O106 O 0.58853 0.19087 0.49221 0.0
C107 C 0.46046 0.15433 0.64027 0.0
O108 O 0.43035 0.28795 0.68831 0.0
C109 C 0.58449 0.18959 0.34951 0.0
O110 O 0.46784 0.28834 0.46977 0.0
O111 O 0.55022 0.2078 0.29154 0.0
C112 C 0.35515 0.58573 0.9012 0.0
C113 C 0.35067 0.63269 0.92943 0.0
C114 C 0.27709 0.61741 0.05009 0.0
C115 C 0.28461 0.57012 0.03935 0.0
N116 N 0.33345 0.50892 0.97418 0.0
N117 N 0.3079 0.69498 0.02068 0.0
C118 C 0.32394 0.55404 0.96785 0.0
C119 C 0.31155 0.64916 0.0003 0.0
N120 N 0.38941 0.5714 0.81083 0.0
N121 N 0.23701 0.63149 0.10783 0.0
H122 H 0.33217 0.71887 0.98112 0.0
H123 H 0.28169 0.70973 0.07886 0.0
H124 H 0.21103 0.60881 0.14269 0.0
H125 H 0.22785 0.6652 0.11305 0.0
H126 H 0.39124 0.53812 0.77163 0.0
H127 H 0.414 0.59355 0.76369 0.0
H128 H 0.36436 0.49631 0.94097 0.0
H129 H 0.31229 0.48417 0.0248 0.0
C130 C 0.3842 0.81791 0.17118 0.0
C131 C 0.3627 0.78738 0.27543 0.0
C132 C 0.28903 0.81953 0.22276 0.0
C133 C 0.31061 0.85051 0.12058 0.0
N134 N 0.3763 0.87266 0.97011 0.0
N135 N 0.29432 0.75063 0.37144 0.0
C136 C 0.35729 0.84715 0.08456 0.0
C137 C 0.31488 0.78558 0.29205 0.0
N138 N 0.43051 0.82177 0.16355 0.0
N139 N 0.24402 0.82306 0.25507 0.0
H140 H 0.3125 0.72463 0.41962 0.0
H141 H 0.25937 0.74478 0.37713 0.0
H142 H 0.22344 0.8456 0.19904 0.0
H143 H 0.22745 0.80524 0.34181 0.0
H144 H 0.44818 0.84752 0.10491 0.0
H145 H 0.45192 0.8014 0.22461 0.0
H146 H 0.40835 0.86729 0.92616 0.0
H147 H 0.35914 0.89713 0.91063 0.0
C148 C 0.09123 0.88282 0.36492 0.0
C149 C 0.06821 0.85211 0.46474 0.0
C150 C 0.10803 0.88799 0.67746 0.0
C151 C 0.13677 0.91287 0.5749 0.0
N152 N 0.16188 0.92382 0.31588 0.0
N153 N 0.06256 0.81892 0.71458 0.0
C154 C 0.13022 0.90748 0.41686 0.0
C155 C 0.07883 0.85266 0.62082 0.0
N156 N 0.07503 0.89004 0.22267 0.0
N157 N 0.1064 0.8993 0.82724 0.0
H158 H 0.0424 0.79124 0.677 0.0
H159 H 0.07321 0.816 0.82654 0.0
H160 H 0.12439 0.92705 0.87417 0.0
H161 H 0.08259 0.88439 0.90076 0.0
H162 H 0.08842 0.9159 0.1535 0.0
H163 H 0.0451 0.8744 0.18182 0.0
H164 H 0.15957 0.91717 0.20007 0.0
H165 H 0.19288 0.93897 0.3486 0.0
C166 C 0.16237 0.6845 0.84963 0.0
C167 C 0.12307 0.66785 0.92681 0.0
C168 C 0.14491 0.58938 0.88565 0.0
C169 C 0.18029 0.60577 0.78931 0.0
N170 N 0.22477 0.66787 0.68133 0.0
N171 N 0.07395 0.60488 0.00792 0.0
C172 C 0.18988 0.65316 0.77284 0.0
C173 C 0.11395 0.62041 0.94453 0.0
N174 N 0.17347 0.73007 0.85195 0.0
N175 N 0.14016 0.54401 0.91825 0.0
H176 H 0.04974 0.62633 0.05023 0.0
H177 H 0.06272 0.57087 0.00733 0.0
H178 H 0.16024 0.51949 0.87064 0.0
H179 H 0.11875 0.53092 0.00248 0.0
H180 H 0.20372 0.74428 0.80971 0.0
H181 H 0.15355 0.7536 0.90648 0.0
H182 H 0.23088 0.70167 0.65044 0.0
H183 H 0.24713 0.64556 0.63224 0.0
C184 C 0.82681 0.05332 0.34407 0.0
C185 C 0.78201 0.06519 0.38116 0.0
C186 C 0.80416 0.14623 0.37274 0.0
C187 C 0.84979 0.1341 0.35616 0.0
N188 N 0.90481 0.07858 0.29564 0.0
N189 N 0.72667 0.1212 0.42919 0.0
C190 C 0.86113 0.0883 0.33144 0.0
C191 C 0.7701 0.11128 0.39167 0.0
N192 N 0.83704 0.00843 0.33366 0.0
N193 N 0.79358 0.19103 0.36824 0.0
H194 H 0.7006 0.09621 0.43558 0.0
H195 H 0.7166 0.15357 0.45814 0.0
H196 H 0.8181 0.21742 0.35767 0.0
H197 H 0.76059 0.20211 0.36476 0.0
H198 H 0.8697 -0.00328 0.32642 0.0
H199 H 0.81258 0.98193 0.33563 0.0
H200 H 0.9151 0.04683 0.26117 0.0
H201 H 0.93124 0.10319 0.29366 0.0
C202 C 0.88609 0.35377 0.78277 0.0
C203 C 0.87534 0.30655 0.79573 0.0
C204 C 0.80603 0.31461 0.64662 0.0
C205 C 0.81726 0.36174 0.63204 0.0
N206 N 0.87105 0.42522 0.66129 0.0
N207 N 0.82943 0.24012 0.72862 0.0
C208 C 0.85822 0.38103 0.6929 0.0
C209 C 0.83657 0.28633 0.7236 0.0
N210 N 0.92195 0.37289 0.86191 0.0
N211 N 0.76564 0.29746 0.59054 0.0
H212 H 0.85156 0.21886 0.78361 0.0
H213 H 0.80348 0.22233 0.67161 0.0
H214 H 0.74293 0.31745 0.53299 0.0
H215 H 0.75314 0.26431 0.60782 0.0
H216 H 0.92801 0.40781 0.87397 0.0
H217 H 0.94451 0.35387 0.92384 0.0
H218 H 0.90309 0.43954 0.68494 0.0
H219 H 0.85072 0.44707 0.60147 0.0
C220 C 0.6769 0.35287 0.93153 0.0
C221 C 0.66173 0.39644 0.97078 0.0
C222 C 0.58436 0.37404 0.89726 0.0
C223 C 0.59834 0.32903 0.87532 0.0
N224 N 0.65647 0.27385 0.87333 0.0
N225 N 0.60078 0.44752 0.01162 0.0
C226 C 0.64436 0.31791 0.89185 0.0
C227 C 0.61546 0.40696 0.95816 0.0
N228 N 0.72232 0.34541 0.93114 0.0
N229 N 0.54171 0.38563 0.85551 0.0
H230 H 0.6224 0.47302 0.05657 0.0
H231 H 0.56665 0.45457 0.02271 0.0
H232 H 0.51772 0.36237 0.81021 0.0
H233 H 0.53142 0.41906 0.85257 0.0
H234 H 0.73624 0.31537 0.89494 0.0
H235 H 0.74679 0.37073 0.95823 0.0
H236 H 0.6887 0.26249 0.89508 0.0
H237 H 0.63332 0.24757 0.84368 0.0
C238 C 0.62769 0.08202 0.17482 0.0
C239 C 0.66765 0.09932 0.10214 0.0
C240 C 0.65227 0.17645 0.18574 0.0
C241 C 0.61272 0.1593 0.26052 0.0
N242 N 0.56545 0.09545 0.34569 0.0
N243 N 0.71909 0.16237 0.03987 0.0
C244 C 0.60122 0.11194 0.26065 0.0
C245 C 0.68021 0.14625 0.10821 0.0
N246 N 0.61381 0.0374 0.15517 0.0
N247 N 0.66466 0.22154 0.18814 0.0
H248 H 0.74119 0.14123 0.98395 0.0
H249 H 0.72941 0.19674 0.04219 0.0
H250 H 0.64616 0.24633 0.24214 0.0
H251 H 0.64616 0.24633 0.24214 0.0
H252 H 0.58215 0.024 0.18777 0.0
H253 H 0.63272 0.01386 0.0968 0.0
H254 H 0.55897 0.06106 0.36757 0.0
H255 H 0.54339 0.11628 0.40295 0.0
C256 C 0.32079 0.34224 0.46323 0.0
C257 C 0.3291 0.38968 0.44265 0.0
C258 C 0.41051 0.38015 0.48229 0.0
C259 C 0.40195 0.33251 0.49286 0.0
N260 N 0.35134 0.26727 0.45385 0.0
N261 N 0.38266 0.4528 0.40262 0.0
C262 C 0.3578 0.31331 0.47 0.0
C263 C 0.37426 0.40849 0.44359 0.0
N264 N 0.27765 0.32505 0.48583 0.0
N265 N 0.45281 0.39833 0.51356 0.0
H266 H 0.35708 0.47436 0.37164 0.0
H267 H 0.41516 0.46712 0.38702 0.0
H268 H 0.4803 0.37827 0.53665 0.0
H269 H 0.46001 0.43312 0.5251 0.0
H270 H 0.27008 0.2914 0.51596 0.0
H271 H 0.24989 0.34561 0.49197 0.0
H272 H 0.32037 0.25165 0.42302 0.0
H273 H 0.37808 0.24516 0.45533 0.0
C274 C 0.62165 0.84689 0.81123 0.0
C275 C 0.61202 0.89369 0.81334 0.0
C276 C 0.53169 0.87516 0.7657 0.0
C277 C 0.54133 0.82842 0.76691 0.0
N278 N 0.59186 0.76932 0.83195 0.0
N279 N 0.55743 0.95227 0.82837 0.0
C280 C 0.58523 0.81415 0.80312 0.0
C281 C 0.5668 0.90783 0.80178 0.0
N282 N 0.66552 0.8337 0.8077 0.0
N283 N 0.48967 0.88836 0.72361 0.0
H284 H 0.58241 0.97702 0.85608 0.0
H285 H 0.52465 0.96373 0.83676 0.0
H286 H 0.46289 0.86521 0.6999 0.0
H287 H 0.48215 0.92205 0.70285 0.0
H288 H 0.67432 0.80026 0.78844 0.0
H289 H 0.69344 0.85657 0.8108 0.0
H290 H 0.62223 0.75738 0.87288 0.0
H291 H 0.56548 0.7447 0.82945 0.0
C292 C 0.05717 0.09081 0.08311 0.0
C293 C 0.06945 0.13233 0.15764 0.0
C294 C 0.14883 0.11065 0.16529 0.0
C295 C 0.13745 0.07264 0.07294 0.0
N296 N 0.08185 0.02729 0.93329 0.0
N297 N 0.12798 0.18513 0.25024 0.0
C298 C 0.0918 0.06263 0.03006 0.0
C299 C 0.11553 0.14296 0.19534 0.0
N300 N 0.01248 0.07779 0.06608 0.0
N301 N 0.19165 0.11586 0.22326 0.0
H302 H 0.10505 0.21066 0.26597 0.0
H303 H 0.16156 0.19643 0.26572 0.0
H304 H 0.21665 0.09259 0.20191 0.0
H305 H 0.20104 0.14051 0.30333 0.0
H306 H 0.00144 0.04564 0.0285 0.0
H307 H -0.01384 0.09787 0.10074 0.0
H308 H 0.05028 0.02157 0.88265 0.0
H309 H 0.10613 0.00505 0.89629 0.0
C310 C 0.86952 0.64604 0.23339 0.0
C311 C 0.91612 0.63631 0.23844 0.0
C312 C 0.8976 0.55881 0.32438 0.0
C313 C 0.85108 0.56725 0.30588 0.0
N314 N 0.79144 0.61715 0.23996 0.0
N315 N 0.97572 0.58431 0.28235 0.0
C316 C 0.83661 0.61049 0.26027 0.0
C317 C 0.93057 0.59304 0.28365 0.0
N318 N 0.85698 0.68962 0.20781 0.0
N319 N 0.91008 0.51836 0.38401 0.0
H320 H 0.00093 0.60923 0.26027 0.0
H321 H -0.01169 0.55202 0.29553 0.0
H322 H 0.88694 0.49163 0.40787 0.0
H323 H 0.94279 0.51231 0.41974 0.0
H324 H 0.82395 0.70022 0.2183 0.0
H325 H 0.88025 0.71644 0.18632 0.0
H326 H 0.77873 0.64583 0.18927 0.0
H327 H 0.76626 0.59274 0.26766 0.0
C328 C 0.34723 0.10473 0.77497 0.0
C329 C 0.35836 0.05907 0.80158 0.0
C330 C 0.43676 0.07568 0.72279 0.0
C331 C 0.42595 0.12169 0.70051 0.0
N332 N 0.37405 0.18231 0.72966 0.0
N333 N 0.41386 0.00181 0.82561 0.0
C334 C 0.382 0.13687 0.73316 0.0
C335 C 0.40324 0.04471 0.78279 0.0
N336 N 0.30323 0.11711 0.78706 0.0
N337 N 0.47851 0.06141 0.68171 0.0
H338 H 0.38985 0.97807 0.8675 0.0
H339 H 0.44682 -0.00927 0.8306 0.0
H340 H 0.50423 0.0835 0.64123 0.0
H341 H 0.48691 0.02741 0.67842 0.0
H342 H 0.29176 0.14816 0.74991 0.0
H343 H 0.27727 0.09527 0.82698 0.0
H344 H 0.34433 0.19628 0.76805 0.0
H345 H 0.39873 0.2068 0.69922 0.0
C346 C 0.88027 0.92727 0.91532 0.0
C347 C 0.85459 0.91184 0.78837 0.0
C348 C 0.89702 0.84221 0.77877 0.0
C349 C 0.91474 0.85292 0.92429 0.0
N350 N 0.92943 0.90791 0.12336 0.0
N351 N 0.86158 0.87101 0.55329 0.0
C352 C 0.90878 0.89653 0.98922 0.0
C353 C 0.86996 0.87421 0.70493 0.0
N354 N 0.88018 0.97205 0.95651 0.0
N355 N 0.90349 0.8006 0.7152 0.0
H356 H 0.84717 0.89725 0.49318 0.0
H357 H 0.87491 0.84613 0.48421 0.0
H358 H 0.92357 0.77636 0.76458 0.0
H359 H 0.88662 0.78907 0.61805 0.0
H360 H 0.90048 -0.01363 0.04186 0.0
H361 H 0.86452 -0.00375 0.89079 0.0
H362 H 0.92173 0.93638 0.18704 0.0
H363 H 0.95348 0.8878 0.17389 0.0
C364 C 0.07564 0.33076 0.41351 0.0
C365 C 0.03246 0.34487 0.36948 0.0
C366 C 0.0555 0.42381 0.42753 0.0
C367 C 0.10075 0.41024 0.44492 0.0
N368 N 0.15527 0.35136 0.43026 0.0
N369 N 0.97999 0.40431 0.33201 0.0
C370 C 0.11121 0.36377 0.43365 0.0
C371 C 0.02169 0.39126 0.37784 0.0
N372 N 0.08252 0.28566 0.4358 0.0
N373 N 0.04494 0.46751 0.46032 0.0
H374 H 0.9541 0.38095 0.30067 0.0
H375 H 0.97185 0.43812 0.31784 0.0
H376 H 0.06909 0.49212 0.49619 0.0
H377 H 0.01187 0.47827 0.46476 0.0
H378 H 0.1123 0.27368 0.48149 0.0
H379 H 0.05656 0.26082 0.4237 0.0
H380 H 0.16475 0.31841 0.40606 0.0
H381 H 0.18251 0.3749 0.43568 0.0
C382 C 0.60593 0.63587 0.55824 0.0
C383 C 0.56118 0.61728 0.57607 0.0
C384 C 0.58478 0.54396 0.47707 0.0
C385 C 0.63012 0.56188 0.47045 0.0
N386 N 0.68564 0.62109 0.53595 0.0
N387 N 0.50848 0.55252 0.57299 0.0
C388 C 0.64121 0.60672 0.52065 0.0
C389 C 0.55065 0.57092 0.54133 0.0
N390 N 0.61439 0.6818 0.57039 0.0
N391 N 0.57412 0.50202 0.4169 0.0
H392 H 0.48261 0.57165 0.61727 0.0
H393 H 0.50003 0.51789 0.56545 0.0
H394 H 0.59839 0.48118 0.37115 0.0
H395 H 0.54102 0.48907 0.40317 0.0
H396 H 0.64546 0.69778 0.54339 0.0
H397 H 0.5891 0.70462 0.59233 0.0
H398 H 0.6958 0.65181 0.58683 0.0
H399 H 0.71255 0.60035 0.51174 0.0
loop_
_geom_bond_atom_site_label_1
_geom_bond_atom_site_label_2
_geom_bond_distance
_geom_bond_site_symmetry_2
_ccdc_geom_bond_type
C0 O1 1.306 . S
C0 O3 1.160 . S
O1 C0 1.306 . S
O1 Cd2 2.228 . S
Cd2 O1 2.228 . S
Cd2 O6 2.273 . S
Cd2 O10 2.277 . S
O3 C0 1.160 . S
O3 Cd4 2.203 . S
Cd4 O3 2.203 . S
Cd4 O6 2.411 . S
Cd4 O7 2.333 . S
Cd4 O8 2.352 . S
Cd4 O12 2.277 . S
Cd4 O13 2.356 . S
C5 O10 1.209 . S
C5 O12 1.226 . S
O6 Cd2 2.273 . S
O6 Cd4 2.411 . S
O6 C9 1.320 . S
O7 Cd4 2.333 . S
O7 C9 1.214 . S
O8 Cd4 2.352 . S
O8 C11 1.258 . S
C9 O6 1.320 . S
C9 O7 1.214 . S
O10 Cd2 2.277 . S
O10 C5 1.209 . S
C11 O8 1.258 . S
C11 O13 1.282 . S
O12 Cd4 2.277 . S
O12 C5 1.226 . S
O13 Cd4 2.356 . S
O13 C11 1.282 . S
C14 O15 1.306 . S
C14 O17 1.160 . S
O15 C14 1.306 . S
O15 Cd16 2.228 . S
Cd16 O15 2.228 . S
Cd16 O20 2.273 . S
Cd16 O24 2.277 . S
O17 C14 1.160 . S
O17 Cd18 2.203 . S
Cd18 O17 2.203 . S
Cd18 O20 2.411 . S
Cd18 O21 2.333 . S
Cd18 O22 2.352 . S
Cd18 O26 2.277 . S
Cd18 O27 2.356 . S
C19 O24 1.209 . S
C19 O26 1.226 . S
O20 Cd16 2.273 . S
O20 Cd18 2.411 . S
O20 C23 1.320 . S
O21 Cd18 2.333 . S
O21 C23 1.214 . S
O22 Cd18 2.352 . S
O22 C25 1.258 . S
C23 O20 1.320 . S
C23 O21 1.214 . S
O24 Cd16 2.277 . S
O24 C19 1.209 . S
C25 O22 1.258 . S
C25 O27 1.282 . S
O26 Cd18 2.277 . S
O26 C19 1.226 . S
O27 Cd18 2.356 . S
O27 C25 1.282 . S
C28 O29 1.306 . S
C28 O31 1.160 . S
O29 C28 1.306 . S
O29 Cd30 2.228 1_565 S
Cd30 O29 2.228 1_545 S
Cd30 O34 2.273 . S
Cd30 O38 2.277 . S
O31 C28 1.160 . S
O31 Cd32 2.203 . S
Cd32 O31 2.203 . S
Cd32 O34 2.411 1_565 S
Cd32 O35 2.333 1_565 S
Cd32 O36 2.352 . S
Cd32 O40 2.277 1_566 S
Cd32 O41 2.356 1_556 S
C33 O38 1.209 . S
C33 O40 1.226 1_556 S
O34 Cd30 2.273 . S
O34 Cd32 2.411 1_545 S
O34 C37 1.320 . S
O35 Cd32 2.333 1_545 S
O35 C37 1.214 . S
O36 Cd32 2.352 . S
O36 C39 1.258 1_556 S
C37 O34 1.320 . S
C37 O35 1.214 . S
O38 Cd30 2.277 . S
O38 C33 1.209 . S
C39 O36 1.258 1_554 S
C39 O41 1.282 . S
O40 Cd32 2.277 1_544 S
O40 C33 1.226 1_554 S
O41 Cd32 2.356 1_554 S
O41 C39 1.282 . S
C42 O43 1.306 . S
C42 O45 1.160 . S
O43 C42 1.306 . S
O43 Cd44 2.228 1_455 S
Cd44 O43 2.228 1_655 S
Cd44 O48 2.273 . S
Cd44 O52 2.277 . S
O45 C42 1.160 . S
O45 Cd46 2.203 . S
Cd46 O45 2.203 . S
Cd46 O48 2.411 1_455 S
Cd46 O49 2.333 1_455 S
Cd46 O50 2.352 . S
Cd46 O54 2.277 1_454 S
Cd46 O55 2.356 1_554 S
C47 O52 1.209 . S
C47 O54 1.226 1_554 S
O48 Cd44 2.273 . S
O48 Cd46 2.411 1_655 S
O48 C51 1.320 . S
O49 Cd46 2.333 1_655 S
O49 C51 1.214 . S
O50 Cd46 2.352 . S
O50 C53 1.258 1_554 S
C51 O48 1.320 . S
C51 O49 1.214 . S
O52 Cd44 2.277 . S
O52 C47 1.209 . S
C53 O50 1.258 1_556 S
C53 O55 1.282 . S
O54 Cd46 2.277 1_656 S
O54 C47 1.226 1_556 S
O55 Cd46 2.356 1_556 S
O55 C53 1.282 . S
C56 O57 1.306 . S
C56 O59 1.160 . S
O57 C56 1.306 . S
O57 Cd58 2.228 1_545 S
Cd58 O57 2.228 1_565 S
Cd58 O62 2.273 . S
Cd58 O66 2.277 . S
O59 C56 1.160 . S
O59 Cd60 2.203 . S
Cd60 O59 2.203 . S
Cd60 O62 2.411 1_545 S
Cd60 O63 2.333 1_545 S
Cd60 O64 2.352 . S
Cd60 O68 2.277 1_546 S
Cd60 O69 2.356 1_556 S
C61 O66 1.209 . S
C61 O68 1.226 1_556 S
O62 Cd58 2.273 . S
O62 Cd60 2.411 1_565 S
O62 C65 1.320 . S
O63 Cd60 2.333 1_565 S
O63 C65 1.214 . S
O64 Cd60 2.352 . S
O64 C67 1.258 1_556 S
C65 O62 1.320 . S
C65 O63 1.214 . S
O66 Cd58 2.277 . S
O66 C61 1.209 . S
C67 O64 1.258 1_554 S
C67 O69 1.282 . S
O68 Cd60 2.277 1_564 S
O68 C61 1.226 1_554 S
O69 Cd60 2.356 1_554 S
O69 C67 1.282 . S
C70 O71 1.306 . S
C70 O73 1.160 . S
O71 C70 1.306 . S
O71 Cd72 2.228 1_655 S
Cd72 O71 2.228 1_455 S
Cd72 O76 2.273 . S
Cd72 O80 2.277 . S
O73 C70 1.160 . S
O73 Cd74 2.203 . S
Cd74 O73 2.203 . S
Cd74 O76 2.411 1_655 S
Cd74 O77 2.333 1_655 S
Cd74 O78 2.352 . S
Cd74 O82 2.277 1_654 S
Cd74 O83 2.356 1_554 S
C75 O80 1.209 . S
C75 O82 1.226 1_554 S
O76 Cd72 2.273 . S
O76 Cd74 2.411 1_455 S
O76 C79 1.320 . S
O77 Cd74 2.333 1_455 S
O77 C79 1.214 . S
O78 Cd74 2.352 . S
O78 C81 1.258 1_554 S
C79 O76 1.320 . S
C79 O77 1.214 . S
O80 Cd72 2.277 . S
O80 C75 1.209 . S
C81 O78 1.258 1_556 S
C81 O83 1.282 . S
O82 Cd74 2.277 1_456 S
O82 C75 1.226 1_556 S
O83 Cd74 2.356 1_556 S
O83 C81 1.282 . S
C84 O85 1.306 . S
C84 O87 1.160 . S
O85 C84 1.306 . S
O85 Cd86 2.228 . S
Cd86 O85 2.228 . S
Cd86 O90 2.273 . S
Cd86 O94 2.277 . S
O87 C84 1.160 . S
O87 Cd88 2.203 . S
Cd88 O87 2.203 . S
Cd88 O90 2.411 . S
Cd88 O91 2.333 . S
Cd88 O92 2.352 . S
Cd88 O96 2.277 . S
Cd88 O97 2.356 . S
C89 O94 1.209 . S
C89 O96 1.226 . S
O90 Cd86 2.273 . S
O90 Cd88 2.411 . S
O90 C93 1.320 . S
O91 Cd88 2.333 . S
O91 C93 1.214 . S
O92 Cd88 2.352 . S
O92 C95 1.258 . S
C93 O90 1.320 . S
C93 O91 1.214 . S
O94 Cd86 2.277 . S
O94 C89 1.209 . S
C95 O92 1.258 . S
C95 O97 1.282 . S
O96 Cd88 2.277 . S
O96 C89 1.226 . S
O97 Cd88 2.356 . S
O97 C95 1.282 . S
C98 O99 1.306 . S
C98 O101 1.160 . S
O99 C98 1.306 . S
O99 Cd100 2.228 . S
Cd100 O99 2.228 . S
Cd100 O104 2.273 . S
Cd100 O108 2.277 . S
O101 C98 1.160 . S
O101 Cd102 2.203 . S
Cd102 O101 2.203 . S
Cd102 O104 2.411 . S
Cd102 O105 2.333 . S
Cd102 O106 2.352 . S
Cd102 O110 2.277 . S
Cd102 O111 2.356 . S
C103 O108 1.209 . S
C103 O110 1.226 . S
O104 Cd100 2.273 . S
O104 Cd102 2.411 . S
O104 C107 1.320 . S
O105 Cd102 2.333 . S
O105 C107 1.214 . S
O106 Cd102 2.352 . S
O106 C109 1.258 . S
C107 O104 1.320 . S
C107 O105 1.214 . S
O108 Cd100 2.277 . S
O108 C103 1.209 . S
C109 O106 1.258 . S
C109 O111 1.282 . S
O110 Cd102 2.277 . S
O110 C103 1.226 . S
O111 Cd102 2.356 . S
O111 C109 1.282 . S
C112 C113 1.363 . S
C112 C118 1.378 . S
C112 N120 1.356 . S
C113 C112 1.363 . S
C113 C119 1.363 1_556 S
C114 C115 1.363 . S
C114 C119 1.378 . S
C114 N121 1.356 . S
C115 C114 1.363 . S
C115 C118 1.363 1_554 S
N116 C118 1.356 1_554 S
N116 H128 0.984 1_554 S
N116 H129 0.985 . S
N117 C119 1.356 1_556 S
N117 H122 0.984 . S
N117 H123 0.985 1_556 S
C118 C112 1.378 . S
C118 C115 1.363 1_556 S
C118 N116 1.356 1_556 S
C119 C113 1.363 1_554 S
C119 C114 1.378 . S
C119 N117 1.356 1_554 S
N120 C112 1.356 . S
N120 H126 0.984 . S
N120 H127 0.984 . S
N121 C114 1.356 . S
N121 H124 0.984 . S
N121 H125 0.985 . S
H122 N117 0.984 . S
H123 N117 0.985 1_554 S
H124 N121 0.984 . S
H125 N121 0.985 . S
H126 N120 0.984 . S
H127 N120 0.984 . S
H128 N116 0.984 1_556 S
H129 N116 0.985 . S
C130 C131 1.363 . S
C130 C136 1.379 . S
C130 N138 1.356 . S
C131 C130 1.363 . S
C131 C137 1.363 . S
C132 C133 1.363 . S
C132 C137 1.379 . S
C132 N139 1.356 . S
C133 C132 1.363 . S
C133 C136 1.363 . S
N134 C136 1.356 1_556 S
N134 H146 0.984 . S
N134 H147 0.985 . S
N135 C137 1.356 . S
N135 H140 0.984 . S
N135 H141 0.985 . S
C136 C130 1.379 . S
C136 C133 1.363 . S
C136 N134 1.356 1_554 S
C137 C131 1.363 . S
C137 C132 1.379 . S
C137 N135 1.356 . S
N138 C130 1.356 . S
N138 H144 0.984 . S
N138 H145 0.984 . S
N139 C132 1.356 . S
N139 H142 0.984 . S
N139 H143 0.985 . S
H140 N135 0.984 . S
H141 N135 0.985 . S
H142 N139 0.984 . S
H143 N139 0.985 . S
H144 N138 0.984 . S
H145 N138 0.984 . S
H146 N134 0.984 . S
H147 N134 0.985 . S
C148 C149 1.363 . S
C148 C154 1.379 . S
C148 N156 1.356 . S
C149 C148 1.363 . S
C149 C155 1.363 . S
C150 C151 1.363 . S
C150 C155 1.379 . S
C150 N157 1.356 . S
C151 C150 1.363 . S
C151 C154 1.363 . S
N152 C154 1.356 . S
N152 H164 0.984 . S
N152 H165 0.985 . S
N153 C155 1.356 . S
N153 H158 0.984 . S
N153 H159 0.985 . S
C154 C148 1.379 . S
C154 C151 1.363 . S
C154 N152 1.356 . S
C155 C149 1.363 . S
C155 C150 1.379 . S
C155 N153 1.356 . S
N156 C148 1.356 . S
N156 H162 0.984 . S
N156 H163 0.984 . S
N157 C150 1.356 . S
N157 H160 0.984 . S
N157 H161 0.985 . S
H158 N153 0.984 . S
H159 N153 0.985 . S
H160 N157 0.984 . S
H161 N157 0.985 . S
H162 N156 0.984 . S
H163 N156 0.984 . S
H164 N152 0.984 . S
H165 N152 0.985 . S
C166 C167 1.363 . S
C166 C172 1.379 . S
C166 N174 1.356 1_556 S
C167 C166 1.363 . S
C167 C173 1.363 . S
C168 C169 1.363 . S
C168 C173 1.379 . S
C168 N175 1.356 . S
C169 C168 1.363 . S
C169 C172 1.363 . S
N170 C172 1.356 . S
N170 H182 0.984 . S
N170 H183 0.985 . S
N171 C173 1.356 . S
N171 H176 0.984 . S
N171 H177 0.985 . S
C172 C166 1.379 . S
C172 C169 1.363 . S
C172 N170 1.356 . S
C173 C167 1.363 . S
C173 C168 1.379 . S
C173 N171 1.356 . S
N174 C166 1.356 1_554 S
N174 H180 0.984 . S
N174 H181 0.984 . S
N175 C168 1.356 . S
N175 H178 0.984 . S
N175 H179 0.985 . S
H176 N171 0.984 . S
H177 N171 0.985 . S
H178 N175 0.984 . S
H179 N175 0.985 . S
H180 N174 0.984 . S
H181 N174 0.984 . S
H182 N170 0.984 . S
H183 N170 0.985 . S
C184 C185 1.363 . S
C184 C190 1.379 . S
C184 N192 1.356 . S
C185 C184 1.363 . S
C185 C191 1.363 . S
C186 C187 1.363 . S
C186 C191 1.379 . S
C186 N193 1.356 . S
C187 C186 1.363 . S
C187 C190 1.363 . S
N188 C190 1.356 . S
N188 H200 0.984 . S
N188 H201 0.985 . S
N189 C191 1.356 . S
N189 H194 0.984 . S
N189 H195 0.985 . S
C190 C184 1.379 . S
C190 C187 1.363 . S
C190 N188 1.356 . S
C191 C185 1.363 . S
C191 C186 1.379 . S
C191 N189 1.356 . S
N192 C184 1.356 . S
N192 H198 0.984 . S
N192 H199 0.984 . S
N193 C186 1.356 . S
N193 H196 0.984 . S
N193 H197 0.985 . S
H194 N189 0.984 . S
H195 N189 0.985 . S
H196 N193 0.984 . S
H197 N193 0.985 . S
H198 N192 0.984 . S
H199 N192 0.984 . S
H200 N188 0.984 . S
H201 N188 0.985 . S
C202 C203 1.363 . S
C202 C208 1.379 . S
C202 N210 1.356 1_556 S
C203 C202 1.363 . S
C203 C209 1.363 . S
C204 C205 1.363 . S
C204 C209 1.379 . S
C204 N211 1.356 . S
C205 C204 1.363 . S
C205 C208 1.363 . S
N206 C208 1.356 . S
N206 H218 0.984 . S
N206 H219 0.985 . S
N207 C209 1.356 . S
N207 H212 0.984 . S
N207 H213 0.985 . S
C208 C202 1.379 . S
C208 C205 1.363 . S
C208 N206 1.356 . S
C209 C203 1.363 . S
C209 C204 1.379 . S
C209 N207 1.356 . S
N210 C202 1.356 1_554 S
N210 H216 0.984 . S
N210 H217 0.984 . S
N211 C204 1.356 . S
N211 H214 0.984 . S
N211 H215 0.985 . S
H212 N207 0.984 . S
H213 N207 0.985 . S
H214 N211 0.984 . S
H215 N211 0.985 . S
H216 N210 0.984 . S
H217 N210 0.984 . S
H218 N206 0.984 . S
H219 N206 0.985 . S
C220 C221 1.363 . S
C220 C226 1.379 . S
C220 N228 1.356 . S
C221 C220 1.363 . S
C221 C227 1.363 1_554 S
C222 C223 1.363 . S
C222 C227 1.379 . S
C222 N229 1.356 . S
C223 C222 1.363 . S
C223 C226 1.363 1_556 S
N224 C226 1.356 1_556 S
N224 H236 0.984 1_556 S
N224 H237 0.985 . S
N225 C227 1.356 1_554 S
N225 H230 0.984 . S
N225 H231 0.985 1_554 S
C226 C220 1.379 . S
C226 C223 1.363 1_554 S
C226 N224 1.356 1_554 S
C227 C221 1.363 1_556 S
C227 C222 1.379 . S
C227 N225 1.356 1_556 S
N228 C220 1.356 . S
N228 H234 0.984 . S
N228 H235 0.984 . S
N229 C222 1.356 . S
N229 H232 0.984 . S
N229 H233 0.985 . S
H230 N225 0.984 . S
H231 N225 0.985 1_556 S
H232 N229 0.984 . S
H233 N229 0.985 . S
H234 N228 0.984 . S
H235 N228 0.984 . S
H236 N224 0.984 1_554 S
H237 N224 0.985 . S
C238 C239 1.363 . S
C238 C244 1.379 . S
C238 N246 1.356 . S
C239 C238 1.363 . S
C239 C245 1.363 . S
C240 C241 1.363 . S
C240 C245 1.379 . S
C240 N247 1.356 . S
C241 C240 1.363 . S
C241 C244 1.363 . S
N242 C244 1.356 . S
N242 H254 0.984 . S
N242 H255 0.985 . S
N243 C245 1.356 1_556 S
N243 H248 0.984 . S
N243 H249 0.985 . S
C244 C238 1.379 . S
C244 C241 1.363 . S
C244 N242 1.356 . S
C245 C239 1.363 . S
C245 C240 1.379 . S
C245 N243 1.356 1_554 S
N246 C238 1.356 . S
N246 H252 0.984 . S
N246 H253 0.984 . S
N247 C240 1.356 . S
N247 H250 0.984 . S
N247 H251 0.985 . S
H248 N243 0.984 . S
H249 N243 0.985 . S
H250 N247 0.984 . S
H251 N247 0.985 . S
H252 N246 0.984 . S
H253 N246 0.984 . S
H254 N242 0.984 . S
H255 N242 0.985 . S
C256 C257 1.363 . S
C256 C262 1.379 . S
C256 N264 1.356 . S
C257 C256 1.363 . S
C257 C263 1.363 . S
C258 C259 1.363 . S
C258 C263 1.379 . S
C258 N265 1.356 . S
C259 C258 1.363 . S
C259 C262 1.363 . S
N260 C262 1.356 . S
N260 H272 0.984 . S
N260 H273 0.985 . S
N261 C263 1.356 . S
N261 H266 0.984 . S
N261 H267 0.985 . S
C262 C256 1.379 . S
C262 C259 1.363 . S
C262 N260 1.356 . S
C263 C257 1.363 . S
C263 C258 1.379 . S
C263 N261 1.356 . S
N264 C256 1.356 . S
N264 H270 0.984 . S
N264 H271 0.984 . S
N265 C258 1.356 . S
N265 H268 0.984 . S
N265 H269 0.985 . S
H266 N261 0.984 . S
H267 N261 0.985 . S
H268 N265 0.984 . S
H269 N265 0.985 . S
H270 N264 0.984 . S
H271 N264 0.984 . S
H272 N260 0.984 . S
H273 N260 0.985 . S
C274 C275 1.363 . S
C274 C280 1.379 . S
C274 N282 1.356 . S
C275 C274 1.363 . S
C275 C281 1.363 . S
C276 C277 1.363 . S
C276 C281 1.379 . S
C276 N283 1.356 . S
C277 C276 1.363 . S
C277 C280 1.363 . S
N278 C280 1.356 . S
N278 H290 0.984 1_556 S
N278 H291 0.985 . S
N279 C281 1.356 . S
N279 H284 0.984 . S
N279 H285 0.985 . S
C280 C274 1.379 . S
C280 C277 1.363 . S
C280 N278 1.356 . S
C281 C275 1.363 . S
C281 C276 1.379 . S
C281 N279 1.356 . S
N282 C274 1.356 . S
N282 H288 0.984 1_556 S
N282 H289 0.984 . S
N283 C276 1.356 . S
N283 H286 0.984 . S
N283 H287 0.985 . S
H284 N279 0.984 . S
H285 N279 0.985 . S
H286 N283 0.984 . S
H287 N283 0.985 . S
H288 N282 0.984 1_554 S
H289 N282 0.984 . S
H290 N278 0.984 1_554 S
H291 N278 0.985 . S
C292 C293 1.363 1_556 S
C292 C298 1.379 . S
C292 N300 1.356 . S
C293 C292 1.363 1_554 S
C293 C299 1.363 . S
C294 C295 1.363 1_554 S
C294 C299 1.379 . S
C294 N301 1.356 . S
C295 C294 1.363 1_556 S
C295 C298 1.363 . S
N296 C298 1.356 . S
N296 H308 0.984 . S
N296 H309 0.985 . S
N297 C299 1.356 . S
N297 H302 0.984 . S
N297 H303 0.985 . S
C298 C292 1.379 . S
C298 C295 1.363 . S
C298 N296 1.356 . S
C299 C293 1.363 . S
C299 C294 1.379 . S
C299 N297 1.356 . S
N300 C292 1.356 . S
N300 H306 0.984 . S
N300 H307 0.984 . S
N301 C294 1.356 . S
N301 H304 0.984 . S
N301 H305 0.985 . S
H302 N297 0.984 . S
H303 N297 0.985 . S
H304 N301 0.984 . S
H305 N301 0.985 . S
H306 N300 0.984 . S
H307 N300 0.984 . S
H308 N296 0.984 . S
H309 N296 0.985 . S
C310 C311 1.363 . S
C310 C316 1.379 . S
C310 N318 1.356 . S
C311 C310 1.363 . S
C311 C317 1.363 . S
C312 C313 1.363 . S
C312 C317 1.379 . S
C312 N319 1.356 . S
C313 C312 1.363 . S
C313 C316 1.363 . S
N314 C316 1.356 . S
N314 H326 0.984 1_554 S
N314 H327 0.985 . S
N315 C317 1.356 . S
N315 H320 0.984 . S
N315 H321 0.985 . S
C316 C310 1.379 . S
C316 C313 1.363 . S
C316 N314 1.356 . S
C317 C311 1.363 . S
C317 C312 1.379 . S
C317 N315 1.356 . S
N318 C310 1.356 . S
N318 H324 0.984 1_554 S
N318 H325 0.984 . S
N319 C312 1.356 . S
N319 H322 0.984 . S
N319 H323 0.985 . S
H320 N315 0.984 . S
H321 N315 0.985 . S
H322 N319 0.984 . S
H323 N319 0.985 . S
H324 N318 0.984 1_556 S
H325 N318 0.984 . S
H326 N314 0.984 1_556 S
H327 N314 0.985 . S
C328 C329 1.363 . S
C328 C334 1.379 . S
C328 N336 1.356 . S
C329 C328 1.363 . S
C329 C335 1.363 . S
C330 C331 1.363 . S
C330 C335 1.379 . S
C330 N337 1.356 . S
C331 C330 1.363 . S
C331 C334 1.363 . S
N332 C334 1.356 . S
N332 H344 0.984 . S
N332 H345 0.985 . S
N333 C335 1.356 . S
N333 H338 0.984 . S
N333 H339 0.985 . S
C334 C328 1.379 . S
C334 C331 1.363 . S
C334 N332 1.356 . S
C335 C329 1.363 . S
C335 C330 1.379 . S
C335 N333 1.356 . S
N336 C328 1.356 . S
N336 H342 0.984 . S
N336 H343 0.984 . S
N337 C330 1.356 . S
N337 H340 0.984 . S
N337 H341 0.985 . S
H338 N333 0.984 . S
H339 N333 0.985 . S
H340 N337 0.984 . S
H341 N337 0.985 . S
H342 N336 0.984 . S
H343 N336 0.984 . S
H344 N332 0.984 . S
H345 N332 0.985 . S
C346 C347 1.363 1_554 S
C346 C352 1.379 . S
C346 N354 1.356 . S
C347 C346 1.363 1_556 S
C347 C353 1.363 . S
C348 C349 1.363 1_556 S
C348 C353 1.379 . S
C348 N355 1.356 . S
C349 C348 1.363 1_554 S
C349 C352 1.363 . S
N350 C352 1.356 . S
N350 H362 0.984 . S
N350 H363 0.985 . S
N351 C353 1.356 . S
N351 H356 0.984 . S
N351 H357 0.985 . S
C352 C346 1.379 . S
C352 C349 1.363 . S
C352 N350 1.356 . S
C353 C347 1.363 . S
C353 C348 1.379 . S
C353 N351 1.356 . S
N354 C346 1.356 . S
N354 H360 0.984 . S
N354 H361 0.984 . S
N355 C348 1.356 . S
N355 H358 0.984 . S
N355 H359 0.985 . S
H356 N351 0.984 . S
H357 N351 0.985 . S
H358 N355 0.984 . S
H359 N355 0.985 . S
H360 N354 0.984 . S
H361 N354 0.984 . S
H362 N350 0.984 . S
H363 N350 0.985 . S
C364 C365 1.363 . S
C364 C370 1.379 . S
C364 N372 1.356 . S
C365 C364 1.363 . S
C365 C371 1.363 . S
C366 C367 1.363 . S
C366 C371 1.379 . S
C366 N373 1.356 . S
C367 C366 1.363 . S
C367 C370 1.363 . S
N368 C370 1.356 . S
N368 H380 0.984 1_554 S
N368 H381 0.985 . S
N369 C371 1.356 . S
N369 H374 0.984 . S
N369 H375 0.985 . S
C370 C364 1.379 . S
C370 C367 1.363 . S
C370 N368 1.356 . S
C371 C365 1.363 . S
C371 C366 1.379 . S
C371 N369 1.356 . S
N372 C364 1.356 . S
N372 H378 0.984 1_554 S
N372 H379 0.984 . S
N373 C366 1.356 . S
N373 H376 0.984 . S
N373 H377 0.985 . S
H374 N369 0.984 . S
H375 N369 0.985 . S
H376 N373 0.984 . S
H377 N373 0.985 . S
H378 N372 0.984 1_556 S
H379 N372 0.984 . S
H380 N368 0.984 1_556 S
H381 N368 0.985 . S
C382 C383 1.363 . S
C382 C388 1.379 . S
C382 N390 1.356 . S
C383 C382 1.363 . S
C383 C389 1.363 . S
C384 C385 1.363 . S
C384 C389 1.379 . S
C384 N391 1.356 . S
C385 C384 1.363 . S
C385 C388 1.363 . S
N386 C388 1.356 . S
N386 H398 0.984 . S
N386 H399 0.985 . S
N387 C389 1.356 . S
N387 H392 0.984 . S
N387 H393 0.985 . S
C388 C382 1.379 . S
C388 C385 1.363 . S
C388 N386 1.356 . S
C389 C383 1.363 . S
C389 C384 1.379 . S
C389 N387 1.356 . S
N390 C382 1.356 . S
N390 H396 0.984 . S
N390 H397 0.984 . S
N391 C384 1.356 . S
N391 H394 0.984 . S
N391 H395 0.985 . S
H392 N387 0.984 . S
H393 N387 0.985 . S
H394 N391 0.984 . S
H395 N391 0.985 . S
H396 N390 0.984 . S
H397 N390 0.984 . S
H398 N386 0.984 . S
H399 N386 0.985 . S
C113 C14 1.454 . S
C115 C0 1.454 . S
C131 C25 1.454 . S
C133 C39 1.454 . S
C149 C42 1.454 . S
C151 C28 1.454 . S
C167 C53 1.454 . S
C169 C11 1.454 . S
C185 C56 1.454 . S
C187 C70 1.454 . S
C203 C81 1.454 . S
C205 C95 1.454 . S
C221 C84 1.454 . S
C223 C98 1.454 . S
C239 C67 1.454 . S
C241 C109 1.454 . S
C257 C5 1.466 . S
C259 C103 1.466 . S
C275 C65 1.471 . S
C277 C23 1.471 . S
C293 C75 1.466 . S
C295 C33 1.466 . S
C311 C51 1.471 . S
C313 C93 1.471 . S
C329 C37 1.471 . S
C331 C107 1.471 . S
C347 C61 1.466 . S
C349 C47 1.466 . S
C365 C79 1.471 . S
C367 C9 1.471 . S
C383 C19 1.466 . S
C385 C89 1.466 . S
