# Generated by pormake.
# Topology uod, (4)-cn, num edge types: 1
# Building blocks:
#     Node 0, Type 0, BuildingBlock: QUQFOY_clean_sbu_3, # of connection points: 4
#     Node 1, Type 0, BuildingBlock: QUQFOY_clean_sbu_3, # of connection points: 4
#     Node 2, Type 0, BuildingBlock: QUQFOY_clean_sbu_3, # of connection points: 4
#     Node 3, Type 0, BuildingBlock: QUQFOY_clean_sbu_3, # of connection points: 4
#     Node 4, Type 0, BuildingBlock: QUQFOY_clean_sbu_3, # of connection points: 4
#     Node 5, Type 0, BuildingBlock: QUQFOY_clean_sbu_3, # of connection points: 4
#     Node 6, Type 0, BuildingBlock: QUQFOY_clean_sbu_3, # of connection points: 4
#     Node 7, Type 0, BuildingBlock: QUQFOY_clean_sbu_3, # of connection points: 4
#     Node 8, Type 0, BuildingBlock: QUQFOY_clean_sbu_3, # of connection points: 4
#     Node 9, Type 0, BuildingBlock: QUQFOY_clean_sbu_3, # of connection points: 4
#     Node 10, Type 0, BuildingBlock: QUQFOY_clean_sbu_3, # of connection points: 4
#     Node 11, Type 0, BuildingBlock: QUQFOY_clean_sbu_3, # of connection points: 4
#     Node 12, Type 0, BuildingBlock: QUQFOY_clean_sbu_3, # of connection points: 4
#     Node 13, Type 0, BuildingBlock: QUQFOY_clean_sbu_3, # of connection points: 4
#     Node 14, Type 0, BuildingBlock: QUQFOY_clean_sbu_3, # of connection points: 4
#     Node 15, Type 0, BuildingBlock: QUQFOY_clean_sbu_3, # of connection points: 4
#     Node 16, Type 0, BuildingBlock: QUQFOY_clean_sbu_3, # of connection points: 4
#     Node 17, Type 0, BuildingBlock: QUQFOY_clean_sbu_3, # of connection points: 4
#     Node 18, Type 0, BuildingBlock: QUQFOY_clean_sbu_3, # of connection points: 4
#     Node 19, Type 0, BuildingBlock: QUQFOY_clean_sbu_3, # of connection points: 4
#     Node 20, Type 0, BuildingBlock: QUQFOY_clean_sbu_3, # of connection points: 4
#     Node 21, Type 0, BuildingBlock: QUQFOY_clean_sbu_3, # of connection points: 4
#     Node 22, Type 0, BuildingBlock: QUQFOY_clean_sbu_3, # of connection points: 4
#     Node 23, Type 0, BuildingBlock: QUQFOY_clean_sbu_3, # of connection points: 4
#     Node 24, Type 0, BuildingBlock: QUQFOY_clean_sbu_3, # of connection points: 4
#     Node 25, Type 0, BuildingBlock: QUQFOY_clean_sbu_3, # of connection points: 4
#     Node 26, Type 0, BuildingBlock: QUQFOY_clean_sbu_3, # of connection points: 4
#     Node 27, Type 0, BuildingBlock: QUQFOY_clean_sbu_3, # of connection points: 4
#     Node 28, Type 0, BuildingBlock: QUQFOY_clean_sbu_3, # of connection points: 4
#     Node 29, Type 0, BuildingBlock: QUQFOY_clean_sbu_3, # of connection points: 4
#     Node 30, Type 0, BuildingBlock: QUQFOY_clean_sbu_3, # of connection points: 4
#     Node 31, Type 0, BuildingBlock: QUQFOY_clean_sbu_3, # of connection points: 4
#     Edge 32, Type (0, 0), BuildingBlock: UVAHIK_clean_linker_0, # of connection points: 2
#     Edge 33, Type (0, 0), BuildingBlock: UVAHIK_clean_linker_0, # of connection points: 2
#     Edge 34, Type (0, 0), BuildingBlock: UVAHIK_clean_linker_0, # of connection points: 2
#     Edge 35, Type (0, 0), BuildingBlock: UVAHIK_clean_linker_0, # of connection points: 2
#     Edge 36, Type (0, 0), BuildingBlock: UVAHIK_clean_linker_0, # of connection points: 2
#     Edge 37, Type (0, 0), BuildingBlock: UVAHIK_clean_linker_0, # of connection points: 2
#     Edge 38, Type (0, 0), BuildingBlock: UVAHIK_clean_linker_0, # of connection points: 2
#     Edge 39, Type (0, 0), BuildingBlock: UVAHIK_clean_linker_0, # of connection points: 2
#     Edge 40, Type (0, 0), BuildingBlock: UVAHIK_clean_linker_0, # of connection points: 2
#     Edge 41, Type (0, 0), BuildingBlock: UVAHIK_clean_linker_0, # of connection points: 2
#     Edge 42, Type (0, 0), BuildingBlock: UVAHIK_clean_linker_0, # of connection points: 2
#     Edge 43, Type (0, 0), BuildingBlock: UVAHIK_clean_linker_0, # of connection points: 2
#     Edge 44, Type (0, 0), BuildingBlock: UVAHIK_clean_linker_0, # of connection points: 2
#     Edge 45, Type (0, 0), BuildingBlock: UVAHIK_clean_linker_0, # of connection points: 2
#     Edge 46, Type (0, 0), BuildingBlock: UVAHIK_clean_linker_0, # of connection points: 2
#     Edge 47, Type (0, 0), BuildingBlock: UVAHIK_clean_linker_0, # of connection points: 2
#     Edge 48, Type (0, 0), BuildingBlock: UVAHIK_clean_linker_0, # of connection points: 2
#     Edge 49, Type (0, 0), BuildingBlock: UVAHIK_clean_linker_0, # of connection points: 2
#     Edge 50, Type (0, 0), BuildingBlock: UVAHIK_clean_linker_0, # of connection points: 2
#     Edge 51, Type (0, 0), BuildingBlock: UVAHIK_clean_linker_0, # of connection points: 2
#     Edge 52, Type (0, 0), BuildingBlock: UVAHIK_clean_linker_0, # of connection points: 2
#     Edge 53, Type (0, 0), BuildingBlock: UVAHIK_clean_linker_0, # of connection points: 2
#     Edge 54, Type (0, 0), BuildingBlock: UVAHIK_clean_linker_0, # of connection points: 2
#     Edge 55, Type (0, 0), BuildingBlock: UVAHIK_clean_linker_0, # of connection points: 2
#     Edge 56, Type (0, 0), BuildingBlock: UVAHIK_clean_linker_0, # of connection points: 2
#     Edge 57, Type (0, 0), BuildingBlock: UVAHIK_clean_linker_0, # of connection points: 2
#     Edge 58, Type (0, 0), BuildingBlock: UVAHIK_clean_linker_0, # of connection points: 2
#     Edge 59, Type (0, 0), BuildingBlock: UVAHIK_clean_linker_0, # of connection points: 2
#     Edge 60, Type (0, 0), BuildingBlock: UVAHIK_clean_linker_0, # of connection points: 2
#     Edge 61, Type (0, 0), BuildingBlock: UVAHIK_clean_linker_0, # of connection points: 2
#     Edge 62, Type (0, 0), BuildingBlock: UVAHIK_clean_linker_0, # of connection points: 2
#     Edge 63, Type (0, 0), BuildingBlock: UVAHIK_clean_linker_0, # of connection points: 2
#     Edge 64, Type (0, 0), BuildingBlock: UVAHIK_clean_linker_0, # of connection points: 2
#     Edge 65, Type (0, 0), BuildingBlock: UVAHIK_clean_linker_0, # of connection points: 2
#     Edge 66, Type (0, 0), BuildingBlock: UVAHIK_clean_linker_0, # of connection points: 2
#     Edge 67, Type (0, 0), BuildingBlock: UVAHIK_clean_linker_0, # of connection points: 2
#     Edge 68, Type (0, 0), BuildingBlock: UVAHIK_clean_linker_0, # of connection points: 2
#     Edge 69, Type (0, 0), BuildingBlock: UVAHIK_clean_linker_0, # of connection points: 2
#     Edge 70, Type (0, 0), BuildingBlock: UVAHIK_clean_linker_0, # of connection points: 2
#     Edge 71, Type (0, 0), BuildingBlock: UVAHIK_clean_linker_0, # of connection points: 2
#     Edge 72, Type (0, 0), BuildingBlock: UVAHIK_clean_linker_0, # of connection points: 2
#     Edge 73, Type (0, 0), BuildingBlock: UVAHIK_clean_linker_0, # of connection points: 2
#     Edge 74, Type (0, 0), BuildingBlock: UVAHIK_clean_linker_0, # of connection points: 2
#     Edge 75, Type (0, 0), BuildingBlock: UVAHIK_clean_linker_0, # of connection points: 2
#     Edge 76, Type (0, 0), BuildingBlock: UVAHIK_clean_linker_0, # of connection points: 2
#     Edge 77, Type (0, 0), BuildingBlock: UVAHIK_clean_linker_0, # of connection points: 2
#     Edge 78, Type (0, 0), BuildingBlock: UVAHIK_clean_linker_0, # of connection points: 2
#     Edge 79, Type (0, 0), BuildingBlock: UVAHIK_clean_linker_0, # of connection points: 2
#     Edge 80, Type (0, 0), BuildingBlock: UVAHIK_clean_linker_0, # of connection points: 2
#     Edge 81, Type (0, 0), BuildingBlock: UVAHIK_clean_linker_0, # of connection points: 2
#     Edge 82, Type (0, 0), BuildingBlock: UVAHIK_clean_linker_0, # of connection points: 2
#     Edge 83, Type (0, 0), BuildingBlock: UVAHIK_clean_linker_0, # of connection points: 2
#     Edge 84, Type (0, 0), BuildingBlock: UVAHIK_clean_linker_0, # of connection points: 2
#     Edge 85, Type (0, 0), BuildingBlock: UVAHIK_clean_linker_0, # of connection points: 2
#     Edge 86, Type (0, 0), BuildingBlock: UVAHIK_clean_linker_0, # of connection points: 2
#     Edge 87, Type (0, 0), BuildingBlock: UVAHIK_clean_linker_0, # of connection points: 2
#     Edge 88, Type (0, 0), BuildingBlock: UVAHIK_clean_linker_0, # of connection points: 2
#     Edge 89, Type (0, 0), BuildingBlock: UVAHIK_clean_linker_0, # of connection points: 2
#     Edge 90, Type (0, 0), BuildingBlock: UVAHIK_clean_linker_0, # of connection points: 2
#     Edge 91, Type (0, 0), BuildingBlock: UVAHIK_clean_linker_0, # of connection points: 2
#     Edge 92, Type (0, 0), BuildingBlock: UVAHIK_clean_linker_0, # of connection points: 2
#     Edge 93, Type (0, 0), BuildingBlock: UVAHIK_clean_linker_0, # of connection points: 2
#     Edge 94, Type (0, 0), BuildingBlock: UVAHIK_clean_linker_0, # of connection points: 2
#     Edge 95, Type (0, 0), BuildingBlock: UVAHIK_clean_linker_0, # of connection points: 2
# Relax obj value: 0.164
# Max RMSD: 0.156
# Mean RMSD: 0.156
data_MOF--net-uod--node1-QUQFOY_clean_sbu_3--edge1-UVAHIK_clean_linker_0
_symmetry_space_group_name_H-M    P1
_symmetry_Int_Tables_number       1
_symmetry_cell_setting            triclinic
loop_
_symmetry_equiv_pos_as_xyz
'x, y, z'
_cell_length_a     116.97127
_cell_length_b     35.238449
_cell_length_c     82.510717
_cell_angle_alpha  90.000614
_cell_angle_beta   90.033553
_cell_angle_gamma 89.838483
loop_
_atom_site_label
_atom_site_type_symbol
_atom_site_fract_x
_atom_site_fract_y
_atom_site_fract_z
_atom_type_partial_charge
C0 C 0.0338 0.29631 0.1064 0.0
O1 O 0.0364 0.31482 0.11907 0.0
Cd2 Cd 0.04694 0.37175 0.12027 0.0
O3 O 0.03673 0.30812 0.09237 0.0
Cd4 Cd 0.04641 0.36515 0.08066 0.0
C5 C 0.07159 0.34557 0.0993 0.0
O6 O 0.03826 0.40857 0.09994 0.0
O7 O 0.0518 0.43141 0.08529 0.0
O8 O 0.03031 0.36641 0.06221 0.0
C9 C 0.0441 0.43703 0.0958 0.0
O10 O 0.06623 0.35529 0.11208 0.0
C11 C 0.03578 0.37816 0.04995 0.0
O12 O 0.06649 0.34429 0.08559 0.0
O13 O 0.0466 0.37988 0.05133 0.0
C14 C 0.21859 0.88788 0.12798 0.0
O15 O 0.21655 0.8621 0.13831 0.0
Cd16 Cd 0.20728 0.80472 0.13085 0.0
O17 O 0.21593 0.88332 0.11311 0.0
Cd18 Cd 0.20736 0.8337 0.09553 0.0
C19 C 0.18222 0.84149 0.11539 0.0
O20 O 0.21768 0.78131 0.10795 0.0
O21 O 0.204 0.76644 0.09149 0.0
O22 O 0.22266 0.85021 0.07686 0.0
C23 C 0.21305 0.75677 0.09887 0.0
O24 O 0.18755 0.8237 0.1265 0.0
C25 C 0.21716 0.84232 0.06406 0.0
O26 O 0.18732 0.85066 0.1023 0.0
O27 O 0.20653 0.83592 0.06572 0.0
C28 C 0.026 0.93013 0.14831 0.0
O29 O 0.02746 0.90438 0.13775 0.0
Cd30 Cd 0.03867 0.84908 0.14116 0.0
O31 O 0.03021 0.92677 0.16253 0.0
Cd32 Cd 0.04079 0.87774 0.17871 0.0
C33 C 0.06421 0.88851 0.15498 0.0
O34 O 0.0321 0.82375 0.16587 0.0
O35 O 0.04707 0.81166 0.18013 0.0
O36 O 0.02617 0.88538 0.19936 0.0
C37 C 0.03878 0.79922 0.17185 0.0
O38 O 0.05817 0.87201 0.14424 0.0
C39 C 0.03281 0.88138 0.2114 0.0
O40 O 0.06011 0.89601 0.16899 0.0
O41 O 0.04346 0.88021 0.20835 0.0
C42 C 0.22533 0.27341 0.13709 0.0
O43 O 0.22513 0.28332 0.12229 0.0
Cd44 Cd 0.22023 0.34382 0.1116 0.0
O45 O 0.22274 0.29686 0.1483 0.0
Cd46 Cd 0.21734 0.36512 0.14969 0.0
C47 C 0.19301 0.35297 0.12724 0.0
O48 O 0.23087 0.3844 0.12861 0.0
O49 O 0.21954 0.42773 0.13791 0.0
O50 O 0.2301 0.36957 0.17287 0.0
C51 C 0.22801 0.41896 0.12912 0.0
O52 O 0.19971 0.35004 0.11515 0.0
C53 C 0.22366 0.39053 0.18143 0.0
O54 O 0.19699 0.35657 0.14158 0.0
O55 O 0.21369 0.39697 0.17591 0.0
C56 C 0.97466 0.66847 0.88212 0.0
O57 O 0.97108 0.64695 0.8709 0.0
Cd58 Cd 0.95776 0.59754 0.87603 0.0
O59 O 0.97139 0.66373 0.89672 0.0
Cd60 Cd 0.95967 0.61988 0.91325 0.0
C61 C 0.93548 0.64703 0.89432 0.0
O62 O 0.96487 0.56274 0.89863 0.0
O63 O 0.95051 0.55862 0.91504 0.0
O64 O 0.97665 0.62126 0.92995 0.0
C65 C 0.95775 0.54204 0.90608 0.0
O66 O 0.93982 0.62891 0.88246 0.0
C67 C 0.97166 0.61635 0.9434 0.0
O68 O 0.94096 0.65066 0.90763 0.0
O69 O 0.96078 0.61741 0.94322 0.0
C70 C 0.77907 0.02216 0.8916 0.0
O71 O 0.77991 0.03095 0.87673 0.0
Cd72 Cd 0.79088 0.08147 0.86584 0.0
O73 O 0.78389 0.04226 0.90248 0.0
Cd74 Cd 0.79464 0.10322 0.90338 0.0
C75 C 0.81744 0.06591 0.88372 0.0
O76 O 0.78574 0.13625 0.88051 0.0
O77 O 0.8018 0.15828 0.88932 0.0
O78 O 0.78075 0.12703 0.92268 0.0
C79 C 0.7933 0.16188 0.87991 0.0
O80 O 0.81087 0.0676 0.87141 0.0
C81 C 0.78782 0.13908 0.93311 0.0
O82 O 0.81374 0.07476 0.89781 0.0
O83 O 0.79834 0.13233 0.93035 0.0
C84 C 0.97671 0.03389 0.85492 0.0
O85 O 0.97475 0.05093 0.86819 0.0
Cd86 Cd 0.96207 0.10288 0.87179 0.0
O87 O 0.97231 0.04543 0.84164 0.0
Cd88 Cd 0.96108 0.10047 0.83123 0.0
C89 C 0.93756 0.07031 0.85141 0.0
O90 O 0.96778 0.14437 0.85127 0.0
O91 O 0.95353 0.16379 0.83696 0.0
O92 O 0.97728 0.10492 0.81321 0.0
C93 C 0.9607 0.17047 0.8481 0.0
O94 O 0.94321 0.08034 0.86391 0.0
C95 C 0.97185 0.1165 0.80086 0.0
O96 O 0.94202 0.07215 0.83725 0.0
O97 O 0.961 0.11776 0.80201 0.0
C98 C 0.77873 0.65312 0.8756 0.0
O99 O 0.78143 0.62603 0.88499 0.0
Cd100 Cd 0.79392 0.57667 0.87631 0.0
O101 O 0.78211 0.65332 0.8609 0.0
Cd102 Cd 0.79287 0.6121 0.8417 0.0
C103 C 0.81695 0.6296 0.86264 0.0
O104 O 0.78633 0.55093 0.85181 0.0
O105 O 0.80106 0.55051 0.83595 0.0
O106 O 0.77649 0.62184 0.82407 0.0
C107 C 0.79312 0.53227 0.84285 0.0
O108 O 0.81226 0.60797 0.87304 0.0
C109 C 0.78203 0.6207 0.81088 0.0
O110 O 0.81181 0.63802 0.84946 0.0
O111 O 0.79288 0.62067 0.81202 0.0
C112 C 0.02678 0.82571 0.61323 0.0
O113 O 0.02593 0.8505 0.62434 0.0
Cd114 Cd 0.02865 0.91685 0.62062 0.0
O115 O 0.02871 0.83549 0.59858 0.0
Cd116 Cd 0.03133 0.8956 0.58305 0.0
C117 C 0.05583 0.91235 0.60438 0.0
O118 O 0.01709 0.93271 0.59788 0.0
O119 O 0.02819 0.96338 0.58156 0.0
O120 O 0.01842 0.87253 0.56201 0.0
C121 C 0.01937 0.96318 0.59044 0.0
O122 O 0.04914 0.92123 0.61595 0.0
C123 C 0.02417 0.88548 0.5502 0.0
O124 O 0.05182 0.90067 0.59087 0.0
O125 O 0.03401 0.89866 0.55353 0.0
C126 C 0.22578 0.40424 0.62025 0.0
O127 O 0.22679 0.38285 0.63256 0.0
Cd128 Cd 0.22525 0.31567 0.63217 0.0
O129 O 0.22417 0.39023 0.60616 0.0
Cd130 Cd 0.22249 0.32569 0.59416 0.0
C131 C 0.19814 0.31043 0.61602 0.0
O132 O 0.23754 0.29683 0.61058 0.0
O133 O 0.22695 0.25864 0.59677 0.0
O134 O 0.23472 0.34458 0.57159 0.0
C135 C 0.23592 0.26376 0.6051 0.0
O136 O 0.20483 0.30555 0.62802 0.0
C137 C 0.22895 0.32764 0.56076 0.0
O138 O 0.20213 0.31943 0.60214 0.0
O139 O 0.21943 0.31374 0.56517 0.0
C140 C 0.04851 0.43418 0.6411 0.0
O141 O 0.04939 0.41739 0.62754 0.0
Cd142 Cd 0.05068 0.35147 0.62276 0.0
O143 O 0.0487 0.41542 0.65435 0.0
Cd144 Cd 0.05065 0.34617 0.66106 0.0
C145 C 0.07624 0.33369 0.64161 0.0
O146 O 0.03654 0.32819 0.64074 0.0
O147 O 0.04516 0.28204 0.6528 0.0
O148 O 0.03711 0.35659 0.68317 0.0
C149 C 0.03704 0.29314 0.64381 0.0
O150 O 0.07028 0.33468 0.62873 0.0
C151 C 0.04185 0.33383 0.69303 0.0
O152 O 0.07155 0.33905 0.6554 0.0
O153 O 0.0515 0.32045 0.6888 0.0
C154 C 0.20566 0.80282 0.63689 0.0
O155 O 0.20562 0.82103 0.62361 0.0
Cd156 Cd 0.20394 0.88777 0.62099 0.0
O157 O 0.20448 0.82011 0.65039 0.0
Cd158 Cd 0.20188 0.88757 0.65876 0.0
C159 C 0.17724 0.90002 0.63707 0.0
O160 O 0.21715 0.90982 0.64084 0.0
O161 O 0.20776 0.9527 0.65407 0.0
O162 O 0.21399 0.87124 0.68188 0.0
C163 C 0.21643 0.94371 0.64574 0.0
O164 O 0.18384 0.90124 0.62485 0.0
C165 C 0.20907 0.89332 0.69184 0.0
O166 O 0.1813 0.89383 0.65119 0.0
O167 O 0.19986 0.90886 0.68703 0.0
C168 C 0.95877 0.12667 0.3594 0.0
O169 O 0.95758 0.10582 0.34699 0.0
Cd170 Cd 0.95324 0.04007 0.34927 0.0
O171 O 0.9575 0.11288 0.37358 0.0
Cd172 Cd 0.95288 0.04956 0.38514 0.0
C173 C 0.92697 0.04423 0.36706 0.0
O174 O 0.96658 0.0141 0.36866 0.0
O175 O 0.95398 0.98134 0.38155 0.0
O176 O 0.96679 0.06317 0.40653 0.0
C177 C 0.96381 -0.01711 0.37515 0.0
O178 O 0.93278 0.03605 0.3545 0.0
C179 C 0.96127 0.0473 0.41787 0.0
O180 O 0.93204 0.05278 0.38025 0.0
O181 O 0.9512 0.03641 0.41445 0.0
C182 C 0.79581 0.57869 0.38306 0.0
O183 O 0.79717 0.60211 0.37154 0.0
Cd184 Cd 0.80001 0.66807 0.37518 0.0
O185 O 0.79606 0.58982 0.39779 0.0
Cd186 Cd 0.79877 0.65197 0.41183 0.0
C187 C 0.82526 0.66443 0.39593 0.0
O188 O 0.78542 0.6846 0.39422 0.0
O189 O 0.79542 0.72059 0.40985 0.0
O190 O 0.78461 0.63161 0.43178 0.0
C191 C 0.78667 0.71652 0.40095 0.0
O192 O 0.81997 0.67395 0.38308 0.0
C193 C 0.78926 0.64832 0.4437 0.0
O194 O 0.81974 0.65314 0.40832 0.0
O195 O 0.79909 0.66238 0.44122 0.0
C196 C 0.97585 0.52042 0.37054 0.0
O197 O 0.97608 0.52715 0.38562 0.0
Cd198 Cd 0.97335 0.58788 0.39706 0.0
O199 O 0.9745 0.54743 0.36042 0.0
Cd200 Cd 0.9729 0.61791 0.36358 0.0
C201 C 0.94728 0.61392 0.38165 0.0
O202 O 0.98708 0.62947 0.38502 0.0
O203 O 0.97364 0.67105 0.38259 0.0
O204 O 0.98698 0.63004 0.34231 0.0
C205 C 0.98343 0.66247 0.38808 0.0
O206 O 0.95316 0.60525 0.39411 0.0
C207 C 0.981 0.65389 0.33448 0.0
O208 O 0.95214 0.61798 0.36796 0.0
O209 O 0.97087 0.65928 0.3395 0.0
C210 C 0.7789 0.18214 0.35567 0.0
O211 O 0.77877 0.1637 0.3689 0.0
Cd212 Cd 0.77897 0.09705 0.37271 0.0
O213 O 0.77902 0.16497 0.34203 0.0
Cd214 Cd 0.77876 0.09692 0.33339 0.0
C215 C 0.80421 0.07853 0.35265 0.0
O216 O 0.76485 0.07785 0.35391 0.0
O217 O 0.77243 0.03296 0.33974 0.0
O218 O 0.76538 0.11146 0.31143 0.0
C219 C 0.7649 0.04334 0.34982 0.0
O220 O 0.79844 0.07918 0.36573 0.0
C221 C 0.77024 0.09039 0.30101 0.0
O222 O 0.7994 0.08542 0.33906 0.0
O223 O 0.77981 0.07605 0.30506 0.0
C224 C 0.54521 0.29837 0.6126 0.0
O225 O 0.54505 0.31695 0.62577 0.0
Cd226 Cd 0.54435 0.38391 0.62815 0.0
O227 O 0.54521 0.31553 0.59896 0.0
Cd228 Cd 0.54507 0.38373 0.59065 0.0
C229 C 0.56989 0.40481 0.61038 0.0
O230 O 0.52974 0.40173 0.60939 0.0
O231 O 0.53826 0.44737 0.59691 0.0
O232 O 0.53265 0.3673 0.56785 0.0
C233 C 0.52976 0.43614 0.60508 0.0
O234 O 0.56376 0.405 0.6231 0.0
C235 C 0.53727 0.38998 0.55788 0.0
O236 O 0.56552 0.39604 0.59673 0.0
O237 O 0.5464 0.40608 0.56253 0.0
C238 C 0.70938 0.91352 0.6164 0.0
O239 O 0.70965 0.89303 0.62905 0.0
Cd240 Cd 0.71008 0.82561 0.62937 0.0
O241 O 0.70919 0.89838 0.60235 0.0
Cd242 Cd 0.70908 0.83176 0.5921 0.0
C243 C 0.68435 0.80834 0.61152 0.0
O244 O 0.72449 0.80939 0.61003 0.0
O245 O 0.71587 0.76725 0.59544 0.0
O246 O 0.72141 0.85119 0.56975 0.0
C247 C 0.72437 0.77631 0.6041 0.0
O248 O 0.69056 0.80608 0.62414 0.0
C249 C 0.71659 0.83048 0.55918 0.0
O250 O 0.68867 0.81893 0.59808 0.0
O251 O 0.70732 0.81461 0.56339 0.0
C252 C 0.53598 0.89339 0.62779 0.0
O253 O 0.5353 0.87331 0.61506 0.0
Cd254 Cd 0.53579 0.80593 0.61434 0.0
O255 O 0.53679 0.8778 0.64172 0.0
Cd256 Cd 0.53736 0.81097 0.65159 0.0
C257 C 0.5621 0.79243 0.63123 0.0
O258 O 0.522 0.78667 0.63409 0.0
O259 O 0.53181 0.74555 0.6478 0.0
O260 O 0.52502 0.82628 0.67454 0.0
C261 C 0.52292 0.7534 0.63969 0.0
O262 O 0.55582 0.78989 0.61869 0.0
C263 C 0.53067 0.80702 0.68481 0.0
O264 O 0.55773 0.80124 0.64488 0.0
O265 O 0.54026 0.79404 0.68011 0.0
C266 C 0.71731 0.31855 0.63409 0.0
O267 O 0.71836 0.33747 0.62109 0.0
Cd268 Cd 0.71832 0.40447 0.61871 0.0
O269 O 0.7163 0.33539 0.64773 0.0
Cd270 Cd 0.7159 0.40353 0.65629 0.0
C271 C 0.69169 0.42076 0.63441 0.0
O272 O 0.73157 0.42478 0.63886 0.0
O273 O 0.72149 0.46842 0.65039 0.0
O274 O 0.72792 0.39118 0.67992 0.0
C275 C 0.73056 0.45919 0.64298 0.0
O276 O 0.69831 0.4219 0.62219 0.0
C277 C 0.72216 0.41173 0.68959 0.0
O278 O 0.69566 0.41297 0.64843 0.0
O279 O 0.71267 0.4243 0.68433 0.0
C280 C 0.4615 0.67193 0.389 0.0
O281 O 0.46102 0.65388 0.37571 0.0
Cd282 Cd 0.45879 0.58748 0.37314 0.0
O283 O 0.4604 0.65467 0.40251 0.0
Cd284 Cd 0.45725 0.58757 0.41076 0.0
C285 C 0.43225 0.57918 0.39 0.0
O286 O 0.4721 0.56445 0.39265 0.0
O287 O 0.46169 0.52159 0.40391 0.0
O288 O 0.46976 0.6016 0.43364 0.0
C289 C 0.47077 0.53001 0.39637 0.0
O290 O 0.43864 0.57531 0.37764 0.0
C291 C 0.4649 0.5793 0.44353 0.0
O292 O 0.43658 0.58655 0.40384 0.0
O293 O 0.4556 0.56439 0.43881 0.0
C294 C 0.29346 0.01172 0.39494 0.0
O295 O 0.29462 0.02139 0.38022 0.0
Cd296 Cd 0.30121 0.0803 0.37041 0.0
O297 O 0.2958 0.03484 0.40637 0.0
Cd298 Cd 0.30156 0.1033 0.40794 0.0
C299 C 0.32732 0.09015 0.38993 0.0
O300 O 0.29002 0.12457 0.38499 0.0
O301 O 0.30267 0.16385 0.39378 0.0
O302 O 0.28633 0.11024 0.42773 0.0
C303 C 0.29424 0.15752 0.38455 0.0
O304 O 0.32136 0.08568 0.37715 0.0
C305 C 0.29181 0.13057 0.43772 0.0
O306 O 0.32249 0.09502 0.40367 0.0
O307 O 0.30229 0.13641 0.43453 0.0
C308 C 0.47788 0.06734 0.36642 0.0
O309 O 0.4781 0.09122 0.37792 0.0
Cd310 Cd 0.47419 0.15678 0.37433 0.0
O311 O 0.47593 0.07801 0.35189 0.0
Cd312 Cd 0.47238 0.13845 0.33724 0.0
C313 C 0.44731 0.14758 0.3576 0.0
O314 O 0.48626 0.17513 0.35243 0.0
O315 O 0.47419 0.20721 0.33814 0.0
O316 O 0.48594 0.11665 0.3169 0.0
C317 C 0.48351 0.20638 0.34597 0.0
O318 O 0.45362 0.158 0.36935 0.0
C319 C 0.48078 0.13118 0.30487 0.0
O320 O 0.45177 0.13704 0.34421 0.0
O321 O 0.47091 0.14496 0.30758 0.0
C322 C 0.27714 0.63421 0.37311 0.0
O323 O 0.27823 0.6048 0.38186 0.0
Cd324 Cd 0.28459 0.5448 0.37161 0.0
O325 O 0.27927 0.63289 0.35797 0.0
Cd326 Cd 0.28562 0.58459 0.33807 0.0
C327 C 0.31092 0.57162 0.35733 0.0
O328 O 0.27434 0.53011 0.34738 0.0
O329 O 0.28826 0.51922 0.33072 0.0
O330 O 0.27099 0.60621 0.31919 0.0
C331 C 0.27927 0.50756 0.33762 0.0
O332 O 0.30498 0.55202 0.36716 0.0
C333 C 0.27723 0.60356 0.30666 0.0
O334 O 0.30611 0.5898 0.34578 0.0
O335 O 0.28783 0.59776 0.30905 0.0
C336 C 0.51219 0.77007 0.13075 0.0
O337 O 0.51335 0.7867 0.14437 0.0
Cd338 Cd 0.51573 0.8526 0.15192 0.0
O339 O 0.51212 0.78872 0.11748 0.0
Cd340 Cd 0.51381 0.85662 0.11072 0.0
C341 C 0.54017 0.87042 0.13165 0.0
O342 O 0.50328 0.88247 0.13354 0.0
O343 O 0.4975 0.90217 0.11024 0.0
O344 O 0.50608 0.84363 0.08378 0.0
C345 C 0.50561 0.89937 0.12036 0.0
O346 O 0.53521 0.8668 0.14525 0.0
C347 C 0.51225 0.86821 0.07664 0.0
O348 O 0.53453 0.86789 0.1184 0.0
O349 O 0.51994 0.88431 0.08509 0.0
C350 C 0.74056 0.41059 0.1254 0.0
O351 O 0.73957 0.3826 0.13498 0.0
Cd352 Cd 0.73176 0.32243 0.12683 0.0
O353 O 0.7383 0.40679 0.11038 0.0
Cd354 Cd 0.73204 0.35633 0.09167 0.0
C355 C 0.70662 0.35747 0.11094 0.0
O356 O 0.74011 0.29711 0.10283 0.0
O357 O 0.72554 0.29361 0.08663 0.0
O358 O 0.74801 0.36661 0.07341 0.0
C359 C 0.73352 0.27682 0.09416 0.0
O360 O 0.71186 0.3373 0.12141 0.0
C361 C 0.74207 0.36649 0.06051 0.0
O362 O 0.71195 0.37184 0.0989 0.0
O363 O 0.73126 0.36665 0.06224 0.0
C364 C 0.54849 0.3878 0.12939 0.0
O365 O 0.55106 0.37248 0.11596 0.0
Cd366 Cd 0.56336 0.31834 0.11449 0.0
O367 O 0.55197 0.37344 0.14269 0.0
Cd368 Cd 0.56259 0.31785 0.15331 0.0
C369 C 0.58681 0.35068 0.13639 0.0
O370 O 0.55638 0.27219 0.13296 0.0
O371 O 0.57018 0.25454 0.14878 0.0
O372 O 0.54569 0.31405 0.17015 0.0
C373 C 0.56307 0.24611 0.13778 0.0
O374 O 0.5819 0.34064 0.1233 0.0
C375 C 0.55068 0.30407 0.18311 0.0
O376 O 0.58164 0.34788 0.14998 0.0
O377 O 0.56156 0.3029 0.18274 0.0
C378 C 0.69872 0.77067 0.14387 0.0
O379 O 0.69624 0.78062 0.12951 0.0
Cd380 Cd 0.68832 0.84008 0.12214 0.0
O381 O 0.69678 0.79298 0.15575 0.0
Cd382 Cd 0.68952 0.8597 0.15892 0.0
C383 C 0.66302 0.84516 0.14343 0.0
O384 O 0.70014 0.88475 0.13574 0.0
O385 O 0.68758 0.92211 0.14631 0.0
O386 O 0.7053 0.86431 0.17804 0.0
C387 C 0.69594 0.91776 0.13675 0.0
O388 O 0.66836 0.84292 0.13003 0.0
C389 C 0.70025 0.88485 0.18841 0.0
O390 O 0.66852 0.84879 0.15672 0.0
O391 O 0.68973 0.89167 0.18582 0.0
C392 C 0.46845 0.19686 0.89832 0.0
O393 O 0.46756 0.1857 0.88375 0.0
Cd394 Cd 0.4602 0.12734 0.87435 0.0
O395 O 0.46542 0.17554 0.91005 0.0
Cd396 Cd 0.45843 0.10874 0.91266 0.0
C397 C 0.43351 0.12565 0.89273 0.0
O398 O 0.46971 0.082 0.89056 0.0
O399 O 0.45604 0.0473 0.89961 0.0
O400 O 0.4726 0.09878 0.93397 0.0
C401 C 0.46454 0.05058 0.89023 0.0
O402 O 0.4398 0.12696 0.88015 0.0
C403 C 0.46602 0.08156 0.9437 0.0
O404 O 0.43795 0.12173 0.9068 0.0
O405 O 0.45558 0.07904 0.93953 0.0
C406 C 0.28149 0.57793 0.88248 0.0
O407 O 0.28191 0.60243 0.87123 0.0
Cd408 Cd 0.28734 0.66605 0.87554 0.0
O409 O 0.28384 0.58701 0.89709 0.0
Cd410 Cd 0.2893 0.64614 0.91182 0.0
C411 C 0.31422 0.6502 0.89112 0.0
O412 O 0.27545 0.68485 0.89771 0.0
O413 O 0.28833 0.71549 0.91104 0.0
O414 O 0.27605 0.62778 0.9332 0.0
C415 C 0.27853 0.71532 0.90448 0.0
O416 O 0.30796 0.66178 0.87951 0.0
C417 C 0.28175 0.64244 0.94469 0.0
O418 O 0.30975 0.64101 0.90465 0.0
O419 O 0.29176 0.65375 0.94124 0.0
C420 C 0.47074 0.57656 0.87288 0.0
O421 O 0.46943 0.60537 0.88192 0.0
Cd422 Cd 0.46091 0.66264 0.87253 0.0
O423 O 0.46788 0.57775 0.85796 0.0
Cd424 Cd 0.46004 0.62503 0.83841 0.0
C425 C 0.43502 0.62852 0.85871 0.0
O426 O 0.47051 0.68042 0.84813 0.0
O427 O 0.45637 0.6906 0.83177 0.0
O428 O 0.47513 0.60527 0.82 0.0
C429 C 0.46529 0.70291 0.83867 0.0
O430 O 0.44086 0.64689 0.86908 0.0
C431 C 0.46926 0.60893 0.80717 0.0
O432 O 0.43973 0.6152 0.84595 0.0
O433 O 0.45859 0.61448 0.80902 0.0
C434 C 0.28234 0.18152 0.86092 0.0
O435 O 0.28272 0.16483 0.87455 0.0
Cd436 Cd 0.28583 0.09938 0.87895 0.0
O437 O 0.28384 0.16311 0.84775 0.0
Cd438 Cd 0.28743 0.09551 0.84046 0.0
C439 C 0.31249 0.09244 0.86162 0.0
O440 O 0.27316 0.07315 0.85958 0.0
O441 O 0.28356 0.03 0.84836 0.0
O442 O 0.2746 0.10674 0.81761 0.0
C443 C 0.27479 0.03843 0.85664 0.0
O444 O 0.30612 0.09024 0.87408 0.0
C445 C 0.27961 0.08429 0.8079 0.0
O446 O 0.30812 0.09669 0.84755 0.0
O447 O 0.28907 0.07037 0.81266 0.0
C448 C 0.03001 0.74777 0.15545 0.0
C449 C 0.03818 0.7593 0.16688 0.0
C450 C 0.03011 0.71081 0.14951 0.0
C451 C 0.04985 0.63218 0.14292 0.0
H452 H 0.02215 0.57692 0.13265 0.0
C453 C 0.0355 0.47656 0.11759 0.0
C454 C 0.04305 0.47325 0.10444 0.0
C455 C 0.03471 0.51048 0.12616 0.0
C456 C 0.02996 0.59186 0.1356 0.0
H457 H 0.05248 0.74098 0.18172 0.0
H458 H 0.05256 0.67605 0.17146 0.0
H459 H 0.02086 0.63685 0.1473 0.0
H460 H 0.05554 0.50274 0.08969 0.0
H461 H 0.05402 0.56239 0.10454 0.0
H462 H 0.05896 0.58706 0.13136 0.0
C463 C 0.04622 0.69583 0.16689 0.0
C464 C 0.02921 0.62625 0.14385 0.0
C465 C 0.04615 0.73286 0.1728 0.0
C466 C 0.0497 0.50452 0.09985 0.0
C467 C 0.04888 0.53851 0.1084 0.0
C468 C 0.0506 0.59776 0.13471 0.0
C469 C 0.03835 0.68472 0.15496 0.0
C470 C 0.03914 0.64689 0.14743 0.0
C471 C 0.04142 0.5417 0.12168 0.0
C472 C 0.04065 0.57752 0.13083 0.0
H473 H 0.02375 0.76758 0.15069 0.0
H474 H 0.02401 0.70314 0.14019 0.0
H475 H 0.05764 0.64774 0.14535 0.0
H476 H 0.03029 0.45282 0.12142 0.0
H477 H 0.02899 0.51207 0.13645 0.0
C478 C 0.22746 0.70711 0.10533 0.0
C479 C 0.2191 0.72143 0.09481 0.0
C480 C 0.23351 0.67436 0.10131 0.0
C481 C 0.22966 0.58806 0.07762 0.0
H482 H 0.25763 0.56403 0.1007 0.0
C483 C 0.23612 0.44137 0.10293 0.0
C484 C 0.23387 0.4476 0.11942 0.0
C485 C 0.23988 0.47135 0.09319 0.0
C486 C 0.25005 0.57031 0.09363 0.0
H487 H 0.21097 0.71444 0.07137 0.0
H488 H 0.22169 0.65738 0.06418 0.0
H489 H 0.25302 0.63006 0.09462 0.0
H490 H 0.23479 0.48783 0.13917 0.0
H491 H 0.24169 0.53976 0.1224 0.0
H492 H 0.22636 0.52853 0.07759 0.0
C493 C 0.22339 0.67084 0.07573 0.0
C494 C 0.24729 0.60809 0.09037 0.0
C495 C 0.21718 0.70331 0.0799 0.0
C496 C 0.23641 0.48272 0.12642 0.0
C497 C 0.2405 0.51216 0.11686 0.0
C498 C 0.23254 0.5503 0.08058 0.0
C499 C 0.23149 0.65554 0.08653 0.0
C500 C 0.23655 0.6174 0.08376 0.0
C501 C 0.24179 0.50723 0.10006 0.0
C502 C 0.24221 0.54155 0.08993 0.0
H503 H 0.22916 0.72078 0.11684 0.0
H504 H 0.23943 0.66303 0.11018 0.0
H505 H 0.22138 0.59394 0.07234 0.0
H506 H 0.23419 0.41428 0.09737 0.0
H507 H 0.24065 0.4672 0.08023 0.0
C508 C 0.96652 0.20767 0.8724 0.0
C509 C 0.95973 0.20419 0.85844 0.0
C510 C 0.96566 0.23985 0.88214 0.0
C511 C 0.94768 0.32455 0.88999 0.0
H512 H 0.97667 0.3727 0.89966 0.0
C513 C 0.95027 0.47806 0.91334 0.0
C514 C 0.95798 0.50056 0.90454 0.0
C515 C 0.95054 0.43866 0.91185 0.0
C516 C 0.96851 0.35944 0.89715 0.0
H517 H 0.94655 0.23098 0.84386 0.0
H518 H 0.94526 0.28763 0.86059 0.0
H519 H 0.97646 0.30812 0.88924 0.0
H520 H 0.97213 0.49973 0.88755 0.0
H521 H 0.97244 0.43112 0.88469 0.0
H522 H 0.93979 0.3769 0.89681 0.0
C523 C 0.95107 0.2652 0.86424 0.0
C524 C 0.96838 0.32235 0.89136 0.0
C525 C 0.9519 0.23299 0.85455 0.0
C526 C 0.96607 0.48307 0.89445 0.0
C527 C 0.96633 0.44377 0.89296 0.0
C528 C 0.94782 0.36173 0.89572 0.0
C529 C 0.95802 0.2691 0.87804 0.0
C530 C 0.95798 0.30513 0.88713 0.0
C531 C 0.95853 0.42122 0.90157 0.0
C532 C 0.95827 0.37994 0.89872 0.0
H533 H 0.97255 0.18563 0.87577 0.0
H534 H 0.97105 0.24204 0.89278 0.0
H535 H 0.93954 0.31162 0.88709 0.0
H536 H 0.944 0.49086 0.92132 0.0
H537 H 0.94447 0.42185 0.91866 0.0
C538 C 0.79688 0.47384 0.82664 0.0
C539 C 0.79146 0.49157 0.83982 0.0
C540 C 0.79531 0.43519 0.82377 0.0
C541 C 0.79824 0.35131 0.82961 0.0
H542 H 0.77144 0.29868 0.84552 0.0
C543 C 0.80154 0.21988 0.86753 0.0
C544 C 0.7927 0.19315 0.86814 0.0
C545 C 0.80071 0.25121 0.85737 0.0
C546 C 0.77891 0.3126 0.84056 0.0
H547 H 0.77993 0.48335 0.86004 0.0
H548 H 0.77762 0.41572 0.8556 0.0
H549 H 0.77025 0.366 0.8394 0.0
H550 H 0.77633 0.17688 0.85792 0.0
H551 H 0.77486 0.23208 0.84004 0.0
H552 H 0.80695 0.29806 0.83106 0.0
C553 C 0.78279 0.43162 0.84711 0.0
C554 C 0.77827 0.35137 0.8373 0.0
C555 C 0.78424 0.47031 0.84983 0.0
C556 C 0.78323 0.19733 0.85779 0.0
C557 C 0.78239 0.22883 0.84756 0.0
C558 C 0.79883 0.31246 0.83263 0.0
C559 C 0.78842 0.41348 0.83416 0.0
C560 C 0.78813 0.37155 0.83286 0.0
C561 C 0.79102 0.25651 0.84752 0.0
C562 C 0.78939 0.29334 0.83922 0.0
H563 H 0.80234 0.48981 0.81854 0.0
H564 H 0.79965 0.42221 0.81358 0.0
H565 H 0.806 0.3658 0.8261 0.0
H566 H 0.80897 0.21732 0.8753 0.0
H567 H 0.80741 0.27232 0.85793 0.0
C568 C 0.00926 0.00806 0.60866 0.0
C569 C 0.01273 -0.00212 0.59303 0.0
C570 C 0.0049 0.04429 0.61157 0.0
C571 C 0.00875 0.13833 0.59334 0.0
H572 H 0.99644 0.16716 0.63517 0.0
C573 C 0.02207 0.27656 0.62347 0.0
C574 C 0.02856 0.26668 0.63718 0.0
C575 C 0.01447 0.25053 0.6167 0.0
C576 C 0.99963 0.15976 0.62325 0.0
H577 H 0.01301 0.01464 0.56781 0.0
H578 H 0.00464 0.07706 0.57261 0.0
H579 H 0.99188 0.10497 0.6239 0.0
H580 H 0.03164 0.22329 0.65529 0.0
H581 H 0.01831 0.17788 0.64352 0.0
H582 H 0.01679 0.19259 0.59301 0.0
C583 C 0.00588 0.05827 0.58285 0.0
C584 C 0.99715 0.12403 0.61685 0.0
C585 C 0.01063 0.02254 0.58005 0.0
C586 C 0.02685 0.23134 0.64458 0.0
C587 C 0.01909 0.20566 0.63801 0.0
C588 C 0.01097 0.17427 0.59955 0.0
C589 C 0.00367 0.07058 0.59878 0.0
C590 C 0.00247 0.11176 0.60246 0.0
C591 C 0.01306 0.21468 0.6238 0.0
C592 C 0.00713 0.18411 0.61506 0.0
H593 H 0.01076 -0.01082 0.61881 0.0
H594 H 0.00343 0.0524 0.62404 0.0
H595 H 0.01304 0.13042 0.58223 0.0
H596 H 0.0232 0.30382 0.61762 0.0
H597 H 0.00998 0.25783 0.60563 0.0
C598 C 0.23071 -0.01337 0.65807 0.0
C599 C 0.22613 0.96947 0.64421 0.0
C600 C 0.23972 0.01227 0.65668 0.0
C601 C 0.25797 0.06205 0.62549 0.0
H602 H 0.24896 0.14912 0.65116 0.0
C603 C 0.24301 0.19822 0.60043 0.0
C604 C 0.24346 0.23191 0.60944 0.0
C605 C 0.24875 0.16597 0.60583 0.0
C606 C 0.25198 0.12511 0.64415 0.0
H607 H 0.22765 0.96297 0.61827 0.0
H608 H 0.24258 0.01037 0.61546 0.0
H609 H 0.24369 0.08683 0.66001 0.0
H610 H 0.25119 0.25979 0.63014 0.0
H611 H 0.2609 0.20264 0.63998 0.0
H612 H 0.26495 0.10184 0.60856 0.0
C613 C 0.23973 0.00324 0.62756 0.0
C614 C 0.24892 0.08891 0.64924 0.0
C615 C 0.231 0.97655 0.62905 0.0
C616 C 0.25059 0.23389 0.62311 0.0
C617 C 0.25622 0.20138 0.62867 0.0
C618 C 0.26083 0.09848 0.62022 0.0
C619 C 0.24396 0.02243 0.64132 0.0
C620 C 0.25102 0.05723 0.63927 0.0
C621 C 0.2549 0.16671 0.62048 0.0
C622 C 0.257 0.13036 0.62889 0.0
H623 H 0.22726 0.98039 0.66996 0.0
H624 H 0.24298 0.02531 0.66761 0.0
H625 H 0.26024 0.03812 0.61791 0.0
H626 H 0.23775 0.19621 0.58966 0.0
H627 H 0.24745 0.13962 0.59933 0.0
C628 C 0.97024 0.92703 0.39116 0.0
C629 C 0.97255 0.95411 0.37914 0.0
C630 C 0.97877 0.90241 0.39645 0.0
C631 C 0.00265 0.85077 0.382 0.0
H632 H 1.00169 0.81566 0.42652 0.0
C633 C 1.00187 0.69651 0.39142 0.0
C634 C 0.99047 0.6911 0.39617 0.0
C635 C 0.00737 0.73072 0.39497 0.0
C636 C 0.00247 0.82552 0.41413 0.0
H637 H 0.98562 0.97661 0.36319 0.0
H638 H 1.00051 0.93184 0.37201 0.0
H639 H 0.99595 0.88055 0.42013 0.0
H640 H 0.97642 0.71376 0.41019 0.0
H641 H 0.98598 0.7727 0.41675 0.0
H642 H 0.00783 0.79468 0.37569 0.0
C643 C 0.99212 0.93057 0.37754 0.0
C644 C 0.99911 0.86257 0.41046 0.0
C645 C 0.98358 0.95577 0.37238 0.0
C646 C 0.9852 0.71764 0.40632 0.0
C647 C 0.99076 0.75126 0.4102 0.0
C648 C 0.00599 0.81371 0.38568 0.0
C649 C 0.9898 0.90394 0.38975 0.0
C650 C 0.99812 0.87408 0.39421 0.0
C651 C 1.00157 0.75935 0.40355 0.0
C652 C 0.00472 0.79972 0.40155 0.0
H653 H 0.96187 0.92518 0.39672 0.0
H654 H 0.97662 0.88139 0.40552 0.0
H655 H 0.00212 0.85911 0.36939 0.0
H656 H 0.00607 0.6762 0.38355 0.0
H657 H 0.01569 0.73622 0.38972 0.0
C658 C 0.7683 0.74045 0.38945 0.0
C659 C 0.77804 0.74669 0.39905 0.0
C660 C 0.76022 0.76917 0.3873 0.0
C661 C 0.75151 0.86559 0.40087 0.0
H662 H 0.75024 0.88537 0.35476 0.0
C663 C 0.7599 0.0089 0.37488 0.0
C664 C 0.75804 0.01529 0.35837 0.0
C665 C 0.75558 0.97626 0.38218 0.0
C666 C 0.75001 0.88033 0.36769 0.0
H667 H 0.78663 0.78691 0.41474 0.0
H668 H 0.77269 0.83751 0.41061 0.0
H669 H 0.75565 0.82345 0.36413 0.0
H670 H 0.74905 -0.00338 0.33693 0.0
H671 H 0.74076 0.94084 0.3499 0.0
H672 H 0.74638 0.9233 0.40439 0.0
C673 C 0.77119 0.81023 0.40495 0.0
C674 C 0.7532 0.84446 0.37308 0.0
C675 C 0.77928 0.78151 0.4071 0.0
C676 C 0.7507 -0.00848 0.34967 0.0
C677 C 0.74604 0.95958 0.3571 0.0
C678 C 0.74812 0.90149 0.39547 0.0
C679 C 0.76173 0.80463 0.39472 0.0
C680 C 0.75475 0.83758 0.38967 0.0
C681 C 0.74916 0.94997 0.37308 0.0
C682 C 0.74821 0.91007 0.3788 0.0
H683 H 0.76701 0.71362 0.38331 0.0
H684 H 0.75299 0.7641 0.37939 0.0
H685 H 0.75238 0.86061 0.41377 0.0
H686 H 0.76554 0.02723 0.38175 0.0
H687 H 0.75826 0.97012 0.39446 0.0
C688 C 0.50898 0.70929 0.65195 0.0
C689 C 0.51372 0.72575 0.63805 0.0
C690 C 0.50148 0.67878 0.65055 0.0
C691 C 0.48992 0.61017 0.6194 0.0
H692 H 0.5043 0.53887 0.64881 0.0
C693 C 0.51859 0.49493 0.59996 0.0
C694 C 0.52023 0.46177 0.60905 0.0
C695 C 0.51009 0.52072 0.60424 0.0
C696 C 0.49981 0.55799 0.64071 0.0
H697 H 0.51373 0.72642 0.61189 0.0
H698 H 0.50148 0.67124 0.60925 0.0
H699 H 0.5028 0.60432 0.65647 0.0
H700 H 0.51378 0.42797 0.629 0.0
H701 H 0.49917 0.47434 0.63704 0.0
H702 H 0.48841 0.56368 0.60281 0.0
C703 C 0.50302 0.68224 0.6213 0.0
C704 C 0.49893 0.59602 0.6451 0.0
C705 C 0.51021 0.71362 0.62273 0.0
C706 C 0.51276 0.45365 0.62193 0.0
C707 C 0.50435 0.47988 0.62642 0.0
C708 C 0.491 0.57212 0.61489 0.0
C709 C 0.49906 0.66308 0.63524 0.0
C710 C 0.49501 0.62316 0.63383 0.0
C711 C 0.50316 0.51415 0.61787 0.0
C712 C 0.49692 0.54663 0.62495 0.0
H713 H 0.51141 0.71917 0.6639 0.0
H714 H 0.49827 0.66583 0.66153 0.0
H715 H 0.48628 0.62996 0.61077 0.0
H716 H 0.5241 0.50149 0.58979 0.0
H717 H 0.50954 0.54717 0.59759 0.0
C718 C 0.73901 0.73406 0.59205 0.0
C719 C 0.73413 0.75067 0.60584 0.0
C720 C 0.7475 0.70644 0.59366 0.0
C721 C 0.76252 0.64722 0.62547 0.0
H722 H 0.75109 0.56683 0.59791 0.0
C723 C 0.7398 0.52148 0.64771 0.0
C724 C 0.73929 0.48751 0.63892 0.0
C725 C 0.74718 0.55027 0.64294 0.0
C726 C 0.75478 0.58872 0.60549 0.0
H727 H 0.73476 0.75454 0.63194 0.0
H728 H 0.74874 0.704 0.63503 0.0
H729 H 0.74926 0.63143 0.58922 0.0
H730 H 0.74677 0.45537 0.61916 0.0
H731 H 0.75938 0.50681 0.61028 0.0
H732 H 0.7666 0.60366 0.64266 0.0
C733 C 0.74654 0.71288 0.62286 0.0
C734 C 0.75372 0.62628 0.6005 0.0
C735 C 0.73836 0.74151 0.62119 0.0
C736 C 0.74691 0.48161 0.626 0.0
C737 C 0.75419 0.51079 0.62102 0.0
C738 C 0.76338 0.60954 0.6306 0.0
C739 C 0.75085 0.69368 0.60912 0.0
C740 C 0.75657 0.65612 0.61111 0.0
C741 C 0.75407 0.54588 0.62911 0.0
C742 C 0.75855 0.58042 0.62123 0.0
H743 H 0.73605 0.74179 0.58004 0.0
H744 H 0.75089 0.6935 0.58277 0.0
H745 H 0.76538 0.66939 0.63358 0.0
H746 H 0.73416 0.5264 0.65792 0.0
H747 H 0.74674 0.57715 0.64929 0.0
C748 C 0.48907 0.51104 0.38294 0.0
C749 C 0.47947 0.50134 0.39232 0.0
C750 C 0.49714 0.48346 0.37874 0.0
C751 C 0.50531 0.38276 0.38656 0.0
H752 H 0.50594 0.37597 0.33971 0.0
C753 C 0.48713 0.27493 0.34107 0.0
C754 C 0.49048 0.24065 0.34826 0.0
C755 C 0.49302 0.30822 0.34447 0.0
C756 C 0.50611 0.37758 0.35282 0.0
H757 H 0.4711 0.45592 0.40541 0.0
H758 H 0.48493 0.40777 0.39784 0.0
H759 H 0.50252 0.43696 0.35253 0.0
H760 H 0.50329 0.21341 0.36338 0.0
H761 H 0.51357 0.27195 0.36948 0.0
H762 H 0.50734 0.32273 0.38686 0.0
C763 C 0.48641 0.43667 0.39391 0.0
C764 C 0.50424 0.41265 0.3602 0.0
C765 C 0.47834 0.46411 0.39803 0.0
C766 C 0.50038 0.23968 0.35793 0.0
C767 C 0.50631 0.27309 0.36133 0.0
C768 C 0.50701 0.34763 0.37918 0.0
C769 C 0.49577 0.44584 0.38397 0.0
C770 C 0.50275 0.41474 0.37707 0.0
C771 C 0.50242 0.30796 0.35514 0.0
C772 C 0.50629 0.34434 0.36223 0.0
H773 H 0.49021 0.53974 0.37853 0.0
H774 H 0.50425 0.49127 0.37105 0.0
H775 H 0.5046 0.38395 0.39964 0.0
H776 H 0.47964 0.27641 0.33337 0.0
H777 H 0.48963 0.33453 0.33966 0.0
C778 C 0.27797 0.44969 0.32058 0.0
C779 C 0.27525 0.46862 0.33504 0.0
C780 C 0.27572 0.41108 0.31893 0.0
C781 C 0.28207 0.33117 0.3268 0.0
H782 H 0.2611 0.27498 0.35403 0.0
C783 C 0.29679 0.21838 0.36983 0.0
C784 C 0.2902 0.18599 0.37283 0.0
C785 C 0.29285 0.24619 0.35925 0.0
C786 C 0.26686 0.28989 0.34599 0.0
H787 H 0.26715 0.46342 0.35851 0.0
H788 H 0.26382 0.39558 0.35612 0.0
H789 H 0.25604 0.33894 0.34518 0.0
H790 H 0.27445 0.15665 0.36692 0.0
H791 H 0.26739 0.20623 0.34858 0.0
H792 H 0.2931 0.28288 0.32827 0.0
C793 C 0.26739 0.41039 0.34581 0.0
C794 C 0.26403 0.32666 0.34107 0.0
C795 C 0.26942 0.44923 0.34731 0.0
C796 C 0.27969 0.18147 0.3648 0.0
C797 C 0.27566 0.20966 0.35432 0.0
C798 C 0.28484 0.29446 0.33162 0.0
C799 C 0.271 0.39054 0.33189 0.0
C800 C 0.27196 0.34857 0.33236 0.0
C801 C 0.28219 0.24235 0.35155 0.0
C802 C 0.27762 0.27459 0.34215 0.0
H803 H 0.28222 0.46444 0.31077 0.0
H804 H 0.27833 0.39688 0.30789 0.0
H805 H 0.28842 0.34697 0.32009 0.0
H806 H 0.30494 0.22253 0.37581 0.0
H807 H 0.29796 0.27149 0.3576 0.0
C808 C 0.5641 0.17662 0.14303 0.0
C809 C 0.56145 0.20669 0.13252 0.0
C810 C 0.56055 0.13981 0.13938 0.0
C811 C 0.53751 0.095 0.11618 0.0
H812 H 0.55128 0.00137 0.13153 0.0
C813 C 0.51544 0.95314 0.10663 0.0
C814 C 0.51399 0.93089 0.12062 0.0
C815 C 0.52305 -0.01664 0.10656 0.0
C816 C 0.54738 0.02739 0.12721 0.0
H817 H 0.55418 0.22174 0.10924 0.0
H818 H 0.54848 0.15724 0.10243 0.0
H819 H 0.56214 0.06067 0.13294 0.0
H820 H 0.5194 0.92319 0.14556 0.0
H821 H 0.53278 0.97645 0.14541 0.0
H822 H 0.52277 0.06205 0.11057 0.0
C823 C 0.55282 0.16214 0.11383 0.0
C824 C 0.55356 0.06127 0.128 0.0
C825 C 0.55614 0.19902 0.11766 0.0
C826 C 0.52044 0.93941 0.13453 0.0
C827 C 0.52812 0.96975 0.13443 0.0
C828 C 0.53143 0.06127 0.11523 0.0
C829 C 0.55447 0.13246 0.12501 0.0
C830 C 0.54863 0.09555 0.12265 0.0
C831 C 0.52933 -0.00769 0.12051 0.0
C832 C 0.53624 0.02726 0.12087 0.0
H833 H 0.56821 0.18189 0.15459 0.0
H834 H 0.56192 0.11775 0.14831 0.0
H835 H 0.53328 0.12088 0.11239 0.0
H836 H 0.51057 0.94759 0.09573 0.0
H837 H 0.52388 0.00022 0.09564 0.0
C838 C 0.69539 -0.01467 0.12794 0.0
C839 C 0.70087 0.94989 0.12779 0.0
C840 C 0.70046 0.01653 0.12053 0.0
C841 C 0.72826 0.05497 0.11033 0.0
H842 H 0.70998 0.12866 0.08687 0.0
C843 C 0.73788 0.21486 0.10758 0.0
C844 C 0.73407 0.2352 0.09401 0.0
C845 C 0.73617 0.17565 0.10841 0.0
C846 C 0.71531 0.10812 0.09309 0.0
H847 H 0.71582 0.91891 0.11945 0.0
H848 H 0.72475 0.97384 0.10655 0.0
H849 H 0.70175 0.06768 0.0939 0.0
H850 H 0.72672 0.23063 0.06996 0.0
H851 H 0.72405 0.16223 0.07121 0.0
H852 H 0.74174 0.09603 0.10988 0.0
C853 C 0.71654 0.97732 0.11244 0.0
C854 C 0.71053 0.07337 0.09727 0.0
C855 C 0.7114 0.94596 0.11974 0.0
C856 C 0.72952 0.21554 0.0807 0.0
C857 C 0.72798 0.17645 0.08143 0.0
C858 C 0.73306 0.08991 0.10617 0.0
C859 C 0.71115 0.01294 0.11291 0.0
C860 C 0.71684 0.04695 0.10632 0.0
C861 C 0.73076 0.15638 0.09559 0.0
C862 C 0.72653 0.11719 0.09787 0.0
H863 H 0.68727 -0.01083 0.13405 0.0
H864 H 0.6962 0.04381 0.12125 0.0
H865 H 0.73329 0.03507 0.11738 0.0
H866 H 0.74142 0.22951 0.11797 0.0
H867 H 0.73836 0.16098 0.11953 0.0
C868 C 0.47675 0.7592 0.84679 0.0
C869 C 0.46938 0.74165 0.83573 0.0
C870 C 0.4797 0.7972 0.84479 0.0
C871 C 0.48555 0.87857 0.83891 0.0
H872 H 0.45725 0.93363 0.83188 0.0
C873 C 0.47687 0.02437 0.86811 0.0
C874 C 0.46696 0.02211 0.87769 0.0
C875 C 0.4791 -0.00318 0.85632 0.0
C876 C 0.4653 0.91887 0.83358 0.0
H877 H 0.46029 0.74834 0.81299 0.0
H878 H 0.46566 0.81455 0.80926 0.0
H879 H 0.45888 0.86873 0.82261 0.0
H880 H 0.45149 -0.00987 0.8822 0.0
H881 H 0.45534 0.94224 0.86187 0.0
H882 H 0.4914 0.9278 0.85157 0.0
C883 C 0.46887 0.79948 0.81976 0.0
C884 C 0.46631 0.88166 0.82812 0.0
C885 C 0.46575 0.76166 0.82193 0.0
C886 C 0.45919 -0.00748 0.87507 0.0
C887 C 0.46134 0.9654 0.86323 0.0
C888 C 0.48448 0.91577 0.84454 0.0
C889 C 0.47546 0.81818 0.83154 0.0
C890 C 0.47613 0.8602 0.83181 0.0
C891 C 0.47134 0.96706 0.85383 0.0
C892 C 0.47403 0.93506 0.84294 0.0
H893 H 0.47975 0.74421 0.85744 0.0
H894 H 0.48465 0.81064 0.85426 0.0
H895 H 0.49337 0.86314 0.84145 0.0
H896 H 0.48299 0.04708 0.86989 0.0
H897 H 0.48689 -0.00152 0.84931 0.0
C898 C 0.25949 0.74548 0.89982 0.0
C899 C 0.27089 0.7485 0.90504 0.0
C900 C 0.25238 0.77733 0.89964 0.0
C901 C 0.25193 0.8811 0.90964 0.0
H902 H 0.24251 0.88936 0.86476 0.0
C903 C 0.26761 0.97227 0.8569 0.0
C904 C 0.2671 0.00923 0.86307 0.0
C905 C 0.26083 0.94392 0.86353 0.0
C906 C 0.24478 0.88756 0.87748 0.0
H907 H 0.28357 0.78629 0.91526 0.0
H908 H 0.27145 0.84209 0.91423 0.0
H909 H 0.24427 0.82726 0.87703 0.0
H910 H 0.25867 0.04633 0.88036 0.0
H911 H 0.24701 -0.00397 0.8924 0.0
H912 H 0.25395 0.94125 0.90928 0.0
C913 C 0.2678 0.81516 0.91065 0.0
C914 C 0.24573 0.85187 0.8846 0.0
C915 C 0.27486 0.78329 0.91096 0.0
C916 C 0.25928 0.01785 0.87549 0.0
C917 C 0.25257 -0.01074 0.8823 0.0
C918 C 0.25112 0.91679 0.90243 0.0
C919 C 0.25658 0.81283 0.90451 0.0
C920 C 0.25044 0.84825 0.90022 0.0
C921 C 0.25346 0.95186 0.87658 0.0
C922 C 0.24866 0.91975 0.88581 0.0
H923 H 0.25612 0.71869 0.89554 0.0
H924 H 0.24376 0.77452 0.895 0.0
H925 H 0.25512 0.87913 0.92194 0.0
H926 H 0.27346 0.96499 0.84721 0.0
H927 H 0.26193 0.91523 0.85907 0.0
C928 C 0.99022 0.6037 0.95733 0.0
C929 C 0.97821 0.60215 0.95752 0.0
C930 C 0.99668 0.5816 0.96803 0.0
C931 C 0.99513 0.51986 0.00462 0.0
H932 H 0.02057 0.46802 0.98398 0.0
C933 C 0.01757 0.39439 0.0357 0.0
C934 C 0.02958 0.39576 0.03618 0.0
C935 C 0.01141 0.41828 0.02536 0.0
C936 C 0.01355 0.48245 0.98996 0.0
H937 H 0.96356 0.57833 0.96991 0.0
H938 H 0.97481 0.53961 0.98855 0.0
H939 H 0.00979 0.51574 0.96895 0.0
H940 H 0.04455 0.42138 0.0253 0.0
H941 H 0.03379 0.46293 0.00712 0.0
H942 H 0.99884 0.4862 0.02557 0.0
C943 C 0.97927 0.55804 0.98019 0.0
C944 C 0.0074 0.51001 0.98139 0.0
C945 C 0.9728 0.58039 0.96953 0.0
C946 C 0.03531 0.41949 0.02518 0.0
C947 C 0.02913 0.44342 0.0148 0.0
C948 C 1.00126 0.49219 0.01317 0.0
C949 C 0.99128 0.55722 0.97913 0.0
C950 C 0.9981 0.52909 0.9886 0.0
C951 C 0.01711 0.44408 0.01522 0.0
C952 C 0.01052 0.47305 0.00593 0.0
H953 H 0.99465 0.62037 0.94828 0.0
H954 H 0.00591 0.58253 0.96718 0.0
H955 H 0.98813 0.53424 0.01063 0.0
H956 H 0.01287 0.37628 0.04394 0.0
H957 H 0.00216 0.4174 0.02568 0.0
C958 C 0.26424 0.64736 0.96197 0.0
C959 C 0.276 0.65411 0.95993 0.0
C960 C 0.25799 0.66704 0.97373 0.0
C961 C 0.26017 0.7279 0.01027 0.0
H962 H 0.23208 0.77226 0.99378 0.0
C963 C 0.23524 0.83741 0.048 0.0
C964 C 0.22336 0.8319 0.04901 0.0
C965 C 0.24171 0.81848 0.03623 0.0
C966 C 0.23984 0.75988 0.99865 0.0
H967 H 0.29058 0.68451 0.96963 0.0
H968 H 0.2797 0.71847 0.99029 0.0
H969 H 0.24323 0.72966 0.97666 0.0
H970 H 0.20886 0.80434 0.03767 0.0
H971 H 0.22011 0.77128 0.01724 0.0
H972 H 0.25674 0.75775 0.03232 0.0
C973 C 0.27529 0.69813 0.98271 0.0
C974 C 0.24622 0.73531 0.98884 0.0
C975 C 0.28154 0.67853 0.97088 0.0
C976 C 0.21798 0.80946 0.03718 0.0
C977 C 0.22446 0.79034 0.02546 0.0
C978 C 0.25376 0.75234 0.02011 0.0
C979 C 0.26336 0.69378 0.98381 0.0
C980 C 0.25645 0.71895 0.99454 0.0
C981 C 0.23646 0.79344 0.02524 0.0
C982 C 0.2435 0.76869 0.01444 0.0
H983 H 0.25969 0.62867 0.95379 0.0
H984 H 0.24886 0.66237 0.97453 0.0
H985 H 0.26795 0.71557 0.01508 0.0
H986 H 0.23965 0.85462 0.05689 0.0
H987 H 0.25089 0.8224 0.03615 0.0
C988 C 0.01631 0.87245 0.2303 0.0
C989 C 0.02816 0.87045 0.22744 0.0
C990 C 0.01143 0.85311 0.24337 0.0
C991 C 0.01662 0.76721 0.26689 0.0
H992 H 0.99137 0.80193 0.29349 0.0
C993 C 0.99782 0.67457 0.31798 0.0
C994 C 0.98604 0.67687 0.32123 0.0
C995 C 0.00293 0.6991 0.30684 0.0
C996 C 0.99831 0.79157 0.286 0.0
H997 H 0.04425 0.84901 0.23682 0.0
H998 H 0.03571 0.81537 0.25966 0.0
H999 H 1.00063 0.846 0.27482 0.0
H1000 H 0.97032 0.70602 0.31489 0.0
H1001 H 0.97916 0.74808 0.29501 0.0
H1002 H 0.01416 0.71262 0.27759 0.0
C1003 C 0.0302 0.83155 0.25166 0.0
C1004 C 0.00366 0.81696 0.27539 0.0
C1005 C 0.0351 0.8512 0.23868 0.0
C1006 C 0.97942 0.70353 0.31267 0.0
C1007 C 0.98452 0.72794 0.3014 0.0
C1008 C 0.01121 0.74176 0.27736 0.0
C1009 C 0.01827 0.83112 0.25379 0.0
C1010 C 0.0129 0.80507 0.26575 0.0
C1011 C 0.99638 0.72643 0.2985 0.0
C1012 C 0.00199 0.75355 0.28709 0.0
H1013 H 0.01072 0.88702 0.22186 0.0
H1014 H 0.00221 0.85335 0.24467 0.0
H1015 H 0.02355 0.75691 0.25936 0.0
H1016 H 0.0032 0.65459 0.32445 0.0
H1017 H 0.01209 0.69733 0.30515 0.0
C1018 C 0.22146 0.43676 0.20449 0.0
C1019 C 0.22821 0.41063 0.19585 0.0
C1020 C 0.22636 0.45997 0.21641 0.0
C1021 C 0.25284 0.47195 0.24133 0.0
H1022 H 0.24284 0.57681 0.24402 0.0
C1023 C 0.27837 0.57925 0.27827 0.0
C1024 C 0.27196 0.59697 0.29055 0.0
C1025 C 0.27288 0.56123 0.26534 0.0
C1026 C 0.2457 0.54759 0.24337 0.0
H1027 H 0.24534 0.38763 0.19334 0.0
H1028 H 0.25387 0.42824 0.21367 0.0
H1029 H 0.23321 0.53325 0.22542 0.0
H1030 H 0.25484 0.61342 0.29786 0.0
H1031 H 0.24529 0.58269 0.27506 0.0
H1032 H 0.26546 0.4865 0.25903 0.0
C1033 C 0.24475 0.43058 0.21158 0.0
C1034 C 0.24013 0.52247 0.23284 0.0
C1035 C 0.23985 0.40723 0.19982 0.0
C1036 C 0.26003 0.59994 0.28863 0.0
C1037 C 0.25455 0.58224 0.27559 0.0
C1038 C 0.25849 0.49711 0.25164 0.0
C1039 C 0.23814 0.45775 0.21988 0.0
C1040 C 0.24366 0.48429 0.23163 0.0
C1041 C 0.26089 0.56103 0.2643 0.0
C1042 C 0.25503 0.53523 0.25274 0.0
H1043 H 0.21246 0.44011 0.20171 0.0
H1044 H 0.22093 0.48 0.22274 0.0
H1045 H 0.25566 0.44266 0.24108 0.0
H1046 H 0.28757 0.57644 0.27933 0.0
H1047 H 0.27799 0.54566 0.25663 0.0
C1048 C 0.77217 0.17055 0.94881 0.0
C1049 C 0.7839 0.16291 0.94688 0.0
C1050 C 0.76837 0.19648 0.96044 0.0
C1051 C 0.77646 0.2455 0.99818 0.0
H1052 H 0.75241 0.3156 0.98558 0.0
C1053 C 0.75947 0.35575 0.04347 0.0
C1054 C 0.7475 0.35794 0.04468 0.0
C1055 C 0.76463 0.33785 0.03022 0.0
C1056 C 0.75908 0.29613 0.98934 0.0
H1057 H 0.80081 0.17579 0.95604 0.0
H1058 H 0.79415 0.22103 0.97653 0.0
H1059 H 0.75998 0.2706 0.96582 0.0
H1060 H 0.73159 0.34574 0.03224 0.0
H1061 H 0.74055 0.31438 0.00922 0.0
H1062 H 0.7754 0.27027 0.02178 0.0
C1063 C 0.7879 0.20684 0.96899 0.0
C1064 C 0.76341 0.27027 0.97801 0.0
C1065 C 0.79172 0.1809 0.95727 0.0
C1066 C 0.74084 0.34469 0.03168 0.0
C1067 C 0.746 0.3266 0.01845 0.0
C1068 C 0.7721 0.27126 0.00953 0.0
C1069 C 0.77618 0.21545 0.97049 0.0
C1070 C 0.77205 0.24429 0.98235 0.0
C1071 C 0.75794 0.32157 0.01788 0.0
C1072 C 0.76326 0.29665 0.00532 0.0
H1073 H 0.76588 0.15714 0.94106 0.0
H1074 H 0.75927 0.2018 0.9615 0.0
H1075 H 0.78303 0.22567 0.00196 0.0
H1076 H 0.76486 0.36587 0.05323 0.0
H1077 H 0.77386 0.3354 0.02998 0.0
C1078 C 0.98994 0.12583 0.78534 0.0
C1079 C 0.97816 0.13287 0.78696 0.0
C1080 C 0.99655 0.1469 0.77451 0.0
C1081 C 0.9972 0.24073 0.75534 0.0
H1082 H 0.02218 0.19788 0.73042 0.0
C1083 C 0.02389 0.32783 0.70931 0.0
C1084 C 0.03543 0.31798 0.70698 0.0
C1085 C 0.01697 0.30679 0.71981 0.0
C1086 C 0.01536 0.21045 0.73751 0.0
H1087 H 0.96397 0.16633 0.77787 0.0
H1088 H 0.97554 0.20318 0.75882 0.0
H1089 H 0.00954 0.15604 0.74555 0.0
H1090 H 0.04896 0.28003 0.71482 0.0
H1091 H 0.03701 0.24409 0.73351 0.0
H1092 H 0.0031 0.29518 0.74747 0.0
C1093 C 0.97966 0.18149 0.76608 0.0
C1094 C 0.00806 0.18637 0.74609 0.0
C1095 C 0.97301 0.16007 0.77684 0.0
C1096 C 0.0401 0.28834 0.71628 0.0
C1097 C 0.03319 0.26739 0.72684 0.0
C1098 C 0.00455 0.26486 0.74681 0.0
C1099 C 0.99156 0.17578 0.7651 0.0
C1100 C 0.9989 0.2012 0.75515 0.0
C1101 C 0.02144 0.27548 0.72831 0.0
C1102 C 0.01376 0.25006 0.73782 0.0
H1103 H 0.99417 0.10511 0.79299 0.0
H1104 H 0.00568 0.14186 0.77415 0.0
H1105 H 0.99036 0.25314 0.76242 0.0
H1106 H 0.01998 0.3504 0.70229 0.0
H1107 H 0.00797 0.31386 0.72054 0.0
C1108 C 0.73905 0.42113 0.70773 0.0
C1109 C 0.72734 0.4268 0.70469 0.0
C1110 C 0.74471 0.44253 0.71952 0.0
C1111 C 0.74185 0.53427 0.74143 0.0
H1112 H 0.76828 0.49708 0.76497 0.0
C1113 C 0.76412 0.61304 0.79466 0.0
C1114 C 0.77611 0.61072 0.79558 0.0
C1115 C 0.75816 0.59399 0.78241 0.0
C1116 C 0.761 0.50801 0.75831 0.0
H1117 H 0.71222 0.45732 0.71255 0.0
H1118 H 0.72198 0.49346 0.73361 0.0
H1119 H 0.75745 0.45375 0.74789 0.0
H1120 H 0.79128 0.58886 0.78368 0.0
H1121 H 0.78086 0.55557 0.76233 0.0
H1122 H 0.74529 0.58836 0.75232 0.0
C1123 C 0.7269 0.47348 0.72648 0.0
C1124 C 0.75476 0.48314 0.74852 0.0
C1125 C 0.72125 0.45232 0.71455 0.0
C1126 C 0.78205 0.5914 0.78328 0.0
C1127 C 0.77608 0.57192 0.77116 0.0
C1128 C 0.74801 0.55903 0.7514 0.0
C1129 C 0.73879 0.46988 0.72873 0.0
C1130 C 0.74511 0.49591 0.73986 0.0
C1131 C 0.76406 0.57187 0.77097 0.0
C1132 C 0.7577 0.54622 0.75987 0.0
H1133 H 0.74404 0.4019 0.7003 0.0
H1134 H 0.75387 0.43899 0.72075 0.0
H1135 H 0.73463 0.54548 0.73472 0.0
H1136 H 0.75929 0.6276 0.80398 0.0
H1137 H 0.7489 0.59451 0.78258 0.0
C1138 C 0.9786 0.04496 0.4357 0.0
C1139 C 0.96702 0.03611 0.4332 0.0
C1140 C 0.98476 0.02817 0.44837 0.0
C1141 C 0.98184 0.97429 0.48684 0.0
H1142 H 0.01217 0.93747 0.47596 0.0
C1143 C 0.00726 0.88168 0.53164 0.0
C1144 C 0.01871 0.89225 0.53421 0.0
C1145 C 1.00112 0.89603 0.51843 0.0
C1146 C 0.00375 0.94778 0.47924 0.0
H1147 H 0.95268 0.0041 0.44261 0.0
H1148 H 0.96339 0.97495 0.46475 0.0
H1149 H 1.00099 0.97187 0.45574 0.0
H1150 H 0.03288 0.92408 0.52421 0.0
H1151 H 0.02219 0.94901 0.50118 0.0
H1152 H 0.98461 0.95039 0.51036 0.0
C1153 C 0.96773 -0.00504 0.45694 0.0
C1154 C 0.99735 0.96767 0.46767 0.0
C1155 C 0.96157 0.01174 0.44424 0.0
C1156 C 0.0241 0.91521 0.52257 0.0
C1157 C 0.01795 0.9296 0.50935 0.0
C1158 C 0.98824 0.95442 0.49842 0.0
C1159 C 0.97948 0.00213 0.45888 0.0
C1160 C 0.98632 0.98133 0.47133 0.0
C1161 C 0.00626 0.9213 0.50744 0.0
C1162 C 0.99929 0.94094 0.49479 0.0
H1163 H 0.98308 0.06363 0.42744 0.0
H1164 H 0.99373 0.03501 0.44972 0.0
H1165 H 0.97345 -0.01526 0.49016 0.0
H1166 H 0.00284 0.86394 0.54032 0.0
H1167 H 0.99221 0.8883 0.51711 0.0
C1168 C 0.27419 0.14204 0.45417 0.0
C1169 C 0.28583 0.14949 0.45138 0.0
C1170 C 0.26802 0.163 0.46559 0.0
C1171 C 0.26815 0.25501 0.48714 0.0
H1172 H 0.24503 0.20683 0.51369 0.0
C1173 C 0.24551 0.32792 0.54152 0.0
C1174 C 0.23413 0.31778 0.54489 0.0
C1175 C 0.25145 0.31082 0.52873 0.0
C1176 C 0.25132 0.22089 0.50617 0.0
H1177 H 0.30019 0.18417 0.45877 0.0
H1178 H 0.28943 0.22046 0.47897 0.0
H1179 H 0.25658 0.16846 0.49543 0.0
H1180 H 0.21978 0.28419 0.53656 0.0
H1181 H 0.23006 0.25496 0.51407 0.0
H1182 H 0.26292 0.30746 0.49809 0.0
C1183 C 0.28505 0.19872 0.47211 0.0
C1184 C 0.25799 0.19881 0.49574 0.0
C1185 C 0.29124 0.17765 0.46067 0.0
C1186 C 0.22855 0.29254 0.53436 0.0
C1187 C 0.23449 0.27543 0.52158 0.0
C1188 C 0.26148 0.27713 0.49763 0.0
C1189 C 0.27331 0.192 0.47455 0.0
C1190 C 0.26648 0.21554 0.48605 0.0
C1191 C 0.24614 0.28321 0.51901 0.0
C1192 C 0.25295 0.26035 0.50725 0.0
H1193 H 0.26972 0.12068 0.44719 0.0
H1194 H 0.25898 0.15725 0.46698 0.0
H1195 H 0.27449 0.26894 0.47968 0.0
H1196 H 0.25008 0.34725 0.5494 0.0
H1197 H 0.26041 0.31749 0.52713 0.0
C1198 C 0.22598 0.89221 0.71049 0.0
C1199 C 0.21504 0.90632 0.70672 0.0
C1200 C 0.23285 0.91048 0.72197 0.0
C1201 C 0.23692 0.00569 0.73951 0.0
H1202 H 0.25781 0.95414 0.76864 0.0
C1203 C 0.26271 0.08347 0.78928 0.0
C1204 C 0.27366 0.06979 0.79328 0.0
C1205 C 0.25594 0.06459 0.77787 0.0
C1206 C 0.25216 0.969 0.7604 0.0
H1207 H 0.20244 0.94917 0.71293 0.0
H1208 H 0.21433 0.98057 0.73316 0.0
H1209 H 0.24465 0.91712 0.75207 0.0
H1210 H 0.28636 0.02686 0.78762 0.0
H1211 H 0.27464 -0.00565 0.76746 0.0
H1212 H 0.24442 0.05756 0.74779 0.0
C1213 C 0.2177 0.95585 0.72697 0.0
C1214 C 0.24456 0.94774 0.75095 0.0
C1215 C 0.21082 0.93752 0.71552 0.0
C1216 C 0.27797 0.03819 0.78483 0.0
C1217 C 0.27119 0.01925 0.77342 0.0
C1218 C 0.24451 0.02695 0.74893 0.0
C1219 C 0.22895 0.94334 0.72993 0.0
C1220 C 0.23681 0.96581 0.74042 0.0
C1221 C 0.25996 0.03155 0.77015 0.0
C1222 C 0.25222 0.00891 0.75953 0.0
H1223 H 0.22952 0.86832 0.70391 0.0
H1224 H 0.24147 0.90008 0.72389 0.0
H1225 H 0.23125 0.02056 0.73127 0.0
H1226 H 0.2591 0.10765 0.79558 0.0
H1227 H 0.24734 0.07482 0.77574 0.0
C1228 C 0.77113 0.64622 0.45982 0.0
C1229 C 0.78255 0.65813 0.45837 0.0
C1230 C 0.76386 0.66294 0.47125 0.0
C1231 C 0.76308 0.72654 0.5074 0.0
H1232 H 0.73302 0.75296 0.49091 0.0
C1233 C 0.73407 0.83079 0.54173 0.0
C1234 C 0.72278 0.81862 0.54432 0.0
C1235 C 0.74105 0.81244 0.5304 0.0
C1236 C 0.74135 0.74559 0.49573 0.0
H1237 H 0.79548 0.69505 0.4686 0.0
H1238 H 0.78284 0.72424 0.48843 0.0
H1239 H 0.74596 0.71492 0.47432 0.0
H1240 H 0.70971 0.77954 0.53611 0.0
H1241 H 0.72185 0.74785 0.51621 0.0
H1242 H 0.75851 0.75761 0.52873 0.0
C1243 C 0.77947 0.70189 0.48081 0.0
C1244 C 0.74876 0.72355 0.48627 0.0
C1245 C 0.78675 0.68507 0.46942 0.0
C1246 C 0.71836 0.78972 0.53439 0.0
C1247 C 0.72533 0.77145 0.52301 0.0
C1248 C 0.7557 0.74872 0.51681 0.0
C1249 C 0.76782 0.69203 0.48148 0.0
C1250 C 0.75974 0.71379 0.49196 0.0
C1251 C 0.73689 0.78164 0.52134 0.0
C1252 C 0.74477 0.75867 0.51107 0.0
H1253 H 0.76762 0.62545 0.45153 0.0
H1254 H 0.75502 0.65394 0.4717 0.0
H1255 H 0.77139 0.71917 0.51228 0.0
H1256 H 0.73776 0.853 0.54913 0.0
H1257 H 0.74985 0.82153 0.52914 0.0
C1258 C 0.70196 0.933 0.2108 0.0
C1259 C 0.70677 0.90332 0.20166 0.0
C1260 C 0.70873 0.95411 0.22153 0.0
C1261 C 0.73654 0.95323 0.24342 0.0
H1262 H 0.73303 0.0627 0.24297 0.0
C1263 C 0.76876 0.04868 0.27649 0.0
C1264 C 0.76405 0.07726 0.28635 0.0
C1265 C 0.76199 0.02983 0.26507 0.0
C1266 C 0.73408 0.03216 0.24333 0.0
H1267 H 0.72237 0.87159 0.19714 0.0
H1268 H 0.7341 0.90815 0.21575 0.0
H1269 H 0.72033 0.02342 0.22657 0.0
H1270 H 0.74873 0.11025 0.29108 0.0
H1271 H 0.73695 0.07748 0.27119 0.0
H1272 H 0.75025 0.96184 0.26017 0.0
C1273 C 0.7251 0.91515 0.21474 0.0
C1274 C 0.72676 0.00961 0.23398 0.0
C1275 C 0.71836 0.8942 0.20402 0.0
C1276 C 0.75264 0.08842 0.28368 0.0
C1277 C 0.74587 0.06958 0.27225 0.0
C1278 C 0.74385 0.97574 0.25274 0.0
C1279 C 0.72044 0.94586 0.22341 0.0
C1280 C 0.72791 0.96984 0.23387 0.0
C1281 C 0.75035 0.03913 0.26321 0.0
C1282 C 0.74275 0.01552 0.25279 0.0
H1283 H 0.69307 0.94084 0.20923 0.0
H1284 H 0.70482 0.9772 0.2282 0.0
H1285 H 0.73758 0.9227 0.24384 0.0
H1286 H 0.77751 0.03941 0.27819 0.0
H1287 H 0.76579 0.00711 0.25804 0.0
C1288 C 0.48191 0.5796 0.46195 0.0
C1289 C 0.47097 0.56564 0.45822 0.0
C1290 C 0.48885 0.56099 0.47325 0.0
C1291 C 0.49311 0.46547 0.49057 0.0
H1292 H 0.51436 0.51699 0.51907 0.0
C1293 C 0.52011 0.38873 0.53971 0.0
C1294 C 0.53107 0.40288 0.54317 0.0
C1295 C 0.51305 0.40696 0.52841 0.0
C1296 C 0.5086 0.50214 0.511 0.0
H1297 H 0.45845 0.5227 0.46432 0.0
H1298 H 0.47048 0.49071 0.48431 0.0
H1299 H 0.50087 0.55402 0.50299 0.0
H1300 H 0.54353 0.44562 0.53655 0.0
H1301 H 0.53131 0.47694 0.51663 0.0
H1302 H 0.50084 0.41358 0.49862 0.0
C1303 C 0.47379 0.51556 0.4782 0.0
C1304 C 0.50082 0.52341 0.50183 0.0
C1305 C 0.46683 0.53421 0.46689 0.0
C1306 C 0.53513 0.43399 0.53421 0.0
C1307 C 0.52806 0.45226 0.52293 0.0
C1308 C 0.50089 0.4442 0.49976 0.0
C1309 C 0.48503 0.52798 0.48112 0.0
C1310 C 0.49298 0.50537 0.49148 0.0
C1311 C 0.5168 0.43977 0.52031 0.0
C1312 C 0.50875 0.46226 0.51006 0.0
H1313 H 0.48539 0.60367 0.45546 0.0
H1314 H 0.49746 0.57133 0.47513 0.0
H1315 H 0.48736 0.45062 0.48249 0.0
H1316 H 0.5167 0.3649 0.54642 0.0
H1317 H 0.50443 0.39658 0.52673 0.0
C1318 C 0.51355 0.79964 0.70264 0.0
C1319 C 0.52527 0.79334 0.69997 0.0
C1320 C 0.50766 0.7791 0.71448 0.0
C1321 C 0.5098 0.68808 0.73687 0.0
H1322 H 0.4836 0.72785 0.76012 0.0
C1323 C 0.48692 0.61196 0.79017 0.0
C1324 C 0.47501 0.61656 0.79151 0.0
C1325 C 0.49298 0.62981 0.7777 0.0
C1326 C 0.49081 0.71618 0.75353 0.0
H1327 H 0.54018 0.76269 0.70855 0.0
H1328 H 0.53002 0.72793 0.72963 0.0
H1329 H 0.49478 0.76994 0.74295 0.0
H1330 H 0.46001 0.64062 0.77991 0.0
H1331 H 0.47057 0.67154 0.75813 0.0
H1332 H 0.50591 0.63443 0.74783 0.0
C1333 C 0.52528 0.74781 0.7222 0.0
C1334 C 0.49725 0.74036 0.74371 0.0
C1335 C 0.53115 0.76817 0.71026 0.0
C1336 C 0.46917 0.63645 0.77925 0.0
C1337 C 0.47524 0.65461 0.76688 0.0
C1338 C 0.50341 0.66396 0.74683 0.0
C1339 C 0.51337 0.75197 0.72406 0.0
C1340 C 0.50682 0.72666 0.73519 0.0
C1341 C 0.48724 0.65283 0.76639 0.0
C1342 C 0.49381 0.6777 0.75521 0.0
H1343 H 0.50872 0.81863 0.69488 0.0
H1344 H 0.49851 0.78304 0.71545 0.0
H1345 H 0.51696 0.67623 0.73026 0.0
H1346 H 0.49168 0.59684 0.79941 0.0
H1347 H 0.50222 0.6278 0.77764 0.0
C1348 C 0.48223 0.16285 0.27771 0.0
C1349 C 0.48699 0.13878 0.28953 0.0
C1350 C 0.48907 0.17784 0.26534 0.0
C1351 C 0.51908 0.20347 0.25828 0.0
H1352 H 0.50923 0.22089 0.21406 0.0
C1353 C 0.54891 0.26691 0.20899 0.0
C1354 C 0.54392 0.29019 0.19709 0.0
C1355 C 0.54207 0.24848 0.22049 0.0
C1356 C 0.51207 0.21676 0.22643 0.0
H1357 H 0.50245 0.10918 0.29683 0.0
H1358 H 0.51428 0.13492 0.27519 0.0
H1359 H 0.49695 0.18561 0.23253 0.0
H1360 H 0.52793 0.31425 0.18857 0.0
H1361 H 0.5161 0.28329 0.20885 0.0
H1362 H 0.5341 0.23512 0.25233 0.0
C1363 C 0.50533 0.14285 0.27567 0.0
C1364 C 0.50503 0.19632 0.23699 0.0
C1365 C 0.4985 0.12777 0.28798 0.0
C1366 C 0.53204 0.29628 0.1975 0.0
C1367 C 0.52523 0.27815 0.20903 0.0
C1368 C 0.52609 0.22409 0.24776 0.0
C1369 C 0.5008 0.16914 0.26457 0.0
C1370 C 0.50844 0.18945 0.25305 0.0
C1371 C 0.5301 0.25316 0.22041 0.0
C1372 C 0.52267 0.23116 0.2317 0.0
H1373 H 0.47341 0.17204 0.27857 0.0
H1374 H 0.4853 0.19802 0.25698 0.0
H1375 H 0.52188 0.19931 0.27067 0.0
H1376 H 0.55803 0.2614 0.20892 0.0
H1377 H 0.54614 0.22933 0.229 0.0
C1378 C 0.48202 0.06783 0.96303 0.0
C1379 C 0.47061 0.06209 0.95825 0.0
C1380 C 0.48686 0.04609 0.97545 0.0
C1381 C 0.48403 0.95375 0.99573 0.0
H1382 H 0.50322 -0.00112 0.02878 0.0
C1383 C 0.49889 0.87235 0.05297 0.0
C1384 C 0.50933 0.88239 0.06023 0.0
C1385 C 0.49486 0.89194 0.03936 0.0
C1386 C 0.49808 -0.0144 0.01947 0.0
H1387 H 0.45526 0.02964 0.96306 0.0
H1388 H 0.46374 -0.00834 0.98479 0.0
H1389 H 0.49446 0.03909 0.00822 0.0
H1390 H 0.52414 0.91891 0.05811 0.0
H1391 H 0.51733 0.95208 0.03403 0.0
H1392 H 0.48771 0.9002 0.00685 0.0
C1393 C 0.46894 0.01284 0.97883 0.0
C1394 C 0.49299 0.00878 0.00774 0.0
C1395 C 0.46406 0.03487 0.96649 0.0
C1396 C 0.51603 0.91058 0.05287 0.0
C1397 C 0.51205 0.92994 0.03916 0.0
C1398 C 0.4892 0.93048 0.00739 0.0
C1399 C 0.48045 0.01786 0.98329 0.0
C1400 C 0.48585 -0.00682 0.99579 0.0
C1401 C 0.50123 0.92184 0.03257 0.0
C1402 C 0.49625 0.94611 0.01949 0.0
H1403 H 0.48731 0.08849 0.95689 0.0
H1404 H 0.49576 0.05052 0.97854 0.0
H1405 H 0.47873 0.94078 0.98651 0.0
H1406 H 0.49348 0.85092 0.05838 0.0
H1407 H 0.48647 0.88496 0.03473 0.0
C1408 C 0.17261 0.3483 0.13707 0.0
C1409 C 0.18048 0.35113 0.12426 0.0
C1410 C 0.16087 0.34508 0.13388 0.0
C1411 C 0.13916 0.36333 0.1021 0.0
H1412 H 0.12093 0.29128 0.12631 0.0
C1413 C 0.09133 0.33884 0.08724 0.0
C1414 C 0.08404 0.33795 0.10076 0.0
C1415 C 0.10323 0.33657 0.0893 0.0
C1416 C 0.12588 0.31171 0.11949 0.0
H1417 H 0.1821 0.35329 0.09804 0.0
H1418 H 0.16179 0.34769 0.09259 0.0
H1419 H 0.1413 0.29722 0.13212 0.0
H1420 H 0.08352 0.33192 0.12695 0.0
H1421 H 0.10403 0.32833 0.13048 0.0
H1422 H 0.12373 0.37831 0.08965 0.0
C1423 C 0.16463 0.34817 0.10509 0.0
C1424 C 0.13755 0.31519 0.12287 0.0
C1425 C 0.17632 0.35116 0.10824 0.0
C1426 C 0.08887 0.33293 0.11624 0.0
C1427 C 0.10068 0.33057 0.11828 0.0
C1428 C 0.12748 0.35996 0.09876 0.0
C1429 C 0.15675 0.34492 0.11783 0.0
C1430 C 0.14432 0.3412 0.11429 0.0
C1431 C 0.10805 0.3331 0.1049 0.0
C1432 C 0.12066 0.33433 0.1075 0.0
H1433 H 0.17552 0.34817 0.14953 0.0
H1434 H 0.155 0.34302 0.14399 0.0
H1435 H 0.1441 0.38393 0.09537 0.0
H1436 H 0.08789 0.34268 0.07516 0.0
H1437 H 0.10867 0.3381 0.0787 0.0
C1438 C 0.07954 0.90142 0.13474 0.0
C1439 C 0.07631 0.89652 0.15102 0.0
C1440 C 0.09105 0.90296 0.13037 0.0
C1441 C 0.12076 0.91006 0.14678 0.0
H1442 H 0.12827 0.85339 0.10787 0.0
C1443 C 0.16564 0.84986 0.13415 0.0
C1444 C 0.17016 0.85274 0.11839 0.0
C1445 C 0.15438 0.86047 0.1374 0.0
C1446 C 0.12632 0.86982 0.11862 0.0
H1447 H 0.08264 0.89106 0.17557 0.0
H1448 H 0.10282 0.89264 0.16794 0.0
H1449 H 0.10834 0.86303 0.11525 0.0
H1450 H 0.16631 0.86926 0.09367 0.0
H1451 H 0.14641 0.88727 0.09935 0.0
H1452 H 0.13884 0.91535 0.15041 0.0
C1453 C 0.09644 0.89606 0.15853 0.0
C1454 C 0.11487 0.87548 0.12287 0.0
C1455 C 0.08487 0.8951 0.16295 0.0
C1456 C 0.16309 0.86662 0.10593 0.0
C1457 C 0.15171 0.87686 0.10917 0.0
C1458 C 0.13222 0.90408 0.14259 0.0
C1459 C 0.09968 0.89897 0.14211 0.0
C1460 C 0.11191 0.89533 0.13711 0.0
C1461 C 0.14726 0.87396 0.12497 0.0
C1462 C 0.13512 0.88347 0.12857 0.0
H1463 H 0.07313 0.90309 0.12528 0.0
H1464 H 0.09317 0.90637 0.11768 0.0
H1465 H 0.11885 0.92604 0.15766 0.0
H1466 H 0.17082 0.83946 0.1441 0.0
H1467 H 0.15117 0.85736 0.14964 0.0
C1468 C 0.83212 0.64665 0.88252 0.0
C1469 C 0.82853 0.64426 0.86629 0.0
C1470 C 0.84336 0.65622 0.88636 0.0
C1471 C 0.87067 0.69381 0.86961 0.0
H1472 H 0.88389 0.63224 0.90384 0.0
C1473 C 0.91898 0.66598 0.87692 0.0
C1474 C 0.92359 0.66112 0.89253 0.0
C1475 C 0.90731 0.67262 0.87474 0.0
C1476 C 0.88031 0.65028 0.89448 0.0
H1477 H 0.83381 0.65168 0.84135 0.0
H1478 H 0.85366 0.66746 0.84802 0.0
H1479 H 0.86369 0.62664 0.89764 0.0
H1480 H 0.91967 0.66184 0.91819 0.0
H1481 H 0.89917 0.67348 0.9144 0.0
H1482 H 0.88751 0.7163 0.86613 0.0
C1483 C 0.84769 0.6625 0.85781 0.0
C1484 C 0.86868 0.64705 0.89089 0.0
C1485 C 0.83633 0.65334 0.85396 0.0
C1486 C 0.91638 0.66545 0.90601 0.0
C1487 C 0.90463 0.6718 0.90382 0.0
C1488 C 0.88235 0.6969 0.87317 0.0
C1489 C 0.85141 0.66313 0.87408 0.0
C1490 C 0.86371 0.66848 0.87831 0.0
C1491 C 0.89993 0.67436 0.88813 0.0
C1492 C 0.88733 0.67482 0.88554 0.0
H1493 H 0.82627 0.64046 0.89234 0.0
H1494 H 0.84579 0.6575 0.89902 0.0
H1495 H 0.86711 0.71114 0.86001 0.0
H1496 H 0.92432 0.66309 0.86627 0.0
H1497 H 0.904 0.67418 0.8625 0.0
C1498 C 0.91791 0.05412 0.84064 0.0
C1499 C 0.92543 0.05904 0.85376 0.0
C1500 C 0.90621 0.04788 0.84335 0.0
C1501 C 0.88502 0.02401 0.87597 0.0
H1502 H 0.86397 0.07953 0.84844 0.0
C1503 C 0.83786 0.05925 0.89339 0.0
C1504 C 0.82967 0.05624 0.88097 0.0
C1505 C 0.84953 0.0542 0.88997 0.0
C1506 C 0.86973 0.06349 0.85615 0.0
H1507 H 0.92653 0.05953 0.88006 0.0
H1508 H 0.90639 0.04969 0.88469 0.0
H1509 H 0.88429 0.07938 0.84207 0.0
H1510 H 0.82735 0.04361 0.85539 0.0
H1511 H 0.84752 0.03502 0.84958 0.0
H1512 H 0.87039 0.00933 0.89035 0.0
C1513 C 0.90942 0.05 0.8723 0.0
C1514 C 0.88139 0.06322 0.85244 0.0
C1515 C 0.92104 0.05603 0.8696 0.0
C1516 C 0.83338 0.04655 0.86527 0.0
C1517 C 0.84498 0.04177 0.86187 0.0
C1518 C 0.87335 0.02461 0.87976 0.0
C1519 C 0.90178 0.04648 0.85925 0.0
C1520 C 0.88923 0.04379 0.86238 0.0
C1521 C 0.85321 0.04628 0.87408 0.0
C1522 C 0.86558 0.04456 0.86995 0.0
H1523 H 0.92098 0.05616 0.82829 0.0
H1524 H 0.90061 0.0447 0.83299 0.0
H1525 H 0.89074 0.00815 0.88376 0.0
H1526 H 0.83532 0.06668 0.9056 0.0
H1527 H 0.85569 0.05795 0.89964 0.0
C1528 C 0.15693 0.90632 0.64726 0.0
C1529 C 0.16472 0.90396 0.63433 0.0
C1530 C 0.14514 0.90898 0.64426 0.0
C1531 C 0.12415 0.93087 0.61126 0.0
H1532 H 0.10292 0.87752 0.63912 0.0
C1533 C 0.0763 0.90715 0.59481 0.0
C1534 C 0.06838 0.91371 0.60732 0.0
C1535 C 0.08808 0.90714 0.59806 0.0
C1536 C 0.10874 0.89279 0.63129 0.0
H1537 H 0.16613 0.90223 0.60808 0.0
H1538 H 0.1458 0.90581 0.60296 0.0
H1539 H 0.12332 0.87586 0.64525 0.0
H1540 H 0.06671 0.9256 0.63306 0.0
H1541 H 0.08711 0.92532 0.63862 0.0
H1542 H 0.10953 0.94707 0.59713 0.0
C1543 C 0.14871 0.90668 0.61541 0.0
C1544 C 0.12044 0.89202 0.63485 0.0
C1545 C 0.16043 0.90436 0.61839 0.0
C1546 C 0.07253 0.92046 0.62309 0.0
C1547 C 0.08424 0.92005 0.62634 0.0
C1548 C 0.11246 0.9313 0.60762 0.0
C1549 C 0.14087 0.90908 0.62827 0.0
C1550 C 0.12833 0.91098 0.62486 0.0
C1551 C 0.09217 0.91322 0.6139 0.0
C1552 C 0.10462 0.91229 0.61759 0.0
H1553 H 0.15994 0.90615 0.65968 0.0
H1554 H 0.13938 0.91125 0.65449 0.0
H1555 H 0.12989 0.94646 0.60344 0.0
H1556 H 0.07342 0.90181 0.58255 0.0
H1557 H 0.09399 0.9016 0.58823 0.0
C1558 C 0.09596 0.32443 0.65367 0.0
C1559 C 0.08879 0.32765 0.64005 0.0
C1560 C 0.10781 0.31956 0.65174 0.0
C1561 C 0.12971 0.29206 0.62084 0.0
H1562 H 0.15062 0.34572 0.6491 0.0
C1563 C 0.17778 0.3124 0.6059 0.0
C1564 C 0.18559 0.30795 0.61873 0.0
C1565 C 0.16597 0.31224 0.60884 0.0
C1566 C 0.14489 0.33023 0.64119 0.0
H1567 H 0.08855 0.32845 0.61371 0.0
H1568 H 0.10896 0.3209 0.61044 0.0
H1569 H 0.13009 0.34978 0.65401 0.0
H1570 H 0.18701 0.29923 0.64472 0.0
H1571 H 0.16653 0.29904 0.64976 0.0
H1572 H 0.14453 0.27326 0.60782 0.0
C1573 C 0.10551 0.32116 0.62262 0.0
C1574 C 0.13311 0.33244 0.64405 0.0
C1575 C 0.09375 0.3258 0.62453 0.0
C1576 C 0.18129 0.30279 0.63451 0.0
C1577 C 0.16952 0.30293 0.63746 0.0
C1578 C 0.14147 0.29011 0.61792 0.0
C1579 C 0.11273 0.31791 0.63616 0.0
C1580 C 0.12534 0.31367 0.63382 0.0
C1581 C 0.16172 0.30795 0.62469 0.0
C1582 C 0.14921 0.30936 0.62799 0.0
H1583 H 0.09244 0.32568 0.6658 0.0
H1584 H 0.11309 0.31681 0.66246 0.0
H1585 H 0.12402 0.27654 0.61289 0.0
H1586 H 0.18078 0.31651 0.5936 0.0
H1587 H 0.16018 0.31643 0.59875 0.0
C1588 C 0.82359 0.06897 0.33973 0.0
C1589 C 0.81675 0.07172 0.35369 0.0
C1590 C 0.83548 0.06428 0.34106 0.0
C1591 C 0.85936 0.08158 0.36928 0.0
H1592 H 0.87589 0.00878 0.34296 0.0
C1593 C 0.90746 0.05094 0.37973 0.0
C1594 C 0.91429 0.04509 0.36594 0.0
C1595 C 0.89552 0.05277 0.37837 0.0
C1596 C 0.87145 0.02962 0.35028 0.0
H1597 H 0.81711 0.07113 0.38003 0.0
H1598 H 0.83768 0.06317 0.38226 0.0
H1599 H 0.85523 0.01525 0.33981 0.0
H1600 H 0.91386 0.03658 0.33988 0.0
H1601 H 0.89322 0.04063 0.33749 0.0
H1602 H 0.87552 0.09656 0.37956 0.0
C1603 C 0.8339 0.06489 0.37029 0.0
C1604 C 0.85959 0.03325 0.34847 0.0
C1605 C 0.82207 0.06921 0.36898 0.0
C1606 C 0.90889 0.04089 0.3508 0.0
C1607 C 0.897 0.04297 0.34943 0.0
C1608 C 0.87122 0.07819 0.371 0.0
C1609 C 0.84077 0.06266 0.35638 0.0
C1610 C 0.8534 0.05919 0.35799 0.0
C1611 C 0.89013 0.04903 0.36317 0.0
C1612 C 0.87744 0.05213 0.36154 0.0
H1613 H 0.8198 0.07079 0.32778 0.0
H1614 H 0.84056 0.06282 0.33011 0.0
H1615 H 0.85486 0.10222 0.37665 0.0
H1616 H 0.91132 0.05414 0.39158 0.0
H1617 H 0.89052 0.05688 0.38927 0.0
C1618 C 0.92815 0.63306 0.37022 0.0
C1619 C 0.93475 0.61972 0.3833 0.0
C1620 C 0.91639 0.63926 0.37202 0.0
C1621 C 0.89165 0.61256 0.39738 0.0
H1622 H 0.87782 0.70341 0.37943 0.0
C1623 C 0.84423 0.65049 0.40917 0.0
C1624 C 0.83796 0.66394 0.3958 0.0
C1625 C 0.85616 0.6471 0.40833 0.0
C1626 C 0.88152 0.6777 0.38439 0.0
H1627 H 0.93408 0.60221 0.40851 0.0
H1628 H 0.91364 0.61303 0.4116 0.0
H1629 H 0.89828 0.69246 0.37612 0.0
H1630 H 0.83941 0.68531 0.37119 0.0
H1631 H 0.86004 0.67895 0.36969 0.0
H1632 H 0.87489 0.59749 0.40547 0.0
C1633 C 0.91754 0.61846 0.39992 0.0
C1634 C 0.89325 0.67143 0.38247 0.0
C1635 C 0.92928 0.61246 0.39816 0.0
C1636 C 0.84393 0.67488 0.38176 0.0
C1637 C 0.85581 0.67144 0.38091 0.0
C1638 C 0.87991 0.61875 0.39924 0.0
C1639 C 0.91095 0.63205 0.38691 0.0
C1640 C 0.89846 0.63874 0.38891 0.0
C1641 C 0.86208 0.65707 0.3941 0.0
C1642 C 0.87468 0.65134 0.39273 0.0
H1643 H 0.93207 0.63893 0.3586 0.0
H1644 H 0.91153 0.64935 0.3617 0.0
H1645 H 0.89537 0.58684 0.40231 0.0
H1646 H 0.83993 0.64189 0.42018 0.0
H1647 H 0.86073 0.63647 0.41881 0.0
C1648 C 0.58953 0.41341 0.5983 0.0
C1649 C 0.58232 0.4127 0.61192 0.0
C1650 C 0.60135 0.41862 0.60013 0.0
C1651 C 0.62348 0.44964 0.63007 0.0
H1652 H 0.64376 0.38895 0.60341 0.0
C1653 C 0.67149 0.42488 0.64494 0.0
C1654 C 0.6792 0.42589 0.63187 0.0
C1655 C 0.65967 0.42685 0.64221 0.0
C1656 C 0.63822 0.40642 0.61084 0.0
H1657 H 0.58194 0.41748 0.63816 0.0
H1658 H 0.60237 0.4256 0.64134 0.0
H1659 H 0.6232 0.38619 0.59886 0.0
H1660 H 0.68046 0.43079 0.60568 0.0
H1661 H 0.65995 0.43409 0.60101 0.0
H1662 H 0.63855 0.469 0.64232 0.0
C1663 C 0.59896 0.42295 0.62919 0.0
C1664 C 0.62641 0.40496 0.60819 0.0
C1665 C 0.58719 0.418 0.62736 0.0
C1666 C 0.67481 0.4298 0.61607 0.0
C1667 C 0.66303 0.43147 0.61334 0.0
C1668 C 0.63528 0.45083 0.63281 0.0
C1669 C 0.60623 0.42305 0.61564 0.0
C1670 C 0.61886 0.42635 0.61784 0.0
C1671 C 0.65532 0.42956 0.62635 0.0
C1672 C 0.64278 0.42911 0.62327 0.0
H1673 H 0.58608 0.40956 0.58623 0.0
H1674 H 0.60665 0.41909 0.58938 0.0
H1675 H 0.61797 0.46706 0.63756 0.0
H1676 H 0.67456 0.42187 0.65726 0.0
H1677 H 0.65394 0.42509 0.65248 0.0
C1678 C 0.57962 0.78498 0.61404 0.0
C1679 C 0.57467 0.78775 0.62953 0.0
C1680 C 0.59149 0.78369 0.61218 0.0
C1681 C 0.61825 0.80817 0.63387 0.0
H1682 H 0.63251 0.75098 0.59911 0.0
C1683 C 0.6671 0.79395 0.62836 0.0
C1684 C 0.67189 0.8009 0.61301 0.0
C1685 C 0.65531 0.78975 0.63022 0.0
C1686 C 0.62863 0.76728 0.6088 0.0
H1687 H 0.57836 0.7899 0.65526 0.0
H1688 H 0.59907 0.78654 0.65206 0.0
H1689 H 0.61186 0.74702 0.60315 0.0
H1690 H 0.668 0.80766 0.58746 0.0
H1691 H 0.64732 0.79992 0.59073 0.0
H1692 H 0.63505 0.82802 0.63961 0.0
C1693 C 0.59378 0.78637 0.64129 0.0
C1694 C 0.61679 0.7651 0.61112 0.0
C1695 C 0.58188 0.78801 0.64315 0.0
C1696 C 0.6646 0.80238 0.59946 0.0
C1697 C 0.65276 0.79782 0.60132 0.0
C1698 C 0.63008 0.81003 0.63164 0.0
C1699 C 0.59875 0.78477 0.62576 0.0
C1700 C 0.61143 0.78568 0.62365 0.0
C1701 C 0.64799 0.79209 0.61677 0.0
C1702 C 0.6354 0.78972 0.61906 0.0
H1703 H 0.57435 0.7849 0.60325 0.0
H1704 H 0.59496 0.78304 0.60002 0.0
H1705 H 0.61445 0.82508 0.64341 0.0
H1706 H 0.67242 0.79248 0.63909 0.0
H1707 H 0.65191 0.78481 0.64224 0.0
C1708 C 0.41209 0.5919 0.39938 0.0
C1709 C 0.41967 0.5773 0.38772 0.0
C1710 C 0.4003 0.59303 0.39632 0.0
C1711 C 0.3794 0.58909 0.36219 0.0
H1712 H 0.35755 0.56874 0.39634 0.0
C1713 C 0.33026 0.60096 0.35219 0.0
C1714 C 0.32347 0.57355 0.35993 0.0
C1715 C 0.34199 0.60347 0.35561 0.0
C1716 C 0.36353 0.57424 0.38661 0.0
H1717 H 0.42074 0.55107 0.36396 0.0
H1718 H 0.40031 0.55202 0.35887 0.0
H1719 H 0.37789 0.56781 0.40245 0.0
H1720 H 0.32381 0.5265 0.37693 0.0
H1721 H 0.3441 0.53025 0.38249 0.0
H1722 H 0.36504 0.59406 0.34622 0.0
C1723 C 0.40342 0.56373 0.37017 0.0
C1724 C 0.37522 0.57421 0.39018 0.0
C1725 C 0.41517 0.56286 0.37317 0.0
C1726 C 0.32872 0.54827 0.37086 0.0
C1727 C 0.34039 0.55061 0.37417 0.0
C1728 C 0.3677 0.58892 0.3586 0.0
C1729 C 0.39583 0.57935 0.38157 0.0
C1730 C 0.38333 0.58119 0.37798 0.0
C1731 C 0.34718 0.5785 0.36677 0.0
C1732 C 0.35961 0.58101 0.37072 0.0
H1733 H 0.41528 0.60347 0.41066 0.0
H1734 H 0.39472 0.60551 0.40534 0.0
H1735 H 0.38537 0.59532 0.35253 0.0
H1736 H 0.32648 0.62095 0.34377 0.0
H1737 H 0.34694 0.62548 0.34975 0.0
C1738 C 0.42754 0.12785 0.34877 0.0
C1739 C 0.43476 0.14496 0.36026 0.0
C1740 C 0.41592 0.12232 0.35216 0.0
C1741 C 0.39583 0.11428 0.38676 0.0
H1742 H 0.37261 0.12853 0.3538 0.0
C1743 C 0.34691 0.10832 0.40016 0.0
C1744 C 0.33994 0.0919 0.38818 0.0
C1745 C 0.35861 0.11397 0.39731 0.0
C1746 C 0.37899 0.12396 0.36312 0.0
H1747 H 0.43524 0.17088 0.38414 0.0
H1748 H 0.41507 0.16169 0.38989 0.0
H1749 H 0.39255 0.14103 0.34732 0.0
H1750 H 0.33999 0.06655 0.36419 0.0
H1751 H 0.36025 0.07569 0.35942 0.0
H1752 H 0.38224 0.09712 0.40255 0.0
C1753 C 0.41841 0.15184 0.37839 0.0
C1754 C 0.39044 0.13117 0.35938 0.0
C1755 C 0.42999 0.15737 0.37501 0.0
C1756 C 0.34505 0.07975 0.37363 0.0
C1757 C 0.35668 0.08524 0.37082 0.0
C1758 C 0.38436 0.10702 0.3905 0.0
C1759 C 0.41125 0.13376 0.36713 0.0
C1760 C 0.39902 0.12634 0.37113 0.0
C1761 C 0.36358 0.10323 0.38243 0.0
C1762 C 0.3758 0.11157 0.37869 0.0
H1763 H 0.43092 0.1178 0.33733 0.0
H1764 H 0.41067 0.10806 0.34324 0.0
H1765 H 0.40222 0.10974 0.39606 0.0
H1766 H 0.34325 0.11811 0.41147 0.0
H1767 H 0.36367 0.128 0.40651 0.0
C1768 C 0.64457 0.8374 0.12843 0.0
C1769 C 0.6503 0.84545 0.14304 0.0
C1770 C 0.63271 0.84064 0.12729 0.0
C1771 C 0.60795 0.88818 0.1463 0.0
H1772 H 0.59051 0.81638 0.12071 0.0
C1773 C 0.55854 0.88407 0.14605 0.0
C1774 C 0.55281 0.8747 0.13159 0.0
C1775 C 0.57046 0.8831 0.14693 0.0
C1776 C 0.59527 0.83704 0.12769 0.0
H1777 H 0.6479 0.86243 0.16806 0.0
H1778 H 0.62705 0.86774 0.16612 0.0
H1779 H 0.61101 0.80708 0.12419 0.0
H1780 H 0.55523 0.85868 0.10647 0.0
H1781 H 0.57614 0.85728 0.10795 0.0
H1782 H 0.59217 0.91802 0.14986 0.0
C1783 C 0.63184 0.85934 0.15547 0.0
C1784 C 0.60704 0.83162 0.12975 0.0
C1785 C 0.64378 0.85596 0.15663 0.0
C1786 C 0.55935 0.86603 0.11779 0.0
C1787 C 0.57133 0.86486 0.1187 0.0
C1788 C 0.59617 0.89359 0.14425 0.0
C1789 C 0.62617 0.85204 0.14072 0.0
C1790 C 0.61355 0.85712 0.13907 0.0
C1791 C 0.57702 0.87265 0.13339 0.0
C1792 C 0.58967 0.86807 0.13492 0.0
H1793 H 0.64928 0.8292 0.11768 0.0
H1794 H 0.62869 0.83523 0.11569 0.0
H1795 H 0.61271 0.90876 0.15331 0.0
H1796 H 0.55379 0.89109 0.15691 0.0
H1797 H 0.5745 0.88902 0.15847 0.0
C1798 C 0.68786 0.33795 0.12234 0.0
C1799 C 0.69426 0.36433 0.11341 0.0
C1800 C 0.6764 0.34478 0.12593 0.0
C1801 C 0.65135 0.40303 0.11394 0.0
H1802 H 0.63914 0.35966 0.1535 0.0
C1803 C 0.6042 0.36545 0.12012 0.0
C1804 C 0.59881 0.36408 0.13535 0.0
C1805 C 0.61573 0.37452 0.11876 0.0
C1806 C 0.64238 0.37274 0.14256 0.0
H1807 H 0.69365 0.41861 0.10114 0.0
H1808 H 0.67358 0.43128 0.1078 0.0
H1809 H 0.6596 0.35893 0.14882 0.0
H1810 H 0.60128 0.37322 0.16109 0.0
H1811 H 0.62152 0.39006 0.1587 0.0
H1812 H 0.63413 0.4178 0.1079 0.0
C1813 C 0.67739 0.40484 0.11177 0.0
C1814 C 0.65415 0.37167 0.13971 0.0
C1815 C 0.68889 0.39764 0.10794 0.0
C1816 C 0.60518 0.37374 0.14919 0.0
C1817 C 0.6168 0.38319 0.14781 0.0
C1818 C 0.63959 0.40471 0.11692 0.0
C1819 C 0.67103 0.37858 0.12097 0.0
C1820 C 0.65875 0.38532 0.12505 0.0
C1821 C 0.62227 0.38299 0.13257 0.0
C1822 C 0.63488 0.38813 0.13095 0.0
H1823 H 0.69172 0.31177 0.12657 0.0
H1824 H 0.67175 0.32322 0.13252 0.0
H1825 H 0.65452 0.41401 0.10255 0.0
H1826 H 0.5996 0.3583 0.10914 0.0
H1827 H 0.61959 0.3732 0.10686 0.0
C1828 C 0.41627 0.13479 0.87517 0.0
C1829 C 0.4209 0.12649 0.89052 0.0
C1830 C 0.40453 0.13214 0.87235 0.0
C1831 C 0.37867 0.08475 0.88769 0.0
H1832 H 0.36294 0.15618 0.85964 0.0
C1833 C 0.32966 0.08458 0.87946 0.0
C1834 C 0.32509 0.09255 0.86404 0.0
C1835 C 0.34137 0.08779 0.88243 0.0
C1836 C 0.36723 0.13567 0.86731 0.0
H1837 H 0.41668 0.10998 0.91511 0.0
H1838 H 0.39608 0.10567 0.91021 0.0
H1839 H 0.38305 0.16598 0.86616 0.0
H1840 H 0.3294 0.10921 0.83951 0.0
H1841 H 0.34995 0.11449 0.84467 0.0
H1842 H 0.36286 0.05442 0.88883 0.0
C1843 C 0.40162 0.11379 0.9003 0.0
C1844 C 0.37876 0.14138 0.87111 0.0
C1845 C 0.41341 0.11657 0.90315 0.0
C1846 C 0.33262 0.10285 0.85152 0.0
C1847 C 0.34438 0.1062 0.85452 0.0
C1848 C 0.36714 0.07905 0.88389 0.0
C1849 C 0.39705 0.12109 0.88479 0.0
C1850 C 0.38464 0.11596 0.88133 0.0
C1851 C 0.34888 0.09909 0.87008 0.0
C1852 C 0.36127 0.10444 0.87365 0.0
H1853 H 0.42175 0.14259 0.86514 0.0
H1854 H 0.40136 0.13758 0.86023 0.0
H1855 H 0.38297 0.06422 0.89534 0.0
H1856 H 0.32415 0.07652 0.88943 0.0
H1857 H 0.34448 0.08249 0.89459 0.0
C1858 C 0.41864 0.6243 0.8779 0.0
C1859 C 0.42266 0.62335 0.86186 0.0
C1860 C 0.40695 0.62319 0.8812 0.0
C1861 C 0.37833 0.60438 0.86294 0.0
H1862 H 0.36807 0.66869 0.89826 0.0
C1863 C 0.33108 0.64752 0.87246 0.0
C1864 C 0.32669 0.64564 0.88833 0.0
C1865 C 0.34273 0.64219 0.86951 0.0
C1866 C 0.37081 0.65027 0.88849 0.0
H1867 H 0.41757 0.61929 0.83668 0.0
H1868 H 0.39703 0.61862 0.84238 0.0
H1869 H 0.38837 0.66397 0.89222 0.0
H1870 H 0.33118 0.63675 0.91354 0.0
H1871 H 0.35165 0.62812 0.90838 0.0
H1872 H 0.36061 0.59189 0.85895 0.0
C1873 C 0.40295 0.61946 0.85247 0.0
C1874 C 0.38247 0.64739 0.88502 0.0
C1875 C 0.41472 0.61995 0.84917 0.0
C1876 C 0.33428 0.63848 0.9012 0.0
C1877 C 0.34599 0.63361 0.89824 0.0
C1878 C 0.36663 0.60763 0.8663 0.0
C1879 C 0.39891 0.62181 0.86855 0.0
C1880 C 0.38642 0.62436 0.87222 0.0
C1881 C 0.35033 0.63526 0.88235 0.0
C1882 C 0.36275 0.63064 0.87911 0.0
H1883 H 0.42455 0.6263 0.88797 0.0
H1884 H 0.40424 0.62383 0.89375 0.0
H1885 H 0.38102 0.58595 0.85315 0.0
H1886 H 0.3255 0.65281 0.86223 0.0
H1887 H 0.34582 0.64408 0.85716 0.0
C1888 C 0.01541 0.96865 0.12776 0.0
C1889 C 0.02004 0.96537 0.14345 0.0
C1890 C 0.01147 0.00356 0.12208 0.0
C1891 C 0.00492 0.10289 0.13351 0.0
H1892 H 0.0228 0.12719 0.09534 0.0
C1893 C 0.02476 0.24714 0.12385 0.0
C1894 C 0.02736 0.26054 0.10825 0.0
C1895 C 0.01942 0.2123 0.12596 0.0
C1896 C 0.01743 0.12095 0.10569 0.0
H1897 H 0.02317 -0.00465 0.16597 0.0
H1898 H 0.01639 0.05649 0.15596 0.0
H1899 H 0.02086 0.06165 0.10369 0.0
H1900 H 0.02571 0.24892 0.08254 0.0
H1901 H 0.01624 0.18776 0.08623 0.0
H1902 H 1.00189 0.16251 0.13586 0.0
C1903 C 0.01578 0.03197 0.14809 0.0
C1904 C 0.01634 0.08325 0.11051 0.0
C1905 C 0.01976 -0.00298 0.15379 0.0
C1906 C 0.02396 0.23911 0.09473 0.0
C1907 C 0.01853 0.20413 0.09684 0.0
C1908 C 0.00589 0.14065 0.12857 0.0
C1909 C 0.01203 0.03583 0.13198 0.0
C1910 C 0.01056 0.07407 0.1249 0.0
C1911 C 0.01645 0.18994 0.11251 0.0
C1912 C 0.01269 0.15023 0.11511 0.0
H1913 H 0.01532 0.94466 0.11955 0.0
H1914 H 0.0085 0.00572 0.10967 0.0
H1915 H 1.00026 0.09644 0.14451 0.0
H1916 H 0.02718 0.26298 0.13457 0.0
H1917 H 0.01817 0.20209 0.13821 0.0
C1918 C 0.22366 0.93403 0.14988 0.0
C1919 C 0.22361 0.92413 0.13336 0.0
C1920 C 0.22731 0.96995 0.15477 0.0
C1921 C 0.2427 0.05569 0.14128 0.0
H1922 H 0.21882 0.11078 0.16395 0.0
C1923 C 0.23295 0.21019 0.12895 0.0
C1924 C 0.22859 0.234 0.14113 0.0
C1925 C 0.23539 0.1723 0.13221 0.0
C1926 C 0.22576 0.09577 0.15804 0.0
H1927 H 0.228 0.94315 0.10915 0.0
H1928 H 0.23441 0.00569 0.1177 0.0
H1929 H 0.21784 0.04195 0.16202 0.0
H1930 H 0.22385 0.23715 0.16652 0.0
H1931 H 0.22806 0.17034 0.1722 0.0
H1932 H 0.25034 0.10967 0.13664 0.0
C1933 C 0.23164 -0.01429 0.12686 0.0
C1934 C 0.22518 0.05631 0.15691 0.0
C1935 C 0.22786 0.95004 0.12195 0.0
C1936 C 0.22713 0.21941 0.15686 0.0
C1937 C 0.22954 0.18123 0.16011 0.0
C1938 C 0.24333 0.09511 0.14251 0.0
C1939 C 0.23114 -0.00368 0.14327 0.0
C1940 C 0.23334 0.03617 0.14785 0.0
C1941 C 0.23353 0.15718 0.14773 0.0
C1942 C 0.23455 0.11567 0.15018 0.0
H1943 H 0.22046 0.9146 0.15897 0.0
H1944 H 0.22687 0.97747 0.16749 0.0
H1945 H 0.2492 0.04068 0.13446 0.0
H1946 H 0.23426 0.22053 0.11674 0.0
H1947 H 0.23824 0.15446 0.12231 0.0
C1948 C 0.98217 0.71578 0.86237 0.0
C1949 C 0.98213 0.7007 0.87811 0.0
C1950 C 0.98775 0.74988 0.85916 0.0
C1951 C 0.99445 0.8359 0.88166 0.0
H1952 H 0.00276 0.87181 0.83885 0.0
C1953 C 0.99106 -0.00783 0.86845 0.0
C1954 C 0.98381 -0.00072 0.8552 0.0
C1955 C 0.99639 0.957 0.87018 0.0
C1956 C 1.00059 0.86214 0.85092 0.0
H1957 H 0.98898 0.70681 0.90238 0.0
H1958 H 0.99907 0.76573 0.89668 0.0
H1959 H 0.00257 0.80366 0.84442 0.0
H1960 H 0.9773 0.97659 0.8326 0.0
H1961 H 0.98625 0.91455 0.83591 0.0
H1962 H 0.99187 0.89378 0.888 0.0
C1963 C 0.99443 0.75208 0.88694 0.0
C1964 C 1.00045 0.82317 0.85411 0.0
C1965 C 0.98866 0.71836 0.89022 0.0
C1966 C 0.98276 0.97174 0.84301 0.0
C1967 C 0.98799 0.9363 0.84484 0.0
C1968 C 0.99467 0.87465 0.87852 0.0
C1969 C 0.99355 0.76926 0.87159 0.0
C1970 C 0.99681 0.8096 0.86929 0.0
C1971 C 0.99444 0.92805 0.85881 0.0
C1972 C 0.9972 0.88814 0.86291 0.0
H1973 H 0.97726 0.70261 0.85276 0.0
H1974 H 0.98678 0.76229 0.84724 0.0
H1975 H 0.99146 0.82675 0.89344 0.0
H1976 H 0.99224 0.01326 0.87786 0.0
H1977 H 1.0015 0.95171 0.8809 0.0
C1978 C 0.77362 0.97182 0.91173 0.0
C1979 C 0.77296 -0.01303 0.896 0.0
C1980 C 0.76921 0.93575 0.91502 0.0
C1981 C 0.75283 0.85543 0.89629 0.0
H1982 H 0.77685 0.79439 0.91559 0.0
C1983 C 0.7681 0.71402 0.87159 0.0
C1984 C 0.77243 0.68615 0.88212 0.0
C1985 C 0.76371 0.74792 0.87774 0.0
C1986 C 0.76987 0.81088 0.91055 0.0
H1987 H 0.76624 0.97768 0.87179 0.0
H1988 H 0.75891 0.91506 0.87733 0.0
H1989 H 0.77709 0.86265 0.91907 0.0
H1990 H 0.77477 0.67076 0.90739 0.0
H1991 H 0.76729 0.73048 0.91808 0.0
H1992 H 0.74626 0.80349 0.88654 0.0
C1993 C 0.76268 0.93079 0.88726 0.0
C1994 C 0.76998 0.85017 0.91258 0.0
C1995 C 0.76705 0.96667 0.88399 0.0
C1996 C 0.77156 0.6918 0.89895 0.0
C1997 C 0.76728 0.72593 0.9051 0.0
C1998 C 0.75279 0.81612 0.89411 0.0
C1999 C 0.76406 0.91427 0.90264 0.0
C2000 C 0.76184 0.87306 0.9047 0.0
C2001 C 0.76365 0.75476 0.89453 0.0
C2002 C 0.76166 0.79378 0.90053 0.0
H2003 H 0.778 -0.01301 0.9213 0.0
H2004 H 0.77027 0.92402 0.92706 0.0
H2005 H 0.74626 0.87222 0.89042 0.0
H2006 H 0.76854 0.71036 0.85857 0.0
H2007 H 0.76109 0.7698 0.86929 0.0
C2008 C 0.02786 0.75689 0.60581 0.0
C2009 C 0.02631 0.78506 0.61765 0.0
C2010 C 0.02851 0.71872 0.61025 0.0
C2011 C 0.03634 0.6582 0.64463 0.0
H2012 H 0.02418 0.57887 0.61707 0.0
C2013 C 0.04288 0.49502 0.6551 0.0
C2014 C 0.0463 0.47553 0.64102 0.0
C2015 C 0.03947 0.53315 0.65419 0.0
C2016 C 0.0276 0.60076 0.6249 0.0
H2017 H 0.02377 0.79507 0.64339 0.0
H2018 H 0.02485 0.72837 0.65105 0.0
H2019 H 0.01915 0.64485 0.61169 0.0
H2020 H 0.04943 0.48144 0.61517 0.0
H2021 H 0.04354 0.54725 0.6137 0.0
H2022 H 0.04499 0.61381 0.65761 0.0
C2023 C 0.02571 0.73592 0.63838 0.0
C2024 C 0.02475 0.63848 0.6218 0.0
C2025 C 0.02503 0.7741 0.63395 0.0
C2026 C 0.04671 0.49532 0.62624 0.0
C2027 C 0.04326 0.53303 0.62534 0.0
C2028 C 0.03917 0.62031 0.64777 0.0
C2029 C 0.02763 0.70789 0.6266 0.0
C2030 C 0.02936 0.66769 0.63132 0.0
C2031 C 0.03936 0.55207 0.6392 0.0
C2032 C 0.0351 0.59143 0.6376 0.0
H2033 H 0.02889 0.76432 0.59316 0.0
H2034 H 0.03014 0.69782 0.60089 0.0
H2035 H 0.04008 0.68013 0.65213 0.0
H2036 H 0.04248 0.48056 0.66666 0.0
H2037 H 0.03656 0.54741 0.66507 0.0
C2038 C 0.22421 0.47042 0.60937 0.0
C2039 C 0.22581 0.44581 0.62258 0.0
C2040 C 0.22329 0.50949 0.61185 0.0
C2041 C 0.21479 0.57808 0.64287 0.0
H2042 H 0.22832 0.65121 0.61355 0.0
C2043 C 0.2099 0.74096 0.6508 0.0
C2044 C 0.20776 0.76148 0.6365 0.0
C2045 C 0.21277 0.70244 0.65007 0.0
C2046 C 0.22443 0.63109 0.62178 0.0
H2047 H 0.22813 0.44309 0.64869 0.0
H2048 H 0.22656 0.51125 0.65293 0.0
H2049 H 0.23268 0.58392 0.61032 0.0
H2050 H 0.20658 0.75734 0.61028 0.0
H2051 H 0.21139 0.69042 0.60908 0.0
H2052 H 0.20636 0.6252 0.65413 0.0
C2053 C 0.22588 0.50023 0.64071 0.0
C2054 C 0.22694 0.59263 0.61993 0.0
C2055 C 0.22683 0.46121 0.63824 0.0
C2056 C 0.20826 0.74251 0.62153 0.0
C2057 C 0.21111 0.70418 0.62081 0.0
C2058 C 0.21226 0.61659 0.6447 0.0
C2059 C 0.22393 0.52469 0.62757 0.0
C2060 C 0.222 0.5657 0.6303 0.0
C2061 C 0.21356 0.68385 0.63503 0.0
C2062 C 0.2169 0.64339 0.63399 0.0
H2063 H 0.2234 0.45948 0.59716 0.0
H2064 H 0.22169 0.52767 0.6015 0.0
H2065 H 0.21077 0.55789 0.65094 0.0
H2066 H 0.20961 0.75481 0.66251 0.0
H2067 H 0.21464 0.68746 0.66122 0.0
C2068 C 0.97374 0.46975 0.34925 0.0
C2069 C 0.97686 0.48065 0.36503 0.0
C2070 C 0.97373 0.43132 0.34487 0.0
C2071 C 0.98388 0.33625 0.35846 0.0
H2072 H 0.95568 0.29974 0.33935 0.0
C2073 C 0.96614 0.18789 0.37051 0.0
C2074 C 0.96191 0.16695 0.35734 0.0
C2075 C 0.96938 0.22566 0.36849 0.0
C2076 C 0.96368 0.30956 0.34444 0.0
H2077 H 0.98296 0.46009 0.3883 0.0
H2078 H 0.98283 0.3938 0.38078 0.0
H2079 H 0.95938 0.36788 0.34042 0.0
H2080 H 0.95767 0.16925 0.33174 0.0
H2081 H 0.96313 0.23572 0.32833 0.0
H2082 H 0.98786 0.27802 0.36328 0.0
C2083 C 0.98048 0.41458 0.37169 0.0
C2084 C 0.96583 0.34853 0.34499 0.0
C2085 C 0.98044 0.45269 0.37607 0.0
C2086 C 0.96092 0.18466 0.34212 0.0
C2087 C 0.96401 0.22264 0.34015 0.0
C2088 C 0.98168 0.2974 0.35804 0.0
C2089 C 0.97696 0.40333 0.35616 0.0
C2090 C 0.97577 0.36232 0.35253 0.0
C2091 C 0.96833 0.24338 0.3533 0.0
C2092 C 0.9714 0.28382 0.3515 0.0
H2093 H 0.97097 0.4907 0.34047 0.0
H2094 H 0.97103 0.42347 0.33277 0.0
H2095 H 0.99172 0.34599 0.36403 0.0
H2096 H 0.96704 0.17504 0.38237 0.0
H2097 H 0.97253 0.24123 0.37888 0.0
C2098 C 0.78095 0.24621 0.34254 0.0
C2099 C 0.77907 0.22404 0.35644 0.0
C2100 C 0.78168 0.28576 0.34378 0.0
C2101 C 0.77465 0.36588 0.37111 0.0
H2102 H 0.80032 0.41573 0.35049 0.0
C2103 C 0.79076 0.51238 0.39136 0.0
C2104 C 0.79362 0.53844 0.37914 0.0
C2105 C 0.78831 0.47472 0.38743 0.0
C2106 C 0.79303 0.4023 0.35615 0.0
H2107 H 0.77617 0.22609 0.38245 0.0
H2108 H 0.77753 0.29441 0.38455 0.0
H2109 H 0.7967 0.34875 0.34502 0.0
H2110 H 0.79625 0.54527 0.35323 0.0
H2111 H 0.79197 0.47963 0.34647 0.0
H2112 H 0.77114 0.41915 0.38253 0.0
C2113 C 0.77833 0.28151 0.37269 0.0
C2114 C 0.79093 0.36402 0.35298 0.0
C2115 C 0.77766 0.24222 0.37148 0.0
C2116 C 0.79408 0.52594 0.36296 0.0
C2117 C 0.79168 0.4883 0.35906 0.0
C2118 C 0.77677 0.40407 0.37431 0.0
C2119 C 0.78043 0.30372 0.3589 0.0
C2120 C 0.78185 0.34526 0.36067 0.0
C2121 C 0.78871 0.46237 0.37124 0.0
C2122 C 0.78609 0.42247 0.36709 0.0
H2123 H 0.78206 0.23304 0.33079 0.0
H2124 H 0.78324 0.30227 0.33293 0.0
H2125 H 0.76747 0.35232 0.37699 0.0
H2126 H 0.79034 0.5211 0.40393 0.0
H2127 H 0.78619 0.45516 0.3971 0.0
C2128 C 0.53775 0.95851 0.63984 0.0
C2129 C 0.53622 0.93518 0.62621 0.0
C2130 C 0.5385 -0.00213 0.63806 0.0
C2131 C 0.54545 0.07125 0.60789 0.0
H2132 H 0.53031 0.13881 0.63817 0.0
C2133 C 0.54338 0.23448 0.59932 0.0
C2134 C 0.54494 0.25647 0.61335 0.0
C2135 C 0.54237 0.19501 0.60045 0.0
C2136 C 0.53468 0.12029 0.6297 0.0
H2137 H 0.53402 0.93499 0.60005 0.0
H2138 H 0.53522 0.00346 0.59704 0.0
H2139 H 0.52821 0.0704 0.64123 0.0
H2140 H 0.54707 0.25412 0.6395 0.0
H2141 H 0.54545 0.18566 0.64138 0.0
H2142 H 0.55196 0.12121 0.59641 0.0
C2143 C 0.53602 -0.00867 0.60906 0.0
C2144 C 0.53348 0.08114 0.63147 0.0
C2145 C 0.53527 0.95208 0.61082 0.0
C2146 C 0.54576 0.23813 0.62845 0.0
C2147 C 0.54477 0.19886 0.62956 0.0
C2148 C 0.54667 0.11044 0.60613 0.0
C2149 C 0.53774 0.01462 0.62263 0.0
C2150 C 0.53889 0.0562 0.62063 0.0
C2151 C 0.5429 0.17691 0.61562 0.0
C2152 C 0.54135 0.13534 0.61709 0.0
H2153 H 0.53854 0.94639 0.65185 0.0
H2154 H 0.53993 0.01511 0.64874 0.0
H2155 H 0.54985 0.0527 0.59947 0.0
H2156 H 0.5427 0.24777 0.58752 0.0
H2157 H 0.54088 0.17879 0.5895 0.0
C2158 C 0.71511 0.25418 0.64688 0.0
C2159 C 0.71688 0.27667 0.63304 0.0
C2160 C 0.71419 0.21472 0.64547 0.0
C2161 C 0.70713 0.14049 0.61573 0.0
H2162 H 0.72277 0.07293 0.64551 0.0
C2163 C 0.71072 0.97909 0.60466 0.0
C2164 C 0.70956 0.95527 0.61821 0.0
C2165 C 0.71134 0.01843 0.60663 0.0
C2166 C 0.71823 0.09143 0.63721 0.0
H2167 H 0.71933 0.2752 0.60693 0.0
H2168 H 0.71782 0.2068 0.60459 0.0
H2169 H 0.7244 0.14144 0.64905 0.0
H2170 H 0.70789 0.95419 0.64443 0.0
H2171 H 0.70881 0.02258 0.64778 0.0
H2172 H 0.70094 0.0906 0.60389 0.0
C2173 C 0.71696 0.2196 0.61646 0.0
C2174 C 0.71918 0.13063 0.63925 0.0
C2175 C 0.7179 0.25884 0.61786 0.0
C2176 C 0.70886 0.97166 0.63372 0.0
C2177 C 0.70946 0.01089 0.63568 0.0
C2178 C 0.70616 0.10132 0.61371 0.0
C2179 C 0.71499 0.19714 0.63021 0.0
C2180 C 0.71369 0.15555 0.62847 0.0
C2181 C 0.7108 0.03471 0.62218 0.0
C2182 C 0.71174 0.07635 0.62439 0.0
H2183 H 0.71428 0.26704 0.65874 0.0
H2184 H 0.71262 0.19806 0.65627 0.0
H2185 H 0.70266 0.15904 0.60737 0.0
H2186 H 0.71131 0.96735 0.59255 0.0
H2187 H 0.71249 0.03604 0.59599 0.0
C2188 C 0.46588 0.73356 0.40294 0.0
C2189 C 0.46402 0.71294 0.3886 0.0
C2190 C 0.46901 0.7718 0.40224 0.0
C2191 C 0.4817 0.84195 0.37446 0.0
H2192 H 0.46606 0.91662 0.40096 0.0
C2193 C 0.47872 -0.00055 0.35767 0.0
C2194 C 0.47917 0.02657 0.37012 0.0
C2195 C 0.47883 0.96082 0.36135 0.0
C2196 C 0.47067 0.89604 0.3937 0.0
H2197 H 0.46369 0.71655 0.3623 0.0
H2198 H 0.46898 0.78294 0.36116 0.0
H2199 H 0.46222 0.84929 0.40508 0.0
H2200 H 0.48061 0.03444 0.39616 0.0
H2201 H 0.4808 0.96692 0.40252 0.0
H2202 H 0.48989 0.8887 0.36275 0.0
C2203 C 0.46826 0.76947 0.37292 0.0
C2204 C 0.46846 0.85754 0.39606 0.0
C2205 C 0.46513 0.73147 0.3736 0.0
C2206 C 0.48018 0.01426 0.38628 0.0
C2207 C 0.48025 0.97563 0.38995 0.0
C2208 C 0.4839 0.8804 0.3721 0.0
C2209 C 0.47036 0.78991 0.3872 0.0
C2210 C 0.47373 0.83023 0.38617 0.0
C2211 C 0.47937 0.94858 0.37754 0.0
C2212 C 0.47819 0.90783 0.38142 0.0
H2213 H 0.46511 0.72005 0.41468 0.0
H2214 H 0.47057 0.78698 0.41344 0.0
H2215 H 0.48606 0.82139 0.36689 0.0
H2216 H 0.47797 0.00798 0.3451 0.0
H2217 H 0.47802 0.94058 0.35153 0.0
C2218 C 0.27091 0.70187 0.37113 0.0
C2219 C 0.27428 0.67093 0.38074 0.0
C2220 C 0.26957 0.73776 0.378 0.0
C2221 C 0.28199 0.79484 0.40949 0.0
H2222 H 0.25973 0.86852 0.3944 0.0
C2223 C 0.28975 0.95686 0.41383 0.0
C2224 C 0.28869 0.97384 0.39847 0.0
C2225 C 0.28545 0.92029 0.41654 0.0
C2226 C 0.26594 0.84821 0.39891 0.0
H2227 H 0.27834 0.65292 0.40524 0.0
H2228 H 0.27621 0.71608 0.41717 0.0
H2229 H 0.25629 0.80096 0.3901 0.0
H2230 H 0.28185 0.96657 0.37419 0.0
H2231 H 0.27446 0.90356 0.37888 0.0
H2232 H 0.29203 0.84222 0.41722 0.0
C2233 C 0.27456 0.71234 0.40435 0.0
C2234 C 0.26397 0.80963 0.39644 0.0
C2235 C 0.27575 0.67625 0.39751 0.0
C2236 C 0.28292 0.95422 0.38612 0.0
C2237 C 0.27853 0.91822 0.38887 0.0
C2238 C 0.28399 0.83351 0.4119 0.0
C2239 C 0.27169 0.74356 0.39458 0.0
C2240 C 0.27224 0.78274 0.40098 0.0
C2241 C 0.27983 0.90063 0.40402 0.0
C2242 C 0.27626 0.86058 0.40584 0.0
H2243 H 0.26965 0.69863 0.35819 0.0
H2244 H 0.26749 0.7614 0.37012 0.0
H2245 H 0.28854 0.77471 0.41307 0.0
H2246 H 0.29412 0.9714 0.42358 0.0
H2247 H 0.28659 0.90725 0.42831 0.0
C2248 C 0.53753 0.43769 0.1444 0.0
C2249 C 0.5416 0.42303 0.12965 0.0
C2250 C 0.53167 0.47222 0.14481 0.0
C2251 C 0.51729 0.54476 0.11914 0.0
H2252 H 0.52761 0.61324 0.15285 0.0
C2253 C 0.51345 0.70816 0.11587 0.0
C2254 C 0.51175 0.72816 0.13041 0.0
C2255 C 0.51461 0.66867 0.11601 0.0
C2256 C 0.52444 0.59432 0.14354 0.0
H2257 H 0.54233 0.43241 0.10368 0.0
H2258 H 0.53235 0.49312 0.10445 0.0
H2259 H 0.53427 0.54804 0.15276 0.0
H2260 H 0.50903 0.72219 0.15631 0.0
H2261 H 0.51091 0.65343 0.15649 0.0
H2262 H 0.50775 0.59183 0.10965 0.0
C2263 C 0.53352 0.47765 0.11567 0.0
C2264 C 0.52826 0.55686 0.14349 0.0
C2265 C 0.53933 0.44297 0.11525 0.0
C2266 C 0.51051 0.7077 0.14492 0.0
C2267 C 0.51162 0.6683 0.14505 0.0
C2268 C 0.51347 0.58241 0.11917 0.0
C2269 C 0.52982 0.49299 0.1305 0.0
C2270 C 0.52486 0.53175 0.13119 0.0
C2271 C 0.51405 0.64849 0.13068 0.0
C2272 C 0.51713 0.60768 0.13128 0.0
H2273 H 0.539 0.42278 0.1557 0.0
H2274 H 0.52874 0.48295 0.1564 0.0
H2275 H 0.51441 0.52595 0.1096 0.0
H2276 H 0.51441 0.72308 0.10447 0.0
H2277 H 0.51655 0.65423 0.10475 0.0
C2278 C 0.74358 0.4801 0.12147 0.0
C2279 C 0.74235 0.44915 0.13204 0.0
C2280 C 0.74243 0.51715 0.12719 0.0
C2281 C 0.72637 0.56671 0.15847 0.0
H2282 H 0.7395 0.65469 0.1374 0.0
C2283 C 0.70705 0.71986 0.16196 0.0
C2284 C 0.70501 0.7346 0.14636 0.0
C2285 C 0.71368 0.68696 0.16397 0.0
C2286 C 0.73584 0.63042 0.14354 0.0
H2287 H 0.7401 0.43297 0.15722 0.0
H2288 H 0.73816 0.49786 0.16722 0.0
H2289 H 0.74885 0.59301 0.13469 0.0
H2290 H 0.70834 0.72623 0.1207 0.0
H2291 H 0.71988 0.66962 0.12426 0.0
H2292 H 0.71309 0.60409 0.16672 0.0
C2293 C 0.73982 0.49335 0.15445 0.0
C2294 C 0.74117 0.59513 0.14197 0.0
C2295 C 0.74101 0.45618 0.14872 0.0
C2296 C 0.70968 0.71572 0.13289 0.0
C2297 C 0.71642 0.68346 0.13492 0.0
C2298 C 0.72108 0.60214 0.16014 0.0
C2299 C 0.74003 0.52414 0.14363 0.0
C2300 C 0.73619 0.56255 0.14875 0.0
C2301 C 0.71856 0.66888 0.15044 0.0
C2302 C 0.72549 0.63389 0.15205 0.0
H2303 H 0.74469 0.4757 0.10857 0.0
H2304 H 0.74258 0.5401 0.11847 0.0
H2305 H 0.72225 0.54218 0.16377 0.0
H2306 H 0.70358 0.73381 0.17258 0.0
H2307 H 0.71516 0.676 0.17606 0.0
C2308 C 0.47847 0.25469 0.88864 0.0
C2309 C 0.47305 0.23524 0.90133 0.0
C2310 C 0.48196 0.29208 0.8906 0.0
C2311 C 0.47361 0.37658 0.91267 0.0
H2312 H 0.49833 0.41956 0.88733 0.0
C2313 C 0.47498 0.53539 0.89687 0.0
C2314 C 0.47505 0.54079 0.87997 0.0
C2315 C 0.47789 0.50019 0.9035 0.0
C2316 C 0.49148 0.40797 0.89464 0.0
H2317 H 0.46763 0.23907 0.9264 0.0
H2318 H 0.47371 0.30513 0.92984 0.0
H2319 H 0.49811 0.3515 0.89291 0.0
H2320 H 0.47889 0.51435 0.85686 0.0
H2321 H 0.48405 0.45302 0.86846 0.0
H2322 H 0.46675 0.43286 0.9138 0.0
C2323 C 0.47517 0.29122 0.91832 0.0
C2324 C 0.49133 0.36908 0.89781 0.0
C2325 C 0.47171 0.25345 0.91637 0.0
C2326 C 0.47868 0.51097 0.86991 0.0
C2327 C 0.48174 0.47599 0.87656 0.0
C2328 C 0.47384 0.41555 0.90964 0.0
C2329 C 0.48012 0.31114 0.90532 0.0
C2330 C 0.48206 0.3527 0.90608 0.0
C2331 C 0.4811 0.47001 0.89338 0.0
C2332 C 0.48247 0.43122 0.89992 0.0
H2333 H 0.47976 0.2414 0.87694 0.0
H2334 H 0.48555 0.30662 0.88023 0.0
H2335 H 0.46631 0.36491 0.91899 0.0
H2336 H 0.47224 0.55786 0.90495 0.0
H2337 H 0.47734 0.49624 0.9165 0.0
C2338 C 0.27793 0.24206 0.87517 0.0
C2339 C 0.2799 0.22262 0.86056 0.0
C2340 C 0.27565 0.28079 0.87515 0.0
C2341 C 0.28075 0.36645 0.85176 0.0
H2342 H 0.25984 0.41001 0.88322 0.0
C2343 C 0.27735 0.52752 0.86203 0.0
C2344 C 0.27857 0.53838 0.87835 0.0
C2345 C 0.27529 0.48976 0.85797 0.0
C2346 C 0.26567 0.39821 0.87435 0.0
H2347 H 0.28086 0.22856 0.83442 0.0
H2348 H 0.27687 0.2968 0.83443 0.0
H2349 H 0.26009 0.34149 0.87889 0.0
H2350 H 0.27815 0.51841 0.90322 0.0
H2351 H 0.27457 0.45234 0.89608 0.0
H2352 H 0.28656 0.4231 0.84755 0.0
C2353 C 0.27715 0.28178 0.84587 0.0
C2354 C 0.26582 0.35909 0.87187 0.0
C2355 C 0.27942 0.24279 0.84588 0.0
C2356 C 0.2773 0.51092 0.89055 0.0
C2357 C 0.27516 0.47317 0.88647 0.0
C2358 C 0.28055 0.40563 0.85418 0.0
C2359 C 0.27527 0.30111 0.86054 0.0
C2360 C 0.27364 0.34273 0.86096 0.0
C2361 C 0.27432 0.46219 0.87013 0.0
C2362 C 0.27327 0.42167 0.86587 0.0
H2363 H 0.27823 0.22748 0.88672 0.0
H2364 H 0.27448 0.29499 0.88668 0.0
H2365 H 0.28693 0.35464 0.84338 0.0
H2366 H 0.27823 0.54801 0.85233 0.0
H2367 H 0.27459 0.48203 0.8453 0.0
loop_
_geom_bond_atom_site_label_1
_geom_bond_atom_site_label_2
_geom_bond_distance
_geom_bond_site_symmetry_2
_ccdc_geom_bond_type
C0 O1 1.306 . S
C0 O3 1.160 . S
O1 C0 1.306 . S
O1 Cd2 2.228 . S
Cd2 O1 2.228 . S
Cd2 O6 2.273 . S
Cd2 O10 2.277 . S
O3 C0 1.160 . S
O3 Cd4 2.203 . S
Cd4 O3 2.203 . S
Cd4 O6 2.411 . S
Cd4 O7 2.333 . S
Cd4 O8 2.352 . S
Cd4 O12 2.277 . S
Cd4 O13 2.356 . S
C5 O10 1.209 . S
C5 O12 1.226 . S
O6 Cd2 2.273 . S
O6 Cd4 2.411 . S
O6 C9 1.320 . S
O7 Cd4 2.333 . S
O7 C9 1.214 . S
O8 Cd4 2.352 . S
O8 C11 1.258 . S
C9 O6 1.320 . S
C9 O7 1.214 . S
O10 Cd2 2.277 . S
O10 C5 1.209 . S
C11 O8 1.258 . S
C11 O13 1.282 . S
O12 Cd4 2.277 . S
O12 C5 1.226 . S
O13 Cd4 2.356 . S
O13 C11 1.282 . S
C14 O15 1.306 . S
C14 O17 1.160 . S
O15 C14 1.306 . S
O15 Cd16 2.228 . S
Cd16 O15 2.228 . S
Cd16 O20 2.273 . S
Cd16 O24 2.277 . S
O17 C14 1.160 . S
O17 Cd18 2.203 . S
Cd18 O17 2.203 . S
Cd18 O20 2.411 . S
Cd18 O21 2.333 . S
Cd18 O22 2.352 . S
Cd18 O26 2.277 . S
Cd18 O27 2.356 . S
C19 O24 1.209 . S
C19 O26 1.226 . S
O20 Cd16 2.273 . S
O20 Cd18 2.411 . S
O20 C23 1.320 . S
O21 Cd18 2.333 . S
O21 C23 1.214 . S
O22 Cd18 2.352 . S
O22 C25 1.258 . S
C23 O20 1.320 . S
C23 O21 1.214 . S
O24 Cd16 2.277 . S
O24 C19 1.209 . S
C25 O22 1.258 . S
C25 O27 1.282 . S
O26 Cd18 2.277 . S
O26 C19 1.226 . S
O27 Cd18 2.356 . S
O27 C25 1.282 . S
C28 O29 1.306 . S
C28 O31 1.160 . S
O29 C28 1.306 . S
O29 Cd30 2.228 . S
Cd30 O29 2.228 . S
Cd30 O34 2.273 . S
Cd30 O38 2.277 . S
O31 C28 1.160 . S
O31 Cd32 2.203 . S
Cd32 O31 2.203 . S
Cd32 O34 2.411 . S
Cd32 O35 2.333 . S
Cd32 O36 2.352 . S
Cd32 O40 2.277 . S
Cd32 O41 2.356 . S
C33 O38 1.209 . S
C33 O40 1.226 . S
O34 Cd30 2.273 . S
O34 Cd32 2.411 . S
O34 C37 1.320 . S
O35 Cd32 2.333 . S
O35 C37 1.214 . S
O36 Cd32 2.352 . S
O36 C39 1.258 . S
C37 O34 1.320 . S
C37 O35 1.214 . S
O38 Cd30 2.277 . S
O38 C33 1.209 . S
C39 O36 1.258 . S
C39 O41 1.282 . S
O40 Cd32 2.277 . S
O40 C33 1.226 . S
O41 Cd32 2.356 . S
O41 C39 1.282 . S
C42 O43 1.306 . S
C42 O45 1.160 . S
O43 C42 1.306 . S
O43 Cd44 2.228 . S
Cd44 O43 2.228 . S
Cd44 O48 2.273 . S
Cd44 O52 2.277 . S
O45 C42 1.160 . S
O45 Cd46 2.203 . S
Cd46 O45 2.203 . S
Cd46 O48 2.411 . S
Cd46 O49 2.333 . S
Cd46 O50 2.352 . S
Cd46 O54 2.277 . S
Cd46 O55 2.356 . S
C47 O52 1.209 . S
C47 O54 1.226 . S
O48 Cd44 2.273 . S
O48 Cd46 2.411 . S
O48 C51 1.320 . S
O49 Cd46 2.333 . S
O49 C51 1.214 . S
O50 Cd46 2.352 . S
O50 C53 1.258 . S
C51 O48 1.320 . S
C51 O49 1.214 . S
O52 Cd44 2.277 . S
O52 C47 1.209 . S
C53 O50 1.258 . S
C53 O55 1.282 . S
O54 Cd46 2.277 . S
O54 C47 1.226 . S
O55 Cd46 2.356 . S
O55 C53 1.282 . S
C56 O57 1.306 . S
C56 O59 1.160 . S
O57 C56 1.306 . S
O57 Cd58 2.228 . S
Cd58 O57 2.228 . S
Cd58 O62 2.273 . S
Cd58 O66 2.277 . S
O59 C56 1.160 . S
O59 Cd60 2.203 . S
Cd60 O59 2.203 . S
Cd60 O62 2.411 . S
Cd60 O63 2.333 . S
Cd60 O64 2.352 . S
Cd60 O68 2.277 . S
Cd60 O69 2.356 . S
C61 O66 1.209 . S
C61 O68 1.226 . S
O62 Cd58 2.273 . S
O62 Cd60 2.411 . S
O62 C65 1.320 . S
O63 Cd60 2.333 . S
O63 C65 1.214 . S
O64 Cd60 2.352 . S
O64 C67 1.258 . S
C65 O62 1.320 . S
C65 O63 1.214 . S
O66 Cd58 2.277 . S
O66 C61 1.209 . S
C67 O64 1.258 . S
C67 O69 1.282 . S
O68 Cd60 2.277 . S
O68 C61 1.226 . S
O69 Cd60 2.356 . S
O69 C67 1.282 . S
C70 O71 1.306 . S
C70 O73 1.160 . S
O71 C70 1.306 . S
O71 Cd72 2.228 . S
Cd72 O71 2.228 . S
Cd72 O76 2.273 . S
Cd72 O80 2.277 . S
O73 C70 1.160 . S
O73 Cd74 2.203 . S
Cd74 O73 2.203 . S
Cd74 O76 2.411 . S
Cd74 O77 2.333 . S
Cd74 O78 2.352 . S
Cd74 O82 2.277 . S
Cd74 O83 2.356 . S
C75 O80 1.209 . S
C75 O82 1.226 . S
O76 Cd72 2.273 . S
O76 Cd74 2.411 . S
O76 C79 1.320 . S
O77 Cd74 2.333 . S
O77 C79 1.214 . S
O78 Cd74 2.352 . S
O78 C81 1.258 . S
C79 O76 1.320 . S
C79 O77 1.214 . S
O80 Cd72 2.277 . S
O80 C75 1.209 . S
C81 O78 1.258 . S
C81 O83 1.282 . S
O82 Cd74 2.277 . S
O82 C75 1.226 . S
O83 Cd74 2.356 . S
O83 C81 1.282 . S
C84 O85 1.306 . S
C84 O87 1.160 . S
O85 C84 1.306 . S
O85 Cd86 2.228 . S
Cd86 O85 2.228 . S
Cd86 O90 2.273 . S
Cd86 O94 2.277 . S
O87 C84 1.160 . S
O87 Cd88 2.203 . S
Cd88 O87 2.203 . S
Cd88 O90 2.411 . S
Cd88 O91 2.333 . S
Cd88 O92 2.352 . S
Cd88 O96 2.277 . S
Cd88 O97 2.356 . S
C89 O94 1.209 . S
C89 O96 1.226 . S
O90 Cd86 2.273 . S
O90 Cd88 2.411 . S
O90 C93 1.320 . S
O91 Cd88 2.333 . S
O91 C93 1.214 . S
O92 Cd88 2.352 . S
O92 C95 1.258 . S
C93 O90 1.320 . S
C93 O91 1.214 . S
O94 Cd86 2.277 . S
O94 C89 1.209 . S
C95 O92 1.258 . S
C95 O97 1.282 . S
O96 Cd88 2.277 . S
O96 C89 1.226 . S
O97 Cd88 2.356 . S
O97 C95 1.282 . S
C98 O99 1.306 . S
C98 O101 1.160 . S
O99 C98 1.306 . S
O99 Cd100 2.228 . S
Cd100 O99 2.228 . S
Cd100 O104 2.273 . S
Cd100 O108 2.277 . S
O101 C98 1.160 . S
O101 Cd102 2.203 . S
Cd102 O101 2.203 . S
Cd102 O104 2.411 . S
Cd102 O105 2.333 . S
Cd102 O106 2.352 . S
Cd102 O110 2.277 . S
Cd102 O111 2.356 . S
C103 O108 1.209 . S
C103 O110 1.226 . S
O104 Cd100 2.273 . S
O104 Cd102 2.411 . S
O104 C107 1.320 . S
O105 Cd102 2.333 . S
O105 C107 1.214 . S
O106 Cd102 2.352 . S
O106 C109 1.258 . S
C107 O104 1.320 . S
C107 O105 1.214 . S
O108 Cd100 2.277 . S
O108 C103 1.209 . S
C109 O106 1.258 . S
C109 O111 1.282 . S
O110 Cd102 2.277 . S
O110 C103 1.226 . S
O111 Cd102 2.356 . S
O111 C109 1.282 . S
C112 O113 1.306 . S
C112 O115 1.160 . S
O113 C112 1.306 . S
O113 Cd114 2.228 . S
Cd114 O113 2.228 . S
Cd114 O118 2.273 . S
Cd114 O122 2.277 . S
O115 C112 1.160 . S
O115 Cd116 2.203 . S
Cd116 O115 2.203 . S
Cd116 O118 2.411 . S
Cd116 O119 2.333 . S
Cd116 O120 2.352 . S
Cd116 O124 2.277 . S
Cd116 O125 2.356 . S
C117 O122 1.209 . S
C117 O124 1.226 . S
O118 Cd114 2.273 . S
O118 Cd116 2.411 . S
O118 C121 1.320 . S
O119 Cd116 2.333 . S
O119 C121 1.214 . S
O120 Cd116 2.352 . S
O120 C123 1.258 . S
C121 O118 1.320 . S
C121 O119 1.214 . S
O122 Cd114 2.277 . S
O122 C117 1.209 . S
C123 O120 1.258 . S
C123 O125 1.282 . S
O124 Cd116 2.277 . S
O124 C117 1.226 . S
O125 Cd116 2.356 . S
O125 C123 1.282 . S
C126 O127 1.306 . S
C126 O129 1.160 . S
O127 C126 1.306 . S
O127 Cd128 2.228 . S
Cd128 O127 2.228 . S
Cd128 O132 2.273 . S
Cd128 O136 2.277 . S
O129 C126 1.160 . S
O129 Cd130 2.203 . S
Cd130 O129 2.203 . S
Cd130 O132 2.411 . S
Cd130 O133 2.333 . S
Cd130 O134 2.352 . S
Cd130 O138 2.277 . S
Cd130 O139 2.356 . S
C131 O136 1.209 . S
C131 O138 1.226 . S
O132 Cd128 2.273 . S
O132 Cd130 2.411 . S
O132 C135 1.320 . S
O133 Cd130 2.333 . S
O133 C135 1.214 . S
O134 Cd130 2.352 . S
O134 C137 1.258 . S
C135 O132 1.320 . S
C135 O133 1.214 . S
O136 Cd128 2.277 . S
O136 C131 1.209 . S
C137 O134 1.258 . S
C137 O139 1.282 . S
O138 Cd130 2.277 . S
O138 C131 1.226 . S
O139 Cd130 2.356 . S
O139 C137 1.282 . S
C140 O141 1.306 . S
C140 O143 1.160 . S
O141 C140 1.306 . S
O141 Cd142 2.228 . S
Cd142 O141 2.228 . S
Cd142 O146 2.273 . S
Cd142 O150 2.277 . S
O143 C140 1.160 . S
O143 Cd144 2.203 . S
Cd144 O143 2.203 . S
Cd144 O146 2.411 . S
Cd144 O147 2.333 . S
Cd144 O148 2.352 . S
Cd144 O152 2.277 . S
Cd144 O153 2.356 . S
C145 O150 1.209 . S
C145 O152 1.226 . S
O146 Cd142 2.273 . S
O146 Cd144 2.411 . S
O146 C149 1.320 . S
O147 Cd144 2.333 . S
O147 C149 1.214 . S
O148 Cd144 2.352 . S
O148 C151 1.258 . S
C149 O146 1.320 . S
C149 O147 1.214 . S
O150 Cd142 2.277 . S
O150 C145 1.209 . S
C151 O148 1.258 . S
C151 O153 1.282 . S
O152 Cd144 2.277 . S
O152 C145 1.226 . S
O153 Cd144 2.356 . S
O153 C151 1.282 . S
C154 O155 1.306 . S
C154 O157 1.160 . S
O155 C154 1.306 . S
O155 Cd156 2.228 . S
Cd156 O155 2.228 . S
Cd156 O160 2.273 . S
Cd156 O164 2.277 . S
O157 C154 1.160 . S
O157 Cd158 2.203 . S
Cd158 O157 2.203 . S
Cd158 O160 2.411 . S
Cd158 O161 2.333 . S
Cd158 O162 2.352 . S
Cd158 O166 2.277 . S
Cd158 O167 2.356 . S
C159 O164 1.209 . S
C159 O166 1.226 . S
O160 Cd156 2.273 . S
O160 Cd158 2.411 . S
O160 C163 1.320 . S
O161 Cd158 2.333 . S
O161 C163 1.214 . S
O162 Cd158 2.352 . S
O162 C165 1.258 . S
C163 O160 1.320 . S
C163 O161 1.214 . S
O164 Cd156 2.277 . S
O164 C159 1.209 . S
C165 O162 1.258 . S
C165 O167 1.282 . S
O166 Cd158 2.277 . S
O166 C159 1.226 . S
O167 Cd158 2.356 . S
O167 C165 1.282 . S
C168 O169 1.306 . S
C168 O171 1.160 . S
O169 C168 1.306 . S
O169 Cd170 2.228 . S
Cd170 O169 2.228 . S
Cd170 O174 2.273 . S
Cd170 O178 2.277 . S
O171 C168 1.160 . S
O171 Cd172 2.203 . S
Cd172 O171 2.203 . S
Cd172 O174 2.411 . S
Cd172 O175 2.333 . S
Cd172 O176 2.352 . S
Cd172 O180 2.277 . S
Cd172 O181 2.356 . S
C173 O178 1.209 . S
C173 O180 1.226 . S
O174 Cd170 2.273 . S
O174 Cd172 2.411 . S
O174 C177 1.320 . S
O175 Cd172 2.333 . S
O175 C177 1.214 . S
O176 Cd172 2.352 . S
O176 C179 1.258 . S
C177 O174 1.320 . S
C177 O175 1.214 . S
O178 Cd170 2.277 . S
O178 C173 1.209 . S
C179 O176 1.258 . S
C179 O181 1.282 . S
O180 Cd172 2.277 . S
O180 C173 1.226 . S
O181 Cd172 2.356 . S
O181 C179 1.282 . S
C182 O183 1.306 . S
C182 O185 1.160 . S
O183 C182 1.306 . S
O183 Cd184 2.228 . S
Cd184 O183 2.228 . S
Cd184 O188 2.273 . S
Cd184 O192 2.277 . S
O185 C182 1.160 . S
O185 Cd186 2.203 . S
Cd186 O185 2.203 . S
Cd186 O188 2.411 . S
Cd186 O189 2.333 . S
Cd186 O190 2.352 . S
Cd186 O194 2.277 . S
Cd186 O195 2.356 . S
C187 O192 1.209 . S
C187 O194 1.226 . S
O188 Cd184 2.273 . S
O188 Cd186 2.411 . S
O188 C191 1.320 . S
O189 Cd186 2.333 . S
O189 C191 1.214 . S
O190 Cd186 2.352 . S
O190 C193 1.258 . S
C191 O188 1.320 . S
C191 O189 1.214 . S
O192 Cd184 2.277 . S
O192 C187 1.209 . S
C193 O190 1.258 . S
C193 O195 1.282 . S
O194 Cd186 2.277 . S
O194 C187 1.226 . S
O195 Cd186 2.356 . S
O195 C193 1.282 . S
C196 O197 1.306 . S
C196 O199 1.160 . S
O197 C196 1.306 . S
O197 Cd198 2.228 . S
Cd198 O197 2.228 . S
Cd198 O202 2.273 . S
Cd198 O206 2.277 . S
O199 C196 1.160 . S
O199 Cd200 2.203 . S
Cd200 O199 2.203 . S
Cd200 O202 2.411 . S
Cd200 O203 2.333 . S
Cd200 O204 2.352 . S
Cd200 O208 2.277 . S
Cd200 O209 2.356 . S
C201 O206 1.209 . S
C201 O208 1.226 . S
O202 Cd198 2.273 . S
O202 Cd200 2.411 . S
O202 C205 1.320 . S
O203 Cd200 2.333 . S
O203 C205 1.214 . S
O204 Cd200 2.352 . S
O204 C207 1.258 . S
C205 O202 1.320 . S
C205 O203 1.214 . S
O206 Cd198 2.277 . S
O206 C201 1.209 . S
C207 O204 1.258 . S
C207 O209 1.282 . S
O208 Cd200 2.277 . S
O208 C201 1.226 . S
O209 Cd200 2.356 . S
O209 C207 1.282 . S
C210 O211 1.306 . S
C210 O213 1.160 . S
O211 C210 1.306 . S
O211 Cd212 2.228 . S
Cd212 O211 2.228 . S
Cd212 O216 2.273 . S
Cd212 O220 2.277 . S
O213 C210 1.160 . S
O213 Cd214 2.203 . S
Cd214 O213 2.203 . S
Cd214 O216 2.411 . S
Cd214 O217 2.333 . S
Cd214 O218 2.352 . S
Cd214 O222 2.277 . S
Cd214 O223 2.356 . S
C215 O220 1.209 . S
C215 O222 1.226 . S
O216 Cd212 2.273 . S
O216 Cd214 2.411 . S
O216 C219 1.320 . S
O217 Cd214 2.333 . S
O217 C219 1.214 . S
O218 Cd214 2.352 . S
O218 C221 1.258 . S
C219 O216 1.320 . S
C219 O217 1.214 . S
O220 Cd212 2.277 . S
O220 C215 1.209 . S
C221 O218 1.258 . S
C221 O223 1.282 . S
O222 Cd214 2.277 . S
O222 C215 1.226 . S
O223 Cd214 2.356 . S
O223 C221 1.282 . S
C224 O225 1.306 . S
C224 O227 1.160 . S
O225 C224 1.306 . S
O225 Cd226 2.228 . S
Cd226 O225 2.228 . S
Cd226 O230 2.273 . S
Cd226 O234 2.277 . S
O227 C224 1.160 . S
O227 Cd228 2.203 . S
Cd228 O227 2.203 . S
Cd228 O230 2.411 . S
Cd228 O231 2.333 . S
Cd228 O232 2.352 . S
Cd228 O236 2.277 . S
Cd228 O237 2.356 . S
C229 O234 1.209 . S
C229 O236 1.226 . S
O230 Cd226 2.273 . S
O230 Cd228 2.411 . S
O230 C233 1.320 . S
O231 Cd228 2.333 . S
O231 C233 1.214 . S
O232 Cd228 2.352 . S
O232 C235 1.258 . S
C233 O230 1.320 . S
C233 O231 1.214 . S
O234 Cd226 2.277 . S
O234 C229 1.209 . S
C235 O232 1.258 . S
C235 O237 1.282 . S
O236 Cd228 2.277 . S
O236 C229 1.226 . S
O237 Cd228 2.356 . S
O237 C235 1.282 . S
C238 O239 1.306 . S
C238 O241 1.160 . S
O239 C238 1.306 . S
O239 Cd240 2.228 . S
Cd240 O239 2.228 . S
Cd240 O244 2.273 . S
Cd240 O248 2.277 . S
O241 C238 1.160 . S
O241 Cd242 2.203 . S
Cd242 O241 2.203 . S
Cd242 O244 2.411 . S
Cd242 O245 2.333 . S
Cd242 O246 2.352 . S
Cd242 O250 2.277 . S
Cd242 O251 2.356 . S
C243 O248 1.209 . S
C243 O250 1.226 . S
O244 Cd240 2.273 . S
O244 Cd242 2.411 . S
O244 C247 1.320 . S
O245 Cd242 2.333 . S
O245 C247 1.214 . S
O246 Cd242 2.352 . S
O246 C249 1.258 . S
C247 O244 1.320 . S
C247 O245 1.214 . S
O248 Cd240 2.277 . S
O248 C243 1.209 . S
C249 O246 1.258 . S
C249 O251 1.282 . S
O250 Cd242 2.277 . S
O250 C243 1.226 . S
O251 Cd242 2.356 . S
O251 C249 1.282 . S
C252 O253 1.306 . S
C252 O255 1.160 . S
O253 C252 1.306 . S
O253 Cd254 2.228 . S
Cd254 O253 2.228 . S
Cd254 O258 2.273 . S
Cd254 O262 2.277 . S
O255 C252 1.160 . S
O255 Cd256 2.203 . S
Cd256 O255 2.203 . S
Cd256 O258 2.411 . S
Cd256 O259 2.333 . S
Cd256 O260 2.352 . S
Cd256 O264 2.277 . S
Cd256 O265 2.356 . S
C257 O262 1.209 . S
C257 O264 1.226 . S
O258 Cd254 2.273 . S
O258 Cd256 2.411 . S
O258 C261 1.320 . S
O259 Cd256 2.333 . S
O259 C261 1.214 . S
O260 Cd256 2.352 . S
O260 C263 1.258 . S
C261 O258 1.320 . S
C261 O259 1.214 . S
O262 Cd254 2.277 . S
O262 C257 1.209 . S
C263 O260 1.258 . S
C263 O265 1.282 . S
O264 Cd256 2.277 . S
O264 C257 1.226 . S
O265 Cd256 2.356 . S
O265 C263 1.282 . S
C266 O267 1.306 . S
C266 O269 1.160 . S
O267 C266 1.306 . S
O267 Cd268 2.228 . S
Cd268 O267 2.228 . S
Cd268 O272 2.273 . S
Cd268 O276 2.277 . S
O269 C266 1.160 . S
O269 Cd270 2.203 . S
Cd270 O269 2.203 . S
Cd270 O272 2.411 . S
Cd270 O273 2.333 . S
Cd270 O274 2.352 . S
Cd270 O278 2.277 . S
Cd270 O279 2.356 . S
C271 O276 1.209 . S
C271 O278 1.226 . S
O272 Cd268 2.273 . S
O272 Cd270 2.411 . S
O272 C275 1.320 . S
O273 Cd270 2.333 . S
O273 C275 1.214 . S
O274 Cd270 2.352 . S
O274 C277 1.258 . S
C275 O272 1.320 . S
C275 O273 1.214 . S
O276 Cd268 2.277 . S
O276 C271 1.209 . S
C277 O274 1.258 . S
C277 O279 1.282 . S
O278 Cd270 2.277 . S
O278 C271 1.226 . S
O279 Cd270 2.356 . S
O279 C277 1.282 . S
C280 O281 1.306 . S
C280 O283 1.160 . S
O281 C280 1.306 . S
O281 Cd282 2.228 . S
Cd282 O281 2.228 . S
Cd282 O286 2.273 . S
Cd282 O290 2.277 . S
O283 C280 1.160 . S
O283 Cd284 2.203 . S
Cd284 O283 2.203 . S
Cd284 O286 2.411 . S
Cd284 O287 2.333 . S
Cd284 O288 2.352 . S
Cd284 O292 2.277 . S
Cd284 O293 2.356 . S
C285 O290 1.209 . S
C285 O292 1.226 . S
O286 Cd282 2.273 . S
O286 Cd284 2.411 . S
O286 C289 1.320 . S
O287 Cd284 2.333 . S
O287 C289 1.214 . S
O288 Cd284 2.352 . S
O288 C291 1.258 . S
C289 O286 1.320 . S
C289 O287 1.214 . S
O290 Cd282 2.277 . S
O290 C285 1.209 . S
C291 O288 1.258 . S
C291 O293 1.282 . S
O292 Cd284 2.277 . S
O292 C285 1.226 . S
O293 Cd284 2.356 . S
O293 C291 1.282 . S
C294 O295 1.306 . S
C294 O297 1.160 . S
O295 C294 1.306 . S
O295 Cd296 2.228 . S
Cd296 O295 2.228 . S
Cd296 O300 2.273 . S
Cd296 O304 2.277 . S
O297 C294 1.160 . S
O297 Cd298 2.203 . S
Cd298 O297 2.203 . S
Cd298 O300 2.411 . S
Cd298 O301 2.333 . S
Cd298 O302 2.352 . S
Cd298 O306 2.277 . S
Cd298 O307 2.356 . S
C299 O304 1.209 . S
C299 O306 1.226 . S
O300 Cd296 2.273 . S
O300 Cd298 2.411 . S
O300 C303 1.320 . S
O301 Cd298 2.333 . S
O301 C303 1.214 . S
O302 Cd298 2.352 . S
O302 C305 1.258 . S
C303 O300 1.320 . S
C303 O301 1.214 . S
O304 Cd296 2.277 . S
O304 C299 1.209 . S
C305 O302 1.258 . S
C305 O307 1.282 . S
O306 Cd298 2.277 . S
O306 C299 1.226 . S
O307 Cd298 2.356 . S
O307 C305 1.282 . S
C308 O309 1.306 . S
C308 O311 1.160 . S
O309 C308 1.306 . S
O309 Cd310 2.228 . S
Cd310 O309 2.228 . S
Cd310 O314 2.273 . S
Cd310 O318 2.277 . S
O311 C308 1.160 . S
O311 Cd312 2.203 . S
Cd312 O311 2.203 . S
Cd312 O314 2.411 . S
Cd312 O315 2.333 . S
Cd312 O316 2.352 . S
Cd312 O320 2.277 . S
Cd312 O321 2.356 . S
C313 O318 1.209 . S
C313 O320 1.226 . S
O314 Cd310 2.273 . S
O314 Cd312 2.411 . S
O314 C317 1.320 . S
O315 Cd312 2.333 . S
O315 C317 1.214 . S
O316 Cd312 2.352 . S
O316 C319 1.258 . S
C317 O314 1.320 . S
C317 O315 1.214 . S
O318 Cd310 2.277 . S
O318 C313 1.209 . S
C319 O316 1.258 . S
C319 O321 1.282 . S
O320 Cd312 2.277 . S
O320 C313 1.226 . S
O321 Cd312 2.356 . S
O321 C319 1.282 . S
C322 O323 1.306 . S
C322 O325 1.160 . S
O323 C322 1.306 . S
O323 Cd324 2.228 . S
Cd324 O323 2.228 . S
Cd324 O328 2.273 . S
Cd324 O332 2.277 . S
O325 C322 1.160 . S
O325 Cd326 2.203 . S
Cd326 O325 2.203 . S
Cd326 O328 2.411 . S
Cd326 O329 2.333 . S
Cd326 O330 2.352 . S
Cd326 O334 2.277 . S
Cd326 O335 2.356 . S
C327 O332 1.209 . S
C327 O334 1.226 . S
O328 Cd324 2.273 . S
O328 Cd326 2.411 . S
O328 C331 1.320 . S
O329 Cd326 2.333 . S
O329 C331 1.214 . S
O330 Cd326 2.352 . S
O330 C333 1.258 . S
C331 O328 1.320 . S
C331 O329 1.214 . S
O332 Cd324 2.277 . S
O332 C327 1.209 . S
C333 O330 1.258 . S
C333 O335 1.282 . S
O334 Cd326 2.277 . S
O334 C327 1.226 . S
O335 Cd326 2.356 . S
O335 C333 1.282 . S
C336 O337 1.306 . S
C336 O339 1.160 . S
O337 C336 1.306 . S
O337 Cd338 2.228 . S
Cd338 O337 2.228 . S
Cd338 O342 2.273 . S
Cd338 O346 2.277 . S
O339 C336 1.160 . S
O339 Cd340 2.203 . S
Cd340 O339 2.203 . S
Cd340 O342 2.411 . S
Cd340 O343 2.333 . S
Cd340 O344 2.352 . S
Cd340 O348 2.277 . S
Cd340 O349 2.356 . S
C341 O346 1.209 . S
C341 O348 1.226 . S
O342 Cd338 2.273 . S
O342 Cd340 2.411 . S
O342 C345 1.320 . S
O343 Cd340 2.333 . S
O343 C345 1.214 . S
O344 Cd340 2.352 . S
O344 C347 1.258 . S
C345 O342 1.320 . S
C345 O343 1.214 . S
O346 Cd338 2.277 . S
O346 C341 1.209 . S
C347 O344 1.258 . S
C347 O349 1.282 . S
O348 Cd340 2.277 . S
O348 C341 1.226 . S
O349 Cd340 2.356 . S
O349 C347 1.282 . S
C350 O351 1.306 . S
C350 O353 1.160 . S
O351 C350 1.306 . S
O351 Cd352 2.228 . S
Cd352 O351 2.228 . S
Cd352 O356 2.273 . S
Cd352 O360 2.277 . S
O353 C350 1.160 . S
O353 Cd354 2.203 . S
Cd354 O353 2.203 . S
Cd354 O356 2.411 . S
Cd354 O357 2.333 . S
Cd354 O358 2.352 . S
Cd354 O362 2.277 . S
Cd354 O363 2.356 . S
C355 O360 1.209 . S
C355 O362 1.226 . S
O356 Cd352 2.273 . S
O356 Cd354 2.411 . S
O356 C359 1.320 . S
O357 Cd354 2.333 . S
O357 C359 1.214 . S
O358 Cd354 2.352 . S
O358 C361 1.258 . S
C359 O356 1.320 . S
C359 O357 1.214 . S
O360 Cd352 2.277 . S
O360 C355 1.209 . S
C361 O358 1.258 . S
C361 O363 1.282 . S
O362 Cd354 2.277 . S
O362 C355 1.226 . S
O363 Cd354 2.356 . S
O363 C361 1.282 . S
C364 O365 1.306 . S
C364 O367 1.160 . S
O365 C364 1.306 . S
O365 Cd366 2.228 . S
Cd366 O365 2.228 . S
Cd366 O370 2.273 . S
Cd366 O374 2.277 . S
O367 C364 1.160 . S
O367 Cd368 2.203 . S
Cd368 O367 2.203 . S
Cd368 O370 2.411 . S
Cd368 O371 2.333 . S
Cd368 O372 2.352 . S
Cd368 O376 2.277 . S
Cd368 O377 2.356 . S
C369 O374 1.209 . S
C369 O376 1.226 . S
O370 Cd366 2.273 . S
O370 Cd368 2.411 . S
O370 C373 1.320 . S
O371 Cd368 2.333 . S
O371 C373 1.214 . S
O372 Cd368 2.352 . S
O372 C375 1.258 . S
C373 O370 1.320 . S
C373 O371 1.214 . S
O374 Cd366 2.277 . S
O374 C369 1.209 . S
C375 O372 1.258 . S
C375 O377 1.282 . S
O376 Cd368 2.277 . S
O376 C369 1.226 . S
O377 Cd368 2.356 . S
O377 C375 1.282 . S
C378 O379 1.306 . S
C378 O381 1.160 . S
O379 C378 1.306 . S
O379 Cd380 2.228 . S
Cd380 O379 2.228 . S
Cd380 O384 2.273 . S
Cd380 O388 2.277 . S
O381 C378 1.160 . S
O381 Cd382 2.203 . S
Cd382 O381 2.203 . S
Cd382 O384 2.411 . S
Cd382 O385 2.333 . S
Cd382 O386 2.352 . S
Cd382 O390 2.277 . S
Cd382 O391 2.356 . S
C383 O388 1.209 . S
C383 O390 1.226 . S
O384 Cd380 2.273 . S
O384 Cd382 2.411 . S
O384 C387 1.320 . S
O385 Cd382 2.333 . S
O385 C387 1.214 . S
O386 Cd382 2.352 . S
O386 C389 1.258 . S
C387 O384 1.320 . S
C387 O385 1.214 . S
O388 Cd380 2.277 . S
O388 C383 1.209 . S
C389 O386 1.258 . S
C389 O391 1.282 . S
O390 Cd382 2.277 . S
O390 C383 1.226 . S
O391 Cd382 2.356 . S
O391 C389 1.282 . S
C392 O393 1.306 . S
C392 O395 1.160 . S
O393 C392 1.306 . S
O393 Cd394 2.228 . S
Cd394 O393 2.228 . S
Cd394 O398 2.273 . S
Cd394 O402 2.277 . S
O395 C392 1.160 . S
O395 Cd396 2.203 . S
Cd396 O395 2.203 . S
Cd396 O398 2.411 . S
Cd396 O399 2.333 . S
Cd396 O400 2.352 . S
Cd396 O404 2.277 . S
Cd396 O405 2.356 . S
C397 O402 1.209 . S
C397 O404 1.226 . S
O398 Cd394 2.273 . S
O398 Cd396 2.411 . S
O398 C401 1.320 . S
O399 Cd396 2.333 . S
O399 C401 1.214 . S
O400 Cd396 2.352 . S
O400 C403 1.258 . S
C401 O398 1.320 . S
C401 O399 1.214 . S
O402 Cd394 2.277 . S
O402 C397 1.209 . S
C403 O400 1.258 . S
C403 O405 1.282 . S
O404 Cd396 2.277 . S
O404 C397 1.226 . S
O405 Cd396 2.356 . S
O405 C403 1.282 . S
C406 O407 1.306 . S
C406 O409 1.160 . S
O407 C406 1.306 . S
O407 Cd408 2.228 . S
Cd408 O407 2.228 . S
Cd408 O412 2.273 . S
Cd408 O416 2.277 . S
O409 C406 1.160 . S
O409 Cd410 2.203 . S
Cd410 O409 2.203 . S
Cd410 O412 2.411 . S
Cd410 O413 2.333 . S
Cd410 O414 2.352 . S
Cd410 O418 2.277 . S
Cd410 O419 2.356 . S
C411 O416 1.209 . S
C411 O418 1.226 . S
O412 Cd408 2.273 . S
O412 Cd410 2.411 . S
O412 C415 1.320 . S
O413 Cd410 2.333 . S
O413 C415 1.214 . S
O414 Cd410 2.352 . S
O414 C417 1.258 . S
C415 O412 1.320 . S
C415 O413 1.214 . S
O416 Cd408 2.277 . S
O416 C411 1.209 . S
C417 O414 1.258 . S
C417 O419 1.282 . S
O418 Cd410 2.277 . S
O418 C411 1.226 . S
O419 Cd410 2.356 . S
O419 C417 1.282 . S
C420 O421 1.306 . S
C420 O423 1.160 . S
O421 C420 1.306 . S
O421 Cd422 2.228 . S
Cd422 O421 2.228 . S
Cd422 O426 2.273 . S
Cd422 O430 2.277 . S
O423 C420 1.160 . S
O423 Cd424 2.203 . S
Cd424 O423 2.203 . S
Cd424 O426 2.411 . S
Cd424 O427 2.333 . S
Cd424 O428 2.352 . S
Cd424 O432 2.277 . S
Cd424 O433 2.356 . S
C425 O430 1.209 . S
C425 O432 1.226 . S
O426 Cd422 2.273 . S
O426 Cd424 2.411 . S
O426 C429 1.320 . S
O427 Cd424 2.333 . S
O427 C429 1.214 . S
O428 Cd424 2.352 . S
O428 C431 1.258 . S
C429 O426 1.320 . S
C429 O427 1.214 . S
O430 Cd422 2.277 . S
O430 C425 1.209 . S
C431 O428 1.258 . S
C431 O433 1.282 . S
O432 Cd424 2.277 . S
O432 C425 1.226 . S
O433 Cd424 2.356 . S
O433 C431 1.282 . S
C434 O435 1.306 . S
C434 O437 1.160 . S
O435 C434 1.306 . S
O435 Cd436 2.228 . S
Cd436 O435 2.228 . S
Cd436 O440 2.273 . S
Cd436 O444 2.277 . S
O437 C434 1.160 . S
O437 Cd438 2.203 . S
Cd438 O437 2.203 . S
Cd438 O440 2.411 . S
Cd438 O441 2.333 . S
Cd438 O442 2.352 . S
Cd438 O446 2.277 . S
Cd438 O447 2.356 . S
C439 O444 1.209 . S
C439 O446 1.226 . S
O440 Cd436 2.273 . S
O440 Cd438 2.411 . S
O440 C443 1.320 . S
O441 Cd438 2.333 . S
O441 C443 1.214 . S
O442 Cd438 2.352 . S
O442 C445 1.258 . S
C443 O440 1.320 . S
C443 O441 1.214 . S
O444 Cd436 2.277 . S
O444 C439 1.209 . S
C445 O442 1.258 . S
C445 O447 1.282 . S
O446 Cd438 2.277 . S
O446 C439 1.226 . S
O447 Cd438 2.356 . S
O447 C445 1.282 . S
C448 C449 1.349 . S
C448 C450 1.327 . S
C448 H473 0.950 . S
C449 C448 1.349 . S
C449 C465 1.349 . S
C450 C448 1.327 . S
C450 C469 1.429 . S
C450 H474 0.950 . S
C451 C468 1.574 . S
C451 C470 1.368 . S
C451 H475 0.949 . S
H452 C456 0.949 . S
C453 C454 1.349 . S
C453 C455 1.327 . S
C453 H476 0.950 . S
C454 C453 1.349 . S
C454 C466 1.349 . S
C455 C453 1.327 . S
C455 C471 1.429 . S
C455 H477 0.950 . S
C456 H452 0.949 . S
C456 C464 1.574 . S
C456 C472 1.368 . S
H457 C465 0.950 . S
H458 C463 0.950 . S
H459 C464 0.949 . S
H460 C466 0.950 . S
H461 C467 0.950 . S
H462 C468 0.949 . S
C463 H458 0.950 . S
C463 C465 1.327 . S
C463 C469 1.429 . S
C464 C456 1.574 . S
C464 H459 0.949 . S
C464 C470 1.368 . S
C465 C449 1.349 . S
C465 H457 0.950 . S
C465 C463 1.327 . S
C466 C454 1.349 . S
C466 H460 0.950 . S
C466 C467 1.327 . S
C467 H461 0.950 . S
C467 C466 1.327 . S
C467 C471 1.429 . S
C468 C451 1.574 . S
C468 H462 0.949 . S
C468 C472 1.368 . S
C469 C450 1.429 . S
C469 C463 1.429 . S
C469 C470 1.523 . S
C470 C451 1.368 . S
C470 C464 1.368 . S
C470 C469 1.523 . S
C471 C455 1.429 . S
C471 C467 1.429 . S
C471 C472 1.523 . S
C472 C456 1.368 . S
C472 C468 1.368 . S
C472 C471 1.523 . S
H473 C448 0.950 . S
H474 C450 0.950 . S
H475 C451 0.949 . S
H476 C453 0.950 . S
H477 C455 0.950 . S
C478 C479 1.349 . S
C478 C480 1.327 . S
C478 H503 0.950 . S
C479 C478 1.349 . S
C479 C495 1.349 . S
C480 C478 1.327 . S
C480 C499 1.429 . S
C480 H504 0.950 . S
C481 C498 1.574 . S
C481 C500 1.368 . S
C481 H505 0.949 . S
H482 C486 0.949 . S
C483 C484 1.349 . S
C483 C485 1.327 . S
C483 H506 0.950 . S
C484 C483 1.349 . S
C484 C496 1.349 . S
C485 C483 1.327 . S
C485 C501 1.429 . S
C485 H507 0.950 . S
C486 H482 0.949 . S
C486 C494 1.574 . S
C486 C502 1.368 . S
H487 C495 0.950 . S
H488 C493 0.950 . S
H489 C494 0.949 . S
H490 C496 0.950 . S
H491 C497 0.950 . S
H492 C498 0.949 . S
C493 H488 0.950 . S
C493 C495 1.327 . S
C493 C499 1.429 . S
C494 C486 1.574 . S
C494 H489 0.949 . S
C494 C500 1.368 . S
C495 C479 1.349 . S
C495 H487 0.950 . S
C495 C493 1.327 . S
C496 C484 1.349 . S
C496 H490 0.950 . S
C496 C497 1.327 . S
C497 H491 0.950 . S
C497 C496 1.327 . S
C497 C501 1.429 . S
C498 C481 1.574 . S
C498 H492 0.949 . S
C498 C502 1.368 . S
C499 C480 1.429 . S
C499 C493 1.429 . S
C499 C500 1.523 . S
C500 C481 1.368 . S
C500 C494 1.368 . S
C500 C499 1.523 . S
C501 C485 1.429 . S
C501 C497 1.429 . S
C501 C502 1.523 . S
C502 C486 1.368 . S
C502 C498 1.368 . S
C502 C501 1.523 . S
H503 C478 0.950 . S
H504 C480 0.950 . S
H505 C481 0.949 . S
H506 C483 0.950 . S
H507 C485 0.950 . S
C508 C509 1.349 . S
C508 C510 1.327 . S
C508 H533 0.950 . S
C509 C508 1.349 . S
C509 C525 1.349 . S
C510 C508 1.327 . S
C510 C529 1.429 . S
C510 H534 0.950 . S
C511 C528 1.574 . S
C511 C530 1.368 . S
C511 H535 0.949 . S
H512 C516 0.949 . S
C513 C514 1.349 . S
C513 C515 1.327 . S
C513 H536 0.950 . S
C514 C513 1.349 . S
C514 C526 1.349 . S
C515 C513 1.327 . S
C515 C531 1.429 . S
C515 H537 0.950 . S
C516 H512 0.949 . S
C516 C524 1.574 . S
C516 C532 1.368 . S
H517 C525 0.950 . S
H518 C523 0.950 . S
H519 C524 0.949 . S
H520 C526 0.950 . S
H521 C527 0.950 . S
H522 C528 0.949 . S
C523 H518 0.950 . S
C523 C525 1.327 . S
C523 C529 1.429 . S
C524 C516 1.574 . S
C524 H519 0.949 . S
C524 C530 1.368 . S
C525 C509 1.349 . S
C525 H517 0.950 . S
C525 C523 1.327 . S
C526 C514 1.349 . S
C526 H520 0.950 . S
C526 C527 1.327 . S
C527 H521 0.950 . S
C527 C526 1.327 . S
C527 C531 1.429 . S
C528 C511 1.574 . S
C528 H522 0.949 . S
C528 C532 1.368 . S
C529 C510 1.429 . S
C529 C523 1.429 . S
C529 C530 1.523 . S
C530 C511 1.368 . S
C530 C524 1.368 . S
C530 C529 1.523 . S
C531 C515 1.429 . S
C531 C527 1.429 . S
C531 C532 1.523 . S
C532 C516 1.368 . S
C532 C528 1.368 . S
C532 C531 1.523 . S
H533 C508 0.950 . S
H534 C510 0.950 . S
H535 C511 0.949 . S
H536 C513 0.950 . S
H537 C515 0.950 . S
C538 C539 1.349 . S
C538 C540 1.327 . S
C538 H563 0.950 . S
C539 C538 1.349 . S
C539 C555 1.349 . S
C540 C538 1.327 . S
C540 C559 1.429 . S
C540 H564 0.950 . S
C541 C558 1.574 . S
C541 C560 1.368 . S
C541 H565 0.949 . S
H542 C546 0.949 . S
C543 C544 1.349 . S
C543 C545 1.327 . S
C543 H566 0.950 . S
C544 C543 1.349 . S
C544 C556 1.349 . S
C545 C543 1.327 . S
C545 C561 1.429 . S
C545 H567 0.950 . S
C546 H542 0.949 . S
C546 C554 1.574 . S
C546 C562 1.368 . S
H547 C555 0.950 . S
H548 C553 0.950 . S
H549 C554 0.949 . S
H550 C556 0.950 . S
H551 C557 0.950 . S
H552 C558 0.949 . S
C553 H548 0.950 . S
C553 C555 1.327 . S
C553 C559 1.429 . S
C554 C546 1.574 . S
C554 H549 0.949 . S
C554 C560 1.368 . S
C555 C539 1.349 . S
C555 H547 0.950 . S
C555 C553 1.327 . S
C556 C544 1.349 . S
C556 H550 0.950 . S
C556 C557 1.327 . S
C557 H551 0.950 . S
C557 C556 1.327 . S
C557 C561 1.429 . S
C558 C541 1.574 . S
C558 H552 0.949 . S
C558 C562 1.368 . S
C559 C540 1.429 . S
C559 C553 1.429 . S
C559 C560 1.523 . S
C560 C541 1.368 . S
C560 C554 1.368 . S
C560 C559 1.523 . S
C561 C545 1.429 . S
C561 C557 1.429 . S
C561 C562 1.523 . S
C562 C546 1.368 . S
C562 C558 1.368 . S
C562 C561 1.523 . S
H563 C538 0.950 . S
H564 C540 0.950 . S
H565 C541 0.949 . S
H566 C543 0.950 . S
H567 C545 0.950 . S
C568 C569 1.349 . S
C568 C570 1.327 1_565 S
C568 H593 0.950 . S
C569 C568 1.349 . S
C569 C585 1.349 . S
C570 C568 1.327 1_545 S
C570 C589 1.429 . S
C570 H594 0.950 . S
C571 C588 1.574 . S
C571 C590 1.368 . S
C571 H595 0.949 . S
H572 C576 0.949 . S
C573 C574 1.349 . S
C573 C575 1.327 . S
C573 H596 0.950 . S
C574 C573 1.349 . S
C574 C586 1.349 . S
C575 C573 1.327 . S
C575 C591 1.429 . S
C575 H597 0.950 . S
C576 H572 0.949 . S
C576 C584 1.574 . S
C576 C592 1.368 . S
H577 C585 0.950 . S
H578 C583 0.950 . S
H579 C584 0.949 . S
H580 C586 0.950 . S
H581 C587 0.950 . S
H582 C588 0.949 . S
C583 H578 0.950 . S
C583 C585 1.327 1_545 S
C583 C589 1.429 . S
C584 C576 1.574 . S
C584 H579 0.949 . S
C584 C590 1.368 . S
C585 C569 1.349 . S
C585 H577 0.950 . S
C585 C583 1.327 1_565 S
C586 C574 1.349 . S
C586 H580 0.950 . S
C586 C587 1.327 . S
C587 H581 0.950 . S
C587 C586 1.327 . S
C587 C591 1.429 . S
C588 C571 1.574 . S
C588 H582 0.949 . S
C588 C592 1.368 . S
C589 C570 1.429 . S
C589 C583 1.429 . S
C589 C590 1.523 . S
C590 C571 1.368 . S
C590 C584 1.368 . S
C590 C589 1.523 . S
C591 C575 1.429 . S
C591 C587 1.429 . S
C591 C592 1.523 . S
C592 C576 1.368 . S
C592 C588 1.368 . S
C592 C591 1.523 . S
H593 C568 0.950 . S
H594 C570 0.950 . S
H595 C571 0.949 . S
H596 C573 0.950 . S
H597 C575 0.950 . S
C598 C599 1.349 . S
C598 C600 1.327 1_565 S
C598 H623 0.950 . S
C599 C598 1.349 . S
C599 C615 1.349 . S
C600 C598 1.327 1_545 S
C600 C619 1.429 . S
C600 H624 0.950 . S
C601 C618 1.574 . S
C601 C620 1.368 . S
C601 H625 0.949 . S
H602 C606 0.949 . S
C603 C604 1.349 . S
C603 C605 1.327 . S
C603 H626 0.950 . S
C604 C603 1.349 . S
C604 C616 1.349 . S
C605 C603 1.327 . S
C605 C621 1.429 . S
C605 H627 0.950 . S
C606 H602 0.949 . S
C606 C614 1.574 . S
C606 C622 1.368 . S
H607 C615 0.950 . S
H608 C613 0.950 . S
H609 C614 0.949 . S
H610 C616 0.950 . S
H611 C617 0.950 . S
H612 C618 0.949 . S
C613 H608 0.950 . S
C613 C615 1.327 1_545 S
C613 C619 1.429 . S
C614 C606 1.574 . S
C614 H609 0.949 . S
C614 C620 1.368 . S
C615 C599 1.349 . S
C615 H607 0.950 . S
C615 C613 1.327 1_565 S
C616 C604 1.349 . S
C616 H610 0.950 . S
C616 C617 1.327 . S
C617 H611 0.950 . S
C617 C616 1.327 . S
C617 C621 1.429 . S
C618 C601 1.574 . S
C618 H612 0.949 . S
C618 C622 1.368 . S
C619 C600 1.429 . S
C619 C613 1.429 . S
C619 C620 1.523 . S
C620 C601 1.368 . S
C620 C614 1.368 . S
C620 C619 1.523 . S
C621 C605 1.429 . S
C621 C617 1.429 . S
C621 C622 1.523 . S
C622 C606 1.368 . S
C622 C618 1.368 . S
C622 C621 1.523 . S
H623 C598 0.950 . S
H624 C600 0.950 . S
H625 C601 0.949 . S
H626 C603 0.950 . S
H627 C605 0.950 . S
C628 C629 1.349 . S
C628 C630 1.327 1_545 S
C628 H653 0.950 . S
C629 C628 1.349 . S
C629 C645 1.349 . S
C630 C628 1.327 1_565 S
C630 C649 1.429 . S
C630 H654 0.950 . S
C631 C648 1.574 . S
C631 C650 1.368 . S
C631 H655 0.949 . S
H632 C636 0.949 . S
C633 C634 1.349 . S
C633 C635 1.327 . S
C633 H656 0.950 . S
C634 C633 1.349 . S
C634 C646 1.349 . S
C635 C633 1.327 . S
C635 C651 1.429 . S
C635 H657 0.950 . S
C636 H632 0.949 . S
C636 C644 1.574 . S
C636 C652 1.368 . S
H637 C645 0.950 . S
H638 C643 0.950 . S
H639 C644 0.949 . S
H640 C646 0.950 . S
H641 C647 0.950 . S
H642 C648 0.949 . S
C643 H638 0.950 . S
C643 C645 1.327 1_565 S
C643 C649 1.429 . S
C644 C636 1.574 . S
C644 H639 0.949 . S
C644 C650 1.368 . S
C645 C629 1.349 . S
C645 H637 0.950 . S
C645 C643 1.327 1_545 S
C646 C634 1.349 . S
C646 H640 0.950 . S
C646 C647 1.327 . S
C647 H641 0.950 . S
C647 C646 1.327 . S
C647 C651 1.429 . S
C648 C631 1.574 . S
C648 H642 0.949 . S
C648 C652 1.368 . S
C649 C630 1.429 . S
C649 C643 1.429 . S
C649 C650 1.523 . S
C650 C631 1.368 . S
C650 C644 1.368 . S
C650 C649 1.523 . S
C651 C635 1.429 . S
C651 C647 1.429 . S
C651 C652 1.523 . S
C652 C636 1.368 . S
C652 C648 1.368 . S
C652 C651 1.523 . S
H653 C628 0.950 . S
H654 C630 0.950 . S
H655 C631 0.949 . S
H656 C633 0.950 . S
H657 C635 0.950 . S
C658 C659 1.349 . S
C658 C660 1.327 . S
C658 H683 0.950 . S
C659 C658 1.349 . S
C659 C675 1.349 . S
C660 C658 1.327 . S
C660 C679 1.429 . S
C660 H684 0.950 . S
C661 C678 1.574 . S
C661 C680 1.368 . S
C661 H685 0.949 . S
H662 C666 0.949 . S
C663 C664 1.349 . S
C663 C665 1.327 1_545 S
C663 H686 0.950 . S
C664 C663 1.349 . S
C664 C676 1.349 . S
C665 C663 1.327 1_565 S
C665 C681 1.429 . S
C665 H687 0.950 . S
C666 H662 0.949 . S
C666 C674 1.574 . S
C666 C682 1.368 . S
H667 C675 0.950 . S
H668 C673 0.950 . S
H669 C674 0.949 . S
H670 C676 0.950 . S
H671 C677 0.950 . S
H672 C678 0.949 . S
C673 H668 0.950 . S
C673 C675 1.327 . S
C673 C679 1.429 . S
C674 C666 1.574 . S
C674 H669 0.949 . S
C674 C680 1.368 . S
C675 C659 1.349 . S
C675 H667 0.950 . S
C675 C673 1.327 . S
C676 C664 1.349 . S
C676 H670 0.950 . S
C676 C677 1.327 1_545 S
C677 H671 0.950 . S
C677 C676 1.327 1_565 S
C677 C681 1.429 . S
C678 C661 1.574 . S
C678 H672 0.949 . S
C678 C682 1.368 . S
C679 C660 1.429 . S
C679 C673 1.429 . S
C679 C680 1.523 . S
C680 C661 1.368 . S
C680 C674 1.368 . S
C680 C679 1.523 . S
C681 C665 1.429 . S
C681 C677 1.429 . S
C681 C682 1.523 . S
C682 C666 1.368 . S
C682 C678 1.368 . S
C682 C681 1.523 . S
H683 C658 0.950 . S
H684 C660 0.950 . S
H685 C661 0.949 . S
H686 C663 0.950 . S
H687 C665 0.950 . S
C688 C689 1.349 . S
C688 C690 1.327 . S
C688 H713 0.950 . S
C689 C688 1.349 . S
C689 C705 1.349 . S
C690 C688 1.327 . S
C690 C709 1.429 . S
C690 H714 0.950 . S
C691 C708 1.574 . S
C691 C710 1.368 . S
C691 H715 0.949 . S
H692 C696 0.949 . S
C693 C694 1.349 . S
C693 C695 1.327 . S
C693 H716 0.950 . S
C694 C693 1.349 . S
C694 C706 1.349 . S
C695 C693 1.327 . S
C695 C711 1.429 . S
C695 H717 0.950 . S
C696 H692 0.949 . S
C696 C704 1.574 . S
C696 C712 1.368 . S
H697 C705 0.950 . S
H698 C703 0.950 . S
H699 C704 0.949 . S
H700 C706 0.950 . S
H701 C707 0.950 . S
H702 C708 0.949 . S
C703 H698 0.950 . S
C703 C705 1.327 . S
C703 C709 1.429 . S
C704 C696 1.574 . S
C704 H699 0.949 . S
C704 C710 1.368 . S
C705 C689 1.349 . S
C705 H697 0.950 . S
C705 C703 1.327 . S
C706 C694 1.349 . S
C706 H700 0.950 . S
C706 C707 1.327 . S
C707 H701 0.950 . S
C707 C706 1.327 . S
C707 C711 1.429 . S
C708 C691 1.574 . S
C708 H702 0.949 . S
C708 C712 1.368 . S
C709 C690 1.429 . S
C709 C703 1.429 . S
C709 C710 1.523 . S
C710 C691 1.368 . S
C710 C704 1.368 . S
C710 C709 1.523 . S
C711 C695 1.429 . S
C711 C707 1.429 . S
C711 C712 1.523 . S
C712 C696 1.368 . S
C712 C708 1.368 . S
C712 C711 1.523 . S
H713 C688 0.950 . S
H714 C690 0.950 . S
H715 C691 0.949 . S
H716 C693 0.950 . S
H717 C695 0.950 . S
C718 C719 1.349 . S
C718 C720 1.327 . S
C718 H743 0.950 . S
C719 C718 1.349 . S
C719 C735 1.349 . S
C720 C718 1.327 . S
C720 C739 1.429 . S
C720 H744 0.950 . S
C721 C738 1.574 . S
C721 C740 1.368 . S
C721 H745 0.949 . S
H722 C726 0.949 . S
C723 C724 1.349 . S
C723 C725 1.327 . S
C723 H746 0.950 . S
C724 C723 1.349 . S
C724 C736 1.349 . S
C725 C723 1.327 . S
C725 C741 1.429 . S
C725 H747 0.950 . S
C726 H722 0.949 . S
C726 C734 1.574 . S
C726 C742 1.368 . S
H727 C735 0.950 . S
H728 C733 0.950 . S
H729 C734 0.949 . S
H730 C736 0.950 . S
H731 C737 0.950 . S
H732 C738 0.949 . S
C733 H728 0.950 . S
C733 C735 1.327 . S
C733 C739 1.429 . S
C734 C726 1.574 . S
C734 H729 0.949 . S
C734 C740 1.368 . S
C735 C719 1.349 . S
C735 H727 0.950 . S
C735 C733 1.327 . S
C736 C724 1.349 . S
C736 H730 0.950 . S
C736 C737 1.327 . S
C737 H731 0.950 . S
C737 C736 1.327 . S
C737 C741 1.429 . S
C738 C721 1.574 . S
C738 H732 0.949 . S
C738 C742 1.368 . S
C739 C720 1.429 . S
C739 C733 1.429 . S
C739 C740 1.523 . S
C740 C721 1.368 . S
C740 C734 1.368 . S
C740 C739 1.523 . S
C741 C725 1.429 . S
C741 C737 1.429 . S
C741 C742 1.523 . S
C742 C726 1.368 . S
C742 C738 1.368 . S
C742 C741 1.523 . S
H743 C718 0.950 . S
H744 C720 0.950 . S
H745 C721 0.949 . S
H746 C723 0.950 . S
H747 C725 0.950 . S
C748 C749 1.349 . S
C748 C750 1.327 . S
C748 H773 0.950 . S
C749 C748 1.349 . S
C749 C765 1.349 . S
C750 C748 1.327 . S
C750 C769 1.429 . S
C750 H774 0.950 . S
C751 C768 1.574 . S
C751 C770 1.368 . S
C751 H775 0.949 . S
H752 C756 0.949 . S
C753 C754 1.349 . S
C753 C755 1.327 . S
C753 H776 0.950 . S
C754 C753 1.349 . S
C754 C766 1.349 . S
C755 C753 1.327 . S
C755 C771 1.429 . S
C755 H777 0.950 . S
C756 H752 0.949 . S
C756 C764 1.574 . S
C756 C772 1.368 . S
H757 C765 0.950 . S
H758 C763 0.950 . S
H759 C764 0.949 . S
H760 C766 0.950 . S
H761 C767 0.950 . S
H762 C768 0.949 . S
C763 H758 0.950 . S
C763 C765 1.327 . S
C763 C769 1.429 . S
C764 C756 1.574 . S
C764 H759 0.949 . S
C764 C770 1.368 . S
C765 C749 1.349 . S
C765 H757 0.950 . S
C765 C763 1.327 . S
C766 C754 1.349 . S
C766 H760 0.950 . S
C766 C767 1.327 . S
C767 H761 0.950 . S
C767 C766 1.327 . S
C767 C771 1.429 . S
C768 C751 1.574 . S
C768 H762 0.949 . S
C768 C772 1.368 . S
C769 C750 1.429 . S
C769 C763 1.429 . S
C769 C770 1.523 . S
C770 C751 1.368 . S
C770 C764 1.368 . S
C770 C769 1.523 . S
C771 C755 1.429 . S
C771 C767 1.429 . S
C771 C772 1.523 . S
C772 C756 1.368 . S
C772 C768 1.368 . S
C772 C771 1.523 . S
H773 C748 0.950 . S
H774 C750 0.950 . S
H775 C751 0.949 . S
H776 C753 0.950 . S
H777 C755 0.950 . S
C778 C779 1.349 . S
C778 C780 1.327 . S
C778 H803 0.950 . S
C779 C778 1.349 . S
C779 C795 1.349 . S
C780 C778 1.327 . S
C780 C799 1.429 . S
C780 H804 0.950 . S
C781 C798 1.574 . S
C781 C800 1.368 . S
C781 H805 0.949 . S
H782 C786 0.949 . S
C783 C784 1.349 . S
C783 C785 1.327 . S
C783 H806 0.950 . S
C784 C783 1.349 . S
C784 C796 1.349 . S
C785 C783 1.327 . S
C785 C801 1.429 . S
C785 H807 0.950 . S
C786 H782 0.949 . S
C786 C794 1.574 . S
C786 C802 1.368 . S
H787 C795 0.950 . S
H788 C793 0.950 . S
H789 C794 0.949 . S
H790 C796 0.950 . S
H791 C797 0.950 . S
H792 C798 0.949 . S
C793 H788 0.950 . S
C793 C795 1.327 . S
C793 C799 1.429 . S
C794 C786 1.574 . S
C794 H789 0.949 . S
C794 C800 1.368 . S
C795 C779 1.349 . S
C795 H787 0.950 . S
C795 C793 1.327 . S
C796 C784 1.349 . S
C796 H790 0.950 . S
C796 C797 1.327 . S
C797 H791 0.950 . S
C797 C796 1.327 . S
C797 C801 1.429 . S
C798 C781 1.574 . S
C798 H792 0.949 . S
C798 C802 1.368 . S
C799 C780 1.429 . S
C799 C793 1.429 . S
C799 C800 1.523 . S
C800 C781 1.368 . S
C800 C794 1.368 . S
C800 C799 1.523 . S
C801 C785 1.429 . S
C801 C797 1.429 . S
C801 C802 1.523 . S
C802 C786 1.368 . S
C802 C798 1.368 . S
C802 C801 1.523 . S
H803 C778 0.950 . S
H804 C780 0.950 . S
H805 C781 0.949 . S
H806 C783 0.950 . S
H807 C785 0.950 . S
C808 C809 1.349 . S
C808 C810 1.327 . S
C808 H833 0.950 . S
C809 C808 1.349 . S
C809 C825 1.349 . S
C810 C808 1.327 . S
C810 C829 1.429 . S
C810 H834 0.950 . S
C811 C828 1.574 . S
C811 C830 1.368 . S
C811 H835 0.949 . S
H812 C816 0.949 . S
C813 C814 1.349 . S
C813 C815 1.327 1_565 S
C813 H836 0.950 . S
C814 C813 1.349 . S
C814 C826 1.349 . S
C815 C813 1.327 1_545 S
C815 C831 1.429 . S
C815 H837 0.950 . S
C816 H812 0.949 . S
C816 C824 1.574 . S
C816 C832 1.368 . S
H817 C825 0.950 . S
H818 C823 0.950 . S
H819 C824 0.949 . S
H820 C826 0.950 . S
H821 C827 0.950 . S
H822 C828 0.949 . S
C823 H818 0.950 . S
C823 C825 1.327 . S
C823 C829 1.429 . S
C824 C816 1.574 . S
C824 H819 0.949 . S
C824 C830 1.368 . S
C825 C809 1.349 . S
C825 H817 0.950 . S
C825 C823 1.327 . S
C826 C814 1.349 . S
C826 H820 0.950 . S
C826 C827 1.327 1_565 S
C827 H821 0.950 . S
C827 C826 1.327 1_545 S
C827 C831 1.429 . S
C828 C811 1.574 . S
C828 H822 0.949 . S
C828 C832 1.368 . S
C829 C810 1.429 . S
C829 C823 1.429 . S
C829 C830 1.523 . S
C830 C811 1.368 . S
C830 C824 1.368 . S
C830 C829 1.523 . S
C831 C815 1.429 . S
C831 C827 1.429 . S
C831 C832 1.523 . S
C832 C816 1.368 . S
C832 C828 1.368 . S
C832 C831 1.523 . S
H833 C808 0.950 . S
H834 C810 0.950 . S
H835 C811 0.949 . S
H836 C813 0.950 . S
H837 C815 0.950 . S
C838 C839 1.349 . S
C838 C840 1.327 1_565 S
C838 H863 0.950 . S
C839 C838 1.349 . S
C839 C855 1.349 . S
C840 C838 1.327 1_545 S
C840 C859 1.429 . S
C840 H864 0.950 . S
C841 C858 1.574 . S
C841 C860 1.368 . S
C841 H865 0.949 . S
H842 C846 0.949 . S
C843 C844 1.349 . S
C843 C845 1.327 . S
C843 H866 0.950 . S
C844 C843 1.349 . S
C844 C856 1.349 . S
C845 C843 1.327 . S
C845 C861 1.429 . S
C845 H867 0.950 . S
C846 H842 0.949 . S
C846 C854 1.574 . S
C846 C862 1.368 . S
H847 C855 0.950 . S
H848 C853 0.950 . S
H849 C854 0.949 . S
H850 C856 0.950 . S
H851 C857 0.950 . S
H852 C858 0.949 . S
C853 H848 0.950 . S
C853 C855 1.327 1_545 S
C853 C859 1.429 . S
C854 C846 1.574 . S
C854 H849 0.949 . S
C854 C860 1.368 . S
C855 C839 1.349 . S
C855 H847 0.950 . S
C855 C853 1.327 1_565 S
C856 C844 1.349 . S
C856 H850 0.950 . S
C856 C857 1.327 . S
C857 H851 0.950 . S
C857 C856 1.327 . S
C857 C861 1.429 . S
C858 C841 1.574 . S
C858 H852 0.949 . S
C858 C862 1.368 . S
C859 C840 1.429 . S
C859 C853 1.429 . S
C859 C860 1.523 . S
C860 C841 1.368 . S
C860 C854 1.368 . S
C860 C859 1.523 . S
C861 C845 1.429 . S
C861 C857 1.429 . S
C861 C862 1.523 . S
C862 C846 1.368 . S
C862 C858 1.368 . S
C862 C861 1.523 . S
H863 C838 0.950 . S
H864 C840 0.950 . S
H865 C841 0.949 . S
H866 C843 0.950 . S
H867 C845 0.950 . S
C868 C869 1.349 . S
C868 C870 1.327 . S
C868 H893 0.950 . S
C869 C868 1.349 . S
C869 C885 1.349 . S
C870 C868 1.327 . S
C870 C889 1.429 . S
C870 H894 0.950 . S
C871 C888 1.574 . S
C871 C890 1.368 . S
C871 H895 0.949 . S
H872 C876 0.949 . S
C873 C874 1.349 . S
C873 C875 1.327 1_545 S
C873 H896 0.950 . S
C874 C873 1.349 . S
C874 C886 1.349 . S
C875 C873 1.327 1_565 S
C875 C891 1.429 . S
C875 H897 0.950 . S
C876 H872 0.949 . S
C876 C884 1.574 . S
C876 C892 1.368 . S
H877 C885 0.950 . S
H878 C883 0.950 . S
H879 C884 0.949 . S
H880 C886 0.950 . S
H881 C887 0.950 . S
H882 C888 0.949 . S
C883 H878 0.950 . S
C883 C885 1.327 . S
C883 C889 1.429 . S
C884 C876 1.574 . S
C884 H879 0.949 . S
C884 C890 1.368 . S
C885 C869 1.349 . S
C885 H877 0.950 . S
C885 C883 1.327 . S
C886 C874 1.349 . S
C886 H880 0.950 . S
C886 C887 1.327 1_545 S
C887 H881 0.950 . S
C887 C886 1.327 1_565 S
C887 C891 1.429 . S
C888 C871 1.574 . S
C888 H882 0.949 . S
C888 C892 1.368 . S
C889 C870 1.429 . S
C889 C883 1.429 . S
C889 C890 1.523 . S
C890 C871 1.368 . S
C890 C884 1.368 . S
C890 C889 1.523 . S
C891 C875 1.429 . S
C891 C887 1.429 . S
C891 C892 1.523 . S
C892 C876 1.368 . S
C892 C888 1.368 . S
C892 C891 1.523 . S
H893 C868 0.950 . S
H894 C870 0.950 . S
H895 C871 0.949 . S
H896 C873 0.950 . S
H897 C875 0.950 . S
C898 C899 1.349 . S
C898 C900 1.327 . S
C898 H923 0.950 . S
C899 C898 1.349 . S
C899 C915 1.349 . S
C900 C898 1.327 . S
C900 C919 1.429 . S
C900 H924 0.950 . S
C901 C918 1.574 . S
C901 C920 1.368 . S
C901 H925 0.949 . S
H902 C906 0.949 . S
C903 C904 1.349 . S
C903 C905 1.327 1_545 S
C903 H926 0.950 . S
C904 C903 1.349 . S
C904 C916 1.349 . S
C905 C903 1.327 1_565 S
C905 C921 1.429 . S
C905 H927 0.950 . S
C906 H902 0.949 . S
C906 C914 1.574 . S
C906 C922 1.368 . S
H907 C915 0.950 . S
H908 C913 0.950 . S
H909 C914 0.949 . S
H910 C916 0.950 . S
H911 C917 0.950 . S
H912 C918 0.949 . S
C913 H908 0.950 . S
C913 C915 1.327 . S
C913 C919 1.429 . S
C914 C906 1.574 . S
C914 H909 0.949 . S
C914 C920 1.368 . S
C915 C899 1.349 . S
C915 H907 0.950 . S
C915 C913 1.327 . S
C916 C904 1.349 . S
C916 H910 0.950 . S
C916 C917 1.327 1_545 S
C917 H911 0.950 . S
C917 C916 1.327 1_565 S
C917 C921 1.429 . S
C918 C901 1.574 . S
C918 H912 0.949 . S
C918 C922 1.368 . S
C919 C900 1.429 . S
C919 C913 1.429 . S
C919 C920 1.523 . S
C920 C901 1.368 . S
C920 C914 1.368 . S
C920 C919 1.523 . S
C921 C905 1.429 . S
C921 C917 1.429 . S
C921 C922 1.523 . S
C922 C906 1.368 . S
C922 C918 1.368 . S
C922 C921 1.523 . S
H923 C898 0.950 . S
H924 C900 0.950 . S
H925 C901 0.949 . S
H926 C903 0.950 . S
H927 C905 0.950 . S
C928 C929 1.349 . S
C928 C930 1.327 . S
C928 H953 0.950 . S
C929 C928 1.349 . S
C929 C945 1.349 . S
C930 C928 1.327 . S
C930 C949 1.429 . S
C930 H954 0.950 . S
C931 C948 1.576 1_655 S
C931 C950 1.368 1_554 S
C931 H955 0.949 . S
H932 C936 0.949 . S
C933 C934 1.349 . S
C933 C935 1.327 . S
C933 H956 0.950 . S
C934 C933 1.349 . S
C934 C946 1.349 . S
C935 C933 1.327 . S
C935 C951 1.429 . S
C935 H957 0.950 . S
C936 H932 0.949 . S
C936 C944 1.576 1_455 S
C936 C952 1.368 1_556 S
H937 C945 0.950 . S
H938 C943 0.950 . S
H939 C944 0.949 . S
H940 C946 0.950 . S
H941 C947 0.950 . S
H942 C948 0.949 . S
C943 H938 0.950 . S
C943 C945 1.327 . S
C943 C949 1.429 . S
C944 C936 1.576 1_655 S
C944 H939 0.949 . S
C944 C950 1.366 . S
C945 C929 1.349 . S
C945 H937 0.950 . S
C945 C943 1.327 . S
C946 C934 1.349 . S
C946 H940 0.950 . S
C946 C947 1.327 . S
C947 H941 0.950 . S
C947 C946 1.327 . S
C947 C951 1.429 . S
C948 C931 1.576 1_455 S
C948 H942 0.949 . S
C948 C952 1.366 . S
C949 C930 1.429 . S
C949 C943 1.429 . S
C949 C950 1.523 . S
C950 C931 1.368 1_556 S
C950 C944 1.366 . S
C950 C949 1.523 . S
C951 C935 1.429 . S
C951 C947 1.429 . S
C951 C952 1.523 . S
C952 C936 1.368 1_554 S
C952 C948 1.366 . S
C952 C951 1.523 . S
H953 C928 0.950 . S
H954 C930 0.950 . S
H955 C931 0.949 . S
H956 C933 0.950 . S
H957 C935 0.950 . S
C958 C959 1.349 . S
C958 C960 1.327 . S
C958 H983 0.950 . S
C959 C958 1.349 . S
C959 C975 1.349 . S
C960 C958 1.327 . S
C960 C979 1.429 . S
C960 H984 0.950 . S
C961 C978 1.574 . S
C961 C980 1.368 1_554 S
C961 H985 0.949 . S
H962 C966 0.949 . S
C963 C964 1.349 . S
C963 C965 1.327 . S
C963 H986 0.950 . S
C964 C963 1.349 . S
C964 C976 1.349 . S
C965 C963 1.327 . S
C965 C981 1.429 . S
C965 H987 0.950 . S
C966 H962 0.949 . S
C966 C974 1.574 . S
C966 C982 1.368 1_556 S
H967 C975 0.950 . S
H968 C973 0.950 . S
H969 C974 0.949 . S
H970 C976 0.950 . S
H971 C977 0.950 . S
H972 C978 0.949 . S
C973 H968 0.950 . S
C973 C975 1.327 . S
C973 C979 1.429 . S
C974 C966 1.574 . S
C974 H969 0.949 . S
C974 C980 1.368 . S
C975 C959 1.349 . S
C975 H967 0.950 . S
C975 C973 1.327 . S
C976 C964 1.349 . S
C976 H970 0.950 . S
C976 C977 1.327 . S
C977 H971 0.950 . S
C977 C976 1.327 . S
C977 C981 1.429 . S
C978 C961 1.574 . S
C978 H972 0.949 . S
C978 C982 1.368 . S
C979 C960 1.429 . S
C979 C973 1.429 . S
C979 C980 1.523 . S
C980 C961 1.368 1_556 S
C980 C974 1.368 . S
C980 C979 1.523 . S
C981 C965 1.429 . S
C981 C977 1.429 . S
C981 C982 1.523 . S
C982 C966 1.368 1_554 S
C982 C978 1.368 . S
C982 C981 1.523 . S
H983 C958 0.950 . S
H984 C960 0.950 . S
H985 C961 0.949 . S
H986 C963 0.950 . S
H987 C965 0.950 . S
C988 C989 1.349 . S
C988 C990 1.327 . S
C988 H1013 0.950 . S
C989 C988 1.349 . S
C989 C1005 1.349 . S
C990 C988 1.327 . S
C990 C1009 1.429 . S
C990 H1014 0.950 . S
C991 C1008 1.574 . S
C991 C1010 1.368 . S
C991 H1015 0.949 . S
H992 C996 0.949 . S
C993 C994 1.349 . S
C993 C995 1.327 . S
C993 H1016 0.950 . S
C994 C993 1.349 . S
C994 C1006 1.349 . S
C995 C993 1.327 . S
C995 C1011 1.429 . S
C995 H1017 0.950 . S
C996 H992 0.949 . S
C996 C1004 1.574 . S
C996 C1012 1.368 . S
H997 C1005 0.950 . S
H998 C1003 0.950 . S
H999 C1004 0.949 . S
H1000 C1006 0.950 . S
H1001 C1007 0.950 . S
H1002 C1008 0.949 . S
C1003 H998 0.950 . S
C1003 C1005 1.327 . S
C1003 C1009 1.429 . S
C1004 C996 1.574 . S
C1004 H999 0.949 . S
C1004 C1010 1.368 1_655 S
C1005 C989 1.349 . S
C1005 H997 0.950 . S
C1005 C1003 1.327 . S
C1006 C994 1.349 . S
C1006 H1000 0.950 . S
C1006 C1007 1.327 . S
C1007 H1001 0.950 . S
C1007 C1006 1.327 . S
C1007 C1011 1.429 . S
C1008 C991 1.574 . S
C1008 H1002 0.949 . S
C1008 C1012 1.368 1_455 S
C1009 C990 1.429 . S
C1009 C1003 1.429 . S
C1009 C1010 1.523 . S
C1010 C991 1.368 . S
C1010 C1004 1.368 1_455 S
C1010 C1009 1.523 . S
C1011 C995 1.429 . S
C1011 C1007 1.429 . S
C1011 C1012 1.523 . S
C1012 C996 1.368 . S
C1012 C1008 1.368 1_655 S
C1012 C1011 1.523 . S
H1013 C988 0.950 . S
H1014 C990 0.950 . S
H1015 C991 0.949 . S
H1016 C993 0.950 . S
H1017 C995 0.950 . S
C1018 C1019 1.349 . S
C1018 C1020 1.327 . S
C1018 H1043 0.950 . S
C1019 C1018 1.349 . S
C1019 C1035 1.349 . S
C1020 C1018 1.327 . S
C1020 C1039 1.429 . S
C1020 H1044 0.950 . S
C1021 C1038 1.574 . S
C1021 C1040 1.368 . S
C1021 H1045 0.949 . S
H1022 C1026 0.949 . S
C1023 C1024 1.349 . S
C1023 C1025 1.327 . S
C1023 H1046 0.950 . S
C1024 C1023 1.349 . S
C1024 C1036 1.349 . S
C1025 C1023 1.327 . S
C1025 C1041 1.429 . S
C1025 H1047 0.950 . S
C1026 H1022 0.949 . S
C1026 C1034 1.574 . S
C1026 C1042 1.368 . S
H1027 C1035 0.950 . S
H1028 C1033 0.950 . S
H1029 C1034 0.949 . S
H1030 C1036 0.950 . S
H1031 C1037 0.950 . S
H1032 C1038 0.949 . S
C1033 H1028 0.950 . S
C1033 C1035 1.327 . S
C1033 C1039 1.429 . S
C1034 C1026 1.574 . S
C1034 H1029 0.949 . S
C1034 C1040 1.368 . S
C1035 C1019 1.349 . S
C1035 H1027 0.950 . S
C1035 C1033 1.327 . S
C1036 C1024 1.349 . S
C1036 H1030 0.950 . S
C1036 C1037 1.327 . S
C1037 H1031 0.950 . S
C1037 C1036 1.327 . S
C1037 C1041 1.429 . S
C1038 C1021 1.574 . S
C1038 H1032 0.949 . S
C1038 C1042 1.368 . S
C1039 C1020 1.429 . S
C1039 C1033 1.429 . S
C1039 C1040 1.523 . S
C1040 C1021 1.368 . S
C1040 C1034 1.368 . S
C1040 C1039 1.523 . S
C1041 C1025 1.429 . S
C1041 C1037 1.429 . S
C1041 C1042 1.523 . S
C1042 C1026 1.368 . S
C1042 C1038 1.368 . S
C1042 C1041 1.523 . S
H1043 C1018 0.950 . S
H1044 C1020 0.950 . S
H1045 C1021 0.949 . S
H1046 C1023 0.950 . S
H1047 C1025 0.950 . S
C1048 C1049 1.349 . S
C1048 C1050 1.327 . S
C1048 H1073 0.950 . S
C1049 C1048 1.349 . S
C1049 C1065 1.349 . S
C1050 C1048 1.327 . S
C1050 C1069 1.429 . S
C1050 H1074 0.950 . S
C1051 C1068 1.574 . S
C1051 C1070 1.368 1_554 S
C1051 H1075 0.949 . S
H1052 C1056 0.949 . S
C1053 C1054 1.349 . S
C1053 C1055 1.327 . S
C1053 H1076 0.950 . S
C1054 C1053 1.349 . S
C1054 C1066 1.349 . S
C1055 C1053 1.327 . S
C1055 C1071 1.429 . S
C1055 H1077 0.950 . S
C1056 H1052 0.949 . S
C1056 C1064 1.574 . S
C1056 C1072 1.368 1_556 S
H1057 C1065 0.950 . S
H1058 C1063 0.950 . S
H1059 C1064 0.949 . S
H1060 C1066 0.950 . S
H1061 C1067 0.950 . S
H1062 C1068 0.949 . S
C1063 H1058 0.950 . S
C1063 C1065 1.327 . S
C1063 C1069 1.429 . S
C1064 C1056 1.574 . S
C1064 H1059 0.949 . S
C1064 C1070 1.368 . S
C1065 C1049 1.349 . S
C1065 H1057 0.950 . S
C1065 C1063 1.327 . S
C1066 C1054 1.349 . S
C1066 H1060 0.950 . S
C1066 C1067 1.327 . S
C1067 H1061 0.950 . S
C1067 C1066 1.327 . S
C1067 C1071 1.429 . S
C1068 C1051 1.574 . S
C1068 H1062 0.949 . S
C1068 C1072 1.368 . S
C1069 C1050 1.429 . S
C1069 C1063 1.429 . S
C1069 C1070 1.523 . S
C1070 C1051 1.368 1_556 S
C1070 C1064 1.368 . S
C1070 C1069 1.523 . S
C1071 C1055 1.429 . S
C1071 C1067 1.429 . S
C1071 C1072 1.523 . S
C1072 C1056 1.368 1_554 S
C1072 C1068 1.368 . S
C1072 C1071 1.523 . S
H1073 C1048 0.950 . S
H1074 C1050 0.950 . S
H1075 C1051 0.949 . S
H1076 C1053 0.950 . S
H1077 C1055 0.950 . S
C1078 C1079 1.349 . S
C1078 C1080 1.327 . S
C1078 H1103 0.950 . S
C1079 C1078 1.349 . S
C1079 C1095 1.349 . S
C1080 C1078 1.327 . S
C1080 C1099 1.429 . S
C1080 H1104 0.950 . S
C1081 C1098 1.574 1_655 S
C1081 C1100 1.368 . S
C1081 H1105 0.949 . S
H1082 C1086 0.949 . S
C1083 C1084 1.349 . S
C1083 C1085 1.327 . S
C1083 H1106 0.950 . S
C1084 C1083 1.349 . S
C1084 C1096 1.349 . S
C1085 C1083 1.327 . S
C1085 C1101 1.429 . S
C1085 H1107 0.950 . S
C1086 H1082 0.949 . S
C1086 C1094 1.574 1_455 S
C1086 C1102 1.368 . S
H1087 C1095 0.950 . S
H1088 C1093 0.950 . S
H1089 C1094 0.949 . S
H1090 C1096 0.950 . S
H1091 C1097 0.950 . S
H1092 C1098 0.949 . S
C1093 H1088 0.950 . S
C1093 C1095 1.327 . S
C1093 C1099 1.429 . S
C1094 C1086 1.574 1_655 S
C1094 H1089 0.949 . S
C1094 C1100 1.368 . S
C1095 C1079 1.349 . S
C1095 H1087 0.950 . S
C1095 C1093 1.327 . S
C1096 C1084 1.349 . S
C1096 H1090 0.950 . S
C1096 C1097 1.327 . S
C1097 H1091 0.950 . S
C1097 C1096 1.327 . S
C1097 C1101 1.429 . S
C1098 C1081 1.574 1_455 S
C1098 H1092 0.949 . S
C1098 C1102 1.368 . S
C1099 C1080 1.429 . S
C1099 C1093 1.429 . S
C1099 C1100 1.523 . S
C1100 C1081 1.368 . S
C1100 C1094 1.368 . S
C1100 C1099 1.523 . S
C1101 C1085 1.429 . S
C1101 C1097 1.429 . S
C1101 C1102 1.523 . S
C1102 C1086 1.368 . S
C1102 C1098 1.368 . S
C1102 C1101 1.523 . S
H1103 C1078 0.950 . S
H1104 C1080 0.950 . S
H1105 C1081 0.949 . S
H1106 C1083 0.950 . S
H1107 C1085 0.950 . S
C1108 C1109 1.349 . S
C1108 C1110 1.327 . S
C1108 H1133 0.950 . S
C1109 C1108 1.349 . S
C1109 C1125 1.349 . S
C1110 C1108 1.327 . S
C1110 C1129 1.429 . S
C1110 H1134 0.950 . S
C1111 C1128 1.574 . S
C1111 C1130 1.368 . S
C1111 H1135 0.949 . S
H1112 C1116 0.949 . S
C1113 C1114 1.349 . S
C1113 C1115 1.327 . S
C1113 H1136 0.950 . S
C1114 C1113 1.349 . S
C1114 C1126 1.349 . S
C1115 C1113 1.327 . S
C1115 C1131 1.429 . S
C1115 H1137 0.950 . S
C1116 H1112 0.949 . S
C1116 C1124 1.574 . S
C1116 C1132 1.368 . S
H1117 C1125 0.950 . S
H1118 C1123 0.950 . S
H1119 C1124 0.949 . S
H1120 C1126 0.950 . S
H1121 C1127 0.950 . S
H1122 C1128 0.949 . S
C1123 H1118 0.950 . S
C1123 C1125 1.327 . S
C1123 C1129 1.429 . S
C1124 C1116 1.574 . S
C1124 H1119 0.949 . S
C1124 C1130 1.368 . S
C1125 C1109 1.349 . S
C1125 H1117 0.950 . S
C1125 C1123 1.327 . S
C1126 C1114 1.349 . S
C1126 H1120 0.950 . S
C1126 C1127 1.327 . S
C1127 H1121 0.950 . S
C1127 C1126 1.327 . S
C1127 C1131 1.429 . S
C1128 C1111 1.574 . S
C1128 H1122 0.949 . S
C1128 C1132 1.368 . S
C1129 C1110 1.429 . S
C1129 C1123 1.429 . S
C1129 C1130 1.523 . S
C1130 C1111 1.368 . S
C1130 C1124 1.368 . S
C1130 C1129 1.523 . S
C1131 C1115 1.429 . S
C1131 C1127 1.429 . S
C1131 C1132 1.523 . S
C1132 C1116 1.368 . S
C1132 C1128 1.368 . S
C1132 C1131 1.523 . S
H1133 C1108 0.950 . S
H1134 C1110 0.950 . S
H1135 C1111 0.949 . S
H1136 C1113 0.950 . S
H1137 C1115 0.950 . S
C1138 C1139 1.349 . S
C1138 C1140 1.327 . S
C1138 H1163 0.950 . S
C1139 C1138 1.349 . S
C1139 C1155 1.349 . S
C1140 C1138 1.327 . S
C1140 C1159 1.429 . S
C1140 H1164 0.950 1_545 S
C1141 C1158 1.572 . S
C1141 C1160 1.368 . S
C1141 H1165 0.949 . S
H1142 C1146 0.949 . S
C1143 C1144 1.349 . S
C1143 C1145 1.327 . S
C1143 H1166 0.950 . S
C1144 C1143 1.349 . S
C1144 C1156 1.349 . S
C1145 C1143 1.327 . S
C1145 C1161 1.429 . S
C1145 H1167 0.950 1_565 S
C1146 H1142 0.949 . S
C1146 C1154 1.572 . S
C1146 C1162 1.368 . S
H1147 C1155 0.950 . S
H1148 C1153 0.950 . S
H1149 C1154 0.949 1_655 S
H1150 C1156 0.950 . S
H1151 C1157 0.950 . S
H1152 C1158 0.949 1_455 S
C1153 H1148 0.950 . S
C1153 C1155 1.327 . S
C1153 C1159 1.429 . S
C1154 C1146 1.572 . S
C1154 H1149 0.949 1_455 S
C1154 C1160 1.370 1_465 S
C1155 C1139 1.349 . S
C1155 H1147 0.950 . S
C1155 C1153 1.327 . S
C1156 C1144 1.349 . S
C1156 H1150 0.950 . S
C1156 C1157 1.327 . S
C1157 H1151 0.950 . S
C1157 C1156 1.327 . S
C1157 C1161 1.429 . S
C1158 C1141 1.572 . S
C1158 H1152 0.949 1_655 S
C1158 C1162 1.370 1_645 S
C1159 C1140 1.429 . S
C1159 C1153 1.429 . S
C1159 C1160 1.523 . S
C1160 C1141 1.368 . S
C1160 C1154 1.370 1_645 S
C1160 C1159 1.523 . S
C1161 C1145 1.429 . S
C1161 C1157 1.429 . S
C1161 C1162 1.523 . S
C1162 C1146 1.368 . S
C1162 C1158 1.370 1_465 S
C1162 C1161 1.523 . S
H1163 C1138 0.950 . S
H1164 C1140 0.950 1_565 S
H1165 C1141 0.949 . S
H1166 C1143 0.950 . S
H1167 C1145 0.950 1_545 S
C1168 C1169 1.349 . S
C1168 C1170 1.327 . S
C1168 H1193 0.950 . S
C1169 C1168 1.349 . S
C1169 C1185 1.349 . S
C1170 C1168 1.327 . S
C1170 C1189 1.429 . S
C1170 H1194 0.950 . S
C1171 C1188 1.574 . S
C1171 C1190 1.368 . S
C1171 H1195 0.949 . S
H1172 C1176 0.949 . S
C1173 C1174 1.349 . S
C1173 C1175 1.327 . S
C1173 H1196 0.950 . S
C1174 C1173 1.349 . S
C1174 C1186 1.349 . S
C1175 C1173 1.327 . S
C1175 C1191 1.429 . S
C1175 H1197 0.950 . S
C1176 H1172 0.949 . S
C1176 C1184 1.574 . S
C1176 C1192 1.368 . S
H1177 C1185 0.950 . S
H1178 C1183 0.950 . S
H1179 C1184 0.949 . S
H1180 C1186 0.950 . S
H1181 C1187 0.950 . S
H1182 C1188 0.949 . S
C1183 H1178 0.950 . S
C1183 C1185 1.327 . S
C1183 C1189 1.429 . S
C1184 C1176 1.574 . S
C1184 H1179 0.949 . S
C1184 C1190 1.368 . S
C1185 C1169 1.349 . S
C1185 H1177 0.950 . S
C1185 C1183 1.327 . S
C1186 C1174 1.349 . S
C1186 H1180 0.950 . S
C1186 C1187 1.327 . S
C1187 H1181 0.950 . S
C1187 C1186 1.327 . S
C1187 C1191 1.429 . S
C1188 C1171 1.574 . S
C1188 H1182 0.949 . S
C1188 C1192 1.368 . S
C1189 C1170 1.429 . S
C1189 C1183 1.429 . S
C1189 C1190 1.523 . S
C1190 C1171 1.368 . S
C1190 C1184 1.368 . S
C1190 C1189 1.523 . S
C1191 C1175 1.429 . S
C1191 C1187 1.429 . S
C1191 C1192 1.523 . S
C1192 C1176 1.368 . S
C1192 C1188 1.368 . S
C1192 C1191 1.523 . S
H1193 C1168 0.950 . S
H1194 C1170 0.950 . S
H1195 C1171 0.949 . S
H1196 C1173 0.950 . S
H1197 C1175 0.950 . S
C1198 C1199 1.349 . S
C1198 C1200 1.327 . S
C1198 H1223 0.950 . S
C1199 C1198 1.349 . S
C1199 C1215 1.349 . S
C1200 C1198 1.327 . S
C1200 C1219 1.429 . S
C1200 H1224 0.950 . S
C1201 C1218 1.574 . S
C1201 C1220 1.368 1_545 S
C1201 H1225 0.949 . S
H1202 C1206 0.949 . S
C1203 C1204 1.349 . S
C1203 C1205 1.327 . S
C1203 H1226 0.950 . S
C1204 C1203 1.349 . S
C1204 C1216 1.349 . S
C1205 C1203 1.327 . S
C1205 C1221 1.429 . S
C1205 H1227 0.950 . S
C1206 H1202 0.949 . S
C1206 C1214 1.574 . S
C1206 C1222 1.368 1_565 S
H1207 C1215 0.950 . S
H1208 C1213 0.950 1_545 S
H1209 C1214 0.949 . S
H1210 C1216 0.950 . S
H1211 C1217 0.950 1_565 S
H1212 C1218 0.949 . S
C1213 H1208 0.950 1_565 S
C1213 C1215 1.327 . S
C1213 C1219 1.429 . S
C1214 C1206 1.574 . S
C1214 H1209 0.949 . S
C1214 C1220 1.368 . S
C1215 C1199 1.349 . S
C1215 H1207 0.950 . S
C1215 C1213 1.327 . S
C1216 C1204 1.349 . S
C1216 H1210 0.950 . S
C1216 C1217 1.327 . S
C1217 H1211 0.950 1_545 S
C1217 C1216 1.327 . S
C1217 C1221 1.429 . S
C1218 C1201 1.574 . S
C1218 H1212 0.949 . S
C1218 C1222 1.368 . S
C1219 C1200 1.429 . S
C1219 C1213 1.429 . S
C1219 C1220 1.523 . S
C1220 C1201 1.368 1_565 S
C1220 C1214 1.368 . S
C1220 C1219 1.523 . S
C1221 C1205 1.429 . S
C1221 C1217 1.429 . S
C1221 C1222 1.523 . S
C1222 C1206 1.368 1_545 S
C1222 C1218 1.368 . S
C1222 C1221 1.523 . S
H1223 C1198 0.950 . S
H1224 C1200 0.950 . S
H1225 C1201 0.949 . S
H1226 C1203 0.950 . S
H1227 C1205 0.950 . S
C1228 C1229 1.349 . S
C1228 C1230 1.327 . S
C1228 H1253 0.950 . S
C1229 C1228 1.349 . S
C1229 C1245 1.349 . S
C1230 C1228 1.327 . S
C1230 C1249 1.429 . S
C1230 H1254 0.950 . S
C1231 C1248 1.574 . S
C1231 C1250 1.368 . S
C1231 H1255 0.949 . S
H1232 C1236 0.949 . S
C1233 C1234 1.349 . S
C1233 C1235 1.327 . S
C1233 H1256 0.950 . S
C1234 C1233 1.349 . S
C1234 C1246 1.349 . S
C1235 C1233 1.327 . S
C1235 C1251 1.429 . S
C1235 H1257 0.950 . S
C1236 H1232 0.949 . S
C1236 C1244 1.574 . S
C1236 C1252 1.368 . S
H1237 C1245 0.950 . S
H1238 C1243 0.950 . S
H1239 C1244 0.949 . S
H1240 C1246 0.950 . S
H1241 C1247 0.950 . S
H1242 C1248 0.949 . S
C1243 H1238 0.950 . S
C1243 C1245 1.327 . S
C1243 C1249 1.429 . S
C1244 C1236 1.574 . S
C1244 H1239 0.949 . S
C1244 C1250 1.368 . S
C1245 C1229 1.349 . S
C1245 H1237 0.950 . S
C1245 C1243 1.327 . S
C1246 C1234 1.349 . S
C1246 H1240 0.950 . S
C1246 C1247 1.327 . S
C1247 H1241 0.950 . S
C1247 C1246 1.327 . S
C1247 C1251 1.429 . S
C1248 C1231 1.574 . S
C1248 H1242 0.949 . S
C1248 C1252 1.368 . S
C1249 C1230 1.429 . S
C1249 C1243 1.429 . S
C1249 C1250 1.523 . S
C1250 C1231 1.368 . S
C1250 C1244 1.368 . S
C1250 C1249 1.523 . S
C1251 C1235 1.429 . S
C1251 C1247 1.429 . S
C1251 C1252 1.523 . S
C1252 C1236 1.368 . S
C1252 C1248 1.368 . S
C1252 C1251 1.523 . S
H1253 C1228 0.950 . S
H1254 C1230 0.950 . S
H1255 C1231 0.949 . S
H1256 C1233 0.950 . S
H1257 C1235 0.950 . S
C1258 C1259 1.349 . S
C1258 C1260 1.327 . S
C1258 H1283 0.950 . S
C1259 C1258 1.349 . S
C1259 C1275 1.349 . S
C1260 C1258 1.327 . S
C1260 C1279 1.429 . S
C1260 H1284 0.950 1_565 S
C1261 C1278 1.574 . S
C1261 C1280 1.368 . S
C1261 H1285 0.949 . S
H1262 C1266 0.949 . S
C1263 C1264 1.349 . S
C1263 C1265 1.327 . S
C1263 H1286 0.950 . S
C1264 C1263 1.349 . S
C1264 C1276 1.349 . S
C1265 C1263 1.327 . S
C1265 C1281 1.429 . S
C1265 H1287 0.950 1_545 S
C1266 H1262 0.949 . S
C1266 C1274 1.574 . S
C1266 C1282 1.368 . S
H1267 C1275 0.950 . S
H1268 C1273 0.950 . S
H1269 C1274 0.949 . S
H1270 C1276 0.950 . S
H1271 C1277 0.950 . S
H1272 C1278 0.949 . S
C1273 H1268 0.950 . S
C1273 C1275 1.327 . S
C1273 C1279 1.429 . S
C1274 C1266 1.574 . S
C1274 H1269 0.949 . S
C1274 C1280 1.368 1_545 S
C1275 C1259 1.349 . S
C1275 H1267 0.950 . S
C1275 C1273 1.327 . S
C1276 C1264 1.349 . S
C1276 H1270 0.950 . S
C1276 C1277 1.327 . S
C1277 H1271 0.950 . S
C1277 C1276 1.327 . S
C1277 C1281 1.429 . S
C1278 C1261 1.574 . S
C1278 H1272 0.949 . S
C1278 C1282 1.368 1_565 S
C1279 C1260 1.429 . S
C1279 C1273 1.429 . S
C1279 C1280 1.523 . S
C1280 C1261 1.368 . S
C1280 C1274 1.368 1_565 S
C1280 C1279 1.523 . S
C1281 C1265 1.429 . S
C1281 C1277 1.429 . S
C1281 C1282 1.523 . S
C1282 C1266 1.368 . S
C1282 C1278 1.368 1_545 S
C1282 C1281 1.523 . S
H1283 C1258 0.950 . S
H1284 C1260 0.950 1_545 S
H1285 C1261 0.949 . S
H1286 C1263 0.950 . S
H1287 C1265 0.950 1_565 S
C1288 C1289 1.349 . S
C1288 C1290 1.327 . S
C1288 H1313 0.950 . S
C1289 C1288 1.349 . S
C1289 C1305 1.349 . S
C1290 C1288 1.327 . S
C1290 C1309 1.429 . S
C1290 H1314 0.950 . S
C1291 C1308 1.574 . S
C1291 C1310 1.368 . S
C1291 H1315 0.949 . S
H1292 C1296 0.949 . S
C1293 C1294 1.349 . S
C1293 C1295 1.327 . S
C1293 H1316 0.950 . S
C1294 C1293 1.349 . S
C1294 C1306 1.349 . S
C1295 C1293 1.327 . S
C1295 C1311 1.429 . S
C1295 H1317 0.950 . S
C1296 H1292 0.949 . S
C1296 C1304 1.574 . S
C1296 C1312 1.368 . S
H1297 C1305 0.950 . S
H1298 C1303 0.950 . S
H1299 C1304 0.949 . S
H1300 C1306 0.950 . S
H1301 C1307 0.950 . S
H1302 C1308 0.949 . S
C1303 H1298 0.950 . S
C1303 C1305 1.327 . S
C1303 C1309 1.429 . S
C1304 C1296 1.574 . S
C1304 H1299 0.949 . S
C1304 C1310 1.368 . S
C1305 C1289 1.349 . S
C1305 H1297 0.950 . S
C1305 C1303 1.327 . S
C1306 C1294 1.349 . S
C1306 H1300 0.950 . S
C1306 C1307 1.327 . S
C1307 H1301 0.950 . S
C1307 C1306 1.327 . S
C1307 C1311 1.429 . S
C1308 C1291 1.574 . S
C1308 H1302 0.949 . S
C1308 C1312 1.368 . S
C1309 C1290 1.429 . S
C1309 C1303 1.429 . S
C1309 C1310 1.523 . S
C1310 C1291 1.368 . S
C1310 C1304 1.368 . S
C1310 C1309 1.523 . S
C1311 C1295 1.429 . S
C1311 C1307 1.429 . S
C1311 C1312 1.523 . S
C1312 C1296 1.368 . S
C1312 C1308 1.368 . S
C1312 C1311 1.523 . S
H1313 C1288 0.950 . S
H1314 C1290 0.950 . S
H1315 C1291 0.949 . S
H1316 C1293 0.950 . S
H1317 C1295 0.950 . S
C1318 C1319 1.349 . S
C1318 C1320 1.327 . S
C1318 H1343 0.950 . S
C1319 C1318 1.349 . S
C1319 C1335 1.349 . S
C1320 C1318 1.327 . S
C1320 C1339 1.429 . S
C1320 H1344 0.950 . S
C1321 C1338 1.574 . S
C1321 C1340 1.368 . S
C1321 H1345 0.949 . S
H1322 C1326 0.949 . S
C1323 C1324 1.349 . S
C1323 C1325 1.327 . S
C1323 H1346 0.950 . S
C1324 C1323 1.349 . S
C1324 C1336 1.349 . S
C1325 C1323 1.327 . S
C1325 C1341 1.429 . S
C1325 H1347 0.950 . S
C1326 H1322 0.949 . S
C1326 C1334 1.574 . S
C1326 C1342 1.368 . S
H1327 C1335 0.950 . S
H1328 C1333 0.950 . S
H1329 C1334 0.949 . S
H1330 C1336 0.950 . S
H1331 C1337 0.950 . S
H1332 C1338 0.949 . S
C1333 H1328 0.950 . S
C1333 C1335 1.327 . S
C1333 C1339 1.429 . S
C1334 C1326 1.574 . S
C1334 H1329 0.949 . S
C1334 C1340 1.368 . S
C1335 C1319 1.349 . S
C1335 H1327 0.950 . S
C1335 C1333 1.327 . S
C1336 C1324 1.349 . S
C1336 H1330 0.950 . S
C1336 C1337 1.327 . S
C1337 H1331 0.950 . S
C1337 C1336 1.327 . S
C1337 C1341 1.429 . S
C1338 C1321 1.574 . S
C1338 H1332 0.949 . S
C1338 C1342 1.368 . S
C1339 C1320 1.429 . S
C1339 C1333 1.429 . S
C1339 C1340 1.523 . S
C1340 C1321 1.368 . S
C1340 C1334 1.368 . S
C1340 C1339 1.523 . S
C1341 C1325 1.429 . S
C1341 C1337 1.429 . S
C1341 C1342 1.523 . S
C1342 C1326 1.368 . S
C1342 C1338 1.368 . S
C1342 C1341 1.523 . S
H1343 C1318 0.950 . S
H1344 C1320 0.950 . S
H1345 C1321 0.949 . S
H1346 C1323 0.950 . S
H1347 C1325 0.950 . S
C1348 C1349 1.349 . S
C1348 C1350 1.327 . S
C1348 H1373 0.950 . S
C1349 C1348 1.349 . S
C1349 C1365 1.349 . S
C1350 C1348 1.327 . S
C1350 C1369 1.429 . S
C1350 H1374 0.950 . S
C1351 C1368 1.574 . S
C1351 C1370 1.368 . S
C1351 H1375 0.949 . S
H1352 C1356 0.949 . S
C1353 C1354 1.349 . S
C1353 C1355 1.327 . S
C1353 H1376 0.950 . S
C1354 C1353 1.349 . S
C1354 C1366 1.349 . S
C1355 C1353 1.327 . S
C1355 C1371 1.429 . S
C1355 H1377 0.950 . S
C1356 H1352 0.949 . S
C1356 C1364 1.574 . S
C1356 C1372 1.368 . S
H1357 C1365 0.950 . S
H1358 C1363 0.950 . S
H1359 C1364 0.949 . S
H1360 C1366 0.950 . S
H1361 C1367 0.950 . S
H1362 C1368 0.949 . S
C1363 H1358 0.950 . S
C1363 C1365 1.327 . S
C1363 C1369 1.429 . S
C1364 C1356 1.574 . S
C1364 H1359 0.949 . S
C1364 C1370 1.368 . S
C1365 C1349 1.349 . S
C1365 H1357 0.950 . S
C1365 C1363 1.327 . S
C1366 C1354 1.349 . S
C1366 H1360 0.950 . S
C1366 C1367 1.327 . S
C1367 H1361 0.950 . S
C1367 C1366 1.327 . S
C1367 C1371 1.429 . S
C1368 C1351 1.574 . S
C1368 H1362 0.949 . S
C1368 C1372 1.368 . S
C1369 C1350 1.429 . S
C1369 C1363 1.429 . S
C1369 C1370 1.523 . S
C1370 C1351 1.368 . S
C1370 C1364 1.368 . S
C1370 C1369 1.523 . S
C1371 C1355 1.429 . S
C1371 C1367 1.429 . S
C1371 C1372 1.523 . S
C1372 C1356 1.368 . S
C1372 C1368 1.368 . S
C1372 C1371 1.523 . S
H1373 C1348 0.950 . S
H1374 C1350 0.950 . S
H1375 C1351 0.949 . S
H1376 C1353 0.950 . S
H1377 C1355 0.950 . S
C1378 C1379 1.349 . S
C1378 C1380 1.327 . S
C1378 H1403 0.950 . S
C1379 C1378 1.349 . S
C1379 C1395 1.349 . S
C1380 C1378 1.327 . S
C1380 C1399 1.429 . S
C1380 H1404 0.950 . S
C1381 C1398 1.574 1_556 S
C1381 C1400 1.368 1_565 S
C1381 H1405 0.949 . S
H1382 C1386 0.949 . S
C1383 C1384 1.349 . S
C1383 C1385 1.327 . S
C1383 H1406 0.950 . S
C1384 C1383 1.349 . S
C1384 C1396 1.349 . S
C1385 C1383 1.327 . S
C1385 C1401 1.429 . S
C1385 H1407 0.950 . S
C1386 H1382 0.949 . S
C1386 C1394 1.574 1_554 S
C1386 C1402 1.368 1_545 S
H1387 C1395 0.950 . S
H1388 C1393 0.950 1_565 S
H1389 C1394 0.949 . S
H1390 C1396 0.950 . S
H1391 C1397 0.950 1_545 S
H1392 C1398 0.949 . S
C1393 H1388 0.950 1_545 S
C1393 C1395 1.327 . S
C1393 C1399 1.429 . S
C1394 C1386 1.574 1_556 S
C1394 H1389 0.949 . S
C1394 C1400 1.368 . S
C1395 C1379 1.349 . S
C1395 H1387 0.950 . S
C1395 C1393 1.327 . S
C1396 C1384 1.349 . S
C1396 H1390 0.950 . S
C1396 C1397 1.327 . S
C1397 H1391 0.950 1_565 S
C1397 C1396 1.327 . S
C1397 C1401 1.429 . S
C1398 C1381 1.574 1_554 S
C1398 H1392 0.949 . S
C1398 C1402 1.368 . S
C1399 C1380 1.429 . S
C1399 C1393 1.429 . S
C1399 C1400 1.523 . S
C1400 C1381 1.368 1_545 S
C1400 C1394 1.368 . S
C1400 C1399 1.523 . S
C1401 C1385 1.429 . S
C1401 C1397 1.429 . S
C1401 C1402 1.523 . S
C1402 C1386 1.368 1_565 S
C1402 C1398 1.368 . S
C1402 C1401 1.523 . S
H1403 C1378 0.950 . S
H1404 C1380 0.950 . S
H1405 C1381 0.949 . S
H1406 C1383 0.950 . S
H1407 C1385 0.950 . S
C1408 C1409 1.349 . S
C1408 C1410 1.327 . S
C1408 H1433 0.950 . S
C1409 C1408 1.349 . S
C1409 C1425 1.349 . S
C1410 C1408 1.327 . S
C1410 C1429 1.429 . S
C1410 H1434 0.950 . S
C1411 C1428 1.574 . S
C1411 C1430 1.368 . S
C1411 H1435 0.949 . S
H1412 C1416 0.949 . S
C1413 C1414 1.349 . S
C1413 C1415 1.327 . S
C1413 H1436 0.950 . S
C1414 C1413 1.349 . S
C1414 C1426 1.349 . S
C1415 C1413 1.327 . S
C1415 C1431 1.429 . S
C1415 H1437 0.950 . S
C1416 H1412 0.949 . S
C1416 C1424 1.574 . S
C1416 C1432 1.368 . S
H1417 C1425 0.950 . S
H1418 C1423 0.950 . S
H1419 C1424 0.949 . S
H1420 C1426 0.950 . S
H1421 C1427 0.950 . S
H1422 C1428 0.949 . S
C1423 H1418 0.950 . S
C1423 C1425 1.327 . S
C1423 C1429 1.429 . S
C1424 C1416 1.574 . S
C1424 H1419 0.949 . S
C1424 C1430 1.368 . S
C1425 C1409 1.349 . S
C1425 H1417 0.950 . S
C1425 C1423 1.327 . S
C1426 C1414 1.349 . S
C1426 H1420 0.950 . S
C1426 C1427 1.327 . S
C1427 H1421 0.950 . S
C1427 C1426 1.327 . S
C1427 C1431 1.429 . S
C1428 C1411 1.574 . S
C1428 H1422 0.949 . S
C1428 C1432 1.368 . S
C1429 C1410 1.429 . S
C1429 C1423 1.429 . S
C1429 C1430 1.523 . S
C1430 C1411 1.368 . S
C1430 C1424 1.368 . S
C1430 C1429 1.523 . S
C1431 C1415 1.429 . S
C1431 C1427 1.429 . S
C1431 C1432 1.523 . S
C1432 C1416 1.368 . S
C1432 C1428 1.368 . S
C1432 C1431 1.523 . S
H1433 C1408 0.950 . S
H1434 C1410 0.950 . S
H1435 C1411 0.949 . S
H1436 C1413 0.950 . S
H1437 C1415 0.950 . S
C1438 C1439 1.349 . S
C1438 C1440 1.327 . S
C1438 H1463 0.950 . S
C1439 C1438 1.349 . S
C1439 C1455 1.349 . S
C1440 C1438 1.327 . S
C1440 C1459 1.429 . S
C1440 H1464 0.950 . S
C1441 C1458 1.574 . S
C1441 C1460 1.368 . S
C1441 H1465 0.949 . S
H1442 C1446 0.949 . S
C1443 C1444 1.349 . S
C1443 C1445 1.327 . S
C1443 H1466 0.950 . S
C1444 C1443 1.349 . S
C1444 C1456 1.349 . S
C1445 C1443 1.327 . S
C1445 C1461 1.429 . S
C1445 H1467 0.950 . S
C1446 H1442 0.949 . S
C1446 C1454 1.574 . S
C1446 C1462 1.368 . S
H1447 C1455 0.950 . S
H1448 C1453 0.950 . S
H1449 C1454 0.949 . S
H1450 C1456 0.950 . S
H1451 C1457 0.950 . S
H1452 C1458 0.949 . S
C1453 H1448 0.950 . S
C1453 C1455 1.327 . S
C1453 C1459 1.429 . S
C1454 C1446 1.574 . S
C1454 H1449 0.949 . S
C1454 C1460 1.368 . S
C1455 C1439 1.349 . S
C1455 H1447 0.950 . S
C1455 C1453 1.327 . S
C1456 C1444 1.349 . S
C1456 H1450 0.950 . S
C1456 C1457 1.327 . S
C1457 H1451 0.950 . S
C1457 C1456 1.327 . S
C1457 C1461 1.429 . S
C1458 C1441 1.574 . S
C1458 H1452 0.949 . S
C1458 C1462 1.368 . S
C1459 C1440 1.429 . S
C1459 C1453 1.429 . S
C1459 C1460 1.523 . S
C1460 C1441 1.368 . S
C1460 C1454 1.368 . S
C1460 C1459 1.523 . S
C1461 C1445 1.429 . S
C1461 C1457 1.429 . S
C1461 C1462 1.523 . S
C1462 C1446 1.368 . S
C1462 C1458 1.368 . S
C1462 C1461 1.523 . S
H1463 C1438 0.950 . S
H1464 C1440 0.950 . S
H1465 C1441 0.949 . S
H1466 C1443 0.950 . S
H1467 C1445 0.950 . S
C1468 C1469 1.349 . S
C1468 C1470 1.327 . S
C1468 H1493 0.950 . S
C1469 C1468 1.349 . S
C1469 C1485 1.349 . S
C1470 C1468 1.327 . S
C1470 C1489 1.429 . S
C1470 H1494 0.950 . S
C1471 C1488 1.574 . S
C1471 C1490 1.368 . S
C1471 H1495 0.949 . S
H1472 C1476 0.949 . S
C1473 C1474 1.349 . S
C1473 C1475 1.327 . S
C1473 H1496 0.950 . S
C1474 C1473 1.349 . S
C1474 C1486 1.349 . S
C1475 C1473 1.327 . S
C1475 C1491 1.429 . S
C1475 H1497 0.950 . S
C1476 H1472 0.949 . S
C1476 C1484 1.574 . S
C1476 C1492 1.368 . S
H1477 C1485 0.950 . S
H1478 C1483 0.950 . S
H1479 C1484 0.949 . S
H1480 C1486 0.950 . S
H1481 C1487 0.950 . S
H1482 C1488 0.949 . S
C1483 H1478 0.950 . S
C1483 C1485 1.327 . S
C1483 C1489 1.429 . S
C1484 C1476 1.574 . S
C1484 H1479 0.949 . S
C1484 C1490 1.368 . S
C1485 C1469 1.349 . S
C1485 H1477 0.950 . S
C1485 C1483 1.327 . S
C1486 C1474 1.349 . S
C1486 H1480 0.950 . S
C1486 C1487 1.327 . S
C1487 H1481 0.950 . S
C1487 C1486 1.327 . S
C1487 C1491 1.429 . S
C1488 C1471 1.574 . S
C1488 H1482 0.949 . S
C1488 C1492 1.368 . S
C1489 C1470 1.429 . S
C1489 C1483 1.429 . S
C1489 C1490 1.523 . S
C1490 C1471 1.368 . S
C1490 C1484 1.368 . S
C1490 C1489 1.523 . S
C1491 C1475 1.429 . S
C1491 C1487 1.429 . S
C1491 C1492 1.523 . S
C1492 C1476 1.368 . S
C1492 C1488 1.368 . S
C1492 C1491 1.523 . S
H1493 C1468 0.950 . S
H1494 C1470 0.950 . S
H1495 C1471 0.949 . S
H1496 C1473 0.950 . S
H1497 C1475 0.950 . S
C1498 C1499 1.349 . S
C1498 C1500 1.327 . S
C1498 H1523 0.950 . S
C1499 C1498 1.349 . S
C1499 C1515 1.349 . S
C1500 C1498 1.327 . S
C1500 C1519 1.429 . S
C1500 H1524 0.950 . S
C1501 C1518 1.574 . S
C1501 C1520 1.368 . S
C1501 H1525 0.949 . S
H1502 C1506 0.949 . S
C1503 C1504 1.349 . S
C1503 C1505 1.327 . S
C1503 H1526 0.950 . S
C1504 C1503 1.349 . S
C1504 C1516 1.349 . S
C1505 C1503 1.327 . S
C1505 C1521 1.429 . S
C1505 H1527 0.950 . S
C1506 H1502 0.949 . S
C1506 C1514 1.574 . S
C1506 C1522 1.368 . S
H1507 C1515 0.950 . S
H1508 C1513 0.950 . S
H1509 C1514 0.949 . S
H1510 C1516 0.950 . S
H1511 C1517 0.950 . S
H1512 C1518 0.949 . S
C1513 H1508 0.950 . S
C1513 C1515 1.327 . S
C1513 C1519 1.429 . S
C1514 C1506 1.574 . S
C1514 H1509 0.949 . S
C1514 C1520 1.368 . S
C1515 C1499 1.349 . S
C1515 H1507 0.950 . S
C1515 C1513 1.327 . S
C1516 C1504 1.349 . S
C1516 H1510 0.950 . S
C1516 C1517 1.327 . S
C1517 H1511 0.950 . S
C1517 C1516 1.327 . S
C1517 C1521 1.429 . S
C1518 C1501 1.574 . S
C1518 H1512 0.949 . S
C1518 C1522 1.368 . S
C1519 C1500 1.429 . S
C1519 C1513 1.429 . S
C1519 C1520 1.523 . S
C1520 C1501 1.368 . S
C1520 C1514 1.368 . S
C1520 C1519 1.523 . S
C1521 C1505 1.429 . S
C1521 C1517 1.429 . S
C1521 C1522 1.523 . S
C1522 C1506 1.368 . S
C1522 C1518 1.368 . S
C1522 C1521 1.523 . S
H1523 C1498 0.950 . S
H1524 C1500 0.950 . S
H1525 C1501 0.949 . S
H1526 C1503 0.950 . S
H1527 C1505 0.950 . S
C1528 C1529 1.349 . S
C1528 C1530 1.327 . S
C1528 H1553 0.950 . S
C1529 C1528 1.349 . S
C1529 C1545 1.349 . S
C1530 C1528 1.327 . S
C1530 C1549 1.429 . S
C1530 H1554 0.950 . S
C1531 C1548 1.574 . S
C1531 C1550 1.368 . S
C1531 H1555 0.949 . S
H1532 C1536 0.949 . S
C1533 C1534 1.349 . S
C1533 C1535 1.327 . S
C1533 H1556 0.950 . S
C1534 C1533 1.349 . S
C1534 C1546 1.349 . S
C1535 C1533 1.327 . S
C1535 C1551 1.429 . S
C1535 H1557 0.950 . S
C1536 H1532 0.949 . S
C1536 C1544 1.574 . S
C1536 C1552 1.368 . S
H1537 C1545 0.950 . S
H1538 C1543 0.950 . S
H1539 C1544 0.949 . S
H1540 C1546 0.950 . S
H1541 C1547 0.950 . S
H1542 C1548 0.949 . S
C1543 H1538 0.950 . S
C1543 C1545 1.327 . S
C1543 C1549 1.429 . S
C1544 C1536 1.574 . S
C1544 H1539 0.949 . S
C1544 C1550 1.368 . S
C1545 C1529 1.349 . S
C1545 H1537 0.950 . S
C1545 C1543 1.327 . S
C1546 C1534 1.349 . S
C1546 H1540 0.950 . S
C1546 C1547 1.327 . S
C1547 H1541 0.950 . S
C1547 C1546 1.327 . S
C1547 C1551 1.429 . S
C1548 C1531 1.574 . S
C1548 H1542 0.949 . S
C1548 C1552 1.368 . S
C1549 C1530 1.429 . S
C1549 C1543 1.429 . S
C1549 C1550 1.523 . S
C1550 C1531 1.368 . S
C1550 C1544 1.368 . S
C1550 C1549 1.523 . S
C1551 C1535 1.429 . S
C1551 C1547 1.429 . S
C1551 C1552 1.523 . S
C1552 C1536 1.368 . S
C1552 C1548 1.368 . S
C1552 C1551 1.523 . S
H1553 C1528 0.950 . S
H1554 C1530 0.950 . S
H1555 C1531 0.949 . S
H1556 C1533 0.950 . S
H1557 C1535 0.950 . S
C1558 C1559 1.349 . S
C1558 C1560 1.327 . S
C1558 H1583 0.950 . S
C1559 C1558 1.349 . S
C1559 C1575 1.349 . S
C1560 C1558 1.327 . S
C1560 C1579 1.429 . S
C1560 H1584 0.950 . S
C1561 C1578 1.574 . S
C1561 C1580 1.368 . S
C1561 H1585 0.949 . S
H1562 C1566 0.949 . S
C1563 C1564 1.349 . S
C1563 C1565 1.327 . S
C1563 H1586 0.950 . S
C1564 C1563 1.349 . S
C1564 C1576 1.349 . S
C1565 C1563 1.327 . S
C1565 C1581 1.429 . S
C1565 H1587 0.950 . S
C1566 H1562 0.949 . S
C1566 C1574 1.574 . S
C1566 C1582 1.368 . S
H1567 C1575 0.950 . S
H1568 C1573 0.950 . S
H1569 C1574 0.949 . S
H1570 C1576 0.950 . S
H1571 C1577 0.950 . S
H1572 C1578 0.949 . S
C1573 H1568 0.950 . S
C1573 C1575 1.327 . S
C1573 C1579 1.429 . S
C1574 C1566 1.574 . S
C1574 H1569 0.949 . S
C1574 C1580 1.368 . S
C1575 C1559 1.349 . S
C1575 H1567 0.950 . S
C1575 C1573 1.327 . S
C1576 C1564 1.349 . S
C1576 H1570 0.950 . S
C1576 C1577 1.327 . S
C1577 H1571 0.950 . S
C1577 C1576 1.327 . S
C1577 C1581 1.429 . S
C1578 C1561 1.574 . S
C1578 H1572 0.949 . S
C1578 C1582 1.368 . S
C1579 C1560 1.429 . S
C1579 C1573 1.429 . S
C1579 C1580 1.523 . S
C1580 C1561 1.368 . S
C1580 C1574 1.368 . S
C1580 C1579 1.523 . S
C1581 C1565 1.429 . S
C1581 C1577 1.429 . S
C1581 C1582 1.523 . S
C1582 C1566 1.368 . S
C1582 C1578 1.368 . S
C1582 C1581 1.523 . S
H1583 C1558 0.950 . S
H1584 C1560 0.950 . S
H1585 C1561 0.949 . S
H1586 C1563 0.950 . S
H1587 C1565 0.950 . S
C1588 C1589 1.349 . S
C1588 C1590 1.327 . S
C1588 H1613 0.950 . S
C1589 C1588 1.349 . S
C1589 C1605 1.349 . S
C1590 C1588 1.327 . S
C1590 C1609 1.429 . S
C1590 H1614 0.950 . S
C1591 C1608 1.574 . S
C1591 C1610 1.368 . S
C1591 H1615 0.949 . S
H1592 C1596 0.949 . S
C1593 C1594 1.349 . S
C1593 C1595 1.327 . S
C1593 H1616 0.950 . S
C1594 C1593 1.349 . S
C1594 C1606 1.349 . S
C1595 C1593 1.327 . S
C1595 C1611 1.429 . S
C1595 H1617 0.950 . S
C1596 H1592 0.949 . S
C1596 C1604 1.574 . S
C1596 C1612 1.368 . S
H1597 C1605 0.950 . S
H1598 C1603 0.950 . S
H1599 C1604 0.949 . S
H1600 C1606 0.950 . S
H1601 C1607 0.950 . S
H1602 C1608 0.949 . S
C1603 H1598 0.950 . S
C1603 C1605 1.327 . S
C1603 C1609 1.429 . S
C1604 C1596 1.574 . S
C1604 H1599 0.949 . S
C1604 C1610 1.368 . S
C1605 C1589 1.349 . S
C1605 H1597 0.950 . S
C1605 C1603 1.327 . S
C1606 C1594 1.349 . S
C1606 H1600 0.950 . S
C1606 C1607 1.327 . S
C1607 H1601 0.950 . S
C1607 C1606 1.327 . S
C1607 C1611 1.429 . S
C1608 C1591 1.574 . S
C1608 H1602 0.949 . S
C1608 C1612 1.368 . S
C1609 C1590 1.429 . S
C1609 C1603 1.429 . S
C1609 C1610 1.523 . S
C1610 C1591 1.368 . S
C1610 C1604 1.368 . S
C1610 C1609 1.523 . S
C1611 C1595 1.429 . S
C1611 C1607 1.429 . S
C1611 C1612 1.523 . S
C1612 C1596 1.368 . S
C1612 C1608 1.368 . S
C1612 C1611 1.523 . S
H1613 C1588 0.950 . S
H1614 C1590 0.950 . S
H1615 C1591 0.949 . S
H1616 C1593 0.950 . S
H1617 C1595 0.950 . S
C1618 C1619 1.349 . S
C1618 C1620 1.327 . S
C1618 H1643 0.950 . S
C1619 C1618 1.349 . S
C1619 C1635 1.349 . S
C1620 C1618 1.327 . S
C1620 C1639 1.429 . S
C1620 H1644 0.950 . S
C1621 C1638 1.574 . S
C1621 C1640 1.368 . S
C1621 H1645 0.949 . S
H1622 C1626 0.949 . S
C1623 C1624 1.349 . S
C1623 C1625 1.327 . S
C1623 H1646 0.950 . S
C1624 C1623 1.349 . S
C1624 C1636 1.349 . S
C1625 C1623 1.327 . S
C1625 C1641 1.429 . S
C1625 H1647 0.950 . S
C1626 H1622 0.949 . S
C1626 C1634 1.574 . S
C1626 C1642 1.368 . S
H1627 C1635 0.950 . S
H1628 C1633 0.950 . S
H1629 C1634 0.949 . S
H1630 C1636 0.950 . S
H1631 C1637 0.950 . S
H1632 C1638 0.949 . S
C1633 H1628 0.950 . S
C1633 C1635 1.327 . S
C1633 C1639 1.429 . S
C1634 C1626 1.574 . S
C1634 H1629 0.949 . S
C1634 C1640 1.368 . S
C1635 C1619 1.349 . S
C1635 H1627 0.950 . S
C1635 C1633 1.327 . S
C1636 C1624 1.349 . S
C1636 H1630 0.950 . S
C1636 C1637 1.327 . S
C1637 H1631 0.950 . S
C1637 C1636 1.327 . S
C1637 C1641 1.429 . S
C1638 C1621 1.574 . S
C1638 H1632 0.949 . S
C1638 C1642 1.368 . S
C1639 C1620 1.429 . S
C1639 C1633 1.429 . S
C1639 C1640 1.523 . S
C1640 C1621 1.368 . S
C1640 C1634 1.368 . S
C1640 C1639 1.523 . S
C1641 C1625 1.429 . S
C1641 C1637 1.429 . S
C1641 C1642 1.523 . S
C1642 C1626 1.368 . S
C1642 C1638 1.368 . S
C1642 C1641 1.523 . S
H1643 C1618 0.950 . S
H1644 C1620 0.950 . S
H1645 C1621 0.949 . S
H1646 C1623 0.950 . S
H1647 C1625 0.950 . S
C1648 C1649 1.349 . S
C1648 C1650 1.327 . S
C1648 H1673 0.950 . S
C1649 C1648 1.349 . S
C1649 C1665 1.349 . S
C1650 C1648 1.327 . S
C1650 C1669 1.429 . S
C1650 H1674 0.950 . S
C1651 C1668 1.574 . S
C1651 C1670 1.368 . S
C1651 H1675 0.949 . S
H1652 C1656 0.949 . S
C1653 C1654 1.349 . S
C1653 C1655 1.327 . S
C1653 H1676 0.950 . S
C1654 C1653 1.349 . S
C1654 C1666 1.349 . S
C1655 C1653 1.327 . S
C1655 C1671 1.429 . S
C1655 H1677 0.950 . S
C1656 H1652 0.949 . S
C1656 C1664 1.574 . S
C1656 C1672 1.368 . S
H1657 C1665 0.950 . S
H1658 C1663 0.950 . S
H1659 C1664 0.949 . S
H1660 C1666 0.950 . S
H1661 C1667 0.950 . S
H1662 C1668 0.949 . S
C1663 H1658 0.950 . S
C1663 C1665 1.327 . S
C1663 C1669 1.429 . S
C1664 C1656 1.574 . S
C1664 H1659 0.949 . S
C1664 C1670 1.368 . S
C1665 C1649 1.349 . S
C1665 H1657 0.950 . S
C1665 C1663 1.327 . S
C1666 C1654 1.349 . S
C1666 H1660 0.950 . S
C1666 C1667 1.327 . S
C1667 H1661 0.950 . S
C1667 C1666 1.327 . S
C1667 C1671 1.429 . S
C1668 C1651 1.574 . S
C1668 H1662 0.949 . S
C1668 C1672 1.368 . S
C1669 C1650 1.429 . S
C1669 C1663 1.429 . S
C1669 C1670 1.523 . S
C1670 C1651 1.368 . S
C1670 C1664 1.368 . S
C1670 C1669 1.523 . S
C1671 C1655 1.429 . S
C1671 C1667 1.429 . S
C1671 C1672 1.523 . S
C1672 C1656 1.368 . S
C1672 C1668 1.368 . S
C1672 C1671 1.523 . S
H1673 C1648 0.950 . S
H1674 C1650 0.950 . S
H1675 C1651 0.949 . S
H1676 C1653 0.950 . S
H1677 C1655 0.950 . S
C1678 C1679 1.349 . S
C1678 C1680 1.327 . S
C1678 H1703 0.950 . S
C1679 C1678 1.349 . S
C1679 C1695 1.349 . S
C1680 C1678 1.327 . S
C1680 C1699 1.429 . S
C1680 H1704 0.950 . S
C1681 C1698 1.574 . S
C1681 C1700 1.368 . S
C1681 H1705 0.949 . S
H1682 C1686 0.949 . S
C1683 C1684 1.349 . S
C1683 C1685 1.327 . S
C1683 H1706 0.950 . S
C1684 C1683 1.349 . S
C1684 C1696 1.349 . S
C1685 C1683 1.327 . S
C1685 C1701 1.429 . S
C1685 H1707 0.950 . S
C1686 H1682 0.949 . S
C1686 C1694 1.574 . S
C1686 C1702 1.368 . S
H1687 C1695 0.950 . S
H1688 C1693 0.950 . S
H1689 C1694 0.949 . S
H1690 C1696 0.950 . S
H1691 C1697 0.950 . S
H1692 C1698 0.949 . S
C1693 H1688 0.950 . S
C1693 C1695 1.327 . S
C1693 C1699 1.429 . S
C1694 C1686 1.574 . S
C1694 H1689 0.949 . S
C1694 C1700 1.368 . S
C1695 C1679 1.349 . S
C1695 H1687 0.950 . S
C1695 C1693 1.327 . S
C1696 C1684 1.349 . S
C1696 H1690 0.950 . S
C1696 C1697 1.327 . S
C1697 H1691 0.950 . S
C1697 C1696 1.327 . S
C1697 C1701 1.429 . S
C1698 C1681 1.574 . S
C1698 H1692 0.949 . S
C1698 C1702 1.368 . S
C1699 C1680 1.429 . S
C1699 C1693 1.429 . S
C1699 C1700 1.523 . S
C1700 C1681 1.368 . S
C1700 C1694 1.368 . S
C1700 C1699 1.523 . S
C1701 C1685 1.429 . S
C1701 C1697 1.429 . S
C1701 C1702 1.523 . S
C1702 C1686 1.368 . S
C1702 C1698 1.368 . S
C1702 C1701 1.523 . S
H1703 C1678 0.950 . S
H1704 C1680 0.950 . S
H1705 C1681 0.949 . S
H1706 C1683 0.950 . S
H1707 C1685 0.950 . S
C1708 C1709 1.349 . S
C1708 C1710 1.327 . S
C1708 H1733 0.950 . S
C1709 C1708 1.349 . S
C1709 C1725 1.349 . S
C1710 C1708 1.327 . S
C1710 C1729 1.429 . S
C1710 H1734 0.950 . S
C1711 C1728 1.574 . S
C1711 C1730 1.368 . S
C1711 H1735 0.949 . S
H1712 C1716 0.949 . S
C1713 C1714 1.349 . S
C1713 C1715 1.327 . S
C1713 H1736 0.950 . S
C1714 C1713 1.349 . S
C1714 C1726 1.349 . S
C1715 C1713 1.327 . S
C1715 C1731 1.429 . S
C1715 H1737 0.950 . S
C1716 H1712 0.949 . S
C1716 C1724 1.574 . S
C1716 C1732 1.368 . S
H1717 C1725 0.950 . S
H1718 C1723 0.950 . S
H1719 C1724 0.949 . S
H1720 C1726 0.950 . S
H1721 C1727 0.950 . S
H1722 C1728 0.949 . S
C1723 H1718 0.950 . S
C1723 C1725 1.327 . S
C1723 C1729 1.429 . S
C1724 C1716 1.574 . S
C1724 H1719 0.949 . S
C1724 C1730 1.368 . S
C1725 C1709 1.349 . S
C1725 H1717 0.950 . S
C1725 C1723 1.327 . S
C1726 C1714 1.349 . S
C1726 H1720 0.950 . S
C1726 C1727 1.327 . S
C1727 H1721 0.950 . S
C1727 C1726 1.327 . S
C1727 C1731 1.429 . S
C1728 C1711 1.574 . S
C1728 H1722 0.949 . S
C1728 C1732 1.368 . S
C1729 C1710 1.429 . S
C1729 C1723 1.429 . S
C1729 C1730 1.523 . S
C1730 C1711 1.368 . S
C1730 C1724 1.368 . S
C1730 C1729 1.523 . S
C1731 C1715 1.429 . S
C1731 C1727 1.429 . S
C1731 C1732 1.523 . S
C1732 C1716 1.368 . S
C1732 C1728 1.368 . S
C1732 C1731 1.523 . S
H1733 C1708 0.950 . S
H1734 C1710 0.950 . S
H1735 C1711 0.949 . S
H1736 C1713 0.950 . S
H1737 C1715 0.950 . S
C1738 C1739 1.349 . S
C1738 C1740 1.327 . S
C1738 H1763 0.950 . S
C1739 C1738 1.349 . S
C1739 C1755 1.349 . S
C1740 C1738 1.327 . S
C1740 C1759 1.429 . S
C1740 H1764 0.950 . S
C1741 C1758 1.574 . S
C1741 C1760 1.368 . S
C1741 H1765 0.949 . S
H1742 C1746 0.949 . S
C1743 C1744 1.349 . S
C1743 C1745 1.327 . S
C1743 H1766 0.950 . S
C1744 C1743 1.349 . S
C1744 C1756 1.349 . S
C1745 C1743 1.327 . S
C1745 C1761 1.429 . S
C1745 H1767 0.950 . S
C1746 H1742 0.949 . S
C1746 C1754 1.574 . S
C1746 C1762 1.368 . S
H1747 C1755 0.950 . S
H1748 C1753 0.950 . S
H1749 C1754 0.949 . S
H1750 C1756 0.950 . S
H1751 C1757 0.950 . S
H1752 C1758 0.949 . S
C1753 H1748 0.950 . S
C1753 C1755 1.327 . S
C1753 C1759 1.429 . S
C1754 C1746 1.574 . S
C1754 H1749 0.949 . S
C1754 C1760 1.368 . S
C1755 C1739 1.349 . S
C1755 H1747 0.950 . S
C1755 C1753 1.327 . S
C1756 C1744 1.349 . S
C1756 H1750 0.950 . S
C1756 C1757 1.327 . S
C1757 H1751 0.950 . S
C1757 C1756 1.327 . S
C1757 C1761 1.429 . S
C1758 C1741 1.574 . S
C1758 H1752 0.949 . S
C1758 C1762 1.368 . S
C1759 C1740 1.429 . S
C1759 C1753 1.429 . S
C1759 C1760 1.523 . S
C1760 C1741 1.368 . S
C1760 C1754 1.368 . S
C1760 C1759 1.523 . S
C1761 C1745 1.429 . S
C1761 C1757 1.429 . S
C1761 C1762 1.523 . S
C1762 C1746 1.368 . S
C1762 C1758 1.368 . S
C1762 C1761 1.523 . S
H1763 C1738 0.950 . S
H1764 C1740 0.950 . S
H1765 C1741 0.949 . S
H1766 C1743 0.950 . S
H1767 C1745 0.950 . S
C1768 C1769 1.349 . S
C1768 C1770 1.327 . S
C1768 H1793 0.950 . S
C1769 C1768 1.349 . S
C1769 C1785 1.349 . S
C1770 C1768 1.327 . S
C1770 C1789 1.429 . S
C1770 H1794 0.950 . S
C1771 C1788 1.574 . S
C1771 C1790 1.368 . S
C1771 H1795 0.949 . S
H1772 C1776 0.949 . S
C1773 C1774 1.349 . S
C1773 C1775 1.327 . S
C1773 H1796 0.950 . S
C1774 C1773 1.349 . S
C1774 C1786 1.349 . S
C1775 C1773 1.327 . S
C1775 C1791 1.429 . S
C1775 H1797 0.950 . S
C1776 H1772 0.949 . S
C1776 C1784 1.574 . S
C1776 C1792 1.368 . S
H1777 C1785 0.950 . S
H1778 C1783 0.950 . S
H1779 C1784 0.949 . S
H1780 C1786 0.950 . S
H1781 C1787 0.950 . S
H1782 C1788 0.949 . S
C1783 H1778 0.950 . S
C1783 C1785 1.327 . S
C1783 C1789 1.429 . S
C1784 C1776 1.574 . S
C1784 H1779 0.949 . S
C1784 C1790 1.368 . S
C1785 C1769 1.349 . S
C1785 H1777 0.950 . S
C1785 C1783 1.327 . S
C1786 C1774 1.349 . S
C1786 H1780 0.950 . S
C1786 C1787 1.327 . S
C1787 H1781 0.950 . S
C1787 C1786 1.327 . S
C1787 C1791 1.429 . S
C1788 C1771 1.574 . S
C1788 H1782 0.949 . S
C1788 C1792 1.368 . S
C1789 C1770 1.429 . S
C1789 C1783 1.429 . S
C1789 C1790 1.523 . S
C1790 C1771 1.368 . S
C1790 C1784 1.368 . S
C1790 C1789 1.523 . S
C1791 C1775 1.429 . S
C1791 C1787 1.429 . S
C1791 C1792 1.523 . S
C1792 C1776 1.368 . S
C1792 C1788 1.368 . S
C1792 C1791 1.523 . S
H1793 C1768 0.950 . S
H1794 C1770 0.950 . S
H1795 C1771 0.949 . S
H1796 C1773 0.950 . S
H1797 C1775 0.950 . S
C1798 C1799 1.349 . S
C1798 C1800 1.327 . S
C1798 H1823 0.950 . S
C1799 C1798 1.349 . S
C1799 C1815 1.349 . S
C1800 C1798 1.327 . S
C1800 C1819 1.429 . S
C1800 H1824 0.950 . S
C1801 C1818 1.574 . S
C1801 C1820 1.368 . S
C1801 H1825 0.949 . S
H1802 C1806 0.949 . S
C1803 C1804 1.349 . S
C1803 C1805 1.327 . S
C1803 H1826 0.950 . S
C1804 C1803 1.349 . S
C1804 C1816 1.349 . S
C1805 C1803 1.327 . S
C1805 C1821 1.429 . S
C1805 H1827 0.950 . S
C1806 H1802 0.949 . S
C1806 C1814 1.574 . S
C1806 C1822 1.368 . S
H1807 C1815 0.950 . S
H1808 C1813 0.950 . S
H1809 C1814 0.949 . S
H1810 C1816 0.950 . S
H1811 C1817 0.950 . S
H1812 C1818 0.949 . S
C1813 H1808 0.950 . S
C1813 C1815 1.327 . S
C1813 C1819 1.429 . S
C1814 C1806 1.574 . S
C1814 H1809 0.949 . S
C1814 C1820 1.368 . S
C1815 C1799 1.349 . S
C1815 H1807 0.950 . S
C1815 C1813 1.327 . S
C1816 C1804 1.349 . S
C1816 H1810 0.950 . S
C1816 C1817 1.327 . S
C1817 H1811 0.950 . S
C1817 C1816 1.327 . S
C1817 C1821 1.429 . S
C1818 C1801 1.574 . S
C1818 H1812 0.949 . S
C1818 C1822 1.368 . S
C1819 C1800 1.429 . S
C1819 C1813 1.429 . S
C1819 C1820 1.523 . S
C1820 C1801 1.368 . S
C1820 C1814 1.368 . S
C1820 C1819 1.523 . S
C1821 C1805 1.429 . S
C1821 C1817 1.429 . S
C1821 C1822 1.523 . S
C1822 C1806 1.368 . S
C1822 C1818 1.368 . S
C1822 C1821 1.523 . S
H1823 C1798 0.950 . S
H1824 C1800 0.950 . S
H1825 C1801 0.949 . S
H1826 C1803 0.950 . S
H1827 C1805 0.950 . S
C1828 C1829 1.349 . S
C1828 C1830 1.327 . S
C1828 H1853 0.950 . S
C1829 C1828 1.349 . S
C1829 C1845 1.349 . S
C1830 C1828 1.327 . S
C1830 C1849 1.429 . S
C1830 H1854 0.950 . S
C1831 C1848 1.574 . S
C1831 C1850 1.368 . S
C1831 H1855 0.949 . S
H1832 C1836 0.949 . S
C1833 C1834 1.349 . S
C1833 C1835 1.327 . S
C1833 H1856 0.950 . S
C1834 C1833 1.349 . S
C1834 C1846 1.349 . S
C1835 C1833 1.327 . S
C1835 C1851 1.429 . S
C1835 H1857 0.950 . S
C1836 H1832 0.949 . S
C1836 C1844 1.574 . S
C1836 C1852 1.368 . S
H1837 C1845 0.950 . S
H1838 C1843 0.950 . S
H1839 C1844 0.949 . S
H1840 C1846 0.950 . S
H1841 C1847 0.950 . S
H1842 C1848 0.949 . S
C1843 H1838 0.950 . S
C1843 C1845 1.327 . S
C1843 C1849 1.429 . S
C1844 C1836 1.574 . S
C1844 H1839 0.949 . S
C1844 C1850 1.368 . S
C1845 C1829 1.349 . S
C1845 H1837 0.950 . S
C1845 C1843 1.327 . S
C1846 C1834 1.349 . S
C1846 H1840 0.950 . S
C1846 C1847 1.327 . S
C1847 H1841 0.950 . S
C1847 C1846 1.327 . S
C1847 C1851 1.429 . S
C1848 C1831 1.574 . S
C1848 H1842 0.949 . S
C1848 C1852 1.368 . S
C1849 C1830 1.429 . S
C1849 C1843 1.429 . S
C1849 C1850 1.523 . S
C1850 C1831 1.368 . S
C1850 C1844 1.368 . S
C1850 C1849 1.523 . S
C1851 C1835 1.429 . S
C1851 C1847 1.429 . S
C1851 C1852 1.523 . S
C1852 C1836 1.368 . S
C1852 C1848 1.368 . S
C1852 C1851 1.523 . S
H1853 C1828 0.950 . S
H1854 C1830 0.950 . S
H1855 C1831 0.949 . S
H1856 C1833 0.950 . S
H1857 C1835 0.950 . S
C1858 C1859 1.349 . S
C1858 C1860 1.327 . S
C1858 H1883 0.950 . S
C1859 C1858 1.349 . S
C1859 C1875 1.349 . S
C1860 C1858 1.327 . S
C1860 C1879 1.429 . S
C1860 H1884 0.950 . S
C1861 C1878 1.574 . S
C1861 C1880 1.368 . S
C1861 H1885 0.949 . S
H1862 C1866 0.949 . S
C1863 C1864 1.349 . S
C1863 C1865 1.327 . S
C1863 H1886 0.950 . S
C1864 C1863 1.349 . S
C1864 C1876 1.349 . S
C1865 C1863 1.327 . S
C1865 C1881 1.429 . S
C1865 H1887 0.950 . S
C1866 H1862 0.949 . S
C1866 C1874 1.574 . S
C1866 C1882 1.368 . S
H1867 C1875 0.950 . S
H1868 C1873 0.950 . S
H1869 C1874 0.949 . S
H1870 C1876 0.950 . S
H1871 C1877 0.950 . S
H1872 C1878 0.949 . S
C1873 H1868 0.950 . S
C1873 C1875 1.327 . S
C1873 C1879 1.429 . S
C1874 C1866 1.574 . S
C1874 H1869 0.949 . S
C1874 C1880 1.368 . S
C1875 C1859 1.349 . S
C1875 H1867 0.950 . S
C1875 C1873 1.327 . S
C1876 C1864 1.349 . S
C1876 H1870 0.950 . S
C1876 C1877 1.327 . S
C1877 H1871 0.950 . S
C1877 C1876 1.327 . S
C1877 C1881 1.429 . S
C1878 C1861 1.574 . S
C1878 H1872 0.949 . S
C1878 C1882 1.368 . S
C1879 C1860 1.429 . S
C1879 C1873 1.429 . S
C1879 C1880 1.523 . S
C1880 C1861 1.368 . S
C1880 C1874 1.368 . S
C1880 C1879 1.523 . S
C1881 C1865 1.429 . S
C1881 C1877 1.429 . S
C1881 C1882 1.523 . S
C1882 C1866 1.368 . S
C1882 C1878 1.368 . S
C1882 C1881 1.523 . S
H1883 C1858 0.950 . S
H1884 C1860 0.950 . S
H1885 C1861 0.949 . S
H1886 C1863 0.950 . S
H1887 C1865 0.950 . S
C1888 C1889 1.349 . S
C1888 C1890 1.327 1_565 S
C1888 H1913 0.950 . S
C1889 C1888 1.349 . S
C1889 C1905 1.349 . S
C1890 C1888 1.327 1_545 S
C1890 C1909 1.429 . S
C1890 H1914 0.950 . S
C1891 C1908 1.574 . S
C1891 C1910 1.368 . S
C1891 H1915 0.949 . S
H1892 C1896 0.949 . S
C1893 C1894 1.349 . S
C1893 C1895 1.327 . S
C1893 H1916 0.950 . S
C1894 C1893 1.349 . S
C1894 C1906 1.349 . S
C1895 C1893 1.327 . S
C1895 C1911 1.429 . S
C1895 H1917 0.950 . S
C1896 H1892 0.949 . S
C1896 C1904 1.574 . S
C1896 C1912 1.368 . S
H1897 C1905 0.950 . S
H1898 C1903 0.950 . S
H1899 C1904 0.949 . S
H1900 C1906 0.950 . S
H1901 C1907 0.950 . S
H1902 C1908 0.949 . S
C1903 H1898 0.950 . S
C1903 C1905 1.327 1_545 S
C1903 C1909 1.429 . S
C1904 C1896 1.574 . S
C1904 H1899 0.949 . S
C1904 C1910 1.368 . S
C1905 C1889 1.349 . S
C1905 H1897 0.950 . S
C1905 C1903 1.327 1_565 S
C1906 C1894 1.349 . S
C1906 H1900 0.950 . S
C1906 C1907 1.327 . S
C1907 H1901 0.950 . S
C1907 C1906 1.327 . S
C1907 C1911 1.429 . S
C1908 C1891 1.574 . S
C1908 H1902 0.949 . S
C1908 C1912 1.368 . S
C1909 C1890 1.429 . S
C1909 C1903 1.429 . S
C1909 C1910 1.523 . S
C1910 C1891 1.368 . S
C1910 C1904 1.368 . S
C1910 C1909 1.523 . S
C1911 C1895 1.429 . S
C1911 C1907 1.429 . S
C1911 C1912 1.523 . S
C1912 C1896 1.368 . S
C1912 C1908 1.368 . S
C1912 C1911 1.523 . S
H1913 C1888 0.950 . S
H1914 C1890 0.950 . S
H1915 C1891 0.949 . S
H1916 C1893 0.950 . S
H1917 C1895 0.950 . S
C1918 C1919 1.349 . S
C1918 C1920 1.327 1_565 S
C1918 H1943 0.950 . S
C1919 C1918 1.349 . S
C1919 C1935 1.349 . S
C1920 C1918 1.327 1_545 S
C1920 C1939 1.429 . S
C1920 H1944 0.950 . S
C1921 C1938 1.574 . S
C1921 C1940 1.368 . S
C1921 H1945 0.949 . S
H1922 C1926 0.949 . S
C1923 C1924 1.349 . S
C1923 C1925 1.327 . S
C1923 H1946 0.950 . S
C1924 C1923 1.349 . S
C1924 C1936 1.349 . S
C1925 C1923 1.327 . S
C1925 C1941 1.429 . S
C1925 H1947 0.950 . S
C1926 H1922 0.949 . S
C1926 C1934 1.574 . S
C1926 C1942 1.368 . S
H1927 C1935 0.950 . S
H1928 C1933 0.950 . S
H1929 C1934 0.949 . S
H1930 C1936 0.950 . S
H1931 C1937 0.950 . S
H1932 C1938 0.949 . S
C1933 H1928 0.950 . S
C1933 C1935 1.327 1_545 S
C1933 C1939 1.429 . S
C1934 C1926 1.574 . S
C1934 H1929 0.949 . S
C1934 C1940 1.368 . S
C1935 C1919 1.349 . S
C1935 H1927 0.950 . S
C1935 C1933 1.327 1_565 S
C1936 C1924 1.349 . S
C1936 H1930 0.950 . S
C1936 C1937 1.327 . S
C1937 H1931 0.950 . S
C1937 C1936 1.327 . S
C1937 C1941 1.429 . S
C1938 C1921 1.574 . S
C1938 H1932 0.949 . S
C1938 C1942 1.368 . S
C1939 C1920 1.429 . S
C1939 C1933 1.429 . S
C1939 C1940 1.523 . S
C1940 C1921 1.368 . S
C1940 C1934 1.368 . S
C1940 C1939 1.523 . S
C1941 C1925 1.429 . S
C1941 C1937 1.429 . S
C1941 C1942 1.523 . S
C1942 C1926 1.368 . S
C1942 C1938 1.368 . S
C1942 C1941 1.523 . S
H1943 C1918 0.950 . S
H1944 C1920 0.950 . S
H1945 C1921 0.949 . S
H1946 C1923 0.950 . S
H1947 C1925 0.950 . S
C1948 C1949 1.349 . S
C1948 C1950 1.327 . S
C1948 H1973 0.950 . S
C1949 C1948 1.349 . S
C1949 C1965 1.349 . S
C1950 C1948 1.327 . S
C1950 C1969 1.429 . S
C1950 H1974 0.950 . S
C1951 C1968 1.574 . S
C1951 C1970 1.368 . S
C1951 H1975 0.949 . S
H1952 C1956 0.949 . S
C1953 C1954 1.349 . S
C1953 C1955 1.327 1_545 S
C1953 H1976 0.950 . S
C1954 C1953 1.349 . S
C1954 C1966 1.349 . S
C1955 C1953 1.327 1_565 S
C1955 C1971 1.429 . S
C1955 H1977 0.950 . S
C1956 H1952 0.949 . S
C1956 C1964 1.574 . S
C1956 C1972 1.368 . S
H1957 C1965 0.950 . S
H1958 C1963 0.950 . S
H1959 C1964 0.949 . S
H1960 C1966 0.950 . S
H1961 C1967 0.950 . S
H1962 C1968 0.949 . S
C1963 H1958 0.950 . S
C1963 C1965 1.327 . S
C1963 C1969 1.429 . S
C1964 C1956 1.574 . S
C1964 H1959 0.949 . S
C1964 C1970 1.368 . S
C1965 C1949 1.349 . S
C1965 H1957 0.950 . S
C1965 C1963 1.327 . S
C1966 C1954 1.349 . S
C1966 H1960 0.950 . S
C1966 C1967 1.327 1_545 S
C1967 H1961 0.950 . S
C1967 C1966 1.327 1_565 S
C1967 C1971 1.429 . S
C1968 C1951 1.574 . S
C1968 H1962 0.949 . S
C1968 C1972 1.368 . S
C1969 C1950 1.429 . S
C1969 C1963 1.429 . S
C1969 C1970 1.523 . S
C1970 C1951 1.368 . S
C1970 C1964 1.368 . S
C1970 C1969 1.523 . S
C1971 C1955 1.429 . S
C1971 C1967 1.429 . S
C1971 C1972 1.523 . S
C1972 C1956 1.368 . S
C1972 C1968 1.368 . S
C1972 C1971 1.523 . S
H1973 C1948 0.950 . S
H1974 C1950 0.950 . S
H1975 C1951 0.949 . S
H1976 C1953 0.950 . S
H1977 C1955 0.950 . S
C1978 C1979 1.349 . S
C1978 C1980 1.327 1_545 S
C1978 H2003 0.950 . S
C1979 C1978 1.349 . S
C1979 C1995 1.349 . S
C1980 C1978 1.327 1_565 S
C1980 C1999 1.429 . S
C1980 H2004 0.950 . S
C1981 C1998 1.574 . S
C1981 C2000 1.368 . S
C1981 H2005 0.949 . S
H1982 C1986 0.949 . S
C1983 C1984 1.349 . S
C1983 C1985 1.327 . S
C1983 H2006 0.950 . S
C1984 C1983 1.349 . S
C1984 C1996 1.349 . S
C1985 C1983 1.327 . S
C1985 C2001 1.429 . S
C1985 H2007 0.950 . S
C1986 H1982 0.949 . S
C1986 C1994 1.574 . S
C1986 C2002 1.368 . S
H1987 C1995 0.950 . S
H1988 C1993 0.950 . S
H1989 C1994 0.949 . S
H1990 C1996 0.950 . S
H1991 C1997 0.950 . S
H1992 C1998 0.949 . S
C1993 H1988 0.950 . S
C1993 C1995 1.327 1_565 S
C1993 C1999 1.429 . S
C1994 C1986 1.574 . S
C1994 H1989 0.949 . S
C1994 C2000 1.368 . S
C1995 C1979 1.349 . S
C1995 H1987 0.950 . S
C1995 C1993 1.327 1_545 S
C1996 C1984 1.349 . S
C1996 H1990 0.950 . S
C1996 C1997 1.327 . S
C1997 H1991 0.950 . S
C1997 C1996 1.327 . S
C1997 C2001 1.429 . S
C1998 C1981 1.574 . S
C1998 H1992 0.949 . S
C1998 C2002 1.368 . S
C1999 C1980 1.429 . S
C1999 C1993 1.429 . S
C1999 C2000 1.523 . S
C2000 C1981 1.368 . S
C2000 C1994 1.368 . S
C2000 C1999 1.523 . S
C2001 C1985 1.429 . S
C2001 C1997 1.429 . S
C2001 C2002 1.523 . S
C2002 C1986 1.368 . S
C2002 C1998 1.368 . S
C2002 C2001 1.523 . S
H2003 C1978 0.950 . S
H2004 C1980 0.950 . S
H2005 C1981 0.949 . S
H2006 C1983 0.950 . S
H2007 C1985 0.950 . S
C2008 C2009 1.349 . S
C2008 C2010 1.327 . S
C2008 H2033 0.950 . S
C2009 C2008 1.349 . S
C2009 C2025 1.349 . S
C2010 C2008 1.327 . S
C2010 C2029 1.429 . S
C2010 H2034 0.950 . S
C2011 C2028 1.574 . S
C2011 C2030 1.368 . S
C2011 H2035 0.949 . S
H2012 C2016 0.949 . S
C2013 C2014 1.349 . S
C2013 C2015 1.327 . S
C2013 H2036 0.950 . S
C2014 C2013 1.349 . S
C2014 C2026 1.349 . S
C2015 C2013 1.327 . S
C2015 C2031 1.429 . S
C2015 H2037 0.950 . S
C2016 H2012 0.949 . S
C2016 C2024 1.574 . S
C2016 C2032 1.368 . S
H2017 C2025 0.950 . S
H2018 C2023 0.950 . S
H2019 C2024 0.949 . S
H2020 C2026 0.950 . S
H2021 C2027 0.950 . S
H2022 C2028 0.949 . S
C2023 H2018 0.950 . S
C2023 C2025 1.327 . S
C2023 C2029 1.429 . S
C2024 C2016 1.574 . S
C2024 H2019 0.949 . S
C2024 C2030 1.368 . S
C2025 C2009 1.349 . S
C2025 H2017 0.950 . S
C2025 C2023 1.327 . S
C2026 C2014 1.349 . S
C2026 H2020 0.950 . S
C2026 C2027 1.327 . S
C2027 H2021 0.950 . S
C2027 C2026 1.327 . S
C2027 C2031 1.429 . S
C2028 C2011 1.574 . S
C2028 H2022 0.949 . S
C2028 C2032 1.368 . S
C2029 C2010 1.429 . S
C2029 C2023 1.429 . S
C2029 C2030 1.523 . S
C2030 C2011 1.368 . S
C2030 C2024 1.368 . S
C2030 C2029 1.523 . S
C2031 C2015 1.429 . S
C2031 C2027 1.429 . S
C2031 C2032 1.523 . S
C2032 C2016 1.368 . S
C2032 C2028 1.368 . S
C2032 C2031 1.523 . S
H2033 C2008 0.950 . S
H2034 C2010 0.950 . S
H2035 C2011 0.949 . S
H2036 C2013 0.950 . S
H2037 C2015 0.950 . S
C2038 C2039 1.349 . S
C2038 C2040 1.327 . S
C2038 H2063 0.950 . S
C2039 C2038 1.349 . S
C2039 C2055 1.349 . S
C2040 C2038 1.327 . S
C2040 C2059 1.429 . S
C2040 H2064 0.950 . S
C2041 C2058 1.574 . S
C2041 C2060 1.368 . S
C2041 H2065 0.949 . S
H2042 C2046 0.949 . S
C2043 C2044 1.349 . S
C2043 C2045 1.327 . S
C2043 H2066 0.950 . S
C2044 C2043 1.349 . S
C2044 C2056 1.349 . S
C2045 C2043 1.327 . S
C2045 C2061 1.429 . S
C2045 H2067 0.950 . S
C2046 H2042 0.949 . S
C2046 C2054 1.574 . S
C2046 C2062 1.368 . S
H2047 C2055 0.950 . S
H2048 C2053 0.950 . S
H2049 C2054 0.949 . S
H2050 C2056 0.950 . S
H2051 C2057 0.950 . S
H2052 C2058 0.949 . S
C2053 H2048 0.950 . S
C2053 C2055 1.327 . S
C2053 C2059 1.429 . S
C2054 C2046 1.574 . S
C2054 H2049 0.949 . S
C2054 C2060 1.368 . S
C2055 C2039 1.349 . S
C2055 H2047 0.950 . S
C2055 C2053 1.327 . S
C2056 C2044 1.349 . S
C2056 H2050 0.950 . S
C2056 C2057 1.327 . S
C2057 H2051 0.950 . S
C2057 C2056 1.327 . S
C2057 C2061 1.429 . S
C2058 C2041 1.574 . S
C2058 H2052 0.949 . S
C2058 C2062 1.368 . S
C2059 C2040 1.429 . S
C2059 C2053 1.429 . S
C2059 C2060 1.523 . S
C2060 C2041 1.368 . S
C2060 C2054 1.368 . S
C2060 C2059 1.523 . S
C2061 C2045 1.429 . S
C2061 C2057 1.429 . S
C2061 C2062 1.523 . S
C2062 C2046 1.368 . S
C2062 C2058 1.368 . S
C2062 C2061 1.523 . S
H2063 C2038 0.950 . S
H2064 C2040 0.950 . S
H2065 C2041 0.949 . S
H2066 C2043 0.950 . S
H2067 C2045 0.950 . S
C2068 C2069 1.349 . S
C2068 C2070 1.327 . S
C2068 H2093 0.950 . S
C2069 C2068 1.349 . S
C2069 C2085 1.349 . S
C2070 C2068 1.327 . S
C2070 C2089 1.429 . S
C2070 H2094 0.950 . S
C2071 C2088 1.574 . S
C2071 C2090 1.368 . S
C2071 H2095 0.949 . S
H2072 C2076 0.949 . S
C2073 C2074 1.349 . S
C2073 C2075 1.327 . S
C2073 H2096 0.950 . S
C2074 C2073 1.349 . S
C2074 C2086 1.349 . S
C2075 C2073 1.327 . S
C2075 C2091 1.429 . S
C2075 H2097 0.950 . S
C2076 H2072 0.949 . S
C2076 C2084 1.574 . S
C2076 C2092 1.368 . S
H2077 C2085 0.950 . S
H2078 C2083 0.950 . S
H2079 C2084 0.949 . S
H2080 C2086 0.950 . S
H2081 C2087 0.950 . S
H2082 C2088 0.949 . S
C2083 H2078 0.950 . S
C2083 C2085 1.327 . S
C2083 C2089 1.429 . S
C2084 C2076 1.574 . S
C2084 H2079 0.949 . S
C2084 C2090 1.368 . S
C2085 C2069 1.349 . S
C2085 H2077 0.950 . S
C2085 C2083 1.327 . S
C2086 C2074 1.349 . S
C2086 H2080 0.950 . S
C2086 C2087 1.327 . S
C2087 H2081 0.950 . S
C2087 C2086 1.327 . S
C2087 C2091 1.429 . S
C2088 C2071 1.574 . S
C2088 H2082 0.949 . S
C2088 C2092 1.368 . S
C2089 C2070 1.429 . S
C2089 C2083 1.429 . S
C2089 C2090 1.523 . S
C2090 C2071 1.368 . S
C2090 C2084 1.368 . S
C2090 C2089 1.523 . S
C2091 C2075 1.429 . S
C2091 C2087 1.429 . S
C2091 C2092 1.523 . S
C2092 C2076 1.368 . S
C2092 C2088 1.368 . S
C2092 C2091 1.523 . S
H2093 C2068 0.950 . S
H2094 C2070 0.950 . S
H2095 C2071 0.949 . S
H2096 C2073 0.950 . S
H2097 C2075 0.950 . S
C2098 C2099 1.349 . S
C2098 C2100 1.327 . S
C2098 H2123 0.950 . S
C2099 C2098 1.349 . S
C2099 C2115 1.349 . S
C2100 C2098 1.327 . S
C2100 C2119 1.429 . S
C2100 H2124 0.950 . S
C2101 C2118 1.574 . S
C2101 C2120 1.368 . S
C2101 H2125 0.949 . S
H2102 C2106 0.949 . S
C2103 C2104 1.349 . S
C2103 C2105 1.327 . S
C2103 H2126 0.950 . S
C2104 C2103 1.349 . S
C2104 C2116 1.349 . S
C2105 C2103 1.327 . S
C2105 C2121 1.429 . S
C2105 H2127 0.950 . S
C2106 H2102 0.949 . S
C2106 C2114 1.574 . S
C2106 C2122 1.368 . S
H2107 C2115 0.950 . S
H2108 C2113 0.950 . S
H2109 C2114 0.949 . S
H2110 C2116 0.950 . S
H2111 C2117 0.950 . S
H2112 C2118 0.949 . S
C2113 H2108 0.950 . S
C2113 C2115 1.327 . S
C2113 C2119 1.429 . S
C2114 C2106 1.574 . S
C2114 H2109 0.949 . S
C2114 C2120 1.368 . S
C2115 C2099 1.349 . S
C2115 H2107 0.950 . S
C2115 C2113 1.327 . S
C2116 C2104 1.349 . S
C2116 H2110 0.950 . S
C2116 C2117 1.327 . S
C2117 H2111 0.950 . S
C2117 C2116 1.327 . S
C2117 C2121 1.429 . S
C2118 C2101 1.574 . S
C2118 H2112 0.949 . S
C2118 C2122 1.368 . S
C2119 C2100 1.429 . S
C2119 C2113 1.429 . S
C2119 C2120 1.523 . S
C2120 C2101 1.368 . S
C2120 C2114 1.368 . S
C2120 C2119 1.523 . S
C2121 C2105 1.429 . S
C2121 C2117 1.429 . S
C2121 C2122 1.523 . S
C2122 C2106 1.368 . S
C2122 C2118 1.368 . S
C2122 C2121 1.523 . S
H2123 C2098 0.950 . S
H2124 C2100 0.950 . S
H2125 C2101 0.949 . S
H2126 C2103 0.950 . S
H2127 C2105 0.950 . S
C2128 C2129 1.349 . S
C2128 C2130 1.327 1_565 S
C2128 H2153 0.950 . S
C2129 C2128 1.349 . S
C2129 C2145 1.349 . S
C2130 C2128 1.327 1_545 S
C2130 C2149 1.429 . S
C2130 H2154 0.950 . S
C2131 C2148 1.574 . S
C2131 C2150 1.368 . S
C2131 H2155 0.949 . S
H2132 C2136 0.949 . S
C2133 C2134 1.349 . S
C2133 C2135 1.327 . S
C2133 H2156 0.950 . S
C2134 C2133 1.349 . S
C2134 C2146 1.349 . S
C2135 C2133 1.327 . S
C2135 C2151 1.429 . S
C2135 H2157 0.950 . S
C2136 H2132 0.949 . S
C2136 C2144 1.574 . S
C2136 C2152 1.368 . S
H2137 C2145 0.950 . S
H2138 C2143 0.950 . S
H2139 C2144 0.949 . S
H2140 C2146 0.950 . S
H2141 C2147 0.950 . S
H2142 C2148 0.949 . S
C2143 H2138 0.950 . S
C2143 C2145 1.327 1_545 S
C2143 C2149 1.429 . S
C2144 C2136 1.574 . S
C2144 H2139 0.949 . S
C2144 C2150 1.368 . S
C2145 C2129 1.349 . S
C2145 H2137 0.950 . S
C2145 C2143 1.327 1_565 S
C2146 C2134 1.349 . S
C2146 H2140 0.950 . S
C2146 C2147 1.327 . S
C2147 H2141 0.950 . S
C2147 C2146 1.327 . S
C2147 C2151 1.429 . S
C2148 C2131 1.574 . S
C2148 H2142 0.949 . S
C2148 C2152 1.368 . S
C2149 C2130 1.429 . S
C2149 C2143 1.429 . S
C2149 C2150 1.523 . S
C2150 C2131 1.368 . S
C2150 C2144 1.368 . S
C2150 C2149 1.523 . S
C2151 C2135 1.429 . S
C2151 C2147 1.429 . S
C2151 C2152 1.523 . S
C2152 C2136 1.368 . S
C2152 C2148 1.368 . S
C2152 C2151 1.523 . S
H2153 C2128 0.950 . S
H2154 C2130 0.950 . S
H2155 C2131 0.949 . S
H2156 C2133 0.950 . S
H2157 C2135 0.950 . S
C2158 C2159 1.349 . S
C2158 C2160 1.327 . S
C2158 H2183 0.950 . S
C2159 C2158 1.349 . S
C2159 C2175 1.349 . S
C2160 C2158 1.327 . S
C2160 C2179 1.429 . S
C2160 H2184 0.950 . S
C2161 C2178 1.574 . S
C2161 C2180 1.368 . S
C2161 H2185 0.949 . S
H2162 C2166 0.949 . S
C2163 C2164 1.349 . S
C2163 C2165 1.327 1_565 S
C2163 H2186 0.950 . S
C2164 C2163 1.349 . S
C2164 C2176 1.349 . S
C2165 C2163 1.327 1_545 S
C2165 C2181 1.429 . S
C2165 H2187 0.950 . S
C2166 H2162 0.949 . S
C2166 C2174 1.574 . S
C2166 C2182 1.368 . S
H2167 C2175 0.950 . S
H2168 C2173 0.950 . S
H2169 C2174 0.949 . S
H2170 C2176 0.950 . S
H2171 C2177 0.950 . S
H2172 C2178 0.949 . S
C2173 H2168 0.950 . S
C2173 C2175 1.327 . S
C2173 C2179 1.429 . S
C2174 C2166 1.574 . S
C2174 H2169 0.949 . S
C2174 C2180 1.368 . S
C2175 C2159 1.349 . S
C2175 H2167 0.950 . S
C2175 C2173 1.327 . S
C2176 C2164 1.349 . S
C2176 H2170 0.950 . S
C2176 C2177 1.327 1_565 S
C2177 H2171 0.950 . S
C2177 C2176 1.327 1_545 S
C2177 C2181 1.429 . S
C2178 C2161 1.574 . S
C2178 H2172 0.949 . S
C2178 C2182 1.368 . S
C2179 C2160 1.429 . S
C2179 C2173 1.429 . S
C2179 C2180 1.523 . S
C2180 C2161 1.368 . S
C2180 C2174 1.368 . S
C2180 C2179 1.523 . S
C2181 C2165 1.429 . S
C2181 C2177 1.429 . S
C2181 C2182 1.523 . S
C2182 C2166 1.368 . S
C2182 C2178 1.368 . S
C2182 C2181 1.523 . S
H2183 C2158 0.950 . S
H2184 C2160 0.950 . S
H2185 C2161 0.949 . S
H2186 C2163 0.950 . S
H2187 C2165 0.950 . S
C2188 C2189 1.349 . S
C2188 C2190 1.327 . S
C2188 H2213 0.950 . S
C2189 C2188 1.349 . S
C2189 C2205 1.349 . S
C2190 C2188 1.327 . S
C2190 C2209 1.429 . S
C2190 H2214 0.950 . S
C2191 C2208 1.574 . S
C2191 C2210 1.368 . S
C2191 H2215 0.949 . S
H2192 C2196 0.949 . S
C2193 C2194 1.349 . S
C2193 C2195 1.327 1_545 S
C2193 H2216 0.950 . S
C2194 C2193 1.349 . S
C2194 C2206 1.349 . S
C2195 C2193 1.327 1_565 S
C2195 C2211 1.429 . S
C2195 H2217 0.950 . S
C2196 H2192 0.949 . S
C2196 C2204 1.574 . S
C2196 C2212 1.368 . S
H2197 C2205 0.950 . S
H2198 C2203 0.950 . S
H2199 C2204 0.949 . S
H2200 C2206 0.950 . S
H2201 C2207 0.950 . S
H2202 C2208 0.949 . S
C2203 H2198 0.950 . S
C2203 C2205 1.327 . S
C2203 C2209 1.429 . S
C2204 C2196 1.574 . S
C2204 H2199 0.949 . S
C2204 C2210 1.368 . S
C2205 C2189 1.349 . S
C2205 H2197 0.950 . S
C2205 C2203 1.327 . S
C2206 C2194 1.349 . S
C2206 H2200 0.950 . S
C2206 C2207 1.327 1_545 S
C2207 H2201 0.950 . S
C2207 C2206 1.327 1_565 S
C2207 C2211 1.429 . S
C2208 C2191 1.574 . S
C2208 H2202 0.949 . S
C2208 C2212 1.368 . S
C2209 C2190 1.429 . S
C2209 C2203 1.429 . S
C2209 C2210 1.523 . S
C2210 C2191 1.368 . S
C2210 C2204 1.368 . S
C2210 C2209 1.523 . S
C2211 C2195 1.429 . S
C2211 C2207 1.429 . S
C2211 C2212 1.523 . S
C2212 C2196 1.368 . S
C2212 C2208 1.368 . S
C2212 C2211 1.523 . S
H2213 C2188 0.950 . S
H2214 C2190 0.950 . S
H2215 C2191 0.949 . S
H2216 C2193 0.950 . S
H2217 C2195 0.950 . S
C2218 C2219 1.349 . S
C2218 C2220 1.327 . S
C2218 H2243 0.950 . S
C2219 C2218 1.349 . S
C2219 C2235 1.349 . S
C2220 C2218 1.327 . S
C2220 C2239 1.429 . S
C2220 H2244 0.950 . S
C2221 C2238 1.574 . S
C2221 C2240 1.368 . S
C2221 H2245 0.949 . S
H2222 C2226 0.949 . S
C2223 C2224 1.349 . S
C2223 C2225 1.327 1_545 S
C2223 H2246 0.950 . S
C2224 C2223 1.349 . S
C2224 C2236 1.349 . S
C2225 C2223 1.327 1_565 S
C2225 C2241 1.429 . S
C2225 H2247 0.950 . S
C2226 H2222 0.949 . S
C2226 C2234 1.574 . S
C2226 C2242 1.368 . S
H2227 C2235 0.950 . S
H2228 C2233 0.950 . S
H2229 C2234 0.949 . S
H2230 C2236 0.950 . S
H2231 C2237 0.950 . S
H2232 C2238 0.949 . S
C2233 H2228 0.950 . S
C2233 C2235 1.327 . S
C2233 C2239 1.429 . S
C2234 C2226 1.574 . S
C2234 H2229 0.949 . S
C2234 C2240 1.368 . S
C2235 C2219 1.349 . S
C2235 H2227 0.950 . S
C2235 C2233 1.327 . S
C2236 C2224 1.349 . S
C2236 H2230 0.950 . S
C2236 C2237 1.327 1_545 S
C2237 H2231 0.950 . S
C2237 C2236 1.327 1_565 S
C2237 C2241 1.429 . S
C2238 C2221 1.574 . S
C2238 H2232 0.949 . S
C2238 C2242 1.368 . S
C2239 C2220 1.429 . S
C2239 C2233 1.429 . S
C2239 C2240 1.523 . S
C2240 C2221 1.368 . S
C2240 C2234 1.368 . S
C2240 C2239 1.523 . S
C2241 C2225 1.429 . S
C2241 C2237 1.429 . S
C2241 C2242 1.523 . S
C2242 C2226 1.368 . S
C2242 C2238 1.368 . S
C2242 C2241 1.523 . S
H2243 C2218 0.950 . S
H2244 C2220 0.950 . S
H2245 C2221 0.949 . S
H2246 C2223 0.950 . S
H2247 C2225 0.950 . S
C2248 C2249 1.349 . S
C2248 C2250 1.327 . S
C2248 H2273 0.950 . S
C2249 C2248 1.349 . S
C2249 C2265 1.349 . S
C2250 C2248 1.327 . S
C2250 C2269 1.429 . S
C2250 H2274 0.950 . S
C2251 C2268 1.574 . S
C2251 C2270 1.368 . S
C2251 H2275 0.949 . S
H2252 C2256 0.949 . S
C2253 C2254 1.349 . S
C2253 C2255 1.327 . S
C2253 H2276 0.950 . S
C2254 C2253 1.349 . S
C2254 C2266 1.349 . S
C2255 C2253 1.327 . S
C2255 C2271 1.429 . S
C2255 H2277 0.950 . S
C2256 H2252 0.949 . S
C2256 C2264 1.574 . S
C2256 C2272 1.368 . S
H2257 C2265 0.950 . S
H2258 C2263 0.950 . S
H2259 C2264 0.949 . S
H2260 C2266 0.950 . S
H2261 C2267 0.950 . S
H2262 C2268 0.949 . S
C2263 H2258 0.950 . S
C2263 C2265 1.327 . S
C2263 C2269 1.429 . S
C2264 C2256 1.574 . S
C2264 H2259 0.949 . S
C2264 C2270 1.368 . S
C2265 C2249 1.349 . S
C2265 H2257 0.950 . S
C2265 C2263 1.327 . S
C2266 C2254 1.349 . S
C2266 H2260 0.950 . S
C2266 C2267 1.327 . S
C2267 H2261 0.950 . S
C2267 C2266 1.327 . S
C2267 C2271 1.429 . S
C2268 C2251 1.574 . S
C2268 H2262 0.949 . S
C2268 C2272 1.368 . S
C2269 C2250 1.429 . S
C2269 C2263 1.429 . S
C2269 C2270 1.523 . S
C2270 C2251 1.368 . S
C2270 C2264 1.368 . S
C2270 C2269 1.523 . S
C2271 C2255 1.429 . S
C2271 C2267 1.429 . S
C2271 C2272 1.523 . S
C2272 C2256 1.368 . S
C2272 C2268 1.368 . S
C2272 C2271 1.523 . S
H2273 C2248 0.950 . S
H2274 C2250 0.950 . S
H2275 C2251 0.949 . S
H2276 C2253 0.950 . S
H2277 C2255 0.950 . S
C2278 C2279 1.349 . S
C2278 C2280 1.327 . S
C2278 H2303 0.950 . S
C2279 C2278 1.349 . S
C2279 C2295 1.349 . S
C2280 C2278 1.327 . S
C2280 C2299 1.429 . S
C2280 H2304 0.950 . S
C2281 C2298 1.574 . S
C2281 C2300 1.368 . S
C2281 H2305 0.949 . S
H2282 C2286 0.949 . S
C2283 C2284 1.349 . S
C2283 C2285 1.327 . S
C2283 H2306 0.950 . S
C2284 C2283 1.349 . S
C2284 C2296 1.349 . S
C2285 C2283 1.327 . S
C2285 C2301 1.429 . S
C2285 H2307 0.950 . S
C2286 H2282 0.949 . S
C2286 C2294 1.574 . S
C2286 C2302 1.368 . S
H2287 C2295 0.950 . S
H2288 C2293 0.950 . S
H2289 C2294 0.949 . S
H2290 C2296 0.950 . S
H2291 C2297 0.950 . S
H2292 C2298 0.949 . S
C2293 H2288 0.950 . S
C2293 C2295 1.327 . S
C2293 C2299 1.429 . S
C2294 C2286 1.574 . S
C2294 H2289 0.949 . S
C2294 C2300 1.368 . S
C2295 C2279 1.349 . S
C2295 H2287 0.950 . S
C2295 C2293 1.327 . S
C2296 C2284 1.349 . S
C2296 H2290 0.950 . S
C2296 C2297 1.327 . S
C2297 H2291 0.950 . S
C2297 C2296 1.327 . S
C2297 C2301 1.429 . S
C2298 C2281 1.574 . S
C2298 H2292 0.949 . S
C2298 C2302 1.368 . S
C2299 C2280 1.429 . S
C2299 C2293 1.429 . S
C2299 C2300 1.523 . S
C2300 C2281 1.368 . S
C2300 C2294 1.368 . S
C2300 C2299 1.523 . S
C2301 C2285 1.429 . S
C2301 C2297 1.429 . S
C2301 C2302 1.523 . S
C2302 C2286 1.368 . S
C2302 C2298 1.368 . S
C2302 C2301 1.523 . S
H2303 C2278 0.950 . S
H2304 C2280 0.950 . S
H2305 C2281 0.949 . S
H2306 C2283 0.950 . S
H2307 C2285 0.950 . S
C2308 C2309 1.349 . S
C2308 C2310 1.327 . S
C2308 H2333 0.950 . S
C2309 C2308 1.349 . S
C2309 C2325 1.349 . S
C2310 C2308 1.327 . S
C2310 C2329 1.429 . S
C2310 H2334 0.950 . S
C2311 C2328 1.574 . S
C2311 C2330 1.368 . S
C2311 H2335 0.949 . S
H2312 C2316 0.949 . S
C2313 C2314 1.349 . S
C2313 C2315 1.327 . S
C2313 H2336 0.950 . S
C2314 C2313 1.349 . S
C2314 C2326 1.349 . S
C2315 C2313 1.327 . S
C2315 C2331 1.429 . S
C2315 H2337 0.950 . S
C2316 H2312 0.949 . S
C2316 C2324 1.574 . S
C2316 C2332 1.368 . S
H2317 C2325 0.950 . S
H2318 C2323 0.950 . S
H2319 C2324 0.949 . S
H2320 C2326 0.950 . S
H2321 C2327 0.950 . S
H2322 C2328 0.949 . S
C2323 H2318 0.950 . S
C2323 C2325 1.327 . S
C2323 C2329 1.429 . S
C2324 C2316 1.574 . S
C2324 H2319 0.949 . S
C2324 C2330 1.368 . S
C2325 C2309 1.349 . S
C2325 H2317 0.950 . S
C2325 C2323 1.327 . S
C2326 C2314 1.349 . S
C2326 H2320 0.950 . S
C2326 C2327 1.327 . S
C2327 H2321 0.950 . S
C2327 C2326 1.327 . S
C2327 C2331 1.429 . S
C2328 C2311 1.574 . S
C2328 H2322 0.949 . S
C2328 C2332 1.368 . S
C2329 C2310 1.429 . S
C2329 C2323 1.429 . S
C2329 C2330 1.523 . S
C2330 C2311 1.368 . S
C2330 C2324 1.368 . S
C2330 C2329 1.523 . S
C2331 C2315 1.429 . S
C2331 C2327 1.429 . S
C2331 C2332 1.523 . S
C2332 C2316 1.368 . S
C2332 C2328 1.368 . S
C2332 C2331 1.523 . S
H2333 C2308 0.950 . S
H2334 C2310 0.950 . S
H2335 C2311 0.949 . S
H2336 C2313 0.950 . S
H2337 C2315 0.950 . S
C2338 C2339 1.349 . S
C2338 C2340 1.327 . S
C2338 H2363 0.950 . S
C2339 C2338 1.349 . S
C2339 C2355 1.349 . S
C2340 C2338 1.327 . S
C2340 C2359 1.429 . S
C2340 H2364 0.950 . S
C2341 C2358 1.574 . S
C2341 C2360 1.368 . S
C2341 H2365 0.949 . S
H2342 C2346 0.949 . S
C2343 C2344 1.349 . S
C2343 C2345 1.327 . S
C2343 H2366 0.950 . S
C2344 C2343 1.349 . S
C2344 C2356 1.349 . S
C2345 C2343 1.327 . S
C2345 C2361 1.429 . S
C2345 H2367 0.950 . S
C2346 H2342 0.949 . S
C2346 C2354 1.574 . S
C2346 C2362 1.368 . S
H2347 C2355 0.950 . S
H2348 C2353 0.950 . S
H2349 C2354 0.949 . S
H2350 C2356 0.950 . S
H2351 C2357 0.950 . S
H2352 C2358 0.949 . S
C2353 H2348 0.950 . S
C2353 C2355 1.327 . S
C2353 C2359 1.429 . S
C2354 C2346 1.574 . S
C2354 H2349 0.949 . S
C2354 C2360 1.368 . S
C2355 C2339 1.349 . S
C2355 H2347 0.950 . S
C2355 C2353 1.327 . S
C2356 C2344 1.349 . S
C2356 H2350 0.950 . S
C2356 C2357 1.327 . S
C2357 H2351 0.950 . S
C2357 C2356 1.327 . S
C2357 C2361 1.429 . S
C2358 C2341 1.574 . S
C2358 H2352 0.949 . S
C2358 C2362 1.368 . S
C2359 C2340 1.429 . S
C2359 C2353 1.429 . S
C2359 C2360 1.523 . S
C2360 C2341 1.368 . S
C2360 C2354 1.368 . S
C2360 C2359 1.523 . S
C2361 C2345 1.429 . S
C2361 C2357 1.429 . S
C2361 C2362 1.523 . S
C2362 C2346 1.368 . S
C2362 C2358 1.368 . S
C2362 C2361 1.523 . S
H2363 C2338 0.950 . S
H2364 C2340 0.950 . S
H2365 C2341 0.949 . S
H2366 C2343 0.950 . S
H2367 C2345 0.950 . S
C449 C37 0.452 . S
C454 C9 0.452 . S
C479 C23 0.452 . S
C484 C51 0.452 . S
C509 C93 0.452 . S
C514 C65 0.452 . S
C539 C107 0.452 . S
C544 C79 0.452 . S
C569 C121 0.452 . S
C574 C149 0.452 . S
C599 C163 0.452 . S
C604 C135 0.452 . S
C629 C177 0.452 . S
C634 C205 0.452 . S
C659 C191 0.452 . S
C664 C219 0.452 . S
C689 C261 0.452 . S
C694 C233 0.452 . S
C719 C247 0.452 . S
C724 C275 0.452 . S
C749 C289 0.452 . S
C754 C317 0.452 . S
C779 C331 0.452 . S
C784 C303 0.452 . S
C809 C373 0.452 . S
C814 C345 0.452 . S
C839 C387 0.452 . S
C844 C359 0.452 . S
C869 C429 0.452 . S
C874 C401 0.452 . S
C899 C415 0.452 . S
C904 C443 0.452 . S
C929 C67 1.576 . S
C934 C11 1.576 . S
C959 C417 1.575 . S
C964 C25 1.575 . S
C989 C39 1.576 . S
C994 C207 1.576 . S
C1019 C53 1.576 . S
C1024 C333 1.576 . S
C1049 C81 1.575 . S
C1054 C361 1.575 . S
C1079 C95 1.576 . S
C1084 C151 1.576 . S
C1109 C277 1.576 . S
C1114 C109 1.576 . S
C1139 C179 1.576 . S
C1144 C123 1.576 . S
C1169 C305 1.576 . S
C1174 C137 1.576 . S
C1199 C165 1.576 . S
C1204 C445 1.576 . S
C1229 C193 1.576 . S
C1234 C249 1.576 . S
C1259 C389 1.576 . S
C1264 C221 1.576 . S
C1289 C291 1.576 . S
C1294 C235 1.576 . S
C1319 C263 1.575 . S
C1324 C431 1.575 . S
C1349 C319 1.575 . S
C1354 C375 1.575 . S
C1379 C403 1.576 . S
C1384 C347 1.576 . S
C1409 C47 1.508 . S
C1414 C5 1.508 . S
C1439 C33 1.507 . S
C1444 C19 1.507 . S
C1469 C103 1.508 . S
C1474 C61 1.508 . S
C1499 C89 1.507 . S
C1504 C75 1.507 . S
C1529 C159 1.508 . S
C1534 C117 1.508 . S
C1559 C145 1.507 . S
C1564 C131 1.507 . S
C1589 C215 1.508 . S
C1594 C173 1.508 . S
C1619 C201 1.507 . S
C1624 C187 1.507 . S
C1649 C229 1.508 . S
C1654 C271 1.508 . S
C1679 C257 1.507 . S
C1684 C243 1.507 . S
C1709 C285 1.508 . S
C1714 C327 1.508 . S
C1739 C313 1.507 . S
C1744 C299 1.507 . S
C1769 C383 1.508 . S
C1774 C341 1.508 . S
C1799 C355 1.507 . S
C1804 C369 1.507 . S
C1829 C397 1.508 . S
C1834 C439 1.508 . S
C1859 C425 1.507 . S
C1864 C411 1.507 . S
C1889 C28 1.484 . S
C1894 C0 1.484 . S
C1919 C14 1.484 . S
C1924 C42 1.484 . S
C1949 C56 1.484 . S
C1954 C84 1.484 . S
C1979 C70 1.484 . S
C1984 C98 1.484 . S
C2009 C112 1.484 . S
C2014 C140 1.484 . S
C2039 C126 1.484 . S
C2044 C154 1.484 . S
C2069 C196 1.484 . S
C2074 C168 1.484 . S
C2099 C210 1.484 . S
C2104 C182 1.484 . S
C2129 C252 1.484 . S
C2134 C224 1.484 . S
C2159 C266 1.484 . S
C2164 C238 1.484 . S
C2189 C280 1.484 . S
C2194 C308 1.484 . S
C2219 C322 1.484 . S
C2224 C294 1.484 . S
C2249 C364 1.484 . S
C2254 C336 1.484 . S
C2279 C350 1.484 . S
C2284 C378 1.484 . S
C2309 C392 1.484 . S
C2314 C420 1.484 . S
C2339 C434 1.484 . S
C2344 C406 1.484 . S
