# Generated by pormake.
# Topology qtz-h, (3)-cn, num edge types: 1
# Building blocks:
#     Node 0, Type 0, BuildingBlock: WUSLED_clean_sbu_0, # of connection points: 3
#     Node 1, Type 0, BuildingBlock: WUSLED_clean_sbu_0, # of connection points: 3
#     Node 2, Type 0, BuildingBlock: WUSLED_clean_sbu_0, # of connection points: 3
#     Node 3, Type 0, BuildingBlock: WUSLED_clean_sbu_0, # of connection points: 3
#     Node 4, Type 0, BuildingBlock: WUSLED_clean_sbu_0, # of connection points: 3
#     Node 5, Type 0, BuildingBlock: WUSLED_clean_sbu_0, # of connection points: 3
#     Node 6, Type 0, BuildingBlock: WUSLED_clean_sbu_0, # of connection points: 3
#     Node 7, Type 0, BuildingBlock: WUSLED_clean_sbu_0, # of connection points: 3
#     Node 8, Type 0, BuildingBlock: WUSLED_clean_sbu_0, # of connection points: 3
#     Node 9, Type 0, BuildingBlock: WUSLED_clean_sbu_0, # of connection points: 3
#     Node 10, Type 0, BuildingBlock: WUSLED_clean_sbu_0, # of connection points: 3
#     Node 11, Type 0, BuildingBlock: WUSLED_clean_sbu_0, # of connection points: 3
#     Edge 12, Type (0, 0), BuildingBlock: KIFKEQ_clean_linker_1, # of connection points: 2
#     Edge 13, Type (0, 0), BuildingBlock: KIFKEQ_clean_linker_1, # of connection points: 2
#     Edge 14, Type (0, 0), BuildingBlock: KIFKEQ_clean_linker_1, # of connection points: 2
#     Edge 15, Type (0, 0), BuildingBlock: KIFKEQ_clean_linker_1, # of connection points: 2
#     Edge 16, Type (0, 0), BuildingBlock: KIFKEQ_clean_linker_1, # of connection points: 2
#     Edge 17, Type (0, 0), BuildingBlock: KIFKEQ_clean_linker_1, # of connection points: 2
#     Edge 18, Type (0, 0), BuildingBlock: KIFKEQ_clean_linker_1, # of connection points: 2
#     Edge 19, Type (0, 0), BuildingBlock: KIFKEQ_clean_linker_1, # of connection points: 2
#     Edge 20, Type (0, 0), BuildingBlock: KIFKEQ_clean_linker_1, # of connection points: 2
#     Edge 21, Type (0, 0), BuildingBlock: KIFKEQ_clean_linker_1, # of connection points: 2
#     Edge 22, Type (0, 0), BuildingBlock: KIFKEQ_clean_linker_1, # of connection points: 2
#     Edge 23, Type (0, 0), BuildingBlock: KIFKEQ_clean_linker_1, # of connection points: 2
#     Edge 24, Type (0, 0), BuildingBlock: KIFKEQ_clean_linker_1, # of connection points: 2
#     Edge 25, Type (0, 0), BuildingBlock: KIFKEQ_clean_linker_1, # of connection points: 2
#     Edge 26, Type (0, 0), BuildingBlock: KIFKEQ_clean_linker_1, # of connection points: 2
#     Edge 27, Type (0, 0), BuildingBlock: KIFKEQ_clean_linker_1, # of connection points: 2
#     Edge 28, Type (0, 0), BuildingBlock: KIFKEQ_clean_linker_1, # of connection points: 2
#     Edge 29, Type (0, 0), BuildingBlock: KIFKEQ_clean_linker_1, # of connection points: 2
# Relax obj value: 0.120
# Max RMSD: 0.103
# Mean RMSD: 0.103
data_MOF--net-qtz-h--node1-WUSLED_clean_sbu_0--edge1-KIFKEQ_clean_linker_1
_symmetry_space_group_name_H-M    P1
_symmetry_Int_Tables_number       1
_symmetry_cell_setting            triclinic
loop_
_symmetry_equiv_pos_as_xyz
'x, y, z'
_cell_length_a     76.256122
_cell_length_b     76.23832
_cell_length_c     113.33611
_cell_angle_alpha  89.989353
_cell_angle_beta   89.998453
_cell_angle_gamma 119.98273
loop_
_atom_site_label
_atom_site_type_symbol
_atom_site_fract_x
_atom_site_fract_y
_atom_site_fract_z
_atom_type_partial_charge
C0 C 0.54442 0.12123 0.12327 0.0
C1 C 0.53572 0.109 0.11328 0.0
C2 C 0.53149 0.07949 0.12406 0.0
C3 C 0.52921 0.08831 0.1137 0.0
C4 C 0.54046 0.09185 0.134 0.0
C5 C 0.54681 0.11255 0.13361 0.0
U6 U 0.56249 0.16897 0.10535 0.0
O7 O 0.55446 0.19291 0.10596 0.0
O8 O 0.58598 0.20059 0.10879 0.0
C9 C 0.57284 0.20698 0.10896 0.0
C10 C 0.55134 0.14304 0.12283 0.0
C11 C 0.57408 0.21947 0.11917 0.0
C12 C 0.56606 0.22271 0.13953 0.0
C13 C 0.56545 0.21061 0.13006 0.0
C14 C 0.58423 0.25265 0.12736 0.0
C15 C 0.57537 0.24388 0.13827 0.0
C16 C 0.58356 0.24054 0.1179 0.0
C17 C 0.56661 0.16262 0.07167 0.0
C18 C 0.58732 0.18702 0.05663 0.0
C19 C 0.5585 0.15489 0.05092 0.0
C20 C 0.55431 0.14946 0.06278 0.0
C21 C 0.57517 0.17364 0.04768 0.0
C22 C 0.58305 0.18158 0.06854 0.0
C23 C 0.56244 0.15556 0.084 0.0
O24 O 0.57036 0.15473 0.11976 0.0
O25 O 0.53897 0.14784 0.11753 0.0
O26 O 0.54637 0.15467 0.08886 0.0
O27 O 0.57806 0.16246 0.09117 0.0
H28 H 0.53398 0.11546 0.10515 0.0
H29 H 0.52265 0.07926 0.10585 0.0
H30 H 0.5423 0.08546 0.14212 0.0
H31 H 0.55359 0.12177 0.14137 0.0
H32 H 0.55932 0.2155 0.14785 0.0
H33 H 0.55812 0.19435 0.13121 0.0
H34 H 0.5913 0.26885 0.12603 0.0
H35 H 0.59024 0.24762 0.10954 0.0
H36 H 0.60015 0.20164 0.05442 0.0
H37 H 0.54902 0.14409 0.04428 0.0
H38 H 0.54163 0.13472 0.06501 0.0
H39 H 0.59273 0.19203 0.07527 0.0
C40 C 0.42706 0.54069 0.45553 0.0
C41 C 0.44072 0.5453 0.44616 0.0
C42 C 0.45611 0.52807 0.45619 0.0
C43 C 0.45515 0.53911 0.4465 0.0
C44 C 0.44233 0.52346 0.46555 0.0
C45 C 0.42794 0.52974 0.46521 0.0
U46 U 0.39956 0.56186 0.43815 0.0
O47 O 0.36736 0.55316 0.43757 0.0
O48 O 0.39017 0.58396 0.44285 0.0
C49 C 0.37079 0.57069 0.44174 0.0
C50 C 0.41166 0.54692 0.45509 0.0
C51 C 0.35791 0.56968 0.45167 0.0
C52 C 0.34746 0.56209 0.47218 0.0
C53 C 0.35976 0.56274 0.46281 0.0
C54 C 0.33135 0.57527 0.45934 0.0
C55 C 0.33309 0.56836 0.47055 0.0
C56 C 0.34365 0.57592 0.45 0.0
C57 C 0.41622 0.57523 0.4055 0.0
C58 C 0.39815 0.57347 0.38743 0.0
C59 C 0.43462 0.59466 0.38825 0.0
C60 C 0.43446 0.58892 0.39997 0.0
C61 C 0.41652 0.58672 0.38176 0.0
C62 C 0.39798 0.56781 0.39921 0.0
C63 C 0.41698 0.56781 0.41742 0.0
O64 O 0.41875 0.56644 0.45365 0.0
O65 O 0.39598 0.53568 0.44833 0.0
O66 O 0.40139 0.55045 0.42068 0.0
O67 O 0.42407 0.5814 0.42589 0.0
H68 H 0.44014 0.55361 0.43856 0.0
H69 H 0.46533 0.54267 0.43909 0.0
H70 H 0.4428 0.51516 0.47319 0.0
H71 H 0.41748 0.52602 0.47251 0.0
H72 H 0.34905 0.55648 0.48066 0.0
H73 H 0.37069 0.55782 0.46425 0.0
H74 H 0.3207 0.58049 0.45781 0.0
H75 H 0.34209 0.5814 0.44146 0.0
H76 H 0.38393 0.56727 0.38271 0.0
H77 H 0.44906 0.60467 0.38412 0.0
H78 H 0.44871 0.59473 0.40463 0.0
H79 H 0.38366 0.55727 0.40327 0.0
C80 C 0.89057 0.42354 0.78929 0.0
C81 C 0.90015 0.43618 0.77958 0.0
C82 C 0.9324 0.45204 0.79003 0.0
C83 C 0.92085 0.45031 0.77995 0.0
C84 C 0.92266 0.43933 0.79975 0.0
C85 C 0.90192 0.42519 0.79937 0.0
U86 U 0.84229 0.39697 0.77163 0.0
O87 O 0.81832 0.36498 0.77087 0.0
O88 O 0.81086 0.38823 0.77604 0.0
C89 C 0.80441 0.36877 0.77496 0.0
C90 C 0.86886 0.40847 0.78879 0.0
C91 C 0.79236 0.35604 0.7849 0.0
C92 C 0.7896 0.34476 0.80523 0.0
C93 C 0.80133 0.35701 0.79587 0.0
C94 C 0.75985 0.3305 0.79274 0.0
C95 C 0.7687 0.33133 0.80378 0.0
C96 C 0.77158 0.34274 0.7834 0.0
C97 C 0.84761 0.4143 0.73901 0.0
C98 C 0.82344 0.39791 0.72309 0.0
C99 C 0.8539 0.43013 0.71972 0.0
C100 C 0.85972 0.43032 0.73141 0.0
C101 C 0.83576 0.41387 0.71536 0.0
C102 C 0.82931 0.39814 0.73485 0.0
C103 C 0.85501 0.41462 0.75103 0.0
O104 O 0.85681 0.41597 0.78721 0.0
O105 O 0.8642 0.39269 0.78208 0.0
O106 O 0.85584 0.3985 0.75428 0.0
O107 O 0.84823 0.42172 0.75933 0.0
H108 H 0.89159 0.4351 0.77171 0.0
H109 H 0.92775 0.46002 0.77238 0.0
H110 H 0.93113 0.44006 0.80759 0.0
H111 H 0.89477 0.41548 0.80692 0.0
H112 H 0.79696 0.34564 0.81356 0.0
H113 H 0.81739 0.36719 0.79717 0.0
H114 H 0.74378 0.32058 0.79135 0.0
H115 H 0.7644 0.34187 0.775 0.0
H116 H 0.8093 0.38525 0.72005 0.0
H117 H 0.86397 0.44247 0.71401 0.0
H118 H 0.87395 0.44287 0.73447 0.0
H119 H 0.81976 0.38563 0.74062 0.0
C120 C 0.47301 0.88794 0.12265 0.0
C121 C 0.48004 0.89986 0.11242 0.0
C122 C 0.48583 0.9297 0.12349 0.0
C123 C 0.48649 0.92053 0.11285 0.0
C124 C 0.47873 0.91764 0.13373 0.0
C125 C 0.47241 0.89695 0.1333 0.0
U126 U 0.45064 0.83958 0.10495 0.0
O127 O 0.45786 0.81503 0.1043 0.0
O128 O 0.42731 0.80834 0.10928 0.0
C129 C 0.43997 0.80143 0.10831 0.0
C130 C 0.46573 0.86605 0.12215 0.0
C131 C 0.4402 0.78921 0.11829 0.0
C132 C 0.44758 0.7861 0.1388 0.0
C133 C 0.44726 0.79792 0.12943 0.0
C134 C 0.43376 0.75677 0.12597 0.0
C135 C 0.44088 0.76537 0.13717 0.0
C136 C 0.43343 0.7686 0.11662 0.0
C137 C 0.43971 0.8454 0.0722 0.0
C138 C 0.43175 0.82117 0.05629 0.0
C139 C 0.43037 0.85184 0.0529 0.0
C140 C 0.436 0.85764 0.06459 0.0
C141 C 0.42829 0.83361 0.04856 0.0
C142 C 0.43739 0.82702 0.06805 0.0
C143 C 0.44666 0.8527 0.08425 0.0
O144 O 0.44617 0.8545 0.12038 0.0
O145 O 0.47668 0.86079 0.11569 0.0
O146 O 0.4633 0.85304 0.08767 0.0
O147 O 0.4326 0.84621 0.09245 0.0
H148 H 0.48051 0.89317 0.10407 0.0
H149 H 0.49214 0.92934 0.10483 0.0
H150 H 0.4777 0.92407 0.14203 0.0
H151 H 0.46685 0.88795 0.14126 0.0
H152 H 0.45336 0.79326 0.14726 0.0
H153 H 0.45261 0.81386 0.13086 0.0
H154 H 0.42822 0.74083 0.12444 0.0
H155 H 0.42789 0.76163 0.10808 0.0
H156 H 0.43012 0.80697 0.05326 0.0
H157 H 0.42823 0.86199 0.04717 0.0
H158 H 0.43781 0.87192 0.06765 0.0
H159 H 0.44017 0.81735 0.07384 0.0
C160 C 0.58846 0.46887 0.45584 0.0
C161 C 0.57495 0.46437 0.44641 0.0
C162 C 0.55945 0.48156 0.45638 0.0
C163 C 0.56055 0.47061 0.44669 0.0
C164 C 0.57309 0.48606 0.4658 0.0
C165 C 0.58746 0.47974 0.46553 0.0
U166 U 0.61608 0.44771 0.43859 0.0
O167 O 0.64826 0.45628 0.43818 0.0
O168 O 0.62525 0.42545 0.44329 0.0
C169 C 0.64466 0.43866 0.44231 0.0
C170 C 0.6038 0.46257 0.45548 0.0
C171 C 0.65735 0.43945 0.4523 0.0
C172 C 0.66672 0.4456 0.47302 0.0
C173 C 0.65464 0.44522 0.4636 0.0
C174 C 0.68437 0.43454 0.45989 0.0
C175 C 0.68171 0.44018 0.47129 0.0
C176 C 0.6723 0.43418 0.45051 0.0
C177 C 0.59979 0.43471 0.40583 0.0
C178 C 0.61781 0.43688 0.38767 0.0
C179 C 0.58141 0.41517 0.38861 0.0
C180 C 0.58159 0.42081 0.40035 0.0
C181 C 0.59946 0.42342 0.38205 0.0
C182 C 0.61799 0.44245 0.39946 0.0
C183 C 0.59897 0.44205 0.41777 0.0
O184 O 0.59667 0.44306 0.45399 0.0
O185 O 0.6196 0.47383 0.4488 0.0
O186 O 0.6146 0.45933 0.42111 0.0
O187 O 0.59171 0.42839 0.4262 0.0
H188 H 0.57562 0.45612 0.4388 0.0
H189 H 0.55048 0.46714 0.43922 0.0
H190 H 0.57252 0.49429 0.47344 0.0
H191 H 0.5978 0.48336 0.47288 0.0
H192 H 0.66411 0.44981 0.48169 0.0
H193 H 0.64311 0.44931 0.46514 0.0
H194 H 0.69595 0.43059 0.45819 0.0
H195 H 0.67464 0.42976 0.44182 0.0
H196 H 0.632 0.44332 0.38289 0.0
H197 H 0.56699 0.40499 0.38452 0.0
H198 H 0.56736 0.41476 0.40506 0.0
H199 H 0.63228 0.45317 0.40348 0.0
C200 C 0.12385 0.58483 0.7901 0.0
C201 C 0.1142 0.5735 0.77998 0.0
C202 C 0.08232 0.55537 0.7907 0.0
C203 C 0.09364 0.55888 0.78027 0.0
C204 C 0.0921 0.56682 0.80082 0.0
C205 C 0.11271 0.58141 0.80051 0.0
U206 U 0.17153 0.61529 0.77232 0.0
O207 O 0.19481 0.64752 0.7729 0.0
O208 O 0.20333 0.62431 0.77593 0.0
C209 C 0.20921 0.64373 0.77599 0.0
C210 C 0.14542 0.60037 0.78972 0.0
C211 C 0.22158 0.6553 0.78617 0.0
C212 C 0.22472 0.66674 0.80649 0.0
C213 C 0.21266 0.65525 0.79701 0.0
C214 C 0.25472 0.67821 0.79442 0.0
C215 C 0.24591 0.6784 0.8053 0.0
C216 C 0.24266 0.66677 0.78496 0.0
C217 C 0.16603 0.60398 0.7387 0.0
C218 C 0.18972 0.60566 0.72372 0.0
C219 C 0.15909 0.60553 0.71792 0.0
C220 C 0.15364 0.60458 0.72976 0.0
C221 C 0.17707 0.60585 0.71473 0.0
C222 C 0.18428 0.60478 0.73561 0.0
C223 C 0.15877 0.60122 0.75099 0.0
O224 O 0.15779 0.59368 0.78696 0.0
O225 O 0.14949 0.61705 0.78408 0.0
O226 O 0.15728 0.61624 0.75561 0.0
O227 O 0.16583 0.59298 0.75841 0.0
H228 H 0.12257 0.57605 0.77182 0.0
H229 H 0.08654 0.55056 0.77228 0.0
H230 H 0.08387 0.56435 0.80901 0.0
H231 H 0.11993 0.59004 0.8084 0.0
H232 H 0.21746 0.66635 0.81477 0.0
H233 H 0.19638 0.64638 0.79811 0.0
H234 H 0.27094 0.68719 0.79315 0.0
H235 H 0.2498 0.66702 0.77665 0.0
H236 H 0.20376 0.60608 0.72156 0.0
H237 H 0.14883 0.60533 0.71124 0.0
H238 H 0.13944 0.60383 0.73194 0.0
H239 H 0.19414 0.60439 0.74235 0.0
C240 C 0.89096 0.46936 0.55347 0.0
C241 C 0.90055 0.46698 0.5634 0.0
C242 C 0.93262 0.48194 0.55279 0.0
C243 C 0.92117 0.47319 0.56307 0.0
C244 C 0.9229 0.48432 0.54286 0.0
C245 C 0.90223 0.47806 0.5432 0.0
U246 U 0.84261 0.44802 0.57101 0.0
O247 O 0.81878 0.45625 0.5717 0.0
O248 O 0.81115 0.42548 0.56658 0.0
C249 C 0.80481 0.43858 0.56762 0.0
C250 C 0.86929 0.4629 0.55389 0.0
C251 C 0.79281 0.43931 0.55767 0.0
C252 C 0.79002 0.44733 0.53723 0.0
C253 C 0.80171 0.44679 0.54661 0.0
C254 C 0.76046 0.43292 0.54989 0.0
C255 C 0.76923 0.44041 0.53876 0.0
C256 C 0.77215 0.43238 0.55924 0.0
C257 C 0.84775 0.43594 0.60366 0.0
C258 C 0.82355 0.42818 0.61956 0.0
C259 C 0.85399 0.42638 0.62295 0.0
C260 C 0.85983 0.432 0.61127 0.0
C261 C 0.83585 0.42452 0.6273 0.0
C262 C 0.82946 0.43383 0.60781 0.0
C263 C 0.85518 0.44299 0.59164 0.0
O264 O 0.85711 0.44338 0.55547 0.0
O265 O 0.86469 0.47411 0.56058 0.0
O266 O 0.85611 0.45998 0.58838 0.0
O267 O 0.84835 0.42911 0.58334 0.0
H268 H 0.89208 0.46038 0.57144 0.0
H269 H 0.92821 0.47141 0.57093 0.0
H270 H 0.93121 0.4908 0.53477 0.0
H271 H 0.89504 0.47998 0.53545 0.0
H272 H 0.79732 0.4534 0.52884 0.0
H273 H 0.81768 0.45224 0.54525 0.0
H274 H 0.74446 0.42718 0.55134 0.0
H275 H 0.76502 0.42648 0.56771 0.0
H276 H 0.80942 0.42673 0.6226 0.0
H277 H 0.86404 0.42409 0.62868 0.0
H278 H 0.87406 0.43366 0.60822 0.0
H279 H 0.81992 0.43679 0.60203 0.0
C280 C 0.42752 0.88818 0.88661 0.0
C281 C 0.4395 0.89779 0.89653 0.0
C282 C 0.45612 0.93 0.88604 0.0
C283 C 0.45368 0.91848 0.89625 0.0
C284 C 0.44408 0.92023 0.87609 0.0
C285 C 0.42989 0.89949 0.87639 0.0
U286 U 0.40072 0.83987 0.90418 0.0
O287 O 0.36874 0.81587 0.90487 0.0
O288 O 0.39206 0.80843 0.89983 0.0
C289 C 0.37259 0.80195 0.90087 0.0
C290 C 0.41242 0.86647 0.88702 0.0
C291 C 0.3599 0.78973 0.89096 0.0
C292 C 0.34826 0.78668 0.87069 0.0
C293 C 0.36048 0.79859 0.88001 0.0
C294 C 0.33484 0.75695 0.88319 0.0
C295 C 0.3353 0.76568 0.87217 0.0
C296 C 0.34703 0.76888 0.89249 0.0
C297 C 0.41783 0.84529 0.93686 0.0
C298 C 0.40141 0.82116 0.9528 0.0
C299 C 0.43364 0.85161 0.95614 0.0
C300 C 0.43385 0.85741 0.94444 0.0
C301 C 0.41738 0.83349 0.96052 0.0
C302 C 0.40165 0.82701 0.94104 0.0
C303 C 0.41819 0.85265 0.92482 0.0
O304 O 0.41988 0.8544 0.88865 0.0
O305 O 0.39654 0.86177 0.89365 0.0
O306 O 0.40208 0.85342 0.92151 0.0
O307 O 0.42537 0.84587 0.91656 0.0
H308 H 0.43788 0.88926 0.90451 0.0
H309 H 0.46287 0.92541 0.904 0.0
H310 H 0.44539 0.92868 0.86814 0.0
H311 H 0.42069 0.89232 0.86867 0.0
H312 H 0.34916 0.79386 0.8623 0.0
H313 H 0.3704 0.8147 0.87867 0.0
H314 H 0.32486 0.74091 0.88469 0.0
H315 H 0.34636 0.7618 0.90089 0.0
H316 H 0.38874 0.80704 0.95585 0.0
H317 H 0.44599 0.86168 0.96185 0.0
H318 H 0.4464 0.87162 0.94137 0.0
H319 H 0.38915 0.81745 0.93527 0.0
C320 C 0.54521 0.42544 0.21871 0.0
C321 C 0.54701 0.43719 0.22865 0.0
C322 C 0.53249 0.4544 0.21771 0.0
C323 C 0.54076 0.45157 0.22815 0.0
C324 C 0.53069 0.44253 0.20777 0.0
C325 C 0.53703 0.42819 0.20827 0.0
U326 U 0.5626 0.39568 0.23703 0.0
O327 O 0.55394 0.36352 0.23675 0.0
O328 O 0.58561 0.38685 0.23378 0.0
C329 C 0.5722 0.3674 0.23378 0.0
C330 C 0.55147 0.41009 0.21932 0.0
C331 C 0.5732 0.35578 0.2237 0.0
C332 C 0.56612 0.34507 0.20321 0.0
C333 C 0.56546 0.35664 0.21262 0.0
C334 C 0.58248 0.33188 0.21585 0.0
C335 C 0.57459 0.3325 0.20472 0.0
C336 C 0.58177 0.3434 0.22524 0.0
C337 C 0.56762 0.40744 0.27055 0.0
C338 C 0.58831 0.40381 0.28564 0.0
C339 C 0.55961 0.40737 0.2913 0.0
C340 C 0.5554 0.40851 0.27943 0.0
C341 C 0.5762 0.40518 0.29457 0.0
C342 C 0.58401 0.40487 0.27371 0.0
C343 C 0.56333 0.41004 0.2582 0.0
O344 O 0.57051 0.417 0.22223 0.0
O345 O 0.5389 0.39345 0.22501 0.0
O346 O 0.54699 0.39488 0.25355 0.0
O347 O 0.5788 0.41825 0.2509 0.0
H348 H 0.55315 0.43515 0.23682 0.0
H349 H 0.54209 0.46022 0.23602 0.0
H350 H 0.52457 0.44448 0.19957 0.0
H351 H 0.5355 0.41921 0.20052 0.0
H352 H 0.56014 0.34609 0.19474 0.0
H353 H 0.55886 0.36619 0.21127 0.0
H354 H 0.58887 0.32219 0.21737 0.0
H355 H 0.58777 0.34252 0.23375 0.0
H356 H 0.60109 0.40195 0.28787 0.0
H357 H 0.55017 0.40881 0.29792 0.0
H358 H 0.54276 0.41061 0.27717 0.0
H359 H 0.59363 0.40393 0.267 0.0
C360 C 0.12429 0.5414 0.55339 0.0
C361 C 0.1149 0.54419 0.56328 0.0
C362 C 0.08258 0.52865 0.5529 0.0
C363 C 0.09425 0.5379 0.56304 0.0
C364 C 0.09215 0.52599 0.54299 0.0
C365 C 0.11283 0.5323 0.54324 0.0
U366 U 0.17301 0.56212 0.57064 0.0
O367 O 0.1965 0.55339 0.57093 0.0
O368 O 0.20446 0.58433 0.56598 0.0
C369 C 0.21058 0.57103 0.56689 0.0
C370 C 0.14592 0.54767 0.55372 0.0
C371 C 0.22247 0.5703 0.55687 0.0
C372 C 0.22545 0.56347 0.53624 0.0
C373 C 0.21378 0.56391 0.54566 0.0
C374 C 0.25454 0.57576 0.54917 0.0
C375 C 0.24601 0.56945 0.53787 0.0
C376 C 0.24287 0.57618 0.55857 0.0
C377 C 0.1699 0.5746 0.60353 0.0
C378 C 0.18441 0.57109 0.6219 0.0
C379 C 0.17248 0.5951 0.6206 0.0
C380 C 0.16699 0.58957 0.60884 0.0
C381 C 0.18091 0.58565 0.62734 0.0
C382 C 0.179 0.56563 0.6101 0.0
C383 C 0.16165 0.56748 0.59157 0.0
O384 O 0.15828 0.56715 0.55536 0.0
O385 O 0.15043 0.53625 0.56028 0.0
O386 O 0.15984 0.5502 0.58808 0.0
O387 O 0.16807 0.58129 0.58322 0.0
H388 H 0.12355 0.55121 0.5712 0.0
H389 H 0.08748 0.54046 0.57077 0.0
H390 H 0.08358 0.5187 0.5351 0.0
H391 H 0.11983 0.52995 0.53555 0.0
H392 H 0.21845 0.55874 0.52764 0.0
H393 H 0.19803 0.55935 0.5442 0.0
H394 H 0.2702 0.58017 0.5508 0.0
H395 H 0.24979 0.58109 0.56718 0.0
H396 H 0.19108 0.5637 0.62682 0.0
H397 H 0.16932 0.60616 0.62454 0.0
H398 H 0.15985 0.59658 0.60399 0.0
H399 H 0.18148 0.55406 0.60624 0.0
C400 C 0.58824 0.12169 0.88653 0.0
C401 C 0.5761 0.11221 0.89642 0.0
C402 C 0.55917 0.08003 0.88591 0.0
C403 C 0.56169 0.09158 0.89612 0.0
C404 C 0.57144 0.08965 0.87602 0.0
C405 C 0.58584 0.11032 0.87633 0.0
U406 U 0.61562 0.17045 0.9038 0.0
O407 O 0.64775 0.19415 0.90424 0.0
O408 O 0.62466 0.20183 0.8991 0.0
C409 C 0.64409 0.20811 0.90011 0.0
C410 C 0.60351 0.14335 0.88689 0.0
C411 C 0.65679 0.22005 0.89013 0.0
C412 C 0.66585 0.22354 0.86935 0.0
C413 C 0.65375 0.21178 0.87875 0.0
C414 C 0.68418 0.25186 0.88264 0.0
C415 C 0.68118 0.24376 0.87117 0.0
C416 C 0.67209 0.2401 0.89201 0.0
C417 C 0.5992 0.16712 0.93652 0.0
C418 C 0.61715 0.1831 0.95468 0.0
C419 C 0.58075 0.16837 0.95369 0.0
C420 C 0.58097 0.16283 0.94197 0.0
C421 C 0.59878 0.17824 0.96027 0.0
C422 C 0.61738 0.17764 0.94291 0.0
C423 C 0.59845 0.15894 0.9246 0.0
O424 O 0.59625 0.15563 0.88839 0.0
O425 O 0.61931 0.14796 0.89358 0.0
O426 O 0.61412 0.15735 0.92129 0.0
O427 O 0.59116 0.16528 0.91615 0.0
H428 H 0.57784 0.12077 0.9044 0.0
H429 H 0.55272 0.08462 0.90394 0.0
H430 H 0.56974 0.08126 0.86799 0.0
H431 H 0.5951 0.11741 0.86862 0.0
H432 H 0.66297 0.21688 0.86062 0.0
H433 H 0.64196 0.1963 0.87714 0.0
H434 H 0.69602 0.26724 0.88441 0.0
H435 H 0.67469 0.2467 0.90076 0.0
H436 H 0.63132 0.19089 0.95947 0.0
H437 H 0.56631 0.16414 0.95775 0.0
H438 H 0.56676 0.15461 0.93725 0.0
H439 H 0.63169 0.18121 0.93891 0.0
C440 C 0.4703 0.5845 0.21851 0.0
C441 C 0.46778 0.5723 0.22835 0.0
C442 C 0.48344 0.55584 0.21777 0.0
C443 C 0.47423 0.55808 0.22798 0.0
C444 C 0.48579 0.56805 0.20789 0.0
C445 C 0.47928 0.58226 0.20827 0.0
U446 U 0.45315 0.61449 0.23676 0.0
O447 O 0.46225 0.64678 0.23655 0.0
O448 O 0.4305 0.62378 0.23348 0.0
C449 C 0.44409 0.64317 0.23355 0.0
C450 C 0.46417 0.59996 0.21907 0.0
C451 C 0.4434 0.655 0.22349 0.0
C452 C 0.44865 0.66408 0.20271 0.0
C453 C 0.449 0.65236 0.21212 0.0
C454 C 0.437 0.68109 0.21593 0.0
C455 C 0.44273 0.67868 0.20451 0.0
C456 C 0.43735 0.66936 0.22532 0.0
C457 C 0.44789 0.60255 0.27027 0.0
C458 C 0.42746 0.60656 0.28537 0.0
C459 C 0.45582 0.60241 0.291 0.0
C460 C 0.45997 0.60122 0.27913 0.0
C461 C 0.43943 0.60493 0.29429 0.0
C462 C 0.43169 0.60544 0.27344 0.0
C463 C 0.45213 0.59993 0.25791 0.0
O464 O 0.44514 0.5932 0.22194 0.0
O465 O 0.4768 0.61655 0.22477 0.0
O466 O 0.46858 0.61498 0.25328 0.0
O467 O 0.43667 0.59194 0.2506 0.0
H468 H 0.4609 0.57387 0.23636 0.0
H469 H 0.47189 0.54876 0.23569 0.0
H470 H 0.49305 0.56692 0.19994 0.0
H471 H 0.48146 0.59166 0.20061 0.0
H472 H 0.45337 0.66197 0.19406 0.0
H473 H 0.45378 0.64135 0.21057 0.0
H474 H 0.43207 0.69194 0.21761 0.0
H475 H 0.43292 0.67155 0.23404 0.0
H476 H 0.41484 0.60868 0.28761 0.0
H477 H 0.46515 0.60077 0.29763 0.0
H478 H 0.47245 0.59887 0.27687 0.0
H479 H 0.42219 0.60659 0.26674 0.0
H480 H 0.60533 0.32558 0.19844 0.0
H481 H 0.54471 0.31069 0.1886 0.0
H482 H 0.60552 0.30395 0.18264 0.0
H483 H 0.54516 0.2896 0.17255 0.0
H484 H 0.54456 0.23628 0.15359 0.0
H485 H 0.54462 0.25763 0.16963 0.0
H486 H 0.60634 0.30239 0.16119 0.0
H487 H 0.6065 0.28074 0.14539 0.0
C488 C 0.59204 0.3177 0.1929 0.0
C489 C 0.57498 0.31985 0.19481 0.0
C490 C 0.59223 0.30546 0.18377 0.0
C491 C 0.57535 0.295 0.17633 0.0
C492 C 0.55834 0.29724 0.1782 0.0
C493 C 0.55817 0.30954 0.18731 0.0
C494 C 0.55823 0.25057 0.15524 0.0
C495 C 0.57553 0.25677 0.1482 0.0
C496 C 0.55818 0.26293 0.16435 0.0
C497 C 0.57546 0.28178 0.16668 0.0
C498 C 0.59283 0.2879 0.15971 0.0
C499 C 0.59285 0.27558 0.15057 0.0
H500 H 0.29279 0.5568 0.47 0.0
H501 H 0.34391 0.57891 0.49366 0.0
H502 H 0.27181 0.55723 0.4861 0.0
H503 H 0.32273 0.57861 0.50986 0.0
H504 H 0.28525 0.59757 0.53252 0.0
H505 H 0.30604 0.5969 0.5164 0.0
H506 H 0.25607 0.54002 0.50442 0.0
H507 H 0.23525 0.54069 0.52056 0.0
C508 C 0.29957 0.56174 0.47864 0.0
C509 C 0.32009 0.56789 0.48051 0.0
C510 C 0.28746 0.56177 0.48791 0.0
C511 C 0.29556 0.56797 0.49929 0.0
C512 C 0.31604 0.57396 0.50118 0.0
C513 C 0.32814 0.57391 0.49192 0.0
C514 C 0.27873 0.58482 0.52651 0.0
C515 C 0.25857 0.56915 0.52788 0.0
C516 C 0.29067 0.58443 0.51727 0.0
C517 C 0.28278 0.56837 0.50912 0.0
C518 C 0.26257 0.55276 0.51043 0.0
C519 C 0.25061 0.55315 0.51969 0.0
H520 H 0.69735 0.23259 0.85301 0.0
H521 H 0.69396 0.2837 0.86669 0.0
H522 H 0.71861 0.25354 0.83683 0.0
H523 H 0.7152 0.30461 0.85054 0.0
H524 H 0.7705 0.34144 0.82715 0.0
H525 H 0.74976 0.32015 0.84336 0.0
H526 H 0.71714 0.27059 0.81906 0.0
H527 H 0.73839 0.29164 0.80293 0.0
C528 C 0.70098 0.24824 0.85251 0.0
C529 C 0.69396 0.25644 0.86119 0.0
C530 C 0.71319 0.26026 0.84323 0.0
C531 C 0.71868 0.2808 0.84239 0.0
C532 C 0.71158 0.28897 0.85103 0.0
C533 C 0.69938 0.27695 0.8603 0.0
C534 C 0.75906 0.32593 0.82528 0.0
C535 C 0.75613 0.31828 0.81372 0.0
C536 C 0.747 0.31378 0.83456 0.0
C537 C 0.73171 0.29365 0.83253 0.0
C538 C 0.72889 0.28595 0.82098 0.0
C539 C 0.74092 0.29811 0.8117 0.0
H540 H 0.45513 0.71917 0.20478 0.0
H541 H 0.43018 0.66713 0.18171 0.0
H542 H 0.45475 0.74004 0.18861 0.0
H543 H 0.42979 0.68802 0.16552 0.0
H544 H 0.45196 0.73628 0.13644 0.0
H545 H 0.45248 0.71544 0.1526 0.0
H546 H 0.43133 0.74499 0.17653 0.0
H547 H 0.43083 0.76585 0.16036 0.0
C548 C 0.44939 0.71212 0.19629 0.0
C549 C 0.44265 0.69143 0.19457 0.0
C550 C 0.44917 0.7241 0.187 0.0
C551 C 0.44221 0.71572 0.17575 0.0
C552 C 0.43553 0.69505 0.17402 0.0
C553 C 0.43575 0.68306 0.18331 0.0
C554 C 0.44725 0.73823 0.14513 0.0
C555 C 0.44133 0.75275 0.14708 0.0
C556 C 0.44754 0.72626 0.1544 0.0
C557 C 0.44193 0.7285 0.16587 0.0
C558 C 0.43605 0.74306 0.16784 0.0
C559 C 0.43576 0.75504 0.15857 0.0
H560 H 0.73962 0.4508 0.53945 0.0
H561 H 0.77038 0.43105 0.51551 0.0
H562 H 0.71838 0.45055 0.5233 0.0
H563 H 0.74965 0.43155 0.49927 0.0
H564 H 0.69369 0.41253 0.47616 0.0
H565 H 0.71495 0.41293 0.49232 0.0
H566 H 0.71994 0.46853 0.50529 0.0
H567 H 0.69867 0.46814 0.4891 0.0
C568 C 0.74186 0.4464 0.53074 0.0
C569 C 0.75669 0.44087 0.5288 0.0
C570 C 0.72983 0.44649 0.52145 0.0
C571 C 0.73227 0.44102 0.50997 0.0
C572 C 0.74719 0.43562 0.50802 0.0
C573 C 0.75925 0.43557 0.51731 0.0
C574 C 0.69946 0.42495 0.48239 0.0
C575 C 0.69449 0.44033 0.48129 0.0
C576 C 0.71167 0.42518 0.49167 0.0
C577 C 0.71923 0.4408 0.50011 0.0
C578 C 0.71417 0.45613 0.49905 0.0
C579 C 0.70195 0.4559 0.48976 0.0
H580 H 0.23868 0.70178 0.82072 0.0
H581 H 0.28243 0.68336 0.81249 0.0
H582 H 0.26006 0.72256 0.83692 0.0
H583 H 0.30411 0.70465 0.82841 0.0
H584 H 0.32739 0.7278 0.86566 0.0
H585 H 0.30546 0.70652 0.84982 0.0
H586 H 0.29229 0.75355 0.84019 0.0
H587 H 0.31368 0.77458 0.8563 0.0
C588 C 0.25282 0.7021 0.82239 0.0
C589 C 0.25882 0.69088 0.81529 0.0
C590 C 0.2652 0.71421 0.83159 0.0
C591 C 0.28385 0.71534 0.83396 0.0
C592 C 0.28977 0.704 0.82691 0.0
C593 C 0.27743 0.69195 0.8177 0.0
C594 C 0.31968 0.73355 0.86023 0.0
C595 C 0.32228 0.7529 0.86229 0.0
C596 C 0.30727 0.72142 0.85106 0.0
C597 C 0.29709 0.7283 0.84371 0.0
C598 C 0.29972 0.74767 0.84575 0.0
C599 C 0.31218 0.75984 0.85491 0.0
H600 H 0.47972 0.95209 0.10676 0.0
H601 H 0.50667 0.95724 0.14105 0.0
H602 H 0.49107 0.98806 0.10704 0.0
H603 H 0.51696 0.99305 0.14164 0.0
H604 H 0.55141 0.06098 0.13311 0.0
H605 H 0.54038 0.02491 0.13313 0.0
H606 H 0.48452 0.01221 0.1161 0.0
H607 H 0.49582 0.04827 0.11585 0.0
C608 C 0.48807 0.96087 0.11437 0.0
C609 C 0.49234 0.95169 0.12386 0.0
C610 C 0.49433 0.98151 0.11461 0.0
C611 C 0.5049 0.99354 0.12438 0.0
C612 C 0.50907 0.98435 0.1339 0.0
C613 C 0.50291 0.96371 0.13364 0.0
C614 C 0.53672 0.05043 0.12945 0.0
C615 C 0.52452 0.05747 0.12444 0.0
C616 C 0.53036 0.02974 0.12948 0.0
C617 C 0.51156 0.01557 0.12458 0.0
C618 C 0.49926 0.02266 0.11973 0.0
C619 C 0.50569 0.04334 0.11962 0.0
H620 H 0.56484 0.51828 0.46347 0.0
H621 H 0.51961 0.46019 0.44977 0.0
H622 H 0.53988 0.52942 0.46377 0.0
H623 H 0.49482 0.47153 0.44975 0.0
H624 H 0.45065 0.49129 0.46323 0.0
H625 H 0.47561 0.48017 0.46362 0.0
H626 H 0.52085 0.5382 0.44984 0.0
H627 H 0.49605 0.54953 0.44978 0.0
C628 C 0.54955 0.50786 0.46057 0.0
C629 C 0.54422 0.48833 0.45661 0.0
C630 C 0.53531 0.51432 0.46062 0.0
C631 C 0.51536 0.50137 0.45677 0.0
C632 C 0.51 0.48181 0.45288 0.0
C633 C 0.52427 0.47538 0.45277 0.0
C634 C 0.46597 0.50175 0.4604 0.0
C635 C 0.47135 0.52131 0.45648 0.0
C636 C 0.48022 0.4953 0.4605 0.0
C637 C 0.50023 0.50828 0.45675 0.0
C638 C 0.50563 0.52789 0.4529 0.0
C639 C 0.49136 0.5343 0.45275 0.0
H640 H 0.95477 0.47615 0.80849 0.0
H641 H 0.96015 0.46176 0.77227 0.0
H642 H 0.99097 0.5005 0.80896 0.0
H643 H 0.99612 0.48671 0.77259 0.0
H644 H 0.06358 0.51748 0.78088 0.0
H645 H 0.0276 0.4924 0.78095 0.0
H646 H 0.01538 0.53324 0.80107 0.0
H647 H 0.0514 0.55827 0.80106 0.0
C648 C 0.96367 0.47814 0.80063 0.0
C649 C 0.95451 0.46697 0.79034 0.0
C650 C 0.9844 0.49229 0.80086 0.0
C651 C 0.99649 0.49562 0.79081 0.0
C652 C 0.98733 0.4844 0.78053 0.0
C653 C 0.96663 0.47025 0.78031 0.0
C654 C 0.0532 0.52115 0.78526 0.0
C655 C 0.06038 0.53991 0.79095 0.0
C656 C 0.03255 0.50678 0.78529 0.0
C657 C 0.01854 0.51079 0.79099 0.0
C658 C 0.02575 0.5295 0.79675 0.0
C659 C 0.04642 0.54387 0.79674 0.0
H660 H 0.05487 0.50988 0.57059 0.0
H661 H 0.06028 0.53164 0.53483 0.0
H662 H 0.01891 0.49895 0.57045 0.0
H663 H 0.0241 0.51994 0.53452 0.0
H664 H 0.96352 0.51659 0.54309 0.0
H665 H 0.9996 0.52777 0.54298 0.0
H666 H 0.98752 0.47349 0.5617 0.0
H667 H 0.9515 0.46236 0.56183 0.0
C668 C 0.04841 0.51237 0.56269 0.0
C669 C 0.06052 0.5217 0.55273 0.0
C670 C 0.02771 0.50586 0.56257 0.0
C671 C 0.01856 0.5085 0.55246 0.0
C672 C 0.03067 0.51784 0.54249 0.0
C673 C 0.05138 0.52434 0.54262 0.0
C674 C 0.96854 0.50695 0.54708 0.0
C675 C 0.9546 0.4886 0.55249 0.0
C676 C 0.98924 0.51336 0.54702 0.0
C677 C 0.9965 0.50156 0.55236 0.0
C678 C 0.98252 0.48313 0.55768 0.0
C679 C 0.96185 0.47674 0.55776 0.0
H680 H 0.46451 0.95783 0.90357 0.0
H681 H 0.48163 0.95226 0.86803 0.0
H682 H 0.48946 0.99382 0.90343 0.0
H683 H 0.50604 0.98847 0.86771 0.0
H684 H 0.5631 0.04904 0.8765 0.0
H685 H 0.53818 0.01297 0.87637 0.0
H686 H 0.49562 0.0252 0.89454 0.0
H687 H 0.52055 0.06123 0.8947 0.0
C688 C 0.4736 0.96427 0.89572 0.0
C689 C 0.47108 0.9521 0.88582 0.0
C690 C 0.48775 0.98498 0.89559 0.0
C691 C 0.49975 0.99409 0.88555 0.0
C692 C 0.4972 0.98193 0.87564 0.0
C693 C 0.48303 0.9612 0.87577 0.0
C694 C 0.54835 0.04405 0.88037 0.0
C695 C 0.54385 0.05804 0.88563 0.0
C696 C 0.53405 0.02336 0.88029 0.0
C697 C 0.51489 0.01615 0.88546 0.0
C698 C 0.51034 0.03017 0.89065 0.0
C699 C 0.52464 0.05084 0.89074 0.0
H700 H 0.48104 0.53093 0.19959 0.0
H701 H 0.5026 0.54727 0.23538 0.0
H702 H 0.49345 0.507 0.19919 0.0
H703 H 0.51416 0.52274 0.23517 0.0
H704 H 0.55148 0.49278 0.22682 0.0
H705 H 0.53991 0.51735 0.22656 0.0
H706 H 0.4863 0.47485 0.20744 0.0
H707 H 0.49799 0.45033 0.20763 0.0
C708 C 0.48844 0.52945 0.20737 0.0
C709 C 0.49081 0.54105 0.21752 0.0
C710 C 0.49535 0.51554 0.20719 0.0
C711 C 0.50481 0.51291 0.21715 0.0
C712 C 0.50717 0.52453 0.22729 0.0
C713 C 0.50029 0.53842 0.22746 0.0
C714 C 0.53717 0.48864 0.22261 0.0
C715 C 0.52564 0.46957 0.21727 0.0
C716 C 0.53052 0.50272 0.22247 0.0
C717 C 0.51212 0.49807 0.21702 0.0
C718 C 0.50068 0.47906 0.21157 0.0
C719 C 0.50737 0.46499 0.21169 0.0
H720 H 0.57649 0.19257 0.97135 0.0
H721 H 0.61922 0.17229 0.97821 0.0
H722 H 0.57242 0.19511 0.99253 0.0
H723 H 0.61507 0.17466 0.99934 0.0
H724 H 0.61254 0.19135 0.03716 0.0
H725 H 0.62024 0.1964 0.0161 0.0
H726 H 0.55663 0.17129 0.00843 0.0
H727 H 0.54907 0.16702 0.02944 0.0
C728 C 0.58509 0.18876 0.97738 0.0
C729 C 0.59808 0.1821 0.97308 0.0
C730 C 0.58275 0.19018 0.98952 0.0
C731 C 0.59329 0.18494 0.99766 0.0
C732 C 0.60691 0.17908 0.99334 0.0
C733 C 0.60929 0.17771 0.98121 0.0
C734 C 0.60026 0.18733 0.03098 0.0
C735 C 0.58017 0.17864 0.03498 0.0
C736 C 0.60465 0.19001 0.0189 0.0
C737 C 0.58905 0.18412 0.01054 0.0
C738 C 0.56906 0.17618 0.01459 0.0
C739 C 0.56469 0.1735 0.02665 0.0
H740 H 0.46578 0.62407 0.31246 0.0
H741 H 0.40212 0.58589 0.3049 0.0
H742 H 0.45839 0.62103 0.33348 0.0
H743 H 0.39459 0.58346 0.32598 0.0
H744 H 0.39555 0.56035 0.36392 0.0
H745 H 0.39954 0.56671 0.34276 0.0
H746 H 0.44303 0.62962 0.34937 0.0
H747 H 0.43911 0.62319 0.37057 0.0
C748 C 0.45016 0.6152 0.31529 0.0
C749 C 0.43457 0.60506 0.30699 0.0
C750 C 0.44589 0.61365 0.32735 0.0
C751 C 0.42589 0.60193 0.33145 0.0
C752 C 0.41019 0.59241 0.32313 0.0
C753 C 0.41448 0.59398 0.31104 0.0
C754 C 0.40563 0.57563 0.36087 0.0
C755 C 0.41712 0.59123 0.36894 0.0
C756 C 0.40792 0.5793 0.34872 0.0
C757 C 0.42173 0.59865 0.34434 0.0
C758 C 0.43255 0.61445 0.35243 0.0
C759 C 0.43029 0.61077 0.36458 0.0
H760 H 0.84017 0.44533 0.70157 0.0
H761 H 0.81949 0.38127 0.70034 0.0
H762 H 0.83638 0.44567 0.6803 0.0
H763 H 0.81462 0.38136 0.67908 0.0
H764 H 0.8402 0.39744 0.6411 0.0
H765 H 0.83637 0.3933 0.66236 0.0
H766 H 0.81466 0.4359 0.66358 0.0
H767 H 0.81958 0.44087 0.64232 0.0
C768 C 0.83455 0.43124 0.69677 0.0
C769 C 0.83046 0.41334 0.70266 0.0
C770 C 0.83209 0.43137 0.68457 0.0
C771 C 0.82534 0.41357 0.67791 0.0
C772 C 0.82018 0.39543 0.68388 0.0
C773 C 0.82274 0.39532 0.69611 0.0
C774 C 0.83458 0.40592 0.64589 0.0
C775 C 0.83052 0.41974 0.64 0.0
C776 C 0.8321 0.40333 0.6581 0.0
C777 C 0.82535 0.41438 0.66475 0.0
C778 C 0.82022 0.42739 0.65877 0.0
C779 C 0.8228 0.43006 0.64655 0.0
H780 H 0.40135 0.83823 0.0348 0.0
H781 H 0.44438 0.81712 0.03352 0.0
H782 H 0.39711 0.83437 0.01354 0.0
H783 H 0.43933 0.81221 0.01226 0.0
H784 H 0.44882 0.8378 0.97427 0.0
H785 H 0.4492 0.83402 0.99554 0.0
H786 H 0.38496 0.81251 0.99684 0.0
H787 H 0.38483 0.81736 0.97558 0.0
C788 C 0.40972 0.8325 0.02999 0.0
C789 C 0.42346 0.8283 0.03586 0.0
C790 C 0.40707 0.83001 0.01779 0.0
C791 C 0.41799 0.82312 0.01112 0.0
C792 C 0.43091 0.81787 0.01708 0.0
C793 C 0.43363 0.82045 0.0293 0.0
C794 C 0.43475 0.83223 0.97908 0.0
C795 C 0.41686 0.8282 0.97322 0.0
C796 C 0.4349 0.82978 0.99129 0.0
C797 C 0.41714 0.8231 0.99797 0.0
C798 C 0.399 0.81801 0.99202 0.0
C799 C 0.39887 0.82055 0.97979 0.0
H800 H 0.5772 0.38693 0.37083 0.0
H801 H 0.61999 0.45001 0.3642 0.0
H802 H 0.57321 0.38057 0.34962 0.0
H803 H 0.61592 0.44372 0.34304 0.0
H804 H 0.61353 0.42473 0.30514 0.0
H805 H 0.62114 0.42725 0.32621 0.0
H806 H 0.55748 0.38887 0.33379 0.0
H807 H 0.55001 0.38575 0.31277 0.0
C808 C 0.58584 0.39941 0.36484 0.0
C809 C 0.59881 0.419 0.36921 0.0
C810 C 0.58353 0.39578 0.35269 0.0
C811 C 0.59411 0.41166 0.34461 0.0
C812 C 0.60772 0.43107 0.34899 0.0
C813 C 0.61006 0.43469 0.36114 0.0
C814 C 0.60122 0.41649 0.3113 0.0
C815 C 0.58114 0.40516 0.30727 0.0
C816 C 0.60556 0.41811 0.32338 0.0
C817 C 0.58992 0.40838 0.33172 0.0
C818 C 0.56994 0.39642 0.32764 0.0
C819 C 0.56561 0.39482 0.31558 0.0
H820 H 0.1729 0.62694 0.69644 0.0
H821 H 0.19197 0.58355 0.70429 0.0
H822 H 0.17683 0.62312 0.67545 0.0
H823 H 0.19671 0.58032 0.68326 0.0
H824 H 0.17225 0.55864 0.64533 0.0
H825 H 0.17471 0.56519 0.66645 0.0
H826 H 0.20028 0.62914 0.65961 0.0
H827 H 0.19765 0.62251 0.63843 0.0
C828 C 0.17816 0.61674 0.69369 0.0
C829 C 0.18192 0.6054 0.70205 0.0
C830 C 0.18065 0.61473 0.68164 0.0
C831 C 0.187 0.60133 0.67763 0.0
C832 C 0.19154 0.59058 0.68603 0.0
C833 C 0.18905 0.5926 0.69809 0.0
C834 C 0.1788 0.57415 0.64832 0.0
C835 C 0.18464 0.59003 0.64018 0.0
C836 C 0.18022 0.57792 0.66046 0.0
C837 C 0.18758 0.59769 0.66476 0.0
C838 C 0.19419 0.61369 0.65661 0.0
C839 C 0.19272 0.6099 0.64447 0.0
loop_
_geom_bond_atom_site_label_1
_geom_bond_atom_site_label_2
_geom_bond_distance
_geom_bond_site_symmetry_2
_ccdc_geom_bond_type
C0 C1 1.264 . S
C0 C5 1.479 . S
C0 C10 1.465 . S
C1 C0 1.264 . S
C1 C3 1.339 . S
C1 H28 0.931 . S
C2 C3 1.395 . S
C2 C4 1.320 . S
C3 C1 1.339 . S
C3 C2 1.395 . S
C3 H29 0.929 . S
C4 C2 1.320 . S
C4 C5 1.405 . S
C4 H30 0.930 . S
C5 C0 1.479 . S
C5 C4 1.405 . S
C5 H31 0.931 . S
U6 O7 2.454 . S
U6 O8 2.458 . S
U6 C9 2.984 . S
U6 C10 2.847 . S
U6 C23 2.882 . S
U6 O24 2.441 . S
U6 O25 2.420 . S
U6 O26 2.455 . S
U6 O27 2.449 . S
O7 U6 2.454 . S
O7 C9 1.353 . S
O8 U6 2.458 . S
O8 C9 1.286 . S
C9 U6 2.984 . S
C9 O7 1.353 . S
C9 O8 1.286 . S
C9 C11 1.363 . S
C10 C0 1.465 . S
C10 U6 2.847 . S
C10 O24 1.249 . S
C10 O25 1.202 . S
C11 C9 1.363 . S
C11 C13 1.408 . S
C11 C16 1.342 . S
C12 C13 1.310 . S
C12 C15 1.461 . S
C12 H32 0.932 . S
C13 C11 1.408 . S
C13 C12 1.310 . S
C13 H33 0.930 . S
C14 C15 1.474 . S
C14 C16 1.285 . S
C14 H34 0.929 . S
C15 C12 1.461 . S
C15 C14 1.474 . S
C16 C11 1.342 . S
C16 C14 1.285 . S
C16 H35 0.930 . S
C17 C20 1.424 . S
C17 C22 1.245 . S
C17 C23 1.428 . S
C18 C21 1.260 . S
C18 C22 1.477 . S
C18 H36 0.932 . S
C19 C20 1.384 . S
C19 C21 1.479 . S
C19 H37 0.929 . S
C20 C17 1.424 . S
C20 C19 1.384 . S
C20 H38 0.928 . S
C21 C18 1.260 . S
C21 C19 1.479 . S
C22 C17 1.245 . S
C22 C18 1.477 . S
C22 H39 0.932 . S
C23 U6 2.882 . S
C23 C17 1.428 . S
C23 O26 1.301 . S
C23 O27 1.282 . S
O24 U6 2.441 . S
O24 C10 1.249 . S
O25 U6 2.420 . S
O25 C10 1.202 . S
O26 U6 2.455 . S
O26 C23 1.301 . S
O27 U6 2.449 . S
O27 C23 1.282 . S
H28 C1 0.931 . S
H29 C3 0.929 . S
H30 C4 0.930 . S
H31 C5 0.931 . S
H32 C12 0.932 . S
H33 C13 0.930 . S
H34 C14 0.929 . S
H35 C16 0.930 . S
H36 C18 0.932 . S
H37 C19 0.929 . S
H38 C20 0.928 . S
H39 C22 0.932 . S
C40 C41 1.264 . S
C40 C45 1.479 . S
C40 C50 1.465 . S
C41 C40 1.264 . S
C41 C43 1.339 . S
C41 H68 0.931 . S
C42 C43 1.395 . S
C42 C44 1.320 . S
C43 C41 1.339 . S
C43 C42 1.395 . S
C43 H69 0.929 . S
C44 C42 1.320 . S
C44 C45 1.405 . S
C44 H70 0.930 . S
C45 C40 1.479 . S
C45 C44 1.405 . S
C45 H71 0.931 . S
U46 O47 2.454 . S
U46 O48 2.458 . S
U46 C49 2.984 . S
U46 C50 2.847 . S
U46 C63 2.882 . S
U46 O64 2.441 . S
U46 O65 2.420 . S
U46 O66 2.455 . S
U46 O67 2.449 . S
O47 U46 2.454 . S
O47 C49 1.353 . S
O48 U46 2.458 . S
O48 C49 1.286 . S
C49 U46 2.984 . S
C49 O47 1.353 . S
C49 O48 1.286 . S
C49 C51 1.363 . S
C50 C40 1.465 . S
C50 U46 2.847 . S
C50 O64 1.249 . S
C50 O65 1.202 . S
C51 C49 1.363 . S
C51 C53 1.408 . S
C51 C56 1.342 . S
C52 C53 1.310 . S
C52 C55 1.461 . S
C52 H72 0.932 . S
C53 C51 1.408 . S
C53 C52 1.310 . S
C53 H73 0.930 . S
C54 C55 1.474 . S
C54 C56 1.285 . S
C54 H74 0.929 . S
C55 C52 1.461 . S
C55 C54 1.474 . S
C56 C51 1.342 . S
C56 C54 1.285 . S
C56 H75 0.930 . S
C57 C60 1.424 . S
C57 C62 1.245 . S
C57 C63 1.428 . S
C58 C61 1.260 . S
C58 C62 1.477 . S
C58 H76 0.932 . S
C59 C60 1.384 . S
C59 C61 1.479 . S
C59 H77 0.929 . S
C60 C57 1.424 . S
C60 C59 1.384 . S
C60 H78 0.928 . S
C61 C58 1.260 . S
C61 C59 1.479 . S
C62 C57 1.245 . S
C62 C58 1.477 . S
C62 H79 0.932 . S
C63 U46 2.882 . S
C63 C57 1.428 . S
C63 O66 1.301 . S
C63 O67 1.282 . S
O64 U46 2.441 . S
O64 C50 1.249 . S
O65 U46 2.420 . S
O65 C50 1.202 . S
O66 U46 2.455 . S
O66 C63 1.301 . S
O67 U46 2.449 . S
O67 C63 1.282 . S
H68 C41 0.931 . S
H69 C43 0.929 . S
H70 C44 0.930 . S
H71 C45 0.931 . S
H72 C52 0.932 . S
H73 C53 0.930 . S
H74 C54 0.929 . S
H75 C56 0.930 . S
H76 C58 0.932 . S
H77 C59 0.929 . S
H78 C60 0.928 . S
H79 C62 0.932 . S
C80 C81 1.264 . S
C80 C85 1.479 . S
C80 C90 1.465 . S
C81 C80 1.264 . S
C81 C83 1.339 . S
C81 H108 0.931 . S
C82 C83 1.395 . S
C82 C84 1.320 . S
C83 C81 1.339 . S
C83 C82 1.395 . S
C83 H109 0.929 . S
C84 C82 1.320 . S
C84 C85 1.405 . S
C84 H110 0.930 . S
C85 C80 1.479 . S
C85 C84 1.405 . S
C85 H111 0.931 . S
U86 O87 2.454 . S
U86 O88 2.458 . S
U86 C89 2.984 . S
U86 C90 2.847 . S
U86 C103 2.882 . S
U86 O104 2.441 . S
U86 O105 2.420 . S
U86 O106 2.455 . S
U86 O107 2.449 . S
O87 U86 2.454 . S
O87 C89 1.353 . S
O88 U86 2.458 . S
O88 C89 1.286 . S
C89 U86 2.984 . S
C89 O87 1.353 . S
C89 O88 1.286 . S
C89 C91 1.363 . S
C90 C80 1.465 . S
C90 U86 2.847 . S
C90 O104 1.249 . S
C90 O105 1.202 . S
C91 C89 1.363 . S
C91 C93 1.408 . S
C91 C96 1.342 . S
C92 C93 1.310 . S
C92 C95 1.461 . S
C92 H112 0.932 . S
C93 C91 1.408 . S
C93 C92 1.310 . S
C93 H113 0.930 . S
C94 C95 1.474 . S
C94 C96 1.285 . S
C94 H114 0.929 . S
C95 C92 1.461 . S
C95 C94 1.474 . S
C96 C91 1.342 . S
C96 C94 1.285 . S
C96 H115 0.930 . S
C97 C100 1.424 . S
C97 C102 1.245 . S
C97 C103 1.428 . S
C98 C101 1.260 . S
C98 C102 1.477 . S
C98 H116 0.932 . S
C99 C100 1.384 . S
C99 C101 1.479 . S
C99 H117 0.929 . S
C100 C97 1.424 . S
C100 C99 1.384 . S
C100 H118 0.928 . S
C101 C98 1.260 . S
C101 C99 1.479 . S
C102 C97 1.245 . S
C102 C98 1.477 . S
C102 H119 0.932 . S
C103 U86 2.882 . S
C103 C97 1.428 . S
C103 O106 1.301 . S
C103 O107 1.282 . S
O104 U86 2.441 . S
O104 C90 1.249 . S
O105 U86 2.420 . S
O105 C90 1.202 . S
O106 U86 2.455 . S
O106 C103 1.301 . S
O107 U86 2.449 . S
O107 C103 1.282 . S
H108 C81 0.931 . S
H109 C83 0.929 . S
H110 C84 0.930 . S
H111 C85 0.931 . S
H112 C92 0.932 . S
H113 C93 0.930 . S
H114 C94 0.929 . S
H115 C96 0.930 . S
H116 C98 0.932 . S
H117 C99 0.929 . S
H118 C100 0.928 . S
H119 C102 0.932 . S
C120 C121 1.264 . S
C120 C125 1.479 . S
C120 C130 1.465 . S
C121 C120 1.264 . S
C121 C123 1.339 . S
C121 H148 0.931 . S
C122 C123 1.395 . S
C122 C124 1.320 . S
C123 C121 1.339 . S
C123 C122 1.395 . S
C123 H149 0.929 . S
C124 C122 1.320 . S
C124 C125 1.405 . S
C124 H150 0.930 . S
C125 C120 1.479 . S
C125 C124 1.405 . S
C125 H151 0.931 . S
U126 O127 2.454 . S
U126 O128 2.458 . S
U126 C129 2.984 . S
U126 C130 2.847 . S
U126 C143 2.882 . S
U126 O144 2.441 . S
U126 O145 2.420 . S
U126 O146 2.455 . S
U126 O147 2.449 . S
O127 U126 2.454 . S
O127 C129 1.353 . S
O128 U126 2.458 . S
O128 C129 1.286 . S
C129 U126 2.984 . S
C129 O127 1.353 . S
C129 O128 1.286 . S
C129 C131 1.363 . S
C130 C120 1.465 . S
C130 U126 2.847 . S
C130 O144 1.249 . S
C130 O145 1.202 . S
C131 C129 1.363 . S
C131 C133 1.408 . S
C131 C136 1.342 . S
C132 C133 1.310 . S
C132 C135 1.461 . S
C132 H152 0.932 . S
C133 C131 1.408 . S
C133 C132 1.310 . S
C133 H153 0.930 . S
C134 C135 1.474 . S
C134 C136 1.285 . S
C134 H154 0.929 . S
C135 C132 1.461 . S
C135 C134 1.474 . S
C136 C131 1.342 . S
C136 C134 1.285 . S
C136 H155 0.930 . S
C137 C140 1.424 . S
C137 C142 1.245 . S
C137 C143 1.428 . S
C138 C141 1.260 . S
C138 C142 1.477 . S
C138 H156 0.932 . S
C139 C140 1.384 . S
C139 C141 1.479 . S
C139 H157 0.929 . S
C140 C137 1.424 . S
C140 C139 1.384 . S
C140 H158 0.928 . S
C141 C138 1.260 . S
C141 C139 1.479 . S
C142 C137 1.245 . S
C142 C138 1.477 . S
C142 H159 0.932 . S
C143 U126 2.882 . S
C143 C137 1.428 . S
C143 O146 1.301 . S
C143 O147 1.282 . S
O144 U126 2.441 . S
O144 C130 1.249 . S
O145 U126 2.420 . S
O145 C130 1.202 . S
O146 U126 2.455 . S
O146 C143 1.301 . S
O147 U126 2.449 . S
O147 C143 1.282 . S
H148 C121 0.931 . S
H149 C123 0.929 . S
H150 C124 0.930 . S
H151 C125 0.931 . S
H152 C132 0.932 . S
H153 C133 0.930 . S
H154 C134 0.929 . S
H155 C136 0.930 . S
H156 C138 0.932 . S
H157 C139 0.929 . S
H158 C140 0.928 . S
H159 C142 0.932 . S
C160 C161 1.264 . S
C160 C165 1.479 . S
C160 C170 1.465 . S
C161 C160 1.264 . S
C161 C163 1.339 . S
C161 H188 0.931 . S
C162 C163 1.395 . S
C162 C164 1.320 . S
C163 C161 1.339 . S
C163 C162 1.395 . S
C163 H189 0.929 . S
C164 C162 1.320 . S
C164 C165 1.405 . S
C164 H190 0.930 . S
C165 C160 1.479 . S
C165 C164 1.405 . S
C165 H191 0.931 . S
U166 O167 2.454 . S
U166 O168 2.458 . S
U166 C169 2.984 . S
U166 C170 2.847 . S
U166 C183 2.882 . S
U166 O184 2.441 . S
U166 O185 2.420 . S
U166 O186 2.455 . S
U166 O187 2.449 . S
O167 U166 2.454 . S
O167 C169 1.353 . S
O168 U166 2.458 . S
O168 C169 1.286 . S
C169 U166 2.984 . S
C169 O167 1.353 . S
C169 O168 1.286 . S
C169 C171 1.363 . S
C170 C160 1.465 . S
C170 U166 2.847 . S
C170 O184 1.249 . S
C170 O185 1.202 . S
C171 C169 1.363 . S
C171 C173 1.408 . S
C171 C176 1.342 . S
C172 C173 1.310 . S
C172 C175 1.461 . S
C172 H192 0.932 . S
C173 C171 1.408 . S
C173 C172 1.310 . S
C173 H193 0.930 . S
C174 C175 1.474 . S
C174 C176 1.285 . S
C174 H194 0.929 . S
C175 C172 1.461 . S
C175 C174 1.474 . S
C176 C171 1.342 . S
C176 C174 1.285 . S
C176 H195 0.930 . S
C177 C180 1.424 . S
C177 C182 1.245 . S
C177 C183 1.428 . S
C178 C181 1.260 . S
C178 C182 1.477 . S
C178 H196 0.932 . S
C179 C180 1.384 . S
C179 C181 1.479 . S
C179 H197 0.929 . S
C180 C177 1.424 . S
C180 C179 1.384 . S
C180 H198 0.928 . S
C181 C178 1.260 . S
C181 C179 1.479 . S
C182 C177 1.245 . S
C182 C178 1.477 . S
C182 H199 0.932 . S
C183 U166 2.882 . S
C183 C177 1.428 . S
C183 O186 1.301 . S
C183 O187 1.282 . S
O184 U166 2.441 . S
O184 C170 1.249 . S
O185 U166 2.420 . S
O185 C170 1.202 . S
O186 U166 2.455 . S
O186 C183 1.301 . S
O187 U166 2.449 . S
O187 C183 1.282 . S
H188 C161 0.931 . S
H189 C163 0.929 . S
H190 C164 0.930 . S
H191 C165 0.931 . S
H192 C172 0.932 . S
H193 C173 0.930 . S
H194 C174 0.929 . S
H195 C176 0.930 . S
H196 C178 0.932 . S
H197 C179 0.929 . S
H198 C180 0.928 . S
H199 C182 0.932 . S
C200 C201 1.264 . S
C200 C205 1.479 . S
C200 C210 1.465 . S
C201 C200 1.264 . S
C201 C203 1.339 . S
C201 H228 0.931 . S
C202 C203 1.395 . S
C202 C204 1.320 . S
C203 C201 1.339 . S
C203 C202 1.395 . S
C203 H229 0.929 . S
C204 C202 1.320 . S
C204 C205 1.405 . S
C204 H230 0.930 . S
C205 C200 1.479 . S
C205 C204 1.405 . S
C205 H231 0.931 . S
U206 O207 2.454 . S
U206 O208 2.458 . S
U206 C209 2.984 . S
U206 C210 2.847 . S
U206 C223 2.882 . S
U206 O224 2.441 . S
U206 O225 2.420 . S
U206 O226 2.455 . S
U206 O227 2.449 . S
O207 U206 2.454 . S
O207 C209 1.353 . S
O208 U206 2.458 . S
O208 C209 1.286 . S
C209 U206 2.984 . S
C209 O207 1.353 . S
C209 O208 1.286 . S
C209 C211 1.363 . S
C210 C200 1.465 . S
C210 U206 2.847 . S
C210 O224 1.249 . S
C210 O225 1.202 . S
C211 C209 1.363 . S
C211 C213 1.408 . S
C211 C216 1.342 . S
C212 C213 1.310 . S
C212 C215 1.461 . S
C212 H232 0.932 . S
C213 C211 1.408 . S
C213 C212 1.310 . S
C213 H233 0.930 . S
C214 C215 1.474 . S
C214 C216 1.285 . S
C214 H234 0.929 . S
C215 C212 1.461 . S
C215 C214 1.474 . S
C216 C211 1.342 . S
C216 C214 1.285 . S
C216 H235 0.930 . S
C217 C220 1.424 . S
C217 C222 1.245 . S
C217 C223 1.428 . S
C218 C221 1.260 . S
C218 C222 1.477 . S
C218 H236 0.932 . S
C219 C220 1.384 . S
C219 C221 1.479 . S
C219 H237 0.929 . S
C220 C217 1.424 . S
C220 C219 1.384 . S
C220 H238 0.928 . S
C221 C218 1.260 . S
C221 C219 1.479 . S
C222 C217 1.245 . S
C222 C218 1.477 . S
C222 H239 0.932 . S
C223 U206 2.882 . S
C223 C217 1.428 . S
C223 O226 1.301 . S
C223 O227 1.282 . S
O224 U206 2.441 . S
O224 C210 1.249 . S
O225 U206 2.420 . S
O225 C210 1.202 . S
O226 U206 2.455 . S
O226 C223 1.301 . S
O227 U206 2.449 . S
O227 C223 1.282 . S
H228 C201 0.931 . S
H229 C203 0.929 . S
H230 C204 0.930 . S
H231 C205 0.931 . S
H232 C212 0.932 . S
H233 C213 0.930 . S
H234 C214 0.929 . S
H235 C216 0.930 . S
H236 C218 0.932 . S
H237 C219 0.929 . S
H238 C220 0.928 . S
H239 C222 0.932 . S
C240 C241 1.264 . S
C240 C245 1.479 . S
C240 C250 1.465 . S
C241 C240 1.264 . S
C241 C243 1.339 . S
C241 H268 0.931 . S
C242 C243 1.395 . S
C242 C244 1.320 . S
C243 C241 1.339 . S
C243 C242 1.395 . S
C243 H269 0.929 . S
C244 C242 1.320 . S
C244 C245 1.405 . S
C244 H270 0.930 . S
C245 C240 1.479 . S
C245 C244 1.405 . S
C245 H271 0.931 . S
U246 O247 2.454 . S
U246 O248 2.458 . S
U246 C249 2.984 . S
U246 C250 2.847 . S
U246 C263 2.882 . S
U246 O264 2.441 . S
U246 O265 2.420 . S
U246 O266 2.455 . S
U246 O267 2.449 . S
O247 U246 2.454 . S
O247 C249 1.353 . S
O248 U246 2.458 . S
O248 C249 1.286 . S
C249 U246 2.984 . S
C249 O247 1.353 . S
C249 O248 1.286 . S
C249 C251 1.363 . S
C250 C240 1.465 . S
C250 U246 2.847 . S
C250 O264 1.249 . S
C250 O265 1.202 . S
C251 C249 1.363 . S
C251 C253 1.408 . S
C251 C256 1.342 . S
C252 C253 1.310 . S
C252 C255 1.461 . S
C252 H272 0.932 . S
C253 C251 1.408 . S
C253 C252 1.310 . S
C253 H273 0.930 . S
C254 C255 1.474 . S
C254 C256 1.285 . S
C254 H274 0.929 . S
C255 C252 1.461 . S
C255 C254 1.474 . S
C256 C251 1.342 . S
C256 C254 1.285 . S
C256 H275 0.930 . S
C257 C260 1.424 . S
C257 C262 1.245 . S
C257 C263 1.428 . S
C258 C261 1.260 . S
C258 C262 1.477 . S
C258 H276 0.932 . S
C259 C260 1.384 . S
C259 C261 1.479 . S
C259 H277 0.929 . S
C260 C257 1.424 . S
C260 C259 1.384 . S
C260 H278 0.928 . S
C261 C258 1.260 . S
C261 C259 1.479 . S
C262 C257 1.245 . S
C262 C258 1.477 . S
C262 H279 0.932 . S
C263 U246 2.882 . S
C263 C257 1.428 . S
C263 O266 1.301 . S
C263 O267 1.282 . S
O264 U246 2.441 . S
O264 C250 1.249 . S
O265 U246 2.420 . S
O265 C250 1.202 . S
O266 U246 2.455 . S
O266 C263 1.301 . S
O267 U246 2.449 . S
O267 C263 1.282 . S
H268 C241 0.931 . S
H269 C243 0.929 . S
H270 C244 0.930 . S
H271 C245 0.931 . S
H272 C252 0.932 . S
H273 C253 0.930 . S
H274 C254 0.929 . S
H275 C256 0.930 . S
H276 C258 0.932 . S
H277 C259 0.929 . S
H278 C260 0.928 . S
H279 C262 0.932 . S
C280 C281 1.264 . S
C280 C285 1.479 . S
C280 C290 1.465 . S
C281 C280 1.264 . S
C281 C283 1.339 . S
C281 H308 0.931 . S
C282 C283 1.395 . S
C282 C284 1.320 . S
C283 C281 1.339 . S
C283 C282 1.395 . S
C283 H309 0.929 . S
C284 C282 1.320 . S
C284 C285 1.405 . S
C284 H310 0.930 . S
C285 C280 1.479 . S
C285 C284 1.405 . S
C285 H311 0.931 . S
U286 O287 2.454 . S
U286 O288 2.458 . S
U286 C289 2.984 . S
U286 C290 2.847 . S
U286 C303 2.882 . S
U286 O304 2.441 . S
U286 O305 2.420 . S
U286 O306 2.455 . S
U286 O307 2.449 . S
O287 U286 2.454 . S
O287 C289 1.353 . S
O288 U286 2.458 . S
O288 C289 1.286 . S
C289 U286 2.984 . S
C289 O287 1.353 . S
C289 O288 1.286 . S
C289 C291 1.363 . S
C290 C280 1.465 . S
C290 U286 2.847 . S
C290 O304 1.249 . S
C290 O305 1.202 . S
C291 C289 1.363 . S
C291 C293 1.408 . S
C291 C296 1.342 . S
C292 C293 1.310 . S
C292 C295 1.461 . S
C292 H312 0.932 . S
C293 C291 1.408 . S
C293 C292 1.310 . S
C293 H313 0.930 . S
C294 C295 1.474 . S
C294 C296 1.285 . S
C294 H314 0.929 . S
C295 C292 1.461 . S
C295 C294 1.474 . S
C296 C291 1.342 . S
C296 C294 1.285 . S
C296 H315 0.930 . S
C297 C300 1.424 . S
C297 C302 1.245 . S
C297 C303 1.428 . S
C298 C301 1.260 . S
C298 C302 1.477 . S
C298 H316 0.932 . S
C299 C300 1.384 . S
C299 C301 1.479 . S
C299 H317 0.929 . S
C300 C297 1.424 . S
C300 C299 1.384 . S
C300 H318 0.928 . S
C301 C298 1.260 . S
C301 C299 1.479 . S
C302 C297 1.245 . S
C302 C298 1.477 . S
C302 H319 0.932 . S
C303 U286 2.882 . S
C303 C297 1.428 . S
C303 O306 1.301 . S
C303 O307 1.282 . S
O304 U286 2.441 . S
O304 C290 1.249 . S
O305 U286 2.420 . S
O305 C290 1.202 . S
O306 U286 2.455 . S
O306 C303 1.301 . S
O307 U286 2.449 . S
O307 C303 1.282 . S
H308 C281 0.931 . S
H309 C283 0.929 . S
H310 C284 0.930 . S
H311 C285 0.931 . S
H312 C292 0.932 . S
H313 C293 0.930 . S
H314 C294 0.929 . S
H315 C296 0.930 . S
H316 C298 0.932 . S
H317 C299 0.929 . S
H318 C300 0.928 . S
H319 C302 0.932 . S
C320 C321 1.264 . S
C320 C325 1.479 . S
C320 C330 1.465 . S
C321 C320 1.264 . S
C321 C323 1.339 . S
C321 H348 0.931 . S
C322 C323 1.395 . S
C322 C324 1.320 . S
C323 C321 1.339 . S
C323 C322 1.395 . S
C323 H349 0.929 . S
C324 C322 1.320 . S
C324 C325 1.405 . S
C324 H350 0.930 . S
C325 C320 1.479 . S
C325 C324 1.405 . S
C325 H351 0.931 . S
U326 O327 2.454 . S
U326 O328 2.458 . S
U326 C329 2.984 . S
U326 C330 2.847 . S
U326 C343 2.882 . S
U326 O344 2.441 . S
U326 O345 2.420 . S
U326 O346 2.455 . S
U326 O347 2.449 . S
O327 U326 2.454 . S
O327 C329 1.353 . S
O328 U326 2.458 . S
O328 C329 1.286 . S
C329 U326 2.984 . S
C329 O327 1.353 . S
C329 O328 1.286 . S
C329 C331 1.363 . S
C330 C320 1.465 . S
C330 U326 2.847 . S
C330 O344 1.249 . S
C330 O345 1.202 . S
C331 C329 1.363 . S
C331 C333 1.408 . S
C331 C336 1.342 . S
C332 C333 1.310 . S
C332 C335 1.461 . S
C332 H352 0.932 . S
C333 C331 1.408 . S
C333 C332 1.310 . S
C333 H353 0.930 . S
C334 C335 1.474 . S
C334 C336 1.285 . S
C334 H354 0.929 . S
C335 C332 1.461 . S
C335 C334 1.474 . S
C336 C331 1.342 . S
C336 C334 1.285 . S
C336 H355 0.930 . S
C337 C340 1.424 . S
C337 C342 1.245 . S
C337 C343 1.428 . S
C338 C341 1.260 . S
C338 C342 1.477 . S
C338 H356 0.932 . S
C339 C340 1.384 . S
C339 C341 1.479 . S
C339 H357 0.929 . S
C340 C337 1.424 . S
C340 C339 1.384 . S
C340 H358 0.928 . S
C341 C338 1.260 . S
C341 C339 1.479 . S
C342 C337 1.245 . S
C342 C338 1.477 . S
C342 H359 0.932 . S
C343 U326 2.882 . S
C343 C337 1.428 . S
C343 O346 1.301 . S
C343 O347 1.282 . S
O344 U326 2.441 . S
O344 C330 1.249 . S
O345 U326 2.420 . S
O345 C330 1.202 . S
O346 U326 2.455 . S
O346 C343 1.301 . S
O347 U326 2.449 . S
O347 C343 1.282 . S
H348 C321 0.931 . S
H349 C323 0.929 . S
H350 C324 0.930 . S
H351 C325 0.931 . S
H352 C332 0.932 . S
H353 C333 0.930 . S
H354 C334 0.929 . S
H355 C336 0.930 . S
H356 C338 0.932 . S
H357 C339 0.929 . S
H358 C340 0.928 . S
H359 C342 0.932 . S
C360 C361 1.264 . S
C360 C365 1.479 . S
C360 C370 1.465 . S
C361 C360 1.264 . S
C361 C363 1.339 . S
C361 H388 0.931 . S
C362 C363 1.395 . S
C362 C364 1.320 . S
C363 C361 1.339 . S
C363 C362 1.395 . S
C363 H389 0.929 . S
C364 C362 1.320 . S
C364 C365 1.405 . S
C364 H390 0.930 . S
C365 C360 1.479 . S
C365 C364 1.405 . S
C365 H391 0.931 . S
U366 O367 2.454 . S
U366 O368 2.458 . S
U366 C369 2.984 . S
U366 C370 2.847 . S
U366 C383 2.882 . S
U366 O384 2.441 . S
U366 O385 2.420 . S
U366 O386 2.455 . S
U366 O387 2.449 . S
O367 U366 2.454 . S
O367 C369 1.353 . S
O368 U366 2.458 . S
O368 C369 1.286 . S
C369 U366 2.984 . S
C369 O367 1.353 . S
C369 O368 1.286 . S
C369 C371 1.363 . S
C370 C360 1.465 . S
C370 U366 2.847 . S
C370 O384 1.249 . S
C370 O385 1.202 . S
C371 C369 1.363 . S
C371 C373 1.408 . S
C371 C376 1.342 . S
C372 C373 1.310 . S
C372 C375 1.461 . S
C372 H392 0.932 . S
C373 C371 1.408 . S
C373 C372 1.310 . S
C373 H393 0.930 . S
C374 C375 1.474 . S
C374 C376 1.285 . S
C374 H394 0.929 . S
C375 C372 1.461 . S
C375 C374 1.474 . S
C376 C371 1.342 . S
C376 C374 1.285 . S
C376 H395 0.930 . S
C377 C380 1.424 . S
C377 C382 1.245 . S
C377 C383 1.428 . S
C378 C381 1.260 . S
C378 C382 1.477 . S
C378 H396 0.932 . S
C379 C380 1.384 . S
C379 C381 1.479 . S
C379 H397 0.929 . S
C380 C377 1.424 . S
C380 C379 1.384 . S
C380 H398 0.928 . S
C381 C378 1.260 . S
C381 C379 1.479 . S
C382 C377 1.245 . S
C382 C378 1.477 . S
C382 H399 0.932 . S
C383 U366 2.882 . S
C383 C377 1.428 . S
C383 O386 1.301 . S
C383 O387 1.282 . S
O384 U366 2.441 . S
O384 C370 1.249 . S
O385 U366 2.420 . S
O385 C370 1.202 . S
O386 U366 2.455 . S
O386 C383 1.301 . S
O387 U366 2.449 . S
O387 C383 1.282 . S
H388 C361 0.931 . S
H389 C363 0.929 . S
H390 C364 0.930 . S
H391 C365 0.931 . S
H392 C372 0.932 . S
H393 C373 0.930 . S
H394 C374 0.929 . S
H395 C376 0.930 . S
H396 C378 0.932 . S
H397 C379 0.929 . S
H398 C380 0.928 . S
H399 C382 0.932 . S
C400 C401 1.264 . S
C400 C405 1.479 . S
C400 C410 1.465 . S
C401 C400 1.264 . S
C401 C403 1.339 . S
C401 H428 0.931 . S
C402 C403 1.395 . S
C402 C404 1.320 . S
C403 C401 1.339 . S
C403 C402 1.395 . S
C403 H429 0.929 . S
C404 C402 1.320 . S
C404 C405 1.405 . S
C404 H430 0.930 . S
C405 C400 1.479 . S
C405 C404 1.405 . S
C405 H431 0.931 . S
U406 O407 2.454 . S
U406 O408 2.458 . S
U406 C409 2.984 . S
U406 C410 2.847 . S
U406 C423 2.882 . S
U406 O424 2.441 . S
U406 O425 2.420 . S
U406 O426 2.455 . S
U406 O427 2.449 . S
O407 U406 2.454 . S
O407 C409 1.353 . S
O408 U406 2.458 . S
O408 C409 1.286 . S
C409 U406 2.984 . S
C409 O407 1.353 . S
C409 O408 1.286 . S
C409 C411 1.363 . S
C410 C400 1.465 . S
C410 U406 2.847 . S
C410 O424 1.249 . S
C410 O425 1.202 . S
C411 C409 1.363 . S
C411 C413 1.408 . S
C411 C416 1.342 . S
C412 C413 1.310 . S
C412 C415 1.461 . S
C412 H432 0.932 . S
C413 C411 1.408 . S
C413 C412 1.310 . S
C413 H433 0.930 . S
C414 C415 1.474 . S
C414 C416 1.285 . S
C414 H434 0.929 . S
C415 C412 1.461 . S
C415 C414 1.474 . S
C416 C411 1.342 . S
C416 C414 1.285 . S
C416 H435 0.930 . S
C417 C420 1.424 . S
C417 C422 1.245 . S
C417 C423 1.428 . S
C418 C421 1.260 . S
C418 C422 1.477 . S
C418 H436 0.932 . S
C419 C420 1.384 . S
C419 C421 1.479 . S
C419 H437 0.929 . S
C420 C417 1.424 . S
C420 C419 1.384 . S
C420 H438 0.928 . S
C421 C418 1.260 . S
C421 C419 1.479 . S
C422 C417 1.245 . S
C422 C418 1.477 . S
C422 H439 0.932 . S
C423 U406 2.882 . S
C423 C417 1.428 . S
C423 O426 1.301 . S
C423 O427 1.282 . S
O424 U406 2.441 . S
O424 C410 1.249 . S
O425 U406 2.420 . S
O425 C410 1.202 . S
O426 U406 2.455 . S
O426 C423 1.301 . S
O427 U406 2.449 . S
O427 C423 1.282 . S
H428 C401 0.931 . S
H429 C403 0.929 . S
H430 C404 0.930 . S
H431 C405 0.931 . S
H432 C412 0.932 . S
H433 C413 0.930 . S
H434 C414 0.929 . S
H435 C416 0.930 . S
H436 C418 0.932 . S
H437 C419 0.929 . S
H438 C420 0.928 . S
H439 C422 0.932 . S
C440 C441 1.264 . S
C440 C445 1.479 . S
C440 C450 1.465 . S
C441 C440 1.264 . S
C441 C443 1.339 . S
C441 H468 0.931 . S
C442 C443 1.395 . S
C442 C444 1.320 . S
C443 C441 1.339 . S
C443 C442 1.395 . S
C443 H469 0.929 . S
C444 C442 1.320 . S
C444 C445 1.405 . S
C444 H470 0.930 . S
C445 C440 1.479 . S
C445 C444 1.405 . S
C445 H471 0.931 . S
U446 O447 2.454 . S
U446 O448 2.458 . S
U446 C449 2.984 . S
U446 C450 2.847 . S
U446 C463 2.882 . S
U446 O464 2.441 . S
U446 O465 2.420 . S
U446 O466 2.455 . S
U446 O467 2.449 . S
O447 U446 2.454 . S
O447 C449 1.353 . S
O448 U446 2.458 . S
O448 C449 1.286 . S
C449 U446 2.984 . S
C449 O447 1.353 . S
C449 O448 1.286 . S
C449 C451 1.363 . S
C450 C440 1.465 . S
C450 U446 2.847 . S
C450 O464 1.249 . S
C450 O465 1.202 . S
C451 C449 1.363 . S
C451 C453 1.408 . S
C451 C456 1.342 . S
C452 C453 1.310 . S
C452 C455 1.461 . S
C452 H472 0.932 . S
C453 C451 1.408 . S
C453 C452 1.310 . S
C453 H473 0.930 . S
C454 C455 1.474 . S
C454 C456 1.285 . S
C454 H474 0.929 . S
C455 C452 1.461 . S
C455 C454 1.474 . S
C456 C451 1.342 . S
C456 C454 1.285 . S
C456 H475 0.930 . S
C457 C460 1.424 . S
C457 C462 1.245 . S
C457 C463 1.428 . S
C458 C461 1.260 . S
C458 C462 1.477 . S
C458 H476 0.932 . S
C459 C460 1.384 . S
C459 C461 1.479 . S
C459 H477 0.929 . S
C460 C457 1.424 . S
C460 C459 1.384 . S
C460 H478 0.928 . S
C461 C458 1.260 . S
C461 C459 1.479 . S
C462 C457 1.245 . S
C462 C458 1.477 . S
C462 H479 0.932 . S
C463 U446 2.882 . S
C463 C457 1.428 . S
C463 O466 1.301 . S
C463 O467 1.282 . S
O464 U446 2.441 . S
O464 C450 1.249 . S
O465 U446 2.420 . S
O465 C450 1.202 . S
O466 U446 2.455 . S
O466 C463 1.301 . S
O467 U446 2.449 . S
O467 C463 1.282 . S
H468 C441 0.931 . S
H469 C443 0.929 . S
H470 C444 0.930 . S
H471 C445 0.931 . S
H472 C452 0.932 . S
H473 C453 0.930 . S
H474 C454 0.929 . S
H475 C456 0.930 . S
H476 C458 0.932 . S
H477 C459 0.929 . S
H478 C460 0.928 . S
H479 C462 0.932 . S
H480 C488 0.950 . S
H481 C493 0.950 . S
H482 C490 0.950 . S
H483 C492 0.950 . S
H484 C494 0.950 . S
H485 C496 0.950 . S
H486 C498 0.950 . S
H487 C499 0.950 . S
C488 H480 0.950 . S
C488 C489 1.386 . S
C488 C490 1.391 . S
C489 C488 1.386 . S
C489 C493 1.393 . S
C490 H482 0.950 . S
C490 C488 1.391 . S
C490 C491 1.400 . S
C491 C490 1.400 . S
C491 C492 1.398 . S
C491 C497 1.491 . S
C492 H483 0.950 . S
C492 C491 1.398 . S
C492 C493 1.391 . S
C493 H481 0.950 . S
C493 C489 1.393 . S
C493 C492 1.391 . S
C494 H484 0.950 . S
C494 C495 1.386 . S
C494 C496 1.391 . S
C495 C494 1.386 . S
C495 C499 1.393 . S
C496 H485 0.950 . S
C496 C494 1.391 . S
C496 C497 1.400 . S
C497 C491 1.491 . S
C497 C496 1.400 . S
C497 C498 1.398 . S
C498 H486 0.950 . S
C498 C497 1.398 . S
C498 C499 1.391 . S
C499 H487 0.950 . S
C499 C495 1.393 . S
C499 C498 1.391 . S
H500 C508 0.950 . S
H501 C513 0.950 . S
H502 C510 0.950 . S
H503 C512 0.950 . S
H504 C514 0.950 . S
H505 C516 0.950 . S
H506 C518 0.950 . S
H507 C519 0.950 . S
C508 H500 0.950 . S
C508 C509 1.386 . S
C508 C510 1.391 . S
C509 C508 1.386 . S
C509 C513 1.393 . S
C510 H502 0.950 . S
C510 C508 1.391 . S
C510 C511 1.400 . S
C511 C510 1.400 . S
C511 C512 1.398 . S
C511 C517 1.491 . S
C512 H503 0.950 . S
C512 C511 1.398 . S
C512 C513 1.391 . S
C513 H501 0.950 . S
C513 C509 1.393 . S
C513 C512 1.391 . S
C514 H504 0.950 . S
C514 C515 1.386 . S
C514 C516 1.391 . S
C515 C514 1.386 . S
C515 C519 1.393 . S
C516 H505 0.950 . S
C516 C514 1.391 . S
C516 C517 1.400 . S
C517 C511 1.491 . S
C517 C516 1.400 . S
C517 C518 1.398 . S
C518 H506 0.950 . S
C518 C517 1.398 . S
C518 C519 1.391 . S
C519 H507 0.950 . S
C519 C515 1.393 . S
C519 C518 1.391 . S
H520 C528 0.950 . S
H521 C533 0.950 . S
H522 C530 0.950 . S
H523 C532 0.950 . S
H524 C534 0.950 . S
H525 C536 0.950 . S
H526 C538 0.950 . S
H527 C539 0.950 . S
C528 H520 0.950 . S
C528 C529 1.386 . S
C528 C530 1.391 . S
C529 C528 1.386 . S
C529 C533 1.393 . S
C530 H522 0.950 . S
C530 C528 1.391 . S
C530 C531 1.400 . S
C531 C530 1.400 . S
C531 C532 1.398 . S
C531 C537 1.491 . S
C532 H523 0.950 . S
C532 C531 1.398 . S
C532 C533 1.391 . S
C533 H521 0.950 . S
C533 C529 1.393 . S
C533 C532 1.391 . S
C534 H524 0.950 . S
C534 C535 1.386 . S
C534 C536 1.391 . S
C535 C534 1.386 . S
C535 C539 1.393 . S
C536 H525 0.950 . S
C536 C534 1.391 . S
C536 C537 1.400 . S
C537 C531 1.491 . S
C537 C536 1.400 . S
C537 C538 1.398 . S
C538 H526 0.950 . S
C538 C537 1.398 . S
C538 C539 1.391 . S
C539 H527 0.950 . S
C539 C535 1.393 . S
C539 C538 1.391 . S
H540 C548 0.950 . S
H541 C553 0.950 . S
H542 C550 0.950 . S
H543 C552 0.950 . S
H544 C554 0.950 . S
H545 C556 0.950 . S
H546 C558 0.950 . S
H547 C559 0.950 . S
C548 H540 0.950 . S
C548 C549 1.386 . S
C548 C550 1.391 . S
C549 C548 1.386 . S
C549 C553 1.393 . S
C550 H542 0.950 . S
C550 C548 1.391 . S
C550 C551 1.400 . S
C551 C550 1.400 . S
C551 C552 1.398 . S
C551 C557 1.491 . S
C552 H543 0.950 . S
C552 C551 1.398 . S
C552 C553 1.391 . S
C553 H541 0.950 . S
C553 C549 1.393 . S
C553 C552 1.391 . S
C554 H544 0.950 . S
C554 C555 1.386 . S
C554 C556 1.391 . S
C555 C554 1.386 . S
C555 C559 1.393 . S
C556 H545 0.950 . S
C556 C554 1.391 . S
C556 C557 1.400 . S
C557 C551 1.491 . S
C557 C556 1.400 . S
C557 C558 1.398 . S
C558 H546 0.950 . S
C558 C557 1.398 . S
C558 C559 1.391 . S
C559 H547 0.950 . S
C559 C555 1.393 . S
C559 C558 1.391 . S
H560 C568 0.950 . S
H561 C573 0.950 . S
H562 C570 0.950 . S
H563 C572 0.950 . S
H564 C574 0.950 . S
H565 C576 0.950 . S
H566 C578 0.950 . S
H567 C579 0.950 . S
C568 H560 0.950 . S
C568 C569 1.386 . S
C568 C570 1.391 . S
C569 C568 1.386 . S
C569 C573 1.393 . S
C570 H562 0.950 . S
C570 C568 1.391 . S
C570 C571 1.400 . S
C571 C570 1.400 . S
C571 C572 1.398 . S
C571 C577 1.491 . S
C572 H563 0.950 . S
C572 C571 1.398 . S
C572 C573 1.391 . S
C573 H561 0.950 . S
C573 C569 1.393 . S
C573 C572 1.391 . S
C574 H564 0.950 . S
C574 C575 1.386 . S
C574 C576 1.391 . S
C575 C574 1.386 . S
C575 C579 1.393 . S
C576 H565 0.950 . S
C576 C574 1.391 . S
C576 C577 1.400 . S
C577 C571 1.491 . S
C577 C576 1.400 . S
C577 C578 1.398 . S
C578 H566 0.950 . S
C578 C577 1.398 . S
C578 C579 1.391 . S
C579 H567 0.950 . S
C579 C575 1.393 . S
C579 C578 1.391 . S
H580 C588 0.950 . S
H581 C593 0.950 . S
H582 C590 0.950 . S
H583 C592 0.950 . S
H584 C594 0.950 . S
H585 C596 0.950 . S
H586 C598 0.950 . S
H587 C599 0.950 . S
C588 H580 0.950 . S
C588 C589 1.386 . S
C588 C590 1.391 . S
C589 C588 1.386 . S
C589 C593 1.393 . S
C590 H582 0.950 . S
C590 C588 1.391 . S
C590 C591 1.400 . S
C591 C590 1.400 . S
C591 C592 1.398 . S
C591 C597 1.491 . S
C592 H583 0.950 . S
C592 C591 1.398 . S
C592 C593 1.391 . S
C593 H581 0.950 . S
C593 C589 1.393 . S
C593 C592 1.391 . S
C594 H584 0.950 . S
C594 C595 1.386 . S
C594 C596 1.391 . S
C595 C594 1.386 . S
C595 C599 1.393 . S
C596 H585 0.950 . S
C596 C594 1.391 . S
C596 C597 1.400 . S
C597 C591 1.491 . S
C597 C596 1.400 . S
C597 C598 1.398 . S
C598 H586 0.950 . S
C598 C597 1.398 . S
C598 C599 1.391 . S
C599 H587 0.950 . S
C599 C595 1.393 . S
C599 C598 1.391 . S
H600 C608 0.950 . S
H601 C613 0.950 . S
H602 C610 0.950 . S
H603 C612 0.950 . S
H604 C614 0.950 . S
H605 C616 0.950 . S
H606 C618 0.950 . S
H607 C619 0.950 . S
C608 H600 0.950 . S
C608 C609 1.386 . S
C608 C610 1.391 . S
C609 C608 1.386 . S
C609 C613 1.393 . S
C610 H602 0.950 . S
C610 C608 1.391 . S
C610 C611 1.400 . S
C611 C610 1.400 . S
C611 C612 1.398 . S
C611 C617 1.491 1_565 S
C612 H603 0.950 . S
C612 C611 1.398 . S
C612 C613 1.391 . S
C613 H601 0.950 . S
C613 C609 1.393 . S
C613 C612 1.391 . S
C614 H604 0.950 . S
C614 C615 1.386 . S
C614 C616 1.391 . S
C615 C614 1.386 . S
C615 C619 1.393 . S
C616 H605 0.950 . S
C616 C614 1.391 . S
C616 C617 1.400 . S
C617 C611 1.491 1_545 S
C617 C616 1.400 . S
C617 C618 1.398 . S
C618 H606 0.950 . S
C618 C617 1.398 . S
C618 C619 1.391 . S
C619 H607 0.950 . S
C619 C615 1.393 . S
C619 C618 1.391 . S
H620 C628 0.950 . S
H621 C633 0.950 . S
H622 C630 0.950 . S
H623 C632 0.950 . S
H624 C634 0.950 . S
H625 C636 0.950 . S
H626 C638 0.950 . S
H627 C639 0.950 . S
C628 H620 0.950 . S
C628 C629 1.386 . S
C628 C630 1.391 . S
C629 C628 1.386 . S
C629 C633 1.393 . S
C630 H622 0.950 . S
C630 C628 1.391 . S
C630 C631 1.400 . S
C631 C630 1.400 . S
C631 C632 1.398 . S
C631 C637 1.491 . S
C632 H623 0.950 . S
C632 C631 1.398 . S
C632 C633 1.391 . S
C633 H621 0.950 . S
C633 C629 1.393 . S
C633 C632 1.391 . S
C634 H624 0.950 . S
C634 C635 1.386 . S
C634 C636 1.391 . S
C635 C634 1.386 . S
C635 C639 1.393 . S
C636 H625 0.950 . S
C636 C634 1.391 . S
C636 C637 1.400 . S
C637 C631 1.491 . S
C637 C636 1.400 . S
C637 C638 1.398 . S
C638 H626 0.950 . S
C638 C637 1.398 . S
C638 C639 1.391 . S
C639 H627 0.950 . S
C639 C635 1.393 . S
C639 C638 1.391 . S
H640 C648 0.950 . S
H641 C653 0.950 . S
H642 C650 0.950 . S
H643 C652 0.950 . S
H644 C654 0.950 . S
H645 C656 0.950 . S
H646 C658 0.950 . S
H647 C659 0.950 . S
C648 H640 0.950 . S
C648 C649 1.386 . S
C648 C650 1.391 . S
C649 C648 1.386 . S
C649 C653 1.393 . S
C650 H642 0.950 . S
C650 C648 1.391 . S
C650 C651 1.400 . S
C651 C650 1.400 . S
C651 C652 1.398 . S
C651 C657 1.491 1_655 S
C652 H643 0.950 . S
C652 C651 1.398 . S
C652 C653 1.391 . S
C653 H641 0.950 . S
C653 C649 1.393 . S
C653 C652 1.391 . S
C654 H644 0.950 . S
C654 C655 1.386 . S
C654 C656 1.391 . S
C655 C654 1.386 . S
C655 C659 1.393 . S
C656 H645 0.950 . S
C656 C654 1.391 . S
C656 C657 1.400 . S
C657 C651 1.491 1_455 S
C657 C656 1.400 . S
C657 C658 1.398 . S
C658 H646 0.950 . S
C658 C657 1.398 . S
C658 C659 1.391 . S
C659 H647 0.950 . S
C659 C655 1.393 . S
C659 C658 1.391 . S
H660 C668 0.950 . S
H661 C673 0.950 . S
H662 C670 0.950 . S
H663 C672 0.950 . S
H664 C674 0.950 . S
H665 C676 0.950 . S
H666 C678 0.950 . S
H667 C679 0.950 . S
C668 H660 0.950 . S
C668 C669 1.386 . S
C668 C670 1.391 . S
C669 C668 1.386 . S
C669 C673 1.393 . S
C670 H662 0.950 . S
C670 C668 1.391 . S
C670 C671 1.400 . S
C671 C670 1.400 . S
C671 C672 1.398 . S
C671 C677 1.491 1_455 S
C672 H663 0.950 . S
C672 C671 1.398 . S
C672 C673 1.391 . S
C673 H661 0.950 . S
C673 C669 1.393 . S
C673 C672 1.391 . S
C674 H664 0.950 . S
C674 C675 1.386 . S
C674 C676 1.391 . S
C675 C674 1.386 . S
C675 C679 1.393 . S
C676 H665 0.950 . S
C676 C674 1.391 . S
C676 C677 1.400 . S
C677 C671 1.491 1_655 S
C677 C676 1.400 . S
C677 C678 1.398 . S
C678 H666 0.950 . S
C678 C677 1.398 . S
C678 C679 1.391 . S
C679 H667 0.950 . S
C679 C675 1.393 . S
C679 C678 1.391 . S
H680 C688 0.950 . S
H681 C693 0.950 . S
H682 C690 0.950 . S
H683 C692 0.950 . S
H684 C694 0.950 . S
H685 C696 0.950 . S
H686 C698 0.950 . S
H687 C699 0.950 . S
C688 H680 0.950 . S
C688 C689 1.386 . S
C688 C690 1.391 . S
C689 C688 1.386 . S
C689 C693 1.393 . S
C690 H682 0.950 . S
C690 C688 1.391 . S
C690 C691 1.400 . S
C691 C690 1.400 . S
C691 C692 1.398 . S
C691 C697 1.491 1_565 S
C692 H683 0.950 . S
C692 C691 1.398 . S
C692 C693 1.391 . S
C693 H681 0.950 . S
C693 C689 1.393 . S
C693 C692 1.391 . S
C694 H684 0.950 . S
C694 C695 1.386 . S
C694 C696 1.391 . S
C695 C694 1.386 . S
C695 C699 1.393 . S
C696 H685 0.950 . S
C696 C694 1.391 . S
C696 C697 1.400 . S
C697 C691 1.491 1_545 S
C697 C696 1.400 . S
C697 C698 1.398 . S
C698 H686 0.950 . S
C698 C697 1.398 . S
C698 C699 1.391 . S
C699 H687 0.950 . S
C699 C695 1.393 . S
C699 C698 1.391 . S
H700 C708 0.950 . S
H701 C713 0.950 . S
H702 C710 0.950 . S
H703 C712 0.950 . S
H704 C714 0.950 . S
H705 C716 0.950 . S
H706 C718 0.950 . S
H707 C719 0.950 . S
C708 H700 0.950 . S
C708 C709 1.386 . S
C708 C710 1.391 . S
C709 C708 1.386 . S
C709 C713 1.393 . S
C710 H702 0.950 . S
C710 C708 1.391 . S
C710 C711 1.400 . S
C711 C710 1.400 . S
C711 C712 1.398 . S
C711 C717 1.491 . S
C712 H703 0.950 . S
C712 C711 1.398 . S
C712 C713 1.391 . S
C713 H701 0.950 . S
C713 C709 1.393 . S
C713 C712 1.391 . S
C714 H704 0.950 . S
C714 C715 1.386 . S
C714 C716 1.391 . S
C715 C714 1.386 . S
C715 C719 1.393 . S
C716 H705 0.950 . S
C716 C714 1.391 . S
C716 C717 1.400 . S
C717 C711 1.491 . S
C717 C716 1.400 . S
C717 C718 1.398 . S
C718 H706 0.950 . S
C718 C717 1.398 . S
C718 C719 1.391 . S
C719 H707 0.950 . S
C719 C715 1.393 . S
C719 C718 1.391 . S
H720 C728 0.950 . S
H721 C733 0.950 . S
H722 C730 0.950 . S
H723 C732 0.950 . S
H724 C734 0.950 . S
H725 C736 0.950 . S
H726 C738 0.950 . S
H727 C739 0.950 . S
C728 H720 0.950 . S
C728 C729 1.386 . S
C728 C730 1.391 . S
C729 C728 1.386 . S
C729 C733 1.393 . S
C730 H722 0.950 . S
C730 C728 1.391 . S
C730 C731 1.400 . S
C731 C730 1.400 . S
C731 C732 1.398 . S
C731 C737 1.491 1_556 S
C732 H723 0.950 . S
C732 C731 1.398 . S
C732 C733 1.391 . S
C733 H721 0.950 . S
C733 C729 1.393 . S
C733 C732 1.391 . S
C734 H724 0.950 . S
C734 C735 1.386 . S
C734 C736 1.391 . S
C735 C734 1.386 . S
C735 C739 1.393 . S
C736 H725 0.950 . S
C736 C734 1.391 . S
C736 C737 1.400 . S
C737 C731 1.491 1_554 S
C737 C736 1.400 . S
C737 C738 1.398 . S
C738 H726 0.950 . S
C738 C737 1.398 . S
C738 C739 1.391 . S
C739 H727 0.950 . S
C739 C735 1.393 . S
C739 C738 1.391 . S
H740 C748 0.950 . S
H741 C753 0.950 . S
H742 C750 0.950 . S
H743 C752 0.950 . S
H744 C754 0.950 . S
H745 C756 0.950 . S
H746 C758 0.950 . S
H747 C759 0.950 . S
C748 H740 0.950 . S
C748 C749 1.386 . S
C748 C750 1.391 . S
C749 C748 1.386 . S
C749 C753 1.393 . S
C750 H742 0.950 . S
C750 C748 1.391 . S
C750 C751 1.400 . S
C751 C750 1.400 . S
C751 C752 1.398 . S
C751 C757 1.491 . S
C752 H743 0.950 . S
C752 C751 1.398 . S
C752 C753 1.391 . S
C753 H741 0.950 . S
C753 C749 1.393 . S
C753 C752 1.391 . S
C754 H744 0.950 . S
C754 C755 1.386 . S
C754 C756 1.391 . S
C755 C754 1.386 . S
C755 C759 1.393 . S
C756 H745 0.950 . S
C756 C754 1.391 . S
C756 C757 1.400 . S
C757 C751 1.491 . S
C757 C756 1.400 . S
C757 C758 1.398 . S
C758 H746 0.950 . S
C758 C757 1.398 . S
C758 C759 1.391 . S
C759 H747 0.950 . S
C759 C755 1.393 . S
C759 C758 1.391 . S
H760 C768 0.950 . S
H761 C773 0.950 . S
H762 C770 0.950 . S
H763 C772 0.950 . S
H764 C774 0.950 . S
H765 C776 0.950 . S
H766 C778 0.950 . S
H767 C779 0.950 . S
C768 H760 0.950 . S
C768 C769 1.386 . S
C768 C770 1.391 . S
C769 C768 1.386 . S
C769 C773 1.393 . S
C770 H762 0.950 . S
C770 C768 1.391 . S
C770 C771 1.400 . S
C771 C770 1.400 . S
C771 C772 1.398 . S
C771 C777 1.491 . S
C772 H763 0.950 . S
C772 C771 1.398 . S
C772 C773 1.391 . S
C773 H761 0.950 . S
C773 C769 1.393 . S
C773 C772 1.391 . S
C774 H764 0.950 . S
C774 C775 1.386 . S
C774 C776 1.391 . S
C775 C774 1.386 . S
C775 C779 1.393 . S
C776 H765 0.950 . S
C776 C774 1.391 . S
C776 C777 1.400 . S
C777 C771 1.491 . S
C777 C776 1.400 . S
C777 C778 1.398 . S
C778 H766 0.950 . S
C778 C777 1.398 . S
C778 C779 1.391 . S
C779 H767 0.950 . S
C779 C775 1.393 . S
C779 C778 1.391 . S
H780 C788 0.950 . S
H781 C793 0.950 . S
H782 C790 0.950 . S
H783 C792 0.950 . S
H784 C794 0.950 . S
H785 C796 0.950 . S
H786 C798 0.950 . S
H787 C799 0.950 . S
C788 H780 0.950 . S
C788 C789 1.386 . S
C788 C790 1.391 . S
C789 C788 1.386 . S
C789 C793 1.393 . S
C790 H782 0.950 . S
C790 C788 1.391 . S
C790 C791 1.400 . S
C791 C790 1.400 . S
C791 C792 1.398 . S
C791 C797 1.491 1_554 S
C792 H783 0.950 . S
C792 C791 1.398 . S
C792 C793 1.391 . S
C793 H781 0.950 . S
C793 C789 1.393 . S
C793 C792 1.391 . S
C794 H784 0.950 . S
C794 C795 1.386 . S
C794 C796 1.391 . S
C795 C794 1.386 . S
C795 C799 1.393 . S
C796 H785 0.950 . S
C796 C794 1.391 . S
C796 C797 1.400 . S
C797 C791 1.491 1_556 S
C797 C796 1.400 . S
C797 C798 1.398 . S
C798 H786 0.950 . S
C798 C797 1.398 . S
C798 C799 1.391 . S
C799 H787 0.950 . S
C799 C795 1.393 . S
C799 C798 1.391 . S
H800 C808 0.950 . S
H801 C813 0.950 . S
H802 C810 0.950 . S
H803 C812 0.950 . S
H804 C814 0.950 . S
H805 C816 0.950 . S
H806 C818 0.950 . S
H807 C819 0.950 . S
C808 H800 0.950 . S
C808 C809 1.386 . S
C808 C810 1.391 . S
C809 C808 1.386 . S
C809 C813 1.393 . S
C810 H802 0.950 . S
C810 C808 1.391 . S
C810 C811 1.400 . S
C811 C810 1.400 . S
C811 C812 1.398 . S
C811 C817 1.491 . S
C812 H803 0.950 . S
C812 C811 1.398 . S
C812 C813 1.391 . S
C813 H801 0.950 . S
C813 C809 1.393 . S
C813 C812 1.391 . S
C814 H804 0.950 . S
C814 C815 1.386 . S
C814 C816 1.391 . S
C815 C814 1.386 . S
C815 C819 1.393 . S
C816 H805 0.950 . S
C816 C814 1.391 . S
C816 C817 1.400 . S
C817 C811 1.491 . S
C817 C816 1.400 . S
C817 C818 1.398 . S
C818 H806 0.950 . S
C818 C817 1.398 . S
C818 C819 1.391 . S
C819 H807 0.950 . S
C819 C815 1.393 . S
C819 C818 1.391 . S
H820 C828 0.950 . S
H821 C833 0.950 . S
H822 C830 0.950 . S
H823 C832 0.950 . S
H824 C834 0.950 . S
H825 C836 0.950 . S
H826 C838 0.950 . S
H827 C839 0.950 . S
C828 H820 0.950 . S
C828 C829 1.386 . S
C828 C830 1.391 . S
C829 C828 1.386 . S
C829 C833 1.393 . S
C830 H822 0.950 . S
C830 C828 1.391 . S
C830 C831 1.400 . S
C831 C830 1.400 . S
C831 C832 1.398 . S
C831 C837 1.491 . S
C832 H823 0.950 . S
C832 C831 1.398 . S
C832 C833 1.391 . S
C833 H821 0.950 . S
C833 C829 1.393 . S
C833 C832 1.391 . S
C834 H824 0.950 . S
C834 C835 1.386 . S
C834 C836 1.391 . S
C835 C834 1.386 . S
C835 C839 1.393 . S
C836 H825 0.950 . S
C836 C834 1.391 . S
C836 C837 1.400 . S
C837 C831 1.491 . S
C837 C836 1.400 . S
C837 C838 1.398 . S
C838 H826 0.950 . S
C838 C837 1.398 . S
C838 C839 1.391 . S
C839 H827 0.950 . S
C839 C835 1.393 . S
C839 C838 1.391 . S
C489 C335 1.414 . S
C495 C15 1.417 . S
C509 C55 1.424 . S
C515 C375 1.430 . S
C529 C415 1.429 . S
C535 C95 1.419 . S
C549 C455 1.417 . S
C555 C135 1.428 . S
C569 C255 1.424 . S
C575 C175 1.431 . S
C589 C215 1.426 . S
C595 C295 1.430 . S
C609 C122 1.761 . S
C615 C2 1.754 . S
C629 C162 1.752 . S
C635 C42 1.759 . S
C649 C82 1.745 . S
C655 C202 1.741 . S
C669 C362 1.767 . S
C675 C242 1.768 . S
C689 C282 1.764 . S
C695 C402 1.767 . S
C709 C442 1.741 . S
C715 C322 1.741 . S
C729 C421 1.770 . S
C735 C21 1.772 . S
C749 C461 1.776 . S
C755 C61 1.770 . S
C769 C101 1.779 . S
C775 C261 1.791 . S
C789 C141 1.780 . S
C795 C301 1.793 . S
C809 C181 1.771 . S
C815 C341 1.773 . S
C829 C221 1.783 . S
C835 C381 1.773 . S
