# Generated by pormake.
# Topology ume, (4)-cn, num edge types: 1
# Building blocks:
#     Node 0, Type 0, BuildingBlock: ESEHIV_clean_sbu_0, # of connection points: 4
#     Node 1, Type 0, BuildingBlock: ESEHIV_clean_sbu_0, # of connection points: 4
#     Node 2, Type 0, BuildingBlock: ESEHIV_clean_sbu_0, # of connection points: 4
#     Node 3, Type 0, BuildingBlock: ESEHIV_clean_sbu_0, # of connection points: 4
#     Node 4, Type 0, BuildingBlock: ESEHIV_clean_sbu_0, # of connection points: 4
#     Node 5, Type 0, BuildingBlock: ESEHIV_clean_sbu_0, # of connection points: 4
#     Node 6, Type 0, BuildingBlock: ESEHIV_clean_sbu_0, # of connection points: 4
#     Node 7, Type 0, BuildingBlock: ESEHIV_clean_sbu_0, # of connection points: 4
#     Node 8, Type 0, BuildingBlock: ESEHIV_clean_sbu_0, # of connection points: 4
#     Node 9, Type 0, BuildingBlock: ESEHIV_clean_sbu_0, # of connection points: 4
#     Node 10, Type 0, BuildingBlock: ESEHIV_clean_sbu_0, # of connection points: 4
#     Node 11, Type 0, BuildingBlock: ESEHIV_clean_sbu_0, # of connection points: 4
#     Node 12, Type 0, BuildingBlock: ESEHIV_clean_sbu_0, # of connection points: 4
#     Node 13, Type 0, BuildingBlock: ESEHIV_clean_sbu_0, # of connection points: 4
#     Node 14, Type 0, BuildingBlock: ESEHIV_clean_sbu_0, # of connection points: 4
#     Node 15, Type 0, BuildingBlock: ESEHIV_clean_sbu_0, # of connection points: 4
#     Edge 16, Type (0, 0), BuildingBlock: EZIPEK_clean_linker_0, # of connection points: 2
#     Edge 17, Type (0, 0), BuildingBlock: EZIPEK_clean_linker_0, # of connection points: 2
#     Edge 18, Type (0, 0), BuildingBlock: EZIPEK_clean_linker_0, # of connection points: 2
#     Edge 19, Type (0, 0), BuildingBlock: EZIPEK_clean_linker_0, # of connection points: 2
#     Edge 20, Type (0, 0), BuildingBlock: EZIPEK_clean_linker_0, # of connection points: 2
#     Edge 21, Type (0, 0), BuildingBlock: EZIPEK_clean_linker_0, # of connection points: 2
#     Edge 22, Type (0, 0), BuildingBlock: EZIPEK_clean_linker_0, # of connection points: 2
#     Edge 23, Type (0, 0), BuildingBlock: EZIPEK_clean_linker_0, # of connection points: 2
#     Edge 24, Type (0, 0), BuildingBlock: EZIPEK_clean_linker_0, # of connection points: 2
#     Edge 25, Type (0, 0), BuildingBlock: EZIPEK_clean_linker_0, # of connection points: 2
#     Edge 26, Type (0, 0), BuildingBlock: EZIPEK_clean_linker_0, # of connection points: 2
#     Edge 27, Type (0, 0), BuildingBlock: EZIPEK_clean_linker_0, # of connection points: 2
#     Edge 28, Type (0, 0), BuildingBlock: EZIPEK_clean_linker_0, # of connection points: 2
#     Edge 29, Type (0, 0), BuildingBlock: EZIPEK_clean_linker_0, # of connection points: 2
#     Edge 30, Type (0, 0), BuildingBlock: EZIPEK_clean_linker_0, # of connection points: 2
#     Edge 31, Type (0, 0), BuildingBlock: EZIPEK_clean_linker_0, # of connection points: 2
#     Edge 32, Type (0, 0), BuildingBlock: EZIPEK_clean_linker_0, # of connection points: 2
#     Edge 33, Type (0, 0), BuildingBlock: EZIPEK_clean_linker_0, # of connection points: 2
#     Edge 34, Type (0, 0), BuildingBlock: EZIPEK_clean_linker_0, # of connection points: 2
#     Edge 35, Type (0, 0), BuildingBlock: EZIPEK_clean_linker_0, # of connection points: 2
#     Edge 36, Type (0, 0), BuildingBlock: EZIPEK_clean_linker_0, # of connection points: 2
#     Edge 37, Type (0, 0), BuildingBlock: EZIPEK_clean_linker_0, # of connection points: 2
#     Edge 38, Type (0, 0), BuildingBlock: EZIPEK_clean_linker_0, # of connection points: 2
#     Edge 39, Type (0, 0), BuildingBlock: EZIPEK_clean_linker_0, # of connection points: 2
#     Edge 40, Type (0, 0), BuildingBlock: EZIPEK_clean_linker_0, # of connection points: 2
#     Edge 41, Type (0, 0), BuildingBlock: EZIPEK_clean_linker_0, # of connection points: 2
#     Edge 42, Type (0, 0), BuildingBlock: EZIPEK_clean_linker_0, # of connection points: 2
#     Edge 43, Type (0, 0), BuildingBlock: EZIPEK_clean_linker_0, # of connection points: 2
#     Edge 44, Type (0, 0), BuildingBlock: EZIPEK_clean_linker_0, # of connection points: 2
#     Edge 45, Type (0, 0), BuildingBlock: EZIPEK_clean_linker_0, # of connection points: 2
#     Edge 46, Type (0, 0), BuildingBlock: EZIPEK_clean_linker_0, # of connection points: 2
#     Edge 47, Type (0, 0), BuildingBlock: EZIPEK_clean_linker_0, # of connection points: 2
# Relax obj value: 0.042
# Max RMSD: 0.170
# Mean RMSD: 0.137
data_MOF--net-ume--node1-ESEHIV_clean_sbu_0--edge1-EZIPEK_clean_linker_0
_symmetry_space_group_name_H-M    P1
_symmetry_Int_Tables_number       1
_symmetry_cell_setting            triclinic
loop_
_symmetry_equiv_pos_as_xyz
'x, y, z'
_cell_length_a     20.154792
_cell_length_b     25.996701
_cell_length_c     90.193908
_cell_angle_alpha  90.237318
_cell_angle_beta   90.23118
_cell_angle_gamma 90.425696
loop_
_atom_site_label
_atom_site_type_symbol
_atom_site_fract_x
_atom_site_fract_y
_atom_site_fract_z
_atom_type_partial_charge
Cu0 Cu 0.2961 0.13521 0.31653 0.0
N1 N 0.30464 0.16701 0.33504 0.0
N2 N 0.29709 0.18476 0.3592 0.0
C3 C 0.26566 0.16498 0.34716 0.0
C4 C 0.3573 0.20013 0.35448 0.0
C5 C 0.36182 0.18906 0.33963 0.0
O6 O 0.20876 0.10277 0.31395 0.0
C7 C 0.40395 0.07194 0.30488 0.0
O8 O 0.37986 0.07803 0.29148 0.0
H9 H 0.21733 0.14663 0.34741 0.0
H10 H 0.40522 0.19414 0.33276 0.0
N11 N 0.3065 0.18549 0.30191 0.0
N12 N 0.32438 0.22169 0.27987 0.0
C13 C 0.3049 0.1788 0.28709 0.0
C14 C 0.32568 0.23473 0.30406 0.0
C15 C 0.3371 0.25707 0.29047 0.0
C16 C 0.1843 0.0678 0.32216 0.0
O17 O 0.21977 0.04894 0.33308 0.0
H18 H 0.29386 0.14248 0.28169 0.0
H19 H 0.33402 0.2525 0.31476 0.0
O20 O 0.37266 0.08917 0.31608 0.0
H21 H 0.39615 0.21616 0.36147 0.0
H22 H 0.35687 0.29527 0.28853 0.0
Cu23 Cu 0.95272 0.7621 0.57471 0.0
N24 N 1.00644 0.82027 0.57515 0.0
N25 N 1.03337 0.90322 0.57522 0.0
C26 C 0.98355 0.86864 0.57496 0.0
C27 C 0.08998 0.87604 0.57563 0.0
C28 C 0.07309 0.82443 0.57561 0.0
O29 O 0.89667 0.7692 0.55743 0.0
C30 C 0.94533 0.75468 0.60483 0.0
O31 O 1.00943 0.74986 0.60278 0.0
H32 H 0.93144 0.87834 0.57461 0.0
H33 H 0.10685 0.79232 0.5759 0.0
N34 N 1.00295 0.70341 0.5716 0.0
N35 N 1.0283 0.62031 0.57009 0.0
C36 C 0.99198 0.65615 0.57717 0.0
C37 C 0.04816 0.6973 0.56082 0.0
C38 C 0.06399 0.64599 0.55987 0.0
C39 C 0.84154 0.7923 0.55664 0.0
O40 O 0.81355 0.81 0.56874 0.0
H41 H 0.95476 0.6476 0.58544 0.0
H42 H 0.06513 0.72759 0.55354 0.0
O43 O 0.90725 0.75909 0.59363 0.0
H44 H 0.13952 0.89238 0.5759 0.0
H45 H 0.09657 0.6284 0.55182 0.0
Cu46 Cu 0.30129 0.42951 0.81282 0.0
N47 N 0.28433 0.39817 0.8311 0.0
N48 N 0.28303 0.37992 0.85527 0.0
C49 C 0.31751 0.40189 0.8441 0.0
C50 C 0.22683 0.36125 0.84908 0.0
C51 C 0.2279 0.37238 0.83419 0.0
O52 O 0.38962 0.46115 0.81213 0.0
C53 C 0.19299 0.49604 0.81908 0.0
O54 O 0.21 0.48883 0.83298 0.0
H55 H 0.36417 0.4222 0.84551 0.0
H56 H 0.18877 0.36447 0.82624 0.0
N57 N 0.29614 0.37892 0.7981 0.0
N58 N 0.27152 0.342 0.77633 0.0
C59 C 0.28612 0.38647 0.78349 0.0
C60 C 0.28931 0.32791 0.80017 0.0
C61 C 0.27386 0.30506 0.78676 0.0
C62 C 0.41017 0.49679 0.82076 0.0
O63 O 0.37034 0.51533 0.83092 0.0
H64 H 0.28451 0.42411 0.77842 0.0
H65 H 0.29153 0.30903 0.81081 0.0
O66 O 0.22898 0.47763 0.80877 0.0
H67 H 0.18709 0.3423 0.85504 0.0
H68 H 0.26183 0.26487 0.78493 0.0
Cu69 Cu 0.59987 0.77574 0.07818 0.0
N70 N 0.5443 0.71838 0.07799 0.0
N71 N 0.51438 0.636 0.07864 0.0
C72 C 0.56434 0.66997 0.08044 0.0
C73 C 0.46052 0.66367 0.075 0.0
C74 C 0.47926 0.71488 0.07459 0.0
O75 O 0.6591 0.76618 0.06156 0.0
C76 C 0.60435 0.77354 0.10865 0.0
O77 O 0.54039 0.76763 0.10626 0.0
H78 H 0.61473 0.65965 0.08325 0.0
H79 H 0.44814 0.74711 0.07174 0.0
N80 N 0.55213 0.83515 0.07416 0.0
N81 N 0.52422 0.91807 0.0737 0.0
C82 C 0.55134 0.87984 0.08179 0.0
C83 C 0.52354 0.84524 0.061 0.0
C84 C 0.50636 0.89632 0.06067 0.0
C85 C 0.70533 0.73333 0.0609 0.0
O86 O 0.72247 0.70785 0.07285 0.0
H87 H 0.5746 0.88525 0.09252 0.0
H88 H 0.51958 0.81806 0.05192 0.0
O89 O 0.64259 0.77995 0.09759 0.0
H90 H 0.4119 0.64782 0.07252 0.0
H91 H 0.48542 0.91666 0.05133 0.0
Cu92 Cu 0.29801 0.42437 0.95975 0.0
N93 N 0.32129 0.39251 0.94191 0.0
N94 N 0.33019 0.37562 0.91772 0.0
C95 C 0.295 0.39995 0.92833 0.0
C96 C 0.38009 0.35183 0.92486 0.0
C97 C 0.37426 0.36211 0.93979 0.0
O98 O 0.21475 0.46196 0.95704 0.0
C99 C 0.41912 0.48258 0.95772 0.0
O100 O 0.41287 0.47643 0.94333 0.0
H101 H 0.25271 0.42429 0.92617 0.0
H102 H 0.40779 0.34997 0.94847 0.0
N103 N 0.2892 0.37424 0.97439 0.0
N104 N 0.30428 0.3373 0.99644 0.0
C105 C 0.29745 0.38204 0.98905 0.0
C106 C 0.28914 0.32285 0.97248 0.0
C107 C 0.29858 0.29995 0.98609 0.0
C108 C 0.15885 0.44128 0.96014 0.0
O109 O 0.15743 0.39469 0.96571 0.0
H110 H 0.30468 0.41969 0.994 0.0
H111 H 0.28731 0.30358 0.96184 0.0
O112 O 0.37296 0.46737 0.96631 0.0
H113 H 0.41863 0.32959 0.91958 0.0
H114 H 0.30532 0.25929 0.9881 0.0
Cu115 Cu 0.6071 0.77376 0.20058 0.0
N116 N 0.54666 0.82725 0.20164 0.0
N117 N 0.51175 0.90823 0.20069 0.0
C118 C 0.56441 0.87689 0.20009 0.0
C119 C 0.45843 0.87744 0.2027 0.0
C120 C 0.48026 0.82709 0.20328 0.0
O121 O 0.6678 0.78728 0.21685 0.0
C122 C 0.65434 0.74546 0.17114 0.0
O123 O 0.65727 0.69727 0.17531 0.0
H124 H 0.61494 0.88979 0.19831 0.0
H125 H 0.44998 0.7929 0.20459 0.0
N126 N 0.56719 0.70982 0.20486 0.0
N127 N 0.53662 0.62678 0.2044 0.0
C128 C 0.54816 0.66956 0.19623 0.0
C129 C 0.56485 0.69203 0.21885 0.0
C130 C 0.54631 0.64109 0.2186 0.0
C131 C 0.71906 0.81595 0.2172 0.0
O132 O 0.74153 0.83658 0.20491 0.0
H133 H 0.54634 0.67039 0.18426 0.0
H134 H 0.57989 0.71391 0.22854 0.0
O135 O 0.64445 0.78059 0.18072 0.0
H136 H 0.40766 0.89042 0.20349 0.0
H137 H 0.54375 0.6156 0.22805 0.0
Cu138 Cu 0.27543 0.11116 0.45969 0.0
N139 N 0.25939 0.15791 0.44458 0.0
N140 N 0.2486 0.18518 0.42128 0.0
C141 C 0.28285 0.15487 0.43066 0.0
C142 C 0.20206 0.20839 0.4296 0.0
C143 C 0.20894 0.19151 0.44401 0.0
O144 O 0.35373 0.07164 0.45383 0.0
C145 C 0.16596 0.04699 0.47111 0.0
O146 O 0.19844 0.04069 0.48362 0.0
H147 H 0.32042 0.12783 0.4272 0.0
H148 H 0.1762 0.19991 0.45316 0.0
N149 N 0.29424 0.14731 0.47728 0.0
N150 N 0.29149 0.17703 0.50055 0.0
C151 C 0.25737 0.15258 0.48964 0.0
C152 C 0.35275 0.17032 0.48046 0.0
C153 C 0.35146 0.18822 0.49483 0.0
C154 C 0.39595 0.05438 0.46308 0.0
O155 O 0.3832 0.05637 0.47733 0.0
H156 H 0.2074 0.13778 0.49083 0.0
H157 H 0.39438 0.17241 0.47298 0.0
O158 O 0.19238 0.0719 0.46052 0.0
H159 H 0.16367 0.23335 0.42538 0.0
H160 H 0.39166 0.20715 0.50076 0.0
Cu161 Cu 0.95072 0.76314 0.69687 0.0
N162 N 1.00752 0.70735 0.69559 0.0
N163 N 0.03837 0.6255 0.69433 0.0
C164 C 0.98719 0.65799 0.69574 0.0
C165 C 0.09324 0.65516 0.69324 0.0
C166 C 0.07393 0.70603 0.69404 0.0
O167 O 0.89066 0.74552 0.71298 0.0
C168 C 0.94505 0.77649 0.6667 0.0
O169 O 1.00853 0.78494 0.66904 0.0
H170 H 0.93581 0.6461 0.69672 0.0
H171 H 0.10581 0.73959 0.69339 0.0
N172 N 0.99855 0.82339 0.70132 0.0
N173 N 1.02645 0.90664 0.70301 0.0
C174 C 0.99045 0.87076 0.69556 0.0
C175 C 0.04229 0.8294 0.71251 0.0
C176 C 0.05908 0.88069 0.71367 0.0
C177 C 0.87778 0.77544 0.72377 0.0
O178 O 0.89853 0.82337 0.7235 0.0
H179 H 0.95651 0.8792 0.68657 0.0
H180 H 0.05876 0.79888 0.71971 0.0
O181 O 0.90718 0.76797 0.67768 0.0
H182 H 0.14321 0.641 0.69187 0.0
H183 H 0.09152 0.89794 0.72193 0.0
Cu184 Cu 0.80561 0.61898 0.81862 0.0
N185 N 0.8224 0.65576 0.83611 0.0
N186 N 0.83029 0.67608 0.86014 0.0
C187 C 0.80041 0.64559 0.84989 0.0
C188 C 0.87223 0.70665 0.85253 0.0
C189 C 0.86671 0.69441 0.83771 0.0
O190 O 0.72298 0.57917 0.82119 0.0
C191 C 0.9393 0.59817 0.81181 0.0
O192 O 0.93973 0.64731 0.80852 0.0
H193 H 0.76523 0.61525 0.85244 0.0
H194 H 0.89472 0.71142 0.82877 0.0
N195 N 0.7952 0.66675 0.80334 0.0
N196 N 0.80112 0.70716 0.78161 0.0
C197 C 0.81491 0.66362 0.7891 0.0
C198 C 0.76755 0.71349 0.80479 0.0
C199 C 0.77134 0.73862 0.7914 0.0
C200 C 0.676 0.57914 0.81165 0.0
O201 O 0.68394 0.60348 0.79905 0.0
H202 H 0.84061 0.63094 0.78444 0.0
H203 H 0.74724 0.72855 0.81499 0.0
O204 O 0.88471 0.57662 0.81553 0.0
H205 H 0.90506 0.73527 0.8574 0.0
H206 H 0.75508 0.77737 0.78908 0.0
Cu207 Cu 0.45083 0.28078 0.08271 0.0
N208 N 0.50822 0.33696 0.08276 0.0
N209 N 0.5396 0.41904 0.08227 0.0
C210 C 0.48916 0.3856 0.0803 0.0
C211 C 0.59259 0.39082 0.08619 0.0
C212 C 0.57293 0.3398 0.0865 0.0
O213 O 0.38883 0.29222 0.06642 0.0
C214 C 0.35313 0.26691 0.10592 0.0
O215 O 0.31093 0.24938 0.09595 0.0
H216 H 0.43883 0.39645 0.07756 0.0
H217 H 0.60302 0.30734 0.08967 0.0
N218 N 0.49773 0.21986 0.07966 0.0
N219 N 0.52211 0.13634 0.07813 0.0
C220 C 0.48046 0.17182 0.0838 0.0
C221 C 0.55297 0.21454 0.07146 0.0
C222 C 0.56774 0.16314 0.07039 0.0
C223 C 0.41493 0.29451 0.05359 0.0
O224 O 0.47893 0.28679 0.05233 0.0
H225 H 0.43702 0.16285 0.09035 0.0
H226 H 0.57964 0.24579 0.06625 0.0
O227 O 0.41114 0.2809 0.10218 0.0
H228 H 0.64115 0.40618 0.08896 0.0
H229 H 0.60826 0.14646 0.06421 0.0
Cu230 Cu 0.79097 0.94484 0.31455 0.0
N231 N 0.76776 0.90769 0.3315 0.0
N232 N 0.75773 0.88484 0.35524 0.0
C233 C 0.79298 0.91252 0.34531 0.0
C234 C 0.70889 0.86157 0.3474 0.0
C235 C 0.71544 0.87551 0.33274 0.0
O236 O 0.87277 0.98443 0.31871 0.0
C237 C 0.66937 0.99964 0.31788 0.0
O238 O 0.67812 0.99153 0.3321 0.0
H239 H 0.83434 0.93752 0.34816 0.0
H240 H 0.6826 0.86486 0.32371 0.0
N241 N 0.80718 0.89825 0.29914 0.0
N242 N 0.80602 0.86135 0.27673 0.0
C243 C 0.77773 0.89659 0.2857 0.0
C244 C 0.85487 0.86231 0.29871 0.0
C245 C 0.85481 0.83987 0.28483 0.0
C246 C 0.91835 0.99099 0.30908 0.0
O247 O 0.90888 0.97472 0.29543 0.0
H248 H 0.73756 0.92157 0.28242 0.0
H249 H 0.88818 0.85379 0.30778 0.0
O250 O 0.71427 0.98643 0.30871 0.0
H251 H 0.6704 0.8373 0.35203 0.0
H252 H 0.888 0.81022 0.28094 0.0
Cu253 Cu 0.089 0.25862 0.57592 0.0
N254 N 1.03247 0.20213 0.57472 0.0
N255 N 1.00196 0.11987 0.57416 0.0
C256 C 0.0515 0.15337 0.57697 0.0
C257 C 0.94934 0.14817 0.57005 0.0
C258 C 0.9684 0.19934 0.57043 0.0
O259 O 0.15299 0.24944 0.56024 0.0
C260 C 0.16123 0.29369 0.60195 0.0
O261 O 0.18695 0.33041 0.59379 0.0
H262 H 0.10116 0.14246 0.5802 0.0
H263 H 0.93828 0.23196 0.56744 0.0
N264 N 0.04324 0.31834 0.57115 0.0
N265 N 1.01973 0.40166 0.56899 0.0
C266 C 0.04625 0.36501 0.5777 0.0
C267 C 1.01291 0.32584 0.55802 0.0
C268 C 0.99829 0.37718 0.55666 0.0
C269 C 0.19868 0.21616 0.55969 0.0
O270 O 0.21328 0.18905 0.57151 0.0
H271 H 0.07169 0.37288 0.58805 0.0
H272 H 1.00617 0.29651 0.5496 0.0
O273 O 0.12315 0.26007 0.59609 0.0
H274 H 0.90152 0.13282 0.56668 0.0
H275 H 0.9769 0.39569 0.54705 0.0
Cu276 Cu 0.7752 0.9232 0.46078 0.0
N277 N 0.79399 0.89309 0.44233 0.0
N278 N 0.79826 0.87716 0.41798 0.0
C279 C 0.76258 0.89778 0.42916 0.0
C280 C 0.85321 0.85787 0.42435 0.0
C281 C 0.85018 0.86737 0.43935 0.0
O282 O 0.69109 0.96028 0.46099 0.0
C283 C 0.89581 0.98152 0.45848 0.0
O284 O 0.88414 0.98034 0.44416 0.0
H285 H 0.71616 0.91763 0.42762 0.0
H286 H 0.88804 0.85858 0.44747 0.0
N287 N 0.76263 0.87124 0.47466 0.0
N288 N 0.76266 0.8316 0.49655 0.0
C289 C 0.79274 0.86712 0.48795 0.0
C290 C 0.71211 0.83708 0.47485 0.0
C291 C 0.71192 0.81256 0.48838 0.0
C292 C 0.66662 0.99094 0.45149 0.0
O293 O 0.70183 1.00509 0.43996 0.0
H294 H 0.8331 0.89183 0.49162 0.0
H295 H 0.67563 0.83263 0.4661 0.0
O296 O 0.85273 0.9634 0.46741 0.0
H297 H 0.89359 0.83977 0.41847 0.0
H298 H 0.67583 0.7846 0.4922 0.0
Cu299 Cu 0.10344 0.26925 0.69282 0.0
N300 N 0.04683 0.32558 0.69234 0.0
N301 N 1.01541 0.40746 0.69218 0.0
C302 C 0.06663 0.37495 0.69354 0.0
C303 C 0.96108 0.37783 0.69001 0.0
C304 C 0.98073 0.32698 0.69011 0.0
O305 O 0.17111 0.28538 0.70775 0.0
C306 C 0.17171 0.29425 0.66621 0.0
O307 O 0.19399 0.33429 0.67367 0.0
H308 H 0.11769 0.38691 0.6952 0.0
H309 H 0.94935 0.2935 0.68847 0.0
N310 N 0.05718 0.20951 0.69834 0.0
N311 N 1.03098 0.12636 0.70121 0.0
C312 C 0.06835 0.1609 0.69372 0.0
C313 C 1.00999 0.20551 0.7088 0.0
C314 C 0.99431 0.15437 0.71071 0.0
C315 C 0.14869 0.29662 0.72056 0.0
O316 O 0.08426 0.29588 0.7226 0.0
H317 H 0.10466 0.15086 0.6854 0.0
H318 H 0.98905 0.23746 0.71484 0.0
O319 O 0.13639 0.26057 0.67274 0.0
H320 H 0.91126 0.39202 0.68835 0.0
H321 H 0.95911 0.13874 0.71857 0.0
Cu322 Cu 0.79972 0.60705 0.96338 0.0
N323 N 0.7915 0.64876 0.94667 0.0
N324 N 0.79137 0.67233 0.92287 0.0
C325 C 0.82529 0.64832 0.93378 0.0
C326 C 0.7353 0.68952 0.92921 0.0
C327 C 0.73569 0.67515 0.94385 0.0
O328 O 0.87857 0.56365 0.96273 0.0
C329 C 0.68489 0.54768 0.9742 0.0
O330 O 0.71282 0.54406 0.98733 0.0
H331 H 0.87099 0.62766 0.93206 0.0
H332 H 0.69544 0.67978 0.95163 0.0
N333 N 0.8114 0.64883 0.98013 0.0
N334 N 0.80227 0.6841 1.00263 0.0
C335 C 0.77069 0.65796 0.99167 0.0
C336 C 0.86995 0.67056 0.98391 0.0
C337 C 0.86456 0.69221 0.9978 0.0
C338 C 0.90079 0.537 0.95199 0.0
O339 O 0.86642 0.53309 0.93963 0.0
H340 H 0.72016 0.64395 0.99237 0.0
H341 H 0.91441 0.66866 0.97726 0.0
O342 O 0.7154 0.5696 0.96362 0.0
H343 H 0.6952 0.70841 0.92341 0.0
H344 H 0.90379 0.71085 1.00411 0.0
Cu345 Cu 0.44987 0.26546 0.19179 0.0
N346 N 0.50441 0.20777 0.19175 0.0
N347 N 0.53202 0.12507 0.19309 0.0
C348 C 0.48364 0.15982 0.19503 0.0
C349 C 0.5853 0.15172 0.1883 0.0
C350 C 0.56801 0.20299 0.18744 0.0
O351 O 0.39119 0.25701 0.2087 0.0
C352 C 0.35368 0.28691 0.16866 0.0
O353 O 0.31915 0.31361 0.17827 0.0
H354 H 0.43359 0.1504 0.19844 0.0
H355 H 0.59901 0.23428 0.18358 0.0
N356 N 0.4987 0.32677 0.19404 0.0
N357 N 0.5233 0.41064 0.19586 0.0
C358 C 0.47833 0.37516 0.19121 0.0
C359 C 0.55879 0.33205 0.20047 0.0
C360 C 0.57401 0.38363 0.20162 0.0
C361 C 0.42085 0.25501 0.22119 0.0
O362 O 0.48565 0.26056 0.22159 0.0
H363 H 0.43061 0.38431 0.18639 0.0
H364 H 0.58846 0.30062 0.20456 0.0
O365 O 0.40651 0.26447 0.17263 0.0
H366 H 0.63261 0.13511 0.18539 0.0
H367 H 0.61819 0.40024 0.20662 0.0
C368 C 0.99528 0.06283 0.31749 0.0
C369 C 0.98545 1.01042 0.31352 0.0
C370 C 0.10609 0.9965 0.31451 0.0
C371 C 0.11573 0.04804 0.31932 0.0
N372 N 0.06929 0.12816 0.32775 0.0
N373 N 1.02977 0.92489 0.31119 0.0
C374 C 0.06019 0.08067 0.32146 0.0
C375 C 0.04044 0.97657 0.31288 0.0
N376 N 0.94301 0.09598 0.31692 0.0
N377 N 0.15971 0.96712 0.3109 0.0
H378 H 0.98251 0.90877 0.31016 0.0
H379 H 0.06698 0.89755 0.31224 0.0
H380 H 0.20855 0.98027 0.31191 0.0
H381 H 0.15584 0.93139 0.3057 0.0
H382 H 0.94803 0.13571 0.31798 0.0
H383 H 0.89479 0.0841 0.31432 0.0
H384 H 1.03046 0.1516 0.33112 0.0
H385 H 0.1159 0.14264 0.3307 0.0
C386 C 0.96381 0.53867 0.56881 0.0
C387 C 1.02439 0.56521 0.57156 0.0
C388 C 0.08293 0.48321 0.57258 0.0
C389 C 1.02147 0.45662 0.57113 0.0
N390 N 0.90233 0.45884 0.57149 0.0
N391 N 0.13811 0.56281 0.57961 0.0
C392 C 0.96148 0.48443 0.57045 0.0
C393 C 0.08286 0.53736 0.57463 0.0
N394 N 0.90979 0.56457 0.56365 0.0
N395 N 0.14133 0.45753 0.57098 0.0
H396 H 0.13871 0.60245 0.58149 0.0
H397 H 0.18058 0.54401 0.58328 0.0
H398 H 0.14365 0.41846 0.56846 0.0
H399 H 0.18728 0.47609 0.57057 0.0
H400 H 0.86635 0.54614 0.56016 0.0
H401 H 0.91066 0.60379 0.56135 0.0
H402 H 0.85694 0.47754 0.57235 0.0
H403 H 0.89952 0.41912 0.57303 0.0
C404 C 0.55419 0.59167 0.81585 0.0
C405 C 0.60918 0.55787 0.81532 0.0
C406 C 0.53454 0.48493 0.82053 0.0
C407 C 0.47885 0.51792 0.81918 0.0
N408 N 0.43536 0.60159 0.81318 0.0
N409 N 0.65147 0.47144 0.81552 0.0
C410 C 0.48858 0.57108 0.81627 0.0
C411 C 0.59938 0.50422 0.81729 0.0
N412 N 0.56475 0.64367 0.81641 0.0
N413 N 0.52581 0.43567 0.82544 0.0
H414 H 0.69963 0.48417 0.81333 0.0
H415 H 0.64611 0.43158 0.8151 0.0
H416 H 0.47942 0.42043 0.82815 0.0
H417 H 0.56494 0.41146 0.82813 0.0
H418 H 0.52715 0.67007 0.81838 0.0
H419 H 0.61205 0.66025 0.81641 0.0
H420 H 0.43995 0.63921 0.80936 0.0
H421 H 0.38656 0.58799 0.81304 0.0
C422 C 0.46143 0.05335 0.07451 0.0
C423 C 0.51874 0.08098 0.07926 0.0
C424 C 0.58048 1.00042 0.08061 0.0
C425 C 0.52179 0.97239 0.07707 0.0
N426 N 0.4029 0.97162 0.07472 0.0
N427 N 0.62599 0.07911 0.09102 0.0
C428 C 0.461 0.9988 0.0754 0.0
C429 C 0.57601 0.0538 0.08373 0.0
N430 N 0.40938 0.07848 0.06817 0.0
N431 N 0.64105 0.97741 0.0799 0.0
H432 H 0.62274 0.11792 0.09391 0.0
H433 H 0.6667 0.06029 0.09559 0.0
H434 H 0.64742 0.93955 0.07642 0.0
H435 H 0.68552 0.99774 0.0811 0.0
H436 H 0.36921 0.05932 0.0633 0.0
H437 H 0.40944 0.11798 0.06632 0.0
H438 H 0.35652 0.9891 0.07473 0.0
H439 H 0.40126 0.93168 0.07579 0.0
C440 C 0.08357 0.51888 0.96201 0.0
C441 C 0.09487 0.46787 0.95696 0.0
C442 C 0.97775 0.46098 0.94939 0.0
C443 C 0.96799 0.5134 0.95321 0.0
N444 N 1.01788 0.59579 0.95921 0.0
N445 N 0.0567 0.3962 0.94198 0.0
C446 C 1.02277 0.54346 0.95836 0.0
C447 C 0.04312 0.44064 0.94949 0.0
N448 N 0.12916 0.54325 0.97088 0.0
N449 N 0.9246 0.42971 0.94633 0.0
H450 H 0.10449 0.38139 0.9411 0.0
H451 H 1.02206 0.37745 0.93522 0.0
H452 H 0.87566 0.44234 0.94668 0.0
H453 H 0.92873 0.39004 0.94498 0.0
H454 H 0.11994 0.5783 0.97609 0.0
H455 H 0.17338 0.52631 0.97426 0.0
H456 H 0.05828 0.61975 0.96157 0.0
H457 H 0.97565 0.61568 0.95588 0.0
C458 C 0.46962 0.49203 0.20396 0.0
C459 C 0.51883 0.46612 0.19562 0.0
C460 C 0.5776 0.54788 0.19178 0.0
C461 C 0.52679 0.57422 0.19951 0.0
N462 N 0.41719 0.57345 0.20977 0.0
N463 N 0.60868 0.47093 0.17828 0.0
C464 C 0.47016 0.54679 0.20447 0.0
C465 C 0.56906 0.49479 0.18838 0.0
N466 N 0.42539 0.46453 0.21224 0.0
N467 N 0.63615 0.57223 0.18872 0.0
H468 H 0.6024 0.43221 0.17546 0.0
H469 H 0.64261 0.49063 0.17167 0.0
H470 H 0.64613 0.6101 0.19182 0.0
H471 H 0.67725 0.55329 0.18443 0.0
H472 H 0.3928 0.48148 0.21971 0.0
H473 H 0.4252 0.42451 0.21268 0.0
H474 H 0.372 0.55616 0.21242 0.0
H475 H 0.41673 0.6136 0.21012 0.0
C476 C 0.48039 0.98472 0.45915 0.0
C477 C 0.46272 0.03728 0.4581 0.0
C478 C 0.57884 0.06003 0.4527 0.0
C479 C 0.59595 1.00714 0.453 0.0
N480 N 0.55917 0.9185 0.45259 0.0
N481 N 0.49191 0.12353 0.45057 0.0
C482 C 0.54558 0.96924 0.45512 0.0
C483 C 0.51086 0.07441 0.45372 0.0
N484 N 0.43499 0.94952 0.4641 0.0
N485 N 0.62764 0.09681 0.45237 0.0
H486 H 0.44302 0.13591 0.45134 0.0
H487 H 0.52351 0.1507 0.44583 0.0
H488 H 0.67802 0.08816 0.45206 0.0
H489 H 0.61863 0.1359 0.45384 0.0
H490 H 0.44719 0.91188 0.46686 0.0
H491 H 0.38573 0.95883 0.46631 0.0
H492 H 0.52305 0.88965 0.45257 0.0
H493 H 0.60524 0.90574 0.44892 0.0
C494 C 0.09056 0.04267 0.70158 0.0
C495 C 1.0309 0.07083 0.70001 0.0
C496 C 0.96735 0.9902 0.70097 0.0
C497 C 1.02724 0.96182 0.70097 0.0
N498 N 0.14535 0.96159 0.69708 0.0
N499 N 0.91445 0.06975 0.69394 0.0
C500 C 0.08878 0.98831 0.69992 0.0
C501 C 0.96984 0.04399 0.69832 0.0
N502 N 0.14809 0.06707 0.70561 0.0
N503 N 0.90864 0.96684 0.70446 0.0
H504 H 0.91557 0.10873 0.69123 0.0
H505 H 0.86979 0.0512 0.69139 0.0
H506 H 0.90523 0.9285 0.70768 0.0
H507 H 0.86467 0.98713 0.70585 0.0
H508 H 0.19147 0.04734 0.70816 0.0
H509 H 0.15063 0.10623 0.70805 0.0
H510 H 0.1908 0.97953 0.69502 0.0
H511 H 0.14503 0.922 0.69513 0.0
C512 C 0.58663 0.07129 0.31605 0.0
C513 C 0.60436 1.01985 0.31267 0.0
C514 C 0.49061 1.00231 0.30376 0.0
C515 C 0.4735 0.05408 0.30686 0.0
N516 N 0.50873 0.14089 0.31246 0.0
N517 N 0.5771 0.93828 0.30121 0.0
C518 C 0.52257 0.08947 0.31202 0.0
C519 C 0.55761 0.98607 0.30576 0.0
N520 N 0.63087 0.10269 0.32331 0.0
N521 N 0.44206 0.9681 0.2996 0.0
H522 H 0.62454 0.92396 0.30309 0.0
H523 H 0.54791 0.91397 0.29466 0.0
H524 H 0.39283 0.97881 0.29792 0.0
H525 H 0.44916 0.92859 0.29879 0.0
H526 H 0.61829 0.13823 0.32782 0.0
H527 H 0.67964 0.09197 0.32557 0.0
H528 H 0.54418 0.16927 0.31465 0.0
H529 H 0.46301 0.15587 0.30925 0.0
C530 C 1.01449 0.98483 0.58835 0.0
C531 C 1.0265 0.95806 0.57496 0.0
C532 C 1.02278 0.03849 0.56101 0.0
C533 C 1.00726 0.0649 0.57429 0.0
N534 N 0.982 0.06489 0.60025 0.0
N535 N 0.03439 0.9563 0.54841 0.0
C536 C 1.00129 0.03844 0.5879 0.0
C537 C 1.02855 0.98408 0.56122 0.0
N538 N 1.01712 0.95875 0.60146 0.0
N539 N 1.0339 0.06589 0.54836 0.0
H540 H 0.0399 0.9164 0.54837 0.0
H541 H 1.0297 0.97199 0.53787 0.0
H542 H 1.02912 0.1058 0.54792 0.0
H543 H 0.05191 0.04986 0.5386 0.0
H544 H 1.01407 0.97613 0.61183 0.0
H545 H 1.02646 0.91935 0.60195 0.0
H546 H 0.97131 0.04775 0.61036 0.0
H547 H 0.97271 0.10434 0.60008 0.0
C548 C 0.11894 0.57199 0.82249 0.0
C549 C 0.12995 0.52346 0.81577 0.0
C550 C 1.01724 0.52566 0.80511 0.0
C551 C 1.00391 0.57101 0.81336 0.0
N552 N 0.03833 0.63065 0.83258 0.0
N553 N 0.08521 0.44957 0.80264 0.0
C554 C 0.05382 0.59244 0.82276 0.0
C555 C 0.07806 0.49907 0.80752 0.0
N556 N 0.17114 0.59934 0.8283 0.0
N557 N 0.97275 0.50872 0.79468 0.0
H558 H 0.128 0.42816 0.80439 0.0
H559 H 0.04651 0.42811 0.79799 0.0
H560 H 0.92782 0.52711 0.79265 0.0
H561 H 0.98294 0.47921 0.7872 0.0
H562 H 0.16706 0.63719 0.83202 0.0
H563 H 0.21994 0.58625 0.82794 0.0
H564 H 0.0711 0.64398 0.84072 0.0
H565 H 0.99054 0.64504 0.83374 0.0
C566 C 0.53689 0.55273 0.06667 0.0
C567 C 0.5196 0.58109 0.07951 0.0
C568 C 0.51575 0.50217 0.09419 0.0
C569 C 0.53535 0.47403 0.08149 0.0
N570 N 0.56944 0.47043 0.05607 0.0
N571 N 0.49887 0.5859 0.10564 0.0
C572 C 0.54734 0.49883 0.06781 0.0
C573 C 0.51071 0.55659 0.09333 0.0
N574 N 0.54243 0.57775 0.05343 0.0
N575 N 0.50068 0.47633 0.10691 0.0
H576 H 0.49331 0.62575 0.10513 0.0
H577 H 0.49791 0.57159 0.11638 0.0
H578 H 0.50594 0.43658 0.10788 0.0
H579 H 0.47998 0.49342 0.11624 0.0
H580 H 0.55028 0.55957 0.04331 0.0
H581 H 0.53631 0.61742 0.05247 0.0
H582 H 0.58381 0.48584 0.04596 0.0
H583 H 0.57649 0.43077 0.05672 0.0
C584 C 0.50322 0.55269 0.9625 0.0
C585 C 0.48404 0.50035 0.96385 0.0
C586 C 0.59597 0.4788 0.97286 0.0
C587 C 0.61455 0.53143 0.97185 0.0
N588 N 0.58213 0.61999 0.96909 0.0
N589 N 0.50794 0.41454 0.97238 0.0
C590 C 0.567 0.56884 0.96764 0.0
C591 C 0.52901 0.46381 0.96981 0.0
N592 N 0.46081 0.58685 0.95605 0.0
N593 N 0.64321 0.44277 0.97586 0.0
H594 H 0.46066 0.4012 0.96955 0.0
H595 H 0.53549 0.38772 0.97827 0.0
H596 H 0.69254 0.45223 0.97818 0.0
H597 H 0.63502 0.40329 0.97503 0.0
H598 H 0.47465 0.62399 0.95301 0.0
H599 H 0.41244 0.57706 0.95291 0.0
H600 H 0.54776 0.64924 0.96762 0.0
H601 H 0.62768 0.63328 0.97315 0.0
C602 C 0.53173 0.99472 0.21115 0.0
C603 C 0.51333 0.96321 0.19895 0.0
C604 C 0.50433 0.03912 0.18305 0.0
C605 C 0.52632 0.07031 0.19503 0.0
N606 N 0.56599 0.07949 0.22001 0.0
N607 N 0.48926 0.95282 0.17302 0.0
C608 C 0.54137 0.0485 0.20899 0.0
C609 C 0.50126 0.98477 0.18481 0.0
N610 N 0.53894 0.97282 0.2248 0.0
N611 N 0.4856 0.06193 0.17009 0.0
H612 H 0.48611 0.91294 0.17411 0.0
H613 H 0.48639 0.96517 0.16208 0.0
H614 H 0.48935 0.10154 0.16843 0.0
H615 H 0.46296 0.04237 0.16132 0.0
H616 H 0.5474 0.99348 0.23453 0.0
H617 H 0.53246 0.93344 0.22652 0.0
H618 H 0.5832 0.06617 0.23016 0.0
H619 H 0.57248 0.11904 0.21864 0.0
C620 C 1.0091 0.9628 0.46906 0.0
C621 C 0.96215 0.9993 0.46389 0.0
C622 C 0.04597 0.06791 0.46655 0.0
C623 C 0.09509 0.03049 0.46972 0.0
N624 N 0.1252 0.9416 0.4727 0.0
N625 N 0.93616 0.08618 0.45686 0.0
C626 C 0.07699 0.97777 0.47084 0.0
C627 C 0.98073 0.05177 0.46241 0.0
N628 N 0.98909 0.91362 0.47211 0.0
N629 N 0.06102 0.11906 0.4681 0.0
H630 H 0.88673 0.07662 0.45465 0.0
H631 H 0.94897 0.1234 0.45369 0.0
H632 H 0.10753 0.13238 0.47156 0.0
H633 H 1.02594 0.14814 0.4674 0.0
H634 H 1.01891 0.88699 0.47751 0.0
H635 H 0.94087 0.90026 0.47031 0.0
H636 H 0.11656 0.90217 0.47184 0.0
H637 H 0.17531 0.95091 0.47397 0.0
C638 C 1.01726 0.48826 0.70651 0.0
C639 C 1.0192 0.46266 0.69265 0.0
C640 C 1.03198 0.54505 0.67985 0.0
C641 C 1.03406 0.57034 0.69377 0.0
N642 N 0.03517 0.56773 0.72035 0.0
N643 N 0.03436 0.46412 0.66628 0.0
C644 C 1.02842 0.54233 0.70713 0.0
C645 C 1.02816 0.49043 0.67933 0.0
N646 N 1.0034 0.4606 0.71898 0.0
N647 N 1.0318 0.5737 0.66718 0.0
H648 H 1.02979 0.4242 0.66564 0.0
H649 H 0.04754 0.48117 0.65629 0.0
H650 H 0.03564 0.61375 0.66734 0.0
H651 H 1.02386 0.55844 0.65664 0.0
H652 H 0.99574 0.4769 0.72938 0.0
H653 H 0.99553 0.42088 0.71871 0.0
H654 H 0.03736 0.54955 0.73059 0.0
H655 H 0.04289 0.60742 0.72098 0.0
C656 C 0.27364 0.23246 0.38223 0.0
C657 C 0.27578 0.18507 0.37444 0.0
C658 C 0.24505 0.13977 0.39715 0.0
C659 C 0.25377 0.18596 0.40535 0.0
N660 N 0.28413 0.27564 0.40599 0.0
N661 N 0.27489 0.09227 0.3751 0.0
C662 C 0.26964 0.23237 0.39795 0.0
C663 C 0.26402 0.13823 0.38202 0.0
N664 N 0.27465 0.27746 0.37449 0.0
N665 N 0.21707 0.09779 0.40376 0.0
H666 H 0.29195 0.08944 0.36425 0.0
H667 H 0.27335 0.05716 0.38062 0.0
H668 H 0.2 0.09856 0.41466 0.0
H669 H 0.20424 0.0644 0.39796 0.0
H670 H 0.26754 0.31333 0.3794 0.0
H671 H 0.27605 0.27828 0.36292 0.0
H672 H 0.30241 0.30936 0.40128 0.0
H673 H 0.28342 0.27636 0.41755 0.0
C674 C 0.91406 0.71599 0.62903 0.0
C675 C 0.92078 0.76049 0.62017 0.0
C676 C 0.91516 0.8151 0.64235 0.0
C677 C 0.92142 0.77058 0.65122 0.0
N678 N 0.92351 0.67829 0.65354 0.0
N679 N 0.92322 0.85266 0.61778 0.0
C680 C 0.9183 0.72077 0.64473 0.0
C681 C 0.9185 0.81026 0.62665 0.0
N682 N 0.90434 0.66933 0.62231 0.0
N683 N 0.90656 0.86179 0.64906 0.0
H684 H 0.92288 0.8502 0.60623 0.0
H685 H 0.92962 0.88998 0.62177 0.0
H686 H 0.9036 0.86574 0.66057 0.0
H687 H 0.89682 0.89563 0.64336 0.0
H688 H 0.89402 0.6355 0.62801 0.0
H689 H 0.90083 0.66545 0.61081 0.0
H690 H 0.92953 0.6411 0.64948 0.0
H691 H 0.92443 0.68046 0.66508 0.0
C692 C 0.30486 0.42598 0.87898 0.0
C693 C 0.29907 0.37929 0.87087 0.0
C694 C 0.30734 0.33063 0.89401 0.0
C695 C 0.31958 0.37698 0.9019 0.0
N696 N 0.34514 0.46757 0.90138 0.0
N697 N 0.30831 0.28718 0.87018 0.0
C698 C 0.32274 0.42441 0.89423 0.0
C699 C 0.30437 0.33154 0.87827 0.0
N700 N 0.29009 0.47158 0.87233 0.0
N701 N 0.2958 0.28616 0.9016 0.0
H702 H 0.30829 0.287 0.85861 0.0
H703 H 0.31822 0.25149 0.87487 0.0
H704 H 0.29524 0.28472 0.91315 0.0
H705 H 0.28046 0.25204 0.8965 0.0
H706 H 0.28725 0.50626 0.87811 0.0
H707 H 0.27418 0.474 0.86135 0.0
H708 H 0.35436 0.50223 0.89598 0.0
H709 H 0.36103 0.46724 0.91239 0.0
C710 C 0.594 0.80364 0.13474 0.0
C711 C 0.62891 0.77376 0.12424 0.0
C712 C 0.69299 0.73575 0.14463 0.0
C713 C 0.64882 0.758 0.15505 0.0
N714 N 0.54582 0.80402 0.15907 0.0
N715 N 0.70792 0.70629 0.11934 0.0
C716 C 0.59657 0.79003 0.14991 0.0
C717 C 0.67811 0.73878 0.12917 0.0
N718 N 0.55788 0.845 0.1302 0.0
N719 N 0.74963 0.71249 0.14944 0.0
H720 H 0.69824 0.70665 0.10799 0.0
H721 H 0.73837 0.67616 0.12263 0.0
H722 H 0.76285 0.7108 0.16062 0.0
H723 H 0.78652 0.69977 0.14227 0.0
H724 H 0.53619 0.87073 0.1376 0.0
H725 H 0.55621 0.85672 0.11915 0.0
H726 H 0.50411 0.82363 0.15532 0.0
H727 H 0.54041 0.79057 0.16986 0.0
C728 C 0.83139 0.62861 0.88395 0.0
C729 C 0.82197 0.67499 0.87603 0.0
C730 C 0.80543 0.72055 0.89954 0.0
C731 C 0.80534 0.67306 0.90718 0.0
N732 N 0.80154 0.58027 0.90577 0.0
N733 N 0.78598 0.76318 0.87615 0.0
C734 C 0.8139 0.62648 0.89917 0.0
C735 C 0.80521 0.72059 0.88379 0.0
N736 N 0.85922 0.58717 0.87711 0.0
N737 N 0.80721 0.7656 0.90735 0.0
H738 H 0.78153 0.76357 0.86463 0.0
H739 H 0.76761 0.79605 0.8813 0.0
H740 H 0.8098 0.76661 0.9189 0.0
H741 H 0.81311 0.8014 0.90235 0.0
H742 H 0.87231 0.55388 0.88279 0.0
H743 H 0.87605 0.58833 0.8662 0.0
H744 H 0.80164 0.54552 0.89996 0.0
H745 H 0.78359 0.57711 0.91654 0.0
C746 C 0.32175 0.23498 0.1464 0.0
C747 C 0.33441 0.28404 0.1528 0.0
C748 C 0.33435 0.32255 0.12804 0.0
C749 C 0.33414 0.27257 0.12169 0.0
N750 N 0.32901 0.18048 0.12457 0.0
N751 N 0.35541 0.37497 0.14985 0.0
C752 C 0.32684 0.22851 0.13077 0.0
C753 C 0.34005 0.32823 0.14368 0.0
N754 N 0.30486 0.1947 0.15535 0.0
N755 N 0.32917 0.36451 0.11903 0.0
H756 H 0.35924 0.38102 0.16125 0.0
H757 H 0.36855 0.40717 0.14366 0.0
H758 H 0.32462 0.36127 0.10753 0.0
H759 H 0.32299 0.40186 0.12298 0.0
H760 H 0.28932 0.15894 0.15135 0.0
H761 H 0.30037 0.19867 0.16682 0.0
H762 H 0.33228 0.14683 0.13074 0.0
H763 H 0.33148 0.17428 0.11316 0.0
C764 C 0.77871 0.83537 0.37818 0.0
C765 C 0.76695 0.88307 0.37112 0.0
C766 C 0.78002 0.9275 0.39499 0.0
C767 C 0.78485 0.87936 0.40225 0.0
N768 N 0.77556 0.78718 0.40113 0.0
N769 N 0.7409 0.97303 0.37333 0.0
C770 C 0.78029 0.83313 0.39393 0.0
C771 C 0.76313 0.9288 0.37968 0.0
N772 N 0.7911 0.79267 0.36981 0.0
N773 N 0.79479 0.97184 0.40251 0.0
H774 H 0.72539 0.97472 0.3623 0.0
H775 H 0.73128 1.00637 0.37938 0.0
H776 H 0.81052 0.97223 0.41353 0.0
H777 H 0.79813 1.00759 0.39738 0.0
H778 H 0.80611 0.7578 0.37433 0.0
H779 H 0.79274 0.79356 0.35826 0.0
H780 H 0.76607 0.75242 0.39571 0.0
H781 H 0.77455 0.78463 0.41266 0.0
C782 C 0.22877 0.28404 0.64154 0.0
C783 C 0.17095 0.29586 0.64976 0.0
C784 C 0.10756 0.30675 0.62671 0.0
C785 C 0.16583 0.29644 0.61839 0.0
N786 N 0.28362 0.28155 0.61756 0.0
N787 N 0.05935 0.32858 0.65044 0.0
C788 C 0.22714 0.28726 0.62573 0.0
C789 C 0.11144 0.30991 0.64241 0.0
N790 N 0.28439 0.26801 0.64886 0.0
N791 N 0.04807 0.31325 0.61962 0.0
H792 H 0.05997 0.33148 0.66195 0.0
H793 H 1.01769 0.34549 0.64572 0.0
H794 H 0.04318 0.31604 0.60816 0.0
H795 H 1.00257 0.31315 0.62504 0.0
H796 H 0.32623 0.25361 0.64361 0.0
H797 H 0.28725 0.26614 0.6604 0.0
H798 H 0.33103 0.28009 0.62214 0.0
H799 H 0.28364 0.28127 0.606 0.0
C800 C 0.39663 0.19745 0.25898 0.0
C801 C 0.34244 0.22591 0.26449 0.0
C802 C 0.33389 0.27168 0.24081 0.0
C803 C 0.38602 0.241 0.23509 0.0
N804 N 0.45231 0.16445 0.23732 0.0
N805 N 0.25098 0.28245 0.26008 0.0
C806 C 0.41253 0.2005 0.24374 0.0
C807 C 0.30821 0.26056 0.25517 0.0
N808 N 0.43577 0.17017 0.26847 0.0
N809 N 0.31158 0.31302 0.23299 0.0
H810 H 0.23161 0.2747 0.27056 0.0
H811 H 0.2201 0.30445 0.25338 0.0
H812 H 0.32922 0.32254 0.2225 0.0
H813 H 0.27893 0.34 0.23732 0.0
H814 H 0.47982 0.15275 0.26523 0.0
H815 H 0.42829 0.16962 0.27989 0.0
H816 H 0.4681 0.13151 0.24282 0.0
H817 H 0.46326 0.16459 0.22604 0.0
C818 C 0.79623 0.77095 0.51622 0.0
C819 C 0.77671 0.82089 0.51191 0.0
C820 C 0.79766 0.85273 0.5371 0.0
C821 C 0.81255 0.80185 0.54173 0.0
N822 N 0.81031 0.71077 0.5364 0.0
N823 N 0.74148 0.90564 0.51901 0.0
C824 C 0.80693 0.76035 0.53149 0.0
C825 C 0.772 0.86067 0.52261 0.0
N826 N 0.80752 0.73433 0.50566 0.0
N827 N 0.81183 0.8939 0.54607 0.0
H828 H 0.7201 0.91183 0.50862 0.0
H829 H 0.73113 0.93427 0.52676 0.0
H830 H 0.83312 0.89053 0.55656 0.0
H831 H 0.80849 0.93187 0.5425 0.0
H832 H 0.82839 0.69872 0.50801 0.0
H833 H 0.80175 0.74136 0.49436 0.0
H834 H 0.80062 0.67899 0.52964 0.0
H835 H 0.81597 0.70153 0.54758 0.0
C836 C 0.24583 0.28456 0.7383 0.0
C837 C 0.19172 0.31427 0.73306 0.0
C838 C 0.19123 0.36293 0.75634 0.0
C839 C 0.24753 0.3355 0.76131 0.0
N840 N 0.33867 0.27993 0.75548 0.0
N841 N 0.13016 0.39321 0.73506 0.0
C842 C 0.27823 0.29943 0.75175 0.0
C843 C 0.17035 0.35738 0.74142 0.0
N844 N 0.26394 0.24069 0.73104 0.0
N845 N 0.1544 0.39118 0.76605 0.0
H846 H 0.11636 0.39134 0.72391 0.0
H847 H 0.11742 0.42746 0.74035 0.0
H848 H 0.16412 0.3926 0.77739 0.0
H849 H 0.10951 0.40808 0.76311 0.0
H850 H 0.29808 0.21477 0.73535 0.0
H851 H 0.24141 0.22803 0.72126 0.0
H852 H 0.36632 0.25687 0.74837 0.0
H853 H 0.36393 0.29124 0.76509 0.0
C854 C 0.77326 0.74814 1.02181 0.0
C855 C 0.7778 0.69616 1.01723 0.0
C856 C 0.73153 0.6683 0.04096 0.0
C857 C 0.73358 0.72003 0.04618 0.0
N858 N 0.76816 0.80811 0.04239 0.0
N859 N 0.77571 0.60634 1.02356 0.0
C860 C 0.75779 0.75974 0.03682 0.0
C861 C 0.76112 0.65606 1.02714 0.0
N862 N 0.78169 0.78636 1.01164 0.0
N863 N 0.69822 0.63123 0.04872 0.0
H864 H 0.79924 0.59619 1.01371 0.0
H865 H 0.77067 0.576 0.031 0.0
H866 H 0.67308 0.63854 0.05856 0.0
H867 H 0.68958 0.59429 0.04458 0.0
H868 H 0.7726 0.82498 1.01391 0.0
H869 H 0.79176 0.77879 1.00051 0.0
H870 H 0.79158 0.83732 0.03647 0.0
H871 H 0.75934 0.81771 0.05345 0.0
C872 C 0.31907 0.28572 0.03534 0.0
C873 C 0.37756 0.31154 0.04027 0.0
C874 C 0.38784 0.35353 1.01617 0.0
C875 C 0.32723 0.33066 1.0115 0.0
N876 N 0.22752 0.28448 1.01772 0.0
N877 N 0.45344 0.38289 0.03703 0.0
C878 C 0.29032 0.29975 1.02147 0.0
C879 C 0.40719 0.34975 0.03121 0.0
N880 N 0.293 0.24612 0.0434 0.0
N881 N 0.4295 0.37567 1.00611 0.0
H882 H 0.46678 0.38263 0.04822 0.0
H883 H 0.47244 0.41415 0.03117 0.0
H884 H 0.4201 0.37519 0.99475 0.0
H885 H 0.47701 0.3888 1.00884 0.0
H886 H 0.25479 0.22243 0.03949 0.0
H887 H 0.31271 0.23437 0.05352 0.0
H888 H 0.19572 0.26575 1.02504 0.0
H889 H 0.20522 0.29504 1.00774 0.0
C890 C 0.77096 0.79893 0.25731 0.0
C891 C 0.78875 0.84978 0.2615 0.0
C892 C 0.76112 0.87963 0.23649 0.0
C893 C 0.74967 0.82788 0.23189 0.0
N894 N 0.76078 0.73736 0.23723 0.0
N895 N 0.81759 0.9358 0.25401 0.0
C896 C 0.76001 0.7872 0.2421 0.0
C897 C 0.78905 0.88933 0.25074 0.0
N898 N 0.761 0.7624 0.26791 0.0
N899 N 0.7416 0.91973 0.22779 0.0
H900 H 0.84094 0.94335 0.26413 0.0
H901 H 0.82443 0.96455 0.24612 0.0
H902 H 0.71774 0.91495 0.21762 0.0
H903 H 0.74284 0.95784 0.23143 0.0
H904 H 0.74182 0.72593 0.26555 0.0
H905 H 0.765 0.77031 0.27922 0.0
H906 H 0.77382 0.70667 0.24402 0.0
H907 H 0.75565 0.72737 0.22607 0.0
C908 C 0.25524 0.14439 0.52496 0.0
C909 C 0.27057 0.18631 0.51559 0.0
C910 C 0.25338 0.24594 0.5363 0.0
C911 C 0.22907 0.2047 0.54507 0.0
N912 N 0.19398 0.11543 0.54635 0.0
N913 N 0.27369 0.27761 0.51148 0.0
C914 C 0.22678 0.15396 0.53909 0.0
C915 C 0.26695 0.23734 0.52104 0.0
N916 N 0.26969 0.09546 0.52055 0.0
N917 N 0.26508 0.29301 0.54263 0.0
H918 H 0.28147 0.27243 0.50015 0.0
H919 H 0.26508 0.31569 0.51451 0.0
H920 H 0.25764 0.30028 0.55388 0.0
H921 H 0.28846 0.32315 0.53709 0.0
H922 H 0.26544 0.06376 0.52752 0.0
H923 H 0.29248 0.08732 0.51046 0.0
H924 H 0.18515 0.07933 0.54165 0.0
H925 H 0.16961 0.12071 0.55639 0.0
C926 C 0.78884 0.74799 0.74167 0.0
C927 C 0.857 0.75303 0.7381 0.0
C928 C 0.888 0.72781 0.76332 0.0
C929 C 0.82016 0.72021 0.76671 0.0
N930 N 0.70658 0.71404 0.75877 0.0
N931 N 0.97142 0.73615 0.74425 0.0
C932 C 0.77065 0.72767 0.75575 0.0
C933 C 0.9066 0.73922 0.74854 0.0
N934 N 0.74181 0.76364 0.73175 0.0
N935 N 0.9343 0.72691 0.77442 0.0
H936 H 0.98685 0.7437 0.73345 0.0
H937 H 1.00876 0.72128 0.75096 0.0
H938 H 0.92205 0.72036 0.78547 0.0
H939 H 0.98376 0.73747 0.77292 0.0
H940 H 0.69154 0.76607 0.73423 0.0
H941 H 0.75374 0.77715 0.7212 0.0
H942 H 0.66864 0.71408 0.75091 0.0
H943 H 0.69257 0.69854 0.76895 0.0
loop_
_geom_bond_atom_site_label_1
_geom_bond_atom_site_label_2
_geom_bond_distance
_geom_bond_site_symmetry_2
_ccdc_geom_bond_type
Cu0 N1 1.999 . S
Cu0 O6 1.974 . S
Cu0 N11 1.985 . S
Cu0 O20 1.959 . S
N1 Cu0 1.999 . S
N1 C3 1.263 . S
N1 C5 1.389 . S
N2 C3 1.358 . S
N2 C4 1.400 . S
C3 N1 1.263 . S
C3 N2 1.358 . S
C3 H9 0.930 . S
C4 N2 1.400 . S
C4 C5 1.351 . S
C4 H21 0.930 . S
C5 N1 1.389 . S
C5 C4 1.351 . S
C5 H10 0.930 . S
O6 Cu0 1.974 . S
O6 C16 1.282 . S
C7 O8 1.261 . S
C7 O20 1.251 . S
O8 C7 1.261 . S
H9 C3 0.930 . S
H10 C5 0.930 . S
N11 Cu0 1.985 . S
N11 C13 1.335 . S
N11 C14 1.390 . S
N12 C13 1.345 . S
N12 C15 1.336 . S
C13 N11 1.335 . S
C13 N12 1.345 . S
C13 H18 0.930 . S
C14 N11 1.390 . S
C14 C15 1.346 . S
C14 H19 0.930 . S
C15 N12 1.336 . S
C15 C14 1.346 . S
C15 H22 0.929 . S
C16 O6 1.282 . S
C16 O17 1.216 . S
O17 C16 1.216 . S
H18 C13 0.930 . S
H19 C14 0.930 . S
O20 Cu0 1.959 . S
O20 C7 1.251 . S
H21 C4 0.930 . S
H22 C15 0.929 . S
Cu23 N24 1.999 . S
Cu23 O29 1.974 . S
Cu23 N34 1.985 . S
Cu23 O43 1.959 . S
N24 Cu23 1.999 . S
N24 C26 1.263 . S
N24 C28 1.389 1_655 S
N25 C26 1.358 . S
N25 C27 1.400 1_655 S
C26 N24 1.263 . S
C26 N25 1.358 . S
C26 H32 0.930 . S
C27 N25 1.400 1_455 S
C27 C28 1.351 . S
C27 H44 0.930 . S
C28 N24 1.389 1_455 S
C28 C27 1.351 . S
C28 H33 0.930 . S
O29 Cu23 1.974 . S
O29 C39 1.282 . S
C30 O31 1.261 . S
C30 O43 1.251 . S
O31 C30 1.261 . S
H32 C26 0.930 . S
H33 C28 0.930 . S
N34 Cu23 1.985 . S
N34 C36 1.335 . S
N34 C37 1.390 . S
N35 C36 1.345 . S
N35 C38 1.336 . S
C36 N34 1.335 . S
C36 N35 1.345 . S
C36 H41 0.930 . S
C37 N34 1.390 . S
C37 C38 1.346 . S
C37 H42 0.930 . S
C38 N35 1.336 . S
C38 C37 1.346 . S
C38 H45 0.929 . S
C39 O29 1.282 . S
C39 O40 1.216 . S
O40 C39 1.216 . S
H41 C36 0.930 . S
H42 C37 0.930 . S
O43 Cu23 1.959 . S
O43 C30 1.251 . S
H44 C27 0.930 . S
H45 C38 0.929 . S
Cu46 N47 1.999 . S
Cu46 O52 1.974 . S
Cu46 N57 1.985 . S
Cu46 O66 1.959 . S
N47 Cu46 1.999 . S
N47 C49 1.263 . S
N47 C51 1.389 . S
N48 C49 1.358 . S
N48 C50 1.400 . S
C49 N47 1.263 . S
C49 N48 1.358 . S
C49 H55 0.930 . S
C50 N48 1.400 . S
C50 C51 1.351 . S
C50 H67 0.930 . S
C51 N47 1.389 . S
C51 C50 1.351 . S
C51 H56 0.930 . S
O52 Cu46 1.974 . S
O52 C62 1.282 . S
C53 O54 1.261 . S
C53 O66 1.251 . S
O54 C53 1.261 . S
H55 C49 0.930 . S
H56 C51 0.930 . S
N57 Cu46 1.985 . S
N57 C59 1.335 . S
N57 C60 1.390 . S
N58 C59 1.345 . S
N58 C61 1.336 . S
C59 N57 1.335 . S
C59 N58 1.345 . S
C59 H64 0.930 . S
C60 N57 1.390 . S
C60 C61 1.346 . S
C60 H65 0.930 . S
C61 N58 1.336 . S
C61 C60 1.346 . S
C61 H68 0.929 . S
C62 O52 1.282 . S
C62 O63 1.216 . S
O63 C62 1.216 . S
H64 C59 0.930 . S
H65 C60 0.930 . S
O66 Cu46 1.959 . S
O66 C53 1.251 . S
H67 C50 0.930 . S
H68 C61 0.929 . S
Cu69 N70 1.999 . S
Cu69 O75 1.974 . S
Cu69 N80 1.985 . S
Cu69 O89 1.959 . S
N70 Cu69 1.999 . S
N70 C72 1.263 . S
N70 C74 1.389 . S
N71 C72 1.358 . S
N71 C73 1.400 . S
C72 N70 1.263 . S
C72 N71 1.358 . S
C72 H78 0.930 . S
C73 N71 1.400 . S
C73 C74 1.351 . S
C73 H90 0.930 . S
C74 N70 1.389 . S
C74 C73 1.351 . S
C74 H79 0.930 . S
O75 Cu69 1.974 . S
O75 C85 1.282 . S
C76 O77 1.261 . S
C76 O89 1.251 . S
O77 C76 1.261 . S
H78 C72 0.930 . S
H79 C74 0.930 . S
N80 Cu69 1.985 . S
N80 C82 1.335 . S
N80 C83 1.390 . S
N81 C82 1.345 . S
N81 C84 1.336 . S
C82 N80 1.335 . S
C82 N81 1.345 . S
C82 H87 0.930 . S
C83 N80 1.390 . S
C83 C84 1.346 . S
C83 H88 0.930 . S
C84 N81 1.336 . S
C84 C83 1.346 . S
C84 H91 0.929 . S
C85 O75 1.282 . S
C85 O86 1.216 . S
O86 C85 1.216 . S
H87 C82 0.930 . S
H88 C83 0.930 . S
O89 Cu69 1.959 . S
O89 C76 1.251 . S
H90 C73 0.930 . S
H91 C84 0.929 . S
Cu92 N93 1.999 . S
Cu92 O98 1.974 . S
Cu92 N103 1.985 . S
Cu92 O112 1.959 . S
N93 Cu92 1.999 . S
N93 C95 1.263 . S
N93 C97 1.389 . S
N94 C95 1.358 . S
N94 C96 1.400 . S
C95 N93 1.263 . S
C95 N94 1.358 . S
C95 H101 0.930 . S
C96 N94 1.400 . S
C96 C97 1.351 . S
C96 H113 0.930 . S
C97 N93 1.389 . S
C97 C96 1.351 . S
C97 H102 0.930 . S
O98 Cu92 1.974 . S
O98 C108 1.282 . S
C99 O100 1.261 . S
C99 O112 1.251 . S
O100 C99 1.261 . S
H101 C95 0.930 . S
H102 C97 0.930 . S
N103 Cu92 1.985 . S
N103 C105 1.335 . S
N103 C106 1.390 . S
N104 C105 1.345 . S
N104 C107 1.336 . S
C105 N103 1.335 . S
C105 N104 1.345 . S
C105 H110 0.930 . S
C106 N103 1.390 . S
C106 C107 1.346 . S
C106 H111 0.930 . S
C107 N104 1.336 . S
C107 C106 1.346 . S
C107 H114 0.929 . S
C108 O98 1.282 . S
C108 O109 1.216 . S
O109 C108 1.216 . S
H110 C105 0.930 . S
H111 C106 0.930 . S
O112 Cu92 1.959 . S
O112 C99 1.251 . S
H113 C96 0.930 . S
H114 C107 0.929 . S
Cu115 N116 1.999 . S
Cu115 O121 1.974 . S
Cu115 N126 1.985 . S
Cu115 O135 1.959 . S
N116 Cu115 1.999 . S
N116 C118 1.263 . S
N116 C120 1.389 . S
N117 C118 1.358 . S
N117 C119 1.400 . S
C118 N116 1.263 . S
C118 N117 1.358 . S
C118 H124 0.930 . S
C119 N117 1.400 . S
C119 C120 1.351 . S
C119 H136 0.930 . S
C120 N116 1.389 . S
C120 C119 1.351 . S
C120 H125 0.930 . S
O121 Cu115 1.974 . S
O121 C131 1.282 . S
C122 O123 1.261 . S
C122 O135 1.251 . S
O123 C122 1.261 . S
H124 C118 0.930 . S
H125 C120 0.930 . S
N126 Cu115 1.985 . S
N126 C128 1.335 . S
N126 C129 1.390 . S
N127 C128 1.345 . S
N127 C130 1.336 . S
C128 N126 1.335 . S
C128 N127 1.345 . S
C128 H133 0.930 . S
C129 N126 1.390 . S
C129 C130 1.346 . S
C129 H134 0.930 . S
C130 N127 1.336 . S
C130 C129 1.346 . S
C130 H137 0.929 . S
C131 O121 1.282 . S
C131 O132 1.216 . S
O132 C131 1.216 . S
H133 C128 0.930 . S
H134 C129 0.930 . S
O135 Cu115 1.959 . S
O135 C122 1.251 . S
H136 C119 0.930 . S
H137 C130 0.929 . S
Cu138 N139 1.999 . S
Cu138 O144 1.974 . S
Cu138 N149 1.985 . S
Cu138 O158 1.959 . S
N139 Cu138 1.999 . S
N139 C141 1.263 . S
N139 C143 1.389 . S
N140 C141 1.358 . S
N140 C142 1.400 . S
C141 N139 1.263 . S
C141 N140 1.358 . S
C141 H147 0.930 . S
C142 N140 1.400 . S
C142 C143 1.351 . S
C142 H159 0.930 . S
C143 N139 1.389 . S
C143 C142 1.351 . S
C143 H148 0.930 . S
O144 Cu138 1.974 . S
O144 C154 1.282 . S
C145 O146 1.261 . S
C145 O158 1.251 . S
O146 C145 1.261 . S
H147 C141 0.930 . S
H148 C143 0.930 . S
N149 Cu138 1.985 . S
N149 C151 1.335 . S
N149 C152 1.390 . S
N150 C151 1.345 . S
N150 C153 1.336 . S
C151 N149 1.335 . S
C151 N150 1.345 . S
C151 H156 0.930 . S
C152 N149 1.390 . S
C152 C153 1.346 . S
C152 H157 0.930 . S
C153 N150 1.336 . S
C153 C152 1.346 . S
C153 H160 0.929 . S
C154 O144 1.282 . S
C154 O155 1.216 . S
O155 C154 1.216 . S
H156 C151 0.930 . S
H157 C152 0.930 . S
O158 Cu138 1.959 . S
O158 C145 1.251 . S
H159 C142 0.930 . S
H160 C153 0.929 . S
Cu161 N162 1.999 . S
Cu161 O167 1.974 . S
Cu161 N172 1.985 . S
Cu161 O181 1.959 . S
N162 Cu161 1.999 . S
N162 C164 1.263 . S
N162 C166 1.389 1_655 S
N163 C164 1.358 . S
N163 C165 1.400 1_655 S
C164 N162 1.263 . S
C164 N163 1.358 . S
C164 H170 0.930 . S
C165 N163 1.400 1_455 S
C165 C166 1.351 . S
C165 H182 0.930 . S
C166 N162 1.389 1_455 S
C166 C165 1.351 . S
C166 H171 0.930 . S
O167 Cu161 1.974 . S
O167 C177 1.282 . S
C168 O169 1.261 . S
C168 O181 1.251 . S
O169 C168 1.261 . S
H170 C164 0.930 . S
H171 C166 0.930 . S
N172 Cu161 1.985 . S
N172 C174 1.335 . S
N172 C175 1.390 . S
N173 C174 1.345 . S
N173 C176 1.336 . S
C174 N172 1.335 . S
C174 N173 1.345 . S
C174 H179 0.930 . S
C175 N172 1.390 . S
C175 C176 1.346 . S
C175 H180 0.930 . S
C176 N173 1.336 . S
C176 C175 1.346 . S
C176 H183 0.929 . S
C177 O167 1.282 . S
C177 O178 1.216 . S
O178 C177 1.216 . S
H179 C174 0.930 . S
H180 C175 0.930 . S
O181 Cu161 1.959 . S
O181 C168 1.251 . S
H182 C165 0.930 . S
H183 C176 0.929 . S
Cu184 N185 1.999 . S
Cu184 O190 1.974 . S
Cu184 N195 1.985 . S
Cu184 O204 1.959 . S
N185 Cu184 1.999 . S
N185 C187 1.263 . S
N185 C189 1.389 . S
N186 C187 1.358 . S
N186 C188 1.400 . S
C187 N185 1.263 . S
C187 N186 1.358 . S
C187 H193 0.930 . S
C188 N186 1.400 . S
C188 C189 1.351 . S
C188 H205 0.930 . S
C189 N185 1.389 . S
C189 C188 1.351 . S
C189 H194 0.930 . S
O190 Cu184 1.974 . S
O190 C200 1.282 . S
C191 O192 1.261 . S
C191 O204 1.251 . S
O192 C191 1.261 . S
H193 C187 0.930 . S
H194 C189 0.930 . S
N195 Cu184 1.985 . S
N195 C197 1.335 . S
N195 C198 1.390 . S
N196 C197 1.345 . S
N196 C199 1.336 . S
C197 N195 1.335 . S
C197 N196 1.345 . S
C197 H202 0.930 . S
C198 N195 1.390 . S
C198 C199 1.346 . S
C198 H203 0.930 . S
C199 N196 1.336 . S
C199 C198 1.346 . S
C199 H206 0.929 . S
C200 O190 1.282 . S
C200 O201 1.216 . S
O201 C200 1.216 . S
H202 C197 0.930 . S
H203 C198 0.930 . S
O204 Cu184 1.959 . S
O204 C191 1.251 . S
H205 C188 0.930 . S
H206 C199 0.929 . S
Cu207 N208 1.999 . S
Cu207 O213 1.974 . S
Cu207 N218 1.985 . S
Cu207 O227 1.959 . S
N208 Cu207 1.999 . S
N208 C210 1.263 . S
N208 C212 1.389 . S
N209 C210 1.358 . S
N209 C211 1.400 . S
C210 N208 1.263 . S
C210 N209 1.358 . S
C210 H216 0.930 . S
C211 N209 1.400 . S
C211 C212 1.351 . S
C211 H228 0.930 . S
C212 N208 1.389 . S
C212 C211 1.351 . S
C212 H217 0.930 . S
O213 Cu207 1.974 . S
O213 C223 1.282 . S
C214 O215 1.261 . S
C214 O227 1.251 . S
O215 C214 1.261 . S
H216 C210 0.930 . S
H217 C212 0.930 . S
N218 Cu207 1.985 . S
N218 C220 1.335 . S
N218 C221 1.390 . S
N219 C220 1.345 . S
N219 C222 1.336 . S
C220 N218 1.335 . S
C220 N219 1.345 . S
C220 H225 0.930 . S
C221 N218 1.390 . S
C221 C222 1.346 . S
C221 H226 0.930 . S
C222 N219 1.336 . S
C222 C221 1.346 . S
C222 H229 0.929 . S
C223 O213 1.282 . S
C223 O224 1.216 . S
O224 C223 1.216 . S
H225 C220 0.930 . S
H226 C221 0.930 . S
O227 Cu207 1.959 . S
O227 C214 1.251 . S
H228 C211 0.930 . S
H229 C222 0.929 . S
Cu230 N231 1.999 . S
Cu230 O236 1.974 . S
Cu230 N241 1.985 . S
Cu230 O250 1.959 . S
N231 Cu230 1.999 . S
N231 C233 1.263 . S
N231 C235 1.389 . S
N232 C233 1.358 . S
N232 C234 1.400 . S
C233 N231 1.263 . S
C233 N232 1.358 . S
C233 H239 0.930 . S
C234 N232 1.400 . S
C234 C235 1.351 . S
C234 H251 0.930 . S
C235 N231 1.389 . S
C235 C234 1.351 . S
C235 H240 0.930 . S
O236 Cu230 1.974 . S
O236 C246 1.282 . S
C237 O238 1.261 . S
C237 O250 1.251 . S
O238 C237 1.261 . S
H239 C233 0.930 . S
H240 C235 0.930 . S
N241 Cu230 1.985 . S
N241 C243 1.335 . S
N241 C244 1.390 . S
N242 C243 1.345 . S
N242 C245 1.336 . S
C243 N241 1.335 . S
C243 N242 1.345 . S
C243 H248 0.930 . S
C244 N241 1.390 . S
C244 C245 1.346 . S
C244 H249 0.930 . S
C245 N242 1.336 . S
C245 C244 1.346 . S
C245 H252 0.929 . S
C246 O236 1.282 . S
C246 O247 1.216 . S
O247 C246 1.216 . S
H248 C243 0.930 . S
H249 C244 0.930 . S
O250 Cu230 1.959 . S
O250 C237 1.251 . S
H251 C234 0.930 . S
H252 C245 0.929 . S
Cu253 N254 1.999 . S
Cu253 O259 1.974 . S
Cu253 N264 1.985 . S
Cu253 O273 1.959 . S
N254 Cu253 1.999 . S
N254 C256 1.263 . S
N254 C258 1.389 1_455 S
N255 C256 1.358 . S
N255 C257 1.400 1_455 S
C256 N254 1.263 . S
C256 N255 1.358 . S
C256 H262 0.930 . S
C257 N255 1.400 1_655 S
C257 C258 1.351 . S
C257 H274 0.930 . S
C258 N254 1.389 1_655 S
C258 C257 1.351 . S
C258 H263 0.930 . S
O259 Cu253 1.974 . S
O259 C269 1.282 . S
C260 O261 1.261 . S
C260 O273 1.251 . S
O261 C260 1.261 . S
H262 C256 0.930 . S
H263 C258 0.930 . S
N264 Cu253 1.985 . S
N264 C266 1.335 . S
N264 C267 1.390 . S
N265 C266 1.345 . S
N265 C268 1.336 . S
C266 N264 1.335 . S
C266 N265 1.345 . S
C266 H271 0.930 . S
C267 N264 1.390 . S
C267 C268 1.346 . S
C267 H272 0.930 . S
C268 N265 1.336 . S
C268 C267 1.346 . S
C268 H275 0.929 . S
C269 O259 1.282 . S
C269 O270 1.216 . S
O270 C269 1.216 . S
H271 C266 0.930 . S
H272 C267 0.930 . S
O273 Cu253 1.959 . S
O273 C260 1.251 . S
H274 C257 0.930 . S
H275 C268 0.929 . S
Cu276 N277 1.999 . S
Cu276 O282 1.974 . S
Cu276 N287 1.985 . S
Cu276 O296 1.959 . S
N277 Cu276 1.999 . S
N277 C279 1.263 . S
N277 C281 1.389 . S
N278 C279 1.358 . S
N278 C280 1.400 . S
C279 N277 1.263 . S
C279 N278 1.358 . S
C279 H285 0.930 . S
C280 N278 1.400 . S
C280 C281 1.351 . S
C280 H297 0.930 . S
C281 N277 1.389 . S
C281 C280 1.351 . S
C281 H286 0.930 . S
O282 Cu276 1.974 . S
O282 C292 1.282 . S
C283 O284 1.261 . S
C283 O296 1.251 . S
O284 C283 1.261 . S
H285 C279 0.930 . S
H286 C281 0.930 . S
N287 Cu276 1.985 . S
N287 C289 1.335 . S
N287 C290 1.390 . S
N288 C289 1.345 . S
N288 C291 1.336 . S
C289 N287 1.335 . S
C289 N288 1.345 . S
C289 H294 0.930 . S
C290 N287 1.390 . S
C290 C291 1.346 . S
C290 H295 0.930 . S
C291 N288 1.336 . S
C291 C290 1.346 . S
C291 H298 0.929 . S
C292 O282 1.282 . S
C292 O293 1.216 . S
O293 C292 1.216 . S
H294 C289 0.930 . S
H295 C290 0.930 . S
O296 Cu276 1.959 . S
O296 C283 1.251 . S
H297 C280 0.930 . S
H298 C291 0.929 . S
Cu299 N300 1.999 . S
Cu299 O305 1.974 . S
Cu299 N310 1.985 . S
Cu299 O319 1.959 . S
N300 Cu299 1.999 . S
N300 C302 1.263 . S
N300 C304 1.389 1_455 S
N301 C302 1.358 . S
N301 C303 1.400 1_455 S
C302 N300 1.263 . S
C302 N301 1.358 . S
C302 H308 0.930 . S
C303 N301 1.400 1_655 S
C303 C304 1.351 . S
C303 H320 0.930 . S
C304 N300 1.389 1_655 S
C304 C303 1.351 . S
C304 H309 0.930 . S
O305 Cu299 1.974 . S
O305 C315 1.282 . S
C306 O307 1.261 . S
C306 O319 1.251 . S
O307 C306 1.261 . S
H308 C302 0.930 . S
H309 C304 0.930 . S
N310 Cu299 1.985 . S
N310 C312 1.335 . S
N310 C313 1.390 . S
N311 C312 1.345 . S
N311 C314 1.336 . S
C312 N310 1.335 . S
C312 N311 1.345 . S
C312 H317 0.930 . S
C313 N310 1.390 . S
C313 C314 1.346 . S
C313 H318 0.930 . S
C314 N311 1.336 . S
C314 C313 1.346 . S
C314 H321 0.929 . S
C315 O305 1.282 . S
C315 O316 1.216 . S
O316 C315 1.216 . S
H317 C312 0.930 . S
H318 C313 0.930 . S
O319 Cu299 1.959 . S
O319 C306 1.251 . S
H320 C303 0.930 . S
H321 C314 0.929 . S
Cu322 N323 1.999 . S
Cu322 O328 1.974 . S
Cu322 N333 1.985 . S
Cu322 O342 1.959 . S
N323 Cu322 1.999 . S
N323 C325 1.263 . S
N323 C327 1.389 . S
N324 C325 1.358 . S
N324 C326 1.400 . S
C325 N323 1.263 . S
C325 N324 1.358 . S
C325 H331 0.930 . S
C326 N324 1.400 . S
C326 C327 1.351 . S
C326 H343 0.930 . S
C327 N323 1.389 . S
C327 C326 1.351 . S
C327 H332 0.930 . S
O328 Cu322 1.974 . S
O328 C338 1.282 . S
C329 O330 1.261 . S
C329 O342 1.251 . S
O330 C329 1.261 . S
H331 C325 0.930 . S
H332 C327 0.930 . S
N333 Cu322 1.985 . S
N333 C335 1.335 . S
N333 C336 1.390 . S
N334 C335 1.345 . S
N334 C337 1.336 . S
C335 N333 1.335 . S
C335 N334 1.345 . S
C335 H340 0.930 . S
C336 N333 1.390 . S
C336 C337 1.346 . S
C336 H341 0.930 . S
C337 N334 1.336 . S
C337 C336 1.346 . S
C337 H344 0.929 . S
C338 O328 1.282 . S
C338 O339 1.216 . S
O339 C338 1.216 . S
H340 C335 0.930 . S
H341 C336 0.930 . S
O342 Cu322 1.959 . S
O342 C329 1.251 . S
H343 C326 0.930 . S
H344 C337 0.929 . S
Cu345 N346 1.999 . S
Cu345 O351 1.974 . S
Cu345 N356 1.985 . S
Cu345 O365 1.959 . S
N346 Cu345 1.999 . S
N346 C348 1.263 . S
N346 C350 1.389 . S
N347 C348 1.358 . S
N347 C349 1.400 . S
C348 N346 1.263 . S
C348 N347 1.358 . S
C348 H354 0.930 . S
C349 N347 1.400 . S
C349 C350 1.351 . S
C349 H366 0.930 . S
C350 N346 1.389 . S
C350 C349 1.351 . S
C350 H355 0.930 . S
O351 Cu345 1.974 . S
O351 C361 1.282 . S
C352 O353 1.261 . S
C352 O365 1.251 . S
O353 C352 1.261 . S
H354 C348 0.930 . S
H355 C350 0.930 . S
N356 Cu345 1.985 . S
N356 C358 1.335 . S
N356 C359 1.390 . S
N357 C358 1.345 . S
N357 C360 1.336 . S
C358 N356 1.335 . S
C358 N357 1.345 . S
C358 H363 0.930 . S
C359 N356 1.390 . S
C359 C360 1.346 . S
C359 H364 0.930 . S
C360 N357 1.336 . S
C360 C359 1.346 . S
C360 H367 0.929 . S
C361 O351 1.282 . S
C361 O362 1.216 . S
O362 C361 1.216 . S
H363 C358 0.930 . S
H364 C359 0.930 . S
O365 Cu345 1.959 . S
O365 C352 1.251 . S
H366 C349 0.930 . S
H367 C360 0.929 . S
C368 C369 1.363 1_545 S
C368 C374 1.379 1_655 S
C368 N376 1.356 . S
C369 C368 1.363 1_565 S
C369 C375 1.363 . S
C370 C371 1.363 1_565 S
C370 C375 1.379 1_455 S
C370 N377 1.356 . S
C371 C370 1.363 1_545 S
C371 C374 1.363 . S
N372 C374 1.356 . S
N372 H384 0.984 . S
N372 H385 0.985 . S
N373 C375 1.356 . S
N373 H378 0.984 . S
N373 H379 0.985 . S
C374 C368 1.379 1_455 S
C374 C371 1.363 . S
C374 N372 1.356 . S
C375 C369 1.363 . S
C375 C370 1.379 1_655 S
C375 N373 1.356 . S
N376 C368 1.356 . S
N376 H382 0.984 . S
N376 H383 0.984 1_545 S
N377 C370 1.356 . S
N377 H380 0.984 1_565 S
N377 H381 0.985 . S
H378 N373 0.984 . S
H379 N373 0.985 . S
H380 N377 0.984 1_545 S
H381 N377 0.985 . S
H382 N376 0.984 . S
H383 N376 0.984 1_565 S
H384 N372 0.984 . S
H385 N372 0.985 . S
C386 C387 1.363 . S
C386 C392 1.379 . S
C386 N394 1.356 . S
C387 C386 1.363 . S
C387 C393 1.363 1_655 S
C388 C389 1.363 . S
C388 C393 1.379 . S
C388 N395 1.356 . S
C389 C388 1.363 . S
C389 C392 1.363 1_455 S
N390 C392 1.356 . S
N390 H402 0.984 . S
N390 H403 0.985 1_655 S
N391 C393 1.356 . S
N391 H396 0.984 1_455 S
N391 H397 0.985 . S
C392 C386 1.379 . S
C392 C389 1.363 1_655 S
C392 N390 1.356 . S
C393 C387 1.363 1_455 S
C393 C388 1.379 . S
C393 N391 1.356 . S
N394 C386 1.356 . S
N394 H400 0.984 . S
N394 H401 0.984 . S
N395 C388 1.356 . S
N395 H398 0.984 . S
N395 H399 0.985 . S
H396 N391 0.984 1_655 S
H397 N391 0.985 . S
H398 N395 0.984 . S
H399 N395 0.985 . S
H400 N394 0.984 . S
H401 N394 0.984 . S
H402 N390 0.984 . S
H403 N390 0.985 1_455 S
C404 C405 1.363 . S
C404 C410 1.379 . S
C404 N412 1.356 . S
C405 C404 1.363 . S
C405 C411 1.363 . S
C406 C407 1.363 . S
C406 C411 1.379 . S
C406 N413 1.356 . S
C407 C406 1.363 . S
C407 C410 1.363 . S
N408 C410 1.356 . S
N408 H420 0.984 . S
N408 H421 0.985 . S
N409 C411 1.356 . S
N409 H414 0.984 . S
N409 H415 0.985 . S
C410 C404 1.379 . S
C410 C407 1.363 . S
C410 N408 1.356 . S
C411 C405 1.363 . S
C411 C406 1.379 . S
C411 N409 1.356 . S
N412 C404 1.356 . S
N412 H418 0.984 . S
N412 H419 0.984 . S
N413 C406 1.356 . S
N413 H416 0.984 . S
N413 H417 0.985 . S
H414 N409 0.984 . S
H415 N409 0.985 . S
H416 N413 0.984 . S
H417 N413 0.985 . S
H418 N412 0.984 . S
H419 N412 0.984 . S
H420 N408 0.984 . S
H421 N408 0.985 . S
C422 C423 1.363 . S
C422 C428 1.379 1_545 S
C422 N430 1.356 . S
C423 C422 1.363 . S
C423 C429 1.363 . S
C424 C425 1.363 . S
C424 C429 1.379 1_565 S
C424 N431 1.356 . S
C425 C424 1.363 . S
C425 C428 1.363 . S
N426 C428 1.356 . S
N426 H438 0.984 . S
N426 H439 0.985 . S
N427 C429 1.356 . S
N427 H432 0.984 . S
N427 H433 0.985 . S
C428 C422 1.379 1_565 S
C428 C425 1.363 . S
C428 N426 1.356 . S
C429 C423 1.363 . S
C429 C424 1.379 1_545 S
C429 N427 1.356 . S
N430 C422 1.356 . S
N430 H436 0.984 . S
N430 H437 0.984 . S
N431 C424 1.356 . S
N431 H434 0.984 . S
N431 H435 0.985 . S
H432 N427 0.984 . S
H433 N427 0.985 . S
H434 N431 0.984 . S
H435 N431 0.985 . S
H436 N430 0.984 . S
H437 N430 0.984 . S
H438 N426 0.984 . S
H439 N426 0.985 . S
C440 C441 1.363 . S
C440 C446 1.379 1_455 S
C440 N448 1.356 . S
C441 C440 1.363 . S
C441 C447 1.363 . S
C442 C443 1.363 . S
C442 C447 1.379 1_655 S
C442 N449 1.356 . S
C443 C442 1.363 . S
C443 C446 1.363 . S
N444 C446 1.356 . S
N444 H456 0.984 . S
N444 H457 0.985 . S
N445 C447 1.356 . S
N445 H450 0.984 . S
N445 H451 0.985 . S
C446 C440 1.379 1_655 S
C446 C443 1.363 . S
C446 N444 1.356 . S
C447 C441 1.363 . S
C447 C442 1.379 1_455 S
C447 N445 1.356 . S
N448 C440 1.356 . S
N448 H454 0.984 . S
N448 H455 0.984 . S
N449 C442 1.356 . S
N449 H452 0.984 . S
N449 H453 0.985 . S
H450 N445 0.984 . S
H451 N445 0.985 . S
H452 N449 0.984 . S
H453 N449 0.985 . S
H454 N448 0.984 . S
H455 N448 0.984 . S
H456 N444 0.984 . S
H457 N444 0.985 . S
C458 C459 1.363 . S
C458 C464 1.379 . S
C458 N466 1.356 . S
C459 C458 1.363 . S
C459 C465 1.363 . S
C460 C461 1.363 . S
C460 C465 1.379 . S
C460 N467 1.356 . S
C461 C460 1.363 . S
C461 C464 1.363 . S
N462 C464 1.356 . S
N462 H474 0.984 . S
N462 H475 0.985 . S
N463 C465 1.356 . S
N463 H468 0.984 . S
N463 H469 0.985 . S
C464 C458 1.379 . S
C464 C461 1.363 . S
C464 N462 1.356 . S
C465 C459 1.363 . S
C465 C460 1.379 . S
C465 N463 1.356 . S
N466 C458 1.356 . S
N466 H472 0.984 . S
N466 H473 0.984 . S
N467 C460 1.356 . S
N467 H470 0.984 . S
N467 H471 0.985 . S
H468 N463 0.984 . S
H469 N463 0.985 . S
H470 N467 0.984 . S
H471 N467 0.985 . S
H472 N466 0.984 . S
H473 N466 0.984 . S
H474 N462 0.984 . S
H475 N462 0.985 . S
C476 C477 1.363 1_565 S
C476 C482 1.379 . S
C476 N484 1.356 . S
C477 C476 1.363 1_545 S
C477 C483 1.363 . S
C478 C479 1.363 1_545 S
C478 C483 1.379 . S
C478 N485 1.356 . S
C479 C478 1.363 1_565 S
C479 C482 1.363 . S
N480 C482 1.356 . S
N480 H492 0.984 . S
N480 H493 0.985 . S
N481 C483 1.356 . S
N481 H486 0.984 . S
N481 H487 0.985 . S
C482 C476 1.379 . S
C482 C479 1.363 . S
C482 N480 1.356 . S
C483 C477 1.363 . S
C483 C478 1.379 . S
C483 N481 1.356 . S
N484 C476 1.356 . S
N484 H490 0.984 . S
N484 H491 0.984 1_565 S
N485 C478 1.356 . S
N485 H488 0.984 1_545 S
N485 H489 0.985 . S
H486 N481 0.984 . S
H487 N481 0.985 . S
H488 N485 0.984 1_565 S
H489 N485 0.985 . S
H490 N484 0.984 . S
H491 N484 0.984 1_545 S
H492 N480 0.984 . S
H493 N480 0.985 . S
C494 C495 1.363 . S
C494 C500 1.379 1_545 S
C494 N502 1.356 . S
C495 C494 1.363 . S
C495 C501 1.363 1_455 S
C496 C497 1.363 . S
C496 C501 1.379 1_565 S
C496 N503 1.356 . S
C497 C496 1.363 . S
C497 C500 1.363 1_655 S
N498 C500 1.356 . S
N498 H510 0.984 . S
N498 H511 0.985 1_455 S
N499 C501 1.356 . S
N499 H504 0.984 1_655 S
N499 H505 0.985 . S
C500 C494 1.379 1_565 S
C500 C497 1.363 1_455 S
C500 N498 1.356 . S
C501 C495 1.363 1_655 S
C501 C496 1.379 1_545 S
C501 N499 1.356 . S
N502 C494 1.356 . S
N502 H508 0.984 . S
N502 H509 0.984 . S
N503 C496 1.356 . S
N503 H506 0.984 . S
N503 H507 0.985 . S
H504 N499 0.984 1_455 S
H505 N499 0.985 . S
H506 N503 0.984 . S
H507 N503 0.985 . S
H508 N502 0.984 . S
H509 N502 0.984 . S
H510 N498 0.984 . S
H511 N498 0.985 1_655 S
C512 C513 1.363 1_545 S
C512 C518 1.379 . S
C512 N520 1.356 1_545 S
C513 C512 1.363 1_565 S
C513 C519 1.363 . S
C514 C515 1.363 1_565 S
C514 C519 1.379 . S
C514 N521 1.356 1_565 S
C515 C514 1.363 1_545 S
C515 C518 1.363 . S
N516 C518 1.356 . S
N516 H528 0.984 . S
N516 H529 0.985 . S
N517 C519 1.356 . S
N517 H522 0.984 . S
N517 H523 0.985 . S
C518 C512 1.379 . S
C518 C515 1.363 . S
C518 N516 1.356 . S
C519 C513 1.363 . S
C519 C514 1.379 . S
C519 N517 1.356 . S
N520 C512 1.356 1_565 S
N520 H526 0.984 1_565 S
N520 H527 0.984 . S
N521 C514 1.356 1_545 S
N521 H524 0.984 . S
N521 H525 0.985 1_545 S
H522 N517 0.984 . S
H523 N517 0.985 . S
H524 N521 0.984 . S
H525 N521 0.985 1_565 S
H526 N520 0.984 1_545 S
H527 N520 0.984 . S
H528 N516 0.984 . S
H529 N516 0.985 . S
C530 C531 1.363 . S
C530 C536 1.379 1_565 S
C530 N538 1.356 . S
C531 C530 1.363 . S
C531 C537 1.363 1_655 S
C532 C533 1.363 . S
C532 C537 1.379 1_545 S
C532 N539 1.356 . S
C533 C532 1.363 . S
C533 C536 1.363 1_455 S
N534 C536 1.356 . S
N534 H546 0.984 . S
N534 H547 0.985 1_655 S
N535 C537 1.356 . S
N535 H540 0.984 1_455 S
N535 H541 0.985 . S
C536 C530 1.379 1_545 S
C536 C533 1.363 1_655 S
C536 N534 1.356 . S
C537 C531 1.363 1_455 S
C537 C532 1.379 1_565 S
C537 N535 1.356 . S
N538 C530 1.356 . S
N538 H544 0.984 . S
N538 H545 0.984 . S
N539 C532 1.356 . S
N539 H542 0.984 . S
N539 H543 0.985 . S
H540 N535 0.984 1_655 S
H541 N535 0.985 . S
H542 N539 0.984 . S
H543 N539 0.985 . S
H544 N538 0.984 . S
H545 N538 0.984 . S
H546 N534 0.984 . S
H547 N534 0.985 1_455 S
C548 C549 1.363 . S
C548 C554 1.379 1_455 S
C548 N556 1.356 . S
C549 C548 1.363 . S
C549 C555 1.363 . S
C550 C551 1.363 . S
C550 C555 1.379 1_655 S
C550 N557 1.356 . S
C551 C550 1.363 . S
C551 C554 1.363 . S
N552 C554 1.356 . S
N552 H564 0.984 . S
N552 H565 0.985 . S
N553 C555 1.356 . S
N553 H558 0.984 . S
N553 H559 0.985 . S
C554 C548 1.379 1_655 S
C554 C551 1.363 . S
C554 N552 1.356 . S
C555 C549 1.363 . S
C555 C550 1.379 1_455 S
C555 N553 1.356 . S
N556 C548 1.356 . S
N556 H562 0.984 . S
N556 H563 0.984 . S
N557 C550 1.356 . S
N557 H560 0.984 . S
N557 H561 0.985 . S
H558 N553 0.984 . S
H559 N553 0.985 . S
H560 N557 0.984 . S
H561 N557 0.985 . S
H562 N556 0.984 . S
H563 N556 0.984 . S
H564 N552 0.984 . S
H565 N552 0.985 . S
C566 C567 1.363 . S
C566 C572 1.379 . S
C566 N574 1.356 . S
C567 C566 1.363 . S
C567 C573 1.363 . S
C568 C569 1.363 . S
C568 C573 1.379 . S
C568 N575 1.356 . S
C569 C568 1.363 . S
C569 C572 1.363 . S
N570 C572 1.356 . S
N570 H582 0.984 . S
N570 H583 0.985 . S
N571 C573 1.356 . S
N571 H576 0.984 . S
N571 H577 0.985 . S
C572 C566 1.379 . S
C572 C569 1.363 . S
C572 N570 1.356 . S
C573 C567 1.363 . S
C573 C568 1.379 . S
C573 N571 1.356 . S
N574 C566 1.356 . S
N574 H580 0.984 . S
N574 H581 0.984 . S
N575 C568 1.356 . S
N575 H578 0.984 . S
N575 H579 0.985 . S
H576 N571 0.984 . S
H577 N571 0.985 . S
H578 N575 0.984 . S
H579 N575 0.985 . S
H580 N574 0.984 . S
H581 N574 0.984 . S
H582 N570 0.984 . S
H583 N570 0.985 . S
C584 C585 1.363 . S
C584 C590 1.379 . S
C584 N592 1.356 . S
C585 C584 1.363 . S
C585 C591 1.363 . S
C586 C587 1.363 . S
C586 C591 1.379 . S
C586 N593 1.356 . S
C587 C586 1.363 . S
C587 C590 1.363 . S
N588 C590 1.356 . S
N588 H600 0.984 . S
N588 H601 0.985 . S
N589 C591 1.356 . S
N589 H594 0.984 . S
N589 H595 0.985 . S
C590 C584 1.379 . S
C590 C587 1.363 . S
C590 N588 1.356 . S
C591 C585 1.363 . S
C591 C586 1.379 . S
C591 N589 1.356 . S
N592 C584 1.356 . S
N592 H598 0.984 . S
N592 H599 0.984 . S
N593 C586 1.356 . S
N593 H596 0.984 . S
N593 H597 0.985 . S
H594 N589 0.984 . S
H595 N589 0.985 . S
H596 N593 0.984 . S
H597 N593 0.985 . S
H598 N592 0.984 . S
H599 N592 0.984 . S
H600 N588 0.984 . S
H601 N588 0.985 . S
C602 C603 1.363 . S
C602 C608 1.379 1_565 S
C602 N610 1.356 . S
C603 C602 1.363 . S
C603 C609 1.363 . S
C604 C605 1.363 . S
C604 C609 1.379 1_545 S
C604 N611 1.356 . S
C605 C604 1.363 . S
C605 C608 1.363 . S
N606 C608 1.356 . S
N606 H618 0.984 . S
N606 H619 0.985 . S
N607 C609 1.356 . S
N607 H612 0.984 . S
N607 H613 0.985 . S
C608 C602 1.379 1_545 S
C608 C605 1.363 . S
C608 N606 1.356 . S
C609 C603 1.363 . S
C609 C604 1.379 1_565 S
C609 N607 1.356 . S
N610 C602 1.356 . S
N610 H616 0.984 . S
N610 H617 0.984 . S
N611 C604 1.356 . S
N611 H614 0.984 . S
N611 H615 0.985 . S
H612 N607 0.984 . S
H613 N607 0.985 . S
H614 N611 0.984 . S
H615 N611 0.985 . S
H616 N610 0.984 . S
H617 N610 0.984 . S
H618 N606 0.984 . S
H619 N606 0.985 . S
C620 C621 1.363 . S
C620 C626 1.379 1_655 S
C620 N628 1.356 . S
C621 C620 1.363 . S
C621 C627 1.363 1_565 S
C622 C623 1.363 . S
C622 C627 1.379 1_455 S
C622 N629 1.356 . S
C623 C622 1.363 . S
C623 C626 1.363 1_545 S
N624 C626 1.356 1_545 S
N624 H636 0.984 1_545 S
N624 H637 0.985 . S
N625 C627 1.356 1_565 S
N625 H630 0.984 . S
N625 H631 0.985 1_565 S
C626 C620 1.379 1_455 S
C626 C623 1.363 1_565 S
C626 N624 1.356 1_565 S
C627 C621 1.363 1_545 S
C627 C622 1.379 1_655 S
C627 N625 1.356 1_545 S
N628 C620 1.356 . S
N628 H634 0.984 . S
N628 H635 0.984 . S
N629 C622 1.356 . S
N629 H632 0.984 . S
N629 H633 0.985 . S
H630 N625 0.984 . S
H631 N625 0.985 1_545 S
H632 N629 0.984 . S
H633 N629 0.985 . S
H634 N628 0.984 . S
H635 N628 0.984 . S
H636 N624 0.984 1_565 S
H637 N624 0.985 . S
C638 C639 1.363 1_655 S
C638 C644 1.379 . S
C638 N646 1.356 . S
C639 C638 1.363 1_455 S
C639 C645 1.363 . S
C640 C641 1.363 1_455 S
C640 C645 1.379 . S
C640 N647 1.356 . S
C641 C640 1.363 1_655 S
C641 C644 1.363 . S
N642 C644 1.356 . S
N642 H654 0.984 . S
N642 H655 0.985 . S
N643 C645 1.356 . S
N643 H648 0.984 . S
N643 H649 0.985 . S
C644 C638 1.379 . S
C644 C641 1.363 . S
C644 N642 1.356 . S
C645 C639 1.363 . S
C645 C640 1.379 . S
C645 N643 1.356 . S
N646 C638 1.356 . S
N646 H652 0.984 . S
N646 H653 0.984 1_655 S
N647 C640 1.356 . S
N647 H650 0.984 1_455 S
N647 H651 0.985 . S
H648 N643 0.984 . S
H649 N643 0.985 . S
H650 N647 0.984 1_655 S
H651 N647 0.985 . S
H652 N646 0.984 . S
H653 N646 0.984 1_455 S
H654 N642 0.984 . S
H655 N642 0.985 . S
C656 C657 1.363 . S
C656 C662 1.379 . S
C656 N664 1.356 . S
C657 C656 1.363 . S
C657 C663 1.363 . S
C658 C659 1.363 . S
C658 C663 1.379 . S
C658 N665 1.356 1_545 S
C659 C658 1.363 . S
C659 C662 1.363 . S
N660 C662 1.356 . S
N660 H672 0.984 . S
N660 H673 0.985 . S
N661 C663 1.356 1_565 S
N661 H666 0.984 . S
N661 H667 0.985 . S
C662 C656 1.379 . S
C662 C659 1.363 . S
C662 N660 1.356 . S
C663 C657 1.363 . S
C663 C658 1.379 . S
C663 N661 1.356 1_545 S
N664 C656 1.356 . S
N664 H670 0.984 . S
N664 H671 0.984 . S
N665 C658 1.356 1_565 S
N665 H668 0.984 . S
N665 H669 0.985 . S
H666 N661 0.984 . S
H667 N661 0.985 . S
H668 N665 0.984 . S
H669 N665 0.985 . S
H670 N664 0.984 . S
H671 N664 0.984 . S
H672 N660 0.984 . S
H673 N660 0.985 . S
C674 C675 1.363 . S
C674 C680 1.379 . S
C674 N682 1.356 1_655 S
C675 C674 1.363 . S
C675 C681 1.363 . S
C676 C677 1.363 . S
C676 C681 1.379 . S
C676 N683 1.356 . S
C677 C676 1.363 . S
C677 C680 1.363 . S
N678 C680 1.356 1_455 S
N678 H690 0.984 . S
N678 H691 0.985 1_455 S
N679 C681 1.356 . S
N679 H684 0.984 . S
N679 H685 0.985 . S
C680 C674 1.379 . S
C680 C677 1.363 . S
C680 N678 1.356 1_655 S
C681 C675 1.363 . S
C681 C676 1.379 . S
C681 N679 1.356 . S
N682 C674 1.356 1_455 S
N682 H688 0.984 . S
N682 H689 0.984 1_455 S
N683 C676 1.356 . S
N683 H686 0.984 . S
N683 H687 0.985 . S
H684 N679 0.984 . S
H685 N679 0.985 . S
H686 N683 0.984 . S
H687 N683 0.985 . S
H688 N682 0.984 . S
H689 N682 0.984 1_655 S
H690 N678 0.984 . S
H691 N678 0.985 1_655 S
C692 C693 1.363 . S
C692 C698 1.379 . S
C692 N700 1.356 . S
C693 C692 1.363 . S
C693 C699 1.363 . S
C694 C695 1.363 . S
C694 C699 1.379 . S
C694 N701 1.356 . S
C695 C694 1.363 . S
C695 C698 1.363 . S
N696 C698 1.356 . S
N696 H708 0.984 . S
N696 H709 0.985 . S
N697 C699 1.356 . S
N697 H702 0.984 . S
N697 H703 0.985 . S
C698 C692 1.379 . S
C698 C695 1.363 . S
C698 N696 1.356 . S
C699 C693 1.363 . S
C699 C694 1.379 . S
C699 N697 1.356 . S
N700 C692 1.356 . S
N700 H706 0.984 . S
N700 H707 0.984 . S
N701 C694 1.356 . S
N701 H704 0.984 . S
N701 H705 0.985 . S
H702 N697 0.984 . S
H703 N697 0.985 . S
H704 N701 0.984 . S
H705 N701 0.985 . S
H706 N700 0.984 . S
H707 N700 0.984 . S
H708 N696 0.984 . S
H709 N696 0.985 . S
C710 C711 1.363 . S
C710 C716 1.379 . S
C710 N718 1.356 . S
C711 C710 1.363 . S
C711 C717 1.363 . S
C712 C713 1.363 . S
C712 C717 1.379 . S
C712 N719 1.356 . S
C713 C712 1.363 . S
C713 C716 1.363 . S
N714 C716 1.356 . S
N714 H726 0.984 . S
N714 H727 0.985 . S
N715 C717 1.356 . S
N715 H720 0.984 . S
N715 H721 0.985 . S
C716 C710 1.379 . S
C716 C713 1.363 . S
C716 N714 1.356 . S
C717 C711 1.363 . S
C717 C712 1.379 . S
C717 N715 1.356 . S
N718 C710 1.356 . S
N718 H724 0.984 . S
N718 H725 0.984 . S
N719 C712 1.356 . S
N719 H722 0.984 . S
N719 H723 0.985 . S
H720 N715 0.984 . S
H721 N715 0.985 . S
H722 N719 0.984 . S
H723 N719 0.985 . S
H724 N718 0.984 . S
H725 N718 0.984 . S
H726 N714 0.984 . S
H727 N714 0.985 . S
C728 C729 1.363 . S
C728 C734 1.379 . S
C728 N736 1.356 . S
C729 C728 1.363 . S
C729 C735 1.363 . S
C730 C731 1.363 . S
C730 C735 1.379 . S
C730 N737 1.356 . S
C731 C730 1.363 . S
C731 C734 1.363 . S
N732 C734 1.356 . S
N732 H744 0.984 . S
N732 H745 0.985 . S
N733 C735 1.356 . S
N733 H738 0.984 . S
N733 H739 0.985 . S
C734 C728 1.379 . S
C734 C731 1.363 . S
C734 N732 1.356 . S
C735 C729 1.363 . S
C735 C730 1.379 . S
C735 N733 1.356 . S
N736 C728 1.356 . S
N736 H742 0.984 . S
N736 H743 0.984 . S
N737 C730 1.356 . S
N737 H740 0.984 . S
N737 H741 0.985 . S
H738 N733 0.984 . S
H739 N733 0.985 . S
H740 N737 0.984 . S
H741 N737 0.985 . S
H742 N736 0.984 . S
H743 N736 0.984 . S
H744 N732 0.984 . S
H745 N732 0.985 . S
C746 C747 1.363 . S
C746 C752 1.379 . S
C746 N754 1.356 . S
C747 C746 1.363 . S
C747 C753 1.363 . S
C748 C749 1.363 . S
C748 C753 1.379 . S
C748 N755 1.356 . S
C749 C748 1.363 . S
C749 C752 1.363 . S
N750 C752 1.356 . S
N750 H762 0.984 . S
N750 H763 0.985 . S
N751 C753 1.356 . S
N751 H756 0.984 . S
N751 H757 0.985 . S
C752 C746 1.379 . S
C752 C749 1.363 . S
C752 N750 1.356 . S
C753 C747 1.363 . S
C753 C748 1.379 . S
C753 N751 1.356 . S
N754 C746 1.356 . S
N754 H760 0.984 . S
N754 H761 0.984 . S
N755 C748 1.356 . S
N755 H758 0.984 . S
N755 H759 0.985 . S
H756 N751 0.984 . S
H757 N751 0.985 . S
H758 N755 0.984 . S
H759 N755 0.985 . S
H760 N754 0.984 . S
H761 N754 0.984 . S
H762 N750 0.984 . S
H763 N750 0.985 . S
C764 C765 1.363 . S
C764 C770 1.379 . S
C764 N772 1.356 . S
C765 C764 1.363 . S
C765 C771 1.363 . S
C766 C767 1.363 . S
C766 C771 1.379 . S
C766 N773 1.356 1_565 S
C767 C766 1.363 . S
C767 C770 1.363 . S
N768 C770 1.356 . S
N768 H780 0.984 . S
N768 H781 0.985 . S
N769 C771 1.356 1_545 S
N769 H774 0.984 . S
N769 H775 0.985 . S
C770 C764 1.379 . S
C770 C767 1.363 . S
C770 N768 1.356 . S
C771 C765 1.363 . S
C771 C766 1.379 . S
C771 N769 1.356 1_565 S
N772 C764 1.356 . S
N772 H778 0.984 . S
N772 H779 0.984 . S
N773 C766 1.356 1_545 S
N773 H776 0.984 . S
N773 H777 0.985 . S
H774 N769 0.984 . S
H775 N769 0.985 . S
H776 N773 0.984 . S
H777 N773 0.985 . S
H778 N772 0.984 . S
H779 N772 0.984 . S
H780 N768 0.984 . S
H781 N768 0.985 . S
C782 C783 1.363 . S
C782 C788 1.379 . S
C782 N790 1.356 . S
C783 C782 1.363 . S
C783 C789 1.363 . S
C784 C785 1.363 . S
C784 C789 1.379 . S
C784 N791 1.356 1_455 S
C785 C784 1.363 . S
C785 C788 1.363 . S
N786 C788 1.356 . S
N786 H798 0.984 . S
N786 H799 0.985 . S
N787 C789 1.356 1_655 S
N787 H792 0.984 1_655 S
N787 H793 0.985 . S
C788 C782 1.379 . S
C788 C785 1.363 . S
C788 N786 1.356 . S
C789 C783 1.363 . S
C789 C784 1.379 . S
C789 N787 1.356 1_455 S
N790 C782 1.356 . S
N790 H796 0.984 . S
N790 H797 0.984 . S
N791 C784 1.356 1_655 S
N791 H794 0.984 1_655 S
N791 H795 0.985 . S
H792 N787 0.984 1_455 S
H793 N787 0.985 . S
H794 N791 0.984 1_455 S
H795 N791 0.985 . S
H796 N790 0.984 . S
H797 N790 0.984 . S
H798 N786 0.984 . S
H799 N786 0.985 . S
C800 C801 1.363 . S
C800 C806 1.379 . S
C800 N808 1.356 . S
C801 C800 1.363 . S
C801 C807 1.363 . S
C802 C803 1.363 . S
C802 C807 1.379 . S
C802 N809 1.356 . S
C803 C802 1.363 . S
C803 C806 1.363 . S
N804 C806 1.356 . S
N804 H816 0.984 . S
N804 H817 0.985 . S
N805 C807 1.356 . S
N805 H810 0.984 . S
N805 H811 0.985 . S
C806 C800 1.379 . S
C806 C803 1.363 . S
C806 N804 1.356 . S
C807 C801 1.363 . S
C807 C802 1.379 . S
C807 N805 1.356 . S
N808 C800 1.356 . S
N808 H814 0.984 . S
N808 H815 0.984 . S
N809 C802 1.356 . S
N809 H812 0.984 . S
N809 H813 0.985 . S
H810 N805 0.984 . S
H811 N805 0.985 . S
H812 N809 0.984 . S
H813 N809 0.985 . S
H814 N808 0.984 . S
H815 N808 0.984 . S
H816 N804 0.984 . S
H817 N804 0.985 . S
C818 C819 1.363 . S
C818 C824 1.379 . S
C818 N826 1.356 . S
C819 C818 1.363 . S
C819 C825 1.363 . S
C820 C821 1.363 . S
C820 C825 1.379 . S
C820 N827 1.356 . S
C821 C820 1.363 . S
C821 C824 1.363 . S
N822 C824 1.356 . S
N822 H834 0.984 . S
N822 H835 0.985 . S
N823 C825 1.356 . S
N823 H828 0.984 . S
N823 H829 0.985 . S
C824 C818 1.379 . S
C824 C821 1.363 . S
C824 N822 1.356 . S
C825 C819 1.363 . S
C825 C820 1.379 . S
C825 N823 1.356 . S
N826 C818 1.356 . S
N826 H832 0.984 . S
N826 H833 0.984 . S
N827 C820 1.356 . S
N827 H830 0.984 . S
N827 H831 0.985 1_655 S
H828 N823 0.984 . S
H829 N823 0.985 . S
H830 N827 0.984 . S
H831 N827 0.985 1_455 S
H832 N826 0.984 . S
H833 N826 0.984 . S
H834 N822 0.984 . S
H835 N822 0.985 . S
C836 C837 1.363 . S
C836 C842 1.379 . S
C836 N844 1.356 . S
C837 C836 1.363 . S
C837 C843 1.363 . S
C838 C839 1.363 . S
C838 C843 1.379 . S
C838 N845 1.356 . S
C839 C838 1.363 . S
C839 C842 1.363 . S
N840 C842 1.356 . S
N840 H852 0.984 . S
N840 H853 0.985 . S
N841 C843 1.356 . S
N841 H846 0.984 . S
N841 H847 0.985 . S
C842 C836 1.379 . S
C842 C839 1.363 . S
C842 N840 1.356 . S
C843 C837 1.363 . S
C843 C838 1.379 . S
C843 N841 1.356 . S
N844 C836 1.356 . S
N844 H850 0.984 . S
N844 H851 0.984 . S
N845 C838 1.356 . S
N845 H848 0.984 . S
N845 H849 0.985 . S
H846 N841 0.984 . S
H847 N841 0.985 . S
H848 N845 0.984 . S
H849 N845 0.985 . S
H850 N844 0.984 . S
H851 N844 0.984 . S
H852 N840 0.984 . S
H853 N840 0.985 . S
C854 C855 1.363 . S
C854 C860 1.339 1_556 S
C854 N862 1.356 . S
C855 C854 1.363 . S
C855 C861 1.363 . S
C856 C857 1.363 . S
C856 C861 1.379 1_554 S
C856 N863 1.356 . S
C857 C856 1.363 . S
C857 C860 1.397 . S
N858 C860 1.377 . S
N858 H870 0.984 . S
N858 H871 0.985 . S
N859 C861 1.356 . S
N859 H864 0.984 . S
N859 H865 0.985 . S
C860 C854 1.339 1_554 S
C860 C857 1.397 . S
C860 N858 1.377 . S
C861 C855 1.363 . S
C861 C856 1.379 1_556 S
C861 N859 1.356 . S
N862 C854 1.356 . S
N862 H868 0.984 . S
N862 H869 0.984 . S
N863 C856 1.356 . S
N863 H866 0.984 . S
N863 H867 0.985 . S
H864 N859 0.984 . S
H865 N859 0.985 . S
H866 N863 0.984 . S
H867 N863 0.985 . S
H868 N862 0.984 . S
H869 N862 0.984 . S
H870 N858 0.984 . S
H871 N858 0.985 . S
C872 C873 1.363 . S
C872 C878 1.379 . S
C872 N880 1.356 . S
C873 C872 1.363 . S
C873 C879 1.363 1_554 S
C874 C875 1.363 . S
C874 C879 1.379 . S
C874 N881 1.356 . S
C875 C874 1.363 . S
C875 C878 1.363 1_556 S
N876 C878 1.355 1_556 S
N876 H888 0.970 1_556 S
N876 H889 1.001 . S
N877 C879 1.356 . S
N877 H882 0.984 1_556 S
N877 H883 0.985 . S
C878 C872 1.379 . S
C878 C875 1.363 1_554 S
C878 N876 1.355 1_554 S
C879 C873 1.363 1_556 S
C879 C874 1.379 . S
C879 N877 1.356 . S
N880 C872 1.356 . S
N880 H886 0.984 . S
N880 H887 0.984 . S
N881 C874 1.356 . S
N881 H884 0.984 . S
N881 H885 0.985 . S
H882 N877 0.984 1_554 S
H883 N877 0.985 . S
H884 N881 0.984 . S
H885 N881 0.985 . S
H886 N880 0.984 . S
H887 N880 0.984 . S
H888 N876 0.970 1_554 S
H889 N876 1.001 . S
C890 C891 1.363 . S
C890 C896 1.379 . S
C890 N898 1.356 . S
C891 C890 1.363 . S
C891 C897 1.363 . S
C892 C893 1.363 . S
C892 C897 1.379 . S
C892 N899 1.356 . S
C893 C892 1.363 . S
C893 C896 1.363 . S
N894 C896 1.356 . S
N894 H906 0.984 . S
N894 H907 0.985 . S
N895 C897 1.356 . S
N895 H900 0.984 . S
N895 H901 0.985 . S
C896 C890 1.379 . S
C896 C893 1.363 . S
C896 N894 1.356 . S
C897 C891 1.363 . S
C897 C892 1.379 . S
C897 N895 1.356 . S
N898 C890 1.356 . S
N898 H904 0.984 . S
N898 H905 0.984 . S
N899 C892 1.356 . S
N899 H902 0.984 . S
N899 H903 0.985 . S
H900 N895 0.984 . S
H901 N895 0.985 . S
H902 N899 0.984 . S
H903 N899 0.985 . S
H904 N898 0.984 . S
H905 N898 0.984 . S
H906 N894 0.984 . S
H907 N894 0.985 . S
C908 C909 1.363 . S
C908 C914 1.379 . S
C908 N916 1.356 . S
C909 C908 1.363 . S
C909 C915 1.363 . S
C910 C911 1.363 . S
C910 C915 1.379 . S
C910 N917 1.356 . S
C911 C910 1.363 . S
C911 C914 1.363 . S
N912 C914 1.356 . S
N912 H924 0.984 . S
N912 H925 0.985 . S
N913 C915 1.356 . S
N913 H918 0.984 . S
N913 H919 0.985 . S
C914 C908 1.379 . S
C914 C911 1.363 . S
C914 N912 1.356 . S
C915 C909 1.363 . S
C915 C910 1.379 . S
C915 N913 1.356 . S
N916 C908 1.356 . S
N916 H922 0.984 . S
N916 H923 0.984 . S
N917 C910 1.356 . S
N917 H920 0.984 . S
N917 H921 0.985 . S
H918 N913 0.984 . S
H919 N913 0.985 . S
H920 N917 0.984 . S
H921 N917 0.985 . S
H922 N916 0.984 . S
H923 N916 0.984 . S
H924 N912 0.984 . S
H925 N912 0.985 . S
C926 C927 1.363 . S
C926 C932 1.379 . S
C926 N934 1.356 . S
C927 C926 1.363 . S
C927 C933 1.363 . S
C928 C929 1.363 . S
C928 C933 1.379 . S
C928 N935 1.356 . S
C929 C928 1.363 . S
C929 C932 1.363 . S
N930 C932 1.356 . S
N930 H942 0.984 . S
N930 H943 0.985 . S
N931 C933 1.356 . S
N931 H936 0.984 . S
N931 H937 0.985 . S
C932 C926 1.379 . S
C932 C929 1.363 . S
C932 N930 1.356 . S
C933 C927 1.363 . S
C933 C928 1.379 . S
C933 N931 1.356 . S
N934 C926 1.356 . S
N934 H940 0.984 . S
N934 H941 0.984 . S
N935 C928 1.356 . S
N935 H938 0.984 . S
N935 H939 0.985 . S
H936 N931 0.984 . S
H937 N931 0.985 . S
H938 N935 0.984 . S
H939 N935 0.985 . S
H940 N934 0.984 . S
H941 N934 0.984 . S
H942 N930 0.984 . S
H943 N930 0.985 . S
C369 C246 1.953 . S
C371 C16 1.953 . S
C387 N35 1.826 . S
C389 N265 1.826 . S
C405 C200 1.954 . S
C407 C62 1.954 . S
C423 N219 1.827 . S
C425 N81 1.827 . S
C441 C108 1.954 . S
C443 C338 1.954 . S
C459 N357 1.826 . S
C461 N127 1.826 . S
C477 C154 1.954 . S
C479 C292 1.954 . S
C495 N311 1.825 . S
C497 N173 1.825 . S
C513 C237 1.406 . S
C515 C7 1.406 . S
C531 N25 1.087 . S
C533 N255 1.087 . S
C549 C53 1.405 . S
C551 C191 1.405 . S
C567 N71 1.087 . S
C569 N209 1.087 . S
C585 C99 1.406 . S
C587 C329 1.406 . S
C603 N117 1.087 . S
C605 N347 1.087 . S
C621 C283 1.406 . S
C623 C145 1.406 . S
C639 N301 1.087 . S
C641 N163 1.087 . S
C657 N2 1.585 . S
C659 N140 1.585 . S
C675 C30 1.627 . S
C677 C168 1.627 . S
C693 N48 1.585 . S
C695 N94 1.585 . S
C711 C76 1.627 . S
C713 C122 1.627 . S
C729 N186 1.585 . S
C731 N324 1.585 . S
C747 C352 1.627 . S
C749 C214 1.627 . S
C765 N232 1.584 . S
C767 N278 1.585 . S
C783 C306 1.628 . S
C785 C260 1.628 . S
C801 N12 1.680 . S
C803 C361 1.652 . S
C819 N288 1.681 . S
C821 C39 1.652 . S
C837 C315 1.652 . S
C839 N58 1.680 . S
C855 N334 1.680 . S
C857 C85 1.652 . S
C873 C223 1.652 . S
C875 N104 1.681 . S
C891 N242 1.680 . S
C893 C131 1.652 . S
C909 N150 1.681 . S
C911 C269 1.652 . S
C927 C177 1.652 . S
C929 N196 1.681 . S
