# Generated by pormake.
# Topology uoz, (4)-cn, num edge types: 1
# Building blocks:
#     Node 0, Type 0, BuildingBlock: ICAMEG_clean_sbu_1, # of connection points: 4
#     Node 1, Type 0, BuildingBlock: ICAMEG_clean_sbu_1, # of connection points: 4
#     Node 2, Type 0, BuildingBlock: ICAMEG_clean_sbu_1, # of connection points: 4
#     Node 3, Type 0, BuildingBlock: ICAMEG_clean_sbu_1, # of connection points: 4
#     Node 4, Type 0, BuildingBlock: ICAMEG_clean_sbu_1, # of connection points: 4
#     Node 5, Type 0, BuildingBlock: ICAMEG_clean_sbu_1, # of connection points: 4
#     Node 6, Type 0, BuildingBlock: ICAMEG_clean_sbu_1, # of connection points: 4
#     Node 7, Type 0, BuildingBlock: ICAMEG_clean_sbu_1, # of connection points: 4
#     Node 8, Type 0, BuildingBlock: ICAMEG_clean_sbu_1, # of connection points: 4
#     Node 9, Type 0, BuildingBlock: ICAMEG_clean_sbu_1, # of connection points: 4
#     Node 10, Type 0, BuildingBlock: ICAMEG_clean_sbu_1, # of connection points: 4
#     Node 11, Type 0, BuildingBlock: ICAMEG_clean_sbu_1, # of connection points: 4
#     Node 12, Type 0, BuildingBlock: ICAMEG_clean_sbu_1, # of connection points: 4
#     Node 13, Type 0, BuildingBlock: ICAMEG_clean_sbu_1, # of connection points: 4
#     Node 14, Type 0, BuildingBlock: ICAMEG_clean_sbu_1, # of connection points: 4
#     Node 15, Type 0, BuildingBlock: ICAMEG_clean_sbu_1, # of connection points: 4
#     Edge 16, Type (0, 0), BuildingBlock: XUDNAN_clean_linker_2, # of connection points: 2
#     Edge 17, Type (0, 0), BuildingBlock: XUDNAN_clean_linker_2, # of connection points: 2
#     Edge 18, Type (0, 0), BuildingBlock: XUDNAN_clean_linker_2, # of connection points: 2
#     Edge 19, Type (0, 0), BuildingBlock: XUDNAN_clean_linker_2, # of connection points: 2
#     Edge 20, Type (0, 0), BuildingBlock: XUDNAN_clean_linker_2, # of connection points: 2
#     Edge 21, Type (0, 0), BuildingBlock: XUDNAN_clean_linker_2, # of connection points: 2
#     Edge 22, Type (0, 0), BuildingBlock: XUDNAN_clean_linker_2, # of connection points: 2
#     Edge 23, Type (0, 0), BuildingBlock: XUDNAN_clean_linker_2, # of connection points: 2
#     Edge 24, Type (0, 0), BuildingBlock: XUDNAN_clean_linker_2, # of connection points: 2
#     Edge 25, Type (0, 0), BuildingBlock: XUDNAN_clean_linker_2, # of connection points: 2
#     Edge 26, Type (0, 0), BuildingBlock: XUDNAN_clean_linker_2, # of connection points: 2
#     Edge 27, Type (0, 0), BuildingBlock: XUDNAN_clean_linker_2, # of connection points: 2
#     Edge 28, Type (0, 0), BuildingBlock: XUDNAN_clean_linker_2, # of connection points: 2
#     Edge 29, Type (0, 0), BuildingBlock: XUDNAN_clean_linker_2, # of connection points: 2
#     Edge 30, Type (0, 0), BuildingBlock: XUDNAN_clean_linker_2, # of connection points: 2
#     Edge 31, Type (0, 0), BuildingBlock: XUDNAN_clean_linker_2, # of connection points: 2
#     Edge 32, Type (0, 0), BuildingBlock: XUDNAN_clean_linker_2, # of connection points: 2
#     Edge 33, Type (0, 0), BuildingBlock: XUDNAN_clean_linker_2, # of connection points: 2
#     Edge 34, Type (0, 0), BuildingBlock: XUDNAN_clean_linker_2, # of connection points: 2
#     Edge 35, Type (0, 0), BuildingBlock: XUDNAN_clean_linker_2, # of connection points: 2
#     Edge 36, Type (0, 0), BuildingBlock: XUDNAN_clean_linker_2, # of connection points: 2
#     Edge 37, Type (0, 0), BuildingBlock: XUDNAN_clean_linker_2, # of connection points: 2
#     Edge 38, Type (0, 0), BuildingBlock: XUDNAN_clean_linker_2, # of connection points: 2
#     Edge 39, Type (0, 0), BuildingBlock: XUDNAN_clean_linker_2, # of connection points: 2
#     Edge 40, Type (0, 0), BuildingBlock: XUDNAN_clean_linker_2, # of connection points: 2
#     Edge 41, Type (0, 0), BuildingBlock: XUDNAN_clean_linker_2, # of connection points: 2
#     Edge 42, Type (0, 0), BuildingBlock: XUDNAN_clean_linker_2, # of connection points: 2
#     Edge 43, Type (0, 0), BuildingBlock: XUDNAN_clean_linker_2, # of connection points: 2
#     Edge 44, Type (0, 0), BuildingBlock: XUDNAN_clean_linker_2, # of connection points: 2
#     Edge 45, Type (0, 0), BuildingBlock: XUDNAN_clean_linker_2, # of connection points: 2
#     Edge 46, Type (0, 0), BuildingBlock: XUDNAN_clean_linker_2, # of connection points: 2
#     Edge 47, Type (0, 0), BuildingBlock: XUDNAN_clean_linker_2, # of connection points: 2
# Relax obj value: 0.289
# Max RMSD: 0.240
# Mean RMSD: 0.240
data_MOF--net-uoz--node1-ICAMEG_clean_sbu_1--edge1-XUDNAN_clean_linker_2
_symmetry_space_group_name_H-M    P1
_symmetry_Int_Tables_number       1
_symmetry_cell_setting            triclinic
loop_
_symmetry_equiv_pos_as_xyz
'x, y, z'
_cell_length_a     62.110513
_cell_length_b     62.138525
_cell_length_c     23.141601
_cell_angle_alpha  89.979822
_cell_angle_beta   90.121291
_cell_angle_gamma 89.97603
loop_
_atom_site_label
_atom_site_type_symbol
_atom_site_fract_x
_atom_site_fract_y
_atom_site_fract_z
_atom_type_partial_charge
Co0 Co 0.01273 0.59315 0.19733 0.0
Co1 Co 0.0123 0.60468 0.34185 0.0
O2 O 0.0104 0.58382 0.27828 0.0
C3 C 0.97467 0.56361 0.18991 0.0
O4 O 0.96584 0.57229 0.23581 0.0
C5 C 0.02821 0.56111 0.39473 0.0
O6 O 0.02524 0.55105 0.3455 0.0
O7 O 0.04139 0.6152 0.31199 0.0
O8 O 0.0327 0.61686 0.21813 0.0
H9 H 0.02686 0.67775 0.42644 0.0
H10 H 0.02092 0.54738 0.22554 0.0
O11 O 0.99301 0.56974 0.17215 0.0
H12 H 0.08825 0.57366 0.13779 0.0
H13 H 0.01923 0.58161 0.98261 0.0
H14 H 0.01183 0.63548 0.13775 0.0
H15 H 0.05702 0.5978 0.1485 0.0
H16 H 0.01762 0.57029 0.0846 0.0
O17 O 0.02619 0.58184 0.39677 0.0
H18 H 0.02352 0.65102 0.34828 0.0
H19 H 1.00613 0.6029 0.47002 0.0
H20 H 0.01357 0.6475 0.03637 0.0
H21 H 0.05172 0.52259 0.21507 0.0
H22 H 0.01727 0.62048 0.95792 0.0
H23 H 0.0857 0.53572 0.171 0.0
O24 O 0.98782 0.61304 0.20774 0.0
H25 H 0.95229 0.55196 0.38473 0.0
H26 H 0.97379 0.62825 0.38404 0.0
H27 H 0.9375 0.61833 0.41672 0.0
H28 H 0.92654 0.5799 0.41783 0.0
H29 H 0.98812 0.56257 0.35141 0.0
H30 H 0.00957 0.62905 0.54951 0.0
H31 H 0.01989 0.66682 0.52794 0.0
O32 O 0.99741 0.62764 0.29255 0.0
C33 C 0.0446 0.62228 0.2604 0.0
C34 C 0.02235 0.66134 0.43639 0.0
C35 C 0.01269 0.634 0.50547 0.0
N36 N 0.01465 0.62539 0.40444 0.0
C37 C 0.0204 0.64613 0.39228 0.0
C38 C 0.01089 0.61922 0.46025 0.0
C39 C 0.01845 0.65519 0.49333 0.0
C40 C 0.03563 0.55317 0.20614 0.0
N41 N 0.03716 0.574 0.18777 0.0
C42 C 0.05302 0.53908 0.2004 0.0
C43 C 0.07209 0.54646 0.17571 0.0
C44 C 0.07354 0.56775 0.1571 0.0
C45 C 0.05582 0.58137 0.16352 0.0
C46 C 0.01763 0.59355 0.01639 0.0
C47 C 0.01354 0.62361 0.10394 0.0
C48 C 0.01665 0.58723 0.07424 0.0
N49 N 0.01467 0.6022 0.11719 0.0
C50 C 0.01448 0.63052 0.04657 0.0
C51 C 0.01654 0.61535 1.00258 0.0
C52 C 0.98636 0.62795 0.24544 0.0
C53 C 0.95702 0.56873 0.38561 0.0
C54 C 0.96938 0.61144 0.38501 0.0
C55 C 0.94869 0.60594 0.40335 0.0
C56 C 0.94254 0.58441 0.40391 0.0
N57 N 0.98378 0.59594 0.36846 0.0
C58 C 0.97757 0.57484 0.36756 0.0
Co59 Co 0.67534 0.76884 0.45529 0.0
Co60 Co 0.66096 0.76095 0.59738 0.0
O61 O 0.68252 0.76183 0.53575 0.0
C62 C 0.70178 0.72915 0.44265 0.0
O63 O 0.69136 0.71998 0.48534 0.0
C64 C 0.70371 0.77646 0.65526 0.0
O65 O 0.71364 0.77558 0.60537 0.0
O66 O 0.65051 0.79108 0.5756 0.0
O67 O 0.65235 0.78919 0.47904 0.0
H68 H 0.58677 0.77114 0.67883 0.0
H69 H 0.7212 0.77179 0.49022 0.0
O70 O 0.69776 0.74843 0.42776 0.0
H71 H 0.70115 0.84497 0.42766 0.0
H72 H 0.69345 0.78343 0.2469 0.0
H73 H 0.6349 0.77733 0.38941 0.0
H74 H 0.67466 0.81549 0.42414 0.0
H75 H 0.70154 0.77523 0.34878 0.0
O76 O 0.68313 0.77321 0.65726 0.0
H77 H 0.61446 0.77118 0.60255 0.0
H78 H 0.66154 0.75005 0.72329 0.0
H79 H 0.62613 0.78588 0.28819 0.0
H80 H 0.74828 0.80077 0.49387 0.0
H81 H 0.65551 0.78891 0.21598 0.0
H82 H 0.73829 0.8377 0.4626 0.0
O83 O 0.65378 0.74541 0.45341 0.0
H84 H 0.71456 0.7008 0.6302 0.0
H85 H 0.63777 0.72059 0.62636 0.0
H86 H 0.64813 0.68336 0.64928 0.0
H87 H 0.68681 0.67324 0.6519 0.0
H88 H 0.70353 0.73757 0.60618 0.0
H89 H 0.63444 0.75003 0.80097 0.0
H90 H 0.59671 0.76052 0.77888 0.0
O91 O 0.63878 0.74728 0.54179 0.0
C92 C 0.64529 0.79783 0.52491 0.0
C93 C 0.60314 0.7665 0.68897 0.0
C94 C 0.62991 0.7547 0.75755 0.0
N95 N 0.63957 0.76057 0.65838 0.0
C96 C 0.61888 0.76645 0.64593 0.0
C97 C 0.64522 0.75484 0.71342 0.0
C98 C 0.60874 0.76056 0.74511 0.0
C99 C 0.71675 0.78779 0.4764 0.0
N100 N 0.69633 0.79194 0.45744 0.0
C101 C 0.73214 0.80415 0.47863 0.0
C102 C 0.72652 0.82487 0.46112 0.0
C103 C 0.70568 0.82897 0.44159 0.0
C104 C 0.69071 0.81221 0.43999 0.0
C105 C 0.68049 0.78207 0.27789 0.0
C106 C 0.6478 0.7786 0.35843 0.0
C107 C 0.68495 0.77728 0.33566 0.0
N108 N 0.66869 0.77552 0.37513 0.0
C109 C 0.64272 0.78346 0.30107 0.0
C110 C 0.65921 0.78516 0.26058 0.0
C111 C 0.63909 0.74025 0.48934 0.0
C112 C 0.69767 0.70509 0.63018 0.0
C113 C 0.65466 0.71647 0.62776 0.0
C114 C 0.66042 0.69528 0.64068 0.0
C115 C 0.6821 0.68961 0.64211 0.0
N116 N 0.67002 0.73175 0.61706 0.0
C117 C 0.6913 0.72612 0.61738 0.0
Co118 Co 0.51075 0.42616 0.70801 0.0
Co119 Co 0.50609 0.41078 0.85002 0.0
O120 O 0.51236 0.43245 0.79066 0.0
C121 C 0.55228 0.44233 0.66381 0.0
O122 O 0.55621 0.42263 0.64612 0.0
C123 C 0.48579 0.45299 0.89235 0.0
O124 O 0.47972 0.45658 0.83886 0.0
O125 O 0.47683 0.40494 0.81376 0.0
O126 O 0.48573 0.40618 0.71949 0.0
H127 H 0.47992 0.33928 0.92296 0.0
H128 H 0.51073 0.4718 0.74522 0.0
O129 O 0.53558 0.44615 0.6943 0.0
H130 H 0.44298 0.46218 0.63686 0.0
H131 H 0.51168 0.44455 0.49563 0.0
H132 H 0.50609 0.38621 0.63935 0.0
H133 H 0.46825 0.43191 0.64919 0.0
H134 H 0.51282 0.45265 0.59986 0.0
O135 O 0.49457 0.4348 0.90441 0.0
H136 H 0.48862 0.36641 0.84885 0.0
H137 H 0.50969 0.40985 0.97879 0.0
H138 H 0.5048 0.37742 0.53549 0.0
H139 H 0.48619 0.50266 0.73272 0.0
H140 H 0.50763 0.40671 0.46282 0.0
H141 H 0.45197 0.49793 0.67846 0.0
O142 O 0.53113 0.40197 0.71884 0.0
H143 H 0.56796 0.45632 0.91897 0.0
H144 H 0.5417 0.3822 0.89037 0.0
H145 H 0.57803 0.3881 0.93039 0.0
H146 H 0.59135 0.42538 0.94521 0.0
H147 H 0.53184 0.44972 0.87844 0.0
H148 H 0.50108 0.38326 0.05436 0.0
H149 H 0.48615 0.34764 0.02662 0.0
O150 O 0.51891 0.38661 0.80013 0.0
C151 C 0.47298 0.40082 0.76019 0.0
C152 C 0.48642 0.35474 0.93561 0.0
C153 C 0.49827 0.37943 1.00935 0.0
N154 N 0.49962 0.3897 0.90938 0.0
C155 C 0.49139 0.37016 0.8938 0.0
C156 C 0.50303 0.39446 0.96634 0.0
C157 C 0.48991 0.35944 0.99375 0.0
C158 C 0.49596 0.46965 0.72112 0.0
N159 N 0.49088 0.45002 0.69827 0.0
C160 C 0.48209 0.48717 0.7144 0.0
C161 C 0.46288 0.48449 0.68402 0.0
C162 C 0.4578 0.46444 0.66077 0.0
C163 C 0.47209 0.4473 0.66831 0.0
C164 C 0.51041 0.43165 0.52686 0.0
C165 C 0.50727 0.39906 0.608 0.0
C166 C 0.51104 0.43613 0.58596 0.0
N167 N 0.50948 0.41991 0.62573 0.0
C168 C 0.50655 0.39398 0.54925 0.0
C169 C 0.50814 0.41042 0.50849 0.0
C170 C 0.53056 0.38634 0.75426 0.0
C171 C 0.5623 0.44 0.91298 0.0
C172 C 0.54737 0.39848 0.89655 0.0
C173 C 0.56796 0.40171 0.91931 0.0
C174 C 0.57542 0.42263 0.92762 0.0
N175 N 0.53452 0.4156 0.88267 0.0
C176 C 0.5418 0.43615 0.89026 0.0
Co177 Co 0.83635 0.25512 0.95038 0.0
Co178 Co 0.85759 0.25646 0.08924 0.0
O179 O 0.83414 0.26045 0.03346 0.0
C180 C 0.82371 0.29716 0.90069 0.0
O181 O 0.84285 0.29802 0.87679 0.0
C182 C 0.81645 0.23747 0.14648 0.0
O183 O 0.80829 0.2331 0.09552 0.0
O184 O 0.86474 0.22675 0.05646 0.0
O185 O 0.85359 0.22862 0.96384 0.0
H186 H 0.93261 0.23656 0.15071 0.0
H187 H 0.79304 0.26308 1.00008 0.0
O188 O 0.81914 0.28187 0.93545 0.0
H189 H 0.78906 0.19071 0.91343 0.0
H190 H 0.80762 0.25153 0.74663 0.0
H191 H 0.87117 0.24094 0.87151 0.0
H192 H 0.82264 0.21179 0.90876 0.0
H193 H 0.80529 0.25782 0.85158 0.0
O194 O 0.83601 0.24438 0.14995 0.0
H195 H 0.90293 0.24207 0.08128 0.0
H196 H 0.86183 0.26259 0.21692 0.0
H197 H 0.87419 0.23439 0.76677 0.0
H198 H 0.75896 0.24283 1.00439 0.0
H199 H 0.84226 0.23972 0.70353 0.0
H200 H 0.75685 0.20631 0.96118 0.0
O201 O 0.8635 0.27197 0.94592 0.0
H202 H 0.80991 0.31701 0.1565 0.0
H203 H 0.88473 0.29426 0.12045 0.0
H204 H 0.8776 0.33092 0.15609 0.0
H205 H 0.83996 0.34249 0.17473 0.0
H206 H 0.81771 0.28064 0.11999 0.0
H207 H 0.89099 0.25718 0.28788 0.0
H208 H 0.92672 0.24413 0.25489 0.0
O209 O 0.87916 0.26999 0.0334 0.0
C210 C 0.86359 0.21916 1.0047 0.0
C211 C 0.91711 0.24223 0.16564 0.0
C212 C 0.89374 0.25377 0.24263 0.0
N213 N 0.88064 0.25253 0.145 0.0
C214 C 0.90025 0.24537 0.12652 0.0
C215 C 0.87725 0.25669 0.20227 0.0
C216 C 0.91379 0.24647 0.22408 0.0
C217 C 0.79221 0.24728 0.98067 0.0
N218 N 0.80989 0.23855 0.95458 0.0
C219 C 0.77288 0.23585 0.98351 0.0
C220 C 0.77172 0.21535 0.95934 0.0
C221 C 0.7898 0.20656 0.93268 0.0
C222 C 0.80885 0.21848 0.93066 0.0
C223 C 0.82166 0.2492 0.77369 0.0
C224 C 0.85722 0.24333 0.8443 0.0
C225 C 0.82046 0.25278 0.83316 0.0
N226 N 0.83814 0.24991 0.86767 0.0
C227 C 0.85902 0.23958 0.78501 0.0
C228 C 0.8411 0.24257 0.74955 0.0
C229 C 0.87904 0.27597 0.98028 0.0
C230 C 0.82639 0.31212 0.14891 0.0
C231 C 0.8683 0.29914 0.12832 0.0
C232 C 0.86437 0.31994 0.1486 0.0
C233 C 0.84325 0.32642 0.15904 0.0
N234 N 0.85169 0.28512 0.11892 0.0
C235 C 0.83093 0.29145 0.12854 0.0
Co236 Co 1.00864 0.42061 0.90362 0.0
Co237 Co 0.01147 0.41019 0.75846 0.0
O238 O 1.00661 0.43011 0.82288 0.0
C239 C 0.96897 0.43842 0.95529 0.0
O240 O 0.96401 0.41867 0.97049 0.0
C241 C 0.03143 0.45347 0.72064 0.0
O242 O 0.03587 0.45743 0.77505 0.0
O243 O 0.04088 0.4025 0.79179 0.0
O244 O 0.03161 0.39908 0.88506 0.0
H245 H 0.03449 0.33991 0.67104 0.0
H246 H 0.01166 0.46749 0.88069 0.0
O247 O 0.98564 0.44189 0.92442 0.0
H248 H 0.08041 0.44807 0.97399 0.0
H249 H 0.01197 0.43142 0.11952 0.0
H250 H 0.01066 0.37812 0.96178 0.0
H251 H 0.05268 0.42049 0.95632 0.0
H252 H 0.01003 0.4432 0.01789 0.0
O253 O 0.02366 0.43494 0.70733 0.0
H254 H 0.02751 0.36543 0.75044 0.0
H255 H 1.00667 0.41268 0.62993 0.0
H256 H 0.01269 0.36565 0.06273 0.0
H257 H 0.03875 0.49566 0.89893 0.0
H258 H 0.01333 0.39239 0.14249 0.0
H259 H 0.07348 0.486 0.9456 0.0
O260 O 0.98644 0.39845 0.88881 0.0
H261 H 0.95088 0.46004 0.70427 0.0
H262 H 0.97462 0.38439 0.71279 0.0
H263 H 0.93831 0.39291 0.67622 0.0
H264 H 0.92626 0.431 0.67147 0.0
H265 H 0.98693 0.45077 0.74125 0.0
H266 H 0.01363 0.38775 0.54926 0.0
H267 H 0.02755 0.35103 0.56959 0.0
O268 O 0.99772 0.38529 0.80397 0.0
C269 C 0.04444 0.39543 0.84328 0.0
C270 C 0.0284 0.35586 0.66164 0.0
C271 C 0.01673 0.38272 0.59329 0.0
N272 N 0.01667 0.39051 0.69491 0.0
C273 C 0.02439 0.37037 0.70643 0.0
C274 C 0.01291 0.3968 0.63917 0.0
C275 C 0.02452 0.36211 0.60472 0.0
C276 C 0.02662 0.46318 0.90163 0.0
N277 N 0.03054 0.44234 0.91735 0.0
C278 C 0.04195 0.47919 0.91155 0.0
C279 C 0.06145 0.47376 0.93766 0.0
C280 C 0.06536 0.45247 0.9535 0.0
C281 C 0.04963 0.43689 0.94299 0.0
C282 C 0.01173 0.41961 0.08515 0.0
C283 C 0.01101 0.38987 0.99617 0.0
C284 C 0.01065 0.42619 0.0275 0.0
N285 N 0.01031 0.41137 0.98382 0.0
C286 C 0.01213 0.3827 0.05329 0.0
C287 C 0.01249 0.39771 0.09801 0.0
C288 C 0.98625 0.38391 0.85015 0.0
C289 C 0.95598 0.44339 0.70585 0.0
C290 C 0.9695 0.40099 0.71106 0.0
C291 C 0.94892 0.40572 0.69019 0.0
C292 C 0.94217 0.42709 0.68753 0.0
N293 N 0.98304 0.41708 0.72853 0.0
C294 C 0.97644 0.43805 0.72652 0.0
Co295 Co 0.84191 0.76284 0.15865 0.0
Co296 Co 0.85656 0.75948 0.01492 0.0
O297 O 0.83555 0.75701 0.07736 0.0
C298 C 0.82648 0.72291 0.21461 0.0
O299 O 0.84609 0.72022 0.23475 0.0
C300 C 0.81538 0.78157 0.97157 0.0
O301 O 0.81316 0.78959 0.02364 0.0
O302 O 0.86527 0.78947 0.04225 0.0
O303 O 0.86165 0.78702 0.1386 0.0
H304 H 0.92873 0.7773 0.93014 0.0
H305 H 0.79603 0.75986 0.12318 0.0
O306 O 0.82241 0.73847 0.18026 0.0
H307 H 0.80487 0.83326 0.2005 0.0
H308 H 0.82205 0.77139 0.36854 0.0
H309 H 0.881 0.77376 0.22653 0.0
H310 H 0.83564 0.80821 0.19777 0.0
H311 H 0.81493 0.76438 0.26543 0.0
O312 O 0.83272 0.77115 0.95985 0.0
H313 H 0.90202 0.77344 1.00825 0.0
H314 H 0.85536 0.75135 0.88767 0.0
H315 H 0.88889 0.78098 0.32912 0.0
H316 H 0.76474 0.78422 0.12636 0.0
H317 H 0.85926 0.77978 0.40103 0.0
H318 H 0.76907 0.82126 0.16497 0.0
O319 O 0.86687 0.74287 0.15618 0.0
H320 H 0.80506 0.69959 0.9669 0.0
H321 H 0.88148 0.72043 0.98113 0.0
H322 H 0.87204 0.6835 0.95177 0.0
H323 H 0.83358 0.67289 0.94417 0.0
H324 H 0.8152 0.73626 0.99694 0.0
H325 H 0.88148 0.75514 0.80824 0.0
H326 H 0.9185 0.76812 0.82929 0.0
O327 O 0.88011 0.74608 0.06604 0.0
C328 C 0.86883 0.7965 0.09381 0.0
C329 C 0.91266 0.77159 0.92044 0.0
C330 C 0.88613 0.75919 0.85201 0.0
N331 N 0.87719 0.76211 0.95257 0.0
C332 C 0.89749 0.76933 0.96449 0.0
C333 C 0.87138 0.75715 0.89715 0.0
C334 C 0.9069 0.76646 0.86386 0.0
C335 C 0.798 0.77584 0.14079 0.0
N336 N 0.81765 0.78255 0.16044 0.0
C337 C 0.78024 0.78962 0.14213 0.0
C338 C 0.78269 0.81041 0.16369 0.0
C339 C 0.80279 0.81716 0.18353 0.0
C340 C 0.82019 0.80294 0.18156 0.0
C341 C 0.83512 0.77187 0.33769 0.0
C342 C 0.8681 0.77305 0.25755 0.0
C343 C 0.8312 0.76785 0.27924 0.0
N344 N 0.84763 0.76838 0.23998 0.0
C345 C 0.87262 0.77723 0.3156 0.0
C346 C 0.856 0.77658 0.35589 0.0
C347 C 0.88117 0.73891 0.11817 0.0
C348 C 0.82187 0.70405 0.96979 0.0
C349 C 0.8647 0.71595 0.97814 0.0
C350 C 0.85946 0.69501 0.96136 0.0
C351 C 0.83788 0.68907 0.95711 0.0
N352 N 0.84891 0.7306 0.99021 0.0
C353 C 0.82772 0.72484 0.98653 0.0
Co354 Co 0.50735 0.59393 0.41412 0.0
Co355 Co 0.50826 0.60447 0.26878 0.0
O356 O 0.50992 0.5841 0.33358 0.0
C357 C 0.54583 0.56512 0.42389 0.0
O358 O 0.55474 0.57386 0.37818 0.0
C359 C 0.49204 0.56075 0.21742 0.0
O360 O 0.49513 0.55076 0.26672 0.0
O361 O 0.47922 0.61542 0.29769 0.0
O362 O 0.48729 0.61738 0.39195 0.0
H363 H 0.49444 0.67705 0.18025 0.0
H364 H 0.49958 0.54795 0.38779 0.0
O365 O 0.52722 0.57084 0.44064 0.0
H366 H 0.4318 0.57431 0.4729 0.0
H367 H 0.50043 0.58359 0.6292 0.0
H368 H 0.50773 0.63661 0.47186 0.0
H369 H 0.46289 0.59858 0.46183 0.0
H370 H 0.50238 0.5717 0.52774 0.0
O371 O 0.49415 0.58145 0.21496 0.0
H372 H 0.4975 0.65084 0.25982 0.0
H373 H 0.51447 0.60169 0.14069 0.0
H374 H 0.50565 0.6492 0.57267 0.0
H375 H 0.46893 0.52303 0.39869 0.0
H376 H 0.50199 0.6226 0.65222 0.0
H377 H 0.43472 0.53621 0.44142 0.0
O378 O 0.53212 0.61396 0.40349 0.0
H379 H 0.56792 0.55082 0.2306 0.0
H380 H 0.54694 0.62722 0.22442 0.0
H381 H 0.58317 0.61664 0.19278 0.0
H382 H 0.59387 0.57814 0.19512 0.0
H383 H 0.53216 0.5621 0.26284 0.0
H384 H 0.5113 0.62731 0.05983 0.0
H385 H 0.50134 0.66533 0.07937 0.0
O386 O 0.52335 0.62761 0.31683 0.0
C387 C 0.47565 0.62258 0.34898 0.0
C388 C 0.49881 0.66053 0.17119 0.0
C389 C 0.50822 0.63261 0.10359 0.0
N390 N 0.50614 0.62474 0.20505 0.0
C391 C 0.50059 0.64561 0.2161 0.0
C392 C 0.50986 0.61813 0.14958 0.0
C393 C 0.50266 0.65394 0.11459 0.0
C394 C 0.48478 0.55376 0.40663 0.0
N395 N 0.48304 0.57468 0.42407 0.0
C396 C 0.46747 0.53959 0.41261 0.0
C397 C 0.44827 0.547 0.43655 0.0
C398 C 0.44661 0.56838 0.45419 0.0
C399 C 0.46426 0.58207 0.44758 0.0
C400 C 0.50199 0.59534 0.59493 0.0
C401 C 0.50604 0.62493 0.50615 0.0
C402 C 0.50317 0.5887 0.53737 0.0
N403 N 0.50513 0.60344 0.49382 0.0
C404 C 0.5049 0.63216 0.5632 0.0
C405 C 0.50287 0.61723 0.60781 0.0
C406 C 0.534 0.62837 0.36455 0.0
C407 C 0.56331 0.5676 0.22822 0.0
C408 C 0.55124 0.61038 0.22499 0.0
C409 C 0.57189 0.60451 0.20721 0.0
C410 C 0.57789 0.58293 0.20858 0.0
N411 N 0.53672 0.59521 0.24286 0.0
C412 C 0.54279 0.57408 0.24565 0.0
Co413 Co 0.67071 0.25604 0.66859 0.0
Co414 Co 0.66458 0.25665 0.52276 0.0
O415 O 0.68284 0.25911 0.59132 0.0
C416 C 0.69788 0.29523 0.68043 0.0
O417 O 0.68989 0.30288 0.63205 0.0
C418 C 0.69484 0.23437 0.43269 0.0
O419 O 0.67877 0.22329 0.41086 0.0
O420 O 0.65599 0.22644 0.54851 0.0
O421 O 0.64882 0.2349 0.64085 0.0
H422 H 0.59774 0.23513 0.41493 0.0
H423 H 0.71751 0.24976 0.65132 0.0
O424 O 0.69216 0.2769 0.69937 0.0
H425 H 0.69145 0.18171 0.73562 0.0
H426 H 0.67429 0.25004 0.88547 0.0
H427 H 0.62633 0.25365 0.71569 0.0
H428 H 0.66639 0.21176 0.71771 0.0
H429 H 0.68936 0.2531 0.78733 0.0
O430 O 0.6917 0.24595 0.47823 0.0
H431 H 0.62136 0.23863 0.50012 0.0
H432 H 0.66893 0.26961 0.39802 0.0
H433 H 0.6106 0.25026 0.81291 0.0
H434 H 0.74321 0.22019 0.66925 0.0
H435 H 0.63464 0.24846 0.89872 0.0
H436 H 0.73019 0.18585 0.7116 0.0
O437 O 0.65057 0.27996 0.65231 0.0
H438 H 0.71644 0.31765 0.49038 0.0
H439 H 0.6401 0.29597 0.4865 0.0
H440 H 0.6499 0.33334 0.46285 0.0
H441 H 0.68832 0.34438 0.4643 0.0
H442 H 0.70595 0.28056 0.51506 0.0
H443 H 0.64572 0.26662 0.31193 0.0
H444 H 0.60988 0.24919 0.31996 0.0
O445 O 0.63824 0.26891 0.56602 0.0
C446 C 0.64706 0.22236 0.59759 0.0
C447 C 0.61338 0.24264 0.4108 0.0
C448 C 0.64029 0.26035 0.35301 0.0
N449 N 0.64668 0.25398 0.45404 0.0
C450 C 0.62689 0.24456 0.45885 0.0
C451 C 0.65336 0.26199 0.40199 0.0
C452 C 0.62018 0.25056 0.35755 0.0
C453 C 0.71177 0.23491 0.67009 0.0
N454 N 0.69051 0.23253 0.68364 0.0
C455 C 0.72637 0.2182 0.68 0.0
C456 C 0.71906 0.19893 0.70372 0.0
C457 C 0.69732 0.19659 0.7172 0.0
C458 C 0.6832 0.21366 0.70679 0.0
C459 C 0.66365 0.25081 0.84843 0.0
C460 C 0.63692 0.25279 0.75271 0.0
C461 C 0.67209 0.25263 0.79275 0.0
N462 N 0.65875 0.25351 0.74573 0.0
C463 C 0.62791 0.25091 0.80771 0.0
C464 C 0.6414 0.24991 0.85583 0.0
C465 C 0.63658 0.28045 0.61211 0.0
C466 C 0.69966 0.31299 0.4892 0.0
C467 C 0.65686 0.30063 0.48765 0.0
C468 C 0.66231 0.32182 0.47396 0.0
C469 C 0.68387 0.328 0.47473 0.0
N470 N 0.67244 0.28593 0.50157 0.0
C471 C 0.69361 0.29194 0.50271 0.0
Co472 Co 0.34924 0.26019 0.65879 0.0
Co473 Co 0.35579 0.26023 0.51241 0.0
O474 O 0.3371 0.25774 0.58042 0.0
C475 C 0.31997 0.22232 0.66948 0.0
O476 O 0.32716 0.21452 0.62048 0.0
C477 C 0.31187 0.27972 0.47599 0.0
O478 O 0.30742 0.28286 0.53071 0.0
O479 O 0.36554 0.28979 0.5406 0.0
O480 O 0.37217 0.28049 0.63247 0.0
H481 H 0.42537 0.27768 0.41278 0.0
H482 H 0.30246 0.26792 0.64396 0.0
O483 O 0.32691 0.24015 0.68889 0.0
H484 H 0.33143 0.33535 0.72507 0.0
H485 H 0.34529 0.26617 0.87562 0.0
H486 H 0.39352 0.25995 0.70749 0.0
H487 H 0.35533 0.30446 0.7068 0.0
H488 H 0.3304 0.26418 0.77694 0.0
O489 O 0.33079 0.27292 0.46248 0.0
H490 H 0.40109 0.27357 0.49628 0.0
H491 H 0.35053 0.25323 0.38514 0.0
H492 H 0.40909 0.26212 0.80533 0.0
H493 H 0.27789 0.29833 0.66249 0.0
H494 H 0.38492 0.26525 0.8903 0.0
H495 H 0.29237 0.33239 0.70309 0.0
O496 O 0.36856 0.23556 0.64315 0.0
H497 H 0.30197 0.20133 0.47444 0.0
H498 H 0.37872 0.22135 0.46817 0.0
H499 H 0.3677 0.18495 0.43811 0.0
H500 H 0.32905 0.17476 0.44079 0.0
H501 H 0.31371 0.2374 0.50502 0.0
H502 H 0.37418 0.25734 0.30047 0.0
H503 H 0.41193 0.26955 0.31401 0.0
O504 O 0.38085 0.24582 0.55646 0.0
C505 C 0.37445 0.29331 0.59002 0.0
C506 C 0.40896 0.27233 0.40633 0.0
C507 C 0.38022 0.26095 0.34329 0.0
N508 N 0.37443 0.26317 0.44568 0.0
C509 C 0.39515 0.26995 0.45346 0.0
C510 C 0.36687 0.25876 0.39142 0.0
C511 C 0.4014 0.26778 0.35092 0.0
C512 C 0.30886 0.28265 0.66193 0.0
N513 N 0.33033 0.28443 0.67384 0.0
C514 C 0.29488 0.29983 0.6722 0.0
C515 C 0.30302 0.31894 0.69493 0.0
C516 C 0.32493 0.32063 0.70719 0.0
C517 C 0.33842 0.3031 0.6964 0.0
C518 C 0.35599 0.26484 0.83894 0.0
C519 C 0.38288 0.26142 0.74415 0.0
C520 C 0.34765 0.26365 0.78294 0.0
N521 N 0.36107 0.26206 0.73637 0.0
C522 C 0.3918 0.2626 0.7995 0.0
C523 C 0.37823 0.26433 0.84715 0.0
C524 C 0.38237 0.23433 0.60273 0.0
C525 C 0.31884 0.20563 0.47263 0.0
C526 C 0.36187 0.21707 0.46959 0.0
C527 C 0.35573 0.19642 0.45241 0.0
C528 C 0.33405 0.19071 0.4539 0.0
N529 N 0.34685 0.23171 0.48748 0.0
C530 C 0.32558 0.22614 0.48948 0.0
Co531 Co 0.17647 0.75259 0.15166 0.0
Co532 Co 0.16167 0.76129 1.00875 0.0
O533 O 0.18267 0.76036 0.07174 0.0
C534 C 0.19118 0.79172 0.21315 0.0
O535 O 0.17166 0.79354 0.23426 0.0
C536 C 0.20112 0.73674 0.96378 0.0
O537 O 0.20305 0.72812 0.01528 0.0
O538 O 0.14914 0.73214 0.0324 0.0
O539 O 0.15726 0.72878 0.12707 0.0
H540 H 0.08806 0.75564 0.91924 0.0
H541 H 0.22226 0.75715 0.1169 0.0
O542 O 0.19554 0.77671 0.17739 0.0
H543 H 0.21467 0.6819 0.18131 0.0
H544 H 0.1963 0.73933 0.35996 0.0
H545 H 0.13744 0.73953 0.21666 0.0
H546 H 0.18353 0.7065 0.18301 0.0
H547 H 0.20338 0.74902 0.25843 0.0
O548 O 0.18429 0.7481 0.95278 0.0
H549 H 0.1145 0.75476 0.99878 0.0
H550 H 0.16474 0.77064 0.88234 0.0
H551 H 0.12967 0.7296 0.31761 0.0
H552 H 0.25391 0.73323 0.11577 0.0
H553 H 0.15922 0.72949 0.39012 0.0
H554 H 0.25021 0.69526 0.14784 0.0
O555 O 0.15109 0.77214 0.15297 0.0
H556 H 0.21964 0.81599 0.96986 0.0
H557 H 0.14137 0.80339 0.97989 0.0
H558 H 0.15486 0.83952 0.95524 0.0
H559 H 0.19427 0.84599 0.94976 0.0
H560 H 0.20549 0.78019 0.99509 0.0
H561 H 0.13892 0.77158 0.80145 0.0
H562 H 0.10024 0.76408 0.81961 0.0
O563 O 0.13965 0.77595 0.06117 0.0
C564 C 0.14757 0.72248 0.08166 0.0
C565 C 0.10488 0.75884 0.91071 0.0
C566 C 0.13343 0.76775 0.8446 0.0
N567 N 0.14118 0.76231 0.94529 0.0
C568 C 0.11993 0.75829 0.95562 0.0
C569 C 0.14801 0.76705 0.8906 0.0
C570 C 0.11173 0.76358 0.85483 0.0
C571 C 0.22056 0.74075 0.13172 0.0
N572 N 0.20106 0.73329 0.15024 0.0
C573 C 0.23853 0.72723 0.13062 0.0
C574 C 0.23642 0.70592 0.1485 0.0
C575 C 0.21648 0.69841 0.1672 0.0
C576 C 0.19887 0.71239 0.16776 0.0
C577 C 0.18328 0.73936 0.32881 0.0
C578 C 0.15038 0.73957 0.24793 0.0
C579 C 0.18717 0.74489 0.27128 0.0
N580 N 0.1708 0.74498 0.23167 0.0
C581 C 0.14588 0.73391 0.30505 0.0
C582 C 0.16247 0.73384 0.3457 0.0
C583 C 0.13786 0.77952 0.11562 0.0
C584 C 0.20244 0.81334 0.97177 0.0
C585 C 0.15854 0.80605 0.9777 0.0
C586 C 0.16609 0.82656 0.96364 0.0
C587 C 0.18819 0.83018 0.96058 0.0
N588 N 0.1726 0.78955 0.98815 0.0
C589 C 0.19431 0.79305 0.98575 0.0
Co590 Co 0.18154 0.26094 0.94922 0.0
Co591 Co 0.16181 0.25983 0.08975 0.0
O592 O 0.18471 0.25583 0.03236 0.0
C593 C 0.19478 0.21932 0.89848 0.0
O594 O 0.17539 0.21794 0.87604 0.0
C595 C 0.20455 0.27465 0.14899 0.0
O596 O 0.21509 0.27144 0.10078 0.0
O597 O 0.15411 0.28939 0.0566 0.0
O598 O 0.16388 0.28714 0.96314 0.0
H599 H 0.08721 0.27953 0.1544 0.0
H600 H 0.22566 0.25408 0.99537 0.0
O601 O 0.19924 0.23457 0.93349 0.0
H602 H 0.22688 0.32628 0.90706 0.0
H603 H 0.20792 0.26482 0.74345 0.0
H604 H 0.14555 0.27412 0.87252 0.0
H605 H 0.19379 0.30439 0.90532 0.0
H606 H 0.21158 0.25886 0.84829 0.0
O607 O 0.18377 0.27283 0.14917 0.0
H608 H 0.11624 0.27368 0.08358 0.0
H609 H 0.1589 0.25484 0.21808 0.0
H610 H 0.14119 0.28032 0.76791 0.0
H611 H 0.25928 0.27514 0.9968 0.0
H612 H 0.17252 0.27563 0.70256 0.0
H613 H 0.26001 0.31159 0.95274 0.0
O614 O 0.15478 0.24345 0.94714 0.0
H615 H 0.20935 0.19769 0.15059 0.0
H616 H 0.13467 0.22301 0.12685 0.0
H617 H 0.14138 0.18643 0.16333 0.0
H618 H 0.17895 0.17356 0.176 0.0
H619 H 0.20198 0.23387 0.11332 0.0
H620 H 0.1304 0.26067 0.29039 0.0
H621 H 0.09422 0.27302 0.25868 0.0
O622 O 0.13985 0.24577 0.0354 0.0
C623 C 0.1544 0.29674 1.00452 0.0
C624 C 0.1029 0.27414 0.16876 0.0
C625 C 0.12716 0.26359 0.24509 0.0
N626 N 0.13925 0.26397 0.14661 0.0
C627 C 0.1194 0.27078 0.12884 0.0
C628 C 0.14328 0.26043 0.20395 0.0
C629 C 0.10685 0.2705 0.22726 0.0
C630 C 0.22585 0.26989 0.97592 0.0
N631 N 0.20764 0.27815 0.95118 0.0
C632 C 0.24493 0.28177 0.977 0.0
C633 C 0.24532 0.30222 0.95232 0.0
C634 C 0.22673 0.3105 0.92684 0.0
C635 C 0.20795 0.29814 0.92659 0.0
C636 C 0.19413 0.26685 0.77143 0.0
C637 C 0.15923 0.27197 0.84438 0.0
C638 C 0.19608 0.26344 0.83085 0.0
N639 N 0.17872 0.26591 0.86653 0.0
C640 C 0.15668 0.27555 0.78517 0.0
C641 C 0.17427 0.27292 0.74853 0.0
C642 C 0.13962 0.23941 0.98256 0.0
C643 C 0.1929 0.20322 0.14614 0.0
C644 C 0.15111 0.2177 0.13264 0.0
C645 C 0.15478 0.19689 0.15318 0.0
C646 C 0.17585 0.18967 0.16021 0.0
N647 N 0.16791 0.23115 0.11999 0.0
C648 C 0.1886 0.22393 0.12561 0.0
Co649 Co 0.34038 0.74767 0.45099 0.0
Co650 Co 0.35471 0.76015 0.59233 0.0
O651 O 0.33351 0.7565 0.53014 0.0
C652 C 0.31667 0.78868 0.43391 0.0
O653 O 0.32733 0.79741 0.47692 0.0
C654 C 0.31323 0.74185 0.65029 0.0
O655 O 0.30347 0.74108 0.60006 0.0
O656 O 0.36861 0.73114 0.57362 0.0
O657 O 0.36154 0.72628 0.47906 0.0
H658 H 0.42911 0.76015 0.67856 0.0
H659 H 0.29426 0.74874 0.48413 0.0
O660 O 0.31963 0.76912 0.41984 0.0
H661 H 0.30915 0.67321 0.4325 0.0
H662 H 0.32215 0.72984 0.24435 0.0
H663 H 0.38049 0.73626 0.38818 0.0
H664 H 0.33776 0.70058 0.42655 0.0
H665 H 0.31414 0.74059 0.34453 0.0
O666 O 0.33349 0.74669 0.65254 0.0
H667 H 0.40223 0.75621 0.6008 0.0
H668 H 0.352 0.77208 0.71734 0.0
H669 H 0.38916 0.72514 0.28869 0.0
H670 H 0.26508 0.72192 0.4899 0.0
H671 H 0.35988 0.72191 0.21591 0.0
H672 H 0.27247 0.68383 0.4642 0.0
O673 O 0.3637 0.76949 0.44572 0.0
H674 H 0.2955 0.81547 0.61665 0.0
H675 H 0.37381 0.8029 0.61716 0.0
H676 H 0.35994 0.83928 0.63589 0.0
H677 H 0.32049 0.84579 0.63629 0.0
H678 H 0.30998 0.77961 0.59691 0.0
H679 H 0.37827 0.77601 0.79652 0.0
H680 H 0.41716 0.77009 0.77738 0.0
O681 O 0.37573 0.77462 0.53646 0.0
C682 C 0.37113 0.72101 0.52543 0.0
C683 C 0.4122 0.76268 0.68752 0.0
C684 C 0.38367 0.77154 0.75372 0.0
N685 N 0.37554 0.76359 0.65446 0.0
C686 C 0.3969 0.76041 0.64361 0.0
C687 C 0.36884 0.76912 0.70873 0.0
C688 C 0.40548 0.76826 0.74294 0.0
C689 C 0.29757 0.73222 0.47258 0.0
N690 N 0.31774 0.72623 0.45546 0.0
C691 C 0.281 0.71709 0.47608 0.0
C692 C 0.28516 0.69572 0.46171 0.0
C693 C 0.30575 0.68974 0.44402 0.0
C694 C 0.32193 0.7053 0.44109 0.0
C695 C 0.33505 0.73118 0.27566 0.0
C696 C 0.36763 0.73478 0.3569 0.0
C697 C 0.33063 0.73735 0.33244 0.0
N698 N 0.34683 0.73903 0.37229 0.0
C699 C 0.37265 0.72853 0.30056 0.0
C700 C 0.35622 0.72673 0.25975 0.0
C701 C 0.37691 0.7778 0.48167 0.0
C702 C 0.31272 0.81277 0.61771 0.0
C703 C 0.3566 0.80542 0.61781 0.0
C704 C 0.34885 0.82615 0.62827 0.0
C705 C 0.32673 0.82979 0.62845 0.0
N706 N 0.34278 0.78861 0.60846 0.0
C707 C 0.32107 0.79225 0.60743 0.0
Co708 Co 0.5174 0.08676 0.69341 0.0
Co709 Co 0.50971 0.10352 0.83472 0.0
O710 O 0.50962 0.08135 0.77417 0.0
C711 C 0.47484 0.06452 0.68171 0.0
O712 O 0.467 0.07483 0.72646 0.0
C713 C 0.53265 0.0643 0.88678 0.0
O714 O 0.5421 0.06171 0.8366 0.0
O715 O 0.53998 0.11328 0.81237 0.0
O716 O 0.54078 0.1066 0.71691 0.0
H717 H 0.52169 0.17776 0.91414 0.0
H718 H 0.51413 0.0417 0.73432 0.0
O719 O 0.49426 0.06712 0.66599 0.0
H720 H 0.58892 0.0499 0.66677 0.0
H721 H 0.53015 0.06562 0.48612 0.0
H722 H 0.52994 0.12545 0.62605 0.0
H723 H 0.56338 0.0802 0.66041 0.0
H724 H 0.52111 0.05913 0.58828 0.0
O725 O 0.52099 0.08115 0.89442 0.0
H726 H 0.52126 0.1497 0.83874 0.0
H727 H 0.49845 0.10385 0.96022 0.0
H728 H 0.5393 0.13261 0.52439 0.0
H729 H 0.53904 0.01085 0.74068 0.0
H730 H 0.5394 0.10257 0.45357 0.0
H731 H 0.57677 0.01489 0.70701 0.0
O732 O 0.49698 0.11132 0.68925 0.0
H733 H 0.45112 0.05006 0.87813 0.0
H734 H 0.46879 0.12704 0.85815 0.0
H735 H 0.43159 0.11634 0.88133 0.0
H736 H 0.42257 0.07759 0.89174 0.0
H737 H 0.48801 0.06145 0.85399 0.0
H738 H 0.49882 0.13135 0.03702 0.0
H739 H 0.51042 0.16864 0.01412 0.0
O740 O 0.49676 0.12566 0.7786 0.0
C741 C 0.54864 0.11511 0.76213 0.0
C742 C 0.51657 0.16158 0.92464 0.0
C743 C 0.50378 0.13552 0.99362 0.0
N744 N 0.5098 0.12519 0.89501 0.0
C745 C 0.51626 0.14564 0.88211 0.0
C746 C 0.50369 0.11999 0.94999 0.0
C747 C 0.51027 0.15644 0.98073 0.0
C748 C 0.53047 0.04351 0.71909 0.0
N749 N 0.53732 0.06275 0.69726 0.0
C750 C 0.54452 0.02601 0.723 0.0
C751 C 0.5657 0.0283 0.7042 0.0
C752 C 0.57254 0.04795 0.68171 0.0
C753 C 0.55804 0.06509 0.67852 0.0
C754 C 0.53014 0.07885 0.51654 0.0
C755 C 0.53002 0.11227 0.59559 0.0
C756 C 0.52496 0.07529 0.57446 0.0
N757 N 0.52495 0.09191 0.61319 0.0
C758 C 0.5353 0.11643 0.53803 0.0
C759 C 0.53534 0.09958 0.49832 0.0
C760 C 0.49143 0.126 0.72481 0.0
C761 C 0.45486 0.067 0.87393 0.0
C762 C 0.46498 0.11015 0.86222 0.0
C763 C 0.44389 0.10418 0.87558 0.0
C764 C 0.43885 0.08245 0.88146 0.0
N765 N 0.48063 0.09491 0.85497 0.0
C766 C 0.47577 0.07356 0.86056 0.0
Co767 Co 0.01463 0.93057 0.20043 0.0
Co768 Co 1.00434 0.9122 0.33801 0.0
O769 O 0.01354 0.93477 0.28416 0.0
C770 C 0.0576 0.94655 0.16744 0.0
O771 O 0.0619 0.927 0.14921 0.0
C772 C 0.99099 0.95595 0.39355 0.0
O773 O 0.99758 0.96632 0.34754 0.0
O774 O 0.97649 0.90739 0.29234 0.0
O775 O 0.98905 0.91118 0.20216 0.0
H776 H 0.97386 0.83981 0.38924 0.0
H777 H 0.01524 0.97529 0.24489 0.0
O778 O 0.0404 0.95001 0.19616 0.0
H779 H 0.95028 0.97098 0.12277 0.0
H780 H 0.02257 0.95448 0.99312 0.0
H781 H 0.01163 0.89261 0.12329 0.0
H782 H 0.97406 0.93956 0.13436 0.0
H783 H 0.0203 0.9598 0.09842 0.0
O784 O 0.99042 0.93511 0.39284 0.0
H785 H 0.9866 0.86828 0.32349 0.0
H786 H 1.0017 0.90831 0.46674 0.0
H787 H 0.01376 0.88659 0.01817 0.0
H788 H 0.99207 1.00724 0.23402 0.0
H789 H 0.0193 0.91766 0.95229 0.0
H790 H 0.95929 1.00522 0.17262 0.0
O791 O 0.03368 0.90517 0.21116 0.0
H792 H 0.06679 0.9533 0.42498 0.0
H793 H 0.0357 0.88157 0.38968 0.0
H794 H 0.07014 0.88462 0.44159 0.0
H795 H 0.08587 0.9207 0.46014 0.0
H796 H 0.0327 0.94956 0.37253 0.0
H797 H 0.98896 0.88033 0.53401 0.0
H798 H 0.97499 0.84574 0.49536 0.0
O799 O 0.01917 0.88916 0.28889 0.0
C800 C 0.97476 0.90449 0.23736 0.0
C801 C 0.97994 0.85479 0.40663 0.0
C802 C 0.98837 0.87756 0.48786 0.0
N803 N 0.99489 0.88995 0.39117 0.0
C804 C 0.98722 0.87097 0.3696 0.0
C805 C 0.99546 0.89339 0.44951 0.0
C806 C 0.98055 0.85815 0.46615 0.0
C807 C 1.001 0.97424 0.21816 0.0
N808 N 0.99588 0.95541 0.19094 0.0
C809 C 0.98792 0.9924 0.21221 0.0
C810 C 0.96953 0.99125 0.1778 0.0
C811 C 0.96444 0.97204 0.14993 0.0
C812 C 0.97787 0.95419 0.15708 0.0
C813 C 0.02013 0.94081 0.02135 0.0
C814 C 0.01401 0.90622 0.09494 0.0
C815 C 0.01882 0.94372 0.08106 0.0
N816 N 0.01587 0.92652 0.11712 0.0
C817 C 0.0152 0.90271 0.03543 0.0
C818 C 0.01831 0.92015 0.99849 0.0
C819 C 0.03185 0.88908 0.24495 0.0
C820 C 0.05993 0.9375 0.41803 0.0
C821 C 0.04223 0.89739 0.39793 0.0
C822 C 0.06184 0.89898 0.42724 0.0
C823 C 0.07066 0.91921 0.43758 0.0
N824 N 0.03145 0.91542 0.37999 0.0
C825 C 0.04035 0.93527 0.38882 0.0
Co826 Co 0.50404 0.9264 0.40621 0.0
Co827 Co 0.51006 0.91215 0.2633 0.0
O828 O 0.5033 0.93329 0.32344 0.0
C829 C 0.46208 0.94283 0.44754 0.0
O830 O 0.4578 0.92323 0.46545 0.0
C831 C 0.5232 0.95678 0.21185 0.0
O832 O 0.51696 0.9667 0.25895 0.0
O833 O 0.53874 0.90564 0.3024 0.0
O834 O 0.52917 0.90651 0.39617 0.0
H835 H 0.5364 0.84051 0.19186 0.0
H836 H 0.50456 0.97222 0.37019 0.0
O837 O 0.4791 0.94639 0.41821 0.0
H838 H 0.57081 0.96206 0.48472 0.0
H839 H 0.5005 0.94385 0.61894 0.0
H840 H 0.50792 0.88614 0.47408 0.0
H841 H 0.54563 0.93192 0.46947 0.0
H842 H 0.50072 0.95241 0.51492 0.0
O843 O 0.52349 0.93596 0.21063 0.0
H844 H 0.52656 0.86744 0.26544 0.0
H845 H 0.50929 0.91195 0.1339 0.0
H846 H 0.50779 0.87688 0.57769 0.0
H847 H 0.52912 1.0029 0.38503 0.0
H848 H 0.50405 0.90585 0.65094 0.0
H849 H 0.56256 0.99792 0.44259 0.0
O850 O 0.48387 0.90208 0.3935 0.0
H851 H 0.44641 0.95716 0.1992 0.0
H852 H 0.47666 0.884 0.21059 0.0
H853 H 0.44105 0.88944 0.16645 0.0
H854 H 0.42572 0.92627 0.1599 0.0
H855 H 0.48166 0.95101 0.24379 0.0
H856 H 0.51918 0.88559 0.05892 0.0
H857 H 0.53275 0.84953 0.08772 0.0
O858 O 0.49575 0.88812 0.31013 0.0
C859 C 0.54221 0.90129 0.35604 0.0
C860 C 0.53049 0.85616 0.17876 0.0
C861 C 0.52087 0.88148 0.10416 0.0
N862 N 0.51736 0.89125 0.2041 0.0
C863 C 0.52486 0.87147 0.22025 0.0
C864 C 0.51541 0.89639 0.14685 0.0
C865 C 0.52846 0.86124 0.12034 0.0
C866 C 0.5191 0.9699 0.39517 0.0
N867 N 0.52379 0.95021 0.41825 0.0
C868 C 0.53294 0.98734 0.40345 0.0
C869 C 0.5517 0.98454 0.43573 0.0
C870 C 0.55636 0.96442 0.4593 0.0
C871 C 0.54213 0.94736 0.4501 0.0
C872 C 0.50217 0.93109 0.58745 0.0
C873 C 0.50635 0.89885 0.50568 0.0
C874 C 0.50232 0.93583 0.52847 0.0
N875 N 0.50437 0.91979 0.48838 0.0
C876 C 0.50627 0.89351 0.5643 0.0
C877 C 0.50416 0.90976 0.60537 0.0
C878 C 0.48418 0.88708 0.35609 0.0
C879 C 0.45309 0.94108 0.20079 0.0
C880 C 0.47034 0.90015 0.20742 0.0
C881 C 0.45005 0.9031 0.18254 0.0
C882 C 0.44145 0.92374 0.17895 0.0
N883 N 0.48201 0.9173 0.22747 0.0
C884 C 0.47333 0.93751 0.22543 0.0
Co885 Co 1.00715 0.09604 0.91069 0.0
Co886 Co 1.00716 0.10397 0.76471 0.0
O887 O 0.00976 0.08464 0.83161 0.0
C888 C 0.04571 0.06746 0.92204 0.0
O889 O 0.0538 0.07507 0.87382 0.0
C890 C 0.98703 0.06073 0.72542 0.0
O891 O 0.98322 0.05602 0.7797 0.0
O892 O 0.97753 0.1133 0.79304 0.0
O893 O 0.98658 0.11895 0.88552 0.0
H894 H 0.98932 0.1743 0.66896 0.0
H895 H 1.0 0.04938 0.89276 0.0
O896 O 0.02743 0.07373 0.94006 0.0
H897 H 0.93213 0.07673 0.97505 0.0
H898 H 1.00079 0.09013 0.12713 0.0
H899 H 1.00713 0.13985 0.96196 0.0
H900 H 0.96274 0.10117 0.95856 0.0
H901 H 1.00294 0.07614 0.02765 0.0
O902 O 0.99461 0.07944 0.71321 0.0
H903 H 0.99348 0.14931 0.75105 0.0
H904 H 0.0144 0.09994 0.6373 0.0
H905 H 1.00475 0.15452 0.06063 0.0
H906 H 0.96988 0.02429 0.90945 0.0
H907 H 1.00157 0.1296 0.14413 0.0
H908 H 0.93561 0.03796 0.95066 0.0
O909 O 0.03159 0.11579 0.89647 0.0
H910 H 0.06622 0.05071 0.72377 0.0
H911 H 0.04608 0.12746 0.72288 0.0
H912 H 0.08258 0.11682 0.69272 0.0
H913 H 0.09284 0.07818 0.69273 0.0
H914 H 0.03002 0.06208 0.75438 0.0
H915 H 0.01025 0.12432 0.55399 0.0
H916 H 0.99772 0.16183 0.56956 0.0
O917 O 0.0213 0.12868 0.81033 0.0
C918 C 0.97386 0.12166 0.84297 0.0
C919 C 0.99481 0.158 0.66162 0.0
C920 C 1.00652 0.12993 0.59709 0.0
N921 N 1.00417 0.12319 0.69906 0.0
C922 C 0.99722 0.14378 0.70795 0.0
C923 C 1.00874 0.11617 0.64445 0.0
C924 C 0.99951 0.15099 0.60586 0.0
C925 C 0.98519 0.05542 0.91103 0.0
N926 N 0.98312 0.07673 0.9243 0.0
C927 C 0.96817 0.04115 0.92024 0.0
C928 C 0.94893 0.04883 0.9433 0.0
C929 C 0.94696 0.07059 0.95692 0.0
C930 C 0.96432 0.08438 0.94714 0.0
C931 C 1.00213 0.10116 0.09111 0.0
C932 C 1.00562 0.12888 0.99796 0.0
C933 C 1.00342 0.09333 0.03466 0.0
N934 N 1.00506 0.10716 0.98891 0.0
C935 C 1.00434 0.1373 0.05379 0.0
C936 C 1.00257 0.1233 0.10061 0.0
C937 C 0.0327 0.12995 0.85684 0.0
C938 C 0.0619 0.06759 0.72318 0.0
C939 C 0.0504 0.11062 0.72312 0.0
C940 C 0.0711 0.10469 0.7059 0.0
C941 C 0.07684 0.08301 0.7059 0.0
N942 N 0.03575 0.09539 0.73961 0.0
C943 C 0.04134 0.07412 0.74012 0.0
H944 H 0.15012 0.68257 0.13581 0.0
H945 H 0.10502 0.72786 0.06063 0.0
H946 H 0.07501 0.70884 0.10743 0.0
H947 H 0.11317 0.63469 0.11834 0.0
H948 H 0.12257 0.62241 0.18431 0.0
H949 H 0.14043 0.6391 0.14248 0.0
H950 H 0.14734 0.66247 0.23316 0.0
H951 H 0.12892 0.64633 0.27479 0.0
H952 H 0.12492 0.675 0.26931 0.0
H953 H 0.05052 0.68846 0.17354 0.0
H954 H 0.03084 0.66128 0.22986 0.0
H955 H 0.08983 0.62502 0.2539 0.0
C956 C 0.13382 0.68789 0.12717 0.0
C957 C 0.13 0.70656 0.09286 0.0
C958 C 0.10846 0.71333 0.0845 0.0
C959 C 0.09127 0.70281 0.11212 0.0
C960 C 0.09565 0.68507 0.14725 0.0
C961 C 0.11624 0.67699 0.15284 0.0
C962 C 0.11613 0.65697 0.19134 0.0
C963 C 0.12351 0.63711 0.15708 0.0
C964 C 0.13017 0.6604 0.24535 0.0
C965 C 0.09233 0.65537 0.20737 0.0
C966 C 0.08106 0.67222 0.18252 0.0
C967 C 0.05914 0.67503 0.19237 0.0
C968 C 0.04814 0.65963 0.22535 0.0
C969 C 0.05872 0.64114 0.2475 0.0
C970 C 0.08132 0.63922 0.23923 0.0
H971 H 0.55196 0.85796 0.34711 0.0
H972 H 0.57619 0.91817 0.41501 0.0
H973 H 0.60373 0.89842 0.47134 0.0
H974 H 0.55805 0.82728 0.47367 0.0
H975 H 0.56686 0.80292 0.43869 0.0
H976 H 0.54994 0.82168 0.40036 0.0
H977 H 0.57802 0.82453 0.31806 0.0
H978 H 0.59468 0.80527 0.35544 0.0
H979 H 0.60556 0.8311 0.33551 0.0
H980 H 0.62738 0.87121 0.52725 0.0
H981 H 0.64802 0.83976 0.56444 0.0
H982 H 0.60926 0.79752 0.45794 0.0
C983 C 0.5636 0.86703 0.37204 0.0
C984 C 0.56209 0.88976 0.37565 0.0
C985 C 0.57712 0.90085 0.4109 0.0
C986 C 0.59278 0.88971 0.44344 0.0
C987 C 0.59343 0.86728 0.44051 0.0
C988 C 0.57954 0.85609 0.40454 0.0
C989 C 0.58353 0.83199 0.40944 0.0
C990 C 0.56339 0.82028 0.43187 0.0
C991 C 0.59089 0.82268 0.35115 0.0
C992 C 0.60163 0.83136 0.45389 0.0
C993 C 0.60702 0.85184 0.47189 0.0
C994 C 0.62326 0.85512 0.51319 0.0
C995 C 0.63473 0.83715 0.53489 0.0
C996 C 0.63005 0.81612 0.51511 0.0
C997 C 0.61303 0.81336 0.47468 0.0
H998 H 0.46524 0.35722 0.76764 0.0
H999 H 0.43782 0.4167 0.70384 0.0
H1000 H 0.41054 0.39606 0.64877 0.0
H1001 H 0.45958 0.32748 0.63991 0.0
H1002 H 0.45248 0.30239 0.67404 0.0
H1003 H 0.46873 0.32173 0.71227 0.0
H1004 H 0.44137 0.32233 0.79663 0.0
H1005 H 0.42536 0.30255 0.75928 0.0
H1006 H 0.41337 0.3276 0.7816 0.0
H1007 H 0.38756 0.36793 0.59323 0.0
H1008 H 0.36859 0.33566 0.55491 0.0
H1009 H 0.41063 0.29489 0.65691 0.0
C1010 C 0.45293 0.36592 0.74413 0.0
C1011 C 0.45337 0.3887 0.74151 0.0
C1012 C 0.43759 0.39934 0.70757 0.0
C1013 C 0.4221 0.38769 0.67568 0.0
C1014 C 0.42246 0.36522 0.67779 0.0
C1015 C 0.43724 0.35447 0.71222 0.0
C1016 C 0.43453 0.33026 0.70617 0.0
C1017 C 0.45505 0.31986 0.68165 0.0
C1018 C 0.42828 0.32009 0.76438 0.0
C1019 C 0.41607 0.32904 0.66298 0.0
C1020 C 0.40938 0.34932 0.64651 0.0
C1021 C 0.39267 0.35199 0.60624 0.0
C1022 C 0.38211 0.33356 0.58396 0.0
C1023 C 0.38814 0.31266 0.60225 0.0
C1024 C 0.40563 0.3106 0.64163 0.0
H1025 H 0.90628 0.20823 0.02678 0.0
H1026 H 0.84913 0.18655 0.93646 0.0
H1027 H 0.87079 0.15997 0.88292 0.0
H1028 H 0.94128 0.20521 0.90887 0.0
H1029 H 0.96435 0.19547 0.94841 0.0
H1030 H 0.94422 0.21135 0.98462 0.0
H1031 H 0.9387 0.18118 0.06034 0.0
H1032 H 0.9592 0.16542 0.02512 0.0
H1033 H 0.93279 0.15421 0.03634 0.0
H1034 H 0.89982 0.13779 0.8308 0.0
H1035 H 0.93268 0.1189 0.79626 0.0
H1036 H 0.97069 0.15455 0.92104 0.0
C1037 C 0.89818 0.1973 0.99759 0.0
C1038 C 0.87578 0.19942 0.98673 0.0
C1039 C 0.86612 0.18523 0.94615 0.0
C1040 C 0.87837 0.1701 0.91509 0.0
C1041 C 0.9005 0.16907 0.92478 0.0
C1042 C 0.91027 0.18198 0.96601 0.0
C1043 C 0.93445 0.1781 0.96671 0.0
C1044 C 0.9468 0.19876 0.95123 0.0
C1045 C 0.94171 0.1692 0.02563 0.0
C1046 C 0.93672 0.16123 0.91939 0.0
C1047 C 0.91701 0.15629 0.89529 0.0
C1048 C 0.91531 0.14144 0.84985 0.0
C1049 C 0.9341 0.13093 0.8299 0.0
C1050 C 0.95437 0.13514 0.85557 0.0
C1051 C 0.95549 0.15081 0.90034 0.0
H1052 H 0.0476 0.36345 0.92458 0.0
H1053 H 0.08561 0.39767 0.79734 0.0
H1054 H 0.11833 0.37853 0.83206 0.0
H1055 H 0.08623 0.36272 0.0393 0.0
H1056 H 0.07978 0.33585 0.06298 0.0
H1057 H 0.0595 0.35216 0.02837 0.0
H1058 H 0.05327 0.32255 0.95152 0.0
H1059 H 0.07322 0.30599 0.9865 0.0
H1060 H 0.07584 0.31242 0.91088 0.0
H1061 H 0.14722 0.35635 0.88416 0.0
H1062 H 0.1688 0.32945 0.93687 0.0
H1063 H 0.1118 0.30811 0.02791 0.0
C1064 C 0.06279 0.36689 0.90366 0.0
C1065 C 0.06396 0.38224 0.85808 0.0
C1066 C 0.08417 0.38597 0.83181 0.0
C1067 C 0.10288 0.37528 0.85178 0.0
C1068 C 0.10116 0.36065 0.89768 0.0
C1069 C 0.0815 0.35613 0.92244 0.0
C1070 C 0.08375 0.33904 0.9694 0.0
C1071 C 0.07691 0.34798 0.02851 0.0
C1072 C 0.07075 0.3188 0.95362 0.0
C1073 C 0.10786 0.33463 0.96773 0.0
C1074 C 0.11759 0.34749 0.92646 0.0
C1075 C 0.13965 0.3462 0.91624 0.0
C1076 C 0.15186 0.33085 0.94677 0.0
C1077 C 0.14223 0.31663 0.98721 0.0
C1078 C 0.1199 0.31901 0.99869 0.0
H1079 H 0.94508 0.87474 0.28582 0.0
H1080 H 0.96329 0.90492 0.12371 0.0
H1081 H 0.93748 0.88267 0.07182 0.0
H1082 H 0.93954 0.82191 0.22768 0.0
H1083 H 0.91639 0.81444 0.27 0.0
H1084 H 0.93509 0.83415 0.29726 0.0
H1085 H 0.90396 0.86146 0.30947 0.0
H1086 H 0.88519 0.84174 0.28246 0.0
H1087 H 0.887 0.86778 0.24844 0.0
H1088 H 0.91181 0.85488 0.03332 0.0
H1089 H 0.88689 0.82456 0.01422 0.0
H1090 H 0.88375 0.81213 0.19869 0.0
C1091 C 0.94324 0.87707 0.23971 0.0
C1092 C 0.95633 0.89222 0.20983 0.0
C1093 C 0.95353 0.89402 0.14886 0.0
C1094 C 0.93884 0.88122 0.1183 0.0
C1095 C 0.92663 0.86628 0.14843 0.0
C1096 C 0.92845 0.86418 0.20785 0.0
C1097 C 0.9138 0.84606 0.22864 0.0
C1098 C 0.927 0.82808 0.25761 0.0
C1099 C 0.89645 0.85479 0.26969 0.0
C1100 C 0.90388 0.83838 0.17175 0.0
C1101 C 0.91153 0.85027 0.12599 0.0
C1102 C 0.90547 0.8456 0.06901 0.0
C1103 C 0.89125 0.82831 0.05842 0.0
C1104 C 0.88299 0.81581 0.10451 0.0
C1105 C 0.88944 0.82126 0.162 0.0
H1106 H 0.36986 0.67992 0.47913 0.0
H1107 H 0.41358 0.72881 0.54261 0.0
H1108 H 0.44384 0.71034 0.49521 0.0
H1109 H 0.40948 0.63414 0.49756 0.0
H1110 H 0.39955 0.62044 0.43426 0.0
H1111 H 0.38163 0.63688 0.47665 0.0
H1112 H 0.37194 0.65847 0.38454 0.0
H1113 H 0.39042 0.64265 0.34223 0.0
H1114 H 0.39302 0.67154 0.34422 0.0
H1115 H 0.46839 0.68978 0.42902 0.0
H1116 H 0.48835 0.66257 0.37331 0.0
H1117 H 0.4307 0.62361 0.36025 0.0
C1118 C 0.38598 0.68614 0.48534 0.0
C1119 C 0.38931 0.70564 0.51641 0.0
C1120 C 0.41058 0.71362 0.52141 0.0
C1121 C 0.42787 0.70341 0.49336 0.0
C1122 C 0.42388 0.68484 0.46115 0.0
C1123 C 0.40366 0.67567 0.45907 0.0
C1124 C 0.40409 0.65514 0.42275 0.0
C1125 C 0.39835 0.63548 0.46002 0.0
C1126 C 0.38897 0.65707 0.37033 0.0
C1127 C 0.42761 0.65446 0.40382 0.0
C1128 C 0.43849 0.67215 0.42544 0.0
C1129 C 0.46008 0.67575 0.4126 0.0
C1130 C 0.47122 0.66034 0.3799 0.0
C1131 C 0.46109 0.64115 0.36089 0.0
C1132 C 0.43878 0.63839 0.37226 0.0
H1133 H 0.60775 0.22097 0.64896 0.0
H1134 H 0.65714 0.1797 0.57731 0.0
H1135 H 0.63889 0.14788 0.62029 0.0
H1136 H 0.60172 0.19451 0.78185 0.0
H1137 H 0.57292 0.19775 0.78633 0.0
H1138 H 0.58881 0.21695 0.7466 0.0
H1139 H 0.56602 0.21038 0.65448 0.0
H1140 H 0.54958 0.19173 0.69439 0.0
H1141 H 0.5624 0.18329 0.62837 0.0
H1142 H 0.61597 0.12074 0.67783 0.0
H1143 H 0.58777 0.10021 0.7292 0.0
H1144 H 0.55294 0.15925 0.76223 0.0
C1145 C 0.61438 0.20513 0.64077 0.0
C1146 C 0.6337 0.2028 0.60857 0.0
C1147 C 0.64209 0.18187 0.60016 0.0
C1148 C 0.63197 0.16375 0.62535 0.0
C1149 C 0.61338 0.16678 0.65865 0.0
C1150 C 0.6044 0.18696 0.6651 0.0
C1151 C 0.58428 0.18604 0.70252 0.0
C1152 C 0.58711 0.19962 0.75758 0.0
C1153 C 0.56439 0.19328 0.66788 0.0
C1154 C 0.58327 0.16217 0.71673 0.0
C1155 C 0.60035 0.15137 0.6915 0.0
C1156 C 0.60263 0.12914 0.69767 0.0
C1157 C 0.58664 0.1176 0.72771 0.0
C1158 C 0.56845 0.1281 0.75162 0.0
C1159 C 0.56707 0.15081 0.74685 0.0
H1160 H 0.96429 0.37292 0.94991 0.0
H1161 H 0.97631 0.35077 0.77499 0.0
H1162 H 0.95195 0.31991 0.79172 0.0
H1163 H 0.96185 0.31962 0.01649 0.0
H1164 H 0.94081 0.32711 0.06612 0.0
H1165 H 0.95967 0.34707 0.04102 0.0
H1166 H 0.92809 0.37072 1.00484 0.0
H1167 H 0.90915 0.35086 0.02984 0.0
H1168 H 0.90864 0.35946 0.95545 0.0
H1169 H 0.92423 0.29273 0.82543 0.0
H1170 H 0.89643 0.27088 0.87348 0.0
H1171 H 0.90322 0.30929 0.02879 0.0
C1172 C 0.96193 0.36157 0.91498 0.0
C1173 C 0.97228 0.36455 0.86069 0.0
C1174 C 0.96867 0.34907 0.81674 0.0
C1175 C 0.95483 0.33142 0.82596 0.0
C1176 C 0.94479 0.32916 0.87967 0.0
C1177 C 0.94831 0.34374 0.92362 0.0
C1178 C 0.93532 0.33777 0.97713 0.0
C1179 C 0.95031 0.33259 0.02822 0.0
C1180 C 0.91935 0.35577 0.99271 0.0
C1181 C 0.92362 0.3177 0.95621 0.0
C1182 C 0.92935 0.31308 0.89978 0.0
C1183 C 0.91989 0.29608 0.86979 0.0
C1184 C 0.90404 0.28371 0.89759 0.0
C1185 C 0.89775 0.28803 0.95535 0.0
C1186 C 0.90798 0.30516 0.98522 0.0
H1187 H 0.45858 0.1504 0.77601 0.0
H1188 H 0.49425 0.14268 0.6164 0.0
H1189 H 0.47168 0.17024 0.56996 0.0
H1190 H 0.40716 0.15584 0.70862 0.0
H1191 H 0.39694 0.17561 0.75852 0.0
H1192 H 0.41714 0.15668 0.78179 0.0
H1193 H 0.44177 0.18812 0.81357 0.0
H1194 H 0.42161 0.20717 0.79047 0.0
H1195 H 0.44858 0.20886 0.76227 0.0
H1196 H 0.44439 0.19805 0.53842 0.0
H1197 H 0.41385 0.22305 0.52436 0.0
H1198 H 0.39417 0.21207 0.7019 0.0
C1199 C 0.46191 0.15482 0.73171 0.0
C1200 C 0.47853 0.14435 0.70031 0.0
C1201 C 0.48183 0.15038 0.6418 0.0
C1202 C 0.46904 0.16611 0.61482 0.0
C1203 C 0.45262 0.17581 0.64636 0.0
C1204 C 0.44894 0.17041 0.70352 0.0
C1205 C 0.42934 0.18249 0.72623 0.0
C1206 C 0.4116 0.16671 0.74489 0.0
C1207 C 0.43571 0.19756 0.7761 0.0
C1208 C 0.42257 0.19528 0.67289 0.0
C1209 C 0.43638 0.19134 0.62749 0.0
C1210 C 0.43347 0.20124 0.57377 0.0
C1211 C 0.41599 0.21545 0.5661 0.0
C1212 C 0.40132 0.2196 0.6116 0.0
C1213 C 0.40489 0.2093 0.66582 0.0
H1214 H 0.55597 0.63976 0.46574 0.0
H1215 H 0.54519 0.66022 0.28845 0.0
H1216 H 0.56918 0.69115 0.30402 0.0
H1217 H 0.55757 0.69407 0.52748 0.0
H1218 H 0.57843 0.6878 0.57909 0.0
H1219 H 0.56018 0.66706 0.55514 0.0
H1220 H 0.59248 0.64363 0.52337 0.0
H1221 H 0.61082 0.66427 0.54725 0.0
H1222 H 0.61202 0.65458 0.47392 0.0
H1223 H 0.59554 0.71873 0.33553 0.0
H1224 H 0.62224 0.74208 0.38146 0.0
H1225 H 0.61589 0.70648 0.54184 0.0
C1226 C 0.55865 0.65075 0.43015 0.0
C1227 C 0.54862 0.64724 0.37546 0.0
C1228 C 0.55257 0.66224 0.33052 0.0
C1229 C 0.56621 0.67999 0.33901 0.0
C1230 C 0.5758 0.68291 0.393 0.0
C1231 C 0.57218 0.66883 0.43806 0.0
C1232 C 0.58473 0.67595 0.49168 0.0
C1233 C 0.56931 0.68155 0.54129 0.0
C1234 C 0.60098 0.65857 0.51014 0.0
C1235 C 0.59619 0.69603 0.46929 0.0
C1236 C 0.59068 0.69956 0.41213 0.0
C1237 C 0.59973 0.71627 0.38046 0.0
C1238 C 0.61497 0.72958 0.40725 0.0
C1239 C 0.62111 0.72661 0.46583 0.0
C1240 C 0.61129 0.70962 0.49751 0.0
H1241 H 0.11828 0.81648 0.07049 0.0
H1242 H 0.11588 0.77204 0.21485 0.0
H1243 H 0.08759 0.79391 0.26038 0.0
H1244 H 0.11252 0.86393 0.15593 0.0
H1245 H 0.09605 0.87831 0.10461 0.0
H1246 H 0.11476 0.85819 0.07981 0.0
H1247 H 0.08379 0.83811 0.02782 0.0
H1248 H 0.06498 0.85822 0.05234 0.0
H1249 H 0.06029 0.83022 0.06821 0.0
H1250 H 0.06026 0.82124 0.29317 0.0
H1251 H 0.03693 0.85266 0.31169 0.0
H1252 H 0.05743 0.88085 0.1491 0.0
C1253 C 0.11145 0.81115 0.11105 0.0
C1254 C 0.11927 0.79228 0.13865 0.0
C1255 C 0.11023 0.78628 0.19257 0.0
C1256 C 0.09406 0.79863 0.21889 0.0
C1257 C 0.08698 0.81727 0.19136 0.0
C1258 C 0.09538 0.82361 0.13868 0.0
C1259 C 0.08572 0.84513 0.12043 0.0
C1260 C 0.10331 0.86241 0.11488 0.0
C1261 C 0.07294 0.84277 0.06383 0.0
C1262 C 0.07081 0.84986 0.17115 0.0
C1263 C 0.07165 0.83345 0.21127 0.0
C1264 C 0.05947 0.83419 0.26194 0.0
C1265 C 0.04621 0.85218 0.27217 0.0
C1266 C 0.04525 0.86949 0.23231 0.0
C1267 C 0.05773 0.86806 0.18087 0.0
H1268 H 0.95984 0.63573 0.1499 0.0
H1269 H 0.98076 0.66392 0.31235 0.0
H1270 H 0.95829 0.69575 0.29292 0.0
H1271 H 0.95774 0.68593 0.06775 0.0
H1272 H 0.93386 0.67863 0.02792 0.0
H1273 H 0.95207 0.65802 0.05302 0.0
H1274 H 0.92074 0.63918 0.10648 0.0
H1275 H 0.90245 0.65966 0.08128 0.0
H1276 H 0.90487 0.65426 0.15755 0.0
H1277 H 0.93297 0.72418 0.25853 0.0
H1278 H 0.90527 0.74684 0.21333 0.0
H1279 H 0.89965 0.7016 0.0716 0.0
C1280 C 0.95974 0.6486 0.18141 0.0
C1281 C 0.97226 0.64709 0.23293 0.0
C1282 C 0.97148 0.66444 0.27272 0.0
C1283 C 0.95874 0.68271 0.26194 0.0
C1284 C 0.94672 0.68369 0.21101 0.0
C1285 C 0.94699 0.6671 0.17136 0.0
C1286 C 0.93197 0.67218 0.12076 0.0
C1287 C 0.94467 0.67378 0.06399 0.0
C1288 C 0.91394 0.65532 0.11627 0.0
C1289 C 0.92307 0.6941 0.13857 0.0
C1290 C 0.932 0.70035 0.19073 0.0
C1291 C 0.92599 0.71947 0.21756 0.0
C1292 C 0.91015 0.73232 0.1914 0.0
C1293 C 0.90031 0.72631 0.13851 0.0
C1294 C 0.90718 0.70699 0.11126 0.0
H1295 H 0.05569 0.14071 0.9558 0.0
H1296 H 0.04247 0.16283 0.78126 0.0
H1297 H 0.06656 0.19391 0.79723 0.0
H1298 H 0.05785 0.19398 0.02224 0.0
H1299 H 0.07932 0.18692 0.07123 0.0
H1300 H 0.06071 0.16659 0.04679 0.0
H1301 H 0.09253 0.14356 1.00963 0.0
H1302 H 0.11121 0.16379 0.03404 0.0
H1303 H 0.11147 0.1552 0.95965 0.0
H1304 H 0.09359 0.22165 0.83008 0.0
H1305 H 0.12113 0.24415 0.87697 0.0
H1306 H 0.11645 0.20558 0.03259 0.0
C1307 C 0.05778 0.15209 0.92081 0.0
C1308 C 0.04708 0.14907 0.86688 0.0
C1309 C 0.05036 0.16455 0.82276 0.0
C1310 C 0.06405 0.18235 0.83154 0.0
C1311 C 0.07432 0.18475 0.88495 0.0
C1312 C 0.07129 0.17009 0.929 0.0
C1313 C 0.08449 0.17635 0.9821 0.0
C1314 C 0.06971 0.18125 0.03365 0.0
C1315 C 0.1009 0.15867 0.99723 0.0
C1316 C 0.0957 0.19667 0.96081 0.0
C1317 C 0.08951 0.20115 0.90457 0.0
C1318 C 0.09832 0.21838 0.87426 0.0
C1319 C 0.11402 0.23114 0.90143 0.0
C1320 C 0.12087 0.22697 0.95889 0.0
C1321 C 0.11126 0.20959 0.98922 0.0
H1322 H 0.63261 0.32412 0.62276 0.0
H1323 H 0.59629 0.26487 0.63418 0.0
H1324 H 0.56524 0.28501 0.67472 0.0
H1325 H 0.61433 0.3482 0.75107 0.0
H1326 H 0.61261 0.37514 0.72252 0.0
H1327 H 0.63147 0.35628 0.69214 0.0
H1328 H 0.61492 0.36192 0.59041 0.0
H1329 H 0.59628 0.38113 0.62031 0.0
H1330 H 0.58636 0.35834 0.58014 0.0
H1331 H 0.53922 0.31201 0.72402 0.0
H1332 H 0.51895 0.34357 0.76146 0.0
H1333 H 0.57138 0.38533 0.71029 0.0
C1334 C 0.61787 0.31553 0.63233 0.0
C1335 C 0.61668 0.29298 0.62436 0.0
C1336 C 0.59734 0.28219 0.63863 0.0
C1337 C 0.57972 0.29351 0.6623 0.0
C1338 C 0.58153 0.31573 0.67074 0.0
C1339 C 0.59998 0.32667 0.65471 0.0
C1340 C 0.59786 0.35057 0.66737 0.0
C1341 C 0.61509 0.35797 0.71086 0.0
C1342 C 0.59892 0.36376 0.61121 0.0
C1343 C 0.57551 0.3514 0.69382 0.0
C1344 C 0.5664 0.33113 0.69629 0.0
C1345 C 0.54617 0.32794 0.72148 0.0
C1346 C 0.53482 0.34593 0.74318 0.0
C1347 C 0.54352 0.36693 0.73874 0.0
C1348 C 0.56422 0.36951 0.714 0.0
H1349 H 0.39932 0.81257 0.53042 0.0
H1350 H 0.39474 0.77384 0.37487 0.0
H1351 H 0.42248 0.7961 0.32868 0.0
H1352 H 0.40508 0.86299 0.45642 0.0
H1353 H 0.42387 0.87438 0.50739 0.0
H1354 H 0.40475 0.85443 0.53086 0.0
H1355 H 0.43588 0.83084 0.57 0.0
H1356 H 0.45511 0.85074 0.54663 0.0
H1357 H 0.45755 0.82328 0.52242 0.0
H1358 H 0.45047 0.82297 0.29718 0.0
H1359 H 0.47516 0.85357 0.28182 0.0
H1360 H 0.46111 0.87657 0.45488 0.0
C1361 C 0.40439 0.80861 0.48699 0.0
C1362 C 0.39477 0.79118 0.4567 0.0
C1363 C 0.4017 0.78694 0.39937 0.0
C1364 C 0.41758 0.79953 0.37257 0.0
C1365 C 0.42651 0.81666 0.40304 0.0
C1366 C 0.42013 0.82135 0.45891 0.0
C1367 C 0.43163 0.84149 0.48046 0.0
C1368 C 0.41536 0.85938 0.49461 0.0
C1369 C 0.44589 0.83627 0.533 0.0
C1370 C 0.44524 0.84735 0.42796 0.0
C1371 C 0.4422 0.83265 0.38405 0.0
C1372 C 0.45295 0.83461 0.33132 0.0
C1373 C 0.46701 0.85211 0.32293 0.0
C1374 C 0.47015 0.86776 0.36669 0.0
C1375 C 0.45912 0.86508 0.42013 0.0
H1376 H 0.98027 0.55445 0.07709 0.0
H1377 H 0.9459 0.53309 0.22943 0.0
H1378 H 0.93406 0.50042 0.17632 0.0
H1379 H 0.94316 0.53096 0.96533 0.0
H1380 H 0.96566 0.52397 0.91996 0.0
H1381 H 0.96701 0.54748 0.96546 0.0
H1382 H 1.00218 0.53304 0.01196 0.0
H1383 H 1.00094 0.50959 0.96689 0.0
H1384 H 1.00227 0.50663 0.04429 0.0
H1385 H 0.93208 0.4673 0.1123 0.0
H1386 H 0.94063 0.43727 0.04638 0.0
H1387 H 0.97649 0.48106 0.93686 0.0
C1388 C 0.96977 0.54319 0.09894 0.0
C1389 C 0.96402 0.54619 0.15733 0.0
C1390 C 0.9503 0.53113 0.18447 0.0
C1391 C 0.94352 0.51258 0.15457 0.0
C1392 C 0.95034 0.50967 0.09753 0.0
C1393 C 0.963 0.52478 0.06993 0.0
C1394 C 0.97065 0.51695 0.01167 0.0
C1395 C 0.96103 0.53066 0.96271 0.0
C1396 C 0.99546 0.51652 1.0086 0.0
C1397 C 0.96128 0.49455 0.0117 0.0
C1398 C 0.94923 0.49071 0.06088 0.0
C1399 C 0.94104 0.47031 0.07307 0.0
C1400 C 0.94597 0.45332 0.03525 0.0
C1401 C 0.95921 0.45682 0.98631 0.0
C1402 C 0.96612 0.47789 0.97344 0.0
H1403 H 0.7839 0.7284 0.19131 0.0
H1404 H 0.82765 0.69457 0.30597 0.0
H1405 H 0.79717 0.68529 0.36953 0.0
H1406 H 0.75833 0.75442 0.29391 0.0
H1407 H 0.73183 0.75418 0.26197 0.0
H1408 H 0.75512 0.75225 0.21668 0.0
H1409 H 0.74095 0.71659 0.17287 0.0
H1410 H 0.71728 0.71853 0.21758 0.0
H1411 H 0.73372 0.69462 0.21991 0.0
H1412 H 0.76376 0.68697 0.43122 0.0
H1413 H 0.73134 0.69981 0.48353 0.0
H1414 H 0.71045 0.73355 0.32949 0.0
C1415 C 0.78699 0.71823 0.2284 0.0
C1416 C 0.80816 0.71221 0.24359 0.0
C1417 C 0.81154 0.69924 0.29315 0.0
C1418 C 0.79429 0.69387 0.32955 0.0
C1419 C 0.77377 0.70138 0.31539 0.0
C1420 C 0.77006 0.71307 0.26538 0.0
C1421 C 0.74766 0.72253 0.26435 0.0
C1422 C 0.7483 0.74729 0.25897 0.0
C1423 C 0.7341 0.71245 0.2158 0.0
C1424 C 0.73977 0.7155 0.32304 0.0
C1425 C 0.75471 0.70279 0.35142 0.0
C1426 C 0.75172 0.69643 0.40883 0.0
C1427 C 0.73331 0.70375 0.43825 0.0
C1428 C 0.71855 0.71761 0.4103 0.0
C1429 C 0.72151 0.72286 0.35163 0.0
H1430 H 0.54029 0.55703 0.53729 0.0
H1431 H 0.57542 0.53493 0.38702 0.0
H1432 H 0.58803 0.50315 0.44275 0.0
H1433 H 0.57784 0.53545 0.65141 0.0
H1434 H 0.5554 0.52842 0.69694 0.0
H1435 H 0.55364 0.55148 0.64984 0.0
H1436 H 0.51888 0.5359 0.60369 0.0
H1437 H 0.52051 0.51298 0.65059 0.0
H1438 H 0.51941 0.50916 0.57346 0.0
H1439 H 0.5904 0.47069 0.50868 0.0
H1440 H 0.58169 0.44093 0.57525 0.0
H1441 H 0.54509 0.48505 0.68204 0.0
C1442 C 0.55112 0.54581 0.51646 0.0
C1443 C 0.55686 0.54831 0.4579 0.0
C1444 C 0.57103 0.53335 0.43208 0.0
C1445 C 0.57825 0.5153 0.46349 0.0
C1446 C 0.57144 0.51283 0.5207 0.0
C1447 C 0.55835 0.52791 0.547 0.0
C1448 C 0.55075 0.52047 0.60568 0.0
C1449 C 0.55997 0.53481 0.65381 0.0
C1450 C 0.52594 0.51957 0.60843 0.0
C1451 C 0.56059 0.49826 0.60731 0.0
C1452 C 0.57287 0.49424 0.55863 0.0
C1453 C 0.58129 0.47385 0.54757 0.0
C1454 C 0.57627 0.45702 0.58578 0.0
C1455 C 0.5627 0.46065 0.63399 0.0
C1456 C 0.55573 0.48178 0.6461 0.0
H1457 H 0.78127 0.29455 0.92867 0.0
H1458 H 0.82531 0.32581 0.81021 0.0
H1459 H 0.79464 0.33659 0.74889 0.0
H1460 H 0.75378 0.26952 0.82934 0.0
H1461 H 0.72752 0.27103 0.86214 0.0
H1462 H 0.75113 0.27228 0.90656 0.0
H1463 H 0.7388 0.30875 0.9493 0.0
H1464 H 0.71474 0.30752 0.90567 0.0
H1465 H 0.7321 0.33071 0.90161 0.0
H1466 H 0.76098 0.33573 0.68879 0.0
H1467 H 0.7281 0.3234 0.63772 0.0
H1468 H 0.70663 0.29185 0.79432 0.0
C1469 C 0.78442 0.30456 0.89134 0.0
C1470 C 0.80569 0.3093 0.87428 0.0
C1471 C 0.80914 0.32207 0.82445 0.0
C1472 C 0.79177 0.3283 0.78928 0.0
C1473 C 0.77108 0.32186 0.80496 0.0
C1474 C 0.76734 0.31053 0.8555 0.0
C1475 C 0.74457 0.302 0.85784 0.0
C1476 C 0.74426 0.27726 0.86428 0.0
C1477 C 0.7318 0.31291 0.90649 0.0
C1478 C 0.73652 0.30902 0.79917 0.0
C1479 C 0.75171 0.321 0.76977 0.0
C1480 C 0.74871 0.32691 0.71201 0.0
C1481 C 0.73003 0.31986 0.68328 0.0
C1482 C 0.71493 0.30671 0.71224 0.0
C1483 C 0.7179 0.30201 0.77132 0.0
H1484 H 0.23756 0.22377 0.92179 0.0
H1485 H 0.19298 0.19084 0.80765 0.0
H1486 H 0.22312 0.18116 0.74346 0.0
H1487 H 0.2634 0.24937 0.81862 0.0
H1488 H 0.28998 0.2486 0.84999 0.0
H1489 H 0.26679 0.24713 0.89578 0.0
H1490 H 0.2803 0.2112 0.93947 0.0
H1491 H 0.30393 0.21268 0.89451 0.0
H1492 H 0.28704 0.1891 0.89238 0.0
H1493 H 0.25636 0.18244 0.68105 0.0
H1494 H 0.28907 0.1943 0.62867 0.0
H1495 H 0.31114 0.22709 0.7831 0.0
C1496 C 0.23421 0.21367 0.88476 0.0
C1497 C 0.21289 0.20806 0.86988 0.0
C1498 C 0.20919 0.19521 0.82027 0.0
C1499 C 0.22626 0.18962 0.78346 0.0
C1500 C 0.24692 0.19679 0.79724 0.0
C1501 C 0.25096 0.20828 0.84735 0.0
C1502 C 0.27356 0.21728 0.84806 0.0
C1503 C 0.2734 0.24204 0.85337 0.0
C1504 C 0.287 0.20693 0.89648 0.0
C1505 C 0.28123 0.21011 0.78924 0.0
C1506 C 0.26593 0.19786 0.7609 0.0
C1507 C 0.26868 0.19152 0.70342 0.0
C1508 C 0.28728 0.19831 0.67394 0.0
C1509 C 0.30257 0.21159 0.7019 0.0
C1510 C 0.29975 0.21686 0.76069 0.0
H1511 H 0.30832 0.78542 0.32046 0.0
H1512 H 0.28738 0.81775 0.47616 0.0
H1513 H 0.25449 0.83021 0.42517 0.0
H1514 H 0.28245 0.82438 0.21163 0.0
H1515 H 0.27587 0.80209 0.16499 0.0
H1516 H 0.30006 0.80135 0.20816 0.0
H1517 H 0.28789 0.76499 0.25242 0.0
H1518 H 0.26376 0.76569 0.20997 0.0
H1519 H 0.26204 0.76334 0.28745 0.0
H1520 H 0.22055 0.8306 0.36605 0.0
H1521 H 0.18975 0.81974 0.30514 0.0
H1522 H 0.23365 0.78825 0.18667 0.0
C1523 C 0.29721 0.79592 0.34295 0.0
C1524 C 0.30023 0.80077 0.40182 0.0
C1525 C 0.28538 0.81421 0.43063 0.0
C1526 C 0.2667 0.82131 0.40195 0.0
C1527 C 0.26356 0.8152 0.3444 0.0
C1528 C 0.27872 0.80315 0.31491 0.0
C1529 C 0.27041 0.79578 0.25679 0.0
C1530 C 0.28294 0.80655 0.20748 0.0
C1531 C 0.27105 0.77101 0.25144 0.0
C1532 C 0.24762 0.80414 0.25977 0.0
C1533 C 0.24402 0.81573 0.30989 0.0
C1534 C 0.22334 0.82217 0.32584 0.0
C1535 C 0.2059 0.81589 0.29098 0.0
C1536 C 0.2093 0.80313 0.24111 0.0
C1537 C 0.23052 0.79822 0.22408 0.0
H1538 H 0.46891 0.98524 0.42516 0.0
H1539 H 0.43317 0.94238 0.53743 0.0
H1540 H 0.42521 0.9728 0.60241 0.0
H1541 H 0.49604 0.0088 0.5284 0.0
H1542 H 0.49697 0.03557 0.49843 0.0
H1543 H 0.49382 0.01288 0.45147 0.0
H1544 H 0.45876 0.02899 0.40911 0.0
H1545 H 0.46192 0.05216 0.45526 0.0
H1546 H 0.43726 0.03688 0.45687 0.0
H1547 H 0.4289 1.00543 0.66656 0.0
H1548 H 0.44381 0.03646 0.72111 0.0
H1549 H 0.47769 0.05722 0.56754 0.0
C1550 C 0.45854 0.98241 0.46194 0.0
C1551 C 0.45167 0.96143 0.4761 0.0
C1552 C 0.43847 0.95835 0.52528 0.0
C1553 C 0.43387 0.97558 0.56257 0.0
C1554 C 0.44231 0.99582 0.54961 0.0
C1555 C 0.4541 0.99933 0.49975 0.0
C1556 C 0.4646 0.02126 0.50006 0.0
C1557 C 0.4893 0.0195 0.49433 0.0
C1558 C 0.45505 0.03568 0.4525 0.0
C1559 C 0.45806 0.02901 0.55933 0.0
C1560 C 0.44472 0.01448 0.58691 0.0
C1561 C 0.43883 0.01721 0.64478 0.0
C1562 C 0.44731 0.03485 0.67548 0.0
C1563 C 0.4618 0.04913 0.64828 0.0
C1564 C 0.46649 0.04656 0.58912 0.0
H1565 H 0.04037 0.05959 0.03597 0.0
H1566 H 0.07619 0.03799 0.88627 0.0
H1567 H 0.09028 1.00721 0.94336 0.0
H1568 H 0.07936 0.04089 0.14991 0.0
H1569 H 0.05755 0.03316 0.19679 0.0
H1570 H 0.05437 0.05565 0.14824 0.0
H1571 H 0.02023 0.03789 0.10401 0.0
H1572 H 0.02329 0.01575 0.153 0.0
H1573 H 0.02199 0.01081 0.07635 0.0
H1574 H 0.09441 0.97545 0.01107 0.0
H1575 H 0.08725 0.94584 0.07936 0.0
H1576 H 0.0492 0.98912 0.18499 0.0
C1577 C 0.05162 0.0487 0.01547 0.0
C1578 C 0.05716 0.05108 0.95671 0.0
C1579 C 0.07189 0.03652 0.93143 0.0
C1580 C 0.07998 0.01905 0.96362 0.0
C1581 C 0.07347 0.01672 0.02111 0.0
C1582 C 0.05977 0.03138 0.04683 0.0
C1583 C 0.05285 0.02412 0.10628 0.0
C1584 C 0.06156 0.03936 0.15307 0.0
C1585 C 0.02814 0.02201 0.11002 0.0
C1586 C 0.06381 1.00244 0.10909 0.0
C1587 C 0.07602 0.99858 0.06021 0.0
C1588 C 0.08535 0.97851 0.0501 0.0
C1589 C 0.08123 0.96177 0.08936 0.0
C1590 C 0.06764 0.96513 0.13769 0.0
C1591 C 0.05988 0.98606 0.149 0.0
H1592 H 0.02236 0.45432 0.60019 0.0
H1593 H 0.04537 0.49461 0.74049 0.0
H1594 H 0.04749 0.52546 0.67422 0.0
H1595 H 0.05628 0.47881 0.4877 0.0
H1596 H 0.03592 0.47712 0.43229 0.0
H1597 H 0.0363 0.45779 0.49038 0.0
H1598 H 0.99691 0.46744 0.51535 0.0
H1599 H 0.99642 0.48681 0.45739 0.0
H1600 H 0.98989 0.49506 0.52992 0.0
H1601 H 0.04562 0.5534 0.59281 0.0
H1602 H 0.04162 0.57473 0.50296 0.0
H1603 H 0.02144 0.5171 0.4121 0.0
C1604 C 0.02805 0.46956 0.61694 0.0
C1605 C 0.03375 0.4716 0.67655 0.0
C1606 C 0.04093 0.49215 0.6957 0.0
C1607 C 0.04217 0.51 0.65809 0.0
C1608 C 0.03634 0.50752 0.6002 0.0
C1609 C 0.02958 0.48775 0.57944 0.0
C1610 C 0.0243 0.48965 0.51496 0.0
C1611 C 0.03908 0.47497 0.47922 0.0
C1612 C 1.00046 0.48443 0.50375 0.0
C1613 C 0.02906 0.51344 0.503 0.0
C1614 C 0.03587 0.52348 0.55299 0.0
C1615 C 0.04051 0.54556 0.55337 0.0
C1616 C 0.0382 0.55764 0.50181 0.0
C1617 C 0.03151 0.54785 0.4494 0.0
C1618 C 0.02696 0.52528 0.45068 0.0
H1619 H 0.81289 0.77174 0.85181 0.0
H1620 H 0.77412 0.79397 0.99573 0.0
H1621 H 0.74218 0.79498 0.93279 0.0
H1622 H 0.78601 0.80518 0.74262 0.0
H1623 H 0.78748 0.78507 0.68664 0.0
H1624 H 0.80755 0.78573 0.74297 0.0
H1625 H 0.79924 0.74603 0.76793 0.0
H1626 H 0.77912 0.74527 0.71174 0.0
H1627 H 0.772 0.73828 0.78484 0.0
H1628 H 0.713 0.7921 0.85405 0.0
H1629 H 0.69071 0.78814 0.76561 0.0
H1630 H 0.74781 0.77011 0.66959 0.0
C1631 C 0.79773 0.77693 0.87008 0.0
C1632 C 0.79644 0.78282 0.92962 0.0
C1633 C 0.776 0.78947 0.95081 0.0
C1634 C 0.75753 0.79003 0.91517 0.0
C1635 C 0.75929 0.78414 0.85718 0.0
C1636 C 0.77895 0.77793 0.83449 0.0
C1637 C 0.77635 0.77285 0.77014 0.0
C1638 C 0.79017 0.78812 0.73342 0.0
C1639 C 0.78202 0.7492 0.75795 0.0
C1640 C 0.7523 0.77706 0.76048 0.0
C1641 C 0.7427 0.78335 0.81148 0.0
C1642 C 0.7205 0.7874 0.81382 0.0
C1643 C 0.70785 0.7851 0.76313 0.0
C1644 C 0.71725 0.77911 0.70969 0.0
C1645 C 0.73992 0.77507 0.70907 0.0
H1646 H 0.49887 0.51676 0.19978 0.0
H1647 H 0.4776 0.57429 0.11013 0.0
H1648 H 0.47282 0.55295 0.02065 0.0
H1649 H 0.52939 0.49496 0.08017 0.0
H1650 H 0.52273 0.46731 0.09539 0.0
H1651 H 0.52352 0.48673 0.15316 0.0
H1652 H 0.48444 0.47693 0.18093 0.0
H1653 H 0.48353 0.45747 0.12322 0.0
H1654 H 0.46351 0.47844 0.12699 0.0
H1655 H 0.47017 0.52499 0.93958 0.0
H1656 H 0.47165 0.49412 0.87331 0.0
H1657 H 0.49635 0.45395 0.01192 0.0
C1658 C 0.49296 0.5249 0.16155 0.0
C1659 C 0.48832 0.54745 0.16305 0.0
C1660 C 0.48111 0.55722 0.11109 0.0
C1661 C 0.47835 0.54512 0.05975 0.0
C1662 C 0.48308 0.52307 0.05988 0.0
C1663 C 0.49041 0.51305 0.10941 0.0
C1664 C 0.49516 0.48927 0.09712 0.0
C1665 C 0.51913 0.48427 0.10706 0.0
C1666 C 0.4808 0.47466 0.13429 0.0
C1667 C 0.48927 0.48738 0.03305 0.0
C1668 C 0.4822 0.50711 0.01276 0.0
C1669 C 0.47573 0.50956 0.95534 0.0
C1670 C 0.47659 0.4917 0.91774 0.0
C1671 C 0.48405 0.47118 0.93643 0.0
C1672 C 0.49045 0.46917 0.99554 0.0
H1673 H 0.77398 0.22298 0.15507 0.0
H1674 H 0.82504 0.25113 0.25832 0.0
H1675 H 0.80037 0.2528 0.34214 0.0
H1676 H 0.73064 0.25411 0.21387 0.0
H1677 H 0.7114 0.23241 0.21246 0.0
H1678 H 0.73323 0.23285 0.16134 0.0
H1679 H 0.74508 0.19493 0.19481 0.0
H1680 H 0.72325 0.19434 0.24596 0.0
H1681 H 0.75052 0.19016 0.27029 0.0
H1682 H 0.76849 0.25309 0.41553 0.0
H1683 H 0.73421 0.25039 0.46974 0.0
H1684 H 0.70406 0.22093 0.32032 0.0
C1685 C 0.78016 0.22929 0.19543 0.0
C1686 C 0.80184 0.2368 0.19931 0.0
C1687 C 0.8088 0.24507 0.25345 0.0
C1688 C 0.79475 0.24616 0.3016 0.0
C1689 C 0.77352 0.23882 0.29602 0.0
C1690 C 0.76634 0.23037 0.2442 0.0
C1691 C 0.74274 0.22367 0.24923 0.0
C1692 C 0.72867 0.23653 0.20669 0.0
C1693 C 0.74025 0.19933 0.23949 0.0
C1694 C 0.73765 0.22971 0.31174 0.0
C1695 C 0.75559 0.23855 0.33802 0.0
C1696 C 0.75451 0.24598 0.39513 0.0
C1697 C 0.73483 0.24437 0.42586 0.0
C1698 C 0.71616 0.23518 0.40032 0.0
C1699 C 0.7179 0.22773 0.34214 0.0
H1700 H 0.31126 0.27106 0.35534 0.0
H1701 H 0.27047 0.29296 0.49557 0.0
H1702 H 0.23953 0.29445 0.42927 0.0
H1703 H 0.28583 0.30449 0.24272 0.0
H1704 H 0.28803 0.28419 0.18741 0.0
H1705 H 0.30738 0.28507 0.24553 0.0
H1706 H 0.2988 0.24544 0.27064 0.0
H1707 H 0.2794 0.24447 0.21269 0.0
H1708 H 0.27137 0.23771 0.28526 0.0
H1709 H 0.21151 0.29194 0.34756 0.0
H1710 H 0.19031 0.28749 0.2574 0.0
H1711 H 0.24855 0.26877 0.16735 0.0
C1712 C 0.29591 0.27641 0.37206 0.0
C1713 C 0.29374 0.28195 0.43168 0.0
C1714 C 0.27302 0.28864 0.45078 0.0
C1715 C 0.25512 0.28952 0.41315 0.0
C1716 C 0.2577 0.2838 0.35527 0.0
C1717 C 0.27765 0.27754 0.33455 0.0
C1718 C 0.27586 0.27224 0.27013 0.0
C1719 C 0.29013 0.2874 0.23433 0.0
C1720 C 0.28171 0.24856 0.25904 0.0
C1721 C 0.25193 0.27639 0.25816 0.0
C1722 C 0.24171 0.28293 0.30804 0.0
C1723 C 0.2195 0.28703 0.3082 0.0
C1724 C 0.20748 0.28446 0.2565 0.0
C1725 C 0.21749 0.27804 0.20424 0.0
C1726 C 0.24018 0.27402 0.20582 0.0
H1727 H 0.2691 0.74771 0.66322 0.0
H1728 H 0.32627 0.73112 0.76143 0.0
H1729 H 0.30385 0.72724 0.84946 0.0
H1730 H 0.24445 0.77985 0.77647 0.0
H1731 H 0.21734 0.77179 0.75895 0.0
H1732 H 0.23763 0.77238 0.70342 0.0
H1733 H 0.22981 0.73249 0.67954 0.0
H1734 H 0.20952 0.73176 0.73508 0.0
H1735 H 0.23132 0.71261 0.73617 0.0
H1736 H 0.2745 0.72395 0.92728 0.0
H1737 H 0.24239 0.72473 0.98927 0.0
H1738 H 0.20372 0.74624 0.8439 0.0
C1739 C 0.27697 0.74308 0.70313 0.0
C1740 C 0.29969 0.73939 0.70453 0.0
C1741 C 0.30908 0.73388 0.75843 0.0
C1742 C 0.29637 0.73161 0.80886 0.0
C1743 C 0.27411 0.73528 0.80575 0.0
C1744 C 0.26452 0.7412 0.75429 0.0
C1745 C 0.2404 0.74517 0.76322 0.0
C1746 C 0.23462 0.7687 0.7497 0.0
C1747 C 0.22697 0.72958 0.7263 0.0
C1748 C 0.23776 0.74034 0.82763 0.0
C1749 C 0.25743 0.73444 0.85101 0.0
C1750 C 0.25914 0.72869 0.90914 0.0
C1751 C 0.24057 0.7291 0.94422 0.0
C1752 C 0.22012 0.73551 0.92234 0.0
C1753 C 0.2189 0.74126 0.86268 0.0
H1754 H 0.51263 0.99967 0.1898 0.0
H1755 H 0.54333 0.94447 0.11025 0.0
H1756 H 0.54973 0.96607 0.02188 0.0
H1757 H 0.4854 0.01807 0.06032 0.0
H1758 H 0.48852 0.04627 0.07652 0.0
H1759 H 0.48719 0.0269 0.13438 0.0
H1760 H 0.52359 0.04065 0.17419 0.0
H1761 H 0.52504 0.06006 0.11644 0.0
H1762 H 0.54677 0.04125 0.12746 0.0
H1763 H 0.55313 0.99419 0.94105 0.0
H1764 H 0.55152 0.02479 0.87376 0.0
H1765 H 0.51691 0.06221 1.00182 0.0
C1766 C 0.52092 0.9921 0.15407 0.0
C1767 C 0.52774 0.97016 0.15811 0.0
C1768 C 0.53808 0.96108 0.10925 0.0
C1769 C 0.54179 0.97333 0.05858 0.0
C1770 C 0.53486 0.9948 0.05622 0.0
C1771 C 0.52447 1.00407 0.10262 0.0
C1772 C 0.5179 0.02723 0.08799 0.0
C1773 C 0.49329 0.02976 0.08993 0.0
C1774 C 0.52899 0.04325 0.12897 0.0
C1775 C 0.52632 0.02967 0.02623 0.0
C1776 C 0.53618 0.01074 1.0091 0.0
C1777 C 0.54538 0.00898 0.95433 0.0
C1778 C 0.54442 0.02668 0.91615 0.0
C1779 C 0.53415 0.04633 0.93157 0.0
C1780 C 0.52497 0.04765 0.988 0.0
H1781 H 0.99816 0.06033 0.60651 0.0
H1782 H 0.97002 0.02044 0.74049 0.0
H1783 H 0.96726 0.99032 0.6719 0.0
H1784 H 0.96538 0.03886 0.48694 0.0
H1785 H 0.98706 0.03973 0.43533 0.0
H1786 H 0.98647 0.0586 0.49446 0.0
H1787 H 0.02457 0.0464 0.52566 0.0
H1788 H 0.02525 0.02749 0.46669 0.0
H1789 H 0.02958 0.01829 0.53968 0.0
H1790 H 0.96892 0.96296 0.5885 0.0
H1791 H 0.97379 0.94219 0.498 0.0
H1792 H 0.99977 0.99921 0.4155 0.0
C1793 C 0.99117 0.04536 0.62135 0.0
C1794 C 0.98424 0.04318 0.67987 0.0
C1795 C 0.97545 0.02296 0.69658 0.0
C1796 C 0.97382 1.00555 0.65762 0.0
C1797 C 0.98093 1.00813 0.60086 0.0
C1798 C 0.98932 0.0276 0.58254 0.0
C1799 C 0.99597 0.0259 0.51906 0.0
C1800 C 0.98294 0.04171 0.48174 0.0
C1801 C 0.02029 0.02975 0.51239 0.0
C1802 C 0.99009 1.00254 0.50482 0.0
C1803 C 0.9815 0.99254 0.55275 0.0
C1804 C 0.97547 0.9708 0.55066 0.0
C1805 C 0.97828 0.95902 0.49875 0.0
C1806 C 0.98692 0.96881 0.4485 0.0
C1807 C 0.9928 0.99104 0.4523 0.0
loop_
_geom_bond_atom_site_label_1
_geom_bond_atom_site_label_2
_geom_bond_distance
_geom_bond_site_symmetry_2
_ccdc_geom_bond_type
Co0 O2 2.143 . S
Co0 O8 2.074 . S
Co0 O11 2.093 1_455 S
Co0 O24 2.097 1_455 S
Co0 N41 2.151 . S
Co0 N49 2.214 . S
Co1 O2 2.160 1_655 S
Co1 O7 2.058 1_655 S
Co1 O17 2.057 1_655 S
Co1 O32 2.037 . S
Co1 N36 2.145 . S
Co1 N57 2.257 . S
O2 Co0 2.143 . S
O2 Co1 2.160 1_455 S
C3 O4 1.278 . S
C3 O11 1.224 . S
O4 C3 1.278 . S
C5 O6 1.245 . S
C5 O17 1.232 . S
O6 C5 1.245 . S
O7 Co1 2.058 1_455 S
O7 C33 1.269 . S
O8 Co0 2.074 . S
O8 C33 1.257 . S
H9 C34 0.930 . S
H10 C40 0.930 . S
O11 Co0 2.093 1_655 S
O11 C3 1.224 . S
H12 C44 0.929 . S
H13 C46 0.925 1_556 S
H14 C47 0.930 . S
H15 C45 0.929 . S
H16 C48 0.928 . S
O17 Co1 2.057 1_455 S
O17 C5 1.232 . S
H18 C37 0.929 . S
H19 C38 0.929 . S
H20 C50 0.931 . S
H21 C42 0.929 . S
H22 C51 0.933 . S
H23 C43 0.931 . S
O24 Co0 2.097 1_655 S
O24 C52 1.214 . S
H25 C53 0.929 . S
H26 C54 0.929 . S
H27 C55 0.930 . S
H28 C56 0.929 . S
H29 C58 0.930 . S
H30 C35 0.930 . S
H31 C39 0.930 . S
O32 Co1 2.037 . S
O32 C52 1.234 . S
C33 O7 1.269 . S
C33 O8 1.257 . S
C34 H9 0.930 . S
C34 C37 1.388 . S
C34 C39 1.418 . S
C35 H30 0.930 . S
C35 C38 1.404 . S
C35 C39 1.353 . S
N36 Co1 2.145 . S
N36 C37 1.397 . S
N36 C38 1.334 . S
C37 H18 0.929 . S
C37 C34 1.388 . S
C37 N36 1.397 . S
C38 H19 0.929 . S
C38 C35 1.404 . S
C38 N36 1.334 . S
C39 H31 0.930 . S
C39 C34 1.418 . S
C39 C35 1.353 . S
C40 H10 0.930 . S
C40 N41 1.330 . S
C40 C42 1.446 . S
N41 Co0 2.151 . S
N41 C40 1.330 . S
N41 C45 1.418 . S
C42 H21 0.929 . S
C42 C40 1.446 . S
C42 C43 1.332 . S
C43 H23 0.931 . S
C43 C42 1.332 . S
C43 C44 1.267 . S
C44 H12 0.929 . S
C44 C43 1.267 . S
C44 C45 1.251 . S
C45 H15 0.929 . S
C45 N41 1.418 . S
C45 C44 1.251 . S
C46 H13 0.925 1_554 S
C46 C48 1.410 . S
C46 C51 1.260 1_554 S
C47 H14 0.930 . S
C47 N49 1.325 . S
C47 C50 1.357 . S
C48 H16 0.928 . S
C48 C46 1.410 . S
C48 N49 1.261 . S
N49 Co0 2.214 . S
N49 C47 1.325 . S
N49 C48 1.261 . S
C50 H20 0.931 . S
C50 C47 1.357 . S
C50 C51 1.310 1_554 S
C51 H22 0.933 . S
C51 C46 1.260 1_556 S
C51 C50 1.310 1_556 S
C52 O24 1.214 . S
C52 O32 1.234 . S
C53 H25 0.929 . S
C53 C56 1.391 . S
C53 C58 1.391 . S
C54 H26 0.929 . S
C54 C55 1.390 . S
C54 N57 1.391 . S
C55 H27 0.930 . S
C55 C54 1.390 . S
C55 C56 1.392 . S
C56 H28 0.929 . S
C56 C53 1.391 . S
C56 C55 1.392 . S
N57 Co1 2.257 . S
N57 C54 1.391 . S
N57 C58 1.388 . S
C58 H29 0.930 . S
C58 C53 1.391 . S
C58 N57 1.388 . S
Co59 O61 2.143 . S
Co59 O67 2.074 . S
Co59 O70 2.093 . S
Co59 O83 2.097 . S
Co59 N100 2.151 . S
Co59 N108 2.214 . S
Co60 O61 2.160 . S
Co60 O66 2.058 . S
Co60 O76 2.057 . S
Co60 O91 2.037 . S
Co60 N95 2.145 . S
Co60 N116 2.257 . S
O61 Co59 2.143 . S
O61 Co60 2.160 . S
C62 O63 1.278 . S
C62 O70 1.224 . S
O63 C62 1.278 . S
C64 O65 1.245 . S
C64 O76 1.232 . S
O65 C64 1.245 . S
O66 Co60 2.058 . S
O66 C92 1.269 . S
O67 Co59 2.074 . S
O67 C92 1.257 . S
H68 C93 0.930 . S
H69 C99 0.930 . S
O70 Co59 2.093 . S
O70 C62 1.224 . S
H71 C103 0.929 . S
H72 C105 0.930 . S
H73 C106 0.930 . S
H74 C104 0.929 . S
H75 C107 0.928 . S
O76 Co60 2.057 . S
O76 C64 1.232 . S
H77 C96 0.929 . S
H78 C97 0.929 . S
H79 C109 0.931 . S
H80 C101 0.929 . S
H81 C110 0.930 . S
H82 C102 0.931 . S
O83 Co59 2.097 . S
O83 C111 1.214 . S
H84 C112 0.929 . S
H85 C113 0.929 . S
H86 C114 0.930 . S
H87 C115 0.929 . S
H88 C117 0.930 . S
H89 C94 0.930 . S
H90 C98 0.930 . S
O91 Co60 2.037 . S
O91 C111 1.234 . S
C92 O66 1.269 . S
C92 O67 1.257 . S
C93 H68 0.930 . S
C93 C96 1.388 . S
C93 C98 1.418 . S
C94 H89 0.930 . S
C94 C97 1.404 . S
C94 C98 1.353 . S
N95 Co60 2.145 . S
N95 C96 1.397 . S
N95 C97 1.334 . S
C96 H77 0.929 . S
C96 C93 1.388 . S
C96 N95 1.397 . S
C97 H78 0.929 . S
C97 C94 1.404 . S
C97 N95 1.334 . S
C98 H90 0.930 . S
C98 C93 1.418 . S
C98 C94 1.353 . S
C99 H69 0.930 . S
C99 N100 1.330 . S
C99 C101 1.446 . S
N100 Co59 2.151 . S
N100 C99 1.330 . S
N100 C104 1.418 . S
C101 H80 0.929 . S
C101 C99 1.446 . S
C101 C102 1.332 . S
C102 H82 0.931 . S
C102 C101 1.332 . S
C102 C103 1.267 . S
C103 H71 0.929 . S
C103 C102 1.267 . S
C103 C104 1.251 . S
C104 H74 0.929 . S
C104 N100 1.418 . S
C104 C103 1.251 . S
C105 H72 0.930 . S
C105 C107 1.406 . S
C105 C110 1.261 . S
C106 H73 0.930 . S
C106 N108 1.325 . S
C106 C109 1.357 . S
C107 H75 0.928 . S
C107 C105 1.406 . S
C107 N108 1.261 . S
N108 Co59 2.214 . S
N108 C106 1.325 . S
N108 C107 1.261 . S
C109 H79 0.931 . S
C109 C106 1.357 . S
C109 C110 1.312 . S
C110 H81 0.930 . S
C110 C105 1.261 . S
C110 C109 1.312 . S
C111 O83 1.214 . S
C111 O91 1.234 . S
C112 H84 0.929 . S
C112 C115 1.391 . S
C112 C117 1.391 . S
C113 H85 0.929 . S
C113 C114 1.390 . S
C113 N116 1.391 . S
C114 H86 0.930 . S
C114 C113 1.390 . S
C114 C115 1.392 . S
C115 H87 0.929 . S
C115 C112 1.391 . S
C115 C114 1.392 . S
N116 Co60 2.257 . S
N116 C113 1.391 . S
N116 C117 1.388 . S
C117 H88 0.930 . S
C117 C112 1.391 . S
C117 N116 1.388 . S
Co118 O120 2.143 . S
Co118 O126 2.074 . S
Co118 O129 2.093 . S
Co118 O142 2.097 . S
Co118 N159 2.151 . S
Co118 N167 2.214 . S
Co119 O120 2.160 . S
Co119 O125 2.058 . S
Co119 O135 2.057 . S
Co119 O150 2.037 . S
Co119 N154 2.145 . S
Co119 N175 2.257 . S
O120 Co118 2.143 . S
O120 Co119 2.160 . S
C121 O122 1.278 . S
C121 O129 1.224 . S
O122 C121 1.278 . S
C123 O124 1.245 . S
C123 O135 1.232 . S
O124 C123 1.245 . S
O125 Co119 2.058 . S
O125 C151 1.269 . S
O126 Co118 2.074 . S
O126 C151 1.257 . S
H127 C152 0.930 . S
H128 C158 0.930 . S
O129 Co118 2.093 . S
O129 C121 1.224 . S
H130 C162 0.929 . S
H131 C164 0.930 . S
H132 C165 0.930 . S
H133 C163 0.929 . S
H134 C166 0.928 . S
O135 Co119 2.057 . S
O135 C123 1.232 . S
H136 C155 0.929 . S
H137 C156 0.929 . S
H138 C168 0.931 . S
H139 C160 0.929 . S
H140 C169 0.930 . S
H141 C161 0.931 . S
O142 Co118 2.097 . S
O142 C170 1.214 . S
H143 C171 0.929 . S
H144 C172 0.929 . S
H145 C173 0.930 . S
H146 C174 0.929 . S
H147 C176 0.930 . S
H148 C153 0.930 1_554 S
H149 C157 0.930 . S
O150 Co119 2.037 . S
O150 C170 1.234 . S
C151 O125 1.269 . S
C151 O126 1.257 . S
C152 H127 0.930 . S
C152 C155 1.388 . S
C152 C157 1.418 . S
C153 H148 0.930 1_556 S
C153 C156 1.404 . S
C153 C157 1.353 . S
N154 Co119 2.145 . S
N154 C155 1.397 . S
N154 C156 1.334 . S
C155 H136 0.929 . S
C155 C152 1.388 . S
C155 N154 1.397 . S
C156 H137 0.929 . S
C156 C153 1.404 . S
C156 N154 1.334 . S
C157 H149 0.930 . S
C157 C152 1.418 . S
C157 C153 1.353 . S
C158 H128 0.930 . S
C158 N159 1.330 . S
C158 C160 1.446 . S
N159 Co118 2.151 . S
N159 C158 1.330 . S
N159 C163 1.418 . S
C160 H139 0.929 . S
C160 C158 1.446 . S
C160 C161 1.332 . S
C161 H141 0.931 . S
C161 C160 1.332 . S
C161 C162 1.267 . S
C162 H130 0.929 . S
C162 C161 1.267 . S
C162 C163 1.251 . S
C163 H133 0.929 . S
C163 N159 1.418 . S
C163 C162 1.251 . S
C164 H131 0.930 . S
C164 C166 1.406 . S
C164 C169 1.261 . S
C165 H132 0.930 . S
C165 N167 1.325 . S
C165 C168 1.357 . S
C166 H134 0.928 . S
C166 C164 1.406 . S
C166 N167 1.261 . S
N167 Co118 2.214 . S
N167 C165 1.325 . S
N167 C166 1.261 . S
C168 H138 0.931 . S
C168 C165 1.357 . S
C168 C169 1.312 . S
C169 H140 0.930 . S
C169 C164 1.261 . S
C169 C168 1.312 . S
C170 O142 1.214 . S
C170 O150 1.234 . S
C171 H143 0.929 . S
C171 C174 1.391 . S
C171 C176 1.391 . S
C172 H144 0.929 . S
C172 C173 1.390 . S
C172 N175 1.391 . S
C173 H145 0.930 . S
C173 C172 1.390 . S
C173 C174 1.392 . S
C174 H146 0.929 . S
C174 C171 1.391 . S
C174 C173 1.392 . S
N175 Co119 2.257 . S
N175 C172 1.391 . S
N175 C176 1.388 . S
C176 H147 0.930 . S
C176 C171 1.391 . S
C176 N175 1.388 . S
Co177 O179 2.143 1_556 S
Co177 O185 2.074 . S
Co177 O188 2.093 . S
Co177 O201 2.097 . S
Co177 N218 2.151 . S
Co177 N226 2.214 . S
Co178 O179 2.160 . S
Co178 O184 2.058 . S
Co178 O194 2.057 . S
Co178 O209 2.037 . S
Co178 N213 2.145 . S
Co178 N234 2.257 . S
O179 Co177 2.143 1_554 S
O179 Co178 2.160 . S
C180 O181 1.278 . S
C180 O188 1.224 . S
O181 C180 1.278 . S
C182 O183 1.245 . S
C182 O194 1.232 . S
O183 C182 1.245 . S
O184 Co178 2.058 . S
O184 C210 1.269 . S
O185 Co177 2.074 . S
O185 C210 1.257 1_556 S
H186 C211 0.930 . S
H187 C217 0.930 . S
O188 Co177 2.093 . S
O188 C180 1.224 . S
H189 C221 0.929 . S
H190 C223 0.930 . S
H191 C224 0.930 . S
H192 C222 0.929 . S
H193 C225 0.928 . S
O194 Co178 2.057 . S
O194 C182 1.232 . S
H195 C214 0.929 . S
H196 C215 0.929 . S
H197 C227 0.931 . S
H198 C219 0.929 . S
H199 C228 0.930 . S
H200 C220 0.931 . S
O201 Co177 2.097 . S
O201 C229 1.214 . S
H202 C230 0.929 . S
H203 C231 0.929 . S
H204 C232 0.930 . S
H205 C233 0.929 . S
H206 C235 0.930 . S
H207 C212 0.930 . S
H208 C216 0.930 . S
O209 Co178 2.037 . S
O209 C229 1.234 1_554 S
C210 O184 1.269 . S
C210 O185 1.257 1_554 S
C211 H186 0.930 . S
C211 C214 1.388 . S
C211 C216 1.418 . S
C212 H207 0.930 . S
C212 C215 1.404 . S
C212 C216 1.353 . S
N213 Co178 2.145 . S
N213 C214 1.397 . S
N213 C215 1.334 . S
C214 H195 0.929 . S
C214 C211 1.388 . S
C214 N213 1.397 . S
C215 H196 0.929 . S
C215 C212 1.404 . S
C215 N213 1.334 . S
C216 H208 0.930 . S
C216 C211 1.418 . S
C216 C212 1.353 . S
C217 H187 0.930 . S
C217 N218 1.330 . S
C217 C219 1.446 . S
N218 Co177 2.151 . S
N218 C217 1.330 . S
N218 C222 1.418 . S
C219 H198 0.929 . S
C219 C217 1.446 . S
C219 C220 1.332 . S
C220 H200 0.931 . S
C220 C219 1.332 . S
C220 C221 1.267 . S
C221 H189 0.929 . S
C221 C220 1.267 . S
C221 C222 1.251 . S
C222 H192 0.929 . S
C222 N218 1.418 . S
C222 C221 1.251 . S
C223 H190 0.930 . S
C223 C225 1.406 . S
C223 C228 1.261 . S
C224 H191 0.930 . S
C224 N226 1.325 . S
C224 C227 1.357 . S
C225 H193 0.928 . S
C225 C223 1.406 . S
C225 N226 1.261 . S
N226 Co177 2.214 . S
N226 C224 1.325 . S
N226 C225 1.261 . S
C227 H197 0.931 . S
C227 C224 1.357 . S
C227 C228 1.312 . S
C228 H199 0.930 . S
C228 C223 1.261 . S
C228 C227 1.312 . S
C229 O201 1.214 . S
C229 O209 1.234 1_556 S
C230 H202 0.929 . S
C230 C233 1.391 . S
C230 C235 1.391 . S
C231 H203 0.929 . S
C231 C232 1.390 . S
C231 N234 1.391 . S
C232 H204 0.930 . S
C232 C231 1.390 . S
C232 C233 1.392 . S
C233 H205 0.929 . S
C233 C230 1.391 . S
C233 C232 1.392 . S
N234 Co178 2.257 . S
N234 C231 1.391 . S
N234 C235 1.388 . S
C235 H206 0.930 . S
C235 C230 1.391 . S
C235 N234 1.388 . S
Co236 O238 2.143 . S
Co236 O244 2.074 . S
Co236 O247 2.093 1_455 S
Co236 O260 2.097 1_455 S
Co236 N277 2.151 . S
Co236 N285 2.214 . S
Co237 O238 2.160 1_655 S
Co237 O243 2.058 1_655 S
Co237 O253 2.057 1_655 S
Co237 O268 2.037 . S
Co237 N272 2.145 . S
Co237 N293 2.257 . S
O238 Co236 2.143 . S
O238 Co237 2.160 1_455 S
C239 O240 1.278 . S
C239 O247 1.224 . S
O240 C239 1.278 . S
C241 O242 1.245 . S
C241 O253 1.232 . S
O242 C241 1.245 . S
O243 Co237 2.058 1_455 S
O243 C269 1.269 . S
O244 Co236 2.074 . S
O244 C269 1.257 . S
H245 C270 0.930 . S
H246 C276 0.930 . S
O247 Co236 2.093 1_655 S
O247 C239 1.224 . S
H248 C280 0.929 . S
H249 C282 0.930 . S
H250 C283 0.937 . S
H251 C281 0.929 . S
H252 C284 0.928 . S
O253 Co237 2.057 1_455 S
O253 C241 1.232 . S
H254 C273 0.929 . S
H255 C274 0.929 . S
H256 C286 0.931 . S
H257 C278 0.929 . S
H258 C287 0.930 . S
H259 C279 0.931 . S
O260 Co236 2.097 1_655 S
O260 C288 1.214 . S
H261 C289 0.929 . S
H262 C290 0.929 . S
H263 C291 0.930 . S
H264 C292 0.929 . S
H265 C294 0.930 . S
H266 C271 0.930 . S
H267 C275 0.930 . S
O268 Co237 2.037 . S
O268 C288 1.234 . S
C269 O243 1.269 . S
C269 O244 1.257 . S
C270 H245 0.930 . S
C270 C273 1.388 . S
C270 C275 1.418 . S
C271 H266 0.930 . S
C271 C274 1.404 . S
C271 C275 1.353 . S
N272 Co237 2.145 . S
N272 C273 1.397 . S
N272 C274 1.334 . S
C273 H254 0.929 . S
C273 C270 1.388 . S
C273 N272 1.397 . S
C274 H255 0.929 . S
C274 C271 1.404 . S
C274 N272 1.334 . S
C275 H267 0.930 . S
C275 C270 1.418 . S
C275 C271 1.353 . S
C276 H246 0.930 . S
C276 N277 1.330 . S
C276 C278 1.446 . S
N277 Co236 2.151 . S
N277 C276 1.330 . S
N277 C281 1.418 . S
C278 H257 0.929 . S
C278 C276 1.446 . S
C278 C279 1.332 . S
C279 H259 0.931 . S
C279 C278 1.332 . S
C279 C280 1.267 . S
C280 H248 0.929 . S
C280 C279 1.267 . S
C280 C281 1.251 . S
C281 H251 0.929 . S
C281 N277 1.418 . S
C281 C280 1.251 . S
C282 H249 0.930 . S
C282 C284 1.406 . S
C282 C287 1.261 . S
C283 H250 0.937 . S
C283 N285 1.326 . S
C283 C286 1.350 1_556 S
C284 H252 0.928 . S
C284 C282 1.406 . S
C284 N285 1.261 1_554 S
N285 Co236 2.214 . S
N285 C283 1.326 . S
N285 C284 1.261 1_556 S
C286 H256 0.931 . S
C286 C283 1.350 1_554 S
C286 C287 1.312 . S
C287 H258 0.930 . S
C287 C282 1.261 . S
C287 C286 1.312 . S
C288 O260 1.214 . S
C288 O268 1.234 . S
C289 H261 0.929 . S
C289 C292 1.391 . S
C289 C294 1.391 . S
C290 H262 0.929 . S
C290 C291 1.390 . S
C290 N293 1.391 . S
C291 H263 0.930 . S
C291 C290 1.390 . S
C291 C292 1.392 . S
C292 H264 0.929 . S
C292 C289 1.391 . S
C292 C291 1.392 . S
N293 Co237 2.257 . S
N293 C290 1.391 . S
N293 C294 1.388 . S
C294 H265 0.930 . S
C294 C289 1.391 . S
C294 N293 1.388 . S
Co295 O297 2.143 . S
Co295 O303 2.074 . S
Co295 O306 2.093 . S
Co295 O319 2.097 . S
Co295 N336 2.151 . S
Co295 N344 2.214 . S
Co296 O297 2.160 . S
Co296 O302 2.058 . S
Co296 O312 2.057 1_554 S
Co296 O327 2.037 . S
Co296 N331 2.145 1_554 S
Co296 N352 2.257 . S
O297 Co295 2.143 . S
O297 Co296 2.160 . S
C298 O299 1.278 . S
C298 O306 1.224 . S
O299 C298 1.278 . S
C300 O301 1.245 1_556 S
C300 O312 1.232 . S
O301 C300 1.245 1_554 S
O302 Co296 2.058 . S
O302 C328 1.269 . S
O303 Co295 2.074 . S
O303 C328 1.257 . S
H304 C329 0.930 . S
H305 C335 0.930 . S
O306 Co295 2.093 . S
O306 C298 1.224 . S
H307 C339 0.929 . S
H308 C341 0.930 . S
H309 C342 0.930 . S
H310 C340 0.929 . S
H311 C343 0.928 . S
O312 Co296 2.057 1_556 S
O312 C300 1.232 . S
H313 C332 0.929 1_554 S
H314 C333 0.929 . S
H315 C345 0.931 . S
H316 C337 0.929 . S
H317 C346 0.930 . S
H318 C338 0.931 . S
O319 Co295 2.097 . S
O319 C347 1.214 . S
H320 C348 0.929 . S
H321 C349 0.929 . S
H322 C350 0.930 . S
H323 C351 0.929 . S
H324 C353 0.930 . S
H325 C330 0.930 . S
H326 C334 0.930 . S
O327 Co296 2.037 . S
O327 C347 1.234 . S
C328 O302 1.269 . S
C328 O303 1.257 . S
C329 H304 0.930 . S
C329 C332 1.388 . S
C329 C334 1.418 . S
C330 H325 0.930 . S
C330 C333 1.404 . S
C330 C334 1.353 . S
N331 Co296 2.145 1_556 S
N331 C332 1.397 . S
N331 C333 1.334 . S
C332 H313 0.929 1_556 S
C332 C329 1.388 . S
C332 N331 1.397 . S
C333 H314 0.929 . S
C333 C330 1.404 . S
C333 N331 1.334 . S
C334 H326 0.930 . S
C334 C329 1.418 . S
C334 C330 1.353 . S
C335 H305 0.930 . S
C335 N336 1.330 . S
C335 C337 1.446 . S
N336 Co295 2.151 . S
N336 C335 1.330 . S
N336 C340 1.418 . S
C337 H316 0.929 . S
C337 C335 1.446 . S
C337 C338 1.332 . S
C338 H318 0.931 . S
C338 C337 1.332 . S
C338 C339 1.267 . S
C339 H307 0.929 . S
C339 C338 1.267 . S
C339 C340 1.251 . S
C340 H310 0.929 . S
C340 N336 1.418 . S
C340 C339 1.251 . S
C341 H308 0.930 . S
C341 C343 1.406 . S
C341 C346 1.261 . S
C342 H309 0.930 . S
C342 N344 1.325 . S
C342 C345 1.357 . S
C343 H311 0.928 . S
C343 C341 1.406 . S
C343 N344 1.261 . S
N344 Co295 2.214 . S
N344 C342 1.325 . S
N344 C343 1.261 . S
C345 H315 0.931 . S
C345 C342 1.357 . S
C345 C346 1.312 . S
C346 H317 0.930 . S
C346 C341 1.261 . S
C346 C345 1.312 . S
C347 O319 1.214 . S
C347 O327 1.234 . S
C348 H320 0.929 . S
C348 C351 1.391 . S
C348 C353 1.391 . S
C349 H321 0.929 . S
C349 C350 1.390 . S
C349 N352 1.391 . S
C350 H322 0.930 . S
C350 C349 1.390 . S
C350 C351 1.392 . S
C351 H323 0.929 . S
C351 C348 1.391 . S
C351 C350 1.392 . S
N352 Co296 2.257 . S
N352 C349 1.391 . S
N352 C353 1.388 . S
C353 H324 0.930 . S
C353 C348 1.391 . S
C353 N352 1.388 . S
Co354 O356 2.143 . S
Co354 O362 2.074 . S
Co354 O365 2.093 . S
Co354 O378 2.097 . S
Co354 N395 2.151 . S
Co354 N403 2.214 . S
Co355 O356 2.160 . S
Co355 O361 2.058 . S
Co355 O371 2.057 . S
Co355 O386 2.037 . S
Co355 N390 2.145 . S
Co355 N411 2.257 . S
O356 Co354 2.143 . S
O356 Co355 2.160 . S
C357 O358 1.278 . S
C357 O365 1.224 . S
O358 C357 1.278 . S
C359 O360 1.245 . S
C359 O371 1.232 . S
O360 C359 1.245 . S
O361 Co355 2.058 . S
O361 C387 1.269 . S
O362 Co354 2.074 . S
O362 C387 1.257 . S
H363 C388 0.930 . S
H364 C394 0.930 . S
O365 Co354 2.093 . S
O365 C357 1.224 . S
H366 C398 0.929 . S
H367 C400 0.930 . S
H368 C401 0.930 . S
H369 C399 0.929 . S
H370 C402 0.928 . S
O371 Co355 2.057 . S
O371 C359 1.232 . S
H372 C391 0.929 . S
H373 C392 0.929 . S
H374 C404 0.931 . S
H375 C396 0.929 . S
H376 C405 0.930 . S
H377 C397 0.931 . S
O378 Co354 2.097 . S
O378 C406 1.214 . S
H379 C407 0.929 . S
H380 C408 0.929 . S
H381 C409 0.930 . S
H382 C410 0.929 . S
H383 C412 0.930 . S
H384 C389 0.930 . S
H385 C393 0.930 . S
O386 Co355 2.037 . S
O386 C406 1.234 . S
C387 O361 1.269 . S
C387 O362 1.257 . S
C388 H363 0.930 . S
C388 C391 1.388 . S
C388 C393 1.418 . S
C389 H384 0.930 . S
C389 C392 1.404 . S
C389 C393 1.353 . S
N390 Co355 2.145 . S
N390 C391 1.397 . S
N390 C392 1.334 . S
C391 H372 0.929 . S
C391 C388 1.388 . S
C391 N390 1.397 . S
C392 H373 0.929 . S
C392 C389 1.404 . S
C392 N390 1.334 . S
C393 H385 0.930 . S
C393 C388 1.418 . S
C393 C389 1.353 . S
C394 H364 0.930 . S
C394 N395 1.330 . S
C394 C396 1.446 . S
N395 Co354 2.151 . S
N395 C394 1.330 . S
N395 C399 1.418 . S
C396 H375 0.929 . S
C396 C394 1.446 . S
C396 C397 1.332 . S
C397 H377 0.931 . S
C397 C396 1.332 . S
C397 C398 1.267 . S
C398 H366 0.929 . S
C398 C397 1.267 . S
C398 C399 1.251 . S
C399 H369 0.929 . S
C399 N395 1.418 . S
C399 C398 1.251 . S
C400 H367 0.930 . S
C400 C402 1.406 . S
C400 C405 1.261 . S
C401 H368 0.930 . S
C401 N403 1.325 . S
C401 C404 1.357 . S
C402 H370 0.928 . S
C402 C400 1.406 . S
C402 N403 1.261 . S
N403 Co354 2.214 . S
N403 C401 1.325 . S
N403 C402 1.261 . S
C404 H374 0.931 . S
C404 C401 1.357 . S
C404 C405 1.312 . S
C405 H376 0.930 . S
C405 C400 1.261 . S
C405 C404 1.312 . S
C406 O378 1.214 . S
C406 O386 1.234 . S
C407 H379 0.929 . S
C407 C410 1.391 . S
C407 C412 1.391 . S
C408 H380 0.929 . S
C408 C409 1.390 . S
C408 N411 1.391 . S
C409 H381 0.930 . S
C409 C408 1.390 . S
C409 C410 1.392 . S
C410 H382 0.929 . S
C410 C407 1.391 . S
C410 C409 1.392 . S
N411 Co355 2.257 . S
N411 C408 1.391 . S
N411 C412 1.388 . S
C412 H383 0.930 . S
C412 C407 1.391 . S
C412 N411 1.388 . S
Co413 O415 2.143 . S
Co413 O421 2.074 . S
Co413 O424 2.093 . S
Co413 O437 2.097 . S
Co413 N454 2.151 . S
Co413 N462 2.214 . S
Co414 O415 2.160 . S
Co414 O420 2.058 . S
Co414 O430 2.057 . S
Co414 O445 2.037 . S
Co414 N449 2.145 . S
Co414 N470 2.257 . S
O415 Co413 2.143 . S
O415 Co414 2.160 . S
C416 O417 1.278 . S
C416 O424 1.224 . S
O417 C416 1.278 . S
C418 O419 1.245 . S
C418 O430 1.232 . S
O419 C418 1.245 . S
O420 Co414 2.058 . S
O420 C446 1.269 . S
O421 Co413 2.074 . S
O421 C446 1.257 . S
H422 C447 0.930 . S
H423 C453 0.930 . S
O424 Co413 2.093 . S
O424 C416 1.224 . S
H425 C457 0.929 . S
H426 C459 0.930 . S
H427 C460 0.930 . S
H428 C458 0.929 . S
H429 C461 0.928 . S
O430 Co414 2.057 . S
O430 C418 1.232 . S
H431 C450 0.929 . S
H432 C451 0.929 . S
H433 C463 0.931 . S
H434 C455 0.929 . S
H435 C464 0.930 . S
H436 C456 0.931 . S
O437 Co413 2.097 . S
O437 C465 1.214 . S
H438 C466 0.929 . S
H439 C467 0.929 . S
H440 C468 0.930 . S
H441 C469 0.929 . S
H442 C471 0.930 . S
H443 C448 0.930 . S
H444 C452 0.930 . S
O445 Co414 2.037 . S
O445 C465 1.234 . S
C446 O420 1.269 . S
C446 O421 1.257 . S
C447 H422 0.930 . S
C447 C450 1.388 . S
C447 C452 1.418 . S
C448 H443 0.930 . S
C448 C451 1.404 . S
C448 C452 1.353 . S
N449 Co414 2.145 . S
N449 C450 1.397 . S
N449 C451 1.334 . S
C450 H431 0.929 . S
C450 C447 1.388 . S
C450 N449 1.397 . S
C451 H432 0.929 . S
C451 C448 1.404 . S
C451 N449 1.334 . S
C452 H444 0.930 . S
C452 C447 1.418 . S
C452 C448 1.353 . S
C453 H423 0.930 . S
C453 N454 1.330 . S
C453 C455 1.446 . S
N454 Co413 2.151 . S
N454 C453 1.330 . S
N454 C458 1.418 . S
C455 H434 0.929 . S
C455 C453 1.446 . S
C455 C456 1.332 . S
C456 H436 0.931 . S
C456 C455 1.332 . S
C456 C457 1.267 . S
C457 H425 0.929 . S
C457 C456 1.267 . S
C457 C458 1.251 . S
C458 H428 0.929 . S
C458 N454 1.418 . S
C458 C457 1.251 . S
C459 H426 0.930 . S
C459 C461 1.406 . S
C459 C464 1.261 . S
C460 H427 0.930 . S
C460 N462 1.325 . S
C460 C463 1.357 . S
C461 H429 0.928 . S
C461 C459 1.406 . S
C461 N462 1.261 . S
N462 Co413 2.214 . S
N462 C460 1.325 . S
N462 C461 1.261 . S
C463 H433 0.931 . S
C463 C460 1.357 . S
C463 C464 1.312 . S
C464 H435 0.930 . S
C464 C459 1.261 . S
C464 C463 1.312 . S
C465 O437 1.214 . S
C465 O445 1.234 . S
C466 H438 0.929 . S
C466 C469 1.391 . S
C466 C471 1.391 . S
C467 H439 0.929 . S
C467 C468 1.390 . S
C467 N470 1.391 . S
C468 H440 0.930 . S
C468 C467 1.390 . S
C468 C469 1.392 . S
C469 H441 0.929 . S
C469 C466 1.391 . S
C469 C468 1.392 . S
N470 Co414 2.257 . S
N470 C467 1.391 . S
N470 C471 1.388 . S
C471 H442 0.930 . S
C471 C466 1.391 . S
C471 N470 1.388 . S
Co472 O474 2.143 . S
Co472 O480 2.074 . S
Co472 O483 2.093 . S
Co472 O496 2.097 . S
Co472 N513 2.151 . S
Co472 N521 2.214 . S
Co473 O474 2.160 . S
Co473 O479 2.058 . S
Co473 O489 2.057 . S
Co473 O504 2.037 . S
Co473 N508 2.145 . S
Co473 N529 2.257 . S
O474 Co472 2.143 . S
O474 Co473 2.160 . S
C475 O476 1.278 . S
C475 O483 1.224 . S
O476 C475 1.278 . S
C477 O478 1.245 . S
C477 O489 1.232 . S
O478 C477 1.245 . S
O479 Co473 2.058 . S
O479 C505 1.269 . S
O480 Co472 2.074 . S
O480 C505 1.257 . S
H481 C506 0.930 . S
H482 C512 0.930 . S
O483 Co472 2.093 . S
O483 C475 1.224 . S
H484 C516 0.929 . S
H485 C518 0.930 . S
H486 C519 0.930 . S
H487 C517 0.929 . S
H488 C520 0.928 . S
O489 Co473 2.057 . S
O489 C477 1.232 . S
H490 C509 0.929 . S
H491 C510 0.929 . S
H492 C522 0.931 . S
H493 C514 0.929 . S
H494 C523 0.930 . S
H495 C515 0.931 . S
O496 Co472 2.097 . S
O496 C524 1.214 . S
H497 C525 0.929 . S
H498 C526 0.929 . S
H499 C527 0.930 . S
H500 C528 0.929 . S
H501 C530 0.930 . S
H502 C507 0.930 . S
H503 C511 0.930 . S
O504 Co473 2.037 . S
O504 C524 1.234 . S
C505 O479 1.269 . S
C505 O480 1.257 . S
C506 H481 0.930 . S
C506 C509 1.388 . S
C506 C511 1.418 . S
C507 H502 0.930 . S
C507 C510 1.404 . S
C507 C511 1.353 . S
N508 Co473 2.145 . S
N508 C509 1.397 . S
N508 C510 1.334 . S
C509 H490 0.929 . S
C509 C506 1.388 . S
C509 N508 1.397 . S
C510 H491 0.929 . S
C510 C507 1.404 . S
C510 N508 1.334 . S
C511 H503 0.930 . S
C511 C506 1.418 . S
C511 C507 1.353 . S
C512 H482 0.930 . S
C512 N513 1.330 . S
C512 C514 1.446 . S
N513 Co472 2.151 . S
N513 C512 1.330 . S
N513 C517 1.418 . S
C514 H493 0.929 . S
C514 C512 1.446 . S
C514 C515 1.332 . S
C515 H495 0.931 . S
C515 C514 1.332 . S
C515 C516 1.267 . S
C516 H484 0.929 . S
C516 C515 1.267 . S
C516 C517 1.251 . S
C517 H487 0.929 . S
C517 N513 1.418 . S
C517 C516 1.251 . S
C518 H485 0.930 . S
C518 C520 1.406 . S
C518 C523 1.261 . S
C519 H486 0.930 . S
C519 N521 1.325 . S
C519 C522 1.357 . S
C520 H488 0.928 . S
C520 C518 1.406 . S
C520 N521 1.261 . S
N521 Co472 2.214 . S
N521 C519 1.325 . S
N521 C520 1.261 . S
C522 H492 0.931 . S
C522 C519 1.357 . S
C522 C523 1.312 . S
C523 H494 0.930 . S
C523 C518 1.261 . S
C523 C522 1.312 . S
C524 O496 1.214 . S
C524 O504 1.234 . S
C525 H497 0.929 . S
C525 C528 1.391 . S
C525 C530 1.391 . S
C526 H498 0.929 . S
C526 C527 1.390 . S
C526 N529 1.391 . S
C527 H499 0.930 . S
C527 C526 1.390 . S
C527 C528 1.392 . S
C528 H500 0.929 . S
C528 C525 1.391 . S
C528 C527 1.392 . S
N529 Co473 2.257 . S
N529 C526 1.391 . S
N529 C530 1.388 . S
C530 H501 0.930 . S
C530 C525 1.391 . S
C530 N529 1.388 . S
Co531 O533 2.143 . S
Co531 O539 2.074 . S
Co531 O542 2.093 . S
Co531 O555 2.097 . S
Co531 N572 2.151 . S
Co531 N580 2.214 . S
Co532 O533 2.160 . S
Co532 O538 2.058 . S
Co532 O548 2.057 1_554 S
Co532 O563 2.037 . S
Co532 N567 2.145 1_554 S
Co532 N588 2.257 . S
O533 Co531 2.143 . S
O533 Co532 2.160 . S
C534 O535 1.278 . S
C534 O542 1.224 . S
O535 C534 1.278 . S
C536 O537 1.245 1_556 S
C536 O548 1.232 . S
O537 C536 1.245 1_554 S
O538 Co532 2.058 . S
O538 C564 1.269 . S
O539 Co531 2.074 . S
O539 C564 1.257 . S
H540 C565 0.930 . S
H541 C571 0.930 . S
O542 Co531 2.093 . S
O542 C534 1.224 . S
H543 C575 0.929 . S
H544 C577 0.930 . S
H545 C578 0.930 . S
H546 C576 0.929 . S
H547 C579 0.928 . S
O548 Co532 2.057 1_556 S
O548 C536 1.232 . S
H549 C568 0.929 1_554 S
H550 C569 0.929 . S
H551 C581 0.931 . S
H552 C573 0.929 . S
H553 C582 0.930 . S
H554 C574 0.931 . S
O555 Co531 2.097 . S
O555 C583 1.214 . S
H556 C584 0.929 . S
H557 C585 0.929 . S
H558 C586 0.930 . S
H559 C587 0.929 . S
H560 C589 0.930 . S
H561 C566 0.930 . S
H562 C570 0.930 . S
O563 Co532 2.037 . S
O563 C583 1.234 . S
C564 O538 1.269 . S
C564 O539 1.257 . S
C565 H540 0.930 . S
C565 C568 1.388 . S
C565 C570 1.418 . S
C566 H561 0.930 . S
C566 C569 1.404 . S
C566 C570 1.353 . S
N567 Co532 2.145 1_556 S
N567 C568 1.397 . S
N567 C569 1.334 . S
C568 H549 0.929 1_556 S
C568 C565 1.388 . S
C568 N567 1.397 . S
C569 H550 0.929 . S
C569 C566 1.404 . S
C569 N567 1.334 . S
C570 H562 0.930 . S
C570 C565 1.418 . S
C570 C566 1.353 . S
C571 H541 0.930 . S
C571 N572 1.330 . S
C571 C573 1.446 . S
N572 Co531 2.151 . S
N572 C571 1.330 . S
N572 C576 1.418 . S
C573 H552 0.929 . S
C573 C571 1.446 . S
C573 C574 1.332 . S
C574 H554 0.931 . S
C574 C573 1.332 . S
C574 C575 1.267 . S
C575 H543 0.929 . S
C575 C574 1.267 . S
C575 C576 1.251 . S
C576 H546 0.929 . S
C576 N572 1.418 . S
C576 C575 1.251 . S
C577 H544 0.930 . S
C577 C579 1.406 . S
C577 C582 1.261 . S
C578 H545 0.930 . S
C578 N580 1.325 . S
C578 C581 1.357 . S
C579 H547 0.928 . S
C579 C577 1.406 . S
C579 N580 1.261 . S
N580 Co531 2.214 . S
N580 C578 1.325 . S
N580 C579 1.261 . S
C581 H551 0.931 . S
C581 C578 1.357 . S
C581 C582 1.312 . S
C582 H553 0.930 . S
C582 C577 1.261 . S
C582 C581 1.312 . S
C583 O555 1.214 . S
C583 O563 1.234 . S
C584 H556 0.929 . S
C584 C587 1.391 . S
C584 C589 1.391 . S
C585 H557 0.929 . S
C585 C586 1.390 . S
C585 N588 1.391 . S
C586 H558 0.930 . S
C586 C585 1.390 . S
C586 C587 1.392 . S
C587 H559 0.929 . S
C587 C584 1.391 . S
C587 C586 1.392 . S
N588 Co532 2.257 . S
N588 C585 1.391 . S
N588 C589 1.388 . S
C589 H560 0.930 . S
C589 C584 1.391 . S
C589 N588 1.388 . S
Co590 O592 2.143 1_556 S
Co590 O598 2.074 . S
Co590 O601 2.093 . S
Co590 O614 2.097 . S
Co590 N631 2.151 . S
Co590 N639 2.214 . S
Co591 O592 2.160 . S
Co591 O597 2.058 . S
Co591 O607 2.057 . S
Co591 O622 2.037 . S
Co591 N626 2.145 . S
Co591 N647 2.257 . S
O592 Co590 2.143 1_554 S
O592 Co591 2.160 . S
C593 O594 1.278 . S
C593 O601 1.224 . S
O594 C593 1.278 . S
C595 O596 1.245 . S
C595 O607 1.232 . S
O596 C595 1.245 . S
O597 Co591 2.058 . S
O597 C623 1.269 . S
O598 Co590 2.074 . S
O598 C623 1.257 1_556 S
H599 C624 0.930 . S
H600 C630 0.930 . S
O601 Co590 2.093 . S
O601 C593 1.224 . S
H602 C634 0.929 . S
H603 C636 0.930 . S
H604 C637 0.930 . S
H605 C635 0.929 . S
H606 C638 0.928 . S
O607 Co591 2.057 . S
O607 C595 1.232 . S
H608 C627 0.929 . S
H609 C628 0.929 . S
H610 C640 0.931 . S
H611 C632 0.929 . S
H612 C641 0.930 . S
H613 C633 0.931 . S
O614 Co590 2.097 . S
O614 C642 1.214 . S
H615 C643 0.929 . S
H616 C644 0.929 . S
H617 C645 0.930 . S
H618 C646 0.929 . S
H619 C648 0.930 . S
H620 C625 0.930 . S
H621 C629 0.930 . S
O622 Co591 2.037 . S
O622 C642 1.234 1_554 S
C623 O597 1.269 . S
C623 O598 1.257 1_554 S
C624 H599 0.930 . S
C624 C627 1.388 . S
C624 C629 1.418 . S
C625 H620 0.930 . S
C625 C628 1.404 . S
C625 C629 1.353 . S
N626 Co591 2.145 . S
N626 C627 1.397 . S
N626 C628 1.334 . S
C627 H608 0.929 . S
C627 C624 1.388 . S
C627 N626 1.397 . S
C628 H609 0.929 . S
C628 C625 1.404 . S
C628 N626 1.334 . S
C629 H621 0.930 . S
C629 C624 1.418 . S
C629 C625 1.353 . S
C630 H600 0.930 . S
C630 N631 1.330 . S
C630 C632 1.446 . S
N631 Co590 2.151 . S
N631 C630 1.330 . S
N631 C635 1.418 . S
C632 H611 0.929 . S
C632 C630 1.446 . S
C632 C633 1.332 . S
C633 H613 0.931 . S
C633 C632 1.332 . S
C633 C634 1.267 . S
C634 H602 0.929 . S
C634 C633 1.267 . S
C634 C635 1.251 . S
C635 H605 0.929 . S
C635 N631 1.418 . S
C635 C634 1.251 . S
C636 H603 0.930 . S
C636 C638 1.406 . S
C636 C641 1.261 . S
C637 H604 0.930 . S
C637 N639 1.325 . S
C637 C640 1.357 . S
C638 H606 0.928 . S
C638 C636 1.406 . S
C638 N639 1.261 . S
N639 Co590 2.214 . S
N639 C637 1.325 . S
N639 C638 1.261 . S
C640 H610 0.931 . S
C640 C637 1.357 . S
C640 C641 1.312 . S
C641 H612 0.930 . S
C641 C636 1.261 . S
C641 C640 1.312 . S
C642 O614 1.214 . S
C642 O622 1.234 1_556 S
C643 H615 0.929 . S
C643 C646 1.391 . S
C643 C648 1.391 . S
C644 H616 0.929 . S
C644 C645 1.390 . S
C644 N647 1.391 . S
C645 H617 0.930 . S
C645 C644 1.390 . S
C645 C646 1.392 . S
C646 H618 0.929 . S
C646 C643 1.391 . S
C646 C645 1.392 . S
N647 Co591 2.257 . S
N647 C644 1.391 . S
N647 C648 1.388 . S
C648 H619 0.930 . S
C648 C643 1.391 . S
C648 N647 1.388 . S
Co649 O651 2.143 . S
Co649 O657 2.074 . S
Co649 O660 2.093 . S
Co649 O673 2.097 . S
Co649 N690 2.151 . S
Co649 N698 2.214 . S
Co650 O651 2.160 . S
Co650 O656 2.058 . S
Co650 O666 2.057 . S
Co650 O681 2.037 . S
Co650 N685 2.145 . S
Co650 N706 2.257 . S
O651 Co649 2.143 . S
O651 Co650 2.160 . S
C652 O653 1.278 . S
C652 O660 1.224 . S
O653 C652 1.278 . S
C654 O655 1.245 . S
C654 O666 1.232 . S
O655 C654 1.245 . S
O656 Co650 2.058 . S
O656 C682 1.269 . S
O657 Co649 2.074 . S
O657 C682 1.257 . S
H658 C683 0.930 . S
H659 C689 0.930 . S
O660 Co649 2.093 . S
O660 C652 1.224 . S
H661 C693 0.929 . S
H662 C695 0.930 . S
H663 C696 0.930 . S
H664 C694 0.929 . S
H665 C697 0.928 . S
O666 Co650 2.057 . S
O666 C654 1.232 . S
H667 C686 0.929 . S
H668 C687 0.929 . S
H669 C699 0.931 . S
H670 C691 0.929 . S
H671 C700 0.930 . S
H672 C692 0.931 . S
O673 Co649 2.097 . S
O673 C701 1.214 . S
H674 C702 0.929 . S
H675 C703 0.929 . S
H676 C704 0.930 . S
H677 C705 0.929 . S
H678 C707 0.930 . S
H679 C684 0.930 . S
H680 C688 0.930 . S
O681 Co650 2.037 . S
O681 C701 1.234 . S
C682 O656 1.269 . S
C682 O657 1.257 . S
C683 H658 0.930 . S
C683 C686 1.388 . S
C683 C688 1.418 . S
C684 H679 0.930 . S
C684 C687 1.404 . S
C684 C688 1.353 . S
N685 Co650 2.145 . S
N685 C686 1.397 . S
N685 C687 1.334 . S
C686 H667 0.929 . S
C686 C683 1.388 . S
C686 N685 1.397 . S
C687 H668 0.929 . S
C687 C684 1.404 . S
C687 N685 1.334 . S
C688 H680 0.930 . S
C688 C683 1.418 . S
C688 C684 1.353 . S
C689 H659 0.930 . S
C689 N690 1.330 . S
C689 C691 1.446 . S
N690 Co649 2.151 . S
N690 C689 1.330 . S
N690 C694 1.418 . S
C691 H670 0.929 . S
C691 C689 1.446 . S
C691 C692 1.332 . S
C692 H672 0.931 . S
C692 C691 1.332 . S
C692 C693 1.267 . S
C693 H661 0.929 . S
C693 C692 1.267 . S
C693 C694 1.251 . S
C694 H664 0.929 . S
C694 N690 1.418 . S
C694 C693 1.251 . S
C695 H662 0.930 . S
C695 C697 1.406 . S
C695 C700 1.261 . S
C696 H663 0.930 . S
C696 N698 1.325 . S
C696 C699 1.357 . S
C697 H665 0.928 . S
C697 C695 1.406 . S
C697 N698 1.261 . S
N698 Co649 2.214 . S
N698 C696 1.325 . S
N698 C697 1.261 . S
C699 H669 0.931 . S
C699 C696 1.357 . S
C699 C700 1.312 . S
C700 H671 0.930 . S
C700 C695 1.261 . S
C700 C699 1.312 . S
C701 O673 1.214 . S
C701 O681 1.234 . S
C702 H674 0.929 . S
C702 C705 1.391 . S
C702 C707 1.391 . S
C703 H675 0.929 . S
C703 C704 1.390 . S
C703 N706 1.391 . S
C704 H676 0.930 . S
C704 C703 1.390 . S
C704 C705 1.392 . S
C705 H677 0.929 . S
C705 C702 1.391 . S
C705 C704 1.392 . S
N706 Co650 2.257 . S
N706 C703 1.391 . S
N706 C707 1.388 . S
C707 H678 0.930 . S
C707 C702 1.391 . S
C707 N706 1.388 . S
Co708 O710 2.143 . S
Co708 O716 2.074 . S
Co708 O719 2.093 . S
Co708 O732 2.097 . S
Co708 N749 2.151 . S
Co708 N757 2.214 . S
Co709 O710 2.160 . S
Co709 O715 2.058 . S
Co709 O725 2.057 . S
Co709 O740 2.037 . S
Co709 N744 2.145 . S
Co709 N765 2.257 . S
O710 Co708 2.143 . S
O710 Co709 2.160 . S
C711 O712 1.278 . S
C711 O719 1.224 . S
O712 C711 1.278 . S
C713 O714 1.245 . S
C713 O725 1.232 . S
O714 C713 1.245 . S
O715 Co709 2.058 . S
O715 C741 1.269 . S
O716 Co708 2.074 . S
O716 C741 1.257 . S
H717 C742 0.930 . S
H718 C748 0.930 . S
O719 Co708 2.093 . S
O719 C711 1.224 . S
H720 C752 0.929 . S
H721 C754 0.930 . S
H722 C755 0.930 . S
H723 C753 0.929 . S
H724 C756 0.928 . S
O725 Co709 2.057 . S
O725 C713 1.232 . S
H726 C745 0.929 . S
H727 C746 0.929 . S
H728 C758 0.931 . S
H729 C750 0.929 . S
H730 C759 0.930 . S
H731 C751 0.931 . S
O732 Co708 2.097 . S
O732 C760 1.214 . S
H733 C761 0.929 . S
H734 C762 0.929 . S
H735 C763 0.930 . S
H736 C764 0.929 . S
H737 C766 0.930 . S
H738 C743 0.930 1_554 S
H739 C747 0.930 . S
O740 Co709 2.037 . S
O740 C760 1.234 . S
C741 O715 1.269 . S
C741 O716 1.257 . S
C742 H717 0.930 . S
C742 C745 1.388 . S
C742 C747 1.418 . S
C743 H738 0.930 1_556 S
C743 C746 1.404 . S
C743 C747 1.353 . S
N744 Co709 2.145 . S
N744 C745 1.397 . S
N744 C746 1.334 . S
C745 H726 0.929 . S
C745 C742 1.388 . S
C745 N744 1.397 . S
C746 H727 0.929 . S
C746 C743 1.404 . S
C746 N744 1.334 . S
C747 H739 0.930 . S
C747 C742 1.418 . S
C747 C743 1.353 . S
C748 H718 0.930 . S
C748 N749 1.330 . S
C748 C750 1.446 . S
N749 Co708 2.151 . S
N749 C748 1.330 . S
N749 C753 1.418 . S
C750 H729 0.929 . S
C750 C748 1.446 . S
C750 C751 1.332 . S
C751 H731 0.931 . S
C751 C750 1.332 . S
C751 C752 1.267 . S
C752 H720 0.929 . S
C752 C751 1.267 . S
C752 C753 1.251 . S
C753 H723 0.929 . S
C753 N749 1.418 . S
C753 C752 1.251 . S
C754 H721 0.930 . S
C754 C756 1.406 . S
C754 C759 1.261 . S
C755 H722 0.930 . S
C755 N757 1.325 . S
C755 C758 1.357 . S
C756 H724 0.928 . S
C756 C754 1.406 . S
C756 N757 1.261 . S
N757 Co708 2.214 . S
N757 C755 1.325 . S
N757 C756 1.261 . S
C758 H728 0.931 . S
C758 C755 1.357 . S
C758 C759 1.312 . S
C759 H730 0.930 . S
C759 C754 1.261 . S
C759 C758 1.312 . S
C760 O732 1.214 . S
C760 O740 1.234 . S
C761 H733 0.929 . S
C761 C764 1.391 . S
C761 C766 1.391 . S
C762 H734 0.929 . S
C762 C763 1.390 . S
C762 N765 1.391 . S
C763 H735 0.930 . S
C763 C762 1.390 . S
C763 C764 1.392 . S
C764 H736 0.929 . S
C764 C761 1.391 . S
C764 C763 1.392 . S
N765 Co709 2.257 . S
N765 C762 1.391 . S
N765 C766 1.388 . S
C766 H737 0.930 . S
C766 C761 1.391 . S
C766 N765 1.388 . S
Co767 O769 2.155 . S
Co767 O775 2.074 . S
Co767 O778 2.093 1_655 S
Co767 O791 2.097 1_655 S
Co767 N808 2.151 . S
Co767 N816 2.214 . S
Co768 O769 2.145 1_455 S
Co768 O774 2.058 1_455 S
Co768 O784 2.052 1_455 S
Co768 O799 2.037 . S
Co768 N803 2.145 . S
Co768 N824 2.257 . S
O769 Co767 2.155 . S
O769 Co768 2.145 1_655 S
C770 O771 1.278 . S
C770 O778 1.224 . S
O771 C770 1.278 . S
C772 O773 1.245 . S
C772 O784 1.242 . S
O773 C772 1.245 . S
O774 Co768 2.058 1_655 S
O774 C800 1.269 . S
O775 Co767 2.074 . S
O775 C800 1.257 . S
H776 C801 0.930 . S
H777 C807 0.930 . S
O778 Co767 2.093 1_455 S
O778 C770 1.224 . S
H779 C811 0.929 . S
H780 C813 0.925 1_556 S
H781 C814 0.930 . S
H782 C812 0.929 . S
H783 C815 0.928 . S
O784 Co768 2.052 1_655 S
O784 C772 1.242 . S
H785 C804 0.929 . S
H786 C805 0.929 . S
H787 C817 0.931 . S
H788 C809 0.929 . S
H789 C818 0.933 . S
H790 C810 0.931 . S
O791 Co767 2.097 1_455 S
O791 C819 1.214 . S
H792 C820 0.929 . S
H793 C821 0.929 . S
H794 C822 0.930 . S
H795 C823 0.929 . S
H796 C825 0.930 . S
H797 C802 0.930 . S
H798 C806 0.930 . S
O799 Co768 2.037 . S
O799 C819 1.234 . S
C800 O774 1.269 . S
C800 O775 1.257 . S
C801 H776 0.930 . S
C801 C804 1.388 . S
C801 C806 1.418 . S
C802 H797 0.930 . S
C802 C805 1.404 . S
C802 C806 1.353 . S
N803 Co768 2.145 . S
N803 C804 1.397 . S
N803 C805 1.334 . S
C804 H785 0.929 . S
C804 C801 1.388 . S
C804 N803 1.397 . S
C805 H786 0.929 . S
C805 C802 1.404 . S
C805 N803 1.334 . S
C806 H798 0.930 . S
C806 C801 1.418 . S
C806 C802 1.353 . S
C807 H777 0.930 . S
C807 N808 1.330 . S
C807 C809 1.446 . S
N808 Co767 2.151 . S
N808 C807 1.330 . S
N808 C812 1.418 . S
C809 H788 0.929 . S
C809 C807 1.446 . S
C809 C810 1.332 . S
C810 H790 0.931 . S
C810 C809 1.332 . S
C810 C811 1.267 . S
C811 H779 0.929 . S
C811 C810 1.267 . S
C811 C812 1.251 . S
C812 H782 0.929 . S
C812 N808 1.418 . S
C812 C811 1.251 . S
C813 H780 0.925 1_554 S
C813 C815 1.410 . S
C813 C818 1.260 1_554 S
C814 H781 0.930 . S
C814 N816 1.325 . S
C814 C817 1.357 . S
C815 H783 0.928 . S
C815 C813 1.410 . S
C815 N816 1.261 . S
N816 Co767 2.214 . S
N816 C814 1.325 . S
N816 C815 1.261 . S
C817 H787 0.931 . S
C817 C814 1.357 . S
C817 C818 1.310 1_554 S
C818 H789 0.933 . S
C818 C813 1.260 1_556 S
C818 C817 1.310 1_556 S
C819 O791 1.214 . S
C819 O799 1.234 . S
C820 H792 0.929 . S
C820 C823 1.391 . S
C820 C825 1.391 . S
C821 H793 0.929 . S
C821 C822 1.390 . S
C821 N824 1.391 . S
C822 H794 0.930 . S
C822 C821 1.390 . S
C822 C823 1.392 . S
C823 H795 0.929 . S
C823 C820 1.391 . S
C823 C822 1.392 . S
N824 Co768 2.257 . S
N824 C821 1.391 . S
N824 C825 1.388 . S
C825 H796 0.930 . S
C825 C820 1.391 . S
C825 N824 1.388 . S
Co826 O828 2.143 . S
Co826 O834 2.074 . S
Co826 O837 2.093 . S
Co826 O850 2.097 . S
Co826 N867 2.151 . S
Co826 N875 2.214 . S
Co827 O828 2.160 . S
Co827 O833 2.058 . S
Co827 O843 2.057 . S
Co827 O858 2.037 . S
Co827 N862 2.145 . S
Co827 N883 2.257 . S
O828 Co826 2.143 . S
O828 Co827 2.160 . S
C829 O830 1.278 . S
C829 O837 1.224 . S
O830 C829 1.278 . S
C831 O832 1.245 . S
C831 O843 1.232 . S
O832 C831 1.245 . S
O833 Co827 2.058 . S
O833 C859 1.269 . S
O834 Co826 2.074 . S
O834 C859 1.257 . S
H835 C860 0.930 . S
H836 C866 0.930 . S
O837 Co826 2.093 . S
O837 C829 1.224 . S
H838 C870 0.929 . S
H839 C872 0.930 . S
H840 C873 0.930 . S
H841 C871 0.929 . S
H842 C874 0.928 . S
O843 Co827 2.057 . S
O843 C831 1.232 . S
H844 C863 0.929 . S
H845 C864 0.929 . S
H846 C876 0.931 . S
H847 C868 0.929 . S
H848 C877 0.930 . S
H849 C869 0.931 . S
O850 Co826 2.097 . S
O850 C878 1.214 . S
H851 C879 0.929 . S
H852 C880 0.929 . S
H853 C881 0.930 . S
H854 C882 0.929 . S
H855 C884 0.930 . S
H856 C861 0.930 . S
H857 C865 0.930 . S
O858 Co827 2.037 . S
O858 C878 1.234 . S
C859 O833 1.269 . S
C859 O834 1.257 . S
C860 H835 0.930 . S
C860 C863 1.388 . S
C860 C865 1.418 . S
C861 H856 0.930 . S
C861 C864 1.404 . S
C861 C865 1.353 . S
N862 Co827 2.145 . S
N862 C863 1.397 . S
N862 C864 1.334 . S
C863 H844 0.929 . S
C863 C860 1.388 . S
C863 N862 1.397 . S
C864 H845 0.929 . S
C864 C861 1.404 . S
C864 N862 1.334 . S
C865 H857 0.930 . S
C865 C860 1.418 . S
C865 C861 1.353 . S
C866 H836 0.930 . S
C866 N867 1.330 . S
C866 C868 1.446 . S
N867 Co826 2.151 . S
N867 C866 1.330 . S
N867 C871 1.418 . S
C868 H847 0.929 . S
C868 C866 1.446 . S
C868 C869 1.332 . S
C869 H849 0.931 . S
C869 C868 1.332 . S
C869 C870 1.267 . S
C870 H838 0.929 . S
C870 C869 1.267 . S
C870 C871 1.251 . S
C871 H841 0.929 . S
C871 N867 1.418 . S
C871 C870 1.251 . S
C872 H839 0.930 . S
C872 C874 1.406 . S
C872 C877 1.261 . S
C873 H840 0.930 . S
C873 N875 1.325 . S
C873 C876 1.357 . S
C874 H842 0.928 . S
C874 C872 1.406 . S
C874 N875 1.261 . S
N875 Co826 2.214 . S
N875 C873 1.325 . S
N875 C874 1.261 . S
C876 H846 0.931 . S
C876 C873 1.357 . S
C876 C877 1.312 . S
C877 H848 0.930 . S
C877 C872 1.261 . S
C877 C876 1.312 . S
C878 O850 1.214 . S
C878 O858 1.234 . S
C879 H851 0.929 . S
C879 C882 1.391 . S
C879 C884 1.391 . S
C880 H852 0.929 . S
C880 C881 1.390 . S
C880 N883 1.391 . S
C881 H853 0.930 . S
C881 C880 1.390 . S
C881 C882 1.392 . S
C882 H854 0.929 . S
C882 C879 1.391 . S
C882 C881 1.392 . S
N883 Co827 2.257 . S
N883 C880 1.391 . S
N883 C884 1.388 . S
C884 H855 0.930 . S
C884 C879 1.391 . S
C884 N883 1.388 . S
Co885 O887 2.155 . S
Co885 O893 2.074 . S
Co885 O896 2.093 1_655 S
Co885 O909 2.097 1_655 S
Co885 N926 2.151 . S
Co885 N934 2.214 . S
Co886 O887 2.145 1_455 S
Co886 O892 2.058 1_455 S
Co886 O902 2.052 1_455 S
Co886 O917 2.037 . S
Co886 N921 2.145 . S
Co886 N942 2.257 . S
O887 Co885 2.155 . S
O887 Co886 2.145 1_655 S
C888 O889 1.278 . S
C888 O896 1.224 . S
O889 C888 1.278 . S
C890 O891 1.245 . S
C890 O902 1.242 . S
O891 C890 1.245 . S
O892 Co886 2.058 1_655 S
O892 C918 1.269 . S
O893 Co885 2.074 . S
O893 C918 1.257 . S
H894 C919 0.930 . S
H895 C925 0.930 . S
O896 Co885 2.093 1_455 S
O896 C888 1.224 . S
H897 C929 0.929 . S
H898 C931 0.930 . S
H899 C932 0.937 . S
H900 C930 0.929 . S
H901 C933 0.928 . S
O902 Co886 2.052 1_655 S
O902 C890 1.242 . S
H903 C922 0.929 . S
H904 C923 0.929 . S
H905 C935 0.931 . S
H906 C927 0.929 . S
H907 C936 0.930 . S
H908 C928 0.931 . S
O909 Co885 2.097 1_455 S
O909 C937 1.214 . S
H910 C938 0.929 . S
H911 C939 0.929 . S
H912 C940 0.930 . S
H913 C941 0.929 . S
H914 C943 0.930 . S
H915 C920 0.930 . S
H916 C924 0.930 . S
O917 Co886 2.037 . S
O917 C937 1.234 . S
C918 O892 1.269 . S
C918 O893 1.257 . S
C919 H894 0.930 . S
C919 C922 1.388 . S
C919 C924 1.418 . S
C920 H915 0.930 . S
C920 C923 1.404 . S
C920 C924 1.353 . S
N921 Co886 2.145 . S
N921 C922 1.397 . S
N921 C923 1.334 . S
C922 H903 0.929 . S
C922 C919 1.388 . S
C922 N921 1.397 . S
C923 H904 0.929 . S
C923 C920 1.404 . S
C923 N921 1.334 . S
C924 H916 0.930 . S
C924 C919 1.418 . S
C924 C920 1.353 . S
C925 H895 0.930 . S
C925 N926 1.330 . S
C925 C927 1.446 . S
N926 Co885 2.151 . S
N926 C925 1.330 . S
N926 C930 1.418 . S
C927 H906 0.929 . S
C927 C925 1.446 . S
C927 C928 1.332 . S
C928 H908 0.931 . S
C928 C927 1.332 . S
C928 C929 1.267 . S
C929 H897 0.929 . S
C929 C928 1.267 . S
C929 C930 1.251 . S
C930 H900 0.929 . S
C930 N926 1.418 . S
C930 C929 1.251 . S
C931 H898 0.930 . S
C931 C933 1.406 . S
C931 C936 1.261 . S
C932 H899 0.937 . S
C932 N934 1.326 . S
C932 C935 1.350 1_556 S
C933 H901 0.928 . S
C933 C931 1.406 . S
C933 N934 1.261 1_554 S
N934 Co885 2.214 . S
N934 C932 1.326 . S
N934 C933 1.261 1_556 S
C935 H905 0.931 . S
C935 C932 1.350 1_554 S
C935 C936 1.312 . S
C936 H907 0.930 . S
C936 C931 1.261 . S
C936 C935 1.312 . S
C937 O909 1.214 . S
C937 O917 1.234 . S
C938 H910 0.929 . S
C938 C941 1.391 . S
C938 C943 1.391 . S
C939 H911 0.929 . S
C939 C940 1.390 . S
C939 N942 1.391 . S
C940 H912 0.930 . S
C940 C939 1.390 . S
C940 C941 1.392 . S
C941 H913 0.929 . S
C941 C938 1.391 . S
C941 C940 1.392 . S
N942 Co886 2.257 . S
N942 C939 1.391 . S
N942 C943 1.388 . S
C943 H914 0.930 . S
C943 C938 1.391 . S
C943 N942 1.388 . S
H944 C956 0.930 . S
H945 C958 0.930 . S
H946 C959 0.930 . S
H947 C963 0.959 . S
H948 C963 0.959 . S
H949 C963 0.961 . S
H950 C964 0.960 . S
H951 C964 0.961 . S
H952 C964 0.959 . S
H953 C967 0.929 . S
H954 C968 0.931 . S
H955 C970 0.930 . S
C956 H944 0.930 . S
C956 C957 1.399 . S
C956 C961 1.399 . S
C957 C956 1.399 . S
C957 C958 1.376 . S
C958 H945 0.930 . S
C958 C957 1.376 . S
C958 C959 1.388 . S
C959 H946 0.930 . S
C959 C958 1.388 . S
C959 C960 1.390 . S
C960 C959 1.390 . S
C960 C961 1.394 . S
C960 C966 1.465 . S
C961 C956 1.399 . S
C961 C960 1.394 . S
C961 C962 1.516 . S
C962 C961 1.516 . S
C962 C963 1.502 . S
C962 C964 1.561 . S
C962 C965 1.526 . S
C963 H947 0.959 . S
C963 H948 0.959 . S
C963 H949 0.961 . S
C963 C962 1.502 . S
C964 H950 0.960 . S
C964 H951 0.961 . S
C964 H952 0.959 . S
C964 C962 1.561 . S
C965 C962 1.526 . S
C965 C966 1.396 . S
C965 C970 1.390 . S
C966 C960 1.465 . S
C966 C965 1.396 . S
C966 C967 1.399 . S
C967 H953 0.929 . S
C967 C966 1.399 . S
C967 C968 1.385 . S
C968 H954 0.931 . S
C968 C967 1.385 . S
C968 C969 1.389 . S
C969 C968 1.389 . S
C969 C970 1.387 . S
C970 H955 0.930 . S
C970 C965 1.390 . S
C970 C969 1.387 . S
H971 C983 0.930 . S
H972 C985 0.930 . S
H973 C986 0.930 . S
H974 C990 0.959 . S
H975 C990 0.959 . S
H976 C990 0.961 . S
H977 C991 0.960 . S
H978 C991 0.961 . S
H979 C991 0.959 . S
H980 C994 0.929 . S
H981 C995 0.931 . S
H982 C997 0.930 . S
C983 H971 0.930 . S
C983 C984 1.399 . S
C983 C988 1.399 . S
C984 C983 1.399 . S
C984 C985 1.376 . S
C985 H972 0.930 . S
C985 C984 1.376 . S
C985 C986 1.388 . S
C986 H973 0.930 . S
C986 C985 1.388 . S
C986 C987 1.390 . S
C987 C986 1.390 . S
C987 C988 1.394 . S
C987 C993 1.465 . S
C988 C983 1.399 . S
C988 C987 1.394 . S
C988 C989 1.516 . S
C989 C988 1.516 . S
C989 C990 1.502 . S
C989 C991 1.561 . S
C989 C992 1.526 . S
C990 H974 0.959 . S
C990 H975 0.959 . S
C990 H976 0.961 . S
C990 C989 1.502 . S
C991 H977 0.960 . S
C991 H978 0.961 . S
C991 H979 0.959 . S
C991 C989 1.561 . S
C992 C989 1.526 . S
C992 C993 1.396 . S
C992 C997 1.390 . S
C993 C987 1.465 . S
C993 C992 1.396 . S
C993 C994 1.399 . S
C994 H980 0.929 . S
C994 C993 1.399 . S
C994 C995 1.385 . S
C995 H981 0.931 . S
C995 C994 1.385 . S
C995 C996 1.389 . S
C996 C995 1.389 . S
C996 C997 1.387 . S
C997 H982 0.930 . S
C997 C992 1.390 . S
C997 C996 1.387 . S
H998 C1010 0.930 . S
H999 C1012 0.930 . S
H1000 C1013 0.930 . S
H1001 C1017 0.959 . S
H1002 C1017 0.959 . S
H1003 C1017 0.961 . S
H1004 C1018 0.960 . S
H1005 C1018 0.961 . S
H1006 C1018 0.959 . S
H1007 C1021 0.929 . S
H1008 C1022 0.931 . S
H1009 C1024 0.930 . S
C1010 H998 0.930 . S
C1010 C1011 1.399 . S
C1010 C1015 1.399 . S
C1011 C1010 1.399 . S
C1011 C1012 1.376 . S
C1012 H999 0.930 . S
C1012 C1011 1.376 . S
C1012 C1013 1.388 . S
C1013 H1000 0.930 . S
C1013 C1012 1.388 . S
C1013 C1014 1.390 . S
C1014 C1013 1.390 . S
C1014 C1015 1.394 . S
C1014 C1020 1.465 . S
C1015 C1010 1.399 . S
C1015 C1014 1.394 . S
C1015 C1016 1.516 . S
C1016 C1015 1.516 . S
C1016 C1017 1.502 . S
C1016 C1018 1.561 . S
C1016 C1019 1.526 . S
C1017 H1001 0.959 . S
C1017 H1002 0.959 . S
C1017 H1003 0.961 . S
C1017 C1016 1.502 . S
C1018 H1004 0.960 . S
C1018 H1005 0.961 . S
C1018 H1006 0.959 . S
C1018 C1016 1.561 . S
C1019 C1016 1.526 . S
C1019 C1020 1.396 . S
C1019 C1024 1.390 . S
C1020 C1014 1.465 . S
C1020 C1019 1.396 . S
C1020 C1021 1.399 . S
C1021 H1007 0.929 . S
C1021 C1020 1.399 . S
C1021 C1022 1.385 . S
C1022 H1008 0.931 . S
C1022 C1021 1.385 . S
C1022 C1023 1.389 . S
C1023 C1022 1.389 . S
C1023 C1024 1.387 . S
C1024 H1009 0.930 . S
C1024 C1019 1.390 . S
C1024 C1023 1.387 . S
H1025 C1037 0.930 1_554 S
H1026 C1039 0.930 . S
H1027 C1040 0.930 . S
H1028 C1044 0.959 . S
H1029 C1044 0.959 . S
H1030 C1044 0.961 . S
H1031 C1045 0.960 . S
H1032 C1045 0.961 . S
H1033 C1045 0.959 . S
H1034 C1048 0.929 . S
H1035 C1049 0.931 . S
H1036 C1051 0.930 . S
C1037 H1025 0.930 1_556 S
C1037 C1038 1.399 . S
C1037 C1042 1.399 . S
C1038 C1037 1.399 . S
C1038 C1039 1.376 . S
C1039 H1026 0.930 . S
C1039 C1038 1.376 . S
C1039 C1040 1.388 . S
C1040 H1027 0.930 . S
C1040 C1039 1.388 . S
C1040 C1041 1.390 . S
C1041 C1040 1.390 . S
C1041 C1042 1.394 . S
C1041 C1047 1.465 . S
C1042 C1037 1.399 . S
C1042 C1041 1.394 . S
C1042 C1043 1.516 . S
C1043 C1042 1.516 . S
C1043 C1044 1.502 . S
C1043 C1045 1.561 1_556 S
C1043 C1046 1.526 . S
C1044 H1028 0.959 . S
C1044 H1029 0.959 . S
C1044 H1030 0.961 . S
C1044 C1043 1.502 . S
C1045 H1031 0.960 . S
C1045 H1032 0.961 . S
C1045 H1033 0.959 . S
C1045 C1043 1.561 1_554 S
C1046 C1043 1.526 . S
C1046 C1047 1.396 . S
C1046 C1051 1.390 . S
C1047 C1041 1.465 . S
C1047 C1046 1.396 . S
C1047 C1048 1.399 . S
C1048 H1034 0.929 . S
C1048 C1047 1.399 . S
C1048 C1049 1.385 . S
C1049 H1035 0.931 . S
C1049 C1048 1.385 . S
C1049 C1050 1.389 . S
C1050 C1049 1.389 . S
C1050 C1051 1.387 . S
C1051 H1036 0.930 . S
C1051 C1046 1.390 . S
C1051 C1050 1.387 . S
H1052 C1064 0.930 . S
H1053 C1066 0.930 . S
H1054 C1067 0.930 . S
H1055 C1071 0.959 . S
H1056 C1071 0.959 . S
H1057 C1071 0.961 . S
H1058 C1072 0.960 . S
H1059 C1072 0.961 . S
H1060 C1072 0.959 . S
H1061 C1075 0.929 1_554 S
H1062 C1076 0.931 . S
H1063 C1078 0.930 . S
C1064 H1052 0.930 . S
C1064 C1065 1.399 . S
C1064 C1069 1.399 . S
C1065 C1064 1.399 . S
C1065 C1066 1.376 . S
C1066 H1053 0.930 . S
C1066 C1065 1.376 . S
C1066 C1067 1.388 . S
C1067 H1054 0.930 . S
C1067 C1066 1.388 . S
C1067 C1068 1.390 . S
C1068 C1067 1.390 . S
C1068 C1069 1.394 . S
C1068 C1074 1.465 . S
C1069 C1064 1.399 . S
C1069 C1068 1.394 . S
C1069 C1070 1.516 . S
C1070 C1069 1.516 . S
C1070 C1071 1.502 . S
C1070 C1072 1.561 . S
C1070 C1073 1.526 . S
C1071 H1055 0.959 . S
C1071 H1056 0.959 . S
C1071 H1057 0.961 . S
C1071 C1070 1.502 . S
C1072 H1058 0.960 . S
C1072 H1059 0.961 . S
C1072 H1060 0.959 . S
C1072 C1070 1.561 . S
C1073 C1070 1.526 . S
C1073 C1074 1.396 . S
C1073 C1078 1.390 . S
C1074 C1068 1.465 . S
C1074 C1073 1.396 . S
C1074 C1075 1.399 . S
C1075 H1061 0.929 1_556 S
C1075 C1074 1.399 . S
C1075 C1076 1.385 1_556 S
C1076 H1062 0.931 . S
C1076 C1075 1.385 1_554 S
C1076 C1077 1.389 1_554 S
C1077 C1076 1.389 1_556 S
C1077 C1078 1.387 . S
C1078 H1063 0.930 . S
C1078 C1073 1.390 . S
C1078 C1077 1.387 . S
H1079 C1091 0.930 . S
H1080 C1093 0.930 . S
H1081 C1094 0.930 . S
H1082 C1098 0.959 . S
H1083 C1098 0.959 . S
H1084 C1098 0.961 . S
H1085 C1099 0.960 . S
H1086 C1099 0.961 . S
H1087 C1099 0.959 . S
H1088 C1102 0.929 . S
H1089 C1103 0.931 . S
H1090 C1105 0.930 . S
C1091 H1079 0.930 . S
C1091 C1092 1.399 . S
C1091 C1096 1.399 . S
C1092 C1091 1.399 . S
C1092 C1093 1.376 . S
C1093 H1080 0.930 . S
C1093 C1092 1.376 . S
C1093 C1094 1.388 . S
C1094 H1081 0.930 . S
C1094 C1093 1.388 . S
C1094 C1095 1.390 . S
C1095 C1094 1.390 . S
C1095 C1096 1.394 . S
C1095 C1101 1.465 . S
C1096 C1091 1.399 . S
C1096 C1095 1.394 . S
C1096 C1097 1.516 . S
C1097 C1096 1.516 . S
C1097 C1098 1.502 . S
C1097 C1099 1.561 . S
C1097 C1100 1.526 . S
C1098 H1082 0.959 . S
C1098 H1083 0.959 . S
C1098 H1084 0.961 . S
C1098 C1097 1.502 . S
C1099 H1085 0.960 . S
C1099 H1086 0.961 . S
C1099 H1087 0.959 . S
C1099 C1097 1.561 . S
C1100 C1097 1.526 . S
C1100 C1101 1.396 . S
C1100 C1105 1.390 . S
C1101 C1095 1.465 . S
C1101 C1100 1.396 . S
C1101 C1102 1.399 . S
C1102 H1088 0.929 . S
C1102 C1101 1.399 . S
C1102 C1103 1.385 . S
C1103 H1089 0.931 . S
C1103 C1102 1.385 . S
C1103 C1104 1.389 . S
C1104 C1103 1.389 . S
C1104 C1105 1.387 . S
C1105 H1090 0.930 . S
C1105 C1100 1.390 . S
C1105 C1104 1.387 . S
H1106 C1118 0.930 . S
H1107 C1120 0.930 . S
H1108 C1121 0.930 . S
H1109 C1125 0.959 . S
H1110 C1125 0.959 . S
H1111 C1125 0.961 . S
H1112 C1126 0.960 . S
H1113 C1126 0.961 . S
H1114 C1126 0.959 . S
H1115 C1129 0.929 . S
H1116 C1130 0.931 . S
H1117 C1132 0.930 . S
C1118 H1106 0.930 . S
C1118 C1119 1.399 . S
C1118 C1123 1.399 . S
C1119 C1118 1.399 . S
C1119 C1120 1.376 . S
C1120 H1107 0.930 . S
C1120 C1119 1.376 . S
C1120 C1121 1.388 . S
C1121 H1108 0.930 . S
C1121 C1120 1.388 . S
C1121 C1122 1.390 . S
C1122 C1121 1.390 . S
C1122 C1123 1.394 . S
C1122 C1128 1.465 . S
C1123 C1118 1.399 . S
C1123 C1122 1.394 . S
C1123 C1124 1.516 . S
C1124 C1123 1.516 . S
C1124 C1125 1.502 . S
C1124 C1126 1.561 . S
C1124 C1127 1.526 . S
C1125 H1109 0.959 . S
C1125 H1110 0.959 . S
C1125 H1111 0.961 . S
C1125 C1124 1.502 . S
C1126 H1112 0.960 . S
C1126 H1113 0.961 . S
C1126 H1114 0.959 . S
C1126 C1124 1.561 . S
C1127 C1124 1.526 . S
C1127 C1128 1.396 . S
C1127 C1132 1.390 . S
C1128 C1122 1.465 . S
C1128 C1127 1.396 . S
C1128 C1129 1.399 . S
C1129 H1115 0.929 . S
C1129 C1128 1.399 . S
C1129 C1130 1.385 . S
C1130 H1116 0.931 . S
C1130 C1129 1.385 . S
C1130 C1131 1.389 . S
C1131 C1130 1.389 . S
C1131 C1132 1.387 . S
C1132 H1117 0.930 . S
C1132 C1127 1.390 . S
C1132 C1131 1.387 . S
H1133 C1145 0.930 . S
H1134 C1147 0.930 . S
H1135 C1148 0.930 . S
H1136 C1152 0.959 . S
H1137 C1152 0.959 . S
H1138 C1152 0.961 . S
H1139 C1153 0.960 . S
H1140 C1153 0.961 . S
H1141 C1153 0.959 . S
H1142 C1156 0.929 . S
H1143 C1157 0.931 . S
H1144 C1159 0.930 . S
C1145 H1133 0.930 . S
C1145 C1146 1.399 . S
C1145 C1150 1.399 . S
C1146 C1145 1.399 . S
C1146 C1147 1.376 . S
C1147 H1134 0.930 . S
C1147 C1146 1.376 . S
C1147 C1148 1.388 . S
C1148 H1135 0.930 . S
C1148 C1147 1.388 . S
C1148 C1149 1.390 . S
C1149 C1148 1.390 . S
C1149 C1150 1.394 . S
C1149 C1155 1.465 . S
C1150 C1145 1.399 . S
C1150 C1149 1.394 . S
C1150 C1151 1.516 . S
C1151 C1150 1.516 . S
C1151 C1152 1.502 . S
C1151 C1153 1.561 . S
C1151 C1154 1.526 . S
C1152 H1136 0.959 . S
C1152 H1137 0.959 . S
C1152 H1138 0.961 . S
C1152 C1151 1.502 . S
C1153 H1139 0.960 . S
C1153 H1140 0.961 . S
C1153 H1141 0.959 . S
C1153 C1151 1.561 . S
C1154 C1151 1.526 . S
C1154 C1155 1.396 . S
C1154 C1159 1.390 . S
C1155 C1149 1.465 . S
C1155 C1154 1.396 . S
C1155 C1156 1.399 . S
C1156 H1142 0.929 . S
C1156 C1155 1.399 . S
C1156 C1157 1.385 . S
C1157 H1143 0.931 . S
C1157 C1156 1.385 . S
C1157 C1158 1.389 . S
C1158 C1157 1.389 . S
C1158 C1159 1.387 . S
C1159 H1144 0.930 . S
C1159 C1154 1.390 . S
C1159 C1158 1.387 . S
H1160 C1172 0.930 . S
H1161 C1174 0.930 . S
H1162 C1175 0.930 . S
H1163 C1179 0.959 . S
H1164 C1179 0.959 . S
H1165 C1179 0.961 . S
H1166 C1180 0.960 . S
H1167 C1180 0.961 . S
H1168 C1180 0.959 . S
H1169 C1183 0.929 . S
H1170 C1184 0.931 . S
H1171 C1186 0.930 . S
C1172 H1160 0.930 . S
C1172 C1173 1.399 . S
C1172 C1177 1.399 . S
C1173 C1172 1.399 . S
C1173 C1174 1.376 . S
C1174 H1161 0.930 . S
C1174 C1173 1.376 . S
C1174 C1175 1.388 . S
C1175 H1162 0.930 . S
C1175 C1174 1.388 . S
C1175 C1176 1.390 . S
C1176 C1175 1.390 . S
C1176 C1177 1.394 . S
C1176 C1182 1.465 . S
C1177 C1172 1.399 . S
C1177 C1176 1.394 . S
C1177 C1178 1.516 . S
C1178 C1177 1.516 . S
C1178 C1179 1.502 . S
C1178 C1180 1.561 1_556 S
C1178 C1181 1.526 . S
C1179 H1163 0.959 . S
C1179 H1164 0.959 . S
C1179 H1165 0.961 . S
C1179 C1178 1.502 . S
C1180 H1166 0.960 . S
C1180 H1167 0.961 . S
C1180 H1168 0.959 . S
C1180 C1178 1.561 1_554 S
C1181 C1178 1.526 . S
C1181 C1182 1.396 . S
C1181 C1186 1.390 . S
C1182 C1176 1.465 . S
C1182 C1181 1.396 . S
C1182 C1183 1.399 . S
C1183 H1169 0.929 . S
C1183 C1182 1.399 . S
C1183 C1184 1.385 . S
C1184 H1170 0.931 . S
C1184 C1183 1.385 . S
C1184 C1185 1.389 . S
C1185 C1184 1.389 . S
C1185 C1186 1.387 . S
C1186 H1171 0.930 . S
C1186 C1181 1.390 . S
C1186 C1185 1.387 . S
H1187 C1199 0.930 . S
H1188 C1201 0.930 . S
H1189 C1202 0.930 . S
H1190 C1206 0.959 . S
H1191 C1206 0.959 . S
H1192 C1206 0.961 . S
H1193 C1207 0.960 . S
H1194 C1207 0.961 . S
H1195 C1207 0.959 . S
H1196 C1210 0.929 . S
H1197 C1211 0.931 . S
H1198 C1213 0.930 . S
C1199 H1187 0.930 . S
C1199 C1200 1.399 . S
C1199 C1204 1.399 . S
C1200 C1199 1.399 . S
C1200 C1201 1.376 . S
C1201 H1188 0.930 . S
C1201 C1200 1.376 . S
C1201 C1202 1.388 . S
C1202 H1189 0.930 . S
C1202 C1201 1.388 . S
C1202 C1203 1.390 . S
C1203 C1202 1.390 . S
C1203 C1204 1.394 . S
C1203 C1209 1.465 . S
C1204 C1199 1.399 . S
C1204 C1203 1.394 . S
C1204 C1205 1.516 . S
C1205 C1204 1.516 . S
C1205 C1206 1.502 . S
C1205 C1207 1.561 . S
C1205 C1208 1.526 . S
C1206 H1190 0.959 . S
C1206 H1191 0.959 . S
C1206 H1192 0.961 . S
C1206 C1205 1.502 . S
C1207 H1193 0.960 . S
C1207 H1194 0.961 . S
C1207 H1195 0.959 . S
C1207 C1205 1.561 . S
C1208 C1205 1.526 . S
C1208 C1209 1.396 . S
C1208 C1213 1.390 . S
C1209 C1203 1.465 . S
C1209 C1208 1.396 . S
C1209 C1210 1.399 . S
C1210 H1196 0.929 . S
C1210 C1209 1.399 . S
C1210 C1211 1.385 . S
C1211 H1197 0.931 . S
C1211 C1210 1.385 . S
C1211 C1212 1.389 . S
C1212 C1211 1.389 . S
C1212 C1213 1.387 . S
C1213 H1198 0.930 . S
C1213 C1208 1.390 . S
C1213 C1212 1.387 . S
H1214 C1226 0.930 . S
H1215 C1228 0.930 . S
H1216 C1229 0.930 . S
H1217 C1233 0.959 . S
H1218 C1233 0.959 . S
H1219 C1233 0.961 . S
H1220 C1234 0.960 . S
H1221 C1234 0.961 . S
H1222 C1234 0.959 . S
H1223 C1237 0.929 . S
H1224 C1238 0.931 . S
H1225 C1240 0.930 . S
C1226 H1214 0.930 . S
C1226 C1227 1.399 . S
C1226 C1231 1.399 . S
C1227 C1226 1.399 . S
C1227 C1228 1.376 . S
C1228 H1215 0.930 . S
C1228 C1227 1.376 . S
C1228 C1229 1.388 . S
C1229 H1216 0.930 . S
C1229 C1228 1.388 . S
C1229 C1230 1.390 . S
C1230 C1229 1.390 . S
C1230 C1231 1.394 . S
C1230 C1236 1.465 . S
C1231 C1226 1.399 . S
C1231 C1230 1.394 . S
C1231 C1232 1.516 . S
C1232 C1231 1.516 . S
C1232 C1233 1.502 . S
C1232 C1234 1.561 . S
C1232 C1235 1.526 . S
C1233 H1217 0.959 . S
C1233 H1218 0.959 . S
C1233 H1219 0.961 . S
C1233 C1232 1.502 . S
C1234 H1220 0.960 . S
C1234 H1221 0.961 . S
C1234 H1222 0.959 . S
C1234 C1232 1.561 . S
C1235 C1232 1.526 . S
C1235 C1236 1.396 . S
C1235 C1240 1.390 . S
C1236 C1230 1.465 . S
C1236 C1235 1.396 . S
C1236 C1237 1.399 . S
C1237 H1223 0.929 . S
C1237 C1236 1.399 . S
C1237 C1238 1.385 . S
C1238 H1224 0.931 . S
C1238 C1237 1.385 . S
C1238 C1239 1.389 . S
C1239 C1238 1.389 . S
C1239 C1240 1.387 . S
C1240 H1225 0.930 . S
C1240 C1235 1.390 . S
C1240 C1239 1.387 . S
H1241 C1253 0.930 . S
H1242 C1255 0.930 . S
H1243 C1256 0.930 . S
H1244 C1260 0.959 . S
H1245 C1260 0.959 . S
H1246 C1260 0.961 . S
H1247 C1261 0.960 . S
H1248 C1261 0.961 . S
H1249 C1261 0.959 . S
H1250 C1264 0.929 . S
H1251 C1265 0.931 . S
H1252 C1267 0.930 . S
C1253 H1241 0.930 . S
C1253 C1254 1.399 . S
C1253 C1258 1.399 . S
C1254 C1253 1.399 . S
C1254 C1255 1.376 . S
C1255 H1242 0.930 . S
C1255 C1254 1.376 . S
C1255 C1256 1.388 . S
C1256 H1243 0.930 . S
C1256 C1255 1.388 . S
C1256 C1257 1.390 . S
C1257 C1256 1.390 . S
C1257 C1258 1.394 . S
C1257 C1263 1.465 . S
C1258 C1253 1.399 . S
C1258 C1257 1.394 . S
C1258 C1259 1.516 . S
C1259 C1258 1.516 . S
C1259 C1260 1.502 . S
C1259 C1261 1.561 . S
C1259 C1262 1.526 . S
C1260 H1244 0.959 . S
C1260 H1245 0.959 . S
C1260 H1246 0.961 . S
C1260 C1259 1.502 . S
C1261 H1247 0.960 . S
C1261 H1248 0.961 . S
C1261 H1249 0.959 . S
C1261 C1259 1.561 . S
C1262 C1259 1.526 . S
C1262 C1263 1.396 . S
C1262 C1267 1.390 . S
C1263 C1257 1.465 . S
C1263 C1262 1.396 . S
C1263 C1264 1.399 . S
C1264 H1250 0.929 . S
C1264 C1263 1.399 . S
C1264 C1265 1.385 . S
C1265 H1251 0.931 . S
C1265 C1264 1.385 . S
C1265 C1266 1.389 . S
C1266 C1265 1.389 . S
C1266 C1267 1.387 . S
C1267 H1252 0.930 . S
C1267 C1262 1.390 . S
C1267 C1266 1.387 . S
H1268 C1280 0.930 . S
H1269 C1282 0.930 . S
H1270 C1283 0.930 . S
H1271 C1287 0.959 . S
H1272 C1287 0.959 . S
H1273 C1287 0.961 . S
H1274 C1288 0.960 . S
H1275 C1288 0.961 . S
H1276 C1288 0.959 . S
H1277 C1291 0.929 . S
H1278 C1292 0.931 . S
H1279 C1294 0.930 . S
C1280 H1268 0.930 . S
C1280 C1281 1.399 . S
C1280 C1285 1.399 . S
C1281 C1280 1.399 . S
C1281 C1282 1.376 . S
C1282 H1269 0.930 . S
C1282 C1281 1.376 . S
C1282 C1283 1.388 . S
C1283 H1270 0.930 . S
C1283 C1282 1.388 . S
C1283 C1284 1.390 . S
C1284 C1283 1.390 . S
C1284 C1285 1.394 . S
C1284 C1290 1.465 . S
C1285 C1280 1.399 . S
C1285 C1284 1.394 . S
C1285 C1286 1.516 . S
C1286 C1285 1.516 . S
C1286 C1287 1.502 . S
C1286 C1288 1.561 . S
C1286 C1289 1.526 . S
C1287 H1271 0.959 . S
C1287 H1272 0.959 . S
C1287 H1273 0.961 . S
C1287 C1286 1.502 . S
C1288 H1274 0.960 . S
C1288 H1275 0.961 . S
C1288 H1276 0.959 . S
C1288 C1286 1.561 . S
C1289 C1286 1.526 . S
C1289 C1290 1.396 . S
C1289 C1294 1.390 . S
C1290 C1284 1.465 . S
C1290 C1289 1.396 . S
C1290 C1291 1.399 . S
C1291 H1277 0.929 . S
C1291 C1290 1.399 . S
C1291 C1292 1.385 . S
C1292 H1278 0.931 . S
C1292 C1291 1.385 . S
C1292 C1293 1.389 . S
C1293 C1292 1.389 . S
C1293 C1294 1.387 . S
C1294 H1279 0.930 . S
C1294 C1289 1.390 . S
C1294 C1293 1.387 . S
H1295 C1307 0.930 . S
H1296 C1309 0.930 . S
H1297 C1310 0.930 . S
H1298 C1314 0.959 1_556 S
H1299 C1314 0.959 . S
H1300 C1314 0.961 . S
H1301 C1315 0.960 . S
H1302 C1315 0.961 . S
H1303 C1315 0.959 . S
H1304 C1318 0.929 . S
H1305 C1319 0.931 . S
H1306 C1321 0.930 1_554 S
C1307 H1295 0.930 . S
C1307 C1308 1.399 . S
C1307 C1312 1.399 . S
C1308 C1307 1.399 . S
C1308 C1309 1.376 . S
C1309 H1296 0.930 . S
C1309 C1308 1.376 . S
C1309 C1310 1.388 . S
C1310 H1297 0.930 . S
C1310 C1309 1.388 . S
C1310 C1311 1.390 . S
C1311 C1310 1.390 . S
C1311 C1312 1.394 . S
C1311 C1317 1.465 . S
C1312 C1307 1.399 . S
C1312 C1311 1.394 . S
C1312 C1313 1.516 . S
C1313 C1312 1.516 . S
C1313 C1314 1.502 1_556 S
C1313 C1315 1.561 1_556 S
C1313 C1316 1.526 . S
C1314 H1298 0.959 1_554 S
C1314 H1299 0.959 . S
C1314 H1300 0.961 . S
C1314 C1313 1.502 1_554 S
C1315 H1301 0.960 . S
C1315 H1302 0.961 . S
C1315 H1303 0.959 . S
C1315 C1313 1.561 1_554 S
C1316 C1313 1.526 . S
C1316 C1317 1.396 . S
C1316 C1321 1.390 . S
C1317 C1311 1.465 . S
C1317 C1316 1.396 . S
C1317 C1318 1.399 . S
C1318 H1304 0.929 . S
C1318 C1317 1.399 . S
C1318 C1319 1.385 . S
C1319 H1305 0.931 . S
C1319 C1318 1.385 . S
C1319 C1320 1.389 . S
C1320 C1319 1.389 . S
C1320 C1321 1.387 . S
C1321 H1306 0.930 1_556 S
C1321 C1316 1.390 . S
C1321 C1320 1.387 . S
H1322 C1334 0.930 . S
H1323 C1336 0.930 . S
H1324 C1337 0.930 . S
H1325 C1341 0.959 . S
H1326 C1341 0.959 . S
H1327 C1341 0.961 . S
H1328 C1342 0.960 . S
H1329 C1342 0.961 . S
H1330 C1342 0.959 . S
H1331 C1345 0.929 . S
H1332 C1346 0.931 . S
H1333 C1348 0.930 . S
C1334 H1322 0.930 . S
C1334 C1335 1.399 . S
C1334 C1339 1.399 . S
C1335 C1334 1.399 . S
C1335 C1336 1.376 . S
C1336 H1323 0.930 . S
C1336 C1335 1.376 . S
C1336 C1337 1.388 . S
C1337 H1324 0.930 . S
C1337 C1336 1.388 . S
C1337 C1338 1.390 . S
C1338 C1337 1.390 . S
C1338 C1339 1.394 . S
C1338 C1344 1.465 . S
C1339 C1334 1.399 . S
C1339 C1338 1.394 . S
C1339 C1340 1.516 . S
C1340 C1339 1.516 . S
C1340 C1341 1.502 . S
C1340 C1342 1.561 . S
C1340 C1343 1.526 . S
C1341 H1325 0.959 . S
C1341 H1326 0.959 . S
C1341 H1327 0.961 . S
C1341 C1340 1.502 . S
C1342 H1328 0.960 . S
C1342 H1329 0.961 . S
C1342 H1330 0.959 . S
C1342 C1340 1.561 . S
C1343 C1340 1.526 . S
C1343 C1344 1.396 . S
C1343 C1348 1.390 . S
C1344 C1338 1.465 . S
C1344 C1343 1.396 . S
C1344 C1345 1.399 . S
C1345 H1331 0.929 . S
C1345 C1344 1.399 . S
C1345 C1346 1.385 . S
C1346 H1332 0.931 . S
C1346 C1345 1.385 . S
C1346 C1347 1.389 . S
C1347 C1346 1.389 . S
C1347 C1348 1.387 . S
C1348 H1333 0.930 . S
C1348 C1343 1.390 . S
C1348 C1347 1.387 . S
H1349 C1361 0.930 . S
H1350 C1363 0.930 . S
H1351 C1364 0.930 . S
H1352 C1368 0.959 . S
H1353 C1368 0.959 . S
H1354 C1368 0.961 . S
H1355 C1369 0.960 . S
H1356 C1369 0.961 . S
H1357 C1369 0.959 . S
H1358 C1372 0.929 . S
H1359 C1373 0.931 . S
H1360 C1375 0.930 . S
C1361 H1349 0.930 . S
C1361 C1362 1.399 . S
C1361 C1366 1.399 . S
C1362 C1361 1.399 . S
C1362 C1363 1.376 . S
C1363 H1350 0.930 . S
C1363 C1362 1.376 . S
C1363 C1364 1.388 . S
C1364 H1351 0.930 . S
C1364 C1363 1.388 . S
C1364 C1365 1.390 . S
C1365 C1364 1.390 . S
C1365 C1366 1.394 . S
C1365 C1371 1.465 . S
C1366 C1361 1.399 . S
C1366 C1365 1.394 . S
C1366 C1367 1.516 . S
C1367 C1366 1.516 . S
C1367 C1368 1.502 . S
C1367 C1369 1.561 . S
C1367 C1370 1.526 . S
C1368 H1352 0.959 . S
C1368 H1353 0.959 . S
C1368 H1354 0.961 . S
C1368 C1367 1.502 . S
C1369 H1355 0.960 . S
C1369 H1356 0.961 . S
C1369 H1357 0.959 . S
C1369 C1367 1.561 . S
C1370 C1367 1.526 . S
C1370 C1371 1.396 . S
C1370 C1375 1.390 . S
C1371 C1365 1.465 . S
C1371 C1370 1.396 . S
C1371 C1372 1.399 . S
C1372 H1358 0.929 . S
C1372 C1371 1.399 . S
C1372 C1373 1.385 . S
C1373 H1359 0.931 . S
C1373 C1372 1.385 . S
C1373 C1374 1.389 . S
C1374 C1373 1.389 . S
C1374 C1375 1.387 . S
C1375 H1360 0.930 . S
C1375 C1370 1.390 . S
C1375 C1374 1.387 . S
H1376 C1388 0.930 . S
H1377 C1390 0.926 1_455 S
H1378 C1391 0.930 1_455 S
H1379 C1395 0.966 . S
H1380 C1395 0.959 . S
H1381 C1395 0.961 . S
H1382 C1396 0.960 . S
H1383 C1396 0.961 . S
H1384 C1396 0.959 1_455 S
H1385 C1399 0.929 1_455 S
H1386 C1400 0.931 . S
H1387 C1402 0.930 . S
C1388 H1376 0.930 . S
C1388 C1389 1.399 . S
C1388 C1393 1.399 . S
C1389 C1388 1.399 . S
C1389 C1390 1.376 . S
C1390 H1377 0.926 1_655 S
C1390 C1389 1.376 . S
C1390 C1391 1.388 . S
C1391 H1378 0.930 1_655 S
C1391 C1390 1.388 . S
C1391 C1392 1.390 . S
C1392 C1391 1.390 . S
C1392 C1393 1.394 . S
C1392 C1398 1.465 . S
C1393 C1388 1.399 . S
C1393 C1392 1.394 . S
C1393 C1394 1.516 1_554 S
C1394 C1393 1.516 1_556 S
C1394 C1395 1.502 . S
C1394 C1396 1.561 . S
C1394 C1397 1.526 . S
C1395 H1379 0.966 . S
C1395 H1380 0.959 . S
C1395 H1381 0.961 . S
C1395 C1394 1.502 . S
C1396 H1382 0.960 . S
C1396 H1383 0.961 . S
C1396 H1384 0.959 1_655 S
C1396 C1394 1.561 . S
C1397 C1394 1.526 . S
C1397 C1398 1.396 1_556 S
C1397 C1402 1.390 . S
C1398 C1392 1.465 . S
C1398 C1397 1.396 1_554 S
C1398 C1399 1.399 . S
C1399 H1385 0.929 1_655 S
C1399 C1398 1.399 . S
C1399 C1400 1.385 1_554 S
C1400 H1386 0.931 . S
C1400 C1399 1.385 1_556 S
C1400 C1401 1.389 . S
C1401 C1400 1.389 . S
C1401 C1402 1.387 . S
C1402 H1387 0.930 . S
C1402 C1397 1.390 . S
C1402 C1401 1.387 . S
H1403 C1415 0.930 . S
H1404 C1417 0.930 . S
H1405 C1418 0.930 . S
H1406 C1422 0.959 . S
H1407 C1422 0.959 . S
H1408 C1422 0.961 . S
H1409 C1423 0.960 . S
H1410 C1423 0.961 . S
H1411 C1423 0.959 . S
H1412 C1426 0.929 . S
H1413 C1427 0.931 . S
H1414 C1429 0.930 . S
C1415 H1403 0.930 . S
C1415 C1416 1.399 . S
C1415 C1420 1.399 . S
C1416 C1415 1.399 . S
C1416 C1417 1.376 . S
C1417 H1404 0.930 . S
C1417 C1416 1.376 . S
C1417 C1418 1.388 . S
C1418 H1405 0.930 . S
C1418 C1417 1.388 . S
C1418 C1419 1.390 . S
C1419 C1418 1.390 . S
C1419 C1420 1.394 . S
C1419 C1425 1.465 . S
C1420 C1415 1.399 . S
C1420 C1419 1.394 . S
C1420 C1421 1.516 . S
C1421 C1420 1.516 . S
C1421 C1422 1.502 . S
C1421 C1423 1.561 . S
C1421 C1424 1.526 . S
C1422 H1406 0.959 . S
C1422 H1407 0.959 . S
C1422 H1408 0.961 . S
C1422 C1421 1.502 . S
C1423 H1409 0.960 . S
C1423 H1410 0.961 . S
C1423 H1411 0.959 . S
C1423 C1421 1.561 . S
C1424 C1421 1.526 . S
C1424 C1425 1.396 . S
C1424 C1429 1.390 . S
C1425 C1419 1.465 . S
C1425 C1424 1.396 . S
C1425 C1426 1.399 . S
C1426 H1412 0.929 . S
C1426 C1425 1.399 . S
C1426 C1427 1.385 . S
C1427 H1413 0.931 . S
C1427 C1426 1.385 . S
C1427 C1428 1.389 . S
C1428 C1427 1.389 . S
C1428 C1429 1.387 . S
C1429 H1414 0.930 . S
C1429 C1424 1.390 . S
C1429 C1428 1.387 . S
H1430 C1442 0.930 . S
H1431 C1444 0.930 . S
H1432 C1445 0.930 . S
H1433 C1449 0.959 . S
H1434 C1449 0.959 . S
H1435 C1449 0.961 . S
H1436 C1450 0.960 . S
H1437 C1450 0.961 . S
H1438 C1450 0.959 . S
H1439 C1453 0.929 . S
H1440 C1454 0.931 . S
H1441 C1456 0.930 . S
C1442 H1430 0.930 . S
C1442 C1443 1.399 . S
C1442 C1447 1.399 . S
C1443 C1442 1.399 . S
C1443 C1444 1.376 . S
C1444 H1431 0.930 . S
C1444 C1443 1.376 . S
C1444 C1445 1.388 . S
C1445 H1432 0.930 . S
C1445 C1444 1.388 . S
C1445 C1446 1.390 . S
C1446 C1445 1.390 . S
C1446 C1447 1.394 . S
C1446 C1452 1.465 . S
C1447 C1442 1.399 . S
C1447 C1446 1.394 . S
C1447 C1448 1.516 . S
C1448 C1447 1.516 . S
C1448 C1449 1.502 . S
C1448 C1450 1.561 . S
C1448 C1451 1.526 . S
C1449 H1433 0.959 . S
C1449 H1434 0.959 . S
C1449 H1435 0.961 . S
C1449 C1448 1.502 . S
C1450 H1436 0.960 . S
C1450 H1437 0.961 . S
C1450 H1438 0.959 . S
C1450 C1448 1.561 . S
C1451 C1448 1.526 . S
C1451 C1452 1.396 . S
C1451 C1456 1.390 . S
C1452 C1446 1.465 . S
C1452 C1451 1.396 . S
C1452 C1453 1.399 . S
C1453 H1439 0.929 . S
C1453 C1452 1.399 . S
C1453 C1454 1.385 . S
C1454 H1440 0.931 . S
C1454 C1453 1.385 . S
C1454 C1455 1.389 . S
C1455 C1454 1.389 . S
C1455 C1456 1.387 . S
C1456 H1441 0.930 . S
C1456 C1451 1.390 . S
C1456 C1455 1.387 . S
H1457 C1469 0.930 . S
H1458 C1471 0.930 . S
H1459 C1472 0.930 . S
H1460 C1476 0.959 . S
H1461 C1476 0.959 . S
H1462 C1476 0.961 . S
H1463 C1477 0.960 . S
H1464 C1477 0.961 . S
H1465 C1477 0.959 . S
H1466 C1480 0.929 . S
H1467 C1481 0.931 . S
H1468 C1483 0.930 . S
C1469 H1457 0.930 . S
C1469 C1470 1.399 . S
C1469 C1474 1.399 . S
C1470 C1469 1.399 . S
C1470 C1471 1.376 . S
C1471 H1458 0.930 . S
C1471 C1470 1.376 . S
C1471 C1472 1.388 . S
C1472 H1459 0.930 . S
C1472 C1471 1.388 . S
C1472 C1473 1.390 . S
C1473 C1472 1.390 . S
C1473 C1474 1.394 . S
C1473 C1479 1.465 . S
C1474 C1469 1.399 . S
C1474 C1473 1.394 . S
C1474 C1475 1.516 . S
C1475 C1474 1.516 . S
C1475 C1476 1.502 . S
C1475 C1477 1.561 . S
C1475 C1478 1.526 . S
C1476 H1460 0.959 . S
C1476 H1461 0.959 . S
C1476 H1462 0.961 . S
C1476 C1475 1.502 . S
C1477 H1463 0.960 . S
C1477 H1464 0.961 . S
C1477 H1465 0.959 . S
C1477 C1475 1.561 . S
C1478 C1475 1.526 . S
C1478 C1479 1.396 . S
C1478 C1483 1.390 . S
C1479 C1473 1.465 . S
C1479 C1478 1.396 . S
C1479 C1480 1.399 . S
C1480 H1466 0.929 . S
C1480 C1479 1.399 . S
C1480 C1481 1.385 . S
C1481 H1467 0.931 . S
C1481 C1480 1.385 . S
C1481 C1482 1.389 . S
C1482 C1481 1.389 . S
C1482 C1483 1.387 . S
C1483 H1468 0.930 . S
C1483 C1478 1.390 . S
C1483 C1482 1.387 . S
H1484 C1496 0.930 . S
H1485 C1498 0.930 . S
H1486 C1499 0.930 . S
H1487 C1503 0.959 . S
H1488 C1503 0.959 . S
H1489 C1503 0.961 . S
H1490 C1504 0.960 . S
H1491 C1504 0.961 . S
H1492 C1504 0.959 . S
H1493 C1507 0.929 . S
H1494 C1508 0.931 . S
H1495 C1510 0.930 . S
C1496 H1484 0.930 . S
C1496 C1497 1.399 . S
C1496 C1501 1.399 . S
C1497 C1496 1.399 . S
C1497 C1498 1.376 . S
C1498 H1485 0.930 . S
C1498 C1497 1.376 . S
C1498 C1499 1.388 . S
C1499 H1486 0.930 . S
C1499 C1498 1.388 . S
C1499 C1500 1.390 . S
C1500 C1499 1.390 . S
C1500 C1501 1.394 . S
C1500 C1506 1.465 . S
C1501 C1496 1.399 . S
C1501 C1500 1.394 . S
C1501 C1502 1.516 . S
C1502 C1501 1.516 . S
C1502 C1503 1.502 . S
C1502 C1504 1.561 . S
C1502 C1505 1.526 . S
C1503 H1487 0.959 . S
C1503 H1488 0.959 . S
C1503 H1489 0.961 . S
C1503 C1502 1.502 . S
C1504 H1490 0.960 . S
C1504 H1491 0.961 . S
C1504 H1492 0.959 . S
C1504 C1502 1.561 . S
C1505 C1502 1.526 . S
C1505 C1506 1.396 . S
C1505 C1510 1.390 . S
C1506 C1500 1.465 . S
C1506 C1505 1.396 . S
C1506 C1507 1.399 . S
C1507 H1493 0.929 . S
C1507 C1506 1.399 . S
C1507 C1508 1.385 . S
C1508 H1494 0.931 . S
C1508 C1507 1.385 . S
C1508 C1509 1.389 . S
C1509 C1508 1.389 . S
C1509 C1510 1.387 . S
C1510 H1495 0.930 . S
C1510 C1505 1.390 . S
C1510 C1509 1.387 . S
H1511 C1523 0.930 . S
H1512 C1525 0.930 . S
H1513 C1526 0.930 . S
H1514 C1530 0.959 . S
H1515 C1530 0.959 . S
H1516 C1530 0.961 . S
H1517 C1531 0.960 . S
H1518 C1531 0.961 . S
H1519 C1531 0.959 . S
H1520 C1534 0.929 . S
H1521 C1535 0.931 . S
H1522 C1537 0.930 . S
C1523 H1511 0.930 . S
C1523 C1524 1.399 . S
C1523 C1528 1.399 . S
C1524 C1523 1.399 . S
C1524 C1525 1.376 . S
C1525 H1512 0.930 . S
C1525 C1524 1.376 . S
C1525 C1526 1.388 . S
C1526 H1513 0.930 . S
C1526 C1525 1.388 . S
C1526 C1527 1.390 . S
C1527 C1526 1.390 . S
C1527 C1528 1.394 . S
C1527 C1533 1.465 . S
C1528 C1523 1.399 . S
C1528 C1527 1.394 . S
C1528 C1529 1.516 . S
C1529 C1528 1.516 . S
C1529 C1530 1.502 . S
C1529 C1531 1.561 . S
C1529 C1532 1.526 . S
C1530 H1514 0.959 . S
C1530 H1515 0.959 . S
C1530 H1516 0.961 . S
C1530 C1529 1.502 . S
C1531 H1517 0.960 . S
C1531 H1518 0.961 . S
C1531 H1519 0.959 . S
C1531 C1529 1.561 . S
C1532 C1529 1.526 . S
C1532 C1533 1.396 . S
C1532 C1537 1.390 . S
C1533 C1527 1.465 . S
C1533 C1532 1.396 . S
C1533 C1534 1.399 . S
C1534 H1520 0.929 . S
C1534 C1533 1.399 . S
C1534 C1535 1.385 . S
C1535 H1521 0.931 . S
C1535 C1534 1.385 . S
C1535 C1536 1.389 . S
C1536 C1535 1.389 . S
C1536 C1537 1.387 . S
C1537 H1522 0.930 . S
C1537 C1532 1.390 . S
C1537 C1536 1.387 . S
H1538 C1550 0.930 . S
H1539 C1552 0.930 . S
H1540 C1553 0.930 . S
H1541 C1557 0.959 . S
H1542 C1557 0.959 . S
H1543 C1557 0.961 . S
H1544 C1558 0.960 . S
H1545 C1558 0.961 . S
H1546 C1558 0.959 . S
H1547 C1561 0.947 . S
H1548 C1562 0.931 . S
H1549 C1564 0.930 . S
C1550 H1538 0.930 . S
C1550 C1551 1.399 . S
C1550 C1555 1.399 . S
C1551 C1550 1.399 . S
C1551 C1552 1.376 . S
C1552 H1539 0.930 . S
C1552 C1551 1.376 . S
C1552 C1553 1.388 . S
C1553 H1540 0.930 . S
C1553 C1552 1.388 . S
C1553 C1554 1.390 . S
C1554 C1553 1.390 . S
C1554 C1555 1.394 . S
C1554 C1560 1.465 1_565 S
C1555 C1550 1.399 . S
C1555 C1554 1.394 . S
C1555 C1556 1.516 1_565 S
C1556 C1555 1.516 1_545 S
C1556 C1557 1.502 . S
C1556 C1558 1.561 . S
C1556 C1559 1.526 . S
C1557 H1541 0.959 . S
C1557 H1542 0.959 . S
C1557 H1543 0.961 . S
C1557 C1556 1.502 . S
C1558 H1544 0.960 . S
C1558 H1545 0.961 . S
C1558 H1546 0.959 . S
C1558 C1556 1.561 . S
C1559 C1556 1.526 . S
C1559 C1560 1.396 . S
C1559 C1564 1.390 . S
C1560 C1554 1.465 1_545 S
C1560 C1559 1.396 . S
C1560 C1561 1.398 1_545 S
C1561 H1547 0.947 . S
C1561 C1560 1.398 1_565 S
C1561 C1562 1.369 1_565 S
C1562 H1548 0.931 . S
C1562 C1561 1.369 1_545 S
C1562 C1563 1.389 . S
C1563 C1562 1.389 . S
C1563 C1564 1.387 . S
C1564 H1549 0.930 . S
C1564 C1559 1.390 . S
C1564 C1563 1.387 . S
H1565 C1577 0.891 1_655 S
H1566 C1579 0.930 . S
H1567 C1580 0.925 1_554 S
H1568 C1584 0.959 . S
H1569 C1584 0.959 1_565 S
H1570 C1584 0.961 . S
H1571 C1585 0.960 . S
H1572 C1585 0.961 1_554 S
H1573 C1585 0.959 . S
H1574 C1588 0.929 . S
H1575 C1589 0.931 . S
H1576 C1591 0.930 1_655 S
C1577 H1565 0.891 1_455 S
C1577 C1578 1.430 . S
C1577 C1582 1.408 1_556 S
C1578 C1577 1.430 . S
C1578 C1579 1.376 . S
C1579 H1566 0.930 . S
C1579 C1578 1.376 . S
C1579 C1580 1.399 . S
C1580 H1567 0.925 1_556 S
C1580 C1579 1.399 . S
C1580 C1581 1.384 1_556 S
C1581 C1580 1.384 1_554 S
C1581 C1582 1.394 . S
C1581 C1587 1.465 1_545 S
C1582 C1577 1.408 1_554 S
C1582 C1581 1.394 . S
C1582 C1583 1.516 1_445 S
C1583 C1582 1.516 1_665 S
C1583 C1584 1.502 1_565 S
C1583 C1585 1.561 1_554 S
C1583 C1586 1.526 1_655 S
C1584 H1568 0.959 . S
C1584 H1569 0.959 1_545 S
C1584 H1570 0.961 . S
C1584 C1583 1.502 1_545 S
C1585 H1571 0.960 . S
C1585 H1572 0.961 1_556 S
C1585 H1573 0.959 . S
C1585 C1583 1.561 1_556 S
C1586 C1583 1.526 1_455 S
C1586 C1587 1.396 . S
C1586 C1591 1.390 . S
C1587 C1581 1.465 1_565 S
C1587 C1586 1.396 . S
C1587 C1588 1.399 . S
C1588 H1574 0.929 . S
C1588 C1587 1.399 . S
C1588 C1589 1.385 . S
C1589 H1575 0.931 . S
C1589 C1588 1.385 . S
C1589 C1590 1.389 . S
C1590 C1589 1.389 . S
C1590 C1591 1.387 . S
C1591 H1576 0.930 1_455 S
C1591 C1586 1.390 . S
C1591 C1590 1.387 . S
H1592 C1604 0.930 . S
H1593 C1606 0.930 . S
H1594 C1607 0.944 . S
H1595 C1611 0.959 . S
H1596 C1611 0.959 . S
H1597 C1611 0.961 . S
H1598 C1612 0.960 . S
H1599 C1612 0.965 . S
H1600 C1612 0.934 1_655 S
H1601 C1615 0.929 . S
H1602 C1616 0.931 . S
H1603 C1618 0.930 . S
C1604 H1592 0.930 . S
C1604 C1605 1.399 . S
C1604 C1609 1.399 . S
C1605 C1604 1.399 . S
C1605 C1606 1.376 . S
C1606 H1593 0.930 . S
C1606 C1605 1.376 . S
C1606 C1607 1.388 . S
C1607 H1594 0.944 . S
C1607 C1606 1.388 . S
C1607 C1608 1.390 . S
C1608 C1607 1.390 . S
C1608 C1609 1.394 . S
C1608 C1614 1.465 . S
C1609 C1604 1.399 . S
C1609 C1608 1.394 . S
C1609 C1610 1.516 . S
C1610 C1609 1.516 . S
C1610 C1611 1.502 . S
C1610 C1612 1.582 . S
C1610 C1613 1.526 . S
C1611 H1595 0.959 . S
C1611 H1596 0.959 . S
C1611 H1597 0.961 . S
C1611 C1610 1.502 . S
C1612 H1598 0.960 . S
C1612 H1599 0.965 . S
C1612 H1600 0.934 1_455 S
C1612 C1610 1.582 . S
C1613 C1610 1.526 . S
C1613 C1614 1.396 . S
C1613 C1618 1.390 . S
C1614 C1608 1.465 . S
C1614 C1613 1.396 . S
C1614 C1615 1.399 . S
C1615 H1601 0.929 . S
C1615 C1614 1.399 . S
C1615 C1616 1.385 . S
C1616 H1602 0.931 . S
C1616 C1615 1.385 . S
C1616 C1617 1.389 . S
C1617 C1616 1.389 . S
C1617 C1618 1.387 . S
C1618 H1603 0.930 . S
C1618 C1613 1.390 . S
C1618 C1617 1.387 . S
H1619 C1631 0.930 . S
H1620 C1633 0.930 . S
H1621 C1634 0.930 . S
H1622 C1638 0.959 . S
H1623 C1638 0.959 . S
H1624 C1638 0.961 . S
H1625 C1639 0.960 . S
H1626 C1639 0.961 . S
H1627 C1639 0.959 . S
H1628 C1642 0.929 . S
H1629 C1643 0.931 . S
H1630 C1645 0.930 . S
C1631 H1619 0.930 . S
C1631 C1632 1.399 . S
C1631 C1636 1.399 . S
C1632 C1631 1.399 . S
C1632 C1633 1.376 . S
C1633 H1620 0.930 . S
C1633 C1632 1.376 . S
C1633 C1634 1.388 . S
C1634 H1621 0.930 . S
C1634 C1633 1.388 . S
C1634 C1635 1.390 . S
C1635 C1634 1.390 . S
C1635 C1636 1.394 . S
C1635 C1641 1.465 . S
C1636 C1631 1.399 . S
C1636 C1635 1.394 . S
C1636 C1637 1.516 . S
C1637 C1636 1.516 . S
C1637 C1638 1.502 . S
C1637 C1639 1.561 . S
C1637 C1640 1.526 . S
C1638 H1622 0.959 . S
C1638 H1623 0.959 . S
C1638 H1624 0.961 . S
C1638 C1637 1.502 . S
C1639 H1625 0.960 . S
C1639 H1626 0.961 . S
C1639 H1627 0.959 . S
C1639 C1637 1.561 . S
C1640 C1637 1.526 . S
C1640 C1641 1.396 . S
C1640 C1645 1.390 . S
C1641 C1635 1.465 . S
C1641 C1640 1.396 . S
C1641 C1642 1.399 . S
C1642 H1628 0.929 . S
C1642 C1641 1.399 . S
C1642 C1643 1.385 . S
C1643 H1629 0.931 . S
C1643 C1642 1.385 . S
C1643 C1644 1.389 . S
C1644 C1643 1.389 . S
C1644 C1645 1.387 . S
C1645 H1630 0.930 . S
C1645 C1640 1.390 . S
C1645 C1644 1.387 . S
H1646 C1658 0.930 . S
H1647 C1660 0.930 . S
H1648 C1661 0.930 . S
H1649 C1665 0.959 . S
H1650 C1665 0.959 . S
H1651 C1665 0.961 . S
H1652 C1666 0.960 . S
H1653 C1666 0.961 . S
H1654 C1666 0.959 . S
H1655 C1669 0.929 . S
H1656 C1670 0.931 . S
H1657 C1672 0.930 1_554 S
C1658 H1646 0.930 . S
C1658 C1659 1.399 . S
C1658 C1663 1.399 . S
C1659 C1658 1.399 . S
C1659 C1660 1.376 . S
C1660 H1647 0.930 . S
C1660 C1659 1.376 . S
C1660 C1661 1.388 . S
C1661 H1648 0.930 . S
C1661 C1660 1.388 . S
C1661 C1662 1.390 . S
C1662 C1661 1.390 . S
C1662 C1663 1.394 . S
C1662 C1668 1.465 . S
C1663 C1658 1.399 . S
C1663 C1662 1.394 . S
C1663 C1664 1.516 . S
C1664 C1663 1.516 . S
C1664 C1665 1.502 . S
C1664 C1666 1.561 . S
C1664 C1667 1.526 . S
C1665 H1649 0.959 . S
C1665 H1650 0.959 . S
C1665 H1651 0.961 . S
C1665 C1664 1.502 . S
C1666 H1652 0.960 . S
C1666 H1653 0.961 . S
C1666 H1654 0.959 . S
C1666 C1664 1.561 . S
C1667 C1664 1.526 . S
C1667 C1668 1.396 . S
C1667 C1672 1.390 1_554 S
C1668 C1662 1.465 . S
C1668 C1667 1.396 . S
C1668 C1669 1.399 1_554 S
C1669 H1655 0.929 . S
C1669 C1668 1.399 1_556 S
C1669 C1670 1.385 . S
C1670 H1656 0.931 . S
C1670 C1669 1.385 . S
C1670 C1671 1.389 . S
C1671 C1670 1.389 . S
C1671 C1672 1.387 . S
C1672 H1657 0.930 1_556 S
C1672 C1667 1.390 1_556 S
C1672 C1671 1.387 . S
H1673 C1685 0.930 . S
H1674 C1687 0.930 . S
H1675 C1688 0.930 . S
H1676 C1692 0.959 . S
H1677 C1692 0.959 . S
H1678 C1692 0.961 . S
H1679 C1693 0.960 . S
H1680 C1693 0.961 . S
H1681 C1693 0.959 . S
H1682 C1696 0.929 . S
H1683 C1697 0.931 . S
H1684 C1699 0.930 . S
C1685 H1673 0.930 . S
C1685 C1686 1.399 . S
C1685 C1690 1.399 . S
C1686 C1685 1.399 . S
C1686 C1687 1.376 . S
C1687 H1674 0.930 . S
C1687 C1686 1.376 . S
C1687 C1688 1.388 . S
C1688 H1675 0.930 . S
C1688 C1687 1.388 . S
C1688 C1689 1.390 . S
C1689 C1688 1.390 . S
C1689 C1690 1.394 . S
C1689 C1695 1.465 . S
C1690 C1685 1.399 . S
C1690 C1689 1.394 . S
C1690 C1691 1.516 . S
C1691 C1690 1.516 . S
C1691 C1692 1.502 . S
C1691 C1693 1.561 . S
C1691 C1694 1.526 . S
C1692 H1676 0.959 . S
C1692 H1677 0.959 . S
C1692 H1678 0.961 . S
C1692 C1691 1.502 . S
C1693 H1679 0.960 . S
C1693 H1680 0.961 . S
C1693 H1681 0.959 . S
C1693 C1691 1.561 . S
C1694 C1691 1.526 . S
C1694 C1695 1.396 . S
C1694 C1699 1.390 . S
C1695 C1689 1.465 . S
C1695 C1694 1.396 . S
C1695 C1696 1.399 . S
C1696 H1682 0.929 . S
C1696 C1695 1.399 . S
C1696 C1697 1.385 . S
C1697 H1683 0.931 . S
C1697 C1696 1.385 . S
C1697 C1698 1.389 . S
C1698 C1697 1.389 . S
C1698 C1699 1.387 . S
C1699 H1684 0.930 . S
C1699 C1694 1.390 . S
C1699 C1698 1.387 . S
H1700 C1712 0.930 . S
H1701 C1714 0.930 . S
H1702 C1715 0.930 . S
H1703 C1719 0.959 . S
H1704 C1719 0.959 . S
H1705 C1719 0.961 . S
H1706 C1720 0.960 . S
H1707 C1720 0.961 . S
H1708 C1720 0.959 . S
H1709 C1723 0.929 . S
H1710 C1724 0.931 . S
H1711 C1726 0.930 . S
C1712 H1700 0.930 . S
C1712 C1713 1.399 . S
C1712 C1717 1.399 . S
C1713 C1712 1.399 . S
C1713 C1714 1.376 . S
C1714 H1701 0.930 . S
C1714 C1713 1.376 . S
C1714 C1715 1.388 . S
C1715 H1702 0.930 . S
C1715 C1714 1.388 . S
C1715 C1716 1.390 . S
C1716 C1715 1.390 . S
C1716 C1717 1.394 . S
C1716 C1722 1.465 . S
C1717 C1712 1.399 . S
C1717 C1716 1.394 . S
C1717 C1718 1.516 . S
C1718 C1717 1.516 . S
C1718 C1719 1.502 . S
C1718 C1720 1.561 . S
C1718 C1721 1.526 . S
C1719 H1703 0.959 . S
C1719 H1704 0.959 . S
C1719 H1705 0.961 . S
C1719 C1718 1.502 . S
C1720 H1706 0.960 . S
C1720 H1707 0.961 . S
C1720 H1708 0.959 . S
C1720 C1718 1.561 . S
C1721 C1718 1.526 . S
C1721 C1722 1.396 . S
C1721 C1726 1.390 . S
C1722 C1716 1.465 . S
C1722 C1721 1.396 . S
C1722 C1723 1.399 . S
C1723 H1709 0.929 . S
C1723 C1722 1.399 . S
C1723 C1724 1.385 . S
C1724 H1710 0.931 . S
C1724 C1723 1.385 . S
C1724 C1725 1.389 . S
C1725 C1724 1.389 . S
C1725 C1726 1.387 . S
C1726 H1711 0.930 . S
C1726 C1721 1.390 . S
C1726 C1725 1.387 . S
H1727 C1739 0.930 . S
H1728 C1741 0.930 . S
H1729 C1742 0.930 . S
H1730 C1746 0.959 . S
H1731 C1746 0.959 . S
H1732 C1746 0.961 . S
H1733 C1747 0.960 . S
H1734 C1747 0.961 . S
H1735 C1747 0.959 . S
H1736 C1750 0.929 . S
H1737 C1751 0.931 . S
H1738 C1753 0.930 . S
C1739 H1727 0.930 . S
C1739 C1740 1.399 . S
C1739 C1744 1.399 . S
C1740 C1739 1.399 . S
C1740 C1741 1.376 . S
C1741 H1728 0.930 . S
C1741 C1740 1.376 . S
C1741 C1742 1.388 . S
C1742 H1729 0.930 . S
C1742 C1741 1.388 . S
C1742 C1743 1.390 . S
C1743 C1742 1.390 . S
C1743 C1744 1.394 . S
C1743 C1749 1.465 . S
C1744 C1739 1.399 . S
C1744 C1743 1.394 . S
C1744 C1745 1.516 . S
C1745 C1744 1.516 . S
C1745 C1746 1.502 . S
C1745 C1747 1.561 . S
C1745 C1748 1.526 . S
C1746 H1730 0.959 . S
C1746 H1731 0.959 . S
C1746 H1732 0.961 . S
C1746 C1745 1.502 . S
C1747 H1733 0.960 . S
C1747 H1734 0.961 . S
C1747 H1735 0.959 . S
C1747 C1745 1.561 . S
C1748 C1745 1.526 . S
C1748 C1749 1.396 . S
C1748 C1753 1.390 . S
C1749 C1743 1.465 . S
C1749 C1748 1.396 . S
C1749 C1750 1.399 . S
C1750 H1736 0.929 . S
C1750 C1749 1.399 . S
C1750 C1751 1.385 . S
C1751 H1737 0.931 . S
C1751 C1750 1.385 . S
C1751 C1752 1.389 . S
C1752 C1751 1.389 . S
C1752 C1753 1.387 . S
C1753 H1738 0.930 . S
C1753 C1748 1.390 . S
C1753 C1752 1.387 . S
H1754 C1766 0.930 . S
H1755 C1768 0.930 . S
H1756 C1769 0.930 . S
H1757 C1773 0.959 . S
H1758 C1773 0.959 . S
H1759 C1773 0.961 . S
H1760 C1774 0.960 . S
H1761 C1774 0.961 . S
H1762 C1774 0.959 . S
H1763 C1777 0.929 1_565 S
H1764 C1778 0.931 . S
H1765 C1780 0.930 1_554 S
C1766 H1754 0.930 . S
C1766 C1767 1.399 . S
C1766 C1771 1.399 . S
C1767 C1766 1.399 . S
C1767 C1768 1.376 . S
C1768 H1755 0.930 . S
C1768 C1767 1.376 . S
C1768 C1769 1.388 . S
C1769 H1756 0.930 . S
C1769 C1768 1.388 . S
C1769 C1770 1.390 . S
C1770 C1769 1.390 . S
C1770 C1771 1.394 . S
C1770 C1776 1.465 1_565 S
C1771 C1766 1.399 . S
C1771 C1770 1.394 . S
C1771 C1772 1.516 1_565 S
C1772 C1771 1.516 1_545 S
C1772 C1773 1.502 . S
C1772 C1774 1.561 . S
C1772 C1775 1.526 . S
C1773 H1757 0.959 . S
C1773 H1758 0.959 . S
C1773 H1759 0.961 . S
C1773 C1772 1.502 . S
C1774 H1760 0.960 . S
C1774 H1761 0.961 . S
C1774 H1762 0.959 . S
C1774 C1772 1.561 . S
C1775 C1772 1.526 . S
C1775 C1776 1.396 . S
C1775 C1780 1.390 1_554 S
C1776 C1770 1.465 1_545 S
C1776 C1775 1.396 . S
C1776 C1777 1.399 1_554 S
C1777 H1763 0.929 1_545 S
C1777 C1776 1.399 1_556 S
C1777 C1778 1.385 . S
C1778 H1764 0.931 . S
C1778 C1777 1.385 . S
C1778 C1779 1.389 . S
C1779 C1778 1.389 . S
C1779 C1780 1.387 . S
C1780 H1765 0.930 1_556 S
C1780 C1775 1.390 1_556 S
C1780 C1779 1.387 . S
H1781 C1793 0.930 . S
H1782 C1795 0.930 . S
H1783 C1796 0.930 1_565 S
H1784 C1800 0.959 . S
H1785 C1800 0.959 . S
H1786 C1800 0.961 . S
H1787 C1801 0.960 . S
H1788 C1801 0.961 . S
H1789 C1801 1.003 . S
H1790 C1804 0.929 . S
H1791 C1805 0.942 . S
H1792 C1807 0.930 . S
C1793 H1781 0.930 . S
C1793 C1794 1.399 . S
C1793 C1798 1.399 . S
C1794 C1793 1.399 . S
C1794 C1795 1.376 1_655 S
C1795 H1782 0.930 . S
C1795 C1794 1.376 1_455 S
C1795 C1796 1.388 . S
C1796 H1783 0.930 1_545 S
C1796 C1795 1.388 . S
C1796 C1797 1.390 1_455 S
C1797 C1796 1.390 1_655 S
C1797 C1798 1.394 . S
C1797 C1803 1.465 1_545 S
C1798 C1793 1.399 . S
C1798 C1797 1.394 . S
C1798 C1799 1.516 . S
C1799 C1798 1.516 . S
C1799 C1800 1.502 . S
C1799 C1801 1.561 . S
C1799 C1802 1.526 1_545 S
C1800 H1784 0.959 . S
C1800 H1785 0.959 . S
C1800 H1786 0.961 . S
C1800 C1799 1.502 . S
C1801 H1787 0.960 . S
C1801 H1788 0.961 . S
C1801 H1789 1.003 . S
C1801 C1799 1.561 . S
C1802 C1799 1.526 1_565 S
C1802 C1803 1.396 . S
C1802 C1807 1.390 . S
C1803 C1797 1.465 1_565 S
C1803 C1802 1.396 . S
C1803 C1804 1.399 1_655 S
C1804 H1790 0.929 . S
C1804 C1803 1.399 1_455 S
C1804 C1805 1.389 . S
C1805 H1791 0.942 . S
C1805 C1804 1.389 . S
C1805 C1806 1.375 1_455 S
C1806 C1805 1.375 1_655 S
C1806 C1807 1.387 . S
C1807 H1792 0.930 . S
C1807 C1802 1.390 . S
C1807 C1806 1.387 . S
C957 C564 1.758 . S
C969 C33 1.827 . S
C984 C859 1.776 . S
C996 C92 1.818 . S
C1011 C151 1.782 . S
C1023 C505 1.814 . S
C1038 C210 1.784 1_556 S
C1050 C918 1.812 . S
C1065 C269 1.786 . S
C1077 C623 1.810 1_556 S
C1092 C800 1.764 . S
C1104 C328 1.826 . S
C1119 C682 1.761 . S
C1131 C387 1.828 . S
C1146 C446 1.802 . S
C1158 C741 1.795 . S
C1173 C288 1.506 . S
C1185 C229 1.507 . S
C1200 C760 1.524 . S
C1212 C524 1.500 . S
C1227 C406 1.503 . S
C1239 C111 1.510 . S
C1254 C583 1.523 . S
C1266 C819 1.502 . S
C1281 C52 1.497 . S
C1293 C347 1.520 . S
C1308 C937 1.498 . S
C1320 C642 1.518 . S
C1335 C465 1.519 . S
C1347 C170 1.509 . S
C1362 C701 1.523 . S
C1374 C878 1.502 . S
C1389 C3 0.560 . S
C1401 C239 0.470 . S
C1416 C298 0.584 . S
C1428 C62 0.521 . S
C1443 C357 0.590 . S
C1455 C121 0.500 . S
C1470 C180 0.477 . S
C1482 C416 0.541 . S
C1497 C593 0.557 . S
C1509 C475 0.558 . S
C1524 C652 0.586 . S
C1536 C534 0.516 . S
C1551 C829 0.499 . S
C1563 C711 0.589 . S
C1578 C888 0.563 . S
C1590 C770 0.552 . S
C1605 C241 1.955 . S
C1617 C5 1.978 . S
C1632 C300 1.967 . S
C1644 C64 1.981 . S
C1659 C359 1.984 . S
C1671 C123 1.958 . S
C1686 C182 1.973 . S
C1698 C418 1.957 . S
C1713 C477 1.969 . S
C1725 C595 1.981 . S
C1740 C654 1.972 . S
C1752 C536 1.978 . S
C1767 C831 1.983 . S
C1779 C713 1.965 . S
C1794 C890 1.957 . S
C1806 C772 1.973 . S
