# Generated by pormake.
# Topology lcy-a, (4)-cn, num edge types: 1
# Building blocks:
#     Node 0, Type 0, BuildingBlock: KUFVIS_clean_sbu_0, # of connection points: 4
#     Node 1, Type 0, BuildingBlock: KUFVIS_clean_sbu_0, # of connection points: 4
#     Node 2, Type 0, BuildingBlock: KUFVIS_clean_sbu_0, # of connection points: 4
#     Node 3, Type 0, BuildingBlock: KUFVIS_clean_sbu_0, # of connection points: 4
#     Node 4, Type 0, BuildingBlock: KUFVIS_clean_sbu_0, # of connection points: 4
#     Node 5, Type 0, BuildingBlock: KUFVIS_clean_sbu_0, # of connection points: 4
#     Node 6, Type 0, BuildingBlock: KUFVIS_clean_sbu_0, # of connection points: 4
#     Node 7, Type 0, BuildingBlock: KUFVIS_clean_sbu_0, # of connection points: 4
#     Node 8, Type 0, BuildingBlock: KUFVIS_clean_sbu_0, # of connection points: 4
#     Node 9, Type 0, BuildingBlock: KUFVIS_clean_sbu_0, # of connection points: 4
#     Node 10, Type 0, BuildingBlock: KUFVIS_clean_sbu_0, # of connection points: 4
#     Node 11, Type 0, BuildingBlock: KUFVIS_clean_sbu_0, # of connection points: 4
#     Node 12, Type 0, BuildingBlock: KUFVIS_clean_sbu_0, # of connection points: 4
#     Node 13, Type 0, BuildingBlock: KUFVIS_clean_sbu_0, # of connection points: 4
#     Node 14, Type 0, BuildingBlock: KUFVIS_clean_sbu_0, # of connection points: 4
#     Node 15, Type 0, BuildingBlock: KUFVIS_clean_sbu_0, # of connection points: 4
#     Node 16, Type 0, BuildingBlock: KUFVIS_clean_sbu_0, # of connection points: 4
#     Node 17, Type 0, BuildingBlock: KUFVIS_clean_sbu_0, # of connection points: 4
#     Node 18, Type 0, BuildingBlock: KUFVIS_clean_sbu_0, # of connection points: 4
#     Node 19, Type 0, BuildingBlock: KUFVIS_clean_sbu_0, # of connection points: 4
#     Node 20, Type 0, BuildingBlock: KUFVIS_clean_sbu_0, # of connection points: 4
#     Node 21, Type 0, BuildingBlock: KUFVIS_clean_sbu_0, # of connection points: 4
#     Node 22, Type 0, BuildingBlock: KUFVIS_clean_sbu_0, # of connection points: 4
#     Node 23, Type 0, BuildingBlock: KUFVIS_clean_sbu_0, # of connection points: 4
#     Edge 24, Type (0, 0), BuildingBlock: KIFKEQ_clean_linker_1, # of connection points: 2
#     Edge 25, Type (0, 0), BuildingBlock: KIFKEQ_clean_linker_1, # of connection points: 2
#     Edge 26, Type (0, 0), BuildingBlock: KIFKEQ_clean_linker_1, # of connection points: 2
#     Edge 27, Type (0, 0), BuildingBlock: KIFKEQ_clean_linker_1, # of connection points: 2
#     Edge 28, Type (0, 0), BuildingBlock: KIFKEQ_clean_linker_1, # of connection points: 2
#     Edge 29, Type (0, 0), BuildingBlock: KIFKEQ_clean_linker_1, # of connection points: 2
#     Edge 30, Type (0, 0), BuildingBlock: KIFKEQ_clean_linker_1, # of connection points: 2
#     Edge 31, Type (0, 0), BuildingBlock: KIFKEQ_clean_linker_1, # of connection points: 2
#     Edge 32, Type (0, 0), BuildingBlock: KIFKEQ_clean_linker_1, # of connection points: 2
#     Edge 33, Type (0, 0), BuildingBlock: KIFKEQ_clean_linker_1, # of connection points: 2
#     Edge 34, Type (0, 0), BuildingBlock: KIFKEQ_clean_linker_1, # of connection points: 2
#     Edge 35, Type (0, 0), BuildingBlock: KIFKEQ_clean_linker_1, # of connection points: 2
#     Edge 36, Type (0, 0), BuildingBlock: KIFKEQ_clean_linker_1, # of connection points: 2
#     Edge 37, Type (0, 0), BuildingBlock: KIFKEQ_clean_linker_1, # of connection points: 2
#     Edge 38, Type (0, 0), BuildingBlock: KIFKEQ_clean_linker_1, # of connection points: 2
#     Edge 39, Type (0, 0), BuildingBlock: KIFKEQ_clean_linker_1, # of connection points: 2
#     Edge 40, Type (0, 0), BuildingBlock: KIFKEQ_clean_linker_1, # of connection points: 2
#     Edge 41, Type (0, 0), BuildingBlock: KIFKEQ_clean_linker_1, # of connection points: 2
#     Edge 42, Type (0, 0), BuildingBlock: KIFKEQ_clean_linker_1, # of connection points: 2
#     Edge 43, Type (0, 0), BuildingBlock: KIFKEQ_clean_linker_1, # of connection points: 2
#     Edge 44, Type (0, 0), BuildingBlock: KIFKEQ_clean_linker_1, # of connection points: 2
#     Edge 45, Type (0, 0), BuildingBlock: KIFKEQ_clean_linker_1, # of connection points: 2
#     Edge 46, Type (0, 0), BuildingBlock: KIFKEQ_clean_linker_1, # of connection points: 2
#     Edge 47, Type (0, 0), BuildingBlock: KIFKEQ_clean_linker_1, # of connection points: 2
#     Edge 48, Type (0, 0), BuildingBlock: KIFKEQ_clean_linker_1, # of connection points: 2
#     Edge 49, Type (0, 0), BuildingBlock: KIFKEQ_clean_linker_1, # of connection points: 2
#     Edge 50, Type (0, 0), BuildingBlock: KIFKEQ_clean_linker_1, # of connection points: 2
#     Edge 51, Type (0, 0), BuildingBlock: KIFKEQ_clean_linker_1, # of connection points: 2
#     Edge 52, Type (0, 0), BuildingBlock: KIFKEQ_clean_linker_1, # of connection points: 2
#     Edge 53, Type (0, 0), BuildingBlock: KIFKEQ_clean_linker_1, # of connection points: 2
#     Edge 54, Type (0, 0), BuildingBlock: KIFKEQ_clean_linker_1, # of connection points: 2
#     Edge 55, Type (0, 0), BuildingBlock: KIFKEQ_clean_linker_1, # of connection points: 2
#     Edge 56, Type (0, 0), BuildingBlock: KIFKEQ_clean_linker_1, # of connection points: 2
#     Edge 57, Type (0, 0), BuildingBlock: KIFKEQ_clean_linker_1, # of connection points: 2
#     Edge 58, Type (0, 0), BuildingBlock: KIFKEQ_clean_linker_1, # of connection points: 2
#     Edge 59, Type (0, 0), BuildingBlock: KIFKEQ_clean_linker_1, # of connection points: 2
#     Edge 60, Type (0, 0), BuildingBlock: KIFKEQ_clean_linker_1, # of connection points: 2
#     Edge 61, Type (0, 0), BuildingBlock: KIFKEQ_clean_linker_1, # of connection points: 2
#     Edge 62, Type (0, 0), BuildingBlock: KIFKEQ_clean_linker_1, # of connection points: 2
#     Edge 63, Type (0, 0), BuildingBlock: KIFKEQ_clean_linker_1, # of connection points: 2
#     Edge 64, Type (0, 0), BuildingBlock: KIFKEQ_clean_linker_1, # of connection points: 2
#     Edge 65, Type (0, 0), BuildingBlock: KIFKEQ_clean_linker_1, # of connection points: 2
#     Edge 66, Type (0, 0), BuildingBlock: KIFKEQ_clean_linker_1, # of connection points: 2
#     Edge 67, Type (0, 0), BuildingBlock: KIFKEQ_clean_linker_1, # of connection points: 2
#     Edge 68, Type (0, 0), BuildingBlock: KIFKEQ_clean_linker_1, # of connection points: 2
#     Edge 69, Type (0, 0), BuildingBlock: KIFKEQ_clean_linker_1, # of connection points: 2
#     Edge 70, Type (0, 0), BuildingBlock: KIFKEQ_clean_linker_1, # of connection points: 2
#     Edge 71, Type (0, 0), BuildingBlock: KIFKEQ_clean_linker_1, # of connection points: 2
# Relax obj value: 0.405
# Max RMSD: 0.182
# Mean RMSD: 0.182
data_MOF--net-lcy-a--node1-KUFVIS_clean_sbu_0--edge1-KIFKEQ_clean_linker_1
_symmetry_space_group_name_H-M    P1
_symmetry_Int_Tables_number       1
_symmetry_cell_setting            triclinic
loop_
_symmetry_equiv_pos_as_xyz
'x, y, z'
_cell_length_a     56.991041
_cell_length_b     57.026556
_cell_length_c     57.052373
_cell_angle_alpha  90.017173
_cell_angle_beta   90.044297
_cell_angle_gamma 90.005368
loop_
_atom_site_label
_atom_site_type_symbol
_atom_site_fract_x
_atom_site_fract_y
_atom_site_fract_z
_atom_type_partial_charge
Mn0 Mn 0.22788 0.28727 0.42461 0.0
Mn1 Mn 0.25336 0.25634 0.46799 0.0
C2 C 0.25178 0.25591 0.41583 0.0
C3 C 0.22764 0.31852 0.39855 0.0
C4 C 0.20184 0.25244 0.45535 0.0
O5 O 0.2251 0.30876 0.4528 0.0
O6 O 0.24519 0.28814 0.47998 0.0
C7 C 0.29716 0.28372 0.47359 0.0
N8 N 0.28624 0.26304 0.46872 0.0
C9 C 0.32323 0.24379 0.46206 0.0
C10 C 0.33487 0.26485 0.46716 0.0
C11 C 0.32177 0.2849 0.47295 0.0
C12 C 0.29868 0.24361 0.46323 0.0
H13 H 0.28717 0.29924 0.47785 0.0
C14 C 0.23398 0.30647 0.47324 0.0
O15 O 0.2083 0.30846 0.40509 0.0
O16 O 0.24705 0.31081 0.40766 0.0
N17 N 0.2624 0.22554 0.45814 0.0
C18 C 0.24847 0.20696 0.45248 0.0
C19 C 0.25885 0.18568 0.4457 0.0
C20 C 0.2834 0.18373 0.44479 0.0
C21 C 0.29738 0.20307 0.45079 0.0
C22 C 0.28606 0.22374 0.4577 0.0
H23 H 0.22959 0.20842 0.45297 0.0
O24 O 0.23636 0.26315 0.4007 0.0
O25 O 0.25257 0.26731 0.43551 0.0
O26 O 0.20267 0.26615 0.43783 0.0
O27 O 0.21959 0.2479 0.4683 0.0
C28 C 0.32208 0.20278 0.44973 0.0
C29 C 0.33499 0.22312 0.45536 0.0
H30 H 0.35384 0.26588 0.46648 0.0
H31 H 0.33062 0.30124 0.4768 0.0
H32 H 0.24794 0.17086 0.44103 0.0
H33 H 0.29133 0.16737 0.43929 0.0
H34 H 0.33131 0.18707 0.44434 0.0
H35 H 0.35396 0.22276 0.45421 0.0
Mn36 Mn 0.95917 0.97199 0.66549 0.0
Mn37 Mn 0.98327 -0.00102 0.71217 0.0
C38 C 0.98444 0.00307 0.66024 0.0
C39 C 0.92902 0.96768 0.63862 0.0
C40 C -0.00158 0.95108 0.69468 0.0
O41 O 0.93854 0.96156 0.69261 0.0
O42 O 0.95349 0.98368 0.72188 0.0
C43 C 0.94748 0.0357 0.72039 0.0
N44 N 0.97007 0.02963 0.71551 0.0
C45 C 0.98158 0.07015 0.71282 0.0
C46 C 0.95848 0.07682 0.71798 0.0
C47 C 0.94136 0.05951 0.72178 0.0
C48 C 0.9867 0.04614 0.71188 0.0
H49 H 0.93419 0.02248 0.72312 0.0
C50 C 0.93813 0.96945 0.71359 0.0
O51 O 0.9433 0.95054 0.64312 0.0
O52 O 0.93183 0.98711 0.65015 0.0
N53 N 0.01185 0.01486 0.70445 0.0
C54 C 0.03308 0.00552 0.69865 0.0
C55 C 0.05204 0.02051 0.69393 0.0
C56 C 0.04899 0.04492 0.6952 0.0
C57 C 0.02702 0.05413 0.70132 0.0
C58 C 0.00885 0.03832 0.70616 0.0
H59 H 0.0355 0.98678 0.69752 0.0
O60 O 0.98086 0.98826 0.64333 0.0
O61 O 0.97305 -0.00086 0.6795 0.0
O62 O 0.98545 0.95094 0.67657 0.0
O63 O -0.00166 0.96769 0.70975 0.0
C64 C 0.02234 0.07836 0.7024 0.0
C65 C -0.00037 0.08637 0.70812 0.0
H66 H 0.95365 0.09517 0.71889 0.0
H67 H 0.92346 0.06452 0.72564 0.0
H68 H 0.06893 0.01328 0.68917 0.0
H69 H 0.06359 0.05643 0.69128 0.0
H70 H 0.03601 0.091 0.69862 0.0
H71 H -0.00382 0.10504 0.70864 0.0
Mn72 Mn 0.26709 0.70306 0.92633 0.0
Mn73 Mn 0.24226 0.73398 0.97006 0.0
C74 C 0.23852 0.73026 0.918 0.0
C75 C 0.26946 0.66994 0.90299 0.0
C76 C 0.29111 0.74347 0.95125 0.0
O77 O 0.27611 0.6849 0.9555 0.0
O78 O 0.25549 0.70438 0.98305 0.0
C79 C 0.20305 0.70195 0.98168 0.0
N80 N 0.21072 0.72343 0.97458 0.0
C81 C 0.17111 0.73747 0.97049 0.0
C82 C 0.16279 0.71556 0.97792 0.0
C83 C 0.17885 0.69772 0.98353 0.0
C84 C 0.19543 0.74072 0.96915 0.0
H85 H 0.21531 0.68811 0.98581 0.0
C86 C 0.26868 0.68737 0.97646 0.0
O87 O 0.2875 0.68339 0.90635 0.0
O88 O 0.25008 0.67534 0.91369 0.0
N89 N 0.22845 0.76272 0.95953 0.0
C90 C 0.2393 0.78267 0.95209 0.0
C91 C 0.2257 0.80216 0.94561 0.0
C92 C 0.20111 0.80095 0.94688 0.0
C93 C 0.19035 0.78032 0.95482 0.0
C94 C 0.20482 0.76158 0.96136 0.0
H95 H 0.25819 0.78367 0.95098 0.0
O96 O 0.25285 0.72337 0.90174 0.0
O97 O 0.2411 0.72061 0.93846 0.0
O98 O 0.29008 0.72863 0.9347 0.0
O99 O 0.27463 0.74641 0.96619 0.0
C100 C 0.16582 0.77751 0.95621 0.0
C101 C 0.15621 0.75609 0.964 0.0
H102 H 0.14413 0.71218 0.97923 0.0
H103 H 0.17257 0.68072 0.98916 0.0
H104 H 0.23414 0.81802 0.93951 0.0
H105 H 0.19068 0.81592 0.94161 0.0
H106 H 0.15419 0.79165 0.95114 0.0
H107 H 0.13732 0.75407 0.96479 0.0
Mn108 Mn 0.54425 0.02599 0.1531 0.0
Mn109 Mn 0.5178 -0.00198 0.19791 0.0
C110 C 0.51756 -0.00349 0.14578 0.0
C111 C 0.5757 0.02939 0.12759 0.0
C112 C 0.50496 0.04721 0.18215 0.0
O113 O 0.56455 0.03441 0.18112 0.0
O114 O 0.5478 0.01192 0.20904 0.0
C115 C 0.55216 0.95978 0.20535 0.0
N116 N 0.52987 0.96682 0.20034 0.0
C117 C 0.51692 0.92686 0.19619 0.0
C118 C 0.53969 0.91919 0.20147 0.0
C119 C 0.55738 0.93573 0.20605 0.0
C120 C 0.51271 0.95106 0.19592 0.0
H121 H 0.56586 0.97243 0.20869 0.0
C122 C 0.56391 0.02587 0.20181 0.0
O123 O 0.56219 0.0472 0.13195 0.0
O124 O 0.5712 0.00985 0.13828 0.0
N125 N 0.48885 0.98346 0.18903 0.0
C126 C 0.46804 0.99375 0.18331 0.0
C127 C 0.44859 0.97962 0.17789 0.0
C128 C 0.45073 0.95508 0.17842 0.0
C129 C 0.47227 0.94489 0.18453 0.0
C130 C 0.49095 0.95986 0.19009 0.0
H131 H 0.46631 0.01259 0.18279 0.0
O132 O 0.52244 0.01173 0.12961 0.0
O133 O 0.52861 -0.00102 0.1655 0.0
O134 O 0.51859 0.04794 0.16449 0.0
O135 O 0.50393 0.02979 0.19622 0.0
C136 C 0.47604 0.92047 0.18494 0.0
C137 C 0.49836 0.91147 0.19073 0.0
H138 H 0.54384 0.90065 0.20186 0.0
H139 H 0.57503 0.92995 0.21001 0.0
H140 H 0.43203 0.98762 0.17316 0.0
H141 H 0.43577 0.94425 0.17395 0.0
H142 H 0.46197 0.90847 0.18057 0.0
H143 H 0.50112 0.89267 0.19072 0.0
Mn144 Mn 0.72278 0.213 0.56761 0.0
Mn145 Mn 0.75581 0.24493 0.53054 0.0
C146 C 0.75123 0.23762 0.58222 0.0
C147 C 0.71589 0.17855 0.58804 0.0
C148 C 0.70518 0.2562 0.54225 0.0
O149 O 0.71744 0.19732 0.53607 0.0
O150 O 0.74389 0.21665 0.51387 0.0
C151 C 0.79536 0.21211 0.52306 0.0
N152 N 0.78735 0.23351 0.53004 0.0
C153 C 0.82641 0.24614 0.53998 0.0
C154 C 0.83509 0.22434 0.5326 0.0
C155 C 0.81948 0.20726 0.52413 0.0
C156 C 0.80222 0.25011 0.53816 0.0
H157 H 0.78341 0.19878 0.5169 0.0
C158 C 0.72882 0.20021 0.51701 0.0
O159 O 0.69892 0.19297 0.58328 0.0
O160 O 0.73664 0.18374 0.58029 0.0
N161 N 0.76866 0.27231 0.54518 0.0
C162 C 0.75725 0.29155 0.55358 0.0
C163 C 0.77023 0.30982 0.56379 0.0
C164 C 0.79477 0.30814 0.56527 0.0
C165 C 0.80613 0.2882 0.55647 0.0
C166 C 0.79231 0.27065 0.54623 0.0
H167 H 0.73838 0.29286 0.55268 0.0
O168 O 0.73409 0.2307 0.59549 0.0
O169 O 0.75129 0.22961 0.5609 0.0
O170 O 0.70266 0.24059 0.55794 0.0
O171 O 0.72379 0.25856 0.53001 0.0
C172 C 0.83057 0.28477 0.55803 0.0
C173 C 0.8407 0.26377 0.54978 0.0
H174 H 0.85363 0.22037 0.5337 0.0
H175 H 0.82602 0.19031 0.51864 0.0
H176 H 0.76132 0.32511 0.57065 0.0
H177 H 0.80468 0.32215 0.57342 0.0
H178 H 0.84169 0.29801 0.56591 0.0
H179 H 0.85944 0.26118 0.5515 0.0
Mn180 Mn 0.04371 0.47277 0.81544 0.0
Mn181 Mn 0.01103 0.4989 0.77356 0.0
C182 C 0.01766 0.50191 0.82526 0.0
C183 C 0.07748 0.46931 0.83779 0.0
C184 C 0.00038 0.45076 0.79308 0.0
O185 O 0.06044 0.4637 0.78559 0.0
O186 O 0.03863 0.48312 0.75895 0.0
C187 C 0.04552 0.53506 0.75927 0.0
N188 N 0.02391 0.52934 0.76775 0.0
C189 C 0.01355 0.57006 0.7719 0.0
C190 C 0.03562 0.57636 0.76306 0.0
C191 C 0.05167 0.55877 0.75673 0.0
C192 C 0.00836 0.54613 0.77393 0.0
H193 H 0.05802 0.52164 0.75458 0.0
C194 C 0.05613 0.47013 0.76461 0.0
O195 O 0.06357 0.45162 0.83447 0.0
O196 O 0.07227 0.4889 0.82741 0.0
N197 N 0.98417 0.51529 0.78535 0.0
C198 C 0.96367 0.50631 0.79374 0.0
C199 C 0.94571 0.52162 0.8008 0.0
C200 C 0.94899 0.54598 0.79912 0.0
C201 C 0.9701 0.5548 0.79012 0.0
C202 C 0.98723 0.53869 0.78302 0.0
H203 H 0.96112 0.48763 0.79524 0.0
O204 O 0.02474 0.48707 0.84098 0.0
O205 O 0.02633 0.49946 0.80434 0.0
O206 O 0.0173 0.45054 0.80758 0.0
O207 O -0.00383 0.46784 0.77917 0.0
C208 C 0.9749 0.57896 0.78812 0.0
C209 C -0.00337 0.58658 0.77906 0.0
H210 H 0.04047 0.59463 0.76118 0.0
H211 H 0.06878 0.56348 0.75001 0.0
H212 H 0.92946 0.51467 0.8077 0.0
H213 H 0.93521 0.55773 0.80485 0.0
H214 H 0.96206 0.59183 0.79362 0.0
H215 H 0.00018 0.6052 0.77775 0.0
Mn216 Mn 0.77132 0.77179 0.07145 0.0
Mn217 Mn 0.74273 0.74368 0.02798 0.0
C218 C 0.74047 0.74727 0.08005 0.0
C219 C 0.77737 0.80421 0.09509 0.0
C220 C 0.79086 0.72958 0.04564 0.0
O221 O 0.78116 0.78958 0.04221 0.0
O222 O 0.75818 0.77213 0.01509 0.0
C223 C 0.70625 0.77918 0.01755 0.0
N224 N 0.71215 0.75703 0.02428 0.0
C225 C 0.67154 0.74643 0.02892 0.0
C226 C 0.66503 0.76907 0.02188 0.0
C227 C 0.68247 0.78552 0.01619 0.0
C228 C 0.69551 0.74107 0.0298 0.0
H229 H 0.71959 0.79195 0.01333 0.0
C230 C 0.77285 0.78798 0.02147 0.0
O231 O 0.79397 0.78916 0.09125 0.0
O232 O 0.75732 0.80078 0.08479 0.0
N233 N 0.72666 0.71614 0.03853 0.0
C234 C 0.73586 0.6952 0.04546 0.0
C235 C 0.72072 0.67687 0.05189 0.0
C236 C 0.69632 0.68023 0.0511 0.0
C237 C 0.68725 0.70185 0.04367 0.0
C238 C 0.70319 0.71936 0.03715 0.0
H239 H 0.7546 0.69254 0.04617 0.0
O240 O 0.75574 0.75254 0.0961 0.0
O241 O 0.74355 0.75686 0.05966 0.0
O242 O 0.79158 0.7443 0.06231 0.0
O243 O 0.77394 0.72838 0.03095 0.0
C244 C 0.66304 0.70679 0.04275 0.0
C245 C 0.65519 0.72907 0.03541 0.0
H246 H 0.64671 0.77406 0.02093 0.0
H247 H 0.6776 0.80306 0.01086 0.0
H248 H 0.72785 0.66023 0.05758 0.0
H249 H 0.68471 0.66613 0.05632 0.0
H250 H 0.65031 0.69363 0.04782 0.0
H251 H 0.63654 0.73272 0.03497 0.0
Mn252 Mn 0.43882 0.52105 0.31396 0.0
Mn253 Mn 0.46998 0.49258 0.27243 0.0
C254 C 0.46486 0.49197 0.32442 0.0
C255 C 0.40654 0.5267 0.33796 0.0
C256 C 0.48116 0.54172 0.28875 0.0
O257 O 0.42058 0.52809 0.28432 0.0
O258 O 0.44181 0.50754 0.25798 0.0
C259 C 0.43556 0.45559 0.26018 0.0
N260 N 0.45731 0.46184 0.26791 0.0
C261 C 0.4688 0.4214 0.27173 0.0
C262 C 0.44659 0.41455 0.26365 0.0
C263 C 0.4299 0.43173 0.25787 0.0
C264 C 0.47354 0.44545 0.27342 0.0
H265 H 0.4226 0.4687 0.25584 0.0
C266 C 0.42423 0.52048 0.26358 0.0
O267 O 0.42039 0.54383 0.33241 0.0
O268 O 0.41075 0.5063 0.32869 0.0
N269 N 0.49719 0.4769 0.28437 0.0
C270 C 0.51714 0.48636 0.29353 0.0
C271 C 0.53527 0.47149 0.30107 0.0
C272 C 0.53272 0.44707 0.29909 0.0
C273 C 0.51207 0.43773 0.28953 0.0
C274 C 0.49468 0.45342 0.2821 0.0
H275 H 0.5191 0.5051 0.29532 0.0
O276 O 0.45898 0.5081 0.33937 0.0
O277 O 0.45544 0.49343 0.3037 0.0
O278 O 0.46473 0.54276 0.30366 0.0
O279 O 0.48501 0.52381 0.2759 0.0
C280 C 0.50783 0.41346 0.2876 0.0
C281 C 0.48621 0.4053 0.2787 0.0
H282 H 0.44208 0.39616 0.26205 0.0
H283 H 0.41267 0.42659 0.25174 0.0
H284 H 0.55112 0.47882 0.30854 0.0
H285 H 0.54664 0.43565 0.30518 0.0
H286 H 0.52093 0.40092 0.29326 0.0
H287 H 0.48303 0.3866 0.27763 0.0
Mn288 Mn 0.40646 0.21445 0.28359 0.0
Mn289 Mn 0.44962 0.24483 0.25699 0.0
C290 C 0.39735 0.24375 0.25732 0.0
C291 C 0.38193 0.20939 0.31555 0.0
C292 C 0.43611 0.19503 0.24386 0.0
O293 O 0.43516 0.2071 0.30334 0.0
O294 O 0.46176 0.23122 0.28669 0.0
C295 C 0.4555 0.28311 0.29159 0.0
N296 N 0.45061 0.27602 0.26931 0.0
C297 C 0.44446 0.31584 0.25677 0.0
C298 C 0.4496 0.32358 0.27953 0.0
C299 C 0.45511 0.30713 0.29702 0.0
C300 C 0.44528 0.29169 0.25235 0.0
H301 H 0.45957 0.27052 0.30514 0.0
C302 C 0.45541 0.21664 0.30259 0.0
O303 O 0.38671 0.19199 0.30168 0.0
O304 O 0.39141 0.22954 0.31096 0.0
N305 N 0.43978 0.25919 0.22827 0.0
C306 C 0.4345 0.24881 0.20741 0.0
C307 C 0.4283 0.26283 0.18814 0.0
C308 C 0.42763 0.28734 0.1905 0.0
C309 C 0.43334 0.29764 0.21209 0.0
C310 C 0.43971 0.2828 0.23058 0.0
H311 H 0.43492 0.22998 0.2055 0.0
O312 O 0.38195 0.22777 0.26235 0.0
O313 O 0.41734 0.24218 0.26807 0.0
O314 O 0.41852 0.19338 0.25752 0.0
O315 O 0.44937 0.21311 0.24289 0.0
C316 C 0.43263 0.32202 0.21607 0.0
C317 C 0.43815 0.33111 0.2384 0.0
H318 H 0.44918 0.34209 0.28382 0.0
H319 H 0.45897 0.31295 0.31466 0.0
H320 H 0.42391 0.25475 0.17154 0.0
H321 H 0.42257 0.29807 0.17567 0.0
H322 H 0.42762 0.33391 0.20214 0.0
H323 H 0.4373 0.34987 0.24131 0.0
Mn324 Mn 0.01497 0.17923 0.54795 0.0
Mn325 Mn 0.99195 0.22648 0.52104 0.0
C326 C 0.98791 0.1742 0.51835 0.0
C327 C 0.01567 0.15198 0.57798 0.0
C328 C 0.0415 0.20895 0.51285 0.0
O329 O 0.02229 0.20591 0.57027 0.0
O330 O 0.00271 0.23568 0.55302 0.0
C331 C 0.95038 0.23572 0.55073 0.0
N332 N 0.95973 0.23063 0.52936 0.0
C333 C 0.92153 0.23058 0.51137 0.0
C334 C 0.91152 0.23598 0.53315 0.0
C335 C 0.926 0.23854 0.55291 0.0
C336 C 0.94597 0.22832 0.51018 0.0
H337 H 0.96142 0.2376 0.566 0.0
C338 C 0.01452 0.22691 0.57009 0.0
O339 O 0.03442 0.15702 0.56615 0.0
O340 O -0.00352 0.1631 0.57273 0.0
N341 N 0.98046 0.21925 0.49033 0.0
C342 C 0.99269 0.21227 0.47104 0.0
C343 C 0.98064 0.20784 0.45003 0.0
C344 C 0.95617 0.21063 0.44906 0.0
C345 C 0.94396 0.21784 0.46913 0.0
C346 C 0.95693 0.22218 0.48954 0.0
H347 H 0.01147 0.20993 0.47172 0.0
O348 O 0.00231 0.15743 0.52385 0.0
O349 O 0.98976 0.19342 0.53051 0.0
O350 O 0.03963 0.19063 0.5253 0.0
O351 O 0.02507 0.22401 0.51072 0.0
C352 C 0.91937 0.22036 0.46984 0.0
C353 C 0.90817 0.22677 0.49093 0.0
H354 H 0.89274 0.23798 0.53494 0.0
H355 H 0.91838 0.2426 0.5698 0.0
H356 H 0.99017 0.20218 0.43464 0.0
H357 H 0.94692 0.20699 0.43287 0.0
H358 H 0.90888 0.21711 0.45433 0.0
H359 H 0.88923 0.22835 0.49134 0.0
Mn360 Mn 0.07956 0.77215 0.78893 0.0
Mn361 Mn 0.03603 0.74699 0.75781 0.0
C362 C 0.088 0.74336 0.76192 0.0
C363 C 0.10266 0.77415 0.8223 0.0
C364 C 0.0547 0.79591 0.7483 0.0
O365 O 0.05024 0.7811 0.80698 0.0
O366 O 0.02288 0.76046 0.78715 0.0
C367 C 0.02409 0.70807 0.79001 0.0
N368 N 0.03137 0.71556 0.76854 0.0
C369 C 0.03526 0.67586 0.75475 0.0
C370 C 0.02765 0.66773 0.77665 0.0
C371 C 0.02205 0.68391 0.79436 0.0
C372 C 0.03677 0.70015 0.75137 0.0
H373 H 0.01995 0.72043 0.80375 0.0
C374 C 0.02928 0.77365 0.80423 0.0
O375 O 0.0997 0.79232 0.80892 0.0
O376 O 0.09183 0.75495 0.81661 0.0
N377 N 0.04679 0.73296 0.72928 0.0
C378 C 0.05456 0.74364 0.70938 0.0
C379 C 0.06115 0.72989 0.69005 0.0
C380 C 0.05966 0.70534 0.69136 0.0
C381 C 0.05141 0.69475 0.71194 0.0
C382 C 0.04479 0.70936 0.73053 0.0
H383 H 0.05584 0.7625 0.70831 0.0
O384 O 0.10425 0.75778 0.76873 0.0
O385 O 0.0675 0.7461 0.77141 0.0
O386 O 0.07118 0.79521 0.7633 0.0
O387 O 0.04006 0.77918 0.74525 0.0
C388 C 0.04983 0.67026 0.71487 0.0
C389 C 0.04179 0.66082 0.73626 0.0
H390 H 0.0262 0.64911 0.78012 0.0
H391 H 0.01628 0.67777 0.81135 0.0
H392 H 0.06751 0.73819 0.67422 0.0
H393 H 0.06502 0.69479 0.67651 0.0
H394 H 0.05496 0.65852 0.70085 0.0
H395 H 0.04086 0.64197 0.73839 0.0
Mn396 Mn 0.47591 0.82263 0.03465 0.0
Mn397 Mn 0.49936 0.77508 0.00863 0.0
C398 C 0.50487 0.82693 0.0069 0.0
C399 C 0.47464 0.84965 0.06488 0.0
C400 C 0.45112 0.79427 -0.00301 0.0
O401 O 0.46615 0.79596 0.05607 0.0
O402 O 0.48529 0.76572 0.03914 0.0
C403 C 0.53771 0.76529 0.0423 0.0
N404 N 0.53058 0.77053 0.02011 0.0
C405 C 0.5705 0.77181 0.00642 0.0
C406 C 0.57826 0.76628 0.02908 0.0
C407 C 0.56178 0.76301 0.04709 0.0
C408 C 0.54628 0.77367 0.00264 0.0
H409 H 0.52514 0.76296 0.05625 0.0
C410 C 0.4726 0.77452 0.05551 0.0
O411 O 0.45634 0.84554 0.05197 0.0
O412 O 0.49353 0.83765 0.06065 0.0
N413 N 0.51391 0.78218 0.97923 0.0
C414 C 0.50359 0.78807 0.95851 0.0
C415 C 0.51767 0.79217 0.93873 0.0
C416 C 0.54218 0.79016 0.94048 0.0
C417 C 0.55239 0.78388 0.96194 0.0
C418 C 0.53745 0.77968 0.98096 0.0
H419 H 0.48477 0.78977 0.9571 0.0
O420 O 0.49092 0.84427 0.01169 0.0
O421 O 0.50149 0.80778 0.01871 0.0
O422 O 0.45249 0.81211 0.01024 0.0
O423 O 0.46732 0.77882 0.99541 0.0
C424 C 0.57681 0.78192 0.96529 0.0
C425 C 0.58586 0.77592 0.98752 0.0
H426 H 0.59682 0.76465 0.03289 0.0
H427 H 0.56763 0.75885 0.06466 0.0
H428 H 0.50967 0.79703 0.92223 0.0
H429 H 0.553 0.7936 0.92525 0.0
H430 H 0.5888 0.78518 0.95094 0.0
H431 H 0.60468 0.77467 0.98993 0.0
Mn432 Mn 0.89774 0.26957 0.7328 0.0
Mn433 Mn 0.94097 0.24754 0.76614 0.0
C434 C 0.8893 0.24217 0.76132 0.0
C435 C 0.87579 0.26816 0.69862 0.0
C436 C 0.92235 0.29726 0.77063 0.0
O437 O 0.92732 0.27737 0.7147 0.0
O438 O 0.9547 0.25785 0.73566 0.0
C439 C 0.95352 0.2054 0.73856 0.0
N440 N 0.94561 0.21513 0.75888 0.0
C441 C 0.94031 0.1771 0.77635 0.0
C442 C 0.94853 0.16668 0.75567 0.0
C443 C 0.95517 0.1809 0.7367 0.0
C444 C 0.93929 0.20162 0.77729 0.0
H445 H 0.95841 0.21625 0.72384 0.0
C446 C 0.94823 0.26989 0.71774 0.0
O447 O 0.87805 0.28756 0.71034 0.0
O448 O 0.88642 0.24974 0.70671 0.0
N449 N 0.92914 0.23665 0.7956 0.0
C450 C 0.92018 0.24937 0.81372 0.0
C451 C 0.91215 0.23773 0.83387 0.0
C452 C 0.91333 0.21316 0.83513 0.0
C453 C 0.92261 0.20044 0.81625 0.0
C454 C 0.93062 0.21302 0.79676 0.0
H455 H 0.91904 0.26824 0.81277 0.0
O456 O 0.87295 0.25611 0.75371 0.0
O457 O 0.90987 0.24532 0.75221 0.0
O458 O 0.90537 0.29495 0.75637 0.0
O459 O 0.93708 0.28093 0.77511 0.0
C460 C 0.92373 0.17576 0.81581 0.0
C461 C 0.93257 0.1641 0.79588 0.0
H462 H 0.94961 0.14778 0.75407 0.0
H463 H 0.96141 0.17298 0.72062 0.0
H464 H 0.90492 0.24766 0.84832 0.0
H465 H 0.90688 0.20423 0.85059 0.0
H466 H 0.91759 0.16557 0.8306 0.0
H467 H 0.93308 0.14511 0.79563 0.0
Mn468 Mn 0.97513 0.66071 0.95576 0.0
Mn469 Mn -0.00245 0.7043 0.98879 0.0
C470 C 0.0036 0.65274 0.9832 0.0
C471 C 0.97447 0.63823 0.92201 0.0
C472 C 0.94948 0.68296 -0.00325 0.0
O473 O 0.96528 0.69008 0.93833 0.0
O474 O 0.98382 0.71778 0.95967 0.0
C475 C 0.03625 0.71926 0.95756 0.0
N476 N 0.02886 0.71085 0.97865 0.0
C477 C 0.06858 0.70825 0.99279 0.0
C478 C 0.07659 0.71703 0.97129 0.0
C479 C 0.06035 0.72255 0.9536 0.0
C480 C 0.04434 0.7055 -0.0042 0.0
H481 H 0.02386 0.72335 0.94383 0.0
C482 C 0.97146 0.71129 0.94202 0.0
O483 O 0.95601 0.6404 0.93511 0.0
O484 O 0.99322 0.64967 0.92809 0.0
N485 N 0.01176 0.69331 0.01716 0.0
C486 C 0.00121 0.6845 0.03669 0.0
C487 C 0.01505 0.67791 0.05597 0.0
C488 C 0.03955 0.68047 0.05499 0.0
C489 C 0.04998 0.68981 0.03479 0.0
C490 C 0.03527 0.69638 0.01625 0.0
H491 H 0.9824 0.68239 0.0375 0.0
O492 O 0.99002 0.63612 0.9756 0.0
O493 O 0.0003 0.67338 0.97418 0.0
O494 O 0.95129 0.66729 0.98105 0.0
O495 O 0.96539 0.69827 0.00078 0.0
C496 C 0.07441 0.69259 0.03223 0.0
C497 C 0.08371 0.70177 0.01123 0.0
H498 H 0.09517 0.71946 0.96811 0.0
H499 H 0.0664 0.72923 0.93691 0.0
H500 H 0.00687 0.67072 0.0715 0.0
H501 H 0.05018 0.67512 0.0698 0.0
H502 H 0.08623 0.68754 0.04622 0.0
H503 H 0.10253 0.70363 0.00939 0.0
Mn504 Mn 0.58111 0.71778 0.21137 0.0
Mn505 Mn 0.54031 0.74356 0.2453 0.0
C506 C 0.59202 0.74659 0.23756 0.0
C507 C 0.60236 0.71492 0.17694 0.0
C508 C 0.55754 0.69368 0.25222 0.0
O509 O 0.55041 0.71006 0.19504 0.0
O510 O 0.5249 0.73175 0.21624 0.0
C511 C 0.52675 0.78418 0.21598 0.0
N512 N 0.53562 0.77553 0.2364 0.0
C513 C 0.54088 0.81441 0.25195 0.0
C514 C 0.53171 0.82373 0.23113 0.0
C515 C 0.52461 0.80854 0.21307 0.0
C516 C 0.54229 0.78997 0.25398 0.0
H517 H 0.52143 0.77259 0.20198 0.0
C518 C 0.52997 0.71856 0.1987 0.0
O519 O 0.59924 0.69691 0.19045 0.0
O520 O 0.59256 0.73456 0.18302 0.0
N521 N 0.55379 0.75598 0.27343 0.0
C522 C 0.56404 0.74427 0.29155 0.0
C523 C 0.57308 0.75697 0.31062 0.0
C524 C 0.57153 0.78155 0.31083 0.0
C525 C 0.56093 0.79322 0.29196 0.0
C526 C 0.55203 0.77963 0.27355 0.0
H527 H 0.56546 0.72539 0.29138 0.0
O528 O 0.60731 0.7314 0.23019 0.0
O529 O 0.57083 0.74415 0.22952 0.0
O530 O 0.57371 0.69453 0.237 0.0
O531 O 0.54367 0.71076 0.25636 0.0
C532 C 0.55936 0.81783 0.29045 0.0
C533 C 0.5493 0.82842 0.27048 0.0
H534 H 0.53028 0.84252 0.2287 0.0
H535 H 0.51762 0.8156 0.1969 0.0
H536 H 0.58135 0.74784 0.32505 0.0
H537 H 0.57875 0.79129 0.32545 0.0
H538 H 0.56613 0.8288 0.30441 0.0
H539 H 0.5485 0.84737 0.26938 0.0
Mn540 Mn 0.51749 0.33333 0.45469 0.0
Mn541 Mn 0.49827 0.2917 0.49186 0.0
C542 C 0.49385 0.3434 0.48582 0.0
C543 C 0.51237 0.35526 0.4207 0.0
C544 C 0.54817 0.31037 0.49166 0.0
O545 O 0.52263 0.30321 0.43664 0.0
O546 O 0.50658 0.27678 0.46133 0.0
C547 C 0.4545 0.27713 0.46795 0.0
N548 N 0.46554 0.286 0.48719 0.0
C549 C 0.42891 0.28983 0.50781 0.0
C550 C 0.41717 0.28061 0.48826 0.0
C551 C 0.43003 0.27424 0.46825 0.0
C552 C 0.45336 0.292 0.50662 0.0
H553 H 0.46427 0.27238 0.45245 0.0
C554 C 0.51617 0.28239 0.44176 0.0
O555 O 0.53305 0.3525 0.42992 0.0
O556 O 0.49501 0.34461 0.43079 0.0
N557 N 0.48929 0.3044 0.52159 0.0
C558 C 0.50301 0.31475 0.5382 0.0
C559 C 0.49269 0.32311 0.55892 0.0
C560 C 0.4684 0.32076 0.56234 0.0
C561 C 0.45464 0.31004 0.545 0.0
C562 C 0.46593 0.30184 0.5248 0.0
H563 H 0.52166 0.3168 0.53558 0.0
O564 O 0.50738 0.35895 0.47615 0.0
O565 O 0.49489 0.3224 0.47706 0.0
O566 O 0.54525 0.32577 0.47578 0.0
O567 O 0.53194 0.29651 0.49847 0.0
C568 C 0.43009 0.30767 0.54673 0.0
C569 C 0.41724 0.29754 0.52816 0.0
H570 H 0.39826 0.27859 0.48832 0.0
H571 H 0.42107 0.26723 0.45304 0.0
H572 H 0.50342 0.33148 0.57217 0.0
H573 H 0.46048 0.32745 0.57824 0.0
H574 H 0.42088 0.31387 0.56213 0.0
H575 H 0.39834 0.29612 0.52956 0.0
Mn576 Mn 0.27172 0.40603 0.2161 0.0
Mn577 Mn 0.24065 0.45089 0.2386 0.0
C578 C 0.24726 0.39982 0.24761 0.0
C579 C 0.3052 0.38314 0.21392 0.0
C580 C 0.22931 0.4274 0.19225 0.0
O581 O 0.28843 0.43485 0.20348 0.0
O582 O 0.26898 0.4636 0.22261 0.0
C583 C 0.27365 0.4686 0.27458 0.0
N584 N 0.25233 0.45944 0.26884 0.0
C585 C 0.24 0.45985 0.30917 0.0
C586 C 0.26178 0.4694 0.3155 0.0
C587 C 0.27866 0.4738 0.29812 0.0
C588 C 0.23587 0.45533 0.28539 0.0
H589 H 0.28676 0.47185 0.26132 0.0
C590 C 0.28562 0.45633 0.20927 0.0
O591 O 0.29065 0.38455 0.19649 0.0
O592 O 0.30079 0.3957 0.23239 0.0
N593 N 0.21331 0.4402 0.2549 0.0
C594 C 0.19396 0.42924 0.24613 0.0
C595 C 0.17579 0.42268 0.26139 0.0
C596 C 0.17771 0.42742 0.28547 0.0
C597 C 0.19779 0.43872 0.29409 0.0
C598 C 0.21523 0.44506 0.27802 0.0
H599 H 0.19248 0.42536 0.22767 0.0
O600 O 0.25316 0.38249 0.23407 0.0
O601 O 0.25573 0.42022 0.24205 0.0
O602 O 0.2446 0.41133 0.19391 0.0
O603 O 0.2268 0.4435 0.2076 0.0
C604 C 0.20142 0.44344 0.31807 0.0
C605 C 0.22249 0.45403 0.3256 0.0
H606 H 0.26582 0.47319 0.33367 0.0
H607 H 0.29556 0.48105 0.30288 0.0
H608 H 0.16039 0.41385 0.25462 0.0
H609 H 0.16376 0.4221 0.29722 0.0
H610 H 0.18826 0.4387 0.3309 0.0
H611 H 0.22522 0.45727 0.34411 0.0
Mn612 Mn 0.76719 0.07262 0.75901 0.0
Mn613 Mn 0.74505 0.02992 0.72474 0.0
C614 C 0.74369 0.0822 0.72759 0.0
C615 C 0.79732 0.09792 0.76928 0.0
C616 C 0.72787 0.04043 0.77387 0.0
O617 O 0.78699 0.04393 0.76702 0.0
O618 O 0.77443 0.01839 0.73942 0.0
C619 C 0.78179 0.02752 0.68819 0.0
N620 N 0.75896 0.0311 0.69429 0.0
C621 C 0.74821 0.03885 0.65424 0.0
C622 C 0.77158 0.03513 0.64751 0.0
C623 C 0.78843 0.02943 0.66457 0.0
C624 C 0.74259 0.03652 0.67802 0.0
H625 H 0.79483 0.02334 0.70128 0.0
C626 C 0.78829 0.02437 0.75611 0.0
O627 O 0.7817 0.09141 0.78445 0.0
O628 O 0.79571 0.08952 0.74817 0.0
N629 N 0.71671 0.03947 0.70943 0.0
C630 C 0.69524 0.04376 0.71897 0.0
C631 C 0.67648 0.05012 0.70431 0.0
C632 C 0.68001 0.05202 0.68002 0.0
C633 C 0.70224 0.04742 0.67058 0.0
C634 C 0.72018 0.04083 0.68602 0.0
H635 H 0.69245 0.04242 0.73764 0.0
O636 O 0.74667 0.09709 0.74456 0.0
O637 O 0.75487 0.06248 0.7295 0.0
O638 O 0.73951 0.05921 0.77659 0.0
O639 O 0.72945 0.02736 0.75574 0.0
C640 C 0.70742 0.04956 0.64652 0.0
C641 C 0.7304 0.04531 0.63836 0.0
H642 H 0.77682 0.03684 0.62936 0.0
H643 H 0.80652 0.02665 0.65953 0.0
H644 H 0.65938 0.0537 0.71173 0.0
H645 H 0.66557 0.05721 0.6688 0.0
H646 H 0.69394 0.05476 0.63419 0.0
H647 H 0.73424 0.04733 0.61988 0.0
Mn648 Mn 0.16623 0.5267 0.01566 0.0
Mn649 Mn 0.21316 0.50035 0.99123 0.0
C650 C 0.16147 0.50346 0.98307 0.0
C651 C 0.14199 0.55896 0.02014 0.0
C652 C 0.18993 0.48357 0.03599 0.0
O653 O 0.19383 0.54402 0.02993 0.0
O654 O 0.22375 0.52804 0.00965 0.0
C655 C 0.227 0.53808 0.95837 0.0
N656 N 0.2202 0.51549 0.96216 0.0
C657 C 0.22026 0.50731 0.92077 0.0
C658 C 0.2274 0.53044 0.91645 0.0
C659 C 0.23078 0.54589 0.93534 0.0
C660 C 0.21687 0.5005 0.94411 0.0
H661 H 0.2294 0.5501 0.97281 0.0
C662 C 0.21545 0.54301 0.02423 0.0
O663 O 0.14377 0.54316 0.0364 0.0
O664 O 0.15461 0.55629 0.00139 0.0
N665 N 0.2052 0.47363 0.97252 0.0
C666 C 0.19802 0.45198 0.97965 0.0
C667 C 0.19389 0.43443 0.96287 0.0
C668 C 0.19724 0.43929 0.93896 0.0
C669 C 0.20498 0.46159 0.93207 0.0
C670 C 0.20917 0.47825 0.94961 0.0
H671 H 0.19535 0.44816 -0.00201 0.0
O672 O 0.14368 0.50816 -0.00355 0.0
O673 O 0.18132 0.51303 0.98887 0.0
O674 O 0.17316 0.49825 0.03556 0.0
O675 O 0.20653 0.48333 0.0209 0.0
C676 C 0.20846 0.46799 0.90847 0.0
C677 C 0.21603 0.49086 0.90282 0.0
H678 H 0.23016 0.5366 0.89871 0.0
H679 H 0.23617 0.5638 0.93214 0.0
H680 H 0.18798 0.41725 0.96833 0.0
H681 H 0.19376 0.42579 0.92606 0.0
H682 H 0.2052 0.45552 0.89452 0.0
H683 H 0.21844 0.49563 0.88461 0.0
Mn684 Mn 0.72235 0.91224 0.26044 0.0
Mn685 Mn 0.75461 0.95419 0.23417 0.0
C686 C 0.75125 0.90231 0.23397 0.0
C687 C 0.6895 0.88806 0.26143 0.0
C688 C 0.76109 0.93974 0.28484 0.0
O689 O 0.70295 0.94162 0.26538 0.0
O690 O 0.72456 0.9681 0.24537 0.0
C691 C 0.72411 0.96326 0.19312 0.0
N692 N 0.74523 0.95654 0.20206 0.0
C693 C 0.76061 0.94941 0.16343 0.0
C694 C 0.73907 0.95641 0.15381 0.0
C695 C 0.72075 0.96337 0.16873 0.0
C696 C 0.76301 0.9499 0.18786 0.0
H697 H 0.70989 0.96841 0.20451 0.0
C698 C 0.70637 0.96224 0.25729 0.0
O699 O 0.70099 0.89315 0.28044 0.0
O700 O 0.69673 0.89757 0.24209 0.0
N701 N 0.78371 0.94241 0.22224 0.0
C702 C 0.80294 0.93498 0.23433 0.0
C703 C 0.82269 0.92698 0.22199 0.0
C704 C 0.82244 0.92665 0.19737 0.0
C705 C 0.80246 0.93443 0.1853 0.0
C706 C 0.78343 0.94252 0.19854 0.0
H707 H 0.80315 0.93499 0.25326 0.0
O708 O 0.74432 0.88717 0.24948 0.0
O709 O 0.74128 0.92271 0.2349 0.0
O710 O 0.74579 0.9235 0.28469 0.0
O711 O 0.76578 0.95252 0.26704 0.0
C712 C 0.80052 0.93403 0.16068 0.0
C713 C 0.7796 0.94149 0.14975 0.0
H714 H 0.73634 0.95631 0.13501 0.0
H715 H 0.70403 0.96867 0.16145 0.0
H716 H 0.83801 0.92093 0.23143 0.0
H717 H 0.8376 0.9202 0.18792 0.0
H718 H 0.81491 0.92775 0.15 0.0
H719 H 0.77822 0.94084 0.13083 0.0
Mn720 Mn 0.33385 0.47647 0.52211 0.0
Mn721 Mn 0.28484 0.50258 0.50228 0.0
C722 C 0.33595 0.50334 0.49197 0.0
C723 C 0.35965 0.44507 0.52153 0.0
C724 C 0.30786 0.51406 0.54892 0.0
O725 O 0.30759 0.45576 0.53441 0.0
O726 O 0.27631 0.47172 0.51609 0.0
C727 C 0.27216 0.47 0.4639 0.0
N728 N 0.27802 0.49198 0.47121 0.0
C729 C 0.27678 0.50669 0.4317 0.0
C730 C 0.27057 0.48425 0.42378 0.0
C731 C 0.26826 0.46583 0.43996 0.0
C732 C 0.28025 0.50984 0.4558 0.0
H733 H 0.2706 0.45572 0.47623 0.0
C734 C 0.28595 0.45563 0.52855 0.0
O735 O 0.35772 0.45838 0.5399 0.0
O736 O 0.34648 0.44997 0.50361 0.0
N737 N 0.29144 0.53227 0.48803 0.0
C738 C 0.29874 0.55255 0.49835 0.0
C739 C 0.3023 0.57259 0.4845 0.0
C740 C 0.29835 0.57158 0.46022 0.0
C741 C 0.29077 0.55053 0.45 0.0
C742 C 0.28721 0.53121 0.46472 0.0
H743 H 0.30192 0.55342 0.51698 0.0
O744 O 0.35448 0.49872 0.50441 0.0
O745 O 0.31708 0.49216 0.49782 0.0
O746 O 0.32599 0.50147 0.54591 0.0
O747 O 0.2909 0.51498 0.53424 0.0
C748 C 0.28709 0.54784 0.42572 0.0
C749 C 0.28014 0.52593 0.41658 0.0
H750 H 0.26774 0.48092 0.40529 0.0
H751 H 0.26362 0.44843 0.43396 0.0
H752 H 0.3082 0.58876 0.49251 0.0
H753 H 0.30137 0.587 0.44957 0.0
H754 H 0.28983 0.56244 0.41389 0.0
H755 H 0.27765 0.524 0.39785 0.0
Mn756 Mn 0.2113 0.57835 0.72722 0.0
Mn757 Mn 0.23801 0.53151 0.75151 0.0
C758 C 0.2349 0.58313 0.75952 0.0
C759 C 0.17915 0.60284 0.72311 0.0
C760 C 0.25442 0.5547 0.70665 0.0
O761 O 0.1938 0.55078 0.71316 0.0
O762 O 0.21052 0.52081 0.73281 0.0
C763 C 0.20027 0.51712 0.78414 0.0
N764 N 0.22279 0.52423 0.78048 0.0
C765 C 0.23092 0.52378 0.82188 0.0
C766 C 0.20786 0.5163 0.82608 0.0
C767 C 0.19247 0.51298 0.80712 0.0
C768 C 0.23773 0.52753 0.7986 0.0
H769 H 0.18832 0.5147 0.76965 0.0
C770 C 0.19536 0.52908 0.71837 0.0
O771 O 0.19469 0.60087 0.70662 0.0
O772 O 0.18193 0.59015 0.7418 0.0
N773 N 0.26463 0.53954 0.77036 0.0
C774 C 0.28626 0.54687 0.76334 0.0
C775 C 0.30375 0.55103 0.7802 0.0
C776 C 0.29884 0.5475 0.80407 0.0
C777 C 0.27656 0.53957 0.81084 0.0
C778 C 0.25994 0.53542 0.79323 0.0
H779 H 0.29012 0.54967 0.74503 0.0
O780 O 0.23011 0.60086 0.74611 0.0
O781 O 0.2252 0.56328 0.75394 0.0
O782 O 0.2395 0.57126 0.707 0.0
O783 O 0.25507 0.53833 0.72196 0.0
C784 C 0.27015 0.53577 0.83438 0.0
C785 C 0.24734 0.52791 0.8399 0.0
H786 H 0.20175 0.51319 0.84379 0.0
H787 H 0.17462 0.50731 0.81023 0.0
H788 H 0.32092 0.55707 0.77483 0.0
H789 H 0.31229 0.55096 0.81704 0.0
H790 H 0.28258 0.53895 0.84839 0.0
H791 H 0.24259 0.52516 0.85806 0.0
Mn792 Mn 0.66882 0.94867 0.96218 0.0
Mn793 Mn 0.71412 0.9798 0.98378 0.0
C794 C 0.66199 0.97789 0.98915 0.0
C795 C 0.64484 0.91589 0.96259 0.0
C796 C 0.69438 0.98616 0.93484 0.0
O797 O 0.69747 0.9292 0.95368 0.0
O798 O 0.72582 0.9487 0.97327 0.0
C799 C 0.72553 0.9513 0.02563 0.0
N800 N 0.71894 0.97217 0.01607 0.0
C801 C 0.71637 0.99014 0.05415 0.0
C802 C 0.72328 0.96889 0.06439 0.0
C803 C 0.72787 0.94938 0.05006 0.0
C804 C 0.71453 0.99106 0.02968 0.0
H805 H 0.72888 0.9362 0.0147 0.0
C806 C 0.71852 0.93119 0.96117 0.0
O807 O 0.64778 0.92814 0.94367 0.0
O808 O 0.6562 0.92235 0.98126 0.0
N809 N 0.70466 0.01004 0.99492 0.0
C810 C 0.69724 0.02897 0.98238 0.0
C811 C 0.69154 0.04983 0.99416 0.0
C812 C 0.69354 0.05102 0.01867 0.0
C813 C 0.70137 0.03137 0.03119 0.0
C814 C 0.7071 0.01115 0.01848 0.0
H815 H 0.69556 0.02813 0.96356 0.0
O816 O 0.64509 0.97045 0.97582 0.0
O817 O 0.68214 0.96757 0.98658 0.0
O818 O 0.67691 0.97261 0.93742 0.0
O819 O 0.7102 0.9892 0.95045 0.0
C820 C 0.70333 0.03092 0.05581 0.0
C821 C 0.71081 0.01032 0.06728 0.0
H822 H 0.72494 0.96728 0.08324 0.0
H823 H 0.73309 0.93288 0.05784 0.0
H824 H 0.68548 0.06492 0.98437 0.0
H825 H 0.68887 0.06706 0.02771 0.0
H826 H 0.6989 0.04625 0.0661 0.0
H827 H 0.712 0.01011 0.08623 0.0
Mn828 Mn 0.83554 0.04025 0.46792 0.0
Mn829 Mn 0.79392 0.00496 0.49048 0.0
C830 C 0.84561 0.01098 0.49401 0.0
C831 C 0.85671 0.07506 0.47042 0.0
C832 C 0.81223 0.00102 0.44059 0.0
O833 O 0.80529 0.05753 0.46081 0.0
O834 O 0.77913 0.03495 0.48013 0.0
C835 C 0.7819 0.0329 0.53257 0.0
N836 N 0.7894 0.0124 0.52287 0.0
C837 C 0.79425 0.99486 0.56094 0.0
C838 C 0.78618 0.01564 0.57129 0.0
C839 C 0.78004 0.03476 0.55704 0.0
C840 C 0.79549 0.99394 0.53643 0.0
H841 H 0.77759 0.04779 0.52173 0.0
C842 C 0.7846 0.05326 0.46822 0.0
O843 O 0.85453 0.06406 0.45057 0.0
O844 O 0.84623 0.06605 0.48843 0.0
N845 N 0.80623 0.97571 0.50154 0.0
C846 C 0.81519 0.9575 0.48894 0.0
C847 C 0.8228 0.93722 0.50064 0.0
C848 C 0.82122 0.93589 0.52517 0.0
C849 C 0.81194 0.95485 0.53778 0.0
C850 C 0.80428 0.97446 0.52513 0.0
H851 H 0.81671 0.9585 0.47012 0.0
O852 O 0.86139 0.01986 0.48023 0.0
O853 O 0.8247 0.01964 0.492 0.0
O854 O 0.828 0.01678 0.44219 0.0
O855 O 0.79816 0.99569 0.45725 0.0
C856 C 0.81047 0.95524 0.56242 0.0
C857 C 0.80166 0.97524 0.574 0.0
H858 H 0.78493 0.01721 0.59016 0.0
H859 H 0.77405 0.05096 0.56492 0.0
H860 H 0.83006 0.92272 0.49079 0.0
H861 H 0.82741 0.92034 0.53415 0.0
H862 H 0.81639 0.94038 0.57267 0.0
H863 H 0.80097 0.97548 0.59297 0.0
H864 H 0.05519 0.24755 0.48765 0.0
H865 H 0.07968 0.18004 0.51216 0.0
H866 H 0.09417 0.25579 0.47211 0.0
H867 H 0.11837 0.18823 0.49634 0.0
H868 H 0.18987 0.22728 0.49454 0.0
H869 H 0.1506 0.21515 0.50642 0.0
H870 H 0.12222 0.24299 0.44194 0.0
H871 H 0.16122 0.25539 0.43015 0.0
C872 C 0.06874 0.23436 0.48948 0.0
C873 C 0.06433 0.21325 0.50135 0.0
C874 C 0.09104 0.23904 0.48049 0.0
C875 C 0.10933 0.22269 0.48318 0.0
C876 C 0.10471 0.20129 0.49436 0.0
C877 C 0.08247 0.1966 0.50331 0.0
C878 C 0.17531 0.23056 0.48277 0.0
C879 C 0.17869 0.24253 0.46153 0.0
C880 C 0.15283 0.22356 0.48954 0.0
C881 C 0.13334 0.22835 0.47517 0.0
C882 C 0.13686 0.23945 0.45354 0.0
C883 C 0.15926 0.24644 0.44677 0.0
H884 H 0.02309 0.93977 0.73438 0.0
H885 H 0.00619 0.91441 0.66491 0.0
H886 H 0.04101 0.90208 0.74359 0.0
H887 H 0.02429 0.87694 0.67413 0.0
H888 H 0.08168 0.8355 0.75063 0.0
H889 H 0.0728 0.87387 0.73432 0.0
H890 H 0.01113 0.84533 0.70074 0.0
H891 H 0.02003 0.80681 0.71681 0.0
C892 C 0.02362 0.92638 0.72092 0.0
C893 C 0.01281 0.92997 0.69909 0.0
C894 C 0.03398 0.90482 0.72616 0.0
C895 C 0.03375 0.8865 0.70964 0.0
C896 C 0.02433 0.89062 0.68731 0.0
C897 C 0.01402 0.91213 0.68206 0.0
C898 C 0.06641 0.83725 0.73947 0.0
C899 C 0.05133 0.81811 0.73534 0.0
C900 C 0.06132 0.85929 0.73021 0.0
C901 C 0.04117 0.86263 0.71651 0.0
C902 C 0.0269 0.84323 0.71114 0.0
C903 C 0.03193 0.82117 0.72046 0.0
H904 H 0.32813 0.74422 0.92096 0.0
H905 H 0.3049 0.77171 0.98773 0.0
H906 H 0.36714 0.75986 0.92801 0.0
H907 H 0.34416 0.78731 0.99471 0.0
H908 H 0.43737 0.75603 0.97119 0.0
H909 H 0.39798 0.74765 0.95671 0.0
H910 H 0.37452 0.81564 0.98042 0.0
H911 H 0.41369 0.8241 0.99496 0.0
C912 C 0.33121 0.75385 0.93704 0.0
C913 C 0.31344 0.75637 0.95401 0.0
C914 C 0.35362 0.76274 0.94104 0.0
C915 C 0.35872 0.77449 0.96199 0.0
C916 C 0.34065 0.77837 0.97832 0.0
C917 C 0.31818 0.76939 0.97436 0.0
C918 C 0.42395 0.76937 0.97292 0.0
C919 C 0.42863 0.79055 0.98459 0.0
C920 C 0.40141 0.76461 0.96456 0.0
C921 C 0.38318 0.78093 0.96774 0.0
C922 C 0.38818 0.80263 0.97811 0.0
C923 C 0.41068 0.80744 0.98636 0.0
H924 H 0.5018 0.08774 0.15661 0.0
H925 H 0.4754 0.05417 0.21928 0.0
H926 H 0.48141 0.12368 0.1673 0.0
H927 H 0.45552 0.09025 0.23012 0.0
H928 H 0.47486 0.18895 0.21621 0.0
H929 H 0.48798 0.15284 0.19778 0.0
H930 H 0.4246 0.11802 0.22043 0.0
H931 H 0.41161 0.15398 0.23937 0.0
C932 C 0.49151 0.08792 0.17256 0.0
C933 C 0.49052 0.06814 0.18726 0.0
C934 C 0.4799 0.10856 0.1787 0.0
C935 C 0.46704 0.10986 0.19963 0.0
C936 C 0.4651 0.08975 0.21374 0.0
C937 C 0.47667 0.0691 0.2076 0.0
C938 C 0.46353 0.17372 0.217 0.0
C939 C 0.44238 0.17428 0.22964 0.0
C940 C 0.47099 0.15304 0.20628 0.0
C941 C 0.45742 0.13252 0.20788 0.0
C942 C 0.43562 0.13345 0.21928 0.0
C943 C 0.42817 0.15411 0.23006 0.0
H944 H 0.67039 0.26861 0.5723 0.0
H945 H 0.69385 0.2775 0.50087 0.0
H946 H 0.6333 0.28738 0.56256 0.0
H947 H 0.65637 0.29557 0.49086 0.0
H948 H 0.5615 0.28015 0.52627 0.0
H949 H 0.60084 0.27253 0.54036 0.0
H950 H 0.62795 0.32702 0.49523 0.0
H951 H 0.58842 0.33432 0.48051 0.0
C952 C 0.66769 0.27483 0.55456 0.0
C953 C 0.68478 0.27123 0.53721 0.0
C954 C 0.64643 0.2855 0.54897 0.0
C955 C 0.6417 0.29249 0.52584 0.0
C956 C 0.6595 0.29047 0.50887 0.0
C957 C 0.68094 0.28004 0.51456 0.0
C958 C 0.57575 0.29071 0.51946 0.0
C959 C 0.5718 0.30765 0.50203 0.0
C960 C 0.59835 0.28649 0.52773 0.0
C961 C 0.61755 0.29918 0.5189 0.0
C962 C 0.61353 0.31679 0.50217 0.0
C963 C 0.59086 0.32101 0.49383 0.0
H964 H 0.9092 0.33854 0.75092 0.0
H965 H 0.94687 0.30971 0.81 0.0
H966 H 0.92486 0.377 0.75944 0.0
H967 H 0.9614 0.34875 0.81966 0.0
H968 H 0.95392 0.44691 0.78054 0.0
H969 H 0.93 0.41129 0.78078 0.0
H970 H 0.99062 0.37128 0.80297 0.0
H971 H 0.0137 0.40669 0.80402 0.0
C972 C 0.92018 0.3406 0.7663 0.0
C973 C 0.92722 0.32103 0.77954 0.0
C974 C 0.9291 0.36279 0.77128 0.0
C975 C 0.9449 0.366 0.78992 0.0
C976 C 0.94996 0.34679 0.80463 0.0
C977 C 0.94148 0.32444 0.79928 0.0
C978 C 0.96194 0.43046 0.78561 0.0
C979 C 0.98561 0.42957 0.79231 0.0
C980 C 0.9483 0.41004 0.78575 0.0
C981 C 0.95825 0.38831 0.79211 0.0
C982 C 0.982 0.38765 0.79871 0.0
C983 C 0.9954 0.408 0.79901 0.0
H984 H 0.82562 0.72113 0.07731 0.0
H985 H 0.80412 0.70532 0.00632 0.0
H986 H 0.86422 0.70483 0.0694 0.0
H987 H 0.84291 0.68902 -0.00152 0.0
H988 H 0.91229 0.65294 0.99325 0.0
H989 H 0.87293 0.65853 0.00858 0.0
H990 H 0.89567 0.7216 0.04382 0.0
H991 H 0.93522 0.7161 0.02857 0.0
C992 C 0.82897 0.71379 0.06013 0.0
C993 C 0.81197 0.71498 0.04225 0.0
C994 C 0.85111 0.70451 0.05564 0.0
C995 C 0.85665 0.69608 0.03326 0.0
C996 C 0.83906 0.69538 0.01595 0.0
C997 C 0.81685 0.70474 0.02041 0.0
C998 C 0.90908 0.66785 0.00456 0.0
C999 C 0.92686 0.68435 0.00935 0.0
C1000 C 0.88648 0.67101 0.01328 0.0
C1001 C 0.88122 0.69058 0.02714 0.0
C1002 C 0.8993 0.70624 0.03326 0.0
C1003 C 0.92193 0.70316 0.02444 0.0
H1004 H 0.53347 0.68439 0.29275 0.0
H1005 H 0.57009 0.65088 0.23553 0.0
H1006 H 0.51925 0.64622 0.30576 0.0
H1007 H 0.55476 0.61324 0.2474 0.0
H1008 H 0.52727 0.54507 0.27503 0.0
H1009 H 0.55064 0.5809 0.27167 0.0
H1010 H 0.48999 0.62187 0.29187 0.0
H1011 H 0.46749 0.58635 0.29646 0.0
C1012 C 0.53867 0.66885 0.28313 0.0
C1013 C 0.55259 0.67068 0.26296 0.0
C1014 C 0.53037 0.64698 0.29041 0.0
C1015 C 0.53529 0.62662 0.27726 0.0
C1016 C 0.55065 0.62836 0.25811 0.0
C1017 C 0.55939 0.6501 0.25119 0.0
C1018 C 0.51914 0.5618 0.27886 0.0
C1019 C 0.49563 0.56295 0.28602 0.0
C1020 C 0.53246 0.58234 0.27695 0.0
C1021 C 0.52232 0.60441 0.28167 0.0
C1022 C 0.49875 0.60532 0.28879 0.0
C1023 C 0.48568 0.58488 0.29114 0.0
H1024 H 0.23125 0.39742 0.15486 0.0
H1025 H 0.19765 0.46104 0.17899 0.0
H1026 H 0.21695 0.40485 0.11538 0.0
H1027 H 0.1835 0.46838 0.13944 0.0
H1028 H 0.15534 0.47506 0.06792 0.0
H1029 H 0.15933 0.45535 0.10549 0.0
H1030 H 0.23053 0.43628 0.08799 0.0
H1031 H 0.22662 0.45591 0.05026 0.0
C1032 C 0.22039 0.41272 0.15191 0.0
C1033 C 0.21605 0.42896 0.17001 0.0
C1034 C 0.21227 0.41695 0.12925 0.0
C1035 C 0.19948 0.43734 0.12429 0.0
C1036 C 0.19328 0.45244 0.14277 0.0
C1037 C 0.2015 0.44829 0.16544 0.0
C1038 C 0.17175 0.4663 0.07185 0.0
C1039 C 0.1909 0.46754 0.05631 0.0
C1040 C 0.17396 0.45502 0.09339 0.0
C1041 C 0.1953 0.44462 0.09978 0.0
C1042 C 0.2138 0.44408 0.08346 0.0
C1043 C 0.21161 0.45542 0.06188 0.0
H1044 H 0.65955 0.00199 0.90645 0.0
H1045 H 0.73487 0.99463 0.91106 0.0
H1046 H 0.66328 0.01515 0.8657 0.0
H1047 H 0.73842 0.0072 0.87011 0.0
H1048 H 0.72557 0.99565 0.78962 0.0
H1049 H 0.71523 0.98359 0.8295 0.0
H1050 H 0.69228 0.05395 0.84506 0.0
H1051 H 0.70319 0.06629 0.80538 0.0
C1052 C 0.67688 0.00345 0.8988 0.0
C1053 C 0.69696 -0.00265 0.9118 0.0
C1054 C 0.67895 0.01087 0.87559 0.0
C1055 C 0.70105 0.01175 0.86497 0.0
C1056 C 0.72119 0.00636 0.87809 0.0
C1057 C 0.71919 -0.00056 0.90147 0.0
C1058 C 0.71753 0.00832 0.80127 0.0
C1059 C 0.71517 0.03187 0.79454 0.0
C1060 C 0.7119 0.00149 0.82407 0.0
C1061 C 0.70332 0.01801 0.84013 0.0
C1062 C 0.69896 0.04104 0.83283 0.0
C1063 C 0.70506 0.048 0.8102 0.0
H1064 H 0.80298 0.96224 0.29252 0.0
H1065 H 0.74463 0.92971 0.32826 0.0
H1066 H 0.81968 0.97363 0.33027 0.0
H1067 H 0.7603 0.94216 0.36554 0.0
H1068 H 0.79546 0.95692 0.43244 0.0
H1069 H 0.78792 0.9386 0.39468 0.0
H1070 H 0.81312 0.00103 0.35966 0.0
H1071 H 0.8222 0.01847 0.3974 0.0
C1072 C 0.79378 0.9575 0.30843 0.0
C1073 C 0.7725 0.94513 0.30743 0.0
C1074 C 0.80324 0.96413 0.33007 0.0
C1075 C 0.79133 0.95896 0.35109 0.0
C1076 C 0.77034 0.94605 0.34992 0.0
C1077 C 0.76119 0.93904 0.32842 0.0
C1078 C 0.79973 0.96651 0.41663 0.0
C1079 C 0.80928 0.98914 0.41784 0.0
C1080 C 0.79525 0.95611 0.39494 0.0
C1081 C 0.79954 0.96842 0.37398 0.0
C1082 C 0.80988 0.99079 0.37529 0.0
C1083 C 0.81492 0.00092 0.39698 0.0
H1084 H 0.28242 0.51814 0.69284 0.0
H1085 H 0.26151 0.58848 0.67354 0.0
H1086 H 0.30072 0.51327 0.65456 0.0
H1087 H 0.27985 0.58349 0.6354 0.0
H1088 H 0.3381 0.51255 0.58612 0.0
H1089 H 0.3311 0.52691 0.62564 0.0
H1090 H 0.26558 0.55745 0.60293 0.0
H1091 H 0.27247 0.54322 0.5633 0.0
C1092 C 0.28226 0.53276 0.68073 0.0
C1093 C 0.27001 0.55345 0.68603 0.0
C1094 C 0.29283 0.53001 0.65883 0.0
C1095 C 0.29131 0.5479 0.64194 0.0
C1096 C 0.28088 0.5693 0.64799 0.0
C1097 C 0.2704 0.5721 0.66985 0.0
C1098 C 0.32238 0.52271 0.58937 0.0
C1099 C 0.30559 0.52636 0.5716 0.0
C1100 C 0.31841 0.53087 0.61205 0.0
C1101 C 0.29774 0.54304 0.61735 0.0
C1102 C 0.28178 0.54821 0.59927 0.0
C1103 C 0.28565 0.53992 0.57659 0.0
H1104 H 0.30267 0.41285 0.54218 0.0
H1105 H 0.23858 0.44889 0.52355 0.0
H1106 H 0.2835 0.37554 0.53609 0.0
H1107 H 0.21899 0.4113 0.51837 0.0
H1108 H 0.24992 0.3094 0.51859 0.0
H1109 H 0.25595 0.34498 0.54146 0.0
H1110 H 0.22378 0.38567 0.48615 0.0
H1111 H 0.21701 0.35029 0.46386 0.0
C1112 C 0.28419 0.41285 0.53771 0.0
C1113 C 0.27237 0.43388 0.53262 0.0
C1114 C 0.27308 0.39132 0.53432 0.0
C1115 C 0.24983 0.39037 0.52605 0.0
C1116 C 0.23713 0.41142 0.52402 0.0
C1117 C 0.24833 0.43299 0.52713 0.0
C1118 C 0.2436 0.32588 0.51158 0.0
C1119 C 0.23345 0.32702 0.48912 0.0
C1120 C 0.24713 0.3463 0.52469 0.0
C1121 C 0.24074 0.36829 0.51554 0.0
C1122 C 0.22878 0.3691 0.49397 0.0
C1123 C 0.22509 0.34872 0.48098 0.0
H1124 H 0.93148 0.9785 0.76031 0.0
H1125 H 0.89598 0.95213 0.69872 0.0
H1126 H 0.89378 0.98397 0.7796 0.0
H1127 H 0.85854 0.95841 0.71749 0.0
H1128 H 0.83057 0.03653 0.77495 0.0
H1129 H 0.86673 0.01442 0.77214 0.0
H1130 H 0.82829 0.95479 0.74522 0.0
H1131 H 0.79211 0.97747 0.74712 0.0
C1132 C 0.91569 0.97327 0.7511 0.0
C1133 C 0.91671 0.96553 0.72771 0.0
C1134 C 0.89406 0.97654 0.76213 0.0
C1135 C 0.87305 0.97237 0.74988 0.0
C1136 C 0.87426 0.96186 0.72758 0.0
C1137 C 0.89587 0.95835 0.71667 0.0
C1138 C 0.8297 0.01847 0.7691 0.0
C1139 C 0.80861 0.00895 0.76068 0.0
C1140 C 0.8505 0.00564 0.76761 0.0
C1141 C 0.85057 0.98291 0.75793 0.0
C1142 C 0.82898 0.97247 0.75213 0.0
C1143 C 0.80823 0.98543 0.7533 0.0
H1144 H 0.28861 0.64479 0.96732 0.0
H1145 H 0.25722 0.68526 0.02319 0.0
H1146 H 0.28357 0.60948 0.98988 0.0
H1147 H 0.25313 0.64973 0.04649 0.0
H1148 H 0.20236 0.585 0.04312 0.0
H1149 H 0.22452 0.62092 0.041 0.0
H1150 H 0.28615 0.58197 0.02003 0.0
H1151 H 0.2634 0.54584 0.02104 0.0
C1152 C 0.28143 0.64632 0.98483 0.0
C1153 C 0.27247 0.66775 0.99304 0.0
C1154 C 0.27873 0.62593 -0.00199 0.0
C1155 C 0.26724 0.62654 0.01984 0.0
C1156 C 0.26133 0.6485 0.02942 0.0
C1157 C 0.26376 0.66891 0.01607 0.0
C1158 C 0.22084 0.58389 0.03881 0.0
C1159 C 0.23085 0.56267 0.03132 0.0
C1160 C 0.23373 0.60464 0.03775 0.0
C1161 C 0.257 0.60454 0.02947 0.0
C1162 C 0.26802 0.58279 0.02561 0.0
C1163 C 0.25499 0.56205 0.0263 0.0
H1164 H 0.5672 0.01877 0.24914 0.0
H1165 H 0.60798 0.03904 0.18862 0.0
H1166 H 0.60324 0.01186 0.27105 0.0
H1167 H 0.64377 0.03119 0.20998 0.0
H1168 H 0.7068 0.0088 0.24515 0.0
H1169 H 0.67273 0.03393 0.23937 0.0
H1170 H 0.62799 0.97914 0.2667 0.0
H1171 H 0.66186 0.95461 0.27331 0.0
C1172 C 0.58384 0.02234 0.24071 0.0
C1173 C 0.58475 0.02883 0.21696 0.0
C1174 C 0.60451 0.01825 0.25322 0.0
C1175 C 0.62644 0.0202 0.24209 0.0
C1176 C 0.62728 0.02946 0.21924 0.0
C1177 C 0.60664 0.03388 0.20685 0.0
C1178 C 0.68974 0.0024 0.25055 0.0
C1179 C 0.687 0.97943 0.25911 0.0
C1180 C 0.67019 0.0168 0.24716 0.0
C1181 C 0.6475 0.00843 0.25202 0.0
C1182 C 0.64512 0.98637 0.26282 0.0
C1183 C 0.66464 0.9721 0.26644 0.0
H1184 H 0.75891 0.19228 0.48068 0.0
H1185 H 0.69604 0.1651 0.51307 0.0
H1186 H 0.76473 0.15558 0.4608 0.0
H1187 H 0.7008 0.12855 0.49157 0.0
H1188 H 0.7463 0.06121 0.4957 0.0
H1189 H 0.72503 0.09759 0.49908 0.0
H1190 H 0.76004 0.12387 0.4371 0.0
H1191 H 0.78286 0.08785 0.43504 0.0
C1192 C 0.74577 0.17875 0.48288 0.0
C1193 C 0.72756 0.1813 0.49926 0.0
C1194 C 0.74897 0.15753 0.47117 0.0
C1195 C 0.73369 0.13852 0.47512 0.0
C1196 C 0.71353 0.14237 0.48886 0.0
C1197 C 0.71065 0.16344 0.50105 0.0
C1198 C 0.74916 0.07455 0.48252 0.0
C1199 C 0.76692 0.07204 0.46568 0.0
C1200 C 0.73669 0.09553 0.48427 0.0
C1201 C 0.74128 0.11426 0.46882 0.0
C1202 C 0.75673 0.11033 0.44996 0.0
C1203 C 0.76971 0.08958 0.44864 0.0
H1204 H 0.19503 0.48099 0.71834 0.0
H1205 H 0.15266 0.54125 0.70055 0.0
H1206 H 0.16022 0.45626 0.7172 0.0
H1207 H 0.11799 0.5171 0.70065 0.0
H1208 H 0.09842 0.44838 0.77066 0.0
H1209 H 0.13284 0.4548 0.7472 0.0
H1210 H 0.09041 0.48784 0.69367 0.0
H1211 H 0.05579 0.48242 0.718 0.0
C1212 C 0.17839 0.48886 0.71361 0.0
C1213 C 0.17644 0.51322 0.71041 0.0
C1214 C 0.15839 0.47469 0.71303 0.0
C1215 C 0.13607 0.48475 0.70984 0.0
C1216 C 0.13473 0.50855 0.70334 0.0
C1217 C 0.15474 0.5226 0.70348 0.0
C1218 C 0.0962 0.4564 0.75359 0.0
C1219 C 0.07452 0.46594 0.74676 0.0
C1220 C 0.11609 0.45991 0.73986 0.0
C1221 C 0.11466 0.47279 0.71885 0.0
C1222 C 0.0923 0.47872 0.7102 0.0
C1223 C 0.07239 0.4755 0.72414 0.0
H1224 H 0.76562 0.92887 0.97083 0.0
H1225 H 0.7072 0.88692 0.94672 0.0
H1226 H 0.78846 0.89336 0.97723 0.0
H1227 H 0.72951 0.85166 0.95393 0.0
H1228 H 0.78984 0.83157 0.03167 0.0
H1229 H 0.78428 0.8665 0.00837 0.0
H1230 H 0.76014 0.82414 0.95028 0.0
H1231 H 0.76482 0.78904 0.97413 0.0
C1232 C 0.75782 0.91213 0.96638 0.0
C1233 C 0.73433 0.91071 0.95889 0.0
C1234 C 0.7709 0.89175 0.97014 0.0
C1235 C 0.76068 0.86957 0.96672 0.0
C1236 C 0.73812 0.86835 0.95672 0.0
C1237 C 0.72514 0.8887 0.95273 0.0
C1238 C 0.78409 0.82955 0.01368 0.0
C1239 C 0.77705 0.80759 0.00503 0.0
C1240 C 0.78101 0.8497 0.00016 0.0
C1241 C 0.77108 0.84825 0.9776 0.0
C1242 C 0.76711 0.82595 0.96785 0.0
C1243 C 0.76991 0.8058 0.98149 0.0
H1244 H 0.2851 0.5043 0.21303 0.0
H1245 H 0.32967 0.4462 0.19346 0.0
H1246 H 0.31943 0.52955 0.21601 0.0
H1247 H 0.3638 0.47087 0.1975 0.0
H1248 H 0.42478 0.50881 0.21686 0.0
H1249 H 0.39047 0.50158 0.19247 0.0
H1250 H 0.34605 0.52971 0.24711 0.0
H1251 H 0.38013 0.53787 0.27076 0.0
C1252 C 0.30214 0.49705 0.20877 0.0
C1253 C 0.30472 0.47304 0.20377 0.0
C1254 C 0.32186 0.51151 0.2106 0.0
C1255 C 0.34453 0.50213 0.20786 0.0
C1256 C 0.34674 0.47888 0.19984 0.0
C1257 C 0.32703 0.46454 0.19766 0.0
C1258 C 0.40774 0.51423 0.22329 0.0
C1259 C 0.40514 0.52316 0.24613 0.0
C1260 C 0.38802 0.50995 0.20933 0.0
C1261 C 0.36535 0.51422 0.21809 0.0
C1262 C 0.36312 0.52605 0.23964 0.0
C1263 C 0.38281 0.5306 0.25343 0.0
H1264 H 0.50251 0.2362 0.4438 0.0
H1265 H 0.53159 0.28809 0.39681 0.0
H1266 H 0.49523 0.21032 0.41061 0.0
H1267 H 0.52344 0.26293 0.36387 0.0
H1268 H 0.44302 0.2048 0.34713 0.0
H1269 H 0.46547 0.21282 0.3822 0.0
H1270 H 0.52601 0.22987 0.33981 0.0
H1271 H 0.50293 0.22296 0.30451 0.0
C1272 C 0.50781 0.24192 0.42649 0.0
C1273 C 0.51703 0.26452 0.42292 0.0
C1274 C 0.50352 0.2271 0.40743 0.0
C1275 C 0.50818 0.23468 0.38444 0.0
C1276 C 0.51967 0.25629 0.38123 0.0
C1277 C 0.52414 0.27096 0.40024 0.0
C1278 C 0.46134 0.2095 0.34526 0.0
C1279 C 0.47102 0.21391 0.32307 0.0
C1280 C 0.47436 0.21401 0.36549 0.0
C1281 C 0.49743 0.2227 0.36389 0.0
C1282 C 0.50804 0.22397 0.34167 0.0
C1283 C 0.49487 0.21988 0.32142 0.0
H1284 H 0.00359 0.27324 0.57736 0.0
H1285 H 0.02774 0.211 0.61328 0.0
H1286 H 0.9952 0.2916 0.61497 0.0
H1287 H 0.01832 0.22872 0.6505 0.0
H1288 H 0.93946 0.28817 0.67438 0.0
H1289 H 0.96346 0.28439 0.63981 0.0
H1290 H 0.01968 0.25533 0.68167 0.0
H1291 H 0.99499 0.25811 0.71642 0.0
C1292 C 0.00761 0.26366 0.59325 0.0
C1293 C 0.01574 0.24041 0.59225 0.0
C1294 C 0.00264 0.27413 0.61484 0.0
C1295 C 0.00536 0.26143 0.63583 0.0
C1296 C 0.01597 0.23918 0.63484 0.0
C1297 C 0.02126 0.22886 0.61332 0.0
C1298 C 0.95711 0.28143 0.67642 0.0
C1299 C 0.96502 0.27284 0.69813 0.0
C1300 C 0.97108 0.27947 0.65648 0.0
C1301 C 0.99346 0.26913 0.65776 0.0
C1302 C 0.0023 0.2628 0.67992 0.0
C1303 C 0.98817 0.2645 0.69988 0.0
H1304 H 0.9552 0.70302 0.89772 0.0
H1305 H 0.97873 0.75885 0.94333 0.0
H1306 H 0.96074 0.72804 0.86413 0.0
H1307 H 0.98337 0.78446 0.90951 0.0
H1308 H 0.98181 0.76584 0.804 0.0
H1309 H 0.95723 0.75999 0.83839 0.0
H1310 H 0.01462 0.78234 0.88273 0.0
H1311 H 0.0386 0.7891 0.84857 0.0
C1312 C 0.96068 0.72097 0.90071 0.0
C1313 C 0.96738 0.72862 0.92314 0.0
C1314 C 0.96368 0.73552 0.88132 0.0
C1315 C 0.97322 0.75814 0.88398 0.0
C1316 C 0.97671 0.76688 0.90677 0.0
C1317 C 0.97398 0.7522 0.92618 0.0
C1318 C 0.98886 0.77028 0.82107 0.0
C1319 C 0.01242 0.77715 0.82361 0.0
C1320 C 0.97478 0.76685 0.8408 0.0
C1321 C 0.98415 0.76987 0.86342 0.0
C1322 C 0.00669 0.77973 0.86568 0.0
C1323 C 0.02063 0.78346 0.84596 0.0
H1324 H 0.5359 0.69887 0.15543 0.0
H1325 H 0.48401 0.73308 0.19886 0.0
H1326 H 0.51202 0.70592 0.12127 0.0
H1327 H 0.4594 0.73927 0.16451 0.0
H1328 H 0.47585 0.72675 0.05945 0.0
H1329 H 0.47985 0.70465 0.09576 0.0
H1330 H 0.46517 0.76769 0.13531 0.0
H1331 H 0.46013 0.78928 0.09926 0.0
C1332 C 0.51896 0.70713 0.15787 0.0
C1333 C 0.51229 0.71616 0.1798 0.0
C1334 C 0.50503 0.71102 0.13816 0.0
C1335 C 0.48398 0.7238 0.13996 0.0
C1336 C 0.47586 0.73003 0.16239 0.0
C1337 C 0.48994 0.72637 0.18212 0.0
C1338 C 0.47271 0.73566 0.07592 0.0
C1339 C 0.46835 0.75992 0.0765 0.0
C1340 C 0.4751 0.72301 0.09675 0.0
C1341 C 0.47359 0.73449 0.11853 0.0
C1342 C 0.46646 0.75812 0.11897 0.0
C1343 C 0.46373 0.77066 0.09816 0.0
H1344 H 0.1901 0.33681 0.37481 0.0
H1345 H 0.26566 0.34048 0.37994 0.0
H1346 H 0.19122 0.36219 0.34032 0.0
H1347 H 0.26686 0.36511 0.34535 0.0
H1348 H 0.26659 0.41513 0.28792 0.0
H1349 H 0.25813 0.4017 0.32748 0.0
H1350 H 0.20377 0.35635 0.30016 0.0
H1351 H 0.21142 0.37116 0.26066 0.0
C1352 C 0.20691 0.3433 0.36878 0.0
C1353 C 0.22783 0.33648 0.37993 0.0
C1354 C 0.20755 0.35772 0.34896 0.0
C1355 C 0.22911 0.36557 0.33996 0.0
C1356 C 0.24989 0.3597 0.35194 0.0
C1357 C 0.24924 0.34539 0.37172 0.0
C1358 C 0.25212 0.40311 0.29057 0.0
C1359 C 0.23917 0.39464 0.27146 0.0
C1360 C 0.24753 0.3951 0.31316 0.0
C1361 C 0.23045 0.37774 0.317 0.0
C1362 C 0.21683 0.36996 0.29791 0.0
C1363 C 0.22127 0.37826 0.27528 0.0
H1364 H 0.86885 0.96933 0.4985 0.0
H1365 H 0.84008 0.02717 0.53762 0.0
H1366 H 0.88378 0.95207 0.5348 0.0
H1367 H 0.85646 0.01157 0.57343 0.0
H1368 H 0.88371 0.98256 0.63796 0.0
H1369 H 0.85849 0.98643 0.60364 0.0
H1370 H 0.9135 0.95645 0.56062 0.0
H1371 H 0.93723 0.95044 0.59538 0.0
C1372 C 0.86572 0.97821 0.51498 0.0
C1373 C 0.85306 -0.00078 0.51556 0.0
C1374 C 0.87442 0.96854 0.53579 0.0
C1375 C 0.87158 0.98036 0.55735 0.0
C1376 C 0.85862 0.00141 0.55758 0.0
C1377 C 0.84938 0.0106 0.53696 0.0
C1378 C 0.88993 0.97621 0.62117 0.0
C1379 C 0.91233 0.96638 0.61911 0.0
C1380 C 0.87568 0.97869 0.6014 0.0
C1381 C 0.8841 0.97251 0.57898 0.0
C1382 C 0.90608 0.9613 0.57738 0.0
C1383 C 0.91988 0.95796 0.59733 0.0
H1384 H 0.21325 0.5779 0.80104 0.0
H1385 H 0.27838 0.59951 0.76956 0.0
H1386 H 0.22572 0.59379 0.83837 0.0
H1387 H 0.2926 0.61285 0.80748 0.0
H1388 H 0.293 0.67068 0.86217 0.0
H1389 H 0.28864 0.6443 0.82954 0.0
H1390 H 0.24463 0.59912 0.87205 0.0
H1391 H 0.24719 0.62748 0.90396 0.0
C1392 C 0.23073 0.58525 0.80252 0.0
C1393 C 0.24495 0.58754 0.78268 0.0
C1394 C 0.23811 0.59425 0.82404 0.0
C1395 C 0.26014 0.60534 0.82624 0.0
C1396 C 0.27511 0.60555 0.80654 0.0
C1397 C 0.26723 0.59754 0.7848 0.0
C1398 C 0.28265 0.65491 0.86457 0.0
C1399 C 0.27014 0.65122 0.88533 0.0
C1400 C 0.28028 0.63945 0.84583 0.0
C1401 C 0.26594 0.61937 0.84765 0.0
C1402 C 0.25509 0.61472 0.86941 0.0
C1403 C 0.25673 0.63079 0.88787 0.0
H1404 H 0.57101 0.04644 0.0837 0.0
H1405 H 0.6205 0.01344 0.13031 0.0
H1406 H 0.59669 0.03884 0.05071 0.0
H1407 H 0.6477 0.00786 0.09783 0.0
H1408 H 0.66707 0.96379 0.03372 0.0
H1409 H 0.65081 0.98188 0.06843 0.0
H1410 H 0.62791 0.04109 0.02662 0.0
H1411 H 0.64257 0.02143 0.99154 0.0
C1412 C 0.58795 0.03843 0.08693 0.0
C1413 C 0.59376 0.03022 0.10931 0.0
C1414 C 0.60288 0.03414 0.06801 0.0
C1415 C 0.62429 0.02213 0.07125 0.0
C1416 C 0.63102 0.01622 0.0943 0.0
C1417 C 0.61563 0.01969 0.11304 0.0
C1418 C 0.65889 0.98088 0.03216 0.0
C1419 C 0.65618 0.9914 0.01019 0.0
C1420 C 0.64968 0.99149 0.05213 0.0
C1421 C 0.6377 0.01308 0.05063 0.0
C1422 C 0.63634 0.02421 0.02858 0.0
C1423 C 0.64496 0.01316 0.00847 0.0
H1424 H 0.68953 0.17829 0.6274 0.0
H1425 H 0.73571 0.13521 0.58589 0.0
H1426 H 0.69229 0.15063 0.65953 0.0
H1427 H 0.7368 0.10604 0.6171 0.0
H1428 H 0.76809 0.0847 0.68757 0.0
H1429 H 0.75662 0.10347 0.65131 0.0
H1430 H 0.68765 0.117 0.68027 0.0
H1431 H 0.70033 0.09968 0.7174 0.0
C1432 C 0.69948 0.1623 0.62486 0.0
C1433 C 0.7127 0.15895 0.60443 0.0
C1434 C 0.70102 0.14626 0.64328 0.0
C1435 C 0.71531 0.12618 0.64136 0.0
C1436 C 0.72644 0.12172 0.61974 0.0
C1437 C 0.7256 0.13823 0.60167 0.0
C1438 C 0.75038 0.09144 0.68594 0.0
C1439 C 0.73493 0.09058 0.70496 0.0
C1440 C 0.74361 0.10205 0.66503 0.0
C1441 C 0.72106 0.11189 0.66254 0.0
C1442 C 0.70529 0.11013 0.68152 0.0
C1443 C 0.71239 0.10004 0.70274 0.0
H1444 H 0.14548 0.45995 0.97249 0.0
H1445 H 0.16667 0.52558 0.94181 0.0
H1446 H 0.13307 0.44579 0.93423 0.0
H1447 H 0.15169 0.51312 0.9041 0.0
H1448 H 0.11989 0.49183 0.83771 0.0
H1449 H 0.14759 0.49439 0.87021 0.0
H1450 H 0.10232 0.44901 0.91116 0.0
H1451 H 0.07669 0.44467 0.87797 0.0
C1452 C 0.14752 0.47124 0.95735 0.0
C1453 C 0.15719 0.49363 0.95979 0.0
C1454 C 0.14005 0.46338 0.93541 0.0
C1455 C 0.1405 0.47844 0.91577 0.0
C1456 C 0.15112 0.50065 0.91835 0.0
C1457 C 0.15957 0.50803 0.94009 0.0
C1458 C 0.11646 0.48194 0.85355 0.0
C1459 C 0.09617 0.4682 0.8555 0.0
C1460 C 0.13213 0.48361 0.87238 0.0
C1461 C 0.12718 0.47247 0.89393 0.0
C1462 C 0.10737 0.45768 0.8951 0.0
C1463 C 0.09234 0.45528 0.876 0.0
H1464 H 0.73066 0.90488 0.19198 0.0
H1465 H 0.79275 0.87935 0.22671 0.0
H1466 H 0.74196 0.88516 0.15635 0.0
H1467 H 0.80567 0.86096 0.19019 0.0
H1468 H 0.79912 0.80078 0.13692 0.0
H1469 H 0.79769 0.82858 0.16897 0.0
H1470 H 0.76265 0.87857 0.12366 0.0
H1471 H 0.76203 0.84935 0.09245 0.0
C1472 C 0.74727 0.89562 0.19159 0.0
C1473 C 0.76097 0.89366 0.21186 0.0
C1474 C 0.75398 0.88442 0.17101 0.0
C1475 C 0.77479 0.87113 0.17009 0.0
C1476 C 0.7892 0.87041 0.19023 0.0
C1477 C 0.78203 0.8811 0.21112 0.0
C1478 C 0.79138 0.81787 0.13385 0.0
C1479 C 0.78031 0.8229 0.11251 0.0
C1480 C 0.79073 0.83403 0.1522 0.0
C1481 C 0.7796 0.85591 0.14932 0.0
C1482 C 0.77051 0.86162 0.12702 0.0
C1483 C 0.77034 0.84504 0.10899 0.0
H1484 H 0.35069 0.54657 0.47737 0.0
H1485 H 0.32879 0.47854 0.45293 0.0
H1486 H 0.35973 0.55817 0.43719 0.0
H1487 H 0.34 0.48861 0.41347 0.0
H1488 H 0.36414 0.50479 0.3434 0.0
H1489 H 0.33951 0.50526 0.37833 0.0
H1490 H 0.38831 0.55347 0.41125 0.0
H1491 H 0.41088 0.55477 0.37563 0.0
C1492 C 0.3478 0.53419 0.46326 0.0
C1493 C 0.33898 0.51182 0.46796 0.0
C1494 C 0.35321 0.54062 0.44022 0.0
C1495 C 0.35123 0.52424 0.42171 0.0
C1496 C 0.34154 0.50207 0.42672 0.0
C1497 C 0.33532 0.49606 0.44952 0.0
C1498 C 0.36902 0.51594 0.358 0.0
C1499 C 0.38945 0.52952 0.35703 0.0
C1500 C 0.35513 0.51603 0.37821 0.0
C1501 C 0.36213 0.52877 0.39829 0.0
C1502 C 0.38187 0.54353 0.39645 0.0
C1503 C 0.39511 0.54416 0.37594 0.0
H1504 H 0.29659 0.26994 0.41649 0.0
H1505 H 0.25205 0.21283 0.39488 0.0
H1506 H 0.32952 0.25234 0.39651 0.0
H1507 H 0.28555 0.19389 0.3758 0.0
H1508 H 0.33747 0.19303 0.31296 0.0
H1509 H 0.30667 0.19873 0.3419 0.0
H1510 H 0.35823 0.22535 0.39099 0.0
H1511 H 0.38841 0.22161 0.36094 0.0
C1512 C 0.29418 0.25305 0.40811 0.0
C1513 C 0.27202 0.24251 0.4074 0.0
C1514 C 0.31314 0.24275 0.39671 0.0
C1515 C 0.31042 0.22154 0.38433 0.0
C1516 C 0.28832 0.21042 0.38471 0.0
C1517 C 0.26916 0.22108 0.39577 0.0
C1518 C 0.34214 0.19963 0.33016 0.0
C1519 C 0.36505 0.20721 0.33477 0.0
C1520 C 0.32453 0.20279 0.3469 0.0
C1521 C 0.32971 0.21309 0.36878 0.0
C1522 C 0.35331 0.21826 0.37408 0.0
C1523 C 0.3707 0.21589 0.35703 0.0
H1524 H 0.96004 0.04309 0.66264 0.0
H1525 H 0.02772 0.01518 0.64398 0.0
H1526 H 0.97091 0.08094 0.64698 0.0
H1527 H 0.03998 0.05382 0.63025 0.0
H1528 H 0.03936 0.11125 0.57446 0.0
H1529 H 0.03515 0.07674 0.5987 0.0
H1530 H 0.98951 0.11554 0.6455 0.0
H1531 H 0.99205 0.14934 0.61944 0.0
C1532 C 0.97764 0.04546 0.65585 0.0
C1533 C 0.99316 0.02649 0.65455 0.0
C1534 C 0.98407 0.06729 0.64702 0.0
C1535 C 0.00638 0.07075 0.63699 0.0
C1536 C 0.02239 0.05185 0.63708 0.0
C1537 C 0.01558 0.02975 0.64519 0.0
C1538 C 0.02861 0.11236 0.59009 0.0
C1539 C 0.01573 0.13269 0.59498 0.0
C1540 C 0.02634 0.09259 0.60425 0.0
C1541 C 0.01169 0.09294 0.62414 0.0
C1542 C 0.00027 0.11412 0.62995 0.0
C1543 C 0.00185 0.13363 0.6152 0.0
H1544 H 0.19476 0.71308 0.92098 0.0
H1545 H 0.23409 0.77344 0.8984 0.0
H1546 H 0.1599 0.72831 0.9022 0.0
H1547 H 0.19864 0.79046 0.88165 0.0
H1548 H 0.14582 0.79339 0.82154 0.0
H1549 H 0.1772 0.78712 0.84932 0.0
H1550 H 0.12876 0.75081 0.89533 0.0
H1551 H 0.09811 0.75505 0.86581 0.0
C1552 C 0.19556 0.73017 0.9127 0.0
C1553 C 0.21687 0.74223 0.91114 0.0
C1554 C 0.17546 0.73914 0.90202 0.0
C1555 C 0.17616 0.76066 0.88984 0.0
C1556 C 0.19736 0.77347 0.88995 0.0
C1557 C 0.21767 0.76397 0.89985 0.0
C1558 C 0.14192 0.78436 0.83778 0.0
C1559 C 0.1198 0.7744 0.8415 0.0
C1560 C 0.15992 0.78087 0.85399 0.0
C1561 C 0.15596 0.768 0.87474 0.0
C1562 C 0.13298 0.75995 0.87927 0.0
C1563 C 0.11524 0.76261 0.86253 0.0
H1564 H 0.47378 0.98859 0.12819 0.0
H1565 H 0.53852 0.95455 0.14721 0.0
H1566 H 0.45806 0.9512 0.11428 0.0
H1567 H 0.52414 0.91778 0.13165 0.0
H1568 H 0.49624 0.85111 0.10741 0.0
H1569 H 0.50138 0.88541 0.13243 0.0
H1570 H 0.46088 0.92675 0.08316 0.0
H1571 H 0.45398 0.89193 0.05981 0.0
C1572 C 0.48453 0.97297 0.1294 0.0
C1573 C 0.50705 0.97409 0.13909 0.0
C1574 C 0.47571 0.95158 0.12125 0.0
C1575 C 0.48977 0.93121 0.12162 0.0
C1576 C 0.51238 0.93266 0.13152 0.0
C1577 C 0.52082 0.95383 0.14026 0.0
C1578 C 0.488 0.86749 0.10243 0.0
C1579 C 0.4749 0.86908 0.08172 0.0
C1580 C 0.49113 0.88726 0.11656 0.0
C1581 C 0.48215 0.90924 0.10962 0.0
C1582 C 0.46792 0.91029 0.08944 0.0
C1583 C 0.46407 0.89032 0.07585 0.0
H1584 H 0.75352 0.27425 0.61248 0.0
H1585 H 0.79542 0.22125 0.5786 0.0
H1586 H 0.78687 0.28475 0.6373 0.0
H1587 H 0.82928 0.23273 0.60195 0.0
H1588 H 0.86503 0.22901 0.67383 0.0
H1589 H 0.83755 0.2253 0.6417 0.0
H1590 H 0.82571 0.3002 0.64288 0.0
H1591 H 0.85286 0.30377 0.67592 0.0
C1592 C 0.77019 0.26553 0.60978 0.0
C1593 C 0.77222 0.24742 0.59332 0.0
C1594 C 0.78934 0.27161 0.62383 0.0
C1595 C 0.81074 0.25946 0.62174 0.0
C1596 C 0.81298 0.24219 0.60429 0.0
C1597 C 0.79375 0.2359 0.59058 0.0
C1598 C 0.8568 0.24475 0.6671 0.0
C1599 C 0.86092 0.26664 0.67753 0.0
C1600 C 0.84116 0.24267 0.64846 0.0
C1601 C 0.82942 0.26248 0.63962 0.0
C1602 C 0.83427 0.28458 0.64946 0.0
C1603 C 0.84985 0.28663 0.6683 0.0
H1604 H 0.97532 0.50666 0.84635 0.0
H1605 H 0.03557 0.54543 0.8225 0.0
H1606 H 0.95902 0.54214 0.8635 0.0
H1607 H 0.02124 0.58032 0.84195 0.0
H1608 H 0.99484 0.64248 0.87891 0.0
H1609 H -0.00049 0.61169 0.84961 0.0
H1610 H 0.96258 0.56352 0.89545 0.0
H1611 H 0.95586 0.59497 0.92283 0.0
C1612 C 0.98497 0.52296 0.84481 0.0
C1613 C 0.00639 0.52362 0.83294 0.0
C1614 C 0.97591 0.5433 0.85497 0.0
C1615 C 0.98895 0.56436 0.8549 0.0
C1616 C 0.01024 0.56488 0.8423 0.0
C1617 C 0.01871 0.54477 0.83126 0.0
C1618 C 0.98728 0.62535 0.88218 0.0
C1619 C 0.97508 0.62093 0.903 0.0
C1620 C 0.99018 0.60753 0.86557 0.0
C1621 C 0.98194 0.58461 0.87006 0.0
C1622 C 0.9689 0.58074 0.89071 0.0
C1623 C 0.96517 0.5988 0.90672 0.0
H1624 H 0.59911 0.73637 0.13425 0.0
H1625 H 0.64316 0.6913 0.17598 0.0
H1626 H 0.62946 0.73831 0.10421 0.0
H1627 H 0.67441 0.69512 0.14784 0.0
H1628 H 0.73174 0.70434 0.09873 0.0
H1629 H 0.69483 0.69064 0.11526 0.0
H1630 H 0.66277 0.75722 0.0971 0.0
H1631 H 0.69884 0.76916 0.0783 0.0
C1632 C 0.61536 0.72687 0.13688 0.0
C1633 C 0.619 0.71384 0.15736 0.0
C1634 C 0.63295 0.72816 0.11984 0.0
C1635 C 0.65497 0.7174 0.12355 0.0
C1636 C 0.65787 0.70342 0.14374 0.0
C1637 C 0.63995 0.70136 0.16019 0.0
C1638 C 0.71643 0.71555 0.09777 0.0
C1639 C 0.71782 0.73758 0.08715 0.0
C1640 C 0.6953 0.70796 0.10756 0.0
C1641 C 0.6756 0.72296 0.10833 0.0
C1642 C 0.67708 0.74479 0.09679 0.0
C1643 C 0.69791 0.75187 0.08614 0.0
H1644 H 0.50306 0.48769 0.35265 0.0
H1645 H 0.44953 0.44777 0.31718 0.0
H1646 H 0.51718 0.45195 0.37167 0.0
H1647 H 0.46441 0.4118 0.33473 0.0
H1648 H 0.47065 0.36494 0.3999 0.0
H1649 H 0.46192 0.39627 0.3727 0.0
H1650 H 0.53559 0.41415 0.36943 0.0
H1651 H 0.54424 0.38301 0.39763 0.0
C1652 C 0.49483 0.47109 0.34843 0.0
C1653 C 0.47569 0.47025 0.33304 0.0
C1654 C 0.503 0.45058 0.3591 0.0
C1655 C 0.49194 0.42893 0.35476 0.0
C1656 C 0.47319 0.42816 0.33873 0.0
C1657 C 0.46488 0.44868 0.32835 0.0
C1658 C 0.48508 0.37528 0.39314 0.0
C1659 C 0.5081 0.37167 0.40113 0.0
C1660 C 0.48009 0.39321 0.37732 0.0
C1661 C 0.49803 0.40789 0.36891 0.0
C1662 C 0.52131 0.40341 0.37587 0.0
C1663 C 0.52629 0.38547 0.39188 0.0
H1664 H 0.39654 0.28604 0.27776 0.0
H1665 H 0.37959 0.25019 0.21349 0.0
H1666 H 0.37861 0.32159 0.26308 0.0
H1667 H 0.36342 0.28643 0.1974 0.0
H1668 H 0.34798 0.38575 0.23533 0.0
H1669 H 0.37606 0.35388 0.24045 0.0
H1670 H 0.33066 0.30822 0.20001 0.0
H1671 H 0.30426 0.34065 0.19316 0.0
C1672 C 0.38955 0.28615 0.26009 0.0
C1673 C 0.38955 0.26568 0.24657 0.0
C1674 C 0.37944 0.30663 0.25146 0.0
C1675 C 0.36934 0.30718 0.22891 0.0
C1676 C 0.37039 0.28671 0.21504 0.0
C1677 C 0.37985 0.26598 0.22406 0.0
C1678 C 0.34452 0.36899 0.22707 0.0
C1679 C 0.32397 0.3655 0.21404 0.0
C1680 C 0.36042 0.35059 0.2302 0.0
C1681 C 0.35549 0.32805 0.22125 0.0
C1682 C 0.33547 0.32517 0.20703 0.0
C1683 C 0.3201 0.34379 0.2032 0.0
H1684 H 0.84373 0.09805 0.75817 0.0
H1685 H 0.79019 0.13789 0.7936 0.0
H1686 H 0.87161 0.12991 0.76416 0.0
H1687 H 0.81685 0.17078 0.79748 0.0
H1688 H 0.86458 0.23082 0.8009 0.0
H1689 H 0.84743 0.19254 0.80996 0.0
H1690 H 0.87919 0.16423 0.74698 0.0
H1691 H 0.89744 0.20154 0.73954 0.0
C1692 C 0.83802 0.11374 0.76724 0.0
C1693 C 0.81489 0.11579 0.77519 0.0
C1694 C 0.85387 0.13216 0.77051 0.0
C1695 C 0.84652 0.15349 0.78072 0.0
C1696 C 0.82354 0.1548 0.78978 0.0
C1697 C 0.80804 0.13599 0.78735 0.0
C1698 C 0.86833 0.21603 0.78959 0.0
C1699 C 0.8824 0.21888 0.76971 0.0
C1700 C 0.85833 0.19414 0.79452 0.0
C1701 C 0.86135 0.17506 0.77899 0.0
C1702 C 0.87652 0.17799 0.75973 0.0
C1703 C 0.88697 0.19957 0.75527 0.0
H1704 H 0.04715 0.65873 0.96638 0.0
H1705 H 0.00891 0.63134 0.02541 0.0
H1706 H 0.08276 0.64054 0.98056 0.0
H1707 H 0.04505 0.61506 0.04145 0.0
H1708 H 0.09884 0.55576 0.03917 0.0
H1709 H 0.06696 0.58333 0.03532 0.0
H1710 H 0.11425 0.63312 0.00268 0.0
H1711 H 0.14554 0.60401 0.0045 0.0
C1712 C 0.04673 0.64952 0.983 0.0
C1713 C 0.02552 0.64637 0.99491 0.0
C1714 C 0.06725 0.63918 0.99136 0.0
C1715 C 0.06705 0.62572 0.0121 0.0
C1716 C 0.04594 0.62438 0.02497 0.0
C1717 C 0.02523 0.63398 0.01605 0.0
C1718 C 0.10241 0.57275 0.03146 0.0
C1719 C 0.1244 0.5777 0.02176 0.0
C1720 C 0.08411 0.58884 0.02941 0.0
C1721 C 0.08761 0.61064 0.01827 0.0
C1722 C 0.11043 0.61629 0.01053 0.0
C1723 C 0.12851 0.59975 0.01176 0.0
H1724 H 0.66399 0.87362 0.2239 0.0
H1725 H 0.67196 0.86283 0.29844 0.0
H1726 H 0.6365 0.84134 0.22201 0.0
H1727 H 0.64359 0.83065 0.2967 0.0
H1728 H 0.58087 0.78956 0.22142 0.0
H1729 H 0.59909 0.82673 0.23157 0.0
H1730 H 0.64358 0.79105 0.28157 0.0
H1731 H 0.62381 0.75403 0.27248 0.0
C1732 C 0.65947 0.86465 0.24001 0.0
C1733 C 0.6703 0.87065 0.26128 0.0
C1734 C 0.64349 0.84619 0.23898 0.0
C1735 C 0.63778 0.83332 0.25923 0.0
C1736 C 0.64782 0.84002 0.28075 0.0
C1737 C 0.66394 0.85853 0.28176 0.0
C1738 C 0.59375 0.78989 0.23539 0.0
C1739 C 0.60046 0.76915 0.24673 0.0
C1740 C 0.60454 0.81111 0.2409 0.0
C1741 C 0.62305 0.81188 0.25717 0.0
C1742 C 0.62919 0.79119 0.26918 0.0
C1743 C 0.61804 0.76996 0.2639 0.0
H1744 H 0.38899 0.42975 0.55639 0.0
H1745 H 0.36918 0.41694 0.48439 0.0
H1746 H 0.41961 0.39987 0.55326 0.0
H1747 H 0.39996 0.38793 0.481 0.0
H1748 H 0.44895 0.33139 0.47732 0.0
H1749 H 0.4139 0.35064 0.49182 0.0
H1750 H 0.45703 0.39684 0.5338 0.0
H1751 H 0.49205 0.37583 0.52075 0.0
C1752 C 0.39105 0.42043 0.53998 0.0
C1753 C 0.37681 0.42577 0.52057 0.0
C1754 C 0.40862 0.40338 0.53818 0.0
C1755 C 0.41225 0.39144 0.51692 0.0
C1756 C 0.39741 0.39635 0.49782 0.0
C1757 C 0.37985 0.41321 0.49966 0.0
C1758 C 0.45081 0.34469 0.49073 0.0
C1759 C 0.47307 0.35165 0.49854 0.0
C1760 C 0.43076 0.35613 0.49864 0.0
C1761 C 0.43265 0.37561 0.5136 0.0
C1762 C 0.45488 0.38177 0.52245 0.0
C1763 C 0.47496 0.36988 0.51491 0.0
H1764 H 0.13454 0.60054 0.74025 0.0
H1765 H 0.18278 0.64579 0.70366 0.0
H1766 H 0.10646 0.63267 0.74319 0.0
H1767 H 0.15626 0.67847 0.70854 0.0
H1768 H 0.10863 0.73744 0.71935 0.0
H1769 H 0.12453 0.70105 0.70342 0.0
H1770 H 0.10152 0.66441 0.7659 0.0
H1771 H 0.08386 0.70023 0.78017 0.0
C1772 C 0.13901 0.61742 0.73277 0.0
C1773 C 0.16079 0.62087 0.72193 0.0
C1774 C 0.12309 0.63597 0.73466 0.0
C1775 C 0.12912 0.65861 0.72671 0.0
C1776 C 0.15053 0.66147 0.71468 0.0
C1777 C 0.16599 0.64271 0.71201 0.0
C1778 C 0.10652 0.72131 0.72916 0.0
C1779 C 0.09486 0.72134 0.75071 0.0
C1780 C 0.11586 0.70047 0.72026 0.0
C1781 C 0.11488 0.67955 0.73345 0.0
C1782 C 0.10245 0.67975 0.75481 0.0
C1783 C 0.09244 0.70039 0.76323 0.0
H1784 H 0.54754 0.82408 0.02655 0.0
H1785 H 0.51215 0.84225 0.96236 0.0
H1786 H 0.58366 0.84063 0.0118 0.0
H1787 H 0.54895 0.85658 0.94602 0.0
H1788 H 0.60258 0.9157 0.94148 0.0
H1789 H 0.57054 0.88888 0.94818 0.0
H1790 H 0.61619 0.84547 0.99082 0.0
H1791 H 0.6475 0.8742 0.9859 0.0
C1792 C 0.54789 0.83085 0.0088 0.0
C1793 C 0.52728 0.83196 0.99549 0.0
C1794 C 0.56873 0.84022 0.00012 0.0
C1795 C 0.56951 0.85059 0.97769 0.0
C1796 C 0.54907 0.84976 0.9637 0.0
C1797 C 0.52799 0.84122 0.97283 0.0
C1798 C 0.60574 0.90024 0.95207 0.0
C1799 C 0.62725 0.89712 0.9635 0.0
C1800 C 0.58737 0.88455 0.95578 0.0
C1801 C 0.59031 0.86485 0.97043 0.0
C1802 C 0.61273 0.86078 0.98019 0.0
C1803 C 0.63083 0.87707 0.97721 0.0
H1804 H 0.88383 0.09709 0.43716 0.0
H1805 H 0.86418 0.09987 0.51022 0.0
H1806 H 0.91281 0.12807 0.44392 0.0
H1807 H 0.89338 0.12962 0.5172 0.0
H1808 H 0.94304 0.18382 0.53024 0.0
H1809 H 0.90766 0.16731 0.51316 0.0
H1810 H 0.95001 0.13016 0.46236 0.0
H1811 H 0.98511 0.14891 0.47811 0.0
C1812 C 0.88548 0.10452 0.45456 0.0
C1813 C 0.87192 0.09587 0.47321 0.0
C1814 C 0.90216 0.12216 0.45848 0.0
C1815 C 0.90563 0.13136 0.48114 0.0
C1816 C 0.89108 0.12344 0.49941 0.0
C1817 C 0.8744 0.10606 0.49546 0.0
C1818 C 0.94458 0.1733 0.51452 0.0
C1819 C 0.96666 0.16823 0.505 0.0
C1820 C 0.92436 0.16332 0.50504 0.0
C1821 C 0.92592 0.1469 0.48667 0.0
C1822 C 0.94798 0.14285 0.47632 0.0
C1823 C 0.96816 0.15343 0.48543 0.0
loop_
_geom_bond_atom_site_label_1
_geom_bond_atom_site_label_2
_geom_bond_distance
_geom_bond_site_symmetry_2
_ccdc_geom_bond_type
Mn0 O5 2.095 . S
Mn0 O15 2.162 . S
Mn0 O16 2.297 . S
Mn0 O24 2.385 . S
Mn0 O25 2.209 . S
Mn0 O26 2.094 . S
Mn1 O6 2.121 . S
Mn1 N8 2.257 . S
Mn1 N17 2.282 . S
Mn1 O25 2.215 . S
Mn1 O27 2.117 . S
C2 O24 1.234 . S
C2 O25 1.283 . S
C3 O15 1.281 . S
C3 O16 1.236 . S
C4 O26 1.240 . S
C4 O27 1.264 . S
O5 Mn0 2.095 . S
O5 C14 1.250 . S
O6 Mn1 2.121 . S
O6 C14 1.258 . S
C7 N8 1.326 . S
C7 C11 1.460 . S
C7 H13 0.929 . S
N8 Mn1 2.257 . S
N8 C7 1.326 . S
N8 C12 1.362 . S
C9 C10 1.258 . S
C9 C12 1.431 . S
C9 C29 1.449 . S
C10 C9 1.258 . S
C10 C11 1.477 . S
C10 H30 0.931 . S
C11 C7 1.460 . S
C11 C10 1.477 . S
C11 H31 0.930 . S
C12 N8 1.362 . S
C12 C9 1.431 . S
C12 C22 1.476 . S
H13 C7 0.929 . S
C14 O5 1.250 . S
C14 O6 1.258 . S
O15 Mn0 2.162 . S
O15 C3 1.281 . S
O16 Mn0 2.297 . S
O16 C3 1.236 . S
N17 Mn1 2.282 . S
N17 C18 1.328 . S
N17 C22 1.318 . S
C18 N17 1.328 . S
C18 C19 1.457 . S
C18 H23 0.929 . S
C19 C18 1.457 . S
C19 C20 1.291 . S
C19 H32 0.931 . S
C20 C19 1.291 . S
C20 C21 1.373 . S
C20 H33 0.929 . S
C21 C20 1.373 . S
C21 C22 1.396 . S
C21 C28 1.403 . S
C22 C12 1.476 . S
C22 N17 1.318 . S
C22 C21 1.396 . S
H23 C18 0.929 . S
O24 Mn0 2.385 . S
O24 C2 1.234 . S
O25 Mn0 2.209 . S
O25 Mn1 2.215 . S
O25 C2 1.283 . S
O26 Mn0 2.094 . S
O26 C4 1.240 . S
O27 Mn1 2.117 . S
O27 C4 1.264 . S
C28 C21 1.403 . S
C28 C29 1.399 . S
C28 H34 0.929 . S
C29 C9 1.449 . S
C29 C28 1.399 . S
C29 H35 0.930 . S
H30 C10 0.931 . S
H31 C11 0.930 . S
H32 C19 0.931 . S
H33 C20 0.929 . S
H34 C28 0.929 . S
H35 C29 0.930 . S
Mn36 O41 2.095 . S
Mn36 O51 2.162 . S
Mn36 O52 2.297 . S
Mn36 O60 2.385 . S
Mn36 O61 2.209 . S
Mn36 O62 2.094 . S
Mn37 O42 2.121 . S
Mn37 N44 2.257 1_565 S
Mn37 N53 2.282 1_655 S
Mn37 O61 2.215 . S
Mn37 O63 2.117 . S
C38 O60 1.234 . S
C38 O61 1.283 . S
C39 O51 1.281 . S
C39 O52 1.236 . S
C40 O62 1.240 . S
C40 O63 1.264 . S
O41 Mn36 2.095 . S
O41 C50 1.250 . S
O42 Mn37 2.121 . S
O42 C50 1.258 . S
C43 N44 1.326 . S
C43 C47 1.460 . S
C43 H49 0.929 . S
N44 Mn37 2.257 1_545 S
N44 C43 1.326 . S
N44 C48 1.362 1_655 S
C45 C46 1.258 1_455 S
C45 C48 1.431 . S
C45 C65 1.449 . S
C46 C45 1.258 1_655 S
C46 C47 1.477 . S
C46 H66 0.931 1_655 S
C47 C43 1.460 . S
C47 C46 1.477 . S
C47 H67 0.930 . S
C48 N44 1.362 1_455 S
C48 C45 1.431 . S
C48 C58 1.476 1_545 S
H49 C43 0.929 . S
C50 O41 1.250 . S
C50 O42 1.258 . S
O51 Mn36 2.162 . S
O51 C39 1.281 . S
O52 Mn36 2.297 . S
O52 C39 1.236 . S
N53 Mn37 2.282 1_455 S
N53 C54 1.328 . S
N53 C58 1.318 . S
C54 N53 1.328 . S
C54 C55 1.457 . S
C54 H59 0.929 . S
C55 C54 1.457 . S
C55 C56 1.291 . S
C55 H68 0.931 . S
C56 C55 1.291 . S
C56 C57 1.373 . S
C56 H69 0.929 . S
C57 C56 1.373 . S
C57 C58 1.396 . S
C57 C64 1.403 1_565 S
C58 C48 1.476 1_565 S
C58 N53 1.318 . S
C58 C57 1.396 . S
H59 C54 0.929 . S
O60 Mn36 2.385 . S
O60 C38 1.234 . S
O61 Mn36 2.209 . S
O61 Mn37 2.215 . S
O61 C38 1.283 . S
O62 Mn36 2.094 . S
O62 C40 1.240 . S
O63 Mn37 2.117 . S
O63 C40 1.264 . S
C64 C57 1.403 1_545 S
C64 C65 1.399 . S
C64 H70 0.929 . S
C65 C45 1.449 . S
C65 C64 1.399 . S
C65 H71 0.930 . S
H66 C46 0.931 1_455 S
H67 C47 0.930 . S
H68 C55 0.931 . S
H69 C56 0.929 . S
H70 C64 0.929 . S
H71 C65 0.930 . S
Mn72 O77 2.095 . S
Mn72 O87 2.162 . S
Mn72 O88 2.297 . S
Mn72 O96 2.385 . S
Mn72 O97 2.209 . S
Mn72 O98 2.094 . S
Mn73 O78 2.121 . S
Mn73 N80 2.257 . S
Mn73 N89 2.282 . S
Mn73 O97 2.215 . S
Mn73 O99 2.117 . S
C74 O96 1.234 . S
C74 O97 1.283 . S
C75 O87 1.281 . S
C75 O88 1.236 . S
C76 O98 1.240 . S
C76 O99 1.264 . S
O77 Mn72 2.095 . S
O77 C86 1.250 . S
O78 Mn73 2.121 . S
O78 C86 1.258 . S
C79 N80 1.326 . S
C79 C83 1.460 . S
C79 H85 0.929 . S
N80 Mn73 2.257 . S
N80 C79 1.326 . S
N80 C84 1.362 . S
C81 C82 1.258 . S
C81 C84 1.431 . S
C81 C101 1.449 . S
C82 C81 1.258 . S
C82 C83 1.477 . S
C82 H102 0.931 . S
C83 C79 1.460 . S
C83 C82 1.477 . S
C83 H103 0.930 . S
C84 N80 1.362 . S
C84 C81 1.431 . S
C84 C94 1.476 . S
H85 C79 0.929 . S
C86 O77 1.250 . S
C86 O78 1.258 . S
O87 Mn72 2.162 . S
O87 C75 1.281 . S
O88 Mn72 2.297 . S
O88 C75 1.236 . S
N89 Mn73 2.282 . S
N89 C90 1.328 . S
N89 C94 1.318 . S
C90 N89 1.328 . S
C90 C91 1.457 . S
C90 H95 0.929 . S
C91 C90 1.457 . S
C91 C92 1.291 . S
C91 H104 0.931 . S
C92 C91 1.291 . S
C92 C93 1.373 . S
C92 H105 0.929 . S
C93 C92 1.373 . S
C93 C94 1.396 . S
C93 C100 1.403 . S
C94 C84 1.476 . S
C94 N89 1.318 . S
C94 C93 1.396 . S
H95 C90 0.929 . S
O96 Mn72 2.385 . S
O96 C74 1.234 . S
O97 Mn72 2.209 . S
O97 Mn73 2.215 . S
O97 C74 1.283 . S
O98 Mn72 2.094 . S
O98 C76 1.240 . S
O99 Mn73 2.117 . S
O99 C76 1.264 . S
C100 C93 1.403 . S
C100 C101 1.399 . S
C100 H106 0.929 . S
C101 C81 1.449 . S
C101 C100 1.399 . S
C101 H107 0.930 . S
H102 C82 0.931 . S
H103 C83 0.930 . S
H104 C91 0.931 . S
H105 C92 0.929 . S
H106 C100 0.929 . S
H107 C101 0.930 . S
Mn108 O113 2.095 . S
Mn108 O123 2.162 . S
Mn108 O124 2.297 . S
Mn108 O132 2.385 . S
Mn108 O133 2.209 . S
Mn108 O134 2.094 . S
Mn109 O114 2.121 . S
Mn109 N116 2.257 1_545 S
Mn109 N125 2.282 . S
Mn109 O133 2.215 . S
Mn109 O135 2.117 . S
C110 O132 1.234 . S
C110 O133 1.283 . S
C111 O123 1.281 . S
C111 O124 1.236 . S
C112 O134 1.240 . S
C112 O135 1.264 . S
O113 Mn108 2.095 . S
O113 C122 1.250 . S
O114 Mn109 2.121 . S
O114 C122 1.258 . S
C115 N116 1.326 . S
C115 C119 1.460 . S
C115 H121 0.929 . S
N116 Mn109 2.257 1_565 S
N116 C115 1.326 . S
N116 C120 1.362 . S
C117 C118 1.258 . S
C117 C120 1.431 . S
C117 C137 1.449 . S
C118 C117 1.258 . S
C118 C119 1.477 . S
C118 H138 0.931 . S
C119 C115 1.460 . S
C119 C118 1.477 . S
C119 H139 0.930 . S
C120 N116 1.362 . S
C120 C117 1.431 . S
C120 C130 1.476 1_565 S
H121 C115 0.929 . S
C122 O113 1.250 . S
C122 O114 1.258 . S
O123 Mn108 2.162 . S
O123 C111 1.281 . S
O124 Mn108 2.297 . S
O124 C111 1.236 . S
N125 Mn109 2.282 . S
N125 C126 1.328 . S
N125 C130 1.318 . S
C126 N125 1.328 . S
C126 C127 1.457 . S
C126 H131 0.929 . S
C127 C126 1.457 . S
C127 C128 1.291 . S
C127 H140 0.931 . S
C128 C127 1.291 . S
C128 C129 1.373 . S
C128 H141 0.929 . S
C129 C128 1.373 . S
C129 C130 1.396 . S
C129 C136 1.403 1_545 S
C130 C120 1.476 1_545 S
C130 N125 1.318 . S
C130 C129 1.396 . S
H131 C126 0.929 . S
O132 Mn108 2.385 . S
O132 C110 1.234 . S
O133 Mn108 2.209 . S
O133 Mn109 2.215 . S
O133 C110 1.283 . S
O134 Mn108 2.094 . S
O134 C112 1.240 . S
O135 Mn109 2.117 . S
O135 C112 1.264 . S
C136 C129 1.403 1_565 S
C136 C137 1.399 . S
C136 H142 0.929 . S
C137 C117 1.449 . S
C137 C136 1.399 . S
C137 H143 0.930 . S
H138 C118 0.931 . S
H139 C119 0.930 . S
H140 C127 0.931 . S
H141 C128 0.929 . S
H142 C136 0.929 . S
H143 C137 0.930 . S
Mn144 O149 2.095 . S
Mn144 O159 2.162 . S
Mn144 O160 2.297 . S
Mn144 O168 2.385 . S
Mn144 O169 2.209 . S
Mn144 O170 2.094 . S
Mn145 O150 2.121 . S
Mn145 N152 2.257 . S
Mn145 N161 2.282 . S
Mn145 O169 2.215 . S
Mn145 O171 2.117 . S
C146 O168 1.234 . S
C146 O169 1.283 . S
C147 O159 1.281 . S
C147 O160 1.236 . S
C148 O170 1.240 . S
C148 O171 1.264 . S
O149 Mn144 2.095 . S
O149 C158 1.250 . S
O150 Mn145 2.121 . S
O150 C158 1.258 . S
C151 N152 1.326 . S
C151 C155 1.460 . S
C151 H157 0.929 . S
N152 Mn145 2.257 . S
N152 C151 1.326 . S
N152 C156 1.362 . S
C153 C154 1.258 . S
C153 C156 1.431 . S
C153 C173 1.449 . S
C154 C153 1.258 . S
C154 C155 1.477 . S
C154 H174 0.931 . S
C155 C151 1.460 . S
C155 C154 1.477 . S
C155 H175 0.930 . S
C156 N152 1.362 . S
C156 C153 1.431 . S
C156 C166 1.476 . S
H157 C151 0.929 . S
C158 O149 1.250 . S
C158 O150 1.258 . S
O159 Mn144 2.162 . S
O159 C147 1.281 . S
O160 Mn144 2.297 . S
O160 C147 1.236 . S
N161 Mn145 2.282 . S
N161 C162 1.328 . S
N161 C166 1.318 . S
C162 N161 1.328 . S
C162 C163 1.457 . S
C162 H167 0.929 . S
C163 C162 1.457 . S
C163 C164 1.291 . S
C163 H176 0.931 . S
C164 C163 1.291 . S
C164 C165 1.373 . S
C164 H177 0.929 . S
C165 C164 1.373 . S
C165 C166 1.396 . S
C165 C172 1.403 . S
C166 C156 1.476 . S
C166 N161 1.318 . S
C166 C165 1.396 . S
H167 C162 0.929 . S
O168 Mn144 2.385 . S
O168 C146 1.234 . S
O169 Mn144 2.209 . S
O169 Mn145 2.215 . S
O169 C146 1.283 . S
O170 Mn144 2.094 . S
O170 C148 1.240 . S
O171 Mn145 2.117 . S
O171 C148 1.264 . S
C172 C165 1.403 . S
C172 C173 1.399 . S
C172 H178 0.929 . S
C173 C153 1.449 . S
C173 C172 1.399 . S
C173 H179 0.930 . S
H174 C154 0.931 . S
H175 C155 0.930 . S
H176 C163 0.931 . S
H177 C164 0.929 . S
H178 C172 0.929 . S
H179 C173 0.930 . S
Mn180 O185 2.095 . S
Mn180 O195 2.162 . S
Mn180 O196 2.297 . S
Mn180 O204 2.385 . S
Mn180 O205 2.209 . S
Mn180 O206 2.094 . S
Mn181 O186 2.121 . S
Mn181 N188 2.257 . S
Mn181 N197 2.282 1_455 S
Mn181 O205 2.215 . S
Mn181 O207 2.117 . S
C182 O204 1.234 . S
C182 O205 1.283 . S
C183 O195 1.281 . S
C183 O196 1.236 . S
C184 O206 1.240 . S
C184 O207 1.264 . S
O185 Mn180 2.095 . S
O185 C194 1.250 . S
O186 Mn181 2.121 . S
O186 C194 1.258 . S
C187 N188 1.326 . S
C187 C191 1.460 . S
C187 H193 0.929 . S
N188 Mn181 2.257 . S
N188 C187 1.326 . S
N188 C192 1.362 1_455 S
C189 C190 1.258 1_655 S
C189 C192 1.431 . S
C189 C209 1.449 . S
C190 C189 1.258 1_455 S
C190 C191 1.477 . S
C190 H210 0.931 1_455 S
C191 C187 1.460 . S
C191 C190 1.477 . S
C191 H211 0.930 . S
C192 N188 1.362 1_655 S
C192 C189 1.431 . S
C192 C202 1.476 . S
H193 C187 0.929 . S
C194 O185 1.250 . S
C194 O186 1.258 . S
O195 Mn180 2.162 . S
O195 C183 1.281 . S
O196 Mn180 2.297 . S
O196 C183 1.236 . S
N197 Mn181 2.282 1_655 S
N197 C198 1.328 . S
N197 C202 1.318 . S
C198 N197 1.328 . S
C198 C199 1.457 . S
C198 H203 0.929 . S
C199 C198 1.457 . S
C199 C200 1.291 . S
C199 H212 0.931 . S
C200 C199 1.291 . S
C200 C201 1.373 . S
C200 H213 0.929 . S
C201 C200 1.373 . S
C201 C202 1.396 . S
C201 C208 1.403 . S
C202 C192 1.476 . S
C202 N197 1.318 . S
C202 C201 1.396 . S
H203 C198 0.929 . S
O204 Mn180 2.385 . S
O204 C182 1.234 . S
O205 Mn180 2.209 . S
O205 Mn181 2.215 . S
O205 C182 1.283 . S
O206 Mn180 2.094 . S
O206 C184 1.240 . S
O207 Mn181 2.117 . S
O207 C184 1.264 . S
C208 C201 1.403 . S
C208 C209 1.399 . S
C208 H214 0.929 . S
C209 C189 1.449 . S
C209 C208 1.399 . S
C209 H215 0.930 . S
H210 C190 0.931 1_655 S
H211 C191 0.930 . S
H212 C199 0.931 . S
H213 C200 0.929 . S
H214 C208 0.929 . S
H215 C209 0.930 . S
Mn216 O221 2.095 . S
Mn216 O231 2.162 . S
Mn216 O232 2.297 . S
Mn216 O240 2.385 . S
Mn216 O241 2.209 . S
Mn216 O242 2.094 . S
Mn217 O222 2.121 . S
Mn217 N224 2.257 . S
Mn217 N233 2.282 . S
Mn217 O241 2.215 . S
Mn217 O243 2.117 . S
C218 O240 1.234 . S
C218 O241 1.283 . S
C219 O231 1.281 . S
C219 O232 1.236 . S
C220 O242 1.240 . S
C220 O243 1.264 . S
O221 Mn216 2.095 . S
O221 C230 1.250 . S
O222 Mn217 2.121 . S
O222 C230 1.258 . S
C223 N224 1.326 . S
C223 C227 1.460 . S
C223 H229 0.929 . S
N224 Mn217 2.257 . S
N224 C223 1.326 . S
N224 C228 1.362 . S
C225 C226 1.258 . S
C225 C228 1.431 . S
C225 C245 1.449 . S
C226 C225 1.258 . S
C226 C227 1.477 . S
C226 H246 0.931 . S
C227 C223 1.460 . S
C227 C226 1.477 . S
C227 H247 0.930 . S
C228 N224 1.362 . S
C228 C225 1.431 . S
C228 C238 1.476 . S
H229 C223 0.929 . S
C230 O221 1.250 . S
C230 O222 1.258 . S
O231 Mn216 2.162 . S
O231 C219 1.281 . S
O232 Mn216 2.297 . S
O232 C219 1.236 . S
N233 Mn217 2.282 . S
N233 C234 1.328 . S
N233 C238 1.318 . S
C234 N233 1.328 . S
C234 C235 1.457 . S
C234 H239 0.929 . S
C235 C234 1.457 . S
C235 C236 1.291 . S
C235 H248 0.931 . S
C236 C235 1.291 . S
C236 C237 1.373 . S
C236 H249 0.929 . S
C237 C236 1.373 . S
C237 C238 1.396 . S
C237 C244 1.403 . S
C238 C228 1.476 . S
C238 N233 1.318 . S
C238 C237 1.396 . S
H239 C234 0.929 . S
O240 Mn216 2.385 . S
O240 C218 1.234 . S
O241 Mn216 2.209 . S
O241 Mn217 2.215 . S
O241 C218 1.283 . S
O242 Mn216 2.094 . S
O242 C220 1.240 . S
O243 Mn217 2.117 . S
O243 C220 1.264 . S
C244 C237 1.403 . S
C244 C245 1.399 . S
C244 H250 0.929 . S
C245 C225 1.449 . S
C245 C244 1.399 . S
C245 H251 0.930 . S
H246 C226 0.931 . S
H247 C227 0.930 . S
H248 C235 0.931 . S
H249 C236 0.929 . S
H250 C244 0.929 . S
H251 C245 0.930 . S
Mn252 O257 2.095 . S
Mn252 O267 2.162 . S
Mn252 O268 2.297 . S
Mn252 O276 2.385 . S
Mn252 O277 2.209 . S
Mn252 O278 2.094 . S
Mn253 O258 2.121 . S
Mn253 N260 2.257 . S
Mn253 N269 2.282 . S
Mn253 O277 2.215 . S
Mn253 O279 2.117 . S
C254 O276 1.234 . S
C254 O277 1.283 . S
C255 O267 1.281 . S
C255 O268 1.236 . S
C256 O278 1.240 . S
C256 O279 1.264 . S
O257 Mn252 2.095 . S
O257 C266 1.250 . S
O258 Mn253 2.121 . S
O258 C266 1.258 . S
C259 N260 1.326 . S
C259 C263 1.460 . S
C259 H265 0.929 . S
N260 Mn253 2.257 . S
N260 C259 1.326 . S
N260 C264 1.362 . S
C261 C262 1.258 . S
C261 C264 1.431 . S
C261 C281 1.449 . S
C262 C261 1.258 . S
C262 C263 1.477 . S
C262 H282 0.931 . S
C263 C259 1.460 . S
C263 C262 1.477 . S
C263 H283 0.930 . S
C264 N260 1.362 . S
C264 C261 1.431 . S
C264 C274 1.476 . S
H265 C259 0.929 . S
C266 O257 1.250 . S
C266 O258 1.258 . S
O267 Mn252 2.162 . S
O267 C255 1.281 . S
O268 Mn252 2.297 . S
O268 C255 1.236 . S
N269 Mn253 2.282 . S
N269 C270 1.328 . S
N269 C274 1.318 . S
C270 N269 1.328 . S
C270 C271 1.457 . S
C270 H275 0.929 . S
C271 C270 1.457 . S
C271 C272 1.291 . S
C271 H284 0.931 . S
C272 C271 1.291 . S
C272 C273 1.373 . S
C272 H285 0.929 . S
C273 C272 1.373 . S
C273 C274 1.396 . S
C273 C280 1.403 . S
C274 C264 1.476 . S
C274 N269 1.318 . S
C274 C273 1.396 . S
H275 C270 0.929 . S
O276 Mn252 2.385 . S
O276 C254 1.234 . S
O277 Mn252 2.209 . S
O277 Mn253 2.215 . S
O277 C254 1.283 . S
O278 Mn252 2.094 . S
O278 C256 1.240 . S
O279 Mn253 2.117 . S
O279 C256 1.264 . S
C280 C273 1.403 . S
C280 C281 1.399 . S
C280 H286 0.929 . S
C281 C261 1.449 . S
C281 C280 1.399 . S
C281 H287 0.930 . S
H282 C262 0.931 . S
H283 C263 0.930 . S
H284 C271 0.931 . S
H285 C272 0.929 . S
H286 C280 0.929 . S
H287 C281 0.930 . S
Mn288 O293 2.095 . S
Mn288 O303 2.162 . S
Mn288 O304 2.297 . S
Mn288 O312 2.385 . S
Mn288 O313 2.209 . S
Mn288 O314 2.094 . S
Mn289 O294 2.121 . S
Mn289 N296 2.257 . S
Mn289 N305 2.282 . S
Mn289 O313 2.215 . S
Mn289 O315 2.117 . S
C290 O312 1.234 . S
C290 O313 1.283 . S
C291 O303 1.281 . S
C291 O304 1.236 . S
C292 O314 1.240 . S
C292 O315 1.264 . S
O293 Mn288 2.095 . S
O293 C302 1.250 . S
O294 Mn289 2.121 . S
O294 C302 1.258 . S
C295 N296 1.326 . S
C295 C299 1.460 . S
C295 H301 0.929 . S
N296 Mn289 2.257 . S
N296 C295 1.326 . S
N296 C300 1.362 . S
C297 C298 1.258 . S
C297 C300 1.431 . S
C297 C317 1.449 . S
C298 C297 1.258 . S
C298 C299 1.477 . S
C298 H318 0.931 . S
C299 C295 1.460 . S
C299 C298 1.477 . S
C299 H319 0.930 . S
C300 N296 1.362 . S
C300 C297 1.431 . S
C300 C310 1.476 . S
H301 C295 0.929 . S
C302 O293 1.250 . S
C302 O294 1.258 . S
O303 Mn288 2.162 . S
O303 C291 1.281 . S
O304 Mn288 2.297 . S
O304 C291 1.236 . S
N305 Mn289 2.282 . S
N305 C306 1.328 . S
N305 C310 1.318 . S
C306 N305 1.328 . S
C306 C307 1.457 . S
C306 H311 0.929 . S
C307 C306 1.457 . S
C307 C308 1.291 . S
C307 H320 0.931 . S
C308 C307 1.291 . S
C308 C309 1.373 . S
C308 H321 0.929 . S
C309 C308 1.373 . S
C309 C310 1.396 . S
C309 C316 1.403 . S
C310 C300 1.476 . S
C310 N305 1.318 . S
C310 C309 1.396 . S
H311 C306 0.929 . S
O312 Mn288 2.385 . S
O312 C290 1.234 . S
O313 Mn288 2.209 . S
O313 Mn289 2.215 . S
O313 C290 1.283 . S
O314 Mn288 2.094 . S
O314 C292 1.240 . S
O315 Mn289 2.117 . S
O315 C292 1.264 . S
C316 C309 1.403 . S
C316 C317 1.399 . S
C316 H322 0.929 . S
C317 C297 1.449 . S
C317 C316 1.399 . S
C317 H323 0.930 . S
H318 C298 0.931 . S
H319 C299 0.930 . S
H320 C307 0.931 . S
H321 C308 0.929 . S
H322 C316 0.929 . S
H323 C317 0.930 . S
Mn324 O329 2.095 . S
Mn324 O339 2.162 . S
Mn324 O340 2.297 . S
Mn324 O348 2.385 . S
Mn324 O349 2.209 . S
Mn324 O350 2.094 . S
Mn325 O330 2.121 . S
Mn325 N332 2.257 1_455 S
Mn325 N341 2.282 . S
Mn325 O349 2.215 . S
Mn325 O351 2.117 . S
C326 O348 1.234 . S
C326 O349 1.283 . S
C327 O339 1.281 . S
C327 O340 1.236 . S
C328 O350 1.240 . S
C328 O351 1.264 . S
O329 Mn324 2.095 . S
O329 C338 1.250 . S
O330 Mn325 2.121 . S
O330 C338 1.258 . S
C331 N332 1.326 . S
C331 C335 1.460 . S
C331 H337 0.929 . S
N332 Mn325 2.257 1_655 S
N332 C331 1.326 . S
N332 C336 1.362 . S
C333 C334 1.258 . S
C333 C336 1.431 . S
C333 C353 1.449 . S
C334 C333 1.258 . S
C334 C335 1.477 . S
C334 H354 0.931 . S
C335 C331 1.460 . S
C335 C334 1.477 . S
C335 H355 0.930 . S
C336 N332 1.362 . S
C336 C333 1.431 . S
C336 C346 1.476 1_655 S
H337 C331 0.929 . S
C338 O329 1.250 . S
C338 O330 1.258 . S
O339 Mn324 2.162 . S
O339 C327 1.281 . S
O340 Mn324 2.297 . S
O340 C327 1.236 . S
N341 Mn325 2.282 . S
N341 C342 1.328 . S
N341 C346 1.318 . S
C342 N341 1.328 . S
C342 C343 1.457 . S
C342 H347 0.929 . S
C343 C342 1.457 . S
C343 C344 1.291 . S
C343 H356 0.931 . S
C344 C343 1.291 . S
C344 C345 1.373 . S
C344 H357 0.929 . S
C345 C344 1.373 . S
C345 C346 1.396 . S
C345 C352 1.403 1_455 S
C346 C336 1.476 1_455 S
C346 N341 1.318 . S
C346 C345 1.396 . S
H347 C342 0.929 . S
O348 Mn324 2.385 . S
O348 C326 1.234 . S
O349 Mn324 2.209 . S
O349 Mn325 2.215 . S
O349 C326 1.283 . S
O350 Mn324 2.094 . S
O350 C328 1.240 . S
O351 Mn325 2.117 . S
O351 C328 1.264 . S
C352 C345 1.403 1_655 S
C352 C353 1.399 . S
C352 H358 0.929 . S
C353 C333 1.449 . S
C353 C352 1.399 . S
C353 H359 0.930 . S
H354 C334 0.931 . S
H355 C335 0.930 . S
H356 C343 0.931 . S
H357 C344 0.929 . S
H358 C352 0.929 . S
H359 C353 0.930 . S
Mn360 O365 2.095 . S
Mn360 O375 2.162 . S
Mn360 O376 2.297 . S
Mn360 O384 2.385 . S
Mn360 O385 2.209 . S
Mn360 O386 2.094 . S
Mn361 O366 2.121 . S
Mn361 N368 2.257 . S
Mn361 N377 2.282 . S
Mn361 O385 2.215 . S
Mn361 O387 2.117 . S
C362 O384 1.234 . S
C362 O385 1.283 . S
C363 O375 1.281 . S
C363 O376 1.236 . S
C364 O386 1.240 . S
C364 O387 1.264 . S
O365 Mn360 2.095 . S
O365 C374 1.250 . S
O366 Mn361 2.121 . S
O366 C374 1.258 . S
C367 N368 1.326 . S
C367 C371 1.460 . S
C367 H373 0.929 . S
N368 Mn361 2.257 . S
N368 C367 1.326 . S
N368 C372 1.362 . S
C369 C370 1.258 . S
C369 C372 1.431 . S
C369 C389 1.449 . S
C370 C369 1.258 . S
C370 C371 1.477 . S
C370 H390 0.931 . S
C371 C367 1.460 . S
C371 C370 1.477 . S
C371 H391 0.930 . S
C372 N368 1.362 . S
C372 C369 1.431 . S
C372 C382 1.476 . S
H373 C367 0.929 . S
C374 O365 1.250 . S
C374 O366 1.258 . S
O375 Mn360 2.162 . S
O375 C363 1.281 . S
O376 Mn360 2.297 . S
O376 C363 1.236 . S
N377 Mn361 2.282 . S
N377 C378 1.328 . S
N377 C382 1.318 . S
C378 N377 1.328 . S
C378 C379 1.457 . S
C378 H383 0.929 . S
C379 C378 1.457 . S
C379 C380 1.291 . S
C379 H392 0.931 . S
C380 C379 1.291 . S
C380 C381 1.373 . S
C380 H393 0.929 . S
C381 C380 1.373 . S
C381 C382 1.396 . S
C381 C388 1.403 . S
C382 C372 1.476 . S
C382 N377 1.318 . S
C382 C381 1.396 . S
H383 C378 0.929 . S
O384 Mn360 2.385 . S
O384 C362 1.234 . S
O385 Mn360 2.209 . S
O385 Mn361 2.215 . S
O385 C362 1.283 . S
O386 Mn360 2.094 . S
O386 C364 1.240 . S
O387 Mn361 2.117 . S
O387 C364 1.264 . S
C388 C381 1.403 . S
C388 C389 1.399 . S
C388 H394 0.929 . S
C389 C369 1.449 . S
C389 C388 1.399 . S
C389 H395 0.930 . S
H390 C370 0.931 . S
H391 C371 0.930 . S
H392 C379 0.931 . S
H393 C380 0.929 . S
H394 C388 0.929 . S
H395 C389 0.930 . S
Mn396 O401 2.095 . S
Mn396 O411 2.162 . S
Mn396 O412 2.297 . S
Mn396 O420 2.385 . S
Mn396 O421 2.209 . S
Mn396 O422 2.094 . S
Mn397 O402 2.121 . S
Mn397 N404 2.257 . S
Mn397 N413 2.282 1_554 S
Mn397 O421 2.215 . S
Mn397 O423 2.117 . S
C398 O420 1.234 . S
C398 O421 1.283 . S
C399 O411 1.281 . S
C399 O412 1.236 . S
C400 O422 1.240 . S
C400 O423 1.264 . S
O401 Mn396 2.095 . S
O401 C410 1.250 . S
O402 Mn397 2.121 . S
O402 C410 1.258 . S
C403 N404 1.326 . S
C403 C407 1.460 . S
C403 H409 0.929 . S
N404 Mn397 2.257 . S
N404 C403 1.326 . S
N404 C408 1.362 1_554 S
C405 C406 1.258 1_556 S
C405 C408 1.431 . S
C405 C425 1.449 . S
C406 C405 1.258 1_554 S
C406 C407 1.477 . S
C406 H426 0.931 1_554 S
C407 C403 1.460 . S
C407 C406 1.477 . S
C407 H427 0.930 . S
C408 N404 1.362 1_556 S
C408 C405 1.431 . S
C408 C418 1.476 . S
H409 C403 0.929 . S
C410 O401 1.250 . S
C410 O402 1.258 . S
O411 Mn396 2.162 . S
O411 C399 1.281 . S
O412 Mn396 2.297 . S
O412 C399 1.236 . S
N413 Mn397 2.282 1_556 S
N413 C414 1.328 . S
N413 C418 1.318 . S
C414 N413 1.328 . S
C414 C415 1.457 . S
C414 H419 0.929 . S
C415 C414 1.457 . S
C415 C416 1.291 . S
C415 H428 0.931 . S
C416 C415 1.291 . S
C416 C417 1.373 . S
C416 H429 0.929 . S
C417 C416 1.373 . S
C417 C418 1.396 . S
C417 C424 1.403 . S
C418 C408 1.476 . S
C418 N413 1.318 . S
C418 C417 1.396 . S
H419 C414 0.929 . S
O420 Mn396 2.385 . S
O420 C398 1.234 . S
O421 Mn396 2.209 . S
O421 Mn397 2.215 . S
O421 C398 1.283 . S
O422 Mn396 2.094 . S
O422 C400 1.240 . S
O423 Mn397 2.117 . S
O423 C400 1.264 . S
C424 C417 1.403 . S
C424 C425 1.399 . S
C424 H430 0.929 . S
C425 C405 1.449 . S
C425 C424 1.399 . S
C425 H431 0.930 . S
H426 C406 0.931 1_556 S
H427 C407 0.930 . S
H428 C415 0.931 . S
H429 C416 0.929 . S
H430 C424 0.929 . S
H431 C425 0.930 . S
Mn432 O437 2.095 . S
Mn432 O447 2.162 . S
Mn432 O448 2.297 . S
Mn432 O456 2.385 . S
Mn432 O457 2.209 . S
Mn432 O458 2.094 . S
Mn433 O438 2.121 . S
Mn433 N440 2.257 . S
Mn433 N449 2.282 . S
Mn433 O457 2.215 . S
Mn433 O459 2.117 . S
C434 O456 1.234 . S
C434 O457 1.283 . S
C435 O447 1.281 . S
C435 O448 1.236 . S
C436 O458 1.240 . S
C436 O459 1.264 . S
O437 Mn432 2.095 . S
O437 C446 1.250 . S
O438 Mn433 2.121 . S
O438 C446 1.258 . S
C439 N440 1.326 . S
C439 C443 1.460 . S
C439 H445 0.929 . S
N440 Mn433 2.257 . S
N440 C439 1.326 . S
N440 C444 1.362 . S
C441 C442 1.258 . S
C441 C444 1.431 . S
C441 C461 1.449 . S
C442 C441 1.258 . S
C442 C443 1.477 . S
C442 H462 0.931 . S
C443 C439 1.460 . S
C443 C442 1.477 . S
C443 H463 0.930 . S
C444 N440 1.362 . S
C444 C441 1.431 . S
C444 C454 1.476 . S
H445 C439 0.929 . S
C446 O437 1.250 . S
C446 O438 1.258 . S
O447 Mn432 2.162 . S
O447 C435 1.281 . S
O448 Mn432 2.297 . S
O448 C435 1.236 . S
N449 Mn433 2.282 . S
N449 C450 1.328 . S
N449 C454 1.318 . S
C450 N449 1.328 . S
C450 C451 1.457 . S
C450 H455 0.929 . S
C451 C450 1.457 . S
C451 C452 1.291 . S
C451 H464 0.931 . S
C452 C451 1.291 . S
C452 C453 1.373 . S
C452 H465 0.929 . S
C453 C452 1.373 . S
C453 C454 1.396 . S
C453 C460 1.403 . S
C454 C444 1.476 . S
C454 N449 1.318 . S
C454 C453 1.396 . S
H455 C450 0.929 . S
O456 Mn432 2.385 . S
O456 C434 1.234 . S
O457 Mn432 2.209 . S
O457 Mn433 2.215 . S
O457 C434 1.283 . S
O458 Mn432 2.094 . S
O458 C436 1.240 . S
O459 Mn433 2.117 . S
O459 C436 1.264 . S
C460 C453 1.403 . S
C460 C461 1.399 . S
C460 H466 0.929 . S
C461 C441 1.449 . S
C461 C460 1.399 . S
C461 H467 0.930 . S
H462 C442 0.931 . S
H463 C443 0.930 . S
H464 C451 0.931 . S
H465 C452 0.929 . S
H466 C460 0.929 . S
H467 C461 0.930 . S
Mn468 O473 2.095 . S
Mn468 O483 2.162 . S
Mn468 O484 2.297 . S
Mn468 O492 2.385 . S
Mn468 O493 2.209 . S
Mn468 O494 2.094 . S
Mn469 O474 2.121 . S
Mn469 N476 2.257 1_655 S
Mn469 N485 2.282 1_556 S
Mn469 O493 2.215 . S
Mn469 O495 2.117 . S
C470 O492 1.234 . S
C470 O493 1.283 . S
C471 O483 1.281 . S
C471 O484 1.236 . S
C472 O494 1.240 . S
C472 O495 1.264 . S
O473 Mn468 2.095 . S
O473 C482 1.250 . S
O474 Mn469 2.121 . S
O474 C482 1.258 . S
C475 N476 1.326 . S
C475 C479 1.460 . S
C475 H481 0.929 . S
N476 Mn469 2.257 1_455 S
N476 C475 1.326 . S
N476 C480 1.362 1_556 S
C477 C478 1.258 1_554 S
C477 C480 1.431 . S
C477 C497 1.449 . S
C478 C477 1.258 1_556 S
C478 C479 1.477 . S
C478 H498 0.931 1_556 S
C479 C475 1.460 . S
C479 C478 1.477 . S
C479 H499 0.930 . S
C480 N476 1.362 1_554 S
C480 C477 1.431 . S
C480 C490 1.476 1_455 S
H481 C475 0.929 . S
C482 O473 1.250 . S
C482 O474 1.258 . S
O483 Mn468 2.162 . S
O483 C471 1.281 . S
O484 Mn468 2.297 . S
O484 C471 1.236 . S
N485 Mn469 2.282 1_554 S
N485 C486 1.328 . S
N485 C490 1.318 . S
C486 N485 1.328 . S
C486 C487 1.457 . S
C486 H491 0.929 . S
C487 C486 1.457 . S
C487 C488 1.291 . S
C487 H500 0.931 . S
C488 C487 1.291 . S
C488 C489 1.373 . S
C488 H501 0.929 . S
C489 C488 1.373 . S
C489 C490 1.396 . S
C489 C496 1.403 1_655 S
C490 C480 1.476 1_655 S
C490 N485 1.318 . S
C490 C489 1.396 . S
H491 C486 0.929 . S
O492 Mn468 2.385 . S
O492 C470 1.234 . S
O493 Mn468 2.209 . S
O493 Mn469 2.215 . S
O493 C470 1.283 . S
O494 Mn468 2.094 . S
O494 C472 1.240 . S
O495 Mn469 2.117 . S
O495 C472 1.264 . S
C496 C489 1.403 1_455 S
C496 C497 1.399 . S
C496 H502 0.929 . S
C497 C477 1.449 . S
C497 C496 1.399 . S
C497 H503 0.930 . S
H498 C478 0.931 1_554 S
H499 C479 0.930 . S
H500 C487 0.931 . S
H501 C488 0.929 . S
H502 C496 0.929 . S
H503 C497 0.930 . S
Mn504 O509 2.095 . S
Mn504 O519 2.162 . S
Mn504 O520 2.297 . S
Mn504 O528 2.385 . S
Mn504 O529 2.209 . S
Mn504 O530 2.094 . S
Mn505 O510 2.121 . S
Mn505 N512 2.257 . S
Mn505 N521 2.282 . S
Mn505 O529 2.215 . S
Mn505 O531 2.117 . S
C506 O528 1.234 . S
C506 O529 1.283 . S
C507 O519 1.281 . S
C507 O520 1.236 . S
C508 O530 1.240 . S
C508 O531 1.264 . S
O509 Mn504 2.095 . S
O509 C518 1.250 . S
O510 Mn505 2.121 . S
O510 C518 1.258 . S
C511 N512 1.326 . S
C511 C515 1.460 . S
C511 H517 0.929 . S
N512 Mn505 2.257 . S
N512 C511 1.326 . S
N512 C516 1.362 . S
C513 C514 1.258 . S
C513 C516 1.431 . S
C513 C533 1.449 . S
C514 C513 1.258 . S
C514 C515 1.477 . S
C514 H534 0.931 . S
C515 C511 1.460 . S
C515 C514 1.477 . S
C515 H535 0.930 . S
C516 N512 1.362 . S
C516 C513 1.431 . S
C516 C526 1.476 . S
H517 C511 0.929 . S
C518 O509 1.250 . S
C518 O510 1.258 . S
O519 Mn504 2.162 . S
O519 C507 1.281 . S
O520 Mn504 2.297 . S
O520 C507 1.236 . S
N521 Mn505 2.282 . S
N521 C522 1.328 . S
N521 C526 1.318 . S
C522 N521 1.328 . S
C522 C523 1.457 . S
C522 H527 0.929 . S
C523 C522 1.457 . S
C523 C524 1.291 . S
C523 H536 0.931 . S
C524 C523 1.291 . S
C524 C525 1.373 . S
C524 H537 0.929 . S
C525 C524 1.373 . S
C525 C526 1.396 . S
C525 C532 1.403 . S
C526 C516 1.476 . S
C526 N521 1.318 . S
C526 C525 1.396 . S
H527 C522 0.929 . S
O528 Mn504 2.385 . S
O528 C506 1.234 . S
O529 Mn504 2.209 . S
O529 Mn505 2.215 . S
O529 C506 1.283 . S
O530 Mn504 2.094 . S
O530 C508 1.240 . S
O531 Mn505 2.117 . S
O531 C508 1.264 . S
C532 C525 1.403 . S
C532 C533 1.399 . S
C532 H538 0.929 . S
C533 C513 1.449 . S
C533 C532 1.399 . S
C533 H539 0.930 . S
H534 C514 0.931 . S
H535 C515 0.930 . S
H536 C523 0.931 . S
H537 C524 0.929 . S
H538 C532 0.929 . S
H539 C533 0.930 . S
Mn540 O545 2.095 . S
Mn540 O555 2.162 . S
Mn540 O556 2.297 . S
Mn540 O564 2.385 . S
Mn540 O565 2.209 . S
Mn540 O566 2.094 . S
Mn541 O546 2.121 . S
Mn541 N548 2.257 . S
Mn541 N557 2.282 . S
Mn541 O565 2.215 . S
Mn541 O567 2.117 . S
C542 O564 1.234 . S
C542 O565 1.283 . S
C543 O555 1.281 . S
C543 O556 1.236 . S
C544 O566 1.240 . S
C544 O567 1.264 . S
O545 Mn540 2.095 . S
O545 C554 1.250 . S
O546 Mn541 2.121 . S
O546 C554 1.258 . S
C547 N548 1.326 . S
C547 C551 1.460 . S
C547 H553 0.929 . S
N548 Mn541 2.257 . S
N548 C547 1.326 . S
N548 C552 1.362 . S
C549 C550 1.258 . S
C549 C552 1.431 . S
C549 C569 1.449 . S
C550 C549 1.258 . S
C550 C551 1.477 . S
C550 H570 0.931 . S
C551 C547 1.460 . S
C551 C550 1.477 . S
C551 H571 0.930 . S
C552 N548 1.362 . S
C552 C549 1.431 . S
C552 C562 1.476 . S
H553 C547 0.929 . S
C554 O545 1.250 . S
C554 O546 1.258 . S
O555 Mn540 2.162 . S
O555 C543 1.281 . S
O556 Mn540 2.297 . S
O556 C543 1.236 . S
N557 Mn541 2.282 . S
N557 C558 1.328 . S
N557 C562 1.318 . S
C558 N557 1.328 . S
C558 C559 1.457 . S
C558 H563 0.929 . S
C559 C558 1.457 . S
C559 C560 1.291 . S
C559 H572 0.931 . S
C560 C559 1.291 . S
C560 C561 1.373 . S
C560 H573 0.929 . S
C561 C560 1.373 . S
C561 C562 1.396 . S
C561 C568 1.403 . S
C562 C552 1.476 . S
C562 N557 1.318 . S
C562 C561 1.396 . S
H563 C558 0.929 . S
O564 Mn540 2.385 . S
O564 C542 1.234 . S
O565 Mn540 2.209 . S
O565 Mn541 2.215 . S
O565 C542 1.283 . S
O566 Mn540 2.094 . S
O566 C544 1.240 . S
O567 Mn541 2.117 . S
O567 C544 1.264 . S
C568 C561 1.403 . S
C568 C569 1.399 . S
C568 H574 0.929 . S
C569 C549 1.449 . S
C569 C568 1.399 . S
C569 H575 0.930 . S
H570 C550 0.931 . S
H571 C551 0.930 . S
H572 C559 0.931 . S
H573 C560 0.929 . S
H574 C568 0.929 . S
H575 C569 0.930 . S
Mn576 O581 2.095 . S
Mn576 O591 2.162 . S
Mn576 O592 2.297 . S
Mn576 O600 2.385 . S
Mn576 O601 2.209 . S
Mn576 O602 2.094 . S
Mn577 O582 2.121 . S
Mn577 N584 2.257 . S
Mn577 N593 2.282 . S
Mn577 O601 2.215 . S
Mn577 O603 2.117 . S
C578 O600 1.234 . S
C578 O601 1.283 . S
C579 O591 1.281 . S
C579 O592 1.236 . S
C580 O602 1.240 . S
C580 O603 1.264 . S
O581 Mn576 2.095 . S
O581 C590 1.250 . S
O582 Mn577 2.121 . S
O582 C590 1.258 . S
C583 N584 1.326 . S
C583 C587 1.460 . S
C583 H589 0.929 . S
N584 Mn577 2.257 . S
N584 C583 1.326 . S
N584 C588 1.362 . S
C585 C586 1.258 . S
C585 C588 1.431 . S
C585 C605 1.449 . S
C586 C585 1.258 . S
C586 C587 1.477 . S
C586 H606 0.931 . S
C587 C583 1.460 . S
C587 C586 1.477 . S
C587 H607 0.930 . S
C588 N584 1.362 . S
C588 C585 1.431 . S
C588 C598 1.476 . S
H589 C583 0.929 . S
C590 O581 1.250 . S
C590 O582 1.258 . S
O591 Mn576 2.162 . S
O591 C579 1.281 . S
O592 Mn576 2.297 . S
O592 C579 1.236 . S
N593 Mn577 2.282 . S
N593 C594 1.328 . S
N593 C598 1.318 . S
C594 N593 1.328 . S
C594 C595 1.457 . S
C594 H599 0.929 . S
C595 C594 1.457 . S
C595 C596 1.291 . S
C595 H608 0.931 . S
C596 C595 1.291 . S
C596 C597 1.373 . S
C596 H609 0.929 . S
C597 C596 1.373 . S
C597 C598 1.396 . S
C597 C604 1.403 . S
C598 C588 1.476 . S
C598 N593 1.318 . S
C598 C597 1.396 . S
H599 C594 0.929 . S
O600 Mn576 2.385 . S
O600 C578 1.234 . S
O601 Mn576 2.209 . S
O601 Mn577 2.215 . S
O601 C578 1.283 . S
O602 Mn576 2.094 . S
O602 C580 1.240 . S
O603 Mn577 2.117 . S
O603 C580 1.264 . S
C604 C597 1.403 . S
C604 C605 1.399 . S
C604 H610 0.929 . S
C605 C585 1.449 . S
C605 C604 1.399 . S
C605 H611 0.930 . S
H606 C586 0.931 . S
H607 C587 0.930 . S
H608 C595 0.931 . S
H609 C596 0.929 . S
H610 C604 0.929 . S
H611 C605 0.930 . S
Mn612 O617 2.095 . S
Mn612 O627 2.162 . S
Mn612 O628 2.297 . S
Mn612 O636 2.385 . S
Mn612 O637 2.209 . S
Mn612 O638 2.094 . S
Mn613 O618 2.121 . S
Mn613 N620 2.257 . S
Mn613 N629 2.282 . S
Mn613 O637 2.215 . S
Mn613 O639 2.117 . S
C614 O636 1.234 . S
C614 O637 1.283 . S
C615 O627 1.281 . S
C615 O628 1.236 . S
C616 O638 1.240 . S
C616 O639 1.264 . S
O617 Mn612 2.095 . S
O617 C626 1.250 . S
O618 Mn613 2.121 . S
O618 C626 1.258 . S
C619 N620 1.326 . S
C619 C623 1.460 . S
C619 H625 0.929 . S
N620 Mn613 2.257 . S
N620 C619 1.326 . S
N620 C624 1.362 . S
C621 C622 1.258 . S
C621 C624 1.431 . S
C621 C641 1.449 . S
C622 C621 1.258 . S
C622 C623 1.477 . S
C622 H642 0.931 . S
C623 C619 1.460 . S
C623 C622 1.477 . S
C623 H643 0.930 . S
C624 N620 1.362 . S
C624 C621 1.431 . S
C624 C634 1.476 . S
H625 C619 0.929 . S
C626 O617 1.250 . S
C626 O618 1.258 . S
O627 Mn612 2.162 . S
O627 C615 1.281 . S
O628 Mn612 2.297 . S
O628 C615 1.236 . S
N629 Mn613 2.282 . S
N629 C630 1.328 . S
N629 C634 1.318 . S
C630 N629 1.328 . S
C630 C631 1.457 . S
C630 H635 0.929 . S
C631 C630 1.457 . S
C631 C632 1.291 . S
C631 H644 0.931 . S
C632 C631 1.291 . S
C632 C633 1.373 . S
C632 H645 0.929 . S
C633 C632 1.373 . S
C633 C634 1.396 . S
C633 C640 1.403 . S
C634 C624 1.476 . S
C634 N629 1.318 . S
C634 C633 1.396 . S
H635 C630 0.929 . S
O636 Mn612 2.385 . S
O636 C614 1.234 . S
O637 Mn612 2.209 . S
O637 Mn613 2.215 . S
O637 C614 1.283 . S
O638 Mn612 2.094 . S
O638 C616 1.240 . S
O639 Mn613 2.117 . S
O639 C616 1.264 . S
C640 C633 1.403 . S
C640 C641 1.399 . S
C640 H646 0.929 . S
C641 C621 1.449 . S
C641 C640 1.399 . S
C641 H647 0.930 . S
H642 C622 0.931 . S
H643 C623 0.930 . S
H644 C631 0.931 . S
H645 C632 0.929 . S
H646 C640 0.929 . S
H647 C641 0.930 . S
Mn648 O653 2.095 . S
Mn648 O663 2.162 . S
Mn648 O664 2.297 . S
Mn648 O672 2.385 . S
Mn648 O673 2.209 . S
Mn648 O674 2.094 . S
Mn649 O654 2.121 . S
Mn649 N656 2.257 1_554 S
Mn649 N665 2.282 . S
Mn649 O673 2.215 . S
Mn649 O675 2.117 . S
C650 O672 1.234 . S
C650 O673 1.283 . S
C651 O663 1.281 . S
C651 O664 1.236 . S
C652 O674 1.240 . S
C652 O675 1.264 . S
O653 Mn648 2.095 . S
O653 C662 1.250 . S
O654 Mn649 2.121 . S
O654 C662 1.258 . S
C655 N656 1.326 . S
C655 C659 1.460 . S
C655 H661 0.929 . S
N656 Mn649 2.257 1_556 S
N656 C655 1.326 . S
N656 C660 1.362 . S
C657 C658 1.258 . S
C657 C660 1.431 . S
C657 C677 1.449 . S
C658 C657 1.258 . S
C658 C659 1.477 . S
C658 H678 0.931 . S
C659 C655 1.460 . S
C659 C658 1.477 . S
C659 H679 0.930 . S
C660 N656 1.362 . S
C660 C657 1.431 . S
C660 C670 1.476 1_556 S
H661 C655 0.929 . S
C662 O653 1.250 . S
C662 O654 1.258 . S
O663 Mn648 2.162 . S
O663 C651 1.281 . S
O664 Mn648 2.297 . S
O664 C651 1.236 . S
N665 Mn649 2.282 . S
N665 C666 1.328 . S
N665 C670 1.318 . S
C666 N665 1.328 . S
C666 C667 1.457 . S
C666 H671 0.929 . S
C667 C666 1.457 . S
C667 C668 1.291 . S
C667 H680 0.931 . S
C668 C667 1.291 . S
C668 C669 1.373 . S
C668 H681 0.929 . S
C669 C668 1.373 . S
C669 C670 1.396 . S
C669 C676 1.403 1_554 S
C670 C660 1.476 1_554 S
C670 N665 1.318 . S
C670 C669 1.396 . S
H671 C666 0.929 . S
O672 Mn648 2.385 . S
O672 C650 1.234 . S
O673 Mn648 2.209 . S
O673 Mn649 2.215 . S
O673 C650 1.283 . S
O674 Mn648 2.094 . S
O674 C652 1.240 . S
O675 Mn649 2.117 . S
O675 C652 1.264 . S
C676 C669 1.403 1_556 S
C676 C677 1.399 . S
C676 H682 0.929 . S
C677 C657 1.449 . S
C677 C676 1.399 . S
C677 H683 0.930 . S
H678 C658 0.931 . S
H679 C659 0.930 . S
H680 C667 0.931 . S
H681 C668 0.929 . S
H682 C676 0.929 . S
H683 C677 0.930 . S
Mn684 O689 2.095 . S
Mn684 O699 2.162 . S
Mn684 O700 2.297 . S
Mn684 O708 2.385 . S
Mn684 O709 2.209 . S
Mn684 O710 2.094 . S
Mn685 O690 2.121 . S
Mn685 N692 2.257 . S
Mn685 N701 2.282 . S
Mn685 O709 2.215 . S
Mn685 O711 2.117 . S
C686 O708 1.234 . S
C686 O709 1.283 . S
C687 O699 1.281 . S
C687 O700 1.236 . S
C688 O710 1.240 . S
C688 O711 1.264 . S
O689 Mn684 2.095 . S
O689 C698 1.250 . S
O690 Mn685 2.121 . S
O690 C698 1.258 . S
C691 N692 1.326 . S
C691 C695 1.460 . S
C691 H697 0.929 . S
N692 Mn685 2.257 . S
N692 C691 1.326 . S
N692 C696 1.362 . S
C693 C694 1.258 . S
C693 C696 1.431 . S
C693 C713 1.449 . S
C694 C693 1.258 . S
C694 C695 1.477 . S
C694 H714 0.931 . S
C695 C691 1.460 . S
C695 C694 1.477 . S
C695 H715 0.930 . S
C696 N692 1.362 . S
C696 C693 1.431 . S
C696 C706 1.476 . S
H697 C691 0.929 . S
C698 O689 1.250 . S
C698 O690 1.258 . S
O699 Mn684 2.162 . S
O699 C687 1.281 . S
O700 Mn684 2.297 . S
O700 C687 1.236 . S
N701 Mn685 2.282 . S
N701 C702 1.328 . S
N701 C706 1.318 . S
C702 N701 1.328 . S
C702 C703 1.457 . S
C702 H707 0.929 . S
C703 C702 1.457 . S
C703 C704 1.291 . S
C703 H716 0.931 . S
C704 C703 1.291 . S
C704 C705 1.373 . S
C704 H717 0.929 . S
C705 C704 1.373 . S
C705 C706 1.396 . S
C705 C712 1.403 . S
C706 C696 1.476 . S
C706 N701 1.318 . S
C706 C705 1.396 . S
H707 C702 0.929 . S
O708 Mn684 2.385 . S
O708 C686 1.234 . S
O709 Mn684 2.209 . S
O709 Mn685 2.215 . S
O709 C686 1.283 . S
O710 Mn684 2.094 . S
O710 C688 1.240 . S
O711 Mn685 2.117 . S
O711 C688 1.264 . S
C712 C705 1.403 . S
C712 C713 1.399 . S
C712 H718 0.929 . S
C713 C693 1.449 . S
C713 C712 1.399 . S
C713 H719 0.930 . S
H714 C694 0.931 . S
H715 C695 0.930 . S
H716 C703 0.931 . S
H717 C704 0.929 . S
H718 C712 0.929 . S
H719 C713 0.930 . S
Mn720 O725 2.095 . S
Mn720 O735 2.162 . S
Mn720 O736 2.297 . S
Mn720 O744 2.385 . S
Mn720 O745 2.209 . S
Mn720 O746 2.094 . S
Mn721 O726 2.121 . S
Mn721 N728 2.257 . S
Mn721 N737 2.282 . S
Mn721 O745 2.215 . S
Mn721 O747 2.117 . S
C722 O744 1.234 . S
C722 O745 1.283 . S
C723 O735 1.281 . S
C723 O736 1.236 . S
C724 O746 1.240 . S
C724 O747 1.264 . S
O725 Mn720 2.095 . S
O725 C734 1.250 . S
O726 Mn721 2.121 . S
O726 C734 1.258 . S
C727 N728 1.326 . S
C727 C731 1.460 . S
C727 H733 0.929 . S
N728 Mn721 2.257 . S
N728 C727 1.326 . S
N728 C732 1.362 . S
C729 C730 1.258 . S
C729 C732 1.431 . S
C729 C749 1.449 . S
C730 C729 1.258 . S
C730 C731 1.477 . S
C730 H750 0.931 . S
C731 C727 1.460 . S
C731 C730 1.477 . S
C731 H751 0.930 . S
C732 N728 1.362 . S
C732 C729 1.431 . S
C732 C742 1.476 . S
H733 C727 0.929 . S
C734 O725 1.250 . S
C734 O726 1.258 . S
O735 Mn720 2.162 . S
O735 C723 1.281 . S
O736 Mn720 2.297 . S
O736 C723 1.236 . S
N737 Mn721 2.282 . S
N737 C738 1.328 . S
N737 C742 1.318 . S
C738 N737 1.328 . S
C738 C739 1.457 . S
C738 H743 0.929 . S
C739 C738 1.457 . S
C739 C740 1.291 . S
C739 H752 0.931 . S
C740 C739 1.291 . S
C740 C741 1.373 . S
C740 H753 0.929 . S
C741 C740 1.373 . S
C741 C742 1.396 . S
C741 C748 1.403 . S
C742 C732 1.476 . S
C742 N737 1.318 . S
C742 C741 1.396 . S
H743 C738 0.929 . S
O744 Mn720 2.385 . S
O744 C722 1.234 . S
O745 Mn720 2.209 . S
O745 Mn721 2.215 . S
O745 C722 1.283 . S
O746 Mn720 2.094 . S
O746 C724 1.240 . S
O747 Mn721 2.117 . S
O747 C724 1.264 . S
C748 C741 1.403 . S
C748 C749 1.399 . S
C748 H754 0.929 . S
C749 C729 1.449 . S
C749 C748 1.399 . S
C749 H755 0.930 . S
H750 C730 0.931 . S
H751 C731 0.930 . S
H752 C739 0.931 . S
H753 C740 0.929 . S
H754 C748 0.929 . S
H755 C749 0.930 . S
Mn756 O761 2.095 . S
Mn756 O771 2.162 . S
Mn756 O772 2.297 . S
Mn756 O780 2.385 . S
Mn756 O781 2.209 . S
Mn756 O782 2.094 . S
Mn757 O762 2.121 . S
Mn757 N764 2.257 . S
Mn757 N773 2.282 . S
Mn757 O781 2.215 . S
Mn757 O783 2.117 . S
C758 O780 1.234 . S
C758 O781 1.283 . S
C759 O771 1.281 . S
C759 O772 1.236 . S
C760 O782 1.240 . S
C760 O783 1.264 . S
O761 Mn756 2.095 . S
O761 C770 1.250 . S
O762 Mn757 2.121 . S
O762 C770 1.258 . S
C763 N764 1.326 . S
C763 C767 1.460 . S
C763 H769 0.929 . S
N764 Mn757 2.257 . S
N764 C763 1.326 . S
N764 C768 1.362 . S
C765 C766 1.258 . S
C765 C768 1.431 . S
C765 C785 1.449 . S
C766 C765 1.258 . S
C766 C767 1.477 . S
C766 H786 0.931 . S
C767 C763 1.460 . S
C767 C766 1.477 . S
C767 H787 0.930 . S
C768 N764 1.362 . S
C768 C765 1.431 . S
C768 C778 1.476 . S
H769 C763 0.929 . S
C770 O761 1.250 . S
C770 O762 1.258 . S
O771 Mn756 2.162 . S
O771 C759 1.281 . S
O772 Mn756 2.297 . S
O772 C759 1.236 . S
N773 Mn757 2.282 . S
N773 C774 1.328 . S
N773 C778 1.318 . S
C774 N773 1.328 . S
C774 C775 1.457 . S
C774 H779 0.929 . S
C775 C774 1.457 . S
C775 C776 1.291 . S
C775 H788 0.931 . S
C776 C775 1.291 . S
C776 C777 1.373 . S
C776 H789 0.929 . S
C777 C776 1.373 . S
C777 C778 1.396 . S
C777 C784 1.403 . S
C778 C768 1.476 . S
C778 N773 1.318 . S
C778 C777 1.396 . S
H779 C774 0.929 . S
O780 Mn756 2.385 . S
O780 C758 1.234 . S
O781 Mn756 2.209 . S
O781 Mn757 2.215 . S
O781 C758 1.283 . S
O782 Mn756 2.094 . S
O782 C760 1.240 . S
O783 Mn757 2.117 . S
O783 C760 1.264 . S
C784 C777 1.403 . S
C784 C785 1.399 . S
C784 H790 0.929 . S
C785 C765 1.449 . S
C785 C784 1.399 . S
C785 H791 0.930 . S
H786 C766 0.931 . S
H787 C767 0.930 . S
H788 C775 0.931 . S
H789 C776 0.929 . S
H790 C784 0.929 . S
H791 C785 0.930 . S
Mn792 O797 2.095 . S
Mn792 O807 2.162 . S
Mn792 O808 2.297 . S
Mn792 O816 2.385 . S
Mn792 O817 2.209 . S
Mn792 O818 2.094 . S
Mn793 O798 2.121 . S
Mn793 N800 2.257 1_556 S
Mn793 N809 2.282 1_565 S
Mn793 O817 2.215 . S
Mn793 O819 2.117 . S
C794 O816 1.234 . S
C794 O817 1.283 . S
C795 O807 1.281 . S
C795 O808 1.236 . S
C796 O818 1.240 . S
C796 O819 1.264 . S
O797 Mn792 2.095 . S
O797 C806 1.250 . S
O798 Mn793 2.121 . S
O798 C806 1.258 . S
C799 N800 1.326 . S
C799 C803 1.460 . S
C799 H805 0.929 . S
N800 Mn793 2.257 1_554 S
N800 C799 1.326 . S
N800 C804 1.362 1_565 S
C801 C802 1.258 1_545 S
C801 C804 1.431 . S
C801 C821 1.449 . S
C802 C801 1.258 1_565 S
C802 C803 1.477 . S
C802 H822 0.931 1_565 S
C803 C799 1.460 . S
C803 C802 1.477 . S
C803 H823 0.930 . S
C804 N800 1.362 1_545 S
C804 C801 1.431 . S
C804 C814 1.476 1_554 S
H805 C799 0.929 . S
C806 O797 1.250 . S
C806 O798 1.258 . S
O807 Mn792 2.162 . S
O807 C795 1.281 . S
O808 Mn792 2.297 . S
O808 C795 1.236 . S
N809 Mn793 2.282 1_545 S
N809 C810 1.328 . S
N809 C814 1.318 . S
C810 N809 1.328 . S
C810 C811 1.457 . S
C810 H815 0.929 . S
C811 C810 1.457 . S
C811 C812 1.291 . S
C811 H824 0.931 . S
C812 C811 1.291 . S
C812 C813 1.373 . S
C812 H825 0.929 . S
C813 C812 1.373 . S
C813 C814 1.396 . S
C813 C820 1.403 1_556 S
C814 C804 1.476 1_556 S
C814 N809 1.318 . S
C814 C813 1.396 . S
H815 C810 0.929 . S
O816 Mn792 2.385 . S
O816 C794 1.234 . S
O817 Mn792 2.209 . S
O817 Mn793 2.215 . S
O817 C794 1.283 . S
O818 Mn792 2.094 . S
O818 C796 1.240 . S
O819 Mn793 2.117 . S
O819 C796 1.264 . S
C820 C813 1.403 1_554 S
C820 C821 1.399 . S
C820 H826 0.929 . S
C821 C801 1.449 . S
C821 C820 1.399 . S
C821 H827 0.930 . S
H822 C802 0.931 1_545 S
H823 C803 0.930 . S
H824 C811 0.931 . S
H825 C812 0.929 . S
H826 C820 0.929 . S
H827 C821 0.930 . S
Mn828 O833 2.095 . S
Mn828 O843 2.162 . S
Mn828 O844 2.297 . S
Mn828 O852 2.385 . S
Mn828 O853 2.209 . S
Mn828 O854 2.094 . S
Mn829 O834 2.121 . S
Mn829 N836 2.257 . S
Mn829 N845 2.282 1_545 S
Mn829 O853 2.215 . S
Mn829 O855 2.117 . S
C830 O852 1.234 . S
C830 O853 1.283 . S
C831 O843 1.281 . S
C831 O844 1.236 . S
C832 O854 1.240 . S
C832 O855 1.264 . S
O833 Mn828 2.095 . S
O833 C842 1.250 . S
O834 Mn829 2.121 . S
O834 C842 1.258 . S
C835 N836 1.326 . S
C835 C839 1.460 . S
C835 H841 0.929 . S
N836 Mn829 2.257 . S
N836 C835 1.326 . S
N836 C840 1.362 1_545 S
C837 C838 1.258 1_565 S
C837 C840 1.431 . S
C837 C857 1.449 . S
C838 C837 1.258 1_545 S
C838 C839 1.477 . S
C838 H858 0.931 1_545 S
C839 C835 1.460 . S
C839 C838 1.477 . S
C839 H859 0.930 . S
C840 N836 1.362 1_565 S
C840 C837 1.431 . S
C840 C850 1.476 . S
H841 C835 0.929 . S
C842 O833 1.250 . S
C842 O834 1.258 . S
O843 Mn828 2.162 . S
O843 C831 1.281 . S
O844 Mn828 2.297 . S
O844 C831 1.236 . S
N845 Mn829 2.282 1_565 S
N845 C846 1.328 . S
N845 C850 1.318 . S
C846 N845 1.328 . S
C846 C847 1.457 . S
C846 H851 0.929 . S
C847 C846 1.457 . S
C847 C848 1.291 . S
C847 H860 0.931 . S
C848 C847 1.291 . S
C848 C849 1.373 . S
C848 H861 0.929 . S
C849 C848 1.373 . S
C849 C850 1.396 . S
C849 C856 1.403 . S
C850 C840 1.476 . S
C850 N845 1.318 . S
C850 C849 1.396 . S
H851 C846 0.929 . S
O852 Mn828 2.385 . S
O852 C830 1.234 . S
O853 Mn828 2.209 . S
O853 Mn829 2.215 . S
O853 C830 1.283 . S
O854 Mn828 2.094 . S
O854 C832 1.240 . S
O855 Mn829 2.117 . S
O855 C832 1.264 . S
C856 C849 1.403 . S
C856 C857 1.399 . S
C856 H862 0.929 . S
C857 C837 1.449 . S
C857 C856 1.399 . S
C857 H863 0.930 . S
H858 C838 0.931 1_565 S
H859 C839 0.930 . S
H860 C847 0.931 . S
H861 C848 0.929 . S
H862 C856 0.929 . S
H863 C857 0.930 . S
H864 C872 0.950 . S
H865 C877 0.950 . S
H866 C874 0.950 . S
H867 C876 0.950 . S
H868 C878 0.950 . S
H869 C880 0.950 . S
H870 C882 0.950 . S
H871 C883 0.950 . S
C872 H864 0.950 . S
C872 C873 1.386 . S
C872 C874 1.391 . S
C873 C872 1.386 . S
C873 C877 1.393 . S
C874 H866 0.950 . S
C874 C872 1.391 . S
C874 C875 1.400 . S
C875 C874 1.400 . S
C875 C876 1.398 . S
C875 C881 1.491 . S
C876 H867 0.950 . S
C876 C875 1.398 . S
C876 C877 1.391 . S
C877 H865 0.950 . S
C877 C873 1.393 . S
C877 C876 1.391 . S
C878 H868 0.950 . S
C878 C879 1.386 . S
C878 C880 1.391 . S
C879 C878 1.386 . S
C879 C883 1.393 . S
C880 H869 0.950 . S
C880 C878 1.391 . S
C880 C881 1.400 . S
C881 C875 1.491 . S
C881 C880 1.400 . S
C881 C882 1.398 . S
C882 H870 0.950 . S
C882 C881 1.398 . S
C882 C883 1.391 . S
C883 H871 0.950 . S
C883 C879 1.393 . S
C883 C882 1.391 . S
H884 C892 0.950 . S
H885 C897 0.950 . S
H886 C894 0.950 . S
H887 C896 0.950 . S
H888 C898 0.950 . S
H889 C900 0.950 . S
H890 C902 0.950 . S
H891 C903 0.950 . S
C892 H884 0.950 . S
C892 C893 1.386 . S
C892 C894 1.391 1_655 S
C893 C892 1.386 . S
C893 C897 1.393 1_655 S
C894 H886 0.950 . S
C894 C892 1.391 1_455 S
C894 C895 1.400 . S
C895 C894 1.400 . S
C895 C896 1.398 . S
C895 C901 1.491 . S
C896 H887 0.950 . S
C896 C895 1.398 . S
C896 C897 1.391 . S
C897 H885 0.950 . S
C897 C893 1.393 1_455 S
C897 C896 1.391 . S
C898 H888 0.950 . S
C898 C899 1.386 . S
C898 C900 1.391 . S
C899 C898 1.386 . S
C899 C903 1.393 . S
C900 H889 0.950 . S
C900 C898 1.391 . S
C900 C901 1.400 . S
C901 C895 1.491 . S
C901 C900 1.400 . S
C901 C902 1.398 . S
C902 H890 0.950 . S
C902 C901 1.398 . S
C902 C903 1.391 . S
C903 H891 0.950 . S
C903 C899 1.393 . S
C903 C902 1.391 . S
H904 C912 0.950 . S
H905 C917 0.950 . S
H906 C914 0.950 . S
H907 C916 0.950 . S
H908 C918 0.950 . S
H909 C920 0.946 1_554 S
H910 C922 0.950 . S
H911 C923 0.950 . S
C912 H904 0.950 . S
C912 C913 1.386 . S
C912 C914 1.391 . S
C913 C912 1.386 . S
C913 C917 1.393 . S
C914 H906 0.950 . S
C914 C912 1.391 . S
C914 C915 1.400 . S
C915 C914 1.400 . S
C915 C916 1.398 . S
C915 C921 1.491 . S
C916 H907 0.950 . S
C916 C915 1.398 . S
C916 C917 1.391 . S
C917 H905 0.950 . S
C917 C913 1.393 . S
C917 C916 1.391 . S
C918 H908 0.950 . S
C918 C919 1.386 . S
C918 C920 1.366 1_554 S
C919 C918 1.386 . S
C919 C923 1.393 1_554 S
C920 H909 0.946 1_556 S
C920 C918 1.366 1_556 S
C920 C921 1.429 . S
C921 C915 1.491 . S
C921 C920 1.429 . S
C921 C922 1.398 . S
C922 H910 0.950 . S
C922 C921 1.398 . S
C922 C923 1.391 . S
C923 H911 0.950 . S
C923 C919 1.393 1_556 S
C923 C922 1.391 . S
H924 C932 0.950 . S
H925 C937 0.950 . S
H926 C934 0.950 . S
H927 C936 0.950 . S
H928 C938 0.950 . S
H929 C940 0.950 . S
H930 C942 0.950 . S
H931 C943 0.950 . S
C932 H924 0.950 . S
C932 C933 1.386 . S
C932 C934 1.391 . S
C933 C932 1.386 . S
C933 C937 1.393 . S
C934 H926 0.950 . S
C934 C932 1.391 . S
C934 C935 1.400 . S
C935 C934 1.400 . S
C935 C936 1.398 . S
C935 C941 1.491 . S
C936 H927 0.950 . S
C936 C935 1.398 . S
C936 C937 1.391 . S
C937 H925 0.950 . S
C937 C933 1.393 . S
C937 C936 1.391 . S
C938 H928 0.950 . S
C938 C939 1.386 . S
C938 C940 1.391 . S
C939 C938 1.386 . S
C939 C943 1.393 . S
C940 H929 0.950 . S
C940 C938 1.391 . S
C940 C941 1.400 . S
C941 C935 1.491 . S
C941 C940 1.400 . S
C941 C942 1.398 . S
C942 H930 0.950 . S
C942 C941 1.398 . S
C942 C943 1.391 . S
C943 H931 0.950 . S
C943 C939 1.393 . S
C943 C942 1.391 . S
H944 C952 0.950 . S
H945 C957 0.950 . S
H946 C954 0.950 . S
H947 C956 0.950 . S
H948 C958 0.950 . S
H949 C960 0.950 . S
H950 C962 0.950 . S
H951 C963 0.950 . S
C952 H944 0.950 . S
C952 C953 1.386 . S
C952 C954 1.391 . S
C953 C952 1.386 . S
C953 C957 1.393 . S
C954 H946 0.950 . S
C954 C952 1.391 . S
C954 C955 1.400 . S
C955 C954 1.400 . S
C955 C956 1.398 . S
C955 C961 1.491 . S
C956 H947 0.950 . S
C956 C955 1.398 . S
C956 C957 1.391 . S
C957 H945 0.950 . S
C957 C953 1.393 . S
C957 C956 1.391 . S
C958 H948 0.950 . S
C958 C959 1.386 . S
C958 C960 1.391 . S
C959 C958 1.386 . S
C959 C963 1.393 . S
C960 H949 0.950 . S
C960 C958 1.391 . S
C960 C961 1.400 . S
C961 C955 1.491 . S
C961 C960 1.400 . S
C961 C962 1.398 . S
C962 H950 0.950 . S
C962 C961 1.398 . S
C962 C963 1.391 . S
C963 H951 0.950 . S
C963 C959 1.393 . S
C963 C962 1.391 . S
H964 C972 0.950 . S
H965 C977 0.950 . S
H966 C974 0.950 . S
H967 C976 0.950 . S
H968 C978 0.950 . S
H969 C980 0.950 . S
H970 C982 0.950 . S
H971 C983 0.950 . S
C972 H964 0.950 . S
C972 C973 1.386 . S
C972 C974 1.391 . S
C973 C972 1.386 . S
C973 C977 1.393 . S
C974 H966 0.950 . S
C974 C972 1.391 . S
C974 C975 1.400 . S
C975 C974 1.400 . S
C975 C976 1.398 . S
C975 C981 1.491 . S
C976 H967 0.950 . S
C976 C975 1.398 . S
C976 C977 1.391 . S
C977 H965 0.950 . S
C977 C973 1.393 . S
C977 C976 1.391 . S
C978 H968 0.950 . S
C978 C979 1.386 1_655 S
C978 C980 1.391 . S
C979 C978 1.386 1_455 S
C979 C983 1.393 . S
C980 H969 0.950 . S
C980 C978 1.391 . S
C980 C981 1.400 . S
C981 C975 1.491 . S
C981 C980 1.400 . S
C981 C982 1.398 1_655 S
C982 H970 0.950 . S
C982 C981 1.398 1_455 S
C982 C983 1.391 . S
C983 H971 0.950 . S
C983 C979 1.393 . S
C983 C982 1.391 . S
H984 C992 0.950 . S
H985 C997 0.950 . S
H986 C994 0.950 . S
H987 C996 0.950 . S
H988 C998 0.950 . S
H989 C1000 0.950 . S
H990 C1002 0.950 . S
H991 C1003 0.950 . S
C992 H984 0.950 . S
C992 C993 1.386 . S
C992 C994 1.391 . S
C993 C992 1.386 . S
C993 C997 1.393 . S
C994 H986 0.950 . S
C994 C992 1.391 . S
C994 C995 1.400 . S
C995 C994 1.400 . S
C995 C996 1.398 . S
C995 C1001 1.491 . S
C996 H987 0.950 . S
C996 C995 1.398 . S
C996 C997 1.391 . S
C997 H985 0.950 . S
C997 C993 1.393 . S
C997 C996 1.391 . S
C998 H988 0.950 . S
C998 C999 1.386 . S
C998 C1000 1.391 1_556 S
C999 C998 1.386 . S
C999 C1003 1.393 . S
C1000 H989 0.950 . S
C1000 C998 1.391 1_554 S
C1000 C1001 1.400 . S
C1001 C995 1.491 . S
C1001 C1000 1.400 . S
C1001 C1002 1.398 . S
C1002 H990 0.950 . S
C1002 C1001 1.398 . S
C1002 C1003 1.391 1_554 S
C1003 H991 0.950 . S
C1003 C999 1.393 . S
C1003 C1002 1.391 1_556 S
H1004 C1012 0.950 . S
H1005 C1017 0.950 . S
H1006 C1014 0.950 . S
H1007 C1016 0.950 . S
H1008 C1018 0.950 . S
H1009 C1020 0.950 . S
H1010 C1022 0.950 . S
H1011 C1023 0.950 . S
C1012 H1004 0.950 . S
C1012 C1013 1.386 . S
C1012 C1014 1.391 . S
C1013 C1012 1.386 . S
C1013 C1017 1.393 . S
C1014 H1006 0.950 . S
C1014 C1012 1.391 . S
C1014 C1015 1.400 . S
C1015 C1014 1.400 . S
C1015 C1016 1.398 . S
C1015 C1021 1.491 . S
C1016 H1007 0.950 . S
C1016 C1015 1.398 . S
C1016 C1017 1.391 . S
C1017 H1005 0.950 . S
C1017 C1013 1.393 . S
C1017 C1016 1.391 . S
C1018 H1008 0.950 . S
C1018 C1019 1.386 . S
C1018 C1020 1.391 . S
C1019 C1018 1.386 . S
C1019 C1023 1.393 . S
C1020 H1009 0.950 . S
C1020 C1018 1.391 . S
C1020 C1021 1.400 . S
C1021 C1015 1.491 . S
C1021 C1020 1.400 . S
C1021 C1022 1.398 . S
C1022 H1010 0.950 . S
C1022 C1021 1.398 . S
C1022 C1023 1.391 . S
C1023 H1011 0.950 . S
C1023 C1019 1.393 . S
C1023 C1022 1.391 . S
H1024 C1032 0.950 . S
H1025 C1037 0.950 . S
H1026 C1034 0.950 . S
H1027 C1036 0.950 . S
H1028 C1038 0.950 . S
H1029 C1040 0.950 . S
H1030 C1042 0.950 . S
H1031 C1043 0.950 . S
C1032 H1024 0.950 . S
C1032 C1033 1.386 . S
C1032 C1034 1.391 . S
C1033 C1032 1.386 . S
C1033 C1037 1.393 . S
C1034 H1026 0.950 . S
C1034 C1032 1.391 . S
C1034 C1035 1.400 . S
C1035 C1034 1.400 . S
C1035 C1036 1.398 . S
C1035 C1041 1.491 . S
C1036 H1027 0.950 . S
C1036 C1035 1.398 . S
C1036 C1037 1.391 . S
C1037 H1025 0.950 . S
C1037 C1033 1.393 . S
C1037 C1036 1.391 . S
C1038 H1028 0.950 . S
C1038 C1039 1.386 . S
C1038 C1040 1.391 . S
C1039 C1038 1.386 . S
C1039 C1043 1.393 . S
C1040 H1029 0.950 . S
C1040 C1038 1.391 . S
C1040 C1041 1.400 . S
C1041 C1035 1.491 . S
C1041 C1040 1.400 . S
C1041 C1042 1.398 . S
C1042 H1030 0.950 . S
C1042 C1041 1.398 . S
C1042 C1043 1.391 . S
C1043 H1031 0.950 . S
C1043 C1039 1.393 . S
C1043 C1042 1.391 . S
H1044 C1052 0.950 . S
H1045 C1057 0.950 . S
H1046 C1054 0.950 . S
H1047 C1056 0.950 . S
H1048 C1058 0.950 . S
H1049 C1060 0.950 . S
H1050 C1062 0.950 . S
H1051 C1063 0.950 . S
C1052 H1044 0.950 . S
C1052 C1053 1.386 1_545 S
C1052 C1054 1.391 . S
C1053 C1052 1.386 1_565 S
C1053 C1057 1.393 . S
C1054 H1046 0.950 . S
C1054 C1052 1.391 . S
C1054 C1055 1.400 . S
C1055 C1054 1.400 . S
C1055 C1056 1.398 1_545 S
C1055 C1061 1.491 . S
C1056 H1047 0.950 . S
C1056 C1055 1.398 1_565 S
C1056 C1057 1.391 . S
C1057 H1045 0.950 . S
C1057 C1053 1.393 . S
C1057 C1056 1.391 . S
C1058 H1048 0.950 . S
C1058 C1059 1.386 . S
C1058 C1060 1.391 . S
C1059 C1058 1.386 . S
C1059 C1063 1.393 . S
C1060 H1049 0.950 . S
C1060 C1058 1.391 . S
C1060 C1061 1.400 . S
C1061 C1055 1.491 . S
C1061 C1060 1.400 . S
C1061 C1062 1.398 . S
C1062 H1050 0.950 . S
C1062 C1061 1.398 . S
C1062 C1063 1.391 . S
C1063 H1051 0.950 . S
C1063 C1059 1.393 . S
C1063 C1062 1.391 . S
H1064 C1072 0.950 . S
H1065 C1077 0.950 . S
H1066 C1074 0.950 . S
H1067 C1076 0.950 . S
H1068 C1078 0.950 . S
H1069 C1080 0.950 . S
H1070 C1082 0.950 . S
H1071 C1083 0.950 . S
C1072 H1064 0.950 . S
C1072 C1073 1.386 . S
C1072 C1074 1.391 . S
C1073 C1072 1.386 . S
C1073 C1077 1.393 . S
C1074 H1066 0.950 . S
C1074 C1072 1.391 . S
C1074 C1075 1.400 . S
C1075 C1074 1.400 . S
C1075 C1076 1.398 . S
C1075 C1081 1.491 . S
C1076 H1067 0.950 . S
C1076 C1075 1.398 . S
C1076 C1077 1.391 . S
C1077 H1065 0.950 . S
C1077 C1073 1.393 . S
C1077 C1076 1.391 . S
C1078 H1068 0.950 . S
C1078 C1079 1.386 . S
C1078 C1080 1.391 1_545 S
C1079 C1078 1.386 . S
C1079 C1083 1.393 1_545 S
C1080 H1069 0.950 . S
C1080 C1078 1.391 1_565 S
C1080 C1081 1.400 . S
C1081 C1075 1.491 . S
C1081 C1080 1.400 . S
C1081 C1082 1.398 . S
C1082 H1070 0.950 . S
C1082 C1081 1.398 . S
C1082 C1083 1.391 . S
C1083 H1071 0.950 . S
C1083 C1079 1.393 1_565 S
C1083 C1082 1.391 . S
H1084 C1092 0.950 . S
H1085 C1097 0.950 . S
H1086 C1094 0.950 . S
H1087 C1096 0.950 . S
H1088 C1098 0.950 . S
H1089 C1100 0.950 . S
H1090 C1102 0.950 . S
H1091 C1103 0.950 . S
C1092 H1084 0.950 . S
C1092 C1093 1.386 . S
C1092 C1094 1.391 . S
C1093 C1092 1.386 . S
C1093 C1097 1.393 . S
C1094 H1086 0.950 . S
C1094 C1092 1.391 . S
C1094 C1095 1.400 . S
C1095 C1094 1.400 . S
C1095 C1096 1.398 . S
C1095 C1101 1.491 . S
C1096 H1087 0.950 . S
C1096 C1095 1.398 . S
C1096 C1097 1.391 . S
C1097 H1085 0.950 . S
C1097 C1093 1.393 . S
C1097 C1096 1.391 . S
C1098 H1088 0.950 . S
C1098 C1099 1.386 . S
C1098 C1100 1.391 . S
C1099 C1098 1.386 . S
C1099 C1103 1.393 . S
C1100 H1089 0.950 . S
C1100 C1098 1.391 . S
C1100 C1101 1.400 . S
C1101 C1095 1.491 . S
C1101 C1100 1.400 . S
C1101 C1102 1.398 . S
C1102 H1090 0.950 . S
C1102 C1101 1.398 . S
C1102 C1103 1.391 . S
C1103 H1091 0.950 . S
C1103 C1099 1.393 . S
C1103 C1102 1.391 . S
H1104 C1112 0.950 . S
H1105 C1117 0.950 . S
H1106 C1114 0.950 . S
H1107 C1116 0.950 . S
H1108 C1118 0.950 . S
H1109 C1120 0.950 . S
H1110 C1122 0.950 . S
H1111 C1123 0.950 . S
C1112 H1104 0.950 . S
C1112 C1113 1.386 . S
C1112 C1114 1.391 . S
C1113 C1112 1.386 . S
C1113 C1117 1.393 . S
C1114 H1106 0.950 . S
C1114 C1112 1.391 . S
C1114 C1115 1.400 . S
C1115 C1114 1.400 . S
C1115 C1116 1.398 . S
C1115 C1121 1.491 . S
C1116 H1107 0.950 . S
C1116 C1115 1.398 . S
C1116 C1117 1.391 . S
C1117 H1105 0.950 . S
C1117 C1113 1.393 . S
C1117 C1116 1.391 . S
C1118 H1108 0.950 . S
C1118 C1119 1.386 . S
C1118 C1120 1.391 . S
C1119 C1118 1.386 . S
C1119 C1123 1.393 . S
C1120 H1109 0.950 . S
C1120 C1118 1.391 . S
C1120 C1121 1.400 . S
C1121 C1115 1.491 . S
C1121 C1120 1.400 . S
C1121 C1122 1.398 . S
C1122 H1110 0.950 . S
C1122 C1121 1.398 . S
C1122 C1123 1.391 . S
C1123 H1111 0.950 . S
C1123 C1119 1.393 . S
C1123 C1122 1.391 . S
H1124 C1132 0.950 . S
H1125 C1137 0.950 . S
H1126 C1134 0.950 . S
H1127 C1136 0.950 . S
H1128 C1138 0.950 . S
H1129 C1140 0.950 . S
H1130 C1142 0.950 . S
H1131 C1143 0.950 . S
C1132 H1124 0.950 . S
C1132 C1133 1.386 . S
C1132 C1134 1.391 . S
C1133 C1132 1.386 . S
C1133 C1137 1.393 . S
C1134 H1126 0.950 . S
C1134 C1132 1.391 . S
C1134 C1135 1.400 1_565 S
C1135 C1134 1.400 1_545 S
C1135 C1136 1.398 . S
C1135 C1141 1.491 . S
C1136 H1127 0.950 . S
C1136 C1135 1.398 . S
C1136 C1137 1.391 1_545 S
C1137 H1125 0.950 . S
C1137 C1133 1.393 . S
C1137 C1136 1.391 1_565 S
C1138 H1128 0.950 . S
C1138 C1139 1.386 . S
C1138 C1140 1.391 . S
C1139 C1138 1.386 . S
C1139 C1143 1.393 . S
C1140 H1129 0.950 . S
C1140 C1138 1.391 . S
C1140 C1141 1.400 . S
C1141 C1135 1.491 . S
C1141 C1140 1.400 . S
C1141 C1142 1.398 . S
C1142 H1130 0.950 . S
C1142 C1141 1.398 . S
C1142 C1143 1.391 . S
C1143 H1131 0.950 . S
C1143 C1139 1.393 . S
C1143 C1142 1.391 . S
H1144 C1152 0.950 . S
H1145 C1157 0.950 . S
H1146 C1154 0.950 . S
H1147 C1156 0.950 . S
H1148 C1158 0.950 . S
H1149 C1160 0.950 . S
H1150 C1162 0.936 1_556 S
H1151 C1163 0.950 . S
C1152 H1144 0.950 . S
C1152 C1153 1.386 . S
C1152 C1154 1.391 . S
C1153 C1152 1.386 . S
C1153 C1157 1.393 . S
C1154 H1146 0.950 . S
C1154 C1152 1.391 . S
C1154 C1155 1.400 . S
C1155 C1154 1.400 . S
C1155 C1156 1.398 . S
C1155 C1161 1.491 . S
C1156 H1147 0.950 . S
C1156 C1155 1.398 . S
C1156 C1157 1.391 . S
C1157 H1145 0.950 . S
C1157 C1153 1.393 . S
C1157 C1156 1.391 . S
C1158 H1148 0.950 . S
C1158 C1159 1.386 . S
C1158 C1160 1.391 . S
C1159 C1158 1.386 . S
C1159 C1163 1.393 . S
C1160 H1149 0.950 . S
C1160 C1158 1.391 . S
C1160 C1161 1.400 1_554 S
C1161 C1155 1.491 . S
C1161 C1160 1.400 1_556 S
C1161 C1162 1.391 1_556 S
C1162 H1150 0.936 1_554 S
C1162 C1161 1.391 1_554 S
C1162 C1163 1.412 . S
C1163 H1151 0.950 . S
C1163 C1159 1.393 . S
C1163 C1162 1.412 . S
H1164 C1172 0.950 . S
H1165 C1177 0.950 . S
H1166 C1174 0.950 . S
H1167 C1176 0.950 . S
H1168 C1178 0.950 . S
H1169 C1180 0.950 . S
H1170 C1182 0.950 . S
H1171 C1183 0.950 . S
C1172 H1164 0.950 . S
C1172 C1173 1.386 . S
C1172 C1174 1.391 1_545 S
C1173 C1172 1.386 . S
C1173 C1177 1.393 . S
C1174 H1166 0.950 . S
C1174 C1172 1.391 1_565 S
C1174 C1175 1.400 . S
C1175 C1174 1.400 . S
C1175 C1176 1.398 1_565 S
C1175 C1181 1.491 . S
C1176 H1167 0.950 . S
C1176 C1175 1.398 1_545 S
C1176 C1177 1.391 . S
C1177 H1165 0.950 . S
C1177 C1173 1.393 . S
C1177 C1176 1.391 . S
C1178 H1168 0.950 . S
C1178 C1179 1.386 . S
C1178 C1180 1.391 . S
C1179 C1178 1.386 . S
C1179 C1183 1.393 . S
C1180 H1169 0.950 . S
C1180 C1178 1.391 . S
C1180 C1181 1.400 . S
C1181 C1175 1.491 . S
C1181 C1180 1.400 . S
C1181 C1182 1.398 . S
C1182 H1170 0.950 . S
C1182 C1181 1.398 . S
C1182 C1183 1.391 . S
C1183 H1171 0.950 . S
C1183 C1179 1.393 . S
C1183 C1182 1.391 . S
H1184 C1192 0.950 . S
H1185 C1197 0.950 . S
H1186 C1194 0.950 . S
H1187 C1196 0.950 . S
H1188 C1198 0.950 . S
H1189 C1200 0.950 . S
H1190 C1202 0.950 . S
H1191 C1203 0.950 . S
C1192 H1184 0.950 . S
C1192 C1193 1.386 . S
C1192 C1194 1.391 . S
C1193 C1192 1.386 . S
C1193 C1197 1.393 . S
C1194 H1186 0.950 . S
C1194 C1192 1.391 . S
C1194 C1195 1.400 . S
C1195 C1194 1.400 . S
C1195 C1196 1.398 . S
C1195 C1201 1.491 . S
C1196 H1187 0.950 . S
C1196 C1195 1.398 . S
C1196 C1197 1.391 . S
C1197 H1185 0.950 . S
C1197 C1193 1.393 . S
C1197 C1196 1.391 . S
C1198 H1188 0.950 . S
C1198 C1199 1.386 . S
C1198 C1200 1.391 . S
C1199 C1198 1.386 . S
C1199 C1203 1.393 . S
C1200 H1189 0.950 . S
C1200 C1198 1.391 . S
C1200 C1201 1.400 . S
C1201 C1195 1.491 . S
C1201 C1200 1.400 . S
C1201 C1202 1.398 . S
C1202 H1190 0.950 . S
C1202 C1201 1.398 . S
C1202 C1203 1.391 . S
C1203 H1191 0.950 . S
C1203 C1199 1.393 . S
C1203 C1202 1.391 . S
H1204 C1212 0.950 . S
H1205 C1217 0.950 . S
H1206 C1214 0.950 . S
H1207 C1216 0.950 . S
H1208 C1218 0.950 . S
H1209 C1220 0.950 . S
H1210 C1222 0.950 . S
H1211 C1223 0.950 . S
C1212 H1204 0.950 . S
C1212 C1213 1.386 . S
C1212 C1214 1.391 . S
C1213 C1212 1.386 . S
C1213 C1217 1.393 . S
C1214 H1206 0.950 . S
C1214 C1212 1.391 . S
C1214 C1215 1.400 . S
C1215 C1214 1.400 . S
C1215 C1216 1.398 . S
C1215 C1221 1.491 . S
C1216 H1207 0.950 . S
C1216 C1215 1.398 . S
C1216 C1217 1.391 . S
C1217 H1205 0.950 . S
C1217 C1213 1.393 . S
C1217 C1216 1.391 . S
C1218 H1208 0.950 . S
C1218 C1219 1.386 . S
C1218 C1220 1.391 . S
C1219 C1218 1.386 . S
C1219 C1223 1.393 . S
C1220 H1209 0.950 . S
C1220 C1218 1.391 . S
C1220 C1221 1.400 . S
C1221 C1215 1.491 . S
C1221 C1220 1.400 . S
C1221 C1222 1.398 . S
C1222 H1210 0.950 . S
C1222 C1221 1.398 . S
C1222 C1223 1.391 . S
C1223 H1211 0.950 . S
C1223 C1219 1.393 . S
C1223 C1222 1.391 . S
H1224 C1232 0.950 . S
H1225 C1237 0.950 . S
H1226 C1234 0.950 . S
H1227 C1236 0.950 . S
H1228 C1238 0.950 . S
H1229 C1240 0.950 . S
H1230 C1242 0.950 . S
H1231 C1243 0.950 . S
C1232 H1224 0.950 . S
C1232 C1233 1.386 . S
C1232 C1234 1.391 . S
C1233 C1232 1.386 . S
C1233 C1237 1.393 . S
C1234 H1226 0.950 . S
C1234 C1232 1.391 . S
C1234 C1235 1.400 1_556 S
C1235 C1234 1.400 1_554 S
C1235 C1236 1.398 . S
C1235 C1241 1.491 . S
C1236 H1227 0.950 . S
C1236 C1235 1.398 . S
C1236 C1237 1.391 1_554 S
C1237 H1225 0.950 . S
C1237 C1233 1.393 . S
C1237 C1236 1.391 1_556 S
C1238 H1228 0.950 . S
C1238 C1239 1.386 . S
C1238 C1240 1.391 . S
C1239 C1238 1.386 . S
C1239 C1243 1.393 . S
C1240 H1229 0.950 . S
C1240 C1238 1.391 . S
C1240 C1241 1.400 . S
C1241 C1235 1.491 . S
C1241 C1240 1.400 . S
C1241 C1242 1.398 . S
C1242 H1230 0.950 . S
C1242 C1241 1.398 . S
C1242 C1243 1.391 . S
C1243 H1231 0.950 . S
C1243 C1239 1.393 . S
C1243 C1242 1.391 . S
H1244 C1252 0.950 . S
H1245 C1257 0.950 . S
H1246 C1254 0.950 . S
H1247 C1256 0.950 . S
H1248 C1258 0.950 . S
H1249 C1260 0.950 . S
H1250 C1262 0.950 . S
H1251 C1263 0.950 . S
C1252 H1244 0.950 . S
C1252 C1253 1.386 . S
C1252 C1254 1.391 . S
C1253 C1252 1.386 . S
C1253 C1257 1.393 . S
C1254 H1246 0.950 . S
C1254 C1252 1.391 . S
C1254 C1255 1.400 . S
C1255 C1254 1.400 . S
C1255 C1256 1.398 . S
C1255 C1261 1.491 . S
C1256 H1247 0.950 . S
C1256 C1255 1.398 . S
C1256 C1257 1.391 . S
C1257 H1245 0.950 . S
C1257 C1253 1.393 . S
C1257 C1256 1.391 . S
C1258 H1248 0.950 . S
C1258 C1259 1.386 . S
C1258 C1260 1.391 . S
C1259 C1258 1.386 . S
C1259 C1263 1.393 . S
C1260 H1249 0.950 . S
C1260 C1258 1.391 . S
C1260 C1261 1.400 . S
C1261 C1255 1.491 . S
C1261 C1260 1.400 . S
C1261 C1262 1.398 . S
C1262 H1250 0.950 . S
C1262 C1261 1.398 . S
C1262 C1263 1.391 . S
C1263 H1251 0.950 . S
C1263 C1259 1.393 . S
C1263 C1262 1.391 . S
H1264 C1272 0.950 . S
H1265 C1277 0.950 . S
H1266 C1274 0.950 . S
H1267 C1276 0.950 . S
H1268 C1278 0.950 . S
H1269 C1280 0.950 . S
H1270 C1282 0.950 . S
H1271 C1283 0.950 . S
C1272 H1264 0.950 . S
C1272 C1273 1.386 . S
C1272 C1274 1.391 . S
C1273 C1272 1.386 . S
C1273 C1277 1.393 . S
C1274 H1266 0.950 . S
C1274 C1272 1.391 . S
C1274 C1275 1.400 . S
C1275 C1274 1.400 . S
C1275 C1276 1.398 . S
C1275 C1281 1.491 . S
C1276 H1267 0.950 . S
C1276 C1275 1.398 . S
C1276 C1277 1.391 . S
C1277 H1265 0.950 . S
C1277 C1273 1.393 . S
C1277 C1276 1.391 . S
C1278 H1268 0.950 . S
C1278 C1279 1.386 . S
C1278 C1280 1.391 . S
C1279 C1278 1.386 . S
C1279 C1283 1.393 . S
C1280 H1269 0.950 . S
C1280 C1278 1.391 . S
C1280 C1281 1.400 . S
C1281 C1275 1.491 . S
C1281 C1280 1.400 . S
C1281 C1282 1.398 . S
C1282 H1270 0.950 . S
C1282 C1281 1.398 . S
C1282 C1283 1.391 . S
C1283 H1271 0.950 . S
C1283 C1279 1.393 . S
C1283 C1282 1.391 . S
H1284 C1292 0.950 . S
H1285 C1297 0.953 . S
H1286 C1294 0.950 . S
H1287 C1296 0.950 . S
H1288 C1298 0.950 . S
H1289 C1300 0.950 . S
H1290 C1302 0.939 1_455 S
H1291 C1303 0.950 . S
C1292 H1284 0.950 . S
C1292 C1293 1.386 . S
C1292 C1294 1.391 . S
C1293 C1292 1.386 . S
C1293 C1297 1.393 . S
C1294 H1286 0.950 . S
C1294 C1292 1.391 . S
C1294 C1295 1.400 1_455 S
C1295 C1294 1.400 1_655 S
C1295 C1296 1.398 . S
C1295 C1301 1.491 . S
C1296 H1287 0.950 . S
C1296 C1295 1.398 . S
C1296 C1297 1.391 1_655 S
C1297 H1285 0.953 . S
C1297 C1293 1.393 . S
C1297 C1296 1.391 1_455 S
C1298 H1288 0.950 . S
C1298 C1299 1.386 . S
C1298 C1300 1.391 . S
C1299 C1298 1.386 . S
C1299 C1303 1.393 . S
C1300 H1289 0.950 . S
C1300 C1298 1.391 . S
C1300 C1301 1.400 . S
C1301 C1295 1.491 . S
C1301 C1300 1.400 . S
C1301 C1302 1.398 . S
C1302 H1290 0.939 1_655 S
C1302 C1301 1.398 . S
C1302 C1303 1.391 . S
C1303 H1291 0.950 . S
C1303 C1299 1.393 . S
C1303 C1302 1.391 . S
H1304 C1312 0.950 . S
H1305 C1317 0.950 . S
H1306 C1314 0.950 . S
H1307 C1316 0.950 . S
H1308 C1318 0.950 . S
H1309 C1320 0.950 . S
H1310 C1322 0.950 . S
H1311 C1323 0.950 . S
C1312 H1304 0.950 . S
C1312 C1313 1.386 . S
C1312 C1314 1.391 1_655 S
C1313 C1312 1.386 . S
C1313 C1317 1.393 . S
C1314 H1306 0.950 . S
C1314 C1312 1.391 1_455 S
C1314 C1315 1.400 . S
C1315 C1314 1.400 . S
C1315 C1316 1.398 1_455 S
C1315 C1321 1.491 . S
C1316 H1307 0.950 . S
C1316 C1315 1.398 1_655 S
C1316 C1317 1.391 . S
C1317 H1305 0.950 . S
C1317 C1313 1.393 . S
C1317 C1316 1.391 . S
C1318 H1308 0.950 . S
C1318 C1319 1.386 . S
C1318 C1320 1.391 . S
C1319 C1318 1.386 . S
C1319 C1323 1.393 . S
C1320 H1309 0.950 . S
C1320 C1318 1.391 . S
C1320 C1321 1.400 . S
C1321 C1315 1.491 . S
C1321 C1320 1.400 . S
C1321 C1322 1.398 . S
C1322 H1310 0.950 . S
C1322 C1321 1.398 . S
C1322 C1323 1.391 . S
C1323 H1311 0.950 . S
C1323 C1319 1.393 . S
C1323 C1322 1.391 . S
H1324 C1332 0.950 . S
H1325 C1337 0.950 . S
H1326 C1334 0.950 . S
H1327 C1336 0.950 . S
H1328 C1338 0.950 . S
H1329 C1340 0.950 . S
H1330 C1342 0.950 . S
H1331 C1343 0.950 . S
C1332 H1324 0.950 . S
C1332 C1333 1.386 . S
C1332 C1334 1.391 . S
C1333 C1332 1.386 . S
C1333 C1337 1.393 . S
C1334 H1326 0.950 . S
C1334 C1332 1.391 . S
C1334 C1335 1.400 . S
C1335 C1334 1.400 . S
C1335 C1336 1.398 . S
C1335 C1341 1.491 . S
C1336 H1327 0.950 . S
C1336 C1335 1.398 . S
C1336 C1337 1.391 . S
C1337 H1325 0.950 . S
C1337 C1333 1.393 . S
C1337 C1336 1.391 . S
C1338 H1328 0.950 . S
C1338 C1339 1.386 . S
C1338 C1340 1.391 . S
C1339 C1338 1.386 . S
C1339 C1343 1.393 . S
C1340 H1329 0.950 . S
C1340 C1338 1.391 . S
C1340 C1341 1.400 . S
C1341 C1335 1.491 . S
C1341 C1340 1.400 . S
C1341 C1342 1.398 . S
C1342 H1330 0.950 . S
C1342 C1341 1.398 . S
C1342 C1343 1.391 . S
C1343 H1331 0.950 . S
C1343 C1339 1.393 . S
C1343 C1342 1.391 . S
H1344 C1352 0.950 . S
H1345 C1357 0.950 . S
H1346 C1354 0.950 . S
H1347 C1356 0.950 . S
H1348 C1358 0.950 . S
H1349 C1360 0.950 . S
H1350 C1362 0.950 . S
H1351 C1363 0.950 . S
C1352 H1344 0.950 . S
C1352 C1353 1.386 . S
C1352 C1354 1.391 . S
C1353 C1352 1.386 . S
C1353 C1357 1.393 . S
C1354 H1346 0.950 . S
C1354 C1352 1.391 . S
C1354 C1355 1.400 . S
C1355 C1354 1.400 . S
C1355 C1356 1.398 . S
C1355 C1361 1.491 . S
C1356 H1347 0.950 . S
C1356 C1355 1.398 . S
C1356 C1357 1.391 . S
C1357 H1345 0.950 . S
C1357 C1353 1.393 . S
C1357 C1356 1.391 . S
C1358 H1348 0.950 . S
C1358 C1359 1.386 . S
C1358 C1360 1.391 . S
C1359 C1358 1.386 . S
C1359 C1363 1.393 . S
C1360 H1349 0.950 . S
C1360 C1358 1.391 . S
C1360 C1361 1.400 . S
C1361 C1355 1.491 . S
C1361 C1360 1.400 . S
C1361 C1362 1.398 . S
C1362 H1350 0.950 . S
C1362 C1361 1.398 . S
C1362 C1363 1.391 . S
C1363 H1351 0.950 . S
C1363 C1359 1.393 . S
C1363 C1362 1.391 . S
H1364 C1372 0.950 . S
H1365 C1377 0.950 . S
H1366 C1374 0.950 . S
H1367 C1376 0.950 . S
H1368 C1378 0.950 . S
H1369 C1380 0.950 . S
H1370 C1382 0.950 . S
H1371 C1383 0.950 . S
C1372 H1364 0.950 . S
C1372 C1373 1.386 1_565 S
C1372 C1374 1.391 . S
C1373 C1372 1.386 1_545 S
C1373 C1377 1.393 . S
C1374 H1366 0.950 . S
C1374 C1372 1.391 . S
C1374 C1375 1.400 . S
C1375 C1374 1.400 . S
C1375 C1376 1.398 . S
C1375 C1381 1.491 . S
C1376 H1367 0.950 . S
C1376 C1375 1.398 . S
C1376 C1377 1.391 1_565 S
C1377 H1365 0.950 . S
C1377 C1373 1.393 . S
C1377 C1376 1.391 1_545 S
C1378 H1368 0.950 . S
C1378 C1379 1.386 . S
C1378 C1380 1.391 . S
C1379 C1378 1.386 . S
C1379 C1383 1.393 . S
C1380 H1369 0.950 . S
C1380 C1378 1.391 . S
C1380 C1381 1.400 . S
C1381 C1375 1.491 . S
C1381 C1380 1.400 . S
C1381 C1382 1.398 . S
C1382 H1370 0.950 . S
C1382 C1381 1.398 . S
C1382 C1383 1.391 . S
C1383 H1371 0.950 . S
C1383 C1379 1.393 . S
C1383 C1382 1.391 . S
H1384 C1392 0.950 . S
H1385 C1397 0.950 . S
H1386 C1394 0.950 . S
H1387 C1396 0.950 . S
H1388 C1398 0.950 . S
H1389 C1400 0.950 . S
H1390 C1402 0.950 . S
H1391 C1403 0.950 . S
C1392 H1384 0.950 . S
C1392 C1393 1.386 . S
C1392 C1394 1.391 . S
C1393 C1392 1.386 . S
C1393 C1397 1.393 . S
C1394 H1386 0.950 . S
C1394 C1392 1.391 . S
C1394 C1395 1.400 . S
C1395 C1394 1.400 . S
C1395 C1396 1.398 . S
C1395 C1401 1.491 . S
C1396 H1387 0.950 . S
C1396 C1395 1.398 . S
C1396 C1397 1.391 . S
C1397 H1385 0.950 . S
C1397 C1393 1.393 . S
C1397 C1396 1.391 . S
C1398 H1388 0.950 . S
C1398 C1399 1.386 . S
C1398 C1400 1.391 . S
C1399 C1398 1.386 . S
C1399 C1403 1.393 . S
C1400 H1389 0.950 . S
C1400 C1398 1.391 . S
C1400 C1401 1.400 . S
C1401 C1395 1.491 . S
C1401 C1400 1.400 . S
C1401 C1402 1.398 . S
C1402 H1390 0.950 . S
C1402 C1401 1.398 . S
C1402 C1403 1.391 . S
C1403 H1391 0.950 . S
C1403 C1399 1.393 . S
C1403 C1402 1.391 . S
H1404 C1412 0.950 . S
H1405 C1417 0.950 . S
H1406 C1414 0.950 . S
H1407 C1416 0.950 . S
H1408 C1418 0.950 . S
H1409 C1420 0.950 . S
H1410 C1422 0.950 . S
H1411 C1423 0.950 . S
C1412 H1404 0.950 . S
C1412 C1413 1.386 . S
C1412 C1414 1.391 . S
C1413 C1412 1.386 . S
C1413 C1417 1.393 . S
C1414 H1406 0.950 . S
C1414 C1412 1.391 . S
C1414 C1415 1.400 . S
C1415 C1414 1.400 . S
C1415 C1416 1.398 . S
C1415 C1421 1.491 . S
C1416 H1407 0.950 . S
C1416 C1415 1.398 . S
C1416 C1417 1.391 . S
C1417 H1405 0.950 . S
C1417 C1413 1.393 . S
C1417 C1416 1.391 . S
C1418 H1408 0.950 . S
C1418 C1419 1.386 . S
C1418 C1420 1.391 1_566 S
C1419 C1418 1.386 . S
C1419 C1423 1.393 . S
C1420 H1409 0.950 . S
C1420 C1418 1.391 1_544 S
C1420 C1421 1.400 . S
C1421 C1415 1.491 . S
C1421 C1420 1.400 . S
C1421 C1422 1.398 . S
C1422 H1410 0.950 . S
C1422 C1421 1.398 . S
C1422 C1423 1.391 1_544 S
C1423 H1411 0.950 . S
C1423 C1419 1.393 . S
C1423 C1422 1.391 1_566 S
H1424 C1432 0.950 . S
H1425 C1437 0.950 . S
H1426 C1434 0.950 . S
H1427 C1436 0.950 . S
H1428 C1438 0.950 . S
H1429 C1440 0.950 . S
H1430 C1442 0.950 . S
H1431 C1443 0.950 . S
C1432 H1424 0.950 . S
C1432 C1433 1.386 . S
C1432 C1434 1.391 . S
C1433 C1432 1.386 . S
C1433 C1437 1.393 . S
C1434 H1426 0.950 . S
C1434 C1432 1.391 . S
C1434 C1435 1.400 . S
C1435 C1434 1.400 . S
C1435 C1436 1.398 . S
C1435 C1441 1.491 . S
C1436 H1427 0.950 . S
C1436 C1435 1.398 . S
C1436 C1437 1.391 . S
C1437 H1425 0.950 . S
C1437 C1433 1.393 . S
C1437 C1436 1.391 . S
C1438 H1428 0.950 . S
C1438 C1439 1.386 . S
C1438 C1440 1.391 . S
C1439 C1438 1.386 . S
C1439 C1443 1.393 . S
C1440 H1429 0.950 . S
C1440 C1438 1.391 . S
C1440 C1441 1.400 . S
C1441 C1435 1.491 . S
C1441 C1440 1.400 . S
C1441 C1442 1.398 . S
C1442 H1430 0.950 . S
C1442 C1441 1.398 . S
C1442 C1443 1.391 . S
C1443 H1431 0.950 . S
C1443 C1439 1.393 . S
C1443 C1442 1.391 . S
H1444 C1452 0.950 . S
H1445 C1457 0.950 . S
H1446 C1454 0.949 1_554 S
H1447 C1456 0.950 . S
H1448 C1458 0.950 . S
H1449 C1460 0.950 . S
H1450 C1462 0.950 . S
H1451 C1463 0.950 . S
C1452 H1444 0.950 . S
C1452 C1453 1.386 . S
C1452 C1454 1.381 1_554 S
C1453 C1452 1.386 . S
C1453 C1457 1.393 1_554 S
C1454 H1446 0.949 1_556 S
C1454 C1452 1.381 1_556 S
C1454 C1455 1.411 . S
C1455 C1454 1.411 . S
C1455 C1456 1.398 . S
C1455 C1461 1.491 . S
C1456 H1447 0.950 . S
C1456 C1455 1.398 . S
C1456 C1457 1.391 . S
C1457 H1445 0.950 . S
C1457 C1453 1.393 1_556 S
C1457 C1456 1.391 . S
C1458 H1448 0.950 . S
C1458 C1459 1.386 . S
C1458 C1460 1.391 . S
C1459 C1458 1.386 . S
C1459 C1463 1.393 . S
C1460 H1449 0.950 . S
C1460 C1458 1.391 . S
C1460 C1461 1.400 . S
C1461 C1455 1.491 . S
C1461 C1460 1.400 . S
C1461 C1462 1.398 . S
C1462 H1450 0.950 . S
C1462 C1461 1.398 . S
C1462 C1463 1.391 . S
C1463 H1451 0.950 . S
C1463 C1459 1.393 . S
C1463 C1462 1.391 . S
H1464 C1472 0.950 . S
H1465 C1477 0.950 . S
H1466 C1474 0.950 . S
H1467 C1476 0.950 . S
H1468 C1478 0.950 . S
H1469 C1480 0.950 . S
H1470 C1482 0.950 . S
H1471 C1483 0.950 . S
C1472 H1464 0.950 . S
C1472 C1473 1.386 . S
C1472 C1474 1.391 . S
C1473 C1472 1.386 . S
C1473 C1477 1.393 . S
C1474 H1466 0.950 . S
C1474 C1472 1.391 . S
C1474 C1475 1.400 . S
C1475 C1474 1.400 . S
C1475 C1476 1.398 . S
C1475 C1481 1.491 . S
C1476 H1467 0.950 . S
C1476 C1475 1.398 . S
C1476 C1477 1.391 . S
C1477 H1465 0.950 . S
C1477 C1473 1.393 . S
C1477 C1476 1.391 . S
C1478 H1468 0.950 . S
C1478 C1479 1.386 . S
C1478 C1480 1.391 . S
C1479 C1478 1.386 . S
C1479 C1483 1.393 . S
C1480 H1469 0.950 . S
C1480 C1478 1.391 . S
C1480 C1481 1.400 . S
C1481 C1475 1.491 . S
C1481 C1480 1.400 . S
C1481 C1482 1.398 . S
C1482 H1470 0.950 . S
C1482 C1481 1.398 . S
C1482 C1483 1.391 . S
C1483 H1471 0.950 . S
C1483 C1479 1.393 . S
C1483 C1482 1.391 . S
H1484 C1492 0.950 . S
H1485 C1497 0.950 . S
H1486 C1494 0.950 . S
H1487 C1496 0.950 . S
H1488 C1498 0.950 . S
H1489 C1500 0.950 . S
H1490 C1502 0.950 . S
H1491 C1503 0.950 . S
C1492 H1484 0.950 . S
C1492 C1493 1.386 . S
C1492 C1494 1.391 . S
C1493 C1492 1.386 . S
C1493 C1497 1.393 . S
C1494 H1486 0.950 . S
C1494 C1492 1.391 . S
C1494 C1495 1.400 . S
C1495 C1494 1.400 . S
C1495 C1496 1.398 . S
C1495 C1501 1.491 . S
C1496 H1487 0.950 . S
C1496 C1495 1.398 . S
C1496 C1497 1.391 . S
C1497 H1485 0.950 . S
C1497 C1493 1.393 . S
C1497 C1496 1.391 . S
C1498 H1488 0.950 . S
C1498 C1499 1.386 . S
C1498 C1500 1.391 . S
C1499 C1498 1.386 . S
C1499 C1503 1.393 . S
C1500 H1489 0.950 . S
C1500 C1498 1.391 . S
C1500 C1501 1.400 . S
C1501 C1495 1.491 . S
C1501 C1500 1.400 . S
C1501 C1502 1.398 . S
C1502 H1490 0.950 . S
C1502 C1501 1.398 . S
C1502 C1503 1.391 . S
C1503 H1491 0.950 . S
C1503 C1499 1.393 . S
C1503 C1502 1.391 . S
H1504 C1512 0.950 . S
H1505 C1517 0.950 . S
H1506 C1514 0.950 . S
H1507 C1516 0.950 . S
H1508 C1518 0.950 . S
H1509 C1520 0.950 . S
H1510 C1522 0.950 . S
H1511 C1523 0.950 . S
C1512 H1504 0.950 . S
C1512 C1513 1.386 . S
C1512 C1514 1.391 . S
C1513 C1512 1.386 . S
C1513 C1517 1.393 . S
C1514 H1506 0.950 . S
C1514 C1512 1.391 . S
C1514 C1515 1.400 . S
C1515 C1514 1.400 . S
C1515 C1516 1.398 . S
C1515 C1521 1.491 . S
C1516 H1507 0.950 . S
C1516 C1515 1.398 . S
C1516 C1517 1.391 . S
C1517 H1505 0.950 . S
C1517 C1513 1.393 . S
C1517 C1516 1.391 . S
C1518 H1508 0.950 . S
C1518 C1519 1.386 . S
C1518 C1520 1.391 . S
C1519 C1518 1.386 . S
C1519 C1523 1.393 . S
C1520 H1509 0.950 . S
C1520 C1518 1.391 . S
C1520 C1521 1.400 . S
C1521 C1515 1.491 . S
C1521 C1520 1.400 . S
C1521 C1522 1.398 . S
C1522 H1510 0.950 . S
C1522 C1521 1.398 . S
C1522 C1523 1.391 . S
C1523 H1511 0.950 . S
C1523 C1519 1.393 . S
C1523 C1522 1.391 . S
H1524 C1532 0.950 . S
H1525 C1537 0.950 . S
H1526 C1534 0.950 . S
H1527 C1536 0.951 1_565 S
H1528 C1538 0.950 . S
H1529 C1540 0.950 . S
H1530 C1542 0.950 . S
H1531 C1543 0.950 . S
C1532 H1524 0.950 . S
C1532 C1533 1.386 1_545 S
C1532 C1534 1.391 . S
C1533 C1532 1.386 1_565 S
C1533 C1537 1.393 1_655 S
C1534 H1526 0.950 . S
C1534 C1532 1.391 . S
C1534 C1535 1.400 1_655 S
C1535 C1534 1.400 1_455 S
C1535 C1536 1.394 . S
C1535 C1541 1.491 . S
C1536 H1527 0.951 1_545 S
C1536 C1535 1.394 . S
C1536 C1537 1.395 1_545 S
C1537 H1525 0.950 . S
C1537 C1533 1.393 1_455 S
C1537 C1536 1.395 1_565 S
C1538 H1528 0.950 . S
C1538 C1539 1.386 . S
C1538 C1540 1.391 . S
C1539 C1538 1.386 . S
C1539 C1543 1.393 . S
C1540 H1529 0.950 . S
C1540 C1538 1.391 . S
C1540 C1541 1.400 . S
C1541 C1535 1.491 . S
C1541 C1540 1.400 . S
C1541 C1542 1.398 . S
C1542 H1530 0.950 . S
C1542 C1541 1.398 . S
C1542 C1543 1.391 . S
C1543 H1531 0.950 . S
C1543 C1539 1.393 . S
C1543 C1542 1.391 . S
H1544 C1552 0.950 . S
H1545 C1557 0.950 . S
H1546 C1554 0.950 . S
H1547 C1556 0.950 . S
H1548 C1558 0.950 . S
H1549 C1560 0.950 . S
H1550 C1562 0.950 . S
H1551 C1563 0.950 . S
C1552 H1544 0.950 . S
C1552 C1553 1.386 . S
C1552 C1554 1.391 . S
C1553 C1552 1.386 . S
C1553 C1557 1.393 . S
C1554 H1546 0.950 . S
C1554 C1552 1.391 . S
C1554 C1555 1.400 . S
C1555 C1554 1.400 . S
C1555 C1556 1.398 . S
C1555 C1561 1.491 . S
C1556 H1547 0.950 . S
C1556 C1555 1.398 . S
C1556 C1557 1.391 . S
C1557 H1545 0.950 . S
C1557 C1553 1.393 . S
C1557 C1556 1.391 . S
C1558 H1548 0.950 . S
C1558 C1559 1.386 . S
C1558 C1560 1.391 . S
C1559 C1558 1.386 . S
C1559 C1563 1.393 . S
C1560 H1549 0.950 . S
C1560 C1558 1.391 . S
C1560 C1561 1.400 . S
C1561 C1555 1.491 . S
C1561 C1560 1.400 . S
C1561 C1562 1.398 . S
C1562 H1550 0.950 . S
C1562 C1561 1.398 . S
C1562 C1563 1.391 . S
C1563 H1551 0.950 . S
C1563 C1559 1.393 . S
C1563 C1562 1.391 . S
H1564 C1572 0.950 . S
H1565 C1577 0.950 . S
H1566 C1574 0.950 . S
H1567 C1576 0.950 . S
H1568 C1578 0.950 . S
H1569 C1580 0.950 . S
H1570 C1582 0.950 . S
H1571 C1583 0.950 . S
C1572 H1564 0.950 . S
C1572 C1573 1.386 . S
C1572 C1574 1.391 1_545 S
C1573 C1572 1.386 . S
C1573 C1577 1.393 1_545 S
C1574 H1566 0.950 . S
C1574 C1572 1.391 1_565 S
C1574 C1575 1.400 . S
C1575 C1574 1.400 . S
C1575 C1576 1.398 . S
C1575 C1581 1.491 . S
C1576 H1567 0.950 . S
C1576 C1575 1.398 . S
C1576 C1577 1.391 . S
C1577 H1565 0.950 . S
C1577 C1573 1.393 1_565 S
C1577 C1576 1.391 . S
C1578 H1568 0.950 . S
C1578 C1579 1.386 . S
C1578 C1580 1.391 . S
C1579 C1578 1.386 . S
C1579 C1583 1.393 . S
C1580 H1569 0.950 . S
C1580 C1578 1.391 . S
C1580 C1581 1.400 . S
C1581 C1575 1.491 . S
C1581 C1580 1.400 . S
C1581 C1582 1.398 . S
C1582 H1570 0.950 . S
C1582 C1581 1.398 . S
C1582 C1583 1.391 . S
C1583 H1571 0.950 . S
C1583 C1579 1.393 . S
C1583 C1582 1.391 . S
H1584 C1592 0.950 . S
H1585 C1597 0.950 . S
H1586 C1594 0.950 . S
H1587 C1596 0.950 . S
H1588 C1598 0.950 . S
H1589 C1600 0.950 . S
H1590 C1602 0.950 . S
H1591 C1603 0.950 . S
C1592 H1584 0.950 . S
C1592 C1593 1.386 . S
C1592 C1594 1.391 . S
C1593 C1592 1.386 . S
C1593 C1597 1.393 . S
C1594 H1586 0.950 . S
C1594 C1592 1.391 . S
C1594 C1595 1.400 . S
C1595 C1594 1.400 . S
C1595 C1596 1.398 . S
C1595 C1601 1.491 . S
C1596 H1587 0.950 . S
C1596 C1595 1.398 . S
C1596 C1597 1.391 . S
C1597 H1585 0.950 . S
C1597 C1593 1.393 . S
C1597 C1596 1.391 . S
C1598 H1588 0.950 . S
C1598 C1599 1.386 . S
C1598 C1600 1.391 . S
C1599 C1598 1.386 . S
C1599 C1603 1.393 . S
C1600 H1589 0.950 . S
C1600 C1598 1.391 . S
C1600 C1601 1.400 . S
C1601 C1595 1.491 . S
C1601 C1600 1.400 . S
C1601 C1602 1.398 . S
C1602 H1590 0.950 . S
C1602 C1601 1.398 . S
C1602 C1603 1.391 . S
C1603 H1591 0.950 . S
C1603 C1599 1.393 . S
C1603 C1602 1.391 . S
H1604 C1612 0.950 . S
H1605 C1617 0.950 . S
H1606 C1614 0.950 . S
H1607 C1616 0.950 . S
H1608 C1618 0.950 . S
H1609 C1620 0.950 . S
H1610 C1622 0.950 . S
H1611 C1623 0.950 . S
C1612 H1604 0.950 . S
C1612 C1613 1.386 1_655 S
C1612 C1614 1.391 . S
C1613 C1612 1.386 1_455 S
C1613 C1617 1.393 . S
C1614 H1606 0.950 . S
C1614 C1612 1.391 . S
C1614 C1615 1.400 . S
C1615 C1614 1.400 . S
C1615 C1616 1.398 1_655 S
C1615 C1621 1.491 . S
C1616 H1607 0.950 . S
C1616 C1615 1.398 1_455 S
C1616 C1617 1.391 . S
C1617 H1605 0.950 . S
C1617 C1613 1.393 . S
C1617 C1616 1.391 . S
C1618 H1608 0.950 . S
C1618 C1619 1.386 . S
C1618 C1620 1.391 . S
C1619 C1618 1.386 . S
C1619 C1623 1.393 . S
C1620 H1609 0.950 . S
C1620 C1618 1.391 . S
C1620 C1621 1.400 . S
C1621 C1615 1.491 . S
C1621 C1620 1.400 . S
C1621 C1622 1.398 . S
C1622 H1610 0.950 . S
C1622 C1621 1.398 . S
C1622 C1623 1.391 . S
C1623 H1611 0.950 . S
C1623 C1619 1.393 . S
C1623 C1622 1.391 . S
H1624 C1632 0.950 . S
H1625 C1637 0.950 . S
H1626 C1634 0.950 . S
H1627 C1636 0.950 . S
H1628 C1638 0.950 . S
H1629 C1640 0.950 . S
H1630 C1642 0.950 . S
H1631 C1643 0.950 . S
C1632 H1624 0.950 . S
C1632 C1633 1.386 . S
C1632 C1634 1.391 . S
C1633 C1632 1.386 . S
C1633 C1637 1.393 . S
C1634 H1626 0.950 . S
C1634 C1632 1.391 . S
C1634 C1635 1.400 . S
C1635 C1634 1.400 . S
C1635 C1636 1.398 . S
C1635 C1641 1.491 . S
C1636 H1627 0.950 . S
C1636 C1635 1.398 . S
C1636 C1637 1.391 . S
C1637 H1625 0.950 . S
C1637 C1633 1.393 . S
C1637 C1636 1.391 . S
C1638 H1628 0.950 . S
C1638 C1639 1.386 . S
C1638 C1640 1.391 . S
C1639 C1638 1.386 . S
C1639 C1643 1.393 . S
C1640 H1629 0.950 . S
C1640 C1638 1.391 . S
C1640 C1641 1.400 . S
C1641 C1635 1.491 . S
C1641 C1640 1.400 . S
C1641 C1642 1.398 . S
C1642 H1630 0.950 . S
C1642 C1641 1.398 . S
C1642 C1643 1.391 . S
C1643 H1631 0.950 . S
C1643 C1639 1.393 . S
C1643 C1642 1.391 . S
H1644 C1652 0.950 . S
H1645 C1657 0.950 . S
H1646 C1654 0.950 . S
H1647 C1656 0.950 . S
H1648 C1658 0.950 . S
H1649 C1660 0.950 . S
H1650 C1662 0.950 . S
H1651 C1663 0.950 . S
C1652 H1644 0.950 . S
C1652 C1653 1.386 . S
C1652 C1654 1.391 . S
C1653 C1652 1.386 . S
C1653 C1657 1.393 . S
C1654 H1646 0.950 . S
C1654 C1652 1.391 . S
C1654 C1655 1.400 . S
C1655 C1654 1.400 . S
C1655 C1656 1.398 . S
C1655 C1661 1.491 . S
C1656 H1647 0.950 . S
C1656 C1655 1.398 . S
C1656 C1657 1.391 . S
C1657 H1645 0.950 . S
C1657 C1653 1.393 . S
C1657 C1656 1.391 . S
C1658 H1648 0.950 . S
C1658 C1659 1.386 . S
C1658 C1660 1.391 . S
C1659 C1658 1.386 . S
C1659 C1663 1.393 . S
C1660 H1649 0.950 . S
C1660 C1658 1.391 . S
C1660 C1661 1.400 . S
C1661 C1655 1.491 . S
C1661 C1660 1.400 . S
C1661 C1662 1.398 . S
C1662 H1650 0.950 . S
C1662 C1661 1.398 . S
C1662 C1663 1.391 . S
C1663 H1651 0.950 . S
C1663 C1659 1.393 . S
C1663 C1662 1.391 . S
H1664 C1672 0.950 . S
H1665 C1677 0.950 . S
H1666 C1674 0.950 . S
H1667 C1676 0.950 . S
H1668 C1678 0.950 . S
H1669 C1680 0.950 . S
H1670 C1682 0.950 . S
H1671 C1683 0.950 . S
C1672 H1664 0.950 . S
C1672 C1673 1.386 . S
C1672 C1674 1.391 . S
C1673 C1672 1.386 . S
C1673 C1677 1.393 . S
C1674 H1666 0.950 . S
C1674 C1672 1.391 . S
C1674 C1675 1.400 . S
C1675 C1674 1.400 . S
C1675 C1676 1.398 . S
C1675 C1681 1.491 . S
C1676 H1667 0.950 . S
C1676 C1675 1.398 . S
C1676 C1677 1.391 . S
C1677 H1665 0.950 . S
C1677 C1673 1.393 . S
C1677 C1676 1.391 . S
C1678 H1668 0.950 . S
C1678 C1679 1.386 . S
C1678 C1680 1.391 . S
C1679 C1678 1.386 . S
C1679 C1683 1.393 . S
C1680 H1669 0.950 . S
C1680 C1678 1.391 . S
C1680 C1681 1.400 . S
C1681 C1675 1.491 . S
C1681 C1680 1.400 . S
C1681 C1682 1.398 . S
C1682 H1670 0.950 . S
C1682 C1681 1.398 . S
C1682 C1683 1.391 . S
C1683 H1671 0.950 . S
C1683 C1679 1.393 . S
C1683 C1682 1.391 . S
H1684 C1692 0.950 . S
H1685 C1697 0.950 . S
H1686 C1694 0.950 . S
H1687 C1696 0.950 . S
H1688 C1698 0.950 . S
H1689 C1700 0.950 . S
H1690 C1702 0.950 . S
H1691 C1703 0.950 . S
C1692 H1684 0.950 . S
C1692 C1693 1.386 . S
C1692 C1694 1.391 . S
C1693 C1692 1.386 . S
C1693 C1697 1.393 . S
C1694 H1686 0.950 . S
C1694 C1692 1.391 . S
C1694 C1695 1.400 . S
C1695 C1694 1.400 . S
C1695 C1696 1.398 . S
C1695 C1701 1.491 . S
C1696 H1687 0.950 . S
C1696 C1695 1.398 . S
C1696 C1697 1.391 . S
C1697 H1685 0.950 . S
C1697 C1693 1.393 . S
C1697 C1696 1.391 . S
C1698 H1688 0.950 . S
C1698 C1699 1.386 . S
C1698 C1700 1.391 . S
C1699 C1698 1.386 . S
C1699 C1703 1.393 . S
C1700 H1689 0.950 . S
C1700 C1698 1.391 . S
C1700 C1701 1.400 . S
C1701 C1695 1.491 . S
C1701 C1700 1.400 . S
C1701 C1702 1.398 . S
C1702 H1690 0.950 . S
C1702 C1701 1.398 . S
C1702 C1703 1.391 . S
C1703 H1691 0.950 . S
C1703 C1699 1.393 . S
C1703 C1702 1.391 . S
H1704 C1712 0.950 . S
H1705 C1717 0.950 . S
H1706 C1714 0.950 . S
H1707 C1716 0.950 1_655 S
H1708 C1718 0.950 . S
H1709 C1720 0.950 . S
H1710 C1722 0.950 . S
H1711 C1723 0.950 . S
C1712 H1704 0.950 . S
C1712 C1713 1.386 1_455 S
C1712 C1714 1.391 . S
C1713 C1712 1.386 1_655 S
C1713 C1717 1.393 1_556 S
C1714 H1706 0.950 . S
C1714 C1712 1.391 . S
C1714 C1715 1.400 1_556 S
C1715 C1714 1.400 1_554 S
C1715 C1716 1.396 . S
C1715 C1721 1.491 . S
C1716 H1707 0.950 1_455 S
C1716 C1715 1.396 . S
C1716 C1717 1.392 1_455 S
C1717 H1705 0.950 . S
C1717 C1713 1.393 1_554 S
C1717 C1716 1.392 1_655 S
C1718 H1708 0.950 . S
C1718 C1719 1.386 . S
C1718 C1720 1.391 . S
C1719 C1718 1.386 . S
C1719 C1723 1.393 . S
C1720 H1709 0.950 . S
C1720 C1718 1.391 . S
C1720 C1721 1.400 . S
C1721 C1715 1.491 . S
C1721 C1720 1.400 . S
C1721 C1722 1.398 . S
C1722 H1710 0.950 . S
C1722 C1721 1.398 . S
C1722 C1723 1.391 . S
C1723 H1711 0.950 . S
C1723 C1719 1.393 . S
C1723 C1722 1.391 . S
H1724 C1732 0.950 . S
H1725 C1737 0.950 . S
H1726 C1734 0.950 . S
H1727 C1736 0.950 . S
H1728 C1738 0.950 . S
H1729 C1740 0.950 . S
H1730 C1742 0.950 . S
H1731 C1743 0.950 . S
C1732 H1724 0.950 . S
C1732 C1733 1.386 . S
C1732 C1734 1.391 . S
C1733 C1732 1.386 . S
C1733 C1737 1.393 . S
C1734 H1726 0.950 . S
C1734 C1732 1.391 . S
C1734 C1735 1.400 . S
C1735 C1734 1.400 . S
C1735 C1736 1.398 . S
C1735 C1741 1.491 . S
C1736 H1727 0.950 . S
C1736 C1735 1.398 . S
C1736 C1737 1.391 . S
C1737 H1725 0.950 . S
C1737 C1733 1.393 . S
C1737 C1736 1.391 . S
C1738 H1728 0.950 . S
C1738 C1739 1.386 . S
C1738 C1740 1.391 . S
C1739 C1738 1.386 . S
C1739 C1743 1.393 . S
C1740 H1729 0.950 . S
C1740 C1738 1.391 . S
C1740 C1741 1.400 . S
C1741 C1735 1.491 . S
C1741 C1740 1.400 . S
C1741 C1742 1.398 . S
C1742 H1730 0.950 . S
C1742 C1741 1.398 . S
C1742 C1743 1.391 . S
C1743 H1731 0.950 . S
C1743 C1739 1.393 . S
C1743 C1742 1.391 . S
H1744 C1752 0.950 . S
H1745 C1757 0.950 . S
H1746 C1754 0.950 . S
H1747 C1756 0.950 . S
H1748 C1758 0.950 . S
H1749 C1760 0.950 . S
H1750 C1762 0.950 . S
H1751 C1763 0.950 . S
C1752 H1744 0.950 . S
C1752 C1753 1.386 . S
C1752 C1754 1.391 . S
C1753 C1752 1.386 . S
C1753 C1757 1.393 . S
C1754 H1746 0.950 . S
C1754 C1752 1.391 . S
C1754 C1755 1.400 . S
C1755 C1754 1.400 . S
C1755 C1756 1.398 . S
C1755 C1761 1.491 . S
C1756 H1747 0.950 . S
C1756 C1755 1.398 . S
C1756 C1757 1.391 . S
C1757 H1745 0.950 . S
C1757 C1753 1.393 . S
C1757 C1756 1.391 . S
C1758 H1748 0.950 . S
C1758 C1759 1.386 . S
C1758 C1760 1.391 . S
C1759 C1758 1.386 . S
C1759 C1763 1.393 . S
C1760 H1749 0.950 . S
C1760 C1758 1.391 . S
C1760 C1761 1.400 . S
C1761 C1755 1.491 . S
C1761 C1760 1.400 . S
C1761 C1762 1.398 . S
C1762 H1750 0.950 . S
C1762 C1761 1.398 . S
C1762 C1763 1.391 . S
C1763 H1751 0.950 . S
C1763 C1759 1.393 . S
C1763 C1762 1.391 . S
H1764 C1772 0.950 . S
H1765 C1777 0.950 . S
H1766 C1774 0.950 . S
H1767 C1776 0.950 . S
H1768 C1778 0.950 . S
H1769 C1780 0.950 . S
H1770 C1782 0.950 . S
H1771 C1783 0.950 . S
C1772 H1764 0.950 . S
C1772 C1773 1.386 . S
C1772 C1774 1.391 . S
C1773 C1772 1.386 . S
C1773 C1777 1.393 . S
C1774 H1766 0.950 . S
C1774 C1772 1.391 . S
C1774 C1775 1.400 . S
C1775 C1774 1.400 . S
C1775 C1776 1.398 . S
C1775 C1781 1.491 . S
C1776 H1767 0.950 . S
C1776 C1775 1.398 . S
C1776 C1777 1.391 . S
C1777 H1765 0.950 . S
C1777 C1773 1.393 . S
C1777 C1776 1.391 . S
C1778 H1768 0.950 . S
C1778 C1779 1.386 . S
C1778 C1780 1.391 . S
C1779 C1778 1.386 . S
C1779 C1783 1.393 . S
C1780 H1769 0.950 . S
C1780 C1778 1.391 . S
C1780 C1781 1.400 . S
C1781 C1775 1.491 . S
C1781 C1780 1.400 . S
C1781 C1782 1.398 . S
C1782 H1770 0.950 . S
C1782 C1781 1.398 . S
C1782 C1783 1.391 . S
C1783 H1771 0.950 . S
C1783 C1779 1.393 . S
C1783 C1782 1.391 . S
H1784 C1792 0.950 . S
H1785 C1797 0.950 . S
H1786 C1794 0.950 . S
H1787 C1796 0.950 . S
H1788 C1798 0.950 . S
H1789 C1800 0.950 . S
H1790 C1802 0.950 . S
H1791 C1803 0.950 . S
C1792 H1784 0.950 . S
C1792 C1793 1.386 . S
C1792 C1794 1.391 . S
C1793 C1792 1.386 . S
C1793 C1797 1.393 1_554 S
C1794 H1786 0.950 . S
C1794 C1792 1.391 . S
C1794 C1795 1.400 1_554 S
C1795 C1794 1.400 1_556 S
C1795 C1796 1.398 . S
C1795 C1801 1.491 . S
C1796 H1787 0.950 . S
C1796 C1795 1.398 . S
C1796 C1797 1.391 . S
C1797 H1785 0.950 . S
C1797 C1793 1.393 1_556 S
C1797 C1796 1.391 . S
C1798 H1788 0.950 . S
C1798 C1799 1.386 . S
C1798 C1800 1.391 . S
C1799 C1798 1.386 . S
C1799 C1803 1.393 . S
C1800 H1789 0.950 . S
C1800 C1798 1.391 . S
C1800 C1801 1.400 . S
C1801 C1795 1.491 . S
C1801 C1800 1.400 . S
C1801 C1802 1.398 . S
C1802 H1790 0.950 . S
C1802 C1801 1.398 . S
C1802 C1803 1.391 . S
C1803 H1791 0.950 . S
C1803 C1799 1.393 . S
C1803 C1802 1.391 . S
H1804 C1812 0.950 . S
H1805 C1817 0.950 . S
H1806 C1814 0.950 . S
H1807 C1816 0.950 . S
H1808 C1818 0.950 . S
H1809 C1820 0.950 . S
H1810 C1822 0.950 . S
H1811 C1823 0.950 . S
C1812 H1804 0.950 . S
C1812 C1813 1.386 . S
C1812 C1814 1.391 . S
C1813 C1812 1.386 . S
C1813 C1817 1.393 . S
C1814 H1806 0.950 . S
C1814 C1812 1.391 . S
C1814 C1815 1.400 . S
C1815 C1814 1.400 . S
C1815 C1816 1.398 . S
C1815 C1821 1.491 . S
C1816 H1807 0.950 . S
C1816 C1815 1.398 . S
C1816 C1817 1.391 . S
C1817 H1805 0.950 . S
C1817 C1813 1.393 . S
C1817 C1816 1.391 . S
C1818 H1808 0.950 . S
C1818 C1819 1.386 . S
C1818 C1820 1.391 1_455 S
C1819 C1818 1.386 . S
C1819 C1823 1.393 . S
C1820 H1809 0.950 . S
C1820 C1818 1.391 1_655 S
C1820 C1821 1.400 . S
C1821 C1815 1.491 . S
C1821 C1820 1.400 . S
C1821 C1822 1.398 . S
C1822 H1810 0.950 . S
C1822 C1821 1.398 . S
C1822 C1823 1.391 1_655 S
C1823 H1811 0.950 . S
C1823 C1819 1.393 . S
C1823 C1822 1.391 1_455 S
C873 C328 1.168 . S
C879 C4 1.168 . S
C893 C40 1.191 . S
C899 C364 1.191 . S
C913 C76 1.160 . S
C919 C400 1.160 . S
C933 C112 1.161 . S
C939 C292 1.161 . S
C953 C148 1.161 . S
C959 C544 1.161 . S
C973 C436 1.193 . S
C979 C184 1.192 . S
C993 C220 1.181 . S
C999 C472 1.181 . S
C1013 C508 1.165 . S
C1019 C256 1.165 . S
C1033 C580 1.193 . S
C1039 C652 1.193 . S
C1053 C796 1.164 . S
C1059 C616 1.164 . S
C1073 C688 1.163 . S
C1079 C832 1.163 . S
C1093 C760 1.183 . S
C1099 C724 1.183 . S
C1113 C734 1.653 . S
C1119 C14 1.651 . S
C1133 C50 1.632 . S
C1139 C626 1.633 . S
C1153 C86 1.642 . S
C1159 C662 1.640 . S
C1173 C122 1.651 . S
C1179 C698 1.654 . S
C1193 C158 1.658 . S
C1199 C842 1.660 . S
C1213 C770 1.637 . S
C1219 C194 1.639 . S
C1233 C806 1.634 . S
C1239 C230 1.636 . S
C1253 C590 1.653 . S
C1259 C266 1.655 . S
C1273 C554 1.637 . S
C1279 C302 1.635 . S
C1293 C338 1.632 . S
C1299 C446 1.632 . S
C1313 C482 1.660 . S
C1319 C374 1.659 . S
C1333 C518 1.657 . S
C1339 C410 1.655 . S
C1353 C3 1.066 . S
C1359 C578 1.106 . S
C1373 C830 1.101 . S
C1379 C39 1.082 . S
C1393 C758 1.110 . S
C1399 C75 1.043 . S
C1413 C111 1.081 . S
C1419 C794 1.101 . S
C1433 C147 1.074 . S
C1439 C614 1.104 . S
C1453 C650 1.103 . S
C1459 C183 1.078 . S
C1473 C686 1.110 . S
C1479 C219 1.045 . S
C1493 C722 1.101 . S
C1499 C255 1.083 . S
C1513 C2 1.110 . S
C1519 C291 1.043 . S
C1533 C38 1.109 . S
C1539 C327 1.044 . S
C1553 C74 1.110 . S
C1559 C363 1.043 . S
C1573 C110 1.105 . S
C1579 C399 1.073 . S
C1593 C146 1.107 . S
C1599 C435 1.062 . S
C1613 C182 1.101 . S
C1619 C471 1.082 . S
C1633 C507 1.043 . S
C1639 C218 1.110 . S
C1653 C254 1.106 . S
C1659 C543 1.068 . S
C1673 C290 1.104 . S
C1679 C579 1.061 . S
C1693 C615 1.043 . S
C1699 C434 1.110 . S
C1713 C470 1.109 . S
C1719 C651 1.044 . S
C1733 C687 1.082 . S
C1739 C506 1.101 . S
C1753 C723 1.051 . S
C1759 C542 1.109 . S
C1773 C759 1.048 . S
C1779 C362 1.108 . S
C1793 C398 1.108 . S
C1799 C795 1.047 . S
C1813 C831 1.059 . S
C1819 C326 1.108 . S
