# Generated by pormake.
# Topology hbo, (4)-cn, num edge types: 1
# Building blocks:
#     Node 0, Type 0, BuildingBlock: KUFVIS_clean_sbu_0, # of connection points: 4
#     Node 1, Type 0, BuildingBlock: KUFVIS_clean_sbu_0, # of connection points: 4
#     Node 2, Type 0, BuildingBlock: KUFVIS_clean_sbu_0, # of connection points: 4
#     Node 3, Type 0, BuildingBlock: KUFVIS_clean_sbu_0, # of connection points: 4
#     Node 4, Type 0, BuildingBlock: KUFVIS_clean_sbu_0, # of connection points: 4
#     Node 5, Type 0, BuildingBlock: KUFVIS_clean_sbu_0, # of connection points: 4
#     Node 6, Type 0, BuildingBlock: KUFVIS_clean_sbu_0, # of connection points: 4
#     Node 7, Type 0, BuildingBlock: KUFVIS_clean_sbu_0, # of connection points: 4
#     Node 8, Type 0, BuildingBlock: KUFVIS_clean_sbu_0, # of connection points: 4
#     Node 9, Type 0, BuildingBlock: KUFVIS_clean_sbu_0, # of connection points: 4
#     Node 10, Type 0, BuildingBlock: KUFVIS_clean_sbu_0, # of connection points: 4
#     Node 11, Type 0, BuildingBlock: KUFVIS_clean_sbu_0, # of connection points: 4
#     Node 12, Type 0, BuildingBlock: KUFVIS_clean_sbu_0, # of connection points: 4
#     Node 13, Type 0, BuildingBlock: KUFVIS_clean_sbu_0, # of connection points: 4
#     Node 14, Type 0, BuildingBlock: KUFVIS_clean_sbu_0, # of connection points: 4
#     Node 15, Type 0, BuildingBlock: KUFVIS_clean_sbu_0, # of connection points: 4
#     Node 16, Type 0, BuildingBlock: KUFVIS_clean_sbu_0, # of connection points: 4
#     Node 17, Type 0, BuildingBlock: KUFVIS_clean_sbu_0, # of connection points: 4
#     Node 18, Type 0, BuildingBlock: KUFVIS_clean_sbu_0, # of connection points: 4
#     Node 19, Type 0, BuildingBlock: KUFVIS_clean_sbu_0, # of connection points: 4
#     Node 20, Type 0, BuildingBlock: KUFVIS_clean_sbu_0, # of connection points: 4
#     Node 21, Type 0, BuildingBlock: KUFVIS_clean_sbu_0, # of connection points: 4
#     Node 22, Type 0, BuildingBlock: KUFVIS_clean_sbu_0, # of connection points: 4
#     Node 23, Type 0, BuildingBlock: KUFVIS_clean_sbu_0, # of connection points: 4
#     Edge 24, Type (0, 0), BuildingBlock: OJICUG_clean_linker_0, # of connection points: 2
#     Edge 25, Type (0, 0), BuildingBlock: OJICUG_clean_linker_0, # of connection points: 2
#     Edge 26, Type (0, 0), BuildingBlock: OJICUG_clean_linker_0, # of connection points: 2
#     Edge 27, Type (0, 0), BuildingBlock: OJICUG_clean_linker_0, # of connection points: 2
#     Edge 28, Type (0, 0), BuildingBlock: OJICUG_clean_linker_0, # of connection points: 2
#     Edge 29, Type (0, 0), BuildingBlock: OJICUG_clean_linker_0, # of connection points: 2
#     Edge 30, Type (0, 0), BuildingBlock: OJICUG_clean_linker_0, # of connection points: 2
#     Edge 31, Type (0, 0), BuildingBlock: OJICUG_clean_linker_0, # of connection points: 2
#     Edge 32, Type (0, 0), BuildingBlock: OJICUG_clean_linker_0, # of connection points: 2
#     Edge 33, Type (0, 0), BuildingBlock: OJICUG_clean_linker_0, # of connection points: 2
#     Edge 34, Type (0, 0), BuildingBlock: OJICUG_clean_linker_0, # of connection points: 2
#     Edge 35, Type (0, 0), BuildingBlock: OJICUG_clean_linker_0, # of connection points: 2
#     Edge 36, Type (0, 0), BuildingBlock: OJICUG_clean_linker_0, # of connection points: 2
#     Edge 37, Type (0, 0), BuildingBlock: OJICUG_clean_linker_0, # of connection points: 2
#     Edge 38, Type (0, 0), BuildingBlock: OJICUG_clean_linker_0, # of connection points: 2
#     Edge 39, Type (0, 0), BuildingBlock: OJICUG_clean_linker_0, # of connection points: 2
#     Edge 40, Type (0, 0), BuildingBlock: OJICUG_clean_linker_0, # of connection points: 2
#     Edge 41, Type (0, 0), BuildingBlock: OJICUG_clean_linker_0, # of connection points: 2
#     Edge 42, Type (0, 0), BuildingBlock: OJICUG_clean_linker_0, # of connection points: 2
#     Edge 43, Type (0, 0), BuildingBlock: OJICUG_clean_linker_0, # of connection points: 2
#     Edge 44, Type (0, 0), BuildingBlock: OJICUG_clean_linker_0, # of connection points: 2
#     Edge 45, Type (0, 0), BuildingBlock: OJICUG_clean_linker_0, # of connection points: 2
#     Edge 46, Type (0, 0), BuildingBlock: OJICUG_clean_linker_0, # of connection points: 2
#     Edge 47, Type (0, 0), BuildingBlock: OJICUG_clean_linker_0, # of connection points: 2
#     Edge 48, Type (0, 0), BuildingBlock: OJICUG_clean_linker_0, # of connection points: 2
#     Edge 49, Type (0, 0), BuildingBlock: OJICUG_clean_linker_0, # of connection points: 2
#     Edge 50, Type (0, 0), BuildingBlock: OJICUG_clean_linker_0, # of connection points: 2
#     Edge 51, Type (0, 0), BuildingBlock: OJICUG_clean_linker_0, # of connection points: 2
#     Edge 52, Type (0, 0), BuildingBlock: OJICUG_clean_linker_0, # of connection points: 2
#     Edge 53, Type (0, 0), BuildingBlock: OJICUG_clean_linker_0, # of connection points: 2
#     Edge 54, Type (0, 0), BuildingBlock: OJICUG_clean_linker_0, # of connection points: 2
#     Edge 55, Type (0, 0), BuildingBlock: OJICUG_clean_linker_0, # of connection points: 2
#     Edge 56, Type (0, 0), BuildingBlock: OJICUG_clean_linker_0, # of connection points: 2
#     Edge 57, Type (0, 0), BuildingBlock: OJICUG_clean_linker_0, # of connection points: 2
#     Edge 58, Type (0, 0), BuildingBlock: OJICUG_clean_linker_0, # of connection points: 2
#     Edge 59, Type (0, 0), BuildingBlock: OJICUG_clean_linker_0, # of connection points: 2
#     Edge 60, Type (0, 0), BuildingBlock: OJICUG_clean_linker_0, # of connection points: 2
#     Edge 61, Type (0, 0), BuildingBlock: OJICUG_clean_linker_0, # of connection points: 2
#     Edge 62, Type (0, 0), BuildingBlock: OJICUG_clean_linker_0, # of connection points: 2
#     Edge 63, Type (0, 0), BuildingBlock: OJICUG_clean_linker_0, # of connection points: 2
#     Edge 64, Type (0, 0), BuildingBlock: OJICUG_clean_linker_0, # of connection points: 2
#     Edge 65, Type (0, 0), BuildingBlock: OJICUG_clean_linker_0, # of connection points: 2
#     Edge 66, Type (0, 0), BuildingBlock: OJICUG_clean_linker_0, # of connection points: 2
#     Edge 67, Type (0, 0), BuildingBlock: OJICUG_clean_linker_0, # of connection points: 2
#     Edge 68, Type (0, 0), BuildingBlock: OJICUG_clean_linker_0, # of connection points: 2
#     Edge 69, Type (0, 0), BuildingBlock: OJICUG_clean_linker_0, # of connection points: 2
#     Edge 70, Type (0, 0), BuildingBlock: OJICUG_clean_linker_0, # of connection points: 2
#     Edge 71, Type (0, 0), BuildingBlock: OJICUG_clean_linker_0, # of connection points: 2
# Relax obj value: 0.253
# Max RMSD: 0.306
# Mean RMSD: 0.266
data_MOF--net-hbo--node1-KUFVIS_clean_sbu_0--edge1-OJICUG_clean_linker_0
_symmetry_space_group_name_H-M    P1
_symmetry_Int_Tables_number       1
_symmetry_cell_setting            triclinic
loop_
_symmetry_equiv_pos_as_xyz
'x, y, z'
_cell_length_a     37.527027
_cell_length_b     38.351052
_cell_length_c     38.410973
_cell_angle_alpha  91.275572
_cell_angle_beta   89.853122
_cell_angle_gamma 95.205652
loop_
_atom_site_label
_atom_site_type_symbol
_atom_site_fract_x
_atom_site_fract_y
_atom_site_fract_z
_atom_type_partial_charge
Mn0 Mn 0.13402 0.33408 0.26193 0.0
Mn1 Mn 0.11974 0.34278 0.17623 0.0
C2 C 0.18003 0.33075 0.22258 0.0
C3 C 0.13707 0.29521 0.30759 0.0
C4 C 0.12738 0.40415 0.22775 0.0
O5 O 0.07967 0.32923 0.25908 0.0
O6 O 0.07356 0.33255 0.20081 0.0
C7 C 0.09307 0.26947 0.15914 0.0
N8 N 0.11716 0.29761 0.15392 0.0
C9 C 0.14843 0.26582 0.1106 0.0
C10 C 0.12381 0.23655 0.11534 0.0
C11 C 0.09603 0.23839 0.13974 0.0
C12 C 0.14391 0.29618 0.13043 0.0
H13 H 0.07185 0.27074 0.17805 0.0
C14 C 0.06052 0.32965 0.23164 0.0
O15 O 0.13514 0.32847 0.31401 0.0
O16 O 0.13478 0.28481 0.27547 0.0
N17 N 0.1625 0.35285 0.14967 0.0
C18 C 0.18512 0.38272 0.14972 0.0
C19 C 0.21502 0.38482 0.12755 0.0
C20 C 0.22126 0.35628 0.10551 0.0
C21 C 0.19742 0.32593 0.10572 0.0
C22 C 0.16788 0.32549 0.1281 0.0
H23 H 0.18051 0.40464 0.16677 0.0
O24 O 0.18684 0.33755 0.25513 0.0
O25 O 0.14647 0.32557 0.21424 0.0
O26 O 0.13344 0.38721 0.25519 0.0
O27 O 0.12263 0.38994 0.19748 0.0
C28 C 0.20218 0.29585 0.08509 0.0
C29 C 0.17771 0.26582 0.08754 0.0
H30 H 0.12617 0.21244 0.10064 0.0
H31 H 0.07705 0.21585 0.14368 0.0
H32 H 0.23332 0.40832 0.12757 0.0
H33 H 0.24454 0.35787 0.08869 0.0
H34 H 0.22482 0.29539 0.06758 0.0
H35 H 0.18191 0.2427 0.07189 0.0
Mn36 Mn 0.14777 0.63607 0.72886 0.0
Mn37 Mn 0.11667 0.61124 0.80677 0.0
C38 C 0.18869 0.6279 0.77233 0.0
C39 C 0.16077 0.68368 0.69345 0.0
C40 C 0.11746 0.563 0.74271 0.0
O41 O 0.09497 0.64334 0.72714 0.0
O42 O 0.08229 0.63966 0.78423 0.0
C43 C 0.11604 0.6789 0.84538 0.0
N44 N 0.12647 0.64584 0.84281 0.0
C45 C 0.1519 0.65052 0.90035 0.0
C46 C 0.14146 0.68464 0.90364 0.0
C47 C 0.12369 0.69898 0.87593 0.0
C48 C 0.14426 0.63209 0.869 0.0
H49 H 0.10202 0.68981 0.82428 0.0
C50 C 0.07489 0.64805 0.75321 0.0
O51 O 0.15438 0.65236 0.67979 0.0
O52 O 0.1595 0.68679 0.72698 0.0
N53 N 0.14765 0.58383 0.83176 0.0
C54 C 0.1566 0.55091 0.82406 0.0
C55 C 0.17313 0.53224 0.84938 0.0
C56 C 0.1801 0.54742 0.88251 0.0
C57 C 0.17183 0.58183 0.88955 0.0
C58 C 0.15508 0.59906 0.86329 0.0
H59 H 0.15034 0.53847 0.79917 0.0
O60 O 0.19809 0.62904 0.73982 0.0
O61 O 0.15542 0.63289 0.77845 0.0
O62 O 0.13689 0.58316 0.72301 0.0
O63 O 0.10534 0.57291 0.77211 0.0
C64 C 0.17876 0.59942 0.92178 0.0
C65 C 0.16935 0.63396 0.92698 0.0
H66 H 0.14693 0.70005 0.92732 0.0
H67 H 0.11559 0.7253 0.87826 0.0
H68 H 0.17986 0.50597 0.84345 0.0
H69 H 0.19173 0.5323 0.9023 0.0
H70 H 0.19147 0.58673 0.94273 0.0
H71 H 0.17528 0.64738 0.95169 0.0
Mn72 Mn 0.85711 0.66378 0.26704 0.0
Mn73 Mn 0.89073 0.6546 0.34699 0.0
C74 C 0.85872 0.70958 0.30692 0.0
C75 C 0.80889 0.65812 0.22896 0.0
C76 C 0.93693 0.66488 0.28269 0.0
O77 O 0.85705 0.61162 0.27092 0.0
O78 O 0.87866 0.60696 0.32532 0.0
C79 C 0.82537 0.62264 0.38117 0.0
N80 N 0.85196 0.64916 0.37934 0.0
C81 C 0.8274 0.67992 0.42775 0.0
C82 C 0.79989 0.6528 0.43033 0.0
C83 C 0.79888 0.62404 0.40692 0.0
C84 C 0.85326 0.6769 0.40179 0.0
H85 H 0.82431 0.60066 0.363 0.0
C86 C 0.86665 0.59366 0.29619 0.0
O87 O 0.84158 0.65935 0.2175 0.0
O88 O 0.80435 0.65947 0.26241 0.0
N89 N 0.90314 0.69864 0.37029 0.0
C90 C 0.93038 0.72339 0.3631 0.0
C91 C 0.93461 0.75431 0.38353 0.0
C92 C 0.91081 0.75943 0.41108 0.0
C93 C 0.88307 0.7335 0.41805 0.0
C94 C 0.88042 0.70307 0.39705 0.0
H95 H 0.94855 0.71969 0.34176 0.0
O96 O 0.85735 0.71535 0.2738 0.0
O97 O 0.85949 0.677 0.31541 0.0
O98 O 0.91142 0.66759 0.26136 0.0
O99 O 0.93225 0.66067 0.31535 0.0
C100 C 0.85758 0.73692 0.44462 0.0
C101 C 0.82977 0.71015 0.44947 0.0
H102 H 0.77923 0.65393 0.44997 0.0
H103 H 0.77761 0.60311 0.40862 0.0
H104 H 0.95604 0.77423 0.37793 0.0
H105 H 0.91395 0.78346 0.42657 0.0
H106 H 0.8589 0.76019 0.46124 0.0
H107 H 0.81011 0.71324 0.46974 0.0
Mn108 Mn 0.8389 0.36335 0.71647 0.0
Mn109 Mn 0.8742 0.37908 0.63728 0.0
C110 C 0.83626 0.31885 0.67564 0.0
C111 C 0.79242 0.36495 0.75571 0.0
C112 C 0.91813 0.36075 0.69889 0.0
O113 O 0.84666 0.41558 0.71659 0.0
O114 O 0.87213 0.42429 0.66424 0.0
C115 C 0.81366 0.4156 0.61119 0.0
N116 N 0.83577 0.38945 0.60775 0.0
C117 C 0.80702 0.3686 0.55439 0.0
C118 C 0.78414 0.39547 0.5572 0.0
C119 C 0.78738 0.41897 0.58582 0.0
C120 C 0.83243 0.36633 0.58069 0.0
H121 H 0.81597 0.43373 0.63312 0.0
C122 C 0.86115 0.43545 0.69367 0.0
O123 O 0.82524 0.36474 0.76629 0.0
O124 O 0.7869 0.36527 0.72238 0.0
N125 N 0.87804 0.33925 0.60719 0.0
C126 C 0.90283 0.31545 0.60784 0.0
C127 C 0.90429 0.29107 0.58022 0.0
C128 C 0.88022 0.29137 0.55227 0.0
C129 C 0.85484 0.31593 0.55226 0.0
C130 C 0.85519 0.3401 0.5801 0.0
H131 H 0.92181 0.31552 0.62892 0.0
O132 O 0.83214 0.31266 0.70851 0.0
O133 O 0.83957 0.35186 0.66697 0.0
O134 O 0.89243 0.36012 0.72067 0.0
O135 O 0.91472 0.36732 0.66657 0.0
C136 C 0.82977 0.31788 0.52529 0.0
C137 C 0.80565 0.34402 0.52651 0.0
H138 H 0.76397 0.39826 0.53758 0.0
H139 H 0.76973 0.4397 0.58828 0.0
H140 H 0.92438 0.27257 0.58023 0.0
H141 H 0.88181 0.27314 0.53054 0.0
H142 H 0.82883 0.29945 0.50348 0.0
H143 H 0.78637 0.34518 0.50572 0.0
Mn144 Mn 0.24744 0.13974 0.35696 0.0
Mn145 Mn 0.32651 0.1048 0.36601 0.0
C146 C 0.28531 0.13478 0.30946 0.0
C147 C 0.21179 0.18687 0.35923 0.0
C148 C 0.25646 0.06108 0.355 0.0
O149 O 0.25338 0.14087 0.40949 0.0
O150 O 0.30388 0.11394 0.41133 0.0
C151 C 0.36428 0.1682 0.39926 0.0
N152 N 0.36285 0.14234 0.37426 0.0
C153 C 0.4216 0.16216 0.35353 0.0
C154 C 0.42382 0.18884 0.37919 0.0
C155 C 0.39493 0.19199 0.40202 0.0
C156 C 0.39019 0.13951 0.35179 0.0
H157 H 0.34228 0.17064 0.41702 0.0
C158 C 0.27815 0.12801 0.42619 0.0
O159 O 0.19805 0.1547 0.3614 0.0
O160 O 0.24637 0.19175 0.35654 0.0
N161 N 0.35349 0.09428 0.32547 0.0
C162 C 0.34708 0.06727 0.3021 0.0
C163 C 0.37381 0.05963 0.27829 0.0
C164 C 0.40699 0.07978 0.27887 0.0
C165 C 0.41287 0.10778 0.30274 0.0
C166 C 0.38552 0.11359 0.32639 0.0
H167 H 0.3221 0.05122 0.30217 0.0
O168 O 0.25149 0.13805 0.30535 0.0
O169 O 0.29691 0.13618 0.34148 0.0
O170 O 0.23649 0.08625 0.3571 0.0
O171 O 0.2906 0.06496 0.35674 0.0
C172 C 0.44505 0.12975 0.3044 0.0
C173 C 0.44927 0.15717 0.32956 0.0
H174 H 0.44751 0.2071 0.38153 0.0
H175 H 0.39636 0.21258 0.42183 0.0
H176 H 0.36908 0.03776 0.26012 0.0
H177 H 0.42808 0.07316 0.2614 0.0
H178 H 0.46663 0.12591 0.28633 0.0
H179 H 0.47397 0.17414 0.33037 0.0
Mn180 Mn 0.3642 0.72706 0.83664 0.0
Mn181 Mn 0.36867 0.64425 0.86249 0.0
C182 C 0.31266 0.68898 0.83769 0.0
C183 C 0.36948 0.76763 0.79214 0.0
C184 C 0.37355 0.70787 0.91146 0.0
O185 O 0.4174 0.7205 0.83594 0.0
O186 O 0.41536 0.66215 0.84343 0.0
C187 C 0.37984 0.6066 0.7958 0.0
N188 N 0.36047 0.61053 0.82543 0.0
C189 C 0.32096 0.55929 0.81117 0.0
C190 C 0.34046 0.55464 0.78049 0.0
C191 C 0.36998 0.57845 0.77274 0.0
C192 C 0.33211 0.58775 0.83318 0.0
H193 H 0.40261 0.6248 0.78989 0.0
C194 C 0.43225 0.69185 0.83718 0.0
O195 O 0.37283 0.77749 0.82462 0.0
O196 O 0.36422 0.73425 0.78553 0.0
N197 N 0.32483 0.62398 0.88161 0.0
C198 C 0.3082 0.63296 0.91165 0.0
C199 C 0.27874 0.61144 0.92363 0.0
C200 C 0.26669 0.58108 0.90452 0.0
C201 C 0.28342 0.57301 0.87308 0.0
C202 C 0.3133 0.59486 0.863 0.0
H203 H 0.3178 0.65592 0.92679 0.0
O204 O 0.31086 0.72261 0.83719 0.0
O205 O 0.34468 0.67865 0.8365 0.0
O206 O 0.36522 0.73048 0.88986 0.0
O207 O 0.37733 0.67606 0.90303 0.0
C208 C 0.2719 0.54402 0.85152 0.0
C209 C 0.29054 0.53722 0.82051 0.0
H210 H 0.33288 0.53303 0.76259 0.0
H211 H 0.38512 0.57507 0.74908 0.0
H212 H 0.26574 0.61789 0.94782 0.0
H213 H 0.24503 0.56388 0.91466 0.0
H214 H 0.24876 0.52673 0.85854 0.0
H215 H 0.28125 0.51494 0.80407 0.0
Mn216 Mn 0.73841 0.85738 0.36144 0.0
Mn217 Mn 0.65391 0.88005 0.36949 0.0
C218 C 0.70195 0.85624 0.31282 0.0
C219 C 0.77953 0.81536 0.36332 0.0
C220 C 0.71782 0.93291 0.36111 0.0
O221 O 0.73132 0.85661 0.41373 0.0
O222 O 0.67632 0.87479 0.41544 0.0
C223 C 0.62468 0.81287 0.39953 0.0
N224 N 0.62302 0.83814 0.37536 0.0
C225 C 0.56818 0.80986 0.35192 0.0
C226 C 0.56915 0.78365 0.37668 0.0
C227 C 0.59766 0.78506 0.40046 0.0
C228 C 0.59611 0.83668 0.352 0.0
H229 H 0.64638 0.81393 0.41801 0.0
C230 C 0.70414 0.86546 0.4304 0.0
O231 O 0.78984 0.84854 0.36647 0.0
O232 O 0.74546 0.80676 0.36024 0.0
N233 N 0.62679 0.8862 0.3284 0.0
C234 C 0.62968 0.91365 0.30638 0.0
C235 C 0.60227 0.91724 0.28232 0.0
C236 C 0.57246 0.8923 0.28072 0.0
C237 C 0.57028 0.86402 0.30323 0.0
C238 C 0.59772 0.86254 0.32758 0.0
H239 H 0.65222 0.93317 0.30784 0.0
O240 O 0.73645 0.85755 0.3101 0.0
O241 O 0.689 0.85372 0.34441 0.0
O242 O 0.74161 0.91114 0.36244 0.0
O243 O 0.68417 0.92405 0.36278 0.0
C244 C 0.54151 0.83771 0.30303 0.0
C245 C 0.54065 0.81043 0.32712 0.0
H246 H 0.54824 0.76228 0.3776 0.0
H247 H 0.59868 0.76488 0.41958 0.0
H248 H 0.60369 0.93966 0.26568 0.0
H249 H 0.55094 0.89546 0.26271 0.0
H250 H 0.51995 0.83816 0.28438 0.0
H251 H 0.51859 0.79015 0.32652 0.0
Mn252 Mn 0.62418 0.27646 0.84581 0.0
Mn253 Mn 0.62226 0.36292 0.86236 0.0
C254 C 0.67434 0.31453 0.83758 0.0
C255 C 0.61861 0.23044 0.80455 0.0
C256 C 0.62761 0.30952 0.9191 0.0
O257 O 0.57082 0.28177 0.84842 0.0
O258 O 0.57267 0.34033 0.85726 0.0
C259 C 0.59366 0.3833 0.79477 0.0
N260 N 0.62007 0.3865 0.81919 0.0
C261 C 0.65589 0.42786 0.78451 0.0
C262 C 0.62895 0.4252 0.75912 0.0
C263 C 0.59769 0.40285 0.76429 0.0
C264 C 0.65012 0.40819 0.81461 0.0
H265 H 0.56977 0.36586 0.79846 0.0
C266 C 0.55556 0.31001 0.85293 0.0
O267 O 0.61765 0.22421 0.83774 0.0
O268 O 0.62036 0.26285 0.79581 0.0
N269 N 0.66877 0.38752 0.86744 0.0
C270 C 0.69271 0.38616 0.89388 0.0
C271 C 0.7257 0.40655 0.8924 0.0
C272 C 0.73377 0.42799 0.86373 0.0
C273 C 0.70861 0.42911 0.83696 0.0
C274 C 0.67587 0.4088 0.84021 0.0
H275 H 0.6868 0.36944 0.91579 0.0
O276 O 0.67727 0.28151 0.84169 0.0
O277 O 0.6421 0.32415 0.83823 0.0
O278 O 0.62792 0.28221 0.89931 0.0
O279 O 0.6255 0.34034 0.90762 0.0
C280 C 0.71502 0.44903 0.80684 0.0
C281 C 0.6886 0.44857 0.78073 0.0
H282 H 0.63213 0.43992 0.73539 0.0
H283 H 0.57687 0.4005 0.74472 0.0
H284 H 0.745 0.40549 0.91314 0.0
H285 H 0.75943 0.44332 0.86245 0.0
H286 H 0.74017 0.46485 0.80352 0.0
H287 H 0.69387 0.46396 0.75767 0.0
Mn288 Mn 0.27768 0.84933 0.63805 0.0
Mn289 Mn 0.19359 0.86396 0.61632 0.0
C290 C 0.23376 0.80331 0.63385 0.0
C291 C 0.31919 0.84451 0.68227 0.0
C292 C 0.25514 0.86419 0.56466 0.0
O293 O 0.27724 0.9021 0.64449 0.0
O294 O 0.21875 0.9082 0.6351 0.0
C295 C 0.16385 0.87827 0.68604 0.0
N296 N 0.16278 0.85886 0.65589 0.0
C297 C 0.11173 0.82206 0.67572 0.0
C298 C 0.11215 0.8418 0.70691 0.0
C299 C 0.13834 0.87002 0.71209 0.0
C300 C 0.13756 0.8318 0.65052 0.0
H301 H 0.18413 0.8998 0.69021 0.0
C302 C 0.25061 0.92064 0.64322 0.0
O303 O 0.32965 0.84969 0.65033 0.0
O304 O 0.28529 0.84399 0.68849 0.0
N305 N 0.16675 0.82283 0.598 0.0
C306 C 0.17162 0.80499 0.56753 0.0
C307 C 0.14848 0.77521 0.55894 0.0
C308 C 0.12062 0.7641 0.58176 0.0
C309 C 0.11606 0.78297 0.6129 0.0
C310 C 0.13968 0.81268 0.61987 0.0
H311 H 0.19314 0.81328 0.55001 0.0
O312 O 0.26724 0.79761 0.63219 0.0
O313 O 0.22725 0.83578 0.63844 0.0
O314 O 0.27902 0.85457 0.58504 0.0
O315 O 0.22327 0.86908 0.57415 0.0
C316 C 0.08947 0.77303 0.63764 0.0
C317 C 0.0873 0.79257 0.66902 0.0
H318 H 0.09275 0.83529 0.72722 0.0
H319 H 0.13896 0.88524 0.73618 0.0
H320 H 0.15222 0.76076 0.53489 0.0
H321 H 0.10305 0.7409 0.57522 0.0
H322 H 0.07086 0.75013 0.633 0.0
H323 H 0.06707 0.78437 0.68805 0.0
Mn324 Mn 0.65055 0.74533 0.15067 0.0
Mn325 Mn 0.63251 0.82418 0.12236 0.0
C326 C 0.65045 0.79125 0.18991 0.0
C327 C 0.69258 0.70556 0.15885 0.0
C328 C 0.57475 0.76781 0.14147 0.0
O329 O 0.65321 0.73867 0.09886 0.0
O330 O 0.63855 0.79114 0.08246 0.0
C331 C 0.70426 0.84071 0.09137 0.0
N332 N 0.67775 0.84946 0.11331 0.0
C333 C 0.7113 0.90369 0.12985 0.0
C334 C 0.73887 0.89537 0.1073 0.0
C335 C 0.73539 0.86365 0.08809 0.0
C336 C 0.68113 0.87956 0.13238 0.0
H337 H 0.70172 0.8164 0.07649 0.0
C338 C 0.64639 0.75999 0.0756 0.0
O339 O 0.65865 0.69505 0.15746 0.0
O340 O 0.70172 0.73856 0.15487 0.0
N341 N 0.62597 0.86017 0.15633 0.0
C342 C 0.59585 0.86542 0.17482 0.0
C343 C 0.59377 0.89716 0.19323 0.0
C344 C 0.62288 0.92289 0.19313 0.0
C345 C 0.65345 0.91708 0.17369 0.0
C346 C 0.6534 0.88556 0.15462 0.0
H347 H 0.57311 0.84604 0.1745 0.0
O348 O 0.64839 0.75912 0.19991 0.0
O349 O 0.6553 0.79609 0.15652 0.0
O350 O 0.59579 0.74419 0.14777 0.0
O351 O 0.58553 0.79899 0.13241 0.0
C352 C 0.6834 0.9419 0.17144 0.0
C353 C 0.71249 0.93504 0.1498 0.0
H354 H 0.76281 0.91311 0.10452 0.0
H355 H 0.75658 0.85696 0.07069 0.0
H356 H 0.56935 0.90221 0.20655 0.0
H357 H 0.62106 0.9475 0.20708 0.0
H358 H 0.68423 0.96644 0.18607 0.0
H359 H 0.73541 0.95427 0.14833 0.0
Mn360 Mn 0.71632 0.1524 0.64235 0.0
Mn361 Mn 0.79547 0.12943 0.61172 0.0
C362 C 0.76206 0.19577 0.63123 0.0
C363 C 0.67937 0.16074 0.69056 0.0
C364 C 0.72934 0.13256 0.56668 0.0
O365 O 0.71307 0.09962 0.64922 0.0
O366 O 0.76898 0.08903 0.63406 0.0
C367 C 0.83027 0.11747 0.67895 0.0
N368 N 0.83076 0.13342 0.64762 0.0
C369 C 0.89082 0.15933 0.65714 0.0
C370 C 0.89105 0.14311 0.6895 0.0
C371 C 0.86055 0.12226 0.70053 0.0
C372 C 0.85969 0.15398 0.63701 0.0
H373 H 0.80697 0.10113 0.68729 0.0
C374 C 0.73791 0.0792 0.64579 0.0
O375 O 0.6661 0.15499 0.65952 0.0
O376 O 0.71377 0.16094 0.69358 0.0
N377 N 0.82503 0.16522 0.58904 0.0
C378 C 0.82015 0.17935 0.55737 0.0
C379 C 0.84862 0.1996 0.54183 0.0
C380 C 0.88177 0.20496 0.55892 0.0
C381 C 0.88586 0.19103 0.5919 0.0
C382 C 0.85682 0.17042 0.60574 0.0
H383 H 0.7951 0.17435 0.5436 0.0
O384 O 0.72915 0.20307 0.6347 0.0
O385 O 0.76774 0.16323 0.63647 0.0
O386 O 0.70884 0.14472 0.58964 0.0
O387 O 0.76113 0.12492 0.57284 0.0
C388 C 0.91786 0.1961 0.61124 0.0
C389 C 0.92017 0.18064 0.64406 0.0
H390 H 0.91445 0.14656 0.70611 0.0
H391 H 0.86049 0.10971 0.72549 0.0
H392 H 0.84527 0.21041 0.51642 0.0
H393 H 0.90406 0.21951 0.54631 0.0
H394 H 0.94078 0.21198 0.6012 0.0
H395 H 0.94473 0.1851 0.6589 0.0
Mn396 Mn 0.34265 0.23044 0.15332 0.0
Mn397 Mn 0.36989 0.15541 0.12123 0.0
C398 C 0.35017 0.18613 0.19063 0.0
C399 C 0.29591 0.26429 0.16409 0.0
C400 C 0.42067 0.21923 0.1379 0.0
O401 O 0.33581 0.23484 0.10236 0.0
O402 O 0.35587 0.18501 0.08208 0.0
C403 C 0.29904 0.12628 0.09481 0.0
N404 N 0.32823 0.12331 0.11516 0.0
C405 C 0.30449 0.06654 0.13423 0.0
C406 C 0.27423 0.0689 0.11337 0.0
C407 C 0.27144 0.09898 0.09369 0.0
C408 C 0.33088 0.0948 0.13467 0.0
H409 H 0.29683 0.1493 0.07957 0.0
C410 C 0.34351 0.21463 0.07755 0.0
O411 O 0.32845 0.27883 0.16113 0.0
O412 O 0.29099 0.23054 0.16082 0.0
N413 N 0.38435 0.12359 0.15485 0.0
C414 C 0.41581 0.12502 0.17263 0.0
C415 C 0.42393 0.09607 0.19178 0.0
C416 C 0.39953 0.06607 0.19264 0.0
C417 C 0.36705 0.06543 0.17466 0.0
C418 C 0.36087 0.0947 0.15524 0.0
H419 H 0.43498 0.14772 0.17149 0.0
O420 O 0.3498 0.21829 0.20174 0.0
O421 O 0.34455 0.18053 0.15728 0.0
O422 O 0.3967 0.23913 0.14719 0.0
O423 O 0.41381 0.18723 0.12803 0.0
C424 C 0.34104 0.03652 0.17444 0.0
C425 C 0.30958 0.03723 0.15452 0.0
H426 H 0.253 0.04779 0.11225 0.0
H427 H 0.24813 0.10104 0.07758 0.0
H428 H 0.4492 0.0967 0.2054 0.0
H429 H 0.40619 0.04348 0.20686 0.0
H430 H 0.345 0.01359 0.18943 0.0
H431 H 0.28969 0.01492 0.15466 0.0
Mn432 Mn 0.85273 0.65544 0.73023 0.0
Mn433 Mn 0.87976 0.62395 0.80589 0.0
C434 C 0.81168 0.64422 0.77509 0.0
C435 C 0.84644 0.70425 0.69641 0.0
C436 C 0.86882 0.58024 0.73887 0.0
O437 O 0.90694 0.66316 0.72751 0.0
O438 O 0.92034 0.65025 0.78269 0.0
C439 C 0.89879 0.68965 0.84625 0.0
N440 N 0.88006 0.65762 0.84324 0.0
C441 C 0.85742 0.66218 0.90165 0.0
C442 C 0.87653 0.6952 0.90545 0.0
C443 C 0.89713 0.70909 0.87755 0.0
C444 C 0.85976 0.64426 0.86971 0.0
H445 H 0.91486 0.70021 0.82493 0.0
C446 C 0.92887 0.66212 0.75265 0.0
O447 O 0.84765 0.67331 0.68217 0.0
O448 O 0.84919 0.70673 0.73001 0.0
N449 N 0.84284 0.59801 0.83126 0.0
C450 C 0.82454 0.56673 0.82259 0.0
C451 C 0.80321 0.5489 0.84772 0.0
C452 C 0.80109 0.56338 0.88145 0.0
C453 C 0.81907 0.59622 0.88943 0.0
C454 C 0.84027 0.61253 0.86344 0.0
H455 H 0.82681 0.55507 0.79696 0.0
O456 O 0.80104 0.64715 0.74325 0.0
O457 O 0.84601 0.64896 0.77981 0.0
O458 O 0.85526 0.60293 0.72044 0.0
O459 O 0.8802 0.58664 0.76986 0.0
C460 C 0.81731 0.61317 0.92225 0.0
C461 C 0.83606 0.64636 0.9282 0.0
H462 H 0.87549 0.71018 0.92962 0.0
H463 H 0.91187 0.73459 0.88025 0.0
H464 H 0.78908 0.5237 0.84135 0.0
H465 H 0.78601 0.54875 0.9011 0.0
H466 H 0.80151 0.60105 0.94306 0.0
H467 H 0.834 0.65939 0.95333 0.0
Mn468 Mn 0.845 0.37228 0.27263 0.0
Mn469 Mn 0.86344 0.40147 0.19199 0.0
C470 C 0.79739 0.38076 0.23539 0.0
C471 C 0.83791 0.32375 0.30755 0.0
C472 C 0.86623 0.44844 0.25736 0.0
O473 O 0.89757 0.36505 0.26759 0.0
O474 O 0.90487 0.38046 0.21206 0.0
C475 C 0.86832 0.33088 0.16033 0.0
N476 N 0.85463 0.36259 0.1601 0.0
C477 C 0.81904 0.34563 0.10946 0.0
C478 C 0.83324 0.31305 0.10879 0.0
C479 C 0.85782 0.30557 0.13449 0.0
C480 C 0.83011 0.36959 0.13619 0.0
H481 H 0.88686 0.32478 0.18025 0.0
C482 C 0.91614 0.36784 0.24001 0.0
O483 O 0.84549 0.35479 0.32141 0.0
O484 O 0.83401 0.32136 0.27412 0.0
N485 N 0.82723 0.42235 0.16682 0.0
C486 C 0.81903 0.45624 0.16887 0.0
C487 C 0.79612 0.46867 0.14409 0.0
C488 C 0.78298 0.44657 0.11653 0.0
C489 C 0.79322 0.4124 0.11378 0.0
C490 C 0.81644 0.40162 0.13911 0.0
H491 H 0.83087 0.47403 0.18849 0.0
O492 O 0.79325 0.37922 0.26883 0.0
O493 O 0.82989 0.37717 0.22466 0.0
O494 O 0.85677 0.42483 0.27922 0.0
O495 O 0.87061 0.44264 0.22463 0.0
C496 C 0.78186 0.38885 0.0865 0.0
C497 C 0.79442 0.3553 0.0846 0.0
H498 H 0.82537 0.29354 0.08877 0.0
H499 H 0.86864 0.28035 0.13439 0.0
H500 H 0.78926 0.49547 0.14578 0.0
H501 H 0.76592 0.45645 0.09708 0.0
H502 H 0.76354 0.3963 0.06683 0.0
H503 H 0.78538 0.33733 0.06362 0.0
Mn504 Mn 0.13651 0.34247 0.74043 0.0
Mn505 Mn 0.10134 0.36735 0.81632 0.0
C506 C 0.17267 0.34769 0.78946 0.0
C507 C 0.14317 0.29622 0.70148 0.0
C508 C 0.12097 0.41685 0.75684 0.0
O509 O 0.08335 0.33902 0.73136 0.0
O510 O 0.06206 0.34682 0.78547 0.0
C511 C 0.07516 0.29817 0.84362 0.0
N512 N 0.09555 0.32921 0.84752 0.0
C513 C 0.1131 0.31492 0.90528 0.0
C514 C 0.09222 0.28279 0.90197 0.0
C515 C 0.0733 0.27431 0.87093 0.0
C516 C 0.11419 0.33744 0.87705 0.0
H517 H 0.06042 0.29176 0.81986 0.0
C518 C 0.05763 0.3406 0.75277 0.0
O519 O 0.14566 0.32839 0.69105 0.0
O520 O 0.13701 0.29119 0.73425 0.0
N521 N 0.13588 0.38807 0.84877 0.0
C522 C 0.15572 0.41954 0.84717 0.0
C523 C 0.17556 0.43232 0.87639 0.0
C524 C 0.17445 0.4128 0.90688 0.0
C525 C 0.15486 0.37997 0.90755 0.0
C526 C 0.13526 0.36879 0.87783 0.0
H527 H 0.15579 0.43508 0.82407 0.0
O528 O 0.18639 0.34659 0.75846 0.0
O529 O 0.13781 0.34401 0.79075 0.0
O530 O 0.13724 0.39589 0.7375 0.0
O531 O 0.10642 0.40831 0.78594 0.0
C532 C 0.15359 0.35814 0.93665 0.0
C533 C 0.13302 0.32545 0.93538 0.0
H534 H 0.09059 0.26439 0.92304 0.0
H535 H 0.05718 0.24954 0.86816 0.0
H536 H 0.19119 0.45739 0.87577 0.0
H537 H 0.18822 0.42362 0.92978 0.0
H538 H 0.16851 0.36612 0.96003 0.0
H539 H 0.13259 0.30869 0.95773 0.0
Mn540 Mn 0.15185 0.62662 0.24814 0.0
Mn541 Mn 0.11764 0.60902 0.16887 0.0
C542 C 0.19138 0.62631 0.20154 0.0
C543 C 0.16361 0.67114 0.28925 0.0
C544 C 0.12544 0.55383 0.22393 0.0
O545 O 0.09944 0.63195 0.25449 0.0
O546 O 0.08056 0.6285 0.19919 0.0
C547 C 0.10831 0.68136 0.14754 0.0
N548 N 0.1218 0.65003 0.14125 0.0
C549 C 0.1465 0.66949 0.08641 0.0
C550 C 0.13262 0.70188 0.09214 0.0
C551 C 0.1136 0.70788 0.12293 0.0
C552 C 0.14065 0.6442 0.11202 0.0
H553 H 0.09363 0.68605 0.17116 0.0
C554 C 0.07565 0.63481 0.23162 0.0
O555 O 0.16003 0.63868 0.29898 0.0
O556 O 0.16182 0.6769 0.25638 0.0
N557 N 0.14946 0.59034 0.13579 0.0
C558 C 0.16211 0.55811 0.13473 0.0
C559 C 0.18135 0.54779 0.10541 0.0
C560 C 0.18707 0.57052 0.07735 0.0
C561 C 0.17382 0.60353 0.07899 0.0
C562 C 0.15449 0.61224 0.10871 0.0
H563 H 0.15731 0.54026 0.15591 0.0
O564 O 0.20169 0.62214 0.23327 0.0
O565 O 0.15722 0.62961 0.19825 0.0
O566 O 0.14218 0.57356 0.2468 0.0
O567 O 0.11352 0.56512 0.19544 0.0
C568 C 0.17952 0.62833 0.05256 0.0
C569 C 0.16606 0.66139 0.05637 0.0
H570 H 0.13654 0.72235 0.07317 0.0
H571 H 0.10295 0.73286 0.12763 0.0
H572 H 0.19159 0.5223 0.10436 0.0
H573 H 0.20182 0.56244 0.05475 0.0
H574 H 0.19454 0.6224 0.02938 0.0
H575 H 0.17092 0.68038 0.03605 0.0
Mn576 Mn 0.73733 0.85699 0.64903 0.0
Mn577 Mn 0.65013 0.8702 0.64391 0.0
C578 C 0.70073 0.84817 0.69654 0.0
C579 C 0.78117 0.81799 0.6434 0.0
C580 C 0.70885 0.92933 0.65298 0.0
O581 O 0.72964 0.85861 0.59712 0.0
O582 O 0.67078 0.86623 0.59617 0.0
C583 C 0.62391 0.8012 0.61312 0.0
N584 N 0.62322 0.82556 0.63941 0.0
C585 C 0.58002 0.78855 0.6713 0.0
C586 C 0.5801 0.76318 0.64445 0.0
C587 C 0.60214 0.76955 0.61524 0.0
C588 C 0.602 0.81976 0.66758 0.0
H589 H 0.64104 0.80584 0.59076 0.0
C590 C 0.7007 0.8623 0.58089 0.0
O591 O 0.78983 0.85164 0.6437 0.0
O592 O 0.74753 0.80751 0.64486 0.0
N593 N 0.62727 0.87388 0.6883 0.0
C594 C 0.63152 0.90036 0.7126 0.0
C595 C 0.61201 0.89768 0.74382 0.0
C596 C 0.58832 0.86788 0.74969 0.0
C597 C 0.58418 0.84111 0.72417 0.0
C598 C 0.60405 0.8454 0.69341 0.0
H599 H 0.64992 0.92319 0.70834 0.0
O600 O 0.73506 0.85356 0.70042 0.0
O601 O 0.68895 0.84764 0.66475 0.0
O602 O 0.73513 0.91024 0.65312 0.0
O603 O 0.67619 0.917 0.64958 0.0
C604 C 0.5616 0.81007 0.72832 0.0
C605 C 0.55951 0.78381 0.7019 0.0
H606 H 0.56357 0.7386 0.64612 0.0
H607 H 0.60249 0.75002 0.5945 0.0
H608 H 0.61539 0.91843 0.76341 0.0
H609 H 0.5736 0.86575 0.77396 0.0
H610 H 0.54598 0.80597 0.75187 0.0
H611 H 0.54232 0.75992 0.70554 0.0
Mn612 Mn 0.64587 0.26561 0.13749 0.0
Mn613 Mn 0.61611 0.34527 0.13467 0.0
C614 C 0.68604 0.31437 0.14873 0.0
C615 C 0.65182 0.21836 0.17385 0.0
C616 C 0.63207 0.30175 0.06981 0.0
O617 O 0.59239 0.25503 0.13769 0.0
O618 O 0.5752 0.30944 0.1418 0.0
C619 C 0.59282 0.3497 0.20817 0.0
N620 N 0.61269 0.36336 0.18118 0.0
C621 C 0.63595 0.41273 0.21654 0.0
C622 C 0.61557 0.39933 0.24468 0.0
C623 C 0.59403 0.36759 0.24051 0.0
C624 C 0.63404 0.39347 0.18511 0.0
H625 H 0.57625 0.32529 0.20504 0.0
C626 C 0.56838 0.27616 0.14075 0.0
O627 O 0.65277 0.21401 0.14014 0.0
O628 O 0.64789 0.24944 0.18571 0.0
N629 N 0.65151 0.38355 0.1278 0.0
C630 C 0.6679 0.39383 0.09752 0.0
C631 C 0.68892 0.42603 0.09666 0.0
C632 C 0.69262 0.44747 0.12682 0.0
C633 C 0.67501 0.43666 0.15748 0.0
C634 C 0.65386 0.40463 0.15658 0.0
H635 H 0.66479 0.37773 0.07414 0.0
O636 O 0.69679 0.28437 0.13948 0.0
O637 O 0.65139 0.31472 0.15074 0.0
O638 O 0.64403 0.2758 0.0851 0.0
O639 O 0.62041 0.32793 0.08616 0.0
C640 C 0.67727 0.4566 0.18878 0.0
C641 C 0.65799 0.44449 0.21839 0.0
H642 H 0.61625 0.41318 0.2696 0.0
H643 H 0.57831 0.35701 0.26213 0.0
H644 H 0.70214 0.43434 0.07278 0.0
H645 H 0.70881 0.4723 0.12608 0.0
H646 H 0.6937 0.48131 0.19035 0.0
H647 H 0.66 0.45999 0.24235 0.0
Mn648 Mn 0.24932 0.14374 0.64519 0.0
Mn649 Mn 0.33628 0.12994 0.63809 0.0
C650 C 0.28659 0.15318 0.69228 0.0
C651 C 0.20603 0.18306 0.64073 0.0
C652 C 0.27734 0.07133 0.64712 0.0
O653 O 0.25598 0.14068 0.59323 0.0
O654 O 0.31477 0.13305 0.59092 0.0
C655 C 0.36197 0.19841 0.60872 0.0
N656 N 0.36321 0.17446 0.63425 0.0
C657 C 0.40699 0.21201 0.66631 0.0
C658 C 0.40637 0.23696 0.64023 0.0
C659 C 0.38374 0.23012 0.61133 0.0
C660 C 0.38492 0.18075 0.66215 0.0
H661 H 0.34437 0.19341 0.58662 0.0
C662 C 0.28459 0.13662 0.57636 0.0
O663 O 0.19693 0.14948 0.64064 0.0
O664 O 0.23977 0.19319 0.64204 0.0
N665 N 0.36011 0.12692 0.68178 0.0
C666 C 0.35676 0.10058 0.70513 0.0
C667 C 0.37715 0.10361 0.73583 0.0
C668 C 0.40083 0.13358 0.74215 0.0
C669 C 0.40415 0.16013 0.71752 0.0
C670 C 0.38345 0.15549 0.68721 0.0
H671 H 0.33839 0.07761 0.70055 0.0
O672 O 0.25227 0.14852 0.6966 0.0
O673 O 0.29798 0.15302 0.66033 0.0
O674 O 0.2511 0.09049 0.64823 0.0
O675 O 0.30996 0.08347 0.64317 0.0
C676 C 0.42681 0.19125 0.7221 0.0
C677 C 0.42821 0.21718 0.69652 0.0
H678 H 0.42293 0.26157 0.64227 0.0
H679 H 0.38296 0.24933 0.59119 0.0
H680 H 0.37444 0.083 0.75471 0.0
H681 H 0.41622 0.13599 0.76603 0.0
H682 H 0.44304 0.19564 0.74534 0.0
H683 H 0.4455 0.24112 0.70048 0.0
Mn684 Mn 0.34844 0.75294 0.12866 0.0
Mn685 Mn 0.36869 0.67003 0.11904 0.0
C686 C 0.30227 0.70828 0.12882 0.0
C687 C 0.34404 0.79831 0.16923 0.0
C688 C 0.36894 0.72161 0.05967 0.0
O689 O 0.40214 0.75607 0.13484 0.0
O690 O 0.411 0.6991 0.13816 0.0
C691 C 0.37526 0.65412 0.19363 0.0
N692 N 0.36014 0.64635 0.16189 0.0
C693 C 0.32365 0.59724 0.18467 0.0
C694 C 0.33902 0.60453 0.21757 0.0
C695 C 0.36484 0.63318 0.22209 0.0
C696 C 0.33482 0.61927 0.1574 0.0
H697 H 0.395 0.67622 0.19717 0.0
C698 C 0.42219 0.73163 0.13993 0.0
O699 O 0.34804 0.80504 0.1363 0.0
O700 O 0.3426 0.76596 0.17805 0.0
N701 N 0.33101 0.63812 0.10047 0.0
C702 C 0.31959 0.6341 0.06681 0.0
C703 C 0.29487 0.60573 0.05748 0.0
C704 C 0.28249 0.58157 0.08272 0.0
C705 C 0.29504 0.5859 0.11703 0.0
C706 C 0.32012 0.61434 0.12464 0.0
H707 H 0.3295 0.65219 0.04715 0.0
O708 O 0.29592 0.74047 0.12395 0.0
O709 O 0.33575 0.70381 0.13412 0.0
O710 O 0.35522 0.74655 0.07609 0.0
O711 O 0.37661 0.6933 0.07392 0.0
C712 C 0.28363 0.56315 0.14397 0.0
C713 C 0.29767 0.56903 0.17786 0.0
H714 H 0.33115 0.58836 0.23956 0.0
H715 H 0.37669 0.63909 0.24744 0.0
H716 H 0.28552 0.6024 0.03088 0.0
H717 H 0.26364 0.55961 0.07542 0.0
H718 H 0.26392 0.5412 0.13896 0.0
H719 H 0.28848 0.55154 0.19843 0.0
Mn720 Mn 0.73087 0.15183 0.34481 0.0
Mn721 Mn 0.80882 0.13957 0.38378 0.0
C722 C 0.77175 0.19885 0.35633 0.0
C723 C 0.6999 0.15274 0.29204 0.0
C724 C 0.73824 0.14006 0.4225 0.0
O725 O 0.73301 0.09965 0.34148 0.0
O726 O 0.78733 0.0937 0.36436 0.0
C727 C 0.8504 0.122 0.32131 0.0
N728 N 0.84618 0.14295 0.34982 0.0
C729 C 0.89962 0.17962 0.33617 0.0
C730 C 0.90471 0.15826 0.30679 0.0
C731 C 0.87997 0.12934 0.29933 0.0
C732 C 0.86988 0.17077 0.35733 0.0
H733 H 0.83124 0.09994 0.31534 0.0
C734 C 0.75769 0.08102 0.35057 0.0
O735 O 0.68281 0.14859 0.32142 0.0
O736 O 0.73443 0.1554 0.2935 0.0
N737 N 0.83217 0.18178 0.40369 0.0
C738 C 0.82218 0.20089 0.43181 0.0
C739 C 0.84337 0.23144 0.44205 0.0
C740 C 0.87467 0.24188 0.42345 0.0
C741 C 0.88453 0.22163 0.39476 0.0
C742 C 0.8625 0.19129 0.38592 0.0
H743 H 0.79804 0.19307 0.44607 0.0
O744 O 0.73858 0.20353 0.35023 0.0
O745 O 0.78004 0.16665 0.35431 0.0
O746 O 0.71853 0.14749 0.39704 0.0
O747 O 0.7717 0.13644 0.42003 0.0
C748 C 0.91491 0.23075 0.37413 0.0
C749 C 0.92245 0.20976 0.34486 0.0
H750 H 0.9273 0.16403 0.2896 0.0
H751 H 0.88359 0.11287 0.27658 0.0
H752 H 0.83548 0.24703 0.46408 0.0
H753 H 0.89076 0.26563 0.43127 0.0
H754 H 0.9324 0.2541 0.38028 0.0
H755 H 0.94564 0.21729 0.32896 0.0
Mn756 Mn 0.32935 0.26365 0.86304 0.0
Mn757 Mn 0.34258 0.34181 0.90382 0.0
C758 C 0.28159 0.29812 0.86863 0.0
C759 C 0.3323 0.2295 0.81304 0.0
C760 C 0.33727 0.27227 0.94068 0.0
O761 O 0.38337 0.27323 0.86414 0.0
O762 O 0.38874 0.32919 0.88376 0.0
C763 C 0.36217 0.38893 0.84547 0.0
N764 N 0.34073 0.37998 0.8731 0.0
C765 C 0.311 0.43267 0.86902 0.0
C766 C 0.33264 0.44249 0.84042 0.0
C767 C 0.35818 0.42039 0.82844 0.0
C768 C 0.31564 0.40071 0.88442 0.0
H769 H 0.38227 0.37228 0.83667 0.0
C770 C 0.402 0.30197 0.87113 0.0
O771 O 0.33325 0.21593 0.84364 0.0
O772 O 0.33002 0.26302 0.81154 0.0
N773 N 0.30019 0.35722 0.92435 0.0
C774 C 0.28058 0.34324 0.95138 0.0
C775 C 0.25463 0.36244 0.96718 0.0
C776 C 0.24931 0.39586 0.95516 0.0
C777 C 0.26886 0.40915 0.92642 0.0
C778 C 0.29442 0.38882 0.91181 0.0
H779 H 0.28521 0.31798 0.96135 0.0
O780 O 0.27641 0.26451 0.86317 0.0
O781 O 0.31504 0.31065 0.87044 0.0
O782 O 0.3286 0.25272 0.91445 0.0
O783 O 0.34474 0.30526 0.93881 0.0
C784 C 0.26464 0.44205 0.91215 0.0
C785 C 0.28527 0.45347 0.88314 0.0
H786 H 0.32997 0.46696 0.82753 0.0
H787 H 0.37504 0.4278 0.80643 0.0
H788 H 0.23936 0.35188 0.98909 0.0
H789 H 0.23032 0.41108 0.96845 0.0
H790 H 0.24554 0.45876 0.92315 0.0
H791 H 0.28147 0.47845 0.87213 0.0
Mn792 Mn 0.25454 0.84933 0.34185 0.0
Mn793 Mn 0.17358 0.85133 0.37963 0.0
C794 C 0.21955 0.79795 0.35028 0.0
C795 C 0.28784 0.85345 0.29052 0.0
C796 C 0.24361 0.86 0.41952 0.0
O797 O 0.24485 0.89994 0.34002 0.0
O798 O 0.18888 0.89896 0.36189 0.0
C799 C 0.13 0.86251 0.31747 0.0
N800 N 0.13683 0.84284 0.34534 0.0
C801 C 0.08769 0.80031 0.33074 0.0
C802 C 0.07996 0.82026 0.30201 0.0
C803 C 0.10122 0.85147 0.29535 0.0
C804 C 0.11642 0.81285 0.35212 0.0
H805 H 0.14648 0.88636 0.31212 0.0
C806 C 0.21699 0.91485 0.34842 0.0
O807 O 0.30316 0.85932 0.3207 0.0
O808 O 0.25355 0.84571 0.29038 0.0
N809 N 0.15584 0.80703 0.39785 0.0
C810 C 0.16844 0.78968 0.42515 0.0
C811 C 0.15105 0.75725 0.43445 0.0
C812 C 0.12091 0.74303 0.41563 0.0
C813 C 0.10833 0.76146 0.38773 0.0
C814 C 0.12653 0.79386 0.37992 0.0
H815 H 0.19173 0.80039 0.43956 0.0
O816 O 0.25371 0.79771 0.34507 0.0
O817 O 0.20691 0.82846 0.34946 0.0
O818 O 0.26488 0.85494 0.39427 0.0
O819 O 0.20969 0.85963 0.4165 0.0
C820 C 0.07894 0.74863 0.36693 0.0
C821 C 0.06861 0.76804 0.33846 0.0
H822 H 0.05802 0.81166 0.28468 0.0
H823 H 0.09556 0.86689 0.2731 0.0
H824 H 0.16094 0.74316 0.45598 0.0
H825 H 0.10778 0.71785 0.42266 0.0
H826 H 0.06437 0.72363 0.3723 0.0
H827 H 0.04629 0.75764 0.32237 0.0
Mn828 Mn 0.65723 0.72682 0.85652 0.0
Mn829 Mn 0.63799 0.6455 0.88582 0.0
C830 C 0.70213 0.68935 0.85869 0.0
C831 C 0.65785 0.76517 0.81097 0.0
C832 C 0.64608 0.71076 0.93254 0.0
O833 O 0.60343 0.72046 0.85476 0.0
O834 O 0.594 0.6633 0.86712 0.0
C835 C 0.61771 0.60678 0.82021 0.0
N836 N 0.63843 0.61093 0.84933 0.0
C837 C 0.66489 0.55724 0.83687 0.0
C838 C 0.64384 0.55231 0.80674 0.0
C839 C 0.62034 0.57735 0.79824 0.0
C840 C 0.66169 0.58743 0.85732 0.0
H841 H 0.59923 0.62571 0.81391 0.0
C842 C 0.5832 0.69222 0.85723 0.0
O843 O 0.65677 0.77646 0.84306 0.0
O844 O 0.65882 0.73176 0.80553 0.0
N845 N 0.67821 0.62487 0.90415 0.0
C846 C 0.69727 0.63403 0.93361 0.0
C847 C 0.72116 0.61131 0.94637 0.0
C848 C 0.72502 0.57936 0.92885 0.0
C849 C 0.70605 0.57101 0.89792 0.0
C850 C 0.68249 0.59463 0.88657 0.0
H851 H 0.69363 0.65805 0.94777 0.0
O852 O 0.70947 0.72309 0.85797 0.0
O853 O 0.66826 0.6785 0.85788 0.0
O854 O 0.656 0.73241 0.90911 0.0
O855 O 0.6372 0.67834 0.92617 0.0
C856 C 0.70885 0.53983 0.87836 0.0
C857 C 0.68867 0.53325 0.84761 0.0
H858 H 0.64548 0.5294 0.78999 0.0
H859 H 0.60401 0.57375 0.77504 0.0
H860 H 0.73597 0.61803 0.97009 0.0
H861 H 0.74239 0.56136 0.93966 0.0
H862 H 0.72644 0.52073 0.88665 0.0
H863 H 0.69127 0.50948 0.83262 0.0
C864 C 0.141 0.50012 0.2552 0.0
C865 C 0.12226 0.51548 0.22864 0.0
H866 H 0.15742 0.45247 0.27596 0.0
C867 C 0.10292 0.49361 0.20421 0.0
H868 H 0.15614 0.51625 0.2745 0.0
C869 C 0.10397 0.45754 0.20492 0.0
C870 C 0.1242 0.4422 0.23019 0.0
H871 H 0.08783 0.50434 0.18364 0.0
H872 H 0.08935 0.44165 0.18507 0.0
C873 C 0.14184 0.46366 0.25605 0.0
C874 C 0.98835 0.68401 0.77478 0.0
C875 C 0.96717 0.67057 0.74671 0.0
H876 H 0.03979 0.68751 0.79859 0.0
C877 C 0.98354 0.65717 0.71701 0.0
H878 H 0.97626 0.69491 0.79774 0.0
C879 C 0.02012 0.6528 0.71753 0.0
C880 C 0.04016 0.66174 0.74778 0.0
H881 H 0.96759 0.64661 0.69511 0.0
H882 H 0.03176 0.63936 0.69579 0.0
C883 C 0.02461 0.67953 0.77536 0.0
C884 C 0.83857 0.5043 0.25839 0.0
C885 C 0.86616 0.48493 0.26946 0.0
H886 H 0.81706 0.55395 0.25845 0.0
C887 C 0.89196 0.50029 0.29284 0.0
H888 H 0.81711 0.4923 0.2422 0.0
C889 C 0.8913 0.53552 0.30326 0.0
C890 C 0.86484 0.55549 0.29025 0.0
H891 H 0.91295 0.48536 0.30231 0.0
H892 H 0.91221 0.54747 0.32019 0.0
C893 C 0.83814 0.53933 0.2683 0.0
C894 C 0.01573 0.343 0.70243 0.0
C895 C 0.02104 0.34021 0.73851 0.0
H896 H 0.97928 0.35217 0.66158 0.0
C897 C 0.99172 0.34198 0.76102 0.0
H898 H 0.03776 0.34183 0.68429 0.0
C899 C 0.9583 0.34813 0.748 0.0
C900 C 0.95338 0.35275 0.71212 0.0
H901 H -0.00521 0.33986 0.78891 0.0
H902 H 0.93655 0.35013 0.76631 0.0
C903 C 0.98227 0.34932 0.68939 0.0
C904 C 0.08673 0.46908 0.75555 0.0
C905 C 0.11725 0.45279 0.74536 0.0
H906 H 0.06213 0.51692 0.761 0.0
C907 C 0.14444 0.47203 0.72687 0.0
H908 H 0.06489 0.45463 0.76903 0.0
C909 C 0.14273 0.50801 0.72205 0.0
C910 C 0.11373 0.52489 0.73556 0.0
H911 H 0.16809 0.45994 0.71847 0.0
H912 H 0.16551 0.52305 0.7107 0.0
C913 C 0.08491 0.50467 0.75056 0.0
C914 C 0.00276 0.66343 0.29119 0.0
C915 C 0.97336 0.66247 0.26855 0.0
H916 H 0.05789 0.65564 0.29735 0.0
C917 C 0.97855 0.65513 0.23291 0.0
H918 H -0.00016 0.66935 0.3187 0.0
C919 C 0.01196 0.64693 0.22058 0.0
C920 C 0.04084 0.64601 0.24364 0.0
H921 H 0.95645 0.65415 0.21473 0.0
H922 H 0.01481 0.64032 0.19322 0.0
C923 C 0.03608 0.65535 0.27889 0.0
C924 C 0.87706 0.51751 0.74851 0.0
C925 C 0.86969 0.54381 0.72534 0.0
H926 H 0.88007 0.46302 0.75642 0.0
C927 C 0.86202 0.53438 0.69032 0.0
H928 H 0.88326 0.52355 0.77562 0.0
C929 C 0.86081 0.49917 0.67911 0.0
C930 C 0.86652 0.47301 0.70299 0.0
H931 H 0.85645 0.55405 0.67178 0.0
H932 H 0.85402 0.49227 0.65229 0.0
C933 C 0.87519 0.48265 0.73755 0.0
C934 C 0.9713 0.35014 0.26968 0.0
C935 C 0.95175 0.35427 0.2391 0.0
H936 H 0.02135 0.33867 0.29153 0.0
C937 C 0.96653 0.34524 0.20688 0.0
H938 H 0.96036 0.35646 0.29492 0.0
C939 C 0.00078 0.33423 0.20498 0.0
C940 C 0.02159 0.33263 0.23519 0.0
H941 H 0.9519 0.3473 0.18285 0.0
H942 H 0.01153 0.32868 0.17945 0.0
C943 C 0.00608 0.33962 0.26773 0.0
C944 C 0.31216 0.12589 0.51844 0.0
C945 C 0.28272 0.13527 0.53793 0.0
H946 H 0.3337 0.11618 0.46828 0.0
C947 C 0.25145 0.14263 0.52034 0.0
H948 H 0.33665 0.12005 0.53104 0.0
C949 C 0.24971 0.14047 0.48397 0.0
C950 C 0.27909 0.13062 0.46461 0.0
H951 H 0.22829 0.15005 0.53462 0.0
H952 H 0.22534 0.14622 0.4711 0.0
C953 C 0.31033 0.1235 0.48231 0.0
C954 C 0.39899 0.69835 0.96947 0.0
C955 C 0.37729 0.71736 0.94871 0.0
H956 H 0.41387 0.68542 0.0207 0.0
C957 C 0.35642 0.74186 0.96461 0.0
H958 H 0.41583 0.67973 0.95786 0.0
C959 C 0.35514 0.74508 0.00102 0.0
C960 C 0.37478 0.72386 0.02174 0.0
H961 H 0.33944 0.75682 0.94911 0.0
H962 H 0.33726 0.76257 0.01285 0.0
C963 C 0.39781 0.7016 0.00552 0.0
C964 C 0.73432 0.85767 0.48772 0.0
C965 C 0.7037 0.86428 0.46889 0.0
H966 H 0.7575 0.85187 0.53784 0.0
C967 C 0.67207 0.86966 0.48721 0.0
H968 H 0.75908 0.85334 0.47443 0.0
C969 C 0.67109 0.86871 0.52343 0.0
C970 C 0.70174 0.86247 0.54236 0.0
H971 H 0.64784 0.87457 0.47361 0.0
H972 H 0.64624 0.87309 0.53654 0.0
C973 C 0.73338 0.85685 0.52409 0.0
C974 C 0.6389 0.27357 0.01003 0.0
C975 C 0.63157 0.30259 0.03113 0.0
H976 H 0.64319 0.25265 0.95788 0.0
C977 C 0.62311 0.33326 0.01488 0.0
H978 H 0.64543 0.24949 0.02167 0.0
C979 C 0.62204 0.33511 0.97883 0.0
C980 C 0.62913 0.30626 0.95754 0.0
H981 H 0.61723 0.35624 0.02998 0.0
H982 H 0.61531 0.35938 0.96772 0.0
C983 C 0.63752 0.27534 0.97352 0.0
C984 C 0.24519 0.89453 0.47413 0.0
C985 C 0.2577 0.86675 0.45477 0.0
H986 H 0.23553 0.91577 0.52472 0.0
C987 C 0.27646 0.84191 0.47159 0.0
H988 H 0.23072 0.91398 0.46153 0.0
C989 C 0.27918 0.84289 0.50802 0.0
C990 C 0.26302 0.86863 0.52749 0.0
H991 H 0.28591 0.82006 0.45701 0.0
H992 H 0.29079 0.8218 0.52095 0.0
C993 C 0.24786 0.89549 0.51019 0.0
C994 C 0.64825 0.7716 0.01168 0.0
C995 C 0.64664 0.7477 0.03894 0.0
H996 H 0.64948 0.77871 0.9566 0.0
C997 C 0.64456 0.71163 0.03091 0.0
H998 H 0.64993 0.79955 0.01707 0.0
C999 C 0.6439 0.69969 0.99638 0.0
C1000 C 0.64578 0.72355 0.96907 0.0
H1001 H 0.64303 0.69251 0.05132 0.0
H1002 H 0.64226 0.67172 0.99115 0.0
C1003 C 0.64805 0.75965 0.97707 0.0
C1004 C 0.70752 0.15959 0.51315 0.0
C1005 C 0.71827 0.13006 0.52995 0.0
H1006 H 0.70517 0.18597 0.46445 0.0
C1007 C 0.7272 0.10115 0.50987 0.0
H1008 H 0.70108 0.1824 0.52822 0.0
C1009 C 0.72935 0.10314 0.47379 0.0
C1010 C 0.7227 0.1341 0.45719 0.0
H1011 H 0.73568 0.07818 0.52229 0.0
H1012 H 0.73946 0.08165 0.45911 0.0
C1013 C 0.70985 0.16166 0.47676 0.0
C1014 C 0.34161 0.20622 0.01233 0.0
C1015 C 0.34032 0.22802 0.04209 0.0
H1016 H 0.34128 0.20312 0.95648 0.0
C1017 C 0.33737 0.264 0.03801 0.0
H1018 H 0.34387 0.17841 0.01471 0.0
C1019 C 0.33645 0.27807 0.00512 0.0
C1020 C 0.3379 0.25652 0.97529 0.0
H1021 H 0.33652 0.28172 0.0603 0.0
H1022 H 0.33458 0.30598 0.00317 0.0
C1023 C 0.34009 0.22035 0.9791 0.0
C1024 C 0.50304 0.28339 0.14728 0.0
C1025 C 0.53064 0.26148 0.14161 0.0
H1026 H 0.44671 0.28731 0.15047 0.0
C1027 C 0.52175 0.2255 0.13527 0.0
H1028 H 0.50895 0.31121 0.15231 0.0
C1029 C 0.48608 0.21182 0.134 0.0
C1030 C 0.45846 0.23377 0.13925 0.0
H1031 H 0.54233 0.20785 0.13074 0.0
H1032 H 0.48024 0.18401 0.12884 0.0
C1033 C 0.46733 0.26966 0.14619 0.0
C1034 C 0.52421 0.66112 0.84165 0.0
C1035 C 0.54528 0.69271 0.84788 0.0
H1036 H 0.47213 0.63617 0.83193 0.0
C1037 C 0.52964 0.72455 0.84555 0.0
H1038 H 0.53565 0.6362 0.84238 0.0
C1039 C 0.49298 0.72459 0.83959 0.0
C1040 C 0.47153 0.6928 0.83571 0.0
H1041 H 0.54539 0.74937 0.84976 0.0
H1042 H 0.48126 0.74939 0.83986 0.0
C1043 C 0.48779 0.66116 0.8354 0.0
C1044 C 0.765 0.98393 0.36197 0.0
C1045 C 0.72936 0.97036 0.35624 0.0
H1046 H 0.80223 0.02976 0.36449 0.0
C1047 C 0.70434 0.99304 0.34559 0.0
H1048 H 0.78498 0.96707 0.36999 0.0
C1049 C 0.71429 0.02853 0.34173 0.0
C1050 C 0.74945 0.04256 0.34904 0.0
H1051 H 0.67673 0.98357 0.34064 0.0
H1052 H 0.69384 0.04514 0.33432 0.0
C1053 C 0.77492 0.01979 0.35864 0.0
C1054 C 0.45807 0.27378 0.85589 0.0
C1055 C 0.44102 0.30402 0.86455 0.0
H1056 H 0.50754 0.25182 0.84535 0.0
C1057 C 0.46176 0.33632 0.86744 0.0
H1058 H 0.44287 0.24846 0.85331 0.0
C1059 C 0.49872 0.33827 0.86269 0.0
C1060 C 0.51599 0.30793 0.85508 0.0
H1061 H 0.44954 0.36021 0.87371 0.0
H1062 H 0.51377 0.36362 0.86566 0.0
C1063 C 0.49517 0.27569 0.8513 0.0
C1064 C 0.24262 0.96892 0.32029 0.0
C1065 C 0.2194 0.95315 0.34521 0.0
H1066 H 0.27157 0.01586 0.30346 0.0
C1067 C 0.20369 0.97434 0.37021 0.0
H1068 H 0.2546 0.95329 0.30035 0.0
C1069 C 0.21387 0.01041 0.37217 0.0
C1070 C 0.23978 0.02534 0.34919 0.0
H1071 H 0.18575 0.96276 0.38977 0.0
H1072 H 0.20345 0.02608 0.393 0.0
C1073 C 0.25267 0.00468 0.32228 0.0
C1074 C 0.52163 0.72389 0.1489 0.0
C1075 C 0.5357 0.75874 0.14438 0.0
H1076 H 0.47472 0.68795 0.15144 0.0
C1077 C 0.51197 0.7849 0.14179 0.0
H1078 H 0.53912 0.70311 0.15126 0.0
C1079 C 0.47508 0.77627 0.14215 0.0
C1080 C 0.46097 0.74122 0.14491 0.0
H1081 H 0.5218 0.8121 0.13873 0.0
H1082 H 0.4577 0.79704 0.13903 0.0
C1083 C 0.48465 0.71521 0.14909 0.0
C1084 C 0.68811 0.98976 0.65664 0.0
C1085 C 0.71636 0.96792 0.6555 0.0
H1086 H 0.67266 0.04211 0.65489 0.0
C1087 C 0.75171 0.98341 0.65506 0.0
H1088 H 0.6605 0.97876 0.65745 0.0
C1089 C 0.75861 0.01972 0.65374 0.0
C1090 C 0.73034 0.04146 0.65287 0.0
H1091 H 0.77413 0.96751 0.65455 0.0
H1092 H 0.7862 0.03066 0.65227 0.0
C1093 C 0.69503 0.02615 0.6554 0.0
C1094 C 0.2985 0.01154 0.65212 0.0
C1095 C 0.27 0.03285 0.64968 0.0
H1096 H 0.31482 0.95961 0.65247 0.0
C1097 C 0.23484 0.01686 0.64841 0.0
H1098 H 0.32596 0.02292 0.6536 0.0
C1099 C 0.22845 0.98038 0.64784 0.0
C1100 C 0.25708 0.95907 0.64863 0.0
H1101 H 0.21225 0.03243 0.64678 0.0
H1102 H 0.20104 0.96894 0.64577 0.0
C1103 C 0.29212 0.97512 0.65166 0.0
C1104 C 0.18405 0.27842 0.34744 0.0
C1105 C 0.14982 0.27094 0.33296 0.0
H1106 H 0.23104 0.25732 0.36677 0.0
C1107 C 0.13397 0.23635 0.33318 0.0
H1108 H 0.1972 0.30474 0.34676 0.0
C1109 C 0.15313 0.20926 0.3449 0.0
C1110 C 0.1889 0.21615 0.35564 0.0
H1111 H 0.10789 0.22985 0.3215 0.0
H1112 H 0.14095 0.1826 0.34258 0.0
C1113 C 0.20362 0.25117 0.35836 0.0
C1114 C 0.28201 0.63953 0.80359 0.0
C1115 C 0.28037 0.66566 0.82943 0.0
H1116 H 0.25329 0.60352 0.76848 0.0
C1117 C 0.24679 0.67464 0.84083 0.0
H1118 H 0.30724 0.63459 0.79174 0.0
C1119 C 0.21563 0.65957 0.82464 0.0
C1120 C 0.21742 0.63374 0.79837 0.0
H1121 H 0.24484 0.69589 0.85961 0.0
H1122 H 0.19108 0.67131 0.82975 0.0
C1123 C 0.25086 0.62239 0.7896 0.0
C1124 C 0.81344 0.72696 0.3492 0.0
C1125 C 0.84522 0.73582 0.33084 0.0
H1126 H 0.76783 0.74557 0.37464 0.0
C1127 C 0.85832 0.77117 0.32879 0.0
H1128 H 0.80232 0.69993 0.35036 0.0
C1129 C 0.83863 0.79743 0.34288 0.0
C1130 C 0.80509 0.78859 0.35823 0.0
H1131 H 0.88252 0.77855 0.31426 0.0
H1132 H 0.8481 0.82457 0.3389 0.0
C1133 C 0.79353 0.75312 0.36279 0.0
C1134 C 0.72716 0.36101 0.76751 0.0
C1135 C 0.76217 0.36007 0.77998 0.0
H1136 H 0.67158 0.34677 0.77646 0.0
C1137 C 0.76758 0.3491 0.81408 0.0
H1138 H 0.72221 0.36941 0.74136 0.0
C1139 C 0.73847 0.33631 0.83421 0.0
C1140 C 0.70374 0.33528 0.82077 0.0
H1141 H 0.79433 0.34804 0.82429 0.0
H1142 H 0.74314 0.32572 0.85954 0.0
C1143 C 0.69818 0.34835 0.78765 0.0
C1144 C 0.20678 0.74175 0.62587 0.0
C1145 C 0.20782 0.77432 0.64349 0.0
H1146 H 0.18981 0.68677 0.62762 0.0
C1147 C 0.18933 0.7772 0.67492 0.0
H1148 H 0.2216 0.73899 0.60188 0.0
C1149 C 0.17102 0.74789 0.68925 0.0
C1150 C 0.17191 0.71479 0.67306 0.0
H1151 H 0.19098 0.80169 0.68967 0.0
H1152 H 0.15821 0.75085 0.71433 0.0
C1153 C 0.18858 0.71205 0.64047 0.0
C1154 C 0.75455 0.68857 0.15585 0.0
C1155 C 0.71987 0.68297 0.16963 0.0
H1156 H 0.81031 0.68385 0.16359 0.0
C1157 C 0.71408 0.66258 0.19928 0.0
H1158 H 0.75953 0.70439 0.13301 0.0
C1159 C 0.74323 0.65165 0.21735 0.0
C1160 C 0.77831 0.66033 0.20543 0.0
H1161 H 0.68757 0.65828 0.21052 0.0
H1162 H 0.73851 0.63864 0.2419 0.0
C1163 C 0.78358 0.67689 0.17339 0.0
C1164 C 0.81945 0.22515 0.65362 0.0
C1165 C 0.79036 0.22517 0.63093 0.0
H1166 H 0.85994 0.25568 0.68257 0.0
C1167 C 0.78321 0.25691 0.61576 0.0
H1168 H 0.82392 0.20199 0.66784 0.0
C1169 C 0.80199 0.28854 0.62655 0.0
C1170 C 0.82915 0.28859 0.65155 0.0
H1171 H 0.76037 0.25778 0.5987 0.0
H1172 H 0.79232 0.31289 0.6186 0.0
C1173 C 0.8396 0.25635 0.66266 0.0
C1174 C 0.2026 0.28321 0.18755 0.0
C1175 C 0.20807 0.31742 0.20106 0.0
H1176 H 0.226 0.2401 0.1639 0.0
C1177 C 0.24219 0.33558 0.19955 0.0
H1178 H 0.17678 0.2683 0.18975 0.0
C1179 C 0.27083 0.31921 0.18529 0.0
C1180 C 0.26555 0.28433 0.17314 0.0
H1181 H 0.2469 0.36181 0.21065 0.0
H1182 H 0.29728 0.33309 0.18558 0.0
C1183 C 0.23095 0.26697 0.17322 0.0
C1184 C 0.31356 0.13565 0.21551 0.0
C1185 C 0.34428 0.15938 0.21737 0.0
H1186 H 0.27105 0.10816 0.24412 0.0
C1187 C 0.35977 0.16785 0.25009 0.0
H1188 H 0.30023 0.12967 0.19086 0.0
C1189 C 0.34134 0.15832 0.28042 0.0
C1190 C 0.30905 0.13706 0.27878 0.0
H1191 H 0.38311 0.18663 0.25227 0.0
H1192 H 0.35059 0.17046 0.30482 0.0
C1193 C 0.29629 0.12419 0.24612 0.0
C1194 C 0.37347 0.78375 0.72943 0.0
C1195 C 0.36631 0.79301 0.7642 0.0
H1196 H 0.36545 0.79448 0.67559 0.0
C1197 C 0.3504 0.82414 0.77134 0.0
H1198 H 0.38577 0.75987 0.72328 0.0
C1199 C 0.33809 0.84344 0.74408 0.0
C1200 C 0.34265 0.83256 0.70934 0.0
H1201 H 0.34441 0.83181 0.79788 0.0
H1202 H 0.3227 0.86536 0.75019 0.0
C1203 C 0.36218 0.80372 0.70217 0.0
C1204 C 0.6955 0.86048 0.24867 0.0
C1205 C 0.68065 0.84941 0.28074 0.0
H1206 H 0.69879 0.84904 0.19406 0.0
C1207 C 0.65082 0.82478 0.28058 0.0
H1208 H 0.71926 0.87875 0.24803 0.0
C1209 C 0.63662 0.81084 0.24926 0.0
C1210 C 0.65421 0.81851 0.21759 0.0
H1211 H 0.64081 0.81341 0.30454 0.0
H1212 H 0.61487 0.79025 0.25032 0.0
C1213 C 0.68316 0.84427 0.21743 0.0
C1214 C 0.66874 0.16548 0.75481 0.0
C1215 C 0.65733 0.17064 0.72061 0.0
H1216 H 0.66377 0.17923 0.80895 0.0
C1217 C 0.62772 0.18986 0.71551 0.0
H1218 H 0.69145 0.15067 0.75947 0.0
C1219 C 0.61237 0.20673 0.74377 0.0
C1220 C 0.62558 0.20374 0.77769 0.0
H1221 H 0.61844 0.19438 0.68946 0.0
H1222 H 0.59182 0.2241 0.73881 0.0
C1223 C 0.65264 0.18149 0.78319 0.0
C1224 C 0.83244 0.7975 0.67523 0.0
C1225 C 0.80728 0.79215 0.64827 0.0
H1226 H 0.86447 0.7732 0.71215 0.0
C1227 C 0.80063 0.75855 0.63301 0.0
H1228 H 0.83756 0.82305 0.68775 0.0
C1229 C 0.81642 0.73013 0.64656 0.0
C1230 C 0.83824 0.7348 0.6762 0.0
H1231 H 0.78101 0.75381 0.6124 0.0
H1232 H 0.80887 0.70413 0.63587 0.0
C1233 C 0.84747 0.76891 0.68942 0.0
C1234 C 0.72192 0.31817 0.20226 0.0
C1235 C 0.7101 0.33518 0.17303 0.0
H1236 H 0.76015 0.31879 0.24342 0.0
C1237 C 0.726 0.36858 0.16549 0.0
H1238 H 0.71059 0.29203 0.20848 0.0
C1239 C 0.7519 0.38537 0.18779 0.0
C1240 C 0.76629 0.36683 0.21449 0.0
H1241 H 0.7197 0.38119 0.14192 0.0
H1242 H 0.76111 0.4123 0.18357 0.0
C1243 C 0.75027 0.33343 0.22223 0.0
C1244 C 0.17388 0.27189 0.64998 0.0
C1245 C 0.1506 0.26657 0.67835 0.0
H1246 H 0.20973 0.24848 0.61494 0.0
C1247 C 0.13903 0.23214 0.68777 0.0
H1248 H 0.18308 0.29813 0.6421 0.0
C1249 C 0.15356 0.20364 0.6716 0.0
C1250 C 0.18038 0.20939 0.64639 0.0
H1251 H 0.12071 0.22736 0.70935 0.0
H1252 H 0.14676 0.17767 0.68155 0.0
C1253 C 0.18897 0.24347 0.63433 0.0
C1254 C 0.23564 0.67724 0.19619 0.0
C1255 C 0.21791 0.64713 0.18039 0.0
H1256 H 0.27754 0.71858 0.19262 0.0
C1257 C 0.22858 0.63679 0.14709 0.0
H1258 H 0.2284 0.68579 0.22213 0.0
C1259 C 0.25453 0.65771 0.12884 0.0
C1260 C 0.27374 0.68615 0.14573 0.0
H1261 H 0.21817 0.61219 0.13572 0.0
H1262 H 0.26015 0.6511 0.10209 0.0
C1263 C 0.26378 0.69599 0.1794 0.0
C1264 C 0.81017 0.29217 0.35819 0.0
C1265 C 0.83119 0.29201 0.32798 0.0
H1266 H 0.77433 0.26135 0.39148 0.0
C1267 C 0.83888 0.25996 0.31269 0.0
H1268 H 0.80369 0.31666 0.37015 0.0
C1269 C 0.82233 0.22866 0.32481 0.0
C1270 C 0.79826 0.22895 0.35269 0.0
H1271 H 0.85512 0.25931 0.28935 0.0
H1272 H 0.8256 0.20468 0.31018 0.0
C1273 C 0.79336 0.26067 0.37026 0.0
C1274 C 0.23137 0.36095 0.81859 0.0
C1275 C 0.19658 0.34401 0.81946 0.0
H1276 H 0.28607 0.35862 0.83222 0.0
C1277 C 0.18919 0.3166 0.84272 0.0
H1278 H 0.23809 0.38147 0.80011 0.0
C1279 C 0.21651 0.30502 0.8631 0.0
C1280 C 0.25212 0.31947 0.85933 0.0
H1281 H 0.16335 0.30159 0.84246 0.0
H1282 H 0.21046 0.28213 0.87882 0.0
C1283 C 0.25896 0.34837 0.83774 0.0
C1284 C 0.17162 0.7647 0.31708 0.0
C1285 C 0.19706 0.76526 0.34363 0.0
H1286 H 0.13928 0.73371 0.28063 0.0
C1287 C 0.2067 0.73347 0.35676 0.0
H1288 H 0.16512 0.78871 0.30529 0.0
C1289 C 0.1928 0.70151 0.34163 0.0
C1290 C 0.16955 0.70146 0.31312 0.0
H1291 H 0.22698 0.7335 0.37678 0.0
H1292 H 0.20273 0.6774 0.34998 0.0
C1293 C 0.15738 0.73311 0.30252 0.0
C1294 C 0.79319 0.67057 0.83115 0.0
C1295 C 0.78568 0.64638 0.80368 0.0
H1296 H 0.77248 0.70047 0.87283 0.0
C1297 C 0.75055 0.63101 0.79939 0.0
H1298 H 0.81917 0.68504 0.83335 0.0
C1299 C 0.72298 0.64204 0.82032 0.0
C1300 C 0.73036 0.66753 0.8468 0.0
H1301 H 0.74383 0.61316 0.77765 0.0
H1302 H 0.69576 0.63375 0.81288 0.0
C1303 C 0.76608 0.67999 0.85335 0.0
C1304 C 0.68356 0.84524 0.75871 0.0
C1305 C 0.68025 0.83114 0.72478 0.0
H1306 H 0.6779 0.83534 0.81316 0.0
C1307 C 0.66483 0.79682 0.71933 0.0
H1308 H 0.69604 0.87154 0.7633 0.0
C1309 C 0.65496 0.77602 0.74761 0.0
C1310 C 0.66068 0.78925 0.7817 0.0
H1311 H 0.66303 0.78517 0.69335 0.0
H1312 H 0.64492 0.74896 0.74278 0.0
C1313 C 0.67332 0.82453 0.78709 0.0
C1314 C 0.70084 0.15789 0.22721 0.0
C1315 C 0.68193 0.15941 0.25889 0.0
H1316 H 0.70517 0.17464 0.17423 0.0
C1317 C 0.64869 0.1734 0.25923 0.0
H1318 H 0.7265 0.14704 0.22615 0.0
C1319 C 0.63677 0.1894 0.2296 0.0
C1320 C 0.65745 0.19095 0.19898 0.0
H1321 H 0.63355 0.17499 0.28317 0.0
H1322 H 0.61278 0.20307 0.23148 0.0
C1323 C 0.68854 0.17335 0.19734 0.0
C1324 C 0.3059 0.15277 0.7536 0.0
C1325 C 0.30806 0.16876 0.72116 0.0
H1326 H 0.31344 0.15944 0.80853 0.0
C1327 C 0.32338 0.20331 0.71857 0.0
H1328 H 0.29354 0.12628 0.75598 0.0
C1329 C 0.3341 0.22253 0.74854 0.0
C1330 C 0.32953 0.20733 0.78135 0.0
H1331 H 0.3244 0.21629 0.69377 0.0
H1332 H 0.34379 0.24986 0.74621 0.0
C1333 C 0.3172 0.17177 0.78353 0.0
C1334 C 0.34218 0.83817 0.25826 0.0
C1335 C 0.30825 0.85074 0.25785 0.0
H1336 H 0.3807 0.81152 0.22916 0.0
C1337 C 0.29111 0.85405 0.22569 0.0
H1338 H 0.3559 0.83524 0.28266 0.0
C1339 C 0.30583 0.84139 0.19493 0.0
C1340 C 0.33748 0.82471 0.19615 0.0
H1341 H 0.26495 0.86384 0.2247 0.0
H1342 H 0.29045 0.84105 0.17106 0.0
C1343 C 0.35645 0.82476 0.22764 0.0
loop_
_geom_bond_atom_site_label_1
_geom_bond_atom_site_label_2
_geom_bond_distance
_geom_bond_site_symmetry_2
_ccdc_geom_bond_type
Mn0 O5 2.095 . S
Mn0 O15 2.162 . S
Mn0 O16 2.297 . S
Mn0 O24 2.385 . S
Mn0 O25 2.209 . S
Mn0 O26 2.094 . S
Mn1 O6 2.121 . S
Mn1 N8 2.257 . S
Mn1 N17 2.282 . S
Mn1 O25 2.215 . S
Mn1 O27 2.117 . S
C2 O24 1.234 . S
C2 O25 1.283 . S
C3 O15 1.281 . S
C3 O16 1.236 . S
C4 O26 1.240 . S
C4 O27 1.264 . S
O5 Mn0 2.095 . S
O5 C14 1.250 . S
O6 Mn1 2.121 . S
O6 C14 1.258 . S
C7 N8 1.326 . S
C7 C11 1.460 . S
C7 H13 0.929 . S
N8 Mn1 2.257 . S
N8 C7 1.326 . S
N8 C12 1.362 . S
C9 C10 1.258 . S
C9 C12 1.431 . S
C9 C29 1.449 . S
C10 C9 1.258 . S
C10 C11 1.477 . S
C10 H30 0.931 . S
C11 C7 1.460 . S
C11 C10 1.477 . S
C11 H31 0.930 . S
C12 N8 1.362 . S
C12 C9 1.431 . S
C12 C22 1.476 . S
H13 C7 0.929 . S
C14 O5 1.250 . S
C14 O6 1.258 . S
O15 Mn0 2.162 . S
O15 C3 1.281 . S
O16 Mn0 2.297 . S
O16 C3 1.236 . S
N17 Mn1 2.282 . S
N17 C18 1.328 . S
N17 C22 1.318 . S
C18 N17 1.328 . S
C18 C19 1.457 . S
C18 H23 0.929 . S
C19 C18 1.457 . S
C19 C20 1.291 . S
C19 H32 0.931 . S
C20 C19 1.291 . S
C20 C21 1.373 . S
C20 H33 0.929 . S
C21 C20 1.373 . S
C21 C22 1.396 . S
C21 C28 1.403 . S
C22 C12 1.476 . S
C22 N17 1.318 . S
C22 C21 1.396 . S
H23 C18 0.929 . S
O24 Mn0 2.385 . S
O24 C2 1.234 . S
O25 Mn0 2.209 . S
O25 Mn1 2.215 . S
O25 C2 1.283 . S
O26 Mn0 2.094 . S
O26 C4 1.240 . S
O27 Mn1 2.117 . S
O27 C4 1.264 . S
C28 C21 1.403 . S
C28 C29 1.399 . S
C28 H34 0.929 . S
C29 C9 1.449 . S
C29 C28 1.399 . S
C29 H35 0.930 . S
H30 C10 0.931 . S
H31 C11 0.930 . S
H32 C19 0.931 . S
H33 C20 0.929 . S
H34 C28 0.929 . S
H35 C29 0.930 . S
Mn36 O41 2.095 . S
Mn36 O51 2.162 . S
Mn36 O52 2.297 . S
Mn36 O60 2.385 . S
Mn36 O61 2.209 . S
Mn36 O62 2.094 . S
Mn37 O42 2.121 . S
Mn37 N44 2.257 . S
Mn37 N53 2.282 . S
Mn37 O61 2.215 . S
Mn37 O63 2.117 . S
C38 O60 1.234 . S
C38 O61 1.283 . S
C39 O51 1.281 . S
C39 O52 1.236 . S
C40 O62 1.240 . S
C40 O63 1.264 . S
O41 Mn36 2.095 . S
O41 C50 1.250 . S
O42 Mn37 2.121 . S
O42 C50 1.258 . S
C43 N44 1.326 . S
C43 C47 1.460 . S
C43 H49 0.929 . S
N44 Mn37 2.257 . S
N44 C43 1.326 . S
N44 C48 1.362 . S
C45 C46 1.258 . S
C45 C48 1.431 . S
C45 C65 1.449 . S
C46 C45 1.258 . S
C46 C47 1.477 . S
C46 H66 0.931 . S
C47 C43 1.460 . S
C47 C46 1.477 . S
C47 H67 0.930 . S
C48 N44 1.362 . S
C48 C45 1.431 . S
C48 C58 1.476 . S
H49 C43 0.929 . S
C50 O41 1.250 . S
C50 O42 1.258 . S
O51 Mn36 2.162 . S
O51 C39 1.281 . S
O52 Mn36 2.297 . S
O52 C39 1.236 . S
N53 Mn37 2.282 . S
N53 C54 1.328 . S
N53 C58 1.318 . S
C54 N53 1.328 . S
C54 C55 1.457 . S
C54 H59 0.929 . S
C55 C54 1.457 . S
C55 C56 1.291 . S
C55 H68 0.931 . S
C56 C55 1.291 . S
C56 C57 1.373 . S
C56 H69 0.929 . S
C57 C56 1.373 . S
C57 C58 1.396 . S
C57 C64 1.403 . S
C58 C48 1.476 . S
C58 N53 1.318 . S
C58 C57 1.396 . S
H59 C54 0.929 . S
O60 Mn36 2.385 . S
O60 C38 1.234 . S
O61 Mn36 2.209 . S
O61 Mn37 2.215 . S
O61 C38 1.283 . S
O62 Mn36 2.094 . S
O62 C40 1.240 . S
O63 Mn37 2.117 . S
O63 C40 1.264 . S
C64 C57 1.403 . S
C64 C65 1.399 . S
C64 H70 0.929 . S
C65 C45 1.449 . S
C65 C64 1.399 . S
C65 H71 0.930 . S
H66 C46 0.931 . S
H67 C47 0.930 . S
H68 C55 0.931 . S
H69 C56 0.929 . S
H70 C64 0.929 . S
H71 C65 0.930 . S
Mn72 O77 2.095 . S
Mn72 O87 2.162 . S
Mn72 O88 2.297 . S
Mn72 O96 2.385 . S
Mn72 O97 2.209 . S
Mn72 O98 2.094 . S
Mn73 O78 2.121 . S
Mn73 N80 2.257 . S
Mn73 N89 2.282 . S
Mn73 O97 2.215 . S
Mn73 O99 2.117 . S
C74 O96 1.234 . S
C74 O97 1.283 . S
C75 O87 1.281 . S
C75 O88 1.236 . S
C76 O98 1.240 . S
C76 O99 1.264 . S
O77 Mn72 2.095 . S
O77 C86 1.250 . S
O78 Mn73 2.121 . S
O78 C86 1.258 . S
C79 N80 1.326 . S
C79 C83 1.460 . S
C79 H85 0.929 . S
N80 Mn73 2.257 . S
N80 C79 1.326 . S
N80 C84 1.362 . S
C81 C82 1.258 . S
C81 C84 1.431 . S
C81 C101 1.449 . S
C82 C81 1.258 . S
C82 C83 1.477 . S
C82 H102 0.931 . S
C83 C79 1.460 . S
C83 C82 1.477 . S
C83 H103 0.930 . S
C84 N80 1.362 . S
C84 C81 1.431 . S
C84 C94 1.476 . S
H85 C79 0.929 . S
C86 O77 1.250 . S
C86 O78 1.258 . S
O87 Mn72 2.162 . S
O87 C75 1.281 . S
O88 Mn72 2.297 . S
O88 C75 1.236 . S
N89 Mn73 2.282 . S
N89 C90 1.328 . S
N89 C94 1.318 . S
C90 N89 1.328 . S
C90 C91 1.457 . S
C90 H95 0.929 . S
C91 C90 1.457 . S
C91 C92 1.291 . S
C91 H104 0.931 . S
C92 C91 1.291 . S
C92 C93 1.373 . S
C92 H105 0.929 . S
C93 C92 1.373 . S
C93 C94 1.396 . S
C93 C100 1.403 . S
C94 C84 1.476 . S
C94 N89 1.318 . S
C94 C93 1.396 . S
H95 C90 0.929 . S
O96 Mn72 2.385 . S
O96 C74 1.234 . S
O97 Mn72 2.209 . S
O97 Mn73 2.215 . S
O97 C74 1.283 . S
O98 Mn72 2.094 . S
O98 C76 1.240 . S
O99 Mn73 2.117 . S
O99 C76 1.264 . S
C100 C93 1.403 . S
C100 C101 1.399 . S
C100 H106 0.929 . S
C101 C81 1.449 . S
C101 C100 1.399 . S
C101 H107 0.930 . S
H102 C82 0.931 . S
H103 C83 0.930 . S
H104 C91 0.931 . S
H105 C92 0.929 . S
H106 C100 0.929 . S
H107 C101 0.930 . S
Mn108 O113 2.095 . S
Mn108 O123 2.162 . S
Mn108 O124 2.297 . S
Mn108 O132 2.385 . S
Mn108 O133 2.209 . S
Mn108 O134 2.094 . S
Mn109 O114 2.121 . S
Mn109 N116 2.257 . S
Mn109 N125 2.282 . S
Mn109 O133 2.215 . S
Mn109 O135 2.117 . S
C110 O132 1.234 . S
C110 O133 1.283 . S
C111 O123 1.281 . S
C111 O124 1.236 . S
C112 O134 1.240 . S
C112 O135 1.264 . S
O113 Mn108 2.095 . S
O113 C122 1.250 . S
O114 Mn109 2.121 . S
O114 C122 1.258 . S
C115 N116 1.326 . S
C115 C119 1.460 . S
C115 H121 0.929 . S
N116 Mn109 2.257 . S
N116 C115 1.326 . S
N116 C120 1.362 . S
C117 C118 1.258 . S
C117 C120 1.431 . S
C117 C137 1.449 . S
C118 C117 1.258 . S
C118 C119 1.477 . S
C118 H138 0.931 . S
C119 C115 1.460 . S
C119 C118 1.477 . S
C119 H139 0.930 . S
C120 N116 1.362 . S
C120 C117 1.431 . S
C120 C130 1.476 . S
H121 C115 0.929 . S
C122 O113 1.250 . S
C122 O114 1.258 . S
O123 Mn108 2.162 . S
O123 C111 1.281 . S
O124 Mn108 2.297 . S
O124 C111 1.236 . S
N125 Mn109 2.282 . S
N125 C126 1.328 . S
N125 C130 1.318 . S
C126 N125 1.328 . S
C126 C127 1.457 . S
C126 H131 0.929 . S
C127 C126 1.457 . S
C127 C128 1.291 . S
C127 H140 0.931 . S
C128 C127 1.291 . S
C128 C129 1.373 . S
C128 H141 0.929 . S
C129 C128 1.373 . S
C129 C130 1.396 . S
C129 C136 1.403 . S
C130 C120 1.476 . S
C130 N125 1.318 . S
C130 C129 1.396 . S
H131 C126 0.929 . S
O132 Mn108 2.385 . S
O132 C110 1.234 . S
O133 Mn108 2.209 . S
O133 Mn109 2.215 . S
O133 C110 1.283 . S
O134 Mn108 2.094 . S
O134 C112 1.240 . S
O135 Mn109 2.117 . S
O135 C112 1.264 . S
C136 C129 1.403 . S
C136 C137 1.399 . S
C136 H142 0.929 . S
C137 C117 1.449 . S
C137 C136 1.399 . S
C137 H143 0.930 . S
H138 C118 0.931 . S
H139 C119 0.930 . S
H140 C127 0.931 . S
H141 C128 0.929 . S
H142 C136 0.929 . S
H143 C137 0.930 . S
Mn144 O149 2.095 . S
Mn144 O159 2.162 . S
Mn144 O160 2.297 . S
Mn144 O168 2.385 . S
Mn144 O169 2.209 . S
Mn144 O170 2.094 . S
Mn145 O150 2.121 . S
Mn145 N152 2.257 . S
Mn145 N161 2.282 . S
Mn145 O169 2.215 . S
Mn145 O171 2.117 . S
C146 O168 1.234 . S
C146 O169 1.283 . S
C147 O159 1.281 . S
C147 O160 1.236 . S
C148 O170 1.240 . S
C148 O171 1.264 . S
O149 Mn144 2.095 . S
O149 C158 1.250 . S
O150 Mn145 2.121 . S
O150 C158 1.258 . S
C151 N152 1.326 . S
C151 C155 1.460 . S
C151 H157 0.929 . S
N152 Mn145 2.257 . S
N152 C151 1.326 . S
N152 C156 1.362 . S
C153 C154 1.258 . S
C153 C156 1.431 . S
C153 C173 1.449 . S
C154 C153 1.258 . S
C154 C155 1.477 . S
C154 H174 0.931 . S
C155 C151 1.460 . S
C155 C154 1.477 . S
C155 H175 0.930 . S
C156 N152 1.362 . S
C156 C153 1.431 . S
C156 C166 1.476 . S
H157 C151 0.929 . S
C158 O149 1.250 . S
C158 O150 1.258 . S
O159 Mn144 2.162 . S
O159 C147 1.281 . S
O160 Mn144 2.297 . S
O160 C147 1.236 . S
N161 Mn145 2.282 . S
N161 C162 1.328 . S
N161 C166 1.318 . S
C162 N161 1.328 . S
C162 C163 1.457 . S
C162 H167 0.929 . S
C163 C162 1.457 . S
C163 C164 1.291 . S
C163 H176 0.931 . S
C164 C163 1.291 . S
C164 C165 1.373 . S
C164 H177 0.929 . S
C165 C164 1.373 . S
C165 C166 1.396 . S
C165 C172 1.403 . S
C166 C156 1.476 . S
C166 N161 1.318 . S
C166 C165 1.396 . S
H167 C162 0.929 . S
O168 Mn144 2.385 . S
O168 C146 1.234 . S
O169 Mn144 2.209 . S
O169 Mn145 2.215 . S
O169 C146 1.283 . S
O170 Mn144 2.094 . S
O170 C148 1.240 . S
O171 Mn145 2.117 . S
O171 C148 1.264 . S
C172 C165 1.403 . S
C172 C173 1.399 . S
C172 H178 0.929 . S
C173 C153 1.449 . S
C173 C172 1.399 . S
C173 H179 0.930 . S
H174 C154 0.931 . S
H175 C155 0.930 . S
H176 C163 0.931 . S
H177 C164 0.929 . S
H178 C172 0.929 . S
H179 C173 0.930 . S
Mn180 O185 2.095 . S
Mn180 O195 2.162 . S
Mn180 O196 2.297 . S
Mn180 O204 2.385 . S
Mn180 O205 2.209 . S
Mn180 O206 2.094 . S
Mn181 O186 2.121 . S
Mn181 N188 2.257 . S
Mn181 N197 2.282 . S
Mn181 O205 2.215 . S
Mn181 O207 2.117 . S
C182 O204 1.234 . S
C182 O205 1.283 . S
C183 O195 1.281 . S
C183 O196 1.236 . S
C184 O206 1.240 . S
C184 O207 1.264 . S
O185 Mn180 2.095 . S
O185 C194 1.250 . S
O186 Mn181 2.121 . S
O186 C194 1.258 . S
C187 N188 1.326 . S
C187 C191 1.460 . S
C187 H193 0.929 . S
N188 Mn181 2.257 . S
N188 C187 1.326 . S
N188 C192 1.362 . S
C189 C190 1.258 . S
C189 C192 1.431 . S
C189 C209 1.449 . S
C190 C189 1.258 . S
C190 C191 1.477 . S
C190 H210 0.931 . S
C191 C187 1.460 . S
C191 C190 1.477 . S
C191 H211 0.930 . S
C192 N188 1.362 . S
C192 C189 1.431 . S
C192 C202 1.476 . S
H193 C187 0.929 . S
C194 O185 1.250 . S
C194 O186 1.258 . S
O195 Mn180 2.162 . S
O195 C183 1.281 . S
O196 Mn180 2.297 . S
O196 C183 1.236 . S
N197 Mn181 2.282 . S
N197 C198 1.328 . S
N197 C202 1.318 . S
C198 N197 1.328 . S
C198 C199 1.457 . S
C198 H203 0.929 . S
C199 C198 1.457 . S
C199 C200 1.291 . S
C199 H212 0.931 . S
C200 C199 1.291 . S
C200 C201 1.373 . S
C200 H213 0.929 . S
C201 C200 1.373 . S
C201 C202 1.396 . S
C201 C208 1.403 . S
C202 C192 1.476 . S
C202 N197 1.318 . S
C202 C201 1.396 . S
H203 C198 0.929 . S
O204 Mn180 2.385 . S
O204 C182 1.234 . S
O205 Mn180 2.209 . S
O205 Mn181 2.215 . S
O205 C182 1.283 . S
O206 Mn180 2.094 . S
O206 C184 1.240 . S
O207 Mn181 2.117 . S
O207 C184 1.264 . S
C208 C201 1.403 . S
C208 C209 1.399 . S
C208 H214 0.929 . S
C209 C189 1.449 . S
C209 C208 1.399 . S
C209 H215 0.930 . S
H210 C190 0.931 . S
H211 C191 0.930 . S
H212 C199 0.931 . S
H213 C200 0.929 . S
H214 C208 0.929 . S
H215 C209 0.930 . S
Mn216 O221 2.095 . S
Mn216 O231 2.162 . S
Mn216 O232 2.297 . S
Mn216 O240 2.385 . S
Mn216 O241 2.209 . S
Mn216 O242 2.094 . S
Mn217 O222 2.121 . S
Mn217 N224 2.257 . S
Mn217 N233 2.282 . S
Mn217 O241 2.215 . S
Mn217 O243 2.117 . S
C218 O240 1.234 . S
C218 O241 1.283 . S
C219 O231 1.281 . S
C219 O232 1.236 . S
C220 O242 1.240 . S
C220 O243 1.264 . S
O221 Mn216 2.095 . S
O221 C230 1.250 . S
O222 Mn217 2.121 . S
O222 C230 1.258 . S
C223 N224 1.326 . S
C223 C227 1.460 . S
C223 H229 0.929 . S
N224 Mn217 2.257 . S
N224 C223 1.326 . S
N224 C228 1.362 . S
C225 C226 1.258 . S
C225 C228 1.431 . S
C225 C245 1.449 . S
C226 C225 1.258 . S
C226 C227 1.477 . S
C226 H246 0.931 . S
C227 C223 1.460 . S
C227 C226 1.477 . S
C227 H247 0.930 . S
C228 N224 1.362 . S
C228 C225 1.431 . S
C228 C238 1.476 . S
H229 C223 0.929 . S
C230 O221 1.250 . S
C230 O222 1.258 . S
O231 Mn216 2.162 . S
O231 C219 1.281 . S
O232 Mn216 2.297 . S
O232 C219 1.236 . S
N233 Mn217 2.282 . S
N233 C234 1.328 . S
N233 C238 1.318 . S
C234 N233 1.328 . S
C234 C235 1.457 . S
C234 H239 0.929 . S
C235 C234 1.457 . S
C235 C236 1.291 . S
C235 H248 0.931 . S
C236 C235 1.291 . S
C236 C237 1.373 . S
C236 H249 0.929 . S
C237 C236 1.373 . S
C237 C238 1.396 . S
C237 C244 1.403 . S
C238 C228 1.476 . S
C238 N233 1.318 . S
C238 C237 1.396 . S
H239 C234 0.929 . S
O240 Mn216 2.385 . S
O240 C218 1.234 . S
O241 Mn216 2.209 . S
O241 Mn217 2.215 . S
O241 C218 1.283 . S
O242 Mn216 2.094 . S
O242 C220 1.240 . S
O243 Mn217 2.117 . S
O243 C220 1.264 . S
C244 C237 1.403 . S
C244 C245 1.399 . S
C244 H250 0.929 . S
C245 C225 1.449 . S
C245 C244 1.399 . S
C245 H251 0.930 . S
H246 C226 0.931 . S
H247 C227 0.930 . S
H248 C235 0.931 . S
H249 C236 0.929 . S
H250 C244 0.929 . S
H251 C245 0.930 . S
Mn252 O257 2.095 . S
Mn252 O267 2.162 . S
Mn252 O268 2.297 . S
Mn252 O276 2.385 . S
Mn252 O277 2.209 . S
Mn252 O278 2.094 . S
Mn253 O258 2.121 . S
Mn253 N260 2.257 . S
Mn253 N269 2.282 . S
Mn253 O277 2.215 . S
Mn253 O279 2.117 . S
C254 O276 1.234 . S
C254 O277 1.283 . S
C255 O267 1.281 . S
C255 O268 1.236 . S
C256 O278 1.240 . S
C256 O279 1.264 . S
O257 Mn252 2.095 . S
O257 C266 1.250 . S
O258 Mn253 2.121 . S
O258 C266 1.258 . S
C259 N260 1.326 . S
C259 C263 1.460 . S
C259 H265 0.929 . S
N260 Mn253 2.257 . S
N260 C259 1.326 . S
N260 C264 1.362 . S
C261 C262 1.258 . S
C261 C264 1.431 . S
C261 C281 1.449 . S
C262 C261 1.258 . S
C262 C263 1.477 . S
C262 H282 0.931 . S
C263 C259 1.460 . S
C263 C262 1.477 . S
C263 H283 0.930 . S
C264 N260 1.362 . S
C264 C261 1.431 . S
C264 C274 1.476 . S
H265 C259 0.929 . S
C266 O257 1.250 . S
C266 O258 1.258 . S
O267 Mn252 2.162 . S
O267 C255 1.281 . S
O268 Mn252 2.297 . S
O268 C255 1.236 . S
N269 Mn253 2.282 . S
N269 C270 1.328 . S
N269 C274 1.318 . S
C270 N269 1.328 . S
C270 C271 1.457 . S
C270 H275 0.929 . S
C271 C270 1.457 . S
C271 C272 1.291 . S
C271 H284 0.931 . S
C272 C271 1.291 . S
C272 C273 1.373 . S
C272 H285 0.929 . S
C273 C272 1.373 . S
C273 C274 1.396 . S
C273 C280 1.403 . S
C274 C264 1.476 . S
C274 N269 1.318 . S
C274 C273 1.396 . S
H275 C270 0.929 . S
O276 Mn252 2.385 . S
O276 C254 1.234 . S
O277 Mn252 2.209 . S
O277 Mn253 2.215 . S
O277 C254 1.283 . S
O278 Mn252 2.094 . S
O278 C256 1.240 . S
O279 Mn253 2.117 . S
O279 C256 1.264 . S
C280 C273 1.403 . S
C280 C281 1.399 . S
C280 H286 0.929 . S
C281 C261 1.449 . S
C281 C280 1.399 . S
C281 H287 0.930 . S
H282 C262 0.931 . S
H283 C263 0.930 . S
H284 C271 0.931 . S
H285 C272 0.929 . S
H286 C280 0.929 . S
H287 C281 0.930 . S
Mn288 O293 2.095 . S
Mn288 O303 2.162 . S
Mn288 O304 2.297 . S
Mn288 O312 2.385 . S
Mn288 O313 2.209 . S
Mn288 O314 2.094 . S
Mn289 O294 2.121 . S
Mn289 N296 2.257 . S
Mn289 N305 2.282 . S
Mn289 O313 2.215 . S
Mn289 O315 2.117 . S
C290 O312 1.234 . S
C290 O313 1.283 . S
C291 O303 1.281 . S
C291 O304 1.236 . S
C292 O314 1.240 . S
C292 O315 1.264 . S
O293 Mn288 2.095 . S
O293 C302 1.250 . S
O294 Mn289 2.121 . S
O294 C302 1.258 . S
C295 N296 1.326 . S
C295 C299 1.460 . S
C295 H301 0.929 . S
N296 Mn289 2.257 . S
N296 C295 1.326 . S
N296 C300 1.362 . S
C297 C298 1.258 . S
C297 C300 1.431 . S
C297 C317 1.449 . S
C298 C297 1.258 . S
C298 C299 1.477 . S
C298 H318 0.931 . S
C299 C295 1.460 . S
C299 C298 1.477 . S
C299 H319 0.930 . S
C300 N296 1.362 . S
C300 C297 1.431 . S
C300 C310 1.476 . S
H301 C295 0.929 . S
C302 O293 1.250 . S
C302 O294 1.258 . S
O303 Mn288 2.162 . S
O303 C291 1.281 . S
O304 Mn288 2.297 . S
O304 C291 1.236 . S
N305 Mn289 2.282 . S
N305 C306 1.328 . S
N305 C310 1.318 . S
C306 N305 1.328 . S
C306 C307 1.457 . S
C306 H311 0.929 . S
C307 C306 1.457 . S
C307 C308 1.291 . S
C307 H320 0.931 . S
C308 C307 1.291 . S
C308 C309 1.373 . S
C308 H321 0.929 . S
C309 C308 1.373 . S
C309 C310 1.396 . S
C309 C316 1.403 . S
C310 C300 1.476 . S
C310 N305 1.318 . S
C310 C309 1.396 . S
H311 C306 0.929 . S
O312 Mn288 2.385 . S
O312 C290 1.234 . S
O313 Mn288 2.209 . S
O313 Mn289 2.215 . S
O313 C290 1.283 . S
O314 Mn288 2.094 . S
O314 C292 1.240 . S
O315 Mn289 2.117 . S
O315 C292 1.264 . S
C316 C309 1.403 . S
C316 C317 1.399 . S
C316 H322 0.929 . S
C317 C297 1.449 . S
C317 C316 1.399 . S
C317 H323 0.930 . S
H318 C298 0.931 . S
H319 C299 0.930 . S
H320 C307 0.931 . S
H321 C308 0.929 . S
H322 C316 0.929 . S
H323 C317 0.930 . S
Mn324 O329 2.095 . S
Mn324 O339 2.162 . S
Mn324 O340 2.297 . S
Mn324 O348 2.385 . S
Mn324 O349 2.209 . S
Mn324 O350 2.094 . S
Mn325 O330 2.121 . S
Mn325 N332 2.257 . S
Mn325 N341 2.282 . S
Mn325 O349 2.215 . S
Mn325 O351 2.117 . S
C326 O348 1.234 . S
C326 O349 1.283 . S
C327 O339 1.281 . S
C327 O340 1.236 . S
C328 O350 1.240 . S
C328 O351 1.264 . S
O329 Mn324 2.095 . S
O329 C338 1.250 . S
O330 Mn325 2.121 . S
O330 C338 1.258 . S
C331 N332 1.326 . S
C331 C335 1.460 . S
C331 H337 0.929 . S
N332 Mn325 2.257 . S
N332 C331 1.326 . S
N332 C336 1.362 . S
C333 C334 1.258 . S
C333 C336 1.431 . S
C333 C353 1.449 . S
C334 C333 1.258 . S
C334 C335 1.477 . S
C334 H354 0.931 . S
C335 C331 1.460 . S
C335 C334 1.477 . S
C335 H355 0.930 . S
C336 N332 1.362 . S
C336 C333 1.431 . S
C336 C346 1.476 . S
H337 C331 0.929 . S
C338 O329 1.250 . S
C338 O330 1.258 . S
O339 Mn324 2.162 . S
O339 C327 1.281 . S
O340 Mn324 2.297 . S
O340 C327 1.236 . S
N341 Mn325 2.282 . S
N341 C342 1.328 . S
N341 C346 1.318 . S
C342 N341 1.328 . S
C342 C343 1.457 . S
C342 H347 0.929 . S
C343 C342 1.457 . S
C343 C344 1.291 . S
C343 H356 0.931 . S
C344 C343 1.291 . S
C344 C345 1.373 . S
C344 H357 0.929 . S
C345 C344 1.373 . S
C345 C346 1.396 . S
C345 C352 1.403 . S
C346 C336 1.476 . S
C346 N341 1.318 . S
C346 C345 1.396 . S
H347 C342 0.929 . S
O348 Mn324 2.385 . S
O348 C326 1.234 . S
O349 Mn324 2.209 . S
O349 Mn325 2.215 . S
O349 C326 1.283 . S
O350 Mn324 2.094 . S
O350 C328 1.240 . S
O351 Mn325 2.117 . S
O351 C328 1.264 . S
C352 C345 1.403 . S
C352 C353 1.399 . S
C352 H358 0.929 . S
C353 C333 1.449 . S
C353 C352 1.399 . S
C353 H359 0.930 . S
H354 C334 0.931 . S
H355 C335 0.930 . S
H356 C343 0.931 . S
H357 C344 0.929 . S
H358 C352 0.929 . S
H359 C353 0.930 . S
Mn360 O365 2.095 . S
Mn360 O375 2.162 . S
Mn360 O376 2.297 . S
Mn360 O384 2.385 . S
Mn360 O385 2.209 . S
Mn360 O386 2.094 . S
Mn361 O366 2.121 . S
Mn361 N368 2.257 . S
Mn361 N377 2.282 . S
Mn361 O385 2.215 . S
Mn361 O387 2.117 . S
C362 O384 1.234 . S
C362 O385 1.283 . S
C363 O375 1.281 . S
C363 O376 1.236 . S
C364 O386 1.240 . S
C364 O387 1.264 . S
O365 Mn360 2.095 . S
O365 C374 1.250 . S
O366 Mn361 2.121 . S
O366 C374 1.258 . S
C367 N368 1.326 . S
C367 C371 1.460 . S
C367 H373 0.929 . S
N368 Mn361 2.257 . S
N368 C367 1.326 . S
N368 C372 1.362 . S
C369 C370 1.258 . S
C369 C372 1.431 . S
C369 C389 1.449 . S
C370 C369 1.258 . S
C370 C371 1.477 . S
C370 H390 0.931 . S
C371 C367 1.460 . S
C371 C370 1.477 . S
C371 H391 0.930 . S
C372 N368 1.362 . S
C372 C369 1.431 . S
C372 C382 1.476 . S
H373 C367 0.929 . S
C374 O365 1.250 . S
C374 O366 1.258 . S
O375 Mn360 2.162 . S
O375 C363 1.281 . S
O376 Mn360 2.297 . S
O376 C363 1.236 . S
N377 Mn361 2.282 . S
N377 C378 1.328 . S
N377 C382 1.318 . S
C378 N377 1.328 . S
C378 C379 1.457 . S
C378 H383 0.929 . S
C379 C378 1.457 . S
C379 C380 1.291 . S
C379 H392 0.931 . S
C380 C379 1.291 . S
C380 C381 1.373 . S
C380 H393 0.929 . S
C381 C380 1.373 . S
C381 C382 1.396 . S
C381 C388 1.403 . S
C382 C372 1.476 . S
C382 N377 1.318 . S
C382 C381 1.396 . S
H383 C378 0.929 . S
O384 Mn360 2.385 . S
O384 C362 1.234 . S
O385 Mn360 2.209 . S
O385 Mn361 2.215 . S
O385 C362 1.283 . S
O386 Mn360 2.094 . S
O386 C364 1.240 . S
O387 Mn361 2.117 . S
O387 C364 1.264 . S
C388 C381 1.403 . S
C388 C389 1.399 . S
C388 H394 0.929 . S
C389 C369 1.449 . S
C389 C388 1.399 . S
C389 H395 0.930 . S
H390 C370 0.931 . S
H391 C371 0.930 . S
H392 C379 0.931 . S
H393 C380 0.929 . S
H394 C388 0.929 . S
H395 C389 0.930 . S
Mn396 O401 2.095 . S
Mn396 O411 2.162 . S
Mn396 O412 2.297 . S
Mn396 O420 2.385 . S
Mn396 O421 2.209 . S
Mn396 O422 2.094 . S
Mn397 O402 2.121 . S
Mn397 N404 2.257 . S
Mn397 N413 2.282 . S
Mn397 O421 2.215 . S
Mn397 O423 2.117 . S
C398 O420 1.234 . S
C398 O421 1.283 . S
C399 O411 1.281 . S
C399 O412 1.236 . S
C400 O422 1.240 . S
C400 O423 1.264 . S
O401 Mn396 2.095 . S
O401 C410 1.250 . S
O402 Mn397 2.121 . S
O402 C410 1.258 . S
C403 N404 1.326 . S
C403 C407 1.460 . S
C403 H409 0.929 . S
N404 Mn397 2.257 . S
N404 C403 1.326 . S
N404 C408 1.362 . S
C405 C406 1.258 . S
C405 C408 1.431 . S
C405 C425 1.449 . S
C406 C405 1.258 . S
C406 C407 1.477 . S
C406 H426 0.931 . S
C407 C403 1.460 . S
C407 C406 1.477 . S
C407 H427 0.930 . S
C408 N404 1.362 . S
C408 C405 1.431 . S
C408 C418 1.476 . S
H409 C403 0.929 . S
C410 O401 1.250 . S
C410 O402 1.258 . S
O411 Mn396 2.162 . S
O411 C399 1.281 . S
O412 Mn396 2.297 . S
O412 C399 1.236 . S
N413 Mn397 2.282 . S
N413 C414 1.328 . S
N413 C418 1.318 . S
C414 N413 1.328 . S
C414 C415 1.457 . S
C414 H419 0.929 . S
C415 C414 1.457 . S
C415 C416 1.291 . S
C415 H428 0.931 . S
C416 C415 1.291 . S
C416 C417 1.373 . S
C416 H429 0.929 . S
C417 C416 1.373 . S
C417 C418 1.396 . S
C417 C424 1.403 . S
C418 C408 1.476 . S
C418 N413 1.318 . S
C418 C417 1.396 . S
H419 C414 0.929 . S
O420 Mn396 2.385 . S
O420 C398 1.234 . S
O421 Mn396 2.209 . S
O421 Mn397 2.215 . S
O421 C398 1.283 . S
O422 Mn396 2.094 . S
O422 C400 1.240 . S
O423 Mn397 2.117 . S
O423 C400 1.264 . S
C424 C417 1.403 . S
C424 C425 1.399 . S
C424 H430 0.929 . S
C425 C405 1.449 . S
C425 C424 1.399 . S
C425 H431 0.930 . S
H426 C406 0.931 . S
H427 C407 0.930 . S
H428 C415 0.931 . S
H429 C416 0.929 . S
H430 C424 0.929 . S
H431 C425 0.930 . S
Mn432 O437 2.095 . S
Mn432 O447 2.162 . S
Mn432 O448 2.297 . S
Mn432 O456 2.385 . S
Mn432 O457 2.209 . S
Mn432 O458 2.094 . S
Mn433 O438 2.121 . S
Mn433 N440 2.257 . S
Mn433 N449 2.282 . S
Mn433 O457 2.215 . S
Mn433 O459 2.117 . S
C434 O456 1.234 . S
C434 O457 1.283 . S
C435 O447 1.281 . S
C435 O448 1.236 . S
C436 O458 1.240 . S
C436 O459 1.264 . S
O437 Mn432 2.095 . S
O437 C446 1.250 . S
O438 Mn433 2.121 . S
O438 C446 1.258 . S
C439 N440 1.326 . S
C439 C443 1.460 . S
C439 H445 0.929 . S
N440 Mn433 2.257 . S
N440 C439 1.326 . S
N440 C444 1.362 . S
C441 C442 1.258 . S
C441 C444 1.431 . S
C441 C461 1.449 . S
C442 C441 1.258 . S
C442 C443 1.477 . S
C442 H462 0.931 . S
C443 C439 1.460 . S
C443 C442 1.477 . S
C443 H463 0.930 . S
C444 N440 1.362 . S
C444 C441 1.431 . S
C444 C454 1.476 . S
H445 C439 0.929 . S
C446 O437 1.250 . S
C446 O438 1.258 . S
O447 Mn432 2.162 . S
O447 C435 1.281 . S
O448 Mn432 2.297 . S
O448 C435 1.236 . S
N449 Mn433 2.282 . S
N449 C450 1.328 . S
N449 C454 1.318 . S
C450 N449 1.328 . S
C450 C451 1.457 . S
C450 H455 0.929 . S
C451 C450 1.457 . S
C451 C452 1.291 . S
C451 H464 0.931 . S
C452 C451 1.291 . S
C452 C453 1.373 . S
C452 H465 0.929 . S
C453 C452 1.373 . S
C453 C454 1.396 . S
C453 C460 1.403 . S
C454 C444 1.476 . S
C454 N449 1.318 . S
C454 C453 1.396 . S
H455 C450 0.929 . S
O456 Mn432 2.385 . S
O456 C434 1.234 . S
O457 Mn432 2.209 . S
O457 Mn433 2.215 . S
O457 C434 1.283 . S
O458 Mn432 2.094 . S
O458 C436 1.240 . S
O459 Mn433 2.117 . S
O459 C436 1.264 . S
C460 C453 1.403 . S
C460 C461 1.399 . S
C460 H466 0.929 . S
C461 C441 1.449 . S
C461 C460 1.399 . S
C461 H467 0.930 . S
H462 C442 0.931 . S
H463 C443 0.930 . S
H464 C451 0.931 . S
H465 C452 0.929 . S
H466 C460 0.929 . S
H467 C461 0.930 . S
Mn468 O473 2.095 . S
Mn468 O483 2.162 . S
Mn468 O484 2.297 . S
Mn468 O492 2.385 . S
Mn468 O493 2.209 . S
Mn468 O494 2.094 . S
Mn469 O474 2.121 . S
Mn469 N476 2.257 . S
Mn469 N485 2.282 . S
Mn469 O493 2.215 . S
Mn469 O495 2.117 . S
C470 O492 1.234 . S
C470 O493 1.283 . S
C471 O483 1.281 . S
C471 O484 1.236 . S
C472 O494 1.240 . S
C472 O495 1.264 . S
O473 Mn468 2.095 . S
O473 C482 1.250 . S
O474 Mn469 2.121 . S
O474 C482 1.258 . S
C475 N476 1.326 . S
C475 C479 1.460 . S
C475 H481 0.929 . S
N476 Mn469 2.257 . S
N476 C475 1.326 . S
N476 C480 1.362 . S
C477 C478 1.258 . S
C477 C480 1.431 . S
C477 C497 1.449 . S
C478 C477 1.258 . S
C478 C479 1.477 . S
C478 H498 0.931 . S
C479 C475 1.460 . S
C479 C478 1.477 . S
C479 H499 0.930 . S
C480 N476 1.362 . S
C480 C477 1.431 . S
C480 C490 1.476 . S
H481 C475 0.929 . S
C482 O473 1.250 . S
C482 O474 1.258 . S
O483 Mn468 2.162 . S
O483 C471 1.281 . S
O484 Mn468 2.297 . S
O484 C471 1.236 . S
N485 Mn469 2.282 . S
N485 C486 1.328 . S
N485 C490 1.318 . S
C486 N485 1.328 . S
C486 C487 1.457 . S
C486 H491 0.929 . S
C487 C486 1.457 . S
C487 C488 1.291 . S
C487 H500 0.931 . S
C488 C487 1.291 . S
C488 C489 1.373 . S
C488 H501 0.929 . S
C489 C488 1.373 . S
C489 C490 1.396 . S
C489 C496 1.403 . S
C490 C480 1.476 . S
C490 N485 1.318 . S
C490 C489 1.396 . S
H491 C486 0.929 . S
O492 Mn468 2.385 . S
O492 C470 1.234 . S
O493 Mn468 2.209 . S
O493 Mn469 2.215 . S
O493 C470 1.283 . S
O494 Mn468 2.094 . S
O494 C472 1.240 . S
O495 Mn469 2.117 . S
O495 C472 1.264 . S
C496 C489 1.403 . S
C496 C497 1.399 . S
C496 H502 0.929 . S
C497 C477 1.449 . S
C497 C496 1.399 . S
C497 H503 0.930 . S
H498 C478 0.931 . S
H499 C479 0.930 . S
H500 C487 0.931 . S
H501 C488 0.929 . S
H502 C496 0.929 . S
H503 C497 0.930 . S
Mn504 O509 2.095 . S
Mn504 O519 2.162 . S
Mn504 O520 2.297 . S
Mn504 O528 2.385 . S
Mn504 O529 2.209 . S
Mn504 O530 2.094 . S
Mn505 O510 2.121 . S
Mn505 N512 2.257 . S
Mn505 N521 2.282 . S
Mn505 O529 2.215 . S
Mn505 O531 2.117 . S
C506 O528 1.234 . S
C506 O529 1.283 . S
C507 O519 1.281 . S
C507 O520 1.236 . S
C508 O530 1.240 . S
C508 O531 1.264 . S
O509 Mn504 2.095 . S
O509 C518 1.250 . S
O510 Mn505 2.121 . S
O510 C518 1.258 . S
C511 N512 1.326 . S
C511 C515 1.460 . S
C511 H517 0.929 . S
N512 Mn505 2.257 . S
N512 C511 1.326 . S
N512 C516 1.362 . S
C513 C514 1.258 . S
C513 C516 1.431 . S
C513 C533 1.449 . S
C514 C513 1.258 . S
C514 C515 1.477 . S
C514 H534 0.931 . S
C515 C511 1.460 . S
C515 C514 1.477 . S
C515 H535 0.930 . S
C516 N512 1.362 . S
C516 C513 1.431 . S
C516 C526 1.476 . S
H517 C511 0.929 . S
C518 O509 1.250 . S
C518 O510 1.258 . S
O519 Mn504 2.162 . S
O519 C507 1.281 . S
O520 Mn504 2.297 . S
O520 C507 1.236 . S
N521 Mn505 2.282 . S
N521 C522 1.328 . S
N521 C526 1.318 . S
C522 N521 1.328 . S
C522 C523 1.457 . S
C522 H527 0.929 . S
C523 C522 1.457 . S
C523 C524 1.291 . S
C523 H536 0.931 . S
C524 C523 1.291 . S
C524 C525 1.373 . S
C524 H537 0.929 . S
C525 C524 1.373 . S
C525 C526 1.396 . S
C525 C532 1.403 . S
C526 C516 1.476 . S
C526 N521 1.318 . S
C526 C525 1.396 . S
H527 C522 0.929 . S
O528 Mn504 2.385 . S
O528 C506 1.234 . S
O529 Mn504 2.209 . S
O529 Mn505 2.215 . S
O529 C506 1.283 . S
O530 Mn504 2.094 . S
O530 C508 1.240 . S
O531 Mn505 2.117 . S
O531 C508 1.264 . S
C532 C525 1.403 . S
C532 C533 1.399 . S
C532 H538 0.929 . S
C533 C513 1.449 . S
C533 C532 1.399 . S
C533 H539 0.930 . S
H534 C514 0.931 . S
H535 C515 0.930 . S
H536 C523 0.931 . S
H537 C524 0.929 . S
H538 C532 0.929 . S
H539 C533 0.930 . S
Mn540 O545 2.095 . S
Mn540 O555 2.162 . S
Mn540 O556 2.297 . S
Mn540 O564 2.385 . S
Mn540 O565 2.209 . S
Mn540 O566 2.094 . S
Mn541 O546 2.121 . S
Mn541 N548 2.257 . S
Mn541 N557 2.282 . S
Mn541 O565 2.215 . S
Mn541 O567 2.117 . S
C542 O564 1.234 . S
C542 O565 1.283 . S
C543 O555 1.281 . S
C543 O556 1.236 . S
C544 O566 1.240 . S
C544 O567 1.264 . S
O545 Mn540 2.095 . S
O545 C554 1.250 . S
O546 Mn541 2.121 . S
O546 C554 1.258 . S
C547 N548 1.326 . S
C547 C551 1.460 . S
C547 H553 0.929 . S
N548 Mn541 2.257 . S
N548 C547 1.326 . S
N548 C552 1.362 . S
C549 C550 1.258 . S
C549 C552 1.431 . S
C549 C569 1.449 . S
C550 C549 1.258 . S
C550 C551 1.477 . S
C550 H570 0.931 . S
C551 C547 1.460 . S
C551 C550 1.477 . S
C551 H571 0.930 . S
C552 N548 1.362 . S
C552 C549 1.431 . S
C552 C562 1.476 . S
H553 C547 0.929 . S
C554 O545 1.250 . S
C554 O546 1.258 . S
O555 Mn540 2.162 . S
O555 C543 1.281 . S
O556 Mn540 2.297 . S
O556 C543 1.236 . S
N557 Mn541 2.282 . S
N557 C558 1.328 . S
N557 C562 1.318 . S
C558 N557 1.328 . S
C558 C559 1.457 . S
C558 H563 0.929 . S
C559 C558 1.457 . S
C559 C560 1.291 . S
C559 H572 0.931 . S
C560 C559 1.291 . S
C560 C561 1.373 . S
C560 H573 0.929 . S
C561 C560 1.373 . S
C561 C562 1.396 . S
C561 C568 1.403 . S
C562 C552 1.476 . S
C562 N557 1.318 . S
C562 C561 1.396 . S
H563 C558 0.929 . S
O564 Mn540 2.385 . S
O564 C542 1.234 . S
O565 Mn540 2.209 . S
O565 Mn541 2.215 . S
O565 C542 1.283 . S
O566 Mn540 2.094 . S
O566 C544 1.240 . S
O567 Mn541 2.117 . S
O567 C544 1.264 . S
C568 C561 1.403 . S
C568 C569 1.399 . S
C568 H574 0.929 . S
C569 C549 1.449 . S
C569 C568 1.399 . S
C569 H575 0.930 . S
H570 C550 0.931 . S
H571 C551 0.930 . S
H572 C559 0.931 . S
H573 C560 0.929 . S
H574 C568 0.929 . S
H575 C569 0.930 . S
Mn576 O581 2.095 . S
Mn576 O591 2.162 . S
Mn576 O592 2.297 . S
Mn576 O600 2.385 . S
Mn576 O601 2.209 . S
Mn576 O602 2.094 . S
Mn577 O582 2.121 . S
Mn577 N584 2.257 . S
Mn577 N593 2.282 . S
Mn577 O601 2.215 . S
Mn577 O603 2.117 . S
C578 O600 1.234 . S
C578 O601 1.283 . S
C579 O591 1.281 . S
C579 O592 1.236 . S
C580 O602 1.240 . S
C580 O603 1.264 . S
O581 Mn576 2.095 . S
O581 C590 1.250 . S
O582 Mn577 2.121 . S
O582 C590 1.258 . S
C583 N584 1.326 . S
C583 C587 1.460 . S
C583 H589 0.929 . S
N584 Mn577 2.257 . S
N584 C583 1.326 . S
N584 C588 1.362 . S
C585 C586 1.258 . S
C585 C588 1.431 . S
C585 C605 1.449 . S
C586 C585 1.258 . S
C586 C587 1.477 . S
C586 H606 0.931 . S
C587 C583 1.460 . S
C587 C586 1.477 . S
C587 H607 0.930 . S
C588 N584 1.362 . S
C588 C585 1.431 . S
C588 C598 1.476 . S
H589 C583 0.929 . S
C590 O581 1.250 . S
C590 O582 1.258 . S
O591 Mn576 2.162 . S
O591 C579 1.281 . S
O592 Mn576 2.297 . S
O592 C579 1.236 . S
N593 Mn577 2.282 . S
N593 C594 1.328 . S
N593 C598 1.318 . S
C594 N593 1.328 . S
C594 C595 1.457 . S
C594 H599 0.929 . S
C595 C594 1.457 . S
C595 C596 1.291 . S
C595 H608 0.931 . S
C596 C595 1.291 . S
C596 C597 1.373 . S
C596 H609 0.929 . S
C597 C596 1.373 . S
C597 C598 1.396 . S
C597 C604 1.403 . S
C598 C588 1.476 . S
C598 N593 1.318 . S
C598 C597 1.396 . S
H599 C594 0.929 . S
O600 Mn576 2.385 . S
O600 C578 1.234 . S
O601 Mn576 2.209 . S
O601 Mn577 2.215 . S
O601 C578 1.283 . S
O602 Mn576 2.094 . S
O602 C580 1.240 . S
O603 Mn577 2.117 . S
O603 C580 1.264 . S
C604 C597 1.403 . S
C604 C605 1.399 . S
C604 H610 0.929 . S
C605 C585 1.449 . S
C605 C604 1.399 . S
C605 H611 0.930 . S
H606 C586 0.931 . S
H607 C587 0.930 . S
H608 C595 0.931 . S
H609 C596 0.929 . S
H610 C604 0.929 . S
H611 C605 0.930 . S
Mn612 O617 2.095 . S
Mn612 O627 2.162 . S
Mn612 O628 2.297 . S
Mn612 O636 2.385 . S
Mn612 O637 2.209 . S
Mn612 O638 2.094 . S
Mn613 O618 2.121 . S
Mn613 N620 2.257 . S
Mn613 N629 2.282 . S
Mn613 O637 2.215 . S
Mn613 O639 2.117 . S
C614 O636 1.234 . S
C614 O637 1.283 . S
C615 O627 1.281 . S
C615 O628 1.236 . S
C616 O638 1.240 . S
C616 O639 1.264 . S
O617 Mn612 2.095 . S
O617 C626 1.250 . S
O618 Mn613 2.121 . S
O618 C626 1.258 . S
C619 N620 1.326 . S
C619 C623 1.460 . S
C619 H625 0.929 . S
N620 Mn613 2.257 . S
N620 C619 1.326 . S
N620 C624 1.362 . S
C621 C622 1.258 . S
C621 C624 1.431 . S
C621 C641 1.449 . S
C622 C621 1.258 . S
C622 C623 1.477 . S
C622 H642 0.931 . S
C623 C619 1.460 . S
C623 C622 1.477 . S
C623 H643 0.930 . S
C624 N620 1.362 . S
C624 C621 1.431 . S
C624 C634 1.476 . S
H625 C619 0.929 . S
C626 O617 1.250 . S
C626 O618 1.258 . S
O627 Mn612 2.162 . S
O627 C615 1.281 . S
O628 Mn612 2.297 . S
O628 C615 1.236 . S
N629 Mn613 2.282 . S
N629 C630 1.328 . S
N629 C634 1.318 . S
C630 N629 1.328 . S
C630 C631 1.457 . S
C630 H635 0.929 . S
C631 C630 1.457 . S
C631 C632 1.291 . S
C631 H644 0.931 . S
C632 C631 1.291 . S
C632 C633 1.373 . S
C632 H645 0.929 . S
C633 C632 1.373 . S
C633 C634 1.396 . S
C633 C640 1.403 . S
C634 C624 1.476 . S
C634 N629 1.318 . S
C634 C633 1.396 . S
H635 C630 0.929 . S
O636 Mn612 2.385 . S
O636 C614 1.234 . S
O637 Mn612 2.209 . S
O637 Mn613 2.215 . S
O637 C614 1.283 . S
O638 Mn612 2.094 . S
O638 C616 1.240 . S
O639 Mn613 2.117 . S
O639 C616 1.264 . S
C640 C633 1.403 . S
C640 C641 1.399 . S
C640 H646 0.929 . S
C641 C621 1.449 . S
C641 C640 1.399 . S
C641 H647 0.930 . S
H642 C622 0.931 . S
H643 C623 0.930 . S
H644 C631 0.931 . S
H645 C632 0.929 . S
H646 C640 0.929 . S
H647 C641 0.930 . S
Mn648 O653 2.095 . S
Mn648 O663 2.162 . S
Mn648 O664 2.297 . S
Mn648 O672 2.385 . S
Mn648 O673 2.209 . S
Mn648 O674 2.094 . S
Mn649 O654 2.121 . S
Mn649 N656 2.257 . S
Mn649 N665 2.282 . S
Mn649 O673 2.215 . S
Mn649 O675 2.117 . S
C650 O672 1.234 . S
C650 O673 1.283 . S
C651 O663 1.281 . S
C651 O664 1.236 . S
C652 O674 1.240 . S
C652 O675 1.264 . S
O653 Mn648 2.095 . S
O653 C662 1.250 . S
O654 Mn649 2.121 . S
O654 C662 1.258 . S
C655 N656 1.326 . S
C655 C659 1.460 . S
C655 H661 0.929 . S
N656 Mn649 2.257 . S
N656 C655 1.326 . S
N656 C660 1.362 . S
C657 C658 1.258 . S
C657 C660 1.431 . S
C657 C677 1.449 . S
C658 C657 1.258 . S
C658 C659 1.477 . S
C658 H678 0.931 . S
C659 C655 1.460 . S
C659 C658 1.477 . S
C659 H679 0.930 . S
C660 N656 1.362 . S
C660 C657 1.431 . S
C660 C670 1.476 . S
H661 C655 0.929 . S
C662 O653 1.250 . S
C662 O654 1.258 . S
O663 Mn648 2.162 . S
O663 C651 1.281 . S
O664 Mn648 2.297 . S
O664 C651 1.236 . S
N665 Mn649 2.282 . S
N665 C666 1.328 . S
N665 C670 1.318 . S
C666 N665 1.328 . S
C666 C667 1.457 . S
C666 H671 0.929 . S
C667 C666 1.457 . S
C667 C668 1.291 . S
C667 H680 0.931 . S
C668 C667 1.291 . S
C668 C669 1.373 . S
C668 H681 0.929 . S
C669 C668 1.373 . S
C669 C670 1.396 . S
C669 C676 1.403 . S
C670 C660 1.476 . S
C670 N665 1.318 . S
C670 C669 1.396 . S
H671 C666 0.929 . S
O672 Mn648 2.385 . S
O672 C650 1.234 . S
O673 Mn648 2.209 . S
O673 Mn649 2.215 . S
O673 C650 1.283 . S
O674 Mn648 2.094 . S
O674 C652 1.240 . S
O675 Mn649 2.117 . S
O675 C652 1.264 . S
C676 C669 1.403 . S
C676 C677 1.399 . S
C676 H682 0.929 . S
C677 C657 1.449 . S
C677 C676 1.399 . S
C677 H683 0.930 . S
H678 C658 0.931 . S
H679 C659 0.930 . S
H680 C667 0.931 . S
H681 C668 0.929 . S
H682 C676 0.929 . S
H683 C677 0.930 . S
Mn684 O689 2.095 . S
Mn684 O699 2.162 . S
Mn684 O700 2.297 . S
Mn684 O708 2.385 . S
Mn684 O709 2.209 . S
Mn684 O710 2.094 . S
Mn685 O690 2.121 . S
Mn685 N692 2.257 . S
Mn685 N701 2.282 . S
Mn685 O709 2.215 . S
Mn685 O711 2.117 . S
C686 O708 1.234 . S
C686 O709 1.283 . S
C687 O699 1.281 . S
C687 O700 1.236 . S
C688 O710 1.240 . S
C688 O711 1.264 . S
O689 Mn684 2.095 . S
O689 C698 1.250 . S
O690 Mn685 2.121 . S
O690 C698 1.258 . S
C691 N692 1.326 . S
C691 C695 1.460 . S
C691 H697 0.929 . S
N692 Mn685 2.257 . S
N692 C691 1.326 . S
N692 C696 1.362 . S
C693 C694 1.258 . S
C693 C696 1.431 . S
C693 C713 1.449 . S
C694 C693 1.258 . S
C694 C695 1.477 . S
C694 H714 0.931 . S
C695 C691 1.460 . S
C695 C694 1.477 . S
C695 H715 0.930 . S
C696 N692 1.362 . S
C696 C693 1.431 . S
C696 C706 1.476 . S
H697 C691 0.929 . S
C698 O689 1.250 . S
C698 O690 1.258 . S
O699 Mn684 2.162 . S
O699 C687 1.281 . S
O700 Mn684 2.297 . S
O700 C687 1.236 . S
N701 Mn685 2.282 . S
N701 C702 1.328 . S
N701 C706 1.318 . S
C702 N701 1.328 . S
C702 C703 1.457 . S
C702 H707 0.929 . S
C703 C702 1.457 . S
C703 C704 1.291 . S
C703 H716 0.931 . S
C704 C703 1.291 . S
C704 C705 1.373 . S
C704 H717 0.929 . S
C705 C704 1.373 . S
C705 C706 1.396 . S
C705 C712 1.403 . S
C706 C696 1.476 . S
C706 N701 1.318 . S
C706 C705 1.396 . S
H707 C702 0.929 . S
O708 Mn684 2.385 . S
O708 C686 1.234 . S
O709 Mn684 2.209 . S
O709 Mn685 2.215 . S
O709 C686 1.283 . S
O710 Mn684 2.094 . S
O710 C688 1.240 . S
O711 Mn685 2.117 . S
O711 C688 1.264 . S
C712 C705 1.403 . S
C712 C713 1.399 . S
C712 H718 0.929 . S
C713 C693 1.449 . S
C713 C712 1.399 . S
C713 H719 0.930 . S
H714 C694 0.931 . S
H715 C695 0.930 . S
H716 C703 0.931 . S
H717 C704 0.929 . S
H718 C712 0.929 . S
H719 C713 0.930 . S
Mn720 O725 2.095 . S
Mn720 O735 2.162 . S
Mn720 O736 2.297 . S
Mn720 O744 2.385 . S
Mn720 O745 2.209 . S
Mn720 O746 2.094 . S
Mn721 O726 2.121 . S
Mn721 N728 2.257 . S
Mn721 N737 2.282 . S
Mn721 O745 2.215 . S
Mn721 O747 2.117 . S
C722 O744 1.234 . S
C722 O745 1.283 . S
C723 O735 1.281 . S
C723 O736 1.236 . S
C724 O746 1.240 . S
C724 O747 1.264 . S
O725 Mn720 2.095 . S
O725 C734 1.250 . S
O726 Mn721 2.121 . S
O726 C734 1.258 . S
C727 N728 1.326 . S
C727 C731 1.460 . S
C727 H733 0.929 . S
N728 Mn721 2.257 . S
N728 C727 1.326 . S
N728 C732 1.362 . S
C729 C730 1.258 . S
C729 C732 1.431 . S
C729 C749 1.449 . S
C730 C729 1.258 . S
C730 C731 1.477 . S
C730 H750 0.931 . S
C731 C727 1.460 . S
C731 C730 1.477 . S
C731 H751 0.930 . S
C732 N728 1.362 . S
C732 C729 1.431 . S
C732 C742 1.476 . S
H733 C727 0.929 . S
C734 O725 1.250 . S
C734 O726 1.258 . S
O735 Mn720 2.162 . S
O735 C723 1.281 . S
O736 Mn720 2.297 . S
O736 C723 1.236 . S
N737 Mn721 2.282 . S
N737 C738 1.328 . S
N737 C742 1.318 . S
C738 N737 1.328 . S
C738 C739 1.457 . S
C738 H743 0.929 . S
C739 C738 1.457 . S
C739 C740 1.291 . S
C739 H752 0.931 . S
C740 C739 1.291 . S
C740 C741 1.373 . S
C740 H753 0.929 . S
C741 C740 1.373 . S
C741 C742 1.396 . S
C741 C748 1.403 . S
C742 C732 1.476 . S
C742 N737 1.318 . S
C742 C741 1.396 . S
H743 C738 0.929 . S
O744 Mn720 2.385 . S
O744 C722 1.234 . S
O745 Mn720 2.209 . S
O745 Mn721 2.215 . S
O745 C722 1.283 . S
O746 Mn720 2.094 . S
O746 C724 1.240 . S
O747 Mn721 2.117 . S
O747 C724 1.264 . S
C748 C741 1.403 . S
C748 C749 1.399 . S
C748 H754 0.929 . S
C749 C729 1.449 . S
C749 C748 1.399 . S
C749 H755 0.930 . S
H750 C730 0.931 . S
H751 C731 0.930 . S
H752 C739 0.931 . S
H753 C740 0.929 . S
H754 C748 0.929 . S
H755 C749 0.930 . S
Mn756 O761 2.095 . S
Mn756 O771 2.162 . S
Mn756 O772 2.297 . S
Mn756 O780 2.385 . S
Mn756 O781 2.209 . S
Mn756 O782 2.094 . S
Mn757 O762 2.121 . S
Mn757 N764 2.257 . S
Mn757 N773 2.282 . S
Mn757 O781 2.215 . S
Mn757 O783 2.117 . S
C758 O780 1.234 . S
C758 O781 1.283 . S
C759 O771 1.281 . S
C759 O772 1.236 . S
C760 O782 1.240 . S
C760 O783 1.264 . S
O761 Mn756 2.095 . S
O761 C770 1.250 . S
O762 Mn757 2.121 . S
O762 C770 1.258 . S
C763 N764 1.326 . S
C763 C767 1.460 . S
C763 H769 0.929 . S
N764 Mn757 2.257 . S
N764 C763 1.326 . S
N764 C768 1.362 . S
C765 C766 1.258 . S
C765 C768 1.431 . S
C765 C785 1.449 . S
C766 C765 1.258 . S
C766 C767 1.477 . S
C766 H786 0.931 . S
C767 C763 1.460 . S
C767 C766 1.477 . S
C767 H787 0.930 . S
C768 N764 1.362 . S
C768 C765 1.431 . S
C768 C778 1.476 . S
H769 C763 0.929 . S
C770 O761 1.250 . S
C770 O762 1.258 . S
O771 Mn756 2.162 . S
O771 C759 1.281 . S
O772 Mn756 2.297 . S
O772 C759 1.236 . S
N773 Mn757 2.282 . S
N773 C774 1.328 . S
N773 C778 1.318 . S
C774 N773 1.328 . S
C774 C775 1.457 . S
C774 H779 0.929 . S
C775 C774 1.457 . S
C775 C776 1.291 . S
C775 H788 0.931 . S
C776 C775 1.291 . S
C776 C777 1.373 . S
C776 H789 0.929 . S
C777 C776 1.373 . S
C777 C778 1.396 . S
C777 C784 1.403 . S
C778 C768 1.476 . S
C778 N773 1.318 . S
C778 C777 1.396 . S
H779 C774 0.929 . S
O780 Mn756 2.385 . S
O780 C758 1.234 . S
O781 Mn756 2.209 . S
O781 Mn757 2.215 . S
O781 C758 1.283 . S
O782 Mn756 2.094 . S
O782 C760 1.240 . S
O783 Mn757 2.117 . S
O783 C760 1.264 . S
C784 C777 1.403 . S
C784 C785 1.399 . S
C784 H790 0.929 . S
C785 C765 1.449 . S
C785 C784 1.399 . S
C785 H791 0.930 . S
H786 C766 0.931 . S
H787 C767 0.930 . S
H788 C775 0.931 . S
H789 C776 0.929 . S
H790 C784 0.929 . S
H791 C785 0.930 . S
Mn792 O797 2.095 . S
Mn792 O807 2.162 . S
Mn792 O808 2.297 . S
Mn792 O816 2.385 . S
Mn792 O817 2.209 . S
Mn792 O818 2.094 . S
Mn793 O798 2.121 . S
Mn793 N800 2.257 . S
Mn793 N809 2.282 . S
Mn793 O817 2.215 . S
Mn793 O819 2.117 . S
C794 O816 1.234 . S
C794 O817 1.283 . S
C795 O807 1.281 . S
C795 O808 1.236 . S
C796 O818 1.240 . S
C796 O819 1.264 . S
O797 Mn792 2.095 . S
O797 C806 1.250 . S
O798 Mn793 2.121 . S
O798 C806 1.258 . S
C799 N800 1.326 . S
C799 C803 1.460 . S
C799 H805 0.929 . S
N800 Mn793 2.257 . S
N800 C799 1.326 . S
N800 C804 1.362 . S
C801 C802 1.258 . S
C801 C804 1.431 . S
C801 C821 1.449 . S
C802 C801 1.258 . S
C802 C803 1.477 . S
C802 H822 0.931 . S
C803 C799 1.460 . S
C803 C802 1.477 . S
C803 H823 0.930 . S
C804 N800 1.362 . S
C804 C801 1.431 . S
C804 C814 1.476 . S
H805 C799 0.929 . S
C806 O797 1.250 . S
C806 O798 1.258 . S
O807 Mn792 2.162 . S
O807 C795 1.281 . S
O808 Mn792 2.297 . S
O808 C795 1.236 . S
N809 Mn793 2.282 . S
N809 C810 1.328 . S
N809 C814 1.318 . S
C810 N809 1.328 . S
C810 C811 1.457 . S
C810 H815 0.929 . S
C811 C810 1.457 . S
C811 C812 1.291 . S
C811 H824 0.931 . S
C812 C811 1.291 . S
C812 C813 1.373 . S
C812 H825 0.929 . S
C813 C812 1.373 . S
C813 C814 1.396 . S
C813 C820 1.403 . S
C814 C804 1.476 . S
C814 N809 1.318 . S
C814 C813 1.396 . S
H815 C810 0.929 . S
O816 Mn792 2.385 . S
O816 C794 1.234 . S
O817 Mn792 2.209 . S
O817 Mn793 2.215 . S
O817 C794 1.283 . S
O818 Mn792 2.094 . S
O818 C796 1.240 . S
O819 Mn793 2.117 . S
O819 C796 1.264 . S
C820 C813 1.403 . S
C820 C821 1.399 . S
C820 H826 0.929 . S
C821 C801 1.449 . S
C821 C820 1.399 . S
C821 H827 0.930 . S
H822 C802 0.931 . S
H823 C803 0.930 . S
H824 C811 0.931 . S
H825 C812 0.929 . S
H826 C820 0.929 . S
H827 C821 0.930 . S
Mn828 O833 2.095 . S
Mn828 O843 2.162 . S
Mn828 O844 2.297 . S
Mn828 O852 2.385 . S
Mn828 O853 2.209 . S
Mn828 O854 2.094 . S
Mn829 O834 2.121 . S
Mn829 N836 2.257 . S
Mn829 N845 2.282 . S
Mn829 O853 2.215 . S
Mn829 O855 2.117 . S
C830 O852 1.234 . S
C830 O853 1.283 . S
C831 O843 1.281 . S
C831 O844 1.236 . S
C832 O854 1.240 . S
C832 O855 1.264 . S
O833 Mn828 2.095 . S
O833 C842 1.250 . S
O834 Mn829 2.121 . S
O834 C842 1.258 . S
C835 N836 1.326 . S
C835 C839 1.460 . S
C835 H841 0.929 . S
N836 Mn829 2.257 . S
N836 C835 1.326 . S
N836 C840 1.362 . S
C837 C838 1.258 . S
C837 C840 1.431 . S
C837 C857 1.449 . S
C838 C837 1.258 . S
C838 C839 1.477 . S
C838 H858 0.931 . S
C839 C835 1.460 . S
C839 C838 1.477 . S
C839 H859 0.930 . S
C840 N836 1.362 . S
C840 C837 1.431 . S
C840 C850 1.476 . S
H841 C835 0.929 . S
C842 O833 1.250 . S
C842 O834 1.258 . S
O843 Mn828 2.162 . S
O843 C831 1.281 . S
O844 Mn828 2.297 . S
O844 C831 1.236 . S
N845 Mn829 2.282 . S
N845 C846 1.328 . S
N845 C850 1.318 . S
C846 N845 1.328 . S
C846 C847 1.457 . S
C846 H851 0.929 . S
C847 C846 1.457 . S
C847 C848 1.291 . S
C847 H860 0.931 . S
C848 C847 1.291 . S
C848 C849 1.373 . S
C848 H861 0.929 . S
C849 C848 1.373 . S
C849 C850 1.396 . S
C849 C856 1.403 . S
C850 C840 1.476 . S
C850 N845 1.318 . S
C850 C849 1.396 . S
H851 C846 0.929 . S
O852 Mn828 2.385 . S
O852 C830 1.234 . S
O853 Mn828 2.209 . S
O853 Mn829 2.215 . S
O853 C830 1.283 . S
O854 Mn828 2.094 . S
O854 C832 1.240 . S
O855 Mn829 2.117 . S
O855 C832 1.264 . S
C856 C849 1.403 . S
C856 C857 1.399 . S
C856 H862 0.929 . S
C857 C837 1.449 . S
C857 C856 1.399 . S
C857 H863 0.930 . S
H858 C838 0.931 . S
H859 C839 0.930 . S
H860 C847 0.931 . S
H861 C848 0.929 . S
H862 C856 0.929 . S
H863 C857 0.930 . S
C864 C865 1.387 . S
C864 H868 0.950 . S
C864 C873 1.390 . S
C865 C864 1.387 . S
C865 C867 1.387 . S
H866 C873 0.950 . S
C867 C865 1.387 . S
C867 C869 1.390 . S
C867 H871 0.950 . S
H868 C864 0.950 . S
C869 C867 1.390 . S
C869 C870 1.387 . S
C869 H872 0.950 . S
C870 C869 1.387 . S
C870 C873 1.387 . S
H871 C867 0.950 . S
H872 C869 0.950 . S
C873 C864 1.390 . S
C873 H866 0.950 . S
C873 C870 1.387 . S
C874 C875 1.387 . S
C874 H878 0.950 . S
C874 C883 1.390 1_655 S
C875 C874 1.387 . S
C875 C877 1.387 . S
H876 C883 0.950 . S
C877 C875 1.387 . S
C877 C879 1.390 1_655 S
C877 H881 0.950 . S
H878 C874 0.950 . S
C879 C877 1.390 1_455 S
C879 C880 1.387 . S
C879 H882 0.950 . S
C880 C879 1.387 . S
C880 C883 1.387 . S
H881 C877 0.950 . S
H882 C879 0.950 . S
C883 C874 1.390 1_455 S
C883 H876 0.950 . S
C883 C880 1.387 . S
C884 C885 1.387 . S
C884 H888 0.950 . S
C884 C893 1.390 . S
C885 C884 1.387 . S
C885 C887 1.387 . S
H886 C893 0.950 . S
C887 C885 1.387 . S
C887 C889 1.390 . S
C887 H891 0.950 . S
H888 C884 0.950 . S
C889 C887 1.390 . S
C889 C890 1.387 . S
C889 H892 0.950 . S
C890 C889 1.387 . S
C890 C893 1.387 . S
H891 C887 0.950 . S
H892 C889 0.950 . S
C893 C884 1.390 . S
C893 H886 0.950 . S
C893 C890 1.387 . S
C894 C895 1.387 . S
C894 H898 0.950 . S
C894 C903 1.390 1_455 S
C895 C894 1.387 . S
C895 C897 1.387 . S
H896 C903 0.950 . S
C897 C895 1.387 . S
C897 C899 1.390 1_455 S
C897 H901 0.950 . S
H898 C894 0.950 . S
C899 C897 1.390 1_655 S
C899 C900 1.387 . S
C899 H902 0.950 . S
C900 C899 1.387 . S
C900 C903 1.387 . S
H901 C897 0.950 . S
H902 C899 0.950 . S
C903 C894 1.390 1_655 S
C903 H896 0.950 . S
C903 C900 1.387 . S
C904 C905 1.387 . S
C904 H908 0.950 . S
C904 C913 1.390 . S
C905 C904 1.387 . S
C905 C907 1.387 . S
H906 C913 0.950 . S
C907 C905 1.387 . S
C907 C909 1.390 . S
C907 H911 0.950 . S
H908 C904 0.950 . S
C909 C907 1.390 . S
C909 C910 1.387 . S
C909 H912 0.950 . S
C910 C909 1.387 . S
C910 C913 1.387 . S
H911 C907 0.950 . S
H912 C909 0.950 . S
C913 C904 1.390 . S
C913 H906 0.950 . S
C913 C910 1.387 . S
C914 C915 1.387 1_455 S
C914 H918 0.950 1_455 S
C914 C923 1.390 . S
C915 C914 1.387 1_655 S
C915 C917 1.387 . S
H916 C923 0.950 . S
C917 C915 1.387 . S
C917 C919 1.390 1_655 S
C917 H921 0.950 . S
H918 C914 0.950 1_655 S
C919 C917 1.390 1_455 S
C919 C920 1.387 . S
C919 H922 0.950 . S
C920 C919 1.387 . S
C920 C923 1.387 . S
H921 C917 0.950 . S
H922 C919 0.950 . S
C923 C914 1.390 . S
C923 H916 0.950 . S
C923 C920 1.387 . S
C924 C925 1.387 . S
C924 H928 0.950 . S
C924 C933 1.390 . S
C925 C924 1.387 . S
C925 C927 1.387 . S
H926 C933 0.950 . S
C927 C925 1.387 . S
C927 C929 1.390 . S
C927 H931 0.950 . S
H928 C924 0.950 . S
C929 C927 1.390 . S
C929 C930 1.387 . S
C929 H932 0.950 . S
C930 C929 1.387 . S
C930 C933 1.387 . S
H931 C927 0.950 . S
H932 C929 0.950 . S
C933 C924 1.390 . S
C933 H926 0.950 . S
C933 C930 1.387 . S
C934 C935 1.387 . S
C934 H938 0.950 . S
C934 C943 1.390 1_655 S
C935 C934 1.387 . S
C935 C937 1.387 . S
H936 C943 0.950 . S
C937 C935 1.387 . S
C937 C939 1.390 1_655 S
C937 H941 0.950 . S
H938 C934 0.950 . S
C939 C937 1.390 1_455 S
C939 C940 1.387 . S
C939 H942 0.950 . S
C940 C939 1.387 . S
C940 C943 1.387 . S
H941 C937 0.950 . S
H942 C939 0.950 . S
C943 C934 1.390 1_455 S
C943 H936 0.950 . S
C943 C940 1.387 . S
C944 C945 1.387 . S
C944 H948 0.950 . S
C944 C953 1.390 . S
C945 C944 1.387 . S
C945 C947 1.387 . S
H946 C953 0.950 . S
C947 C945 1.387 . S
C947 C949 1.390 . S
C947 H951 0.950 . S
H948 C944 0.950 . S
C949 C947 1.390 . S
C949 C950 1.387 . S
C949 H952 0.950 . S
C950 C949 1.387 . S
C950 C953 1.387 . S
H951 C947 0.950 . S
H952 C949 0.950 . S
C953 C944 1.390 . S
C953 H946 0.950 . S
C953 C950 1.387 . S
C954 C955 1.387 . S
C954 H958 0.950 . S
C954 C963 1.390 1_556 S
C955 C954 1.387 . S
C955 C957 1.387 . S
H956 C963 0.950 . S
C957 C955 1.387 . S
C957 C959 1.390 1_556 S
C957 H961 0.950 . S
H958 C954 0.950 . S
C959 C957 1.390 1_554 S
C959 C960 1.387 . S
C959 H962 0.950 . S
C960 C959 1.387 . S
C960 C963 1.387 . S
H961 C957 0.950 . S
H962 C959 0.950 . S
C963 C954 1.390 1_554 S
C963 H956 0.950 . S
C963 C960 1.387 . S
C964 C965 1.387 . S
C964 H968 0.950 . S
C964 C973 1.390 . S
C965 C964 1.387 . S
C965 C967 1.387 . S
H966 C973 0.950 . S
C967 C965 1.387 . S
C967 C969 1.390 . S
C967 H971 0.950 . S
H968 C964 0.950 . S
C969 C967 1.390 . S
C969 C970 1.387 . S
C969 H972 0.950 . S
C970 C969 1.387 . S
C970 C973 1.387 . S
H971 C967 0.950 . S
H972 C969 0.950 . S
C973 C964 1.390 . S
C973 H966 0.950 . S
C973 C970 1.387 . S
C974 C975 1.387 . S
C974 H978 0.950 . S
C974 C983 1.390 1_554 S
C975 C974 1.387 . S
C975 C977 1.387 . S
H976 C983 0.950 . S
C977 C975 1.387 . S
C977 C979 1.390 1_554 S
C977 H981 0.950 . S
H978 C974 0.950 . S
C979 C977 1.390 1_556 S
C979 C980 1.387 . S
C979 H982 0.950 . S
C980 C979 1.387 . S
C980 C983 1.387 . S
H981 C977 0.950 . S
H982 C979 0.950 . S
C983 C974 1.390 1_556 S
C983 H976 0.950 . S
C983 C980 1.387 . S
C984 C985 1.387 . S
C984 H988 0.950 . S
C984 C993 1.390 . S
C985 C984 1.387 . S
C985 C987 1.387 . S
H986 C993 0.950 . S
C987 C985 1.387 . S
C987 C989 1.390 . S
C987 H991 0.950 . S
H988 C984 0.950 . S
C989 C987 1.390 . S
C989 C990 1.387 . S
C989 H992 0.950 . S
C990 C989 1.387 . S
C990 C993 1.387 . S
H991 C987 0.950 . S
H992 C989 0.950 . S
C993 C984 1.390 . S
C993 H986 0.950 . S
C993 C990 1.387 . S
C994 C995 1.387 . S
C994 H998 0.950 . S
C994 C1003 1.390 1_554 S
C995 C994 1.387 . S
C995 C997 1.387 . S
H996 C1003 0.950 . S
C997 C995 1.387 . S
C997 C999 1.390 1_554 S
C997 H1001 0.950 . S
H998 C994 0.950 . S
C999 C997 1.390 1_556 S
C999 C1000 1.387 . S
C999 H1002 0.950 . S
C1000 C999 1.387 . S
C1000 C1003 1.387 . S
H1001 C997 0.950 . S
H1002 C999 0.950 . S
C1003 C994 1.390 1_556 S
C1003 H996 0.950 . S
C1003 C1000 1.387 . S
C1004 C1005 1.387 . S
C1004 H1008 0.950 . S
C1004 C1013 1.390 . S
C1005 C1004 1.387 . S
C1005 C1007 1.387 . S
H1006 C1013 0.950 . S
C1007 C1005 1.387 . S
C1007 C1009 1.390 . S
C1007 H1011 0.950 . S
H1008 C1004 0.950 . S
C1009 C1007 1.390 . S
C1009 C1010 1.387 . S
C1009 H1012 0.950 . S
C1010 C1009 1.387 . S
C1010 C1013 1.387 . S
H1011 C1007 0.950 . S
H1012 C1009 0.950 . S
C1013 C1004 1.390 . S
C1013 H1006 0.950 . S
C1013 C1010 1.387 . S
C1014 C1015 1.387 . S
C1014 H1018 0.950 . S
C1014 C1023 1.390 1_554 S
C1015 C1014 1.387 . S
C1015 C1017 1.387 . S
H1016 C1023 0.950 . S
C1017 C1015 1.387 . S
C1017 C1019 1.390 1_554 S
C1017 H1021 0.950 . S
H1018 C1014 0.950 . S
C1019 C1017 1.390 1_556 S
C1019 C1020 1.387 . S
C1019 H1022 0.950 . S
C1020 C1019 1.387 . S
C1020 C1023 1.387 . S
H1021 C1017 0.950 . S
H1022 C1019 0.950 . S
C1023 C1014 1.390 1_556 S
C1023 H1016 0.950 . S
C1023 C1020 1.387 . S
C1024 C1025 1.387 . S
C1024 H1028 0.950 . S
C1024 C1033 1.390 . S
C1025 C1024 1.387 . S
C1025 C1027 1.387 . S
H1026 C1033 0.950 . S
C1027 C1025 1.387 . S
C1027 C1029 1.390 . S
C1027 H1031 0.950 . S
H1028 C1024 0.950 . S
C1029 C1027 1.390 . S
C1029 C1030 1.387 . S
C1029 H1032 0.950 . S
C1030 C1029 1.387 . S
C1030 C1033 1.387 . S
H1031 C1027 0.950 . S
H1032 C1029 0.950 . S
C1033 C1024 1.390 . S
C1033 H1026 0.950 . S
C1033 C1030 1.387 . S
C1034 C1035 1.387 . S
C1034 H1038 0.950 . S
C1034 C1043 1.390 . S
C1035 C1034 1.387 . S
C1035 C1037 1.387 . S
H1036 C1043 0.950 . S
C1037 C1035 1.387 . S
C1037 C1039 1.390 . S
C1037 H1041 0.950 . S
H1038 C1034 0.950 . S
C1039 C1037 1.390 . S
C1039 C1040 1.387 . S
C1039 H1042 0.950 . S
C1040 C1039 1.387 . S
C1040 C1043 1.387 . S
H1041 C1037 0.950 . S
H1042 C1039 0.950 . S
C1043 C1034 1.390 . S
C1043 H1036 0.950 . S
C1043 C1040 1.387 . S
C1044 C1045 1.387 . S
C1044 H1048 0.950 . S
C1044 C1053 1.390 1_565 S
C1045 C1044 1.387 . S
C1045 C1047 1.387 . S
H1046 C1053 0.950 . S
C1047 C1045 1.387 . S
C1047 C1049 1.390 1_565 S
C1047 H1051 0.950 . S
H1048 C1044 0.950 . S
C1049 C1047 1.390 1_545 S
C1049 C1050 1.387 . S
C1049 H1052 0.950 . S
C1050 C1049 1.387 . S
C1050 C1053 1.387 . S
H1051 C1047 0.950 . S
H1052 C1049 0.950 . S
C1053 C1044 1.390 1_545 S
C1053 H1046 0.950 . S
C1053 C1050 1.387 . S
C1054 C1055 1.387 . S
C1054 H1058 0.950 . S
C1054 C1063 1.390 . S
C1055 C1054 1.387 . S
C1055 C1057 1.387 . S
H1056 C1063 0.950 . S
C1057 C1055 1.387 . S
C1057 C1059 1.390 . S
C1057 H1061 0.950 . S
H1058 C1054 0.950 . S
C1059 C1057 1.390 . S
C1059 C1060 1.387 . S
C1059 H1062 0.950 . S
C1060 C1059 1.387 . S
C1060 C1063 1.387 . S
H1061 C1057 0.950 . S
H1062 C1059 0.950 . S
C1063 C1054 1.390 . S
C1063 H1056 0.950 . S
C1063 C1060 1.387 . S
C1064 C1065 1.387 . S
C1064 H1068 0.950 . S
C1064 C1073 1.390 1_565 S
C1065 C1064 1.387 . S
C1065 C1067 1.387 . S
H1066 C1073 0.950 . S
C1067 C1065 1.387 . S
C1067 C1069 1.390 1_565 S
C1067 H1071 0.950 . S
H1068 C1064 0.950 . S
C1069 C1067 1.390 1_545 S
C1069 C1070 1.387 . S
C1069 H1072 0.950 . S
C1070 C1069 1.387 . S
C1070 C1073 1.387 . S
H1071 C1067 0.950 . S
H1072 C1069 0.950 . S
C1073 C1064 1.390 1_545 S
C1073 H1066 0.950 . S
C1073 C1070 1.387 . S
C1074 C1075 1.387 . S
C1074 H1078 0.950 . S
C1074 C1083 1.390 . S
C1075 C1074 1.387 . S
C1075 C1077 1.387 . S
H1076 C1083 0.950 . S
C1077 C1075 1.387 . S
C1077 C1079 1.390 . S
C1077 H1081 0.950 . S
H1078 C1074 0.950 . S
C1079 C1077 1.390 . S
C1079 C1080 1.387 . S
C1079 H1082 0.950 . S
C1080 C1079 1.387 . S
C1080 C1083 1.387 . S
H1081 C1077 0.950 . S
H1082 C1079 0.950 . S
C1083 C1074 1.390 . S
C1083 H1076 0.950 . S
C1083 C1080 1.387 . S
C1084 C1085 1.387 . S
C1084 H1088 0.950 . S
C1084 C1093 1.390 1_565 S
C1085 C1084 1.387 . S
C1085 C1087 1.387 . S
H1086 C1093 0.950 . S
C1087 C1085 1.387 . S
C1087 C1089 1.390 1_565 S
C1087 H1091 0.950 . S
H1088 C1084 0.950 . S
C1089 C1087 1.390 1_545 S
C1089 C1090 1.387 . S
C1089 H1092 0.950 . S
C1090 C1089 1.387 . S
C1090 C1093 1.387 . S
H1091 C1087 0.950 . S
H1092 C1089 0.950 . S
C1093 C1084 1.390 1_545 S
C1093 H1086 0.950 . S
C1093 C1090 1.387 . S
C1094 C1095 1.387 . S
C1094 H1098 0.950 . S
C1094 C1103 1.390 1_545 S
C1095 C1094 1.387 . S
C1095 C1097 1.387 . S
H1096 C1103 0.950 . S
C1097 C1095 1.387 . S
C1097 C1099 1.390 1_545 S
C1097 H1101 0.950 . S
H1098 C1094 0.950 . S
C1099 C1097 1.390 1_565 S
C1099 C1100 1.387 . S
C1099 H1102 0.950 . S
C1100 C1099 1.387 . S
C1100 C1103 1.387 . S
H1101 C1097 0.950 . S
H1102 C1099 0.950 . S
C1103 C1094 1.390 1_565 S
C1103 H1096 0.950 . S
C1103 C1100 1.387 . S
C1104 C1105 1.387 . S
C1104 H1108 0.950 . S
C1104 C1113 1.390 . S
C1105 C1104 1.387 . S
C1105 C1107 1.387 . S
H1106 C1113 0.950 . S
C1107 C1105 1.387 . S
C1107 C1109 1.390 . S
C1107 H1111 0.950 . S
H1108 C1104 0.950 . S
C1109 C1107 1.390 . S
C1109 C1110 1.387 . S
C1109 H1112 0.950 . S
C1110 C1109 1.387 . S
C1110 C1113 1.387 . S
H1111 C1107 0.950 . S
H1112 C1109 0.950 . S
C1113 C1104 1.390 . S
C1113 H1106 0.950 . S
C1113 C1110 1.387 . S
C1114 C1115 1.387 . S
C1114 H1118 0.950 . S
C1114 C1123 1.390 . S
C1115 C1114 1.387 . S
C1115 C1117 1.387 . S
H1116 C1123 0.950 . S
C1117 C1115 1.387 . S
C1117 C1119 1.390 . S
C1117 H1121 0.950 . S
H1118 C1114 0.950 . S
C1119 C1117 1.390 . S
C1119 C1120 1.387 . S
C1119 H1122 0.950 . S
C1120 C1119 1.387 . S
C1120 C1123 1.387 . S
H1121 C1117 0.950 . S
H1122 C1119 0.950 . S
C1123 C1114 1.390 . S
C1123 H1116 0.950 . S
C1123 C1120 1.387 . S
C1124 C1125 1.387 . S
C1124 H1128 0.950 . S
C1124 C1133 1.390 . S
C1125 C1124 1.387 . S
C1125 C1127 1.387 . S
H1126 C1133 0.950 . S
C1127 C1125 1.387 . S
C1127 C1129 1.390 . S
C1127 H1131 0.950 . S
H1128 C1124 0.950 . S
C1129 C1127 1.390 . S
C1129 C1130 1.387 . S
C1129 H1132 0.950 . S
C1130 C1129 1.387 . S
C1130 C1133 1.387 . S
H1131 C1127 0.950 . S
H1132 C1129 0.950 . S
C1133 C1124 1.390 . S
C1133 H1126 0.950 . S
C1133 C1130 1.387 . S
C1134 C1135 1.387 . S
C1134 H1138 0.950 . S
C1134 C1143 1.390 . S
C1135 C1134 1.387 . S
C1135 C1137 1.387 . S
H1136 C1143 0.950 . S
C1137 C1135 1.387 . S
C1137 C1139 1.390 . S
C1137 H1141 0.950 . S
H1138 C1134 0.950 . S
C1139 C1137 1.390 . S
C1139 C1140 1.387 . S
C1139 H1142 0.950 . S
C1140 C1139 1.387 . S
C1140 C1143 1.387 . S
H1141 C1137 0.950 . S
H1142 C1139 0.950 . S
C1143 C1134 1.390 . S
C1143 H1136 0.950 . S
C1143 C1140 1.387 . S
C1144 C1145 1.387 . S
C1144 H1148 0.950 . S
C1144 C1153 1.390 . S
C1145 C1144 1.387 . S
C1145 C1147 1.387 . S
H1146 C1153 0.950 . S
C1147 C1145 1.387 . S
C1147 C1149 1.390 . S
C1147 H1151 0.950 . S
H1148 C1144 0.950 . S
C1149 C1147 1.390 . S
C1149 C1150 1.387 . S
C1149 H1152 0.950 . S
C1150 C1149 1.387 . S
C1150 C1153 1.387 . S
H1151 C1147 0.950 . S
H1152 C1149 0.950 . S
C1153 C1144 1.390 . S
C1153 H1146 0.950 . S
C1153 C1150 1.387 . S
C1154 C1155 1.387 . S
C1154 H1158 0.950 . S
C1154 C1163 1.390 . S
C1155 C1154 1.387 . S
C1155 C1157 1.387 . S
H1156 C1163 0.950 . S
C1157 C1155 1.387 . S
C1157 C1159 1.390 . S
C1157 H1161 0.950 . S
H1158 C1154 0.950 . S
C1159 C1157 1.390 . S
C1159 C1160 1.387 . S
C1159 H1162 0.950 . S
C1160 C1159 1.387 . S
C1160 C1163 1.387 . S
H1161 C1157 0.950 . S
H1162 C1159 0.950 . S
C1163 C1154 1.390 . S
C1163 H1156 0.950 . S
C1163 C1160 1.387 . S
C1164 C1165 1.387 . S
C1164 H1168 0.950 . S
C1164 C1173 1.390 . S
C1165 C1164 1.387 . S
C1165 C1167 1.387 . S
H1166 C1173 0.950 . S
C1167 C1165 1.387 . S
C1167 C1169 1.390 . S
C1167 H1171 0.950 . S
H1168 C1164 0.950 . S
C1169 C1167 1.390 . S
C1169 C1170 1.387 . S
C1169 H1172 0.950 . S
C1170 C1169 1.387 . S
C1170 C1173 1.387 . S
H1171 C1167 0.950 . S
H1172 C1169 0.950 . S
C1173 C1164 1.390 . S
C1173 H1166 0.950 . S
C1173 C1170 1.387 . S
C1174 C1175 1.387 . S
C1174 H1178 0.950 . S
C1174 C1183 1.390 . S
C1175 C1174 1.387 . S
C1175 C1177 1.387 . S
H1176 C1183 0.950 . S
C1177 C1175 1.387 . S
C1177 C1179 1.390 . S
C1177 H1181 0.950 . S
H1178 C1174 0.950 . S
C1179 C1177 1.390 . S
C1179 C1180 1.387 . S
C1179 H1182 0.950 . S
C1180 C1179 1.387 . S
C1180 C1183 1.387 . S
H1181 C1177 0.950 . S
H1182 C1179 0.950 . S
C1183 C1174 1.390 . S
C1183 H1176 0.950 . S
C1183 C1180 1.387 . S
C1184 C1185 1.387 . S
C1184 H1188 0.950 . S
C1184 C1193 1.390 . S
C1185 C1184 1.387 . S
C1185 C1187 1.387 . S
H1186 C1193 0.950 . S
C1187 C1185 1.387 . S
C1187 C1189 1.390 . S
C1187 H1191 0.950 . S
H1188 C1184 0.950 . S
C1189 C1187 1.390 . S
C1189 C1190 1.387 . S
C1189 H1192 0.950 . S
C1190 C1189 1.387 . S
C1190 C1193 1.387 . S
H1191 C1187 0.950 . S
H1192 C1189 0.950 . S
C1193 C1184 1.390 . S
C1193 H1186 0.950 . S
C1193 C1190 1.387 . S
C1194 C1195 1.387 . S
C1194 H1198 0.950 . S
C1194 C1203 1.390 . S
C1195 C1194 1.387 . S
C1195 C1197 1.387 . S
H1196 C1203 0.950 . S
C1197 C1195 1.387 . S
C1197 C1199 1.390 . S
C1197 H1201 0.950 . S
H1198 C1194 0.950 . S
C1199 C1197 1.390 . S
C1199 C1200 1.387 . S
C1199 H1202 0.950 . S
C1200 C1199 1.387 . S
C1200 C1203 1.387 . S
H1201 C1197 0.950 . S
H1202 C1199 0.950 . S
C1203 C1194 1.390 . S
C1203 H1196 0.950 . S
C1203 C1200 1.387 . S
C1204 C1205 1.387 . S
C1204 H1208 0.950 . S
C1204 C1213 1.390 . S
C1205 C1204 1.387 . S
C1205 C1207 1.387 . S
H1206 C1213 0.950 . S
C1207 C1205 1.387 . S
C1207 C1209 1.390 . S
C1207 H1211 0.950 . S
H1208 C1204 0.950 . S
C1209 C1207 1.390 . S
C1209 C1210 1.387 . S
C1209 H1212 0.950 . S
C1210 C1209 1.387 . S
C1210 C1213 1.387 . S
H1211 C1207 0.950 . S
H1212 C1209 0.950 . S
C1213 C1204 1.390 . S
C1213 H1206 0.950 . S
C1213 C1210 1.387 . S
C1214 C1215 1.387 . S
C1214 H1218 0.950 . S
C1214 C1223 1.390 . S
C1215 C1214 1.387 . S
C1215 C1217 1.387 . S
H1216 C1223 0.950 . S
C1217 C1215 1.387 . S
C1217 C1219 1.390 . S
C1217 H1221 0.950 . S
H1218 C1214 0.950 . S
C1219 C1217 1.390 . S
C1219 C1220 1.387 . S
C1219 H1222 0.950 . S
C1220 C1219 1.387 . S
C1220 C1223 1.387 . S
H1221 C1217 0.950 . S
H1222 C1219 0.950 . S
C1223 C1214 1.390 . S
C1223 H1216 0.950 . S
C1223 C1220 1.387 . S
C1224 C1225 1.387 . S
C1224 H1228 0.950 . S
C1224 C1233 1.390 . S
C1225 C1224 1.387 . S
C1225 C1227 1.387 . S
H1226 C1233 0.950 . S
C1227 C1225 1.387 . S
C1227 C1229 1.390 . S
C1227 H1231 0.950 . S
H1228 C1224 0.950 . S
C1229 C1227 1.390 . S
C1229 C1230 1.387 . S
C1229 H1232 0.950 . S
C1230 C1229 1.387 . S
C1230 C1233 1.387 . S
H1231 C1227 0.950 . S
H1232 C1229 0.950 . S
C1233 C1224 1.390 . S
C1233 H1226 0.950 . S
C1233 C1230 1.387 . S
C1234 C1235 1.387 . S
C1234 H1238 0.950 . S
C1234 C1243 1.390 . S
C1235 C1234 1.387 . S
C1235 C1237 1.387 . S
H1236 C1243 0.950 . S
C1237 C1235 1.387 . S
C1237 C1239 1.390 . S
C1237 H1241 0.950 . S
H1238 C1234 0.950 . S
C1239 C1237 1.390 . S
C1239 C1240 1.387 . S
C1239 H1242 0.950 . S
C1240 C1239 1.387 . S
C1240 C1243 1.387 . S
H1241 C1237 0.950 . S
H1242 C1239 0.950 . S
C1243 C1234 1.390 . S
C1243 H1236 0.950 . S
C1243 C1240 1.387 . S
C1244 C1245 1.387 . S
C1244 H1248 0.950 . S
C1244 C1253 1.390 . S
C1245 C1244 1.387 . S
C1245 C1247 1.387 . S
H1246 C1253 0.950 . S
C1247 C1245 1.387 . S
C1247 C1249 1.390 . S
C1247 H1251 0.950 . S
H1248 C1244 0.950 . S
C1249 C1247 1.390 . S
C1249 C1250 1.387 . S
C1249 H1252 0.950 . S
C1250 C1249 1.387 . S
C1250 C1253 1.387 . S
H1251 C1247 0.950 . S
H1252 C1249 0.950 . S
C1253 C1244 1.390 . S
C1253 H1246 0.950 . S
C1253 C1250 1.387 . S
C1254 C1255 1.387 . S
C1254 H1258 0.950 . S
C1254 C1263 1.390 . S
C1255 C1254 1.387 . S
C1255 C1257 1.387 . S
H1256 C1263 0.950 . S
C1257 C1255 1.387 . S
C1257 C1259 1.390 . S
C1257 H1261 0.950 . S
H1258 C1254 0.950 . S
C1259 C1257 1.390 . S
C1259 C1260 1.387 . S
C1259 H1262 0.950 . S
C1260 C1259 1.387 . S
C1260 C1263 1.387 . S
H1261 C1257 0.950 . S
H1262 C1259 0.950 . S
C1263 C1254 1.390 . S
C1263 H1256 0.950 . S
C1263 C1260 1.387 . S
C1264 C1265 1.387 . S
C1264 H1268 0.950 . S
C1264 C1273 1.390 . S
C1265 C1264 1.387 . S
C1265 C1267 1.387 . S
H1266 C1273 0.950 . S
C1267 C1265 1.387 . S
C1267 C1269 1.390 . S
C1267 H1271 0.950 . S
H1268 C1264 0.950 . S
C1269 C1267 1.390 . S
C1269 C1270 1.387 . S
C1269 H1272 0.950 . S
C1270 C1269 1.387 . S
C1270 C1273 1.387 . S
H1271 C1267 0.950 . S
H1272 C1269 0.950 . S
C1273 C1264 1.390 . S
C1273 H1266 0.950 . S
C1273 C1270 1.387 . S
C1274 C1275 1.387 . S
C1274 H1278 0.950 . S
C1274 C1283 1.390 . S
C1275 C1274 1.387 . S
C1275 C1277 1.387 . S
H1276 C1283 0.950 . S
C1277 C1275 1.387 . S
C1277 C1279 1.390 . S
C1277 H1281 0.950 . S
H1278 C1274 0.950 . S
C1279 C1277 1.390 . S
C1279 C1280 1.387 . S
C1279 H1282 0.950 . S
C1280 C1279 1.387 . S
C1280 C1283 1.387 . S
H1281 C1277 0.950 . S
H1282 C1279 0.950 . S
C1283 C1274 1.390 . S
C1283 H1276 0.950 . S
C1283 C1280 1.387 . S
C1284 C1285 1.387 . S
C1284 H1288 0.950 . S
C1284 C1293 1.390 . S
C1285 C1284 1.387 . S
C1285 C1287 1.387 . S
H1286 C1293 0.950 . S
C1287 C1285 1.387 . S
C1287 C1289 1.390 . S
C1287 H1291 0.950 . S
H1288 C1284 0.950 . S
C1289 C1287 1.390 . S
C1289 C1290 1.387 . S
C1289 H1292 0.950 . S
C1290 C1289 1.387 . S
C1290 C1293 1.387 . S
H1291 C1287 0.950 . S
H1292 C1289 0.950 . S
C1293 C1284 1.390 . S
C1293 H1286 0.950 . S
C1293 C1290 1.387 . S
C1294 C1295 1.387 . S
C1294 H1298 0.950 . S
C1294 C1303 1.390 . S
C1295 C1294 1.387 . S
C1295 C1297 1.387 . S
H1296 C1303 0.950 . S
C1297 C1295 1.387 . S
C1297 C1299 1.390 . S
C1297 H1301 0.950 . S
H1298 C1294 0.950 . S
C1299 C1297 1.390 . S
C1299 C1300 1.387 . S
C1299 H1302 0.950 . S
C1300 C1299 1.387 . S
C1300 C1303 1.387 . S
H1301 C1297 0.950 . S
H1302 C1299 0.950 . S
C1303 C1294 1.390 . S
C1303 H1296 0.950 . S
C1303 C1300 1.387 . S
C1304 C1305 1.387 . S
C1304 H1308 0.950 . S
C1304 C1313 1.390 . S
C1305 C1304 1.387 . S
C1305 C1307 1.387 . S
H1306 C1313 0.950 . S
C1307 C1305 1.387 . S
C1307 C1309 1.390 . S
C1307 H1311 0.950 . S
H1308 C1304 0.950 . S
C1309 C1307 1.390 . S
C1309 C1310 1.387 . S
C1309 H1312 0.950 . S
C1310 C1309 1.387 . S
C1310 C1313 1.387 . S
H1311 C1307 0.950 . S
H1312 C1309 0.950 . S
C1313 C1304 1.390 . S
C1313 H1306 0.950 . S
C1313 C1310 1.387 . S
C1314 C1315 1.387 . S
C1314 H1318 0.950 . S
C1314 C1323 1.390 . S
C1315 C1314 1.387 . S
C1315 C1317 1.387 . S
H1316 C1323 0.950 . S
C1317 C1315 1.387 . S
C1317 C1319 1.390 . S
C1317 H1321 0.950 . S
H1318 C1314 0.950 . S
C1319 C1317 1.390 . S
C1319 C1320 1.387 . S
C1319 H1322 0.950 . S
C1320 C1319 1.387 . S
C1320 C1323 1.387 . S
H1321 C1317 0.950 . S
H1322 C1319 0.950 . S
C1323 C1314 1.390 . S
C1323 H1316 0.950 . S
C1323 C1320 1.387 . S
C1324 C1325 1.387 . S
C1324 H1328 0.950 . S
C1324 C1333 1.390 . S
C1325 C1324 1.387 . S
C1325 C1327 1.387 . S
H1326 C1333 0.950 . S
C1327 C1325 1.387 . S
C1327 C1329 1.390 . S
C1327 H1331 0.950 . S
H1328 C1324 0.950 . S
C1329 C1327 1.390 . S
C1329 C1330 1.387 . S
C1329 H1332 0.950 . S
C1330 C1329 1.387 . S
C1330 C1333 1.387 . S
H1331 C1327 0.950 . S
H1332 C1329 0.950 . S
C1333 C1324 1.390 . S
C1333 H1326 0.950 . S
C1333 C1330 1.387 . S
C1334 C1335 1.387 . S
C1334 H1338 0.950 . S
C1334 C1343 1.390 . S
C1335 C1334 1.387 . S
C1335 C1337 1.387 . S
H1336 C1343 0.950 . S
C1337 C1335 1.387 . S
C1337 C1339 1.390 . S
C1337 H1341 0.950 . S
H1338 C1334 0.950 . S
C1339 C1337 1.390 . S
C1339 C1340 1.387 . S
C1339 H1342 0.950 . S
C1340 C1339 1.387 . S
C1340 C1343 1.387 . S
H1341 C1337 0.950 . S
H1342 C1339 0.950 . S
C1343 C1334 1.390 . S
C1343 H1336 0.950 . S
C1343 C1340 1.387 . S
C865 C544 1.303 . S
C870 C4 1.297 . S
C875 C446 1.427 . S
C880 C50 1.412 . S
C885 C472 1.384 . S
C890 C86 1.362 . S
C895 C518 1.319 . S
C900 C112 1.349 . S
C905 C508 1.338 . S
C910 C40 1.319 . S
C915 C76 1.250 . S
C920 C554 1.217 . S
C925 C436 1.408 . S
C930 C122 1.376 . S
C935 C482 1.316 . S
C940 C14 1.310 . S
C945 C662 1.455 . S
C950 C158 1.449 . S
C955 C184 1.229 . S
C960 C688 1.226 . S
C965 C230 1.465 . S
C970 C590 1.471 . S
C975 C616 1.239 . S
C980 C256 1.236 . S
C985 C796 1.182 . S
C990 C292 1.186 . S
C995 C338 1.437 . S
C1000 C832 1.468 . S
C1005 C364 1.216 . S
C1010 C724 1.209 . S
C1015 C410 1.464 . S
C1020 C760 1.501 . S
C1025 C626 1.299 . S
C1030 C400 1.327 . S
C1035 C842 1.405 . S
C1040 C194 1.397 . S
C1045 C220 1.383 . S
C1050 C734 1.355 . S
C1055 C770 1.347 . S
C1060 C266 1.325 . S
C1065 C806 1.259 . S
C1070 C148 1.285 . S
C1075 C328 1.264 . S
C1080 C698 1.243 . S
C1085 C580 1.378 . S
C1090 C374 1.342 . S
C1095 C652 1.287 . S
C1100 C302 1.253 . S
C1105 C3 1.137 . S
C1110 C147 1.128 . S
C1115 C182 1.129 . S
C1120 C38 1.135 . S
C1125 C74 1.149 . S
C1130 C219 1.189 . S
C1135 C111 1.087 . S
C1140 C254 1.051 . S
C1145 C290 1.079 . S
C1150 C39 1.097 . S
C1155 C327 0.999 . S
C1160 C75 0.998 . S
C1165 C362 1.125 . S
C1170 C110 1.130 . S
C1175 C2 1.044 . S
C1180 C399 1.088 . S
C1185 C398 1.222 . S
C1190 C146 1.209 . S
C1195 C183 0.993 . S
C1200 C291 0.977 . S
C1205 C218 1.228 . S
C1210 C326 1.223 . S
C1215 C363 1.019 . S
C1220 C255 1.011 . S
C1225 C579 1.171 . S
C1230 C435 1.193 . S
C1235 C614 1.135 . S
C1240 C470 1.133 . S
C1245 C507 1.125 . S
C1250 C651 1.084 . S
C1255 C542 1.065 . S
C1260 C686 1.060 . S
C1265 C471 1.121 . S
C1270 C722 1.087 . S
C1275 C506 1.139 . S
C1280 C758 1.141 . S
C1285 C794 1.002 . S
C1290 C543 1.023 . S
C1295 C434 1.202 . S
C1300 C830 1.201 . S
C1305 C578 1.138 . S
C1310 C831 1.201 . S
C1315 C723 0.971 . S
C1320 C615 0.984 . S
C1325 C650 1.150 . S
C1330 C759 1.214 . S
C1335 C795 0.972 . S
C1340 C687 0.987 . S
