# Generated by pormake.
# Topology ske, (6)-cn, num edge types: 1
# Building blocks:
#     Node 0, Type 0, BuildingBlock: KUMJIN_clean_sbu_1, # of connection points: 6
#     Node 1, Type 0, BuildingBlock: KUMJIN_clean_sbu_1, # of connection points: 6
#     Node 2, Type 0, BuildingBlock: KUMJIN_clean_sbu_1, # of connection points: 6
#     Node 3, Type 0, BuildingBlock: KUMJIN_clean_sbu_1, # of connection points: 6
#     Node 4, Type 0, BuildingBlock: KUMJIN_clean_sbu_1, # of connection points: 6
#     Node 5, Type 0, BuildingBlock: KUMJIN_clean_sbu_1, # of connection points: 6
#     Node 6, Type 0, BuildingBlock: KUMJIN_clean_sbu_1, # of connection points: 6
#     Node 7, Type 0, BuildingBlock: KUMJIN_clean_sbu_1, # of connection points: 6
#     Edge 8, Type (0, 0), BuildingBlock: ZUJKAS_clean_linker_0, # of connection points: 2
#     Edge 9, Type (0, 0), BuildingBlock: ZUJKAS_clean_linker_0, # of connection points: 2
#     Edge 10, Type (0, 0), BuildingBlock: ZUJKAS_clean_linker_0, # of connection points: 2
#     Edge 11, Type (0, 0), BuildingBlock: ZUJKAS_clean_linker_0, # of connection points: 2
#     Edge 12, Type (0, 0), BuildingBlock: ZUJKAS_clean_linker_0, # of connection points: 2
#     Edge 13, Type (0, 0), BuildingBlock: ZUJKAS_clean_linker_0, # of connection points: 2
#     Edge 14, Type (0, 0), BuildingBlock: ZUJKAS_clean_linker_0, # of connection points: 2
#     Edge 15, Type (0, 0), BuildingBlock: ZUJKAS_clean_linker_0, # of connection points: 2
#     Edge 16, Type (0, 0), BuildingBlock: ZUJKAS_clean_linker_0, # of connection points: 2
#     Edge 17, Type (0, 0), BuildingBlock: ZUJKAS_clean_linker_0, # of connection points: 2
#     Edge 18, Type (0, 0), BuildingBlock: ZUJKAS_clean_linker_0, # of connection points: 2
#     Edge 19, Type (0, 0), BuildingBlock: ZUJKAS_clean_linker_0, # of connection points: 2
#     Edge 20, Type (0, 0), BuildingBlock: ZUJKAS_clean_linker_0, # of connection points: 2
#     Edge 21, Type (0, 0), BuildingBlock: ZUJKAS_clean_linker_0, # of connection points: 2
#     Edge 22, Type (0, 0), BuildingBlock: ZUJKAS_clean_linker_0, # of connection points: 2
#     Edge 23, Type (0, 0), BuildingBlock: ZUJKAS_clean_linker_0, # of connection points: 2
#     Edge 24, Type (0, 0), BuildingBlock: ZUJKAS_clean_linker_0, # of connection points: 2
#     Edge 25, Type (0, 0), BuildingBlock: ZUJKAS_clean_linker_0, # of connection points: 2
#     Edge 26, Type (0, 0), BuildingBlock: ZUJKAS_clean_linker_0, # of connection points: 2
#     Edge 27, Type (0, 0), BuildingBlock: ZUJKAS_clean_linker_0, # of connection points: 2
#     Edge 28, Type (0, 0), BuildingBlock: ZUJKAS_clean_linker_0, # of connection points: 2
#     Edge 29, Type (0, 0), BuildingBlock: ZUJKAS_clean_linker_0, # of connection points: 2
#     Edge 30, Type (0, 0), BuildingBlock: ZUJKAS_clean_linker_0, # of connection points: 2
#     Edge 31, Type (0, 0), BuildingBlock: ZUJKAS_clean_linker_0, # of connection points: 2
# Relax obj value: 0.219
# Max RMSD: 0.230
# Mean RMSD: 0.228
data_MOF--net-ske--node1-KUMJIN_clean_sbu_1--edge1-ZUJKAS_clean_linker_0
_symmetry_space_group_name_H-M    P1
_symmetry_Int_Tables_number       1
_symmetry_cell_setting            triclinic
loop_
_symmetry_equiv_pos_as_xyz
'x, y, z'
_cell_length_a     115.93738
_cell_length_b     38.917459
_cell_length_c     19.53555
_cell_angle_alpha  97.544419
_cell_angle_beta   90.00178
_cell_angle_gamma 89.992622
loop_
_atom_site_label
_atom_site_type_symbol
_atom_site_fract_x
_atom_site_fract_y
_atom_site_fract_z
_atom_type_partial_charge
Eu0 Eu 0.14942 0.25126 0.55841 0.0
C1 C 0.1048 0.21801 0.69667 0.0
N2 N 0.10883 0.20535 0.63282 0.0
C3 C 0.10472 0.14733 0.65469 0.0
C4 C 0.10097 0.19548 0.74296 0.0
C5 C 0.10813 0.17069 0.61002 0.0
C6 C 0.10131 0.15972 0.72187 0.0
C7 C 0.09904 0.26759 0.77848 0.0
C8 C 0.10385 0.25369 0.71454 0.0
C9 C 0.09548 0.2452 0.82512 0.0
C10 C 0.09651 0.20927 0.80762 0.0
Eu11 Eu 0.11454 0.24769 0.56255 0.0
N12 N 0.10749 0.27486 0.66889 0.0
C13 C 0.09781 0.30362 0.79324 0.0
C14 C 0.10587 0.30986 0.68147 0.0
C15 C 0.10115 0.32481 0.74425 0.0
H16 H 0.10985 0.16084 0.55686 0.0
H17 H 0.10005 0.35262 0.75472 0.0
H18 H 0.15451 0.32633 0.49851 0.0
H19 H 0.16464 0.12114 0.45708 0.0
H20 H 0.10834 0.32613 0.64311 0.0
H21 H 0.09415 0.31527 0.84185 0.0
H22 H 0.15757 0.16691 0.5463 0.0
H23 H 0.10446 0.11982 0.63668 0.0
H24 H 0.09176 0.25541 0.87452 0.0
H25 H 0.09357 0.19232 0.84383 0.0
H26 H 0.16248 0.34717 0.39375 0.0
H27 H 0.09847 0.14158 0.75598 0.0
H28 H 0.16994 0.13552 0.34149 0.0
N29 N 0.1568 0.27316 0.46017 0.0
C30 C 0.16097 0.2496 0.40869 0.0
C31 C 0.16205 0.31966 0.39715 0.0
C32 C 0.16541 0.2602 0.34763 0.0
C33 C 0.15759 0.30787 0.45636 0.0
C34 C 0.16583 0.29571 0.34211 0.0
N35 N 0.1574 0.20593 0.4795 0.0
C36 C 0.15924 0.17317 0.49503 0.0
C37 C 0.16562 0.18987 0.36639 0.0
C38 C 0.16106 0.2149 0.41812 0.0
C39 C 0.1665 0.15553 0.37989 0.0
C40 C 0.1635 0.14729 0.445 0.0
H41 H 0.1692 0.30489 0.29606 0.0
H42 H 0.17281 0.24279 0.24721 0.0
H43 H 0.17296 0.18116 0.26348 0.0
O44 O 0.1674 0.24085 0.58398 0.0
O45 O 0.13901 0.26476 0.46577 0.0
O46 O 0.12313 0.22923 0.45926 0.0
O47 O 0.15897 0.28668 0.63407 0.0
O48 O 0.14062 0.20149 0.5802 0.0
O49 O 0.12387 0.19858 0.51626 0.0
O50 O 0.10242 0.27873 0.51066 0.0
O51 O 0.12527 0.26781 0.65832 0.0
O52 O 0.14073 0.23162 0.6499 0.0
O53 O 0.09686 0.23001 0.54044 0.0
O54 O 0.12214 0.29847 0.539 0.0
O55 O 0.14026 0.30279 0.59082 0.0
C56 C 0.13116 0.24597 0.42932 0.0
C57 C 0.17925 0.28975 0.61717 0.0
C58 C 0.2002 0.29642 0.63041 0.0
C59 C 0.19947 0.32778 0.60205 0.0
C60 C 0.17878 0.32133 0.58988 0.0
C61 C 0.18884 0.34006 0.58205 0.0
C62 C 0.18998 0.27746 0.63764 0.0
C63 C 0.13275 0.18363 0.54227 0.0
C64 C 0.16864 0.26959 0.62539 0.0
C65 C 0.16948 0.23519 0.29481 0.0
C66 C 0.16954 0.20009 0.30405 0.0
C67 C 0.13282 0.24919 0.6876 0.0
C68 C 0.0873 0.24915 0.44594 0.0
C69 C 0.06846 0.24341 0.38889 0.0
C70 C 0.07414 0.23533 0.32506 0.0
C71 C 0.09276 0.24093 0.38191 0.0
C72 C 0.07518 0.25027 0.44928 0.0
C73 C 0.08618 0.23409 0.32178 0.0
C74 C 0.13115 0.31663 0.56422 0.0
C75 C 0.09402 0.25652 0.51003 0.0
H76 H 0.20709 0.34329 0.59668 0.0
H77 H 0.17064 0.33178 0.57521 0.0
H78 H 0.18839 0.3644 0.56102 0.0
H79 H 0.19037 0.25309 0.6588 0.0
H80 H 0.06926 0.22947 0.27768 0.0
H81 H 0.10209 0.23982 0.3785 0.0
H82 H 0.07101 0.25695 0.49892 0.0
H83 H 0.09044 0.2277 0.27241 0.0
Eu84 Eu 0.89755 0.25196 0.56788 0.0
C85 C 0.84891 0.25492 0.42449 0.0
N86 N 0.85401 0.2779 0.47352 0.0
C87 C 0.84779 0.32527 0.41566 0.0
C88 C 0.84341 0.26629 0.36711 0.0
C89 C 0.85328 0.31271 0.47111 0.0
C90 C 0.84295 0.30194 0.36297 0.0
C91 C 0.84335 0.19572 0.38393 0.0
C92 C 0.84885 0.22011 0.4331 0.0
C93 C 0.83839 0.20665 0.32481 0.0
C94 C 0.83838 0.24188 0.31656 0.0
Eu95 Eu 0.86253 0.25504 0.56723 0.0
N96 N 0.85344 0.21048 0.49176 0.0
C97 C 0.84258 0.16129 0.397 0.0
C98 C 0.85176 0.17768 0.50743 0.0
C99 C 0.84662 0.15239 0.45964 0.0
H100 H 0.85705 0.33071 0.51165 0.0
H101 H 0.84557 0.12621 0.47176 0.0
H102 H 0.90218 0.16531 0.56649 0.0
H103 H 0.91254 0.35856 0.75437 0.0
H104 H 0.85414 0.17105 0.55737 0.0
H105 H 0.83844 0.14176 0.3605 0.0
H106 H 0.90391 0.33093 0.64456 0.0
H107 H 0.84734 0.35288 0.41344 0.0
H108 H 0.83423 0.18821 0.28623 0.0
H109 H 0.83425 0.25005 0.27165 0.0
H110 H 0.90729 0.12525 0.64889 0.0
H111 H 0.83875 0.3117 0.31987 0.0
H112 H 0.91847 0.32236 0.84347 0.0
N113 N 0.90321 0.21052 0.6404 0.0
C114 C 0.90732 0.22386 0.70368 0.0
C115 C 0.90711 0.1529 0.66551 0.0
C116 C 0.91099 0.20193 0.75153 0.0
C117 C 0.90383 0.1757 0.61938 0.0
C118 C 0.9105 0.16604 0.73236 0.0
N119 N 0.90477 0.28017 0.67285 0.0
C120 C 0.90644 0.31516 0.68364 0.0
C121 C 0.91334 0.27415 0.78281 0.0
C122 C 0.90845 0.25958 0.71949 0.0
C123 C 0.91474 0.31019 0.79547 0.0
C124 C 0.91136 0.33075 0.7454 0.0
H125 H 0.91321 0.14833 0.76766 0.0
H126 H 0.91816 0.19994 0.85342 0.0
H127 H 0.92025 0.26315 0.88068 0.0
O128 O 0.90992 0.28318 0.51838 0.0
O129 O 0.88691 0.27187 0.6639 0.0
O130 O 0.87183 0.23438 0.65475 0.0
O131 O 0.91505 0.2331 0.54328 0.0
O132 O 0.88977 0.30189 0.54146 0.0
O133 O 0.87193 0.3064 0.59639 0.0
O134 O 0.84463 0.24664 0.5976 0.0
O135 O 0.87219 0.26733 0.47123 0.0
O136 O 0.88873 0.23407 0.46511 0.0
O137 O 0.85419 0.29004 0.64887 0.0
O138 O 0.87142 0.20467 0.58472 0.0
O139 O 0.88834 0.20253 0.52189 0.0
C140 C 0.87934 0.25324 0.693 0.0
C141 C 0.92491 0.25411 0.45155 0.0
C142 C 0.94375 0.24846 0.39446 0.0
C143 C 0.93806 0.24275 0.33025 0.0
C144 C 0.91945 0.24865 0.3871 0.0
C145 C 0.92602 0.24288 0.32678 0.0
C146 C 0.93703 0.25399 0.4551 0.0
C147 C 0.88078 0.32002 0.56696 0.0
C148 C 0.91815 0.26028 0.51571 0.0
C149 C 0.9154 0.21642 0.8159 0.0
C150 C 0.91663 0.25241 0.83134 0.0
C151 C 0.88042 0.24987 0.43532 0.0
C152 C 0.83404 0.29775 0.63466 0.0
C153 C 0.81314 0.3073 0.64111 0.0
C154 C 0.81485 0.34048 0.62167 0.0
C155 C 0.83547 0.33117 0.61607 0.0
C156 C 0.82284 0.28601 0.64763 0.0
C157 C 0.82592 0.35224 0.60937 0.0
C158 C 0.87939 0.18724 0.54657 0.0
C159 C 0.84414 0.27507 0.64067 0.0
H160 H 0.94292 0.23782 0.28261 0.0
H161 H 0.91015 0.24901 0.38362 0.0
H162 H 0.92175 0.2385 0.2771 0.0
H163 H 0.9412 0.25882 0.50511 0.0
H164 H 0.80763 0.35769 0.61718 0.0
H165 H 0.84396 0.34117 0.60699 0.0
H166 H 0.82168 0.26027 0.66204 0.0
H167 H 0.82712 0.37794 0.59501 0.0
Eu168 Eu 0.14963 0.74071 0.48802 0.0
C169 C 0.10399 0.75145 0.33048 0.0
N170 N 0.10768 0.77328 0.3861 0.0
C171 C 0.10189 0.82251 0.33274 0.0
C172 C 0.0995 0.76458 0.27203 0.0
C173 C 0.10642 0.80829 0.38915 0.0
C174 C 0.09852 0.80058 0.27364 0.0
C175 C 0.10086 0.69273 0.27512 0.0
C176 C 0.10464 0.71592 0.33237 0.0
C177 C 0.09689 0.70568 0.21555 0.0
C178 C 0.09615 0.74151 0.21414 0.0
Eu179 Eu 0.11449 0.74778 0.48066 0.0
N180 N 0.10836 0.70412 0.39127 0.0
C181 C 0.10078 0.65723 0.28026 0.0
C182 C 0.10721 0.66982 0.39848 0.0
C183 C 0.10376 0.64581 0.34268 0.0
H184 H 0.10899 0.82512 0.43508 0.0
H185 H 0.10314 0.61858 0.34838 0.0
H186 H 0.15491 0.65488 0.47818 0.0
H187 H 0.16584 0.84335 0.6799 0.0
H188 H 0.1086 0.66066 0.4475 0.0
H189 H 0.09795 0.63859 0.23744 0.0
H190 H 0.15713 0.81801 0.56875 0.0
H191 H 0.10103 0.85032 0.33478 0.0
H192 H 0.09406 0.6882 0.17093 0.0
H193 H 0.09285 0.7511 0.16834 0.0
H194 H 0.16025 0.61239 0.55591 0.0
H195 H 0.0951 0.81166 0.22979 0.0
H196 H 0.17094 0.80538 0.76759 0.0
N197 N 0.15547 0.698 0.55704 0.0
C198 C 0.15919 0.70979 0.62189 0.0
C199 C 0.15976 0.63964 0.57558 0.0
C200 C 0.16287 0.68664 0.66729 0.0
C201 C 0.15647 0.66371 0.53207 0.0
C202 C 0.16274 0.65107 0.644 0.0
N203 N 0.15702 0.76675 0.5949 0.0
C204 C 0.15924 0.80146 0.60726 0.0
C205 C 0.16522 0.75844 0.70481 0.0
C206 C 0.16025 0.74521 0.64087 0.0
C207 C 0.16711 0.79422 0.71914 0.0
C208 C 0.16422 0.81577 0.6698 0.0
H209 H 0.16548 0.63242 0.67726 0.0
H210 H 0.16984 0.68231 0.76877 0.0
H211 H 0.17197 0.74524 0.80145 0.0
O212 O 0.16251 0.77125 0.43923 0.0
O213 O 0.13923 0.76133 0.585 0.0
O214 O 0.12221 0.73088 0.57757 0.0
O215 O 0.16606 0.71818 0.45018 0.0
O216 O 0.1424 0.79304 0.46859 0.0
O217 O 0.12417 0.79744 0.51991 0.0
O218 O 0.09629 0.7357 0.49434 0.0
O219 O 0.12562 0.7626 0.39284 0.0
O220 O 0.14036 0.7234 0.38674 0.0
O221 O 0.10334 0.78316 0.54721 0.0
O222 O 0.1222 0.69808 0.50999 0.0
O223 O 0.13913 0.69272 0.44756 0.0
C224 C 0.13071 0.74613 0.61422 0.0
C225 C 0.18204 0.75579 0.45684 0.0
C226 C 0.20227 0.76897 0.43459 0.0
C227 C 0.20448 0.77105 0.50586 0.0
C228 C 0.18464 0.75737 0.52727 0.0
C229 C 0.19572 0.76526 0.55164 0.0
C230 C 0.19095 0.76129 0.41021 0.0
C231 C 0.13358 0.81134 0.49679 0.0
C232 C 0.17021 0.74667 0.43223 0.0
C233 C 0.16709 0.69972 0.73299 0.0
C234 C 0.16834 0.73555 0.75154 0.0
C235 C 0.1333 0.74312 0.35667 0.0
C236 C 0.08729 0.75852 0.59853 0.0
C237 C 0.06822 0.75347 0.65025 0.0
C238 C 0.07364 0.74842 0.71269 0.0
C239 C 0.09249 0.75333 0.66114 0.0
C240 C 0.07519 0.75855 0.59328 0.0
C241 C 0.08567 0.74835 0.71791 0.0
C242 C 0.1308 0.67931 0.48132 0.0
C243 C 0.09428 0.76333 0.53762 0.0
H244 H 0.21309 0.77625 0.52618 0.0
H245 H 0.17819 0.75179 0.56351 0.0
H246 H 0.19758 0.76632 0.6062 0.0
H247 H 0.18909 0.75953 0.35549 0.0
H248 H 0.06858 0.74492 0.75785 0.0
H249 H 0.10179 0.75315 0.66603 0.0
H250 H 0.07123 0.762 0.54438 0.0
H251 H 0.08972 0.74448 0.76623 0.0
Eu252 Eu 0.89725 0.74739 0.47525 0.0
C253 C 0.85131 0.71148 0.60909 0.0
N254 N 0.85496 0.70128 0.54346 0.0
C255 C 0.84916 0.64288 0.55244 0.0
C256 C 0.84694 0.68724 0.65023 0.0
C257 C 0.8532 0.66802 0.51337 0.0
C258 C 0.84627 0.65238 0.62171 0.0
C259 C 0.84618 0.75847 0.69821 0.0
C260 C 0.85096 0.74661 0.63302 0.0
C261 C 0.84237 0.73433 0.74068 0.0
C262 C 0.84282 0.69878 0.71694 0.0
Eu263 Eu 0.86233 0.74552 0.4831 0.0
N264 N 0.85472 0.76934 0.59088 0.0
C265 C 0.84505 0.79425 0.71779 0.0
C266 C 0.85307 0.80415 0.60781 0.0
C267 C 0.84835 0.81717 0.67191 0.0
H268 H 0.85481 0.66083 0.45894 0.0
H269 H 0.84727 0.84482 0.68592 0.0
H270 H 0.90311 0.82212 0.41822 0.0
H271 H 0.90775 0.61478 0.3588 0.0
H272 H 0.85559 0.82178 0.57215 0.0
H273 H 0.84142 0.80438 0.76745 0.0
H274 H 0.90259 0.66012 0.45304 0.0
H275 H 0.84808 0.61638 0.52871 0.0
H276 H 0.83876 0.74293 0.79118 0.0
H277 H 0.83954 0.68051 0.74952 0.0
H278 H 0.91072 0.84319 0.31267 0.0
H279 H 0.84297 0.63295 0.65157 0.0
H280 H 0.91289 0.63048 0.24411 0.0
N281 N 0.9038 0.76916 0.37552 0.0
C282 C 0.90718 0.74549 0.32195 0.0
C283 C 0.9097 0.81569 0.31445 0.0
C284 C 0.91165 0.75625 0.2611 0.0
C285 C 0.90536 0.80379 0.37384 0.0
C286 C 0.91276 0.79182 0.25754 0.0
N287 N 0.90287 0.70102 0.39018 0.0
C288 C 0.90393 0.66734 0.40224 0.0
C289 C 0.91015 0.68539 0.27448 0.0
C290 C 0.90645 0.71046 0.32891 0.0
C291 C 0.91014 0.65049 0.28467 0.0
C292 C 0.90721 0.64151 0.34924 0.0
H293 H 0.91614 0.80108 0.2116 0.0
H294 H 0.91864 0.73908 0.1596 0.0
H295 H 0.91709 0.67706 0.17059 0.0
O296 O 0.91533 0.73343 0.48781 0.0
O297 O 0.88596 0.76307 0.38835 0.0
O298 O 0.87114 0.72445 0.38213 0.0
O299 O 0.90898 0.78214 0.53898 0.0
O300 O 0.88872 0.69958 0.50762 0.0
O301 O 0.87198 0.69572 0.44385 0.0
O302 O 0.85202 0.77793 0.42309 0.0
O303 O 0.87276 0.76523 0.58051 0.0
O304 O 0.88932 0.73261 0.57399 0.0
O305 O 0.84428 0.73306 0.45786 0.0
O306 O 0.87029 0.79768 0.46961 0.0
O307 O 0.88899 0.79912 0.51434 0.0
C308 C 0.8786 0.74271 0.35143 0.0
C309 C 0.92464 0.75608 0.59094 0.0
C310 C 0.94361 0.75092 0.64382 0.0
C311 C 0.93808 0.74521 0.70551 0.0
C312 C 0.91932 0.75014 0.65275 0.0
C313 C 0.92604 0.74484 0.70976 0.0
C314 C 0.93675 0.75643 0.58665 0.0
C315 C 0.88 0.68157 0.47871 0.0
C316 C 0.91776 0.76117 0.5298 0.0
C317 C 0.9151 0.7313 0.20652 0.0
C318 C 0.91423 0.69598 0.21286 0.0
C319 C 0.88082 0.74843 0.61016 0.0
C320 C 0.83698 0.75008 0.35485 0.0
C321 C 0.81904 0.74381 0.28813 0.0
C322 C 0.82559 0.73417 0.22796 0.0
C323 C 0.8433 0.74038 0.29424 0.0
C324 C 0.82487 0.75168 0.35168 0.0
C325 C 0.83762 0.7325 0.23116 0.0
C326 C 0.87958 0.81448 0.49513 0.0
C327 C 0.84287 0.75848 0.42177 0.0
H328 H 0.94305 0.7414 0.75082 0.0
H329 H 0.91001 0.74957 0.65684 0.0
H330 H 0.92189 0.74041 0.75749 0.0
H331 H 0.94081 0.7604 0.5383 0.0
H332 H 0.82142 0.72745 0.17843 0.0
H333 H 0.8526 0.73897 0.29579 0.0
H334 H 0.82002 0.7595 0.39859 0.0
H335 H 0.84256 0.72496 0.18457 0.0
Eu336 Eu 0.65108 0.75484 0.04739 0.0
C337 C 0.60728 0.74988 0.2134 0.0
N338 N 0.61054 0.7272 0.15795 0.0
C339 C 0.60582 0.67915 0.21775 0.0
C340 C 0.60352 0.73784 0.27462 0.0
C341 C 0.6095 0.69229 0.15815 0.0
C342 C 0.60292 0.70202 0.27648 0.0
C343 C 0.60418 0.80925 0.26522 0.0
C344 C 0.60763 0.78518 0.2085 0.0
C345 C 0.60075 0.79741 0.327 0.0
C346 C 0.60037 0.7618 0.33155 0.0
Eu347 Eu 0.61625 0.75111 0.0588 0.0
N348 N 0.61076 0.79588 0.14748 0.0
C349 C 0.60387 0.84445 0.25743 0.0
C350 C 0.60946 0.82985 0.13808 0.0
C351 C 0.60633 0.85471 0.19322 0.0
H352 H 0.61164 0.67469 0.11246 0.0
H353 H 0.60557 0.88168 0.18572 0.0
H354 H 0.65917 0.8386 0.07914 0.0
H355 H 0.66434 0.66092 0.82919 0.0
H356 H 0.6105 0.83803 0.08784 0.0
H357 H 0.60129 0.86373 0.29979 0.0
H358 H 0.65768 0.68054 0.94868 0.0
H359 H 0.6052 0.65144 0.21832 0.0
H360 H 0.59813 0.81556 0.37113 0.0
H361 H 0.5975 0.75305 0.37913 0.0
H362 H 0.66505 0.88567 0.01309 0.0
H363 H 0.60009 0.69178 0.32263 0.0
H364 H 0.66872 0.70409 0.75048 0.0
N365 N 0.65804 0.80079 0.99052 0.0
C366 C 0.66083 0.79264 0.92285 0.0
C367 C 0.66368 0.85977 0.9867 0.0
C368 C 0.66456 0.81835 0.88328 0.0
C369 C 0.66018 0.83321 0.0238 0.0
C370 C 0.6656 0.8525 0.91568 0.0
N371 N 0.65797 0.73389 0.93577 0.0
C372 C 0.65963 0.69939 0.91427 0.0
C373 C 0.6648 0.74818 0.82663 0.0
C374 C 0.66098 0.75805 0.89486 0.0
C375 C 0.66578 0.71277 0.80251 0.0
C376 C 0.66335 0.68829 0.84688 0.0
H377 H 0.66843 0.87304 0.88716 0.0
H378 H 0.67044 0.82833 0.78242 0.0
H379 H 0.67074 0.76688 0.73298 0.0
O380 O 0.6615 0.72196 0.10573 0.0
O381 O 0.64021 0.73439 0.95274 0.0
O382 O 0.62366 0.76665 0.95871 0.0
O383 O 0.66931 0.76636 0.06963 0.0
O384 O 0.64345 0.70206 0.06045 0.0
O385 O 0.62467 0.70001 0.01694 0.0
O386 O 0.59811 0.7651 0.04861 0.0
O387 O 0.62813 0.73611 0.14397 0.0
O388 O 0.64261 0.77574 0.14954 0.0
O389 O 0.60428 0.716 0.9981 0.0
O390 O 0.6242 0.7998 0.02686 0.0
O391 O 0.64127 0.80432 0.08763 0.0
C392 C 0.63239 0.75186 0.92309 0.0
C393 C 0.6767 0.74958 0.17265 0.0
C394 C 0.69467 0.75494 0.23907 0.0
C395 C 0.6882 0.76542 0.29919 0.0
C396 C 0.67046 0.7602 0.23323 0.0
C397 C 0.6762 0.76802 0.29612 0.0
C398 C 0.68879 0.7471 0.17569 0.0
C399 C 0.63417 0.68492 0.03565 0.0
C400 C 0.67072 0.74107 0.10603 0.0
C401 C 0.66769 0.80889 0.81388 0.0
C402 C 0.66785 0.77386 0.7857 0.0
C403 C 0.63528 0.75727 0.18071 0.0
C404 C 0.58837 0.74143 0.94738 0.0
C405 C 0.56917 0.74611 0.89695 0.0
C406 C 0.57445 0.74925 0.83309 0.0
C407 C 0.59342 0.74496 0.88349 0.0
C408 C 0.57629 0.74218 0.95401 0.0
C409 C 0.58646 0.74878 0.82666 0.0
C410 C 0.63297 0.81817 0.05423 0.0
C411 C 0.59552 0.73705 1.00787 0.0
H412 H 0.69243 0.77213 0.34857 0.0
H413 H 0.66116 0.76239 0.23187 0.0
H414 H 0.67132 0.77624 0.34266 0.0
H415 H 0.69358 0.73863 0.12885 0.0
H416 H 0.56931 0.75164 0.7877 0.0
H417 H 0.60271 0.74465 0.87752 0.0
H418 H 0.57247 0.74011 1.00395 0.0
H419 H 0.5904 0.75125 0.77728 0.0
Eu420 Eu 0.39766 0.75482 0.06494 0.0
C421 C 0.3488 0.75677 0.9186 0.0
N422 N 0.35427 0.77955 0.96646 0.0
C423 C 0.34848 0.82692 0.9072 0.0
C424 C 0.34328 0.7682 0.86131 0.0
C425 C 0.35394 0.8143 0.96265 0.0
C426 C 0.34322 0.80374 0.85589 0.0
C427 C 0.34263 0.69791 0.88006 0.0
C428 C 0.34846 0.72211 0.92812 0.0
C429 C 0.33761 0.70888 0.82117 0.0
C430 C 0.33789 0.74397 0.81197 0.0
Eu431 Eu 0.36263 0.75662 0.06082 0.0
N432 N 0.35312 0.71248 0.98654 0.0
C433 C 0.34164 0.66367 0.89398 0.0
C434 C 0.35126 0.67994 1.00305 0.0
C435 C 0.3458 0.65481 0.95638 0.0
H436 H 0.35793 0.83226 1.00232 0.0
H437 H 0.34457 0.62884 0.96927 0.0
H438 H 0.40229 0.66914 0.07534 0.0
H439 H 0.4107 0.86711 0.24362 0.0
H440 H 0.35366 0.67356 0.05304 0.0
H441 H 0.33725 0.6443 0.85836 0.0
H442 H 0.40271 0.83598 0.13512 0.0
H443 H 0.34834 0.85448 0.90403 0.0
H444 H 0.33318 0.69059 0.78348 0.0
H445 H 0.33373 0.75219 0.76719 0.0
H446 H 0.40736 0.63229 0.16368 0.0
H447 H 0.33904 0.81356 0.81281 0.0
H448 H 0.41696 0.83413 0.33718 0.0
N449 N 0.40325 0.71629 0.14362 0.0
C450 C 0.40721 0.73165 0.20586 0.0
C451 C 0.40713 0.66019 0.17674 0.0
C452 C 0.41082 0.71159 0.25713 0.0
C453 C 0.40388 0.68116 0.12718 0.0
C454 C 0.41043 0.67545 0.24246 0.0
N455 N 0.40422 0.7864 0.16841 0.0
C456 C 0.40536 0.82158 0.17613 0.0
C457 C 0.41262 0.7842 0.28042 0.0
C458 C 0.40806 0.76758 0.21773 0.0
C459 C 0.41351 0.82042 0.28973 0.0
C460 C 0.40993 0.83916 0.23716 0.0
H461 H 0.41309 0.65914 0.28051 0.0
H462 H 0.41769 0.71309 0.36068 0.0
H463 H 0.41933 0.77662 0.38088 0.0
O464 O 0.41044 0.78577 0.01819 0.0
O465 O 0.38651 0.77446 0.1587 0.0
O466 O 0.37162 0.73633 0.15001 0.0
O467 O 0.41513 0.7351 0.04217 0.0
O468 O 0.38973 0.80312 0.03213 0.0
O469 O 0.37213 0.80793 0.08918 0.0
O470 O 0.34482 0.74817 0.09275 0.0
O471 O 0.37228 0.76672 0.96326 0.0
O472 O 0.38933 0.73573 0.96103 0.0
O473 O 0.35417 0.79301 0.13975 0.0
O474 O 0.37138 0.70585 0.07802 0.0
O475 O 0.38891 0.70438 0.02078 0.0
C476 C 0.37922 0.755 0.18789 0.0
C477 C 0.42556 0.75663 0.95287 0.0
C478 C 0.44464 0.7511 0.89895 0.0
C479 C 0.4393 0.7477 0.83371 0.0
C480 C 0.42043 0.75343 0.88743 0.0
C481 C 0.42728 0.74878 0.82816 0.0
C482 C 0.43765 0.75529 0.95847 0.0
C483 C 0.38071 0.82123 0.0568 0.0
C484 C 0.41852 0.76242 0.01598 0.0
C485 C 0.41499 0.72811 0.32058 0.0
C486 C 0.41596 0.76429 0.332 0.0
C487 C 0.3809 0.75011 0.92938 0.0
C488 C 0.33395 0.79916 0.1247 0.0
C489 C 0.31301 0.8077 0.13095 0.0
C490 C 0.31441 0.83932 0.10439 0.0
C491 C 0.33509 0.83127 0.09987 0.0
C492 C 0.32286 0.78765 0.14093 0.0
C493 C 0.32537 0.85101 0.0893 0.0
C494 C 0.37983 0.68879 0.0433 0.0
C495 C 0.3442 0.77743 0.1332 0.0
H496 H 0.4444 0.74399 0.7869 0.0
H497 H 0.41116 0.75488 0.88238 0.0
H498 H 0.42327 0.74623 0.77771 0.0
H499 H 0.44159 0.7584 1.00923 0.0
H500 H 0.30703 0.85549 0.09688 0.0
H501 H 0.34349 0.84128 0.08886 0.0
H502 H 0.32191 0.76305 0.16072 0.0
H503 H 0.32635 0.87564 0.06985 0.0
Eu504 Eu 0.6504 0.24249 0.9723 0.0
C505 C 0.60697 0.24613 0.80388 0.0
N506 N 0.60976 0.26926 0.85965 0.0
C507 C 0.60489 0.31658 0.79815 0.0
C508 C 0.60352 0.25756 0.74144 0.0
C509 C 0.6084 0.30402 0.85872 0.0
C510 C 0.60257 0.29327 0.73899 0.0
C511 C 0.60466 0.18639 0.75249 0.0
C512 C 0.60756 0.21097 0.80957 0.0
C513 C 0.60172 0.19761 0.68924 0.0
C514 C 0.60112 0.23311 0.68378 0.0
Eu515 Eu 0.61554 0.24635 0.9599 0.0
N516 N 0.61037 0.20089 0.87164 0.0
C517 C 0.60441 0.1513 0.76128 0.0
C518 C 0.60904 0.16704 0.88186 0.0
C519 C 0.60637 0.14168 0.82662 0.0
H520 H 0.61022 0.32194 0.90455 0.0
H521 H 0.60563 0.11479 0.83479 0.0
H522 H 0.65742 0.15738 0.95179 0.0
H523 H 0.66526 0.34194 0.17549 0.0
H524 H 0.60975 0.15935 0.93272 0.0
H525 H 0.60223 0.13162 0.71874 0.0
H526 H 0.65751 0.31872 0.06029 0.0
H527 H 0.60402 0.34419 0.79702 0.0
H528 H 0.5996 0.17905 0.64469 0.0
H529 H 0.59863 0.24138 0.63504 0.0
H530 H 0.66291 0.11279 0.02484 0.0
H531 H 0.59995 0.30308 0.69197 0.0
H532 H 0.67003 0.3018 0.25981 0.0
N533 N 0.6571 0.19832 0.0352 0.0
C534 C 0.66038 0.20867 0.10146 0.0
C535 C 0.66205 0.13959 0.04741 0.0
C536 C 0.66407 0.18444 0.14457 0.0
C537 C 0.65869 0.16476 1.00648 0.0
C538 C 0.6645 0.14936 0.11725 0.0
N539 N 0.65777 0.26646 0.08063 0.0
C540 C 0.65963 0.3012 0.09703 0.0
C541 C 0.66532 0.2558 0.19065 0.0
C542 C 0.66099 0.24384 0.12439 0.0
C543 C 0.6667 0.29157 0.20942 0.0
C544 C 0.66402 0.31433 0.16196 0.0
H545 H 0.66725 0.12991 0.14867 0.0
H546 H 0.67039 0.17786 0.2465 0.0
H547 H 0.67149 0.24041 0.28685 0.0
O548 O 0.66836 0.22843 0.94756 0.0
O549 O 0.63975 0.26261 0.06859 0.0
O550 O 0.62291 0.23125 0.0601 0.0
O551 O 0.66121 0.27443 0.91408 0.0
O552 O 0.64279 0.29509 0.95822 0.0
O553 O 0.62404 0.29736 1.00194 0.0
O554 O 0.5974 0.2323 0.97026 0.0
O555 O 0.62741 0.26199 0.87553 0.0
O556 O 0.64177 0.22204 0.87035 0.0
O557 O 0.60351 0.2816 0.01995 0.0
O558 O 0.62351 0.19787 0.99297 0.0
O559 O 0.64055 0.19322 0.93198 0.0
C560 C 0.63144 0.24632 0.09726 0.0
C561 C 0.67583 0.24529 0.84481 0.0
C562 C 0.69327 0.2434 0.77372 0.0
C563 C 0.68667 0.22937 0.71622 0.0
C564 C 0.66947 0.23119 0.78684 0.0
C565 C 0.67487 0.22333 0.72289 0.0
C566 C 0.68773 0.25121 0.83822 0.0
C567 C 0.63358 0.31234 0.98358 0.0
C568 C 0.67013 0.25399 0.91225 0.0
C569 C 0.66768 0.19612 0.21231 0.0
C570 C 0.66834 0.23174 0.23524 0.0
C571 C 0.63468 0.24116 0.83907 0.0
C572 C 0.58775 0.25605 0.0717 0.0
C573 C 0.56865 0.25165 0.12361 0.0
C574 C 0.57406 0.24801 0.18686 0.0
C575 C 0.59292 0.25205 0.13503 0.0
C576 C 0.57565 0.25568 0.06611 0.0
C577 C 0.58608 0.24812 0.19229 0.0
C578 C 0.63226 0.17945 0.96548 0.0
C579 C 0.59479 0.26041 1.01074 0.0
H580 H 0.69066 0.22265 0.66612 0.0
H581 H 0.66034 0.22628 0.79108 0.0
H582 H 0.6699 0.21247 0.67833 0.0
H583 H 0.6926 0.26239 0.88301 0.0
H584 H 0.56901 0.24551 0.23255 0.0
H585 H 0.60223 0.25205 0.14021 0.0
H586 H 0.57173 0.2581 0.0166 0.0
H587 H 0.59012 0.24527 0.24121 0.0
Eu588 Eu 0.39723 0.24797 0.95521 0.0
C589 C 0.34836 0.24584 0.09998 0.0
N590 N 0.35366 0.22339 0.05082 0.0
C591 C 0.3477 0.17535 0.10759 0.0
C592 C 0.34282 0.23386 0.15663 0.0
C593 C 0.35318 0.1885 0.05277 0.0
C594 C 0.34259 0.19814 0.16013 0.0
C595 C 0.34263 0.30471 0.14223 0.0
C596 C 0.34826 0.28079 0.09266 0.0
C597 C 0.33756 0.29311 0.20035 0.0
C598 C 0.33761 0.25775 0.2074 0.0
Eu599 Eu 0.36217 0.2473 0.95808 0.0
N600 N 0.353 0.29109 0.03503 0.0
C601 C 0.3419 0.33936 0.13061 0.0
C602 C 0.3514 0.32415 0.0208 0.0
C603 C 0.34613 0.34898 0.06899 0.0
H604 H 0.35702 0.17082 1.01202 0.0
H605 H 0.3451 0.37534 0.05788 0.0
H606 H 0.40226 0.33357 0.9461 0.0
H607 H 0.41028 0.13575 0.7763 0.0
H608 H 0.35384 0.33122 0.97144 0.0
H609 H 0.33767 0.35853 0.16743 0.0
H610 H 0.40224 0.16684 0.8847 0.0
H611 H 0.34744 0.14768 0.10929 0.0
H612 H 0.33328 0.31117 0.23918 0.0
H613 H 0.33343 0.24909 0.25171 0.0
H614 H 0.4076 0.37055 0.8585 0.0
H615 H 0.33839 0.1879 0.2027 0.0
H616 H 0.4167 0.1688 0.68325 0.0
N617 N 0.40309 0.28657 0.87729 0.0
C618 C 0.40708 0.27127 0.81505 0.0
C619 C 0.40726 0.34268 0.84507 0.0
C620 C 0.41083 0.29138 0.7642 0.0
C621 C 0.40385 0.32165 0.8942 0.0
C622 C 0.41057 0.32751 0.77932 0.0
N623 N 0.40389 0.21647 0.85184 0.0
C624 C 0.40496 0.18127 0.84391 0.0
C625 C 0.41242 0.21873 0.74021 0.0
C626 C 0.40783 0.23532 0.80285 0.0
C627 C 0.41323 0.18249 0.73065 0.0
C628 C 0.40956 0.16372 0.78293 0.0
H629 H 0.41335 0.34386 0.74162 0.0
H630 H 0.41784 0.28996 0.66099 0.0
H631 H 0.41928 0.2264 0.64016 0.0
O632 O 0.40974 0.2165 1.00294 0.0
O633 O 0.38622 0.22871 0.86066 0.0
O634 O 0.37147 0.26732 0.86966 0.0
O635 O 0.41478 0.26686 0.97888 0.0
O636 O 0.389 0.19971 0.9863 0.0
O637 O 0.37143 0.19563 0.92872 0.0
O638 O 0.34453 0.25791 0.92597 0.0
O639 O 0.37171 0.23622 0.05536 0.0
O640 O 0.38876 0.26717 0.05857 0.0
O641 O 0.35334 0.21205 0.87878 0.0
O642 O 0.37116 0.29778 0.94152 0.0
O643 O 0.38863 0.29868 0.99935 0.0
C644 C 0.37893 0.2482 0.83156 0.0
C645 C 0.42496 0.24491 0.0687 0.0
C646 C 0.44402 0.24966 0.12316 0.0
C647 C 0.43862 0.25309 0.18825 0.0
C648 C 0.41978 0.24817 0.134 0.0
C649 C 0.42659 0.25243 0.19346 0.0
C650 C 0.43706 0.24583 0.06345 0.0
C651 C 0.38001 0.18185 0.96032 0.0
C652 C 0.41796 0.23942 1.00537 0.0
C653 C 0.41502 0.2749 0.70077 0.0
C654 C 0.41588 0.2387 0.689 0.0
C655 C 0.38031 0.25266 0.08975 0.0
C656 C 0.33294 0.20875 0.89034 0.0
C657 C 0.31199 0.2027 0.87614 0.0
C658 C 0.31261 0.17072 0.90219 0.0
C659 C 0.3333 0.17651 0.9152 0.0
C660 C 0.32225 0.22166 0.87047 0.0
C661 C 0.32319 0.15779 0.92142 0.0
C662 C 0.37963 0.31457 0.97654 0.0
C663 C 0.34361 0.22903 0.88457 0.0
H664 H 0.44369 0.25652 0.2352 0.0
H665 H 0.4105 0.24705 0.13881 0.0
H666 H 0.42254 0.25503 0.24379 0.0
H667 H 0.44105 0.2427 0.0128 0.0
H668 H 0.30494 0.15524 0.90634 0.0
H669 H 0.34139 0.16557 0.92935 0.0
H670 H 0.32194 0.2465 0.85112 0.0
H671 H 0.32356 0.13297 0.94067 0.0
H672 H 0.2052 0.26804 0.74858 0.0
H673 H 0.22421 0.25257 0.79027 0.0
H674 H 0.23999 0.28214 0.60694 0.0
H675 H 0.22107 0.29751 0.56485 0.0
H676 H 0.24089 0.2054 0.73209 0.0
H677 H 0.25799 0.33969 0.76147 0.0
H678 H 0.24284 0.33009 0.74931 0.0
H679 H 0.25253 0.32471 0.67681 0.0
C680 C 0.2127 0.27088 0.71675 0.0
C681 C 0.2116 0.28437 0.65365 0.0
C682 C 0.22357 0.26221 0.74085 0.0
C683 C 0.23357 0.26694 0.70251 0.0
C684 C 0.23245 0.27918 0.63837 0.0
H685 H 0.30707 0.23245 0.7595 0.0
H686 H 0.28808 0.24843 0.71828 0.0
C687 C 0.22161 0.28789 0.61432 0.0
C688 C 0.24516 0.259 0.72937 0.0
H689 H 0.27138 0.29506 0.77587 0.0
C690 C 0.24753 0.22503 0.742 0.0
C691 C 0.25385 0.28462 0.74214 0.0
C692 C 0.25168 0.3219 0.73238 0.0
C693 C 0.25841 0.21583 0.76576 0.0
C694 C 0.26711 0.24145 0.77861 0.0
C695 C 0.26473 0.27543 0.76596 0.0
C696 C 0.2787 0.23348 0.80545 0.0
C697 C 0.26058 0.17851 0.77528 0.0
C698 C 0.2798 0.22082 0.86918 0.0
C699 C 0.29062 0.21175 0.89288 0.0
C700 C 0.30063 0.2154 0.85366 0.0
C701 C 0.29957 0.22947 0.79116 0.0
C702 C 0.2887 0.23844 0.76736 0.0
H703 H 0.25431 0.16075 0.74579 0.0
H704 H 0.26944 0.17038 0.75866 0.0
H705 H 0.25966 0.17557 0.83075 0.0
H706 H 0.27225 0.2177 0.90048 0.0
H707 H 0.29115 0.20168 0.9419 0.0
H708 H 0.711 0.23059 0.8604 0.0
H709 H 0.73171 0.24029 0.84498 0.0
H710 H 0.7247 0.27958 0.6529 0.0
H711 H 0.70406 0.27075 0.66859 0.0
H712 H 0.74617 0.21217 0.73353 0.0
H713 H 0.74479 0.35565 0.75881 0.0
H714 H 0.73308 0.33017 0.78649 0.0
H715 H 0.73476 0.33489 0.69668 0.0
C716 C 0.71386 0.24172 0.81534 0.0
C717 C 0.70585 0.24994 0.7658 0.0
C718 C 0.7257 0.24702 0.80638 0.0
C719 C 0.72975 0.26102 0.74817 0.0
C720 C 0.72178 0.26922 0.69873 0.0
H721 H 0.7936 0.31472 0.56615 0.0
H722 H 0.77376 0.30125 0.59512 0.0
C723 C 0.70997 0.26384 0.70747 0.0
C724 C 0.7423 0.2665 0.73795 0.0
H725 H 0.76209 0.32869 0.71315 0.0
C726 C 0.7497 0.23767 0.72977 0.0
C727 C 0.74688 0.29979 0.73323 0.0
C728 C 0.7395 0.33196 0.74491 0.0
C729 C 0.76147 0.24107 0.71417 0.0
C730 C 0.76599 0.27429 0.70768 0.0
C731 C 0.75862 0.30319 0.71763 0.0
C732 C 0.77821 0.2798 0.68835 0.0
C733 C 0.76887 0.20896 0.70224 0.0
C734 C 0.78738 0.27188 0.7307 0.0
C735 C 0.79879 0.27957 0.71416 0.0
C736 C 0.80122 0.29567 0.65535 0.0
C737 C 0.79203 0.30275 0.6123 0.0
C738 C 0.78067 0.29498 0.6287 0.0
H739 H 0.76359 0.18498 0.69318 0.0
H740 H 0.77469 0.20985 0.65733 0.0
H741 H 0.77431 0.20745 0.74851 0.0
H742 H 0.78569 0.26075 0.77768 0.0
H743 H 0.80565 0.27417 0.74882 0.0
H744 H 0.29321 0.80707 0.05484 0.0
H745 H 0.27352 0.79619 0.09193 0.0
H746 H 0.28651 0.77395 0.28828 0.0
H747 H 0.30626 0.78411 0.25076 0.0
H748 H 0.26893 0.7303 0.24138 0.0
H749 H 0.25633 0.86652 0.2246 0.0
H750 H 0.26151 0.8437 0.14474 0.0
H751 H 0.27111 0.85207 0.21737 0.0
C752 C 0.29186 0.7996 0.10574 0.0
C753 C 0.30127 0.79682 0.1502 0.0
C754 C 0.28061 0.79354 0.12699 0.0
C755 C 0.27849 0.78515 0.1936 0.0
C756 C 0.28791 0.78063 0.23681 0.0
H757 H 0.21891 0.81889 0.45087 0.0
H758 H 0.23673 0.82114 0.38531 0.0
C759 C 0.2992 0.78633 0.21528 0.0
C760 C 0.26646 0.78254 0.21939 0.0
H761 H 0.24164 0.82907 0.25356 0.0
C762 C 0.26294 0.75182 0.24375 0.0
C763 C 0.25868 0.8108 0.22324 0.0
C764 C 0.2621 0.84525 0.20174 0.0
C765 C 0.25191 0.74869 0.27246 0.0
C766 C 0.24409 0.77683 0.27557 0.0
C767 C 0.24757 0.80736 0.25037 0.0
C768 C 0.23271 0.77649 0.31095 0.0
C769 C 0.24893 0.71582 0.30181 0.0
C770 C 0.22427 0.75139 0.28966 0.0
C771 C 0.21403 0.74992 0.32757 0.0
C772 C 0.21206 0.77362 0.38725 0.0
C773 C 0.22024 0.7999 0.40581 0.0
C774 C 0.23043 0.80129 0.3682 0.0
H775 H 0.25671 0.70004 0.30919 0.0
H776 H 0.24445 0.72175 0.35221 0.0
H777 H 0.24306 0.69989 0.26567 0.0
H778 H 0.2257 0.73248 0.24466 0.0
H779 H 0.20791 0.72934 0.31199 0.0
H780 H 0.70769 0.72896 0.33762 0.0
H781 H 0.72871 0.72694 0.34641 0.0
H782 H 0.7318 0.77288 0.15811 0.0
H783 H 0.71075 0.77511 0.14899 0.0
H784 H 0.74659 0.7168 0.16317 0.0
H785 H 0.74993 0.80926 0.40404 0.0
H786 H 0.74049 0.77326 0.41048 0.0
H787 H 0.7369 0.80421 0.35313 0.0
C788 C 0.71283 0.73894 0.29834 0.0
C789 C 0.7075 0.75248 0.24288 0.0
C790 C 0.72486 0.73779 0.30351 0.0
C791 C 0.73185 0.75038 0.25367 0.0
C792 C 0.72658 0.76318 0.19739 0.0
H793 H 0.80582 0.76921 0.18976 0.0
H794 H 0.78479 0.7703 0.18123 0.0
C795 C 0.71454 0.76428 0.19208 0.0
C796 C 0.74464 0.74982 0.25983 0.0
H797 H 0.76708 0.77979 0.36468 0.0
C798 C 0.75108 0.7307 0.20706 0.0
C799 C 0.7505 0.7679 0.31724 0.0
C800 C 0.74413 0.79009 0.3742 0.0
C801 C 0.76317 0.72868 0.21064 0.0
C802 C 0.76903 0.7468 0.26799 0.0
C803 C 0.76259 0.76587 0.32083 0.0
C804 C 0.78183 0.74654 0.27378 0.0
C805 C 0.76955 0.70651 0.15368 0.0
C806 C 0.78719 0.7338 0.32981 0.0
C807 C 0.79925 0.73319 0.33493 0.0
C808 C 0.80619 0.74546 0.28423 0.0
C809 C 0.80076 0.75887 0.22896 0.0
C810 C 0.78872 0.7595 0.22395 0.0
H811 H 0.76376 0.68726 0.12397 0.0
H812 H 0.77315 0.72334 0.1173 0.0
H813 H 0.77681 0.69249 0.17472 0.0
H814 H 0.78205 0.72382 0.36908 0.0
H815 H 0.80312 0.72243 0.37787 0.0
H816 H 0.1205 0.85925 0.57715 0.0
H817 H 0.12084 0.92216 0.58047 0.0
H818 H 0.14761 0.91298 0.42581 0.0
H819 H 0.14763 0.85002 0.42406 0.0
H820 H 0.15226 0.96463 0.52276 0.0
H821 H 0.10686 0.97728 0.44312 0.0
H822 H 0.10793 0.95651 0.5195 0.0
H823 H 0.11393 0.93581 0.43944 0.0
C824 C 0.12646 0.87058 0.54375 0.0
C825 C 0.13399 0.84957 0.50003 0.0
C826 C 0.12658 0.90659 0.54531 0.0
C827 C 0.13404 0.92234 0.50209 0.0
C828 C 0.14171 0.90145 0.45928 0.0
H829 H 0.12526 0.13839 0.4329 0.0
H830 H 0.12618 0.0749 0.41928 0.0
C831 C 0.14172 0.86544 0.45839 0.0
C832 C 0.134 0.96061 0.50266 0.0
H833 H 0.11634 0.02975 0.48991 0.0
C834 C 0.14442 0.97883 0.51503 0.0
C835 C 0.12383 0.97918 0.49109 0.0
C836 C 0.11254 0.96114 0.47178 0.0
C837 C 0.14488 0.01507 0.51807 0.0
C838 C 0.13457 0.03379 0.51082 0.0
C839 C 0.12422 0.01551 0.49651 0.0
C840 C 0.13429 0.07232 0.51837 0.0
C841 C 0.15645 0.03279 0.52783 0.0
C842 C 0.13841 0.09203 0.57881 0.0
C843 C 0.13803 0.12822 0.58618 0.0
C844 C 0.1333 0.14538 0.53385 0.0
C845 C 0.12896 0.12573 0.47396 0.0
C846 C 0.12949 0.08951 0.46619 0.0
H847 H 0.1636 0.01483 0.50969 0.0
H848 H 0.15693 0.05575 0.49968 0.0
H849 H 0.15784 0.0415 0.58361 0.0
H850 H 0.14181 0.07944 0.62076 0.0
H851 H 0.14125 0.14277 0.63339 0.0
H852 H 0.89404 0.35437 0.48259 0.0
H853 H 0.89327 0.41555 0.46786 0.0
H854 H 0.8662 0.43192 0.62011 0.0
H855 H 0.86666 0.37027 0.63374 0.0
H856 H 0.86149 0.46448 0.51044 0.0
H857 H 0.90628 0.49517 0.5957 0.0
H858 H 0.90568 0.46079 0.52507 0.0
H859 H 0.89941 0.45472 0.60698 0.0
C860 C 0.88798 0.37098 0.51348 0.0
C861 C 0.8805 0.35746 0.55996 0.0
C862 C 0.88758 0.40604 0.50512 0.0
C863 C 0.87986 0.42854 0.54396 0.0
C864 C 0.87229 0.4151 0.58991 0.0
H865 H 0.8863 0.65208 0.59092 0.0
H866 H 0.88543 0.59095 0.60684 0.0
C867 C 0.87259 0.37987 0.59781 0.0
C868 C 0.87958 0.46595 0.5357 0.0
H869 H 0.89655 0.53789 0.54043 0.0
C870 C 0.86914 0.48062 0.51738 0.0
C871 C 0.88952 0.48714 0.54571 0.0
C872 C 0.90082 0.47376 0.57016 0.0
C873 C 0.8684 0.51573 0.50786 0.0
C874 C 0.87846 0.53653 0.515 0.0
C875 C 0.88886 0.52191 0.53412 0.0
C876 C 0.87839 0.57381 0.50543 0.0
C877 C 0.8568 0.53038 0.49211 0.0
C878 C 0.87475 0.58467 0.44302 0.0
C879 C 0.87511 0.61981 0.43421 0.0
C880 C 0.8793 0.64449 0.48724 0.0
C881 C 0.88306 0.63355 0.54917 0.0
C882 C 0.88255 0.59863 0.55832 0.0
H883 H 0.84961 0.51401 0.50711 0.0
H884 H 0.8557 0.55701 0.51951 0.0
H885 H 0.85611 0.53148 0.43579 0.0
H886 H 0.87182 0.56596 0.4007 0.0
H887 H 0.87231 0.62762 0.38564 0.0
H888 H 0.86148 0.85721 0.47385 0.0
H889 H 0.86157 0.92029 0.48177 0.0
H890 H 0.8977 0.92197 0.53487 0.0
H891 H 0.89759 0.85902 0.53011 0.0
H892 H 0.88656 0.97103 0.61437 0.0
H893 H 0.87407 0.97763 0.34289 0.0
H894 H 0.86372 0.9544 0.38723 0.0
H895 H 0.87812 0.93754 0.37338 0.0
C896 C 0.86946 0.87092 0.48728 0.0
C897 C 0.87955 0.85288 0.50083 0.0
C898 C 0.86952 0.90705 0.49114 0.0
C899 C 0.87971 0.92588 0.50723 0.0
C900 C 0.88975 0.908 0.52181 0.0
H901 H 0.8897 0.14192 0.44641 0.0
H902 H 0.89014 0.07855 0.43747 0.0
C903 C 0.88967 0.87193 0.51891 0.0
C904 C 0.87986 0.96425 0.51059 0.0
H905 H 0.87342 0.0308 0.41914 0.0
C906 C 0.88374 0.98407 0.57151 0.0
C907 C 0.8764 0.98131 0.45424 0.0
C908 C 0.87296 0.96161 0.38552 0.0
C909 C 0.88405 0.02042 0.57813 0.0
C910 C 0.88001 0.0375 0.5231 0.0
C911 C 0.87635 0.0177 0.46167 0.0
C912 C 0.87959 0.07589 0.52807 0.0
C913 C 0.88892 0.04005 0.64353 0.0
C914 C 0.87336 0.09542 0.58121 0.0
C915 C 0.87323 0.13157 0.58695 0.0
C916 C 0.87913 0.1489 0.53876 0.0
C917 C 0.88511 0.12928 0.48445 0.0
C918 C 0.88534 0.0931 0.47919 0.0
H919 H 0.89479 0.02355 0.67021 0.0
H920 H 0.89375 0.0634 0.63275 0.0
H921 H 0.88175 0.0485 0.67943 0.0
H922 H 0.86862 0.08272 0.61853 0.0
H923 H 0.86863 0.14594 0.62972 0.0
H924 H 0.1247 0.65005 0.59428 0.0
H925 H 0.12556 0.58885 0.61024 0.0
H926 H 0.13773 0.56326 0.40091 0.0
H927 H 0.13738 0.62493 0.38609 0.0
H928 H 0.11443 0.53551 0.55161 0.0
H929 H 0.16083 0.51161 0.49787 0.0
H930 H 0.1547 0.55452 0.50781 0.0
H931 H 0.15351 0.5268 0.42677 0.0
C932 C 0.12758 0.63131 0.55176 0.0
C933 C 0.13104 0.64209 0.4891 0.0
C934 C 0.1281 0.59636 0.56093 0.0
C935 C 0.13192 0.57134 0.50728 0.0
C936 C 0.13511 0.58206 0.44388 0.0
H937 H 0.11659 0.35214 0.48894 0.0
H938 H 0.11694 0.41357 0.47654 0.0
C939 C 0.1348 0.61721 0.43515 0.0
C940 C 0.13211 0.53405 0.51738 0.0
H941 H 0.14913 0.46172 0.50423 0.0
C942 C 0.12205 0.51949 0.54162 0.0
C943 C 0.14209 0.51308 0.50535 0.0
C944 C 0.15342 0.52738 0.4837 0.0
C945 C 0.12165 0.4847 0.55339 0.0
C946 C 0.13146 0.46337 0.5384 0.0
C947 C 0.14157 0.47796 0.51511 0.0
C948 C 0.13136 0.42583 0.54584 0.0
C949 C 0.11076 0.4714 0.58316 0.0
C950 C 0.13961 0.41184 0.5871 0.0
C951 C 0.13954 0.37642 0.5936 0.0
C952 C 0.1312 0.35432 0.559 0.0
C953 C 0.12303 0.36841 0.51728 0.0
C954 C 0.12318 0.40367 0.51032 0.0
H955 H 0.10566 0.49283 0.61182 0.0
H956 H 0.10528 0.4588 0.54048 0.0
H957 H 0.1127 0.45209 0.61864 0.0
H958 H 0.14607 0.42839 0.61462 0.0
H959 H 0.14601 0.36641 0.62578 0.0
H960 H 0.61762 0.63944 0.97927 0.0
H961 H 0.61778 0.57625 0.97119 0.0
H962 H 0.65126 0.57988 0.06772 0.0
H963 H 0.65122 0.64313 0.07646 0.0
H964 H 0.63439 0.52829 0.90436 0.0
H965 H 0.63104 0.52207 0.18634 0.0
H966 H 0.62767 0.56076 0.14839 0.0
H967 H 0.64243 0.54903 0.16076 0.0
C968 C 0.62504 0.6269 0.99886 0.0
C969 C 0.63438 0.6465 0.02888 0.0
C970 C 0.62511 0.59075 0.99408 0.0
C971 C 0.63446 0.57347 0.01963 0.0
C972 C 0.64388 0.5928 0.04867 0.0
H973 H 0.65079 0.35372 0.94358 0.0
H974 H 0.65101 0.41692 0.95202 0.0
C975 C 0.64385 0.62897 0.05329 0.0
C976 C 0.63437 0.53517 0.0155 0.0
H977 H 0.634 0.46895 0.1142 0.0
C978 C 0.63431 0.51527 0.95017 0.0
C979 C 0.63413 0.51835 0.07541 0.0
C980 C 0.63372 0.53854 0.1468 0.0
C981 C 0.63416 0.47889 0.94315 0.0
C982 C 0.63418 0.46206 1.00307 0.0
C983 C 0.63409 0.48197 0.0684 0.0
C984 C 0.63413 0.42377 0.99895 0.0
C985 C 0.6338 0.45872 0.87174 0.0
C986 C 0.62466 0.40673 0.02392 0.0
C987 C 0.6245 0.37057 0.01931 0.0
C988 C 0.63386 0.35075 0.99007 0.0
C989 C 0.64342 0.36805 0.96616 0.0
C990 C 0.64354 0.4042 0.97061 0.0
H991 H 0.63126 0.47529 0.83207 0.0
H992 H 0.64249 0.44794 0.85824 0.0
H993 H 0.62766 0.43671 0.86979 0.0
H994 H 0.61733 0.42142 0.04627 0.0
H995 H 0.61701 0.35822 0.03844 0.0
H996 H 0.36882 0.8739 0.13285 0.0
H997 H 0.36808 0.93487 0.11414 0.0
H998 H 0.39002 0.91211 0.93542 0.0
H999 H 0.3912 0.85169 0.95578 0.0
H1000 H 0.39711 0.96803 1.00829 0.0
H1001 H 0.3499 0.98008 0.97824 0.0
H1002 H 0.35362 0.96656 0.05965 0.0
H1003 H 0.35686 0.93883 0.98072 0.0
C1004 C 0.37347 0.88198 0.08959 0.0
C1005 C 0.38012 0.85809 0.04602 0.0
C1006 C 0.37295 0.91676 0.07848 0.0
C1007 C 0.37881 0.92808 0.02251 0.0
C1008 C 0.3854 0.9041 0.97889 0.0
H1009 H 0.36805 0.13014 0.88165 0.0
H1010 H 0.3678 0.06828 0.8945 0.0
C1011 C 0.3861 0.86955 0.9907 0.0
C1012 C 0.37856 0.96511 1.01088 0.0
H1013 H 0.36062 0.03307 0.99306 0.0
C1014 C 0.38912 0.98212 1.00448 0.0
C1015 C 0.36814 0.98348 1.00458 0.0
C1016 C 0.3565 0.96619 1.00539 0.0
C1017 C 0.38957 0.01693 0.99303 0.0
C1018 C 0.37917 0.03587 0.99073 0.0
C1019 C 0.3686 0.01874 0.99581 0.0
C1020 C 0.37912 0.07344 0.98348 0.0
C1021 C 0.40121 0.03272 0.98198 0.0
C1022 C 0.38536 0.09704 0.02991 0.0
C1023 C 0.38569 0.13213 0.02182 0.0
C1024 C 0.37955 0.14459 0.96816 0.0
C1025 C 0.37294 0.12124 0.92319 0.0
C1026 C 0.37277 0.08593 0.93061 0.0
H1027 H 0.40761 0.01256 0.96232 0.0
H1028 H 0.40068 0.05195 0.94485 0.0
H1029 H 0.40447 0.04595 0.03199 0.0
H1030 H 0.38999 0.08834 0.0726 0.0
H1031 H 0.39066 0.1496 0.05827 0.0
H1032 H 0.36684 0.35741 0.90533 0.0
H1033 H 0.36675 0.42041 0.91996 0.0
H1034 H 0.39377 0.422 0.0724 0.0
H1035 H 0.39278 0.359 0.06452 0.0
H1036 H 0.3809 0.47057 0.11292 0.0
H1037 H 0.38756 0.48117 0.83733 0.0
H1038 H 0.37435 0.45866 0.84736 0.0
H1039 H 0.38789 0.43997 0.86975 0.0
C1040 C 0.37253 0.37113 0.94343 0.0
C1041 C 0.37969 0.35304 0.9845 0.0
C1042 C 0.37271 0.40732 0.9504 0.0
C1043 C 0.38051 0.42628 0.99568 0.0
C1044 C 0.38768 0.4082 0.03676 0.0
H1045 H 0.39291 0.64413 0.95555 0.0
H1046 H 0.39383 0.58116 0.94792 0.0
C1047 C 0.38716 0.37207 0.03191 0.0
C1048 C 0.38101 0.46488 1.00162 0.0
H1049 H 0.38096 0.53277 0.90727 0.0
C1050 C 0.38108 0.48408 0.06779 0.0
C1051 C 0.38154 0.48289 0.94312 0.0
C1052 C 0.38298 0.46452 0.87058 0.0
C1053 C 0.38149 0.52046 0.0771 0.0
C1054 C 0.38099 0.53847 0.01858 0.0
C1055 C 0.38111 0.51926 0.95242 0.0
C1056 C 0.38053 0.57708 0.02444 0.0
C1057 C 0.38287 0.53885 0.14967 0.0
C1058 C 0.37271 0.59616 0.06954 0.0
C1059 C 0.37258 0.63235 0.07637 0.0
C1060 C 0.37978 0.65032 0.03535 0.0
C1061 C 0.38726 0.63116 0.9881 0.0
C1062 C 0.38774 0.59504 0.9834 0.0
H1063 H 0.38742 0.5222 0.1831 0.0
H1064 H 0.38779 0.56337 0.15063 0.0
H1065 H 0.37422 0.54475 0.1726 0.0
H1066 H 0.36673 0.58315 0.09998 0.0
H1067 H 0.36691 0.64618 0.11447 0.0
H1068 H 0.64129 0.12619 0.87566 0.0
H1069 H 0.64173 0.06438 0.88976 0.0
H1070 H 0.62444 0.0872 0.08598 0.0
H1071 H 0.62389 0.14864 0.07181 0.0
H1072 H 0.65162 0.03099 0.99319 0.0
H1073 H 0.60425 0.01155 0.98379 0.0
H1074 H 0.61107 0.04945 0.95777 0.0
H1075 H 0.6087 0.04637 0.04777 0.0
C1076 C 0.6376 0.1179 0.92172 0.0
C1077 C 0.63256 0.14212 0.97266 0.0
C1078 C 0.63785 0.08268 0.92975 0.0
C1079 C 0.63298 0.07114 0.9885 0.0
C1080 C 0.62803 0.0954 0.03959 0.0
H1081 H 0.64284 0.8717 0.14022 0.0
H1082 H 0.64335 0.93322 0.12402 0.0
C1083 C 0.62774 0.1305 0.03149 0.0
C1084 C 0.63308 0.03378 0.99684 0.0
H1085 H 0.61544 0.966 0.02008 0.0
C1086 C 0.64372 0.0167 0.99888 0.0
C1087 C 0.62275 0.01509 1.00325 0.0
C1088 C 0.61104 0.03142 0.99736 0.0
C1089 C 0.6443 0.98155 1.00839 0.0
C1090 C 0.63398 0.96326 0.01738 0.0
C1091 C 0.62335 0.98021 0.01419 0.0
C1092 C 0.63396 0.9261 0.02738 0.0
C1093 C 0.65591 0.96399 1.00682 0.0
C1094 C 0.62826 0.90189 0.97954 0.0
C1095 C 0.62792 0.86698 0.98889 0.0
C1096 C 0.63331 0.85544 0.04614 0.0
C1097 C 0.63884 0.87976 0.09481 0.0
C1098 C 0.63917 0.91484 0.08548 0.0
H1099 H 0.66274 0.97966 0.98574 0.0
H1100 H 0.65842 0.96004 0.06003 0.0
H1101 H 0.65553 0.93821 0.97494 0.0
H1102 H 0.6241 0.91003 0.93468 0.0
H1103 H 0.62348 0.84894 0.95087 0.0
H1104 H 0.12179 0.19677 0.33121 0.0
H1105 H 0.12208 0.19568 0.20515 0.0
H1106 H 0.14012 0.29337 0.22882 0.0
H1107 H 0.1396 0.29489 0.3542 0.0
H1108 H 0.11319 0.24279 0.12176 0.0
H1109 H 0.16069 0.23262 0.09168 0.0
H1110 H 0.1533 0.22345 0.16858 0.0
H1111 H 0.15599 0.26751 0.15491 0.0
C1112 C 0.12581 0.21802 0.30949 0.0
C1113 C 0.13095 0.24552 0.35289 0.0
C1114 C 0.126 0.21733 0.23737 0.0
C1115 C 0.13137 0.24403 0.20706 0.0
C1116 C 0.13622 0.27193 0.2505 0.0
H1117 H 0.12395 0.29763 0.7887 0.0
H1118 H 0.12321 0.29527 0.91336 0.0
C1119 C 0.13597 0.2727 0.3224 0.0
C1120 C 0.13169 0.24325 0.13028 0.0
H1121 H 0.15005 0.2441 0.99314 0.0
C1122 C 0.12125 0.24299 0.09368 0.0
C1123 C 0.1422 0.24301 0.09316 0.0
C1124 C 0.1537 0.24134 0.1288 0.0
C1125 C 0.12104 0.24333 0.0216 0.0
C1126 C 0.13154 0.24435 0.98479 0.0
C1127 C 0.14199 0.24376 0.02118 0.0
C1128 C 0.13186 0.24571 0.90852 0.0
C1129 C 0.10958 0.2418 0.98507 0.0
C1130 C 0.13716 0.21906 0.86385 0.0
C1131 C 0.1375 0.22027 0.79233 0.0
C1132 C 0.13259 0.24826 0.76373 0.0
C1133 C 0.12751 0.27526 0.80868 0.0
C1134 C 0.12711 0.27395 0.88013 0.0
H1135 H 0.1025 0.23369 0.0178 0.0
H1136 H 0.10744 0.26784 0.9714 0.0
H1137 H 0.10999 0.22338 0.9367 0.0
H1138 H 0.14095 0.19709 0.88428 0.0
H1139 H 0.1415 0.19906 0.75932 0.0
H1140 H 0.86724 0.28793 0.35705 0.0
H1141 H 0.86641 0.28494 0.23264 0.0
H1142 H 0.89497 0.21306 0.21487 0.0
H1143 H 0.89445 0.21183 0.3395 0.0
H1144 H 0.87875 0.30415 0.14684 0.0
H1145 H 0.87687 0.1627 0.06891 0.0
H1146 H 0.87561 0.18141 0.15783 0.0
H1147 H 0.88963 0.17395 0.1183 0.0
C1148 C 0.87297 0.27024 0.32677 0.0
C1149 C 0.88059 0.24929 0.35881 0.0
C1150 C 0.8727 0.26909 0.25503 0.0
C1151 C 0.88046 0.24812 0.21283 0.0
C1152 C 0.88851 0.22834 0.24501 0.0
H1153 H 0.89003 0.29885 0.79159 0.0
H1154 H 0.89134 0.29595 0.91496 0.0
C1155 C 0.88838 0.22824 0.31688 0.0
C1156 C 0.8803 0.24846 0.13604 0.0
H1157 H 0.88147 0.19703 0.98013 0.0
C1158 C 0.87918 0.28052 0.11068 0.0
C1159 C 0.8807 0.21786 0.08773 0.0
C1160 C 0.88063 0.18208 0.10965 0.0
C1161 C 0.87831 0.28291 0.03967 0.0
C1162 C 0.8795 0.25256 0.99127 0.0
C1163 C 0.88069 0.22049 0.01649 0.0
C1164 C 0.8793 0.25328 0.91466 0.0
C1165 C 0.87558 0.31793 0.01829 0.0
C1166 C 0.87269 0.22903 0.87134 0.0
C1167 C 0.87268 0.22905 0.79958 0.0
C1168 C 0.87911 0.25375 0.76929 0.0
C1169 C 0.88539 0.27861 0.8127 0.0
C1170 C 0.88583 0.27761 0.88399 0.0
H1171 H 0.87071 0.33436 0.05933 0.0
H1172 H 0.88374 0.33166 1.01 0.0
H1173 H 0.87038 0.31558 0.97021 0.0
H1174 H 0.86751 0.20995 0.89295 0.0
H1175 H 0.86766 0.2096 0.76787 0.0
H1176 H 0.12325 0.78959 0.28239 0.0
H1177 H 0.12181 0.78712 0.1583 0.0
H1178 H 0.14571 0.70123 0.13363 0.0
H1179 H 0.14553 0.70018 0.25863 0.0
H1180 H 0.13387 0.79894 0.06721 0.0
H1181 H 0.12453 0.65994 0.99479 0.0
H1182 H 0.12477 0.67941 0.08353 0.0
H1183 H 0.13799 0.6651 0.03968 0.0
C1184 C 0.12776 0.76909 0.2506 0.0
C1185 C 0.13391 0.74386 0.28068 0.0
C1186 C 0.12718 0.76817 0.17902 0.0
C1187 C 0.13335 0.74321 0.13491 0.0
C1188 C 0.14032 0.71962 0.16528 0.0
H1189 H 0.14268 0.78902 0.7111 0.0
H1190 H 0.14424 0.78584 0.83398 0.0
C1191 C 0.14041 0.71945 0.23721 0.0
C1192 C 0.1327 0.74318 0.05802 0.0
H1193 H 0.13046 0.69103 0.90338 0.0
C1194 C 0.13292 0.7752 0.03184 0.0
C1195 C 0.13126 0.71256 1.01057 0.0
C1196 C 0.12948 0.67742 0.03371 0.0
C1197 C 0.13161 0.77758 0.96107 0.0
C1198 C 0.13115 0.74685 0.91314 0.0
C1199 C 0.13098 0.71477 0.93914 0.0
C1200 C 0.13078 0.74728 0.83636 0.0
C1201 C 0.13017 0.81328 0.93983 0.0
C1202 C 0.12332 0.72505 0.7942 0.0
C1203 C 0.12327 0.72464 0.72225 0.0
C1204 C 0.13045 0.7471 0.69069 0.0
C1205 C 0.13751 0.77019 0.73303 0.0
C1206 C 0.13806 0.76926 0.80425 0.0
H1207 H 0.12607 0.83129 0.98169 0.0
H1208 H 0.13878 0.82413 0.93012 0.0
H1209 H 0.12478 0.81279 0.89278 0.0
H1210 H 0.11753 0.70783 0.81678 0.0
H1211 H 0.11761 0.70662 0.69142 0.0
H1212 H 0.89063 0.70049 0.68321 0.0
H1213 H 0.8896 0.69777 0.80762 0.0
H1214 H 0.86961 0.79199 0.83458 0.0
H1215 H 0.87079 0.79499 0.71034 0.0
H1216 H 0.89727 0.7436 0.91662 0.0
H1217 H 0.84987 0.72841 0.93718 0.0
H1218 H 0.85752 0.72045 0.85616 0.0
H1219 H 0.85431 0.76409 0.89361 0.0
C1220 C 0.88596 0.72056 0.71552 0.0
C1221 C 0.88049 0.74746 0.68628 0.0
C1222 C 0.88537 0.71895 0.7868 0.0
C1223 C 0.87927 0.74416 0.83075 0.0
C1224 C 0.87405 0.77154 0.80187 0.0
H1225 H 0.8858 0.79338 0.27676 0.0
H1226 H 0.88605 0.79238 0.1514 0.0
C1227 C 0.87469 0.77321 0.73061 0.0
C1228 C 0.87879 0.74252 0.90691 0.0
H1229 H 0.86026 0.73899 0.04261 0.0
C1230 C 0.88917 0.74258 0.94402 0.0
C1231 C 0.86824 0.74049 0.94293 0.0
C1232 C 0.85683 0.73803 0.90556 0.0
C1233 C 0.88929 0.74151 0.01583 0.0
C1234 C 0.87874 0.74086 0.05231 0.0
C1235 C 0.86835 0.73994 0.01505 0.0
C1236 C 0.8784 0.74145 0.1291 0.0
C1237 C 0.90071 0.74009 0.05204 0.0
C1238 C 0.87376 0.71353 0.15908 0.0
C1239 C 0.87373 0.71391 0.2312 0.0
C1240 C 0.87824 0.74238 0.27494 0.0
C1241 C 0.88255 0.77065 0.24474 0.0
C1242 C 0.88267 0.77016 0.17286 0.0
H1243 H 0.90795 0.73401 0.01513 0.0
H1244 H 0.90249 0.76553 0.083 0.0
H1245 H 0.90044 0.7201 0.08763 0.0
H1246 H 0.87033 0.69117 0.1266 0.0
H1247 H 0.87029 0.69176 0.25268 0.0
H1248 H 0.63023 0.70458 0.25562 0.0
H1249 H 0.63027 0.70573 0.38139 0.0
H1250 H 0.64157 0.81209 0.40554 0.0
H1251 H 0.64148 0.8111 0.27928 0.0
H1252 H 0.65045 0.72572 0.47819 0.0
H1253 H 0.61166 0.80926 0.53141 0.0
H1254 H 0.61411 0.7838 0.44865 0.0
H1255 H 0.62246 0.82211 0.47343 0.0
C1256 C 0.63266 0.7283 0.28765 0.0
C1257 C 0.63574 0.75786 0.25729 0.0
C1258 C 0.63274 0.72886 0.35966 0.0
C1259 C 0.63582 0.75907 0.40331 0.0
C1260 C 0.63904 0.78856 0.37316 0.0
H1261 H 0.63093 0.80846 0.85454 0.0
H1262 H 0.63273 0.81065 0.73016 0.0
C1263 C 0.63905 0.78791 0.30095 0.0
C1264 C 0.63574 0.75943 0.48013 0.0
H1265 H 0.62083 0.79022 0.62652 0.0
C1266 C 0.64399 0.7399 0.51077 0.0
C1267 C 0.62744 0.77823 0.52295 0.0
C1268 C 0.61835 0.79954 0.49294 0.0
C1269 C 0.64423 0.73884 0.58275 0.0
C1270 C 0.63563 0.75664 0.62572 0.0
C1271 C 0.62743 0.77643 0.59464 0.0
C1272 C 0.63491 0.75522 0.70248 0.0
C1273 C 0.65398 0.71948 0.6116 0.0
C1274 C 0.63544 0.72348 0.72987 0.0
C1275 C 0.63474 0.72244 0.80139 0.0
C1276 C 0.63299 0.75291 0.84731 0.0
C1277 C 0.63213 0.78452 0.8203 0.0
C1278 C 0.63319 0.78572 0.74897 0.0
H1279 H 0.6618 0.71914 0.57862 0.0
H1280 H 0.6563 0.73119 0.66454 0.0
H1281 H 0.65135 0.69216 0.61294 0.0
H1282 H 0.63629 0.69929 0.696 0.0
H1283 H 0.63536 0.69767 0.82077 0.0
H1284 H 0.39624 0.71534 0.83636 0.0
H1285 H 0.39745 0.71755 0.71185 0.0
H1286 H 0.36693 0.78159 0.72354 0.0
H1287 H 0.36693 0.78394 0.84761 0.0
H1288 H 0.38633 0.69709 0.60743 0.0
H1289 H 0.38472 0.83856 0.61628 0.0
H1290 H 0.38606 0.81855 0.69382 0.0
H1291 H 0.37202 0.82544 0.65763 0.0
C1292 C 0.38997 0.73064 0.81257 0.0
C1293 C 0.38145 0.74953 0.8528 0.0
C1294 C 0.39058 0.73157 0.74092 0.0
C1295 C 0.38247 0.7506 0.70742 0.0
C1296 C 0.37365 0.76796 0.7474 0.0
H1297 H 0.36952 0.70739 0.26243 0.0
H1298 H 0.37035 0.70642 0.38713 0.0
C1299 C 0.37341 0.76838 0.81894 0.0
C1300 C 0.38299 0.75187 0.63098 0.0
H1301 H 0.37876 0.80583 0.50868 0.0
C1302 C 0.38486 0.72105 0.58602 0.0
C1303 C 0.38146 0.78313 0.60183 0.0
C1304 C 0.38111 0.81825 0.64513 0.0
C1305 C 0.38491 0.72046 0.51369 0.0
C1306 C 0.38218 0.75108 0.48471 0.0
C1307 C 0.38061 0.78201 0.52979 0.0
C1308 C 0.38116 0.7521 0.40833 0.0
C1309 C 0.38829 0.68714 0.46977 0.0
C1310 C 0.38609 0.77955 0.37813 0.0
C1311 C 0.38497 0.78125 0.30735 0.0
C1312 C 0.3794 0.75474 0.26397 0.0
C1313 C 0.37413 0.72784 0.29408 0.0
C1314 C 0.37482 0.7269 0.36553 0.0
H1315 H 0.39414 0.67145 0.49838 0.0
H1316 H 0.38045 0.67136 0.45615 0.0
H1317 H 0.3927 0.69209 0.42158 0.0
H1318 H 0.3909 0.79978 0.40918 0.0
H1319 H 0.38858 0.80328 0.28647 0.0
H1320 H 0.62136 0.19853 0.16991 0.0
H1321 H 0.62206 0.1961 0.29471 0.0
H1322 H 0.64227 0.28984 0.32251 0.0
H1323 H 0.64127 0.29286 0.19811 0.0
H1324 H 0.65117 0.23556 0.39449 0.0
H1325 H 0.60457 0.25941 0.44719 0.0
H1326 H 0.60778 0.22477 0.37963 0.0
H1327 H 0.61138 0.26855 0.36843 0.0
C1328 C 0.62589 0.21876 0.20261 0.0
C1329 C 0.63148 0.24555 0.17358 0.0
C1330 C 0.62629 0.21735 0.27412 0.0
C1331 C 0.63221 0.2428 0.3185 0.0
C1332 C 0.6377 0.26972 0.28964 0.0
H1333 H 0.62918 0.29369 0.76505 0.0
H1334 H 0.62869 0.29259 0.63952 0.0
C1335 C 0.63722 0.27129 0.21827 0.0
C1336 C 0.63271 0.24145 0.39481 0.0
H1337 H 0.61601 0.24605 0.54042 0.0
C1338 C 0.64348 0.23775 0.42633 0.0
C1339 C 0.6227 0.24461 0.43679 0.0
C1340 C 0.61095 0.24985 0.40667 0.0
C1341 C 0.64447 0.23687 0.49815 0.0
C1342 C 0.63444 0.23966 0.53995 0.0
C1343 C 0.62369 0.24361 0.50851 0.0
C1344 C 0.63495 0.23999 0.61671 0.0
C1345 C 0.65628 0.23374 0.52912 0.0
C1346 C 0.63861 0.21077 0.64638 0.0
C1347 C 0.63874 0.21121 0.71854 0.0
C1348 C 0.63521 0.24087 0.7626 0.0
C1349 C 0.63177 0.27023 0.73271 0.0
C1350 C 0.63153 0.26968 0.6608 0.0
H1351 H 0.66326 0.23871 0.4927 0.0
H1352 H 0.65724 0.25215 0.57727 0.0
H1353 H 0.65741 0.20712 0.54259 0.0
H1354 H 0.64118 0.18738 0.61368 0.0
H1355 H 0.6414 0.18811 0.7398 0.0
H1356 H 0.39554 0.28741 0.18327 0.0
H1357 H 0.39667 0.28508 0.30767 0.0
H1358 H 0.36631 0.22035 0.2949 0.0
H1359 H 0.36639 0.21816 0.1707 0.0
H1360 H 0.38541 0.30546 0.4113 0.0
H1361 H 0.38412 0.16394 0.40331 0.0
H1362 H 0.38546 0.18387 0.32567 0.0
H1363 H 0.37141 0.1769 0.36176 0.0
C1364 C 0.38928 0.27196 0.20679 0.0
C1365 C 0.38081 0.25298 0.16625 0.0
C1366 C 0.38985 0.27096 0.27839 0.0
C1367 C 0.38176 0.25174 0.31159 0.0
C1368 C 0.37301 0.23418 0.27128 0.0
H1369 H 0.36892 0.29523 0.75679 0.0
H1370 H 0.36961 0.29592 0.63201 0.0
C1371 C 0.3728 0.23385 0.19972 0.0
C1372 C 0.38223 0.25058 0.38809 0.0
H1373 H 0.37826 0.19673 0.51089 0.0
C1374 C 0.38403 0.2815 0.43287 0.0
C1375 C 0.38079 0.21935 0.41746 0.0
C1376 C 0.38049 0.18418 0.37433 0.0
C1377 C 0.38412 0.28221 0.50521 0.0
C1378 C 0.38153 0.25157 0.53443 0.0
C1379 C 0.38 0.22055 0.48956 0.0
C1380 C 0.3806 0.25065 0.61087 0.0
C1381 C 0.38742 0.31568 0.54888 0.0
C1382 C 0.38571 0.22351 0.64118 0.0
C1383 C 0.38469 0.22195 0.71206 0.0
C1384 C 0.37904 0.24831 0.75541 0.0
C1385 C 0.3736 0.2749 0.72519 0.0
C1386 C 0.3742 0.27569 0.65368 0.0
H1387 H 0.39318 0.33152 0.52002 0.0
H1388 H 0.37954 0.33122 0.56268 0.0
H1389 H 0.39191 0.31093 0.59697 0.0
H1390 H 0.39057 0.2034 0.61011 0.0
H1391 H 0.38842 0.20011 0.73302 0.0
H1392 H 0.05425 0.219 0.48424 0.0
H1393 H 0.03313 0.21993 0.48794 0.0
H1394 H 0.03242 0.27148 0.30568 0.0
H1395 H 0.0535 0.27073 0.30164 0.0
H1396 H 0.01766 0.27486 0.49864 0.0
H1397 H 0.01123 0.18898 0.25183 0.0
H1398 H 0.02502 0.19369 0.29485 0.0
H1399 H 0.0201 0.226 0.24364 0.0
C1400 C 0.04961 0.23074 0.44516 0.0
C1401 C 0.0556 0.24455 0.39229 0.0
C1402 C 0.03753 0.23113 0.44721 0.0
C1403 C 0.03117 0.24518 0.39636 0.0
C1404 C 0.03712 0.25967 0.34445 0.0
H1405 H 0.95894 0.27638 0.3092 0.0
H1406 H 0.98001 0.2756 0.31271 0.0
C1407 C 0.04919 0.25922 0.34224 0.0
C1408 C 0.01832 0.24499 0.39783 0.0
H1409 H 0.99457 0.21755 0.30226 0.0
C1410 C 0.0126 0.26214 0.45592 0.0
C1411 C 0.01172 0.22832 0.34213 0.0
C1412 C 0.01731 0.20791 0.27985 0.0
C1413 C 1.00048 0.26387 0.45898 0.0
C1414 C 0.9939 0.24758 0.40287 0.0
C1415 C 0.99962 0.23017 0.34511 0.0
C1416 C 0.98106 0.24858 0.40243 0.0
C1417 C 0.99483 0.2839 0.52145 0.0
C1418 C 0.97461 0.23341 0.45144 0.0
C1419 C 0.96253 0.2336 0.44933 0.0
C1420 C 0.95663 0.2488 0.39787 0.0
C1421 C 0.96315 0.264 0.34896 0.0
C1422 C 0.97522 0.26376 0.3511 0.0
H1423 H 1.001 0.30165 0.55189 0.0
H1424 H 0.98744 0.29935 0.50606 0.0
H1425 H 0.99151 0.26545 0.55545 0.0
H1426 H 0.97892 0.22089 0.49067 0.0
H1427 H 0.95782 0.22116 0.48714 0.0
H1428 H 0.95754 0.79435 0.58025 0.0
H1429 H 0.97864 0.79436 0.57372 0.0
H1430 H 0.97993 0.70856 0.69246 0.0
H1431 H 0.95888 0.70763 0.69736 0.0
H1432 H 0.99445 0.80419 0.68108 0.0
H1433 H 1.00062 0.67501 0.52875 0.0
H1434 H 0.98681 0.69663 0.5361 0.0
H1435 H 0.99195 0.67389 0.60454 0.0
C1436 C 0.96229 0.77513 0.6041 0.0
C1437 C 0.95647 0.75092 0.63917 0.0
C1438 C 0.97437 0.77532 0.60069 0.0
C1439 C 0.98088 0.75114 0.63172 0.0
C1440 C 0.9751 0.72705 0.66696 0.0
H1441 H 0.05286 0.71057 0.70405 0.0
H1442 H 0.0318 0.71139 0.69766 0.0
C1443 C 0.96305 0.72685 0.67045 0.0
C1444 C 0.99371 0.75185 0.6295 0.0
H1445 H 0.0174 0.70204 0.58195 0.0
C1446 C 0.99947 0.78197 0.65884 0.0
C1447 C 1.00027 0.72286 0.60045 0.0
C1448 C 0.99461 0.69037 0.56507 0.0
C1449 C 0.01159 0.78351 0.66194 0.0
C1450 C 0.01814 0.75431 0.63391 0.0
C1451 C 0.01238 0.72436 0.60366 0.0
C1452 C 0.03097 0.75398 0.63696 0.0
C1453 C 0.01726 0.816 0.69722 0.0
C1454 C 0.03755 0.77736 0.60419 0.0
C1455 C 0.04962 0.77713 0.60815 0.0
C1456 C 0.05537 0.75338 0.64474 0.0
C1457 C 0.04873 0.72962 0.67648 0.0
C1458 C 0.03668 0.72987 0.67245 0.0
H1459 H 0.01109 0.83254 0.73036 0.0
H1460 H 0.02463 0.80958 0.72954 0.0
H1461 H 0.0206 0.83136 0.65751 0.0
H1462 H 0.03335 0.79579 0.57544 0.0
H1463 H 0.05442 0.79593 0.58341 0.0
H1464 H 0.55538 0.70803 0.97381 0.0
H1465 H 0.53436 0.7091 0.98327 0.0
H1466 H 0.53271 0.78564 0.8428 0.0
H1467 H 0.55373 0.78614 0.83585 0.0
H1468 H 0.5183 0.80152 0.95102 0.0
H1469 H 0.51196 0.66387 0.8414 0.0
H1470 H 0.5211 0.66973 0.91611 0.0
H1471 H 0.52565 0.68557 0.83795 0.0
C1472 C 0.55058 0.72541 0.94547 0.0
C1473 C 0.55632 0.74682 0.90361 0.0
C1474 C 0.53852 0.72561 0.9502 0.0
C1475 C 0.5319 0.74688 0.91255 0.0
C1476 C 0.5376 0.76874 0.87184 0.0
H1477 H 0.46028 0.78385 0.82486 0.0
H1478 H 0.48133 0.78291 0.83268 0.0
C1479 C 0.54965 0.76874 0.86742 0.0
C1480 C 0.51906 0.74676 0.91577 0.0
H1481 H 0.49531 0.69494 0.8837 0.0
C1482 C 0.51329 0.7782 0.93626 0.0
C1483 C 0.51248 0.71631 0.89667 0.0
C1484 C 0.51809 0.68201 0.87118 0.0
C1485 C 0.50118 0.78003 0.93806 0.0
C1486 C 0.49463 0.7497 0.91824 0.0
C1487 C 0.50036 0.71814 0.89901 0.0
C1488 C 0.48183 0.75048 0.91446 0.0
C1489 C 0.49548 0.8144 0.96158 0.0
C1490 C 0.4751 0.73206 0.95704 0.0
C1491 C 0.46303 0.73245 0.95255 0.0
C1492 C 0.45747 0.7509 0.90468 0.0
C1493 C 0.46427 0.76913 0.86184 0.0
C1494 C 0.47631 0.7689 0.8667 0.0
H1495 H 0.50152 0.83295 0.99103 0.0
H1496 H 0.49249 0.82597 0.91571 0.0
H1497 H 0.48785 0.81099 0.99439 0.0
H1498 H 0.47919 0.71746 0.99391 0.0
H1499 H 0.45806 0.71785 0.98577 0.0
H1500 H 0.45765 0.28279 0.03726 0.0
H1501 H 0.47879 0.28268 0.02996 0.0
H1502 H 0.48053 0.21658 0.19024 0.0
H1503 H 0.45947 0.21618 0.19727 0.0
H1504 H 0.49486 0.3044 0.14149 0.0
H1505 H 0.50076 0.16657 0.03169 0.0
H1506 H 0.48717 0.18897 0.02805 0.0
H1507 H 0.49165 0.17357 0.10665 0.0
C1508 C 0.46254 0.26794 0.07044 0.0
C1509 C 0.45686 0.24947 0.11783 0.0
C1510 C 0.47461 0.26805 0.06644 0.0
C1511 C 0.48123 0.24932 0.10901 0.0
C1512 C 0.4756 0.23084 0.15625 0.0
H1513 H 0.55323 0.21161 0.18494 0.0
H1514 H 0.5322 0.21258 0.17939 0.0
C1515 C 0.46355 0.23092 0.16065 0.0
C1516 C 0.49405 0.24979 0.1057 0.0
H1517 H 0.5176 0.19756 0.07177 0.0
C1518 C 0.49985 0.28114 0.1257 0.0
C1519 C 0.50053 0.21937 0.08531 0.0
C1520 C 0.49474 0.18522 0.06111 0.0
C1521 C 0.51197 0.2827 0.12805 0.0
C1522 C 0.51848 0.25219 0.10815 0.0
C1523 C 0.51264 0.22094 0.08711 0.0
C1524 C 0.53134 0.25184 0.11075 0.0
C1525 C 0.51766 0.31677 0.15433 0.0
C1526 C 0.53793 0.27324 0.07327 0.0
C1527 C 0.55 0.27314 0.07715 0.0
C1528 C 0.55578 0.25131 0.118 0.0
C1529 C 0.54912 0.22931 0.15411 0.0
C1530 C 0.53707 0.22959 0.15051 0.0
H1531 H 0.51158 0.33481 0.18481 0.0
H1532 H 0.52525 0.31282 0.1871 0.0
H1533 H 0.52065 0.32936 0.10975 0.0
H1534 H 0.53374 0.29007 0.04092 0.0
H1535 H 0.55478 0.29061 0.04893 0.0
loop_
_geom_bond_atom_site_label_1
_geom_bond_atom_site_label_2
_geom_bond_distance
_geom_bond_site_symmetry_2
_ccdc_geom_bond_type
Eu0 N29 2.600 . S
Eu0 N35 2.562 . S
Eu0 O44 2.462 . S
Eu0 O45 2.373 . S
Eu0 O47 2.432 . S
Eu0 O48 2.291 . S
Eu0 O52 2.335 . S
Eu0 O55 2.372 . S
Eu0 C64 2.787 . S
C1 N2 1.365 . S
C1 C4 1.405 . S
C1 C8 1.448 . S
N2 C1 1.365 . S
N2 C5 1.319 . S
N2 Eu11 2.600 . S
C3 C5 1.397 . S
C3 C6 1.367 . S
C3 H23 0.931 . S
C4 C1 1.405 . S
C4 C6 1.403 . S
C4 C10 1.439 . S
C5 N2 1.319 . S
C5 C3 1.397 . S
C5 H16 0.930 . S
C6 C3 1.367 . S
C6 C4 1.403 . S
C6 H27 0.929 . S
C7 C8 1.430 . S
C7 C9 1.387 . S
C7 C13 1.404 . S
C8 C1 1.448 . S
C8 C7 1.430 . S
C8 N12 1.351 . S
C9 C7 1.387 . S
C9 C10 1.374 . S
C9 H24 0.931 . S
C10 C4 1.439 . S
C10 C9 1.374 . S
C10 H25 0.931 . S
Eu11 N2 2.600 . S
Eu11 N12 2.562 . S
Eu11 O46 2.335 . S
Eu11 O49 2.372 . S
Eu11 O50 2.462 . S
Eu11 O51 2.373 . S
Eu11 O53 2.432 . S
Eu11 O54 2.291 . S
Eu11 C75 2.787 . S
N12 C8 1.351 . S
N12 Eu11 2.562 . S
N12 C14 1.325 . S
C13 C7 1.404 . S
C13 C15 1.366 . S
C13 H21 0.930 . S
C14 N12 1.325 . S
C14 C15 1.416 . S
C14 H20 0.929 . S
C15 C13 1.366 . S
C15 C14 1.416 . S
C15 H17 0.930 . S
H16 C5 0.930 . S
H17 C15 0.930 . S
H18 C33 0.930 . S
H19 C40 0.930 . S
H20 C14 0.929 . S
H21 C13 0.930 . S
H22 C36 0.929 . S
H23 C3 0.931 . S
H24 C9 0.931 . S
H25 C10 0.931 . S
H26 C31 0.931 . S
H27 C6 0.929 . S
H28 C39 0.930 . S
N29 Eu0 2.600 . S
N29 C30 1.365 . S
N29 C33 1.319 . S
C30 N29 1.365 . S
C30 C32 1.405 . S
C30 C38 1.448 . S
C31 H26 0.931 . S
C31 C33 1.397 . S
C31 C34 1.367 . S
C32 C30 1.405 . S
C32 C34 1.403 . S
C32 C65 1.439 . S
C33 H18 0.930 . S
C33 N29 1.319 . S
C33 C31 1.397 . S
C34 C31 1.367 . S
C34 C32 1.403 . S
C34 H41 0.929 . S
N35 Eu0 2.562 . S
N35 C36 1.325 . S
N35 C38 1.351 . S
C36 H22 0.929 . S
C36 N35 1.325 . S
C36 C40 1.416 . S
C37 C38 1.430 . S
C37 C39 1.404 . S
C37 C66 1.387 . S
C38 C30 1.448 . S
C38 N35 1.351 . S
C38 C37 1.430 . S
C39 H28 0.930 . S
C39 C37 1.404 . S
C39 C40 1.366 . S
C40 H19 0.930 . S
C40 C36 1.416 . S
C40 C39 1.366 . S
H41 C34 0.929 . S
H42 C65 0.931 . S
H43 C66 0.931 . S
O44 Eu0 2.462 . S
O44 C64 1.252 . S
O45 Eu0 2.373 . S
O45 C56 1.249 . S
O46 Eu11 2.335 . S
O46 C56 1.264 . S
O47 Eu0 2.432 . S
O47 C64 1.268 . S
O48 Eu0 2.291 . S
O48 C63 1.255 . S
O49 Eu11 2.372 . S
O49 C63 1.257 . S
O50 Eu11 2.462 . S
O50 C75 1.252 . S
O51 Eu11 2.373 . S
O51 C67 1.249 . S
O52 Eu0 2.335 . S
O52 C67 1.264 . S
O53 Eu11 2.432 . S
O53 C75 1.268 . S
O54 Eu11 2.291 . S
O54 C74 1.255 . S
O55 Eu0 2.372 . S
O55 C74 1.257 . S
C56 O45 1.249 . S
C56 O46 1.264 . S
C57 C60 1.382 . S
C57 C62 1.390 . S
C57 C64 1.506 . S
C58 C59 1.398 . S
C58 C62 1.392 . S
C59 C58 1.398 . S
C59 C61 1.372 . S
C59 H76 0.931 . S
C60 C57 1.382 . S
C60 C61 1.390 . S
C60 H77 0.931 . S
C61 C59 1.372 . S
C61 C60 1.390 . S
C61 H78 0.929 . S
C62 C57 1.390 . S
C62 C58 1.392 . S
C62 H79 0.930 . S
C63 O48 1.255 . S
C63 O49 1.257 . S
C64 Eu0 2.787 . S
C64 O44 1.252 . S
C64 O47 1.268 . S
C64 C57 1.506 . S
C65 C32 1.439 . S
C65 H42 0.931 . S
C65 C66 1.374 . S
C66 C37 1.387 . S
C66 H43 0.931 . S
C66 C65 1.374 . S
C67 O51 1.249 . S
C67 O52 1.264 . S
C68 C71 1.382 . S
C68 C72 1.390 . S
C68 C75 1.506 . S
C69 C70 1.398 . S
C69 C72 1.392 . S
C70 C69 1.398 . S
C70 C73 1.372 . S
C70 H80 0.931 . S
C71 C68 1.382 . S
C71 C73 1.390 . S
C71 H81 0.931 . S
C72 C68 1.390 . S
C72 C69 1.392 . S
C72 H82 0.930 . S
C73 C70 1.372 . S
C73 C71 1.390 . S
C73 H83 0.929 . S
C74 O54 1.255 . S
C74 O55 1.257 . S
C75 Eu11 2.787 . S
C75 O50 1.252 . S
C75 O53 1.268 . S
C75 C68 1.506 . S
H76 C59 0.931 . S
H77 C60 0.931 . S
H78 C61 0.929 . S
H79 C62 0.930 . S
H80 C70 0.931 . S
H81 C71 0.931 . S
H82 C72 0.930 . S
H83 C73 0.929 . S
Eu84 N113 2.600 . S
Eu84 N119 2.562 . S
Eu84 O128 2.462 . S
Eu84 O129 2.373 . S
Eu84 O131 2.432 . S
Eu84 O132 2.291 . S
Eu84 O136 2.335 . S
Eu84 O139 2.372 . S
Eu84 C148 2.787 . S
C85 N86 1.365 . S
C85 C88 1.405 . S
C85 C92 1.448 . S
N86 C85 1.365 . S
N86 C89 1.319 . S
N86 Eu95 2.600 . S
C87 C89 1.397 . S
C87 C90 1.367 . S
C87 H107 0.931 . S
C88 C85 1.405 . S
C88 C90 1.403 . S
C88 C94 1.439 . S
C89 N86 1.319 . S
C89 C87 1.397 . S
C89 H100 0.930 . S
C90 C87 1.367 . S
C90 C88 1.403 . S
C90 H111 0.929 . S
C91 C92 1.430 . S
C91 C93 1.387 . S
C91 C97 1.404 . S
C92 C85 1.448 . S
C92 C91 1.430 . S
C92 N96 1.351 . S
C93 C91 1.387 . S
C93 C94 1.374 . S
C93 H108 0.931 . S
C94 C88 1.439 . S
C94 C93 1.374 . S
C94 H109 0.931 . S
Eu95 N86 2.600 . S
Eu95 N96 2.562 . S
Eu95 O130 2.335 . S
Eu95 O133 2.372 . S
Eu95 O134 2.462 . S
Eu95 O135 2.373 . S
Eu95 O137 2.432 . S
Eu95 O138 2.291 . S
Eu95 C159 2.787 . S
N96 C92 1.351 . S
N96 Eu95 2.562 . S
N96 C98 1.325 . S
C97 C91 1.404 . S
C97 C99 1.366 . S
C97 H105 0.930 . S
C98 N96 1.325 . S
C98 C99 1.416 . S
C98 H104 0.929 . S
C99 C97 1.366 . S
C99 C98 1.416 . S
C99 H101 0.930 . S
H100 C89 0.930 . S
H101 C99 0.930 . S
H102 C117 0.930 . S
H103 C124 0.930 . S
H104 C98 0.929 . S
H105 C97 0.930 . S
H106 C120 0.929 . S
H107 C87 0.931 . S
H108 C93 0.931 . S
H109 C94 0.931 . S
H110 C115 0.931 . S
H111 C90 0.929 . S
H112 C123 0.930 . S
N113 Eu84 2.600 . S
N113 C114 1.365 . S
N113 C117 1.319 . S
C114 N113 1.365 . S
C114 C116 1.405 . S
C114 C122 1.448 . S
C115 H110 0.931 . S
C115 C117 1.397 . S
C115 C118 1.367 . S
C116 C114 1.405 . S
C116 C118 1.403 . S
C116 C149 1.439 . S
C117 H102 0.930 . S
C117 N113 1.319 . S
C117 C115 1.397 . S
C118 C115 1.367 . S
C118 C116 1.403 . S
C118 H125 0.929 . S
N119 Eu84 2.562 . S
N119 C120 1.325 . S
N119 C122 1.351 . S
C120 H106 0.929 . S
C120 N119 1.325 . S
C120 C124 1.416 . S
C121 C122 1.430 . S
C121 C123 1.404 . S
C121 C150 1.387 . S
C122 C114 1.448 . S
C122 N119 1.351 . S
C122 C121 1.430 . S
C123 H112 0.930 . S
C123 C121 1.404 . S
C123 C124 1.366 . S
C124 H103 0.930 . S
C124 C120 1.416 . S
C124 C123 1.366 . S
H125 C118 0.929 . S
H126 C149 0.931 . S
H127 C150 0.931 . S
O128 Eu84 2.462 . S
O128 C148 1.252 . S
O129 Eu84 2.373 . S
O129 C140 1.249 . S
O130 Eu95 2.335 . S
O130 C140 1.264 . S
O131 Eu84 2.432 . S
O131 C148 1.268 . S
O132 Eu84 2.291 . S
O132 C147 1.255 . S
O133 Eu95 2.372 . S
O133 C147 1.257 . S
O134 Eu95 2.462 . S
O134 C159 1.252 . S
O135 Eu95 2.373 . S
O135 C151 1.249 . S
O136 Eu84 2.335 . S
O136 C151 1.264 . S
O137 Eu95 2.432 . S
O137 C159 1.268 . S
O138 Eu95 2.291 . S
O138 C158 1.255 . S
O139 Eu84 2.372 . S
O139 C158 1.257 . S
C140 O129 1.249 . S
C140 O130 1.264 . S
C141 C144 1.382 . S
C141 C146 1.390 . S
C141 C148 1.506 . S
C142 C143 1.398 . S
C142 C146 1.392 . S
C143 C142 1.398 . S
C143 C145 1.372 . S
C143 H160 0.931 . S
C144 C141 1.382 . S
C144 C145 1.390 . S
C144 H161 0.931 . S
C145 C143 1.372 . S
C145 C144 1.390 . S
C145 H162 0.929 . S
C146 C141 1.390 . S
C146 C142 1.392 . S
C146 H163 0.930 . S
C147 O132 1.255 . S
C147 O133 1.257 . S
C148 Eu84 2.787 . S
C148 O128 1.252 . S
C148 O131 1.268 . S
C148 C141 1.506 . S
C149 C116 1.439 . S
C149 H126 0.931 . S
C149 C150 1.374 . S
C150 C121 1.387 . S
C150 H127 0.931 . S
C150 C149 1.374 . S
C151 O135 1.249 . S
C151 O136 1.264 . S
C152 C155 1.382 . S
C152 C156 1.390 . S
C152 C159 1.506 . S
C153 C154 1.398 . S
C153 C156 1.392 . S
C154 C153 1.398 . S
C154 C157 1.372 . S
C154 H164 0.931 . S
C155 C152 1.382 . S
C155 C157 1.390 . S
C155 H165 0.931 . S
C156 C152 1.390 . S
C156 C153 1.392 . S
C156 H166 0.930 . S
C157 C154 1.372 . S
C157 C155 1.390 . S
C157 H167 0.929 . S
C158 O138 1.255 . S
C158 O139 1.257 . S
C159 Eu95 2.787 . S
C159 O134 1.252 . S
C159 O137 1.268 . S
C159 C152 1.506 . S
H160 C143 0.931 . S
H161 C144 0.931 . S
H162 C145 0.929 . S
H163 C146 0.930 . S
H164 C154 0.931 . S
H165 C155 0.931 . S
H166 C156 0.930 . S
H167 C157 0.929 . S
Eu168 N197 2.600 . S
Eu168 N203 2.562 . S
Eu168 O212 2.462 . S
Eu168 O213 2.373 . S
Eu168 O215 2.432 . S
Eu168 O216 2.291 . S
Eu168 O220 2.335 . S
Eu168 O223 2.372 . S
Eu168 C232 2.787 . S
C169 N170 1.365 . S
C169 C172 1.405 . S
C169 C176 1.448 . S
N170 C169 1.365 . S
N170 C173 1.319 . S
N170 Eu179 2.600 . S
C171 C173 1.397 . S
C171 C174 1.367 . S
C171 H191 0.931 . S
C172 C169 1.405 . S
C172 C174 1.403 . S
C172 C178 1.439 . S
C173 N170 1.319 . S
C173 C171 1.397 . S
C173 H184 0.930 . S
C174 C171 1.367 . S
C174 C172 1.403 . S
C174 H195 0.929 . S
C175 C176 1.430 . S
C175 C177 1.387 . S
C175 C181 1.404 . S
C176 C169 1.448 . S
C176 C175 1.430 . S
C176 N180 1.351 . S
C177 C175 1.387 . S
C177 C178 1.374 . S
C177 H192 0.931 . S
C178 C172 1.439 . S
C178 C177 1.374 . S
C178 H193 0.931 . S
Eu179 N170 2.600 . S
Eu179 N180 2.562 . S
Eu179 O214 2.335 . S
Eu179 O217 2.372 . S
Eu179 O218 2.462 . S
Eu179 O219 2.373 . S
Eu179 O221 2.432 . S
Eu179 O222 2.291 . S
Eu179 C243 2.787 . S
N180 C176 1.351 . S
N180 Eu179 2.562 . S
N180 C182 1.325 . S
C181 C175 1.404 . S
C181 C183 1.366 . S
C181 H189 0.930 . S
C182 N180 1.325 . S
C182 C183 1.416 . S
C182 H188 0.929 . S
C183 C181 1.366 . S
C183 C182 1.416 . S
C183 H185 0.930 . S
H184 C173 0.930 . S
H185 C183 0.930 . S
H186 C201 0.930 . S
H187 C208 0.930 . S
H188 C182 0.929 . S
H189 C181 0.930 . S
H190 C204 0.929 . S
H191 C171 0.931 . S
H192 C177 0.931 . S
H193 C178 0.931 . S
H194 C199 0.931 . S
H195 C174 0.929 . S
H196 C207 0.930 . S
N197 Eu168 2.600 . S
N197 C198 1.365 . S
N197 C201 1.319 . S
C198 N197 1.365 . S
C198 C200 1.405 . S
C198 C206 1.448 . S
C199 H194 0.931 . S
C199 C201 1.397 . S
C199 C202 1.367 . S
C200 C198 1.405 . S
C200 C202 1.403 . S
C200 C233 1.439 . S
C201 H186 0.930 . S
C201 N197 1.319 . S
C201 C199 1.397 . S
C202 C199 1.367 . S
C202 C200 1.403 . S
C202 H209 0.929 . S
N203 Eu168 2.562 . S
N203 C204 1.325 . S
N203 C206 1.351 . S
C204 H190 0.929 . S
C204 N203 1.325 . S
C204 C208 1.416 . S
C205 C206 1.430 . S
C205 C207 1.404 . S
C205 C234 1.387 . S
C206 C198 1.448 . S
C206 N203 1.351 . S
C206 C205 1.430 . S
C207 H196 0.930 . S
C207 C205 1.404 . S
C207 C208 1.366 . S
C208 H187 0.930 . S
C208 C204 1.416 . S
C208 C207 1.366 . S
H209 C202 0.929 . S
H210 C233 0.931 . S
H211 C234 0.931 . S
O212 Eu168 2.462 . S
O212 C232 1.252 . S
O213 Eu168 2.373 . S
O213 C224 1.249 . S
O214 Eu179 2.335 . S
O214 C224 1.264 . S
O215 Eu168 2.432 . S
O215 C232 1.268 . S
O216 Eu168 2.291 . S
O216 C231 1.255 . S
O217 Eu179 2.372 . S
O217 C231 1.257 . S
O218 Eu179 2.462 . S
O218 C243 1.252 . S
O219 Eu179 2.373 . S
O219 C235 1.249 . S
O220 Eu168 2.335 . S
O220 C235 1.264 . S
O221 Eu179 2.432 . S
O221 C243 1.268 . S
O222 Eu179 2.291 . S
O222 C242 1.255 . S
O223 Eu168 2.372 . S
O223 C242 1.257 . S
C224 O213 1.249 . S
C224 O214 1.264 . S
C225 C228 1.382 . S
C225 C230 1.390 . S
C225 C232 1.506 . S
C226 C227 1.398 . S
C226 C230 1.392 . S
C227 C226 1.398 . S
C227 C229 1.372 . S
C227 H244 0.931 . S
C228 C225 1.382 . S
C228 C229 1.390 . S
C228 H245 0.931 . S
C229 C227 1.372 . S
C229 C228 1.390 . S
C229 H246 0.929 . S
C230 C225 1.390 . S
C230 C226 1.392 . S
C230 H247 0.930 . S
C231 O216 1.255 . S
C231 O217 1.257 . S
C232 Eu168 2.787 . S
C232 O212 1.252 . S
C232 O215 1.268 . S
C232 C225 1.506 . S
C233 C200 1.439 . S
C233 H210 0.931 . S
C233 C234 1.374 . S
C234 C205 1.387 . S
C234 H211 0.931 . S
C234 C233 1.374 . S
C235 O219 1.249 . S
C235 O220 1.264 . S
C236 C239 1.382 . S
C236 C240 1.390 . S
C236 C243 1.506 . S
C237 C238 1.398 . S
C237 C240 1.392 . S
C238 C237 1.398 . S
C238 C241 1.372 . S
C238 H248 0.931 . S
C239 C236 1.382 . S
C239 C241 1.390 . S
C239 H249 0.931 . S
C240 C236 1.390 . S
C240 C237 1.392 . S
C240 H250 0.930 . S
C241 C238 1.372 . S
C241 C239 1.390 . S
C241 H251 0.929 . S
C242 O222 1.255 . S
C242 O223 1.257 . S
C243 Eu179 2.787 . S
C243 O218 1.252 . S
C243 O221 1.268 . S
C243 C236 1.506 . S
H244 C227 0.931 . S
H245 C228 0.931 . S
H246 C229 0.929 . S
H247 C230 0.930 . S
H248 C238 0.931 . S
H249 C239 0.931 . S
H250 C240 0.930 . S
H251 C241 0.929 . S
Eu252 N281 2.600 . S
Eu252 N287 2.562 . S
Eu252 O296 2.462 . S
Eu252 O297 2.373 . S
Eu252 O299 2.432 . S
Eu252 O300 2.291 . S
Eu252 O304 2.335 . S
Eu252 O307 2.372 . S
Eu252 C316 2.787 . S
C253 N254 1.365 . S
C253 C256 1.405 . S
C253 C260 1.448 . S
N254 C253 1.365 . S
N254 C257 1.319 . S
N254 Eu263 2.600 . S
C255 C257 1.397 . S
C255 C258 1.367 . S
C255 H275 0.931 . S
C256 C253 1.405 . S
C256 C258 1.403 . S
C256 C262 1.439 . S
C257 N254 1.319 . S
C257 C255 1.397 . S
C257 H268 0.930 . S
C258 C255 1.367 . S
C258 C256 1.403 . S
C258 H279 0.929 . S
C259 C260 1.430 . S
C259 C261 1.387 . S
C259 C265 1.404 . S
C260 C253 1.448 . S
C260 C259 1.430 . S
C260 N264 1.351 . S
C261 C259 1.387 . S
C261 C262 1.374 . S
C261 H276 0.931 . S
C262 C256 1.439 . S
C262 C261 1.374 . S
C262 H277 0.931 . S
Eu263 N254 2.600 . S
Eu263 N264 2.562 . S
Eu263 O298 2.335 . S
Eu263 O301 2.372 . S
Eu263 O302 2.462 . S
Eu263 O303 2.373 . S
Eu263 O305 2.432 . S
Eu263 O306 2.291 . S
Eu263 C327 2.787 . S
N264 C260 1.351 . S
N264 Eu263 2.562 . S
N264 C266 1.325 . S
C265 C259 1.404 . S
C265 C267 1.366 . S
C265 H273 0.930 . S
C266 N264 1.325 . S
C266 C267 1.416 . S
C266 H272 0.929 . S
C267 C265 1.366 . S
C267 C266 1.416 . S
C267 H269 0.930 . S
H268 C257 0.930 . S
H269 C267 0.930 . S
H270 C285 0.930 . S
H271 C292 0.930 . S
H272 C266 0.929 . S
H273 C265 0.930 . S
H274 C288 0.929 . S
H275 C255 0.931 . S
H276 C261 0.931 . S
H277 C262 0.931 . S
H278 C283 0.931 . S
H279 C258 0.929 . S
H280 C291 0.930 . S
N281 Eu252 2.600 . S
N281 C282 1.365 . S
N281 C285 1.319 . S
C282 N281 1.365 . S
C282 C284 1.405 . S
C282 C290 1.448 . S
C283 H278 0.931 . S
C283 C285 1.397 . S
C283 C286 1.367 . S
C284 C282 1.405 . S
C284 C286 1.403 . S
C284 C317 1.439 . S
C285 H270 0.930 . S
C285 N281 1.319 . S
C285 C283 1.397 . S
C286 C283 1.367 . S
C286 C284 1.403 . S
C286 H293 0.929 . S
N287 Eu252 2.562 . S
N287 C288 1.325 . S
N287 C290 1.351 . S
C288 H274 0.929 . S
C288 N287 1.325 . S
C288 C292 1.416 . S
C289 C290 1.430 . S
C289 C291 1.404 . S
C289 C318 1.387 . S
C290 C282 1.448 . S
C290 N287 1.351 . S
C290 C289 1.430 . S
C291 H280 0.930 . S
C291 C289 1.404 . S
C291 C292 1.366 . S
C292 H271 0.930 . S
C292 C288 1.416 . S
C292 C291 1.366 . S
H293 C286 0.929 . S
H294 C317 0.931 . S
H295 C318 0.931 . S
O296 Eu252 2.462 . S
O296 C316 1.252 . S
O297 Eu252 2.373 . S
O297 C308 1.249 . S
O298 Eu263 2.335 . S
O298 C308 1.264 . S
O299 Eu252 2.432 . S
O299 C316 1.268 . S
O300 Eu252 2.291 . S
O300 C315 1.255 . S
O301 Eu263 2.372 . S
O301 C315 1.257 . S
O302 Eu263 2.462 . S
O302 C327 1.252 . S
O303 Eu263 2.373 . S
O303 C319 1.249 . S
O304 Eu252 2.335 . S
O304 C319 1.264 . S
O305 Eu263 2.432 . S
O305 C327 1.268 . S
O306 Eu263 2.291 . S
O306 C326 1.255 . S
O307 Eu252 2.372 . S
O307 C326 1.257 . S
C308 O297 1.249 . S
C308 O298 1.264 . S
C309 C312 1.382 . S
C309 C314 1.390 . S
C309 C316 1.506 . S
C310 C311 1.398 . S
C310 C314 1.392 . S
C311 C310 1.398 . S
C311 C313 1.372 . S
C311 H328 0.931 . S
C312 C309 1.382 . S
C312 C313 1.390 . S
C312 H329 0.931 . S
C313 C311 1.372 . S
C313 C312 1.390 . S
C313 H330 0.929 . S
C314 C309 1.390 . S
C314 C310 1.392 . S
C314 H331 0.930 . S
C315 O300 1.255 . S
C315 O301 1.257 . S
C316 Eu252 2.787 . S
C316 O296 1.252 . S
C316 O299 1.268 . S
C316 C309 1.506 . S
C317 C284 1.439 . S
C317 H294 0.931 . S
C317 C318 1.374 . S
C318 C289 1.387 . S
C318 H295 0.931 . S
C318 C317 1.374 . S
C319 O303 1.249 . S
C319 O304 1.264 . S
C320 C323 1.382 . S
C320 C324 1.390 . S
C320 C327 1.506 . S
C321 C322 1.398 . S
C321 C324 1.392 . S
C322 C321 1.398 . S
C322 C325 1.372 . S
C322 H332 0.931 . S
C323 C320 1.382 . S
C323 C325 1.390 . S
C323 H333 0.931 . S
C324 C320 1.390 . S
C324 C321 1.392 . S
C324 H334 0.930 . S
C325 C322 1.372 . S
C325 C323 1.390 . S
C325 H335 0.929 . S
C326 O306 1.255 . S
C326 O307 1.257 . S
C327 Eu263 2.787 . S
C327 O302 1.252 . S
C327 O305 1.268 . S
C327 C320 1.506 . S
H328 C311 0.931 . S
H329 C312 0.931 . S
H330 C313 0.929 . S
H331 C314 0.930 . S
H332 C322 0.931 . S
H333 C323 0.931 . S
H334 C324 0.930 . S
H335 C325 0.929 . S
Eu336 N365 2.600 . S
Eu336 N371 2.562 . S
Eu336 O380 2.462 1_556 S
Eu336 O381 2.373 . S
Eu336 O383 2.432 1_556 S
Eu336 O384 2.291 . S
Eu336 O388 2.335 1_556 S
Eu336 O391 2.372 1_556 S
Eu336 C400 2.787 1_556 S
C337 N338 1.365 . S
C337 C340 1.405 . S
C337 C344 1.448 . S
N338 C337 1.365 . S
N338 C341 1.319 . S
N338 Eu347 2.600 . S
C339 C341 1.397 . S
C339 C342 1.367 . S
C339 H359 0.931 . S
C340 C337 1.405 . S
C340 C342 1.403 . S
C340 C346 1.439 . S
C341 N338 1.319 . S
C341 C339 1.397 . S
C341 H352 0.930 . S
C342 C339 1.367 . S
C342 C340 1.403 . S
C342 H363 0.929 . S
C343 C344 1.430 . S
C343 C345 1.387 . S
C343 C349 1.404 . S
C344 C337 1.448 . S
C344 C343 1.430 . S
C344 N348 1.351 . S
C345 C343 1.387 . S
C345 C346 1.374 . S
C345 H360 0.931 . S
C346 C340 1.439 . S
C346 C345 1.374 . S
C346 H361 0.931 . S
Eu347 N338 2.600 . S
Eu347 N348 2.562 . S
Eu347 O382 2.335 1_554 S
Eu347 O385 2.372 1_554 S
Eu347 O386 2.462 1_554 S
Eu347 O387 2.373 . S
Eu347 O389 2.432 1_554 S
Eu347 O390 2.291 . S
Eu347 C411 2.787 1_554 S
N348 C344 1.351 . S
N348 Eu347 2.562 . S
N348 C350 1.325 . S
C349 C343 1.404 . S
C349 C351 1.366 . S
C349 H357 0.930 . S
C350 N348 1.325 . S
C350 C351 1.416 . S
C350 H356 0.929 . S
C351 C349 1.366 . S
C351 C350 1.416 . S
C351 H353 0.930 . S
H352 C341 0.930 . S
H353 C351 0.930 . S
H354 C369 0.930 . S
H355 C376 0.930 . S
H356 C350 0.929 . S
H357 C349 0.930 . S
H358 C372 0.929 . S
H359 C339 0.931 . S
H360 C345 0.931 . S
H361 C346 0.931 . S
H362 C367 0.931 . S
H363 C342 0.929 . S
H364 C375 0.930 . S
N365 Eu336 2.600 . S
N365 C366 1.365 . S
N365 C369 1.319 . S
C366 N365 1.365 . S
C366 C368 1.405 . S
C366 C374 1.448 . S
C367 H362 0.931 . S
C367 C369 1.397 . S
C367 C370 1.367 . S
C368 C366 1.405 . S
C368 C370 1.403 . S
C368 C401 1.439 . S
C369 H354 0.930 . S
C369 N365 1.319 . S
C369 C367 1.397 . S
C370 C367 1.367 . S
C370 C368 1.403 . S
C370 H377 0.929 . S
N371 Eu336 2.562 . S
N371 C372 1.325 . S
N371 C374 1.351 . S
C372 H358 0.929 . S
C372 N371 1.325 . S
C372 C376 1.416 . S
C373 C374 1.430 . S
C373 C375 1.404 . S
C373 C402 1.387 . S
C374 C366 1.448 . S
C374 N371 1.351 . S
C374 C373 1.430 . S
C375 H364 0.930 . S
C375 C373 1.404 . S
C375 C376 1.366 . S
C376 H355 0.930 . S
C376 C372 1.416 . S
C376 C375 1.366 . S
H377 C370 0.929 . S
H378 C401 0.931 . S
H379 C402 0.931 . S
O380 Eu336 2.462 1_554 S
O380 C400 1.252 . S
O381 Eu336 2.373 . S
O381 C392 1.249 . S
O382 Eu347 2.335 1_556 S
O382 C392 1.264 . S
O383 Eu336 2.432 1_554 S
O383 C400 1.268 . S
O384 Eu336 2.291 . S
O384 C399 1.255 . S
O385 Eu347 2.372 1_556 S
O385 C399 1.257 . S
O386 Eu347 2.462 1_556 S
O386 C411 1.252 . S
O387 Eu347 2.373 . S
O387 C403 1.249 . S
O388 Eu336 2.335 1_554 S
O388 C403 1.264 . S
O389 Eu347 2.432 1_556 S
O389 C411 1.268 . S
O390 Eu347 2.291 . S
O390 C410 1.255 . S
O391 Eu336 2.372 1_554 S
O391 C410 1.257 . S
C392 O381 1.249 . S
C392 O382 1.264 . S
C393 C396 1.382 . S
C393 C398 1.390 . S
C393 C400 1.506 . S
C394 C395 1.398 . S
C394 C398 1.392 . S
C395 C394 1.398 . S
C395 C397 1.372 . S
C395 H412 0.931 . S
C396 C393 1.382 . S
C396 C397 1.390 . S
C396 H413 0.931 . S
C397 C395 1.372 . S
C397 C396 1.390 . S
C397 H414 0.929 . S
C398 C393 1.390 . S
C398 C394 1.392 . S
C398 H415 0.930 . S
C399 O384 1.255 . S
C399 O385 1.257 . S
C400 Eu336 2.787 1_554 S
C400 O380 1.252 . S
C400 O383 1.268 . S
C400 C393 1.506 . S
C401 C368 1.439 . S
C401 H378 0.931 . S
C401 C402 1.374 . S
C402 C373 1.387 . S
C402 H379 0.931 . S
C402 C401 1.374 . S
C403 O387 1.249 . S
C403 O388 1.264 . S
C404 C407 1.382 . S
C404 C408 1.390 . S
C404 C411 1.506 . S
C405 C406 1.398 . S
C405 C408 1.392 . S
C406 C405 1.398 . S
C406 C409 1.372 . S
C406 H416 0.931 . S
C407 C404 1.382 . S
C407 C409 1.390 . S
C407 H417 0.931 . S
C408 C404 1.390 . S
C408 C405 1.392 . S
C408 H418 0.930 . S
C409 C406 1.372 . S
C409 C407 1.390 . S
C409 H419 0.929 . S
C410 O390 1.255 . S
C410 O391 1.257 . S
C411 Eu347 2.787 1_556 S
C411 O386 1.252 . S
C411 O389 1.268 . S
C411 C404 1.506 . S
H412 C395 0.931 . S
H413 C396 0.931 . S
H414 C397 0.929 . S
H415 C398 0.930 . S
H416 C406 0.931 . S
H417 C407 0.931 . S
H418 C408 0.930 . S
H419 C409 0.929 . S
Eu420 N449 2.600 . S
Eu420 N455 2.562 . S
Eu420 O464 2.462 1_554 S
Eu420 O465 2.373 . S
Eu420 O467 2.432 1_554 S
Eu420 O468 2.291 . S
Eu420 O472 2.335 1_554 S
Eu420 O475 2.372 1_554 S
Eu420 C484 2.787 1_554 S
C421 N422 1.365 . S
C421 C424 1.405 . S
C421 C428 1.448 . S
N422 C421 1.365 . S
N422 C425 1.319 . S
N422 Eu431 2.600 . S
C423 C425 1.397 . S
C423 C426 1.367 . S
C423 H443 0.931 . S
C424 C421 1.405 . S
C424 C426 1.403 . S
C424 C430 1.439 . S
C425 N422 1.319 . S
C425 C423 1.397 . S
C425 H436 0.930 . S
C426 C423 1.367 . S
C426 C424 1.403 . S
C426 H447 0.929 . S
C427 C428 1.430 . S
C427 C429 1.387 . S
C427 C433 1.404 . S
C428 C421 1.448 . S
C428 C427 1.430 . S
C428 N432 1.351 . S
C429 C427 1.387 . S
C429 C430 1.374 . S
C429 H444 0.931 . S
C430 C424 1.439 . S
C430 C429 1.374 . S
C430 H445 0.931 . S
Eu431 N422 2.600 . S
Eu431 N432 2.562 . S
Eu431 O466 2.335 1_556 S
Eu431 O469 2.372 1_556 S
Eu431 O470 2.462 1_556 S
Eu431 O471 2.373 . S
Eu431 O473 2.432 1_556 S
Eu431 O474 2.291 . S
Eu431 C495 2.787 1_556 S
N432 C428 1.351 . S
N432 Eu431 2.562 . S
N432 C434 1.325 . S
C433 C427 1.404 . S
C433 C435 1.366 . S
C433 H441 0.930 . S
C434 N432 1.325 . S
C434 C435 1.416 . S
C434 H440 0.929 . S
C435 C433 1.366 . S
C435 C434 1.416 . S
C435 H437 0.930 . S
H436 C425 0.930 . S
H437 C435 0.930 . S
H438 C453 0.930 . S
H439 C460 0.930 . S
H440 C434 0.929 . S
H441 C433 0.930 . S
H442 C456 0.929 . S
H443 C423 0.931 . S
H444 C429 0.931 . S
H445 C430 0.931 . S
H446 C451 0.931 . S
H447 C426 0.929 . S
H448 C459 0.930 . S
N449 Eu420 2.600 . S
N449 C450 1.365 . S
N449 C453 1.319 . S
C450 N449 1.365 . S
C450 C452 1.405 . S
C450 C458 1.448 . S
C451 H446 0.931 . S
C451 C453 1.397 . S
C451 C454 1.367 . S
C452 C450 1.405 . S
C452 C454 1.403 . S
C452 C485 1.439 . S
C453 H438 0.930 . S
C453 N449 1.319 . S
C453 C451 1.397 . S
C454 C451 1.367 . S
C454 C452 1.403 . S
C454 H461 0.929 . S
N455 Eu420 2.562 . S
N455 C456 1.325 . S
N455 C458 1.351 . S
C456 H442 0.929 . S
C456 N455 1.325 . S
C456 C460 1.416 . S
C457 C458 1.430 . S
C457 C459 1.404 . S
C457 C486 1.387 . S
C458 C450 1.448 . S
C458 N455 1.351 . S
C458 C457 1.430 . S
C459 H448 0.930 . S
C459 C457 1.404 . S
C459 C460 1.366 . S
C460 H439 0.930 . S
C460 C456 1.416 . S
C460 C459 1.366 . S
H461 C454 0.929 . S
H462 C485 0.931 . S
H463 C486 0.931 . S
O464 Eu420 2.462 1_556 S
O464 C484 1.252 . S
O465 Eu420 2.373 . S
O465 C476 1.249 . S
O466 Eu431 2.335 1_554 S
O466 C476 1.264 . S
O467 Eu420 2.432 1_556 S
O467 C484 1.268 . S
O468 Eu420 2.291 . S
O468 C483 1.255 . S
O469 Eu431 2.372 1_554 S
O469 C483 1.257 . S
O470 Eu431 2.462 1_554 S
O470 C495 1.252 . S
O471 Eu431 2.373 . S
O471 C487 1.249 . S
O472 Eu420 2.335 1_556 S
O472 C487 1.264 . S
O473 Eu431 2.432 1_554 S
O473 C495 1.268 . S
O474 Eu431 2.291 . S
O474 C494 1.255 . S
O475 Eu420 2.372 1_556 S
O475 C494 1.257 . S
C476 O465 1.249 . S
C476 O466 1.264 . S
C477 C480 1.382 . S
C477 C482 1.390 . S
C477 C484 1.506 . S
C478 C479 1.398 . S
C478 C482 1.392 . S
C479 C478 1.398 . S
C479 C481 1.372 . S
C479 H496 0.931 . S
C480 C477 1.382 . S
C480 C481 1.390 . S
C480 H497 0.931 . S
C481 C479 1.372 . S
C481 C480 1.390 . S
C481 H498 0.929 . S
C482 C477 1.390 . S
C482 C478 1.392 . S
C482 H499 0.930 . S
C483 O468 1.255 . S
C483 O469 1.257 . S
C484 Eu420 2.787 1_556 S
C484 O464 1.252 . S
C484 O467 1.268 . S
C484 C477 1.506 . S
C485 C452 1.439 . S
C485 H462 0.931 . S
C485 C486 1.374 . S
C486 C457 1.387 . S
C486 H463 0.931 . S
C486 C485 1.374 . S
C487 O471 1.249 . S
C487 O472 1.264 . S
C488 C491 1.382 . S
C488 C492 1.390 . S
C488 C495 1.506 . S
C489 C490 1.398 . S
C489 C492 1.392 . S
C490 C489 1.398 . S
C490 C493 1.372 . S
C490 H500 0.931 . S
C491 C488 1.382 . S
C491 C493 1.390 . S
C491 H501 0.931 . S
C492 C488 1.390 . S
C492 C489 1.392 . S
C492 H502 0.930 . S
C493 C490 1.372 . S
C493 C491 1.390 . S
C493 H503 0.929 . S
C494 O474 1.255 . S
C494 O475 1.257 . S
C495 Eu431 2.787 1_554 S
C495 O470 1.252 . S
C495 O473 1.268 . S
C495 C488 1.506 . S
H496 C479 0.931 . S
H497 C480 0.931 . S
H498 C481 0.929 . S
H499 C482 0.930 . S
H500 C490 0.931 . S
H501 C491 0.931 . S
H502 C492 0.930 . S
H503 C493 0.929 . S
Eu504 N533 2.600 . S
Eu504 N539 2.562 . S
Eu504 O548 2.462 1_554 S
Eu504 O549 2.373 . S
Eu504 O551 2.432 1_554 S
Eu504 O552 2.291 . S
Eu504 O556 2.335 1_554 S
Eu504 O559 2.372 1_554 S
Eu504 C568 2.787 1_554 S
C505 N506 1.365 . S
C505 C508 1.405 . S
C505 C512 1.448 . S
N506 C505 1.365 . S
N506 C509 1.319 . S
N506 Eu515 2.600 . S
C507 C509 1.397 . S
C507 C510 1.367 . S
C507 H527 0.931 . S
C508 C505 1.405 . S
C508 C510 1.403 . S
C508 C514 1.439 . S
C509 N506 1.319 . S
C509 C507 1.397 . S
C509 H520 0.930 . S
C510 C507 1.367 . S
C510 C508 1.403 . S
C510 H531 0.929 . S
C511 C512 1.430 . S
C511 C513 1.387 . S
C511 C517 1.404 . S
C512 C505 1.448 . S
C512 C511 1.430 . S
C512 N516 1.351 . S
C513 C511 1.387 . S
C513 C514 1.374 . S
C513 H528 0.931 . S
C514 C508 1.439 . S
C514 C513 1.374 . S
C514 H529 0.931 . S
Eu515 N506 2.600 . S
Eu515 N516 2.562 . S
Eu515 O550 2.335 1_556 S
Eu515 O553 2.372 1_556 S
Eu515 O554 2.462 1_556 S
Eu515 O555 2.373 . S
Eu515 O557 2.432 1_556 S
Eu515 O558 2.291 . S
Eu515 C579 2.787 1_556 S
N516 C512 1.351 . S
N516 Eu515 2.562 . S
N516 C518 1.325 . S
C517 C511 1.404 . S
C517 C519 1.366 . S
C517 H525 0.930 . S
C518 N516 1.325 . S
C518 C519 1.416 . S
C518 H524 0.929 . S
C519 C517 1.366 . S
C519 C518 1.416 . S
C519 H521 0.930 . S
H520 C509 0.930 . S
H521 C519 0.930 . S
H522 C537 0.930 . S
H523 C544 0.930 . S
H524 C518 0.929 . S
H525 C517 0.930 . S
H526 C540 0.929 . S
H527 C507 0.931 . S
H528 C513 0.931 . S
H529 C514 0.931 . S
H530 C535 0.931 . S
H531 C510 0.929 . S
H532 C543 0.930 . S
N533 Eu504 2.600 . S
N533 C534 1.365 . S
N533 C537 1.319 . S
C534 N533 1.365 . S
C534 C536 1.405 . S
C534 C542 1.448 . S
C535 H530 0.931 . S
C535 C537 1.397 . S
C535 C538 1.367 . S
C536 C534 1.405 . S
C536 C538 1.403 . S
C536 C569 1.439 . S
C537 H522 0.930 . S
C537 N533 1.319 . S
C537 C535 1.397 . S
C538 C535 1.367 . S
C538 C536 1.403 . S
C538 H545 0.929 . S
N539 Eu504 2.562 . S
N539 C540 1.325 . S
N539 C542 1.351 . S
C540 H526 0.929 . S
C540 N539 1.325 . S
C540 C544 1.416 . S
C541 C542 1.430 . S
C541 C543 1.404 . S
C541 C570 1.387 . S
C542 C534 1.448 . S
C542 N539 1.351 . S
C542 C541 1.430 . S
C543 H532 0.930 . S
C543 C541 1.404 . S
C543 C544 1.366 . S
C544 H523 0.930 . S
C544 C540 1.416 . S
C544 C543 1.366 . S
H545 C538 0.929 . S
H546 C569 0.931 . S
H547 C570 0.931 . S
O548 Eu504 2.462 1_556 S
O548 C568 1.252 . S
O549 Eu504 2.373 . S
O549 C560 1.249 . S
O550 Eu515 2.335 1_554 S
O550 C560 1.264 . S
O551 Eu504 2.432 1_556 S
O551 C568 1.268 . S
O552 Eu504 2.291 . S
O552 C567 1.255 . S
O553 Eu515 2.372 1_554 S
O553 C567 1.257 . S
O554 Eu515 2.462 1_554 S
O554 C579 1.252 . S
O555 Eu515 2.373 . S
O555 C571 1.249 . S
O556 Eu504 2.335 1_556 S
O556 C571 1.264 . S
O557 Eu515 2.432 1_554 S
O557 C579 1.268 . S
O558 Eu515 2.291 . S
O558 C578 1.255 . S
O559 Eu504 2.372 1_556 S
O559 C578 1.257 . S
C560 O549 1.249 . S
C560 O550 1.264 . S
C561 C564 1.382 . S
C561 C566 1.390 . S
C561 C568 1.506 . S
C562 C563 1.398 . S
C562 C566 1.392 . S
C563 C562 1.398 . S
C563 C565 1.372 . S
C563 H580 0.931 . S
C564 C561 1.382 . S
C564 C565 1.390 . S
C564 H581 0.931 . S
C565 C563 1.372 . S
C565 C564 1.390 . S
C565 H582 0.929 . S
C566 C561 1.390 . S
C566 C562 1.392 . S
C566 H583 0.930 . S
C567 O552 1.255 . S
C567 O553 1.257 . S
C568 Eu504 2.787 1_556 S
C568 O548 1.252 . S
C568 O551 1.268 . S
C568 C561 1.506 . S
C569 C536 1.439 . S
C569 H546 0.931 . S
C569 C570 1.374 . S
C570 C541 1.387 . S
C570 H547 0.931 . S
C570 C569 1.374 . S
C571 O555 1.249 . S
C571 O556 1.264 . S
C572 C575 1.382 . S
C572 C576 1.390 . S
C572 C579 1.506 . S
C573 C574 1.398 . S
C573 C576 1.392 . S
C574 C573 1.398 . S
C574 C577 1.372 . S
C574 H584 0.931 . S
C575 C572 1.382 . S
C575 C577 1.390 . S
C575 H585 0.931 . S
C576 C572 1.390 . S
C576 C573 1.392 . S
C576 H586 0.930 . S
C577 C574 1.372 . S
C577 C575 1.390 . S
C577 H587 0.929 . S
C578 O558 1.255 . S
C578 O559 1.257 . S
C579 Eu515 2.787 1_554 S
C579 O554 1.252 . S
C579 O557 1.268 . S
C579 C572 1.506 . S
H580 C563 0.931 . S
H581 C564 0.931 . S
H582 C565 0.929 . S
H583 C566 0.930 . S
H584 C574 0.931 . S
H585 C575 0.931 . S
H586 C576 0.930 . S
H587 C577 0.929 . S
Eu588 N617 2.600 . S
Eu588 N623 2.562 . S
Eu588 O632 2.462 1_556 S
Eu588 O633 2.373 . S
Eu588 O635 2.432 1_556 S
Eu588 O636 2.291 . S
Eu588 O640 2.335 1_556 S
Eu588 O643 2.372 1_556 S
Eu588 C652 2.787 1_556 S
C589 N590 1.365 . S
C589 C592 1.405 . S
C589 C596 1.448 . S
N590 C589 1.365 . S
N590 C593 1.319 . S
N590 Eu599 2.600 . S
C591 C593 1.397 . S
C591 C594 1.367 . S
C591 H611 0.931 . S
C592 C589 1.405 . S
C592 C594 1.403 . S
C592 C598 1.439 . S
C593 N590 1.319 . S
C593 C591 1.397 . S
C593 H604 0.930 . S
C594 C591 1.367 . S
C594 C592 1.403 . S
C594 H615 0.929 . S
C595 C596 1.430 . S
C595 C597 1.387 . S
C595 C601 1.404 . S
C596 C589 1.448 . S
C596 C595 1.430 . S
C596 N600 1.351 . S
C597 C595 1.387 . S
C597 C598 1.374 . S
C597 H612 0.931 . S
C598 C592 1.439 . S
C598 C597 1.374 . S
C598 H613 0.931 . S
Eu599 N590 2.600 . S
Eu599 N600 2.562 . S
Eu599 O634 2.335 1_554 S
Eu599 O637 2.372 1_554 S
Eu599 O638 2.462 1_554 S
Eu599 O639 2.373 . S
Eu599 O641 2.432 1_554 S
Eu599 O642 2.291 . S
Eu599 C663 2.787 1_554 S
N600 C596 1.351 . S
N600 Eu599 2.562 . S
N600 C602 1.325 . S
C601 C595 1.404 . S
C601 C603 1.366 . S
C601 H609 0.930 . S
C602 N600 1.325 . S
C602 C603 1.416 . S
C602 H608 0.929 . S
C603 C601 1.366 . S
C603 C602 1.416 . S
C603 H605 0.930 . S
H604 C593 0.930 . S
H605 C603 0.930 . S
H606 C621 0.930 . S
H607 C628 0.930 . S
H608 C602 0.929 . S
H609 C601 0.930 . S
H610 C624 0.929 . S
H611 C591 0.931 . S
H612 C597 0.931 . S
H613 C598 0.931 . S
H614 C619 0.931 . S
H615 C594 0.929 . S
H616 C627 0.930 . S
N617 Eu588 2.600 . S
N617 C618 1.365 . S
N617 C621 1.319 . S
C618 N617 1.365 . S
C618 C620 1.405 . S
C618 C626 1.448 . S
C619 H614 0.931 . S
C619 C621 1.397 . S
C619 C622 1.367 . S
C620 C618 1.405 . S
C620 C622 1.403 . S
C620 C653 1.439 . S
C621 H606 0.930 . S
C621 N617 1.319 . S
C621 C619 1.397 . S
C622 C619 1.367 . S
C622 C620 1.403 . S
C622 H629 0.929 . S
N623 Eu588 2.562 . S
N623 C624 1.325 . S
N623 C626 1.351 . S
C624 H610 0.929 . S
C624 N623 1.325 . S
C624 C628 1.416 . S
C625 C626 1.430 . S
C625 C627 1.404 . S
C625 C654 1.387 . S
C626 C618 1.448 . S
C626 N623 1.351 . S
C626 C625 1.430 . S
C627 H616 0.930 . S
C627 C625 1.404 . S
C627 C628 1.366 . S
C628 H607 0.930 . S
C628 C624 1.416 . S
C628 C627 1.366 . S
H629 C622 0.929 . S
H630 C653 0.931 . S
H631 C654 0.931 . S
O632 Eu588 2.462 1_554 S
O632 C652 1.252 . S
O633 Eu588 2.373 . S
O633 C644 1.249 . S
O634 Eu599 2.335 1_556 S
O634 C644 1.264 . S
O635 Eu588 2.432 1_554 S
O635 C652 1.268 . S
O636 Eu588 2.291 . S
O636 C651 1.255 . S
O637 Eu599 2.372 1_556 S
O637 C651 1.257 . S
O638 Eu599 2.462 1_556 S
O638 C663 1.252 . S
O639 Eu599 2.373 . S
O639 C655 1.249 . S
O640 Eu588 2.335 1_554 S
O640 C655 1.264 . S
O641 Eu599 2.432 1_556 S
O641 C663 1.268 . S
O642 Eu599 2.291 . S
O642 C662 1.255 . S
O643 Eu588 2.372 1_554 S
O643 C662 1.257 . S
C644 O633 1.249 . S
C644 O634 1.264 . S
C645 C648 1.382 . S
C645 C650 1.390 . S
C645 C652 1.506 . S
C646 C647 1.398 . S
C646 C650 1.392 . S
C647 C646 1.398 . S
C647 C649 1.372 . S
C647 H664 0.931 . S
C648 C645 1.382 . S
C648 C649 1.390 . S
C648 H665 0.931 . S
C649 C647 1.372 . S
C649 C648 1.390 . S
C649 H666 0.929 . S
C650 C645 1.390 . S
C650 C646 1.392 . S
C650 H667 0.930 . S
C651 O636 1.255 . S
C651 O637 1.257 . S
C652 Eu588 2.787 1_554 S
C652 O632 1.252 . S
C652 O635 1.268 . S
C652 C645 1.506 . S
C653 C620 1.439 . S
C653 H630 0.931 . S
C653 C654 1.374 . S
C654 C625 1.387 . S
C654 H631 0.931 . S
C654 C653 1.374 . S
C655 O639 1.249 . S
C655 O640 1.264 . S
C656 C659 1.382 . S
C656 C660 1.390 . S
C656 C663 1.506 . S
C657 C658 1.398 . S
C657 C660 1.392 . S
C658 C657 1.398 . S
C658 C661 1.372 . S
C658 H668 0.931 . S
C659 C656 1.382 . S
C659 C661 1.390 . S
C659 H669 0.931 . S
C660 C656 1.390 . S
C660 C657 1.392 . S
C660 H670 0.930 . S
C661 C658 1.372 . S
C661 C659 1.390 . S
C661 H671 0.929 . S
C662 O642 1.255 . S
C662 O643 1.257 . S
C663 Eu599 2.787 1_556 S
C663 O638 1.252 . S
C663 O641 1.268 . S
C663 C656 1.506 . S
H664 C647 0.931 . S
H665 C648 0.931 . S
H666 C649 0.929 . S
H667 C650 0.930 . S
H668 C658 0.931 . S
H669 C659 0.931 . S
H670 C660 0.930 . S
H671 C661 0.929 . S
H672 C680 0.929 . S
H673 C682 0.930 . S
H674 C684 0.930 . S
H675 C687 0.929 . S
H676 C690 0.930 . S
H677 C692 0.960 . S
H678 C692 0.960 . S
H679 C692 0.960 . S
C680 H672 0.929 . S
C680 C681 1.377 . S
C680 C682 1.384 . S
C681 C680 1.377 . S
C681 C687 1.390 . S
C682 H673 0.930 . S
C682 C680 1.384 . S
C682 C683 1.372 . S
C683 C682 1.372 . S
C683 C684 1.400 . S
C683 C688 1.490 . S
C684 H674 0.930 . S
C684 C683 1.400 . S
C684 C687 1.386 . S
H685 C701 0.930 . S
H686 C702 0.931 . S
C687 H675 0.929 . S
C687 C681 1.390 . S
C687 C684 1.386 . S
C688 C683 1.490 . S
C688 C690 1.395 . S
C688 C691 1.403 . S
H689 C695 0.930 . S
C690 H676 0.930 . S
C690 C688 1.395 . S
C690 C693 1.403 . S
C691 C688 1.403 . S
C691 C692 1.524 . S
C691 C695 1.400 . S
C692 H677 0.960 . S
C692 H678 0.960 . S
C692 H679 0.960 . S
C692 C691 1.524 . S
C693 C690 1.403 . S
C693 C694 1.392 . S
C693 C697 1.495 . S
C694 C693 1.392 . S
C694 C695 1.385 . S
C694 C696 1.478 . S
C695 H689 0.930 . S
C695 C691 1.400 . S
C695 C694 1.385 . S
C696 C694 1.478 . S
C696 C698 1.381 . S
C696 C702 1.383 . S
C697 C693 1.495 . S
C697 H703 0.959 . S
C697 H704 0.961 . S
C697 H705 0.960 . S
C698 C696 1.381 . S
C698 C699 1.394 . S
C698 H706 0.930 . S
C699 C698 1.394 . S
C699 C700 1.383 . S
C699 H707 0.929 . S
C700 C699 1.383 . S
C700 C701 1.377 . S
C701 H685 0.930 . S
C701 C700 1.377 . S
C701 C702 1.379 . S
C702 H686 0.931 . S
C702 C696 1.383 . S
C702 C701 1.379 . S
H703 C697 0.959 . S
H704 C697 0.961 . S
H705 C697 0.960 . S
H706 C698 0.930 . S
H707 C699 0.929 . S
H708 C716 0.929 . S
H709 C718 0.930 . S
H710 C720 0.930 . S
H711 C723 0.929 . S
H712 C726 0.930 . S
H713 C728 0.960 . S
H714 C728 0.960 . S
H715 C728 0.960 . S
C716 H708 0.929 . S
C716 C717 1.377 . S
C716 C718 1.384 . S
C717 C716 1.377 . S
C717 C723 1.390 . S
C718 H709 0.930 . S
C718 C716 1.384 . S
C718 C719 1.372 . S
C719 C718 1.372 . S
C719 C720 1.400 . S
C719 C724 1.490 . S
C720 H710 0.930 . S
C720 C719 1.400 . S
C720 C723 1.386 . S
H721 C737 0.930 . S
H722 C738 0.931 . S
C723 H711 0.929 . S
C723 C717 1.390 . S
C723 C720 1.386 . S
C724 C719 1.490 . S
C724 C726 1.395 . S
C724 C727 1.403 . S
H725 C731 0.930 . S
C726 H712 0.930 . S
C726 C724 1.395 . S
C726 C729 1.403 . S
C727 C724 1.403 . S
C727 C728 1.524 . S
C727 C731 1.400 . S
C728 H713 0.960 . S
C728 H714 0.960 . S
C728 H715 0.960 . S
C728 C727 1.524 . S
C729 C726 1.403 . S
C729 C730 1.392 . S
C729 C733 1.495 . S
C730 C729 1.392 . S
C730 C731 1.385 . S
C730 C732 1.478 . S
C731 H725 0.930 . S
C731 C727 1.400 . S
C731 C730 1.385 . S
C732 C730 1.478 . S
C732 C734 1.381 . S
C732 C738 1.383 . S
C733 C729 1.495 . S
C733 H739 0.959 . S
C733 H740 0.961 . S
C733 H741 0.960 . S
C734 C732 1.381 . S
C734 C735 1.394 . S
C734 H742 0.930 . S
C735 C734 1.394 . S
C735 C736 1.383 . S
C735 H743 0.929 . S
C736 C735 1.383 . S
C736 C737 1.377 . S
C737 H721 0.930 . S
C737 C736 1.377 . S
C737 C738 1.379 . S
C738 H722 0.931 . S
C738 C732 1.383 . S
C738 C737 1.379 . S
H739 C733 0.959 . S
H740 C733 0.961 . S
H741 C733 0.960 . S
H742 C734 0.930 . S
H743 C735 0.929 . S
H744 C752 0.929 . S
H745 C754 0.930 . S
H746 C756 0.930 . S
H747 C759 0.929 . S
H748 C762 0.930 . S
H749 C764 0.960 . S
H750 C764 0.960 . S
H751 C764 0.960 . S
C752 H744 0.929 . S
C752 C753 1.377 . S
C752 C754 1.384 . S
C753 C752 1.377 . S
C753 C759 1.390 . S
C754 H745 0.930 . S
C754 C752 1.384 . S
C754 C755 1.372 . S
C755 C754 1.372 . S
C755 C756 1.400 . S
C755 C760 1.490 . S
C756 H746 0.930 . S
C756 C755 1.400 . S
C756 C759 1.386 . S
H757 C773 0.930 . S
H758 C774 0.931 . S
C759 H747 0.929 . S
C759 C753 1.390 . S
C759 C756 1.386 . S
C760 C755 1.490 . S
C760 C762 1.395 . S
C760 C763 1.403 . S
H761 C767 0.930 . S
C762 H748 0.930 . S
C762 C760 1.395 . S
C762 C765 1.403 . S
C763 C760 1.403 . S
C763 C764 1.524 . S
C763 C767 1.400 . S
C764 H749 0.960 . S
C764 H750 0.960 . S
C764 H751 0.960 . S
C764 C763 1.524 . S
C765 C762 1.403 . S
C765 C766 1.392 . S
C765 C769 1.495 . S
C766 C765 1.392 . S
C766 C767 1.385 . S
C766 C768 1.478 . S
C767 H761 0.930 . S
C767 C763 1.400 . S
C767 C766 1.385 . S
C768 C766 1.478 . S
C768 C770 1.381 . S
C768 C774 1.383 . S
C769 C765 1.495 . S
C769 H775 0.959 . S
C769 H776 0.961 . S
C769 H777 0.960 . S
C770 C768 1.381 . S
C770 C771 1.394 . S
C770 H778 0.930 . S
C771 C770 1.394 . S
C771 C772 1.383 . S
C771 H779 0.929 . S
C772 C771 1.383 . S
C772 C773 1.377 . S
C773 H757 0.930 . S
C773 C772 1.377 . S
C773 C774 1.379 . S
C774 H758 0.931 . S
C774 C768 1.383 . S
C774 C773 1.379 . S
H775 C769 0.959 . S
H776 C769 0.961 . S
H777 C769 0.960 . S
H778 C770 0.930 . S
H779 C771 0.929 . S
H780 C788 0.929 . S
H781 C790 0.930 . S
H782 C792 0.930 . S
H783 C795 0.929 . S
H784 C798 0.930 . S
H785 C800 0.960 . S
H786 C800 0.960 . S
H787 C800 0.960 . S
C788 H780 0.929 . S
C788 C789 1.377 . S
C788 C790 1.384 . S
C789 C788 1.377 . S
C789 C795 1.390 . S
C790 H781 0.930 . S
C790 C788 1.384 . S
C790 C791 1.372 . S
C791 C790 1.372 . S
C791 C792 1.400 . S
C791 C796 1.490 . S
C792 H782 0.930 . S
C792 C791 1.400 . S
C792 C795 1.386 . S
H793 C809 0.930 . S
H794 C810 0.931 . S
C795 H783 0.929 . S
C795 C789 1.390 . S
C795 C792 1.386 . S
C796 C791 1.490 . S
C796 C798 1.395 . S
C796 C799 1.403 . S
H797 C803 0.930 . S
C798 H784 0.930 . S
C798 C796 1.395 . S
C798 C801 1.403 . S
C799 C796 1.403 . S
C799 C800 1.524 . S
C799 C803 1.400 . S
C800 H785 0.960 . S
C800 H786 0.960 . S
C800 H787 0.960 . S
C800 C799 1.524 . S
C801 C798 1.403 . S
C801 C802 1.392 . S
C801 C805 1.495 . S
C802 C801 1.392 . S
C802 C803 1.385 . S
C802 C804 1.478 . S
C803 H797 0.930 . S
C803 C799 1.400 . S
C803 C802 1.385 . S
C804 C802 1.478 . S
C804 C806 1.381 . S
C804 C810 1.383 . S
C805 C801 1.495 . S
C805 H811 0.959 . S
C805 H812 0.961 . S
C805 H813 0.960 . S
C806 C804 1.381 . S
C806 C807 1.394 . S
C806 H814 0.930 . S
C807 C806 1.394 . S
C807 C808 1.383 . S
C807 H815 0.929 . S
C808 C807 1.383 . S
C808 C809 1.377 . S
C809 H793 0.930 . S
C809 C808 1.377 . S
C809 C810 1.379 . S
C810 H794 0.931 . S
C810 C804 1.383 . S
C810 C809 1.379 . S
H811 C805 0.959 . S
H812 C805 0.961 . S
H813 C805 0.960 . S
H814 C806 0.930 . S
H815 C807 0.929 . S
H816 C824 0.929 . S
H817 C826 0.930 . S
H818 C828 0.930 . S
H819 C831 0.929 . S
H820 C834 0.930 . S
H821 C836 0.960 . S
H822 C836 0.960 . S
H823 C836 0.960 . S
C824 H816 0.929 . S
C824 C825 1.377 . S
C824 C826 1.384 . S
C825 C824 1.377 . S
C825 C831 1.390 . S
C826 H817 0.930 . S
C826 C824 1.384 . S
C826 C827 1.372 . S
C827 C826 1.372 . S
C827 C828 1.400 . S
C827 C832 1.490 . S
C828 H818 0.930 . S
C828 C827 1.400 . S
C828 C831 1.386 . S
H829 C845 0.930 . S
H830 C846 0.931 . S
C831 H819 0.929 . S
C831 C825 1.390 . S
C831 C828 1.386 . S
C832 C827 1.490 . S
C832 C834 1.395 . S
C832 C835 1.403 . S
H833 C839 0.930 . S
C834 H820 0.930 . S
C834 C832 1.395 . S
C834 C837 1.403 1_565 S
C835 C832 1.403 . S
C835 C836 1.524 . S
C835 C839 1.400 1_565 S
C836 H821 0.960 . S
C836 H822 0.960 . S
C836 H823 0.960 . S
C836 C835 1.524 . S
C837 C834 1.403 1_545 S
C837 C838 1.392 . S
C837 C841 1.495 . S
C838 C837 1.392 . S
C838 C839 1.385 . S
C838 C840 1.478 . S
C839 H833 0.930 . S
C839 C835 1.400 1_545 S
C839 C838 1.385 . S
C840 C838 1.478 . S
C840 C842 1.381 . S
C840 C846 1.383 . S
C841 C837 1.495 . S
C841 H847 0.959 . S
C841 H848 0.961 . S
C841 H849 0.960 . S
C842 C840 1.381 . S
C842 C843 1.394 . S
C842 H850 0.930 . S
C843 C842 1.394 . S
C843 C844 1.383 . S
C843 H851 0.929 . S
C844 C843 1.383 . S
C844 C845 1.377 . S
C845 H829 0.930 . S
C845 C844 1.377 . S
C845 C846 1.379 . S
C846 H830 0.931 . S
C846 C840 1.383 . S
C846 C845 1.379 . S
H847 C841 0.959 . S
H848 C841 0.961 . S
H849 C841 0.960 . S
H850 C842 0.930 . S
H851 C843 0.929 . S
H852 C860 0.929 . S
H853 C862 0.930 . S
H854 C864 0.930 . S
H855 C867 0.929 . S
H856 C870 0.930 . S
H857 C872 0.960 . S
H858 C872 0.960 . S
H859 C872 0.960 . S
C860 H852 0.929 . S
C860 C861 1.377 . S
C860 C862 1.384 . S
C861 C860 1.377 . S
C861 C867 1.390 . S
C862 H853 0.930 . S
C862 C860 1.384 . S
C862 C863 1.372 . S
C863 C862 1.372 . S
C863 C864 1.400 . S
C863 C868 1.490 . S
C864 H854 0.930 . S
C864 C863 1.400 . S
C864 C867 1.386 . S
H865 C881 0.930 . S
H866 C882 0.931 . S
C867 H855 0.929 . S
C867 C861 1.390 . S
C867 C864 1.386 . S
C868 C863 1.490 . S
C868 C870 1.395 . S
C868 C871 1.403 . S
H869 C875 0.930 . S
C870 H856 0.930 . S
C870 C868 1.395 . S
C870 C873 1.403 . S
C871 C868 1.403 . S
C871 C872 1.524 . S
C871 C875 1.400 . S
C872 H857 0.960 . S
C872 H858 0.960 . S
C872 H859 0.960 . S
C872 C871 1.524 . S
C873 C870 1.403 . S
C873 C874 1.392 . S
C873 C877 1.495 . S
C874 C873 1.392 . S
C874 C875 1.385 . S
C874 C876 1.478 . S
C875 H869 0.930 . S
C875 C871 1.400 . S
C875 C874 1.385 . S
C876 C874 1.478 . S
C876 C878 1.381 . S
C876 C882 1.383 . S
C877 C873 1.495 . S
C877 H883 0.959 . S
C877 H884 0.961 . S
C877 H885 0.960 . S
C878 C876 1.381 . S
C878 C879 1.394 . S
C878 H886 0.930 . S
C879 C878 1.394 . S
C879 C880 1.383 . S
C879 H887 0.929 . S
C880 C879 1.383 . S
C880 C881 1.377 . S
C881 H865 0.930 . S
C881 C880 1.377 . S
C881 C882 1.379 . S
C882 H866 0.931 . S
C882 C876 1.383 . S
C882 C881 1.379 . S
H883 C877 0.959 . S
H884 C877 0.961 . S
H885 C877 0.960 . S
H886 C878 0.930 . S
H887 C879 0.929 . S
H888 C896 0.929 . S
H889 C898 0.930 . S
H890 C900 0.930 . S
H891 C903 0.929 . S
H892 C906 0.930 . S
H893 C908 0.960 . S
H894 C908 0.960 . S
H895 C908 0.960 . S
C896 H888 0.929 . S
C896 C897 1.377 . S
C896 C898 1.384 . S
C897 C896 1.377 . S
C897 C903 1.390 . S
C898 H889 0.930 . S
C898 C896 1.384 . S
C898 C899 1.372 . S
C899 C898 1.372 . S
C899 C900 1.400 . S
C899 C904 1.490 . S
C900 H890 0.930 . S
C900 C899 1.400 . S
C900 C903 1.386 . S
H901 C917 0.930 . S
H902 C918 0.931 . S
C903 H891 0.929 . S
C903 C897 1.390 . S
C903 C900 1.386 . S
C904 C899 1.490 . S
C904 C906 1.395 . S
C904 C907 1.403 . S
H905 C911 0.930 . S
C906 H892 0.930 . S
C906 C904 1.395 . S
C906 C909 1.403 1_565 S
C907 C904 1.403 . S
C907 C908 1.524 . S
C907 C911 1.400 1_565 S
C908 H893 0.960 . S
C908 H894 0.960 . S
C908 H895 0.960 . S
C908 C907 1.524 . S
C909 C906 1.403 1_545 S
C909 C910 1.392 . S
C909 C913 1.495 . S
C910 C909 1.392 . S
C910 C911 1.385 . S
C910 C912 1.478 . S
C911 H905 0.930 . S
C911 C907 1.400 1_545 S
C911 C910 1.385 . S
C912 C910 1.478 . S
C912 C914 1.381 . S
C912 C918 1.383 . S
C913 C909 1.495 . S
C913 H919 0.959 . S
C913 H920 0.961 . S
C913 H921 0.960 . S
C914 C912 1.381 . S
C914 C915 1.394 . S
C914 H922 0.930 . S
C915 C914 1.394 . S
C915 C916 1.383 . S
C915 H923 0.929 . S
C916 C915 1.383 . S
C916 C917 1.377 . S
C917 H901 0.930 . S
C917 C916 1.377 . S
C917 C918 1.379 . S
C918 H902 0.931 . S
C918 C912 1.383 . S
C918 C917 1.379 . S
H919 C913 0.959 . S
H920 C913 0.961 . S
H921 C913 0.960 . S
H922 C914 0.930 . S
H923 C915 0.929 . S
H924 C932 0.929 . S
H925 C934 0.930 . S
H926 C936 0.930 . S
H927 C939 0.929 . S
H928 C942 0.930 . S
H929 C944 0.960 . S
H930 C944 0.960 . S
H931 C944 0.960 . S
C932 H924 0.929 . S
C932 C933 1.377 . S
C932 C934 1.384 . S
C933 C932 1.377 . S
C933 C939 1.390 . S
C934 H925 0.930 . S
C934 C932 1.384 . S
C934 C935 1.372 . S
C935 C934 1.372 . S
C935 C936 1.400 . S
C935 C940 1.490 . S
C936 H926 0.930 . S
C936 C935 1.400 . S
C936 C939 1.386 . S
H937 C953 0.930 . S
H938 C954 0.931 . S
C939 H927 0.929 . S
C939 C933 1.390 . S
C939 C936 1.386 . S
C940 C935 1.490 . S
C940 C942 1.395 . S
C940 C943 1.403 . S
H941 C947 0.930 . S
C942 H928 0.930 . S
C942 C940 1.395 . S
C942 C945 1.403 . S
C943 C940 1.403 . S
C943 C944 1.524 . S
C943 C947 1.400 . S
C944 H929 0.960 . S
C944 H930 0.960 . S
C944 H931 0.960 . S
C944 C943 1.524 . S
C945 C942 1.403 . S
C945 C946 1.392 . S
C945 C949 1.495 . S
C946 C945 1.392 . S
C946 C947 1.385 . S
C946 C948 1.478 . S
C947 H941 0.930 . S
C947 C943 1.400 . S
C947 C946 1.385 . S
C948 C946 1.478 . S
C948 C950 1.381 . S
C948 C954 1.383 . S
C949 C945 1.495 . S
C949 H955 0.959 . S
C949 H956 0.961 . S
C949 H957 0.960 . S
C950 C948 1.381 . S
C950 C951 1.394 . S
C950 H958 0.930 . S
C951 C950 1.394 . S
C951 C952 1.383 . S
C951 H959 0.929 . S
C952 C951 1.383 . S
C952 C953 1.377 . S
C953 H937 0.930 . S
C953 C952 1.377 . S
C953 C954 1.379 . S
C954 H938 0.931 . S
C954 C948 1.383 . S
C954 C953 1.379 . S
H955 C949 0.959 . S
H956 C949 0.961 . S
H957 C949 0.960 . S
H958 C950 0.930 . S
H959 C951 0.929 . S
H960 C968 0.929 . S
H961 C970 0.930 . S
H962 C972 0.930 . S
H963 C975 0.929 . S
H964 C978 0.930 . S
H965 C980 0.960 . S
H966 C980 0.960 . S
H967 C980 0.960 . S
C968 H960 0.929 . S
C968 C969 1.377 . S
C968 C970 1.384 . S
C969 C968 1.377 . S
C969 C975 1.390 1_556 S
C970 H961 0.930 . S
C970 C968 1.384 . S
C970 C971 1.372 . S
C971 C970 1.372 . S
C971 C972 1.400 1_556 S
C971 C976 1.490 . S
C972 H962 0.930 . S
C972 C971 1.400 1_554 S
C972 C975 1.386 . S
H973 C989 0.930 . S
H974 C990 0.931 . S
C975 H963 0.929 . S
C975 C969 1.390 1_554 S
C975 C972 1.386 . S
C976 C971 1.490 . S
C976 C978 1.395 . S
C976 C979 1.403 1_556 S
H977 C983 0.930 . S
C978 H964 0.930 . S
C978 C976 1.395 . S
C978 C981 1.403 . S
C979 C976 1.403 1_554 S
C979 C980 1.524 . S
C979 C983 1.400 . S
C980 H965 0.960 . S
C980 H966 0.960 . S
C980 H967 0.960 . S
C980 C979 1.524 . S
C981 C978 1.403 . S
C981 C982 1.392 . S
C981 C985 1.495 . S
C982 C981 1.392 . S
C982 C983 1.385 1_556 S
C982 C984 1.478 . S
C983 H977 0.930 . S
C983 C979 1.400 . S
C983 C982 1.385 1_554 S
C984 C982 1.478 . S
C984 C986 1.381 . S
C984 C990 1.380 1_556 S
C985 C981 1.495 . S
C985 H991 0.959 . S
C985 H992 0.961 . S
C985 H993 0.960 . S
C986 C984 1.381 . S
C986 C987 1.394 . S
C986 H994 0.930 . S
C987 C986 1.394 . S
C987 C988 1.383 1_556 S
C987 H995 0.929 . S
C988 C987 1.383 1_554 S
C988 C989 1.377 . S
C989 H973 0.930 . S
C989 C988 1.377 . S
C989 C990 1.382 . S
C990 H974 0.931 . S
C990 C984 1.380 1_554 S
C990 C989 1.382 . S
H991 C985 0.959 . S
H992 C985 0.961 . S
H993 C985 0.960 . S
H994 C986 0.930 . S
H995 C987 0.929 . S
H996 C1004 0.929 . S
H997 C1006 0.930 . S
H998 C1008 0.930 . S
H999 C1011 0.929 . S
H1000 C1014 0.930 . S
H1001 C1016 0.960 . S
H1002 C1016 0.960 1_554 S
H1003 C1016 0.960 . S
C1004 H996 0.929 . S
C1004 C1005 1.377 . S
C1004 C1006 1.384 . S
C1005 C1004 1.377 . S
C1005 C1011 1.390 1_554 S
C1006 H997 0.930 . S
C1006 C1004 1.384 . S
C1006 C1007 1.372 . S
C1007 C1006 1.372 . S
C1007 C1008 1.400 1_554 S
C1007 C1012 1.490 . S
C1008 H998 0.930 . S
C1008 C1007 1.400 1_556 S
C1008 C1011 1.386 . S
H1009 C1025 0.930 . S
H1010 C1026 0.931 . S
C1011 H999 0.929 . S
C1011 C1005 1.390 1_556 S
C1011 C1008 1.386 . S
C1012 C1007 1.490 . S
C1012 C1014 1.395 . S
C1012 C1015 1.403 1_554 S
H1013 C1019 0.930 . S
C1014 H1000 0.930 . S
C1014 C1012 1.395 . S
C1014 C1017 1.403 1_565 S
C1015 C1012 1.403 1_556 S
C1015 C1016 1.524 . S
C1015 C1019 1.400 1_565 S
C1016 H1001 0.960 . S
C1016 H1002 0.960 1_556 S
C1016 H1003 0.960 . S
C1016 C1015 1.524 . S
C1017 C1014 1.403 1_545 S
C1017 C1018 1.392 . S
C1017 C1021 1.495 . S
C1018 C1017 1.392 . S
C1018 C1019 1.385 1_554 S
C1018 C1020 1.478 . S
C1019 H1013 0.930 . S
C1019 C1015 1.400 1_545 S
C1019 C1018 1.385 1_556 S
C1020 C1018 1.478 . S
C1020 C1022 1.383 . S
C1020 C1026 1.380 1_554 S
C1021 C1017 1.495 . S
C1021 H1027 0.959 . S
C1021 H1028 0.961 . S
C1021 H1029 0.960 . S
C1022 C1020 1.383 . S
C1022 C1023 1.394 . S
C1022 H1030 0.930 . S
C1023 C1022 1.394 . S
C1023 C1024 1.383 1_554 S
C1023 H1031 0.929 . S
C1024 C1023 1.383 1_556 S
C1024 C1025 1.377 . S
C1025 H1009 0.930 . S
C1025 C1024 1.377 . S
C1025 C1026 1.379 . S
C1026 H1010 0.931 . S
C1026 C1020 1.380 1_556 S
C1026 C1025 1.379 . S
H1027 C1021 0.959 . S
H1028 C1021 0.961 . S
H1029 C1021 0.960 . S
H1030 C1022 0.930 . S
H1031 C1023 0.929 . S
H1032 C1040 0.929 . S
H1033 C1042 0.930 . S
H1034 C1044 0.930 . S
H1035 C1047 0.929 . S
H1036 C1050 0.930 . S
H1037 C1052 0.960 . S
H1038 C1052 0.960 . S
H1039 C1052 0.960 . S
C1040 H1032 0.929 . S
C1040 C1041 1.377 . S
C1040 C1042 1.384 . S
C1041 C1040 1.377 . S
C1041 C1047 1.390 1_554 S
C1042 H1033 0.930 . S
C1042 C1040 1.384 . S
C1042 C1043 1.372 . S
C1043 C1042 1.372 . S
C1043 C1044 1.400 1_554 S
C1043 C1048 1.490 . S
C1044 H1034 0.930 . S
C1044 C1043 1.400 1_556 S
C1044 C1047 1.386 . S
H1045 C1061 0.930 . S
H1046 C1062 0.931 . S
C1047 H1035 0.929 . S
C1047 C1041 1.390 1_556 S
C1047 C1044 1.386 . S
C1048 C1043 1.490 . S
C1048 C1050 1.395 . S
C1048 C1051 1.403 1_554 S
H1049 C1055 0.930 . S
C1050 H1036 0.930 . S
C1050 C1048 1.395 . S
C1050 C1053 1.403 . S
C1051 C1048 1.403 1_556 S
C1051 C1052 1.524 . S
C1051 C1055 1.400 . S
C1052 H1037 0.960 . S
C1052 H1038 0.960 . S
C1052 H1039 0.960 . S
C1052 C1051 1.524 . S
C1053 C1050 1.403 . S
C1053 C1054 1.392 . S
C1053 C1057 1.495 . S
C1054 C1053 1.392 . S
C1054 C1055 1.385 1_554 S
C1054 C1056 1.478 . S
C1055 H1049 0.930 . S
C1055 C1051 1.400 . S
C1055 C1054 1.385 1_556 S
C1056 C1054 1.478 . S
C1056 C1058 1.381 . S
C1056 C1062 1.383 . S
C1057 C1053 1.495 . S
C1057 H1063 0.959 . S
C1057 H1064 0.961 . S
C1057 H1065 0.960 . S
C1058 C1056 1.381 . S
C1058 C1059 1.394 . S
C1058 H1066 0.930 . S
C1059 C1058 1.394 . S
C1059 C1060 1.383 1_554 S
C1059 H1067 0.929 . S
C1060 C1059 1.383 1_556 S
C1060 C1061 1.377 . S
C1061 H1045 0.930 . S
C1061 C1060 1.377 . S
C1061 C1062 1.379 1_556 S
C1062 H1046 0.931 . S
C1062 C1056 1.383 . S
C1062 C1061 1.379 1_554 S
H1063 C1057 0.959 . S
H1064 C1057 0.961 . S
H1065 C1057 0.960 . S
H1066 C1058 0.930 . S
H1067 C1059 0.929 . S
H1068 C1076 0.929 . S
H1069 C1078 0.930 . S
H1070 C1080 0.930 . S
H1071 C1083 0.929 . S
H1072 C1086 0.930 . S
H1073 C1088 0.960 . S
H1074 C1088 0.960 . S
H1075 C1088 0.960 . S
C1076 H1068 0.929 . S
C1076 C1077 1.377 . S
C1076 C1078 1.384 . S
C1077 C1076 1.377 . S
C1077 C1083 1.390 1_556 S
C1078 H1069 0.930 . S
C1078 C1076 1.384 . S
C1078 C1079 1.372 . S
C1079 C1078 1.372 . S
C1079 C1080 1.400 1_556 S
C1079 C1084 1.490 . S
C1080 H1070 0.930 . S
C1080 C1079 1.400 1_554 S
C1080 C1083 1.386 . S
H1081 C1097 0.930 . S
H1082 C1098 0.931 . S
C1083 H1071 0.929 . S
C1083 C1077 1.390 1_554 S
C1083 C1080 1.386 . S
C1084 C1079 1.490 . S
C1084 C1086 1.395 1_556 S
C1084 C1087 1.403 . S
H1085 C1091 0.930 . S
C1086 H1072 0.930 . S
C1086 C1084 1.395 1_554 S
C1086 C1089 1.403 1_545 S
C1087 C1084 1.403 . S
C1087 C1088 1.524 . S
C1087 C1091 1.400 1_545 S
C1088 H1073 0.960 . S
C1088 H1074 0.960 . S
C1088 H1075 0.960 . S
C1088 C1087 1.524 . S
C1089 C1086 1.403 1_565 S
C1089 C1090 1.392 . S
C1089 C1093 1.495 . S
C1090 C1089 1.392 . S
C1090 C1091 1.385 1_554 S
C1090 C1092 1.478 . S
C1091 H1085 0.930 . S
C1091 C1087 1.400 1_565 S
C1091 C1090 1.385 1_556 S
C1092 C1090 1.478 . S
C1092 C1094 1.381 1_554 S
C1092 C1098 1.383 . S
C1093 C1089 1.495 . S
C1093 H1099 0.959 . S
C1093 H1100 0.961 . S
C1093 H1101 0.960 . S
C1094 C1092 1.381 1_556 S
C1094 C1095 1.394 . S
C1094 H1102 0.930 . S
C1095 C1094 1.394 . S
C1095 C1096 1.383 1_556 S
C1095 H1103 0.929 . S
C1096 C1095 1.383 1_554 S
C1096 C1097 1.377 . S
C1097 H1081 0.930 . S
C1097 C1096 1.377 . S
C1097 C1098 1.379 . S
C1098 H1082 0.931 . S
C1098 C1092 1.383 . S
C1098 C1097 1.379 . S
H1099 C1093 0.959 . S
H1100 C1093 0.961 . S
H1101 C1093 0.960 . S
H1102 C1094 0.930 . S
H1103 C1095 0.929 . S
H1104 C1112 0.929 . S
H1105 C1114 0.930 . S
H1106 C1116 0.930 . S
H1107 C1119 0.929 . S
H1108 C1122 0.930 . S
H1109 C1124 0.960 . S
H1110 C1124 0.960 . S
H1111 C1124 0.960 . S
C1112 H1104 0.929 . S
C1112 C1113 1.377 . S
C1112 C1114 1.384 . S
C1113 C1112 1.377 . S
C1113 C1119 1.390 . S
C1114 H1105 0.930 . S
C1114 C1112 1.384 . S
C1114 C1115 1.372 . S
C1115 C1114 1.372 . S
C1115 C1116 1.400 . S
C1115 C1120 1.490 . S
C1116 H1106 0.930 . S
C1116 C1115 1.400 . S
C1116 C1119 1.386 . S
H1117 C1133 0.930 . S
H1118 C1134 0.931 . S
C1119 H1107 0.929 . S
C1119 C1113 1.390 . S
C1119 C1116 1.386 . S
C1120 C1115 1.490 . S
C1120 C1122 1.395 . S
C1120 C1123 1.403 . S
H1121 C1127 0.930 . S
C1122 H1108 0.930 . S
C1122 C1120 1.395 . S
C1122 C1125 1.403 1_554 S
C1123 C1120 1.403 . S
C1123 C1124 1.524 . S
C1123 C1127 1.400 1_554 S
C1124 H1109 0.960 . S
C1124 H1110 0.960 . S
C1124 H1111 0.960 . S
C1124 C1123 1.524 . S
C1125 C1122 1.403 1_556 S
C1125 C1126 1.392 . S
C1125 C1129 1.495 . S
C1126 C1125 1.392 . S
C1126 C1127 1.385 . S
C1126 C1128 1.478 . S
C1127 H1121 0.930 . S
C1127 C1123 1.400 1_556 S
C1127 C1126 1.385 . S
C1128 C1126 1.478 . S
C1128 C1130 1.381 . S
C1128 C1134 1.383 . S
C1129 C1125 1.495 . S
C1129 H1135 0.959 . S
C1129 H1136 0.961 . S
C1129 H1137 0.960 . S
C1130 C1128 1.381 . S
C1130 C1131 1.394 . S
C1130 H1138 0.930 . S
C1131 C1130 1.394 . S
C1131 C1132 1.383 . S
C1131 H1139 0.929 . S
C1132 C1131 1.383 . S
C1132 C1133 1.377 . S
C1133 H1117 0.930 . S
C1133 C1132 1.377 . S
C1133 C1134 1.379 . S
C1134 H1118 0.931 . S
C1134 C1128 1.383 . S
C1134 C1133 1.379 . S
H1135 C1129 0.959 . S
H1136 C1129 0.961 . S
H1137 C1129 0.960 . S
H1138 C1130 0.930 . S
H1139 C1131 0.929 . S
H1140 C1148 0.929 . S
H1141 C1150 0.930 . S
H1142 C1152 0.930 . S
H1143 C1155 0.929 . S
H1144 C1158 0.930 . S
H1145 C1160 0.960 1_556 S
H1146 C1160 0.960 . S
H1147 C1160 0.960 . S
C1148 H1140 0.929 . S
C1148 C1149 1.377 . S
C1148 C1150 1.384 . S
C1149 C1148 1.377 . S
C1149 C1155 1.390 . S
C1150 H1141 0.930 . S
C1150 C1148 1.384 . S
C1150 C1151 1.372 . S
C1151 C1150 1.372 . S
C1151 C1152 1.400 . S
C1151 C1156 1.490 . S
C1152 H1142 0.930 . S
C1152 C1151 1.400 . S
C1152 C1155 1.386 . S
H1153 C1169 0.930 . S
H1154 C1170 0.931 . S
C1155 H1143 0.929 . S
C1155 C1149 1.390 . S
C1155 C1152 1.386 . S
C1156 C1151 1.490 . S
C1156 C1158 1.395 . S
C1156 C1159 1.403 . S
H1157 C1163 0.930 . S
C1158 H1144 0.930 . S
C1158 C1156 1.395 . S
C1158 C1161 1.403 1_554 S
C1159 C1156 1.403 . S
C1159 C1160 1.524 . S
C1159 C1163 1.400 1_554 S
C1160 H1145 0.960 1_554 S
C1160 H1146 0.960 . S
C1160 H1147 0.960 . S
C1160 C1159 1.524 . S
C1161 C1158 1.403 1_556 S
C1161 C1162 1.392 . S
C1161 C1165 1.495 . S
C1162 C1161 1.392 . S
C1162 C1163 1.385 . S
C1162 C1164 1.478 . S
C1163 H1157 0.930 . S
C1163 C1159 1.400 1_556 S
C1163 C1162 1.385 . S
C1164 C1162 1.478 . S
C1164 C1166 1.381 . S
C1164 C1170 1.383 . S
C1165 C1161 1.495 . S
C1165 H1171 0.959 . S
C1165 H1172 0.961 . S
C1165 H1173 0.960 . S
C1166 C1164 1.381 . S
C1166 C1167 1.394 . S
C1166 H1174 0.930 . S
C1167 C1166 1.394 . S
C1167 C1168 1.383 . S
C1167 H1175 0.929 . S
C1168 C1167 1.383 . S
C1168 C1169 1.377 . S
C1169 H1153 0.930 . S
C1169 C1168 1.377 . S
C1169 C1170 1.379 . S
C1170 H1154 0.931 . S
C1170 C1164 1.383 . S
C1170 C1169 1.379 . S
H1171 C1165 0.959 . S
H1172 C1165 0.961 . S
H1173 C1165 0.960 . S
H1174 C1166 0.930 . S
H1175 C1167 0.929 . S
H1176 C1184 0.929 . S
H1177 C1186 0.930 . S
H1178 C1188 0.930 . S
H1179 C1191 0.929 . S
H1180 C1194 0.930 . S
H1181 C1196 0.960 . S
H1182 C1196 0.960 . S
H1183 C1196 0.960 . S
C1184 H1176 0.929 . S
C1184 C1185 1.377 . S
C1184 C1186 1.384 . S
C1185 C1184 1.377 . S
C1185 C1191 1.390 . S
C1186 H1177 0.930 . S
C1186 C1184 1.384 . S
C1186 C1187 1.372 . S
C1187 C1186 1.372 . S
C1187 C1188 1.400 . S
C1187 C1192 1.490 . S
C1188 H1178 0.930 . S
C1188 C1187 1.400 . S
C1188 C1191 1.386 . S
H1189 C1205 0.930 . S
H1190 C1206 0.931 . S
C1191 H1179 0.929 . S
C1191 C1185 1.390 . S
C1191 C1188 1.386 . S
C1192 C1187 1.490 . S
C1192 C1194 1.395 . S
C1192 C1195 1.403 . S
H1193 C1199 0.930 . S
C1194 H1180 0.930 . S
C1194 C1192 1.395 . S
C1194 C1197 1.403 1_554 S
C1195 C1192 1.403 . S
C1195 C1196 1.524 . S
C1195 C1199 1.400 1_554 S
C1196 H1181 0.960 . S
C1196 H1182 0.960 . S
C1196 H1183 0.960 . S
C1196 C1195 1.524 . S
C1197 C1194 1.403 1_556 S
C1197 C1198 1.392 . S
C1197 C1201 1.495 . S
C1198 C1197 1.392 . S
C1198 C1199 1.385 . S
C1198 C1200 1.478 . S
C1199 H1193 0.930 . S
C1199 C1195 1.400 1_556 S
C1199 C1198 1.385 . S
C1200 C1198 1.478 . S
C1200 C1202 1.381 . S
C1200 C1206 1.383 . S
C1201 C1197 1.495 . S
C1201 H1207 0.959 1_556 S
C1201 H1208 0.961 . S
C1201 H1209 0.960 . S
C1202 C1200 1.381 . S
C1202 C1203 1.394 . S
C1202 H1210 0.930 . S
C1203 C1202 1.394 . S
C1203 C1204 1.383 . S
C1203 H1211 0.929 . S
C1204 C1203 1.383 . S
C1204 C1205 1.377 . S
C1205 H1189 0.930 . S
C1205 C1204 1.377 . S
C1205 C1206 1.379 . S
C1206 H1190 0.931 . S
C1206 C1200 1.383 . S
C1206 C1205 1.379 . S
H1207 C1201 0.959 1_554 S
H1208 C1201 0.961 . S
H1209 C1201 0.960 . S
H1210 C1202 0.930 . S
H1211 C1203 0.929 . S
H1212 C1220 0.929 . S
H1213 C1222 0.930 . S
H1214 C1224 0.930 . S
H1215 C1227 0.929 . S
H1216 C1230 0.930 . S
H1217 C1232 0.960 . S
H1218 C1232 0.960 . S
H1219 C1232 0.960 . S
C1220 H1212 0.929 . S
C1220 C1221 1.377 . S
C1220 C1222 1.384 . S
C1221 C1220 1.377 . S
C1221 C1227 1.390 . S
C1222 H1213 0.930 . S
C1222 C1220 1.384 . S
C1222 C1223 1.372 . S
C1223 C1222 1.372 . S
C1223 C1224 1.400 . S
C1223 C1228 1.490 . S
C1224 H1214 0.930 . S
C1224 C1223 1.400 . S
C1224 C1227 1.386 . S
H1225 C1241 0.930 . S
H1226 C1242 0.931 . S
C1227 H1215 0.929 . S
C1227 C1221 1.390 . S
C1227 C1224 1.386 . S
C1228 C1223 1.490 . S
C1228 C1230 1.395 . S
C1228 C1231 1.403 . S
H1229 C1235 0.930 . S
C1230 H1216 0.930 . S
C1230 C1228 1.395 . S
C1230 C1233 1.403 1_556 S
C1231 C1228 1.403 . S
C1231 C1232 1.524 . S
C1231 C1235 1.400 1_556 S
C1232 H1217 0.960 . S
C1232 H1218 0.960 . S
C1232 H1219 0.960 . S
C1232 C1231 1.524 . S
C1233 C1230 1.403 1_554 S
C1233 C1234 1.392 . S
C1233 C1237 1.495 . S
C1234 C1233 1.392 . S
C1234 C1235 1.385 . S
C1234 C1236 1.478 . S
C1235 H1229 0.930 . S
C1235 C1231 1.400 1_554 S
C1235 C1234 1.385 . S
C1236 C1234 1.478 . S
C1236 C1238 1.381 . S
C1236 C1242 1.383 . S
C1237 C1233 1.495 . S
C1237 H1243 0.959 . S
C1237 H1244 0.961 . S
C1237 H1245 0.960 . S
C1238 C1236 1.381 . S
C1238 C1239 1.394 . S
C1238 H1246 0.930 . S
C1239 C1238 1.394 . S
C1239 C1240 1.383 . S
C1239 H1247 0.929 . S
C1240 C1239 1.383 . S
C1240 C1241 1.377 . S
C1241 H1225 0.930 . S
C1241 C1240 1.377 . S
C1241 C1242 1.379 . S
C1242 H1226 0.931 . S
C1242 C1236 1.383 . S
C1242 C1241 1.379 . S
H1243 C1237 0.959 . S
H1244 C1237 0.961 . S
H1245 C1237 0.960 . S
H1246 C1238 0.930 . S
H1247 C1239 0.929 . S
H1248 C1256 0.929 . S
H1249 C1258 0.930 . S
H1250 C1260 0.930 . S
H1251 C1263 0.929 . S
H1252 C1266 0.930 . S
H1253 C1268 0.960 . S
H1254 C1268 0.960 . S
H1255 C1268 0.960 . S
C1256 H1248 0.929 . S
C1256 C1257 1.377 . S
C1256 C1258 1.384 . S
C1257 C1256 1.377 . S
C1257 C1263 1.390 . S
C1258 H1249 0.930 . S
C1258 C1256 1.384 . S
C1258 C1259 1.372 . S
C1259 C1258 1.372 . S
C1259 C1260 1.400 . S
C1259 C1264 1.490 . S
C1260 H1250 0.930 . S
C1260 C1259 1.400 . S
C1260 C1263 1.386 . S
H1261 C1277 0.930 . S
H1262 C1278 0.931 . S
C1263 H1251 0.929 . S
C1263 C1257 1.390 . S
C1263 C1260 1.386 . S
C1264 C1259 1.490 . S
C1264 C1266 1.395 . S
C1264 C1267 1.403 . S
H1265 C1271 0.930 . S
C1266 H1252 0.930 . S
C1266 C1264 1.395 . S
C1266 C1269 1.403 . S
C1267 C1264 1.403 . S
C1267 C1268 1.524 . S
C1267 C1271 1.400 . S
C1268 H1253 0.960 . S
C1268 H1254 0.960 . S
C1268 H1255 0.960 . S
C1268 C1267 1.524 . S
C1269 C1266 1.403 . S
C1269 C1270 1.392 . S
C1269 C1273 1.495 . S
C1270 C1269 1.392 . S
C1270 C1271 1.385 . S
C1270 C1272 1.478 . S
C1271 H1265 0.930 . S
C1271 C1267 1.400 . S
C1271 C1270 1.385 . S
C1272 C1270 1.478 . S
C1272 C1274 1.381 . S
C1272 C1278 1.383 . S
C1273 C1269 1.495 . S
C1273 H1279 0.959 . S
C1273 H1280 0.961 . S
C1273 H1281 0.960 . S
C1274 C1272 1.381 . S
C1274 C1275 1.394 . S
C1274 H1282 0.930 . S
C1275 C1274 1.394 . S
C1275 C1276 1.383 . S
C1275 H1283 0.929 . S
C1276 C1275 1.383 . S
C1276 C1277 1.377 . S
C1277 H1261 0.930 . S
C1277 C1276 1.377 . S
C1277 C1278 1.379 . S
C1278 H1262 0.931 . S
C1278 C1272 1.383 . S
C1278 C1277 1.379 . S
H1279 C1273 0.959 . S
H1280 C1273 0.961 . S
H1281 C1273 0.960 . S
H1282 C1274 0.930 . S
H1283 C1275 0.929 . S
H1284 C1292 0.929 . S
H1285 C1294 0.930 . S
H1286 C1296 0.930 . S
H1287 C1299 0.929 . S
H1288 C1302 0.930 . S
H1289 C1304 0.960 . S
H1290 C1304 0.960 . S
H1291 C1304 0.960 . S
C1292 H1284 0.929 . S
C1292 C1293 1.377 . S
C1292 C1294 1.384 . S
C1293 C1292 1.377 . S
C1293 C1299 1.390 . S
C1294 H1285 0.930 . S
C1294 C1292 1.384 . S
C1294 C1295 1.372 . S
C1295 C1294 1.372 . S
C1295 C1296 1.400 . S
C1295 C1300 1.490 . S
C1296 H1286 0.930 . S
C1296 C1295 1.400 . S
C1296 C1299 1.386 . S
H1297 C1313 0.930 . S
H1298 C1314 0.931 . S
C1299 H1287 0.929 . S
C1299 C1293 1.390 . S
C1299 C1296 1.386 . S
C1300 C1295 1.490 . S
C1300 C1302 1.395 . S
C1300 C1303 1.403 . S
H1301 C1307 0.930 . S
C1302 H1288 0.930 . S
C1302 C1300 1.395 . S
C1302 C1305 1.403 . S
C1303 C1300 1.403 . S
C1303 C1304 1.524 . S
C1303 C1307 1.400 . S
C1304 H1289 0.960 . S
C1304 H1290 0.960 . S
C1304 H1291 0.960 . S
C1304 C1303 1.524 . S
C1305 C1302 1.403 . S
C1305 C1306 1.392 . S
C1305 C1309 1.495 . S
C1306 C1305 1.392 . S
C1306 C1307 1.385 . S
C1306 C1308 1.478 . S
C1307 H1301 0.930 . S
C1307 C1303 1.400 . S
C1307 C1306 1.385 . S
C1308 C1306 1.478 . S
C1308 C1310 1.381 . S
C1308 C1314 1.383 . S
C1309 C1305 1.495 . S
C1309 H1315 0.959 . S
C1309 H1316 0.961 . S
C1309 H1317 0.960 . S
C1310 C1308 1.381 . S
C1310 C1311 1.394 . S
C1310 H1318 0.930 . S
C1311 C1310 1.394 . S
C1311 C1312 1.383 . S
C1311 H1319 0.929 . S
C1312 C1311 1.383 . S
C1312 C1313 1.377 . S
C1313 H1297 0.930 . S
C1313 C1312 1.377 . S
C1313 C1314 1.379 . S
C1314 H1298 0.931 . S
C1314 C1308 1.383 . S
C1314 C1313 1.379 . S
H1315 C1309 0.959 . S
H1316 C1309 0.961 . S
H1317 C1309 0.960 . S
H1318 C1310 0.930 . S
H1319 C1311 0.929 . S
H1320 C1328 0.929 . S
H1321 C1330 0.930 . S
H1322 C1332 0.930 . S
H1323 C1335 0.929 . S
H1324 C1338 0.930 . S
H1325 C1340 0.960 . S
H1326 C1340 0.960 . S
H1327 C1340 0.960 . S
C1328 H1320 0.929 . S
C1328 C1329 1.377 . S
C1328 C1330 1.384 . S
C1329 C1328 1.377 . S
C1329 C1335 1.390 . S
C1330 H1321 0.930 . S
C1330 C1328 1.384 . S
C1330 C1331 1.372 . S
C1331 C1330 1.372 . S
C1331 C1332 1.400 . S
C1331 C1336 1.490 . S
C1332 H1322 0.930 . S
C1332 C1331 1.400 . S
C1332 C1335 1.386 . S
H1333 C1349 0.930 . S
H1334 C1350 0.931 . S
C1335 H1323 0.929 . S
C1335 C1329 1.390 . S
C1335 C1332 1.386 . S
C1336 C1331 1.490 . S
C1336 C1338 1.395 . S
C1336 C1339 1.403 . S
H1337 C1343 0.930 . S
C1338 H1324 0.930 . S
C1338 C1336 1.395 . S
C1338 C1341 1.403 . S
C1339 C1336 1.403 . S
C1339 C1340 1.524 . S
C1339 C1343 1.400 . S
C1340 H1325 0.960 . S
C1340 H1326 0.960 . S
C1340 H1327 0.960 . S
C1340 C1339 1.524 . S
C1341 C1338 1.403 . S
C1341 C1342 1.392 . S
C1341 C1345 1.495 . S
C1342 C1341 1.392 . S
C1342 C1343 1.385 . S
C1342 C1344 1.478 . S
C1343 H1337 0.930 . S
C1343 C1339 1.400 . S
C1343 C1342 1.385 . S
C1344 C1342 1.478 . S
C1344 C1346 1.381 . S
C1344 C1350 1.383 . S
C1345 C1341 1.495 . S
C1345 H1351 0.959 . S
C1345 H1352 0.961 . S
C1345 H1353 0.960 . S
C1346 C1344 1.381 . S
C1346 C1347 1.394 . S
C1346 H1354 0.930 . S
C1347 C1346 1.394 . S
C1347 C1348 1.383 . S
C1347 H1355 0.929 . S
C1348 C1347 1.383 . S
C1348 C1349 1.377 . S
C1349 H1333 0.930 . S
C1349 C1348 1.377 . S
C1349 C1350 1.379 . S
C1350 H1334 0.931 . S
C1350 C1344 1.383 . S
C1350 C1349 1.379 . S
H1351 C1345 0.959 . S
H1352 C1345 0.961 . S
H1353 C1345 0.960 . S
H1354 C1346 0.930 . S
H1355 C1347 0.929 . S
H1356 C1364 0.929 . S
H1357 C1366 0.930 . S
H1358 C1368 0.930 . S
H1359 C1371 0.929 . S
H1360 C1374 0.930 . S
H1361 C1376 0.960 . S
H1362 C1376 0.960 . S
H1363 C1376 0.960 . S
C1364 H1356 0.929 . S
C1364 C1365 1.377 . S
C1364 C1366 1.384 . S
C1365 C1364 1.377 . S
C1365 C1371 1.390 . S
C1366 H1357 0.930 . S
C1366 C1364 1.384 . S
C1366 C1367 1.372 . S
C1367 C1366 1.372 . S
C1367 C1368 1.400 . S
C1367 C1372 1.490 . S
C1368 H1358 0.930 . S
C1368 C1367 1.400 . S
C1368 C1371 1.386 . S
H1369 C1385 0.930 . S
H1370 C1386 0.931 . S
C1371 H1359 0.929 . S
C1371 C1365 1.390 . S
C1371 C1368 1.386 . S
C1372 C1367 1.490 . S
C1372 C1374 1.395 . S
C1372 C1375 1.403 . S
H1373 C1379 0.930 . S
C1374 H1360 0.930 . S
C1374 C1372 1.395 . S
C1374 C1377 1.403 . S
C1375 C1372 1.403 . S
C1375 C1376 1.524 . S
C1375 C1379 1.400 . S
C1376 H1361 0.960 . S
C1376 H1362 0.960 . S
C1376 H1363 0.960 . S
C1376 C1375 1.524 . S
C1377 C1374 1.403 . S
C1377 C1378 1.392 . S
C1377 C1381 1.495 . S
C1378 C1377 1.392 . S
C1378 C1379 1.385 . S
C1378 C1380 1.478 . S
C1379 H1373 0.930 . S
C1379 C1375 1.400 . S
C1379 C1378 1.385 . S
C1380 C1378 1.478 . S
C1380 C1382 1.381 . S
C1380 C1386 1.383 . S
C1381 C1377 1.495 . S
C1381 H1387 0.959 . S
C1381 H1388 0.961 . S
C1381 H1389 0.960 . S
C1382 C1380 1.381 . S
C1382 C1383 1.394 . S
C1382 H1390 0.930 . S
C1383 C1382 1.394 . S
C1383 C1384 1.383 . S
C1383 H1391 0.929 . S
C1384 C1383 1.383 . S
C1384 C1385 1.377 . S
C1385 H1369 0.930 . S
C1385 C1384 1.377 . S
C1385 C1386 1.379 . S
C1386 H1370 0.931 . S
C1386 C1380 1.383 . S
C1386 C1385 1.379 . S
H1387 C1381 0.959 . S
H1388 C1381 0.961 . S
H1389 C1381 0.960 . S
H1390 C1382 0.930 . S
H1391 C1383 0.929 . S
H1392 C1400 0.929 . S
H1393 C1402 0.930 . S
H1394 C1404 0.930 . S
H1395 C1407 0.929 . S
H1396 C1410 0.930 . S
H1397 C1412 0.960 . S
H1398 C1412 0.960 . S
H1399 C1412 0.960 . S
C1400 H1392 0.929 . S
C1400 C1401 1.377 . S
C1400 C1402 1.384 . S
C1401 C1400 1.377 . S
C1401 C1407 1.390 . S
C1402 H1393 0.930 . S
C1402 C1400 1.384 . S
C1402 C1403 1.372 . S
C1403 C1402 1.372 . S
C1403 C1404 1.400 . S
C1403 C1408 1.490 . S
C1404 H1394 0.930 . S
C1404 C1403 1.400 . S
C1404 C1407 1.386 . S
H1405 C1421 0.930 . S
H1406 C1422 0.931 . S
C1407 H1395 0.929 . S
C1407 C1401 1.390 . S
C1407 C1404 1.386 . S
C1408 C1403 1.490 . S
C1408 C1410 1.395 . S
C1408 C1411 1.403 . S
H1409 C1415 0.930 . S
C1410 H1396 0.930 . S
C1410 C1408 1.395 . S
C1410 C1413 1.403 1_455 S
C1411 C1408 1.403 . S
C1411 C1412 1.524 . S
C1411 C1415 1.400 1_455 S
C1412 H1397 0.960 . S
C1412 H1398 0.960 . S
C1412 H1399 0.960 . S
C1412 C1411 1.524 . S
C1413 C1410 1.403 1_655 S
C1413 C1414 1.392 . S
C1413 C1417 1.495 . S
C1414 C1413 1.392 . S
C1414 C1415 1.385 . S
C1414 C1416 1.478 . S
C1415 H1409 0.930 . S
C1415 C1411 1.400 1_655 S
C1415 C1414 1.385 . S
C1416 C1414 1.478 . S
C1416 C1418 1.381 . S
C1416 C1422 1.383 . S
C1417 C1413 1.495 . S
C1417 H1423 0.959 . S
C1417 H1424 0.961 . S
C1417 H1425 0.960 . S
C1418 C1416 1.381 . S
C1418 C1419 1.394 . S
C1418 H1426 0.930 . S
C1419 C1418 1.394 . S
C1419 C1420 1.383 . S
C1419 H1427 0.929 . S
C1420 C1419 1.383 . S
C1420 C1421 1.377 . S
C1421 H1405 0.930 . S
C1421 C1420 1.377 . S
C1421 C1422 1.379 . S
C1422 H1406 0.931 . S
C1422 C1416 1.383 . S
C1422 C1421 1.379 . S
H1423 C1417 0.959 . S
H1424 C1417 0.961 . S
H1425 C1417 0.960 . S
H1426 C1418 0.930 . S
H1427 C1419 0.929 . S
H1428 C1436 0.929 . S
H1429 C1438 0.930 . S
H1430 C1440 0.930 . S
H1431 C1443 0.929 . S
H1432 C1446 0.930 . S
H1433 C1448 0.960 . S
H1434 C1448 0.960 . S
H1435 C1448 0.960 . S
C1436 H1428 0.929 . S
C1436 C1437 1.377 . S
C1436 C1438 1.384 . S
C1437 C1436 1.377 . S
C1437 C1443 1.390 . S
C1438 H1429 0.930 . S
C1438 C1436 1.384 . S
C1438 C1439 1.372 . S
C1439 C1438 1.372 . S
C1439 C1440 1.400 . S
C1439 C1444 1.490 . S
C1440 H1430 0.930 . S
C1440 C1439 1.400 . S
C1440 C1443 1.386 . S
H1441 C1457 0.930 . S
H1442 C1458 0.931 . S
C1443 H1431 0.929 . S
C1443 C1437 1.390 . S
C1443 C1440 1.386 . S
C1444 C1439 1.490 . S
C1444 C1446 1.395 . S
C1444 C1447 1.403 . S
H1445 C1451 0.930 . S
C1446 H1432 0.930 . S
C1446 C1444 1.395 . S
C1446 C1449 1.403 1_655 S
C1447 C1444 1.403 . S
C1447 C1448 1.524 . S
C1447 C1451 1.400 1_655 S
C1448 H1433 0.960 . S
C1448 H1434 0.960 . S
C1448 H1435 0.960 . S
C1448 C1447 1.524 . S
C1449 C1446 1.403 1_455 S
C1449 C1450 1.392 . S
C1449 C1453 1.495 . S
C1450 C1449 1.392 . S
C1450 C1451 1.385 . S
C1450 C1452 1.478 . S
C1451 H1445 0.930 . S
C1451 C1447 1.400 1_455 S
C1451 C1450 1.385 . S
C1452 C1450 1.478 . S
C1452 C1454 1.381 . S
C1452 C1458 1.383 . S
C1453 C1449 1.495 . S
C1453 H1459 0.959 . S
C1453 H1460 0.961 . S
C1453 H1461 0.960 . S
C1454 C1452 1.381 . S
C1454 C1455 1.394 . S
C1454 H1462 0.930 . S
C1455 C1454 1.394 . S
C1455 C1456 1.383 . S
C1455 H1463 0.929 . S
C1456 C1455 1.383 . S
C1456 C1457 1.377 . S
C1457 H1441 0.930 . S
C1457 C1456 1.377 . S
C1457 C1458 1.379 . S
C1458 H1442 0.931 . S
C1458 C1452 1.383 . S
C1458 C1457 1.379 . S
H1459 C1453 0.959 . S
H1460 C1453 0.961 . S
H1461 C1453 0.960 . S
H1462 C1454 0.930 . S
H1463 C1455 0.929 . S
H1464 C1472 0.929 . S
H1465 C1474 0.930 . S
H1466 C1476 0.930 . S
H1467 C1479 0.929 . S
H1468 C1482 0.930 . S
H1469 C1484 0.960 . S
H1470 C1484 0.960 . S
H1471 C1484 0.960 . S
C1472 H1464 0.929 . S
C1472 C1473 1.377 . S
C1472 C1474 1.384 . S
C1473 C1472 1.377 . S
C1473 C1479 1.390 . S
C1474 H1465 0.930 . S
C1474 C1472 1.384 . S
C1474 C1475 1.372 . S
C1475 C1474 1.372 . S
C1475 C1476 1.400 . S
C1475 C1480 1.490 . S
C1476 H1466 0.930 . S
C1476 C1475 1.400 . S
C1476 C1479 1.386 . S
H1477 C1493 0.930 . S
H1478 C1494 0.931 . S
C1479 H1467 0.929 . S
C1479 C1473 1.390 . S
C1479 C1476 1.386 . S
C1480 C1475 1.490 . S
C1480 C1482 1.395 . S
C1480 C1483 1.403 . S
H1481 C1487 0.930 . S
C1482 H1468 0.930 . S
C1482 C1480 1.395 . S
C1482 C1485 1.403 . S
C1483 C1480 1.403 . S
C1483 C1484 1.524 . S
C1483 C1487 1.400 . S
C1484 H1469 0.960 . S
C1484 H1470 0.960 . S
C1484 H1471 0.960 . S
C1484 C1483 1.524 . S
C1485 C1482 1.403 . S
C1485 C1486 1.392 . S
C1485 C1489 1.495 . S
C1486 C1485 1.392 . S
C1486 C1487 1.385 . S
C1486 C1488 1.478 . S
C1487 H1481 0.930 . S
C1487 C1483 1.400 . S
C1487 C1486 1.385 . S
C1488 C1486 1.478 . S
C1488 C1490 1.381 . S
C1488 C1494 1.383 . S
C1489 C1485 1.495 . S
C1489 H1495 0.959 . S
C1489 H1496 0.961 . S
C1489 H1497 0.960 . S
C1490 C1488 1.381 . S
C1490 C1491 1.394 . S
C1490 H1498 0.930 . S
C1491 C1490 1.394 . S
C1491 C1492 1.383 . S
C1491 H1499 0.929 . S
C1492 C1491 1.383 . S
C1492 C1493 1.377 . S
C1493 H1477 0.930 . S
C1493 C1492 1.377 . S
C1493 C1494 1.379 . S
C1494 H1478 0.931 . S
C1494 C1488 1.383 . S
C1494 C1493 1.379 . S
H1495 C1489 0.959 . S
H1496 C1489 0.961 . S
H1497 C1489 0.960 . S
H1498 C1490 0.930 . S
H1499 C1491 0.929 . S
H1500 C1508 0.929 . S
H1501 C1510 0.930 . S
H1502 C1512 0.930 . S
H1503 C1515 0.929 . S
H1504 C1518 0.930 . S
H1505 C1520 0.960 . S
H1506 C1520 0.960 . S
H1507 C1520 0.960 . S
C1508 H1500 0.929 . S
C1508 C1509 1.377 . S
C1508 C1510 1.384 . S
C1509 C1508 1.377 . S
C1509 C1515 1.390 . S
C1510 H1501 0.930 . S
C1510 C1508 1.384 . S
C1510 C1511 1.372 . S
C1511 C1510 1.372 . S
C1511 C1512 1.400 . S
C1511 C1516 1.490 . S
C1512 H1502 0.930 . S
C1512 C1511 1.400 . S
C1512 C1515 1.386 . S
H1513 C1529 0.930 . S
H1514 C1530 0.931 . S
C1515 H1503 0.929 . S
C1515 C1509 1.390 . S
C1515 C1512 1.386 . S
C1516 C1511 1.490 . S
C1516 C1518 1.395 . S
C1516 C1519 1.403 . S
H1517 C1523 0.930 . S
C1518 H1504 0.930 . S
C1518 C1516 1.395 . S
C1518 C1521 1.403 . S
C1519 C1516 1.403 . S
C1519 C1520 1.524 . S
C1519 C1523 1.400 . S
C1520 H1505 0.960 . S
C1520 H1506 0.960 . S
C1520 H1507 0.960 . S
C1520 C1519 1.524 . S
C1521 C1518 1.403 . S
C1521 C1522 1.392 . S
C1521 C1525 1.495 . S
C1522 C1521 1.392 . S
C1522 C1523 1.385 . S
C1522 C1524 1.478 . S
C1523 H1517 0.930 . S
C1523 C1519 1.400 . S
C1523 C1522 1.385 . S
C1524 C1522 1.478 . S
C1524 C1526 1.381 . S
C1524 C1530 1.383 . S
C1525 C1521 1.495 . S
C1525 H1531 0.959 . S
C1525 H1532 0.961 . S
C1525 H1533 0.960 . S
C1526 C1524 1.381 . S
C1526 C1527 1.394 . S
C1526 H1534 0.930 . S
C1527 C1526 1.394 . S
C1527 C1528 1.383 . S
C1527 H1535 0.929 . S
C1528 C1527 1.383 . S
C1528 C1529 1.377 . S
C1529 H1513 0.930 . S
C1529 C1528 1.377 . S
C1529 C1530 1.379 . S
C1530 H1514 0.931 . S
C1530 C1524 1.383 . S
C1530 C1529 1.379 . S
H1531 C1525 0.959 . S
H1532 C1525 0.961 . S
H1533 C1525 0.960 . S
H1534 C1526 0.930 . S
H1535 C1527 0.929 . S
C681 C58 1.577 . S
C700 C657 1.569 . S
C717 C562 1.587 . S
C736 C153 1.624 . S
C753 C489 1.582 . S
C772 C226 1.537 . S
C789 C394 1.588 . S
C808 C321 1.548 . S
C825 C231 2.600 . S
C844 C63 2.607 . S
C861 C147 0.507 . S
C880 C315 0.444 . S
C897 C326 2.604 . S
C916 C158 2.606 . S
C933 C242 0.505 . S
C952 C74 0.565 . S
C969 C399 2.612 . S
C988 C567 2.609 . S
C1005 C483 0.467 . S
C1024 C651 0.550 . S
C1041 C662 2.616 . S
C1060 C494 2.614 . S
C1077 C578 0.473 . S
C1096 C410 0.419 . S
C1113 C56 1.737 . S
C1132 C67 1.724 . S
C1149 C151 1.736 . S
C1168 C140 1.747 . S
C1185 C235 1.737 . S
C1204 C224 1.747 . S
C1221 C319 1.732 . S
C1240 C308 1.728 . S
C1257 C403 1.735 . S
C1276 C392 1.744 . S
C1293 C487 1.735 . S
C1312 C476 1.718 . S
C1329 C560 1.735 . S
C1348 C571 1.745 . S
C1365 C655 1.735 . S
C1384 C644 1.717 . S
C1401 C69 2.044 . S
C1420 C142 2.069 . S
C1437 C310 2.057 . S
C1456 C237 2.018 . S
C1473 C405 2.050 . S
C1492 C478 2.081 . S
C1509 C646 2.054 . S
C1528 C573 2.014 . S
