# Generated by pormake.
# Topology rho, (4)-cn, num edge types: 1
# Building blocks:
#     Node 0, Type 0, BuildingBlock: KUFVIS_clean_sbu_0, # of connection points: 4
#     Node 1, Type 0, BuildingBlock: KUFVIS_clean_sbu_0, # of connection points: 4
#     Node 2, Type 0, BuildingBlock: KUFVIS_clean_sbu_0, # of connection points: 4
#     Node 3, Type 0, BuildingBlock: KUFVIS_clean_sbu_0, # of connection points: 4
#     Node 4, Type 0, BuildingBlock: KUFVIS_clean_sbu_0, # of connection points: 4
#     Node 5, Type 0, BuildingBlock: KUFVIS_clean_sbu_0, # of connection points: 4
#     Node 6, Type 0, BuildingBlock: KUFVIS_clean_sbu_0, # of connection points: 4
#     Node 7, Type 0, BuildingBlock: KUFVIS_clean_sbu_0, # of connection points: 4
#     Node 8, Type 0, BuildingBlock: KUFVIS_clean_sbu_0, # of connection points: 4
#     Node 9, Type 0, BuildingBlock: KUFVIS_clean_sbu_0, # of connection points: 4
#     Node 10, Type 0, BuildingBlock: KUFVIS_clean_sbu_0, # of connection points: 4
#     Node 11, Type 0, BuildingBlock: KUFVIS_clean_sbu_0, # of connection points: 4
#     Node 12, Type 0, BuildingBlock: KUFVIS_clean_sbu_0, # of connection points: 4
#     Node 13, Type 0, BuildingBlock: KUFVIS_clean_sbu_0, # of connection points: 4
#     Node 14, Type 0, BuildingBlock: KUFVIS_clean_sbu_0, # of connection points: 4
#     Node 15, Type 0, BuildingBlock: KUFVIS_clean_sbu_0, # of connection points: 4
#     Node 16, Type 0, BuildingBlock: KUFVIS_clean_sbu_0, # of connection points: 4
#     Node 17, Type 0, BuildingBlock: KUFVIS_clean_sbu_0, # of connection points: 4
#     Node 18, Type 0, BuildingBlock: KUFVIS_clean_sbu_0, # of connection points: 4
#     Node 19, Type 0, BuildingBlock: KUFVIS_clean_sbu_0, # of connection points: 4
#     Node 20, Type 0, BuildingBlock: KUFVIS_clean_sbu_0, # of connection points: 4
#     Node 21, Type 0, BuildingBlock: KUFVIS_clean_sbu_0, # of connection points: 4
#     Node 22, Type 0, BuildingBlock: KUFVIS_clean_sbu_0, # of connection points: 4
#     Node 23, Type 0, BuildingBlock: KUFVIS_clean_sbu_0, # of connection points: 4
#     Node 24, Type 0, BuildingBlock: KUFVIS_clean_sbu_0, # of connection points: 4
#     Node 25, Type 0, BuildingBlock: KUFVIS_clean_sbu_0, # of connection points: 4
#     Node 26, Type 0, BuildingBlock: KUFVIS_clean_sbu_0, # of connection points: 4
#     Node 27, Type 0, BuildingBlock: KUFVIS_clean_sbu_0, # of connection points: 4
#     Node 28, Type 0, BuildingBlock: KUFVIS_clean_sbu_0, # of connection points: 4
#     Node 29, Type 0, BuildingBlock: KUFVIS_clean_sbu_0, # of connection points: 4
#     Node 30, Type 0, BuildingBlock: KUFVIS_clean_sbu_0, # of connection points: 4
#     Node 31, Type 0, BuildingBlock: KUFVIS_clean_sbu_0, # of connection points: 4
#     Node 32, Type 0, BuildingBlock: KUFVIS_clean_sbu_0, # of connection points: 4
#     Node 33, Type 0, BuildingBlock: KUFVIS_clean_sbu_0, # of connection points: 4
#     Node 34, Type 0, BuildingBlock: KUFVIS_clean_sbu_0, # of connection points: 4
#     Node 35, Type 0, BuildingBlock: KUFVIS_clean_sbu_0, # of connection points: 4
#     Node 36, Type 0, BuildingBlock: KUFVIS_clean_sbu_0, # of connection points: 4
#     Node 37, Type 0, BuildingBlock: KUFVIS_clean_sbu_0, # of connection points: 4
#     Node 38, Type 0, BuildingBlock: KUFVIS_clean_sbu_0, # of connection points: 4
#     Node 39, Type 0, BuildingBlock: KUFVIS_clean_sbu_0, # of connection points: 4
#     Node 40, Type 0, BuildingBlock: KUFVIS_clean_sbu_0, # of connection points: 4
#     Node 41, Type 0, BuildingBlock: KUFVIS_clean_sbu_0, # of connection points: 4
#     Node 42, Type 0, BuildingBlock: KUFVIS_clean_sbu_0, # of connection points: 4
#     Node 43, Type 0, BuildingBlock: KUFVIS_clean_sbu_0, # of connection points: 4
#     Node 44, Type 0, BuildingBlock: KUFVIS_clean_sbu_0, # of connection points: 4
#     Node 45, Type 0, BuildingBlock: KUFVIS_clean_sbu_0, # of connection points: 4
#     Node 46, Type 0, BuildingBlock: KUFVIS_clean_sbu_0, # of connection points: 4
#     Node 47, Type 0, BuildingBlock: KUFVIS_clean_sbu_0, # of connection points: 4
#     Edge 48, Type (0, 0), BuildingBlock: AJUNOK_clean_linker_0, # of connection points: 2
#     Edge 49, Type (0, 0), BuildingBlock: AJUNOK_clean_linker_0, # of connection points: 2
#     Edge 50, Type (0, 0), BuildingBlock: AJUNOK_clean_linker_0, # of connection points: 2
#     Edge 51, Type (0, 0), BuildingBlock: AJUNOK_clean_linker_0, # of connection points: 2
#     Edge 52, Type (0, 0), BuildingBlock: AJUNOK_clean_linker_0, # of connection points: 2
#     Edge 53, Type (0, 0), BuildingBlock: AJUNOK_clean_linker_0, # of connection points: 2
#     Edge 54, Type (0, 0), BuildingBlock: AJUNOK_clean_linker_0, # of connection points: 2
#     Edge 55, Type (0, 0), BuildingBlock: AJUNOK_clean_linker_0, # of connection points: 2
#     Edge 56, Type (0, 0), BuildingBlock: AJUNOK_clean_linker_0, # of connection points: 2
#     Edge 57, Type (0, 0), BuildingBlock: AJUNOK_clean_linker_0, # of connection points: 2
#     Edge 58, Type (0, 0), BuildingBlock: AJUNOK_clean_linker_0, # of connection points: 2
#     Edge 59, Type (0, 0), BuildingBlock: AJUNOK_clean_linker_0, # of connection points: 2
#     Edge 60, Type (0, 0), BuildingBlock: AJUNOK_clean_linker_0, # of connection points: 2
#     Edge 61, Type (0, 0), BuildingBlock: AJUNOK_clean_linker_0, # of connection points: 2
#     Edge 62, Type (0, 0), BuildingBlock: AJUNOK_clean_linker_0, # of connection points: 2
#     Edge 63, Type (0, 0), BuildingBlock: AJUNOK_clean_linker_0, # of connection points: 2
#     Edge 64, Type (0, 0), BuildingBlock: AJUNOK_clean_linker_0, # of connection points: 2
#     Edge 65, Type (0, 0), BuildingBlock: AJUNOK_clean_linker_0, # of connection points: 2
#     Edge 66, Type (0, 0), BuildingBlock: AJUNOK_clean_linker_0, # of connection points: 2
#     Edge 67, Type (0, 0), BuildingBlock: AJUNOK_clean_linker_0, # of connection points: 2
#     Edge 68, Type (0, 0), BuildingBlock: AJUNOK_clean_linker_0, # of connection points: 2
#     Edge 69, Type (0, 0), BuildingBlock: AJUNOK_clean_linker_0, # of connection points: 2
#     Edge 70, Type (0, 0), BuildingBlock: AJUNOK_clean_linker_0, # of connection points: 2
#     Edge 71, Type (0, 0), BuildingBlock: AJUNOK_clean_linker_0, # of connection points: 2
#     Edge 72, Type (0, 0), BuildingBlock: AJUNOK_clean_linker_0, # of connection points: 2
#     Edge 73, Type (0, 0), BuildingBlock: AJUNOK_clean_linker_0, # of connection points: 2
#     Edge 74, Type (0, 0), BuildingBlock: AJUNOK_clean_linker_0, # of connection points: 2
#     Edge 75, Type (0, 0), BuildingBlock: AJUNOK_clean_linker_0, # of connection points: 2
#     Edge 76, Type (0, 0), BuildingBlock: AJUNOK_clean_linker_0, # of connection points: 2
#     Edge 77, Type (0, 0), BuildingBlock: AJUNOK_clean_linker_0, # of connection points: 2
#     Edge 78, Type (0, 0), BuildingBlock: AJUNOK_clean_linker_0, # of connection points: 2
#     Edge 79, Type (0, 0), BuildingBlock: AJUNOK_clean_linker_0, # of connection points: 2
#     Edge 80, Type (0, 0), BuildingBlock: AJUNOK_clean_linker_0, # of connection points: 2
#     Edge 81, Type (0, 0), BuildingBlock: AJUNOK_clean_linker_0, # of connection points: 2
#     Edge 82, Type (0, 0), BuildingBlock: AJUNOK_clean_linker_0, # of connection points: 2
#     Edge 83, Type (0, 0), BuildingBlock: AJUNOK_clean_linker_0, # of connection points: 2
#     Edge 84, Type (0, 0), BuildingBlock: AJUNOK_clean_linker_0, # of connection points: 2
#     Edge 85, Type (0, 0), BuildingBlock: AJUNOK_clean_linker_0, # of connection points: 2
#     Edge 86, Type (0, 0), BuildingBlock: AJUNOK_clean_linker_0, # of connection points: 2
#     Edge 87, Type (0, 0), BuildingBlock: AJUNOK_clean_linker_0, # of connection points: 2
#     Edge 88, Type (0, 0), BuildingBlock: AJUNOK_clean_linker_0, # of connection points: 2
#     Edge 89, Type (0, 0), BuildingBlock: AJUNOK_clean_linker_0, # of connection points: 2
#     Edge 90, Type (0, 0), BuildingBlock: AJUNOK_clean_linker_0, # of connection points: 2
#     Edge 91, Type (0, 0), BuildingBlock: AJUNOK_clean_linker_0, # of connection points: 2
#     Edge 92, Type (0, 0), BuildingBlock: AJUNOK_clean_linker_0, # of connection points: 2
#     Edge 93, Type (0, 0), BuildingBlock: AJUNOK_clean_linker_0, # of connection points: 2
#     Edge 94, Type (0, 0), BuildingBlock: AJUNOK_clean_linker_0, # of connection points: 2
#     Edge 95, Type (0, 0), BuildingBlock: AJUNOK_clean_linker_0, # of connection points: 2
#     Edge 96, Type (0, 0), BuildingBlock: AJUNOK_clean_linker_0, # of connection points: 2
#     Edge 97, Type (0, 0), BuildingBlock: AJUNOK_clean_linker_0, # of connection points: 2
#     Edge 98, Type (0, 0), BuildingBlock: AJUNOK_clean_linker_0, # of connection points: 2
#     Edge 99, Type (0, 0), BuildingBlock: AJUNOK_clean_linker_0, # of connection points: 2
#     Edge 100, Type (0, 0), BuildingBlock: AJUNOK_clean_linker_0, # of connection points: 2
#     Edge 101, Type (0, 0), BuildingBlock: AJUNOK_clean_linker_0, # of connection points: 2
#     Edge 102, Type (0, 0), BuildingBlock: AJUNOK_clean_linker_0, # of connection points: 2
#     Edge 103, Type (0, 0), BuildingBlock: AJUNOK_clean_linker_0, # of connection points: 2
#     Edge 104, Type (0, 0), BuildingBlock: AJUNOK_clean_linker_0, # of connection points: 2
#     Edge 105, Type (0, 0), BuildingBlock: AJUNOK_clean_linker_0, # of connection points: 2
#     Edge 106, Type (0, 0), BuildingBlock: AJUNOK_clean_linker_0, # of connection points: 2
#     Edge 107, Type (0, 0), BuildingBlock: AJUNOK_clean_linker_0, # of connection points: 2
#     Edge 108, Type (0, 0), BuildingBlock: AJUNOK_clean_linker_0, # of connection points: 2
#     Edge 109, Type (0, 0), BuildingBlock: AJUNOK_clean_linker_0, # of connection points: 2
#     Edge 110, Type (0, 0), BuildingBlock: AJUNOK_clean_linker_0, # of connection points: 2
#     Edge 111, Type (0, 0), BuildingBlock: AJUNOK_clean_linker_0, # of connection points: 2
#     Edge 112, Type (0, 0), BuildingBlock: AJUNOK_clean_linker_0, # of connection points: 2
#     Edge 113, Type (0, 0), BuildingBlock: AJUNOK_clean_linker_0, # of connection points: 2
#     Edge 114, Type (0, 0), BuildingBlock: AJUNOK_clean_linker_0, # of connection points: 2
#     Edge 115, Type (0, 0), BuildingBlock: AJUNOK_clean_linker_0, # of connection points: 2
#     Edge 116, Type (0, 0), BuildingBlock: AJUNOK_clean_linker_0, # of connection points: 2
#     Edge 117, Type (0, 0), BuildingBlock: AJUNOK_clean_linker_0, # of connection points: 2
#     Edge 118, Type (0, 0), BuildingBlock: AJUNOK_clean_linker_0, # of connection points: 2
#     Edge 119, Type (0, 0), BuildingBlock: AJUNOK_clean_linker_0, # of connection points: 2
#     Edge 120, Type (0, 0), BuildingBlock: AJUNOK_clean_linker_0, # of connection points: 2
#     Edge 121, Type (0, 0), BuildingBlock: AJUNOK_clean_linker_0, # of connection points: 2
#     Edge 122, Type (0, 0), BuildingBlock: AJUNOK_clean_linker_0, # of connection points: 2
#     Edge 123, Type (0, 0), BuildingBlock: AJUNOK_clean_linker_0, # of connection points: 2
#     Edge 124, Type (0, 0), BuildingBlock: AJUNOK_clean_linker_0, # of connection points: 2
#     Edge 125, Type (0, 0), BuildingBlock: AJUNOK_clean_linker_0, # of connection points: 2
#     Edge 126, Type (0, 0), BuildingBlock: AJUNOK_clean_linker_0, # of connection points: 2
#     Edge 127, Type (0, 0), BuildingBlock: AJUNOK_clean_linker_0, # of connection points: 2
#     Edge 128, Type (0, 0), BuildingBlock: AJUNOK_clean_linker_0, # of connection points: 2
#     Edge 129, Type (0, 0), BuildingBlock: AJUNOK_clean_linker_0, # of connection points: 2
#     Edge 130, Type (0, 0), BuildingBlock: AJUNOK_clean_linker_0, # of connection points: 2
#     Edge 131, Type (0, 0), BuildingBlock: AJUNOK_clean_linker_0, # of connection points: 2
#     Edge 132, Type (0, 0), BuildingBlock: AJUNOK_clean_linker_0, # of connection points: 2
#     Edge 133, Type (0, 0), BuildingBlock: AJUNOK_clean_linker_0, # of connection points: 2
#     Edge 134, Type (0, 0), BuildingBlock: AJUNOK_clean_linker_0, # of connection points: 2
#     Edge 135, Type (0, 0), BuildingBlock: AJUNOK_clean_linker_0, # of connection points: 2
#     Edge 136, Type (0, 0), BuildingBlock: AJUNOK_clean_linker_0, # of connection points: 2
#     Edge 137, Type (0, 0), BuildingBlock: AJUNOK_clean_linker_0, # of connection points: 2
#     Edge 138, Type (0, 0), BuildingBlock: AJUNOK_clean_linker_0, # of connection points: 2
#     Edge 139, Type (0, 0), BuildingBlock: AJUNOK_clean_linker_0, # of connection points: 2
#     Edge 140, Type (0, 0), BuildingBlock: AJUNOK_clean_linker_0, # of connection points: 2
#     Edge 141, Type (0, 0), BuildingBlock: AJUNOK_clean_linker_0, # of connection points: 2
#     Edge 142, Type (0, 0), BuildingBlock: AJUNOK_clean_linker_0, # of connection points: 2
#     Edge 143, Type (0, 0), BuildingBlock: AJUNOK_clean_linker_0, # of connection points: 2
# Relax obj value: 0.097
# Max RMSD: 0.124
# Mean RMSD: 0.116
data_MOF--net-rho--node1-KUFVIS_clean_sbu_0--edge1-AJUNOK_clean_linker_0
_symmetry_space_group_name_H-M    P1
_symmetry_Int_Tables_number       1
_symmetry_cell_setting            triclinic
loop_
_symmetry_equiv_pos_as_xyz
'x, y, z'
_cell_length_a     52.443123
_cell_length_b     52.097581
_cell_length_c     52.43354
_cell_angle_alpha  90.066189
_cell_angle_beta   90.183398
_cell_angle_gamma 90.967584
loop_
_atom_site_label
_atom_site_type_symbol
_atom_site_fract_x
_atom_site_fract_y
_atom_site_fract_z
_atom_type_partial_charge
Mn0 Mn 0.10577 0.24727 0.39923 0.0
Mn1 Mn 0.1065 0.30898 0.40957 0.0
C2 C 0.10868 0.25502 0.44354 0.0
C3 C 0.13677 0.21925 0.38377 0.0
C4 C 0.05888 0.27619 0.39579 0.0
O5 O 0.10473 0.26517 0.36435 0.0
O6 O 0.12755 0.29432 0.38235 0.0
C7 C 0.1607 0.30725 0.42402 0.0
N8 N 0.137 0.31683 0.42846 0.0
C9 C 0.15161 0.32401 0.47474 0.0
C10 C 0.17556 0.31578 0.46773 0.0
C11 C 0.18 0.30779 0.44269 0.0
C12 C 0.13097 0.32701 0.45113 0.0
H13 H 0.16526 0.29867 0.40592 0.0
C14 C 0.11801 0.28522 0.36225 0.0
O15 O 0.11262 0.21443 0.37996 0.0
O16 O 0.1424 0.23984 0.39629 0.0
N17 N 0.08794 0.33152 0.43279 0.0
C18 C 0.06391 0.34072 0.42968 0.0
C19 C 0.05235 0.35687 0.44796 0.0
C20 C 0.0644 0.36461 0.47082 0.0
C21 C 0.08936 0.35765 0.47534 0.0
C22 C 0.10309 0.34134 0.45117 0.0
H23 H 0.05299 0.33546 0.41292 0.0
O24 O 0.10629 0.23245 0.43385 0.0
O25 O 0.1074 0.27429 0.42698 0.0
O26 O 0.06817 0.25389 0.3998 0.0
O27 O 0.07255 0.29727 0.39367 0.0
C28 C 0.10429 0.35965 0.50491 0.0
C29 C 0.14651 0.33592 0.50374 0.0
H30 H 0.19094 0.31579 0.48154 0.0
H31 H 0.19868 0.30077 0.43783 0.0
H32 H 0.03295 0.3628 0.4446 0.0
H33 H 0.05397 0.37512 0.48509 0.0
H34 H 0.09402 0.36957 0.52003 0.0
H35 H 0.13603 0.34292 0.50773 0.0
Mn36 Mn 0.74944 0.10934 0.39782 0.0
Mn37 Mn 0.80169 0.07882 0.41941 0.0
C38 C 0.74908 0.0647 0.40008 0.0
C39 C 0.72342 0.12496 0.36485 0.0
C40 C 0.76556 0.10756 0.45408 0.0
O41 O 0.77776 0.13705 0.39441 0.0
O42 O 0.81154 0.1133 0.406 0.0
C43 C 0.83151 0.07185 0.37216 0.0
N44 N 0.8198 0.06169 0.39306 0.0
C45 C 0.8372 0.02006 0.38476 0.0
C46 C 0.84974 0.03017 0.36331 0.0
C47 C 0.8467 0.05612 0.35688 0.0
C48 C 0.82239 0.03669 0.39929 0.0
H49 H 0.82935 0.09182 0.36729 0.0
C50 C 0.80179 0.1342 0.39782 0.0
O51 O 0.7215 0.13318 0.38814 0.0
O52 O 0.74207 0.10959 0.36032 0.0
N53 N 0.79471 0.04526 0.43268 0.0
C54 C 0.77967 0.03819 0.45271 0.0
C55 C 0.77829 0.01227 0.45999 0.0
C56 C 0.79276 0.99405 0.44692 0.0
C57 C 0.80846 1.00187 0.42667 0.0
C58 C 0.80873 0.02788 0.42002 0.0
H59 H 0.76859 0.05218 0.46284 0.0
O60 O 0.72815 0.07755 0.40047 0.0
O61 O 0.77014 0.07836 0.39884 0.0
O62 O 0.7492 0.11372 0.43718 0.0
O63 O 0.78561 0.09519 0.44896 0.0
C64 C 0.82343 0.98481 0.41248 0.0
C65 C 0.83799 0.99394 0.39169 0.0
H66 H 0.86133 0.01806 0.35138 0.0
H67 H 0.85612 0.064 0.34023 0.0
H68 H 0.76611 1.00634 0.47561 0.0
H69 H 0.79145 0.97407 0.45237 0.0
H70 H 0.82364 0.96458 0.41722 0.0
H71 H 0.84918 0.98059 0.38073 0.0
Mn72 Mn 0.90518 0.76403 0.40444 0.0
Mn73 Mn 0.91851 0.70698 0.43163 0.0
C74 C 0.90842 0.76149 0.449 0.0
C75 C 0.87403 0.79243 0.3898 0.0
C76 C 0.95825 0.74028 0.40467 0.0
O77 O 0.89799 0.73864 0.37518 0.0
O78 O 0.90433 0.70225 0.39698 0.0
C79 C 0.86544 0.68453 0.43119 0.0
N80 N 0.88597 0.69223 0.44558 0.0
C81 C 0.86998 0.65633 0.4784 0.0
C82 C 0.85071 0.65034 0.46122 0.0
C83 C 0.8479 0.66508 0.43897 0.0
C84 C 0.88721 0.68477 0.46986 0.0
H85 H 0.86239 0.69298 0.41271 0.0
C86 C 0.89793 0.7142 0.37677 0.0
O87 O 0.89749 0.79438 0.38198 0.0
O88 O 0.86882 0.7738 0.40531 0.0
N89 N 0.93588 0.70801 0.46515 0.0
C90 C 0.96626 0.71505 0.46999 0.0
C91 C 0.98443 0.70994 0.49901 0.0
C92 C 0.96881 0.69409 0.52562 0.0
C93 C 0.92496 0.68316 0.51181 0.0
C94 C 0.91445 0.69641 0.48232 0.0
H95 H 0.97642 0.72506 0.45534 0.0
O96 O 0.91108 0.78316 0.43718 0.0
O97 O 0.90426 0.74161 0.43435 0.0
O98 O 0.9439 0.75924 0.39945 0.0
O99 O 0.95034 0.72018 0.41637 0.0
C100 C 0.90606 0.6415 0.52343 0.0
C101 C 0.87833 0.63452 0.50368 0.0
H102 H 0.8382 0.63398 0.4646 0.0
H103 H 0.8324 0.66005 0.42612 0.0
H104 H 1.00435 0.71555 0.50013 0.0
H105 H 0.97943 0.68742 0.54216 0.0
H106 H 0.91244 0.62789 0.53777 0.0
H107 H 0.8675 0.6169 0.5064 0.0
Mn108 Mn 0.26377 0.91313 0.39548 0.0
Mn109 Mn 0.21125 0.94187 0.41828 0.0
C110 C 0.26394 0.95701 0.40208 0.0
C111 C 0.2884 0.90091 0.36013 0.0
C112 C 0.24701 0.91069 0.45136 0.0
O113 O 0.23573 0.8856 0.39018 0.0
O114 O 0.20168 0.90849 0.40244 0.0
C115 C 0.18418 0.95226 0.36988 0.0
N116 N 0.195 0.96098 0.39195 0.0
C117 C 0.1826 1.00431 0.38295 0.0
C118 C 0.17113 0.99575 0.3602 0.0
C119 C 0.17203 0.96964 0.3536 0.0
C120 C 0.19438 0.98609 0.39843 0.0
H121 H 0.18482 0.93219 0.36477 0.0
C122 C 0.21169 0.88807 0.39353 0.0
O123 O 0.2916 0.89055 0.38246 0.0
O124 O 0.26961 0.91655 0.35807 0.0
N125 N 0.21796 0.97442 0.43412 0.0
C126 C 0.23021 0.97958 0.45657 0.0
C127 C 0.23178 1.00498 0.46551 0.0
C128 C 0.22046 0.02472 0.45146 0.0
C129 C 0.20752 0.01888 0.42868 0.0
C130 C 0.20655 0.99321 0.42075 0.0
H131 H 0.2389 0.96447 0.46747 0.0
O132 O 0.28517 0.94475 0.40087 0.0
O133 O 0.24321 0.94329 0.39933 0.0
O134 O 0.26379 0.90585 0.4344 0.0
O135 O 0.22676 0.9232 0.44684 0.0
C136 C 0.19574 0.03754 0.41344 0.0
C137 C 0.18326 0.03026 0.3906 0.0
H138 H 0.16184 0.00911 0.34754 0.0
H139 H 0.16336 0.96292 0.336 0.0
H140 H 0.24176 0.00935 0.48313 0.0
H141 H 0.22187 0.04429 0.45831 0.0
H142 H 0.19629 0.05757 0.41902 0.0
H143 H 0.17443 0.0448 0.37894 0.0
Mn144 Mn 0.10539 0.74678 0.61384 0.0
Mn145 Mn 0.08147 0.80194 0.59086 0.0
C146 C 0.06184 0.74998 0.60676 0.0
C147 C 0.1155 0.72154 0.64987 0.0
C148 C 0.10998 0.76353 0.55816 0.0
O149 O 0.13502 0.77295 0.61873 0.0
O150 O 0.11464 0.80948 0.60838 0.0
C151 C 0.07038 0.82876 0.63925 0.0
N152 N 0.06228 0.81919 0.61643 0.0
C153 C 0.01968 0.83395 0.62372 0.0
C154 C 0.02774 0.84449 0.64707 0.0
C155 C 0.05318 0.84173 0.65494 0.0
C156 C 0.03776 0.82141 0.60882 0.0
H157 H 0.08976 0.82633 0.64546 0.0
C158 C 0.13422 0.79746 0.61656 0.0
O159 O 0.12537 0.71694 0.62763 0.0
O160 O 0.1016 0.74174 0.65135 0.0
N161 N 0.04949 0.79731 0.57351 0.0
C162 C 0.04455 0.78528 0.55087 0.0
C163 C 0.01964 0.78509 0.54092 0.0
C164 C 1.00014 0.7975 0.55417 0.0
C165 C 1.00577 0.81015 0.57718 0.0
C166 C 0.03097 0.80979 0.58611 0.0
H167 H 0.05941 0.77569 0.54056 0.0
O168 O 0.07235 0.72775 0.60863 0.0
O169 O 0.07708 0.76974 0.60947 0.0
O170 O 0.11235 0.74581 0.5749 0.0
O171 O 0.10017 0.78531 0.5629 0.0
C172 C 0.9873 0.82283 0.59177 0.0
C173 C 0.99426 0.83477 0.61499 0.0
H174 H 0.01446 0.85431 0.65932 0.0
H175 H 0.05947 0.84947 0.67311 0.0
H176 H 0.01546 0.77529 0.52316 0.0
H177 H 0.98091 0.79711 0.54655 0.0
H178 H 0.96764 0.82332 0.58541 0.0
H179 H 0.97983 0.84421 0.62618 0.0
Mn180 Mn 0.24851 0.11305 0.60004 0.0
Mn181 Mn 0.30514 0.09913 0.57356 0.0
C182 C 0.25105 0.10948 0.55569 0.0
C183 C 0.22155 0.14599 0.61384 0.0
C184 C 0.27118 0.05893 0.59966 0.0
O185 O 0.27331 0.11955 0.62953 0.0
O186 O 0.3098 0.11244 0.60878 0.0
C187 C 0.32375 0.15366 0.57515 0.0
N188 N 0.31922 0.13247 0.56046 0.0
C189 C 0.35493 0.15117 0.52826 0.0
C190 C 0.35751 0.17207 0.54733 0.0
C191 C 0.34139 0.17323 0.56853 0.0
C192 C 0.32714 0.13228 0.53626 0.0
H193 H 0.31388 0.15571 0.59301 0.0
C194 C 0.29755 0.11893 0.62871 0.0
O195 O 0.21853 0.12257 0.6221 0.0
O196 O 0.24039 0.15001 0.59851 0.0
N197 N 0.30506 0.08264 0.53965 0.0
C198 C 0.29884 0.05208 0.53404 0.0
C199 C 0.30431 0.03473 0.50464 0.0
C200 C 0.3196 0.05148 0.47844 0.0
C201 C 0.32947 0.09549 0.49318 0.0
C202 C 0.31625 0.10491 0.52304 0.0
H203 H 0.28894 0.04133 0.5483 0.0
O204 O 0.22942 0.10745 0.56735 0.0
O205 O 0.27081 0.11329 0.57045 0.0
O206 O 0.25264 0.07379 0.60516 0.0
O207 O 0.29139 0.06665 0.58802 0.0
C208 C 0.37031 0.11567 0.48161 0.0
C209 C 0.37737 0.14332 0.50142 0.0
H210 H 0.37244 0.18648 0.54505 0.0
H211 H 0.34392 0.1892 0.58157 0.0
H212 H 0.29917 0.0146 0.50302 0.0
H213 H 0.32654 0.04134 0.46173 0.0
H214 H 0.3837 0.10988 0.46691 0.0
H215 H 0.36759 0.14947 0.51556 0.0
Mn216 Mn 0.9065 0.26035 0.6158 0.0
Mn217 Mn 0.93399 0.20446 0.59894 0.0
C218 C 0.95044 0.25876 0.61045 0.0
C219 C 0.89205 0.28929 0.647 0.0
C220 C 0.90576 0.23852 0.56156 0.0
O221 O 0.878 0.23328 0.62204 0.0
O222 O 0.9007 0.19745 0.6156 0.0
C223 C 0.9444 0.18576 0.65117 0.0
N224 N 0.9527 0.19116 0.62718 0.0
C225 C 0.99524 0.17803 0.63765 0.0
C226 C 0.98688 0.17134 0.66217 0.0
C227 C 0.9614 0.17549 0.66904 0.0
C228 C 0.9774 0.1882 0.62068 0.0
H229 H 0.92508 0.1897 0.65668 0.0
C230 C 0.88028 0.20882 0.62221 0.0
O231 O 0.88362 0.2896 0.62371 0.0
O232 O 0.90747 0.27089 0.65265 0.0
N233 N 0.96638 0.20755 0.58231 0.0
C234 C 0.97145 0.21509 0.55792 0.0
C235 C 0.99633 0.21317 0.54835 0.0
C236 C 0.01565 0.20301 0.56374 0.0
C237 C 0.00979 0.19445 0.58842 0.0
C238 C 0.9846 0.19668 0.59684 0.0
H239 H 0.95668 0.22269 0.54584 0.0
O240 O 0.93881 0.2805 0.61014 0.0
O241 O 0.93622 0.23857 0.61462 0.0
O242 O 0.90147 0.25698 0.57695 0.0
O243 O 0.91601 0.2175 0.56846 0.0
C244 C 0.02798 0.18384 0.605 0.0
C245 C 0.02072 0.1757 0.62963 0.0
H246 H 0.99998 0.16355 0.67605 0.0
H247 H 0.95494 0.17097 0.68812 0.0
H248 H 1.00061 0.21955 0.52917 0.0
H249 H 0.03486 0.20176 0.55638 0.0
H250 H 0.04764 0.18203 0.59908 0.0
H251 H 0.03495 0.16793 0.64235 0.0
Mn252 Mn 0.76237 0.89696 0.60417 0.0
Mn253 Mn 0.70373 0.90865 0.58131 0.0
C254 C 0.76016 0.89501 0.55938 0.0
C255 C 0.78763 0.86521 0.6225 0.0
C256 C 0.74048 0.94972 0.60266 0.0
O257 O 0.73833 0.8977 0.63485 0.0
O258 O 0.7035 0.88821 0.61289 0.0
C259 C 0.69967 0.85751 0.56206 0.0
N260 N 0.69025 0.88156 0.56319 0.0
C261 C 0.67895 0.87627 0.51322 0.0
C262 C 0.69035 0.85161 0.51584 0.0
C263 C 0.69838 0.84249 0.53977 0.0
C264 C 0.67846 0.89263 0.54354 0.0
H265 H 0.71004 0.85018 0.57829 0.0
C266 C 0.71479 0.89183 0.63401 0.0
O267 O 0.79174 0.88939 0.62741 0.0
O268 O 0.76816 0.85965 0.60816 0.0
N269 N 0.69628 0.92693 0.55071 0.0
C270 C 0.7195 0.93001 0.53401 0.0
C271 C 0.7192 0.93716 0.50398 0.0
C272 C 0.67367 0.94887 0.48459 0.0
C273 C 0.65062 0.94292 0.5123 0.0
C274 C 0.66724 0.92593 0.54497 0.0
H275 H 0.73719 0.93365 0.54369 0.0
O276 O 0.78149 0.89547 0.57169 0.0
O277 O 0.73962 0.89655 0.574 0.0
O278 O 0.76068 0.9362 0.60356 0.0
O279 O 0.71797 0.94028 0.59836 0.0
C280 C 0.64273 0.92954 0.48671 0.0
C281 C 0.65389 0.90264 0.47928 0.0
H282 H 0.69346 0.83861 0.50013 0.0
H283 H 0.70656 0.82355 0.54051 0.0
H284 H 0.73834 0.94032 0.49654 0.0
H285 H 0.66895 0.95867 0.46623 0.0
H286 H 0.62859 0.93825 0.47422 0.0
H287 H 0.64752 0.89794 0.45977 0.0
Mn288 Mn 0.39697 0.107 0.25659 0.0
Mn289 Mn 0.41398 0.09724 0.19628 0.0
C290 C 0.39992 0.06506 0.2422 0.0
C291 C 0.36558 0.11602 0.28667 0.0
C292 C 0.45286 0.10259 0.23742 0.0
O293 O 0.39298 0.14262 0.24107 0.0
O294 O 0.41384 0.13436 0.20507 0.0
C295 C 0.36606 0.11983 0.17647 0.0
N296 N 0.38205 0.09957 0.17838 0.0
C297 C 0.35312 0.07287 0.15391 0.0
C298 C 0.33628 0.09337 0.15202 0.0
C299 C 0.34278 0.11694 0.16345 0.0
C300 C 0.37599 0.0769 0.16736 0.0
H301 H 0.37092 0.13809 0.18473 0.0
C302 C 0.40406 0.14998 0.22086 0.0
O303 O 0.3895 0.12159 0.29093 0.0
O304 O 0.36006 0.10548 0.26494 0.0
N305 N 0.41466 0.06313 0.18381 0.0
C306 C 0.43349 0.04581 0.18637 0.0
C307 C 0.42907 0.02081 0.17772 0.0
C308 C 0.40644 0.01456 0.16455 0.0
C309 C 0.38853 0.03339 0.15986 0.0
C310 C 0.3933 0.05767 0.17017 0.0
H311 H 0.45078 0.05054 0.19671 0.0
O312 O 0.40021 0.07038 0.26631 0.0
O313 O 0.39613 0.08465 0.22688 0.0
O314 O 0.4367 0.1104 0.25409 0.0
O315 O 0.44651 0.09445 0.2151 0.0
C316 C 0.36568 0.02869 0.14631 0.0
C317 C 0.34799 0.04851 0.14324 0.0
H318 H 0.31834 0.09121 0.14189 0.0
H319 H 0.32989 0.1329 0.16219 0.0
H320 H 0.44242 1.00634 0.1827 0.0
H321 H 0.4022 0.9952 0.15894 0.0
H322 H 0.36149 0.00988 0.13834 0.0
H323 H 0.33044 0.04476 0.13284 0.0
Mn324 Mn 0.91116 0.40214 0.26143 0.0
Mn325 Mn 0.94375 0.41725 0.20786 0.0
C326 C 0.95534 0.40637 0.26319 0.0
C327 C 0.89312 0.37011 0.28765 0.0
C328 C 0.91593 0.45689 0.23954 0.0
O329 O 0.88456 0.39617 0.23346 0.0
O330 O 0.90852 0.40469 0.19892 0.0
C331 C 0.9473 0.36451 0.18735 0.0
N332 N 0.95888 0.38694 0.19464 0.0
C333 C 1.00013 0.37134 0.18289 0.0
C334 C 0.98861 0.34821 0.17487 0.0
C335 C 0.96209 0.34475 0.17722 0.0
C336 C 0.9844 0.39038 0.19272 0.0
H337 H 0.92697 0.36171 0.18934 0.0
C338 C 0.88739 0.39783 0.20935 0.0
O339 O 0.88567 0.39375 0.28904 0.0
O340 O 0.91023 0.3652 0.27068 0.0
N341 N 0.97804 0.42963 0.21271 0.0
C342 C 0.98645 0.4521 0.22336 0.0
C343 C 0.01263 0.45825 0.22328 0.0
C344 C 0.02991 0.44123 0.21225 0.0
C345 C 0.02086 0.41813 0.20154 0.0
C346 C 0.99452 0.41317 0.20195 0.0
H347 H 0.97343 0.46474 0.23274 0.0
O348 O 0.94165 0.40741 0.28366 0.0
O349 O 0.94279 0.40194 0.24203 0.0
O350 O 0.90761 0.4415 0.25684 0.0
O351 O 0.9293 0.44954 0.22061 0.0
C352 C 0.037 0.39947 0.19121 0.0
C353 C 0.02665 0.37607 0.18193 0.0
H354 H 0.99996 0.33288 0.16714 0.0
H355 H 0.95308 0.32687 0.17129 0.0
H356 H 0.0195 0.47587 0.23207 0.0
H357 H 0.05013 0.44584 0.21261 0.0
H358 H 0.05745 0.40272 0.19072 0.0
H359 H 0.0393 0.36172 0.17439 0.0
Mn360 Mn 0.60925 0.89352 0.25362 0.0
Mn361 Mn 0.58562 0.91127 0.31051 0.0
C362 C 0.5658 0.89793 0.25792 0.0
C363 C 0.62227 0.85925 0.22809 0.0
C364 C 0.6109 0.9488 0.27335 0.0
O365 O 0.63949 0.88999 0.27759 0.0
O366 O 0.62006 0.89625 0.31531 0.0
C367 C 0.5789 0.85914 0.33207 0.0
N368 N 0.56883 0.88209 0.32536 0.0
C369 C 0.52673 0.86783 0.33757 0.0
C370 C 0.53672 0.84416 0.34492 0.0
C371 C 0.56292 0.83978 0.34211 0.0
C372 C 0.5436 0.88638 0.32768 0.0
H373 H 0.59891 0.85559 0.32957 0.0
C374 C 0.63951 0.89052 0.30184 0.0
O375 O 0.63044 0.88262 0.22393 0.0
O376 O 0.60761 0.85586 0.2476 0.0
N377 N 0.5525 0.92613 0.30926 0.0
C378 C 0.54616 0.95049 0.30258 0.0
C379 C 0.52068 0.95814 0.30459 0.0
C380 C 0.50209 0.94082 0.31382 0.0
C381 C 0.50927 0.91622 0.32158 0.0
C382 C 0.53501 0.90981 0.31946 0.0
H383 H 0.56037 0.96393 0.29557 0.0
O384 O 0.57605 0.89694 0.23552 0.0
O385 O 0.58123 0.89526 0.27716 0.0
O386 O 0.61393 0.93309 0.25476 0.0
O387 O 0.60184 0.94217 0.29513 0.0
C388 C 0.49195 0.89787 0.3315 0.0
C389 C 0.50065 0.87365 0.33939 0.0
H390 H 0.52444 0.82915 0.35259 0.0
H391 H 0.57076 0.82149 0.34753 0.0
H392 H 0.51537 0.9773 0.29891 0.0
H393 H 0.48242 0.94669 0.3151 0.0
H394 H 0.47189 0.90218 0.33316 0.0
H395 H 0.48714 0.85965 0.34688 0.0
Mn396 Mn 0.10999 0.60385 0.25234 0.0
Mn397 Mn 0.0849 0.59746 0.31081 0.0
C398 C 0.1011 0.56187 0.26678 0.0
C399 C 0.14609 0.61098 0.22615 0.0
C400 C 0.05556 0.61615 0.2646 0.0
O401 O 0.11531 0.63922 0.26955 0.0
O402 O 0.10812 0.6277 0.31022 0.0
C403 C 0.12834 0.5882 0.34551 0.0
N404 N 0.10478 0.58155 0.33654 0.0
C405 C 0.09576 0.55595 0.37371 0.0
C406 C 0.11998 0.56252 0.38344 0.0
C407 C 0.13646 0.57845 0.36911 0.0
C408 C 0.08899 0.56586 0.34989 0.0
H409 H 0.14054 0.60118 0.33491 0.0
C410 C 0.11636 0.64356 0.29353 0.0
O411 O 0.12341 0.61778 0.21925 0.0
O412 O 0.14782 0.60016 0.24838 0.0
N413 N 0.06171 0.56925 0.31517 0.0
C414 C 0.04055 0.56244 0.30147 0.0
C415 C 0.02292 0.54478 0.31186 0.0
C416 C 0.02688 0.5349 0.33649 0.0
C417 C 0.04884 0.54226 0.35022 0.0
C418 C 0.06604 0.55937 0.33854 0.0
H419 H 0.03703 0.57061 0.28294 0.0
O420 O 0.10434 0.56721 0.24283 0.0
O421 O 0.10431 0.58137 0.28239 0.0
O422 O 0.07154 0.60995 0.24758 0.0
O423 O 0.06063 0.61489 0.28825 0.0
C424 C 0.05501 0.53239 0.37446 0.0
C425 C 0.07844 0.53927 0.38622 0.0
H426 H 0.12627 0.55514 0.40167 0.0
H427 H 0.15518 0.58356 0.37645 0.0
H428 H 1.00612 0.53912 0.3011 0.0
H429 H 0.01317 0.52139 0.34447 0.0
H430 H 0.04214 0.51907 0.38397 0.0
H431 H 0.08317 0.53119 0.40462 0.0
Mn432 Mn 0.40862 0.89545 0.76374 0.0
Mn433 Mn 0.43779 0.91076 0.70844 0.0
C434 C 0.45272 0.89921 0.76284 0.0
C435 C 0.39207 0.8623 0.78979 0.0
C436 C 0.41535 0.95117 0.74345 0.0
O437 O 0.37989 0.89051 0.73799 0.0
O438 O 0.40092 0.90205 0.70259 0.0
C439 C 0.43331 0.85835 0.68675 0.0
N440 N 0.44801 0.87918 0.69321 0.0
C441 C 0.4857 0.85917 0.67706 0.0
C442 C 0.4709 0.83765 0.66995 0.0
C443 C 0.44461 0.8372 0.67493 0.0
C444 C 0.47337 0.87965 0.68883 0.0
H445 H 0.41312 0.8578 0.69063 0.0
C446 C 0.38063 0.89453 0.71408 0.0
O447 O 0.38499 0.88593 0.79285 0.0
O448 O 0.40799 0.85824 0.77157 0.0
N449 N 0.47353 0.91915 0.70958 0.0
C450 C 0.48543 0.94067 0.71876 0.0
C451 C 0.51176 0.94414 0.71521 0.0
C452 C 0.52577 0.92535 0.70253 0.0
C453 C 0.51324 0.9032 0.69344 0.0
C454 C 0.48682 0.90102 0.69708 0.0
H455 H 0.47514 0.95442 0.72974 0.0
O456 O 0.44034 0.89972 0.78412 0.0
O457 O 0.43894 0.89508 0.74235 0.0
O458 O 0.4059 0.93536 0.75998 0.0
O459 O 0.42803 0.94392 0.72388 0.0
C460 C 0.52599 0.88303 0.68126 0.0
C461 C 0.51224 0.86098 0.67316 0.0
H462 H 0.47956 0.82131 0.66083 0.0
H463 H 0.43307 0.82059 0.66968 0.0
H464 H 0.52127 0.96114 0.72246 0.0
H465 H 0.54617 0.92796 0.7002 0.0
H466 H 0.54641 0.88416 0.67828 0.0
H467 H 0.52228 0.84547 0.66405 0.0
Mn468 Mn 0.11496 0.40214 0.76005 0.0
Mn469 Mn 0.09333 0.43565 0.70919 0.0
C470 C 0.11224 0.44646 0.76292 0.0
C471 C 0.14706 0.38381 0.78483 0.0
C472 C 0.05838 0.40716 0.74525 0.0
O473 O 0.11736 0.37585 0.7315 0.0
O474 O 0.10256 0.40012 0.69936 0.0
C475 C 0.14174 0.43863 0.68047 0.0
N476 N 0.12139 0.45047 0.69106 0.0
C477 C 0.13488 0.49145 0.67433 0.0
C478 C 0.15596 0.4797 0.66312 0.0
C479 C 0.15944 0.4532 0.66628 0.0
C480 C 0.11787 0.47594 0.68819 0.0
H481 H 0.14433 0.41824 0.68276 0.0
C482 C 0.11075 0.37894 0.70834 0.0
O483 O 0.12348 0.37608 0.7862 0.0
O484 O 0.15236 0.40079 0.76743 0.0
N485 N 0.08299 0.47014 0.71499 0.0
C486 C 0.06267 0.47869 0.72851 0.0
C487 C 0.05697 0.50493 0.72815 0.0
C488 C 0.07192 0.522 0.71353 0.0
C489 C 0.09255 0.51267 0.6995 0.0
C490 C 0.09727 0.48631 0.70056 0.0
H491 H 0.05099 0.46558 0.73958 0.0
O492 O 0.11303 0.4319 0.78288 0.0
O493 O 0.1139 0.43467 0.74091 0.0
O494 O 0.07558 0.39821 0.7599 0.0
O495 O 0.06304 0.42156 0.72618 0.0
C496 C 0.1091 0.52857 0.68516 0.0
C497 C 0.13027 0.51798 0.67262 0.0
H498 H 0.16969 0.49087 0.65221 0.0
H499 H 0.17569 0.44401 0.65774 0.0
H500 H 0.04108 0.51196 0.73908 0.0
H501 H 0.06759 0.54225 0.71349 0.0
H502 H 0.10598 0.54904 0.68402 0.0
H503 H 0.14306 0.53046 0.66197 0.0
Mn504 Mn 0.61166 0.1006 0.75836 0.0
Mn505 Mn 0.588 0.09261 0.81706 0.0
C506 C 0.6036 0.05826 0.77168 0.0
C507 C 0.64664 0.10962 0.73156 0.0
C508 C 0.55797 0.11257 0.77194 0.0
O509 O 0.6163 0.13551 0.77653 0.0
O510 O 0.61209 0.12191 0.8169 0.0
C511 C 0.6318 0.081 0.85049 0.0
N512 N 0.60784 0.0754 0.84191 0.0
C513 C 0.59862 0.04947 0.87881 0.0
C514 C 0.62329 0.05485 0.88807 0.0
C515 C 0.64005 0.07042 0.87368 0.0
C516 C 0.59176 0.06005 0.8553 0.0
H517 H 0.64423 0.09381 0.83992 0.0
C518 C 0.61886 0.13874 0.80056 0.0
O519 O 0.6236 0.11596 0.72555 0.0
O520 O 0.64945 0.09812 0.75335 0.0
N521 N 0.564 0.065 0.82113 0.0
C522 C 0.54201 0.05973 0.80813 0.0
C523 C 0.52385 0.04278 0.81873 0.0
C524 C 0.52806 0.03215 0.84298 0.0
C525 C 0.55075 0.03809 0.85614 0.0
C526 C 0.56846 0.05448 0.84422 0.0
H527 H 0.53823 0.06851 0.78995 0.0
O528 O 0.60675 0.0642 0.74785 0.0
O529 O 0.60672 0.07727 0.78783 0.0
O530 O 0.57323 0.10589 0.75451 0.0
O531 O 0.5639 0.11155 0.79543 0.0
C532 C 0.557 0.0276 0.88009 0.0
C533 C 0.58093 0.03328 0.89141 0.0
H534 H 0.62967 0.04687 0.90601 0.0
H535 H 0.65908 0.07467 0.88071 0.0
H536 H 0.50643 0.03834 0.80845 0.0
H537 H 0.51389 0.01925 0.85116 0.0
H538 H 0.54376 0.01476 0.88974 0.0
H539 H 0.5857 0.02472 0.90959 0.0
Mn540 Mn 0.90481 0.61835 0.75281 0.0
Mn541 Mn 0.91257 0.60273 0.81367 0.0
C542 C 0.94616 0.61554 0.76833 0.0
C543 C 0.89658 0.64864 0.7213 0.0
C544 C 0.90821 0.5625 0.77372 0.0
O545 O 0.86922 0.62356 0.76741 0.0
O546 O 0.8759 0.60227 0.80359 0.0
C547 C 0.88857 0.65053 0.8326 0.0
N548 N 0.90935 0.63535 0.83047 0.0
C549 C 0.93536 0.66645 0.85302 0.0
C550 C 0.91443 0.6827 0.85464 0.0
C551 C 0.89089 0.67464 0.84441 0.0
C552 C 0.93184 0.64268 0.84082 0.0
H553 H 0.87028 0.64429 0.82566 0.0
C554 C 0.86105 0.61259 0.7874 0.0
O555 O 0.89098 0.62445 0.71801 0.0
O556 O 0.90693 0.65513 0.74288 0.0
N557 N 0.94607 0.60299 0.82707 0.0
C558 C 0.96352 0.58416 0.82587 0.0
C559 C 0.98836 0.58972 0.83388 0.0
C560 C 0.99431 0.61355 0.84515 0.0
C561 C 0.97537 0.63151 0.84872 0.0
C562 C 0.95126 0.62554 0.83901 0.0
H563 H 0.95904 0.56603 0.81674 0.0
O564 O 0.94135 0.61435 0.74412 0.0
O565 O 0.92631 0.61994 0.78302 0.0
O566 O 0.90081 0.5785 0.75661 0.0
O567 O 0.91617 0.56939 0.79596 0.0
C568 C 0.97974 0.65547 0.86059 0.0
C569 C 0.95963 0.67289 0.86294 0.0
H570 H 0.91617 0.70128 0.86384 0.0
H571 H 0.87451 0.68693 0.8457 0.0
H572 H 1.00295 0.57644 0.82939 0.0
H573 H 0.01354 0.6187 0.84988 0.0
H574 H 0.99844 0.66059 0.86806 0.0
H575 H 0.96303 0.69118 0.8723 0.0
Mn576 Mn 0.25907 0.39365 0.10148 0.0
Mn577 Mn 0.19999 0.41045 0.08033 0.0
C578 C 0.25473 0.39392 0.05736 0.0
C579 C 0.28573 0.36052 0.11519 0.0
C580 C 0.23967 0.4486 0.10086 0.0
O581 O 0.23647 0.39172 0.13307 0.0
O582 O 0.19859 0.39325 0.11376 0.0
C583 C 0.1923 0.35874 0.06453 0.0
N584 N 0.18412 0.38327 0.06442 0.0
C585 C 0.17271 0.37606 0.01462 0.0
C586 C 0.18231 0.35085 0.01874 0.0
C587 C 0.19011 0.34268 0.04307 0.0
C588 C 0.17318 0.39393 0.04405 0.0
H589 H 0.20223 0.3517 0.08116 0.0
C590 C 0.21228 0.39002 0.13351 0.0
O591 O 0.28993 0.38421 0.12208 0.0
O592 O 0.26509 0.35607 0.10224 0.0
N593 N 0.19224 0.42737 0.04888 0.0
C594 C 0.21503 0.42943 0.03151 0.0
C595 C 0.21404 0.43549 1.00117 0.0
C596 C 0.16828 0.44739 0.98269 0.0
C597 C 0.14599 0.44329 0.01118 0.0
C598 C 0.16295 0.42738 0.04405 0.0
H599 H 0.23292 0.43299 0.04082 0.0
O600 O 0.27666 0.39466 0.06851 0.0
O601 O 0.23459 0.3945 0.07265 0.0
O602 O 0.25834 0.43319 0.10349 0.0
O603 O 0.21689 0.44151 0.09478 0.0
C604 C 0.13719 0.4291 0.98631 0.0
C605 C 0.14748 0.40165 0.97973 0.0
H606 H 0.18345 0.33638 1.00406 0.0
H607 H 0.19681 0.32322 0.04495 0.0
H608 H 0.23284 0.43896 0.9933 0.0
H609 H 0.16326 0.45706 0.9643 0.0
H610 H 0.12282 0.43757 0.9739 0.0
H611 H 0.14038 0.39618 0.96067 0.0
Mn612 Mn 0.2505 0.60085 0.89662 0.0
Mn613 Mn 0.30043 0.5673 0.9188 0.0
C614 C 0.24663 0.55644 0.89947 0.0
C615 C 0.22753 0.61865 0.86264 0.0
C616 C 0.2663 0.59902 0.95286 0.0
O617 O 0.28016 0.6264 0.89358 0.0
O618 O 0.3126 0.60084 0.90468 0.0
C619 C 0.32876 0.55715 0.87126 0.0
N620 N 0.31716 0.54834 0.8928 0.0
C621 C 0.33046 0.50515 0.88452 0.0
C622 C 0.34269 0.51377 0.86229 0.0
C623 C 0.34177 0.53986 0.8556 0.0
C624 C 0.31812 0.52332 0.89956 0.0
H625 H 0.32813 0.57721 0.86615 0.0
C626 C 0.30389 0.62231 0.89672 0.0
O627 O 0.22522 0.627 0.88587 0.0
O628 O 0.24451 0.60125 0.85899 0.0
N629 N 0.29139 0.53459 0.93293 0.0
C630 C 0.27561 0.529 0.95283 0.0
C631 C 0.27247 0.50338 0.9607 0.0
C632 C 0.2858 0.4839 0.9482 0.0
C633 C 0.30205 0.49016 0.92787 0.0
C634 C 0.30436 0.51601 0.92082 0.0
H635 H 0.2653 0.54394 0.96243 0.0
O636 O 0.22685 0.571 0.89905 0.0
O637 O 0.26872 0.56843 0.89839 0.0
O638 O 0.25009 0.60564 0.93596 0.0
O639 O 0.28564 0.58549 0.94789 0.0
C640 C 0.31508 0.47165 0.91353 0.0
C641 C 0.32932 0.47915 0.89191 0.0
H642 H 0.35252 0.50046 0.85002 0.0
H643 H 0.35106 0.54662 0.83842 0.0
H644 H 0.25975 0.49865 0.97628 0.0
H645 H 0.28298 0.46415 0.95397 0.0
H646 H 0.31367 0.4515 0.91854 0.0
H647 H 0.33874 0.46466 0.88068 0.0
Mn648 Mn 0.39536 0.2503 0.91237 0.0
Mn649 Mn 0.40952 0.18848 0.92319 0.0
C650 C 0.40113 0.23572 0.95459 0.0
C651 C 0.36492 0.28158 0.90339 0.0
C652 C 0.44967 0.22886 0.91062 0.0
O653 O 0.38846 0.23406 0.87717 0.0
O654 O 0.39985 0.19435 0.88748 0.0
C655 C 0.35527 0.17341 0.91631 0.0
N656 N 0.37745 0.17201 0.92974 0.0
C657 C 0.35954 0.14036 0.95789 0.0
C658 C 0.33664 0.14088 0.94404 0.0
C659 C 0.33434 0.15787 0.9234 0.0
C660 C 0.37913 0.15748 0.95081 0.0
H661 H 0.35357 0.1864 0.90046 0.0
C662 C 0.3921 0.21069 0.87145 0.0
O663 O 0.38875 0.28498 0.89743 0.0
O664 O 0.35902 0.26032 0.91501 0.0
N665 N 0.41942 0.17653 0.95601 0.0
C666 C 0.44388 0.17581 0.9647 0.0
C667 C 0.45114 0.15626 0.98133 0.0
C668 C 0.43304 0.13788 0.98929 0.0
C669 C 0.40763 0.13991 0.98178 0.0
C670 C 0.40181 0.15892 0.964 0.0
H671 H 0.45831 0.18863 0.95724 0.0
O672 O 0.40165 0.25995 0.94899 0.0
O673 O 0.39527 0.22054 0.93561 0.0
O674 O 0.43403 0.24708 0.90685 0.0
O675 O 0.44296 0.20603 0.91729 0.0
C676 C 0.38852 0.12203 0.98905 0.0
C677 C 0.36415 0.12285 0.97771 0.0
H678 H 0.3208 0.12825 0.94897 0.0
H679 H 0.31667 0.15866 0.91274 0.0
H680 H 0.47094 0.15455 0.98686 0.0
H681 H 0.43903 0.12138 1.00002 0.0
H682 H 0.39252 0.10721 1.00288 0.0
H683 H 0.34957 0.10906 0.98342 0.0
Mn684 Mn 0.75427 0.40713 0.89596 0.0
Mn685 Mn 0.69992 0.4365 0.91304 0.0
C686 C 0.75379 0.45126 0.9002 0.0
C687 C 0.78017 0.39157 0.86325 0.0
C688 C 0.7338 0.40793 0.95044 0.0
O689 O 0.72692 0.37915 0.89072 0.0
O690 O 0.69188 0.40261 0.89772 0.0
C691 C 0.67867 0.44469 0.86139 0.0
N692 N 0.68643 0.45435 0.88432 0.0
C693 C 0.6762 0.49732 0.87154 0.0
C694 C 0.66779 0.48778 0.84789 0.0
C695 C 0.66913 0.46136 0.84276 0.0
C696 C 0.68557 0.47978 0.88933 0.0
H697 H 0.67987 0.42443 0.8573 0.0
C698 C 0.70275 0.38185 0.89103 0.0
O699 O 0.78259 0.38345 0.88656 0.0
O700 O 0.76205 0.4076 0.85898 0.0
N701 N 0.70458 0.46973 0.92814 0.0
C702 C 0.71288 0.47576 0.95212 0.0
C703 C 0.71285 0.50146 0.96026 0.0
C704 C 0.70394 0.52063 0.94383 0.0
C705 C 0.6947 0.51385 0.91957 0.0
C706 C 0.69494 0.48789 0.91262 0.0
H707 H 0.7196 0.46111 0.96492 0.0
O708 O 0.77519 0.43921 0.90044 0.0
O709 O 0.73336 0.43727 0.8969 0.0
O710 O 0.75187 0.40278 0.93499 0.0
O711 O 0.71334 0.41922 0.94374 0.0
C712 C 0.68524 0.53183 0.90202 0.0
C713 C 0.67607 0.52358 0.87799 0.0
H714 H 0.6605 0.50059 0.83345 0.0
H715 H 0.66289 0.45389 0.82447 0.0
H716 H 0.71976 0.50649 0.97911 0.0
H717 H 0.70417 0.54045 0.95008 0.0
H718 H 0.68501 0.55207 0.90677 0.0
H719 H 0.66903 0.53761 0.86459 0.0
Mn720 Mn 0.61444 0.76026 0.91 0.0
Mn721 Mn 0.59448 0.82121 0.91409 0.0
C722 C 0.60994 0.77954 0.94984 0.0
C723 C 0.64693 0.73003 0.90483 0.0
C724 C 0.55772 0.77658 0.91027 0.0
O725 O 0.61873 0.77215 0.87314 0.0
O726 O 0.60009 0.80994 0.8787 0.0
C727 C 0.64456 0.84204 0.89696 0.0
N728 N 0.62456 0.84241 0.91345 0.0
C729 C 0.6387 0.88276 0.93111 0.0
C730 C 0.65952 0.8829 0.91437 0.0
C731 C 0.66273 0.86215 0.89758 0.0
C732 C 0.62238 0.86123 0.9309 0.0
H733 H 0.64646 0.82666 0.88333 0.0
C734 C 0.6095 0.79275 0.86449 0.0
O735 O 0.62324 0.72442 0.89965 0.0
O736 O 0.65166 0.75323 0.91271 0.0
N737 N 0.58755 0.83753 0.94583 0.0
C738 C 0.56551 0.83531 0.95922 0.0
C739 C 0.5564 0.8563 0.97286 0.0
C740 C 0.57042 0.87941 0.97296 0.0
C741 C 0.59445 0.88058 0.96144 0.0
C742 C 0.60197 0.85929 0.94721 0.0
H743 H 0.55441 0.81809 0.95823 0.0
O744 O 0.61064 0.75483 0.9472 0.0
O745 O 0.61363 0.79297 0.92914 0.0
O746 O 0.57482 0.7598 0.90574 0.0
O747 O 0.56285 0.80016 0.91528 0.0
C748 C 0.61019 0.90278 0.96168 0.0
C749 C 0.63279 0.90354 0.94713 0.0
H750 H 0.67292 0.89895 0.914 0.0
H751 H 0.67878 0.86199 0.8847 0.0
H752 H 0.53812 0.855 0.98234 0.0
H753 H 0.56229 0.89625 0.98157 0.0
H754 H 0.60494 0.91944 0.97272 0.0
H755 H 0.64481 0.92066 0.94748 0.0
Mn756 Mn 0.75916 0.62017 0.09217 0.0
Mn757 Mn 0.82173 0.60848 0.08583 0.0
C758 C 0.77611 0.61305 0.05154 0.0
C759 C 0.72644 0.65003 0.09638 0.0
C760 C 0.78287 0.56679 0.09807 0.0
O761 O 0.77264 0.62959 0.12771 0.0
O762 O 0.81315 0.61941 0.1206 0.0
C763 C 0.83424 0.66386 0.09128 0.0
N764 N 0.83731 0.6411 0.07899 0.0
C765 C 0.86972 0.65927 0.05201 0.0
C766 C 0.86744 0.68281 0.06473 0.0
C767 C 0.84928 0.68523 0.0842 0.0
C768 C 0.85325 0.6391 0.05909 0.0
H769 H 0.82032 0.6657 0.10623 0.0
C770 C 0.79557 0.62729 0.13507 0.0
O771 O 0.72351 0.62649 0.10413 0.0
O772 O 0.74828 0.65603 0.08634 0.0
N773 N 0.83592 0.59784 0.05419 0.0
C774 C 0.83736 0.57319 0.04572 0.0
C775 C 0.85724 0.56629 0.02945 0.0
C776 C 0.87537 0.58486 0.02192 0.0
C777 C 0.87278 0.61036 0.02948 0.0
C778 C 0.85329 0.61586 0.04664 0.0
H779 H 0.82462 0.55848 0.05286 0.0
O780 O 0.75183 0.61142 0.05584 0.0
O781 O 0.79001 0.62072 0.07085 0.0
O782 O 0.76378 0.58169 0.1002 0.0
O783 O 0.80547 0.57442 0.09212 0.0
C784 C 0.89017 0.63004 0.02246 0.0
C785 C 0.8881 0.65475 0.03312 0.0
H786 H 0.87953 0.69909 0.05976 0.0
H787 H 0.84715 0.70338 0.09395 0.0
H788 H 0.85928 0.54647 0.02373 0.0
H789 H 0.89193 0.57924 0.01123 0.0
H790 H 0.90544 0.62629 0.0092 0.0
H791 H 0.90141 0.6698 0.02746 0.0
Mn792 Mn 0.41103 0.75809 0.11707 0.0
Mn793 Mn 0.44204 0.70571 0.09731 0.0
C794 C 0.45474 0.761 0.10989 0.0
C795 C 0.39665 0.78254 0.15178 0.0
C796 C 0.40989 0.73851 0.06205 0.0
O797 O 0.3847 0.72893 0.12261 0.0
O798 O 0.40934 0.6951 0.11393 0.0
C799 C 0.45437 0.6851 0.14835 0.0
N800 N 0.46216 0.69316 0.12491 0.0
C801 C 0.50616 0.68628 0.13566 0.0
C802 C 0.49856 0.67733 0.15972 0.0
C803 C 0.47255 0.67686 0.16613 0.0
C804 C 0.48716 0.69413 0.11871 0.0
H805 H 0.43448 0.68527 0.15351 0.0
C806 C 0.38823 0.70475 0.12124 0.0
O807 O 0.38662 0.78475 0.12916 0.0
O808 O 0.41364 0.76503 0.15436 0.0
N809 N 0.47382 0.71262 0.0807 0.0
C810 C 0.47793 0.72194 0.05677 0.0
C811 C 0.50293 0.72403 0.04751 0.0
C812 C 0.52346 0.71633 0.06281 0.0
C813 C 0.5187 0.70611 0.08709 0.0
C814 C 0.49331 0.70415 0.09516 0.0
H815 H 0.46228 0.72787 0.04485 0.0
O816 O 0.44114 0.78143 0.11136 0.0
O817 O 0.44242 0.7394 0.11363 0.0
O818 O 0.40457 0.75622 0.07809 0.0
O819 O 0.42241 0.71843 0.06781 0.0
C820 C 0.53813 0.69798 0.10369 0.0
C821 C 0.53187 0.68815 0.12799 0.0
H822 H 0.51254 0.67109 0.17354 0.0
H823 H 0.46656 0.67033 0.18479 0.0
H824 H 0.50627 0.73164 0.02866 0.0
H825 H 0.54277 0.71827 0.05569 0.0
H826 H 0.55795 0.69942 0.09805 0.0
H827 H 0.54699 0.68224 0.1407 0.0
Mn828 Mn 0.61144 0.25861 0.11515 0.0
Mn829 Mn 0.58369 0.31429 0.09885 0.0
C830 C 0.56742 0.26007 0.11026 0.0
C831 C 0.62547 0.23074 0.14743 0.0
C832 C 0.6113 0.28024 0.061 0.0
O833 O 0.64011 0.28563 0.12092 0.0
O834 O 0.61739 0.32159 0.11517 0.0
C835 C 0.57417 0.33313 0.15117 0.0
N836 N 0.56537 0.32738 0.12736 0.0
C837 C 0.52261 0.33862 0.13895 0.0
C838 C 0.53144 0.34568 0.16328 0.0
C839 C 0.5573 0.34268 0.16948 0.0
C840 C 0.54036 0.32936 0.12146 0.0
H841 H 0.59378 0.32997 0.15622 0.0
C842 C 0.63797 0.3101 0.12131 0.0
O843 O 0.634 0.22907 0.12425 0.0
O844 O 0.61044 0.24966 0.15204 0.0
N845 N 0.55099 0.31058 0.08273 0.0
C846 C 0.5454 0.30237 0.05861 0.0
C847 C 0.52011 0.30296 0.04978 0.0
C848 C 0.50087 0.31234 0.06567 0.0
C849 C 0.50718 0.32143 0.09011 0.0
C850 C 0.53277 0.32061 0.09776 0.0
H851 H 0.56006 0.29523 0.04621 0.0
O852 O 0.57904 0.23835 0.10994 0.0
O853 O 0.58177 0.28025 0.11419 0.0
O854 O 0.61588 0.26164 0.07618 0.0
O855 O 0.60123 0.30126 0.0682 0.0
C856 C 0.48906 0.3311 0.10723 0.0
C857 C 0.49676 0.33965 0.13166 0.0
H858 H 0.51844 0.35282 0.17753 0.0
H859 H 0.56415 0.34745 0.18842 0.0
H860 H 0.51543 0.2961 0.03082 0.0
H861 H 0.48134 0.3125 0.05889 0.0
H862 H 0.46911 0.33182 0.10191 0.0
H863 H 0.48259 0.34667 0.1448 0.0
Mn864 Mn 0.89859 0.76496 0.60449 0.0
Mn865 Mn 0.91301 0.7059 0.58428 0.0
C866 C 0.89622 0.76089 0.55972 0.0
C867 C 0.86608 0.7895 0.62224 0.0
C868 C 0.9516 0.74522 0.60401 0.0
O869 O 0.90025 0.74167 0.63611 0.0
O870 O 0.8915 0.70599 0.61483 0.0
C871 C 0.86329 0.6978 0.56392 0.0
N872 N 0.88774 0.69011 0.56597 0.0
C873 C 0.88476 0.67677 0.51656 0.0
C874 C 0.85922 0.68591 0.51826 0.0
C875 C 0.849 0.69424 0.54152 0.0
C876 C 0.90011 0.67825 0.54722 0.0
H877 H 0.85487 0.70823 0.57953 0.0
C878 C 0.89383 0.71807 0.63566 0.0
O879 O 0.88995 0.79486 0.62676 0.0
O880 O 0.86128 0.7693 0.60851 0.0
N881 N 0.93275 0.69862 0.55466 0.0
C882 C 0.93483 0.72155 0.53717 0.0
C883 C 0.94299 0.7207 0.50735 0.0
C884 C 0.95797 0.67515 0.49028 0.0
C885 C 0.95274 0.65272 0.51869 0.0
C886 C 0.9338 0.66927 0.55004 0.0
H887 H 0.93688 0.7398 0.54637 0.0
O888 O 0.89593 0.78284 0.57112 0.0
O889 O 0.89925 0.74101 0.57518 0.0
O890 O 0.93759 0.76513 0.60356 0.0
O891 O 0.9429 0.72212 0.60186 0.0
C892 C 0.9409 0.64313 0.49293 0.0
C893 C 0.91378 0.6523 0.48414 0.0
H894 H 0.84607 0.68642 0.5024 0.0
H895 H 0.8294 0.70046 0.54162 0.0
H896 H 0.94612 0.73969 0.49953 0.0
H897 H 0.96904 0.67042 0.47269 0.0
H898 H 0.95081 0.62898 0.48136 0.0
H899 H 0.91014 0.64495 0.46474 0.0
Mn900 Mn 0.26383 0.90348 0.6157 0.0
Mn901 Mn 0.20923 0.93097 0.5961 0.0
C902 C 0.26231 0.94793 0.61254 0.0
C903 C 0.29115 0.88893 0.64793 0.0
C904 C 0.24572 0.90405 0.56032 0.0
O905 O 0.23706 0.87426 0.61917 0.0
O906 O 0.20126 0.89652 0.61122 0.0
C907 C 0.1833 0.9392 0.64541 0.0
N908 N 0.19225 0.94858 0.62291 0.0
C909 C 0.17407 0.98989 0.631 0.0
C910 C 0.16403 0.98043 0.65398 0.0
C911 C 0.16891 0.95504 0.66134 0.0
C912 C 0.18822 0.97315 0.61593 0.0
H913 H 0.18731 0.91985 0.65114 0.0
C914 C 0.21274 0.87595 0.6178 0.0
O915 O 0.29295 0.88091 0.62456 0.0
O916 O 0.27189 0.90337 0.65302 0.0
N917 N 0.21391 0.96421 0.58109 0.0
C918 C 0.22689 0.97092 0.55955 0.0
C919 C 0.22625 0.99641 0.55088 0.0
C920 C 0.21187 0.01458 0.56412 0.0
C921 C 0.19836 0.00712 0.58601 0.0
C922 C 0.19994 0.98152 0.59389 0.0
H923 H 0.23783 0.95701 0.54917 0.0
O924 O 0.28376 0.93599 0.61268 0.0
O925 O 0.24184 0.93348 0.61477 0.0
O926 O 0.26338 0.89974 0.57647 0.0
O927 O 0.22459 0.91413 0.56632 0.0
C928 C 0.18375 0.02418 0.60059 0.0
C929 C 0.17147 0.01553 0.62298 0.0
H930 H 0.15307 0.99265 0.66639 0.0
H931 H 0.16162 0.94772 0.67925 0.0
H932 H 0.23676 1.00201 0.53399 0.0
H933 H 0.21147 0.03423 0.5574 0.0
H934 H 0.18214 0.04409 0.59495 0.0
H935 H 0.16067 0.02894 0.63426 0.0
Mn936 Mn 0.11603 0.25494 0.59979 0.0
Mn937 Mn 0.09274 0.30843 0.57279 0.0
C938 C 0.11358 0.25771 0.55564 0.0
C939 C 0.14809 0.22803 0.61516 0.0
C940 C 0.05909 0.26648 0.59211 0.0
O941 O 0.1193 0.28075 0.62892 0.0
O942 O 0.09571 0.31137 0.61045 0.0
C943 C 0.12866 0.35132 0.58728 0.0
N944 N 0.11903 0.33541 0.56874 0.0
C945 C 0.13756 0.37057 0.53589 0.0
C946 C 0.14647 0.38393 0.55705 0.0
C947 C 0.14228 0.37436 0.5818 0.0
C948 C 0.12178 0.34178 0.54425 0.0
H949 H 0.12549 0.34693 0.6071 0.0
C950 C 0.10718 0.30177 0.62974 0.0
O951 O 0.12456 0.22533 0.62235 0.0
O952 O 0.15323 0.24751 0.60051 0.0
N953 N 0.08919 0.30655 0.53659 0.0
C954 C 0.06832 0.29803 0.52359 0.0
C955 C 0.068 0.29659 0.49705 0.0
C956 C 0.08862 0.30429 0.48186 0.0
C957 C 0.10883 0.32061 0.49154 0.0
C958 C 0.10788 0.31941 0.52484 0.0
H959 H 0.05187 0.29074 0.5336 0.0
O960 O 0.11308 0.23582 0.5673 0.0
O961 O 0.11583 0.27845 0.57018 0.0
O962 O 0.07657 0.25457 0.60403 0.0
O963 O 0.06388 0.28483 0.57692 0.0
C964 C 0.1336 0.36524 0.47657 0.0
C965 C 0.14358 0.38251 0.5046 0.0
H966 H 0.15683 0.40189 0.55454 0.0
H967 H 0.1494 0.38568 0.59771 0.0
H968 H 0.05176 0.28723 0.488 0.0
H969 H 0.08653 0.29875 0.46234 0.0
H970 H 0.13605 0.37434 0.45794 0.0
H971 H 0.15337 0.40081 0.5024 0.0
Mn972 Mn 0.75014 0.10462 0.61891 0.0
Mn973 Mn 0.8028 0.07686 0.59583 0.0
C974 C 0.75018 0.06054 0.61293 0.0
C975 C 0.72654 0.11727 0.65475 0.0
C976 C 0.76645 0.10805 0.56322 0.0
O977 O 0.77793 0.13268 0.62282 0.0
O978 O 0.81272 0.10926 0.61392 0.0
C979 C 0.82772 0.06246 0.64435 0.0
N980 N 0.81853 0.05575 0.62094 0.0
C981 C 0.83008 0.01169 0.62725 0.0
C982 C 0.84047 0.01833 0.65108 0.0
C983 C 0.83912 0.04381 0.65974 0.0
C984 C 0.81932 0.03121 0.6126 0.0
H985 H 0.82597 0.0818 0.65132 0.0
C986 C 0.80212 0.13 0.62147 0.0
O987 O 0.7224 0.12709 0.63234 0.0
O988 O 0.74563 0.10196 0.65649 0.0
N989 N 0.79579 0.04549 0.57788 0.0
C990 C 0.7827 0.04181 0.55562 0.0
C991 C 0.78025 0.01699 0.54539 0.0
C992 C 0.79153 0.99629 0.55797 0.0
C993 C 0.80549 1.0006 0.58045 0.0
C994 C 0.8073 0.02578 0.58975 0.0
H995 H 0.77382 0.05758 0.54592 0.0
O996 O 0.72898 0.07273 0.61499 0.0
O997 O 0.77086 0.07454 0.61474 0.0
O998 O 0.74884 0.11091 0.57981 0.0
O999 O 0.78767 0.0974 0.56817 0.0
C1000 C 0.81685 0.98077 0.5945 0.0
C1001 C 0.82917 0.98632 0.61787 0.0
H1002 H 0.84899 1.00393 0.66314 0.0
H1003 H 0.8466 0.04899 0.67834 0.0
H1004 H 0.76943 0.01376 0.52803 0.0
H1005 H 0.7889 0.97712 0.5505 0.0
H1006 H 0.81571 0.96111 0.58779 0.0
H1007 H 0.83735 0.97083 0.62878 0.0
Mn1008 Mn 0.90453 0.26655 0.39755 0.0
Mn1009 Mn 0.93734 0.21345 0.4122 0.0
C1010 C 0.94876 0.26882 0.40017 0.0
C1011 C 0.88743 0.29213 0.36497 0.0
C1012 C 0.90843 0.24463 0.45151 0.0
O1013 O 0.87774 0.23765 0.39301 0.0
O1014 O 0.90299 0.2036 0.39882 0.0
C1015 C 0.94362 0.19315 0.35994 0.0
N1016 N 0.95411 0.20128 0.38238 0.0
C1017 C 0.99649 0.19296 0.36737 0.0
C1018 C 0.98614 0.18434 0.34414 0.0
C1019 C 0.9596 0.18452 0.34038 0.0
C1020 C 0.97963 0.20145 0.38611 0.0
H1021 H 0.92323 0.1933 0.35701 0.0
C1022 C 0.88132 0.21342 0.39363 0.0
O1023 O 0.87961 0.29429 0.38839 0.0
O1024 O 0.90383 0.27444 0.36061 0.0
N1025 N 0.97089 0.21979 0.42554 0.0
C1026 C 0.97782 0.22884 0.44901 0.0
C1027 C 1.00375 0.23003 0.45579 0.0
C1028 C 0.02225 0.22159 0.43853 0.0
C1029 C 0.01462 0.21178 0.41473 0.0
C1030 C 0.9885 0.21096 0.40908 0.0
H1031 H 0.96367 0.23519 0.46243 0.0
O1032 O 0.93538 0.28941 0.40142 0.0
O1033 O 0.93586 0.24751 0.39696 0.0
O1034 O 0.90146 0.26294 0.43683 0.0
O1035 O 0.92108 0.22532 0.44383 0.0
C1036 C 0.03191 0.20286 0.39635 0.0
C1037 C 0.02286 0.19363 0.37262 0.0
H1038 H 0.99839 0.17765 0.32901 0.0
H1039 H 0.95148 0.17799 0.32247 0.0
H1040 H 0.00948 0.23749 0.47425 0.0
H1041 H 0.04224 0.2227 0.44373 0.0
H1042 H 0.05221 0.20315 0.40019 0.0
H1043 H 0.03637 0.18711 0.35853 0.0
Mn1044 Mn 0.76789 0.90097 0.40341 0.0
Mn1045 Mn 0.70979 0.91073 0.4285 0.0
C1046 C 0.76403 0.9035 0.44796 0.0
C1047 C 0.79688 0.8701 0.38924 0.0
C1048 C 0.74168 0.95311 0.40284 0.0
O1049 O 0.74395 0.89392 0.37319 0.0
O1050 O 0.70664 0.89565 0.39396 0.0
C1051 C 0.6943 0.8553 0.42894 0.0
N1052 N 0.69739 0.87725 0.44279 0.0
C1053 C 0.66121 0.85851 0.47448 0.0
C1054 C 0.66031 0.83665 0.45636 0.0
C1055 C 0.67728 0.83527 0.43583 0.0
C1056 C 0.68846 0.87821 0.46659 0.0
H1057 H 0.70509 0.85299 0.4117 0.0
C1058 C 0.71978 0.89123 0.37406 0.0
O1059 O 0.79889 0.89387 0.38181 0.0
O1060 O 0.77803 0.86456 0.40415 0.0
N1061 N 0.70865 0.92849 0.46156 0.0
C1062 C 0.71363 0.95944 0.46594 0.0
C1063 C 0.70616 0.97787 0.4941 0.0
C1064 C 0.69037 0.96181 0.52032 0.0
C1065 C 0.68286 0.9169 0.50754 0.0
C1066 C 0.69763 0.90662 0.47877 0.0
H1067 H 0.72422 0.96974 0.45189 0.0
O1068 O 0.78583 0.90663 0.43679 0.0
O1069 O 0.7449 0.89902 0.43255 0.0
O1070 O 0.76184 0.93998 0.39902 0.0
O1071 O 0.72139 0.9436 0.41295 0.0
C1072 C 0.64237 0.8956 0.5185 0.0
C1073 C 0.63732 0.86669 0.49992 0.0
H1074 H 0.64593 0.82171 0.45876 0.0
H1075 H 0.67597 0.81863 0.42348 0.0
H1076 H 0.71039 0.99824 0.49491 0.0
H1077 H 0.68144 0.97232 0.53567 0.0
H1078 H 0.62816 0.90155 0.53233 0.0
H1079 H 0.64794 0.86026 0.48654 0.0
Mn1080 Mn 0.11194 0.75383 0.39243 0.0
Mn1081 Mn 0.0805 0.8037 0.41814 0.0
C1082 C 0.06807 0.7514 0.39638 0.0
C1083 C 0.12742 0.73154 0.35695 0.0
C1084 C 0.1112 0.76616 0.44958 0.0
O1085 O 0.1382 0.78326 0.39032 0.0
O1086 O 0.11385 0.81577 0.40412 0.0
C1087 C 0.07058 0.8354 0.37249 0.0
N1088 N 0.06174 0.82229 0.39318 0.0
C1089 C 0.01914 0.83738 0.38634 0.0
C1090 C 0.02784 0.85128 0.36509 0.0
C1091 C 0.05363 0.85013 0.35804 0.0
C1092 C 0.03691 0.82304 0.4 0.0
H1093 H 0.09041 0.83469 0.36714 0.0
C1094 C 0.13469 0.80705 0.39497 0.0
O1095 O 0.13649 0.7279 0.37972 0.0
O1096 O 0.11104 0.74974 0.35457 0.0
N1097 N 0.04793 0.79462 0.43221 0.0
C1098 C 0.04236 0.77879 0.45219 0.0
C1099 C 0.01698 0.77607 0.46038 0.0
C1100 C 0.9977 0.79002 0.44831 0.0
C1101 C 1.00397 0.80648 0.42804 0.0
C1102 C 0.02954 0.80817 0.42051 0.0
H1103 H 0.05711 0.76813 0.46164 0.0
O1104 O 0.08148 0.73084 0.39447 0.0
O1105 O 0.08069 0.77316 0.39605 0.0
O1106 O 0.11731 0.75097 0.43154 0.0
O1107 O 0.09849 0.78647 0.44611 0.0
C1108 C 0.98579 0.82093 0.41472 0.0
C1109 C 0.99339 0.83651 0.39399 0.0
H1110 H 0.01482 0.86257 0.35382 0.0
H1111 H 0.06045 0.86065 0.34156 0.0
H1112 H 0.01228 0.76324 0.47595 0.0
H1113 H 0.97814 0.78779 0.45463 0.0
H1114 H 0.96586 0.82 0.42009 0.0
H1115 H 0.97919 0.84729 0.38372 0.0
Mn1116 Mn 0.24664 0.11907 0.40062 0.0
Mn1117 Mn 0.30619 0.10851 0.42096 0.0
C1118 C 0.2507 0.12277 0.44529 0.0
C1119 C 0.21917 0.14837 0.38193 0.0
C1120 C 0.26959 0.06764 0.40144 0.0
O1121 O 0.27024 0.11802 0.36924 0.0
O1122 O 0.30423 0.13082 0.39085 0.0
C1123 C 0.31251 0.15831 0.44278 0.0
N1124 N 0.32086 0.13403 0.44005 0.0
C1125 C 0.33488 0.13621 0.48946 0.0
C1126 C 0.32488 0.1616 0.48843 0.0
C1127 C 0.31604 0.17222 0.46547 0.0
C1128 C 0.3334 0.12151 0.45836 0.0
H1129 H 0.30168 0.16687 0.4275 0.0
C1130 C 0.29348 0.1254 0.36982 0.0
O1131 O 0.21632 0.12387 0.3782 0.0
O1132 O 0.23892 0.15584 0.39514 0.0
N1133 N 0.31406 0.08828 0.45017 0.0
C1134 C 0.29143 0.08526 0.4677 0.0
C1135 C 0.29261 0.07639 0.4973 0.0
C1136 C 0.33827 0.06198 0.514 0.0
C1137 C 0.36033 0.06845 0.48566 0.0
C1138 C 0.34322 0.08784 0.45471 0.0
H1139 H 0.27333 0.08284 0.45852 0.0
O1140 O 0.22884 0.12144 0.43391 0.0
O1141 O 0.2706 0.12076 0.42989 0.0
O1142 O 0.24899 0.08025 0.40279 0.0
O1143 O 0.29192 0.07799 0.40263 0.0
C1144 C 0.36974 0.08012 0.51161 0.0
C1145 C 0.36005 0.10706 0.5209 0.0
H1146 H 0.32398 0.17436 0.50461 0.0
H1147 H 0.30931 0.19176 0.46589 0.0
H1148 H 0.27384 0.0727 0.50511 0.0
H1149 H 0.34332 0.0507 0.53141 0.0
H1150 H 0.38403 0.07023 0.52299 0.0
H1151 H 0.36742 0.11046 0.54031 0.0
Mn1152 Mn 0.61718 0.90611 0.75275 0.0
Mn1153 Mn 0.6044 0.91754 0.81389 0.0
C1154 C 0.61448 0.94839 0.76616 0.0
C1155 C 0.64666 0.89679 0.72091 0.0
C1156 C 0.56273 0.91001 0.77573 0.0
O1157 O 0.62251 0.87098 0.76887 0.0
O1158 O 0.60434 0.88033 0.8061 0.0
C1159 C 0.6537 0.89587 0.83119 0.0
N1160 N 0.63766 0.91611 0.8293 0.0
C1161 C 0.66872 0.94425 0.8492 0.0
C1162 C 0.68558 0.92377 0.85109 0.0
C1163 C 0.67799 0.89945 0.84207 0.0
C1164 C 0.64468 0.93943 0.83828 0.0
H1165 H 0.64813 0.87711 0.82451 0.0
C1166 C 0.61287 0.86429 0.79002 0.0
O1167 O 0.62261 0.89077 0.71829 0.0
O1168 O 0.65337 0.90787 0.74204 0.0
N1169 N 0.60438 0.95207 0.82531 0.0
C1170 C 0.58509 0.96901 0.82431 0.0
C1171 C 0.59012 0.99454 0.83086 0.0
C1172 C 0.61424 1.00184 0.84041 0.0
C1173 C 0.63276 0.98338 0.84426 0.0
C1174 C 0.62707 0.95845 0.83613 0.0
H1175 H 0.56685 0.96354 0.81644 0.0
O1176 O 0.61274 0.94241 0.74226 0.0
O1177 O 0.61966 0.92932 0.78168 0.0
O1178 O 0.57788 0.90219 0.75815 0.0
O1179 O 0.57047 0.91912 0.79732 0.0
C1180 C 0.65696 0.98899 0.85479 0.0
C1181 C 0.67489 0.96932 0.85751 0.0
H1182 H 0.70437 0.92649 0.85941 0.0
H1183 H 0.69088 0.8835 0.8434 0.0
H1184 H 0.57606 0.00851 0.82639 0.0
H1185 H 0.61923 0.02166 0.84326 0.0
H1186 H 0.66189 0.00829 0.86099 0.0
H1187 H 0.69338 0.97371 0.86584 0.0
Mn1188 Mn 0.09809 0.61145 0.76109 0.0
Mn1189 Mn 0.08864 0.59416 0.82249 0.0
C1190 C 0.05569 0.60536 0.77548 0.0
C1191 C 0.1062 0.64406 0.73052 0.0
C1192 C 0.10526 0.5569 0.7811 0.0
O1193 O 0.13309 0.61832 0.77772 0.0
O1194 O 0.12189 0.61176 0.8184 0.0
C1195 C 0.08675 0.64497 0.84766 0.0
N1196 N 0.07706 0.62087 0.844 0.0
C1197 C 0.05322 0.62252 0.88301 0.0
C1198 C 0.0626 0.64757 0.88714 0.0
C1199 C 0.0792 0.65897 0.86922 0.0
C1200 C 0.06056 0.61006 0.86065 0.0
H1201 H 0.10049 0.65311 0.8345 0.0
C1202 C 0.13789 0.61893 0.80155 0.0
O1203 O 0.11264 0.62043 0.72669 0.0
O1204 O 0.09507 0.64868 0.75207 0.0
N1205 N 0.05801 0.57643 0.83162 0.0
C1206 C 0.04891 0.5533 0.8233 0.0
C1207 C 0.03313 0.53842 0.83937 0.0
C1208 C 0.02646 0.54786 0.86359 0.0
C1209 C 0.035 0.57244 0.87112 0.0
C1210 C 0.05103 0.58603 0.85444 0.0
H1211 H 0.05425 0.54609 0.8048 0.0
O1212 O 0.0617 0.60514 0.75151 0.0
O1213 O 0.0747 0.61031 0.79113 0.0
O1214 O 0.10429 0.57221 0.7621 0.0
O1215 O 0.10074 0.56412 0.80377 0.0
C1216 C 0.028 0.58421 0.89424 0.0
C1217 C 0.03683 0.60937 0.90003 0.0
H1218 H 0.05724 0.6582 0.90401 0.0
H1219 H 0.08669 0.67819 0.87239 0.0
H1220 H 0.02611 0.5198 0.83312 0.0
H1221 H 0.01414 0.53648 0.87585 0.0
H1222 H 0.01547 0.5743 0.90748 0.0
H1223 H 0.0309 0.6184 0.91761 0.0
Mn1224 Mn 0.39499 0.10598 0.74548 0.0
Mn1225 Mn 0.41105 0.08225 0.80312 0.0
C1226 C 0.3988 0.06183 0.7501 0.0
C1227 C 0.36412 0.12015 0.71679 0.0
C1228 C 0.4492 0.10699 0.76683 0.0
O1229 O 0.39071 0.13671 0.76927 0.0
O1230 O 0.39711 0.11742 0.80712 0.0
C1231 C 0.35932 0.07757 0.82514 0.0
N1232 N 0.38177 0.06663 0.81858 0.0
C1233 C 0.36783 0.02561 0.83487 0.0
C1234 C 0.34461 0.03647 0.84198 0.0
C1235 C 0.34033 0.06256 0.83703 0.0
C1236 C 0.38606 0.04155 0.82314 0.0
H1237 H 0.35596 0.0976 0.82131 0.0
C1238 C 0.39148 0.13696 0.79356 0.0
O1239 O 0.38782 0.12754 0.71522 0.0
O1240 O 0.35807 0.10561 0.73601 0.0
N1241 N 0.42488 0.04855 0.80274 0.0
C1242 C 0.44796 0.04089 0.79394 0.0
C1243 C 0.45488 0.01513 0.79667 0.0
C1244 C 0.43835 0.99771 0.80902 0.0
C1245 C 0.41498 1.00619 0.81846 0.0
C1246 C 0.40902 0.03205 0.81504 0.0
H1247 H 0.46081 0.05421 0.78454 0.0
O1248 O 0.39879 0.07255 0.72782 0.0
O1249 O 0.39519 0.0773 0.76938 0.0
O1250 O 0.43401 0.1103 0.7481 0.0
O1251 O 0.44237 0.09756 0.7883 0.0
C1252 C 0.39706 0.98985 0.83051 0.0
C1253 C 0.37349 0.99955 0.83868 0.0
H1254 H 0.32989 0.02494 0.85109 0.0
H1255 H 0.32242 0.07106 0.84237 0.0
H1256 H 0.47285 0.00875 0.78909 0.0
H1257 H 0.4436 0.97781 0.81095 0.0
H1258 H 0.40109 0.96972 0.8333 0.0
H1259 H 0.35976 0.98674 0.8477 0.0
Mn1260 Mn 0.89499 0.40725 0.76364 0.0
Mn1261 Mn 0.91469 0.43354 0.70839 0.0
C1262 C 0.9011 0.45158 0.76137 0.0
C1263 C 0.86058 0.39245 0.78831 0.0
C1264 C 0.94973 0.40581 0.74529 0.0
O1265 O 0.89087 0.3779 0.73762 0.0
O1266 O 0.89788 0.39963 0.70115 0.0
C1267 C 0.86445 0.44312 0.68469 0.0
N1268 N 0.88763 0.45204 0.69283 0.0
C1269 C 0.87825 0.49491 0.67906 0.0
C1270 C 0.85445 0.48608 0.67007 0.0
C1271 C 0.84747 0.4601 0.67305 0.0
C1272 C 0.89435 0.47709 0.6905 0.0
H1273 H 0.85893 0.42325 0.68725 0.0
C1274 C 0.89155 0.37914 0.71327 0.0
O1275 O 0.88359 0.38451 0.79247 0.0
O1276 O 0.85765 0.40811 0.76941 0.0
N1277 N 0.93142 0.46621 0.71211 0.0
C1278 C 0.95509 0.47156 0.72169 0.0
C1279 C 0.96485 0.49675 0.72054 0.0
C1280 C 0.9502 0.51622 0.7096 0.0
C1281 C 0.92611 0.51015 0.69935 0.0
C1282 C 0.91758 0.48458 0.70064 0.0
H1283 H 0.96656 0.45672 0.73 0.0
O1284 O 0.89941 0.44006 0.78319 0.0
O1285 O 0.89787 0.43688 0.74143 0.0
O1286 O 0.93385 0.40257 0.7635 0.0
O1287 O 0.94386 0.4155 0.72367 0.0
C1288 C 0.91031 0.5284 0.68777 0.0
C1289 C 0.88638 0.5208 0.67765 0.0
H1290 H 0.84126 0.49914 0.66119 0.0
H1291 H 0.82902 0.4532 0.66646 0.0
H1292 H 0.98374 0.50098 0.72788 0.0
H1293 H 0.95773 0.53569 0.70889 0.0
H1294 H 0.91634 0.54836 0.68661 0.0
H1295 H 0.8743 0.53504 0.66899 0.0
Mn1296 Mn 0.60675 0.11368 0.24796 0.0
Mn1297 Mn 0.58039 0.0963 0.3041 0.0
C1298 C 0.56284 0.10741 0.25041 0.0
C1299 C 0.62078 0.14759 0.22142 0.0
C1300 C 0.60811 0.05908 0.26941 0.0
O1301 O 0.6356 0.12001 0.27372 0.0
O1302 O 0.61471 0.1124 0.31046 0.0
C1303 C 0.57302 0.14784 0.32634 0.0
N1304 N 0.56313 0.12477 0.31863 0.0
C1305 C 0.521 0.13645 0.33188 0.0
C1306 C 0.53076 0.16028 0.34015 0.0
C1307 C 0.55687 0.16603 0.33729 0.0
C1308 C 0.53801 0.1191 0.32114 0.0
H1309 H 0.59307 0.15233 0.32414 0.0
C1310 C 0.63474 0.11929 0.29806 0.0
O1311 O 0.62921 0.12443 0.21851 0.0
O1312 O 0.60512 0.15096 0.24009 0.0
N1313 N 0.54729 0.08049 0.30115 0.0
C1314 C 0.54087 0.05675 0.29196 0.0
C1315 C 0.5153 0.04833 0.29271 0.0
C1316 C 0.49667 0.06424 0.3032 0.0
C1317 C 0.50384 0.08832 0.31311 0.0
C1318 C 0.52963 0.09564 0.31192 0.0
H1319 H 0.55511 0.04441 0.28391 0.0
O1320 O 0.57434 0.10763 0.22859 0.0
O1321 O 0.57734 0.11181 0.27025 0.0
O1322 O 0.61224 0.07439 0.25067 0.0
O1323 O 0.59723 0.0658 0.29011 0.0
C1324 C 0.48639 0.10542 0.32397 0.0
C1325 C 0.49497 0.12945 0.33339 0.0
H1326 H 0.51835 0.1744 0.34849 0.0
H1327 H 0.56452 0.18443 0.34348 0.0
H1328 H 0.50995 0.02965 0.28516 0.0
H1329 H 0.47694 0.05776 0.30357 0.0
H1330 H 0.46631 0.10035 0.32505 0.0
H1331 H 0.48134 0.14252 0.3415 0.0
Mn1332 Mn 0.89053 0.61059 0.24801 0.0
Mn1333 Mn 0.91309 0.58192 0.3011 0.0
C1334 C 0.89603 0.56646 0.24809 0.0
C1335 C 0.85594 0.62551 0.22427 0.0
C1336 C 0.94718 0.60982 0.26312 0.0
O1337 O 0.88743 0.63889 0.27477 0.0
O1338 O 0.90066 0.61677 0.30895 0.0
C1339 C 0.86309 0.57692 0.32683 0.0
N1340 N 0.88495 0.56607 0.31838 0.0
C1341 C 0.87162 0.52459 0.33394 0.0
C1342 C 0.84922 0.53543 0.34334 0.0
C1343 C 0.84488 0.56169 0.33962 0.0
C1344 C 0.8891 0.54077 0.32142 0.0
H1345 H 0.8595 0.59699 0.32364 0.0
C1346 C 0.89214 0.63709 0.29854 0.0
O1347 O 0.87898 0.63435 0.2207 0.0
O1348 O 0.85289 0.60906 0.24257 0.0
N1349 N 0.92584 0.54799 0.29747 0.0
C1350 C 0.9479 0.54033 0.28635 0.0
C1351 C 0.95449 0.51435 0.28736 0.0
C1352 C 0.93873 0.49675 0.30045 0.0
C1353 C 0.91663 0.50521 0.31246 0.0
C1354 C 0.91095 0.53127 0.3107 0.0
H1355 H 0.96011 0.55386 0.27641 0.0
O1356 O 0.89375 0.57906 0.22696 0.0
O1357 O 0.89387 0.57992 0.26896 0.0
O1358 O 0.92969 0.61623 0.24739 0.0
O1359 O 0.94303 0.59742 0.2838 0.0
C1360 C 0.89959 0.48861 0.32541 0.0
C1361 C 0.87706 0.49829 0.3361 0.0
H1362 H 0.83508 0.5237 0.35311 0.0
H1363 H 0.82749 0.57015 0.3465 0.0
H1364 H 0.97152 0.50792 0.27788 0.0
H1365 H 0.94335 0.47667 0.30089 0.0
H1366 H 0.90345 0.46831 0.32691 0.0
H1367 H 0.86392 0.4853 0.3457 0.0
Mn1368 Mn 0.4019 0.91354 0.25375 0.0
Mn1369 Mn 0.42709 0.92065 0.19454 0.0
C1370 C 0.41084 0.95533 0.23834 0.0
C1371 C 0.3678 0.90664 0.28231 0.0
C1372 C 0.45852 0.90782 0.24139 0.0
O1373 O 0.39534 0.8779 0.23805 0.0
O1374 O 0.4115 0.88639 0.19956 0.0
C1375 C 0.37775 0.91813 0.16693 0.0
N1376 N 0.40138 0.92876 0.17032 0.0
C1377 C 0.39921 0.95098 0.13033 0.0
C1378 C 0.37493 0.94004 0.12608 0.0
C1379 C 0.36396 0.92388 0.14469 0.0
C1380 C 0.4114 0.94545 0.15339 0.0
H1381 H 0.36972 0.90532 0.18104 0.0
C1382 C 0.40026 0.87149 0.21521 0.0
O1383 O 0.3909 0.90003 0.28754 0.0
O1384 O 0.36433 0.91759 0.26029 0.0
N1385 N 0.44379 0.95152 0.18337 0.0
C1386 C 0.46724 0.96057 0.1905 0.0
C1387 C 0.48165 0.97597 0.1737 0.0
C1388 C 0.47189 0.98177 0.14943 0.0
C1389 C 0.44771 0.97227 0.14234 0.0
C1390 C 0.43442 0.95682 0.15988 0.0
H1391 H 0.47521 0.95536 0.20849 0.0
O1392 O 0.40846 0.95022 0.26243 0.0
O1393 O 0.40685 0.93587 0.22289 0.0
O1394 O 0.44019 0.90662 0.25717 0.0
O1395 O 0.45565 0.91278 0.21777 0.0
C1396 C 0.43628 0.97741 0.11854 0.0
C1397 C 0.41184 0.96712 0.11271 0.0
H1398 H 0.36451 0.94399 0.10869 0.0
H1399 H 0.34517 0.91549 0.14167 0.0
H1400 H 0.50033 0.98311 0.17934 0.0
H1401 H 0.483 0.99367 0.13652 0.0
H1402 H 0.44597 0.9895 0.10472 0.0
H1403 H 0.40304 0.97161 0.09458 0.0
Mn1404 Mn 0.11947 0.40906 0.2546 0.0
Mn1405 Mn 0.10764 0.42394 0.31525 0.0
C1406 C 0.1169 0.45205 0.26563 0.0
C1407 C 0.14814 0.39739 0.22269 0.0
C1408 C 0.06545 0.41452 0.27812 0.0
O1409 O 0.12504 0.37506 0.27279 0.0
O1410 O 0.10716 0.38628 0.30962 0.0
C1411 C 0.15702 0.40296 0.3332 0.0
N1412 N 0.1411 0.42318 0.33034 0.0
C1413 C 0.17225 0.45198 0.34917 0.0
C1414 C 0.18901 0.43152 0.35196 0.0
C1415 C 0.18128 0.40685 0.34406 0.0
C1416 C 0.14822 0.44683 0.33836 0.0
H1417 H 0.15133 0.38395 0.32741 0.0
C1418 C 0.11552 0.36944 0.2943 0.0
O1419 O 0.12399 0.39149 0.22108 0.0
O1420 O 0.15547 0.40987 0.24286 0.0
N1421 N 0.10797 0.45904 0.32488 0.0
C1422 C 0.08877 0.476 0.32318 0.0
C1423 C 0.09389 0.50174 0.32872 0.0
C1424 C 0.11789 0.50937 0.33829 0.0
C1425 C 0.13634 0.49099 0.34285 0.0
C1426 C 0.13065 0.46579 0.33549 0.0
H1427 H 0.07054 0.47032 0.31543 0.0
O1428 O 0.11485 0.4447 0.24212 0.0
O1429 O 0.12242 0.43392 0.28215 0.0
O1430 O 0.08032 0.4056 0.26085 0.0
O1431 O 0.0735 0.42481 0.29906 0.0
C1432 C 0.1605 0.49689 0.35333 0.0
C1433 C 0.17843 0.47732 0.35665 0.0
H1434 H 0.20778 0.4345 0.36025 0.0
H1435 H 0.194 0.39086 0.34631 0.0
H1436 H 0.07999 0.51551 0.32345 0.0
H1437 H 0.12269 0.52936 0.34073 0.0
H1438 H 0.16545 0.51639 0.35891 0.0
H1439 H 0.19691 0.48195 0.36489 0.0
Mn1440 Mn 0.75429 0.61747 0.90482 0.0
Mn1441 Mn 0.81436 0.59539 0.90849 0.0
C1442 C 0.77352 0.61082 0.94467 0.0
C1443 C 0.72507 0.65107 0.90105 0.0
C1444 C 0.76854 0.56053 0.90211 0.0
O1445 O 0.76635 0.6222 0.86779 0.0
O1446 O 0.80462 0.60488 0.87366 0.0
C1447 C 0.83773 0.64621 0.89713 0.0
N1448 N 0.83669 0.62445 0.91145 0.0
C1449 C 0.87641 0.63498 0.93201 0.0
C1450 C 0.87802 0.65764 0.91762 0.0
C1451 C 0.85824 0.66357 0.90055 0.0
C1452 C 0.85445 0.61961 0.92933 0.0
H1453 H 0.82313 0.65012 0.88316 0.0
C1454 C 0.78763 0.61445 0.8594 0.0
O1455 O 0.71896 0.6276 0.89497 0.0
O1456 O 0.74837 0.65508 0.90867 0.0
N1457 N 0.82875 0.58436 0.93993 0.0
C1458 C 0.82493 0.56097 0.95095 0.0
C1459 C 0.84441 0.54998 0.96535 0.0
C1460 C 0.86783 0.56301 0.96801 0.0
C1461 C 0.87091 0.58783 0.95803 0.0
C1462 C 0.85087 0.59766 0.94356 0.0
H1463 H 0.80779 0.55004 0.94739 0.0
O1464 O 0.74903 0.61253 0.94215 0.0
O1465 O 0.78674 0.61478 0.92401 0.0
O1466 O 0.75203 0.57814 0.8996 0.0
O1467 O 0.79224 0.56475 0.90614 0.0
C1468 C 0.89374 0.60238 0.96025 0.0
C1469 C 0.89612 0.62642 0.94801 0.0
H1470 H 0.89443 0.67045 0.9193 0.0
H1471 H 0.85914 0.68114 0.88961 0.0
H1472 H 0.84181 0.53096 0.97333 0.0
H1473 H 0.8834 0.55356 0.97754 0.0
H1474 H 0.90966 0.59521 0.97115 0.0
H1475 H 0.91362 0.63757 0.95011 0.0
Mn1476 Mn 0.76912 0.41209 0.11186 0.0
Mn1477 Mn 0.7141 0.4427 0.10001 0.0
C1478 C 0.76962 0.4564 0.10649 0.0
C1479 C 0.79896 0.39712 0.14175 0.0
C1480 C 0.74238 0.41191 0.05997 0.0
O1481 O 0.74162 0.38468 0.12023 0.0
O1482 O 0.70662 0.40902 0.11652 0.0
C1483 C 0.69902 0.45278 0.15337 0.0
N1484 N 0.70408 0.46159 0.12946 0.0
C1485 C 0.69475 0.50493 0.14176 0.0
C1486 C 0.68872 0.4962 0.16634 0.0
C1487 C 0.69107 0.47004 0.17222 0.0
C1488 C 0.70249 0.48681 0.12376 0.0
H1489 H 0.7013 0.4328 0.15804 0.0
C1490 C 0.7175 0.38782 0.12188 0.0
O1491 O 0.79794 0.38807 0.11864 0.0
O1492 O 0.78152 0.41329 0.14787 0.0
N1493 N 0.71809 0.47548 0.08389 0.0
C1494 C 0.72513 0.48084 0.05944 0.0
C1495 C 0.725 0.50636 0.05082 0.0
C1496 C 0.71728 0.52603 0.06728 0.0
C1497 C 0.70945 0.51995 0.09213 0.0
C1498 C 0.70986 0.49416 0.09961 0.0
H1499 H 0.73096 0.46581 0.04665 0.0
O1500 O 0.79032 0.44342 0.10427 0.0
O1501 O 0.74925 0.44317 0.11249 0.0
O1502 O 0.76207 0.40668 0.07338 0.0
O1503 O 0.72342 0.42436 0.06854 0.0
C1504 C 0.70142 0.53849 0.10982 0.0
C1505 C 0.69406 0.53099 0.13462 0.0
H1506 H 0.68276 0.50948 0.18098 0.0
H1507 H 0.6869 0.46322 0.19127 0.0
H1508 H 0.7309 0.51087 0.03155 0.0
H1509 H 0.71742 0.54571 0.06063 0.0
H1510 H 0.70103 0.5586 0.10463 0.0
H1511 H 0.68823 0.54545 0.14816 0.0
Mn1512 Mn 0.61803 0.76117 0.09617 0.0
Mn1513 Mn 0.60433 0.82375 0.0913 0.0
C1514 C 0.61134 0.77946 0.05603 0.0
C1515 C 0.64833 0.7287 0.09951 0.0
C1516 C 0.56361 0.78275 0.10046 0.0
O1517 O 0.62659 0.77391 0.13228 0.0
O1518 O 0.61371 0.81402 0.12621 0.0
C1519 C 0.65929 0.83524 0.09904 0.0
N1520 N 0.63705 0.83966 0.08644 0.0
C1521 C 0.65717 0.8719 0.06042 0.0
C1522 C 0.68 0.86866 0.07393 0.0
C1523 C 0.68121 0.84982 0.093 0.0
C1524 C 0.6364 0.8558 0.06649 0.0
H1525 H 0.6604 0.82034 0.11316 0.0
C1526 C 0.62242 0.79646 0.14033 0.0
O1527 O 0.62494 0.72501 0.10695 0.0
O1528 O 0.65401 0.75127 0.09061 0.0
N1529 N 0.59512 0.83965 0.05984 0.0
C1530 C 0.57074 0.84321 0.05177 0.0
C1531 C 0.56499 0.86419 0.03622 0.0
C1532 C 0.58442 0.88152 0.02915 0.0
C1533 C 0.6095 0.87715 0.03655 0.0
C1534 C 0.61386 0.85665 0.05312 0.0
H1535 H 0.55536 0.83179 0.05929 0.0
O1536 O 0.61031 0.75484 0.05941 0.0
O1537 O 0.61801 0.79289 0.07594 0.0
O1538 O 0.57941 0.76442 0.10339 0.0
O1539 O 0.57037 0.80603 0.09516 0.0
C1540 C 0.62981 0.89408 0.03039 0.0
C1541 C 0.65394 0.89089 0.0417 0.0
H1542 H 0.69671 0.8804 0.06973 0.0
H1543 H 0.69889 0.84666 0.10312 0.0
H1544 H 0.54541 0.86784 0.03098 0.0
H1545 H 0.57978 0.89908 0.01942 0.0
H1546 H 0.62694 0.90992 0.01739 0.0
H1547 H 0.66949 0.9039 0.0368 0.0
Mn1548 Mn 0.25482 0.60282 0.11782 0.0
Mn1549 Mn 0.3068 0.57284 0.09531 0.0
C1550 C 0.25346 0.55875 0.11107 0.0
C1551 C 0.23002 0.6159 0.15286 0.0
C1552 C 0.27146 0.60416 0.06184 0.0
O1553 O 0.28374 0.62999 0.12282 0.0
O1554 O 0.31725 0.60563 0.11212 0.0
C1555 C 0.32943 0.5601 0.14538 0.0
N1556 N 0.32136 0.55258 0.1218 0.0
C1557 C 0.33138 0.50856 0.13063 0.0
C1558 C 0.34076 0.51602 0.15464 0.0
C1559 C 0.33958 0.54188 0.16213 0.0
C1560 C 0.32169 0.52763 0.11469 0.0
H1561 H 0.32767 0.57975 0.15149 0.0
C1562 C 0.30782 0.62653 0.12057 0.0
O1563 O 0.22729 0.62611 0.13042 0.0
O1564 O 0.24864 0.60008 0.1553 0.0
N1565 N 0.29996 0.54084 0.07838 0.0
C1566 C 0.28902 0.53662 0.05508 0.0
C1567 C 0.28756 0.51155 0.04524 0.0
C1568 C 0.29767 0.49113 0.05926 0.0
C1569 C 0.30946 0.49603 0.08285 0.0
C1570 C 0.3106 0.52146 0.09156 0.0
H1571 H 0.28127 0.5522 0.04412 0.0
O1572 O 0.23265 0.57162 0.11284 0.0
O1573 O 0.27453 0.57193 0.11376 0.0
O1574 O 0.2547 0.60913 0.07879 0.0
O1575 O 0.29218 0.59245 0.06665 0.0
C1576 C 0.31974 0.47661 0.09828 0.0
C1577 C 0.3306 0.48286 0.12219 0.0
H1578 H 0.34839 0.50198 0.1677 0.0
H1579 H 0.3462 0.54769 0.18087 0.0
H1580 H 0.27855 0.50796 0.02695 0.0
H1581 H 0.29621 0.47177 0.05176 0.0
H1582 H 0.31901 0.45676 0.09211 0.0
H1583 H 0.33799 0.4677 0.1341 0.0
Mn1584 Mn 0.40132 0.25784 0.10299 0.0
Mn1585 Mn 0.42484 0.1981 0.09854 0.0
C1586 C 0.40625 0.23878 0.06255 0.0
C1587 C 0.36719 0.28582 0.10972 0.0
C1588 C 0.45859 0.24513 0.10406 0.0
O1589 O 0.39849 0.24548 0.14005 0.0
O1590 O 0.41591 0.20725 0.13364 0.0
C1591 C 0.37532 0.17315 0.11095 0.0
N1592 N 0.39664 0.17475 0.09629 0.0
C1593 C 0.3881 0.13349 0.07766 0.0
C1594 C 0.36587 0.13127 0.09237 0.0
C1595 C 0.35911 0.15153 0.10862 0.0
C1596 C 0.40212 0.15651 0.07908 0.0
H1597 H 0.37094 0.18812 0.12444 0.0
C1598 C 0.4065 0.22411 0.14817 0.0
O1599 O 0.39067 0.29282 0.11405 0.0
O1600 O 0.36359 0.26258 0.10132 0.0
N1601 N 0.43562 0.18381 0.06703 0.0
C1602 C 0.45864 0.18835 0.05583 0.0
C1603 C 0.47068 0.16863 0.04259 0.0
C1604 C 0.45904 0.14427 0.0412 0.0
C1605 C 0.43456 0.14034 0.05132 0.0
C1606 C 0.42363 0.16069 0.06455 0.0
H1607 H 0.46855 0.20634 0.05848 0.0
O1608 O 0.40402 0.26336 0.06539 0.0
O1609 O 0.40414 0.22534 0.08345 0.0
O1610 O 0.44067 0.26131 0.10661 0.0
O1611 O 0.45482 0.22116 0.10036 0.0
C1612 C 0.42139 0.1165 0.05035 0.0
C1613 C 0.39767 0.11339 0.0627 0.0
H1614 H 0.35407 0.11401 0.09162 0.0
H1615 H 0.34189 0.15017 0.11984 0.0
H1616 H 0.48938 0.1719 0.03443 0.0
H1617 H 0.46907 0.12873 0.03213 0.0
H1618 H 0.42939 0.10037 0.04029 0.0
H1619 H 0.3876 0.0951 0.06159 0.0
Mn1620 Mn 0.26006 0.39288 0.90301 0.0
Mn1621 Mn 0.20212 0.40505 0.92727 0.0
C1622 C 0.25627 0.39808 0.94682 0.0
C1623 C 0.28849 0.36018 0.8922 0.0
C1624 C 0.2349 0.44528 0.89956 0.0
O1625 O 0.23616 0.38455 0.87326 0.0
O1626 O 0.19854 0.38823 0.89325 0.0
C1627 C 0.1818 0.35101 0.9306 0.0
N1628 N 0.18852 0.37288 0.94355 0.0
C1629 C 0.1535 0.35753 0.97739 0.0
C1630 C 0.14847 0.33677 0.96157 0.0
C1631 C 0.16326 0.33309 0.93957 0.0
C1632 C 0.18102 0.37542 0.96775 0.0
H1633 H 0.19039 0.34713 0.91241 0.0
C1634 C 0.21189 0.38274 0.87363 0.0
O1635 O 0.29135 0.38318 0.88278 0.0
O1636 O 0.26892 0.35638 0.90656 0.0
N1637 N 0.20198 0.42485 0.9595 0.0
C1638 C 0.2077 0.45595 0.96218 0.0
C1639 C 0.20165 0.47598 0.98977 0.0
C1640 C 0.18637 0.46152 0.01733 0.0
C1641 C 0.17744 0.4162 0.00672 0.0
C1642 C 0.19126 0.4041 0.97819 0.0
H1643 H 0.21714 0.46564 0.94683 0.0
O1644 O 0.27814 0.40045 0.93568 0.0
O1645 O 0.23698 0.39279 0.93185 0.0
O1646 O 0.25493 0.43177 0.8963 0.0
O1647 O 0.21459 0.43638 0.91 0.0
C1648 C 0.13671 0.39639 0.01939 0.0
C1649 C 0.13119 0.36681 1.00175 0.0
H1650 H 0.13274 0.32376 0.96576 0.0
H1651 H 0.15895 0.31647 0.92782 0.0
H1652 H 0.20624 0.49629 0.9894 0.0
H1653 H 0.17887 0.47302 0.03285 0.0
H1654 H 0.12281 0.40326 0.03309 0.0
H1655 H 0.11412 0.35538 1.0051 0.0
Mn1656 Mn 0.60211 0.25093 0.89796 0.0
Mn1657 Mn 0.57092 0.30463 0.9132 0.0
C1658 C 0.55847 0.24863 0.90409 0.0
C1659 C 0.61838 0.22541 0.86532 0.0
C1660 C 0.60283 0.27455 0.95121 0.0
O1661 O 0.62818 0.27937 0.89113 0.0
O1662 O 0.6036 0.31395 0.89623 0.0
C1663 C 0.55928 0.32317 0.86117 0.0
N1664 N 0.55115 0.31555 0.88465 0.0
C1665 C 0.50735 0.32277 0.87334 0.0
C1666 C 0.51526 0.33088 0.84908 0.0
C1667 C 0.54133 0.33099 0.84295 0.0
C1668 C 0.5261 0.31512 0.89065 0.0
H1669 H 0.5793 0.32325 0.85641 0.0
C1670 C 0.62471 0.30348 0.89035 0.0
O1671 O 0.6273 0.2242 0.88847 0.0
O1672 O 0.60068 0.24192 0.86122 0.0
N1673 N 0.53902 0.29873 0.92975 0.0
C1674 C 0.53474 0.2912 0.95424 0.0
C1675 C 0.50974 0.29031 0.96354 0.0
C1676 C 0.48933 0.29705 0.94761 0.0
C1677 C 0.49427 0.30535 0.92266 0.0
C1678 C 0.51969 0.30635 0.9146 0.0
H1679 H 0.55029 0.28613 0.96668 0.0
O1680 O 0.57192 0.22802 0.90442 0.0
O1681 O 0.5709 0.2699 0.8992 0.0
O1682 O 0.60792 0.25551 0.9367 0.0
O1683 O 0.59035 0.29409 0.94375 0.0
C1684 C 0.47505 0.31294 0.90555 0.0
C1685 C 0.48158 0.3216 0.88089 0.0
H1686 H 0.50148 0.33687 0.83495 0.0
H1687 H 0.54757 0.33709 0.82423 0.0
H1688 H 0.50645 0.28471 0.98305 0.0
H1689 H 0.47001 0.29616 0.95485 0.0
H1690 H 0.45519 0.31219 0.91117 0.0
H1691 H 0.46663 0.32728 0.86786 0.0
Mn1692 Mn 0.40489 0.75573 0.89725 0.0
Mn1693 Mn 0.43721 0.7034 0.91645 0.0
C1694 C 0.44892 0.75792 0.90104 0.0
C1695 C 0.38804 0.78076 0.86418 0.0
C1696 C 0.40731 0.73722 0.95259 0.0
O1697 O 0.37849 0.72635 0.89324 0.0
O1698 O 0.4039 0.69297 0.90173 0.0
C1699 C 0.44634 0.67954 0.86612 0.0
N1700 N 0.45558 0.68938 0.88845 0.0
C1701 C 0.4987 0.67984 0.87664 0.0
C1702 C 0.48964 0.6695 0.85355 0.0
C1703 C 0.46335 0.6694 0.84826 0.0
C1704 C 0.48084 0.68969 0.89367 0.0
H1705 H 0.42614 0.67942 0.86203 0.0
C1706 C 0.38249 0.70221 0.89485 0.0
O1707 O 0.37993 0.78291 0.88746 0.0
O1708 O 0.40444 0.76292 0.85998 0.0
N1709 N 0.46993 0.71037 0.93133 0.0
C1710 C 0.47543 0.72023 0.95483 0.0
C1711 C 0.50085 0.72158 0.96315 0.0
C1712 C 0.52036 0.71241 0.94747 0.0
C1713 C 0.51415 0.70149 0.92374 0.0
C1714 C 0.48841 0.70051 0.91653 0.0
H1715 H 0.46057 0.72719 0.9671 0.0
O1716 O 0.43556 0.77859 0.90062 0.0
O1717 O 0.43623 0.73641 0.89871 0.0
O1718 O 0.4011 0.75452 0.93651 0.0
O1719 O 0.41944 0.71703 0.94659 0.0
C1720 C 0.53246 0.69161 0.90694 0.0
C1721 C 0.52475 0.68084 0.88337 0.0
H1722 H 0.5027 0.66163 0.83974 0.0
H1723 H 0.45622 0.66149 0.83047 0.0
H1724 H 0.50531 0.72968 0.98162 0.0
H1725 H 0.53999 0.71372 0.95389 0.0
H1726 H 0.55252 0.69226 0.91191 0.0
H1727 H 0.53901 0.67338 0.87058 0.0
C1728 C 0.1395 0.33307 0.31253 0.0
C1729 C 0.11619 0.34298 0.30409 0.0
C1730 C 0.14004 0.31286 0.33021 0.0
C1731 C 0.11735 0.3013 0.33913 0.0
H1732 H 0.1573 0.3425 0.30733 0.0
H1733 H 0.15825 0.3072 0.33803 0.0
S1734 S 0.05163 0.31791 0.31984 0.0
N1735 N 0.07007 0.33848 0.30417 0.0
N1736 N 0.07112 0.29931 0.33598 0.0
C1737 C 0.09408 0.30932 0.32878 0.0
C1738 C 0.0935 0.33049 0.31155 0.0
C1739 C 0.67805 0.13545 0.35453 0.0
C1740 C 0.70241 0.12847 0.34595 0.0
C1741 C 0.65651 0.13353 0.33857 0.0
C1742 C 0.65839 0.125 0.31314 0.0
H1743 H 0.67524 0.14103 0.37421 0.0
H1744 H 0.63807 0.13801 0.34652 0.0
S1745 S 0.71821 0.10707 0.28039 0.0
N1746 N 0.7274 0.11454 0.30966 0.0
N1747 N 0.6871 0.11143 0.27957 0.0
C1748 C 0.68289 0.11961 0.30379 0.0
C1749 C 0.70481 0.1212 0.32019 0.0
C1750 C 0.88052 0.67321 0.35932 0.0
C1751 C 0.89108 0.69776 0.35454 0.0
C1752 C 0.87919 0.65443 0.34038 0.0
C1753 C 0.88825 0.65927 0.31567 0.0
H1754 H 0.87454 0.66777 0.3783 0.0
H1755 H 0.87223 0.63548 0.34561 0.0
S1756 S 0.91552 0.72096 0.29227 0.0
N1757 N 0.90901 0.72655 0.32258 0.0
N1758 N 0.90637 0.69096 0.28665 0.0
C1759 C 0.8971 0.68424 0.3099 0.0
C1760 C 0.89854 0.70357 0.32941 0.0
C1761 C 0.32309 0.9143 0.29762 0.0
C1762 C 0.34674 0.90243 0.30106 0.0
C1763 C 0.30386 0.91249 0.31622 0.0
C1764 C 0.30736 0.89862 0.33906 0.0
H1765 H 0.31964 0.92583 0.28083 0.0
H1766 H 0.28642 0.92285 0.31298 0.0
S1767 S 0.36478 0.86159 0.35617 0.0
N1768 N 0.37177 0.8745 0.32827 0.0
N1769 N 0.33574 0.87115 0.36301 0.0
C1770 C 0.33043 0.88557 0.34214 0.0
C1771 C 0.35006 0.88749 0.32324 0.0
C1772 C 0.1208 0.65854 0.6868 0.0
C1773 C 0.11078 0.66462 0.71098 0.0
C1774 C 0.12364 0.67728 0.66755 0.0
C1775 C 0.11656 0.70294 0.67161 0.0
H1776 H 0.1259 0.63897 0.68241 0.0
H1777 H 0.1305 0.67134 0.64904 0.0
S1778 S 0.0917 0.72957 0.73227 0.0
N1779 N 0.09551 0.6988 0.73832 0.0
N1780 N 0.1008 0.73373 0.70244 0.0
C1781 C 0.10756 0.70948 0.69605 0.0
C1782 C 0.10467 0.69045 0.71561 0.0
C1783 C 0.3041 0.1155 0.67601 0.0
C1784 C 0.31277 0.12416 0.65211 0.0
C1785 C 0.32038 0.11565 0.69739 0.0
C1786 C 0.34577 0.12485 0.69571 0.0
H1787 H 0.28518 0.10705 0.67786 0.0
H1788 H 0.31334 0.10742 0.71502 0.0
S1789 S 0.37635 0.15332 0.63829 0.0
N1790 N 0.34752 0.14456 0.6287 0.0
N1791 N 0.37768 0.14561 0.66876 0.0
C1792 C 0.35392 0.13544 0.67239 0.0
C1793 C 0.33755 0.13486 0.65062 0.0
C1794 C 0.89663 0.3099 0.69041 0.0
C1795 C 0.88743 0.31093 0.66512 0.0
C1796 C 0.8963 0.33157 0.70653 0.0
C1797 C 0.88716 0.35531 0.6979 0.0
H1798 H 0.90507 0.29248 0.69756 0.0
H1799 H 0.90464 0.33007 0.72539 0.0
S1800 S 0.85835 0.36772 0.63443 0.0
N1801 N 0.86665 0.33733 0.63319 0.0
N1802 N 0.86664 0.37789 0.66315 0.0
C1803 C 0.87671 0.35624 0.67316 0.0
C1804 C 0.87666 0.33413 0.6569 0.0
C1805 C 0.67375 0.8809 0.65596 0.0
C1806 C 0.69933 0.88963 0.65766 0.0
C1807 C 0.65718 0.88238 0.67676 0.0
C1808 C 0.66541 0.89262 0.70022 0.0
H1809 H 0.66607 0.87363 0.63811 0.0
H1810 H 0.63752 0.8762 0.6741 0.0
S1811 S 0.73117 0.91562 0.71573 0.0
N1812 N 0.73257 0.90704 0.68547 0.0
N1813 N 0.7015 0.90968 0.72467 0.0
C1814 C 0.69129 0.9001 0.7027 0.0
C1815 C 0.70822 0.89861 0.68143 0.0
C1816 C 0.35176 0.13473 0.32814 0.0
C1817 C 0.34562 0.12061 0.30608 0.0
C1818 C 0.3341 0.13748 0.34786 0.0
C1819 C 0.30953 0.12609 0.34651 0.0
H1820 H 0.3706 0.14325 0.33054 0.0
H1821 H 0.3402 0.14793 0.36474 0.0
S1822 S 0.28323 0.08863 0.29196 0.0
N1823 N 0.31257 0.09642 0.28321 0.0
N1824 N 0.2795 0.10136 0.32052 0.0
C1825 C 0.30267 0.11294 0.32402 0.0
C1826 C 0.32068 0.11021 0.30379 0.0
C1827 C 0.87765 0.33702 0.35054 0.0
C1828 C 0.88165 0.31101 0.34458 0.0
C1829 C 0.87928 0.35617 0.33157 0.0
C1830 C 0.88504 0.34991 0.30609 0.0
H1831 H 0.87518 0.34285 0.3702 0.0
H1832 H 0.87789 0.37609 0.33726 0.0
S1833 S 0.89203 0.28423 0.27988 0.0
N1834 N 0.88773 0.2798 0.31075 0.0
N1835 N 0.89091 0.31555 0.27541 0.0
C1836 C 0.88673 0.3238 0.29963 0.0
C1837 C 0.88499 0.30442 0.31879 0.0
C1838 C 0.70387 0.90445 0.3315 0.0
C1839 C 0.70499 0.88568 0.3507 0.0
C1840 C 0.68346 0.90468 0.31404 0.0
C1841 C 0.66362 0.88623 0.31546 0.0
H1842 H 0.7175 0.92032 0.33142 0.0
H1843 H 0.68214 0.92051 0.30074 0.0
S1844 S 0.66031 0.83041 0.35895 0.0
N1845 N 0.68661 0.8461 0.36748 0.0
N1846 N 0.64819 0.84683 0.33502 0.0
C1847 C 0.66577 0.86616 0.33302 0.0
C1848 C 0.68655 0.8658 0.35056 0.0
C1849 C 0.11198 0.69087 0.29871 0.0
C1850 C 0.12578 0.66853 0.30354 0.0
C1851 C 0.11456 0.71247 0.31472 0.0
C1852 C 0.13093 0.71237 0.33617 0.0
H1853 H 0.09744 0.69085 0.28398 0.0
H1854 H 0.10204 0.72847 0.31144 0.0
S1855 S 0.175 0.66016 0.35356 0.0
N1856 N 0.15916 0.64893 0.32857 0.0
N1857 N 0.16412 0.68929 0.35861 0.0
C1858 C 0.14677 0.69108 0.33941 0.0
C1859 C 0.14411 0.66919 0.32313 0.0
C1860 C 0.35898 0.88359 0.67262 0.0
C1861 C 0.35703 0.89038 0.69854 0.0
C1862 C 0.33732 0.88134 0.65692 0.0
C1863 C 0.31273 0.88631 0.66627 0.0
H1864 H 0.3775 0.88037 0.66421 0.0
H1865 H 0.3401 0.87692 0.63694 0.0
S1866 S 0.29689 0.90338 0.73306 0.0
N1867 N 0.32822 0.90062 0.73321 0.0
N1868 N 0.28761 0.89708 0.70354 0.0
C1869 C 0.31037 0.89226 0.69235 0.0
C1870 C 0.33245 0.89411 0.7085 0.0
C1871 C 0.13014 0.34058 0.68698 0.0
C1872 C 0.10913 0.35643 0.6913 0.0
C1873 C 0.12904 0.32127 0.66811 0.0
C1874 C 0.10681 0.31725 0.65337 0.0
H1875 H 0.14785 0.34401 0.69721 0.0
H1876 H 0.14607 0.31055 0.66403 0.0
S1877 S 0.04531 0.3505 0.66104 0.0
N1878 N 0.06469 0.36466 0.68177 0.0
N1879 N 0.06239 0.32827 0.647 0.0
C1880 C 0.08516 0.33165 0.65914 0.0
C1881 C 0.08639 0.35131 0.67792 0.0
C1882 C 0.68322 0.1284 0.67141 0.0
C1883 C 0.70795 0.1194 0.67611 0.0
C1884 C 0.66383 0.12592 0.68976 0.0
C1885 C 0.66831 0.11438 0.71365 0.0
H1886 H 0.6784 0.13633 0.65296 0.0
H1887 H 0.64494 0.13238 0.68477 0.0
S1888 S 0.73056 0.09045 0.73669 0.0
N1889 N 0.7364 0.10055 0.70742 0.0
N1890 N 0.70008 0.09594 0.74175 0.0
C1891 C 0.69331 0.10662 0.71914 0.0
C1892 C 0.71306 0.10913 0.70044 0.0
C1893 C 0.90453 0.70904 0.68134 0.0
C1894 C 0.89014 0.70312 0.65941 0.0
C1895 C 0.90566 0.69173 0.70183 0.0
C1896 C 0.89251 0.6679 0.701 0.0
H1897 H 0.9162 0.72638 0.68209 0.0
H1898 H 0.9179 0.69656 0.71786 0.0
S1899 S 0.84856 0.64542 0.64979 0.0
N1900 N 0.85972 0.67336 0.63957 0.0
N1901 N 0.86213 0.64086 0.67783 0.0
C1902 C 0.87664 0.66263 0.67997 0.0
C1903 C 0.87535 0.68026 0.65926 0.0
C1904 C 0.33087 0.34719 0.12353 0.0
C1905 C 0.3054 0.34033 0.11781 0.0
C1906 C 0.35057 0.32931 0.12149 0.0
C1907 C 0.34567 0.30378 0.11369 0.0
H1908 H 0.33585 0.36682 0.12855 0.0
H1909 H 0.36992 0.33582 0.12539 0.0
S1910 S 0.28184 0.27527 0.09919 0.0
N1911 N 0.27612 0.30556 0.106 0.0
N1912 N 0.31297 0.27213 0.10221 0.0
C1913 C 0.32011 0.29635 0.10915 0.0
C1914 C 0.30006 0.31455 0.11122 0.0
C1915 C 0.3675 0.65686 0.88921 0.0
C1916 C 0.36141 0.68309 0.89064 0.0
C1917 C 0.34868 0.63761 0.89003 0.0
C1918 C 0.32272 0.64352 0.8921 0.0
H1919 H 0.38718 0.65089 0.88844 0.0
H1920 H 0.35474 0.61783 0.8898 0.0
S1921 S 0.296 0.70914 0.89259 0.0
N1922 N 0.32718 0.71401 0.89145 0.0
N1923 N 0.29157 0.67768 0.8927 0.0
C1924 C 0.31606 0.66965 0.89157 0.0
C1925 C 0.33542 0.68944 0.89088 0.0
C1926 C 0.33381 0.34552 0.88766 0.0
C1927 C 0.30764 0.3396 0.88992 0.0
C1928 C 0.35232 0.32651 0.89122 0.0
C1929 C 0.34527 0.30098 0.89729 0.0
H1930 H 0.3401 0.36517 0.8845 0.0
H1931 H 0.37227 0.3321 0.89024 0.0
S1932 S 0.27907 0.27494 0.90145 0.0
N1933 N 0.27562 0.30581 0.89567 0.0
N1934 N 0.31012 0.27041 0.9025 0.0
C1935 C 0.31912 0.29461 0.89803 0.0
C1936 C 0.3004 0.31383 0.89428 0.0
C1937 C 0.64178 0.34577 0.87579 0.0
C1938 C 0.64658 0.32092 0.88478 0.0
C1939 C 0.66084 0.36481 0.87592 0.0
C1940 C 0.68553 0.35983 0.88508 0.0
H1941 H 0.62274 0.351 0.86986 0.0
H1942 H 0.65574 0.384 0.87009 0.0
S1943 S 0.70892 0.29703 0.90765 0.0
N1944 N 0.6786 0.29153 0.90059 0.0
N1945 N 0.71453 0.32756 0.90087 0.0
C1946 C 0.69127 0.33453 0.89205 0.0
C1947 C 0.67175 0.315 0.8919 0.0
C1948 C 0.68021 0.66624 0.89456 0.0
C1949 C 0.7059 0.67194 0.90058 0.0
C1950 C 0.66142 0.68516 0.89556 0.0
C1951 C 0.66747 0.71065 0.90262 0.0
H1952 H 0.67439 0.64686 0.88942 0.0
H1953 H 0.64191 0.67961 0.89111 0.0
S1954 S 0.73215 0.73603 0.91895 0.0
N1955 N 0.7365 0.70532 0.91294 0.0
N1956 N 0.70137 0.74074 0.9148 0.0
C1957 C 0.6932 0.71676 0.90812 0.0
C1958 C 0.71233 0.69748 0.90711 0.0
C1959 C 0.6924 0.71356 0.09081 0.0
C1960 C 0.66776 0.70818 0.10015 0.0
C1961 C 0.71107 0.69469 0.08996 0.0
C1962 C 0.70606 0.66949 0.09844 0.0
H1963 H 0.69739 0.73253 0.08378 0.0
H1964 H 0.72961 0.7 0.08237 0.0
S1965 S 0.64483 0.6454 0.12547 0.0
N1966 N 0.63947 0.67579 0.11867 0.0
N1967 N 0.67466 0.64026 0.11712 0.0
C1968 C 0.68162 0.66383 0.10823 0.0
C1969 C 0.66248 0.68315 0.10907 0.0
C1970 C 0.34123 0.69243 0.11968 0.0
C1971 C 0.36657 0.68641 0.12632 0.0
C1972 C 0.32159 0.67346 0.11963 0.0
C1973 C 0.32659 0.64779 0.12623 0.0
H1974 H 0.33685 0.71152 0.11297 0.0
H1975 H 0.30284 0.67858 0.11282 0.0
S1976 S 0.38858 0.62322 0.14954 0.0
N1977 N 0.39453 0.65367 0.1429 0.0
N1978 N 0.35812 0.61844 0.14283 0.0
C1979 C 0.35138 0.64217 0.13478 0.0
C1980 C 0.37121 0.66132 0.13481 0.0
C1981 C 0.7041 0.34129 0.11664 0.0
C1982 C 0.70021 0.36559 0.12776 0.0
C1983 C 0.68456 0.32225 0.11643 0.0
C1984 C 0.66051 0.32692 0.12729 0.0
H1985 H 0.72156 0.33765 0.10639 0.0
H1986 H 0.68767 0.30459 0.10607 0.0
S1987 S 0.64254 0.38542 0.16303 0.0
N1988 N 0.67179 0.39161 0.15305 0.0
N1989 N 0.63547 0.35627 0.15259 0.0
C1990 C 0.65736 0.35025 0.14034 0.0
C1991 C 0.67709 0.36945 0.1406 0.0
C1992 C 0.63521 0.82666 0.80783 0.0
C1993 C 0.6126 0.83729 0.79832 0.0
C1994 C 0.63438 0.80798 0.82721 0.0
C1995 C 0.6109 0.79938 0.83724 0.0
H1996 H 0.65351 0.83516 0.80279 0.0
H1997 H 0.65203 0.80289 0.83658 0.0
S1998 S 0.54667 0.81684 0.81429 0.0
N1999 N 0.56644 0.83452 0.79692 0.0
N2000 N 0.56485 0.79923 0.83291 0.0
C2001 C 0.58841 0.80703 0.82506 0.0
C2002 C 0.58926 0.82609 0.80563 0.0
C2003 C 0.18745 0.64011 0.84915 0.0
C2004 C 0.20836 0.62488 0.84264 0.0
C2005 C 0.16547 0.64043 0.8339 0.0
C2006 C 0.1636 0.62582 0.81135 0.0
H2007 H 0.18714 0.65027 0.86718 0.0
H2008 H 0.14905 0.65062 0.84086 0.0
S2009 S 0.21456 0.58657 0.78321 0.0
N2010 N 0.22711 0.59775 0.81002 0.0
N2011 N 0.18563 0.59851 0.78145 0.0
C2012 C 0.18529 0.61281 0.80312 0.0
C2013 C 0.20773 0.6123 0.81876 0.0
C2014 C 0.36692 0.16331 0.82422 0.0
C2015 C 0.38752 0.16133 0.80735 0.0
C2016 C 0.36649 0.18267 0.84285 0.0
C2017 C 0.38692 0.20036 0.84568 0.0
H2018 H 0.35193 0.14874 0.82419 0.0
H2019 H 0.35121 0.18219 0.85665 0.0
S2020 S 0.4442 0.20464 0.80469 0.0
N2021 N 0.42759 0.18011 0.79288 0.0
N2022 N 0.42726 0.21586 0.82865 0.0
C2023 C 0.4066 0.1998 0.8276 0.0
C2024 C 0.40683 0.18035 0.80829 0.0
C2025 C 0.84378 0.37937 0.83133 0.0
C2026 C 0.83907 0.3867 0.80592 0.0
C2027 C 0.82415 0.37905 0.84959 0.0
C2028 C 0.79914 0.38605 0.84305 0.0
H2029 H 0.86302 0.37539 0.83756 0.0
H2030 H 0.82899 0.37489 0.86924 0.0
S2031 S 0.77593 0.40193 0.77809 0.0
N2032 N 0.80681 0.39756 0.7745 0.0
N2033 N 0.77012 0.39697 0.80862 0.0
C2034 C 0.79383 0.39128 0.81727 0.0
C2035 C 0.81373 0.39161 0.79876 0.0
C2036 C 0.61967 0.21406 0.19177 0.0
C2037 C 0.62927 0.21034 0.16701 0.0
C2038 C 0.61835 0.19395 0.2095 0.0
C2039 C 0.62657 0.16909 0.20341 0.0
H2040 H 0.61207 0.23245 0.19728 0.0
H2041 H 0.60987 0.19782 0.22789 0.0
S2042 S 0.65577 0.14961 0.14211 0.0
N2043 N 0.64909 0.1802 0.138 0.0
N2044 N 0.64663 0.1424 0.1714 0.0
C2045 C 0.63768 0.1654 0.17928 0.0
C2046 C 0.63902 0.18599 0.1611 0.0
C2047 C 0.83919 0.64975 0.18698 0.0
C2048 C 0.83521 0.63085 0.20572 0.0
C2049 C 0.82366 0.65077 0.16524 0.0
C2050 C 0.80346 0.63306 0.16147 0.0
H2051 H 0.85557 0.66266 0.18809 0.0
H2052 H 0.82891 0.66413 0.1503 0.0
S2053 S 0.7824 0.58236 0.20643 0.0
N2054 N 0.80734 0.59607 0.22057 0.0
N2055 N 0.77841 0.59803 0.17939 0.0
C2056 C 0.7976 0.61581 0.18116 0.0
C2057 C 0.81342 0.6147 0.20341 0.0
C2058 C 0.37649 0.82279 0.16761 0.0
C2059 C 0.39236 0.80181 0.17233 0.0
C2060 C 0.37697 0.84441 0.1836 0.0
C2061 C 0.39311 0.84587 0.20508 0.0
H2062 H 0.36493 0.82337 0.15048 0.0
H2063 H 0.36589 0.86082 0.17806 0.0
S2064 S 0.43574 0.79496 0.22813 0.0
N2065 N 0.42255 0.78278 0.20203 0.0
N2066 N 0.42339 0.82369 0.23172 0.0
C2067 C 0.40733 0.82425 0.21136 0.0
C2068 C 0.40694 0.80214 0.19509 0.0
C2069 C 0.17269 0.37847 0.15751 0.0
C2070 C 0.19839 0.38691 0.158 0.0
C2071 C 0.15696 0.38076 0.1789 0.0
C2072 C 0.1662 0.39166 0.20172 0.0
H2073 H 0.16426 0.37106 0.14004 0.0
H2074 H 0.13711 0.37496 0.17709 0.0
S2075 S 0.23287 0.41378 0.21412 0.0
N2076 N 0.23297 0.40435 0.18405 0.0
N2077 N 0.2035 0.40856 0.22438 0.0
C2078 C 0.19232 0.39852 0.20309 0.0
C2079 C 0.2084 0.39611 0.18124 0.0
C2080 C 0.80189 0.59214 0.82103 0.0
C2081 C 0.79448 0.61546 0.83215 0.0
C2082 C 0.82155 0.59145 0.803 0.0
C2083 C 0.83392 0.61411 0.79491 0.0
H2084 H 0.7951 0.57409 0.82899 0.0
H2085 H 0.82906 0.57296 0.79764 0.0
S2086 S 0.81694 0.68036 0.81312 0.0
N2087 N 0.79782 0.66189 0.83045 0.0
N2088 N 0.8336 0.66073 0.79512 0.0
C2089 C 0.82364 0.63769 0.80251 0.0
C2090 C 0.80412 0.63835 0.82155 0.0
C2091 C 0.37844 0.84583 0.83299 0.0
C2092 C 0.38491 0.84096 0.80742 0.0
C2093 C 0.37731 0.82582 0.85108 0.0
C2094 C 0.38267 0.80028 0.84422 0.0
H2095 H 0.3759 0.86537 0.83945 0.0
H2096 H 0.37399 0.8307 0.87087 0.0
S2097 S 0.39558 0.77676 0.77879 0.0
N2098 N 0.39294 0.80812 0.77553 0.0
N2099 N 0.39105 0.77087 0.80938 0.0
C2100 C 0.38695 0.79496 0.81832 0.0
C2101 C 0.38801 0.8152 0.79997 0.0
C2102 C 0.20636 0.3881 0.82648 0.0
C2103 C 0.19787 0.37717 0.84954 0.0
C2104 C 0.19051 0.38845 0.8048 0.0
C2105 C 0.16572 0.37756 0.80527 0.0
H2106 H 0.2246 0.39814 0.82568 0.0
H2107 H 0.1972 0.39867 0.78806 0.0
S2108 S 0.13644 0.34232 0.85967 0.0
N2109 N 0.16443 0.35237 0.87054 0.0
N2110 N 0.13501 0.35231 0.82986 0.0
C2111 C 0.15805 0.36443 0.82751 0.0
C2112 C 0.174 0.36447 0.84964 0.0
C2113 C 0.61247 0.1856 0.8051 0.0
C2114 C 0.62657 0.16384 0.81133 0.0
C2115 C 0.61176 0.20667 0.82179 0.0
C2116 C 0.62508 0.20659 0.84524 0.0
H2117 H 0.59993 0.18532 0.78864 0.0
H2118 H 0.59906 0.22218 0.81714 0.0
S2119 S 0.66937 0.15636 0.86714 0.0
N2120 N 0.65758 0.14519 0.84 0.0
N2121 N 0.65631 0.18466 0.87139 0.0
C2122 C 0.64158 0.18619 0.85009 0.0
C2123 C 0.64231 0.16482 0.83309 0.0
C2124 C 0.84003 0.3988 0.20172 0.0
C2125 C 0.86463 0.39362 0.19252 0.0
C2126 C 0.81868 0.39854 0.18541 0.0
C2127 C 0.82086 0.39256 0.1593 0.0
H2128 H 0.83737 0.4044 0.22143 0.0
H2129 H 0.80042 0.40391 0.19321 0.0
S2130 S 0.88048 0.37479 0.12615 0.0
N2131 N 0.88953 0.38049 0.15584 0.0
N2132 N 0.84942 0.37944 0.12545 0.0
C2133 C 0.84506 0.38581 0.15018 0.0
C2134 C 0.86691 0.38652 0.16668 0.0
C2135 C 0.6458 0.84088 0.19115 0.0
C2136 C 0.62667 0.83814 0.20964 0.0
C2137 C 0.64673 0.82427 0.17015 0.0
C2138 C 0.62842 0.80447 0.16667 0.0
H2139 H 0.6592 0.85691 0.19201 0.0
H2140 H 0.6606 0.82847 0.15548 0.0
S2141 S 0.57656 0.78683 0.21129 0.0
N2142 N 0.59089 0.81187 0.22479 0.0
N2143 N 0.59237 0.78132 0.1847 0.0
C2144 C 0.6107 0.80001 0.18614 0.0
C2145 C 0.60987 0.81672 0.20779 0.0
C2146 C 0.16576 0.62632 0.18491 0.0
C2147 C 0.16864 0.61463 0.20898 0.0
C2148 C 0.18611 0.62814 0.16749 0.0
C2149 C 0.21029 0.61826 0.17329 0.0
H2150 H 0.14739 0.63356 0.1791 0.0
H2151 H 0.18248 0.63638 0.1489 0.0
S2152 S 0.22875 0.58794 0.23462 0.0
N2153 N 0.19834 0.59467 0.23831 0.0
N2154 N 0.23637 0.59799 0.20574 0.0
C2155 C 0.21377 0.60758 0.19774 0.0
C2156 C 0.19306 0.60578 0.2155 0.0
C2157 C 0.42739 0.20816 0.1868 0.0
C2158 C 0.40479 0.21659 0.17521 0.0
C2159 C 0.42687 0.18858 0.20509 0.0
C2160 C 0.40371 0.17714 0.21278 0.0
H2161 H 0.44573 0.21425 0.17922 0.0
H2162 H 0.44479 0.18037 0.21103 0.0
S2163 S 0.3391 0.19654 0.19265 0.0
N2164 N 0.35855 0.21506 0.17575 0.0
N2165 N 0.3575 0.17908 0.21122 0.0
C2166 C 0.3809 0.18821 0.20438 0.0
C2167 C 0.38145 0.20782 0.18526 0.0
C2168 C 0.8512 0.83352 0.6338 0.0
C2169 C 0.84542 0.8075 0.62878 0.0
C2170 C 0.832 0.85204 0.63394 0.0
C2171 C 0.80636 0.84518 0.62906 0.0
H2172 H 0.87085 0.83995 0.63588 0.0
H2173 H 0.83758 0.87205 0.63608 0.0
S2174 S 0.78062 0.77894 0.62022 0.0
N2175 N 0.81173 0.77537 0.62281 0.0
N2176 N 0.7758 0.81004 0.62306 0.0
C2177 C 0.8001 0.81893 0.62646 0.0
C2178 C 0.81959 0.80013 0.62632 0.0
C2179 C 0.86455 0.16905 0.38506 0.0
C2180 C 0.85939 0.19499 0.3902 0.0
C2181 C 0.84548 0.15 0.38635 0.0
C2182 C 0.82013 0.1558 0.39263 0.0
H2183 H 0.88381 0.16312 0.38093 0.0
H2184 H 0.85098 0.13031 0.38319 0.0
S2185 S 0.79568 0.22096 0.40551 0.0
N2186 N 0.82642 0.22575 0.40011 0.0
N2187 N 0.79043 0.18976 0.40224 0.0
C2188 C 0.8142 0.18183 0.39621 0.0
C2189 C 0.83382 0.20142 0.39505 0.0
C2190 C 0.84192 0.85671 0.37982 0.0
C2191 C 0.81598 0.85019 0.38336 0.0
C2192 C 0.86077 0.83768 0.37998 0.0
C2193 C 0.85425 0.8116 0.3837 0.0
H2194 H 0.84785 0.87668 0.37861 0.0
H2195 H 0.88063 0.84363 0.37886 0.0
S2196 S 0.78871 0.7842 0.38893 0.0
N2197 N 0.78462 0.81548 0.38701 0.0
N2198 N 0.8198 0.78008 0.38742 0.0
C2199 C 0.82825 0.80479 0.38512 0.0
C2200 C 0.80919 0.82399 0.38491 0.0
C2201 C 0.14917 0.85182 0.38557 0.0
C2202 C 0.15556 0.82613 0.39022 0.0
C2203 C 0.1678 0.87128 0.38479 0.0
C2204 C 0.19377 0.8661 0.3888 0.0
H2205 H 0.12943 0.8572 0.38337 0.0
H2206 H 0.16155 0.89081 0.38209 0.0
S2207 S 0.22102 0.80168 0.39935 0.0
N2208 N 0.19 0.79613 0.39682 0.0
N2209 N 0.22518 0.83296 0.39564 0.0
C2210 C 0.20073 0.84028 0.39182 0.0
C2211 C 0.1816 0.82026 0.39249 0.0
C2212 C 0.1731 0.15774 0.37407 0.0
C2213 C 0.19866 0.16652 0.3756 0.0
C2214 C 0.15278 0.17501 0.37462 0.0
C2215 C 0.15742 0.20159 0.37661 0.0
H2216 H 0.16868 0.13735 0.37437 0.0
H2217 H 0.13344 0.16741 0.37533 0.0
S2218 S 0.22086 0.23444 0.37557 0.0
N2219 N 0.22738 0.20356 0.37522 0.0
N2220 N 0.18946 0.23598 0.37586 0.0
C2221 C 0.18289 0.21061 0.37556 0.0
C2222 C 0.20346 0.19308 0.37517 0.0
C2223 C 0.21028 0.19226 0.61132 0.0
C2224 C 0.20361 0.16718 0.61923 0.0
C2225 C 0.19264 0.21215 0.61168 0.0
C2226 C 0.16746 0.20797 0.62002 0.0
H2227 H 0.22907 0.19645 0.60371 0.0
H2228 H 0.19857 0.23071 0.60427 0.0
S2229 S 0.141 0.14661 0.6456 0.0
N2230 N 0.17064 0.13984 0.63784 0.0
N2231 N 0.13738 0.17725 0.63866 0.0
C2232 C 0.16096 0.18343 0.62965 0.0
C2233 C 0.17903 0.16305 0.62923 0.0
C2234 C 0.81475 0.17673 0.61722 0.0
C2235 C 0.8194 0.15217 0.62734 0.0
C2236 C 0.83383 0.19621 0.61759 0.0
C2237 C 0.85808 0.19171 0.62819 0.0
H2238 H 0.797 0.18033 0.60732 0.0
H2239 H 0.83021 0.21412 0.60786 0.0
S2240 S 0.87788 0.1324 0.6615 0.0
N2241 N 0.84867 0.12588 0.65138 0.0
N2242 N 0.88411 0.16209 0.65225 0.0
C2243 C 0.86194 0.16802 0.64034 0.0
C2244 C 0.84273 0.14834 0.63985 0.0
C2245 C 0.19842 0.83088 0.60686 0.0
C2246 C 0.19632 0.85283 0.62241 0.0
C2247 C 0.1792 0.81153 0.60665 0.0
C2248 C 0.15734 0.81348 0.62204 0.0
H2249 H 0.21404 0.82954 0.59347 0.0
H2250 H 0.18058 0.79594 0.59305 0.0
S2251 S 0.14508 0.86472 0.66931 0.0
N2252 N 0.17227 0.87349 0.65586 0.0
N2253 N 0.13653 0.83739 0.65552 0.0
C2254 C 0.15615 0.83427 0.63903 0.0
C2255 C 0.17554 0.85388 0.6392 0.0
C2256 C 0.09085 0.24624 0.48706 0.0
C2257 C 0.11115 0.25601 0.47206 0.0
C2258 C 0.09188 0.24678 0.514 0.0
C2259 C 0.11314 0.25734 0.52706 0.0
H2260 H 0.07351 0.23931 0.47792 0.0
H2261 H 0.07538 0.24011 0.52465 0.0
S2262 S 0.17681 0.26344 0.49768 0.0
N2263 N 0.15719 0.26114 0.47295 0.0
N2264 N 0.15866 0.26418 0.52333 0.0
C2265 C 0.13521 0.26184 0.51249 0.0
C2266 C 0.13436 0.26059 0.48501 0.0
C2267 C 0.74116 0.10517 0.5223 0.0
C2268 C 0.76231 0.11507 0.53603 0.0
C2269 C 0.74099 0.10488 0.49532 0.0
C2270 C 0.76196 0.11449 0.48132 0.0
H2271 H 0.72567 0.09567 0.53237 0.0
H2272 H 0.72534 0.09527 0.48548 0.0
S2273 S 0.82005 0.14594 0.50818 0.0
N2274 N 0.80324 0.13738 0.53345 0.0
N2275 N 0.80293 0.13676 0.48319 0.0
C2276 C 0.78215 0.12625 0.49489 0.0
C2277 C 0.78231 0.12658 0.52211 0.0
C2278 C 0.91981 0.777 0.49282 0.0
C2279 C 0.90401 0.76177 0.47697 0.0
C2280 C 0.91688 0.77648 0.5195 0.0
C2281 C 0.89741 0.76156 0.53116 0.0
H2282 H 0.93575 0.7877 0.4848 0.0
H2283 H 0.93074 0.78679 0.53116 0.0
S2284 S 0.83942 0.74037 0.49609 0.0
N2285 N 0.86104 0.74443 0.47356 0.0
N2286 N 0.85417 0.74635 0.52346 0.0
C2287 C 0.87797 0.75215 0.51502 0.0
C2288 C 0.88157 0.75161 0.48787 0.0
C2289 C 0.22934 0.89211 0.49122 0.0
C2290 C 0.25052 0.90249 0.47819 0.0
C2291 C 0.22896 0.89055 0.51788 0.0
C2292 C 0.24976 0.89931 0.5327 0.0
H2293 H 0.21223 0.8866 0.48077 0.0
H2294 H 0.2116 0.88384 0.52705 0.0
S2295 S 0.31047 0.92673 0.50786 0.0
N2296 N 0.29343 0.92031 0.48197 0.0
N2297 N 0.29279 0.91735 0.53228 0.0
C2298 C 0.2718 0.90806 0.5199 0.0
C2299 C 0.27217 0.90967 0.49257 0.0
C2300 C 0.1299 0.77869 0.51781 0.0
C2301 C 0.11691 0.75902 0.5311 0.0
C2302 C 0.13025 0.77933 0.49107 0.0
C2303 C 0.11768 0.7603 0.47647 0.0
H2304 H 0.13836 0.79472 0.52819 0.0
H2305 H 0.13888 0.79586 0.48173 0.0
S2306 S 0.08163 0.70418 0.50182 0.0
N2307 N 0.09205 0.71943 0.52758 0.0
N2308 N 0.09275 0.72064 0.4772 0.0
C2309 C 0.10605 0.7396 0.48942 0.0
C2310 C 0.10568 0.73894 0.51678 0.0
C2311 C 0.23605 0.10133 0.48536 0.0
C2312 C 0.2502 0.12147 0.47381 0.0
C2313 C 0.23595 0.09797 0.51195 0.0
C2314 C 0.25084 0.11405 0.52782 0.0
H2315 H 0.22596 0.08737 0.47364 0.0
H2316 H 0.22578 0.08157 0.51989 0.0
S2317 S 0.26973 0.17997 0.50937 0.0
N2318 N 0.26402 0.16532 0.48186 0.0
N2319 N 0.26672 0.15777 0.53165 0.0
C2320 C 0.26015 0.13708 0.51714 0.0
C2321 C 0.2592 0.14107 0.49005 0.0
C2322 C 0.89721 0.22003 0.51839 0.0
C2323 C 0.90104 0.24192 0.53375 0.0
C2324 C 0.8979 0.22158 0.49175 0.0
C2325 C 0.90245 0.24508 0.47918 0.0
H2326 H 0.89474 0.20127 0.52702 0.0
H2327 H 0.89591 0.20395 0.48089 0.0
S2328 S 0.91204 0.30843 0.51031 0.0
N2329 N 0.90808 0.28822 0.53429 0.0
N2330 N 0.90935 0.29103 0.48404 0.0
C2331 C 0.90473 0.26741 0.49414 0.0
C2332 C 0.90404 0.26585 0.52146 0.0
C2333 C 0.74906 0.88104 0.48815 0.0
C2334 C 0.76336 0.90072 0.47622 0.0
C2335 C 0.74859 0.87864 0.51497 0.0
C2336 C 0.7619 0.89592 0.53083 0.0
H2337 H 0.73873 0.86705 0.4767 0.0
H2338 H 0.73896 0.86256 0.52338 0.0
S2339 S 0.80887 0.9452 0.50879 0.0
N2340 N 0.79632 0.93349 0.48225 0.0
N2341 N 0.7947 0.92946 0.53227 0.0
C2342 C 0.77885 0.91344 0.51895 0.0
C2343 C 0.77974 0.91566 0.49177 0.0
C2344 C 0.49605 0.08307 0.23546 0.0
C2345 C 0.48048 0.10315 0.24381 0.0
C2346 C 0.52261 0.08416 0.23879 0.0
C2347 C 0.53466 0.10519 0.2509 0.0
H2348 H 0.48766 0.06654 0.22586 0.0
H2349 H 0.5339 0.06856 0.23151 0.0
S2350 S 0.50305 0.16407 0.27347 0.0
N2351 N 0.47931 0.14539 0.26339 0.0
N2352 N 0.52935 0.14763 0.26905 0.0
C2353 C 0.51944 0.12554 0.25907 0.0
C2354 C 0.49231 0.12438 0.25586 0.0
C2355 C 0.88565 0.52037 0.259 0.0
C2356 C 0.90137 0.53874 0.24689 0.0
C2357 C 0.89041 0.49391 0.25667 0.0
C2358 C 0.91051 0.48492 0.24141 0.0
H2359 H 0.86971 0.5265 0.27045 0.0
H2360 H 0.87821 0.48046 0.26684 0.0
S2361 S 0.95495 0.52592 0.20314 0.0
N2362 N 0.9365 0.54645 0.21791 0.0
N2363 N 0.94467 0.49723 0.21209 0.0
C2364 C 0.92533 0.50338 0.22803 0.0
C2365 C 0.92084 0.53012 0.23099 0.0
C2366 C 0.5279 0.92435 0.25146 0.0
C2367 C 0.53816 0.90119 0.25978 0.0
C2368 C 0.50165 0.92684 0.24804 0.0
C2369 C 0.48489 0.90574 0.25093 0.0
H2370 H 0.54033 0.94064 0.24729 0.0
H2371 H 0.4946 0.94538 0.24271 0.0
S2372 S 0.50226 0.84087 0.27308 0.0
N2373 N 0.52969 0.85697 0.27219 0.0
N2374 N 0.48014 0.86124 0.26406 0.0
C2375 C 0.49474 0.88262 0.26011 0.0
C2376 C 0.52153 0.88034 0.26456 0.0
C2377 C 0.08389 0.5168 0.26659 0.0
C2378 C 0.10332 0.5343 0.27399 0.0
C2379 C 0.08819 0.49013 0.26525 0.0
C2380 C 0.11208 0.47966 0.27146 0.0
H2381 H 0.06556 0.5239 0.26047 0.0
H2382 H 0.07282 0.4776 0.25867 0.0
S2383 S 0.1703 0.51735 0.28836 0.0
N2384 N 0.14803 0.53924 0.28537 0.0
N2385 N 0.15605 0.48934 0.28286 0.0
C2386 C 0.1318 0.49694 0.27841 0.0
C2387 C 0.1274 0.52412 0.27978 0.0
C2388 C 0.49742 0.88501 0.75343 0.0
C2389 C 0.48071 0.90314 0.76367 0.0
C2390 C 0.52403 0.88772 0.7567 0.0
C2391 C 0.53473 0.90815 0.77109 0.0
H2392 H 0.48987 0.8685 0.74316 0.0
H2393 H 0.53624 0.87332 0.74852 0.0
S2394 S 0.49884 0.96009 0.80251 0.0
N2395 N 0.47662 0.94191 0.78888 0.0
N2396 N 0.52617 0.94657 0.79566 0.0
C2397 C 0.51804 0.92608 0.78166 0.0
C2398 C 0.49116 0.92356 0.77797 0.0
C2399 C 0.12392 0.49255 0.75138 0.0
C2400 C 0.11092 0.47467 0.76695 0.0
C2401 C 0.12201 0.51924 0.75562 0.0
C2402 C 0.10927 0.52879 0.77717 0.0
H2403 H 0.13554 0.48589 0.73582 0.0
H2404 H 0.13091 0.5324 0.74223 0.0
S2405 S 0.08084 0.48901 0.82921 0.0
N2406 N 0.08851 0.46824 0.80697 0.0
N2407 N 0.0901 0.51716 0.818 0.0
C2408 C 0.09974 0.51066 0.79492 0.0
C2409 C 0.09945 0.48395 0.78922 0.0
C2410 C 0.4914 0.10219 0.74524 0.0
C2411 C 0.47645 0.11389 0.76405 0.0
C2412 C 0.51822 0.10395 0.74623 0.0
C2413 C 0.53077 0.11753 0.76602 0.0
H2414 H 0.48244 0.09006 0.73088 0.0
H2415 H 0.52909 0.09288 0.73271 0.0
S2416 S 0.49968 0.15552 0.8168 0.0
N2417 N 0.47575 0.14211 0.80082 0.0
N2418 N 0.52586 0.14607 0.80239 0.0
C2419 C 0.51576 0.13131 0.78336 0.0
C2420 C 0.48866 0.12925 0.7825 0.0
C2421 C 0.9263 0.51835 0.77724 0.0
C2422 C 0.90716 0.53452 0.76788 0.0
C2423 C 0.92476 0.4916 0.77384 0.0
C2424 C 0.90413 0.47992 0.76083 0.0
H2425 H 0.94243 0.52639 0.78764 0.0
H2426 H 0.93964 0.47986 0.78187 0.0
S2427 S 0.84753 0.51315 0.73545 0.0
N2428 N 0.86619 0.53661 0.7463 0.0
N2429 N 0.86299 0.48628 0.74075 0.0
C2430 C 0.88469 0.49574 0.7517 0.0
C2431 C 0.88638 0.52305 0.75487 0.0
C2432 C 0.26205 0.51393 0.12589 0.0
C2433 C 0.25196 0.53075 0.10761 0.0
C2434 C 0.25869 0.48715 0.12344 0.0
C2435 C 0.24455 0.47659 0.103 0.0
H2436 H 0.27234 0.52153 0.14226 0.0
H2437 H 0.26665 0.47473 0.13786 0.0
S2438 S 0.21525 0.5129 0.04986 0.0
N2439 N 0.22787 0.53524 0.06852 0.0
N2440 N 0.22151 0.48522 0.06368 0.0
C2441 C 0.23451 0.49341 0.08468 0.0
C2442 C 0.23803 0.52043 0.08717 0.0
C2443 C 0.25993 0.5127 0.88373 0.0
C2444 C 0.2427 0.52816 0.89703 0.0
C2445 C 0.25717 0.48573 0.88348 0.0
C2446 C 0.23559 0.47356 0.89423 0.0
H2447 H 0.27578 0.52148 0.87377 0.0
H2448 H 0.27216 0.47443 0.87515 0.0
S2449 S 0.17841 0.50702 0.91879 0.0
N2450 N 0.20003 0.53 0.91485 0.0
N2451 N 0.1921 0.48049 0.9091 0.0
C2452 C 0.21561 0.48953 0.90234 0.0
C2453 C 0.21969 0.51653 0.90498 0.0
C2454 C 0.49349 0.22962 0.92925 0.0
C2455 C 0.4772 0.23495 0.90864 0.0
C2456 C 0.51974 0.23496 0.92788 0.0
C2457 C 0.53052 0.24629 0.90606 0.0
H2458 H 0.48593 0.22148 0.94666 0.0
H2459 H 0.53172 0.23018 0.944 0.0
S2460 S 0.49656 0.26162 0.84605 0.0
N2461 N 0.47387 0.25097 0.86532 0.0
N2462 N 0.52341 0.2606 0.8626 0.0
C2463 C 0.51456 0.25138 0.88518 0.0
C2464 C 0.48779 0.24601 0.88659 0.0
C2465 C 0.76602 0.51844 0.92358 0.0
C2466 C 0.76023 0.53349 0.90218 0.0
C2467 C 0.76355 0.49175 0.92284 0.0
C2468 C 0.7539 0.47932 0.90112 0.0
H2469 H 0.77286 0.5273 0.94098 0.0
H2470 H 0.76909 0.48074 0.93942 0.0
S2471 S 0.73593 0.50979 0.84 0.0
N2472 N 0.74472 0.5341 0.85852 0.0
N2473 N 0.73892 0.4836 0.85745 0.0
C2474 C 0.7473 0.49406 0.87975 0.0
C2475 C 0.75043 0.52133 0.88031 0.0
C2476 C 0.49364 0.75141 0.88552 0.0
C2477 C 0.47669 0.76004 0.90432 0.0
C2478 C 0.52015 0.75566 0.88806 0.0
C2479 C 0.53031 0.76896 0.90928 0.0
H2480 H 0.48633 0.74175 0.86865 0.0
H2481 H 0.53263 0.74929 0.87298 0.0
S2482 S 0.49337 0.79398 0.96413 0.0
N2483 N 0.47155 0.78195 0.94461 0.0
N2484 N 0.52089 0.78889 0.95003 0.0
C2485 C 0.51327 0.77711 0.92823 0.0
C2486 C 0.48654 0.77311 0.92548 0.0
C2487 C 0.78414 0.52255 0.08022 0.0
C2488 C 0.77832 0.53887 0.10068 0.0
C2489 C 0.78077 0.49588 0.08219 0.0
C2490 C 0.77089 0.48463 0.10446 0.0
H2491 H 0.79115 0.53043 0.06245 0.0
H2492 H 0.7857 0.48395 0.06605 0.0
S2493 S 0.75591 0.51863 0.16457 0.0
N2494 N 0.76409 0.54182 0.14456 0.0
N2495 N 0.75801 0.4915 0.14837 0.0
C2496 C 0.7656 0.50064 0.12532 0.0
C2497 C 0.76905 0.52785 0.12331 0.0
C2498 C 0.52614 0.7626 0.12338 0.0
C2499 C 0.5359 0.77626 0.10227 0.0
C2500 C 0.49986 0.75675 0.12547 0.0
C2501 C 0.4826 0.76381 0.1062 0.0
H2502 H 0.53881 0.7569 0.13864 0.0
H2503 H 0.49294 0.74709 0.14243 0.0
S2504 S 0.49861 0.79718 0.0459 0.0
N2505 N 0.5262 0.79451 0.06082 0.0
N2506 N 0.47709 0.78429 0.06514 0.0
C2507 C 0.49216 0.77703 0.08492 0.0
C2508 C 0.51876 0.78287 0.08274 0.0
C2509 C 0.52789 0.25052 0.08591 0.0
C2510 C 0.53946 0.26043 0.10803 0.0
C2511 C 0.50137 0.2478 0.08412 0.0
C2512 C 0.48548 0.25391 0.10473 0.0
H2513 H 0.53947 0.2447 0.0699 0.0
H2514 H 0.49334 0.24029 0.0666 0.0
S2515 S 0.50665 0.27844 0.16775 0.0
N2516 N 0.53335 0.27544 0.15142 0.0
N2517 N 0.48326 0.26968 0.14822 0.0
C2518 C 0.49678 0.26397 0.12697 0.0
C2519 C 0.52388 0.26712 0.12868 0.0
C2520 C 0.62554 0.80244 0.01627 0.0
C2521 C 0.60617 0.78976 0.03023 0.0
C2522 C 0.6251 0.8026 0.98928 0.0
C2523 C 0.60535 0.78995 0.97569 0.0
H2524 H 0.64235 0.80982 0.02605 0.0
H2525 H 0.64158 0.8101 0.97916 0.0
S2526 S 0.54858 0.75779 1.00353 0.0
N2527 N 0.56528 0.7676 0.02849 0.0
N2528 N 0.56475 0.76736 0.97826 0.0
C2529 C 0.58478 0.77973 0.98959 0.0
C2530 C 0.58511 0.77979 0.01676 0.0
C2531 C 0.28527 0.61726 0.99248 0.0
C2532 C 0.26366 0.60694 0.97992 0.0
C2533 C 0.28662 0.61856 0.01916 0.0
C2534 C 0.26639 0.60964 0.03449 0.0
H2535 H 0.30198 0.62289 0.98159 0.0
H2536 H 0.30431 0.62513 0.02791 0.0
S2537 S 0.20509 0.58179 0.01107 0.0
N2538 N 0.2211 0.58864 0.98477 0.0
N2539 N 0.22353 0.59117 0.03507 0.0
C2540 C 0.24396 0.60082 0.02219 0.0
C2541 C 0.24263 0.59943 0.99486 0.0
C2542 C 0.38884 0.21614 0.02348 0.0
C2543 C 0.40941 0.22841 0.03626 0.0
C2544 C 0.38739 0.21573 0.99646 0.0
C2545 C 0.40646 0.22762 0.9814 0.0
H2546 H 0.37266 0.20904 0.03433 0.0
H2547 H 0.37022 0.20819 0.98745 0.0
S2548 S 0.46595 0.25823 0.00575 0.0
N2549 N 0.45042 0.24972 0.03175 0.0
N2550 N 0.44798 0.24877 0.98147 0.0
C2551 C 0.4281 0.23763 0.99407 0.0
C2552 C 0.42951 0.23805 0.02133 0.0
C2553 C 0.76306 0.40812 0.0169 0.0
C2554 C 0.74144 0.40496 0.03252 0.0
C2555 C 0.76093 0.40712 0.99011 0.0
C2556 C 0.73711 0.40294 0.97813 0.0
H2557 H 0.78138 0.41309 0.02532 0.0
H2558 H 0.77769 0.41137 0.97875 0.0
S2559 S 0.6758 0.38851 0.01065 0.0
N2560 N 0.69629 0.39382 0.03412 0.0
N2561 N 0.6923 0.39196 0.98408 0.0
C2562 C 0.71586 0.39763 0.99366 0.0
C2563 C 0.71802 0.39864 0.02075 0.0
C2564 C 0.61532 0.29768 0.99109 0.0
C2565 C 0.61038 0.2742 0.97857 0.0
C2566 C 0.61764 0.29905 0.01767 0.0
C2567 C 0.61502 0.27702 0.03303 0.0
H2568 H 0.61636 0.31541 0.98033 0.0
H2569 H 0.62029 0.3178 0.02633 0.0
S2570 S 0.60394 0.21047 0.00955 0.0
N2571 N 0.60472 0.22808 0.98337 0.0
N2572 N 0.60891 0.23061 0.03348 0.0
C2573 C 0.61175 0.25312 0.02067 0.0
C2574 C 0.60946 0.25173 0.99343 0.0
C2575 C 0.77459 0.58715 0.01193 0.0
C2576 C 0.78528 0.60824 0.0252 0.0
C2577 C 0.77389 0.58649 0.98517 0.0
C2578 C 0.78419 0.60673 0.97055 0.0
H2579 H 0.7645 0.57215 0.02231 0.0
H2580 H 0.76319 0.57112 0.9759 0.0
S2581 S 0.81752 0.66467 0.99575 0.0
N2582 N 0.80845 0.6488 0.02153 0.0
N2583 N 0.80821 0.64692 0.97117 0.0
C2584 C 0.79747 0.62652 0.98345 0.0
C2585 C 0.79775 0.62746 0.01083 0.0
C2586 C 0.39411 0.71907 0.99444 0.0
C2587 C 0.40186 0.74062 0.98012 0.0
C2588 C 0.39468 0.7194 0.02116 0.0
C2589 C 0.40304 0.7413 0.03473 0.0
H2590 H 0.38886 0.70129 0.98488 0.0
H2591 H 0.38987 0.70186 0.03128 0.0
S2592 S 0.42471 0.80302 0.00635 0.0
N2593 N 0.41726 0.78484 0.98148 0.0
N2594 N 0.41838 0.78545 0.03185 0.0
C2595 C 0.40943 0.76351 0.02074 0.0
C2596 C 0.40883 0.76318 0.99338 0.0
C2597 C 0.27001 0.41195 0.01623 0.0
C2598 C 0.25539 0.39301 0.02901 0.0
C2599 C 0.27071 0.41293 0.98955 0.0
C2600 C 0.25595 0.39567 0.97483 0.0
H2601 H 0.27993 0.42689 0.02694 0.0
H2602 H 0.28133 0.42838 0.98053 0.0
S2603 S 0.23689 0.33151 0.9983 0.0
N2604 N 0.24184 0.34855 0.02458 0.0
N2605 N 0.24033 0.3517 0.97426 0.0
C2606 C 0.24642 0.37361 0.98712 0.0
C2607 C 0.24674 0.37201 0.01441 0.0
C2608 C 0.01577 0.62847 0.78865 0.0
C2609 C 0.02787 0.60541 0.78188 0.0
C2610 C 0.98896 0.63134 0.78602 0.0
C2611 C 0.97317 0.61119 0.77667 0.0
H2612 H 0.02725 0.64498 0.79438 0.0
H2613 H 0.98074 0.6498 0.79019 0.0
S2614 S 0.99534 0.54713 0.75647 0.0
N2615 N 0.0217 0.5623 0.76555 0.0
N2616 N 0.97197 0.5675 0.76071 0.0
C2617 C 0.98511 0.58806 0.77025 0.0
C2618 C 0.01215 0.58517 0.773 0.0
C2619 C 0.39118 0.98939 0.76079 0.0
C2620 C 0.41177 0.97957 0.74669 0.0
C2621 C 0.38712 0.01612 0.76265 0.0
C2622 C 0.40419 0.03399 0.75154 0.0
H2623 H 0.37767 0.97637 0.76981 0.0
H2624 H 0.37038 0.02281 0.77252 0.0
S2625 S 0.46068 0.01905 0.7124 0.0
N2626 N 0.44855 0.99081 0.72036 0.0
N2627 N 0.44202 0.04025 0.72585 0.0
C2628 C 0.42476 0.02452 0.73765 0.0
C2629 C 0.42839 0.99759 0.7349 0.0
C2630 C 0.01735 0.39035 0.72855 0.0
C2631 C 0.03131 0.40037 0.7493 0.0
C2632 C 0.99071 0.39006 0.72849 0.0
C2633 C 0.97694 0.39991 0.74915 0.0
H2634 H 0.02711 0.38421 0.7115 0.0
H2635 H 0.98081 0.38352 0.71143 0.0
S2636 S 1.00455 0.42702 0.80876 0.0
N2637 N 0.02963 0.41905 0.79166 0.0
N2638 N 0.97923 0.4186 0.79163 0.0
C2639 C 0.99061 0.40838 0.77082 0.0
C2640 C 0.01792 0.40863 0.77085 0.0
C2641 C 0.63036 0.99187 0.78159 0.0
C2642 C 0.6101 0.97571 0.77342 0.0
C2643 C 0.62732 0.01875 0.78391 0.0
C2644 C 0.60392 0.03049 0.77818 0.0
H2645 H 0.64894 0.98384 0.78519 0.0
H2646 H 0.64382 0.03057 0.78878 0.0
S2647 S 0.54545 0.99713 0.75511 0.0
N2648 N 0.56609 0.97381 0.75891 0.0
N2649 N 0.56061 0.02387 0.76335 0.0
C2650 C 0.58366 0.01451 0.77012 0.0
C2651 C 0.58673 0.98733 0.76757 0.0
C2652 C 0.99981 0.39028 0.2559 0.0
C2653 C 0.98343 0.40905 0.26551 0.0
C2654 C 0.02641 0.39231 0.25963 0.0
C2655 C 0.03742 0.41281 0.2737 0.0
H2656 H 0.99202 0.37391 0.24559 0.0
H2657 H 0.03837 0.37752 0.2518 0.0
S2658 S 1.0024 0.46615 0.30376 0.0
N2659 N 0.97998 0.44805 0.29034 0.0
N2660 N 0.02948 0.45194 0.29736 0.0
C2661 C 0.02103 0.43126 0.28381 0.0
C2662 C 0.99417 0.42923 0.2799 0.0
C2663 C 0.60756 0.01653 0.24642 0.0
C2664 C 0.61498 0.0316 0.26759 0.0
C2665 C 0.60819 0.98945 0.24746 0.0
C2666 C 0.61623 0.97669 0.26971 0.0
H2667 H 0.59951 0.02558 0.22972 0.0
H2668 H 0.60063 0.9785 0.23149 0.0
S2669 S 0.64186 0.0076 0.32842 0.0
N2670 N 0.63377 0.03183 0.30998 0.0
N2671 N 0.63495 0.98136 0.31194 0.0
C2672 C 0.62563 0.99169 0.29008 0.0
C2673 C 0.62501 0.01903 0.28902 0.0
C2674 C 0.01541 0.60469 0.24068 0.0
C2675 C 0.02844 0.62091 0.25808 0.0
C2676 C 0.98855 0.60274 0.2407 0.0
C2677 C 0.974 0.6171 0.25792 0.0
H2678 H 0.02599 0.59172 0.2287 0.0
H2679 H 0.97928 0.58852 0.22858 0.0
S2680 S 0.99855 0.66513 0.30434 0.0
N2681 N 0.02439 0.65384 0.29066 0.0
N2682 N 0.9742 0.64995 0.29067 0.0
C2683 C 0.98665 0.63487 0.27377 0.0
C2684 C 0.01381 0.63691 0.27377 0.0
C2685 C 0.42698 0.02598 0.24298 0.0
C2686 C 0.40447 0.03785 0.23461 0.0
C2687 C 0.43018 0.99923 0.24106 0.0
C2688 C 0.41097 0.98296 0.23089 0.0
H2689 H 0.4419 0.03742 0.25204 0.0
H2690 H 0.44721 0.99099 0.24919 0.0
S2691 S 0.34759 1.00388 0.20815 0.0
N2692 N 0.36213 0.0309 0.2169 0.0
N2693 N 0.36824 0.98077 0.21305 0.0
C2694 C 0.38854 0.99459 0.22204 0.0
C2695 C 0.3852 0.02191 0.22412 0.0
C2696 C 0.76172 0.01592 0.62681 0.0
C2697 C 0.74934 0.03244 0.60975 0.0
C2698 C 0.75908 0.98904 0.62439 0.0
C2699 C 0.74313 0.97801 0.60552 0.0
H2700 H 0.7734 0.0238 0.64209 0.0
H2701 H 0.76926 0.97686 0.63755 0.0
S2702 S 0.70582 0.01374 0.55739 0.0
N2703 N 0.72038 0.0363 0.57419 0.0
N2704 N 0.7146 0.98617 0.56997 0.0
C2705 C 0.73016 0.9946 0.589 0.0
C2706 C 0.73331 0.02171 0.59118 0.0
C2707 C 0.72778 0.02376 0.41206 0.0
C2708 C 0.74744 0.03629 0.39869 0.0
C2709 C 0.72449 0.99714 0.41081 0.0
C2710 C 0.74224 0.98149 0.3983 0.0
H2711 H 0.71456 0.03465 0.42345 0.0
H2712 H 0.70796 0.98895 0.42018 0.0
S2713 S 0.78727 1.0056 0.34933 0.0
N2714 N 0.77708 0.0319 0.36346 0.0
N2715 N 0.77397 0.98119 0.36471 0.0
C2716 C 0.75989 0.99393 0.38215 0.0
C2717 C 0.76188 0.02146 0.38173 0.0
C2718 C 1.00279 0.72541 0.41213 0.0
C2719 C 0.9861 0.74204 0.39933 0.0
C2720 C 0.02913 0.72934 0.4116 0.0
C2721 C 0.04009 0.74889 0.39678 0.0
H2722 H 0.99568 0.70923 0.42299 0.0
H2723 H 0.04104 0.71687 0.4229 0.0
S2724 S 1.00596 0.78759 0.34867 0.0
N2725 N 0.98297 0.7733 0.36513 0.0
N2726 N 0.03308 0.77833 0.36163 0.0
C2727 C 0.0241 0.76268 0.38036 0.0
C2728 C 0.99697 0.75972 0.38208 0.0
C2729 C 0.27942 0.02549 0.42027 0.0
C2730 C 0.26793 0.03954 0.40064 0.0
C2731 C 0.2779 0.99867 0.42069 0.0
C2732 C 0.26444 0.98515 0.40169 0.0
H2733 H 0.28927 0.03536 0.43562 0.0
H2734 H 0.2869 0.98846 0.43621 0.0
S2735 S 0.23512 0.01286 0.34373 0.0
N2736 N 0.24514 0.03808 0.36032 0.0
N2737 N 0.24261 0.98739 0.36079 0.0
C2738 C 0.25388 0.99889 0.38128 0.0
C2739 C 0.25537 0.02625 0.38093 0.0
C2740 C 0.0167 0.26594 0.37551 0.0
C2741 C 0.03081 0.27743 0.39545 0.0
C2742 C 0.99003 0.26301 0.37713 0.0
C2743 C 0.97679 0.27108 0.39894 0.0
H2744 H 0.02641 0.25861 0.35888 0.0
H2745 H 0.97973 0.25413 0.3614 0.0
S2746 S 1.00491 0.30117 0.45667 0.0
N2747 N 0.02959 0.29554 0.43811 0.0
N2748 N 0.97949 0.2915 0.44042 0.0
C2749 C 0.99059 0.28314 0.41862 0.0
C2750 C 0.01765 0.28573 0.41717 0.0
C2751 C 0.28459 0.0136 0.59188 0.0
C2752 C 0.26892 0.03079 0.60512 0.0
C2753 C 0.28095 0.98709 0.59351 0.0
C2754 C 0.26296 0.97623 0.61017 0.0
H2755 H 0.3003 0.02035 0.58037 0.0
H2756 H 0.29291 0.97491 0.58199 0.0
S2757 S 0.22724 0.01213 0.65916 0.0
N2758 N 0.23983 0.03477 0.64083 0.0
N2759 N 0.23608 0.98445 0.64683 0.0
C2760 C 0.25003 0.99287 0.62666 0.0
C2761 C 0.25238 0.02022 0.6236 0.0
C2762 C 0.98758 0.26756 0.5829 0.0
C2763 C 0.97806 0.25807 0.60597 0.0
C2764 C 0.01376 0.26845 0.57818 0.0
C2765 C 0.03165 0.26079 0.59672 0.0
H2766 H 0.97463 0.27411 0.56822 0.0
H2767 H 0.01994 0.27577 0.55991 0.0
S2768 S 0.01611 0.23788 0.66188 0.0
N2769 N 0.98802 0.24272 0.64848 0.0
N2770 N 0.03764 0.24498 0.63993 0.0
C2771 C 0.02229 0.25169 0.62021 0.0
C2772 C 0.9954 0.25046 0.62487 0.0
C2773 C 0.02075 0.7383 0.58593 0.0
C2774 C 0.03385 0.75142 0.60548 0.0
C2775 C 0.99407 0.73703 0.58547 0.0
C2776 C 0.97955 0.74852 0.60474 0.0
H2777 H 0.03124 0.7289 0.57089 0.0
H2778 H 0.98469 0.72686 0.56997 0.0
S2779 S 1.00479 0.78138 0.66233 0.0
N2780 N 0.03052 0.77351 0.64614 0.0
N2781 N 0.98013 0.77163 0.64492 0.0
C2782 C 0.99236 0.76127 0.62469 0.0
C2783 C 0.01962 0.76242 0.62525 0.0
loop_
_geom_bond_atom_site_label_1
_geom_bond_atom_site_label_2
_geom_bond_distance
_geom_bond_site_symmetry_2
_ccdc_geom_bond_type
Mn0 O5 2.095 . S
Mn0 O15 2.162 . S
Mn0 O16 2.297 . S
Mn0 O24 2.385 . S
Mn0 O25 2.209 . S
Mn0 O26 2.094 . S
Mn1 O6 2.121 . S
Mn1 N8 2.257 . S
Mn1 N17 2.282 . S
Mn1 O25 2.215 . S
Mn1 O27 2.117 . S
C2 O24 1.234 . S
C2 O25 1.283 . S
C3 O15 1.281 . S
C3 O16 1.236 . S
C4 O26 1.240 . S
C4 O27 1.264 . S
O5 Mn0 2.095 . S
O5 C14 1.250 . S
O6 Mn1 2.121 . S
O6 C14 1.258 . S
C7 N8 1.326 . S
C7 C11 1.460 . S
C7 H13 0.929 . S
N8 Mn1 2.257 . S
N8 C7 1.326 . S
N8 C12 1.362 . S
C9 C10 1.258 . S
C9 C12 1.431 . S
C9 C29 1.449 . S
C10 C9 1.258 . S
C10 C11 1.477 . S
C10 H30 0.931 . S
C11 C7 1.460 . S
C11 C10 1.477 . S
C11 H31 0.930 . S
C12 N8 1.362 . S
C12 C9 1.431 . S
C12 C22 1.476 . S
H13 C7 0.929 . S
C14 O5 1.250 . S
C14 O6 1.258 . S
O15 Mn0 2.162 . S
O15 C3 1.281 . S
O16 Mn0 2.297 . S
O16 C3 1.236 . S
N17 Mn1 2.282 . S
N17 C18 1.328 . S
N17 C22 1.318 . S
C18 N17 1.328 . S
C18 C19 1.457 . S
C18 H23 0.929 . S
C19 C18 1.457 . S
C19 C20 1.291 . S
C19 H32 0.931 . S
C20 C19 1.291 . S
C20 C21 1.373 . S
C20 H33 0.929 . S
C21 C20 1.373 . S
C21 C22 1.396 . S
C21 C28 1.403 . S
C22 C12 1.476 . S
C22 N17 1.318 . S
C22 C21 1.396 . S
H23 C18 0.929 . S
O24 Mn0 2.385 . S
O24 C2 1.234 . S
O25 Mn0 2.209 . S
O25 Mn1 2.215 . S
O25 C2 1.283 . S
O26 Mn0 2.094 . S
O26 C4 1.240 . S
O27 Mn1 2.117 . S
O27 C4 1.264 . S
C28 C21 1.403 . S
C28 C29 1.399 . S
C28 H34 0.929 . S
C29 C9 1.449 . S
C29 C28 1.399 . S
C29 H35 0.930 . S
H30 C10 0.931 . S
H31 C11 0.930 . S
H32 C19 0.931 . S
H33 C20 0.929 . S
H34 C28 0.929 . S
H35 C29 0.930 . S
Mn36 O41 2.095 . S
Mn36 O51 2.162 . S
Mn36 O52 2.297 . S
Mn36 O60 2.385 . S
Mn36 O61 2.209 . S
Mn36 O62 2.094 . S
Mn37 O42 2.121 . S
Mn37 N44 2.257 . S
Mn37 N53 2.282 . S
Mn37 O61 2.215 . S
Mn37 O63 2.117 . S
C38 O60 1.234 . S
C38 O61 1.283 . S
C39 O51 1.281 . S
C39 O52 1.236 . S
C40 O62 1.240 . S
C40 O63 1.264 . S
O41 Mn36 2.095 . S
O41 C50 1.250 . S
O42 Mn37 2.121 . S
O42 C50 1.258 . S
C43 N44 1.326 . S
C43 C47 1.460 . S
C43 H49 0.929 . S
N44 Mn37 2.257 . S
N44 C43 1.326 . S
N44 C48 1.362 . S
C45 C46 1.258 . S
C45 C48 1.431 . S
C45 C65 1.449 . S
C46 C45 1.258 . S
C46 C47 1.477 . S
C46 H66 0.931 . S
C47 C43 1.460 . S
C47 C46 1.477 . S
C47 H67 0.930 . S
C48 N44 1.362 . S
C48 C45 1.431 . S
C48 C58 1.476 . S
H49 C43 0.929 . S
C50 O41 1.250 . S
C50 O42 1.258 . S
O51 Mn36 2.162 . S
O51 C39 1.281 . S
O52 Mn36 2.297 . S
O52 C39 1.236 . S
N53 Mn37 2.282 . S
N53 C54 1.328 . S
N53 C58 1.318 . S
C54 N53 1.328 . S
C54 C55 1.457 . S
C54 H59 0.929 . S
C55 C54 1.457 . S
C55 C56 1.315 . S
C55 H68 0.931 . S
C56 C55 1.315 . S
C56 C57 1.384 . S
C56 H69 0.895 1_545 S
C57 C56 1.384 . S
C57 C58 1.396 . S
C57 C64 1.403 1_545 S
C58 C48 1.476 . S
C58 N53 1.318 . S
C58 C57 1.396 . S
H59 C54 0.929 . S
O60 Mn36 2.385 . S
O60 C38 1.234 . S
O61 Mn36 2.209 . S
O61 Mn37 2.215 . S
O61 C38 1.283 . S
O62 Mn36 2.094 . S
O62 C40 1.240 . S
O63 Mn37 2.117 . S
O63 C40 1.264 . S
C64 C57 1.403 1_565 S
C64 C65 1.399 1_565 S
C64 H70 0.929 . S
C65 C45 1.449 . S
C65 C64 1.399 1_545 S
C65 H71 0.930 1_545 S
H66 C46 0.931 . S
H67 C47 0.930 . S
H68 C55 0.931 . S
H69 C56 0.895 1_565 S
H70 C64 0.929 . S
H71 C65 0.930 1_565 S
Mn72 O77 2.095 . S
Mn72 O87 2.162 . S
Mn72 O88 2.297 . S
Mn72 O96 2.385 . S
Mn72 O97 2.209 . S
Mn72 O98 2.094 . S
Mn73 O78 2.121 . S
Mn73 N80 2.257 . S
Mn73 N89 2.282 . S
Mn73 O97 2.215 . S
Mn73 O99 2.117 . S
C74 O96 1.234 . S
C74 O97 1.283 . S
C75 O87 1.281 . S
C75 O88 1.236 . S
C76 O98 1.240 . S
C76 O99 1.264 . S
O77 Mn72 2.095 . S
O77 C86 1.250 . S
O78 Mn73 2.121 . S
O78 C86 1.258 . S
C79 N80 1.326 . S
C79 C83 1.460 . S
C79 H85 0.929 . S
N80 Mn73 2.257 . S
N80 C79 1.326 . S
N80 C84 1.362 . S
C81 C82 1.258 . S
C81 C84 1.431 . S
C81 C101 1.449 . S
C82 C81 1.258 . S
C82 C83 1.477 . S
C82 H102 0.931 . S
C83 C79 1.460 . S
C83 C82 1.477 . S
C83 H103 0.930 . S
C84 N80 1.362 . S
C84 C81 1.431 . S
C84 C94 1.476 . S
H85 C79 0.929 . S
C86 O77 1.250 . S
C86 O78 1.258 . S
O87 Mn72 2.162 . S
O87 C75 1.281 . S
O88 Mn72 2.297 . S
O88 C75 1.236 . S
N89 Mn73 2.282 . S
N89 C90 1.328 . S
N89 C94 1.318 . S
C90 N89 1.328 . S
C90 C91 1.457 . S
C90 H95 0.929 . S
C91 C90 1.457 . S
C91 C92 1.291 . S
C91 H104 0.931 . S
C92 C91 1.291 . S
C92 C93 1.373 . S
C92 H105 0.929 . S
C93 C92 1.373 . S
C93 C94 1.396 . S
C93 C100 1.403 . S
C94 C84 1.476 . S
C94 N89 1.318 . S
C94 C93 1.396 . S
H95 C90 0.929 . S
O96 Mn72 2.385 . S
O96 C74 1.234 . S
O97 Mn72 2.209 . S
O97 Mn73 2.215 . S
O97 C74 1.283 . S
O98 Mn72 2.094 . S
O98 C76 1.240 . S
O99 Mn73 2.117 . S
O99 C76 1.264 . S
C100 C93 1.403 . S
C100 C101 1.399 . S
C100 H106 0.929 . S
C101 C81 1.449 . S
C101 C100 1.399 . S
C101 H107 0.930 . S
H102 C82 0.931 . S
H103 C83 0.930 . S
H104 C91 0.931 . S
H105 C92 0.929 . S
H106 C100 0.929 . S
H107 C101 0.930 . S
Mn108 O113 2.095 . S
Mn108 O123 2.162 . S
Mn108 O124 2.297 . S
Mn108 O132 2.385 . S
Mn108 O133 2.209 . S
Mn108 O134 2.094 . S
Mn109 O114 2.121 . S
Mn109 N116 2.257 . S
Mn109 N125 2.282 . S
Mn109 O133 2.215 . S
Mn109 O135 2.117 . S
C110 O132 1.234 . S
C110 O133 1.283 . S
C111 O123 1.281 . S
C111 O124 1.236 . S
C112 O134 1.240 . S
C112 O135 1.264 . S
O113 Mn108 2.095 . S
O113 C122 1.250 . S
O114 Mn109 2.121 . S
O114 C122 1.258 . S
C115 N116 1.326 . S
C115 C119 1.460 . S
C115 H121 0.929 . S
N116 Mn109 2.257 . S
N116 C115 1.326 . S
N116 C120 1.362 . S
C117 C118 1.258 . S
C117 C120 1.431 . S
C117 C137 1.449 . S
C118 C117 1.258 . S
C118 C119 1.477 . S
C118 H138 0.931 . S
C119 C115 1.460 . S
C119 C118 1.477 . S
C119 H139 0.930 . S
C120 N116 1.362 . S
C120 C117 1.431 . S
C120 C130 1.476 . S
H121 C115 0.929 . S
C122 O113 1.250 . S
C122 O114 1.258 . S
O123 Mn108 2.162 . S
O123 C111 1.281 . S
O124 Mn108 2.297 . S
O124 C111 1.236 . S
N125 Mn109 2.282 . S
N125 C126 1.328 . S
N125 C130 1.318 . S
C126 N125 1.328 . S
C126 C127 1.457 . S
C126 H131 0.929 . S
C127 C126 1.457 . S
C127 C128 1.291 . S
C127 H140 0.931 . S
C128 C127 1.291 . S
C128 C129 1.373 . S
C128 H141 0.929 1_565 S
C129 C128 1.373 . S
C129 C130 1.396 . S
C129 C136 1.403 1_565 S
C130 C120 1.476 . S
C130 N125 1.318 . S
C130 C129 1.396 . S
H131 C126 0.929 . S
O132 Mn108 2.385 . S
O132 C110 1.234 . S
O133 Mn108 2.209 . S
O133 Mn109 2.215 . S
O133 C110 1.283 . S
O134 Mn108 2.094 . S
O134 C112 1.240 . S
O135 Mn109 2.117 . S
O135 C112 1.264 . S
C136 C129 1.403 1_545 S
C136 C137 1.399 1_545 S
C136 H142 0.929 . S
C137 C117 1.449 . S
C137 C136 1.399 1_565 S
C137 H143 0.930 1_565 S
H138 C118 0.931 . S
H139 C119 0.930 . S
H140 C127 0.931 . S
H141 C128 0.929 1_545 S
H142 C136 0.929 . S
H143 C137 0.930 1_545 S
Mn144 O149 2.095 . S
Mn144 O159 2.162 . S
Mn144 O160 2.297 . S
Mn144 O168 2.385 . S
Mn144 O169 2.209 . S
Mn144 O170 2.094 . S
Mn145 O150 2.121 . S
Mn145 N152 2.257 . S
Mn145 N161 2.282 . S
Mn145 O169 2.215 . S
Mn145 O171 2.117 . S
C146 O168 1.234 . S
C146 O169 1.283 . S
C147 O159 1.281 . S
C147 O160 1.236 . S
C148 O170 1.240 . S
C148 O171 1.264 . S
O149 Mn144 2.095 . S
O149 C158 1.250 . S
O150 Mn145 2.121 . S
O150 C158 1.258 . S
C151 N152 1.326 . S
C151 C155 1.460 . S
C151 H157 0.929 . S
N152 Mn145 2.257 . S
N152 C151 1.326 . S
N152 C156 1.362 . S
C153 C154 1.258 . S
C153 C156 1.431 . S
C153 C173 1.449 . S
C154 C153 1.258 . S
C154 C155 1.477 . S
C154 H174 0.931 . S
C155 C151 1.460 . S
C155 C154 1.477 . S
C155 H175 0.930 . S
C156 N152 1.362 . S
C156 C153 1.431 . S
C156 C166 1.476 . S
H157 C151 0.929 . S
C158 O149 1.250 . S
C158 O150 1.258 . S
O159 Mn144 2.162 . S
O159 C147 1.281 . S
O160 Mn144 2.297 . S
O160 C147 1.236 . S
N161 Mn145 2.282 . S
N161 C162 1.328 . S
N161 C166 1.318 . S
C162 N161 1.328 . S
C162 C163 1.457 . S
C162 H167 0.929 . S
C163 C162 1.457 . S
C163 C164 1.291 . S
C163 H176 0.931 . S
C164 C163 1.291 . S
C164 C165 1.373 . S
C164 H177 0.929 1_455 S
C165 C164 1.373 . S
C165 C166 1.396 . S
C165 C172 1.403 1_455 S
C166 C156 1.476 . S
C166 N161 1.318 . S
C166 C165 1.396 . S
H167 C162 0.929 . S
O168 Mn144 2.385 . S
O168 C146 1.234 . S
O169 Mn144 2.209 . S
O169 Mn145 2.215 . S
O169 C146 1.283 . S
O170 Mn144 2.094 . S
O170 C148 1.240 . S
O171 Mn145 2.117 . S
O171 C148 1.264 . S
C172 C165 1.403 1_655 S
C172 C173 1.399 1_655 S
C172 H178 0.929 . S
C173 C153 1.449 . S
C173 C172 1.399 1_455 S
C173 H179 0.930 1_455 S
H174 C154 0.931 . S
H175 C155 0.930 . S
H176 C163 0.931 . S
H177 C164 0.929 1_655 S
H178 C172 0.929 . S
H179 C173 0.930 1_655 S
Mn180 O185 2.095 . S
Mn180 O195 2.162 . S
Mn180 O196 2.297 . S
Mn180 O204 2.385 . S
Mn180 O205 2.209 . S
Mn180 O206 2.094 . S
Mn181 O186 2.121 . S
Mn181 N188 2.257 . S
Mn181 N197 2.282 . S
Mn181 O205 2.215 . S
Mn181 O207 2.117 . S
C182 O204 1.234 . S
C182 O205 1.283 . S
C183 O195 1.281 . S
C183 O196 1.236 . S
C184 O206 1.240 . S
C184 O207 1.264 . S
O185 Mn180 2.095 . S
O185 C194 1.250 . S
O186 Mn181 2.121 . S
O186 C194 1.258 . S
C187 N188 1.326 . S
C187 C191 1.460 . S
C187 H193 0.929 . S
N188 Mn181 2.257 . S
N188 C187 1.326 . S
N188 C192 1.362 . S
C189 C190 1.258 . S
C189 C192 1.431 . S
C189 C209 1.449 . S
C190 C189 1.258 . S
C190 C191 1.477 . S
C190 H210 0.931 . S
C191 C187 1.460 . S
C191 C190 1.477 . S
C191 H211 0.930 . S
C192 N188 1.362 . S
C192 C189 1.431 . S
C192 C202 1.476 . S
H193 C187 0.929 . S
C194 O185 1.250 . S
C194 O186 1.258 . S
O195 Mn180 2.162 . S
O195 C183 1.281 . S
O196 Mn180 2.297 . S
O196 C183 1.236 . S
N197 Mn181 2.282 . S
N197 C198 1.328 . S
N197 C202 1.318 . S
C198 N197 1.328 . S
C198 C199 1.457 . S
C198 H203 0.929 . S
C199 C198 1.457 . S
C199 C200 1.291 . S
C199 H212 0.931 . S
C200 C199 1.291 . S
C200 C201 1.373 . S
C200 H213 0.929 . S
C201 C200 1.373 . S
C201 C202 1.396 . S
C201 C208 1.403 . S
C202 C192 1.476 . S
C202 N197 1.318 . S
C202 C201 1.396 . S
H203 C198 0.929 . S
O204 Mn180 2.385 . S
O204 C182 1.234 . S
O205 Mn180 2.209 . S
O205 Mn181 2.215 . S
O205 C182 1.283 . S
O206 Mn180 2.094 . S
O206 C184 1.240 . S
O207 Mn181 2.117 . S
O207 C184 1.264 . S
C208 C201 1.403 . S
C208 C209 1.399 . S
C208 H214 0.929 . S
C209 C189 1.449 . S
C209 C208 1.399 . S
C209 H215 0.930 . S
H210 C190 0.931 . S
H211 C191 0.930 . S
H212 C199 0.931 . S
H213 C200 0.929 . S
H214 C208 0.929 . S
H215 C209 0.930 . S
Mn216 O221 2.095 . S
Mn216 O231 2.162 . S
Mn216 O232 2.297 . S
Mn216 O240 2.385 . S
Mn216 O241 2.209 . S
Mn216 O242 2.094 . S
Mn217 O222 2.121 . S
Mn217 N224 2.257 . S
Mn217 N233 2.282 . S
Mn217 O241 2.215 . S
Mn217 O243 2.117 . S
C218 O240 1.234 . S
C218 O241 1.283 . S
C219 O231 1.281 . S
C219 O232 1.236 . S
C220 O242 1.240 . S
C220 O243 1.264 . S
O221 Mn216 2.095 . S
O221 C230 1.250 . S
O222 Mn217 2.121 . S
O222 C230 1.258 . S
C223 N224 1.326 . S
C223 C227 1.460 . S
C223 H229 0.929 . S
N224 Mn217 2.257 . S
N224 C223 1.326 . S
N224 C228 1.362 . S
C225 C226 1.258 . S
C225 C228 1.431 . S
C225 C245 1.446 . S
C226 C225 1.258 . S
C226 C227 1.477 . S
C226 H246 0.931 . S
C227 C223 1.460 . S
C227 C226 1.477 . S
C227 H247 0.930 . S
C228 N224 1.362 . S
C228 C225 1.431 . S
C228 C238 1.476 . S
H229 C223 0.929 . S
C230 O221 1.250 . S
C230 O222 1.258 . S
O231 Mn216 2.162 . S
O231 C219 1.281 . S
O232 Mn216 2.297 . S
O232 C219 1.236 . S
N233 Mn217 2.282 . S
N233 C234 1.328 . S
N233 C238 1.318 . S
C234 N233 1.328 . S
C234 C235 1.457 . S
C234 H239 0.929 . S
C235 C234 1.457 . S
C235 C236 1.291 . S
C235 H248 0.931 . S
C236 C235 1.291 . S
C236 C237 1.373 . S
C236 H249 0.929 1_655 S
C237 C236 1.373 . S
C237 C238 1.396 . S
C237 C244 1.403 1_655 S
C238 C228 1.476 . S
C238 N233 1.318 . S
C238 C237 1.396 . S
H239 C234 0.929 . S
O240 Mn216 2.385 . S
O240 C218 1.234 . S
O241 Mn216 2.209 . S
O241 Mn217 2.215 . S
O241 C218 1.283 . S
O242 Mn216 2.094 . S
O242 C220 1.240 . S
O243 Mn217 2.117 . S
O243 C220 1.264 . S
C244 C237 1.403 1_455 S
C244 C245 1.400 1_455 S
C244 H250 0.929 . S
C245 C225 1.446 . S
C245 C244 1.400 1_655 S
C245 H251 0.932 1_655 S
H246 C226 0.931 . S
H247 C227 0.930 . S
H248 C235 0.931 . S
H249 C236 0.929 1_455 S
H250 C244 0.929 . S
H251 C245 0.932 1_455 S
Mn252 O257 2.095 . S
Mn252 O267 2.162 . S
Mn252 O268 2.297 . S
Mn252 O276 2.385 . S
Mn252 O277 2.209 . S
Mn252 O278 2.094 . S
Mn253 O258 2.121 . S
Mn253 N260 2.257 . S
Mn253 N269 2.282 . S
Mn253 O277 2.215 . S
Mn253 O279 2.117 . S
C254 O276 1.234 . S
C254 O277 1.283 . S
C255 O267 1.281 . S
C255 O268 1.236 . S
C256 O278 1.240 . S
C256 O279 1.264 . S
O257 Mn252 2.095 . S
O257 C266 1.250 . S
O258 Mn253 2.121 . S
O258 C266 1.258 . S
C259 N260 1.326 . S
C259 C263 1.460 . S
C259 H265 0.929 . S
N260 Mn253 2.257 . S
N260 C259 1.326 . S
N260 C264 1.362 . S
C261 C262 1.258 . S
C261 C264 1.431 . S
C261 C281 1.449 . S
C262 C261 1.258 . S
C262 C263 1.477 . S
C262 H282 0.931 . S
C263 C259 1.460 . S
C263 C262 1.477 . S
C263 H283 0.930 . S
C264 N260 1.362 . S
C264 C261 1.431 . S
C264 C274 1.476 . S
H265 C259 0.929 . S
C266 O257 1.250 . S
C266 O258 1.258 . S
O267 Mn252 2.162 . S
O267 C255 1.281 . S
O268 Mn252 2.297 . S
O268 C255 1.236 . S
N269 Mn253 2.282 . S
N269 C270 1.328 . S
N269 C274 1.318 . S
C270 N269 1.328 . S
C270 C271 1.457 . S
C270 H275 0.929 . S
C271 C270 1.457 . S
C271 C272 1.291 . S
C271 H284 0.931 . S
C272 C271 1.291 . S
C272 C273 1.373 . S
C272 H285 0.929 . S
C273 C272 1.373 . S
C273 C274 1.396 . S
C273 C280 1.403 . S
C274 C264 1.476 . S
C274 N269 1.318 . S
C274 C273 1.396 . S
H275 C270 0.929 . S
O276 Mn252 2.385 . S
O276 C254 1.234 . S
O277 Mn252 2.209 . S
O277 Mn253 2.215 . S
O277 C254 1.283 . S
O278 Mn252 2.094 . S
O278 C256 1.240 . S
O279 Mn253 2.117 . S
O279 C256 1.264 . S
C280 C273 1.403 . S
C280 C281 1.399 . S
C280 H286 0.929 . S
C281 C261 1.449 . S
C281 C280 1.399 . S
C281 H287 0.930 . S
H282 C262 0.931 . S
H283 C263 0.930 . S
H284 C271 0.931 . S
H285 C272 0.929 . S
H286 C280 0.929 . S
H287 C281 0.930 . S
Mn288 O293 2.095 . S
Mn288 O303 2.162 . S
Mn288 O304 2.297 . S
Mn288 O312 2.385 . S
Mn288 O313 2.209 . S
Mn288 O314 2.094 . S
Mn289 O294 2.121 . S
Mn289 N296 2.257 . S
Mn289 N305 2.282 . S
Mn289 O313 2.215 . S
Mn289 O315 2.117 . S
C290 O312 1.234 . S
C290 O313 1.283 . S
C291 O303 1.281 . S
C291 O304 1.236 . S
C292 O314 1.240 . S
C292 O315 1.264 . S
O293 Mn288 2.095 . S
O293 C302 1.250 . S
O294 Mn289 2.121 . S
O294 C302 1.258 . S
C295 N296 1.326 . S
C295 C299 1.460 . S
C295 H301 0.929 . S
N296 Mn289 2.257 . S
N296 C295 1.326 . S
N296 C300 1.362 . S
C297 C298 1.258 . S
C297 C300 1.431 . S
C297 C317 1.449 1_545 S
C298 C297 1.258 . S
C298 C299 1.477 . S
C298 H318 0.931 . S
C299 C295 1.460 . S
C299 C298 1.477 . S
C299 H319 0.930 . S
C300 N296 1.362 . S
C300 C297 1.431 . S
C300 C310 1.476 . S
H301 C295 0.929 . S
C302 O293 1.250 . S
C302 O294 1.258 . S
O303 Mn288 2.162 . S
O303 C291 1.281 . S
O304 Mn288 2.297 . S
O304 C291 1.236 . S
N305 Mn289 2.282 . S
N305 C306 1.328 . S
N305 C310 1.318 . S
C306 N305 1.328 . S
C306 C307 1.457 . S
C306 H311 0.929 . S
C307 C306 1.457 . S
C307 C308 1.291 1_545 S
C307 H320 0.931 . S
C308 C307 1.291 1_565 S
C308 C309 1.373 1_565 S
C308 H321 0.929 . S
C309 C308 1.373 1_545 S
C309 C310 1.396 . S
C309 C316 1.403 1_545 S
C310 C300 1.476 . S
C310 N305 1.318 . S
C310 C309 1.396 . S
H311 C306 0.929 . S
O312 Mn288 2.385 . S
O312 C290 1.234 . S
O313 Mn288 2.209 . S
O313 Mn289 2.215 . S
O313 C290 1.283 . S
O314 Mn288 2.094 . S
O314 C292 1.240 . S
O315 Mn289 2.117 . S
O315 C292 1.264 . S
C316 C309 1.403 1_565 S
C316 C317 1.399 . S
C316 H322 0.929 . S
C317 C297 1.449 1_565 S
C317 C316 1.399 . S
C317 H323 0.930 . S
H318 C298 0.931 . S
H319 C299 0.930 . S
H320 C307 0.931 . S
H321 C308 0.929 . S
H322 C316 0.929 . S
H323 C317 0.930 . S
Mn324 O329 2.095 . S
Mn324 O339 2.162 . S
Mn324 O340 2.297 . S
Mn324 O348 2.385 . S
Mn324 O349 2.209 . S
Mn324 O350 2.094 . S
Mn325 O330 2.121 . S
Mn325 N332 2.257 . S
Mn325 N341 2.282 . S
Mn325 O349 2.215 . S
Mn325 O351 2.117 . S
C326 O348 1.234 . S
C326 O349 1.283 . S
C327 O339 1.281 . S
C327 O340 1.236 . S
C328 O350 1.240 . S
C328 O351 1.264 . S
O329 Mn324 2.095 . S
O329 C338 1.250 . S
O330 Mn325 2.121 . S
O330 C338 1.258 . S
C331 N332 1.326 . S
C331 C335 1.460 . S
C331 H337 0.929 . S
N332 Mn325 2.257 . S
N332 C331 1.326 . S
N332 C336 1.362 . S
C333 C334 1.258 . S
C333 C336 1.431 . S
C333 C353 1.449 . S
C334 C333 1.258 . S
C334 C335 1.477 . S
C334 H354 0.931 . S
C335 C331 1.460 . S
C335 C334 1.477 . S
C335 H355 0.930 . S
C336 N332 1.362 . S
C336 C333 1.431 . S
C336 C346 1.476 . S
H337 C331 0.929 . S
C338 O329 1.250 . S
C338 O330 1.258 . S
O339 Mn324 2.162 . S
O339 C327 1.281 . S
O340 Mn324 2.297 . S
O340 C327 1.236 . S
N341 Mn325 2.282 . S
N341 C342 1.328 . S
N341 C346 1.318 . S
C342 N341 1.328 . S
C342 C343 1.457 . S
C342 H347 0.929 . S
C343 C342 1.457 . S
C343 C344 1.291 . S
C343 H356 0.931 . S
C344 C343 1.291 . S
C344 C345 1.373 . S
C344 H357 0.929 1_655 S
C345 C344 1.373 . S
C345 C346 1.396 . S
C345 C352 1.403 1_655 S
C346 C336 1.476 . S
C346 N341 1.318 . S
C346 C345 1.396 . S
H347 C342 0.929 . S
O348 Mn324 2.385 . S
O348 C326 1.234 . S
O349 Mn324 2.209 . S
O349 Mn325 2.215 . S
O349 C326 1.283 . S
O350 Mn324 2.094 . S
O350 C328 1.240 . S
O351 Mn325 2.117 . S
O351 C328 1.264 . S
C352 C345 1.403 1_455 S
C352 C353 1.399 1_455 S
C352 H358 0.929 . S
C353 C333 1.449 . S
C353 C352 1.399 1_655 S
C353 H359 0.930 1_655 S
H354 C334 0.931 . S
H355 C335 0.930 . S
H356 C343 0.931 . S
H357 C344 0.929 1_455 S
H358 C352 0.929 . S
H359 C353 0.930 1_455 S
Mn360 O365 2.095 . S
Mn360 O375 2.162 . S
Mn360 O376 2.297 . S
Mn360 O384 2.385 . S
Mn360 O385 2.209 . S
Mn360 O386 2.094 . S
Mn361 O366 2.121 . S
Mn361 N368 2.257 . S
Mn361 N377 2.282 . S
Mn361 O385 2.215 . S
Mn361 O387 2.117 . S
C362 O384 1.234 . S
C362 O385 1.283 . S
C363 O375 1.281 . S
C363 O376 1.236 . S
C364 O386 1.240 . S
C364 O387 1.264 . S
O365 Mn360 2.095 . S
O365 C374 1.250 . S
O366 Mn361 2.121 . S
O366 C374 1.258 . S
C367 N368 1.326 . S
C367 C371 1.460 . S
C367 H373 0.929 . S
N368 Mn361 2.257 . S
N368 C367 1.326 . S
N368 C372 1.362 . S
C369 C370 1.258 . S
C369 C372 1.431 . S
C369 C389 1.449 . S
C370 C369 1.258 . S
C370 C371 1.477 . S
C370 H390 0.931 . S
C371 C367 1.460 . S
C371 C370 1.477 . S
C371 H391 0.930 . S
C372 N368 1.362 . S
C372 C369 1.431 . S
C372 C382 1.476 . S
H373 C367 0.929 . S
C374 O365 1.250 . S
C374 O366 1.258 . S
O375 Mn360 2.162 . S
O375 C363 1.281 . S
O376 Mn360 2.297 . S
O376 C363 1.236 . S
N377 Mn361 2.282 . S
N377 C378 1.328 . S
N377 C382 1.318 . S
C378 N377 1.328 . S
C378 C379 1.457 . S
C378 H383 0.929 . S
C379 C378 1.457 . S
C379 C380 1.291 . S
C379 H392 0.931 . S
C380 C379 1.291 . S
C380 C381 1.373 . S
C380 H393 0.929 . S
C381 C380 1.373 . S
C381 C382 1.396 . S
C381 C388 1.403 . S
C382 C372 1.476 . S
C382 N377 1.318 . S
C382 C381 1.396 . S
H383 C378 0.929 . S
O384 Mn360 2.385 . S
O384 C362 1.234 . S
O385 Mn360 2.209 . S
O385 Mn361 2.215 . S
O385 C362 1.283 . S
O386 Mn360 2.094 . S
O386 C364 1.240 . S
O387 Mn361 2.117 . S
O387 C364 1.264 . S
C388 C381 1.403 . S
C388 C389 1.399 . S
C388 H394 0.929 . S
C389 C369 1.449 . S
C389 C388 1.399 . S
C389 H395 0.930 . S
H390 C370 0.931 . S
H391 C371 0.930 . S
H392 C379 0.931 . S
H393 C380 0.929 . S
H394 C388 0.929 . S
H395 C389 0.930 . S
Mn396 O401 2.095 . S
Mn396 O411 2.162 . S
Mn396 O412 2.297 . S
Mn396 O420 2.385 . S
Mn396 O421 2.209 . S
Mn396 O422 2.094 . S
Mn397 O402 2.121 . S
Mn397 N404 2.257 . S
Mn397 N413 2.282 . S
Mn397 O421 2.215 . S
Mn397 O423 2.117 . S
C398 O420 1.234 . S
C398 O421 1.283 . S
C399 O411 1.281 . S
C399 O412 1.236 . S
C400 O422 1.240 . S
C400 O423 1.264 . S
O401 Mn396 2.095 . S
O401 C410 1.250 . S
O402 Mn397 2.121 . S
O402 C410 1.258 . S
C403 N404 1.326 . S
C403 C407 1.460 . S
C403 H409 0.929 . S
N404 Mn397 2.257 . S
N404 C403 1.326 . S
N404 C408 1.362 . S
C405 C406 1.258 . S
C405 C408 1.431 . S
C405 C425 1.449 . S
C406 C405 1.258 . S
C406 C407 1.477 . S
C406 H426 0.931 . S
C407 C403 1.460 . S
C407 C406 1.477 . S
C407 H427 0.930 . S
C408 N404 1.362 . S
C408 C405 1.431 . S
C408 C418 1.476 . S
H409 C403 0.929 . S
C410 O401 1.250 . S
C410 O402 1.258 . S
O411 Mn396 2.162 . S
O411 C399 1.281 . S
O412 Mn396 2.297 . S
O412 C399 1.236 . S
N413 Mn397 2.282 . S
N413 C414 1.328 . S
N413 C418 1.318 . S
C414 N413 1.328 . S
C414 C415 1.457 . S
C414 H419 0.929 . S
C415 C414 1.457 . S
C415 C416 1.291 . S
C415 H428 0.931 . S
C416 C415 1.291 . S
C416 C417 1.373 . S
C416 H429 0.929 . S
C417 C416 1.373 . S
C417 C418 1.396 . S
C417 C424 1.403 . S
C418 C408 1.476 . S
C418 N413 1.318 . S
C418 C417 1.396 . S
H419 C414 0.929 . S
O420 Mn396 2.385 . S
O420 C398 1.234 . S
O421 Mn396 2.209 . S
O421 Mn397 2.215 . S
O421 C398 1.283 . S
O422 Mn396 2.094 . S
O422 C400 1.240 . S
O423 Mn397 2.117 . S
O423 C400 1.264 . S
C424 C417 1.403 . S
C424 C425 1.399 . S
C424 H430 0.929 . S
C425 C405 1.449 . S
C425 C424 1.399 . S
C425 H431 0.930 . S
H426 C406 0.931 . S
H427 C407 0.930 . S
H428 C415 0.931 . S
H429 C416 0.929 . S
H430 C424 0.929 . S
H431 C425 0.930 . S
Mn432 O437 2.095 . S
Mn432 O447 2.162 . S
Mn432 O448 2.297 . S
Mn432 O456 2.385 . S
Mn432 O457 2.209 . S
Mn432 O458 2.094 . S
Mn433 O438 2.121 . S
Mn433 N440 2.257 . S
Mn433 N449 2.282 . S
Mn433 O457 2.215 . S
Mn433 O459 2.117 . S
C434 O456 1.234 . S
C434 O457 1.283 . S
C435 O447 1.281 . S
C435 O448 1.236 . S
C436 O458 1.240 . S
C436 O459 1.264 . S
O437 Mn432 2.095 . S
O437 C446 1.250 . S
O438 Mn433 2.121 . S
O438 C446 1.258 . S
C439 N440 1.326 . S
C439 C443 1.460 . S
C439 H445 0.929 . S
N440 Mn433 2.257 . S
N440 C439 1.326 . S
N440 C444 1.362 . S
C441 C442 1.258 . S
C441 C444 1.431 . S
C441 C461 1.449 . S
C442 C441 1.258 . S
C442 C443 1.477 . S
C442 H462 0.931 . S
C443 C439 1.460 . S
C443 C442 1.477 . S
C443 H463 0.930 . S
C444 N440 1.362 . S
C444 C441 1.431 . S
C444 C454 1.476 . S
H445 C439 0.929 . S
C446 O437 1.250 . S
C446 O438 1.258 . S
O447 Mn432 2.162 . S
O447 C435 1.281 . S
O448 Mn432 2.297 . S
O448 C435 1.236 . S
N449 Mn433 2.282 . S
N449 C450 1.328 . S
N449 C454 1.318 . S
C450 N449 1.328 . S
C450 C451 1.457 . S
C450 H455 0.929 . S
C451 C450 1.457 . S
C451 C452 1.291 . S
C451 H464 0.931 . S
C452 C451 1.291 . S
C452 C453 1.373 . S
C452 H465 0.929 . S
C453 C452 1.373 . S
C453 C454 1.396 . S
C453 C460 1.403 . S
C454 C444 1.476 . S
C454 N449 1.318 . S
C454 C453 1.396 . S
H455 C450 0.929 . S
O456 Mn432 2.385 . S
O456 C434 1.234 . S
O457 Mn432 2.209 . S
O457 Mn433 2.215 . S
O457 C434 1.283 . S
O458 Mn432 2.094 . S
O458 C436 1.240 . S
O459 Mn433 2.117 . S
O459 C436 1.264 . S
C460 C453 1.403 . S
C460 C461 1.399 . S
C460 H466 0.929 . S
C461 C441 1.449 . S
C461 C460 1.399 . S
C461 H467 0.930 . S
H462 C442 0.931 . S
H463 C443 0.930 . S
H464 C451 0.931 . S
H465 C452 0.929 . S
H466 C460 0.929 . S
H467 C461 0.930 . S
Mn468 O473 2.095 . S
Mn468 O483 2.162 . S
Mn468 O484 2.297 . S
Mn468 O492 2.385 . S
Mn468 O493 2.209 . S
Mn468 O494 2.094 . S
Mn469 O474 2.121 . S
Mn469 N476 2.257 . S
Mn469 N485 2.282 . S
Mn469 O493 2.215 . S
Mn469 O495 2.117 . S
C470 O492 1.234 . S
C470 O493 1.283 . S
C471 O483 1.281 . S
C471 O484 1.236 . S
C472 O494 1.240 . S
C472 O495 1.264 . S
O473 Mn468 2.095 . S
O473 C482 1.250 . S
O474 Mn469 2.121 . S
O474 C482 1.258 . S
C475 N476 1.326 . S
C475 C479 1.460 . S
C475 H481 0.929 . S
N476 Mn469 2.257 . S
N476 C475 1.326 . S
N476 C480 1.362 . S
C477 C478 1.258 . S
C477 C480 1.431 . S
C477 C497 1.449 . S
C478 C477 1.258 . S
C478 C479 1.477 . S
C478 H498 0.931 . S
C479 C475 1.460 . S
C479 C478 1.477 . S
C479 H499 0.930 . S
C480 N476 1.362 . S
C480 C477 1.431 . S
C480 C490 1.476 . S
H481 C475 0.929 . S
C482 O473 1.250 . S
C482 O474 1.258 . S
O483 Mn468 2.162 . S
O483 C471 1.281 . S
O484 Mn468 2.297 . S
O484 C471 1.236 . S
N485 Mn469 2.282 . S
N485 C486 1.328 . S
N485 C490 1.318 . S
C486 N485 1.328 . S
C486 C487 1.457 . S
C486 H491 0.929 . S
C487 C486 1.457 . S
C487 C488 1.291 . S
C487 H500 0.931 . S
C488 C487 1.291 . S
C488 C489 1.373 . S
C488 H501 0.929 . S
C489 C488 1.373 . S
C489 C490 1.396 . S
C489 C496 1.403 . S
C490 C480 1.476 . S
C490 N485 1.318 . S
C490 C489 1.396 . S
H491 C486 0.929 . S
O492 Mn468 2.385 . S
O492 C470 1.234 . S
O493 Mn468 2.209 . S
O493 Mn469 2.215 . S
O493 C470 1.283 . S
O494 Mn468 2.094 . S
O494 C472 1.240 . S
O495 Mn469 2.117 . S
O495 C472 1.264 . S
C496 C489 1.403 . S
C496 C497 1.399 . S
C496 H502 0.929 . S
C497 C477 1.449 . S
C497 C496 1.399 . S
C497 H503 0.930 . S
H498 C478 0.931 . S
H499 C479 0.930 . S
H500 C487 0.931 . S
H501 C488 0.929 . S
H502 C496 0.929 . S
H503 C497 0.930 . S
Mn504 O509 2.095 . S
Mn504 O519 2.162 . S
Mn504 O520 2.297 . S
Mn504 O528 2.385 . S
Mn504 O529 2.209 . S
Mn504 O530 2.094 . S
Mn505 O510 2.121 . S
Mn505 N512 2.257 . S
Mn505 N521 2.282 . S
Mn505 O529 2.215 . S
Mn505 O531 2.117 . S
C506 O528 1.234 . S
C506 O529 1.283 . S
C507 O519 1.281 . S
C507 O520 1.236 . S
C508 O530 1.240 . S
C508 O531 1.264 . S
O509 Mn504 2.095 . S
O509 C518 1.250 . S
O510 Mn505 2.121 . S
O510 C518 1.258 . S
C511 N512 1.326 . S
C511 C515 1.460 . S
C511 H517 0.929 . S
N512 Mn505 2.257 . S
N512 C511 1.326 . S
N512 C516 1.362 . S
C513 C514 1.258 . S
C513 C516 1.431 . S
C513 C533 1.449 1_545 S
C514 C513 1.258 . S
C514 C515 1.477 . S
C514 H534 0.931 . S
C515 C511 1.460 . S
C515 C514 1.477 . S
C515 H535 0.930 . S
C516 N512 1.362 . S
C516 C513 1.431 . S
C516 C526 1.476 . S
H517 C511 0.929 . S
C518 O509 1.250 . S
C518 O510 1.258 . S
O519 Mn504 2.162 . S
O519 C507 1.281 . S
O520 Mn504 2.297 . S
O520 C507 1.236 . S
N521 Mn505 2.282 . S
N521 C522 1.328 . S
N521 C526 1.318 . S
C522 N521 1.328 . S
C522 C523 1.457 . S
C522 H527 0.929 . S
C523 C522 1.457 . S
C523 C524 1.291 1_545 S
C523 H536 0.931 . S
C524 C523 1.291 1_565 S
C524 C525 1.373 1_565 S
C524 H537 0.929 . S
C525 C524 1.373 1_545 S
C525 C526 1.396 . S
C525 C532 1.403 1_545 S
C526 C516 1.476 . S
C526 N521 1.318 . S
C526 C525 1.396 . S
H527 C522 0.929 . S
O528 Mn504 2.385 . S
O528 C506 1.234 . S
O529 Mn504 2.209 . S
O529 Mn505 2.215 . S
O529 C506 1.283 . S
O530 Mn504 2.094 . S
O530 C508 1.240 . S
O531 Mn505 2.117 . S
O531 C508 1.264 . S
C532 C525 1.403 1_565 S
C532 C533 1.399 . S
C532 H538 0.929 . S
C533 C513 1.449 1_565 S
C533 C532 1.399 . S
C533 H539 0.930 . S
H534 C514 0.931 . S
H535 C515 0.930 . S
H536 C523 0.931 . S
H537 C524 0.929 . S
H538 C532 0.929 . S
H539 C533 0.930 . S
Mn540 O545 2.095 . S
Mn540 O555 2.162 . S
Mn540 O556 2.297 . S
Mn540 O564 2.385 . S
Mn540 O565 2.209 . S
Mn540 O566 2.094 . S
Mn541 O546 2.121 . S
Mn541 N548 2.257 . S
Mn541 N557 2.282 . S
Mn541 O565 2.215 . S
Mn541 O567 2.117 . S
C542 O564 1.234 . S
C542 O565 1.283 . S
C543 O555 1.281 . S
C543 O556 1.236 . S
C544 O566 1.240 . S
C544 O567 1.264 . S
O545 Mn540 2.095 . S
O545 C554 1.250 . S
O546 Mn541 2.121 . S
O546 C554 1.258 . S
C547 N548 1.326 . S
C547 C551 1.460 . S
C547 H553 0.929 . S
N548 Mn541 2.257 . S
N548 C547 1.326 . S
N548 C552 1.362 . S
C549 C550 1.258 . S
C549 C552 1.431 . S
C549 C569 1.410 1_655 S
C550 C549 1.258 . S
C550 C551 1.477 . S
C550 H570 0.931 . S
C551 C547 1.460 . S
C551 C550 1.477 . S
C551 H571 0.930 . S
C552 N548 1.362 . S
C552 C549 1.431 . S
C552 C562 1.476 . S
H553 C547 0.929 . S
C554 O545 1.250 . S
C554 O546 1.258 . S
O555 Mn540 2.162 . S
O555 C543 1.281 . S
O556 Mn540 2.297 . S
O556 C543 1.236 . S
N557 Mn541 2.282 . S
N557 C558 1.328 . S
N557 C562 1.318 . S
C558 N557 1.328 . S
C558 C559 1.457 . S
C558 H563 0.929 . S
C559 C558 1.457 . S
C559 C560 1.291 1_655 S
C559 H572 0.931 . S
C560 C559 1.291 1_455 S
C560 C561 1.373 1_455 S
C560 H573 0.929 . S
C561 C560 1.373 1_655 S
C561 C562 1.396 . S
C561 C568 1.403 1_655 S
C562 C552 1.476 . S
C562 N557 1.318 . S
C562 C561 1.396 . S
H563 C558 0.929 . S
O564 Mn540 2.385 . S
O564 C542 1.234 . S
O565 Mn540 2.209 . S
O565 Mn541 2.215 . S
O565 C542 1.283 . S
O566 Mn540 2.094 . S
O566 C544 1.240 . S
O567 Mn541 2.117 . S
O567 C544 1.264 . S
C568 C561 1.403 1_455 S
C568 C569 1.414 . S
C568 H574 0.929 . S
C569 C549 1.410 1_455 S
C569 C568 1.414 . S
C569 H575 0.956 . S
H570 C550 0.931 . S
H571 C551 0.930 . S
H572 C559 0.931 . S
H573 C560 0.929 . S
H574 C568 0.929 . S
H575 C569 0.956 . S
Mn576 O581 2.095 . S
Mn576 O591 2.162 . S
Mn576 O592 2.297 . S
Mn576 O600 2.385 . S
Mn576 O601 2.209 . S
Mn576 O602 2.094 . S
Mn577 O582 2.121 . S
Mn577 N584 2.257 . S
Mn577 N593 2.282 . S
Mn577 O601 2.215 . S
Mn577 O603 2.117 . S
C578 O600 1.234 . S
C578 O601 1.283 . S
C579 O591 1.281 . S
C579 O592 1.236 . S
C580 O602 1.240 . S
C580 O603 1.264 . S
O581 Mn576 2.095 . S
O581 C590 1.250 . S
O582 Mn577 2.121 . S
O582 C590 1.258 . S
C583 N584 1.326 . S
C583 C587 1.460 . S
C583 H589 0.929 . S
N584 Mn577 2.257 . S
N584 C583 1.326 . S
N584 C588 1.362 . S
C585 C586 1.258 . S
C585 C588 1.431 . S
C585 C605 1.449 1_554 S
C586 C585 1.258 . S
C586 C587 1.477 . S
C586 H606 0.931 . S
C587 C583 1.460 . S
C587 C586 1.477 . S
C587 H607 0.930 . S
C588 N584 1.362 . S
C588 C585 1.431 . S
C588 C598 1.476 . S
H589 C583 0.929 . S
C590 O581 1.250 . S
C590 O582 1.258 . S
O591 Mn576 2.162 . S
O591 C579 1.281 . S
O592 Mn576 2.297 . S
O592 C579 1.236 . S
N593 Mn577 2.282 . S
N593 C594 1.328 . S
N593 C598 1.318 . S
C594 N593 1.328 . S
C594 C595 1.457 . S
C594 H599 0.929 . S
C595 C594 1.457 . S
C595 C596 1.291 1_554 S
C595 H608 0.931 . S
C596 C595 1.291 1_556 S
C596 C597 1.373 1_556 S
C596 H609 0.929 . S
C597 C596 1.373 1_554 S
C597 C598 1.396 . S
C597 C604 1.403 1_554 S
C598 C588 1.476 . S
C598 N593 1.318 . S
C598 C597 1.396 . S
H599 C594 0.929 . S
O600 Mn576 2.385 . S
O600 C578 1.234 . S
O601 Mn576 2.209 . S
O601 Mn577 2.215 . S
O601 C578 1.283 . S
O602 Mn576 2.094 . S
O602 C580 1.240 . S
O603 Mn577 2.117 . S
O603 C580 1.264 . S
C604 C597 1.403 1_556 S
C604 C605 1.399 . S
C604 H610 0.929 . S
C605 C585 1.449 1_556 S
C605 C604 1.399 . S
C605 H611 0.930 . S
H606 C586 0.931 . S
H607 C587 0.930 . S
H608 C595 0.931 . S
H609 C596 0.929 . S
H610 C604 0.929 . S
H611 C605 0.930 . S
Mn612 O617 2.095 . S
Mn612 O627 2.162 . S
Mn612 O628 2.297 . S
Mn612 O636 2.385 . S
Mn612 O637 2.209 . S
Mn612 O638 2.094 . S
Mn613 O618 2.121 . S
Mn613 N620 2.257 . S
Mn613 N629 2.282 . S
Mn613 O637 2.215 . S
Mn613 O639 2.117 . S
C614 O636 1.234 . S
C614 O637 1.283 . S
C615 O627 1.281 . S
C615 O628 1.236 . S
C616 O638 1.240 . S
C616 O639 1.264 . S
O617 Mn612 2.095 . S
O617 C626 1.250 . S
O618 Mn613 2.121 . S
O618 C626 1.258 . S
C619 N620 1.326 . S
C619 C623 1.460 . S
C619 H625 0.929 . S
N620 Mn613 2.257 . S
N620 C619 1.326 . S
N620 C624 1.362 . S
C621 C622 1.258 . S
C621 C624 1.431 . S
C621 C641 1.449 . S
C622 C621 1.258 . S
C622 C623 1.477 . S
C622 H642 0.931 . S
C623 C619 1.460 . S
C623 C622 1.477 . S
C623 H643 0.930 . S
C624 N620 1.362 . S
C624 C621 1.431 . S
C624 C634 1.476 . S
H625 C619 0.929 . S
C626 O617 1.250 . S
C626 O618 1.258 . S
O627 Mn612 2.162 . S
O627 C615 1.281 . S
O628 Mn612 2.297 . S
O628 C615 1.236 . S
N629 Mn613 2.282 . S
N629 C630 1.328 . S
N629 C634 1.318 . S
C630 N629 1.328 . S
C630 C631 1.457 . S
C630 H635 0.929 . S
C631 C630 1.457 . S
C631 C632 1.291 . S
C631 H644 0.931 . S
C632 C631 1.291 . S
C632 C633 1.373 . S
C632 H645 0.929 . S
C633 C632 1.373 . S
C633 C634 1.396 . S
C633 C640 1.403 . S
C634 C624 1.476 . S
C634 N629 1.318 . S
C634 C633 1.396 . S
H635 C630 0.929 . S
O636 Mn612 2.385 . S
O636 C614 1.234 . S
O637 Mn612 2.209 . S
O637 Mn613 2.215 . S
O637 C614 1.283 . S
O638 Mn612 2.094 . S
O638 C616 1.240 . S
O639 Mn613 2.117 . S
O639 C616 1.264 . S
C640 C633 1.403 . S
C640 C641 1.399 . S
C640 H646 0.929 . S
C641 C621 1.449 . S
C641 C640 1.399 . S
C641 H647 0.930 . S
H642 C622 0.931 . S
H643 C623 0.930 . S
H644 C631 0.931 . S
H645 C632 0.929 . S
H646 C640 0.929 . S
H647 C641 0.930 . S
Mn648 O653 2.095 . S
Mn648 O663 2.162 . S
Mn648 O664 2.297 . S
Mn648 O672 2.385 . S
Mn648 O673 2.209 . S
Mn648 O674 2.094 . S
Mn649 O654 2.121 . S
Mn649 N656 2.257 . S
Mn649 N665 2.282 . S
Mn649 O673 2.215 . S
Mn649 O675 2.117 . S
C650 O672 1.234 . S
C650 O673 1.283 . S
C651 O663 1.281 . S
C651 O664 1.236 . S
C652 O674 1.240 . S
C652 O675 1.264 . S
O653 Mn648 2.095 . S
O653 C662 1.250 . S
O654 Mn649 2.121 . S
O654 C662 1.258 . S
C655 N656 1.326 . S
C655 C659 1.460 . S
C655 H661 0.929 . S
N656 Mn649 2.257 . S
N656 C655 1.326 . S
N656 C660 1.362 . S
C657 C658 1.258 . S
C657 C660 1.431 . S
C657 C677 1.408 1_556 S
C658 C657 1.258 . S
C658 C659 1.477 . S
C658 H678 0.931 . S
C659 C655 1.460 . S
C659 C658 1.477 . S
C659 H679 0.930 . S
C660 N656 1.362 . S
C660 C657 1.431 . S
C660 C670 1.476 . S
H661 C655 0.929 . S
C662 O653 1.250 . S
C662 O654 1.258 . S
O663 Mn648 2.162 . S
O663 C651 1.281 . S
O664 Mn648 2.297 . S
O664 C651 1.236 . S
N665 Mn649 2.282 . S
N665 C666 1.328 . S
N665 C670 1.318 . S
C666 N665 1.328 . S
C666 C667 1.457 . S
C666 H671 0.929 . S
C667 C666 1.457 . S
C667 C668 1.291 1_556 S
C667 H680 0.931 . S
C668 C667 1.291 1_554 S
C668 C669 1.373 1_554 S
C668 H681 0.929 . S
C669 C668 1.373 1_556 S
C669 C670 1.396 . S
C669 C676 1.403 1_556 S
C670 C660 1.476 . S
C670 N665 1.318 . S
C670 C669 1.396 . S
H671 C666 0.929 . S
O672 Mn648 2.385 . S
O672 C650 1.234 . S
O673 Mn648 2.209 . S
O673 Mn649 2.215 . S
O673 C650 1.283 . S
O674 Mn648 2.094 . S
O674 C652 1.240 . S
O675 Mn649 2.117 . S
O675 C652 1.264 . S
C676 C669 1.403 1_554 S
C676 C677 1.415 . S
C676 H682 0.929 . S
C677 C657 1.408 1_554 S
C677 C676 1.415 . S
C677 H683 0.956 . S
H678 C658 0.931 . S
H679 C659 0.930 . S
H680 C667 0.931 . S
H681 C668 0.929 . S
H682 C676 0.929 . S
H683 C677 0.956 . S
Mn684 O689 2.095 . S
Mn684 O699 2.162 . S
Mn684 O700 2.297 . S
Mn684 O708 2.385 . S
Mn684 O709 2.209 . S
Mn684 O710 2.094 . S
Mn685 O690 2.121 . S
Mn685 N692 2.257 . S
Mn685 N701 2.282 . S
Mn685 O709 2.215 . S
Mn685 O711 2.117 . S
C686 O708 1.234 . S
C686 O709 1.283 . S
C687 O699 1.281 . S
C687 O700 1.236 . S
C688 O710 1.240 . S
C688 O711 1.264 . S
O689 Mn684 2.095 . S
O689 C698 1.250 . S
O690 Mn685 2.121 . S
O690 C698 1.258 . S
C691 N692 1.326 . S
C691 C695 1.460 . S
C691 H697 0.929 . S
N692 Mn685 2.257 . S
N692 C691 1.326 . S
N692 C696 1.362 . S
C693 C694 1.258 . S
C693 C696 1.431 . S
C693 C713 1.449 . S
C694 C693 1.258 . S
C694 C695 1.477 . S
C694 H714 0.931 . S
C695 C691 1.460 . S
C695 C694 1.477 . S
C695 H715 0.930 . S
C696 N692 1.362 . S
C696 C693 1.431 . S
C696 C706 1.476 . S
H697 C691 0.929 . S
C698 O689 1.250 . S
C698 O690 1.258 . S
O699 Mn684 2.162 . S
O699 C687 1.281 . S
O700 Mn684 2.297 . S
O700 C687 1.236 . S
N701 Mn685 2.282 . S
N701 C702 1.328 . S
N701 C706 1.318 . S
C702 N701 1.328 . S
C702 C703 1.457 . S
C702 H707 0.929 . S
C703 C702 1.457 . S
C703 C704 1.291 . S
C703 H716 0.931 . S
C704 C703 1.291 . S
C704 C705 1.373 . S
C704 H717 0.929 . S
C705 C704 1.373 . S
C705 C706 1.396 . S
C705 C712 1.403 . S
C706 C696 1.476 . S
C706 N701 1.318 . S
C706 C705 1.396 . S
H707 C702 0.929 . S
O708 Mn684 2.385 . S
O708 C686 1.234 . S
O709 Mn684 2.209 . S
O709 Mn685 2.215 . S
O709 C686 1.283 . S
O710 Mn684 2.094 . S
O710 C688 1.240 . S
O711 Mn685 2.117 . S
O711 C688 1.264 . S
C712 C705 1.403 . S
C712 C713 1.399 . S
C712 H718 0.929 . S
C713 C693 1.449 . S
C713 C712 1.399 . S
C713 H719 0.930 . S
H714 C694 0.931 . S
H715 C695 0.930 . S
H716 C703 0.931 . S
H717 C704 0.929 . S
H718 C712 0.929 . S
H719 C713 0.930 . S
Mn720 O725 2.095 . S
Mn720 O735 2.162 . S
Mn720 O736 2.297 . S
Mn720 O744 2.385 . S
Mn720 O745 2.209 . S
Mn720 O746 2.094 . S
Mn721 O726 2.121 . S
Mn721 N728 2.257 . S
Mn721 N737 2.282 . S
Mn721 O745 2.215 . S
Mn721 O747 2.117 . S
C722 O744 1.234 . S
C722 O745 1.283 . S
C723 O735 1.281 . S
C723 O736 1.236 . S
C724 O746 1.240 . S
C724 O747 1.264 . S
O725 Mn720 2.095 . S
O725 C734 1.250 . S
O726 Mn721 2.121 . S
O726 C734 1.258 . S
C727 N728 1.326 . S
C727 C731 1.460 . S
C727 H733 0.929 . S
N728 Mn721 2.257 . S
N728 C727 1.326 . S
N728 C732 1.362 . S
C729 C730 1.258 . S
C729 C732 1.431 . S
C729 C749 1.480 . S
C730 C729 1.258 . S
C730 C731 1.477 . S
C730 H750 0.931 . S
C731 C727 1.460 . S
C731 C730 1.477 . S
C731 H751 0.930 . S
C732 N728 1.362 . S
C732 C729 1.431 . S
C732 C742 1.476 . S
H733 C727 0.929 . S
C734 O725 1.250 . S
C734 O726 1.258 . S
O735 Mn720 2.162 . S
O735 C723 1.281 . S
O736 Mn720 2.297 . S
O736 C723 1.236 . S
N737 Mn721 2.282 . S
N737 C738 1.328 . S
N737 C742 1.318 . S
C738 N737 1.328 . S
C738 C739 1.457 . S
C738 H743 0.929 . S
C739 C738 1.457 . S
C739 C740 1.284 1_556 S
C739 H752 0.931 . S
C740 C739 1.284 1_554 S
C740 C741 1.369 1_554 S
C740 H753 0.940 . S
C741 C740 1.369 1_556 S
C741 C742 1.396 . S
C741 C748 1.403 1_556 S
C742 C732 1.476 . S
C742 N737 1.318 . S
C742 C741 1.396 . S
H743 C738 0.929 . S
O744 Mn720 2.385 . S
O744 C722 1.234 . S
O745 Mn720 2.209 . S
O745 Mn721 2.215 . S
O745 C722 1.283 . S
O746 Mn720 2.094 . S
O746 C724 1.240 . S
O747 Mn721 2.117 . S
O747 C724 1.264 . S
C748 C741 1.403 1_554 S
C748 C749 1.389 1_554 S
C748 H754 0.929 . S
C749 C729 1.480 . S
C749 C748 1.389 1_556 S
C749 H755 0.910 1_556 S
H750 C730 0.931 . S
H751 C731 0.930 . S
H752 C739 0.931 . S
H753 C740 0.940 . S
H754 C748 0.929 . S
H755 C749 0.910 1_554 S
Mn756 O761 2.095 . S
Mn756 O771 2.162 . S
Mn756 O772 2.297 . S
Mn756 O780 2.385 . S
Mn756 O781 2.209 . S
Mn756 O782 2.094 . S
Mn757 O762 2.121 . S
Mn757 N764 2.257 . S
Mn757 N773 2.282 . S
Mn757 O781 2.215 . S
Mn757 O783 2.117 . S
C758 O780 1.234 . S
C758 O781 1.283 . S
C759 O771 1.281 . S
C759 O772 1.236 . S
C760 O782 1.240 . S
C760 O783 1.264 . S
O761 Mn756 2.095 . S
O761 C770 1.250 . S
O762 Mn757 2.121 . S
O762 C770 1.258 . S
C763 N764 1.326 . S
C763 C767 1.460 . S
C763 H769 0.929 . S
N764 Mn757 2.257 . S
N764 C763 1.326 . S
N764 C768 1.362 . S
C765 C766 1.258 . S
C765 C768 1.431 . S
C765 C785 1.449 1_554 S
C766 C765 1.258 . S
C766 C767 1.477 . S
C766 H786 0.931 . S
C767 C763 1.460 . S
C767 C766 1.477 . S
C767 H787 0.930 . S
C768 N764 1.362 . S
C768 C765 1.431 . S
C768 C778 1.476 . S
H769 C763 0.929 . S
C770 O761 1.250 . S
C770 O762 1.258 . S
O771 Mn756 2.162 . S
O771 C759 1.281 . S
O772 Mn756 2.297 . S
O772 C759 1.236 . S
N773 Mn757 2.282 . S
N773 C774 1.328 . S
N773 C778 1.318 . S
C774 N773 1.328 . S
C774 C775 1.457 . S
C774 H779 0.929 . S
C775 C774 1.457 . S
C775 C776 1.291 1_554 S
C775 H788 0.931 . S
C776 C775 1.291 1_556 S
C776 C777 1.373 1_556 S
C776 H789 0.929 . S
C777 C776 1.373 1_554 S
C777 C778 1.396 . S
C777 C784 1.403 1_554 S
C778 C768 1.476 . S
C778 N773 1.318 . S
C778 C777 1.396 . S
H779 C774 0.929 . S
O780 Mn756 2.385 . S
O780 C758 1.234 . S
O781 Mn756 2.209 . S
O781 Mn757 2.215 . S
O781 C758 1.283 . S
O782 Mn756 2.094 . S
O782 C760 1.240 . S
O783 Mn757 2.117 . S
O783 C760 1.264 . S
C784 C777 1.403 1_556 S
C784 C785 1.399 . S
C784 H790 0.929 . S
C785 C765 1.449 1_556 S
C785 C784 1.399 . S
C785 H791 0.930 . S
H786 C766 0.931 . S
H787 C767 0.930 . S
H788 C775 0.931 . S
H789 C776 0.929 . S
H790 C784 0.929 . S
H791 C785 0.930 . S
Mn792 O797 2.095 . S
Mn792 O807 2.162 . S
Mn792 O808 2.297 . S
Mn792 O816 2.385 . S
Mn792 O817 2.209 . S
Mn792 O818 2.094 . S
Mn793 O798 2.121 . S
Mn793 N800 2.257 . S
Mn793 N809 2.282 . S
Mn793 O817 2.215 . S
Mn793 O819 2.117 . S
C794 O816 1.234 . S
C794 O817 1.283 . S
C795 O807 1.281 . S
C795 O808 1.236 . S
C796 O818 1.240 . S
C796 O819 1.264 . S
O797 Mn792 2.095 . S
O797 C806 1.250 . S
O798 Mn793 2.121 . S
O798 C806 1.258 . S
C799 N800 1.326 . S
C799 C803 1.460 . S
C799 H805 0.929 . S
N800 Mn793 2.257 . S
N800 C799 1.326 . S
N800 C804 1.362 . S
C801 C802 1.258 . S
C801 C804 1.431 . S
C801 C821 1.449 . S
C802 C801 1.258 . S
C802 C803 1.477 . S
C802 H822 0.931 . S
C803 C799 1.460 . S
C803 C802 1.477 . S
C803 H823 0.930 . S
C804 N800 1.362 . S
C804 C801 1.431 . S
C804 C814 1.476 . S
H805 C799 0.929 . S
C806 O797 1.250 . S
C806 O798 1.258 . S
O807 Mn792 2.162 . S
O807 C795 1.281 . S
O808 Mn792 2.297 . S
O808 C795 1.236 . S
N809 Mn793 2.282 . S
N809 C810 1.328 . S
N809 C814 1.318 . S
C810 N809 1.328 . S
C810 C811 1.457 . S
C810 H815 0.929 . S
C811 C810 1.457 . S
C811 C812 1.291 . S
C811 H824 0.931 . S
C812 C811 1.291 . S
C812 C813 1.373 . S
C812 H825 0.929 . S
C813 C812 1.373 . S
C813 C814 1.396 . S
C813 C820 1.403 . S
C814 C804 1.476 . S
C814 N809 1.318 . S
C814 C813 1.396 . S
H815 C810 0.929 . S
O816 Mn792 2.385 . S
O816 C794 1.234 . S
O817 Mn792 2.209 . S
O817 Mn793 2.215 . S
O817 C794 1.283 . S
O818 Mn792 2.094 . S
O818 C796 1.240 . S
O819 Mn793 2.117 . S
O819 C796 1.264 . S
C820 C813 1.403 . S
C820 C821 1.399 . S
C820 H826 0.929 . S
C821 C801 1.449 . S
C821 C820 1.399 . S
C821 H827 0.930 . S
H822 C802 0.931 . S
H823 C803 0.930 . S
H824 C811 0.931 . S
H825 C812 0.929 . S
H826 C820 0.929 . S
H827 C821 0.930 . S
Mn828 O833 2.095 . S
Mn828 O843 2.162 . S
Mn828 O844 2.297 . S
Mn828 O852 2.385 . S
Mn828 O853 2.209 . S
Mn828 O854 2.094 . S
Mn829 O834 2.121 . S
Mn829 N836 2.257 . S
Mn829 N845 2.282 . S
Mn829 O853 2.215 . S
Mn829 O855 2.117 . S
C830 O852 1.234 . S
C830 O853 1.283 . S
C831 O843 1.281 . S
C831 O844 1.236 . S
C832 O854 1.240 . S
C832 O855 1.264 . S
O833 Mn828 2.095 . S
O833 C842 1.250 . S
O834 Mn829 2.121 . S
O834 C842 1.258 . S
C835 N836 1.326 . S
C835 C839 1.460 . S
C835 H841 0.929 . S
N836 Mn829 2.257 . S
N836 C835 1.326 . S
N836 C840 1.362 . S
C837 C838 1.258 . S
C837 C840 1.431 . S
C837 C857 1.449 . S
C838 C837 1.258 . S
C838 C839 1.477 . S
C838 H858 0.931 . S
C839 C835 1.460 . S
C839 C838 1.477 . S
C839 H859 0.930 . S
C840 N836 1.362 . S
C840 C837 1.431 . S
C840 C850 1.476 . S
H841 C835 0.929 . S
C842 O833 1.250 . S
C842 O834 1.258 . S
O843 Mn828 2.162 . S
O843 C831 1.281 . S
O844 Mn828 2.297 . S
O844 C831 1.236 . S
N845 Mn829 2.282 . S
N845 C846 1.328 . S
N845 C850 1.318 . S
C846 N845 1.328 . S
C846 C847 1.457 . S
C846 H851 0.929 . S
C847 C846 1.457 . S
C847 C848 1.291 . S
C847 H860 0.931 . S
C848 C847 1.291 . S
C848 C849 1.373 . S
C848 H861 0.929 . S
C849 C848 1.373 . S
C849 C850 1.396 . S
C849 C856 1.403 . S
C850 C840 1.476 . S
C850 N845 1.318 . S
C850 C849 1.396 . S
H851 C846 0.929 . S
O852 Mn828 2.385 . S
O852 C830 1.234 . S
O853 Mn828 2.209 . S
O853 Mn829 2.215 . S
O853 C830 1.283 . S
O854 Mn828 2.094 . S
O854 C832 1.240 . S
O855 Mn829 2.117 . S
O855 C832 1.264 . S
C856 C849 1.403 . S
C856 C857 1.399 . S
C856 H862 0.929 . S
C857 C837 1.449 . S
C857 C856 1.399 . S
C857 H863 0.930 . S
H858 C838 0.931 . S
H859 C839 0.930 . S
H860 C847 0.931 . S
H861 C848 0.929 . S
H862 C856 0.929 . S
H863 C857 0.930 . S
Mn864 O869 2.095 . S
Mn864 O879 2.162 . S
Mn864 O880 2.297 . S
Mn864 O888 2.385 . S
Mn864 O889 2.209 . S
Mn864 O890 2.094 . S
Mn865 O870 2.121 . S
Mn865 N872 2.257 . S
Mn865 N881 2.282 . S
Mn865 O889 2.215 . S
Mn865 O891 2.117 . S
C866 O888 1.234 . S
C866 O889 1.283 . S
C867 O879 1.281 . S
C867 O880 1.236 . S
C868 O890 1.240 . S
C868 O891 1.264 . S
O869 Mn864 2.095 . S
O869 C878 1.250 . S
O870 Mn865 2.121 . S
O870 C878 1.258 . S
C871 N872 1.326 . S
C871 C875 1.460 . S
C871 H877 0.929 . S
N872 Mn865 2.257 . S
N872 C871 1.326 . S
N872 C876 1.362 . S
C873 C874 1.258 . S
C873 C876 1.431 . S
C873 C893 1.449 . S
C874 C873 1.258 . S
C874 C875 1.477 . S
C874 H894 0.931 . S
C875 C871 1.460 . S
C875 C874 1.477 . S
C875 H895 0.930 . S
C876 N872 1.362 . S
C876 C873 1.431 . S
C876 C886 1.476 . S
H877 C871 0.929 . S
C878 O869 1.250 . S
C878 O870 1.258 . S
O879 Mn864 2.162 . S
O879 C867 1.281 . S
O880 Mn864 2.297 . S
O880 C867 1.236 . S
N881 Mn865 2.282 . S
N881 C882 1.328 . S
N881 C886 1.318 . S
C882 N881 1.328 . S
C882 C883 1.457 . S
C882 H887 0.929 . S
C883 C882 1.457 . S
C883 C884 1.291 . S
C883 H896 0.931 . S
C884 C883 1.291 . S
C884 C885 1.373 . S
C884 H897 0.929 . S
C885 C884 1.373 . S
C885 C886 1.396 . S
C885 C892 1.403 . S
C886 C876 1.476 . S
C886 N881 1.318 . S
C886 C885 1.396 . S
H887 C882 0.929 . S
O888 Mn864 2.385 . S
O888 C866 1.234 . S
O889 Mn864 2.209 . S
O889 Mn865 2.215 . S
O889 C866 1.283 . S
O890 Mn864 2.094 . S
O890 C868 1.240 . S
O891 Mn865 2.117 . S
O891 C868 1.264 . S
C892 C885 1.403 . S
C892 C893 1.399 . S
C892 H898 0.929 . S
C893 C873 1.449 . S
C893 C892 1.399 . S
C893 H899 0.930 . S
H894 C874 0.931 . S
H895 C875 0.930 . S
H896 C883 0.931 . S
H897 C884 0.929 . S
H898 C892 0.929 . S
H899 C893 0.930 . S
Mn900 O905 2.095 . S
Mn900 O915 2.162 . S
Mn900 O916 2.297 . S
Mn900 O924 2.385 . S
Mn900 O925 2.209 . S
Mn900 O926 2.094 . S
Mn901 O906 2.121 . S
Mn901 N908 2.257 . S
Mn901 N917 2.282 . S
Mn901 O925 2.215 . S
Mn901 O927 2.117 . S
C902 O924 1.234 . S
C902 O925 1.283 . S
C903 O915 1.281 . S
C903 O916 1.236 . S
C904 O926 1.240 . S
C904 O927 1.264 . S
O905 Mn900 2.095 . S
O905 C914 1.250 . S
O906 Mn901 2.121 . S
O906 C914 1.258 . S
C907 N908 1.326 . S
C907 C911 1.460 . S
C907 H913 0.929 . S
N908 Mn901 2.257 . S
N908 C907 1.326 . S
N908 C912 1.362 . S
C909 C910 1.258 . S
C909 C912 1.431 . S
C909 C929 1.449 . S
C910 C909 1.258 . S
C910 C911 1.477 . S
C910 H930 0.931 . S
C911 C907 1.460 . S
C911 C910 1.477 . S
C911 H931 0.930 . S
C912 N908 1.362 . S
C912 C909 1.431 . S
C912 C922 1.476 . S
H913 C907 0.929 . S
C914 O905 1.250 . S
C914 O906 1.258 . S
O915 Mn900 2.162 . S
O915 C903 1.281 . S
O916 Mn900 2.297 . S
O916 C903 1.236 . S
N917 Mn901 2.282 . S
N917 C918 1.328 . S
N917 C922 1.318 . S
C918 N917 1.328 . S
C918 C919 1.457 . S
C918 H923 0.929 . S
C919 C918 1.457 . S
C919 C920 1.291 . S
C919 H932 0.931 . S
C920 C919 1.291 . S
C920 C921 1.373 . S
C920 H933 0.929 1_565 S
C921 C920 1.373 . S
C921 C922 1.396 . S
C921 C928 1.403 1_565 S
C922 C912 1.476 . S
C922 N917 1.318 . S
C922 C921 1.396 . S
H923 C918 0.929 . S
O924 Mn900 2.385 . S
O924 C902 1.234 . S
O925 Mn900 2.209 . S
O925 Mn901 2.215 . S
O925 C902 1.283 . S
O926 Mn900 2.094 . S
O926 C904 1.240 . S
O927 Mn901 2.117 . S
O927 C904 1.264 . S
C928 C921 1.403 1_545 S
C928 C929 1.399 1_545 S
C928 H934 0.929 . S
C929 C909 1.449 . S
C929 C928 1.399 1_565 S
C929 H935 0.930 1_565 S
H930 C910 0.931 . S
H931 C911 0.930 . S
H932 C919 0.931 . S
H933 C920 0.929 1_545 S
H934 C928 0.929 . S
H935 C929 0.930 1_545 S
Mn936 O941 2.095 . S
Mn936 O951 2.162 . S
Mn936 O952 2.297 . S
Mn936 O960 2.385 . S
Mn936 O961 2.209 . S
Mn936 O962 2.094 . S
Mn937 O942 2.121 . S
Mn937 N944 2.257 . S
Mn937 N953 2.282 . S
Mn937 O961 2.215 . S
Mn937 O963 2.117 . S
C938 O960 1.234 . S
C938 O961 1.283 . S
C939 O951 1.281 . S
C939 O952 1.236 . S
C940 O962 1.240 . S
C940 O963 1.264 . S
O941 Mn936 2.095 . S
O941 C950 1.250 . S
O942 Mn937 2.121 . S
O942 C950 1.258 . S
C943 N944 1.326 . S
C943 C947 1.460 . S
C943 H949 0.929 . S
N944 Mn937 2.257 . S
N944 C943 1.326 . S
N944 C948 1.362 . S
C945 C946 1.258 . S
C945 C948 1.431 . S
C945 C965 1.449 . S
C946 C945 1.258 . S
C946 C947 1.477 . S
C946 H966 0.931 . S
C947 C943 1.460 . S
C947 C946 1.477 . S
C947 H967 0.930 . S
C948 N944 1.362 . S
C948 C945 1.431 . S
C948 C958 1.476 . S
H949 C943 0.929 . S
C950 O941 1.250 . S
C950 O942 1.258 . S
O951 Mn936 2.162 . S
O951 C939 1.281 . S
O952 Mn936 2.297 . S
O952 C939 1.236 . S
N953 Mn937 2.282 . S
N953 C954 1.328 . S
N953 C958 1.318 . S
C954 N953 1.328 . S
C954 C955 1.457 . S
C954 H959 0.929 . S
C955 C954 1.457 . S
C955 C956 1.291 . S
C955 H968 0.931 . S
C956 C955 1.291 . S
C956 C957 1.373 . S
C956 H969 0.929 . S
C957 C956 1.373 . S
C957 C958 1.396 . S
C957 C964 1.403 . S
C958 C948 1.476 . S
C958 N953 1.318 . S
C958 C957 1.396 . S
H959 C954 0.929 . S
O960 Mn936 2.385 . S
O960 C938 1.234 . S
O961 Mn936 2.209 . S
O961 Mn937 2.215 . S
O961 C938 1.283 . S
O962 Mn936 2.094 . S
O962 C940 1.240 . S
O963 Mn937 2.117 . S
O963 C940 1.264 . S
C964 C957 1.403 . S
C964 C965 1.399 . S
C964 H970 0.929 . S
C965 C945 1.449 . S
C965 C964 1.399 . S
C965 H971 0.930 . S
H966 C946 0.931 . S
H967 C947 0.930 . S
H968 C955 0.931 . S
H969 C956 0.929 . S
H970 C964 0.929 . S
H971 C965 0.930 . S
Mn972 O977 2.095 . S
Mn972 O987 2.162 . S
Mn972 O988 2.297 . S
Mn972 O996 2.385 . S
Mn972 O997 2.209 . S
Mn972 O998 2.094 . S
Mn973 O978 2.121 . S
Mn973 N980 2.257 . S
Mn973 N989 2.282 . S
Mn973 O997 2.215 . S
Mn973 O999 2.117 . S
C974 O996 1.234 . S
C974 O997 1.283 . S
C975 O987 1.281 . S
C975 O988 1.236 . S
C976 O998 1.240 . S
C976 O999 1.264 . S
O977 Mn972 2.095 . S
O977 C986 1.250 . S
O978 Mn973 2.121 . S
O978 C986 1.258 . S
C979 N980 1.326 . S
C979 C983 1.460 . S
C979 H985 0.929 . S
N980 Mn973 2.257 . S
N980 C979 1.326 . S
N980 C984 1.362 . S
C981 C982 1.258 . S
C981 C984 1.431 . S
C981 C1001 1.477 . S
C982 C981 1.258 . S
C982 C983 1.477 . S
C982 H1002 0.931 . S
C983 C979 1.460 . S
C983 C982 1.477 . S
C983 H1003 0.930 . S
C984 N980 1.362 . S
C984 C981 1.431 . S
C984 C994 1.476 . S
H985 C979 0.929 . S
C986 O977 1.250 . S
C986 O978 1.258 . S
O987 Mn972 2.162 . S
O987 C975 1.281 . S
O988 Mn972 2.297 . S
O988 C975 1.236 . S
N989 Mn973 2.282 . S
N989 C990 1.328 . S
N989 C994 1.318 . S
C990 N989 1.328 . S
C990 C991 1.457 . S
C990 H995 0.929 . S
C991 C990 1.457 . S
C991 C992 1.287 1_545 S
C991 H1004 0.931 . S
C992 C991 1.287 1_565 S
C992 C993 1.370 1_565 S
C992 H1005 0.936 . S
C993 C992 1.370 1_545 S
C993 C994 1.396 . S
C993 C1000 1.403 1_545 S
C994 C984 1.476 . S
C994 N989 1.318 . S
C994 C993 1.396 . S
H995 C990 0.929 . S
O996 Mn972 2.385 . S
O996 C974 1.234 . S
O997 Mn972 2.209 . S
O997 Mn973 2.215 . S
O997 C974 1.283 . S
O998 Mn972 2.094 . S
O998 C976 1.240 . S
O999 Mn973 2.117 . S
O999 C976 1.264 . S
C1000 C993 1.403 1_565 S
C1000 C1001 1.390 1_565 S
C1000 H1006 0.929 . S
C1001 C981 1.477 . S
C1001 C1000 1.390 1_545 S
C1001 H1007 0.911 1_545 S
H1002 C982 0.931 . S
H1003 C983 0.930 . S
H1004 C991 0.931 . S
H1005 C992 0.936 . S
H1006 C1000 0.929 . S
H1007 C1001 0.911 1_565 S
Mn1008 O1013 2.095 . S
Mn1008 O1023 2.162 . S
Mn1008 O1024 2.297 . S
Mn1008 O1032 2.385 . S
Mn1008 O1033 2.209 . S
Mn1008 O1034 2.094 . S
Mn1009 O1014 2.121 . S
Mn1009 N1016 2.257 . S
Mn1009 N1025 2.282 . S
Mn1009 O1033 2.215 . S
Mn1009 O1035 2.117 . S
C1010 O1032 1.234 . S
C1010 O1033 1.283 . S
C1011 O1023 1.281 . S
C1011 O1024 1.236 . S
C1012 O1034 1.240 . S
C1012 O1035 1.264 . S
O1013 Mn1008 2.095 . S
O1013 C1022 1.250 . S
O1014 Mn1009 2.121 . S
O1014 C1022 1.258 . S
C1015 N1016 1.326 . S
C1015 C1019 1.460 . S
C1015 H1021 0.929 . S
N1016 Mn1009 2.257 . S
N1016 C1015 1.326 . S
N1016 C1020 1.362 . S
C1017 C1018 1.258 . S
C1017 C1020 1.431 . S
C1017 C1037 1.449 . S
C1018 C1017 1.258 . S
C1018 C1019 1.477 . S
C1018 H1038 0.931 . S
C1019 C1015 1.460 . S
C1019 C1018 1.477 . S
C1019 H1039 0.930 . S
C1020 N1016 1.362 . S
C1020 C1017 1.431 . S
C1020 C1030 1.476 . S
H1021 C1015 0.929 . S
C1022 O1013 1.250 . S
C1022 O1014 1.258 . S
O1023 Mn1008 2.162 . S
O1023 C1011 1.281 . S
O1024 Mn1008 2.297 . S
O1024 C1011 1.236 . S
N1025 Mn1009 2.282 . S
N1025 C1026 1.328 . S
N1025 C1030 1.318 . S
C1026 N1025 1.328 . S
C1026 C1027 1.457 . S
C1026 H1031 0.929 . S
C1027 C1026 1.457 . S
C1027 C1028 1.291 . S
C1027 H1040 0.931 . S
C1028 C1027 1.291 . S
C1028 C1029 1.373 . S
C1028 H1041 0.929 1_655 S
C1029 C1028 1.373 . S
C1029 C1030 1.396 . S
C1029 C1036 1.403 1_655 S
C1030 C1020 1.476 . S
C1030 N1025 1.318 . S
C1030 C1029 1.396 . S
H1031 C1026 0.929 . S
O1032 Mn1008 2.385 . S
O1032 C1010 1.234 . S
O1033 Mn1008 2.209 . S
O1033 Mn1009 2.215 . S
O1033 C1010 1.283 . S
O1034 Mn1008 2.094 . S
O1034 C1012 1.240 . S
O1035 Mn1009 2.117 . S
O1035 C1012 1.264 . S
C1036 C1029 1.403 1_455 S
C1036 C1037 1.399 1_455 S
C1036 H1042 0.929 . S
C1037 C1017 1.449 . S
C1037 C1036 1.399 1_655 S
C1037 H1043 0.930 1_655 S
H1038 C1018 0.931 . S
H1039 C1019 0.930 . S
H1040 C1027 0.931 . S
H1041 C1028 0.929 1_455 S
H1042 C1036 0.929 . S
H1043 C1037 0.930 1_455 S
Mn1044 O1049 2.095 . S
Mn1044 O1059 2.162 . S
Mn1044 O1060 2.297 . S
Mn1044 O1068 2.385 . S
Mn1044 O1069 2.209 . S
Mn1044 O1070 2.094 . S
Mn1045 O1050 2.121 . S
Mn1045 N1052 2.257 . S
Mn1045 N1061 2.282 . S
Mn1045 O1069 2.215 . S
Mn1045 O1071 2.117 . S
C1046 O1068 1.234 . S
C1046 O1069 1.283 . S
C1047 O1059 1.281 . S
C1047 O1060 1.236 . S
C1048 O1070 1.240 . S
C1048 O1071 1.264 . S
O1049 Mn1044 2.095 . S
O1049 C1058 1.250 . S
O1050 Mn1045 2.121 . S
O1050 C1058 1.258 . S
C1051 N1052 1.326 . S
C1051 C1055 1.460 . S
C1051 H1057 0.929 . S
N1052 Mn1045 2.257 . S
N1052 C1051 1.326 . S
N1052 C1056 1.362 . S
C1053 C1054 1.258 . S
C1053 C1056 1.431 . S
C1053 C1073 1.449 . S
C1054 C1053 1.258 . S
C1054 C1055 1.477 . S
C1054 H1074 0.931 . S
C1055 C1051 1.460 . S
C1055 C1054 1.477 . S
C1055 H1075 0.930 . S
C1056 N1052 1.362 . S
C1056 C1053 1.431 . S
C1056 C1066 1.476 . S
H1057 C1051 0.929 . S
C1058 O1049 1.250 . S
C1058 O1050 1.258 . S
O1059 Mn1044 2.162 . S
O1059 C1047 1.281 . S
O1060 Mn1044 2.297 . S
O1060 C1047 1.236 . S
N1061 Mn1045 2.282 . S
N1061 C1062 1.328 . S
N1061 C1066 1.318 . S
C1062 N1061 1.328 . S
C1062 C1063 1.457 . S
C1062 H1067 0.929 . S
C1063 C1062 1.457 . S
C1063 C1064 1.291 . S
C1063 H1076 0.931 . S
C1064 C1063 1.291 . S
C1064 C1065 1.373 . S
C1064 H1077 0.929 . S
C1065 C1064 1.373 . S
C1065 C1066 1.396 . S
C1065 C1072 1.403 . S
C1066 C1056 1.476 . S
C1066 N1061 1.318 . S
C1066 C1065 1.396 . S
H1067 C1062 0.929 . S
O1068 Mn1044 2.385 . S
O1068 C1046 1.234 . S
O1069 Mn1044 2.209 . S
O1069 Mn1045 2.215 . S
O1069 C1046 1.283 . S
O1070 Mn1044 2.094 . S
O1070 C1048 1.240 . S
O1071 Mn1045 2.117 . S
O1071 C1048 1.264 . S
C1072 C1065 1.403 . S
C1072 C1073 1.399 . S
C1072 H1078 0.929 . S
C1073 C1053 1.449 . S
C1073 C1072 1.399 . S
C1073 H1079 0.930 . S
H1074 C1054 0.931 . S
H1075 C1055 0.930 . S
H1076 C1063 0.931 . S
H1077 C1064 0.929 . S
H1078 C1072 0.929 . S
H1079 C1073 0.930 . S
Mn1080 O1085 2.095 . S
Mn1080 O1095 2.162 . S
Mn1080 O1096 2.297 . S
Mn1080 O1104 2.385 . S
Mn1080 O1105 2.209 . S
Mn1080 O1106 2.094 . S
Mn1081 O1086 2.121 . S
Mn1081 N1088 2.257 . S
Mn1081 N1097 2.282 . S
Mn1081 O1105 2.215 . S
Mn1081 O1107 2.117 . S
C1082 O1104 1.234 . S
C1082 O1105 1.283 . S
C1083 O1095 1.281 . S
C1083 O1096 1.236 . S
C1084 O1106 1.240 . S
C1084 O1107 1.264 . S
O1085 Mn1080 2.095 . S
O1085 C1094 1.250 . S
O1086 Mn1081 2.121 . S
O1086 C1094 1.258 . S
C1087 N1088 1.326 . S
C1087 C1091 1.460 . S
C1087 H1093 0.929 . S
N1088 Mn1081 2.257 . S
N1088 C1087 1.326 . S
N1088 C1092 1.362 . S
C1089 C1090 1.258 . S
C1089 C1092 1.431 . S
C1089 C1109 1.449 . S
C1090 C1089 1.258 . S
C1090 C1091 1.477 . S
C1090 H1110 0.931 . S
C1091 C1087 1.460 . S
C1091 C1090 1.477 . S
C1091 H1111 0.930 . S
C1092 N1088 1.362 . S
C1092 C1089 1.431 . S
C1092 C1102 1.476 . S
H1093 C1087 0.929 . S
C1094 O1085 1.250 . S
C1094 O1086 1.258 . S
O1095 Mn1080 2.162 . S
O1095 C1083 1.281 . S
O1096 Mn1080 2.297 . S
O1096 C1083 1.236 . S
N1097 Mn1081 2.282 . S
N1097 C1098 1.328 . S
N1097 C1102 1.318 . S
C1098 N1097 1.328 . S
C1098 C1099 1.457 . S
C1098 H1103 0.929 . S
C1099 C1098 1.457 . S
C1099 C1100 1.291 . S
C1099 H1112 0.931 . S
C1100 C1099 1.291 . S
C1100 C1101 1.373 . S
C1100 H1113 0.929 1_455 S
C1101 C1100 1.373 . S
C1101 C1102 1.396 . S
C1101 C1108 1.403 1_455 S
C1102 C1092 1.476 . S
C1102 N1097 1.318 . S
C1102 C1101 1.396 . S
H1103 C1098 0.929 . S
O1104 Mn1080 2.385 . S
O1104 C1082 1.234 . S
O1105 Mn1080 2.209 . S
O1105 Mn1081 2.215 . S
O1105 C1082 1.283 . S
O1106 Mn1080 2.094 . S
O1106 C1084 1.240 . S
O1107 Mn1081 2.117 . S
O1107 C1084 1.264 . S
C1108 C1101 1.403 1_655 S
C1108 C1109 1.399 1_655 S
C1108 H1114 0.929 . S
C1109 C1089 1.449 . S
C1109 C1108 1.399 1_455 S
C1109 H1115 0.930 1_455 S
H1110 C1090 0.931 . S
H1111 C1091 0.930 . S
H1112 C1099 0.931 . S
H1113 C1100 0.929 1_655 S
H1114 C1108 0.929 . S
H1115 C1109 0.930 1_655 S
Mn1116 O1121 2.095 . S
Mn1116 O1131 2.162 . S
Mn1116 O1132 2.297 . S
Mn1116 O1140 2.385 . S
Mn1116 O1141 2.209 . S
Mn1116 O1142 2.094 . S
Mn1117 O1122 2.121 . S
Mn1117 N1124 2.257 . S
Mn1117 N1133 2.282 . S
Mn1117 O1141 2.215 . S
Mn1117 O1143 2.117 . S
C1118 O1140 1.234 . S
C1118 O1141 1.283 . S
C1119 O1131 1.281 . S
C1119 O1132 1.236 . S
C1120 O1142 1.240 . S
C1120 O1143 1.264 . S
O1121 Mn1116 2.095 . S
O1121 C1130 1.250 . S
O1122 Mn1117 2.121 . S
O1122 C1130 1.258 . S
C1123 N1124 1.326 . S
C1123 C1127 1.460 . S
C1123 H1129 0.929 . S
N1124 Mn1117 2.257 . S
N1124 C1123 1.326 . S
N1124 C1128 1.362 . S
C1125 C1126 1.258 . S
C1125 C1128 1.431 . S
C1125 C1145 1.449 . S
C1126 C1125 1.258 . S
C1126 C1127 1.477 . S
C1126 H1146 0.931 . S
C1127 C1123 1.460 . S
C1127 C1126 1.477 . S
C1127 H1147 0.930 . S
C1128 N1124 1.362 . S
C1128 C1125 1.431 . S
C1128 C1138 1.476 . S
H1129 C1123 0.929 . S
C1130 O1121 1.250 . S
C1130 O1122 1.258 . S
O1131 Mn1116 2.162 . S
O1131 C1119 1.281 . S
O1132 Mn1116 2.297 . S
O1132 C1119 1.236 . S
N1133 Mn1117 2.282 . S
N1133 C1134 1.328 . S
N1133 C1138 1.318 . S
C1134 N1133 1.328 . S
C1134 C1135 1.457 . S
C1134 H1139 0.929 . S
C1135 C1134 1.457 . S
C1135 C1136 1.291 . S
C1135 H1148 0.931 . S
C1136 C1135 1.291 . S
C1136 C1137 1.373 . S
C1136 H1149 0.929 . S
C1137 C1136 1.373 . S
C1137 C1138 1.396 . S
C1137 C1144 1.403 . S
C1138 C1128 1.476 . S
C1138 N1133 1.318 . S
C1138 C1137 1.396 . S
H1139 C1134 0.929 . S
O1140 Mn1116 2.385 . S
O1140 C1118 1.234 . S
O1141 Mn1116 2.209 . S
O1141 Mn1117 2.215 . S
O1141 C1118 1.283 . S
O1142 Mn1116 2.094 . S
O1142 C1120 1.240 . S
O1143 Mn1117 2.117 . S
O1143 C1120 1.264 . S
C1144 C1137 1.403 . S
C1144 C1145 1.399 . S
C1144 H1150 0.929 . S
C1145 C1125 1.449 . S
C1145 C1144 1.399 . S
C1145 H1151 0.930 . S
H1146 C1126 0.931 . S
H1147 C1127 0.930 . S
H1148 C1135 0.931 . S
H1149 C1136 0.929 . S
H1150 C1144 0.929 . S
H1151 C1145 0.930 . S
Mn1152 O1157 2.095 . S
Mn1152 O1167 2.162 . S
Mn1152 O1168 2.297 . S
Mn1152 O1176 2.385 . S
Mn1152 O1177 2.209 . S
Mn1152 O1178 2.094 . S
Mn1153 O1158 2.121 . S
Mn1153 N1160 2.257 . S
Mn1153 N1169 2.282 . S
Mn1153 O1177 2.215 . S
Mn1153 O1179 2.117 . S
C1154 O1176 1.234 . S
C1154 O1177 1.283 . S
C1155 O1167 1.281 . S
C1155 O1168 1.236 . S
C1156 O1178 1.240 . S
C1156 O1179 1.264 . S
O1157 Mn1152 2.095 . S
O1157 C1166 1.250 . S
O1158 Mn1153 2.121 . S
O1158 C1166 1.258 . S
C1159 N1160 1.326 . S
C1159 C1163 1.460 . S
C1159 H1165 0.929 . S
N1160 Mn1153 2.257 . S
N1160 C1159 1.326 . S
N1160 C1164 1.362 . S
C1161 C1162 1.258 . S
C1161 C1164 1.431 . S
C1161 C1181 1.449 1_565 S
C1162 C1161 1.258 . S
C1162 C1163 1.477 . S
C1162 H1182 0.931 . S
C1163 C1159 1.460 . S
C1163 C1162 1.477 . S
C1163 H1183 0.930 . S
C1164 N1160 1.362 . S
C1164 C1161 1.431 . S
C1164 C1174 1.476 . S
H1165 C1159 0.929 . S
C1166 O1157 1.250 . S
C1166 O1158 1.258 . S
O1167 Mn1152 2.162 . S
O1167 C1155 1.281 . S
O1168 Mn1152 2.297 . S
O1168 C1155 1.236 . S
N1169 Mn1153 2.282 . S
N1169 C1170 1.328 . S
N1169 C1174 1.318 . S
C1170 N1169 1.328 . S
C1170 C1171 1.457 . S
C1170 H1175 0.929 . S
C1171 C1170 1.457 . S
C1171 C1172 1.291 1_565 S
C1171 H1184 0.931 . S
C1172 C1171 1.291 1_545 S
C1172 C1173 1.373 1_545 S
C1172 H1185 0.929 . S
C1173 C1172 1.373 1_565 S
C1173 C1174 1.396 . S
C1173 C1180 1.403 1_565 S
C1174 C1164 1.476 . S
C1174 N1169 1.318 . S
C1174 C1173 1.396 . S
H1175 C1170 0.929 . S
O1176 Mn1152 2.385 . S
O1176 C1154 1.234 . S
O1177 Mn1152 2.209 . S
O1177 Mn1153 2.215 . S
O1177 C1154 1.283 . S
O1178 Mn1152 2.094 . S
O1178 C1156 1.240 . S
O1179 Mn1153 2.117 . S
O1179 C1156 1.264 . S
C1180 C1173 1.403 1_545 S
C1180 C1181 1.399 . S
C1180 H1186 0.929 . S
C1181 C1161 1.449 1_545 S
C1181 C1180 1.399 . S
C1181 H1187 0.930 . S
H1182 C1162 0.931 . S
H1183 C1163 0.930 . S
H1184 C1171 0.931 . S
H1185 C1172 0.929 . S
H1186 C1180 0.929 . S
H1187 C1181 0.930 . S
Mn1188 O1193 2.095 . S
Mn1188 O1203 2.162 . S
Mn1188 O1204 2.297 . S
Mn1188 O1212 2.385 . S
Mn1188 O1213 2.209 . S
Mn1188 O1214 2.094 . S
Mn1189 O1194 2.121 . S
Mn1189 N1196 2.257 . S
Mn1189 N1205 2.282 . S
Mn1189 O1213 2.215 . S
Mn1189 O1215 2.117 . S
C1190 O1212 1.234 . S
C1190 O1213 1.283 . S
C1191 O1203 1.281 . S
C1191 O1204 1.236 . S
C1192 O1214 1.240 . S
C1192 O1215 1.264 . S
O1193 Mn1188 2.095 . S
O1193 C1202 1.250 . S
O1194 Mn1189 2.121 . S
O1194 C1202 1.258 . S
C1195 N1196 1.326 . S
C1195 C1199 1.460 . S
C1195 H1201 0.929 . S
N1196 Mn1189 2.257 . S
N1196 C1195 1.326 . S
N1196 C1200 1.362 . S
C1197 C1198 1.258 . S
C1197 C1200 1.431 . S
C1197 C1217 1.449 1_455 S
C1198 C1197 1.258 . S
C1198 C1199 1.477 . S
C1198 H1218 0.931 . S
C1199 C1195 1.460 . S
C1199 C1198 1.477 . S
C1199 H1219 0.930 . S
C1200 N1196 1.362 . S
C1200 C1197 1.431 . S
C1200 C1210 1.476 . S
H1201 C1195 0.929 . S
C1202 O1193 1.250 . S
C1202 O1194 1.258 . S
O1203 Mn1188 2.162 . S
O1203 C1191 1.281 . S
O1204 Mn1188 2.297 . S
O1204 C1191 1.236 . S
N1205 Mn1189 2.282 . S
N1205 C1206 1.328 . S
N1205 C1210 1.318 . S
C1206 N1205 1.328 . S
C1206 C1207 1.457 . S
C1206 H1211 0.929 . S
C1207 C1206 1.457 . S
C1207 C1208 1.291 1_455 S
C1207 H1220 0.931 . S
C1208 C1207 1.291 1_655 S
C1208 C1209 1.373 1_655 S
C1208 H1221 0.929 . S
C1209 C1208 1.373 1_455 S
C1209 C1210 1.396 . S
C1209 C1216 1.403 1_455 S
C1210 C1200 1.476 . S
C1210 N1205 1.318 . S
C1210 C1209 1.396 . S
H1211 C1206 0.929 . S
O1212 Mn1188 2.385 . S
O1212 C1190 1.234 . S
O1213 Mn1188 2.209 . S
O1213 Mn1189 2.215 . S
O1213 C1190 1.283 . S
O1214 Mn1188 2.094 . S
O1214 C1192 1.240 . S
O1215 Mn1189 2.117 . S
O1215 C1192 1.264 . S
C1216 C1209 1.403 1_655 S
C1216 C1217 1.399 . S
C1216 H1222 0.929 . S
C1217 C1197 1.449 1_655 S
C1217 C1216 1.399 . S
C1217 H1223 0.930 . S
H1218 C1198 0.931 . S
H1219 C1199 0.930 . S
H1220 C1207 0.931 . S
H1221 C1208 0.929 . S
H1222 C1216 0.929 . S
H1223 C1217 0.930 . S
Mn1224 O1229 2.095 . S
Mn1224 O1239 2.162 . S
Mn1224 O1240 2.297 . S
Mn1224 O1248 2.385 . S
Mn1224 O1249 2.209 . S
Mn1224 O1250 2.094 . S
Mn1225 O1230 2.121 . S
Mn1225 N1232 2.257 . S
Mn1225 N1241 2.282 . S
Mn1225 O1249 2.215 . S
Mn1225 O1251 2.117 . S
C1226 O1248 1.234 . S
C1226 O1249 1.283 . S
C1227 O1239 1.281 . S
C1227 O1240 1.236 . S
C1228 O1250 1.240 . S
C1228 O1251 1.264 . S
O1229 Mn1224 2.095 . S
O1229 C1238 1.250 . S
O1230 Mn1225 2.121 . S
O1230 C1238 1.258 . S
C1231 N1232 1.326 . S
C1231 C1235 1.460 . S
C1231 H1237 0.929 . S
N1232 Mn1225 2.257 . S
N1232 C1231 1.326 . S
N1232 C1236 1.362 . S
C1233 C1234 1.258 . S
C1233 C1236 1.431 . S
C1233 C1253 1.449 . S
C1234 C1233 1.258 . S
C1234 C1235 1.477 . S
C1234 H1254 0.931 . S
C1235 C1231 1.460 . S
C1235 C1234 1.477 . S
C1235 H1255 0.930 . S
C1236 N1232 1.362 . S
C1236 C1233 1.431 . S
C1236 C1246 1.476 . S
H1237 C1231 0.929 . S
C1238 O1229 1.250 . S
C1238 O1230 1.258 . S
O1239 Mn1224 2.162 . S
O1239 C1227 1.281 . S
O1240 Mn1224 2.297 . S
O1240 C1227 1.236 . S
N1241 Mn1225 2.282 . S
N1241 C1242 1.328 . S
N1241 C1246 1.318 . S
C1242 N1241 1.328 . S
C1242 C1243 1.457 . S
C1242 H1247 0.929 . S
C1243 C1242 1.457 . S
C1243 C1244 1.291 . S
C1243 H1256 0.931 . S
C1244 C1243 1.291 . S
C1244 C1245 1.373 . S
C1244 H1257 0.929 1_545 S
C1245 C1244 1.373 . S
C1245 C1246 1.396 . S
C1245 C1252 1.403 1_545 S
C1246 C1236 1.476 . S
C1246 N1241 1.318 . S
C1246 C1245 1.396 . S
H1247 C1242 0.929 . S
O1248 Mn1224 2.385 . S
O1248 C1226 1.234 . S
O1249 Mn1224 2.209 . S
O1249 Mn1225 2.215 . S
O1249 C1226 1.283 . S
O1250 Mn1224 2.094 . S
O1250 C1228 1.240 . S
O1251 Mn1225 2.117 . S
O1251 C1228 1.264 . S
C1252 C1245 1.403 1_565 S
C1252 C1253 1.399 1_565 S
C1252 H1258 0.929 . S
C1253 C1233 1.449 . S
C1253 C1252 1.399 1_545 S
C1253 H1259 0.930 1_545 S
H1254 C1234 0.931 . S
H1255 C1235 0.930 . S
H1256 C1243 0.931 . S
H1257 C1244 0.929 1_565 S
H1258 C1252 0.929 . S
H1259 C1253 0.930 1_565 S
Mn1260 O1265 2.095 . S
Mn1260 O1275 2.162 . S
Mn1260 O1276 2.297 . S
Mn1260 O1284 2.385 . S
Mn1260 O1285 2.209 . S
Mn1260 O1286 2.094 . S
Mn1261 O1266 2.121 . S
Mn1261 N1268 2.257 . S
Mn1261 N1277 2.282 . S
Mn1261 O1285 2.215 . S
Mn1261 O1287 2.117 . S
C1262 O1284 1.234 . S
C1262 O1285 1.283 . S
C1263 O1275 1.281 . S
C1263 O1276 1.236 . S
C1264 O1286 1.240 . S
C1264 O1287 1.264 . S
O1265 Mn1260 2.095 . S
O1265 C1274 1.250 . S
O1266 Mn1261 2.121 . S
O1266 C1274 1.258 . S
C1267 N1268 1.326 . S
C1267 C1271 1.460 . S
C1267 H1273 0.929 . S
N1268 Mn1261 2.257 . S
N1268 C1267 1.326 . S
N1268 C1272 1.362 . S
C1269 C1270 1.258 . S
C1269 C1272 1.431 . S
C1269 C1289 1.449 . S
C1270 C1269 1.258 . S
C1270 C1271 1.477 . S
C1270 H1290 0.931 . S
C1271 C1267 1.460 . S
C1271 C1270 1.477 . S
C1271 H1291 0.930 . S
C1272 N1268 1.362 . S
C1272 C1269 1.431 . S
C1272 C1282 1.476 . S
H1273 C1267 0.929 . S
C1274 O1265 1.250 . S
C1274 O1266 1.258 . S
O1275 Mn1260 2.162 . S
O1275 C1263 1.281 . S
O1276 Mn1260 2.297 . S
O1276 C1263 1.236 . S
N1277 Mn1261 2.282 . S
N1277 C1278 1.328 . S
N1277 C1282 1.318 . S
C1278 N1277 1.328 . S
C1278 C1279 1.457 . S
C1278 H1283 0.929 . S
C1279 C1278 1.457 . S
C1279 C1280 1.291 . S
C1279 H1292 0.931 . S
C1280 C1279 1.291 . S
C1280 C1281 1.373 . S
C1280 H1293 0.929 . S
C1281 C1280 1.373 . S
C1281 C1282 1.396 . S
C1281 C1288 1.403 . S
C1282 C1272 1.476 . S
C1282 N1277 1.318 . S
C1282 C1281 1.396 . S
H1283 C1278 0.929 . S
O1284 Mn1260 2.385 . S
O1284 C1262 1.234 . S
O1285 Mn1260 2.209 . S
O1285 Mn1261 2.215 . S
O1285 C1262 1.283 . S
O1286 Mn1260 2.094 . S
O1286 C1264 1.240 . S
O1287 Mn1261 2.117 . S
O1287 C1264 1.264 . S
C1288 C1281 1.403 . S
C1288 C1289 1.399 . S
C1288 H1294 0.929 . S
C1289 C1269 1.449 . S
C1289 C1288 1.399 . S
C1289 H1295 0.930 . S
H1290 C1270 0.931 . S
H1291 C1271 0.930 . S
H1292 C1279 0.931 . S
H1293 C1280 0.929 . S
H1294 C1288 0.929 . S
H1295 C1289 0.930 . S
Mn1296 O1301 2.095 . S
Mn1296 O1311 2.162 . S
Mn1296 O1312 2.297 . S
Mn1296 O1320 2.385 . S
Mn1296 O1321 2.209 . S
Mn1296 O1322 2.094 . S
Mn1297 O1302 2.121 . S
Mn1297 N1304 2.257 . S
Mn1297 N1313 2.282 . S
Mn1297 O1321 2.215 . S
Mn1297 O1323 2.117 . S
C1298 O1320 1.234 . S
C1298 O1321 1.283 . S
C1299 O1311 1.281 . S
C1299 O1312 1.236 . S
C1300 O1322 1.240 . S
C1300 O1323 1.264 . S
O1301 Mn1296 2.095 . S
O1301 C1310 1.250 . S
O1302 Mn1297 2.121 . S
O1302 C1310 1.258 . S
C1303 N1304 1.326 . S
C1303 C1307 1.460 . S
C1303 H1309 0.929 . S
N1304 Mn1297 2.257 . S
N1304 C1303 1.326 . S
N1304 C1308 1.362 . S
C1305 C1306 1.258 . S
C1305 C1308 1.431 . S
C1305 C1325 1.449 . S
C1306 C1305 1.258 . S
C1306 C1307 1.477 . S
C1306 H1326 0.931 . S
C1307 C1303 1.460 . S
C1307 C1306 1.477 . S
C1307 H1327 0.930 . S
C1308 N1304 1.362 . S
C1308 C1305 1.431 . S
C1308 C1318 1.476 . S
H1309 C1303 0.929 . S
C1310 O1301 1.250 . S
C1310 O1302 1.258 . S
O1311 Mn1296 2.162 . S
O1311 C1299 1.281 . S
O1312 Mn1296 2.297 . S
O1312 C1299 1.236 . S
N1313 Mn1297 2.282 . S
N1313 C1314 1.328 . S
N1313 C1318 1.318 . S
C1314 N1313 1.328 . S
C1314 C1315 1.457 . S
C1314 H1319 0.929 . S
C1315 C1314 1.457 . S
C1315 C1316 1.291 . S
C1315 H1328 0.931 . S
C1316 C1315 1.291 . S
C1316 C1317 1.373 . S
C1316 H1329 0.929 . S
C1317 C1316 1.373 . S
C1317 C1318 1.396 . S
C1317 C1324 1.403 . S
C1318 C1308 1.476 . S
C1318 N1313 1.318 . S
C1318 C1317 1.396 . S
H1319 C1314 0.929 . S
O1320 Mn1296 2.385 . S
O1320 C1298 1.234 . S
O1321 Mn1296 2.209 . S
O1321 Mn1297 2.215 . S
O1321 C1298 1.283 . S
O1322 Mn1296 2.094 . S
O1322 C1300 1.240 . S
O1323 Mn1297 2.117 . S
O1323 C1300 1.264 . S
C1324 C1317 1.403 . S
C1324 C1325 1.399 . S
C1324 H1330 0.929 . S
C1325 C1305 1.449 . S
C1325 C1324 1.399 . S
C1325 H1331 0.930 . S
H1326 C1306 0.931 . S
H1327 C1307 0.930 . S
H1328 C1315 0.931 . S
H1329 C1316 0.929 . S
H1330 C1324 0.929 . S
H1331 C1325 0.930 . S
Mn1332 O1337 2.095 . S
Mn1332 O1347 2.162 . S
Mn1332 O1348 2.297 . S
Mn1332 O1356 2.385 . S
Mn1332 O1357 2.209 . S
Mn1332 O1358 2.094 . S
Mn1333 O1338 2.121 . S
Mn1333 N1340 2.257 . S
Mn1333 N1349 2.282 . S
Mn1333 O1357 2.215 . S
Mn1333 O1359 2.117 . S
C1334 O1356 1.234 . S
C1334 O1357 1.283 . S
C1335 O1347 1.281 . S
C1335 O1348 1.236 . S
C1336 O1358 1.240 . S
C1336 O1359 1.264 . S
O1337 Mn1332 2.095 . S
O1337 C1346 1.250 . S
O1338 Mn1333 2.121 . S
O1338 C1346 1.258 . S
C1339 N1340 1.326 . S
C1339 C1343 1.460 . S
C1339 H1345 0.929 . S
N1340 Mn1333 2.257 . S
N1340 C1339 1.326 . S
N1340 C1344 1.362 . S
C1341 C1342 1.258 . S
C1341 C1344 1.431 . S
C1341 C1361 1.449 . S
C1342 C1341 1.258 . S
C1342 C1343 1.477 . S
C1342 H1362 0.931 . S
C1343 C1339 1.460 . S
C1343 C1342 1.477 . S
C1343 H1363 0.930 . S
C1344 N1340 1.362 . S
C1344 C1341 1.431 . S
C1344 C1354 1.476 . S
H1345 C1339 0.929 . S
C1346 O1337 1.250 . S
C1346 O1338 1.258 . S
O1347 Mn1332 2.162 . S
O1347 C1335 1.281 . S
O1348 Mn1332 2.297 . S
O1348 C1335 1.236 . S
N1349 Mn1333 2.282 . S
N1349 C1350 1.328 . S
N1349 C1354 1.318 . S
C1350 N1349 1.328 . S
C1350 C1351 1.457 . S
C1350 H1355 0.929 . S
C1351 C1350 1.457 . S
C1351 C1352 1.291 . S
C1351 H1364 0.931 . S
C1352 C1351 1.291 . S
C1352 C1353 1.373 . S
C1352 H1365 0.929 . S
C1353 C1352 1.373 . S
C1353 C1354 1.396 . S
C1353 C1360 1.403 . S
C1354 C1344 1.476 . S
C1354 N1349 1.318 . S
C1354 C1353 1.396 . S
H1355 C1350 0.929 . S
O1356 Mn1332 2.385 . S
O1356 C1334 1.234 . S
O1357 Mn1332 2.209 . S
O1357 Mn1333 2.215 . S
O1357 C1334 1.283 . S
O1358 Mn1332 2.094 . S
O1358 C1336 1.240 . S
O1359 Mn1333 2.117 . S
O1359 C1336 1.264 . S
C1360 C1353 1.403 . S
C1360 C1361 1.399 . S
C1360 H1366 0.929 . S
C1361 C1341 1.449 . S
C1361 C1360 1.399 . S
C1361 H1367 0.930 . S
H1362 C1342 0.931 . S
H1363 C1343 0.930 . S
H1364 C1351 0.931 . S
H1365 C1352 0.929 . S
H1366 C1360 0.929 . S
H1367 C1361 0.930 . S
Mn1368 O1373 2.095 . S
Mn1368 O1383 2.162 . S
Mn1368 O1384 2.297 . S
Mn1368 O1392 2.385 . S
Mn1368 O1393 2.209 . S
Mn1368 O1394 2.094 . S
Mn1369 O1374 2.121 . S
Mn1369 N1376 2.257 . S
Mn1369 N1385 2.282 . S
Mn1369 O1393 2.215 . S
Mn1369 O1395 2.117 . S
C1370 O1392 1.234 . S
C1370 O1393 1.283 . S
C1371 O1383 1.281 . S
C1371 O1384 1.236 . S
C1372 O1394 1.240 . S
C1372 O1395 1.264 . S
O1373 Mn1368 2.095 . S
O1373 C1382 1.250 . S
O1374 Mn1369 2.121 . S
O1374 C1382 1.258 . S
C1375 N1376 1.326 . S
C1375 C1379 1.460 . S
C1375 H1381 0.929 . S
N1376 Mn1369 2.257 . S
N1376 C1375 1.326 . S
N1376 C1380 1.362 . S
C1377 C1378 1.258 . S
C1377 C1380 1.431 . S
C1377 C1397 1.449 1_565 S
C1378 C1377 1.258 . S
C1378 C1379 1.477 . S
C1378 H1398 0.931 . S
C1379 C1375 1.460 . S
C1379 C1378 1.477 . S
C1379 H1399 0.930 . S
C1380 N1376 1.362 . S
C1380 C1377 1.431 . S
C1380 C1390 1.476 . S
H1381 C1375 0.929 . S
C1382 O1373 1.250 . S
C1382 O1374 1.258 . S
O1383 Mn1368 2.162 . S
O1383 C1371 1.281 . S
O1384 Mn1368 2.297 . S
O1384 C1371 1.236 . S
N1385 Mn1369 2.282 . S
N1385 C1386 1.328 . S
N1385 C1390 1.318 . S
C1386 N1385 1.328 . S
C1386 C1387 1.457 . S
C1386 H1391 0.929 . S
C1387 C1386 1.457 . S
C1387 C1388 1.291 1_565 S
C1387 H1400 0.931 . S
C1388 C1387 1.291 1_545 S
C1388 C1389 1.373 1_545 S
C1388 H1401 0.929 . S
C1389 C1388 1.373 1_565 S
C1389 C1390 1.396 . S
C1389 C1396 1.403 1_565 S
C1390 C1380 1.476 . S
C1390 N1385 1.318 . S
C1390 C1389 1.396 . S
H1391 C1386 0.929 . S
O1392 Mn1368 2.385 . S
O1392 C1370 1.234 . S
O1393 Mn1368 2.209 . S
O1393 Mn1369 2.215 . S
O1393 C1370 1.283 . S
O1394 Mn1368 2.094 . S
O1394 C1372 1.240 . S
O1395 Mn1369 2.117 . S
O1395 C1372 1.264 . S
C1396 C1389 1.403 1_545 S
C1396 C1397 1.399 . S
C1396 H1402 0.929 . S
C1397 C1377 1.449 1_545 S
C1397 C1396 1.399 . S
C1397 H1403 0.930 . S
H1398 C1378 0.931 . S
H1399 C1379 0.930 . S
H1400 C1387 0.931 . S
H1401 C1388 0.929 . S
H1402 C1396 0.929 . S
H1403 C1397 0.930 . S
Mn1404 O1409 2.095 . S
Mn1404 O1419 2.162 . S
Mn1404 O1420 2.297 . S
Mn1404 O1428 2.385 . S
Mn1404 O1429 2.209 . S
Mn1404 O1430 2.094 . S
Mn1405 O1410 2.121 . S
Mn1405 N1412 2.257 . S
Mn1405 N1421 2.282 . S
Mn1405 O1429 2.215 . S
Mn1405 O1431 2.117 . S
C1406 O1428 1.234 . S
C1406 O1429 1.283 . S
C1407 O1419 1.281 . S
C1407 O1420 1.236 . S
C1408 O1430 1.240 . S
C1408 O1431 1.264 . S
O1409 Mn1404 2.095 . S
O1409 C1418 1.250 . S
O1410 Mn1405 2.121 . S
O1410 C1418 1.258 . S
C1411 N1412 1.326 . S
C1411 C1415 1.460 . S
C1411 H1417 0.929 . S
N1412 Mn1405 2.257 . S
N1412 C1411 1.326 . S
N1412 C1416 1.362 . S
C1413 C1414 1.258 . S
C1413 C1416 1.431 . S
C1413 C1433 1.449 . S
C1414 C1413 1.258 . S
C1414 C1415 1.477 . S
C1414 H1434 0.931 . S
C1415 C1411 1.460 . S
C1415 C1414 1.477 . S
C1415 H1435 0.930 . S
C1416 N1412 1.362 . S
C1416 C1413 1.431 . S
C1416 C1426 1.476 . S
H1417 C1411 0.929 . S
C1418 O1409 1.250 . S
C1418 O1410 1.258 . S
O1419 Mn1404 2.162 . S
O1419 C1407 1.281 . S
O1420 Mn1404 2.297 . S
O1420 C1407 1.236 . S
N1421 Mn1405 2.282 . S
N1421 C1422 1.328 . S
N1421 C1426 1.318 . S
C1422 N1421 1.328 . S
C1422 C1423 1.457 . S
C1422 H1427 0.929 . S
C1423 C1422 1.457 . S
C1423 C1424 1.291 . S
C1423 H1436 0.931 . S
C1424 C1423 1.291 . S
C1424 C1425 1.373 . S
C1424 H1437 0.929 . S
C1425 C1424 1.373 . S
C1425 C1426 1.396 . S
C1425 C1432 1.403 . S
C1426 C1416 1.476 . S
C1426 N1421 1.318 . S
C1426 C1425 1.396 . S
H1427 C1422 0.929 . S
O1428 Mn1404 2.385 . S
O1428 C1406 1.234 . S
O1429 Mn1404 2.209 . S
O1429 Mn1405 2.215 . S
O1429 C1406 1.283 . S
O1430 Mn1404 2.094 . S
O1430 C1408 1.240 . S
O1431 Mn1405 2.117 . S
O1431 C1408 1.264 . S
C1432 C1425 1.403 . S
C1432 C1433 1.399 . S
C1432 H1438 0.929 . S
C1433 C1413 1.449 . S
C1433 C1432 1.399 . S
C1433 H1439 0.930 . S
H1434 C1414 0.931 . S
H1435 C1415 0.930 . S
H1436 C1423 0.931 . S
H1437 C1424 0.929 . S
H1438 C1432 0.929 . S
H1439 C1433 0.930 . S
Mn1440 O1445 2.095 . S
Mn1440 O1455 2.162 . S
Mn1440 O1456 2.297 . S
Mn1440 O1464 2.385 . S
Mn1440 O1465 2.209 . S
Mn1440 O1466 2.094 . S
Mn1441 O1446 2.121 . S
Mn1441 N1448 2.257 . S
Mn1441 N1457 2.282 . S
Mn1441 O1465 2.215 . S
Mn1441 O1467 2.117 . S
C1442 O1464 1.234 . S
C1442 O1465 1.283 . S
C1443 O1455 1.281 . S
C1443 O1456 1.236 . S
C1444 O1466 1.240 . S
C1444 O1467 1.264 . S
O1445 Mn1440 2.095 . S
O1445 C1454 1.250 . S
O1446 Mn1441 2.121 . S
O1446 C1454 1.258 . S
C1447 N1448 1.326 . S
C1447 C1451 1.460 . S
C1447 H1453 0.929 . S
N1448 Mn1441 2.257 . S
N1448 C1447 1.326 . S
N1448 C1452 1.362 . S
C1449 C1450 1.258 . S
C1449 C1452 1.431 . S
C1449 C1469 1.439 1_556 S
C1450 C1449 1.258 . S
C1450 C1451 1.477 . S
C1450 H1470 0.931 . S
C1451 C1447 1.460 . S
C1451 C1450 1.477 . S
C1451 H1471 0.930 . S
C1452 N1448 1.362 . S
C1452 C1449 1.431 . S
C1452 C1462 1.476 . S
H1453 C1447 0.929 . S
C1454 O1445 1.250 . S
C1454 O1446 1.258 . S
O1455 Mn1440 2.162 . S
O1455 C1443 1.281 . S
O1456 Mn1440 2.297 . S
O1456 C1443 1.236 . S
N1457 Mn1441 2.282 . S
N1457 C1458 1.328 . S
N1457 C1462 1.318 . S
C1458 N1457 1.328 . S
C1458 C1459 1.457 . S
C1458 H1463 0.929 . S
C1459 C1458 1.457 . S
C1459 C1460 1.278 1_556 S
C1459 H1472 0.931 . S
C1460 C1459 1.278 1_554 S
C1460 C1461 1.366 1_554 S
C1460 H1473 0.949 . S
C1461 C1460 1.366 1_556 S
C1461 C1462 1.396 . S
C1461 C1468 1.403 1_556 S
C1462 C1452 1.476 . S
C1462 N1457 1.318 . S
C1462 C1461 1.396 . S
H1463 C1458 0.929 . S
O1464 Mn1440 2.385 . S
O1464 C1442 1.234 . S
O1465 Mn1440 2.209 . S
O1465 Mn1441 2.215 . S
O1465 C1442 1.283 . S
O1466 Mn1440 2.094 . S
O1466 C1444 1.240 . S
O1467 Mn1441 2.117 . S
O1467 C1444 1.264 . S
C1468 C1461 1.403 1_554 S
C1468 C1469 1.403 . S
C1468 H1474 0.929 . S
C1469 C1449 1.439 1_554 S
C1469 C1468 1.403 . S
C1469 H1475 0.937 . S
H1470 C1450 0.931 . S
H1471 C1451 0.930 . S
H1472 C1459 0.931 . S
H1473 C1460 0.949 . S
H1474 C1468 0.929 . S
H1475 C1469 0.937 . S
Mn1476 O1481 2.095 . S
Mn1476 O1491 2.162 . S
Mn1476 O1492 2.297 . S
Mn1476 O1500 2.385 . S
Mn1476 O1501 2.209 . S
Mn1476 O1502 2.094 . S
Mn1477 O1482 2.121 . S
Mn1477 N1484 2.257 . S
Mn1477 N1493 2.282 . S
Mn1477 O1501 2.215 . S
Mn1477 O1503 2.117 . S
C1478 O1500 1.234 . S
C1478 O1501 1.283 . S
C1479 O1491 1.281 . S
C1479 O1492 1.236 . S
C1480 O1502 1.240 . S
C1480 O1503 1.264 . S
O1481 Mn1476 2.095 . S
O1481 C1490 1.250 . S
O1482 Mn1477 2.121 . S
O1482 C1490 1.258 . S
C1483 N1484 1.326 . S
C1483 C1487 1.460 . S
C1483 H1489 0.929 . S
N1484 Mn1477 2.257 . S
N1484 C1483 1.326 . S
N1484 C1488 1.362 . S
C1485 C1486 1.258 . S
C1485 C1488 1.431 . S
C1485 C1505 1.449 . S
C1486 C1485 1.258 . S
C1486 C1487 1.477 . S
C1486 H1506 0.931 . S
C1487 C1483 1.460 . S
C1487 C1486 1.477 . S
C1487 H1507 0.930 . S
C1488 N1484 1.362 . S
C1488 C1485 1.431 . S
C1488 C1498 1.476 . S
H1489 C1483 0.929 . S
C1490 O1481 1.250 . S
C1490 O1482 1.258 . S
O1491 Mn1476 2.162 . S
O1491 C1479 1.281 . S
O1492 Mn1476 2.297 . S
O1492 C1479 1.236 . S
N1493 Mn1477 2.282 . S
N1493 C1494 1.328 . S
N1493 C1498 1.318 . S
C1494 N1493 1.328 . S
C1494 C1495 1.457 . S
C1494 H1499 0.929 . S
C1495 C1494 1.457 . S
C1495 C1496 1.291 . S
C1495 H1508 0.931 . S
C1496 C1495 1.291 . S
C1496 C1497 1.373 . S
C1496 H1509 0.929 . S
C1497 C1496 1.373 . S
C1497 C1498 1.396 . S
C1497 C1504 1.403 . S
C1498 C1488 1.476 . S
C1498 N1493 1.318 . S
C1498 C1497 1.396 . S
H1499 C1494 0.929 . S
O1500 Mn1476 2.385 . S
O1500 C1478 1.234 . S
O1501 Mn1476 2.209 . S
O1501 Mn1477 2.215 . S
O1501 C1478 1.283 . S
O1502 Mn1476 2.094 . S
O1502 C1480 1.240 . S
O1503 Mn1477 2.117 . S
O1503 C1480 1.264 . S
C1504 C1497 1.403 . S
C1504 C1505 1.399 . S
C1504 H1510 0.929 . S
C1505 C1485 1.449 . S
C1505 C1504 1.399 . S
C1505 H1511 0.930 . S
H1506 C1486 0.931 . S
H1507 C1487 0.930 . S
H1508 C1495 0.931 . S
H1509 C1496 0.929 . S
H1510 C1504 0.929 . S
H1511 C1505 0.930 . S
Mn1512 O1517 2.095 . S
Mn1512 O1527 2.162 . S
Mn1512 O1528 2.297 . S
Mn1512 O1536 2.385 . S
Mn1512 O1537 2.209 . S
Mn1512 O1538 2.094 . S
Mn1513 O1518 2.121 . S
Mn1513 N1520 2.257 . S
Mn1513 N1529 2.282 . S
Mn1513 O1537 2.215 . S
Mn1513 O1539 2.117 . S
C1514 O1536 1.234 . S
C1514 O1537 1.283 . S
C1515 O1527 1.281 . S
C1515 O1528 1.236 . S
C1516 O1538 1.240 . S
C1516 O1539 1.264 . S
O1517 Mn1512 2.095 . S
O1517 C1526 1.250 . S
O1518 Mn1513 2.121 . S
O1518 C1526 1.258 . S
C1519 N1520 1.326 . S
C1519 C1523 1.460 . S
C1519 H1525 0.929 . S
N1520 Mn1513 2.257 . S
N1520 C1519 1.326 . S
N1520 C1524 1.362 . S
C1521 C1522 1.258 . S
C1521 C1524 1.431 . S
C1521 C1541 1.449 1_554 S
C1522 C1521 1.258 . S
C1522 C1523 1.477 . S
C1522 H1542 0.931 . S
C1523 C1519 1.460 . S
C1523 C1522 1.477 . S
C1523 H1543 0.930 . S
C1524 N1520 1.362 . S
C1524 C1521 1.431 . S
C1524 C1534 1.476 . S
H1525 C1519 0.929 . S
C1526 O1517 1.250 . S
C1526 O1518 1.258 . S
O1527 Mn1512 2.162 . S
O1527 C1515 1.281 . S
O1528 Mn1512 2.297 . S
O1528 C1515 1.236 . S
N1529 Mn1513 2.282 . S
N1529 C1530 1.328 . S
N1529 C1534 1.318 . S
C1530 N1529 1.328 . S
C1530 C1531 1.457 . S
C1530 H1535 0.929 . S
C1531 C1530 1.457 . S
C1531 C1532 1.291 1_554 S
C1531 H1544 0.931 . S
C1532 C1531 1.291 1_556 S
C1532 C1533 1.373 1_556 S
C1532 H1545 0.929 . S
C1533 C1532 1.373 1_554 S
C1533 C1534 1.396 . S
C1533 C1540 1.403 1_554 S
C1534 C1524 1.476 . S
C1534 N1529 1.318 . S
C1534 C1533 1.396 . S
H1535 C1530 0.929 . S
O1536 Mn1512 2.385 . S
O1536 C1514 1.234 . S
O1537 Mn1512 2.209 . S
O1537 Mn1513 2.215 . S
O1537 C1514 1.283 . S
O1538 Mn1512 2.094 . S
O1538 C1516 1.240 . S
O1539 Mn1513 2.117 . S
O1539 C1516 1.264 . S
C1540 C1533 1.403 1_556 S
C1540 C1541 1.399 . S
C1540 H1546 0.929 . S
C1541 C1521 1.449 1_556 S
C1541 C1540 1.399 . S
C1541 H1547 0.930 . S
H1542 C1522 0.931 . S
H1543 C1523 0.930 . S
H1544 C1531 0.931 . S
H1545 C1532 0.929 . S
H1546 C1540 0.929 . S
H1547 C1541 0.930 . S
Mn1548 O1553 2.095 . S
Mn1548 O1563 2.162 . S
Mn1548 O1564 2.297 . S
Mn1548 O1572 2.385 . S
Mn1548 O1573 2.209 . S
Mn1548 O1574 2.094 . S
Mn1549 O1554 2.121 . S
Mn1549 N1556 2.257 . S
Mn1549 N1565 2.282 . S
Mn1549 O1573 2.215 . S
Mn1549 O1575 2.117 . S
C1550 O1572 1.234 . S
C1550 O1573 1.283 . S
C1551 O1563 1.281 . S
C1551 O1564 1.236 . S
C1552 O1574 1.240 . S
C1552 O1575 1.264 . S
O1553 Mn1548 2.095 . S
O1553 C1562 1.250 . S
O1554 Mn1549 2.121 . S
O1554 C1562 1.258 . S
C1555 N1556 1.326 . S
C1555 C1559 1.460 . S
C1555 H1561 0.929 . S
N1556 Mn1549 2.257 . S
N1556 C1555 1.326 . S
N1556 C1560 1.362 . S
C1557 C1558 1.258 . S
C1557 C1560 1.431 . S
C1557 C1577 1.449 . S
C1558 C1557 1.258 . S
C1558 C1559 1.477 . S
C1558 H1578 0.931 . S
C1559 C1555 1.460 . S
C1559 C1558 1.477 . S
C1559 H1579 0.930 . S
C1560 N1556 1.362 . S
C1560 C1557 1.431 . S
C1560 C1570 1.476 . S
H1561 C1555 0.929 . S
C1562 O1553 1.250 . S
C1562 O1554 1.258 . S
O1563 Mn1548 2.162 . S
O1563 C1551 1.281 . S
O1564 Mn1548 2.297 . S
O1564 C1551 1.236 . S
N1565 Mn1549 2.282 . S
N1565 C1566 1.328 . S
N1565 C1570 1.318 . S
C1566 N1565 1.328 . S
C1566 C1567 1.457 . S
C1566 H1571 0.929 . S
C1567 C1566 1.457 . S
C1567 C1568 1.291 . S
C1567 H1580 0.931 . S
C1568 C1567 1.291 . S
C1568 C1569 1.373 . S
C1568 H1581 0.929 . S
C1569 C1568 1.373 . S
C1569 C1570 1.396 . S
C1569 C1576 1.403 . S
C1570 C1560 1.476 . S
C1570 N1565 1.318 . S
C1570 C1569 1.396 . S
H1571 C1566 0.929 . S
O1572 Mn1548 2.385 . S
O1572 C1550 1.234 . S
O1573 Mn1548 2.209 . S
O1573 Mn1549 2.215 . S
O1573 C1550 1.283 . S
O1574 Mn1548 2.094 . S
O1574 C1552 1.240 . S
O1575 Mn1549 2.117 . S
O1575 C1552 1.264 . S
C1576 C1569 1.403 . S
C1576 C1577 1.399 . S
C1576 H1582 0.929 . S
C1577 C1557 1.449 . S
C1577 C1576 1.399 . S
C1577 H1583 0.930 . S
H1578 C1558 0.931 . S
H1579 C1559 0.930 . S
H1580 C1567 0.931 . S
H1581 C1568 0.929 . S
H1582 C1576 0.929 . S
H1583 C1577 0.930 . S
Mn1584 O1589 2.095 . S
Mn1584 O1599 2.162 . S
Mn1584 O1600 2.297 . S
Mn1584 O1608 2.385 . S
Mn1584 O1609 2.209 . S
Mn1584 O1610 2.094 . S
Mn1585 O1590 2.121 . S
Mn1585 N1592 2.257 . S
Mn1585 N1601 2.282 . S
Mn1585 O1609 2.215 . S
Mn1585 O1611 2.117 . S
C1586 O1608 1.234 . S
C1586 O1609 1.283 . S
C1587 O1599 1.281 . S
C1587 O1600 1.236 . S
C1588 O1610 1.240 . S
C1588 O1611 1.264 . S
O1589 Mn1584 2.095 . S
O1589 C1598 1.250 . S
O1590 Mn1585 2.121 . S
O1590 C1598 1.258 . S
C1591 N1592 1.326 . S
C1591 C1595 1.460 . S
C1591 H1597 0.929 . S
N1592 Mn1585 2.257 . S
N1592 C1591 1.326 . S
N1592 C1596 1.362 . S
C1593 C1594 1.258 . S
C1593 C1596 1.431 . S
C1593 C1613 1.422 1_554 S
C1594 C1593 1.258 . S
C1594 C1595 1.477 . S
C1594 H1614 0.931 . S
C1595 C1591 1.460 . S
C1595 C1594 1.477 . S
C1595 H1615 0.930 . S
C1596 N1592 1.362 . S
C1596 C1593 1.431 . S
C1596 C1606 1.476 . S
H1597 C1591 0.929 . S
C1598 O1589 1.250 . S
C1598 O1590 1.258 . S
O1599 Mn1584 2.162 . S
O1599 C1587 1.281 . S
O1600 Mn1584 2.297 . S
O1600 C1587 1.236 . S
N1601 Mn1585 2.282 . S
N1601 C1602 1.328 . S
N1601 C1606 1.318 . S
C1602 N1601 1.328 . S
C1602 C1603 1.457 . S
C1602 H1607 0.929 . S
C1603 C1602 1.457 . S
C1603 C1604 1.291 1_554 S
C1603 H1616 0.931 . S
C1604 C1603 1.291 1_556 S
C1604 C1605 1.373 1_556 S
C1604 H1617 0.929 . S
C1605 C1604 1.373 1_554 S
C1605 C1606 1.396 . S
C1605 C1612 1.403 1_554 S
C1606 C1596 1.476 . S
C1606 N1601 1.318 . S
C1606 C1605 1.396 . S
H1607 C1602 0.929 . S
O1608 Mn1584 2.385 . S
O1608 C1586 1.234 . S
O1609 Mn1584 2.209 . S
O1609 Mn1585 2.215 . S
O1609 C1586 1.283 . S
O1610 Mn1584 2.094 . S
O1610 C1588 1.240 . S
O1611 Mn1585 2.117 . S
O1611 C1588 1.264 . S
C1612 C1605 1.403 1_556 S
C1612 C1613 1.410 . S
C1612 H1618 0.929 . S
C1613 C1593 1.422 1_556 S
C1613 C1612 1.410 . S
C1613 H1619 0.948 . S
H1614 C1594 0.931 . S
H1615 C1595 0.930 . S
H1616 C1603 0.931 . S
H1617 C1604 0.929 . S
H1618 C1612 0.929 . S
H1619 C1613 0.948 . S
Mn1620 O1625 2.095 . S
Mn1620 O1635 2.162 . S
Mn1620 O1636 2.297 . S
Mn1620 O1644 2.385 . S
Mn1620 O1645 2.209 . S
Mn1620 O1646 2.094 . S
Mn1621 O1626 2.121 . S
Mn1621 N1628 2.257 . S
Mn1621 N1637 2.282 . S
Mn1621 O1645 2.215 . S
Mn1621 O1647 2.117 . S
C1622 O1644 1.234 . S
C1622 O1645 1.283 . S
C1623 O1635 1.281 . S
C1623 O1636 1.236 . S
C1624 O1646 1.240 . S
C1624 O1647 1.264 . S
O1625 Mn1620 2.095 . S
O1625 C1634 1.250 . S
O1626 Mn1621 2.121 . S
O1626 C1634 1.258 . S
C1627 N1628 1.326 . S
C1627 C1631 1.460 . S
C1627 H1633 0.929 . S
N1628 Mn1621 2.257 . S
N1628 C1627 1.326 . S
N1628 C1632 1.362 . S
C1629 C1630 1.258 . S
C1629 C1632 1.431 . S
C1629 C1649 1.449 1_556 S
C1630 C1629 1.258 . S
C1630 C1631 1.477 . S
C1630 H1650 0.931 . S
C1631 C1627 1.460 . S
C1631 C1630 1.477 . S
C1631 H1651 0.930 . S
C1632 N1628 1.362 . S
C1632 C1629 1.431 . S
C1632 C1642 1.476 . S
H1633 C1627 0.929 . S
C1634 O1625 1.250 . S
C1634 O1626 1.258 . S
O1635 Mn1620 2.162 . S
O1635 C1623 1.281 . S
O1636 Mn1620 2.297 . S
O1636 C1623 1.236 . S
N1637 Mn1621 2.282 . S
N1637 C1638 1.328 . S
N1637 C1642 1.318 . S
C1638 N1637 1.328 . S
C1638 C1639 1.457 . S
C1638 H1643 0.929 . S
C1639 C1638 1.457 . S
C1639 C1640 1.291 1_556 S
C1639 H1652 0.931 . S
C1640 C1639 1.291 1_554 S
C1640 C1641 1.373 1_554 S
C1640 H1653 0.929 . S
C1641 C1640 1.373 1_556 S
C1641 C1642 1.396 . S
C1641 C1648 1.403 1_556 S
C1642 C1632 1.476 . S
C1642 N1637 1.318 . S
C1642 C1641 1.396 . S
H1643 C1638 0.929 . S
O1644 Mn1620 2.385 . S
O1644 C1622 1.234 . S
O1645 Mn1620 2.209 . S
O1645 Mn1621 2.215 . S
O1645 C1622 1.283 . S
O1646 Mn1620 2.094 . S
O1646 C1624 1.240 . S
O1647 Mn1621 2.117 . S
O1647 C1624 1.264 . S
C1648 C1641 1.403 1_554 S
C1648 C1649 1.399 . S
C1648 H1654 0.929 . S
C1649 C1629 1.449 1_554 S
C1649 C1648 1.399 . S
C1649 H1655 0.930 . S
H1650 C1630 0.931 . S
H1651 C1631 0.930 . S
H1652 C1639 0.931 . S
H1653 C1640 0.929 . S
H1654 C1648 0.929 . S
H1655 C1649 0.930 . S
Mn1656 O1661 2.095 . S
Mn1656 O1671 2.162 . S
Mn1656 O1672 2.297 . S
Mn1656 O1680 2.385 . S
Mn1656 O1681 2.209 . S
Mn1656 O1682 2.094 . S
Mn1657 O1662 2.121 . S
Mn1657 N1664 2.257 . S
Mn1657 N1673 2.282 . S
Mn1657 O1681 2.215 . S
Mn1657 O1683 2.117 . S
C1658 O1680 1.234 . S
C1658 O1681 1.283 . S
C1659 O1671 1.281 . S
C1659 O1672 1.236 . S
C1660 O1682 1.240 . S
C1660 O1683 1.264 . S
O1661 Mn1656 2.095 . S
O1661 C1670 1.250 . S
O1662 Mn1657 2.121 . S
O1662 C1670 1.258 . S
C1663 N1664 1.326 . S
C1663 C1667 1.460 . S
C1663 H1669 0.929 . S
N1664 Mn1657 2.257 . S
N1664 C1663 1.326 . S
N1664 C1668 1.362 . S
C1665 C1666 1.258 . S
C1665 C1668 1.431 . S
C1665 C1685 1.449 . S
C1666 C1665 1.258 . S
C1666 C1667 1.477 . S
C1666 H1686 0.931 . S
C1667 C1663 1.460 . S
C1667 C1666 1.477 . S
C1667 H1687 0.930 . S
C1668 N1664 1.362 . S
C1668 C1665 1.431 . S
C1668 C1678 1.476 . S
H1669 C1663 0.929 . S
C1670 O1661 1.250 . S
C1670 O1662 1.258 . S
O1671 Mn1656 2.162 . S
O1671 C1659 1.281 . S
O1672 Mn1656 2.297 . S
O1672 C1659 1.236 . S
N1673 Mn1657 2.282 . S
N1673 C1674 1.328 . S
N1673 C1678 1.318 . S
C1674 N1673 1.328 . S
C1674 C1675 1.457 . S
C1674 H1679 0.929 . S
C1675 C1674 1.457 . S
C1675 C1676 1.291 . S
C1675 H1688 0.931 . S
C1676 C1675 1.291 . S
C1676 C1677 1.373 . S
C1676 H1689 0.929 . S
C1677 C1676 1.373 . S
C1677 C1678 1.396 . S
C1677 C1684 1.403 . S
C1678 C1668 1.476 . S
C1678 N1673 1.318 . S
C1678 C1677 1.396 . S
H1679 C1674 0.929 . S
O1680 Mn1656 2.385 . S
O1680 C1658 1.234 . S
O1681 Mn1656 2.209 . S
O1681 Mn1657 2.215 . S
O1681 C1658 1.283 . S
O1682 Mn1656 2.094 . S
O1682 C1660 1.240 . S
O1683 Mn1657 2.117 . S
O1683 C1660 1.264 . S
C1684 C1677 1.403 . S
C1684 C1685 1.399 . S
C1684 H1690 0.929 . S
C1685 C1665 1.449 . S
C1685 C1684 1.399 . S
C1685 H1691 0.930 . S
H1686 C1666 0.931 . S
H1687 C1667 0.930 . S
H1688 C1675 0.931 . S
H1689 C1676 0.929 . S
H1690 C1684 0.929 . S
H1691 C1685 0.930 . S
Mn1692 O1697 2.095 . S
Mn1692 O1707 2.162 . S
Mn1692 O1708 2.297 . S
Mn1692 O1716 2.385 . S
Mn1692 O1717 2.209 . S
Mn1692 O1718 2.094 . S
Mn1693 O1698 2.121 . S
Mn1693 N1700 2.257 . S
Mn1693 N1709 2.282 . S
Mn1693 O1717 2.215 . S
Mn1693 O1719 2.117 . S
C1694 O1716 1.234 . S
C1694 O1717 1.283 . S
C1695 O1707 1.281 . S
C1695 O1708 1.236 . S
C1696 O1718 1.240 . S
C1696 O1719 1.264 . S
O1697 Mn1692 2.095 . S
O1697 C1706 1.250 . S
O1698 Mn1693 2.121 . S
O1698 C1706 1.258 . S
C1699 N1700 1.326 . S
C1699 C1703 1.460 . S
C1699 H1705 0.929 . S
N1700 Mn1693 2.257 . S
N1700 C1699 1.326 . S
N1700 C1704 1.362 . S
C1701 C1702 1.258 . S
C1701 C1704 1.431 . S
C1701 C1721 1.449 . S
C1702 C1701 1.258 . S
C1702 C1703 1.477 . S
C1702 H1722 0.931 . S
C1703 C1699 1.460 . S
C1703 C1702 1.477 . S
C1703 H1723 0.930 . S
C1704 N1700 1.362 . S
C1704 C1701 1.431 . S
C1704 C1714 1.476 . S
H1705 C1699 0.929 . S
C1706 O1697 1.250 . S
C1706 O1698 1.258 . S
O1707 Mn1692 2.162 . S
O1707 C1695 1.281 . S
O1708 Mn1692 2.297 . S
O1708 C1695 1.236 . S
N1709 Mn1693 2.282 . S
N1709 C1710 1.328 . S
N1709 C1714 1.318 . S
C1710 N1709 1.328 . S
C1710 C1711 1.457 . S
C1710 H1715 0.929 . S
C1711 C1710 1.457 . S
C1711 C1712 1.291 . S
C1711 H1724 0.931 . S
C1712 C1711 1.291 . S
C1712 C1713 1.373 . S
C1712 H1725 0.929 . S
C1713 C1712 1.373 . S
C1713 C1714 1.396 . S
C1713 C1720 1.403 . S
C1714 C1704 1.476 . S
C1714 N1709 1.318 . S
C1714 C1713 1.396 . S
H1715 C1710 0.929 . S
O1716 Mn1692 2.385 . S
O1716 C1694 1.234 . S
O1717 Mn1692 2.209 . S
O1717 Mn1693 2.215 . S
O1717 C1694 1.283 . S
O1718 Mn1692 2.094 . S
O1718 C1696 1.240 . S
O1719 Mn1693 2.117 . S
O1719 C1696 1.264 . S
C1720 C1713 1.403 . S
C1720 C1721 1.399 . S
C1720 H1726 0.929 . S
C1721 C1701 1.449 . S
C1721 C1720 1.399 . S
C1721 H1727 0.930 . S
H1722 C1702 0.931 . S
H1723 C1703 0.930 . S
H1724 C1711 0.931 . S
H1725 C1712 0.929 . S
H1726 C1720 0.929 . S
H1727 C1721 0.930 . S
C1728 C1729 1.369 . S
C1728 C1730 1.419 . S
C1728 H1732 0.930 . S
C1729 C1728 1.369 . S
C1729 C1738 1.429 . S
C1730 C1728 1.419 . S
C1730 C1731 1.363 . S
C1730 H1733 0.929 . S
C1731 C1730 1.363 . S
C1731 C1737 1.428 . S
H1732 C1728 0.930 . S
H1733 C1730 0.929 . S
S1734 N1735 1.613 . S
S1734 N1736 1.610 . S
N1735 S1734 1.613 . S
N1735 C1738 1.350 . S
N1736 S1734 1.610 . S
N1736 C1737 1.351 . S
C1737 C1731 1.428 . S
C1737 N1736 1.351 . S
C1737 C1738 1.434 . S
C1738 C1729 1.429 . S
C1738 N1735 1.350 . S
C1738 C1737 1.434 . S
C1739 C1740 1.369 . S
C1739 C1741 1.419 . S
C1739 H1743 0.930 . S
C1740 C1739 1.369 . S
C1740 C1749 1.429 . S
C1741 C1739 1.419 . S
C1741 C1742 1.363 . S
C1741 H1744 0.929 . S
C1742 C1741 1.363 . S
C1742 C1748 1.428 . S
H1743 C1739 0.930 . S
H1744 C1741 0.929 . S
S1745 N1746 1.613 . S
S1745 N1747 1.610 . S
N1746 S1745 1.613 . S
N1746 C1749 1.350 . S
N1747 S1745 1.610 . S
N1747 C1748 1.351 . S
C1748 C1742 1.428 . S
C1748 N1747 1.351 . S
C1748 C1749 1.434 . S
C1749 C1740 1.429 . S
C1749 N1746 1.350 . S
C1749 C1748 1.434 . S
C1750 C1751 1.369 . S
C1750 C1752 1.419 . S
C1750 H1754 0.930 . S
C1751 C1750 1.369 . S
C1751 C1760 1.429 . S
C1752 C1750 1.419 . S
C1752 C1753 1.363 . S
C1752 H1755 0.929 . S
C1753 C1752 1.363 . S
C1753 C1759 1.428 . S
H1754 C1750 0.930 . S
H1755 C1752 0.929 . S
S1756 N1757 1.613 . S
S1756 N1758 1.610 . S
N1757 S1756 1.613 . S
N1757 C1760 1.350 . S
N1758 S1756 1.610 . S
N1758 C1759 1.351 . S
C1759 C1753 1.428 . S
C1759 N1758 1.351 . S
C1759 C1760 1.434 . S
C1760 C1751 1.429 . S
C1760 N1757 1.350 . S
C1760 C1759 1.434 . S
C1761 C1762 1.369 . S
C1761 C1763 1.419 . S
C1761 H1765 0.930 . S
C1762 C1761 1.369 . S
C1762 C1771 1.429 . S
C1763 C1761 1.419 . S
C1763 C1764 1.363 . S
C1763 H1766 0.929 . S
C1764 C1763 1.363 . S
C1764 C1770 1.428 . S
H1765 C1761 0.930 . S
H1766 C1763 0.929 . S
S1767 N1768 1.613 . S
S1767 N1769 1.610 . S
N1768 S1767 1.613 . S
N1768 C1771 1.350 . S
N1769 S1767 1.610 . S
N1769 C1770 1.351 . S
C1770 C1764 1.428 . S
C1770 N1769 1.351 . S
C1770 C1771 1.434 . S
C1771 C1762 1.429 . S
C1771 N1768 1.350 . S
C1771 C1770 1.434 . S
C1772 C1773 1.369 . S
C1772 C1774 1.419 . S
C1772 H1776 0.930 . S
C1773 C1772 1.369 . S
C1773 C1782 1.429 . S
C1774 C1772 1.419 . S
C1774 C1775 1.363 . S
C1774 H1777 0.929 . S
C1775 C1774 1.363 . S
C1775 C1781 1.428 . S
H1776 C1772 0.930 . S
H1777 C1774 0.929 . S
S1778 N1779 1.613 . S
S1778 N1780 1.610 . S
N1779 S1778 1.613 . S
N1779 C1782 1.350 . S
N1780 S1778 1.610 . S
N1780 C1781 1.351 . S
C1781 C1775 1.428 . S
C1781 N1780 1.351 . S
C1781 C1782 1.434 . S
C1782 C1773 1.429 . S
C1782 N1779 1.350 . S
C1782 C1781 1.434 . S
C1783 C1784 1.369 . S
C1783 C1785 1.419 . S
C1783 H1787 0.930 . S
C1784 C1783 1.369 . S
C1784 C1793 1.429 . S
C1785 C1783 1.419 . S
C1785 C1786 1.363 . S
C1785 H1788 0.929 . S
C1786 C1785 1.363 . S
C1786 C1792 1.428 . S
H1787 C1783 0.930 . S
H1788 C1785 0.929 . S
S1789 N1790 1.613 . S
S1789 N1791 1.610 . S
N1790 S1789 1.613 . S
N1790 C1793 1.350 . S
N1791 S1789 1.610 . S
N1791 C1792 1.351 . S
C1792 C1786 1.428 . S
C1792 N1791 1.351 . S
C1792 C1793 1.434 . S
C1793 C1784 1.429 . S
C1793 N1790 1.350 . S
C1793 C1792 1.434 . S
C1794 C1795 1.369 . S
C1794 C1796 1.419 . S
C1794 H1798 0.930 . S
C1795 C1794 1.369 . S
C1795 C1804 1.429 . S
C1796 C1794 1.419 . S
C1796 C1797 1.363 . S
C1796 H1799 0.929 . S
C1797 C1796 1.363 . S
C1797 C1803 1.428 . S
H1798 C1794 0.930 . S
H1799 C1796 0.929 . S
S1800 N1801 1.613 . S
S1800 N1802 1.610 . S
N1801 S1800 1.613 . S
N1801 C1804 1.350 . S
N1802 S1800 1.610 . S
N1802 C1803 1.351 . S
C1803 C1797 1.428 . S
C1803 N1802 1.351 . S
C1803 C1804 1.434 . S
C1804 C1795 1.429 . S
C1804 N1801 1.350 . S
C1804 C1803 1.434 . S
C1805 C1806 1.369 . S
C1805 C1807 1.419 . S
C1805 H1809 0.930 . S
C1806 C1805 1.369 . S
C1806 C1815 1.429 . S
C1807 C1805 1.419 . S
C1807 C1808 1.363 . S
C1807 H1810 0.929 . S
C1808 C1807 1.363 . S
C1808 C1814 1.428 . S
H1809 C1805 0.930 . S
H1810 C1807 0.929 . S
S1811 N1812 1.613 . S
S1811 N1813 1.610 . S
N1812 S1811 1.613 . S
N1812 C1815 1.350 . S
N1813 S1811 1.610 . S
N1813 C1814 1.351 . S
C1814 C1808 1.428 . S
C1814 N1813 1.351 . S
C1814 C1815 1.434 . S
C1815 C1806 1.429 . S
C1815 N1812 1.350 . S
C1815 C1814 1.434 . S
C1816 C1817 1.369 . S
C1816 C1818 1.419 . S
C1816 H1820 0.930 . S
C1817 C1816 1.369 . S
C1817 C1826 1.429 . S
C1818 C1816 1.419 . S
C1818 C1819 1.363 . S
C1818 H1821 0.929 . S
C1819 C1818 1.363 . S
C1819 C1825 1.428 . S
H1820 C1816 0.930 . S
H1821 C1818 0.929 . S
S1822 N1823 1.613 . S
S1822 N1824 1.610 . S
N1823 S1822 1.613 . S
N1823 C1826 1.350 . S
N1824 S1822 1.610 . S
N1824 C1825 1.351 . S
C1825 C1819 1.428 . S
C1825 N1824 1.351 . S
C1825 C1826 1.434 . S
C1826 C1817 1.429 . S
C1826 N1823 1.350 . S
C1826 C1825 1.434 . S
C1827 C1828 1.369 . S
C1827 C1829 1.419 . S
C1827 H1831 0.930 . S
C1828 C1827 1.369 . S
C1828 C1837 1.429 . S
C1829 C1827 1.419 . S
C1829 C1830 1.363 . S
C1829 H1832 0.929 . S
C1830 C1829 1.363 . S
C1830 C1836 1.428 . S
H1831 C1827 0.930 . S
H1832 C1829 0.929 . S
S1833 N1834 1.613 . S
S1833 N1835 1.610 . S
N1834 S1833 1.613 . S
N1834 C1837 1.350 . S
N1835 S1833 1.610 . S
N1835 C1836 1.351 . S
C1836 C1830 1.428 . S
C1836 N1835 1.351 . S
C1836 C1837 1.434 . S
C1837 C1828 1.429 . S
C1837 N1834 1.350 . S
C1837 C1836 1.434 . S
C1838 C1839 1.369 . S
C1838 C1840 1.419 . S
C1838 H1842 0.930 . S
C1839 C1838 1.369 . S
C1839 C1848 1.429 . S
C1840 C1838 1.419 . S
C1840 C1841 1.363 . S
C1840 H1843 0.929 . S
C1841 C1840 1.363 . S
C1841 C1847 1.428 . S
H1842 C1838 0.930 . S
H1843 C1840 0.929 . S
S1844 N1845 1.613 . S
S1844 N1846 1.610 . S
N1845 S1844 1.613 . S
N1845 C1848 1.350 . S
N1846 S1844 1.610 . S
N1846 C1847 1.351 . S
C1847 C1841 1.428 . S
C1847 N1846 1.351 . S
C1847 C1848 1.434 . S
C1848 C1839 1.429 . S
C1848 N1845 1.350 . S
C1848 C1847 1.434 . S
C1849 C1850 1.369 . S
C1849 C1851 1.419 . S
C1849 H1853 0.930 . S
C1850 C1849 1.369 . S
C1850 C1859 1.429 . S
C1851 C1849 1.419 . S
C1851 C1852 1.363 . S
C1851 H1854 0.929 . S
C1852 C1851 1.363 . S
C1852 C1858 1.428 . S
H1853 C1849 0.930 . S
H1854 C1851 0.929 . S
S1855 N1856 1.613 . S
S1855 N1857 1.610 . S
N1856 S1855 1.613 . S
N1856 C1859 1.350 . S
N1857 S1855 1.610 . S
N1857 C1858 1.351 . S
C1858 C1852 1.428 . S
C1858 N1857 1.351 . S
C1858 C1859 1.434 . S
C1859 C1850 1.429 . S
C1859 N1856 1.350 . S
C1859 C1858 1.434 . S
C1860 C1861 1.369 . S
C1860 C1862 1.419 . S
C1860 H1864 0.930 . S
C1861 C1860 1.369 . S
C1861 C1870 1.429 . S
C1862 C1860 1.419 . S
C1862 C1863 1.363 . S
C1862 H1865 0.929 . S
C1863 C1862 1.363 . S
C1863 C1869 1.428 . S
H1864 C1860 0.930 . S
H1865 C1862 0.929 . S
S1866 N1867 1.613 . S
S1866 N1868 1.610 . S
N1867 S1866 1.613 . S
N1867 C1870 1.350 . S
N1868 S1866 1.610 . S
N1868 C1869 1.351 . S
C1869 C1863 1.428 . S
C1869 N1868 1.351 . S
C1869 C1870 1.434 . S
C1870 C1861 1.429 . S
C1870 N1867 1.350 . S
C1870 C1869 1.434 . S
C1871 C1872 1.369 . S
C1871 C1873 1.419 . S
C1871 H1875 0.930 . S
C1872 C1871 1.369 . S
C1872 C1881 1.429 . S
C1873 C1871 1.419 . S
C1873 C1874 1.363 . S
C1873 H1876 0.929 . S
C1874 C1873 1.363 . S
C1874 C1880 1.428 . S
H1875 C1871 0.930 . S
H1876 C1873 0.929 . S
S1877 N1878 1.613 . S
S1877 N1879 1.610 . S
N1878 S1877 1.613 . S
N1878 C1881 1.350 . S
N1879 S1877 1.610 . S
N1879 C1880 1.351 . S
C1880 C1874 1.428 . S
C1880 N1879 1.351 . S
C1880 C1881 1.434 . S
C1881 C1872 1.429 . S
C1881 N1878 1.350 . S
C1881 C1880 1.434 . S
C1882 C1883 1.369 . S
C1882 C1884 1.419 . S
C1882 H1886 0.930 . S
C1883 C1882 1.369 . S
C1883 C1892 1.429 . S
C1884 C1882 1.419 . S
C1884 C1885 1.363 . S
C1884 H1887 0.929 . S
C1885 C1884 1.363 . S
C1885 C1891 1.428 . S
H1886 C1882 0.930 . S
H1887 C1884 0.929 . S
S1888 N1889 1.613 . S
S1888 N1890 1.610 . S
N1889 S1888 1.613 . S
N1889 C1892 1.350 . S
N1890 S1888 1.610 . S
N1890 C1891 1.351 . S
C1891 C1885 1.428 . S
C1891 N1890 1.351 . S
C1891 C1892 1.434 . S
C1892 C1883 1.429 . S
C1892 N1889 1.350 . S
C1892 C1891 1.434 . S
C1893 C1894 1.369 . S
C1893 C1895 1.419 . S
C1893 H1897 0.930 . S
C1894 C1893 1.369 . S
C1894 C1903 1.429 . S
C1895 C1893 1.419 . S
C1895 C1896 1.363 . S
C1895 H1898 0.929 . S
C1896 C1895 1.363 . S
C1896 C1902 1.428 . S
H1897 C1893 0.930 . S
H1898 C1895 0.929 . S
S1899 N1900 1.613 . S
S1899 N1901 1.610 . S
N1900 S1899 1.613 . S
N1900 C1903 1.350 . S
N1901 S1899 1.610 . S
N1901 C1902 1.351 . S
C1902 C1896 1.428 . S
C1902 N1901 1.351 . S
C1902 C1903 1.434 . S
C1903 C1894 1.429 . S
C1903 N1900 1.350 . S
C1903 C1902 1.434 . S
C1904 C1905 1.369 . S
C1904 C1906 1.419 . S
C1904 H1908 0.930 . S
C1905 C1904 1.369 . S
C1905 C1914 1.429 . S
C1906 C1904 1.419 . S
C1906 C1907 1.363 . S
C1906 H1909 0.929 . S
C1907 C1906 1.363 . S
C1907 C1913 1.428 . S
H1908 C1904 0.930 . S
H1909 C1906 0.929 . S
S1910 N1911 1.613 . S
S1910 N1912 1.610 . S
N1911 S1910 1.613 . S
N1911 C1914 1.350 . S
N1912 S1910 1.610 . S
N1912 C1913 1.351 . S
C1913 C1907 1.428 . S
C1913 N1912 1.351 . S
C1913 C1914 1.434 . S
C1914 C1905 1.429 . S
C1914 N1911 1.350 . S
C1914 C1913 1.434 . S
C1915 C1916 1.369 . S
C1915 C1917 1.419 . S
C1915 H1919 0.930 . S
C1916 C1915 1.369 . S
C1916 C1925 1.429 . S
C1917 C1915 1.419 . S
C1917 C1918 1.363 . S
C1917 H1920 0.929 . S
C1918 C1917 1.363 . S
C1918 C1924 1.428 . S
H1919 C1915 0.930 . S
H1920 C1917 0.929 . S
S1921 N1922 1.613 . S
S1921 N1923 1.610 . S
N1922 S1921 1.613 . S
N1922 C1925 1.350 . S
N1923 S1921 1.610 . S
N1923 C1924 1.351 . S
C1924 C1918 1.428 . S
C1924 N1923 1.351 . S
C1924 C1925 1.434 . S
C1925 C1916 1.429 . S
C1925 N1922 1.350 . S
C1925 C1924 1.434 . S
C1926 C1927 1.369 . S
C1926 C1928 1.419 . S
C1926 H1930 0.930 . S
C1927 C1926 1.369 . S
C1927 C1936 1.429 . S
C1928 C1926 1.419 . S
C1928 C1929 1.363 . S
C1928 H1931 0.929 . S
C1929 C1928 1.363 . S
C1929 C1935 1.428 . S
H1930 C1926 0.930 . S
H1931 C1928 0.929 . S
S1932 N1933 1.613 . S
S1932 N1934 1.610 . S
N1933 S1932 1.613 . S
N1933 C1936 1.350 . S
N1934 S1932 1.610 . S
N1934 C1935 1.351 . S
C1935 C1929 1.428 . S
C1935 N1934 1.351 . S
C1935 C1936 1.434 . S
C1936 C1927 1.429 . S
C1936 N1933 1.350 . S
C1936 C1935 1.434 . S
C1937 C1938 1.369 . S
C1937 C1939 1.419 . S
C1937 H1941 0.930 . S
C1938 C1937 1.369 . S
C1938 C1947 1.429 . S
C1939 C1937 1.419 . S
C1939 C1940 1.363 . S
C1939 H1942 0.929 . S
C1940 C1939 1.363 . S
C1940 C1946 1.428 . S
H1941 C1937 0.930 . S
H1942 C1939 0.929 . S
S1943 N1944 1.613 . S
S1943 N1945 1.610 . S
N1944 S1943 1.613 . S
N1944 C1947 1.350 . S
N1945 S1943 1.610 . S
N1945 C1946 1.351 . S
C1946 C1940 1.428 . S
C1946 N1945 1.351 . S
C1946 C1947 1.434 . S
C1947 C1938 1.429 . S
C1947 N1944 1.350 . S
C1947 C1946 1.434 . S
C1948 C1949 1.369 . S
C1948 C1950 1.419 . S
C1948 H1952 0.930 . S
C1949 C1948 1.369 . S
C1949 C1958 1.429 . S
C1950 C1948 1.419 . S
C1950 C1951 1.363 . S
C1950 H1953 0.929 . S
C1951 C1950 1.363 . S
C1951 C1957 1.428 . S
H1952 C1948 0.930 . S
H1953 C1950 0.929 . S
S1954 N1955 1.613 . S
S1954 N1956 1.610 . S
N1955 S1954 1.613 . S
N1955 C1958 1.350 . S
N1956 S1954 1.610 . S
N1956 C1957 1.351 . S
C1957 C1951 1.428 . S
C1957 N1956 1.351 . S
C1957 C1958 1.434 . S
C1958 C1949 1.429 . S
C1958 N1955 1.350 . S
C1958 C1957 1.434 . S
C1959 C1960 1.369 . S
C1959 C1961 1.419 . S
C1959 H1963 0.930 . S
C1960 C1959 1.369 . S
C1960 C1969 1.429 . S
C1961 C1959 1.419 . S
C1961 C1962 1.363 . S
C1961 H1964 0.929 . S
C1962 C1961 1.363 . S
C1962 C1968 1.428 . S
H1963 C1959 0.930 . S
H1964 C1961 0.929 . S
S1965 N1966 1.613 . S
S1965 N1967 1.610 . S
N1966 S1965 1.613 . S
N1966 C1969 1.350 . S
N1967 S1965 1.610 . S
N1967 C1968 1.351 . S
C1968 C1962 1.428 . S
C1968 N1967 1.351 . S
C1968 C1969 1.434 . S
C1969 C1960 1.429 . S
C1969 N1966 1.350 . S
C1969 C1968 1.434 . S
C1970 C1971 1.369 . S
C1970 C1972 1.419 . S
C1970 H1974 0.930 . S
C1971 C1970 1.369 . S
C1971 C1980 1.429 . S
C1972 C1970 1.419 . S
C1972 C1973 1.363 . S
C1972 H1975 0.929 . S
C1973 C1972 1.363 . S
C1973 C1979 1.428 . S
H1974 C1970 0.930 . S
H1975 C1972 0.929 . S
S1976 N1977 1.613 . S
S1976 N1978 1.610 . S
N1977 S1976 1.613 . S
N1977 C1980 1.350 . S
N1978 S1976 1.610 . S
N1978 C1979 1.351 . S
C1979 C1973 1.428 . S
C1979 N1978 1.351 . S
C1979 C1980 1.434 . S
C1980 C1971 1.429 . S
C1980 N1977 1.350 . S
C1980 C1979 1.434 . S
C1981 C1982 1.369 . S
C1981 C1983 1.419 . S
C1981 H1985 0.930 . S
C1982 C1981 1.369 . S
C1982 C1991 1.429 . S
C1983 C1981 1.419 . S
C1983 C1984 1.363 . S
C1983 H1986 0.929 . S
C1984 C1983 1.363 . S
C1984 C1990 1.428 . S
H1985 C1981 0.930 . S
H1986 C1983 0.929 . S
S1987 N1988 1.613 . S
S1987 N1989 1.610 . S
N1988 S1987 1.613 . S
N1988 C1991 1.350 . S
N1989 S1987 1.610 . S
N1989 C1990 1.351 . S
C1990 C1984 1.428 . S
C1990 N1989 1.351 . S
C1990 C1991 1.434 . S
C1991 C1982 1.429 . S
C1991 N1988 1.350 . S
C1991 C1990 1.434 . S
C1992 C1993 1.369 . S
C1992 C1994 1.419 . S
C1992 H1996 0.930 . S
C1993 C1992 1.369 . S
C1993 C2002 1.429 . S
C1994 C1992 1.419 . S
C1994 C1995 1.363 . S
C1994 H1997 0.929 . S
C1995 C1994 1.363 . S
C1995 C2001 1.428 . S
H1996 C1992 0.930 . S
H1997 C1994 0.929 . S
S1998 N1999 1.613 . S
S1998 N2000 1.610 . S
N1999 S1998 1.613 . S
N1999 C2002 1.350 . S
N2000 S1998 1.610 . S
N2000 C2001 1.351 . S
C2001 C1995 1.428 . S
C2001 N2000 1.351 . S
C2001 C2002 1.434 . S
C2002 C1993 1.429 . S
C2002 N1999 1.350 . S
C2002 C2001 1.434 . S
C2003 C2004 1.369 . S
C2003 C2005 1.419 . S
C2003 H2007 0.930 . S
C2004 C2003 1.369 . S
C2004 C2013 1.429 . S
C2005 C2003 1.419 . S
C2005 C2006 1.363 . S
C2005 H2008 0.929 . S
C2006 C2005 1.363 . S
C2006 C2012 1.428 . S
H2007 C2003 0.930 . S
H2008 C2005 0.929 . S
S2009 N2010 1.613 . S
S2009 N2011 1.610 . S
N2010 S2009 1.613 . S
N2010 C2013 1.350 . S
N2011 S2009 1.610 . S
N2011 C2012 1.351 . S
C2012 C2006 1.428 . S
C2012 N2011 1.351 . S
C2012 C2013 1.434 . S
C2013 C2004 1.429 . S
C2013 N2010 1.350 . S
C2013 C2012 1.434 . S
C2014 C2015 1.369 . S
C2014 C2016 1.419 . S
C2014 H2018 0.930 . S
C2015 C2014 1.369 . S
C2015 C2024 1.429 . S
C2016 C2014 1.419 . S
C2016 C2017 1.363 . S
C2016 H2019 0.929 . S
C2017 C2016 1.363 . S
C2017 C2023 1.428 . S
H2018 C2014 0.930 . S
H2019 C2016 0.929 . S
S2020 N2021 1.613 . S
S2020 N2022 1.610 . S
N2021 S2020 1.613 . S
N2021 C2024 1.350 . S
N2022 S2020 1.610 . S
N2022 C2023 1.351 . S
C2023 C2017 1.428 . S
C2023 N2022 1.351 . S
C2023 C2024 1.434 . S
C2024 C2015 1.429 . S
C2024 N2021 1.350 . S
C2024 C2023 1.434 . S
C2025 C2026 1.369 . S
C2025 C2027 1.419 . S
C2025 H2029 0.930 . S
C2026 C2025 1.369 . S
C2026 C2035 1.429 . S
C2027 C2025 1.419 . S
C2027 C2028 1.363 . S
C2027 H2030 0.929 . S
C2028 C2027 1.363 . S
C2028 C2034 1.428 . S
H2029 C2025 0.930 . S
H2030 C2027 0.929 . S
S2031 N2032 1.613 . S
S2031 N2033 1.610 . S
N2032 S2031 1.613 . S
N2032 C2035 1.350 . S
N2033 S2031 1.610 . S
N2033 C2034 1.351 . S
C2034 C2028 1.428 . S
C2034 N2033 1.351 . S
C2034 C2035 1.434 . S
C2035 C2026 1.429 . S
C2035 N2032 1.350 . S
C2035 C2034 1.434 . S
C2036 C2037 1.369 . S
C2036 C2038 1.419 . S
C2036 H2040 0.930 . S
C2037 C2036 1.369 . S
C2037 C2046 1.429 . S
C2038 C2036 1.419 . S
C2038 C2039 1.363 . S
C2038 H2041 0.929 . S
C2039 C2038 1.363 . S
C2039 C2045 1.428 . S
H2040 C2036 0.930 . S
H2041 C2038 0.929 . S
S2042 N2043 1.613 . S
S2042 N2044 1.610 . S
N2043 S2042 1.613 . S
N2043 C2046 1.350 . S
N2044 S2042 1.610 . S
N2044 C2045 1.351 . S
C2045 C2039 1.428 . S
C2045 N2044 1.351 . S
C2045 C2046 1.434 . S
C2046 C2037 1.429 . S
C2046 N2043 1.350 . S
C2046 C2045 1.434 . S
C2047 C2048 1.369 . S
C2047 C2049 1.419 . S
C2047 H2051 0.930 . S
C2048 C2047 1.369 . S
C2048 C2057 1.429 . S
C2049 C2047 1.419 . S
C2049 C2050 1.363 . S
C2049 H2052 0.929 . S
C2050 C2049 1.363 . S
C2050 C2056 1.428 . S
H2051 C2047 0.930 . S
H2052 C2049 0.929 . S
S2053 N2054 1.613 . S
S2053 N2055 1.610 . S
N2054 S2053 1.613 . S
N2054 C2057 1.350 . S
N2055 S2053 1.610 . S
N2055 C2056 1.351 . S
C2056 C2050 1.428 . S
C2056 N2055 1.351 . S
C2056 C2057 1.434 . S
C2057 C2048 1.429 . S
C2057 N2054 1.350 . S
C2057 C2056 1.434 . S
C2058 C2059 1.369 . S
C2058 C2060 1.419 . S
C2058 H2062 0.930 . S
C2059 C2058 1.369 . S
C2059 C2068 1.429 . S
C2060 C2058 1.419 . S
C2060 C2061 1.363 . S
C2060 H2063 0.929 . S
C2061 C2060 1.363 . S
C2061 C2067 1.428 . S
H2062 C2058 0.930 . S
H2063 C2060 0.929 . S
S2064 N2065 1.613 . S
S2064 N2066 1.610 . S
N2065 S2064 1.613 . S
N2065 C2068 1.350 . S
N2066 S2064 1.610 . S
N2066 C2067 1.351 . S
C2067 C2061 1.428 . S
C2067 N2066 1.351 . S
C2067 C2068 1.434 . S
C2068 C2059 1.429 . S
C2068 N2065 1.350 . S
C2068 C2067 1.434 . S
C2069 C2070 1.369 . S
C2069 C2071 1.419 . S
C2069 H2073 0.930 . S
C2070 C2069 1.369 . S
C2070 C2079 1.429 . S
C2071 C2069 1.419 . S
C2071 C2072 1.363 . S
C2071 H2074 0.929 . S
C2072 C2071 1.363 . S
C2072 C2078 1.428 . S
H2073 C2069 0.930 . S
H2074 C2071 0.929 . S
S2075 N2076 1.613 . S
S2075 N2077 1.610 . S
N2076 S2075 1.613 . S
N2076 C2079 1.350 . S
N2077 S2075 1.610 . S
N2077 C2078 1.351 . S
C2078 C2072 1.428 . S
C2078 N2077 1.351 . S
C2078 C2079 1.434 . S
C2079 C2070 1.429 . S
C2079 N2076 1.350 . S
C2079 C2078 1.434 . S
C2080 C2081 1.369 . S
C2080 C2082 1.419 . S
C2080 H2084 0.930 . S
C2081 C2080 1.369 . S
C2081 C2090 1.429 . S
C2082 C2080 1.419 . S
C2082 C2083 1.363 . S
C2082 H2085 0.929 . S
C2083 C2082 1.363 . S
C2083 C2089 1.428 . S
H2084 C2080 0.930 . S
H2085 C2082 0.929 . S
S2086 N2087 1.613 . S
S2086 N2088 1.610 . S
N2087 S2086 1.613 . S
N2087 C2090 1.350 . S
N2088 S2086 1.610 . S
N2088 C2089 1.351 . S
C2089 C2083 1.428 . S
C2089 N2088 1.351 . S
C2089 C2090 1.434 . S
C2090 C2081 1.429 . S
C2090 N2087 1.350 . S
C2090 C2089 1.434 . S
C2091 C2092 1.369 . S
C2091 C2093 1.419 . S
C2091 H2095 0.930 . S
C2092 C2091 1.369 . S
C2092 C2101 1.429 . S
C2093 C2091 1.419 . S
C2093 C2094 1.363 . S
C2093 H2096 0.929 . S
C2094 C2093 1.363 . S
C2094 C2100 1.428 . S
H2095 C2091 0.930 . S
H2096 C2093 0.929 . S
S2097 N2098 1.613 . S
S2097 N2099 1.610 . S
N2098 S2097 1.613 . S
N2098 C2101 1.350 . S
N2099 S2097 1.610 . S
N2099 C2100 1.351 . S
C2100 C2094 1.428 . S
C2100 N2099 1.351 . S
C2100 C2101 1.434 . S
C2101 C2092 1.429 . S
C2101 N2098 1.350 . S
C2101 C2100 1.434 . S
C2102 C2103 1.369 . S
C2102 C2104 1.419 . S
C2102 H2106 0.930 . S
C2103 C2102 1.369 . S
C2103 C2112 1.429 . S
C2104 C2102 1.419 . S
C2104 C2105 1.363 . S
C2104 H2107 0.929 . S
C2105 C2104 1.363 . S
C2105 C2111 1.428 . S
H2106 C2102 0.930 . S
H2107 C2104 0.929 . S
S2108 N2109 1.613 . S
S2108 N2110 1.610 . S
N2109 S2108 1.613 . S
N2109 C2112 1.350 . S
N2110 S2108 1.610 . S
N2110 C2111 1.351 . S
C2111 C2105 1.428 . S
C2111 N2110 1.351 . S
C2111 C2112 1.434 . S
C2112 C2103 1.429 . S
C2112 N2109 1.350 . S
C2112 C2111 1.434 . S
C2113 C2114 1.369 . S
C2113 C2115 1.419 . S
C2113 H2117 0.930 . S
C2114 C2113 1.369 . S
C2114 C2123 1.429 . S
C2115 C2113 1.419 . S
C2115 C2116 1.363 . S
C2115 H2118 0.929 . S
C2116 C2115 1.363 . S
C2116 C2122 1.428 . S
H2117 C2113 0.930 . S
H2118 C2115 0.929 . S
S2119 N2120 1.613 . S
S2119 N2121 1.610 . S
N2120 S2119 1.613 . S
N2120 C2123 1.350 . S
N2121 S2119 1.610 . S
N2121 C2122 1.351 . S
C2122 C2116 1.428 . S
C2122 N2121 1.351 . S
C2122 C2123 1.434 . S
C2123 C2114 1.429 . S
C2123 N2120 1.350 . S
C2123 C2122 1.434 . S
C2124 C2125 1.369 . S
C2124 C2126 1.419 . S
C2124 H2128 0.930 . S
C2125 C2124 1.369 . S
C2125 C2134 1.429 . S
C2126 C2124 1.419 . S
C2126 C2127 1.363 . S
C2126 H2129 0.929 . S
C2127 C2126 1.363 . S
C2127 C2133 1.428 . S
H2128 C2124 0.930 . S
H2129 C2126 0.929 . S
S2130 N2131 1.613 . S
S2130 N2132 1.610 . S
N2131 S2130 1.613 . S
N2131 C2134 1.350 . S
N2132 S2130 1.610 . S
N2132 C2133 1.351 . S
C2133 C2127 1.428 . S
C2133 N2132 1.351 . S
C2133 C2134 1.434 . S
C2134 C2125 1.429 . S
C2134 N2131 1.350 . S
C2134 C2133 1.434 . S
C2135 C2136 1.369 . S
C2135 C2137 1.419 . S
C2135 H2139 0.930 . S
C2136 C2135 1.369 . S
C2136 C2145 1.429 . S
C2137 C2135 1.419 . S
C2137 C2138 1.363 . S
C2137 H2140 0.929 . S
C2138 C2137 1.363 . S
C2138 C2144 1.428 . S
H2139 C2135 0.930 . S
H2140 C2137 0.929 . S
S2141 N2142 1.613 . S
S2141 N2143 1.610 . S
N2142 S2141 1.613 . S
N2142 C2145 1.350 . S
N2143 S2141 1.610 . S
N2143 C2144 1.351 . S
C2144 C2138 1.428 . S
C2144 N2143 1.351 . S
C2144 C2145 1.434 . S
C2145 C2136 1.429 . S
C2145 N2142 1.350 . S
C2145 C2144 1.434 . S
C2146 C2147 1.369 . S
C2146 C2148 1.419 . S
C2146 H2150 0.930 . S
C2147 C2146 1.369 . S
C2147 C2156 1.429 . S
C2148 C2146 1.419 . S
C2148 C2149 1.363 . S
C2148 H2151 0.929 . S
C2149 C2148 1.363 . S
C2149 C2155 1.428 . S
H2150 C2146 0.930 . S
H2151 C2148 0.929 . S
S2152 N2153 1.613 . S
S2152 N2154 1.610 . S
N2153 S2152 1.613 . S
N2153 C2156 1.350 . S
N2154 S2152 1.610 . S
N2154 C2155 1.351 . S
C2155 C2149 1.428 . S
C2155 N2154 1.351 . S
C2155 C2156 1.434 . S
C2156 C2147 1.429 . S
C2156 N2153 1.350 . S
C2156 C2155 1.434 . S
C2157 C2158 1.369 . S
C2157 C2159 1.419 . S
C2157 H2161 0.930 . S
C2158 C2157 1.369 . S
C2158 C2167 1.429 . S
C2159 C2157 1.419 . S
C2159 C2160 1.363 . S
C2159 H2162 0.929 . S
C2160 C2159 1.363 . S
C2160 C2166 1.428 . S
H2161 C2157 0.930 . S
H2162 C2159 0.929 . S
S2163 N2164 1.613 . S
S2163 N2165 1.610 . S
N2164 S2163 1.613 . S
N2164 C2167 1.350 . S
N2165 S2163 1.610 . S
N2165 C2166 1.351 . S
C2166 C2160 1.428 . S
C2166 N2165 1.351 . S
C2166 C2167 1.434 . S
C2167 C2158 1.429 . S
C2167 N2164 1.350 . S
C2167 C2166 1.434 . S
C2168 C2169 1.369 . S
C2168 C2170 1.419 . S
C2168 H2172 0.930 . S
C2169 C2168 1.369 . S
C2169 C2178 1.429 . S
C2170 C2168 1.419 . S
C2170 C2171 1.363 . S
C2170 H2173 0.929 . S
C2171 C2170 1.363 . S
C2171 C2177 1.428 . S
H2172 C2168 0.930 . S
H2173 C2170 0.929 . S
S2174 N2175 1.613 . S
S2174 N2176 1.610 . S
N2175 S2174 1.613 . S
N2175 C2178 1.350 . S
N2176 S2174 1.610 . S
N2176 C2177 1.351 . S
C2177 C2171 1.428 . S
C2177 N2176 1.351 . S
C2177 C2178 1.434 . S
C2178 C2169 1.429 . S
C2178 N2175 1.350 . S
C2178 C2177 1.434 . S
C2179 C2180 1.369 . S
C2179 C2181 1.419 . S
C2179 H2183 0.930 . S
C2180 C2179 1.369 . S
C2180 C2189 1.429 . S
C2181 C2179 1.419 . S
C2181 C2182 1.363 . S
C2181 H2184 0.929 . S
C2182 C2181 1.363 . S
C2182 C2188 1.428 . S
H2183 C2179 0.930 . S
H2184 C2181 0.929 . S
S2185 N2186 1.613 . S
S2185 N2187 1.610 . S
N2186 S2185 1.613 . S
N2186 C2189 1.350 . S
N2187 S2185 1.610 . S
N2187 C2188 1.351 . S
C2188 C2182 1.428 . S
C2188 N2187 1.351 . S
C2188 C2189 1.434 . S
C2189 C2180 1.429 . S
C2189 N2186 1.350 . S
C2189 C2188 1.434 . S
C2190 C2191 1.369 . S
C2190 C2192 1.419 . S
C2190 H2194 0.930 . S
C2191 C2190 1.369 . S
C2191 C2200 1.429 . S
C2192 C2190 1.419 . S
C2192 C2193 1.363 . S
C2192 H2195 0.929 . S
C2193 C2192 1.363 . S
C2193 C2199 1.428 . S
H2194 C2190 0.930 . S
H2195 C2192 0.929 . S
S2196 N2197 1.613 . S
S2196 N2198 1.610 . S
N2197 S2196 1.613 . S
N2197 C2200 1.350 . S
N2198 S2196 1.610 . S
N2198 C2199 1.351 . S
C2199 C2193 1.428 . S
C2199 N2198 1.351 . S
C2199 C2200 1.434 . S
C2200 C2191 1.429 . S
C2200 N2197 1.350 . S
C2200 C2199 1.434 . S
C2201 C2202 1.369 . S
C2201 C2203 1.419 . S
C2201 H2205 0.930 . S
C2202 C2201 1.369 . S
C2202 C2211 1.429 . S
C2203 C2201 1.419 . S
C2203 C2204 1.363 . S
C2203 H2206 0.929 . S
C2204 C2203 1.363 . S
C2204 C2210 1.428 . S
H2205 C2201 0.930 . S
H2206 C2203 0.929 . S
S2207 N2208 1.613 . S
S2207 N2209 1.610 . S
N2208 S2207 1.613 . S
N2208 C2211 1.350 . S
N2209 S2207 1.610 . S
N2209 C2210 1.351 . S
C2210 C2204 1.428 . S
C2210 N2209 1.351 . S
C2210 C2211 1.434 . S
C2211 C2202 1.429 . S
C2211 N2208 1.350 . S
C2211 C2210 1.434 . S
C2212 C2213 1.369 . S
C2212 C2214 1.419 . S
C2212 H2216 0.930 . S
C2213 C2212 1.369 . S
C2213 C2222 1.429 . S
C2214 C2212 1.419 . S
C2214 C2215 1.363 . S
C2214 H2217 0.929 . S
C2215 C2214 1.363 . S
C2215 C2221 1.428 . S
H2216 C2212 0.930 . S
H2217 C2214 0.929 . S
S2218 N2219 1.613 . S
S2218 N2220 1.610 . S
N2219 S2218 1.613 . S
N2219 C2222 1.350 . S
N2220 S2218 1.610 . S
N2220 C2221 1.351 . S
C2221 C2215 1.428 . S
C2221 N2220 1.351 . S
C2221 C2222 1.434 . S
C2222 C2213 1.429 . S
C2222 N2219 1.350 . S
C2222 C2221 1.434 . S
C2223 C2224 1.369 . S
C2223 C2225 1.419 . S
C2223 H2227 0.930 . S
C2224 C2223 1.369 . S
C2224 C2233 1.429 . S
C2225 C2223 1.419 . S
C2225 C2226 1.363 . S
C2225 H2228 0.929 . S
C2226 C2225 1.363 . S
C2226 C2232 1.428 . S
H2227 C2223 0.930 . S
H2228 C2225 0.929 . S
S2229 N2230 1.613 . S
S2229 N2231 1.610 . S
N2230 S2229 1.613 . S
N2230 C2233 1.350 . S
N2231 S2229 1.610 . S
N2231 C2232 1.351 . S
C2232 C2226 1.428 . S
C2232 N2231 1.351 . S
C2232 C2233 1.434 . S
C2233 C2224 1.429 . S
C2233 N2230 1.350 . S
C2233 C2232 1.434 . S
C2234 C2235 1.369 . S
C2234 C2236 1.419 . S
C2234 H2238 0.930 . S
C2235 C2234 1.369 . S
C2235 C2244 1.429 . S
C2236 C2234 1.419 . S
C2236 C2237 1.363 . S
C2236 H2239 0.929 . S
C2237 C2236 1.363 . S
C2237 C2243 1.428 . S
H2238 C2234 0.930 . S
H2239 C2236 0.929 . S
S2240 N2241 1.613 . S
S2240 N2242 1.610 . S
N2241 S2240 1.613 . S
N2241 C2244 1.350 . S
N2242 S2240 1.610 . S
N2242 C2243 1.351 . S
C2243 C2237 1.428 . S
C2243 N2242 1.351 . S
C2243 C2244 1.434 . S
C2244 C2235 1.429 . S
C2244 N2241 1.350 . S
C2244 C2243 1.434 . S
C2245 C2246 1.369 . S
C2245 C2247 1.419 . S
C2245 H2249 0.930 . S
C2246 C2245 1.369 . S
C2246 C2255 1.429 . S
C2247 C2245 1.419 . S
C2247 C2248 1.363 . S
C2247 H2250 0.929 . S
C2248 C2247 1.363 . S
C2248 C2254 1.428 . S
H2249 C2245 0.930 . S
H2250 C2247 0.929 . S
S2251 N2252 1.613 . S
S2251 N2253 1.610 . S
N2252 S2251 1.613 . S
N2252 C2255 1.350 . S
N2253 S2251 1.610 . S
N2253 C2254 1.351 . S
C2254 C2248 1.428 . S
C2254 N2253 1.351 . S
C2254 C2255 1.434 . S
C2255 C2246 1.429 . S
C2255 N2252 1.350 . S
C2255 C2254 1.434 . S
C2256 C2257 1.369 . S
C2256 C2258 1.419 . S
C2256 H2260 0.930 . S
C2257 C2256 1.369 . S
C2257 C2266 1.429 . S
C2258 C2256 1.419 . S
C2258 C2259 1.363 . S
C2258 H2261 0.929 . S
C2259 C2258 1.363 . S
C2259 C2265 1.428 . S
H2260 C2256 0.930 . S
H2261 C2258 0.929 . S
S2262 N2263 1.613 . S
S2262 N2264 1.610 . S
N2263 S2262 1.613 . S
N2263 C2266 1.350 . S
N2264 S2262 1.610 . S
N2264 C2265 1.351 . S
C2265 C2259 1.428 . S
C2265 N2264 1.351 . S
C2265 C2266 1.434 . S
C2266 C2257 1.429 . S
C2266 N2263 1.350 . S
C2266 C2265 1.434 . S
C2267 C2268 1.369 . S
C2267 C2269 1.419 . S
C2267 H2271 0.930 . S
C2268 C2267 1.369 . S
C2268 C2277 1.429 . S
C2269 C2267 1.419 . S
C2269 C2270 1.363 . S
C2269 H2272 0.929 . S
C2270 C2269 1.363 . S
C2270 C2276 1.428 . S
H2271 C2267 0.930 . S
H2272 C2269 0.929 . S
S2273 N2274 1.613 . S
S2273 N2275 1.610 . S
N2274 S2273 1.613 . S
N2274 C2277 1.350 . S
N2275 S2273 1.610 . S
N2275 C2276 1.351 . S
C2276 C2270 1.428 . S
C2276 N2275 1.351 . S
C2276 C2277 1.434 . S
C2277 C2268 1.429 . S
C2277 N2274 1.350 . S
C2277 C2276 1.434 . S
C2278 C2279 1.369 . S
C2278 C2280 1.419 . S
C2278 H2282 0.930 . S
C2279 C2278 1.369 . S
C2279 C2288 1.429 . S
C2280 C2278 1.419 . S
C2280 C2281 1.363 . S
C2280 H2283 0.929 . S
C2281 C2280 1.363 . S
C2281 C2287 1.428 . S
H2282 C2278 0.930 . S
H2283 C2280 0.929 . S
S2284 N2285 1.613 . S
S2284 N2286 1.610 . S
N2285 S2284 1.613 . S
N2285 C2288 1.350 . S
N2286 S2284 1.610 . S
N2286 C2287 1.351 . S
C2287 C2281 1.428 . S
C2287 N2286 1.351 . S
C2287 C2288 1.434 . S
C2288 C2279 1.429 . S
C2288 N2285 1.350 . S
C2288 C2287 1.434 . S
C2289 C2290 1.369 . S
C2289 C2291 1.419 . S
C2289 H2293 0.930 . S
C2290 C2289 1.369 . S
C2290 C2299 1.429 . S
C2291 C2289 1.419 . S
C2291 C2292 1.363 . S
C2291 H2294 0.929 . S
C2292 C2291 1.363 . S
C2292 C2298 1.428 . S
H2293 C2289 0.930 . S
H2294 C2291 0.929 . S
S2295 N2296 1.613 . S
S2295 N2297 1.610 . S
N2296 S2295 1.613 . S
N2296 C2299 1.350 . S
N2297 S2295 1.610 . S
N2297 C2298 1.351 . S
C2298 C2292 1.428 . S
C2298 N2297 1.351 . S
C2298 C2299 1.434 . S
C2299 C2290 1.429 . S
C2299 N2296 1.350 . S
C2299 C2298 1.434 . S
C2300 C2301 1.369 . S
C2300 C2302 1.419 . S
C2300 H2304 0.930 . S
C2301 C2300 1.369 . S
C2301 C2310 1.429 . S
C2302 C2300 1.419 . S
C2302 C2303 1.363 . S
C2302 H2305 0.929 . S
C2303 C2302 1.363 . S
C2303 C2309 1.428 . S
H2304 C2300 0.930 . S
H2305 C2302 0.929 . S
S2306 N2307 1.613 . S
S2306 N2308 1.610 . S
N2307 S2306 1.613 . S
N2307 C2310 1.350 . S
N2308 S2306 1.610 . S
N2308 C2309 1.351 . S
C2309 C2303 1.428 . S
C2309 N2308 1.351 . S
C2309 C2310 1.434 . S
C2310 C2301 1.429 . S
C2310 N2307 1.350 . S
C2310 C2309 1.434 . S
C2311 C2312 1.369 . S
C2311 C2313 1.419 . S
C2311 H2315 0.930 . S
C2312 C2311 1.369 . S
C2312 C2321 1.429 . S
C2313 C2311 1.419 . S
C2313 C2314 1.363 . S
C2313 H2316 0.929 . S
C2314 C2313 1.363 . S
C2314 C2320 1.428 . S
H2315 C2311 0.930 . S
H2316 C2313 0.929 . S
S2317 N2318 1.613 . S
S2317 N2319 1.610 . S
N2318 S2317 1.613 . S
N2318 C2321 1.350 . S
N2319 S2317 1.610 . S
N2319 C2320 1.351 . S
C2320 C2314 1.428 . S
C2320 N2319 1.351 . S
C2320 C2321 1.434 . S
C2321 C2312 1.429 . S
C2321 N2318 1.350 . S
C2321 C2320 1.434 . S
C2322 C2323 1.369 . S
C2322 C2324 1.419 . S
C2322 H2326 0.930 . S
C2323 C2322 1.369 . S
C2323 C2332 1.429 . S
C2324 C2322 1.419 . S
C2324 C2325 1.363 . S
C2324 H2327 0.929 . S
C2325 C2324 1.363 . S
C2325 C2331 1.428 . S
H2326 C2322 0.930 . S
H2327 C2324 0.929 . S
S2328 N2329 1.613 . S
S2328 N2330 1.610 . S
N2329 S2328 1.613 . S
N2329 C2332 1.350 . S
N2330 S2328 1.610 . S
N2330 C2331 1.351 . S
C2331 C2325 1.428 . S
C2331 N2330 1.351 . S
C2331 C2332 1.434 . S
C2332 C2323 1.429 . S
C2332 N2329 1.350 . S
C2332 C2331 1.434 . S
C2333 C2334 1.369 . S
C2333 C2335 1.419 . S
C2333 H2337 0.930 . S
C2334 C2333 1.369 . S
C2334 C2343 1.429 . S
C2335 C2333 1.419 . S
C2335 C2336 1.363 . S
C2335 H2338 0.929 . S
C2336 C2335 1.363 . S
C2336 C2342 1.428 . S
H2337 C2333 0.930 . S
H2338 C2335 0.929 . S
S2339 N2340 1.613 . S
S2339 N2341 1.610 . S
N2340 S2339 1.613 . S
N2340 C2343 1.350 . S
N2341 S2339 1.610 . S
N2341 C2342 1.351 . S
C2342 C2336 1.428 . S
C2342 N2341 1.351 . S
C2342 C2343 1.434 . S
C2343 C2334 1.429 . S
C2343 N2340 1.350 . S
C2343 C2342 1.434 . S
C2344 C2345 1.369 . S
C2344 C2346 1.419 . S
C2344 H2348 0.930 . S
C2345 C2344 1.369 . S
C2345 C2354 1.429 . S
C2346 C2344 1.419 . S
C2346 C2347 1.363 . S
C2346 H2349 0.929 . S
C2347 C2346 1.363 . S
C2347 C2353 1.428 . S
H2348 C2344 0.930 . S
H2349 C2346 0.929 . S
S2350 N2351 1.613 . S
S2350 N2352 1.610 . S
N2351 S2350 1.613 . S
N2351 C2354 1.350 . S
N2352 S2350 1.610 . S
N2352 C2353 1.351 . S
C2353 C2347 1.428 . S
C2353 N2352 1.351 . S
C2353 C2354 1.434 . S
C2354 C2345 1.429 . S
C2354 N2351 1.350 . S
C2354 C2353 1.434 . S
C2355 C2356 1.369 . S
C2355 C2357 1.419 . S
C2355 H2359 0.930 . S
C2356 C2355 1.369 . S
C2356 C2365 1.429 . S
C2357 C2355 1.419 . S
C2357 C2358 1.363 . S
C2357 H2360 0.929 . S
C2358 C2357 1.363 . S
C2358 C2364 1.428 . S
H2359 C2355 0.930 . S
H2360 C2357 0.929 . S
S2361 N2362 1.613 . S
S2361 N2363 1.610 . S
N2362 S2361 1.613 . S
N2362 C2365 1.350 . S
N2363 S2361 1.610 . S
N2363 C2364 1.351 . S
C2364 C2358 1.428 . S
C2364 N2363 1.351 . S
C2364 C2365 1.434 . S
C2365 C2356 1.429 . S
C2365 N2362 1.350 . S
C2365 C2364 1.434 . S
C2366 C2367 1.369 . S
C2366 C2368 1.419 . S
C2366 H2370 0.930 . S
C2367 C2366 1.369 . S
C2367 C2376 1.429 . S
C2368 C2366 1.419 . S
C2368 C2369 1.363 . S
C2368 H2371 0.929 . S
C2369 C2368 1.363 . S
C2369 C2375 1.428 . S
H2370 C2366 0.930 . S
H2371 C2368 0.929 . S
S2372 N2373 1.613 . S
S2372 N2374 1.610 . S
N2373 S2372 1.613 . S
N2373 C2376 1.350 . S
N2374 S2372 1.610 . S
N2374 C2375 1.351 . S
C2375 C2369 1.428 . S
C2375 N2374 1.351 . S
C2375 C2376 1.434 . S
C2376 C2367 1.429 . S
C2376 N2373 1.350 . S
C2376 C2375 1.434 . S
C2377 C2378 1.369 . S
C2377 C2379 1.419 . S
C2377 H2381 0.930 . S
C2378 C2377 1.369 . S
C2378 C2387 1.429 . S
C2379 C2377 1.419 . S
C2379 C2380 1.363 . S
C2379 H2382 0.929 . S
C2380 C2379 1.363 . S
C2380 C2386 1.428 . S
H2381 C2377 0.930 . S
H2382 C2379 0.929 . S
S2383 N2384 1.613 . S
S2383 N2385 1.610 . S
N2384 S2383 1.613 . S
N2384 C2387 1.350 . S
N2385 S2383 1.610 . S
N2385 C2386 1.351 . S
C2386 C2380 1.428 . S
C2386 N2385 1.351 . S
C2386 C2387 1.434 . S
C2387 C2378 1.429 . S
C2387 N2384 1.350 . S
C2387 C2386 1.434 . S
C2388 C2389 1.369 . S
C2388 C2390 1.419 . S
C2388 H2392 0.930 . S
C2389 C2388 1.369 . S
C2389 C2398 1.429 . S
C2390 C2388 1.419 . S
C2390 C2391 1.363 . S
C2390 H2393 0.929 . S
C2391 C2390 1.363 . S
C2391 C2397 1.428 . S
H2392 C2388 0.930 . S
H2393 C2390 0.929 . S
S2394 N2395 1.613 . S
S2394 N2396 1.610 . S
N2395 S2394 1.613 . S
N2395 C2398 1.350 . S
N2396 S2394 1.610 . S
N2396 C2397 1.351 . S
C2397 C2391 1.428 . S
C2397 N2396 1.351 . S
C2397 C2398 1.434 . S
C2398 C2389 1.429 . S
C2398 N2395 1.350 . S
C2398 C2397 1.434 . S
C2399 C2400 1.369 . S
C2399 C2401 1.419 . S
C2399 H2403 0.930 . S
C2400 C2399 1.369 . S
C2400 C2409 1.429 . S
C2401 C2399 1.419 . S
C2401 C2402 1.363 . S
C2401 H2404 0.929 . S
C2402 C2401 1.363 . S
C2402 C2408 1.428 . S
H2403 C2399 0.930 . S
H2404 C2401 0.929 . S
S2405 N2406 1.613 . S
S2405 N2407 1.610 . S
N2406 S2405 1.613 . S
N2406 C2409 1.350 . S
N2407 S2405 1.610 . S
N2407 C2408 1.351 . S
C2408 C2402 1.428 . S
C2408 N2407 1.351 . S
C2408 C2409 1.434 . S
C2409 C2400 1.429 . S
C2409 N2406 1.350 . S
C2409 C2408 1.434 . S
C2410 C2411 1.369 . S
C2410 C2412 1.419 . S
C2410 H2414 0.930 . S
C2411 C2410 1.369 . S
C2411 C2420 1.429 . S
C2412 C2410 1.419 . S
C2412 C2413 1.363 . S
C2412 H2415 0.929 . S
C2413 C2412 1.363 . S
C2413 C2419 1.428 . S
H2414 C2410 0.930 . S
H2415 C2412 0.929 . S
S2416 N2417 1.613 . S
S2416 N2418 1.610 . S
N2417 S2416 1.613 . S
N2417 C2420 1.350 . S
N2418 S2416 1.610 . S
N2418 C2419 1.351 . S
C2419 C2413 1.428 . S
C2419 N2418 1.351 . S
C2419 C2420 1.434 . S
C2420 C2411 1.429 . S
C2420 N2417 1.350 . S
C2420 C2419 1.434 . S
C2421 C2422 1.369 . S
C2421 C2423 1.419 . S
C2421 H2425 0.930 . S
C2422 C2421 1.369 . S
C2422 C2431 1.429 . S
C2423 C2421 1.419 . S
C2423 C2424 1.363 . S
C2423 H2426 0.929 . S
C2424 C2423 1.363 . S
C2424 C2430 1.428 . S
H2425 C2421 0.930 . S
H2426 C2423 0.929 . S
S2427 N2428 1.613 . S
S2427 N2429 1.610 . S
N2428 S2427 1.613 . S
N2428 C2431 1.350 . S
N2429 S2427 1.610 . S
N2429 C2430 1.351 . S
C2430 C2424 1.428 . S
C2430 N2429 1.351 . S
C2430 C2431 1.434 . S
C2431 C2422 1.429 . S
C2431 N2428 1.350 . S
C2431 C2430 1.434 . S
C2432 C2433 1.369 . S
C2432 C2434 1.419 . S
C2432 H2436 0.930 . S
C2433 C2432 1.369 . S
C2433 C2442 1.429 . S
C2434 C2432 1.419 . S
C2434 C2435 1.363 . S
C2434 H2437 0.929 . S
C2435 C2434 1.363 . S
C2435 C2441 1.428 . S
H2436 C2432 0.930 . S
H2437 C2434 0.929 . S
S2438 N2439 1.613 . S
S2438 N2440 1.610 . S
N2439 S2438 1.613 . S
N2439 C2442 1.350 . S
N2440 S2438 1.610 . S
N2440 C2441 1.351 . S
C2441 C2435 1.428 . S
C2441 N2440 1.351 . S
C2441 C2442 1.434 . S
C2442 C2433 1.429 . S
C2442 N2439 1.350 . S
C2442 C2441 1.434 . S
C2443 C2444 1.369 . S
C2443 C2445 1.419 . S
C2443 H2447 0.930 . S
C2444 C2443 1.369 . S
C2444 C2453 1.429 . S
C2445 C2443 1.419 . S
C2445 C2446 1.363 . S
C2445 H2448 0.929 . S
C2446 C2445 1.363 . S
C2446 C2452 1.428 . S
H2447 C2443 0.930 . S
H2448 C2445 0.929 . S
S2449 N2450 1.613 . S
S2449 N2451 1.610 . S
N2450 S2449 1.613 . S
N2450 C2453 1.350 . S
N2451 S2449 1.610 . S
N2451 C2452 1.351 . S
C2452 C2446 1.428 . S
C2452 N2451 1.351 . S
C2452 C2453 1.434 . S
C2453 C2444 1.429 . S
C2453 N2450 1.350 . S
C2453 C2452 1.434 . S
C2454 C2455 1.369 . S
C2454 C2456 1.419 . S
C2454 H2458 0.930 . S
C2455 C2454 1.369 . S
C2455 C2464 1.429 . S
C2456 C2454 1.419 . S
C2456 C2457 1.363 . S
C2456 H2459 0.929 . S
C2457 C2456 1.363 . S
C2457 C2463 1.428 . S
H2458 C2454 0.930 . S
H2459 C2456 0.929 . S
S2460 N2461 1.613 . S
S2460 N2462 1.610 . S
N2461 S2460 1.613 . S
N2461 C2464 1.350 . S
N2462 S2460 1.610 . S
N2462 C2463 1.351 . S
C2463 C2457 1.428 . S
C2463 N2462 1.351 . S
C2463 C2464 1.434 . S
C2464 C2455 1.429 . S
C2464 N2461 1.350 . S
C2464 C2463 1.434 . S
C2465 C2466 1.369 . S
C2465 C2467 1.419 . S
C2465 H2469 0.930 . S
C2466 C2465 1.369 . S
C2466 C2475 1.429 . S
C2467 C2465 1.419 . S
C2467 C2468 1.363 . S
C2467 H2470 0.929 . S
C2468 C2467 1.363 . S
C2468 C2474 1.428 . S
H2469 C2465 0.930 . S
H2470 C2467 0.929 . S
S2471 N2472 1.613 . S
S2471 N2473 1.610 . S
N2472 S2471 1.613 . S
N2472 C2475 1.350 . S
N2473 S2471 1.610 . S
N2473 C2474 1.351 . S
C2474 C2468 1.428 . S
C2474 N2473 1.351 . S
C2474 C2475 1.434 . S
C2475 C2466 1.429 . S
C2475 N2472 1.350 . S
C2475 C2474 1.434 . S
C2476 C2477 1.369 . S
C2476 C2478 1.419 . S
C2476 H2480 0.930 . S
C2477 C2476 1.369 . S
C2477 C2486 1.429 . S
C2478 C2476 1.419 . S
C2478 C2479 1.363 . S
C2478 H2481 0.929 . S
C2479 C2478 1.363 . S
C2479 C2485 1.428 . S
H2480 C2476 0.930 . S
H2481 C2478 0.929 . S
S2482 N2483 1.613 . S
S2482 N2484 1.610 . S
N2483 S2482 1.613 . S
N2483 C2486 1.350 . S
N2484 S2482 1.610 . S
N2484 C2485 1.351 . S
C2485 C2479 1.428 . S
C2485 N2484 1.351 . S
C2485 C2486 1.434 . S
C2486 C2477 1.429 . S
C2486 N2483 1.350 . S
C2486 C2485 1.434 . S
C2487 C2488 1.369 . S
C2487 C2489 1.419 . S
C2487 H2491 0.930 . S
C2488 C2487 1.369 . S
C2488 C2497 1.429 . S
C2489 C2487 1.419 . S
C2489 C2490 1.363 . S
C2489 H2492 0.929 . S
C2490 C2489 1.363 . S
C2490 C2496 1.428 . S
H2491 C2487 0.930 . S
H2492 C2489 0.929 . S
S2493 N2494 1.613 . S
S2493 N2495 1.610 . S
N2494 S2493 1.613 . S
N2494 C2497 1.350 . S
N2495 S2493 1.610 . S
N2495 C2496 1.351 . S
C2496 C2490 1.428 . S
C2496 N2495 1.351 . S
C2496 C2497 1.434 . S
C2497 C2488 1.429 . S
C2497 N2494 1.350 . S
C2497 C2496 1.434 . S
C2498 C2499 1.369 . S
C2498 C2500 1.419 . S
C2498 H2502 0.930 . S
C2499 C2498 1.369 . S
C2499 C2508 1.429 . S
C2500 C2498 1.419 . S
C2500 C2501 1.363 . S
C2500 H2503 0.929 . S
C2501 C2500 1.363 . S
C2501 C2507 1.428 . S
H2502 C2498 0.930 . S
H2503 C2500 0.929 . S
S2504 N2505 1.613 . S
S2504 N2506 1.610 . S
N2505 S2504 1.613 . S
N2505 C2508 1.350 . S
N2506 S2504 1.610 . S
N2506 C2507 1.351 . S
C2507 C2501 1.428 . S
C2507 N2506 1.351 . S
C2507 C2508 1.434 . S
C2508 C2499 1.429 . S
C2508 N2505 1.350 . S
C2508 C2507 1.434 . S
C2509 C2510 1.369 . S
C2509 C2511 1.419 . S
C2509 H2513 0.930 . S
C2510 C2509 1.369 . S
C2510 C2519 1.429 . S
C2511 C2509 1.419 . S
C2511 C2512 1.363 . S
C2511 H2514 0.929 . S
C2512 C2511 1.363 . S
C2512 C2518 1.428 . S
H2513 C2509 0.930 . S
H2514 C2511 0.929 . S
S2515 N2516 1.613 . S
S2515 N2517 1.610 . S
N2516 S2515 1.613 . S
N2516 C2519 1.350 . S
N2517 S2515 1.610 . S
N2517 C2518 1.351 . S
C2518 C2512 1.428 . S
C2518 N2517 1.351 . S
C2518 C2519 1.434 . S
C2519 C2510 1.429 . S
C2519 N2516 1.350 . S
C2519 C2518 1.434 . S
C2520 C2521 1.369 . S
C2520 C2522 1.419 1_554 S
C2520 H2524 0.930 . S
C2521 C2520 1.369 . S
C2521 C2530 1.429 . S
C2522 C2520 1.419 1_556 S
C2522 C2523 1.363 . S
C2522 H2525 0.929 . S
C2523 C2522 1.363 . S
C2523 C2529 1.428 . S
H2524 C2520 0.930 . S
H2525 C2522 0.929 . S
S2526 N2527 1.613 1_556 S
S2526 N2528 1.610 . S
N2527 S2526 1.613 1_554 S
N2527 C2530 1.350 . S
N2528 S2526 1.610 . S
N2528 C2529 1.351 . S
C2529 C2523 1.428 . S
C2529 N2528 1.351 . S
C2529 C2530 1.434 1_556 S
C2530 C2521 1.429 . S
C2530 N2527 1.350 . S
C2530 C2529 1.434 1_554 S
C2531 C2532 1.369 . S
C2531 C2533 1.419 1_556 S
C2531 H2535 0.930 . S
C2532 C2531 1.369 . S
C2532 C2541 1.429 . S
C2533 C2531 1.419 1_554 S
C2533 C2534 1.363 . S
C2533 H2536 0.929 . S
C2534 C2533 1.363 . S
C2534 C2540 1.428 . S
H2535 C2531 0.930 . S
H2536 C2533 0.929 . S
S2537 N2538 1.613 1_554 S
S2537 N2539 1.610 . S
N2538 S2537 1.613 1_556 S
N2538 C2541 1.350 . S
N2539 S2537 1.610 . S
N2539 C2540 1.351 . S
C2540 C2534 1.428 . S
C2540 N2539 1.351 . S
C2540 C2541 1.434 1_554 S
C2541 C2532 1.429 . S
C2541 N2538 1.350 . S
C2541 C2540 1.434 1_556 S
C2542 C2543 1.369 . S
C2542 C2544 1.419 1_554 S
C2542 H2546 0.930 . S
C2543 C2542 1.369 . S
C2543 C2552 1.429 . S
C2544 C2542 1.419 1_556 S
C2544 C2545 1.363 . S
C2544 H2547 0.929 . S
C2545 C2544 1.363 . S
C2545 C2551 1.428 . S
H2546 C2542 0.930 . S
H2547 C2544 0.929 . S
S2548 N2549 1.613 . S
S2548 N2550 1.610 1_554 S
N2549 S2548 1.613 . S
N2549 C2552 1.350 . S
N2550 S2548 1.610 1_556 S
N2550 C2551 1.351 . S
C2551 C2545 1.428 . S
C2551 N2550 1.351 . S
C2551 C2552 1.434 1_556 S
C2552 C2543 1.429 . S
C2552 N2549 1.350 . S
C2552 C2551 1.434 1_554 S
C2553 C2554 1.369 . S
C2553 C2555 1.419 1_554 S
C2553 H2557 0.930 . S
C2554 C2553 1.369 . S
C2554 C2563 1.429 . S
C2555 C2553 1.419 1_556 S
C2555 C2556 1.363 . S
C2555 H2558 0.929 . S
C2556 C2555 1.363 . S
C2556 C2562 1.428 . S
H2557 C2553 0.930 . S
H2558 C2555 0.929 . S
S2559 N2560 1.613 . S
S2559 N2561 1.610 1_554 S
N2560 S2559 1.613 . S
N2560 C2563 1.350 . S
N2561 S2559 1.610 1_556 S
N2561 C2562 1.351 . S
C2562 C2556 1.428 . S
C2562 N2561 1.351 . S
C2562 C2563 1.434 1_556 S
C2563 C2554 1.429 . S
C2563 N2560 1.350 . S
C2563 C2562 1.434 1_554 S
C2564 C2565 1.369 . S
C2564 C2566 1.419 1_556 S
C2564 H2568 0.930 . S
C2565 C2564 1.369 . S
C2565 C2574 1.429 . S
C2566 C2564 1.419 1_554 S
C2566 C2567 1.363 . S
C2566 H2569 0.929 . S
C2567 C2566 1.363 . S
C2567 C2573 1.428 . S
H2568 C2564 0.930 . S
H2569 C2566 0.929 . S
S2570 N2571 1.613 1_554 S
S2570 N2572 1.610 . S
N2571 S2570 1.613 1_556 S
N2571 C2574 1.350 . S
N2572 S2570 1.610 . S
N2572 C2573 1.351 . S
C2573 C2567 1.428 . S
C2573 N2572 1.351 . S
C2573 C2574 1.434 1_554 S
C2574 C2565 1.429 . S
C2574 N2571 1.350 . S
C2574 C2573 1.434 1_556 S
C2575 C2576 1.369 . S
C2575 C2577 1.419 1_554 S
C2575 H2579 0.930 . S
C2576 C2575 1.369 . S
C2576 C2585 1.429 . S
C2577 C2575 1.419 1_556 S
C2577 C2578 1.363 . S
C2577 H2580 0.929 . S
C2578 C2577 1.363 . S
C2578 C2584 1.428 . S
H2579 C2575 0.930 . S
H2580 C2577 0.929 . S
S2581 N2582 1.613 1_556 S
S2581 N2583 1.610 . S
N2582 S2581 1.613 1_554 S
N2582 C2585 1.350 . S
N2583 S2581 1.610 . S
N2583 C2584 1.351 . S
C2584 C2578 1.428 . S
C2584 N2583 1.351 . S
C2584 C2585 1.434 1_556 S
C2585 C2576 1.429 . S
C2585 N2582 1.350 . S
C2585 C2584 1.434 1_554 S
C2586 C2587 1.369 . S
C2586 C2588 1.419 1_556 S
C2586 H2590 0.930 . S
C2587 C2586 1.369 . S
C2587 C2596 1.429 . S
C2588 C2586 1.419 1_554 S
C2588 C2589 1.363 . S
C2588 H2591 0.929 . S
C2589 C2588 1.363 . S
C2589 C2595 1.428 . S
H2590 C2586 0.930 . S
H2591 C2588 0.929 . S
S2592 N2593 1.613 . S
S2592 N2594 1.610 1_556 S
N2593 S2592 1.613 . S
N2593 C2596 1.350 . S
N2594 S2592 1.610 1_554 S
N2594 C2595 1.351 . S
C2595 C2589 1.428 . S
C2595 N2594 1.351 . S
C2595 C2596 1.434 1_554 S
C2596 C2587 1.429 . S
C2596 N2593 1.350 . S
C2596 C2595 1.434 1_556 S
C2597 C2598 1.369 . S
C2597 C2599 1.419 1_554 S
C2597 H2601 0.930 . S
C2598 C2597 1.369 . S
C2598 C2607 1.429 . S
C2599 C2597 1.419 1_556 S
C2599 C2600 1.363 . S
C2599 H2602 0.929 . S
C2600 C2599 1.363 . S
C2600 C2606 1.428 . S
H2601 C2597 0.930 . S
H2602 C2599 0.929 . S
S2603 N2604 1.603 1_556 S
S2603 N2605 1.620 . S
N2604 S2603 1.603 1_554 S
N2604 C2607 1.350 . S
N2605 S2603 1.620 . S
N2605 C2606 1.351 . S
C2606 C2600 1.428 . S
C2606 N2605 1.351 . S
C2606 C2607 1.434 1_556 S
C2607 C2598 1.429 . S
C2607 N2604 1.350 . S
C2607 C2606 1.434 1_554 S
C2608 C2609 1.369 . S
C2608 C2610 1.419 1_455 S
C2608 H2612 0.930 . S
C2609 C2608 1.369 . S
C2609 C2618 1.429 . S
C2610 C2608 1.419 1_655 S
C2610 C2611 1.363 . S
C2610 H2613 0.929 . S
C2611 C2610 1.363 . S
C2611 C2617 1.428 . S
H2612 C2608 0.930 . S
H2613 C2610 0.929 . S
S2614 N2615 1.613 1_655 S
S2614 N2616 1.610 . S
N2615 S2614 1.613 1_455 S
N2615 C2618 1.350 . S
N2616 S2614 1.610 . S
N2616 C2617 1.351 . S
C2617 C2611 1.428 . S
C2617 N2616 1.351 . S
C2617 C2618 1.434 1_655 S
C2618 C2609 1.429 . S
C2618 N2615 1.350 . S
C2618 C2617 1.434 1_455 S
C2619 C2620 1.369 . S
C2619 C2621 1.419 1_565 S
C2619 H2623 0.930 . S
C2620 C2619 1.369 . S
C2620 C2629 1.429 . S
C2621 C2619 1.419 1_545 S
C2621 C2622 1.363 . S
C2621 H2624 0.929 . S
C2622 C2621 1.363 . S
C2622 C2628 1.428 . S
H2623 C2619 0.930 . S
H2624 C2621 0.929 . S
S2625 N2626 1.613 1_545 S
S2625 N2627 1.610 . S
N2626 S2625 1.613 1_565 S
N2626 C2629 1.350 . S
N2627 S2625 1.610 . S
N2627 C2628 1.351 . S
C2628 C2622 1.428 . S
C2628 N2627 1.351 . S
C2628 C2629 1.434 1_545 S
C2629 C2620 1.429 . S
C2629 N2626 1.350 . S
C2629 C2628 1.434 1_565 S
C2630 C2631 1.369 . S
C2630 C2632 1.419 1_455 S
C2630 H2634 0.930 . S
C2631 C2630 1.369 . S
C2631 C2640 1.429 . S
C2632 C2630 1.419 1_655 S
C2632 C2633 1.363 . S
C2632 H2635 0.929 . S
C2633 C2632 1.363 . S
C2633 C2639 1.428 . S
H2634 C2630 0.930 . S
H2635 C2632 0.929 . S
S2636 N2637 1.613 . S
S2636 N2638 1.610 1_455 S
N2637 S2636 1.613 . S
N2637 C2640 1.350 . S
N2638 S2636 1.610 1_655 S
N2638 C2639 1.351 . S
C2639 C2633 1.428 . S
C2639 N2638 1.351 . S
C2639 C2640 1.434 1_655 S
C2640 C2631 1.429 . S
C2640 N2637 1.350 . S
C2640 C2639 1.434 1_455 S
C2641 C2642 1.369 . S
C2641 C2643 1.419 1_565 S
C2641 H2645 0.930 . S
C2642 C2641 1.369 . S
C2642 C2651 1.429 . S
C2643 C2641 1.419 1_545 S
C2643 C2644 1.363 . S
C2643 H2646 0.929 . S
C2644 C2643 1.363 . S
C2644 C2650 1.428 . S
H2645 C2641 0.930 . S
H2646 C2643 0.929 . S
S2647 N2648 1.613 1_545 S
S2647 N2649 1.610 . S
N2648 S2647 1.613 1_565 S
N2648 C2651 1.350 . S
N2649 S2647 1.610 . S
N2649 C2650 1.351 . S
C2650 C2644 1.428 . S
C2650 N2649 1.351 . S
C2650 C2651 1.434 1_545 S
C2651 C2642 1.429 . S
C2651 N2648 1.350 . S
C2651 C2650 1.434 1_565 S
C2652 C2653 1.369 . S
C2652 C2654 1.419 1_655 S
C2652 H2656 0.930 . S
C2653 C2652 1.369 . S
C2653 C2662 1.429 . S
C2654 C2652 1.419 1_455 S
C2654 C2655 1.363 . S
C2654 H2657 0.929 . S
C2655 C2654 1.363 . S
C2655 C2661 1.428 . S
H2656 C2652 0.930 . S
H2657 C2654 0.929 . S
S2658 N2659 1.613 . S
S2658 N2660 1.610 1_655 S
N2659 S2658 1.613 . S
N2659 C2662 1.350 . S
N2660 S2658 1.610 1_455 S
N2660 C2661 1.351 . S
C2661 C2655 1.428 . S
C2661 N2660 1.351 . S
C2661 C2662 1.434 1_455 S
C2662 C2653 1.429 . S
C2662 N2659 1.350 . S
C2662 C2661 1.434 1_655 S
C2663 C2664 1.369 . S
C2663 C2665 1.419 1_545 S
C2663 H2667 0.930 . S
C2664 C2663 1.369 . S
C2664 C2673 1.429 . S
C2665 C2663 1.419 1_565 S
C2665 C2666 1.363 . S
C2665 H2668 0.929 . S
C2666 C2665 1.363 . S
C2666 C2672 1.428 . S
H2667 C2663 0.930 . S
H2668 C2665 0.929 . S
S2669 N2670 1.613 . S
S2669 N2671 1.610 1_545 S
N2670 S2669 1.613 . S
N2670 C2673 1.350 . S
N2671 S2669 1.610 1_565 S
N2671 C2672 1.351 . S
C2672 C2666 1.428 . S
C2672 N2671 1.351 . S
C2672 C2673 1.434 1_565 S
C2673 C2664 1.429 . S
C2673 N2670 1.350 . S
C2673 C2672 1.434 1_545 S
C2674 C2675 1.369 . S
C2674 C2676 1.419 1_455 S
C2674 H2678 0.930 . S
C2675 C2674 1.369 . S
C2675 C2684 1.429 . S
C2676 C2674 1.419 1_655 S
C2676 C2677 1.363 . S
C2676 H2679 0.929 . S
C2677 C2676 1.363 . S
C2677 C2683 1.428 . S
H2678 C2674 0.930 . S
H2679 C2676 0.929 . S
S2680 N2681 1.613 1_655 S
S2680 N2682 1.610 . S
N2681 S2680 1.613 1_455 S
N2681 C2684 1.350 . S
N2682 S2680 1.610 . S
N2682 C2683 1.351 . S
C2683 C2677 1.428 . S
C2683 N2682 1.351 . S
C2683 C2684 1.434 1_655 S
C2684 C2675 1.429 . S
C2684 N2681 1.350 . S
C2684 C2683 1.434 1_455 S
C2685 C2686 1.369 . S
C2685 C2687 1.419 1_545 S
C2685 H2689 0.930 . S
C2686 C2685 1.369 . S
C2686 C2695 1.429 . S
C2687 C2685 1.419 1_565 S
C2687 C2688 1.363 . S
C2687 H2690 0.929 . S
C2688 C2687 1.363 . S
C2688 C2694 1.428 . S
H2689 C2685 0.930 . S
H2690 C2687 0.929 . S
S2691 N2692 1.608 1_565 S
S2691 N2693 1.616 . S
N2692 S2691 1.608 1_545 S
N2692 C2695 1.350 . S
N2693 S2691 1.616 . S
N2693 C2694 1.351 . S
C2694 C2688 1.428 . S
C2694 N2693 1.351 . S
C2694 C2695 1.434 1_565 S
C2695 C2686 1.429 . S
C2695 N2692 1.350 . S
C2695 C2694 1.434 1_545 S
C2696 C2697 1.369 . S
C2696 C2698 1.419 1_545 S
C2696 H2700 0.930 . S
C2697 C2696 1.369 . S
C2697 C2706 1.429 . S
C2698 C2696 1.419 1_565 S
C2698 C2699 1.363 . S
C2698 H2701 0.929 . S
C2699 C2698 1.363 . S
C2699 C2705 1.428 . S
H2700 C2696 0.930 . S
H2701 C2698 0.929 . S
S2702 N2703 1.613 . S
S2702 N2704 1.610 1_545 S
N2703 S2702 1.613 . S
N2703 C2706 1.350 . S
N2704 S2702 1.610 1_565 S
N2704 C2705 1.351 . S
C2705 C2699 1.428 . S
C2705 N2704 1.351 . S
C2705 C2706 1.434 1_565 S
C2706 C2697 1.429 . S
C2706 N2703 1.350 . S
C2706 C2705 1.434 1_545 S
C2707 C2708 1.369 . S
C2707 C2709 1.419 1_545 S
C2707 H2711 0.930 . S
C2708 C2707 1.369 . S
C2708 C2717 1.429 . S
C2709 C2707 1.419 1_565 S
C2709 C2710 1.363 . S
C2709 H2712 0.929 . S
C2710 C2709 1.363 . S
C2710 C2716 1.428 . S
H2711 C2707 0.930 . S
H2712 C2709 0.929 . S
S2713 N2714 1.613 . S
S2713 N2715 1.610 1_545 S
N2714 S2713 1.613 . S
N2714 C2717 1.350 . S
N2715 S2713 1.610 1_565 S
N2715 C2716 1.351 . S
C2716 C2710 1.428 . S
C2716 N2715 1.351 . S
C2716 C2717 1.434 1_565 S
C2717 C2708 1.429 . S
C2717 N2714 1.350 . S
C2717 C2716 1.434 1_545 S
C2718 C2719 1.369 . S
C2718 C2720 1.419 1_655 S
C2718 H2722 0.930 . S
C2719 C2718 1.369 . S
C2719 C2728 1.429 . S
C2720 C2718 1.419 1_455 S
C2720 C2721 1.363 . S
C2720 H2723 0.929 . S
C2721 C2720 1.363 . S
C2721 C2727 1.428 . S
H2722 C2718 0.930 . S
H2723 C2720 0.929 . S
S2724 N2725 1.613 1_455 S
S2724 N2726 1.610 . S
N2725 S2724 1.613 1_655 S
N2725 C2728 1.350 . S
N2726 S2724 1.610 . S
N2726 C2727 1.351 . S
C2727 C2721 1.428 . S
C2727 N2726 1.351 . S
C2727 C2728 1.434 1_455 S
C2728 C2719 1.429 . S
C2728 N2725 1.350 . S
C2728 C2727 1.434 1_655 S
C2729 C2730 1.369 . S
C2729 C2731 1.419 1_545 S
C2729 H2733 0.930 . S
C2730 C2729 1.369 . S
C2730 C2739 1.429 . S
C2731 C2729 1.419 1_565 S
C2731 C2732 1.363 . S
C2731 H2734 0.929 . S
C2732 C2731 1.363 . S
C2732 C2738 1.428 . S
H2733 C2729 0.930 . S
H2734 C2731 0.929 . S
S2735 N2736 1.613 1_565 S
S2735 N2737 1.610 . S
N2736 S2735 1.613 1_545 S
N2736 C2739 1.350 . S
N2737 S2735 1.610 . S
N2737 C2738 1.351 . S
C2738 C2732 1.428 . S
C2738 N2737 1.351 . S
C2738 C2739 1.434 1_565 S
C2739 C2730 1.429 . S
C2739 N2736 1.350 . S
C2739 C2738 1.434 1_545 S
C2740 C2741 1.369 . S
C2740 C2742 1.419 1_455 S
C2740 H2744 0.930 . S
C2741 C2740 1.369 . S
C2741 C2750 1.429 . S
C2742 C2740 1.419 1_655 S
C2742 C2743 1.363 . S
C2742 H2745 0.929 . S
C2743 C2742 1.363 . S
C2743 C2749 1.428 . S
H2744 C2740 0.930 . S
H2745 C2742 0.929 . S
S2746 N2747 1.613 1_655 S
S2746 N2748 1.610 . S
N2747 S2746 1.613 1_455 S
N2747 C2750 1.350 . S
N2748 S2746 1.610 . S
N2748 C2749 1.351 . S
C2749 C2743 1.428 . S
C2749 N2748 1.351 . S
C2749 C2750 1.434 1_655 S
C2750 C2741 1.429 . S
C2750 N2747 1.350 . S
C2750 C2749 1.434 1_455 S
C2751 C2752 1.369 . S
C2751 C2753 1.419 1_545 S
C2751 H2755 0.930 . S
C2752 C2751 1.369 . S
C2752 C2761 1.429 . S
C2753 C2751 1.419 1_565 S
C2753 C2754 1.363 . S
C2753 H2756 0.929 . S
C2754 C2753 1.363 . S
C2754 C2760 1.428 . S
H2755 C2751 0.930 . S
H2756 C2753 0.929 . S
S2757 N2758 1.613 1_565 S
S2757 N2759 1.610 . S
N2758 S2757 1.613 1_545 S
N2758 C2761 1.350 . S
N2759 S2757 1.610 . S
N2759 C2760 1.351 . S
C2760 C2754 1.428 . S
C2760 N2759 1.351 . S
C2760 C2761 1.434 1_565 S
C2761 C2752 1.429 . S
C2761 N2758 1.350 . S
C2761 C2760 1.434 1_545 S
C2762 C2763 1.369 . S
C2762 C2764 1.419 1_655 S
C2762 H2766 0.930 . S
C2763 C2762 1.369 . S
C2763 C2772 1.429 . S
C2764 C2762 1.419 1_455 S
C2764 C2765 1.363 . S
C2764 H2767 0.929 . S
C2765 C2764 1.363 . S
C2765 C2771 1.428 . S
H2766 C2762 0.930 . S
H2767 C2764 0.929 . S
S2768 N2769 1.613 . S
S2768 N2770 1.610 1_655 S
N2769 S2768 1.613 . S
N2769 C2772 1.350 . S
N2770 S2768 1.610 1_455 S
N2770 C2771 1.351 . S
C2771 C2765 1.428 . S
C2771 N2770 1.351 . S
C2771 C2772 1.434 1_455 S
C2772 C2763 1.429 . S
C2772 N2769 1.350 . S
C2772 C2771 1.434 1_655 S
C2773 C2774 1.369 . S
C2773 C2775 1.419 1_455 S
C2773 H2777 0.930 . S
C2774 C2773 1.369 . S
C2774 C2783 1.429 . S
C2775 C2773 1.419 1_655 S
C2775 C2776 1.363 . S
C2775 H2778 0.929 . S
C2776 C2775 1.363 . S
C2776 C2782 1.428 . S
H2777 C2773 0.930 . S
H2778 C2775 0.929 . S
S2779 N2780 1.613 . S
S2779 N2781 1.610 1_455 S
N2780 S2779 1.613 . S
N2780 C2783 1.350 . S
N2781 S2779 1.610 1_655 S
N2781 C2782 1.351 . S
C2782 C2776 1.428 . S
C2782 N2781 1.351 . S
C2782 C2783 1.434 1_655 S
C2783 C2774 1.429 . S
C2783 N2780 1.350 . S
C2783 C2782 1.434 1_455 S
C1729 C1418 1.346 . S
C1731 C14 1.351 . S
C1740 C39 1.227 . S
C1742 C1310 1.174 . S
C1751 C86 1.298 . S
C1753 C1346 1.265 . S
C1762 C1371 1.306 . S
C1764 C111 1.300 . S
C1773 C1191 1.297 . S
C1775 C147 1.292 . S
C1784 C194 1.302 . S
C1786 C1227 1.351 . S
C1795 C219 1.211 . S
C1797 C1274 1.157 . S
C1806 C266 1.347 . S
C1808 C1155 1.417 . S
C1817 C291 1.414 . S
C1819 C1130 1.348 . S
C1828 C1011 1.248 . S
C1830 C327 1.250 . S
C1839 C1058 1.309 . S
C1841 C374 1.279 . S
C1850 C410 1.196 . S
C1852 C1083 1.250 . S
C1861 C446 1.225 . S
C1863 C903 1.269 . S
C1872 C482 1.275 . S
C1874 C950 1.307 . S
C1883 C975 1.271 . S
C1885 C507 1.276 . S
C1894 C878 1.345 . S
C1896 C543 1.411 . S
C1905 C579 1.392 . S
C1907 C1587 1.392 . S
C1916 C1706 1.214 . S
C1918 C626 1.206 . S
C1927 C1623 1.361 . S
C1929 C651 1.360 . S
C1938 C1670 1.180 . S
C1940 C698 1.189 . S
C1949 C1443 1.422 . S
C1951 C723 1.423 . S
C1960 C1515 1.328 . S
C1962 C759 1.327 . S
C1971 C806 1.192 . S
C1973 C1562 1.202 . S
C1982 C1490 1.170 . S
C1984 C842 1.178 . S
C1993 C1166 1.346 . S
C1995 C734 1.352 . S
C2004 C615 1.320 . S
C2006 C1202 1.274 . S
C2015 C1238 1.261 . S
C2017 C662 1.296 . S
C2026 C1263 1.216 . S
C2028 C687 1.215 . S
C2037 C831 1.209 . S
C2039 C1299 1.210 . S
C2048 C1335 1.351 . S
C2050 C770 1.304 . S
C2059 C795 1.304 . S
C2061 C1382 1.260 . S
C2070 C590 1.355 . S
C2072 C1407 1.420 . S
C2081 C1454 1.366 . S
C2083 C554 1.364 . S
C2092 C435 1.240 . S
C2094 C1695 1.238 . S
C2103 C1634 1.293 . S
C2105 C471 1.343 . S
C2114 C518 1.206 . S
C2116 C1659 1.261 . S
C2125 C338 1.232 . S
C2127 C1479 1.280 . S
C2136 C363 1.349 . S
C2138 C1526 1.302 . S
C2147 C399 1.264 . S
C2149 C1551 1.259 . S
C2158 C1598 1.360 . S
C2160 C302 1.355 . S
C2169 C867 1.364 . S
C2171 C255 1.363 . S
C2180 C1022 1.187 . S
C2182 C50 1.188 . S
C2191 C1047 1.387 . S
C2193 C75 1.388 . S
C2202 C1094 1.207 . S
C2204 C122 1.207 . S
C2213 C1119 1.398 . S
C2215 C3 1.397 . S
C2224 C183 1.359 . S
C2226 C939 1.357 . S
C2235 C986 1.177 . S
C2237 C230 1.176 . S
C2246 C914 1.200 . S
C2248 C158 1.199 . S
C2257 C2 1.554 . S
C2259 C938 1.550 . S
C2268 C976 1.349 . S
C2270 C40 1.344 . S
C2279 C74 1.552 . S
C2281 C866 1.557 . S
C2290 C112 1.356 . S
C2292 C904 1.348 . S
C2301 C148 1.343 . S
C2303 C1084 1.338 . S
C2312 C1118 1.556 . S
C2314 C182 1.554 . S
C2323 C220 1.324 . S
C2325 C1012 1.332 . S
C2334 C1046 1.546 . S
C2336 C254 1.552 . S
C2345 C292 1.446 . S
C2347 C1298 1.426 . S
C2356 C1334 1.385 . S
C2358 C328 1.398 . S
C2367 C362 1.426 . S
C2369 C1372 1.447 . S
C2378 C398 1.514 . S
C2380 C1406 1.527 . S
C2389 C434 1.482 . S
C2391 C1156 1.491 . S
C2400 C470 1.440 . S
C2402 C1192 1.462 . S
C2411 C1228 1.361 . S
C2413 C508 1.376 . S
C2422 C544 1.460 . S
C2424 C1262 1.445 . S
C2433 C1550 1.392 . S
C2435 C580 1.425 . S
C2444 C614 1.417 . S
C2446 C1624 1.436 . S
C2455 C652 1.502 . S
C2457 C1658 1.474 . S
C2466 C1444 1.474 . S
C2468 C686 1.436 . S
C2477 C1694 1.459 . S
C2479 C724 1.490 . S
C2488 C760 1.433 . S
C2490 C1478 1.404 . S
C2499 C1516 1.453 . S
C2501 C794 1.430 . S
C2510 C830 1.451 . S
C2512 C1588 1.490 . S
C2521 C1514 1.549 . S
C2523 C722 1.546 . S
C2532 C616 1.355 . S
C2534 C1552 1.362 . S
C2543 C1586 1.547 . S
C2545 C650 1.548 . S
C2554 C1480 1.336 . S
C2556 C688 1.349 . S
C2565 C1660 1.324 . S
C2567 C832 1.333 . S
C2576 C758 1.549 . S
C2578 C1442 1.545 . S
C2587 C1696 1.348 . S
C2589 C796 1.337 . S
C2598 C578 1.554 . S
C2600 C1622 1.556 . S
C2609 C1190 1.559 . S
C2611 C542 1.561 . S
C2620 C436 1.398 . S
C2622 C1226 1.390 . S
C2631 C472 1.311 . S
C2633 C1264 1.315 . S
C2642 C1154 1.522 . S
C2644 C506 1.512 . S
C2653 C326 1.483 . S
C2655 C1408 1.490 . S
C2664 C1300 1.333 . S
C2666 C364 1.328 . S
C2675 C400 1.374 . S
C2677 C1336 1.360 . S
C2686 C290 1.578 . S
C2688 C1370 1.578 . S
C2697 C974 1.380 . S
C2699 C256 1.421 . S
C2708 C38 1.459 . S
C2710 C1048 1.487 . S
C2719 C76 1.508 . S
C2721 C1082 1.486 . S
C2730 C1120 1.424 . S
C2732 C110 1.399 . S
C2741 C4 1.488 . S
C2743 C1010 1.452 . S
C2752 C184 1.440 . S
C2754 C902 1.417 . S
C2763 C218 1.472 . S
C2765 C940 1.503 . S
C2774 C146 1.414 . S
C2776 C868 1.442 . S
