# Generated by pormake.
# Topology vby, (6)-cn, num edge types: 1
# Building blocks:
#     Node 0, Type 0, BuildingBlock: LEVNOQ01_clean_sbu_1, # of connection points: 6
#     Node 1, Type 0, BuildingBlock: LEVNOQ01_clean_sbu_1, # of connection points: 6
#     Node 2, Type 0, BuildingBlock: LEVNOQ01_clean_sbu_1, # of connection points: 6
#     Node 3, Type 0, BuildingBlock: LEVNOQ01_clean_sbu_1, # of connection points: 6
#     Node 4, Type 0, BuildingBlock: LEVNOQ01_clean_sbu_1, # of connection points: 6
#     Node 5, Type 0, BuildingBlock: LEVNOQ01_clean_sbu_1, # of connection points: 6
#     Node 6, Type 0, BuildingBlock: LEVNOQ01_clean_sbu_1, # of connection points: 6
#     Node 7, Type 0, BuildingBlock: LEVNOQ01_clean_sbu_1, # of connection points: 6
#     Edge 8, Type (0, 0), BuildingBlock: OJICUG_clean_linker_0, # of connection points: 2
#     Edge 9, Type (0, 0), BuildingBlock: OJICUG_clean_linker_0, # of connection points: 2
#     Edge 10, Type (0, 0), BuildingBlock: OJICUG_clean_linker_0, # of connection points: 2
#     Edge 11, Type (0, 0), BuildingBlock: OJICUG_clean_linker_0, # of connection points: 2
#     Edge 12, Type (0, 0), BuildingBlock: OJICUG_clean_linker_0, # of connection points: 2
#     Edge 13, Type (0, 0), BuildingBlock: OJICUG_clean_linker_0, # of connection points: 2
#     Edge 14, Type (0, 0), BuildingBlock: OJICUG_clean_linker_0, # of connection points: 2
#     Edge 15, Type (0, 0), BuildingBlock: OJICUG_clean_linker_0, # of connection points: 2
#     Edge 16, Type (0, 0), BuildingBlock: OJICUG_clean_linker_0, # of connection points: 2
#     Edge 17, Type (0, 0), BuildingBlock: OJICUG_clean_linker_0, # of connection points: 2
#     Edge 18, Type (0, 0), BuildingBlock: OJICUG_clean_linker_0, # of connection points: 2
#     Edge 19, Type (0, 0), BuildingBlock: OJICUG_clean_linker_0, # of connection points: 2
#     Edge 20, Type (0, 0), BuildingBlock: OJICUG_clean_linker_0, # of connection points: 2
#     Edge 21, Type (0, 0), BuildingBlock: OJICUG_clean_linker_0, # of connection points: 2
#     Edge 22, Type (0, 0), BuildingBlock: OJICUG_clean_linker_0, # of connection points: 2
#     Edge 23, Type (0, 0), BuildingBlock: OJICUG_clean_linker_0, # of connection points: 2
#     Edge 24, Type (0, 0), BuildingBlock: OJICUG_clean_linker_0, # of connection points: 2
#     Edge 25, Type (0, 0), BuildingBlock: OJICUG_clean_linker_0, # of connection points: 2
#     Edge 26, Type (0, 0), BuildingBlock: OJICUG_clean_linker_0, # of connection points: 2
#     Edge 27, Type (0, 0), BuildingBlock: OJICUG_clean_linker_0, # of connection points: 2
#     Edge 28, Type (0, 0), BuildingBlock: OJICUG_clean_linker_0, # of connection points: 2
#     Edge 29, Type (0, 0), BuildingBlock: OJICUG_clean_linker_0, # of connection points: 2
#     Edge 30, Type (0, 0), BuildingBlock: OJICUG_clean_linker_0, # of connection points: 2
#     Edge 31, Type (0, 0), BuildingBlock: OJICUG_clean_linker_0, # of connection points: 2
# Relax obj value: 0.086
# Max RMSD: 0.124
# Mean RMSD: 0.124
data_MOF--net-vby--node1-LEVNOQ01_clean_sbu_1--edge1-OJICUG_clean_linker_0
_symmetry_space_group_name_H-M    P1
_symmetry_Int_Tables_number       1
_symmetry_cell_setting            triclinic
loop_
_symmetry_equiv_pos_as_xyz
'x, y, z'
_cell_length_a     11.961254
_cell_length_b     46.188691
_cell_length_c     22.842678
_cell_angle_alpha  89.95897
_cell_angle_beta   89.988274
_cell_angle_gamma 90.001431
loop_
_atom_site_label
_atom_site_type_symbol
_atom_site_fract_x
_atom_site_fract_y
_atom_site_fract_z
_atom_type_partial_charge
O0 O 0.87234 0.39252 0.9366 0.0
Mg1 Mg 0.04464 0.38941 0.91165 0.0
O2 O 0.90439 0.35786 0.00015 0.0
Mg3 Mg 0.09293 0.36653 -0.00514 0.0
O4 O 0.09037 0.348 0.89418 0.0
O5 O 0.03737 0.3806 0.82652 0.0
O6 O 0.28562 0.37619 0.98609 0.0
O7 O 0.13478 0.31579 0.00291 0.0
Mg8 Mg 0.17164 0.34678 0.08815 0.0
O9 O 0.07909 0.38315 0.09432 0.0
O10 O 0.33391 0.34578 0.05525 0.0
O11 O 0.08819 0.30733 0.09335 0.0
O12 O 0.18539 0.36549 0.16712 0.0
C13 C 0.08927 0.4366 0.9598 0.0
C14 C 0.83555 0.37407 0.97286 0.0
C15 C 0.06292 0.35447 0.8405 0.0
C16 C 0.36136 0.36236 0.01387 0.0
C17 C 0.11836 0.29767 0.04425 0.0
C18 C 0.11284 0.38395 0.14857 0.0
O19 O 0.13942 0.42798 0.91451 0.0
O20 O 0.05237 0.41748 -0.00519 0.0
O21 O 0.08924 0.59207 0.93641 0.0
Mg22 Mg 0.91698 0.59514 0.91146 0.0
O23 O 0.05711 0.62664 9e-05 0.0
Mg24 Mg 0.86859 0.61797 -0.00494 0.0
O25 O 0.87064 0.63658 0.89444 0.0
O26 O 0.92387 0.60422 0.82641 0.0
O27 O 0.67585 0.60827 0.98646 0.0
O28 O 0.82664 0.66869 0.00328 0.0
Mg29 Mg 0.7895 0.63757 0.08866 0.0
O30 O 0.88327 0.6014 0.09457 0.0
O31 O 0.62721 0.6384 0.05598 0.0
O32 O 0.87189 0.67714 0.0939 0.0
O33 O 0.77653 0.61868 0.16754 0.0
C34 C 0.8724 0.54794 0.95972 0.0
C35 C 0.12597 0.61047 0.97274 0.0
C36 C 0.89799 0.63029 0.84067 0.0
C37 C 0.59996 0.62194 0.01444 0.0
C38 C 0.8423 0.6868 0.04468 0.0
C39 C 0.84986 0.60046 0.14887 0.0
O40 O 0.82233 0.55656 0.91441 0.0
O41 O 0.90916 0.56704 -0.00525 0.0
O42 O 0.0885 0.67801 0.39211 0.0
Mg43 Mg 0.17203 0.63854 0.39698 0.0
O44 O 0.1355 0.66946 0.48241 0.0
Mg45 Mg 0.09352 0.61874 0.49019 0.0
O46 O 0.07999 0.60208 0.39069 0.0
O47 O 0.18477 0.62017 0.31767 0.0
O48 O 0.05303 0.56777 0.49015 0.0
O49 O 0.90501 0.62742 0.48479 0.0
Mg50 Mg 0.04506 0.59585 0.57326 0.0
O51 O 0.09082 0.63724 0.59091 0.0
O52 O 0.1399 0.55729 0.5705 0.0
O53 O 0.87289 0.59268 0.54816 0.0
O54 O 0.03682 0.60463 0.65837 0.0
C55 C 0.36197 0.62287 0.47099 0.0
C56 C 0.11887 0.68763 0.44119 0.0
C57 C 0.11287 0.60155 0.33628 0.0
C58 C 0.08987 0.54866 0.5252 0.0
C59 C 0.83614 0.61117 0.51197 0.0
C60 C 0.06265 0.63076 0.64449 0.0
O61 O 0.33451 0.63942 0.42956 0.0
O62 O 0.28623 0.6091 0.49892 0.0
O63 O 0.08953 0.3932 0.54866 0.0
Mg64 Mg 0.91725 0.39014 0.57362 0.0
O65 O 0.05743 0.35863 0.48497 0.0
Mg66 Mg 0.8689 0.3673 0.49001 0.0
O67 O 0.87091 0.34871 0.59063 0.0
O68 O 0.92399 0.38106 0.65868 0.0
O69 O 0.67617 0.37701 0.49862 0.0
O70 O 0.82688 0.31659 0.48189 0.0
Mg71 Mg 0.78993 0.34766 0.3965 0.0
O72 O 0.88355 0.38385 0.39048 0.0
O73 O 0.62761 0.34682 0.42919 0.0
O74 O 0.87229 0.30806 0.39132 0.0
O75 O 0.77691 0.36648 0.31758 0.0
C76 C 0.87279 0.43734 0.52529 0.0
C77 C 0.12628 0.3748 0.51233 0.0
C78 C 0.89816 0.355 0.6444 0.0
C79 C 0.60031 0.36332 0.47068 0.0
C80 C 0.84255 0.29845 0.44056 0.0
C81 C 0.8501 0.38475 0.33619 0.0
O82 O 0.82265 0.42873 0.57061 0.0
O83 O 0.90955 0.41823 0.49028 0.0
O84 O 0.37184 0.89249 0.93668 0.0
Mg85 Mg 0.54408 0.88935 0.91168 0.0
O86 O 0.40395 0.85785 0.00027 0.0
Mg87 Mg 0.59251 0.86651 -0.00505 0.0
O88 O 0.59003 0.84793 0.89434 0.0
O89 O 0.53661 0.88044 0.8266 0.0
O90 O 0.78519 0.87615 0.98618 0.0
O91 O 0.63417 0.81576 0.00298 0.0
Mg92 Mg 0.67112 0.84675 0.08816 0.0
O93 O 0.57872 0.88315 0.0944 0.0
O94 O 0.83341 0.8457 0.05529 0.0
O95 O 0.58764 0.80729 0.09342 0.0
O96 O 0.68504 0.86544 0.16714 0.0
C97 C 0.58896 0.93656 0.95968 0.0
C98 C 0.33509 0.87405 0.97297 0.0
C99 C 0.56244 0.85434 0.84067 0.0
C100 C 0.8609 0.8623 0.01394 0.0
C101 C 0.61767 0.79763 0.0443 0.0
C102 C 0.61259 0.88394 0.14862 0.0
O103 O 0.63892 0.9279 0.91438 0.0
O104 O 0.55211 0.91747 -0.00522 0.0
O105 O 0.59014 0.0922 0.93658 0.0
Mg106 Mg 0.41797 0.09532 0.91157 0.0
O107 O 0.55789 0.12672 0.00035 0.0
Mg108 Mg 0.36933 0.11806 -0.00476 0.0
O109 O 0.37129 0.13675 0.89474 0.0
O110 O 0.42529 0.10454 0.8266 0.0
O111 O 0.17662 0.10839 0.98661 0.0
O112 O 0.32758 0.16878 0.00349 0.0
Mg113 Mg 0.29037 0.13766 0.08873 0.0
O114 O 0.38384 0.10143 0.09469 0.0
O115 O 0.1281 0.13859 0.05603 0.0
O116 O 0.37288 0.17723 0.0941 0.0
O117 O 0.277 0.11876 0.16757 0.0
C118 C 0.37317 0.04805 0.95957 0.0
C119 C 0.6268 0.11058 0.97298 0.0
C120 C 0.39892 0.13056 0.84098 0.0
C121 C 0.10079 0.1221 0.01453 0.0
C122 C 0.34334 0.18689 0.04487 0.0
C123 C 0.35018 0.10049 0.14895 0.0
O124 O 0.3234 0.05673 0.9142 0.0
O125 O 0.40974 0.06712 -0.00525 0.0
O126 O 0.58642 0.17812 0.39226 0.0
Mg127 Mg 0.67018 0.13868 0.39732 0.0
O128 O 0.63362 0.16963 0.48255 0.0
Mg129 Mg 0.59183 0.1189 0.49041 0.0
O130 O 0.57853 0.10215 0.391 0.0
O131 O 0.6834 0.12028 0.31805 0.0
O132 O 0.55157 0.06792 0.49056 0.0
O133 O 0.40328 0.12758 0.4849 0.0
Mg134 Mg 0.54314 0.09611 0.5735 0.0
O135 O 0.58915 0.13751 0.59101 0.0
O136 O 0.63799 0.05756 0.57112 0.0
O137 O 0.37108 0.09288 0.54832 0.0
O138 O 0.53431 0.10502 0.65852 0.0
C139 C 0.86018 0.12311 0.47132 0.0
C140 C 0.61682 0.18778 0.44131 0.0
C141 C 0.61167 0.10161 0.33663 0.0
C142 C 0.5883 0.04886 0.52577 0.0
C143 C 0.33437 0.11134 0.51208 0.0
C144 C 0.5606 0.13111 0.64456 0.0
O145 O 0.83264 0.13969 0.42993 0.0
O146 O 0.78451 0.1093 0.4992 0.0
O147 O 0.59043 0.89314 0.54885 0.0
Mg148 Mg 0.41819 0.89002 0.57384 0.0
O149 O 0.5583 0.85861 0.4851 0.0
Mg150 Mg 0.36976 0.86725 0.49021 0.0
O151 O 0.37176 0.84858 0.59074 0.0
O152 O 0.42526 0.88085 0.65885 0.0
O153 O 0.17703 0.87692 0.49886 0.0
O154 O 0.32801 0.81652 0.48202 0.0
Mg155 Mg 0.29088 0.84764 0.39679 0.0
O156 O 0.38431 0.88388 0.39072 0.0
O157 O 0.12855 0.84672 0.42947 0.0
O158 O 0.37342 0.80808 0.39142 0.0
O159 O 0.27753 0.86649 0.3179 0.0
C160 C 0.37332 0.93726 0.52576 0.0
C161 C 0.62716 0.87476 0.51247 0.0
C162 C 0.39919 0.85481 0.64451 0.0
C163 C 0.10121 0.86321 0.47095 0.0
C164 C 0.34383 0.79841 0.44064 0.0
C165 C 0.35068 0.88478 0.33646 0.0
O166 O 0.32341 0.92857 0.57109 0.0
O167 O 0.41014 0.9182 0.49064 0.0
C168 C 0.55876 0.3477 0.03083 0.0
C169 C 0.48181 0.3654 0.00078 0.0
H170 H 0.72951 0.33663 0.04586 0.0
C171 C 0.52214 0.38592 0.96071 0.0
H172 H 0.53091 0.33152 0.06193 0.0
C173 C 0.63742 0.38882 0.95154 0.0
C174 C 0.71393 0.37123 0.98226 0.0
H175 H 0.46504 0.39985 0.93703 0.0
H176 H 0.66652 0.4049 0.92056 0.0
C177 C 0.67313 0.35059 0.02173 0.0
C178 C 0.32417 0.59581 0.95132 0.0
C179 C 0.24755 0.61325 0.98229 0.0
H180 H 0.49662 0.58485 0.93678 0.0
C181 C 0.28816 0.63363 0.02227 0.0
H182 H 0.2952 0.57992 0.91996 0.0
C183 C 0.40248 0.63645 0.03159 0.0
C184 C 0.47956 0.61891 0.00125 0.0
H185 H 0.23169 0.64745 0.04664 0.0
H186 H 0.43016 0.65244 0.06307 0.0
C187 C 0.43941 0.59864 0.9607 0.0
C188 C 0.67378 0.63458 0.46295 0.0
C189 C 0.71453 0.61399 0.50253 0.0
H190 H 0.53158 0.65362 0.42268 0.0
C191 C 0.638 0.59644 0.53333 0.0
H192 H 0.73018 0.64851 0.43875 0.0
C193 C 0.52272 0.59934 0.52417 0.0
C194 C 0.48243 0.61981 0.48401 0.0
H195 H 0.66707 0.58039 0.56439 0.0
H196 H 0.46561 0.58544 0.54793 0.0
C197 C 0.5594 0.63747 0.45386 0.0
C198 C 0.40285 0.34879 0.45356 0.0
C199 C 0.47989 0.36634 0.48386 0.0
H200 H 0.23208 0.33777 0.43852 0.0
C201 C 0.43971 0.38664 0.52436 0.0
H202 H 0.43057 0.33278 0.42211 0.0
C203 C 0.32446 0.38947 0.53372 0.0
C204 C 0.24787 0.37202 0.50279 0.0
H205 H 0.49689 0.40045 0.54825 0.0
H206 H 0.29545 0.40538 0.56505 0.0
C207 C 0.28852 0.35161 0.46285 0.0
C208 C 0.02167 0.88586 0.9608 0.0
C209 C -0.01864 0.86535 0.00088 0.0
H210 H 0.16603 0.90486 0.92065 0.0
C211 C 0.05832 0.84766 0.03095 0.0
H212 H 0.96456 0.89979 0.93709 0.0
C213 C 0.17269 0.85057 0.02187 0.0
C214 C 0.21347 0.8712 0.98238 0.0
H215 H 0.03048 0.83149 0.06207 0.0
H216 H 0.22908 0.83662 0.04602 0.0
C217 C 0.13695 0.88878 0.95164 0.0
C218 C 0.90332 0.13662 0.03169 0.0
C219 C 0.98038 0.11907 0.00138 0.0
H220 H 0.73253 0.14762 0.04676 0.0
C221 C 0.94022 0.09877 0.96091 0.0
H222 H 0.93103 0.15265 0.06311 0.0
C223 C 0.82498 0.09592 0.95158 0.0
C224 C 0.74837 0.11337 0.98252 0.0
H225 H -0.00258 0.08496 0.93702 0.0
H226 H 0.796 0.08 0.92028 0.0
C227 C 0.789 0.13379 0.02242 0.0
C228 C 0.13625 0.09661 0.53343 0.0
C229 C 0.21276 0.11419 0.50267 0.0
H230 H 0.96388 0.08561 0.54807 0.0
C231 C 0.17198 0.13483 0.4632 0.0
H232 H 0.16534 0.08052 0.56441 0.0
C233 C 0.05759 0.13774 0.45419 0.0
C234 C 0.98065 0.12006 0.48431 0.0
H235 H 0.22837 0.14877 0.43905 0.0
H236 H 0.02974 0.15393 0.4231 0.0
C237 C 0.02098 0.09954 0.52434 0.0
C238 C 0.82534 0.88941 0.5339 0.0
C239 C 0.74875 0.87197 0.50294 0.0
H240 H -0.00222 0.90036 0.54847 0.0
C241 C 0.7894 0.85155 0.46303 0.0
H242 H 0.79635 0.90533 0.5652 0.0
C243 C 0.90373 0.84871 0.45377 0.0
C244 C 0.98078 0.86625 0.48409 0.0
H245 H 0.73295 0.83772 0.43868 0.0
H246 H 0.93146 0.83269 0.42234 0.0
C247 C 0.9406 0.88656 0.52457 0.0
C248 C 0.95069 0.50517 0.90837 0.0
C249 C 0.92067 0.51855 0.96127 0.0
H250 H 0.03216 0.46961 0.86673 0.0
C251 C 0.95184 0.50546 0.0144 0.0
H252 H 0.93022 0.51505 0.86669 0.0
C253 C 0.00959 0.47902 0.01443 0.0
C254 C 0.04108 0.46599 0.96131 0.0
H255 H 0.93136 0.51564 0.05576 0.0
H256 H 0.02978 0.46879 0.05579 0.0
C257 C 0.01144 0.47944 0.9084 0.0
C258 C 0.95237 0.4798 0.4706 0.0
C259 C 0.92115 0.46672 0.52374 0.0
H260 H 0.03041 0.51646 0.4292 0.0
C261 C 0.95116 0.4801 0.57663 0.0
H262 H 0.93189 0.46963 0.42925 0.0
C263 C 0.01196 0.50583 0.5766 0.0
C264 C 0.04166 0.51927 0.52368 0.0
H265 H 0.93065 0.47023 0.61831 0.0
H266 H 0.03268 0.51566 0.61826 0.0
C267 C 0.01018 0.50624 0.47057 0.0
C268 C 0.51169 0.97947 0.90828 0.0
C269 C 0.54104 0.96599 0.9612 0.0
H270 H 0.43099 0.01515 0.86655 0.0
C271 C 0.50955 0.97903 0.0143 0.0
H272 H 0.53243 0.96964 0.86661 0.0
C273 C 0.45209 0.00551 0.01427 0.0
C274 C 0.42122 0.01864 0.96112 0.0
H275 H 0.52952 0.96878 0.05567 0.0
H276 H 0.4316 0.01569 0.05561 0.0
C277 C 0.45124 0.00525 0.90823 0.0
C278 C 0.51095 0.00594 0.57714 0.0
C279 C 0.54056 0.01941 0.52423 0.0
H280 H 0.43025 0.97024 0.61881 0.0
C281 C 0.50953 0.00633 0.47111 0.0
H282 H 0.53134 0.01581 0.61881 0.0
C283 C 0.45227 0.97982 0.47111 0.0
C284 C 0.42116 0.9667 0.52423 0.0
H285 H 0.5297 0.01657 0.42974 0.0
H286 H 0.43214 0.9696 0.42975 0.0
C287 C 0.4507 0.98014 0.57714 0.0
C288 C 0.19913 0.25494 0.09477 0.0
C289 C 0.16923 0.26844 0.04191 0.0
H290 H 0.28135 0.21993 0.13693 0.0
C291 C 0.20173 0.25544 0.98883 0.0
H292 H 0.17751 0.26443 0.13663 0.0
C293 C 0.26136 0.22918 0.989 0.0
C294 C 0.29238 0.2161 0.04227 0.0
H295 H 0.18128 0.26556 0.94741 0.0
H296 H 0.28301 0.21914 0.94769 0.0
C297 C 0.26095 0.2295 0.09495 0.0
C298 C 0.70109 0.75544 0.98877 0.0
C299 C 0.6682 0.76836 0.04187 0.0
H300 H 0.78267 0.7192 0.94757 0.0
C301 C 0.69743 0.75474 0.0947 0.0
H302 H 0.68112 0.76565 0.94737 0.0
C303 C 0.75914 0.72928 0.09484 0.0
C304 C 0.79115 0.71599 0.04214 0.0
H305 H 0.67541 0.76415 0.13658 0.0
H306 H 0.77908 0.71963 0.1368 0.0
C307 C 0.76063 0.72917 0.98889 0.0
C308 C 0.20224 0.72984 0.49664 0.0
C309 C 0.16979 0.71685 0.44355 0.0
H310 H 0.28345 0.76614 0.5378 0.0
C311 C 0.19972 0.73036 0.3907 0.0
H312 H 0.18176 0.71971 0.53805 0.0
C313 C 0.26151 0.75581 0.39054 0.0
C314 C 0.29291 0.76919 0.44323 0.0
H315 H 0.17814 0.72088 0.34883 0.0
H316 H 0.28195 0.76539 0.34857 0.0
C317 C 0.26185 0.7561 0.49649 0.0
C318 C 0.76067 0.25615 0.49646 0.0
C319 C 0.79111 0.26929 0.44316 0.0
H320 H 0.68096 0.21973 0.53811 0.0
C321 C 0.75874 0.25602 0.39051 0.0
H322 H 0.783 0.26611 0.53774 0.0
C323 C 0.69675 0.23061 0.39075 0.0
C324 C 0.66759 0.21702 0.44363 0.0
H325 H 0.77862 0.26566 0.34852 0.0
H326 H 0.67446 0.2212 0.34891 0.0
C327 C 0.70085 0.22992 0.49668 0.0
C328 C 0.93531 0.40432 0.1862 0.0
C329 C 0.05094 0.4006 0.19305 0.0
H330 H 0.77682 0.403 0.2293 0.0
C331 C 0.098 0.4038 0.24914 0.0
H332 H 0.8968 0.40257 0.14341 0.0
C333 C 0.02912 0.40416 0.29851 0.0
C334 C 0.9132 0.40112 0.2917 0.0
H335 H 0.18747 0.4018 0.25542 0.0
H336 H 0.06752 0.40224 0.34131 0.0
C337 C 0.86644 0.40449 0.23557 0.0
C338 C 0.02919 0.58122 0.18644 0.0
C339 C 0.91323 0.58415 0.19332 0.0
H340 H 0.18756 0.58377 0.22939 0.0
C341 C 0.86662 0.58075 0.24949 0.0
H342 H 0.06743 0.58317 0.1436 0.0
C343 C 0.9356 0.58099 0.29882 0.0
C344 C 0.05114 0.58482 0.29188 0.0
H345 H 0.77699 0.58216 0.25581 0.0
H346 H 0.89712 0.58274 0.34163 0.0
C347 C 0.09814 0.58167 0.23575 0.0
C348 C 0.04654 0.65684 0.79262 0.0
C349 C 0.93041 0.6526 0.7981 0.0
H350 H 0.18624 0.65316 0.73434 0.0
C351 C 0.8636 0.65598 0.74823 0.0
H352 H 0.10004 0.65446 0.83063 0.0
C353 C 0.91362 0.65696 0.69281 0.0
C354 C 0.02984 0.6529 0.68727 0.0
H355 H 0.774 0.65282 0.75107 0.0
H356 H 0.8601 0.65466 0.65479 0.0
C357 C 0.09657 0.65618 0.73719 0.0
C358 C 0.86385 0.32928 0.73681 0.0
C359 C 0.93069 0.33268 0.68694 0.0
H360 H 0.86029 0.33055 0.83023 0.0
C361 C 0.04681 0.32842 0.69239 0.0
H362 H 0.77425 0.33244 0.73397 0.0
C363 C 0.09681 0.32906 0.74782 0.0
C364 C 0.03005 0.33232 0.79774 0.0
H365 H 0.10035 0.33082 0.65438 0.0
H366 H 0.18648 0.33208 0.75068 0.0
C367 C 0.91384 0.32825 0.79221 0.0
C368 C 0.5982 0.90382 0.24916 0.0
C369 C 0.55089 0.90062 0.19312 0.0
H370 H 0.56813 0.90228 0.34135 0.0
C371 C 0.43525 0.90436 0.18641 0.0
H372 H 0.68769 0.90182 0.25532 0.0
C373 C 0.36658 0.90454 0.23586 0.0
C374 C 0.41359 0.90116 0.29194 0.0
H375 H 0.39654 0.9026 0.14367 0.0
H376 H 0.27693 0.90305 0.2297 0.0
C377 C 0.52954 0.90421 0.29861 0.0
C378 C 0.36616 0.08068 0.2495 0.0
C379 C 0.41317 0.0841 0.19342 0.0
H380 H 0.396 0.08269 0.34167 0.0
C381 C 0.52916 0.08115 0.18675 0.0
H382 H 0.27649 0.08209 0.25563 0.0
C383 C 0.59778 0.08162 0.23619 0.0
C384 C 0.55036 0.08479 0.29222 0.0
H385 H 0.56772 0.08311 0.14399 0.0
H386 H 0.68724 0.08373 0.23001 0.0
C387 C 0.43479 0.08093 0.29895 0.0
C388 C 0.3631 0.15639 0.74891 0.0
C389 C 0.43068 0.15297 0.79848 0.0
H390 H 0.35819 0.1551 0.65552 0.0
C391 C 0.5467 0.15727 0.79256 0.0
H392 H 0.27355 0.15322 0.75213 0.0
C393 C 0.5959 0.15663 0.73693 0.0
C394 C 0.5284 0.15333 0.68731 0.0
H395 H 0.60079 0.15488 0.83035 0.0
H396 H 0.68553 0.15363 0.7337 0.0
C397 C 0.41229 0.15741 0.69331 0.0
C398 C 0.3642 0.82902 0.73674 0.0
C399 C 0.43138 0.83244 0.687 0.0
H400 H 0.36 0.83032 0.83015 0.0
C401 C 0.54745 0.82818 0.69266 0.0
H402 H 0.27461 0.83218 0.73373 0.0
C403 C 0.59709 0.82884 0.74817 0.0
C404 C 0.52996 0.83213 0.79796 0.0
H405 H 0.60124 0.83057 0.65475 0.0
H406 H 0.68673 0.83187 0.75119 0.0
C407 C 0.41382 0.82802 0.79223 0.0
loop_
_geom_bond_atom_site_label_1
_geom_bond_atom_site_label_2
_geom_bond_distance
_geom_bond_site_symmetry_2
_ccdc_geom_bond_type
O0 Mg1 1.990 . S
O0 C14 1.253 . S
Mg1 O0 1.990 . S
Mg1 O4 2.180 1_655 S
Mg1 O5 2.117 . S
Mg1 O19 2.030 . S
O2 Mg3 2.072 1_655 S
O2 C14 1.260 1_554 S
Mg3 O2 2.072 1_455 S
Mg3 O4 2.098 1_554 S
Mg3 O6 2.079 1_554 S
Mg3 O7 2.072 1_554 S
Mg3 O9 2.099 . S
Mg3 O20 2.079 . S
O4 Mg1 2.180 1_455 S
O4 Mg3 2.098 1_556 S
O4 C15 1.279 . S
O5 Mg1 2.117 . S
O5 C15 1.250 1_655 S
O6 Mg3 2.079 1_556 S
O6 C16 1.264 1_556 S
O7 Mg3 2.072 1_556 S
O7 C17 1.260 1_556 S
Mg8 O9 2.180 . S
Mg8 O10 2.030 . S
Mg8 O11 1.990 . S
Mg8 O12 2.117 . S
O9 Mg3 2.099 . S
O9 Mg8 2.180 . S
O9 C18 1.279 . S
O10 Mg8 2.030 . S
O10 C16 1.248 . S
O11 Mg8 1.990 . S
O11 C17 1.253 . S
O12 Mg8 2.117 . S
O12 C18 1.250 . S
C13 O19 1.248 . S
C13 O20 1.264 1_656 S
C14 O0 1.253 . S
C14 O2 1.260 1_556 S
C15 O4 1.279 . S
C15 O5 1.250 1_455 S
C16 O6 1.264 1_554 S
C16 O10 1.248 . S
C17 O7 1.260 1_554 S
C17 O11 1.253 . S
C18 O9 1.279 . S
C18 O12 1.250 . S
O19 Mg1 2.030 . S
O19 C13 1.248 . S
O20 Mg3 2.079 . S
O20 C13 1.264 1_454 S
O21 Mg22 1.990 . S
O21 C35 1.253 . S
Mg22 O21 1.990 . S
Mg22 O25 2.180 1_455 S
Mg22 O26 2.117 . S
Mg22 O40 2.030 . S
O23 Mg24 2.072 1_455 S
O23 C35 1.260 1_554 S
Mg24 O23 2.072 1_655 S
Mg24 O25 2.098 1_554 S
Mg24 O27 2.079 1_554 S
Mg24 O28 2.072 1_554 S
Mg24 O30 2.099 . S
Mg24 O41 2.079 . S
O25 Mg22 2.180 1_655 S
O25 Mg24 2.098 1_556 S
O25 C36 1.279 . S
O26 Mg22 2.117 . S
O26 C36 1.250 1_455 S
O27 Mg24 2.079 1_556 S
O27 C37 1.264 1_556 S
O28 Mg24 2.072 1_556 S
O28 C38 1.260 1_556 S
Mg29 O30 2.180 . S
Mg29 O31 2.030 . S
Mg29 O32 1.990 . S
Mg29 O33 2.117 . S
O30 Mg24 2.099 . S
O30 Mg29 2.180 . S
O30 C39 1.279 . S
O31 Mg29 2.030 . S
O31 C37 1.248 . S
O32 Mg29 1.990 . S
O32 C38 1.253 . S
O33 Mg29 2.117 . S
O33 C39 1.250 . S
C34 O40 1.248 . S
C34 O41 1.264 1_456 S
C35 O21 1.253 . S
C35 O23 1.260 1_556 S
C36 O25 1.279 . S
C36 O26 1.250 1_655 S
C37 O27 1.264 1_554 S
C37 O31 1.248 . S
C38 O28 1.260 1_554 S
C38 O32 1.253 . S
C39 O30 1.279 . S
C39 O33 1.250 . S
O40 Mg22 2.030 . S
O40 C34 1.248 . S
O41 Mg24 2.079 . S
O41 C34 1.264 1_654 S
O42 Mg43 1.990 . S
O42 C56 1.253 . S
Mg43 O42 1.990 . S
Mg43 O46 2.180 . S
Mg43 O47 2.117 . S
Mg43 O61 2.030 . S
O44 Mg45 2.072 . S
O44 C56 1.260 . S
Mg45 O44 2.072 . S
Mg45 O46 2.099 . S
Mg45 O48 2.079 . S
Mg45 O49 2.072 1_455 S
Mg45 O51 2.099 . S
Mg45 O62 2.079 . S
O46 Mg43 2.180 . S
O46 Mg45 2.099 . S
O46 C57 1.279 . S
O47 Mg43 2.117 . S
O47 C57 1.250 . S
O48 Mg45 2.079 . S
O48 C58 1.264 1_455 S
O49 Mg45 2.072 1_655 S
O49 C59 1.260 . S
Mg50 O51 2.180 1_655 S
Mg50 O52 2.030 . S
Mg50 O53 1.990 . S
Mg50 O54 2.117 . S
O51 Mg45 2.099 . S
O51 Mg50 2.180 1_455 S
O51 C60 1.279 . S
O52 Mg50 2.030 . S
O52 C58 1.248 . S
O53 Mg50 1.990 . S
O53 C59 1.253 . S
O54 Mg50 2.117 . S
O54 C60 1.250 1_655 S
C55 O61 1.248 . S
C55 O62 1.264 . S
C56 O42 1.253 . S
C56 O44 1.260 . S
C57 O46 1.279 . S
C57 O47 1.250 . S
C58 O48 1.264 1_655 S
C58 O52 1.248 . S
C59 O49 1.260 . S
C59 O53 1.253 . S
C60 O51 1.279 . S
C60 O54 1.250 1_455 S
O61 Mg43 2.030 . S
O61 C55 1.248 . S
O62 Mg45 2.079 . S
O62 C55 1.264 . S
O63 Mg64 1.990 . S
O63 C77 1.253 . S
Mg64 O63 1.990 . S
Mg64 O67 2.180 1_455 S
Mg64 O68 2.117 . S
Mg64 O82 2.030 . S
O65 Mg66 2.072 1_455 S
O65 C77 1.260 . S
Mg66 O65 2.072 1_655 S
Mg66 O67 2.099 . S
Mg66 O69 2.079 . S
Mg66 O70 2.072 . S
Mg66 O72 2.099 . S
Mg66 O83 2.079 . S
O67 Mg64 2.180 1_655 S
O67 Mg66 2.099 . S
O67 C78 1.279 . S
O68 Mg64 2.117 . S
O68 C78 1.250 1_455 S
O69 Mg66 2.079 . S
O69 C79 1.264 . S
O70 Mg66 2.072 . S
O70 C80 1.260 . S
Mg71 O72 2.180 . S
Mg71 O73 2.030 . S
Mg71 O74 1.990 . S
Mg71 O75 2.117 . S
O72 Mg66 2.099 . S
O72 Mg71 2.180 . S
O72 C81 1.279 . S
O73 Mg71 2.030 . S
O73 C79 1.248 . S
O74 Mg71 1.990 . S
O74 C80 1.253 . S
O75 Mg71 2.117 . S
O75 C81 1.250 . S
C76 O82 1.248 . S
C76 O83 1.264 1_455 S
C77 O63 1.253 . S
C77 O65 1.260 . S
C78 O67 1.279 . S
C78 O68 1.250 1_655 S
C79 O69 1.264 . S
C79 O73 1.248 . S
C80 O70 1.260 . S
C80 O74 1.253 . S
C81 O72 1.279 . S
C81 O75 1.250 . S
O82 Mg64 2.030 . S
O82 C76 1.248 . S
O83 Mg66 2.079 . S
O83 C76 1.264 1_655 S
O84 Mg85 1.990 . S
O84 C98 1.253 . S
Mg85 O84 1.990 . S
Mg85 O88 2.180 . S
Mg85 O89 2.117 . S
Mg85 O103 2.030 . S
O86 Mg87 2.072 . S
O86 C98 1.260 1_554 S
Mg87 O86 2.072 . S
Mg87 O88 2.098 1_554 S
Mg87 O90 2.079 1_554 S
Mg87 O91 2.072 1_554 S
Mg87 O93 2.099 . S
Mg87 O104 2.079 . S
O88 Mg85 2.180 . S
O88 Mg87 2.098 1_556 S
O88 C99 1.279 . S
O89 Mg85 2.117 . S
O89 C99 1.250 . S
O90 Mg87 2.079 1_556 S
O90 C100 1.264 1_556 S
O91 Mg87 2.072 1_556 S
O91 C101 1.260 1_556 S
Mg92 O93 2.180 . S
Mg92 O94 2.030 . S
Mg92 O95 1.990 . S
Mg92 O96 2.117 . S
O93 Mg87 2.099 . S
O93 Mg92 2.180 . S
O93 C102 1.279 . S
O94 Mg92 2.030 . S
O94 C100 1.248 . S
O95 Mg92 1.990 . S
O95 C101 1.253 . S
O96 Mg92 2.117 . S
O96 C102 1.250 . S
C97 O103 1.248 . S
C97 O104 1.264 1_556 S
C98 O84 1.253 . S
C98 O86 1.260 1_556 S
C99 O88 1.279 . S
C99 O89 1.250 . S
C100 O90 1.264 1_554 S
C100 O94 1.248 . S
C101 O91 1.260 1_554 S
C101 O95 1.253 . S
C102 O93 1.279 . S
C102 O96 1.250 . S
O103 Mg85 2.030 . S
O103 C97 1.248 . S
O104 Mg87 2.079 . S
O104 C97 1.264 1_554 S
O105 Mg106 1.990 . S
O105 C119 1.253 . S
Mg106 O105 1.990 . S
Mg106 O109 2.180 . S
Mg106 O110 2.117 . S
Mg106 O124 2.030 . S
O107 Mg108 2.072 . S
O107 C119 1.260 1_554 S
Mg108 O107 2.072 . S
Mg108 O109 2.098 1_554 S
Mg108 O111 2.079 1_554 S
Mg108 O112 2.072 1_554 S
Mg108 O114 2.099 . S
Mg108 O125 2.079 . S
O109 Mg106 2.180 . S
O109 Mg108 2.098 1_556 S
O109 C120 1.279 . S
O110 Mg106 2.117 . S
O110 C120 1.250 . S
O111 Mg108 2.079 1_556 S
O111 C121 1.264 1_556 S
O112 Mg108 2.072 1_556 S
O112 C122 1.260 1_556 S
Mg113 O114 2.180 . S
Mg113 O115 2.030 . S
Mg113 O116 1.990 . S
Mg113 O117 2.117 . S
O114 Mg108 2.099 . S
O114 Mg113 2.180 . S
O114 C123 1.279 . S
O115 Mg113 2.030 . S
O115 C121 1.248 . S
O116 Mg113 1.990 . S
O116 C122 1.253 . S
O117 Mg113 2.117 . S
O117 C123 1.250 . S
C118 O124 1.248 . S
C118 O125 1.264 1_556 S
C119 O105 1.253 . S
C119 O107 1.260 1_556 S
C120 O109 1.279 . S
C120 O110 1.250 . S
C121 O111 1.264 1_554 S
C121 O115 1.248 . S
C122 O112 1.260 1_554 S
C122 O116 1.253 . S
C123 O114 1.279 . S
C123 O117 1.250 . S
O124 Mg106 2.030 . S
O124 C118 1.248 . S
O125 Mg108 2.079 . S
O125 C118 1.264 1_554 S
O126 Mg127 1.990 . S
O126 C140 1.253 . S
Mg127 O126 1.990 . S
Mg127 O130 2.180 . S
Mg127 O131 2.117 . S
Mg127 O145 2.030 . S
O128 Mg129 2.072 . S
O128 C140 1.260 . S
Mg129 O128 2.072 . S
Mg129 O130 2.099 . S
Mg129 O132 2.079 . S
Mg129 O133 2.072 . S
Mg129 O135 2.099 . S
Mg129 O146 2.079 . S
O130 Mg127 2.180 . S
O130 Mg129 2.099 . S
O130 C141 1.279 . S
O131 Mg127 2.117 . S
O131 C141 1.250 . S
O132 Mg129 2.079 . S
O132 C142 1.264 . S
O133 Mg129 2.072 . S
O133 C143 1.260 . S
Mg134 O135 2.180 . S
Mg134 O136 2.030 . S
Mg134 O137 1.990 . S
Mg134 O138 2.117 . S
O135 Mg129 2.099 . S
O135 Mg134 2.180 . S
O135 C144 1.279 . S
O136 Mg134 2.030 . S
O136 C142 1.248 . S
O137 Mg134 1.990 . S
O137 C143 1.253 . S
O138 Mg134 2.117 . S
O138 C144 1.250 . S
C139 O145 1.248 . S
C139 O146 1.264 . S
C140 O126 1.253 . S
C140 O128 1.260 . S
C141 O130 1.279 . S
C141 O131 1.250 . S
C142 O132 1.264 . S
C142 O136 1.248 . S
C143 O133 1.260 . S
C143 O137 1.253 . S
C144 O135 1.279 . S
C144 O138 1.250 . S
O145 Mg127 2.030 . S
O145 C139 1.248 . S
O146 Mg129 2.079 . S
O146 C139 1.264 . S
O147 Mg148 1.990 . S
O147 C161 1.253 . S
Mg148 O147 1.990 . S
Mg148 O151 2.180 . S
Mg148 O152 2.117 . S
Mg148 O166 2.030 . S
O149 Mg150 2.072 . S
O149 C161 1.260 . S
Mg150 O149 2.072 . S
Mg150 O151 2.099 . S
Mg150 O153 2.079 . S
Mg150 O154 2.072 . S
Mg150 O156 2.099 . S
Mg150 O167 2.079 . S
O151 Mg148 2.180 . S
O151 Mg150 2.099 . S
O151 C162 1.279 . S
O152 Mg148 2.117 . S
O152 C162 1.250 . S
O153 Mg150 2.079 . S
O153 C163 1.264 . S
O154 Mg150 2.072 . S
O154 C164 1.260 . S
Mg155 O156 2.180 . S
Mg155 O157 2.030 . S
Mg155 O158 1.990 . S
Mg155 O159 2.117 . S
O156 Mg150 2.099 . S
O156 Mg155 2.180 . S
O156 C165 1.279 . S
O157 Mg155 2.030 . S
O157 C163 1.248 . S
O158 Mg155 1.990 . S
O158 C164 1.253 . S
O159 Mg155 2.117 . S
O159 C165 1.250 . S
C160 O166 1.248 . S
C160 O167 1.264 . S
C161 O147 1.253 . S
C161 O149 1.260 . S
C162 O151 1.279 . S
C162 O152 1.250 . S
C163 O153 1.264 . S
C163 O157 1.248 . S
C164 O154 1.260 . S
C164 O158 1.253 . S
C165 O156 1.279 . S
C165 O159 1.250 . S
O166 Mg148 2.030 . S
O166 C160 1.248 . S
O167 Mg150 2.079 . S
O167 C160 1.264 . S
C168 C169 1.387 . S
C168 H172 0.950 . S
C168 C177 1.390 . S
C169 C168 1.387 . S
C169 C171 1.387 1_556 S
H170 C177 0.950 . S
C171 C169 1.387 1_554 S
C171 C173 1.390 . S
C171 H175 0.950 . S
H172 C168 0.950 . S
C173 C171 1.390 . S
C173 C174 1.387 . S
C173 H176 0.950 . S
C174 C173 1.387 . S
C174 C177 1.387 1_554 S
H175 C171 0.950 . S
H176 C173 0.950 . S
C177 C168 1.390 . S
C177 H170 0.950 . S
C177 C174 1.387 1_556 S
C178 C179 1.387 . S
C178 H182 0.950 . S
C178 C187 1.390 . S
C179 C178 1.387 . S
C179 C181 1.387 1_554 S
H180 C187 0.950 . S
C181 C179 1.387 1_556 S
C181 C183 1.390 . S
C181 H185 0.950 . S
H182 C178 0.950 . S
C183 C181 1.390 . S
C183 C184 1.387 . S
C183 H186 0.950 . S
C184 C183 1.387 . S
C184 C187 1.387 1_556 S
H185 C181 0.950 . S
H186 C183 0.950 . S
C187 C178 1.390 . S
C187 H180 0.950 . S
C187 C184 1.387 1_554 S
C188 C189 1.387 . S
C188 H192 0.950 . S
C188 C197 1.390 . S
C189 C188 1.387 . S
C189 C191 1.387 . S
H190 C197 0.950 . S
C191 C189 1.387 . S
C191 C193 1.390 . S
C191 H195 0.950 . S
H192 C188 0.950 . S
C193 C191 1.390 . S
C193 C194 1.387 . S
C193 H196 0.950 . S
C194 C193 1.387 . S
C194 C197 1.387 . S
H195 C191 0.950 . S
H196 C193 0.950 . S
C197 C188 1.390 . S
C197 H190 0.950 . S
C197 C194 1.387 . S
C198 C199 1.387 . S
C198 H202 0.950 . S
C198 C207 1.390 . S
C199 C198 1.387 . S
C199 C201 1.387 . S
H200 C207 0.950 . S
C201 C199 1.387 . S
C201 C203 1.390 . S
C201 H205 0.950 . S
H202 C198 0.950 . S
C203 C201 1.390 . S
C203 C204 1.387 . S
C203 H206 0.950 . S
C204 C203 1.387 . S
C204 C207 1.387 . S
H205 C201 0.950 . S
H206 C203 0.950 . S
C207 C198 1.390 . S
C207 H200 0.950 . S
C207 C204 1.387 . S
C208 C209 1.387 1_454 S
C208 H212 0.950 1_455 S
C208 C217 1.390 . S
C209 C208 1.387 1_656 S
C209 C211 1.387 1_655 S
H210 C217 0.950 . S
C211 C209 1.387 1_455 S
C211 C213 1.390 . S
C211 H215 0.950 1_455 S
H212 C208 0.950 1_655 S
C213 C211 1.390 . S
C213 C214 1.387 1_556 S
C213 H216 0.950 . S
C214 C213 1.387 1_554 S
C214 C217 1.387 . S
H215 C211 0.950 1_655 S
H216 C213 0.950 . S
C217 C208 1.390 . S
C217 H210 0.950 . S
C217 C214 1.387 . S
C218 C219 1.387 1_655 S
C218 H222 0.950 1_655 S
C218 C227 1.390 . S
C219 C218 1.387 1_455 S
C219 C221 1.387 1_456 S
H220 C227 0.950 . S
C221 C219 1.387 1_654 S
C221 C223 1.390 . S
C221 H225 0.950 1_655 S
H222 C218 0.950 1_455 S
C223 C221 1.390 . S
C223 C224 1.387 . S
C223 H226 0.950 . S
C224 C223 1.387 . S
C224 C227 1.387 1_554 S
H225 C221 0.950 1_455 S
H226 C223 0.950 . S
C227 C218 1.390 . S
C227 H220 0.950 . S
C227 C224 1.387 1_556 S
C228 C229 1.387 . S
C228 H232 0.950 . S
C228 C237 1.390 . S
C229 C228 1.387 . S
C229 C231 1.387 . S
H230 C237 0.950 1_655 S
C231 C229 1.387 . S
C231 C233 1.390 . S
C231 H235 0.950 . S
H232 C228 0.950 . S
C233 C231 1.390 . S
C233 C234 1.387 1_455 S
C233 H236 0.950 1_455 S
C234 C233 1.387 1_655 S
C234 C237 1.387 1_655 S
H235 C231 0.950 . S
H236 C233 0.950 1_655 S
C237 C228 1.390 . S
C237 H230 0.950 1_455 S
C237 C234 1.387 1_455 S
C238 C239 1.387 . S
C238 H242 0.950 . S
C238 C247 1.390 . S
C239 C238 1.387 . S
C239 C241 1.387 . S
H240 C247 0.950 1_455 S
C241 C239 1.387 . S
C241 C243 1.390 . S
C241 H245 0.950 . S
H242 C238 0.950 . S
C243 C241 1.390 . S
C243 C244 1.387 1_655 S
C243 H246 0.950 1_655 S
C244 C243 1.387 1_455 S
C244 C247 1.387 1_455 S
H245 C241 0.950 . S
H246 C243 0.950 1_455 S
C247 C238 1.390 . S
C247 H240 0.950 1_655 S
C247 C244 1.387 1_655 S
C248 C249 1.387 1_556 S
C248 H252 0.950 . S
C248 C257 1.390 1_455 S
C249 C248 1.387 1_554 S
C249 C251 1.387 . S
H250 C257 0.950 . S
C251 C249 1.387 . S
C251 C253 1.390 1_455 S
C251 H255 0.950 . S
H252 C248 0.950 . S
C253 C251 1.390 1_655 S
C253 C254 1.387 . S
C253 H256 0.950 . S
C254 C253 1.387 . S
C254 C257 1.387 1_554 S
H255 C251 0.950 . S
H256 C253 0.950 . S
C257 C248 1.390 1_655 S
C257 H250 0.950 . S
C257 C254 1.387 1_556 S
C258 C259 1.387 . S
C258 H262 0.950 . S
C258 C267 1.390 1_455 S
C259 C258 1.387 . S
C259 C261 1.387 . S
H260 C267 0.950 . S
C261 C259 1.387 . S
C261 C263 1.390 1_455 S
C261 H265 0.950 . S
H262 C258 0.950 . S
C263 C261 1.390 1_655 S
C263 C264 1.387 . S
C263 H266 0.950 . S
C264 C263 1.387 . S
C264 C267 1.387 . S
H265 C261 0.950 . S
H266 C263 0.950 . S
C267 C258 1.390 1_655 S
C267 H260 0.950 . S
C267 C264 1.387 . S
C268 C269 1.387 1_556 S
C268 H272 0.950 . S
C268 C277 1.390 1_565 S
C269 C268 1.387 1_554 S
C269 C271 1.387 . S
H270 C277 0.950 . S
C271 C269 1.387 . S
C271 C273 1.390 1_565 S
C271 H275 0.950 . S
H272 C268 0.950 . S
C273 C271 1.390 1_545 S
C273 C274 1.387 . S
C273 H276 0.950 . S
C274 C273 1.387 . S
C274 C277 1.387 1_554 S
H275 C271 0.950 . S
H276 C273 0.950 . S
C277 C268 1.390 1_545 S
C277 H270 0.950 . S
C277 C274 1.387 1_556 S
C278 C279 1.387 . S
C278 H282 0.950 . S
C278 C287 1.390 1_545 S
C279 C278 1.387 . S
C279 C281 1.387 . S
H280 C287 0.950 . S
C281 C279 1.387 . S
C281 C283 1.390 1_545 S
C281 H285 0.950 . S
H282 C278 0.950 . S
C283 C281 1.390 1_565 S
C283 C284 1.387 . S
C283 H286 0.950 . S
C284 C283 1.387 . S
C284 C287 1.387 . S
H285 C281 0.950 . S
H286 C283 0.950 . S
C287 C278 1.390 1_565 S
C287 H280 0.950 . S
C287 C284 1.387 . S
C288 C289 1.387 1_554 S
C288 H292 0.950 . S
C288 C297 1.390 . S
C289 C288 1.387 1_556 S
C289 C291 1.387 . S
H290 C297 0.950 . S
C291 C289 1.387 . S
C291 C293 1.390 . S
C291 H295 0.950 . S
H292 C288 0.950 . S
C293 C291 1.390 . S
C293 C294 1.387 . S
C293 H296 0.950 . S
C294 C293 1.387 . S
C294 C297 1.387 1_556 S
H295 C291 0.950 . S
H296 C293 0.950 . S
C297 C288 1.390 . S
C297 H290 0.950 . S
C297 C294 1.387 1_554 S
C298 C299 1.387 . S
C298 H302 0.950 . S
C298 C307 1.390 . S
C299 C298 1.387 . S
C299 C301 1.387 1_556 S
H300 C307 0.950 . S
C301 C299 1.387 1_554 S
C301 C303 1.390 . S
C301 H305 0.950 . S
H302 C298 0.950 . S
C303 C301 1.390 . S
C303 C304 1.387 1_554 S
C303 H306 0.950 . S
C304 C303 1.387 1_556 S
C304 C307 1.387 . S
H305 C301 0.950 . S
H306 C303 0.950 . S
C307 C298 1.390 . S
C307 H300 0.950 . S
C307 C304 1.387 . S
C308 C309 1.387 . S
C308 H312 0.950 . S
C308 C317 1.390 . S
C309 C308 1.387 . S
C309 C311 1.387 . S
H310 C317 0.950 . S
C311 C309 1.387 . S
C311 C313 1.390 . S
C311 H315 0.950 . S
H312 C308 0.950 . S
C313 C311 1.390 . S
C313 C314 1.387 . S
C313 H316 0.950 . S
C314 C313 1.387 . S
C314 C317 1.387 . S
H315 C311 0.950 . S
H316 C313 0.950 . S
C317 C308 1.390 . S
C317 H310 0.950 . S
C317 C314 1.387 . S
C318 C319 1.387 . S
C318 H322 0.950 . S
C318 C327 1.390 . S
C319 C318 1.387 . S
C319 C321 1.387 . S
H320 C327 0.950 . S
C321 C319 1.387 . S
C321 C323 1.390 . S
C321 H325 0.950 . S
H322 C318 0.950 . S
C323 C321 1.390 . S
C323 C324 1.387 . S
C323 H326 0.950 . S
C324 C323 1.387 . S
C324 C327 1.387 . S
H325 C321 0.950 . S
H326 C323 0.950 . S
C327 C318 1.390 . S
C327 H320 0.950 . S
C327 C324 1.387 . S
C328 C329 1.387 . S
C328 H332 0.950 . S
C328 C337 1.390 1_455 S
C329 C328 1.387 . S
C329 C331 1.387 . S
H330 C337 0.950 . S
C331 C329 1.387 . S
C331 C333 1.390 1_455 S
C331 H335 0.950 . S
H332 C328 0.950 . S
C333 C331 1.390 1_655 S
C333 C334 1.387 . S
C333 H336 0.950 . S
C334 C333 1.387 . S
C334 C337 1.387 . S
H335 C331 0.950 . S
H336 C333 0.950 . S
C337 C328 1.390 1_655 S
C337 H330 0.950 . S
C337 C334 1.387 . S
C338 C339 1.387 . S
C338 H342 0.950 . S
C338 C347 1.390 1_655 S
C339 C338 1.387 . S
C339 C341 1.387 . S
H340 C347 0.950 . S
C341 C339 1.387 . S
C341 C343 1.390 1_655 S
C341 H345 0.950 . S
H342 C338 0.950 . S
C343 C341 1.390 1_455 S
C343 C344 1.387 . S
C343 H346 0.950 . S
C344 C343 1.387 . S
C344 C347 1.387 . S
H345 C341 0.950 . S
H346 C343 0.950 . S
C347 C338 1.390 1_455 S
C347 H340 0.950 . S
C347 C344 1.387 . S
C348 C349 1.387 . S
C348 H352 0.950 . S
C348 C357 1.390 1_655 S
C349 C348 1.387 . S
C349 C351 1.387 . S
H350 C357 0.950 . S
C351 C349 1.387 . S
C351 C353 1.390 1_655 S
C351 H355 0.950 . S
H352 C348 0.950 . S
C353 C351 1.390 1_455 S
C353 C354 1.387 . S
C353 H356 0.950 . S
C354 C353 1.387 . S
C354 C357 1.387 . S
H355 C351 0.950 . S
H356 C353 0.950 . S
C357 C348 1.390 1_455 S
C357 H350 0.950 . S
C357 C354 1.387 . S
C358 C359 1.387 . S
C358 H362 0.950 . S
C358 C367 1.390 1_655 S
C359 C358 1.387 . S
C359 C361 1.387 . S
H360 C367 0.950 . S
C361 C359 1.387 . S
C361 C363 1.390 1_655 S
C361 H365 0.950 . S
H362 C358 0.950 . S
C363 C361 1.390 1_455 S
C363 C364 1.387 . S
C363 H366 0.950 . S
C364 C363 1.387 . S
C364 C367 1.387 . S
H365 C361 0.950 . S
H366 C363 0.950 . S
C367 C358 1.390 1_455 S
C367 H360 0.950 . S
C367 C364 1.387 . S
C368 C369 1.387 . S
C368 H372 0.950 . S
C368 C377 1.390 . S
C369 C368 1.387 . S
C369 C371 1.387 . S
H370 C377 0.950 . S
C371 C369 1.387 . S
C371 C373 1.390 . S
C371 H375 0.950 . S
H372 C368 0.950 . S
C373 C371 1.390 . S
C373 C374 1.387 . S
C373 H376 0.950 . S
C374 C373 1.387 . S
C374 C377 1.387 . S
H375 C371 0.950 . S
H376 C373 0.950 . S
C377 C368 1.390 . S
C377 H370 0.950 . S
C377 C374 1.387 . S
C378 C379 1.387 . S
C378 H382 0.950 . S
C378 C387 1.390 . S
C379 C378 1.387 . S
C379 C381 1.387 . S
H380 C387 0.950 . S
C381 C379 1.387 . S
C381 C383 1.390 . S
C381 H385 0.950 . S
H382 C378 0.950 . S
C383 C381 1.390 . S
C383 C384 1.387 . S
C383 H386 0.950 . S
C384 C383 1.387 . S
C384 C387 1.387 . S
H385 C381 0.950 . S
H386 C383 0.950 . S
C387 C378 1.390 . S
C387 H380 0.950 . S
C387 C384 1.387 . S
C388 C389 1.387 . S
C388 H392 0.950 . S
C388 C397 1.390 . S
C389 C388 1.387 . S
C389 C391 1.387 . S
H390 C397 0.950 . S
C391 C389 1.387 . S
C391 C393 1.390 . S
C391 H395 0.950 . S
H392 C388 0.950 . S
C393 C391 1.390 . S
C393 C394 1.387 . S
C393 H396 0.950 . S
C394 C393 1.387 . S
C394 C397 1.387 . S
H395 C391 0.950 . S
H396 C393 0.950 . S
C397 C388 1.390 . S
C397 H390 0.950 . S
C397 C394 1.387 . S
C398 C399 1.387 . S
C398 H402 0.950 . S
C398 C407 1.390 . S
C399 C398 1.387 . S
C399 C401 1.387 . S
H400 C407 0.950 . S
C401 C399 1.387 . S
C401 C403 1.390 . S
C401 H405 0.950 . S
H402 C398 0.950 . S
C403 C401 1.390 . S
C403 C404 1.387 . S
C403 H406 0.950 . S
C404 C403 1.387 . S
C404 C407 1.387 . S
H405 C401 0.950 . S
H406 C403 0.950 . S
C407 C398 1.390 . S
C407 H400 0.950 . S
C407 C404 1.387 . S
C169 C16 1.309 1_556 S
C174 C14 1.299 1_554 S
C179 C35 1.303 1_554 S
C184 C37 1.313 1_556 S
C189 C59 1.299 . S
C194 C55 1.309 . S
C199 C79 1.309 . S
C204 C77 1.299 . S
C209 C100 1.313 1_556 S
C214 C98 1.303 1_554 S
C219 C121 1.309 1_556 S
C224 C119 1.299 1_554 S
C229 C143 1.303 . S
C234 C139 1.313 . S
C239 C161 1.303 . S
C244 C163 1.313 . S
C249 C34 1.521 1_554 S
C254 C13 1.521 1_554 S
C259 C76 1.520 . S
C264 C58 1.520 . S
C269 C97 1.520 1_554 S
C274 C118 1.520 1_554 S
C279 C142 1.520 . S
C284 C160 1.520 . S
C289 C17 1.511 1_556 S
C294 C122 1.511 1_556 S
C299 C101 1.514 1_556 S
C304 C38 1.514 1_556 S
C309 C56 1.514 . S
C314 C164 1.514 . S
C319 C80 1.514 . S
C324 C140 1.514 . S
C329 C18 1.317 . S
C334 C81 1.315 . S
C339 C39 1.321 . S
C344 C57 1.319 . S
C349 C36 1.264 . S
C354 C60 1.266 . S
C359 C78 1.259 . S
C364 C15 1.261 . S
C369 C102 1.321 . S
C374 C165 1.319 . S
C379 C123 1.317 . S
C384 C141 1.315 . S
C389 C120 1.259 . S
C394 C144 1.261 . S
C399 C162 1.259 . S
C404 C99 1.261 . S
