# Generated by pormake.
# Topology snz, (6)-cn, num edge types: 1
# Building blocks:
#     Node 0, Type 0, BuildingBlock: CUKXOW_clean_sbu_0, # of connection points: 6
#     Node 1, Type 0, BuildingBlock: CUKXOW_clean_sbu_0, # of connection points: 6
#     Node 2, Type 0, BuildingBlock: CUKXOW_clean_sbu_0, # of connection points: 6
#     Node 3, Type 0, BuildingBlock: CUKXOW_clean_sbu_0, # of connection points: 6
#     Node 4, Type 0, BuildingBlock: CUKXOW_clean_sbu_0, # of connection points: 6
#     Node 5, Type 0, BuildingBlock: CUKXOW_clean_sbu_0, # of connection points: 6
#     Node 6, Type 0, BuildingBlock: CUKXOW_clean_sbu_0, # of connection points: 6
#     Node 7, Type 0, BuildingBlock: CUKXOW_clean_sbu_0, # of connection points: 6
#     Node 8, Type 0, BuildingBlock: CUKXOW_clean_sbu_0, # of connection points: 6
#     Edge 9, Type (0, 0), BuildingBlock: EZIPEK_clean_linker_0, # of connection points: 2
#     Edge 10, Type (0, 0), BuildingBlock: EZIPEK_clean_linker_0, # of connection points: 2
#     Edge 11, Type (0, 0), BuildingBlock: EZIPEK_clean_linker_0, # of connection points: 2
#     Edge 12, Type (0, 0), BuildingBlock: EZIPEK_clean_linker_0, # of connection points: 2
#     Edge 13, Type (0, 0), BuildingBlock: EZIPEK_clean_linker_0, # of connection points: 2
#     Edge 14, Type (0, 0), BuildingBlock: EZIPEK_clean_linker_0, # of connection points: 2
#     Edge 15, Type (0, 0), BuildingBlock: EZIPEK_clean_linker_0, # of connection points: 2
#     Edge 16, Type (0, 0), BuildingBlock: EZIPEK_clean_linker_0, # of connection points: 2
#     Edge 17, Type (0, 0), BuildingBlock: EZIPEK_clean_linker_0, # of connection points: 2
#     Edge 18, Type (0, 0), BuildingBlock: EZIPEK_clean_linker_0, # of connection points: 2
#     Edge 19, Type (0, 0), BuildingBlock: EZIPEK_clean_linker_0, # of connection points: 2
#     Edge 20, Type (0, 0), BuildingBlock: EZIPEK_clean_linker_0, # of connection points: 2
#     Edge 21, Type (0, 0), BuildingBlock: EZIPEK_clean_linker_0, # of connection points: 2
#     Edge 22, Type (0, 0), BuildingBlock: EZIPEK_clean_linker_0, # of connection points: 2
#     Edge 23, Type (0, 0), BuildingBlock: EZIPEK_clean_linker_0, # of connection points: 2
#     Edge 24, Type (0, 0), BuildingBlock: EZIPEK_clean_linker_0, # of connection points: 2
#     Edge 25, Type (0, 0), BuildingBlock: EZIPEK_clean_linker_0, # of connection points: 2
#     Edge 26, Type (0, 0), BuildingBlock: EZIPEK_clean_linker_0, # of connection points: 2
#     Edge 27, Type (0, 0), BuildingBlock: EZIPEK_clean_linker_0, # of connection points: 2
#     Edge 28, Type (0, 0), BuildingBlock: EZIPEK_clean_linker_0, # of connection points: 2
#     Edge 29, Type (0, 0), BuildingBlock: EZIPEK_clean_linker_0, # of connection points: 2
#     Edge 30, Type (0, 0), BuildingBlock: EZIPEK_clean_linker_0, # of connection points: 2
#     Edge 31, Type (0, 0), BuildingBlock: EZIPEK_clean_linker_0, # of connection points: 2
#     Edge 32, Type (0, 0), BuildingBlock: EZIPEK_clean_linker_0, # of connection points: 2
#     Edge 33, Type (0, 0), BuildingBlock: EZIPEK_clean_linker_0, # of connection points: 2
#     Edge 34, Type (0, 0), BuildingBlock: EZIPEK_clean_linker_0, # of connection points: 2
#     Edge 35, Type (0, 0), BuildingBlock: EZIPEK_clean_linker_0, # of connection points: 2
# Relax obj value: 0.115
# Max RMSD: 0.182
# Mean RMSD: 0.133
data_MOF--net-snz--node1-CUKXOW_clean_sbu_0--edge1-EZIPEK_clean_linker_0
_symmetry_space_group_name_H-M    P1
_symmetry_Int_Tables_number       1
_symmetry_cell_setting            triclinic
loop_
_symmetry_equiv_pos_as_xyz
'x, y, z'
_cell_length_a     36.131611
_cell_length_b     42.607379
_cell_length_c     10.775246
_cell_angle_alpha  92.596488
_cell_angle_beta   92.267953
_cell_angle_gamma 119.60961
loop_
_atom_site_label
_atom_site_type_symbol
_atom_site_fract_x
_atom_site_fract_y
_atom_site_fract_z
_atom_type_partial_charge
Tb0 Tb 0.04315 0.42298 0.88973 0.0
C1 C 0.09536 0.46889 0.67934 0.0
Tb2 Tb 0.11033 0.50171 0.95213 0.0
O3 O 0.99959 0.43641 0.78584 0.0
O4 O 0.04363 0.47235 0.92156 0.0
O5 O 0.07996 0.43707 0.72717 0.0
C6 C 0.16186 0.57248 -0.00565 0.0
O7 O 0.10429 0.49821 0.75042 0.0
C8 C 0.13338 0.45424 0.01259 0.0
C9 C 0.05352 0.45835 0.16346 0.0
O10 O 0.17277 0.55007 0.94598 0.0
O11 O 0.12166 0.55533 0.01383 0.0
O12 O 0.1465 0.4853 0.07223 0.0
O13 O 0.11115 0.45219 0.91562 0.0
O14 O 0.07855 0.4906 0.12306 0.0
O15 O 1.0374 0.42807 0.08973 0.0
C16 C 1.00372 0.35067 0.85654 0.0
O17 O 1.03343 0.37047 0.94262 0.0
O18 O 0.99589 0.37163 0.79017 0.0
C19 C 1.01816 0.46968 0.83293 0.0
Tb20 Tb 0.63286 0.51375 0.02648 0.0
C21 C 0.63822 0.47499 0.2529 0.0
Tb22 Tb 0.62441 0.4383 -0.00404 0.0
O23 O 0.56511 0.49751 0.05219 0.0
O24 O 0.5839 0.45963 0.03134 0.0
O25 O 0.65784 0.50543 0.1988 0.0
C26 C 0.60314 0.37046 0.92731 0.0
O27 O 0.61791 0.44312 0.19044 0.0
C28 C 0.70452 0.49332 0.00364 0.0
C29 C 0.61402 0.47527 0.76678 0.0
O30 O 0.58991 0.38036 0.02382 0.0
O31 O 0.62835 0.39858 0.87098 0.0
O32 O 0.69283 0.46259 0.0512 0.0
O33 O 0.67109 0.49191 0.95684 0.0
O34 O 0.59843 0.44435 0.82032 0.0
O35 O 0.63431 0.50741 0.82898 0.0
C36 C 0.66948 0.58351 0.09986 0.0
O37 O 0.64854 0.56941 -0.00794 0.0
O38 O 0.66929 0.55856 0.16376 0.0
C39 C 0.55195 0.46312 0.05091 0.0
Tb40 Tb 0.64987 0.9982 0.12593 0.0
C41 C 0.64485 0.9531 0.88345 0.0
Tb42 Tb 0.6686 0.93387 0.1362 0.0
O43 O 0.718 0.03504 0.17349 0.0
O44 O 0.69888 0.98699 0.0735 0.0
O45 O 0.62735 0.96947 0.94408 0.0
C46 C 0.71637 0.90396 0.19395 0.0
O47 O 0.66655 0.93941 0.93867 0.0
C48 C 0.58662 0.91166 0.17227 0.0
C49 C 0.66976 0.97789 0.37458 0.0
O50 O 0.68772 0.8927 0.1001 0.0
O51 O 0.71804 0.93186 0.25247 0.0
O52 O 0.60252 0.89018 0.16443 0.0
O53 O 0.617 0.94275 0.15694 0.0
O54 O 0.6913 0.96572 0.3127 0.0
O55 O 0.64723 0.99096 0.32066 0.0
C56 C 0.62623 0.04539 0.05525 0.0
O57 O 0.60133 0.0148 0.10171 0.0
O58 O 0.66402 0.0495 0.05286 0.0
C59 C 0.7317 0.01499 0.12095 0.0
Tb60 Tb 0.83638 0.79093 0.41771 0.0
C61 C 0.88295 0.82731 0.18371 0.0
Tb62 Tb 0.9096 0.86679 0.44277 0.0
O63 O 0.79199 0.8098 0.46005 0.0
O64 O 0.84474 0.84163 0.36341 0.0
O65 O 0.85979 0.79685 0.23532 0.0
C66 C 0.95673 0.9389 0.49134 0.0
O67 O 0.9033 0.85934 0.24495 0.0
C68 C 0.93239 0.81633 0.45199 0.0
C69 C 0.86208 0.82962 0.66947 0.0
O70 O 0.93096 0.92239 0.3939 0.0
O71 O 0.95692 0.91478 0.55987 0.0
O72 O 0.95655 0.84844 0.41463 0.0
O73 O 0.90021 0.81581 0.49407 0.0
O74 O 0.87633 0.85948 0.6109 0.0
O75 O 0.85151 0.79803 0.61255 0.0
C76 C 0.78087 0.72172 0.35004 0.0
O77 O 0.77218 0.74391 0.41065 0.0
O78 O 0.82132 0.73789 0.33402 0.0
C79 C 0.81178 0.83986 0.4072 0.0
Tb80 Tb 0.34569 0.86785 0.31909 0.0
C81 C 0.35275 0.82509 0.5374 0.0
Tb82 Tb 0.32372 0.78715 0.26903 0.0
O83 O 0.28968 0.85272 0.42615 0.0
O84 O 0.29029 0.81575 0.29901 0.0
O85 O 0.36986 0.85687 0.4884 0.0
C86 C 0.27503 0.71724 0.20288 0.0
O87 O 0.32721 0.79437 0.46991 0.0
C88 C 0.40554 0.83228 0.23789 0.0
C89 C 0.32414 0.83272 0.04447 0.0
O90 O 0.30439 0.73035 0.29461 0.0
O91 O 0.27315 0.74315 0.15089 0.0
O92 O 0.38795 0.79722 0.22372 0.0
O93 O 0.37682 0.83899 0.26925 0.0
O94 O 0.31224 0.80068 0.08711 0.0
O95 O 0.34189 0.86315 0.11737 0.0
C96 C 0.376 0.93808 0.35763 0.0
O97 O 0.33951 0.9157 0.29882 0.0
O98 O 0.3964 0.92132 0.38871 0.0
C99 C 0.26977 0.81891 0.38641 0.0
Tb100 Tb 0.28975 0.36261 0.15923 0.0
C101 C 0.28714 0.31893 0.91824 0.0
Tb102 Tb 0.31148 0.29968 0.16563 0.0
O103 O 0.35482 0.40646 0.11931 0.0
O104 O 0.34131 0.35446 0.13043 0.0
O105 O 0.26569 0.33075 0.98268 0.0
C106 C 0.34113 0.25595 0.22992 0.0
O107 O 0.31113 0.30683 0.97007 0.0
C108 C 0.22928 0.2808 0.18274 0.0
C109 C 0.3169 0.34418 0.41093 0.0
O110 O 0.36381 0.28756 0.18718 0.0
O111 O 0.30196 0.24865 0.23033 0.0
O112 O 0.24328 0.26127 0.12777 0.0
O113 O 0.26222 0.30963 0.22507 0.0
O114 O 0.33426 0.32795 0.3487 0.0
O115 O 0.29512 0.35802 0.35703 0.0
C116 C 0.24121 0.39291 0.12232 0.0
O117 O 0.27364 0.40523 0.20443 0.0
O118 O 0.23624 0.36387 0.0627 0.0
C119 C 0.37105 0.38524 0.1103 0.0
Tb120 Tb 0.45231 0.15813 0.62926 0.0
C121 C 0.53979 0.22649 0.70085 0.0
Tb122 Tb 0.52561 0.14998 0.6533 0.0
O123 O 0.42929 0.13649 0.81175 0.0
O124 O 0.49347 0.16378 0.79008 0.0
O125 O 0.50478 0.21358 0.62687 0.0
C126 C 0.57384 0.12362 0.74202 0.0
O127 O 0.55223 0.2043 0.74225 0.0
C128 C 0.51151 0.1626 0.41629 0.0
C129 C 0.43814 0.0817 0.58095 0.0
O130 O 0.58837 0.15701 0.71592 0.0
O131 O 0.53353 0.10544 0.71137 0.0
O132 O 0.54861 0.17171 0.47075 0.0
O133 O 0.48452 0.14437 0.49258 0.0
O134 O 0.47312 0.09444 0.65483 0.0
O135 O 0.42593 0.104 0.53946 0.0
C136 C 0.40274 0.18324 0.54094 0.0
O137 O 0.389 0.15005 0.56799 0.0
O138 O 0.44312 0.20201 0.57031 0.0
C139 C 0.46637 0.14564 0.86629 0.0
Tb140 Tb 0.9374 0.12408 0.67061 0.0
C141 C 0.98796 0.08307 0.61807 0.0
Tb142 Tb 1.03182 0.16895 0.65826 0.0
O143 O 0.9263 0.10658 0.46833 0.0
O144 O 0.97809 0.15582 0.53224 0.0
O145 O 0.95054 0.08027 0.63749 0.0
C146 C 0.09808 0.20436 0.51963 0.0
O147 O 1.02397 0.11472 0.62212 0.0
C148 C 1.00782 0.15963 0.89474 0.0
C149 C 0.981 0.20964 0.71527 0.0
O150 O 0.10089 0.19385 0.63024 0.0
O151 O 0.05888 0.19526 0.49052 0.0
O152 O 0.04325 0.18663 0.8604 0.0
O153 O 0.99122 0.13744 0.79724 0.0
O154 O 1.01851 0.21267 0.69486 0.0
O155 O 0.94507 0.17799 0.70919 0.0
C156 C 0.86979 0.08893 0.80426 0.0
O157 O 0.86816 0.0998 0.69359 0.0
O158 O 0.90862 0.09746 0.83639 0.0
C159 C 0.9616 0.13377 0.43452 0.0
Tb160 Tb 1.02806 0.67147 0.65038 0.0
C161 C 0.99823 0.58976 0.66959 0.0
Tb162 Tb 0.93479 0.62173 0.65133 0.0
O163 O 0.03851 0.66374 0.84807 0.0
O164 O 0.9818 0.66021 0.78728 0.0
O165 O 1.0292 0.62074 0.63479 0.0
C166 C 0.86008 0.57995 0.75104 0.0
O167 O 0.95969 0.58495 0.68852 0.0
C168 C 0.96187 0.63803 0.42055 0.0
C169 C 0.96415 0.70331 0.62279 0.0
O170 O 0.86945 0.5743 0.63958 0.0
O171 O 0.89243 0.60888 0.80392 0.0
O172 O 0.92392 0.62947 0.45399 0.0
O173 O 0.98103 0.63301 0.51367 0.0
O174 O 0.93253 0.6719 0.65204 0.0
O175 O 1.00362 0.70884 0.61511 0.0
C176 C 0.10575 0.71672 0.57202 0.0
O177 O 0.09711 0.70945 0.68665 0.0
O178 O 0.0705 0.69893 0.50264 0.0
C179 C 1.00063 0.65513 0.88072 0.0
C180 C 0.08967 0.49769 0.48598 0.0
C181 C 0.09223 0.46915 0.54108 0.0
C182 C 0.05327 0.42842 0.35745 0.0
C183 C 0.05169 0.45703 0.30087 0.0
N184 N 0.05256 0.51356 0.33123 0.0
N185 N 0.09355 0.41358 0.50331 0.0
C186 C 0.06495 0.49006 0.37196 0.0
C187 C 0.07907 0.43626 0.46902 0.0
N188 N 0.11388 0.53253 0.53573 0.0
N189 N 1.02811 0.39351 0.30982 0.0
H190 H 0.11642 0.42072 0.57746 0.0
H191 H 0.08719 0.39035 0.44909 0.0
H192 H 1.00462 0.38642 0.2378 0.0
H193 H 1.02633 0.3715 0.35346 0.0
H194 H 0.11494 0.5546 0.49468 0.0
H195 H 0.13795 0.53992 0.60614 0.0
H196 H 0.05798 0.53675 0.3839 0.0
H197 H 1.03211 0.50703 0.25136 0.0
C198 C 0.5999 0.48852 0.55735 0.0
C199 C 0.61903 0.47417 0.63515 0.0
C200 C 0.65072 0.46017 0.46151 0.0
C201 C 0.63419 0.47692 0.38511 0.0
N202 N 0.59799 0.51178 0.36002 0.0
N203 N 0.67056 0.45418 0.67011 0.0
C204 C 0.61068 0.49294 0.43306 0.0
C205 C 0.64642 0.46188 0.58996 0.0
N206 N 0.57024 0.49652 0.60116 0.0
N207 N 0.67092 0.44303 0.41173 0.0
H208 H 0.66968 0.45628 0.76595 0.0
H209 H 0.69454 0.44915 0.64242 0.0
H210 H 0.67852 0.44416 0.31906 0.0
H211 H 0.67807 0.42596 0.46082 0.0
H212 H 0.55113 0.50276 0.54438 0.0
H213 H 0.56199 0.49395 0.69333 0.0
H214 H 0.58576 0.52771 0.39499 0.0
H215 H 0.60146 0.51318 0.26514 0.0
C216 C 0.63505 0.92957 0.66603 0.0
C217 C 0.65065 0.95949 0.75354 0.0
C218 C 0.67913 0.00181 0.59206 0.0
C219 C 0.66613 0.97188 0.50556 0.0
N220 N 0.63864 0.90716 0.46159 0.0
N221 N 0.6958 0.02406 0.80687 0.0
C222 C 0.64655 0.93573 0.54283 0.0
C223 C 0.67481 0.99569 0.71893 0.0
N224 N 0.60784 0.89545 0.6996 0.0
N225 N 0.69595 0.03609 0.55332 0.0
H226 H 0.69403 0.02128 0.90171 0.0
H227 H 0.71826 0.0501 0.78643 0.0
H228 H 0.70378 0.04232 0.46211 0.0
H229 H 0.70009 0.05814 0.61046 0.0
H230 H 0.59095 0.87312 0.63571 0.0
H231 H 0.59907 0.88988 0.7905 0.0
H232 H 0.62991 0.88147 0.48956 0.0
H233 H 0.64356 0.9091 0.36764 0.0
C234 C 0.83101 0.81785 0.8687 0.0
C235 C 0.8677 0.83267 0.80149 0.0
C236 C 0.91329 0.83876 0.9824 0.0
C237 C 0.87717 0.82652 0.05169 0.0
N238 N 0.80309 0.81035 0.06953 0.0
N239 N 0.94436 0.86194 0.79085 0.0
C240 C 0.83628 0.81752 -0.00237 0.0
C241 C 0.90916 0.84483 0.8573 0.0
N242 N 0.79124 0.80355 0.80899 0.0
N243 N 0.95076 0.84299 0.03497 0.0
H244 H 0.94258 0.86468 0.69587 0.0
H245 H 0.97546 0.87549 0.83145 0.0
H246 H 0.95444 0.83814 0.1275 0.0
H247 H 0.97694 0.84812 0.98459 0.0
H248 H 0.76311 0.78782 0.85161 0.0
H249 H 0.78628 0.80556 0.71433 0.0
H250 H 0.77473 0.80875 0.03597 0.0
H251 H 0.8047 0.80839 0.16474 0.0
C252 C 0.37497 0.85921 0.7463 0.0
C253 C 0.35342 0.82539 0.67546 0.0
C254 C 0.30356 0.79998 0.83591 0.0
C255 C 0.32493 0.83371 0.90709 0.0
N256 N 0.36857 0.89847 0.90169 0.0
N257 N 0.31142 0.7607 0.68477 0.0
C258 C 0.35721 0.8644 0.85459 0.0
C259 C 0.32184 0.79475 0.72955 0.0
N260 N 0.41368 0.88558 0.71392 0.0
N261 N 0.26474 0.77354 0.86753 0.0
H262 H 0.32876 0.75624 0.61788 0.0
H263 H 0.29025 0.73749 0.72666 0.0
H264 H 0.24915 0.77804 0.93999 0.0
H265 H 0.24619 0.7494 0.81283 0.0
H266 H 0.43251 0.90971 0.76834 0.0
H267 H 0.42928 0.88095 0.64201 0.0
H268 H 0.39011 0.92174 0.86088 0.0
H269 H 0.35146 0.90326 0.96834 0.0
C270 C 0.28646 0.30101 0.57504 0.0
C271 C 0.31064 0.33733 0.54097 0.0
C272 C 0.30888 0.36065 0.74809 0.0
C273 C 0.28971 0.32462 0.78633 0.0
N274 N 0.2621 0.26068 0.74095 0.0
N275 N 0.35126 0.40134 0.59677 0.0
C276 C 0.2792 0.29486 0.70122 0.0
C277 C 0.32345 0.36706 0.62777 0.0
N278 N 0.26825 0.27246 0.48695 0.0
N279 N 0.31434 0.38898 0.82646 0.0
H280 H 0.36296 0.40693 0.50872 0.0
H281 H 0.36605 0.42373 0.66124 0.0
H282 H 0.3074 0.38707 0.91906 0.0
H283 H 0.32309 0.41449 0.79654 0.0
H284 H 0.2457 0.24628 0.50571 0.0
H285 H 0.27242 0.27495 0.3927 0.0
H286 H 0.25978 0.23878 0.68698 0.0
H287 H 0.25199 0.25445 0.83044 0.0
C288 C 0.51237 0.13825 0.19104 0.0
C289 C 0.5013 0.15898 0.27424 0.0
C290 C 0.46541 0.16996 0.09147 0.0
C291 C 0.47649 0.14922 0.00835 0.0
N292 N 0.5015 0.10664 0.98701 0.0
N293 N 0.47567 0.20113 0.29606 0.0
C294 C 0.49788 0.13179 0.0607 0.0
C295 C 0.47968 0.17625 0.22202 0.0
N296 N 0.5379 0.12537 0.23516 0.0
N297 N 0.44013 0.18304 0.04698 0.0
H298 H 0.48795 0.20795 0.38834 0.0
H299 H 0.46457 0.21788 0.26423 0.0
H300 H 0.4297 0.18014 0.9538 0.0
H301 H 0.42649 0.19447 0.10323 0.0
H302 H 0.55117 0.11364 0.17876 0.0
H303 H 0.54893 0.12873 0.32795 0.0
H304 H 0.51224 0.08969 0.01932 0.0
H305 H 0.48914 0.09977 0.89479 0.0
C306 C 0.97491 0.11354 0.21464 0.0
C307 C 0.97381 0.14067 0.296 0.0
C308 C 0.99538 0.18025 0.11543 0.0
C309 C 0.99604 0.15296 0.03374 0.0
N310 N 1.00046 0.09859 0.02719 0.0
N311 N 0.97135 0.19599 0.30474 0.0
C312 C 0.98898 0.12075 0.08916 0.0
C313 C 0.98152 0.17316 0.24122 0.0
N314 N 0.96146 0.07998 0.25562 0.0
N315 N 1.00945 0.21393 0.07481 0.0
H316 H 0.95804 0.19048 0.39058 0.0
H317 H 0.97108 0.2179 0.26658 0.0
H318 H 1.01786 0.22022 0.98424 0.0
H319 H 1.01572 0.23639 0.13331 0.0
H320 H 0.95563 0.05763 0.1972 0.0
H321 H 0.95317 0.07368 0.34627 0.0
H322 H 1.00114 0.07693 0.06601 0.0
H323 H 1.01461 0.10466 0.94262 0.0
C324 C 0.98188 0.61832 0.21292 0.0
C325 C 0.9744 0.64349 0.28354 0.0
C326 C 0.98117 0.67557 0.08772 0.0
C327 C 0.98798 0.64998 0.01728 0.0
N328 N 0.9833 0.59175 0.01026 0.0
N329 N 0.97524 0.70022 0.28952 0.0
C330 C 0.98569 0.62023 0.08007 0.0
C331 C 0.9757 0.67291 0.22014 0.0
N332 N 0.98616 0.5926 0.27274 0.0
N333 N 0.97943 0.70246 0.02778 0.0
H334 H 0.97449 0.7002 0.38537 0.0
H335 H 0.97989 0.72432 0.25606 0.0
H336 H 0.9857 0.70664 0.9347 0.0
H337 H 0.9692 0.71936 0.06691 0.0
H338 H 0.99723 0.57652 0.23149 0.0
H339 H 0.98215 0.58931 0.36715 0.0
H340 H 0.97631 0.56715 0.04493 0.0
H341 H 0.9831 0.59121 0.91399 0.0
C342 C 0.17901 0.40141 0.16554 0.0
C343 C 0.21451 0.40962 0.0949 0.0
C344 C 0.19502 0.44524 0.96121 0.0
C345 C 0.15791 0.43496 0.0272 0.0
N346 N 0.11004 0.3975 0.1744 0.0
N347 N 0.25417 0.43561 0.91679 0.0
C348 C 0.14861 0.41131 0.12412 0.0
C349 C 0.22175 0.43031 -0.01032 0.0
N350 N 0.17496 0.38506 0.27428 0.0
N351 N 0.20573 0.47044 0.87517 0.0
H352 H 0.27618 0.42736 0.93991 0.0
H353 H 0.25802 0.44648 0.83049 0.0
H354 H 0.18642 0.48116 0.84882 0.0
H355 H 0.23492 0.48242 0.83508 0.0
H356 H 0.15208 0.38153 0.3364 0.0
H357 H 0.19715 0.37813 0.30838 0.0
H358 H 0.09909 0.3768 0.23469 0.0
H359 H 0.08716 0.4041 0.14491 0.0
C360 C 0.72368 0.64907 0.08586 0.0
C361 C 0.69084 0.62166 0.14912 0.0
C362 C 0.71562 0.66043 0.34332 0.0
C363 C 0.74852 0.68788 0.28043 0.0
N364 N 0.77407 0.713 0.08409 0.0
N365 N 0.64691 0.60543 0.32332 0.0
C366 C 0.74964 0.68369 0.14913 0.0
C367 C 0.68403 0.62881 0.27335 0.0
N368 N 0.73162 0.64178 0.96826 0.0
N369 N 0.71558 0.66371 0.47009 0.0
H370 H 0.62247 0.5829 0.27132 0.0
H371 H 0.63845 0.6105 0.41014 0.0
H372 H 0.73852 0.68637 0.52498 0.0
H373 H 0.69491 0.64273 0.52172 0.0
H374 H 0.7585 0.65964 0.92426 0.0
H375 H 0.713 0.61699 0.91743 0.0
H376 H 0.77292 0.71201 0.98715 0.0
H377 H 0.79165 0.73921 0.12592 0.0
C378 C 0.52499 0.89868 0.30403 0.0
C379 C 0.54019 0.89944 0.18402 0.0
C380 C 0.4656 0.86302 0.09626 0.0
C381 C 0.45121 0.85844 0.21865 0.0
N382 N 0.46819 0.8672 0.44023 0.0
N383 N 0.52527 0.88243 0.96438 0.0
C384 C 0.48111 0.8754 0.32282 0.0
C385 C 0.51043 0.8819 0.07941 0.0
N386 N 0.55259 0.92036 0.40066 0.0
N387 N 0.43627 0.84919 -0.00377 0.0
H388 H 0.55752 0.89773 0.94867 0.0
H389 H 0.50623 0.86693 0.8857 0.0
H390 H 0.40353 0.83438 0.00571 0.0
H391 H 0.44391 0.85412 0.90446 0.0
H392 H 0.54319 0.92389 0.48793 0.0
H393 H 0.58445 0.93781 0.38848 0.0
H394 H 0.48919 0.87526 0.51933 0.0
H395 H 0.43669 0.84932 0.45757 0.0
C396 C 0.59523 0.05211 0.8541 0.0
C397 C 0.61238 0.06598 0.97803 0.0
C398 C 0.61084 0.12176 0.94209 0.0
C399 C 0.59556 0.10842 0.81641 0.0
N400 N 0.58294 0.06543 0.64501 0.0
N401 N 0.64368 0.11603 0.13435 0.0
C402 C 0.59086 0.07496 0.77021 0.0
C403 C 0.62265 0.10157 0.02002 0.0
N404 N 0.58234 0.0169 0.81687 0.0
N405 N 0.61169 0.15246 0.98939 0.0
H406 H 0.65071 0.10128 0.19644 0.0
H407 H 0.65646 0.14319 0.16452 0.0
H408 H 0.60376 0.16834 0.93615 0.0
H409 H 0.6177 0.1611 0.08364 0.0
H410 H 0.56562 0.00425 0.73188 0.0
H411 H 0.58481 0.99912 0.87511 0.0
H412 H 0.5833 0.04308 0.60312 0.0
H413 H 0.58037 0.08208 0.58115 0.0
C414 C 1.00292 0.27309 0.66706 0.0
C415 C 0.98012 0.24388 0.7424 0.0
C416 C 0.96495 0.28364 0.87822 0.0
C417 C 0.99317 0.31356 0.81348 0.0
N418 N 0.04414 0.33785 0.65684 0.0
N419 N 0.94148 0.22194 0.92689 0.0
C420 C 1.01331 0.30857 0.71021 0.0
C421 C 0.96106 0.24909 0.84911 0.0
N422 N 1.01385 0.26684 0.55231 0.0
N423 N 0.94172 0.28829 0.96695 0.0
H424 H 0.93842 0.19649 0.91139 0.0
H425 H 0.93148 0.22548 0.01308 0.0
H426 H 0.94462 0.31343 -0.0084 0.0
H427 H 0.91719 0.26697 0.00851 0.0
H428 H 1.02626 0.28639 0.48783 0.0
H429 H 1.00643 0.24118 0.51621 0.0
H430 H 0.06357 0.33588 0.59163 0.0
H431 H 0.05317 0.36449 0.68563 0.0
C432 C 0.79936 0.5734 0.87551 0.0
C433 C 0.82005 0.55694 0.81328 0.0
C434 C 0.7656 0.49766 0.87651 0.0
C435 C 0.74678 0.5147 0.94753 0.0
N436 N 0.75473 0.57013 0.04165 0.0
N437 N 0.82895 0.50473 0.78239 0.0
C438 C 0.76632 0.553 0.95457 0.0
C439 C 0.80492 0.51945 0.82166 0.0
N440 N 0.81026 0.60833 0.85632 0.0
N441 N 0.74565 0.46084 0.8558 0.0
H442 H 0.85805 0.51962 0.74322 0.0
H443 H 0.8222 0.47866 0.80021 0.0
H444 H 0.71677 0.44299 0.89011 0.0
H445 H 0.75566 0.44783 0.79261 0.0
H446 H 0.79343 0.62052 0.89 0.0
H447 H 0.83325 0.6239 0.79613 0.0
H448 H 0.7703 0.59816 0.05908 0.0
H449 H 0.73335 0.556 0.10738 0.0
C450 C 1.03185 0.56378 0.81059 0.0
C451 C 1.00743 0.56019 0.69919 0.0
C452 C 0.99583 0.49852 0.66152 0.0
C453 C 1.01288 0.50008 0.78533 0.0
N454 N 1.03159 0.53212 0.98952 0.0
N455 N 0.96037 0.5211 0.52609 0.0
C456 C 1.02671 0.53217 0.86339 0.0
C457 C 0.9873 0.52649 0.62733 0.0
N458 N 0.05945 0.59698 0.86805 0.0
N459 N 0.98969 0.47188 0.57398 0.0
H460 H 0.95448 0.54125 0.49622 0.0
H461 H 0.94149 0.49583 0.47823 0.0
H462 H 0.99943 0.45302 0.58798 0.0
H463 H 0.9801 0.47147 0.48117 0.0
H464 H 0.0795 0.60035 0.946 0.0
H465 H 0.06577 0.62093 0.8297 0.0
H466 H 0.03936 0.55473 0.04969 0.0
H467 H 1.02173 0.50839 0.03415 0.0
C468 C 0.61691 0.32231 0.83723 0.0
C469 C 0.58749 0.33301 0.87707 0.0
C470 C 0.52849 0.27227 0.82031 0.0
C471 C 0.55701 0.26297 0.7638 0.0
N472 N 0.62796 0.28052 0.70481 0.0
N473 N 0.5144 0.32047 0.87694 0.0
C474 C 0.60124 0.28833 0.76879 0.0
C475 C 0.54303 0.30867 0.86087 0.0
N476 N 0.65962 0.34408 0.86798 0.0
N477 N 0.48791 0.24623 0.84033 0.0
H478 H 0.52328 0.34737 0.90046 0.0
H479 H 0.48181 0.3042 0.85289 0.0
H480 H 0.47623 0.2188 0.81803 0.0
H481 H 0.46756 0.25146 0.8923 0.0
H482 H 0.68212 0.33613 0.85165 0.0
H483 H 0.67216 0.36874 0.9208 0.0
H484 H 0.65974 0.29947 0.6944 0.0
H485 H 0.61745 0.25597 0.653 0.0
C486 C 0.8036 0.03362 0.85823 0.0
C487 C 0.83436 0.07051 0.88704 0.0
C488 C 0.80528 0.06811 0.09219 0.0
C489 C 0.77323 0.03168 0.05919 0.0
N490 N 0.75846 0.97661 0.94432 0.0
N491 N 0.86968 0.1217 0.0391 0.0
C492 C 0.77715 0.01339 0.95179 0.0
C493 C 0.83685 0.08739 0.00687 0.0
N494 N 0.79982 0.01759 0.74218 0.0
N495 N 0.80584 0.08386 0.20606 0.0
H496 H 0.89144 0.13744 0.97647 0.0
H497 H 0.87651 0.13444 0.1283 0.0
H498 H 0.78788 0.06873 0.27686 0.0
H499 H 0.82431 0.1114 0.2318 0.0
H500 H 0.77487 0.99177 0.7132 0.0
H501 H 0.81936 0.03117 0.67178 0.0
H502 H 0.76264 0.96173 0.87229 0.0
H503 H 0.74411 0.96178 0.01983 0.0
C504 C 0.78515 0.90902 0.27831 0.0
C505 C 0.7414 0.88681 0.23687 0.0
C506 C 0.7458 0.83327 0.28794 0.0
C507 C 0.78763 0.85589 0.34673 0.0
N508 N 0.84316 0.916 0.41865 0.0
N509 N 0.6776 0.82815 0.23137 0.0
C510 C 0.80629 0.89401 0.3473 0.0
C511 C 0.721 0.84902 0.24931 0.0
N512 N 0.80695 0.94426 0.24915 0.0
N513 N 0.72989 0.79691 0.26369 0.0
H514 H 0.65763 0.83842 0.20784 0.0
H515 H 0.66102 0.80124 0.25338 0.0
H516 H 0.74692 0.7837 0.28246 0.0
H517 H 0.7015 0.78047 0.20976 0.0
H518 H 0.83981 0.96066 0.26749 0.0
H519 H 0.79312 0.95588 0.19459 0.0
H520 H 0.85613 0.94395 0.43183 0.0
H521 H 0.85819 0.90583 0.47534 0.0
C522 C 0.22039 0.65309 0.23048 0.0
C523 C 0.24954 0.67917 0.15485 0.0
C524 C 0.21979 0.63576 0.97196 0.0
C525 C 0.19238 0.60909 0.04907 0.0
N526 N 0.17387 0.58955 0.25626 0.0
N527 N 0.28364 0.69382 0.96106 0.0
C528 C 0.1947 0.61688 0.17978 0.0
C529 C 0.25123 0.67005 0.02761 0.0
N530 N 0.21576 0.66316 0.34859 0.0
N531 N 0.2147 0.62882 0.84542 0.0
H532 H 0.30788 0.71891 -0.00037 0.0
H533 H 0.28893 0.68732 0.87164 0.0
H534 H 0.19193 0.60392 0.8014 0.0
H535 H 0.23054 0.64857 0.7836 0.0
H536 H 0.19129 0.64615 0.40218 0.0
H537 H 0.23418 0.68945 0.38956 0.0
H538 H 0.17811 0.59337 0.35305 0.0
H539 H 0.15578 0.56237 0.22395 0.0
C540 C 0.47686 0.42122 0.95783 0.0
C541 C 0.50653 0.43445 0.06328 0.0
C542 C 0.44694 0.41036 0.20066 0.0
C543 C 0.41721 0.39715 0.09524 0.0
N544 N 0.40426 0.38049 0.87528 0.0
N545 N 0.51949 0.43125 0.28126 0.0
C546 C 0.43237 0.39962 0.97425 0.0
C547 C 0.49138 0.42572 0.18363 0.0
N548 N 0.49104 0.43015 0.84206 0.0
N549 N 0.43291 0.40928 0.3171 0.0
H550 H 0.55129 0.43999 0.2679 0.0
H551 H 0.51061 0.42309 0.3701 0.0
H552 H 0.40063 0.39723 0.3331 0.0
H553 H 0.45324 0.42228 0.39658 0.0
H554 H 0.47088 0.42524 0.76295 0.0
H555 H 0.52338 0.44428 0.82653 0.0
H556 H 0.41315 0.37857 0.78572 0.0
H557 H 0.37237 0.36305 0.88747 0.0
C558 C 0.98094 0.76889 0.63864 0.0
C559 C 0.95493 0.73265 0.58584 0.0
C560 C 0.92518 0.75518 0.42602 0.0
C561 C 0.94656 0.79012 0.48716 0.0
N562 N 0.99578 0.83131 0.65216 0.0
N563 N 0.89419 0.69125 0.44334 0.0
C564 C 0.97499 0.79737 0.59338 0.0
C565 C 0.92441 0.72572 0.48466 0.0
N566 N 1.01101 0.77604 0.73321 0.0
N567 N 0.90753 0.75044 0.3075 0.0
H568 H 0.89097 0.66819 0.48109 0.0
H569 H 0.86903 0.68563 0.37884 0.0
H570 H 0.91045 0.77215 0.25931 0.0
H571 H 0.89515 0.7262 0.25235 0.0
H572 H 1.03467 0.80201 0.76539 0.0
H573 H 1.01312 0.75573 0.77795 0.0
H574 H 1.0125 0.83767 0.7389 0.0
H575 H 0.99525 0.85326 0.61515 0.0
C576 C 0.4464 0.03799 0.43807 0.0
C577 C 0.42058 0.0453 0.51769 0.0
C578 C 0.36413 0.98205 0.48803 0.0
C579 C 0.38917 0.97533 0.40377 0.0
N580 N 0.44937 0.99771 0.27774 0.0
N581 N 0.35241 0.02654 0.6011 0.0
C582 C 0.42896 0.00355 0.37282 0.0
C583 C 0.37847 0.01808 0.53627 0.0
N584 N 0.48781 0.06372 0.42563 0.0
N585 N 0.3282 0.95385 0.52865 0.0
H586 H 0.36258 0.05229 0.64324 0.0
H587 H 0.31988 0.00877 0.60548 0.0
H588 H 0.31685 0.92689 0.49826 0.0
H589 H 0.31153 0.95678 0.60073 0.0
H590 H 0.5097 0.05819 0.38396 0.0
H591 H 0.50136 0.09028 0.46308 0.0
H592 H 0.47618 0.01827 0.24108 0.0
H593 H 0.43715 0.97275 0.22701 0.0
C594 C 0.12852 0.20637 0.31229 0.0
C595 C 0.13252 0.22303 0.43372 0.0
C596 C 0.18711 0.28076 0.36456 0.0
C597 C 0.18946 0.26305 0.25305 0.0
N598 N 0.15562 0.21086 0.10635 0.0
N599 N 0.16877 0.27571 0.57895 0.0
C600 C 0.15791 0.2263 0.22242 0.0
C601 C 0.16303 0.26003 0.46118 0.0
N602 N 0.09632 0.1716 0.28309 0.0
N603 N 0.2048 0.31743 0.37359 0.0
H604 H 0.15112 0.26167 0.65185 0.0
H605 H 0.1937 0.30169 0.60627 0.0
H606 H 0.21675 0.3324 0.29655 0.0
H607 H 0.20185 0.33191 0.44941 0.0
H608 H 0.08826 0.15876 0.19388 0.0
H609 H 0.0765 0.15539 0.34882 0.0
H610 H 0.13738 0.18331 0.08055 0.0
H611 H 0.17183 0.22627 0.03374 0.0
C612 C 0.36404 0.18343 0.34195 0.0
C613 C 0.37994 0.19751 0.4667 0.0
C614 C 0.37623 0.25206 0.4286 0.0
C615 C 0.35782 0.23712 0.30626 0.0
N616 N 0.32744 0.18632 0.15279 0.0
N617 N 0.39214 0.24071 0.63705 0.0
C618 C 0.34939 0.20196 0.2652 0.0
C619 C 0.38321 0.23048 0.51237 0.0
N620 N 0.36534 0.15374 0.29405 0.0
N621 N 0.38775 0.28705 0.46465 0.0
H622 H 0.39663 0.225 0.70104 0.0
H623 H 0.39077 0.26259 0.67887 0.0
H624 H 0.38332 0.304 0.40703 0.0
H625 H 0.40533 0.3005 0.54784 0.0
H626 H 0.359 0.14493 0.19993 0.0
H627 H 0.37572 0.13921 0.34613 0.0
H628 H 0.31593 0.15922 0.12415 0.0
H629 H 0.31838 0.1999 0.09108 0.0
C630 C 0.99984 0.0056 0.46587 0.0
C631 C 0.97119 0.97694 0.53492 0.0
C632 C 0.96562 0.02053 0.67753 0.0
C633 C 0.9884 0.04841 0.59732 0.0
N634 N 1.02604 0.06717 0.40986 0.0
N635 N 0.92168 0.95651 0.69715 0.0
C636 C 1.00588 0.04109 0.49094 0.0
C637 C 0.95312 0.98423 0.63922 0.0
N638 N 1.02151 0.99886 0.37708 0.0
N639 N 0.95616 0.02878 0.79173 0.0
H640 H 0.91062 0.92929 0.67246 0.0
H641 H 0.9036 0.96039 0.76267 0.0
H642 H 0.96422 0.05496 0.82304 0.0
H643 H 0.94415 0.01034 0.85991 0.0
H644 H 0.04609 0.01907 0.3319 0.0
H645 H 1.01744 0.97312 0.35644 0.0
H646 H 1.03471 0.06215 0.32338 0.0
H647 H 1.03132 0.09343 0.42382 0.0
C648 C 0.16129 0.73263 0.41354 0.0
C649 C 0.1486 0.74163 0.52686 0.0
C650 C 0.21895 0.79623 0.55851 0.0
C651 C 0.22888 0.79061 0.43527 0.0
N652 N 0.20204 0.75626 0.23488 0.0
N653 N 0.16273 0.78754 0.69092 0.0
C654 C 0.19814 0.75949 0.35966 0.0
C655 C 0.17667 0.77496 0.59494 0.0
N656 N 0.13908 0.69824 0.35841 0.0
N657 N 0.24984 0.82106 0.64339 0.0
H658 H 0.13144 0.77411 0.71696 0.0
H659 H 0.18088 0.81348 0.73476 0.0
H660 H 0.28201 0.83528 0.627 0.0
H661 H 0.24436 0.82401 0.73632 0.0
H662 H 0.14958 0.68966 0.28212 0.0
H663 H 0.11318 0.6773 0.39725 0.0
H664 H 0.17836 0.73541 0.17531 0.0
H665 H 0.22593 0.77639 0.18779 0.0
loop_
_geom_bond_atom_site_label_1
_geom_bond_atom_site_label_2
_geom_bond_distance
_geom_bond_site_symmetry_2
_ccdc_geom_bond_type
Tb0 O3 2.453 . S
Tb0 O4 2.596 1_655 S
Tb0 O5 2.374 1_654 S
Tb0 O13 2.343 1_655 S
Tb0 O15 2.353 1_655 S
Tb0 O17 2.427 . S
Tb0 O18 2.513 1_554 S
C1 O5 1.251 . S
C1 O7 1.263 . S
Tb2 O4 2.343 . S
Tb2 O7 2.353 1_554 S
Tb2 O10 2.427 . S
Tb2 O11 2.513 . S
Tb2 O12 2.453 . S
Tb2 O13 2.596 . S
Tb2 O14 2.374 . S
O3 Tb0 2.453 . S
O3 C19 1.245 1_655 S
O4 Tb0 2.596 1_455 S
O4 Tb2 2.343 . S
O4 C19 1.259 . S
O5 Tb0 2.374 1_456 S
O5 C1 1.251 . S
C6 O10 1.275 . S
C6 O11 1.246 . S
O7 C1 1.263 . S
O7 Tb2 2.353 1_556 S
C8 O12 1.245 . S
C8 O13 1.259 . S
C9 O14 1.250 . S
C9 O15 1.263 . S
O10 Tb2 2.427 . S
O10 C6 1.275 . S
O11 Tb2 2.513 . S
O11 C6 1.246 . S
O12 Tb2 2.453 . S
O12 C8 1.245 . S
O13 Tb0 2.343 1_455 S
O13 Tb2 2.596 . S
O13 C8 1.259 . S
O14 Tb2 2.374 . S
O14 C9 1.250 . S
O15 Tb0 2.353 1_455 S
O15 C9 1.263 . S
C16 O17 1.275 1_556 S
C16 O18 1.246 . S
O17 Tb0 2.427 . S
O17 C16 1.275 1_554 S
O18 Tb0 2.513 1_556 S
O18 C16 1.246 . S
C19 O3 1.245 1_455 S
C19 O4 1.259 . S
Tb20 O23 2.453 . S
Tb20 O24 2.596 . S
Tb20 O25 2.374 . S
Tb20 O33 2.343 . S
Tb20 O35 2.353 1_554 S
Tb20 O37 2.427 . S
Tb20 O38 2.513 . S
C21 O25 1.251 . S
C21 O27 1.263 . S
Tb22 O24 2.343 . S
Tb22 O27 2.353 . S
Tb22 O30 2.427 . S
Tb22 O31 2.513 1_554 S
Tb22 O32 2.453 . S
Tb22 O33 2.596 . S
Tb22 O34 2.374 1_554 S
O23 Tb20 2.453 . S
O23 C39 1.245 . S
O24 Tb20 2.596 . S
O24 Tb22 2.343 . S
O24 C39 1.259 . S
O25 Tb20 2.374 . S
O25 C21 1.251 . S
C26 O30 1.275 . S
C26 O31 1.246 1_554 S
O27 C21 1.263 . S
O27 Tb22 2.353 . S
C28 O32 1.245 . S
C28 O33 1.259 . S
C29 O34 1.250 . S
C29 O35 1.263 . S
O30 Tb22 2.427 . S
O30 C26 1.275 . S
O31 Tb22 2.513 1_556 S
O31 C26 1.246 1_556 S
O32 Tb22 2.453 . S
O32 C28 1.245 . S
O33 Tb20 2.343 . S
O33 Tb22 2.596 . S
O33 C28 1.259 . S
O34 Tb22 2.374 1_556 S
O34 C29 1.250 . S
O35 Tb20 2.353 1_556 S
O35 C29 1.263 . S
C36 O37 1.275 . S
C36 O38 1.246 . S
O37 Tb20 2.427 . S
O37 C36 1.275 . S
O38 Tb20 2.513 . S
O38 C36 1.246 . S
C39 O23 1.245 . S
C39 O24 1.259 . S
Tb40 O43 2.453 . S
Tb40 O44 2.596 . S
Tb40 O45 2.374 1_554 S
Tb40 O53 2.316 1_545 S
Tb40 O55 2.353 . S
Tb40 O57 2.427 . S
Tb40 O58 2.513 . S
C41 O45 1.236 1_565 S
C41 O47 1.276 . S
Tb42 O44 2.343 1_565 S
Tb42 O47 2.353 1_554 S
Tb42 O50 2.427 . S
Tb42 O51 2.513 . S
Tb42 O52 2.453 . S
Tb42 O53 2.629 . S
Tb42 O54 2.374 . S
O43 Tb40 2.453 . S
O43 C59 1.245 . S
O44 Tb40 2.596 . S
O44 Tb42 2.343 1_545 S
O44 C59 1.259 . S
O45 Tb40 2.374 1_556 S
O45 C41 1.236 1_545 S
C46 O50 1.275 . S
C46 O51 1.246 . S
O47 C41 1.276 . S
O47 Tb42 2.353 1_556 S
C48 O52 1.245 . S
C48 O53 1.278 . S
C49 O54 1.250 1_545 S
C49 O55 1.263 . S
O50 Tb42 2.427 . S
O50 C46 1.275 . S
O51 Tb42 2.513 . S
O51 C46 1.246 . S
O52 Tb42 2.453 . S
O52 C48 1.245 . S
O53 Tb40 2.316 1_565 S
O53 Tb42 2.629 . S
O53 C48 1.278 . S
O54 Tb42 2.374 . S
O54 C49 1.250 1_565 S
O55 Tb40 2.353 . S
O55 C49 1.263 . S
C56 O57 1.275 . S
C56 O58 1.246 . S
O57 Tb40 2.427 . S
O57 C56 1.275 . S
O58 Tb40 2.513 . S
O58 C56 1.246 . S
C59 O43 1.245 . S
C59 O44 1.259 . S
Tb60 O63 2.453 . S
Tb60 O64 2.596 . S
Tb60 O65 2.374 . S
Tb60 O73 2.343 . S
Tb60 O75 2.353 . S
Tb60 O77 2.427 . S
Tb60 O78 2.513 . S
C61 O65 1.251 . S
C61 O67 1.263 . S
Tb62 O64 2.343 . S
Tb62 O67 2.353 . S
Tb62 O70 2.427 . S
Tb62 O71 2.513 . S
Tb62 O72 2.453 . S
Tb62 O73 2.596 . S
Tb62 O74 2.374 . S
O63 Tb60 2.453 . S
O63 C79 1.245 . S
O64 Tb60 2.596 . S
O64 Tb62 2.343 . S
O64 C79 1.259 . S
O65 Tb60 2.374 . S
O65 C61 1.251 . S
C66 O70 1.275 . S
C66 O71 1.246 . S
O67 C61 1.263 . S
O67 Tb62 2.353 . S
C68 O72 1.245 . S
C68 O73 1.259 . S
C69 O74 1.250 . S
C69 O75 1.263 . S
O70 Tb62 2.427 . S
O70 C66 1.275 . S
O71 Tb62 2.513 . S
O71 C66 1.246 . S
O72 Tb62 2.453 . S
O72 C68 1.245 . S
O73 Tb60 2.343 . S
O73 Tb62 2.596 . S
O73 C68 1.259 . S
O74 Tb62 2.374 . S
O74 C69 1.250 . S
O75 Tb60 2.353 . S
O75 C69 1.263 . S
C76 O77 1.275 . S
C76 O78 1.246 . S
O77 Tb60 2.427 . S
O77 C76 1.275 . S
O78 Tb60 2.513 . S
O78 C76 1.246 . S
C79 O63 1.245 . S
C79 O64 1.259 . S
Tb80 O83 2.453 . S
Tb80 O84 2.596 . S
Tb80 O85 2.374 . S
Tb80 O93 2.343 . S
Tb80 O95 2.353 . S
Tb80 O97 2.427 . S
Tb80 O98 2.513 . S
C81 O85 1.251 . S
C81 O87 1.263 . S
Tb82 O84 2.343 . S
Tb82 O87 2.353 . S
Tb82 O90 2.427 . S
Tb82 O91 2.513 . S
Tb82 O92 2.453 . S
Tb82 O93 2.596 . S
Tb82 O94 2.374 . S
O83 Tb80 2.453 . S
O83 C99 1.245 . S
O84 Tb80 2.596 . S
O84 Tb82 2.343 . S
O84 C99 1.259 . S
O85 Tb80 2.374 . S
O85 C81 1.251 . S
C86 O90 1.275 . S
C86 O91 1.246 . S
O87 C81 1.263 . S
O87 Tb82 2.353 . S
C88 O92 1.245 . S
C88 O93 1.259 . S
C89 O94 1.250 1_556 S
C89 O95 1.263 1_556 S
O90 Tb82 2.427 . S
O90 C86 1.275 . S
O91 Tb82 2.513 . S
O91 C86 1.246 . S
O92 Tb82 2.453 . S
O92 C88 1.245 . S
O93 Tb80 2.343 . S
O93 Tb82 2.596 . S
O93 C88 1.259 . S
O94 Tb82 2.374 . S
O94 C89 1.250 1_554 S
O95 Tb80 2.353 . S
O95 C89 1.263 1_554 S
C96 O97 1.275 . S
C96 O98 1.246 . S
O97 Tb80 2.427 . S
O97 C96 1.275 . S
O98 Tb80 2.513 . S
O98 C96 1.246 . S
C99 O83 1.245 . S
C99 O84 1.259 . S
Tb100 O103 2.453 . S
Tb100 O104 2.596 . S
Tb100 O105 2.374 1_554 S
Tb100 O113 2.343 . S
Tb100 O115 2.353 . S
Tb100 O117 2.427 . S
Tb100 O118 2.513 . S
C101 O105 1.251 . S
C101 O107 1.263 . S
Tb102 O104 2.343 . S
Tb102 O107 2.353 1_554 S
Tb102 O110 2.427 . S
Tb102 O111 2.513 . S
Tb102 O112 2.453 . S
Tb102 O113 2.596 . S
Tb102 O114 2.374 . S
O103 Tb100 2.453 . S
O103 C119 1.245 . S
O104 Tb100 2.596 . S
O104 Tb102 2.343 . S
O104 C119 1.259 . S
O105 Tb100 2.374 1_556 S
O105 C101 1.251 . S
C106 O110 1.275 . S
C106 O111 1.246 . S
O107 C101 1.263 . S
O107 Tb102 2.353 1_556 S
C108 O112 1.245 . S
C108 O113 1.259 . S
C109 O114 1.250 . S
C109 O115 1.263 . S
O110 Tb102 2.427 . S
O110 C106 1.275 . S
O111 Tb102 2.513 . S
O111 C106 1.246 . S
O112 Tb102 2.453 . S
O112 C108 1.245 . S
O113 Tb100 2.343 . S
O113 Tb102 2.596 . S
O113 C108 1.259 . S
O114 Tb102 2.374 . S
O114 C109 1.250 . S
O115 Tb100 2.353 . S
O115 C109 1.263 . S
C116 O117 1.275 . S
C116 O118 1.246 . S
O117 Tb100 2.427 . S
O117 C116 1.275 . S
O118 Tb100 2.513 . S
O118 C116 1.246 . S
C119 O103 1.245 . S
C119 O104 1.259 . S
Tb120 O123 2.453 . S
Tb120 O124 2.596 . S
Tb120 O125 2.374 . S
Tb120 O133 2.343 . S
Tb120 O135 2.353 . S
Tb120 O137 2.427 . S
Tb120 O138 2.513 . S
C121 O125 1.251 . S
C121 O127 1.263 . S
Tb122 O124 2.343 . S
Tb122 O127 2.353 . S
Tb122 O130 2.427 . S
Tb122 O131 2.513 . S
Tb122 O132 2.453 . S
Tb122 O133 2.596 . S
Tb122 O134 2.374 . S
O123 Tb120 2.453 . S
O123 C139 1.245 . S
O124 Tb120 2.596 . S
O124 Tb122 2.343 . S
O124 C139 1.259 . S
O125 Tb120 2.374 . S
O125 C121 1.251 . S
C126 O130 1.275 . S
C126 O131 1.246 . S
O127 C121 1.263 . S
O127 Tb122 2.353 . S
C128 O132 1.245 . S
C128 O133 1.259 . S
C129 O134 1.250 . S
C129 O135 1.263 . S
O130 Tb122 2.427 . S
O130 C126 1.275 . S
O131 Tb122 2.513 . S
O131 C126 1.246 . S
O132 Tb122 2.453 . S
O132 C128 1.245 . S
O133 Tb120 2.343 . S
O133 Tb122 2.596 . S
O133 C128 1.259 . S
O134 Tb122 2.374 . S
O134 C129 1.250 . S
O135 Tb120 2.353 . S
O135 C129 1.263 . S
C136 O137 1.275 . S
C136 O138 1.246 . S
O137 Tb120 2.427 . S
O137 C136 1.275 . S
O138 Tb120 2.513 . S
O138 C136 1.246 . S
C139 O123 1.245 . S
C139 O124 1.259 . S
Tb140 O143 2.453 . S
Tb140 O144 2.596 . S
Tb140 O145 2.374 . S
Tb140 O153 2.343 . S
Tb140 O155 2.353 . S
Tb140 O157 2.427 . S
Tb140 O158 2.513 . S
C141 O145 1.251 . S
C141 O147 1.263 . S
Tb142 O144 2.337 1_455 S
Tb142 O147 2.353 1_455 S
Tb142 O150 2.433 . S
Tb142 O151 2.515 . S
Tb142 O152 2.452 1_455 S
Tb142 O153 2.588 1_455 S
Tb142 O154 2.368 1_455 S
O143 Tb140 2.453 . S
O143 C159 1.245 . S
O144 Tb140 2.596 . S
O144 Tb142 2.337 1_655 S
O144 C159 1.259 . S
O145 Tb140 2.374 . S
O145 C141 1.251 . S
C146 O150 1.275 . S
C146 O151 1.246 . S
O147 C141 1.263 . S
O147 Tb142 2.353 1_655 S
C148 O152 1.245 . S
C148 O153 1.259 . S
C149 O154 1.250 . S
C149 O155 1.263 . S
O150 Tb142 2.433 . S
O150 C146 1.275 . S
O151 Tb142 2.515 . S
O151 C146 1.246 . S
O152 Tb142 2.452 1_655 S
O152 C148 1.245 . S
O153 Tb140 2.343 . S
O153 Tb142 2.588 1_655 S
O153 C148 1.259 . S
O154 Tb142 2.368 1_655 S
O154 C149 1.250 . S
O155 Tb140 2.353 . S
O155 C149 1.263 . S
C156 O157 1.275 . S
C156 O158 1.246 . S
O157 Tb140 2.427 . S
O157 C156 1.275 . S
O158 Tb140 2.513 . S
O158 C156 1.246 . S
C159 O143 1.245 . S
C159 O144 1.259 . S
Tb160 O163 2.453 . S
Tb160 O164 2.596 . S
Tb160 O165 2.374 . S
Tb160 O173 2.343 . S
Tb160 O175 2.353 . S
Tb160 O177 2.427 1_655 S
Tb160 O178 2.513 1_655 S
C161 O165 1.251 . S
C161 O167 1.263 . S
Tb162 O164 2.343 . S
Tb162 O167 2.353 . S
Tb162 O170 2.427 . S
Tb162 O171 2.513 . S
Tb162 O172 2.453 . S
Tb162 O173 2.596 . S
Tb162 O174 2.374 . S
O163 Tb160 2.453 . S
O163 C179 1.245 . S
O164 Tb160 2.596 . S
O164 Tb162 2.343 . S
O164 C179 1.259 . S
O165 Tb160 2.374 . S
O165 C161 1.251 . S
C166 O170 1.275 . S
C166 O171 1.246 . S
O167 C161 1.263 . S
O167 Tb162 2.353 . S
C168 O172 1.245 . S
C168 O173 1.259 . S
C169 O174 1.250 . S
C169 O175 1.263 . S
O170 Tb162 2.427 . S
O170 C166 1.275 . S
O171 Tb162 2.513 . S
O171 C166 1.246 . S
O172 Tb162 2.453 . S
O172 C168 1.245 . S
O173 Tb160 2.343 . S
O173 Tb162 2.596 . S
O173 C168 1.259 . S
O174 Tb162 2.374 . S
O174 C169 1.250 . S
O175 Tb160 2.353 . S
O175 C169 1.263 . S
C176 O177 1.275 . S
C176 O178 1.246 . S
O177 Tb160 2.427 1_455 S
O177 C176 1.275 . S
O178 Tb160 2.513 1_455 S
O178 C176 1.246 . S
C179 O163 1.245 . S
C179 O164 1.259 . S
C180 C181 1.363 . S
C180 C186 1.379 . S
C180 N188 1.356 . S
C181 C180 1.363 . S
C181 C187 1.363 . S
C182 C183 1.363 . S
C182 C187 1.379 . S
C182 N189 1.356 . S
C183 C182 1.363 . S
C183 C186 1.363 . S
N184 C186 1.356 . S
N184 H196 0.984 . S
N184 H197 0.985 . S
N185 C187 1.356 . S
N185 H190 0.984 . S
N185 H191 0.985 . S
C186 C180 1.379 . S
C186 C183 1.363 . S
C186 N184 1.356 . S
C187 C181 1.363 . S
C187 C182 1.379 . S
C187 N185 1.356 . S
N188 C180 1.356 . S
N188 H194 0.984 . S
N188 H195 0.984 . S
N189 C182 1.356 . S
N189 H192 0.984 . S
N189 H193 0.985 . S
H190 N185 0.984 . S
H191 N185 0.985 . S
H192 N189 0.984 . S
H193 N189 0.985 . S
H194 N188 0.984 . S
H195 N188 0.984 . S
H196 N184 0.984 . S
H197 N184 0.985 . S
C198 C199 1.363 . S
C198 C204 1.379 . S
C198 N206 1.356 . S
C199 C198 1.363 . S
C199 C205 1.363 . S
C200 C201 1.363 . S
C200 C205 1.379 . S
C200 N207 1.356 . S
C201 C200 1.363 . S
C201 C204 1.363 . S
N202 C204 1.356 . S
N202 H214 0.984 . S
N202 H215 0.985 . S
N203 C205 1.356 . S
N203 H208 0.984 . S
N203 H209 0.985 . S
C204 C198 1.379 . S
C204 C201 1.363 . S
C204 N202 1.356 . S
C205 C199 1.363 . S
C205 C200 1.379 . S
C205 N203 1.356 . S
N206 C198 1.356 . S
N206 H212 0.984 . S
N206 H213 0.984 . S
N207 C200 1.356 . S
N207 H210 0.984 . S
N207 H211 0.985 . S
H208 N203 0.984 . S
H209 N203 0.985 . S
H210 N207 0.984 . S
H211 N207 0.985 . S
H212 N206 0.984 . S
H213 N206 0.984 . S
H214 N202 0.984 . S
H215 N202 0.985 . S
C216 C217 1.363 1_565 S
C216 C222 1.379 . S
C216 N224 1.356 . S
C217 C216 1.363 1_545 S
C217 C223 1.363 . S
C218 C219 1.363 . S
C218 C223 1.379 . S
C218 N225 1.356 . S
C219 C218 1.363 . S
C219 C222 1.363 1_545 S
N220 C222 1.356 . S
N220 H232 0.984 . S
N220 H233 0.985 . S
N221 C223 1.356 . S
N221 H226 0.984 . S
N221 H227 0.985 . S
C222 C216 1.379 . S
C222 C219 1.363 1_565 S
C222 N220 1.356 . S
C223 C217 1.363 . S
C223 C218 1.379 . S
C223 N221 1.356 . S
N224 C216 1.356 . S
N224 H230 0.984 . S
N224 H231 0.984 . S
N225 C218 1.356 . S
N225 H228 0.984 . S
N225 H229 0.985 . S
H226 N221 0.984 . S
H227 N221 0.985 . S
H228 N225 0.984 . S
H229 N225 0.985 . S
H230 N224 0.984 . S
H231 N224 0.984 . S
H232 N220 0.984 . S
H233 N220 0.985 . S
C234 C235 1.363 . S
C234 C240 1.379 . S
C234 N242 1.356 . S
C235 C234 1.363 . S
C235 C241 1.363 . S
C236 C237 1.363 . S
C236 C241 1.379 . S
C236 N243 1.356 . S
C237 C236 1.363 . S
C237 C240 1.363 . S
N238 C240 1.356 . S
N238 H250 0.984 . S
N238 H251 0.985 1_556 S
N239 C241 1.356 . S
N239 H244 0.984 . S
N239 H245 0.985 . S
C240 C234 1.379 . S
C240 C237 1.363 . S
C240 N238 1.356 . S
C241 C235 1.363 . S
C241 C236 1.379 . S
C241 N239 1.356 . S
N242 C234 1.356 . S
N242 H248 0.984 . S
N242 H249 0.984 . S
N243 C236 1.356 . S
N243 H246 0.984 1_556 S
N243 H247 0.985 . S
H244 N239 0.984 . S
H245 N239 0.985 . S
H246 N243 0.984 1_554 S
H247 N243 0.985 . S
H248 N242 0.984 . S
H249 N242 0.984 . S
H250 N238 0.984 . S
H251 N238 0.985 1_554 S
C252 C253 1.363 . S
C252 C258 1.379 . S
C252 N260 1.356 . S
C253 C252 1.363 . S
C253 C259 1.363 . S
C254 C255 1.363 . S
C254 C259 1.379 . S
C254 N261 1.356 . S
C255 C254 1.363 . S
C255 C258 1.363 . S
N256 C258 1.356 . S
N256 H268 0.984 . S
N256 H269 0.985 . S
N257 C259 1.356 . S
N257 H262 0.984 . S
N257 H263 0.985 . S
C258 C252 1.379 . S
C258 C255 1.363 . S
C258 N256 1.356 . S
C259 C253 1.363 . S
C259 C254 1.379 . S
C259 N257 1.356 . S
N260 C252 1.356 . S
N260 H266 0.984 . S
N260 H267 0.984 . S
N261 C254 1.356 . S
N261 H264 0.984 . S
N261 H265 0.985 . S
H262 N257 0.984 . S
H263 N257 0.985 . S
H264 N261 0.984 . S
H265 N261 0.985 . S
H266 N260 0.984 . S
H267 N260 0.984 . S
H268 N256 0.984 . S
H269 N256 0.985 . S
C270 C271 1.363 . S
C270 C276 1.379 . S
C270 N278 1.356 . S
C271 C270 1.363 . S
C271 C277 1.363 . S
C272 C273 1.363 . S
C272 C277 1.379 . S
C272 N279 1.356 . S
C273 C272 1.363 . S
C273 C276 1.363 . S
N274 C276 1.356 . S
N274 H286 0.984 . S
N274 H287 0.985 . S
N275 C277 1.356 . S
N275 H280 0.984 . S
N275 H281 0.985 . S
C276 C270 1.379 . S
C276 C273 1.363 . S
C276 N274 1.356 . S
C277 C271 1.363 . S
C277 C272 1.379 . S
C277 N275 1.356 . S
N278 C270 1.356 . S
N278 H284 0.984 . S
N278 H285 0.984 . S
N279 C272 1.356 . S
N279 H282 0.984 . S
N279 H283 0.985 . S
H280 N275 0.984 . S
H281 N275 0.985 . S
H282 N279 0.984 . S
H283 N279 0.985 . S
H284 N278 0.984 . S
H285 N278 0.984 . S
H286 N274 0.984 . S
H287 N274 0.985 . S
C288 C289 1.363 . S
C288 C294 1.379 . S
C288 N296 1.356 . S
C289 C288 1.363 . S
C289 C295 1.363 . S
C290 C291 1.363 . S
C290 C295 1.379 . S
C290 N297 1.356 1_554 S
C291 C290 1.363 . S
C291 C294 1.363 . S
N292 C294 1.356 . S
N292 H304 0.984 . S
N292 H305 0.985 1_554 S
N293 C295 1.356 . S
N293 H298 0.984 . S
N293 H299 0.985 . S
C294 C288 1.379 . S
C294 C291 1.363 . S
C294 N292 1.356 . S
C295 C289 1.363 . S
C295 C290 1.379 . S
C295 N293 1.356 . S
N296 C288 1.356 . S
N296 H302 0.984 . S
N296 H303 0.984 . S
N297 C290 1.356 1_556 S
N297 H300 0.984 . S
N297 H301 0.985 1_556 S
H298 N293 0.984 . S
H299 N293 0.985 . S
H300 N297 0.984 . S
H301 N297 0.985 1_554 S
H302 N296 0.984 . S
H303 N296 0.984 . S
H304 N292 0.984 . S
H305 N292 0.985 1_556 S
C306 C307 1.363 . S
C306 C312 1.379 . S
C306 N314 1.356 . S
C307 C306 1.363 . S
C307 C313 1.363 . S
C308 C309 1.363 . S
C308 C313 1.379 . S
C308 N315 1.356 . S
C309 C308 1.363 . S
C309 C312 1.363 . S
N310 C312 1.356 1_556 S
N310 H322 0.984 1_556 S
N310 H323 0.985 . S
N311 C313 1.356 . S
N311 H316 0.984 . S
N311 H317 0.985 . S
C312 C306 1.379 . S
C312 C309 1.363 . S
C312 N310 1.356 1_554 S
C313 C307 1.363 . S
C313 C308 1.379 . S
C313 N311 1.356 . S
N314 C306 1.356 . S
N314 H320 0.984 . S
N314 H321 0.984 . S
N315 C308 1.356 . S
N315 H318 0.984 1_554 S
N315 H319 0.985 . S
H316 N311 0.984 . S
H317 N311 0.985 . S
H318 N315 0.984 1_556 S
H319 N315 0.985 . S
H320 N314 0.984 . S
H321 N314 0.984 . S
H322 N310 0.984 1_554 S
H323 N310 0.985 . S
C324 C325 1.363 . S
C324 C330 1.379 . S
C324 N332 1.356 . S
C325 C324 1.363 . S
C325 C331 1.363 . S
C326 C327 1.363 . S
C326 C331 1.379 . S
C326 N333 1.356 . S
C327 C326 1.363 . S
C327 C330 1.363 . S
N328 C330 1.356 1_556 S
N328 H340 0.984 . S
N328 H341 0.985 . S
N329 C331 1.356 . S
N329 H334 0.984 . S
N329 H335 0.985 . S
C330 C324 1.379 . S
C330 C327 1.363 . S
C330 N328 1.356 1_554 S
C331 C325 1.363 . S
C331 C326 1.379 . S
C331 N329 1.356 . S
N332 C324 1.356 . S
N332 H338 0.984 . S
N332 H339 0.984 . S
N333 C326 1.356 . S
N333 H336 0.984 1_554 S
N333 H337 0.985 . S
H334 N329 0.984 . S
H335 N329 0.985 . S
H336 N333 0.984 1_556 S
H337 N333 0.985 . S
H338 N332 0.984 . S
H339 N332 0.984 . S
H340 N328 0.984 . S
H341 N328 0.985 . S
C342 C343 1.363 . S
C342 C348 1.379 . S
C342 N350 1.356 . S
C343 C342 1.363 . S
C343 C349 1.363 . S
C344 C345 1.363 . S
C344 C349 1.379 . S
C344 N351 1.356 1_554 S
C345 C344 1.363 . S
C345 C348 1.363 . S
N346 C348 1.356 . S
N346 H358 0.984 . S
N346 H359 0.985 . S
N347 C349 1.356 1_556 S
N347 H352 0.984 1_556 S
N347 H353 0.985 . S
C348 C342 1.379 . S
C348 C345 1.363 . S
C348 N346 1.356 . S
C349 C343 1.363 . S
C349 C344 1.379 . S
C349 N347 1.356 1_554 S
N350 C342 1.356 . S
N350 H356 0.984 . S
N350 H357 0.984 . S
N351 C344 1.356 1_556 S
N351 H354 0.984 . S
N351 H355 0.985 . S
H352 N347 0.984 1_554 S
H353 N347 0.985 . S
H354 N351 0.984 . S
H355 N351 0.985 . S
H356 N350 0.984 . S
H357 N350 0.984 . S
H358 N346 0.984 . S
H359 N346 0.985 . S
C360 C361 1.363 . S
C360 C366 1.379 . S
C360 N368 1.356 1_554 S
C361 C360 1.363 . S
C361 C367 1.363 . S
C362 C363 1.363 . S
C362 C367 1.379 . S
C362 N369 1.356 . S
C363 C362 1.363 . S
C363 C366 1.363 . S
N364 C366 1.356 . S
N364 H376 0.984 1_554 S
N364 H377 0.985 . S
N365 C367 1.356 . S
N365 H370 0.984 . S
N365 H371 0.985 . S
C366 C360 1.379 . S
C366 C363 1.363 . S
C366 N364 1.356 . S
C367 C361 1.363 . S
C367 C362 1.379 . S
C367 N365 1.356 . S
N368 C360 1.356 1_556 S
N368 H374 0.984 . S
N368 H375 0.984 1_556 S
N369 C362 1.356 . S
N369 H372 0.984 . S
N369 H373 0.985 . S
H370 N365 0.984 . S
H371 N365 0.985 . S
H372 N369 0.984 . S
H373 N369 0.985 . S
H374 N368 0.984 . S
H375 N368 0.984 1_554 S
H376 N364 0.984 1_556 S
H377 N364 0.985 . S
C378 C379 1.363 . S
C378 C384 1.379 . S
C378 N386 1.356 . S
C379 C378 1.363 . S
C379 C385 1.363 . S
C380 C381 1.363 . S
C380 C385 1.379 . S
C380 N387 1.356 . S
C381 C380 1.363 . S
C381 C384 1.363 . S
N382 C384 1.356 . S
N382 H394 0.984 . S
N382 H395 0.985 . S
N383 C385 1.356 . S
N383 H388 0.984 . S
N383 H389 0.985 1_554 S
C384 C378 1.379 . S
C384 C381 1.363 . S
C384 N382 1.356 . S
C385 C379 1.363 . S
C385 C380 1.379 . S
C385 N383 1.356 . S
N386 C378 1.356 . S
N386 H392 0.984 . S
N386 H393 0.984 . S
N387 C380 1.356 . S
N387 H390 0.984 . S
N387 H391 0.985 1_554 S
H388 N383 0.984 . S
H389 N383 0.985 1_556 S
H390 N387 0.984 . S
H391 N387 0.985 1_556 S
H392 N386 0.984 . S
H393 N386 0.984 . S
H394 N382 0.984 . S
H395 N382 0.985 . S
C396 C397 1.363 1_556 S
C396 C402 1.379 . S
C396 N404 1.356 . S
C397 C396 1.363 1_554 S
C397 C403 1.363 . S
C398 C399 1.363 1_554 S
C398 C403 1.379 . S
C398 N405 1.356 . S
C399 C398 1.363 1_556 S
C399 C402 1.363 . S
N400 C402 1.356 . S
N400 H412 0.984 . S
N400 H413 0.985 . S
N401 C403 1.356 . S
N401 H406 0.984 . S
N401 H407 0.985 . S
C402 C396 1.379 . S
C402 C399 1.363 . S
C402 N400 1.356 . S
C403 C397 1.363 . S
C403 C398 1.379 . S
C403 N401 1.356 . S
N404 C396 1.356 . S
N404 H410 0.984 . S
N404 H411 0.984 1_556 S
N405 C398 1.356 . S
N405 H408 0.984 . S
N405 H409 0.985 . S
H406 N401 0.984 . S
H407 N401 0.985 . S
H408 N405 0.984 . S
H409 N405 0.985 . S
H410 N404 0.984 . S
H411 N404 0.984 1_554 S
H412 N400 0.984 . S
H413 N400 0.985 . S
C414 C415 1.363 . S
C414 C420 1.379 . S
C414 N422 1.356 . S
C415 C414 1.363 . S
C415 C421 1.363 . S
C416 C417 1.363 1_554 S
C416 C421 1.379 1_554 S
C416 N423 1.356 . S
C417 C416 1.363 1_556 S
C417 C420 1.363 . S
N418 C420 1.356 1_455 S
N418 H430 0.984 . S
N418 H431 0.985 . S
N419 C421 1.356 . S
N419 H424 0.984 . S
N419 H425 0.985 1_556 S
C420 C414 1.379 . S
C420 C417 1.363 . S
C420 N418 1.356 1_655 S
C421 C415 1.363 . S
C421 C416 1.379 1_556 S
C421 N419 1.356 . S
N422 C414 1.356 . S
N422 H428 0.984 1_655 S
N422 H429 0.984 . S
N423 C416 1.356 . S
N423 H426 0.984 . S
N423 H427 0.985 . S
H424 N419 0.984 . S
H425 N419 0.985 1_554 S
H426 N423 0.984 . S
H427 N423 0.985 . S
H428 N422 0.984 1_455 S
H429 N422 0.984 . S
H430 N418 0.984 . S
H431 N418 0.985 . S
C432 C433 1.363 . S
C432 C438 1.379 . S
C432 N440 1.356 . S
C433 C432 1.363 . S
C433 C439 1.363 . S
C434 C435 1.363 1_556 S
C434 C439 1.379 . S
C434 N441 1.356 1_556 S
C435 C434 1.363 1_554 S
C435 C438 1.363 1_554 S
N436 C438 1.356 1_554 S
N436 H448 0.984 . S
N436 H449 0.985 . S
N437 C439 1.356 . S
N437 H442 0.984 . S
N437 H443 0.985 . S
C438 C432 1.379 . S
C438 C435 1.363 1_556 S
C438 N436 1.356 1_556 S
C439 C433 1.363 . S
C439 C434 1.379 . S
C439 N437 1.356 . S
N440 C432 1.356 . S
N440 H446 0.984 . S
N440 H447 0.984 . S
N441 C434 1.356 1_554 S
N441 H444 0.984 . S
N441 H445 0.985 . S
H442 N437 0.984 . S
H443 N437 0.985 . S
H444 N441 0.984 . S
H445 N441 0.985 . S
H446 N440 0.984 . S
H447 N440 0.984 . S
H448 N436 0.984 . S
H449 N436 0.985 . S
C450 C451 1.363 1_455 S
C450 C456 1.379 . S
C450 N458 1.356 . S
C451 C450 1.363 1_655 S
C451 C457 1.363 . S
C452 C453 1.363 . S
C452 C457 1.379 . S
C452 N459 1.356 . S
C453 C452 1.363 . S
C453 C456 1.363 1_655 S
N454 C456 1.356 1_554 S
N454 H466 0.984 . S
N454 H467 0.985 . S
N455 C457 1.356 . S
N455 H460 0.984 . S
N455 H461 0.985 . S
C456 C450 1.379 . S
C456 C453 1.363 1_455 S
C456 N454 1.356 1_556 S
C457 C451 1.363 . S
C457 C452 1.379 . S
C457 N455 1.356 . S
N458 C450 1.356 . S
N458 H464 0.984 1_556 S
N458 H465 0.984 . S
N459 C452 1.356 . S
N459 H462 0.984 . S
N459 H463 0.985 . S
H460 N455 0.984 . S
H461 N455 0.985 . S
H462 N459 0.984 . S
H463 N459 0.985 . S
H464 N458 0.984 1_554 S
H465 N458 0.984 . S
H466 N454 0.984 . S
H467 N454 0.985 . S
C468 C469 1.363 1_556 S
C468 C474 1.379 . S
C468 N476 1.356 1_556 S
C469 C468 1.363 1_554 S
C469 C475 1.363 1_554 S
C470 C471 1.363 . S
C470 C475 1.379 . S
C470 N477 1.356 . S
C471 C470 1.363 . S
C471 C474 1.363 . S
N472 C474 1.356 . S
N472 H484 0.984 . S
N472 H485 0.985 . S
N473 C475 1.356 1_554 S
N473 H478 0.984 . S
N473 H479 0.985 . S
C474 C468 1.379 . S
C474 C471 1.363 . S
C474 N472 1.356 . S
C475 C469 1.363 1_556 S
C475 C470 1.379 . S
C475 N473 1.356 1_556 S
N476 C468 1.356 1_554 S
N476 H482 0.984 . S
N476 H483 0.984 . S
N477 C470 1.356 . S
N477 H480 0.984 . S
N477 H481 0.985 . S
H478 N473 0.984 . S
H479 N473 0.985 . S
H480 N477 0.984 . S
H481 N477 0.985 . S
H482 N476 0.984 . S
H483 N476 0.984 . S
H484 N472 0.984 . S
H485 N472 0.985 . S
C486 C487 1.363 . S
C486 C492 1.379 . S
C486 N494 1.356 . S
C487 C486 1.363 . S
C487 C493 1.363 1_556 S
C488 C489 1.363 . S
C488 C493 1.379 . S
C488 N495 1.356 . S
C489 C488 1.363 . S
C489 C492 1.363 1_554 S
N490 C492 1.356 . S
N490 H502 0.984 . S
N490 H503 0.985 1_556 S
N491 C493 1.356 . S
N491 H496 0.984 1_554 S
N491 H497 0.985 . S
C492 C486 1.379 . S
C492 C489 1.363 1_556 S
C492 N490 1.356 . S
C493 C487 1.363 1_554 S
C493 C488 1.379 . S
C493 N491 1.356 . S
N494 C486 1.356 . S
N494 H500 0.984 . S
N494 H501 0.984 . S
N495 C488 1.356 . S
N495 H498 0.984 . S
N495 H499 0.985 . S
H496 N491 0.984 1_556 S
H497 N491 0.985 . S
H498 N495 0.984 . S
H499 N495 0.985 . S
H500 N494 0.984 . S
H501 N494 0.984 . S
H502 N490 0.984 . S
H503 N490 0.985 1_554 S
C504 C505 1.363 . S
C504 C510 1.379 . S
C504 N512 1.356 . S
C505 C504 1.363 . S
C505 C511 1.363 . S
C506 C507 1.363 . S
C506 C511 1.379 . S
C506 N513 1.356 . S
C507 C506 1.363 . S
C507 C510 1.363 . S
N508 C510 1.356 . S
N508 H520 0.984 . S
N508 H521 0.985 . S
N509 C511 1.356 . S
N509 H514 0.984 . S
N509 H515 0.985 . S
C510 C504 1.379 . S
C510 C507 1.363 . S
C510 N508 1.356 . S
C511 C505 1.363 . S
C511 C506 1.379 . S
C511 N509 1.356 . S
N512 C504 1.356 . S
N512 H518 0.990 . S
N512 H519 0.984 . S
N513 C506 1.356 . S
N513 H516 0.984 . S
N513 H517 0.985 . S
H514 N509 0.984 . S
H515 N509 0.985 . S
H516 N513 0.984 . S
H517 N513 0.985 . S
H518 N512 0.990 . S
H519 N512 0.984 . S
H520 N508 0.984 . S
H521 N508 0.985 . S
C522 C523 1.363 . S
C522 C528 1.379 . S
C522 N530 1.356 . S
C523 C522 1.363 . S
C523 C529 1.363 . S
C524 C525 1.363 . S
C524 C529 1.379 . S
C524 N531 1.356 1_554 S
C525 C524 1.363 . S
C525 C528 1.363 . S
N526 C528 1.356 . S
N526 H538 0.984 . S
N526 H539 0.985 . S
N527 C529 1.356 . S
N527 H532 0.984 . S
N527 H533 0.985 1_554 S
C528 C522 1.379 . S
C528 C525 1.363 . S
C528 N526 1.356 . S
C529 C523 1.363 . S
C529 C524 1.379 . S
C529 N527 1.356 . S
N530 C522 1.356 . S
N530 H536 0.984 . S
N530 H537 0.984 . S
N531 C524 1.356 1_556 S
N531 H534 0.984 . S
N531 H535 0.985 . S
H532 N527 0.984 . S
H533 N527 0.985 1_556 S
H534 N531 0.984 . S
H535 N531 0.985 . S
H536 N530 0.984 . S
H537 N530 0.984 . S
H538 N526 0.984 . S
H539 N526 0.985 . S
C540 C541 1.363 . S
C540 C546 1.379 . S
C540 N548 1.353 1_554 S
C541 C540 1.363 . S
C541 C547 1.363 . S
C542 C543 1.363 . S
C542 C547 1.379 . S
C542 N549 1.356 . S
C543 C542 1.363 . S
C543 C546 1.363 . S
N544 C546 1.356 1_556 S
N544 H556 0.984 . S
N544 H557 0.985 1_556 S
N545 C547 1.356 . S
N545 H550 0.984 . S
N545 H551 0.985 . S
C546 C540 1.379 . S
C546 C543 1.363 . S
C546 N544 1.356 1_554 S
C547 C541 1.363 . S
C547 C542 1.379 . S
C547 N545 1.356 . S
N548 C540 1.353 1_556 S
N548 H554 0.988 . S
N548 H555 0.984 1_556 S
N549 C542 1.356 . S
N549 H552 0.984 . S
N549 H553 0.985 . S
H550 N545 0.984 . S
H551 N545 0.985 . S
H552 N549 0.984 . S
H553 N549 0.985 . S
H554 N548 0.988 . S
H555 N548 0.984 1_554 S
H556 N544 0.984 . S
H557 N544 0.985 1_554 S
C558 C559 1.363 . S
C558 C564 1.379 . S
C558 N566 1.356 . S
C559 C558 1.363 . S
C559 C565 1.363 . S
C560 C561 1.363 . S
C560 C565 1.379 . S
C560 N567 1.356 . S
C561 C560 1.363 . S
C561 C564 1.363 . S
N562 C564 1.356 . S
N562 H574 0.984 . S
N562 H575 0.985 . S
N563 C565 1.356 . S
N563 H568 0.984 . S
N563 H569 0.985 . S
C564 C558 1.379 . S
C564 C561 1.363 . S
C564 N562 1.356 . S
C565 C559 1.363 . S
C565 C560 1.379 . S
C565 N563 1.356 . S
N566 C558 1.356 . S
N566 H572 0.984 . S
N566 H573 0.984 . S
N567 C560 1.356 . S
N567 H570 0.984 . S
N567 H571 0.985 . S
H568 N563 0.984 . S
H569 N563 0.985 . S
H570 N567 0.984 . S
H571 N567 0.985 . S
H572 N566 0.984 . S
H573 N566 0.984 . S
H574 N562 0.984 . S
H575 N562 0.985 . S
C576 C577 1.363 . S
C576 C582 1.379 . S
C576 N584 1.356 . S
C577 C576 1.363 . S
C577 C583 1.363 . S
C578 C579 1.363 . S
C578 C583 1.379 1_565 S
C578 N585 1.356 . S
C579 C578 1.363 . S
C579 C582 1.363 1_565 S
N580 C582 1.356 . S
N580 H592 0.984 . S
N580 H593 0.985 1_545 S
N581 C583 1.356 . S
N581 H586 0.984 . S
N581 H587 0.985 . S
C582 C576 1.379 . S
C582 C579 1.363 1_545 S
C582 N580 1.356 . S
C583 C577 1.363 . S
C583 C578 1.379 1_545 S
C583 N581 1.356 . S
N584 C576 1.356 . S
N584 H590 0.984 . S
N584 H591 0.984 . S
N585 C578 1.356 . S
N585 H588 0.984 . S
N585 H589 0.985 . S
H586 N581 0.984 . S
H587 N581 0.985 . S
H588 N585 0.984 . S
H589 N585 0.985 . S
H590 N584 0.984 . S
H591 N584 0.984 . S
H592 N580 0.984 . S
H593 N580 0.985 1_565 S
C594 C595 1.363 . S
C594 C600 1.379 . S
C594 N602 1.356 . S
C595 C594 1.363 . S
C595 C601 1.363 . S
C596 C597 1.363 . S
C596 C601 1.379 . S
C596 N603 1.356 . S
C597 C596 1.363 . S
C597 C600 1.363 . S
N598 C600 1.356 . S
N598 H610 0.984 . S
N598 H611 0.985 . S
N599 C601 1.356 . S
N599 H604 0.984 . S
N599 H605 0.985 . S
C600 C594 1.379 . S
C600 C597 1.363 . S
C600 N598 1.356 . S
C601 C595 1.363 . S
C601 C596 1.379 . S
C601 N599 1.356 . S
N602 C594 1.356 . S
N602 H608 0.984 . S
N602 H609 0.984 . S
N603 C596 1.356 . S
N603 H606 0.984 . S
N603 H607 0.985 . S
H604 N599 0.984 . S
H605 N599 0.985 . S
H606 N603 0.984 . S
H607 N603 0.985 . S
H608 N602 0.984 . S
H609 N602 0.984 . S
H610 N598 0.984 . S
H611 N598 0.985 . S
C612 C613 1.363 . S
C612 C618 1.379 . S
C612 N620 1.356 . S
C613 C612 1.363 . S
C613 C619 1.363 . S
C614 C615 1.363 . S
C614 C619 1.379 . S
C614 N621 1.356 . S
C615 C614 1.363 . S
C615 C618 1.363 . S
N616 C618 1.356 . S
N616 H628 0.984 1_554 S
N616 H629 0.985 . S
N617 C619 1.356 . S
N617 H622 0.984 . S
N617 H623 0.985 . S
C618 C612 1.379 . S
C618 C615 1.363 . S
C618 N616 1.356 . S
C619 C613 1.363 . S
C619 C614 1.379 . S
C619 N617 1.356 . S
N620 C612 1.356 . S
N620 H626 0.984 . S
N620 H627 0.984 . S
N621 C614 1.356 . S
N621 H624 0.984 . S
N621 H625 0.985 . S
H622 N617 0.984 . S
H623 N617 0.985 . S
H624 N621 0.984 . S
H625 N621 0.985 . S
H626 N620 0.984 . S
H627 N620 0.984 . S
H628 N616 0.984 1_556 S
H629 N616 0.985 . S
C630 C631 1.363 1_545 S
C630 C636 1.379 . S
C630 N638 1.356 . S
C631 C630 1.363 1_565 S
C631 C637 1.363 . S
C632 C633 1.363 . S
C632 C637 1.379 1_545 S
C632 N639 1.356 . S
C633 C632 1.363 . S
C633 C636 1.363 . S
N634 C636 1.356 . S
N634 H646 0.984 . S
N634 H647 0.985 . S
N635 C637 1.356 . S
N635 H640 0.984 . S
N635 H641 0.985 . S
C636 C630 1.379 . S
C636 C633 1.363 . S
C636 N634 1.356 . S
C637 C631 1.363 . S
C637 C632 1.379 1_565 S
C637 N635 1.356 . S
N638 C630 1.356 . S
N638 H644 0.984 . S
N638 H645 0.984 1_545 S
N639 C632 1.356 . S
N639 H642 0.984 . S
N639 H643 0.985 . S
H640 N635 0.984 . S
H641 N635 0.985 . S
H642 N639 0.984 . S
H643 N639 0.985 . S
H644 N638 0.984 . S
H645 N638 0.984 1_565 S
H646 N634 0.984 . S
H647 N634 0.985 . S
C648 C649 1.363 . S
C648 C654 1.379 . S
C648 N656 1.356 . S
C649 C648 1.363 . S
C649 C655 1.363 . S
C650 C651 1.363 . S
C650 C655 1.379 . S
C650 N657 1.356 . S
C651 C650 1.363 . S
C651 C654 1.363 . S
N652 C654 1.356 . S
N652 H664 0.984 . S
N652 H665 0.985 . S
N653 C655 1.356 . S
N653 H658 0.984 . S
N653 H659 0.985 . S
C654 C648 1.379 . S
C654 C651 1.363 . S
C654 N652 1.356 . S
C655 C649 1.363 . S
C655 C650 1.379 . S
C655 N653 1.356 . S
N656 C648 1.356 . S
N656 H662 0.984 . S
N656 H663 0.984 . S
N657 C650 1.356 . S
N657 H660 0.984 . S
N657 H661 0.985 . S
H658 N653 0.984 . S
H659 N653 0.985 . S
H660 N657 0.984 . S
H661 N657 0.985 . S
H662 N656 0.984 . S
H663 N656 0.984 . S
H664 N652 0.984 . S
H665 N652 0.985 . S
C181 C1 1.213 . S
C183 C9 1.213 . S
C199 C29 1.224 . S
C201 C21 1.224 . S
C217 C41 1.264 1_545 S
C219 C49 1.265 . S
C235 C69 1.213 . S
C237 C61 1.213 1_556 S
C253 C81 1.224 . S
C255 C89 1.224 . S
C271 C109 1.265 . S
C273 C101 1.265 . S
C289 C128 1.410 . S
C291 C139 1.410 1_554 S
C307 C159 1.406 . S
C309 C148 1.406 1_554 S
C325 C168 1.415 . S
C327 C179 1.415 1_554 S
C343 C116 1.952 . S
C345 C8 1.909 . S
C361 C36 1.541 . S
C363 C76 1.508 . S
C379 C48 2.404 . S
C381 C88 2.350 . S
C397 C56 1.108 . S
C399 C126 1.222 . S
C415 C149 1.453 . S
C417 C16 1.401 . S
C433 C166 1.639 . S
C435 C28 1.621 . S
C451 C161 1.823 . S
C453 C19 1.798 1_656 S
C469 C26 1.135 . S
C471 C121 1.233 . S
C487 C156 1.454 . S
C489 C59 1.355 . S
C505 C46 1.952 . S
C507 C79 1.909 . S
C523 C86 1.541 . S
C525 C6 1.508 . S
C541 C39 2.350 . S
C543 C119 2.404 . S
C559 C169 1.823 . S
C561 C68 1.798 . S
C577 C129 1.233 . S
C579 C96 1.135 . S
C595 C146 1.454 . S
C597 C108 1.355 . S
C613 C136 1.222 . S
C615 C106 1.108 . S
C631 C66 1.401 . S
C633 C141 1.453 . S
C649 C176 1.639 . S
C651 C99 1.621 . S
