# Generated by pormake.
# Topology ung, (4)-cn, num edge types: 1
# Building blocks:
#     Node 0, Type 0, BuildingBlock: QUQFOY_clean_sbu_1, # of connection points: 4
#     Node 1, Type 0, BuildingBlock: QUQFOY_clean_sbu_1, # of connection points: 4
#     Node 2, Type 0, BuildingBlock: QUQFOY_clean_sbu_1, # of connection points: 4
#     Node 3, Type 0, BuildingBlock: QUQFOY_clean_sbu_1, # of connection points: 4
#     Node 4, Type 0, BuildingBlock: QUQFOY_clean_sbu_1, # of connection points: 4
#     Node 5, Type 0, BuildingBlock: QUQFOY_clean_sbu_1, # of connection points: 4
#     Node 6, Type 0, BuildingBlock: QUQFOY_clean_sbu_1, # of connection points: 4
#     Node 7, Type 0, BuildingBlock: QUQFOY_clean_sbu_1, # of connection points: 4
#     Node 8, Type 0, BuildingBlock: QUQFOY_clean_sbu_1, # of connection points: 4
#     Node 9, Type 0, BuildingBlock: QUQFOY_clean_sbu_1, # of connection points: 4
#     Node 10, Type 0, BuildingBlock: QUQFOY_clean_sbu_1, # of connection points: 4
#     Node 11, Type 0, BuildingBlock: QUQFOY_clean_sbu_1, # of connection points: 4
#     Node 12, Type 0, BuildingBlock: QUQFOY_clean_sbu_1, # of connection points: 4
#     Node 13, Type 0, BuildingBlock: QUQFOY_clean_sbu_1, # of connection points: 4
#     Node 14, Type 0, BuildingBlock: QUQFOY_clean_sbu_1, # of connection points: 4
#     Node 15, Type 0, BuildingBlock: QUQFOY_clean_sbu_1, # of connection points: 4
#     Node 16, Type 0, BuildingBlock: QUQFOY_clean_sbu_1, # of connection points: 4
#     Node 17, Type 0, BuildingBlock: QUQFOY_clean_sbu_1, # of connection points: 4
#     Edge 18, Type (0, 0), BuildingBlock: KIFKEQ_clean_linker_1, # of connection points: 2
#     Edge 19, Type (0, 0), BuildingBlock: KIFKEQ_clean_linker_1, # of connection points: 2
#     Edge 20, Type (0, 0), BuildingBlock: KIFKEQ_clean_linker_1, # of connection points: 2
#     Edge 21, Type (0, 0), BuildingBlock: KIFKEQ_clean_linker_1, # of connection points: 2
#     Edge 22, Type (0, 0), BuildingBlock: KIFKEQ_clean_linker_1, # of connection points: 2
#     Edge 23, Type (0, 0), BuildingBlock: KIFKEQ_clean_linker_1, # of connection points: 2
#     Edge 24, Type (0, 0), BuildingBlock: KIFKEQ_clean_linker_1, # of connection points: 2
#     Edge 25, Type (0, 0), BuildingBlock: KIFKEQ_clean_linker_1, # of connection points: 2
#     Edge 26, Type (0, 0), BuildingBlock: KIFKEQ_clean_linker_1, # of connection points: 2
#     Edge 27, Type (0, 0), BuildingBlock: KIFKEQ_clean_linker_1, # of connection points: 2
#     Edge 28, Type (0, 0), BuildingBlock: KIFKEQ_clean_linker_1, # of connection points: 2
#     Edge 29, Type (0, 0), BuildingBlock: KIFKEQ_clean_linker_1, # of connection points: 2
#     Edge 30, Type (0, 0), BuildingBlock: KIFKEQ_clean_linker_1, # of connection points: 2
#     Edge 31, Type (0, 0), BuildingBlock: KIFKEQ_clean_linker_1, # of connection points: 2
#     Edge 32, Type (0, 0), BuildingBlock: KIFKEQ_clean_linker_1, # of connection points: 2
#     Edge 33, Type (0, 0), BuildingBlock: KIFKEQ_clean_linker_1, # of connection points: 2
#     Edge 34, Type (0, 0), BuildingBlock: KIFKEQ_clean_linker_1, # of connection points: 2
#     Edge 35, Type (0, 0), BuildingBlock: KIFKEQ_clean_linker_1, # of connection points: 2
#     Edge 36, Type (0, 0), BuildingBlock: KIFKEQ_clean_linker_1, # of connection points: 2
#     Edge 37, Type (0, 0), BuildingBlock: KIFKEQ_clean_linker_1, # of connection points: 2
#     Edge 38, Type (0, 0), BuildingBlock: KIFKEQ_clean_linker_1, # of connection points: 2
#     Edge 39, Type (0, 0), BuildingBlock: KIFKEQ_clean_linker_1, # of connection points: 2
#     Edge 40, Type (0, 0), BuildingBlock: KIFKEQ_clean_linker_1, # of connection points: 2
#     Edge 41, Type (0, 0), BuildingBlock: KIFKEQ_clean_linker_1, # of connection points: 2
#     Edge 42, Type (0, 0), BuildingBlock: KIFKEQ_clean_linker_1, # of connection points: 2
#     Edge 43, Type (0, 0), BuildingBlock: KIFKEQ_clean_linker_1, # of connection points: 2
#     Edge 44, Type (0, 0), BuildingBlock: KIFKEQ_clean_linker_1, # of connection points: 2
#     Edge 45, Type (0, 0), BuildingBlock: KIFKEQ_clean_linker_1, # of connection points: 2
#     Edge 46, Type (0, 0), BuildingBlock: KIFKEQ_clean_linker_1, # of connection points: 2
#     Edge 47, Type (0, 0), BuildingBlock: KIFKEQ_clean_linker_1, # of connection points: 2
#     Edge 48, Type (0, 0), BuildingBlock: KIFKEQ_clean_linker_1, # of connection points: 2
#     Edge 49, Type (0, 0), BuildingBlock: KIFKEQ_clean_linker_1, # of connection points: 2
#     Edge 50, Type (0, 0), BuildingBlock: KIFKEQ_clean_linker_1, # of connection points: 2
#     Edge 51, Type (0, 0), BuildingBlock: KIFKEQ_clean_linker_1, # of connection points: 2
#     Edge 52, Type (0, 0), BuildingBlock: KIFKEQ_clean_linker_1, # of connection points: 2
#     Edge 53, Type (0, 0), BuildingBlock: KIFKEQ_clean_linker_1, # of connection points: 2
# Relax obj value: 0.070
# Max RMSD: 0.175
# Mean RMSD: 0.149
data_MOF--net-ung--node1-QUQFOY_clean_sbu_1--edge1-KIFKEQ_clean_linker_1
_symmetry_space_group_name_H-M    P1
_symmetry_Int_Tables_number       1
_symmetry_cell_setting            triclinic
loop_
_symmetry_equiv_pos_as_xyz
'x, y, z'
_cell_length_a     71.54943
_cell_length_b     84.386478
_cell_length_c     22.846548
_cell_angle_alpha  90.593119
_cell_angle_beta   94.125652
_cell_angle_gamma 124.93074
loop_
_atom_site_label
_atom_site_type_symbol
_atom_site_fract_x
_atom_site_fract_y
_atom_site_fract_z
_atom_type_partial_charge
O0 O 0.0426 0.56966 0.30863 0.0
Cd1 Cd 0.04555 0.58777 0.24482 0.0
Cd2 Cd 0.00997 0.5825 0.29469 0.0
O3 O 0.00806 0.55919 0.33177 0.0
O4 O 0.06206 0.58463 0.18327 0.0
O5 O 0.02571 0.57408 0.16969 0.0
C6 C 0.04283 0.57501 0.15068 0.0
C7 C 0.98188 0.58123 0.231 0.0
C8 C 0.02523 0.55819 0.33588 0.0
C9 C 0.05485 0.62174 0.31461 0.0
O10 O 0.03543 0.60954 0.33291 0.0
O11 O 0.06163 0.61681 0.27243 0.0
O12 O 0.98015 0.58009 0.28698 0.0
O13 O 0.99883 0.582 0.21143 0.0
O14 O 0.47488 0.47465 0.32345 0.0
Cd15 Cd 0.45337 0.46027 0.24956 0.0
Cd16 Cd 0.4573 0.43255 0.28958 0.0
O17 O 0.48289 0.45396 0.3503 0.0
O18 O 0.45892 0.482 0.20171 0.0
O19 O 0.46805 0.46206 0.17601 0.0
C20 C 0.469 0.47758 0.16712 0.0
C21 C 0.45996 0.41294 0.2227 0.0
C22 C 0.48572 0.47021 0.35776 0.0
C23 C 0.41194 0.42722 0.2957 0.0
O24 O 0.42466 0.42159 0.31012 0.0
O25 O 0.41927 0.44203 0.26573 0.0
O26 O 0.45961 0.41014 0.27822 0.0
O27 O 0.46044 0.42774 0.20597 0.0
O28 O 0.57069 0.01827 0.20969 0.0
Cd29 Cd 0.59088 0.02233 0.28374 0.0
Cd30 Cd 0.58398 0.98978 0.23825 0.0
O31 O 0.55932 0.9887 0.18055 0.0
O32 O 0.58568 0.03683 0.34278 0.0
O33 O 0.5739 1.00631 0.34924 0.0
C34 C 0.57393 0.02076 0.36845 0.0
C35 C 0.58055 0.96593 0.29769 0.0
C36 C 0.55864 1.00338 0.17442 0.0
C37 C 0.63068 0.02742 0.23428 0.0
O38 O 0.61654 0.00969 0.21699 0.0
O39 O 0.62493 0.03562 0.26866 0.0
O40 O 0.58046 0.96435 0.24133 0.0
O41 O 0.5808 0.98024 0.31933 0.0
O42 O 0.04287 0.48874 0.80475 0.0
Cd43 Cd 0.04715 0.47424 0.74074 0.0
Cd44 Cd 0.01105 0.44345 0.78669 0.0
O45 O 0.00948 0.46453 0.83062 0.0
O46 O 0.0634 0.49358 0.6805 0.0
O47 O 0.02762 0.46781 0.66474 0.0
C48 C 0.04444 0.48385 0.6468 0.0
C49 C 0.98167 0.41746 0.72398 0.0
C50 C 0.02581 0.48251 0.8343 0.0
C51 C 0.0567 0.4486 0.80373 0.0
O52 O 0.03636 0.44011 0.81826 0.0
O53 O 0.06446 0.46217 0.76847 0.0
O54 O 0.98116 0.41698 0.78039 0.0
O55 O 0.99804 0.4332 0.70348 0.0
O56 O 0.57368 0.56595 0.73888 0.0
Cd57 Cd 0.59489 0.58532 0.80666 0.0
Cd58 Cd 0.5802 0.60478 0.75517 0.0
O59 O 0.55358 0.57778 0.71643 0.0
O60 O 0.59449 0.56935 0.87181 0.0
O61 O 0.57849 0.58533 0.87317 0.0
C62 C 0.58151 0.57301 0.89644 0.0
C63 C 0.57917 0.62762 0.81169 0.0
C64 C 0.5568 0.56447 0.7103 0.0
C65 C 0.62753 0.61606 0.73658 0.0
O66 O 0.61013 0.61567 0.71765 0.0
O67 O 0.62687 0.60707 0.78184 0.0
O68 O 0.57424 0.62549 0.75532 0.0
O69 O 0.58306 0.6159 0.83579 0.0
O70 O 0.47681 0.01718 0.79494 0.0
Cd71 Cd 0.45302 0.01291 0.73054 0.0
Cd72 Cd 0.46933 0.04879 0.77517 0.0
O73 O 0.4962 0.04863 0.81645 0.0
O74 O 0.45097 0.99327 0.67496 0.0
O75 O 0.4646 0.02333 0.65335 0.0
C76 C 0.46149 1.00707 0.63981 0.0
C77 C 0.46915 0.06879 0.70554 0.0
C78 C 0.4936 0.03248 0.82263 0.0
C79 C 0.42222 0.01527 0.80249 0.0
O80 O 0.43955 0.03258 0.81495 0.0
O81 O 0.42244 1.00469 0.76259 0.0
O82 O 0.47526 0.0748 0.76041 0.0
O83 O 0.46512 0.05226 0.69047 0.0
O84 O 0.71048 0.90459 0.6419 0.0
Cd85 Cd 0.7125 0.92214 0.57697 0.0
Cd86 Cd 0.67687 0.91678 0.62782 0.0
O87 O 0.67583 0.89386 0.66505 0.0
O88 O 0.72832 0.91929 0.51238 0.0
O89 O 0.69145 0.90725 0.50446 0.0
C90 C 0.70852 0.90889 0.48248 0.0
C91 C 0.64849 0.91507 0.56413 0.0
C92 C 0.69319 0.89312 0.66951 0.0
C93 C 0.72119 0.95625 0.64549 0.0
O94 O 0.70207 0.94397 0.66506 0.0
O95 O 0.72781 0.95125 0.60307 0.0
O96 O 0.64672 0.91391 0.6201 0.0
O97 O 0.66561 0.9161 0.54471 0.0
O98 O 0.15213 0.81105 0.64168 0.0
Cd99 Cd 0.12842 0.79299 0.57459 0.0
Cd100 Cd 0.14155 0.77162 0.61488 0.0
O101 O 0.16967 0.79668 0.6582 0.0
O102 O 0.12788 0.81138 0.52134 0.0
O103 O 0.14104 0.79416 0.49816 0.0
C104 C 0.1386 0.80783 0.48618 0.0
C105 C 0.13962 0.74902 0.55 0.0
C106 C 0.16825 0.81085 0.66778 0.0
C107 C 0.0959 0.76188 0.64411 0.0
O108 O 0.11275 0.76091 0.65741 0.0
O109 O 0.09661 0.77213 0.60254 0.0
O110 O 0.14515 0.74987 0.60566 0.0
O111 O 0.13708 0.76208 0.5308 0.0
O112 O 0.20602 0.31695 0.6374 0.0
Cd113 Cd 0.22468 0.31589 0.57699 0.0
Cd114 Cd 0.26069 0.34711 0.63359 0.0
O115 O 0.23322 0.34813 0.656 0.0
O116 O 0.20876 0.30716 0.49374 0.0
O117 O 0.2329 0.33772 0.52641 0.0
C118 C 0.21947 0.32535 0.48405 0.0
C119 C 0.28779 0.36494 0.56579 0.0
C120 C 0.2128 0.33336 0.66075 0.0
C121 C 0.25772 0.31225 0.65621 0.0
O122 O 0.26461 0.32867 0.67981 0.0
O123 O 0.24454 0.3058 0.60816 0.0
O124 O 0.2898 0.37292 0.61667 0.0
O125 O 0.27097 0.34714 0.55469 0.0
O126 O 0.71073 0.82183 0.14196 0.0
Cd127 Cd 0.71314 0.80713 0.07397 0.0
Cd128 Cd 0.67611 0.77823 0.1156 0.0
O129 O 0.67428 0.79998 0.153 0.0
O130 O 0.72987 0.8265 0.01398 0.0
O131 O 0.69328 0.80212 0.99981 0.0
C132 C 0.71063 0.81772 0.98147 0.0
C133 C 0.64771 0.75133 0.05381 0.0
C134 C 0.69257 0.81691 0.16472 0.0
C135 C 0.7201 0.78123 0.14018 0.0
O136 O 0.70058 0.77527 0.1567 0.0
O137 O 0.72786 0.79266 0.09858 0.0
O138 O 0.64613 0.75182 0.1097 0.0
O139 O 0.6646 0.76661 0.03281 0.0
O140 O 0.2471 0.90534 0.05764 0.0
Cd141 Cd 0.26392 0.92249 0.13242 0.0
Cd142 Cd 0.24988 0.94253 0.08033 0.0
O143 O 0.22729 0.9169 0.02807 0.0
O144 O 0.26174 0.9049 0.19432 0.0
O145 O 0.24372 0.91921 0.19363 0.0
C146 C 0.24697 0.90692 0.21609 0.0
C147 C 0.24372 0.96208 0.13725 0.0
C148 C 0.23196 0.90447 0.02238 0.0
C149 C 0.29959 0.95725 0.07993 0.0
O150 O 0.28274 0.95718 0.05767 0.0
O151 O 0.29681 0.9457 0.11942 0.0
O152 O 0.24204 0.962 0.08049 0.0
O153 O 0.24668 0.94975 0.16073 0.0
O154 O 0.14996 0.35298 0.11969 0.0
Cd155 Cd 0.12317 0.34824 0.06477 0.0
Cd156 Cd 0.14036 0.38435 0.11447 0.0
O157 O 0.16796 0.38393 0.14786 0.0
O158 O 0.11697 0.32763 1.00504 0.0
O159 O 0.13021 0.35758 0.98385 0.0
C160 C 0.12519 0.34084 0.96742 0.0
C161 C 0.13806 0.40327 0.0443 0.0
C162 C 0.16672 0.36822 0.14786 0.0
C163 C 0.09481 0.3508 0.14858 0.0
O164 O 0.11195 0.36828 0.15938 0.0
O165 O 0.09446 0.3403 0.10724 0.0
O166 O 0.14581 0.41018 0.09811 0.0
O167 O 0.13349 0.38648 0.03051 0.0
O168 O 0.38164 0.23857 0.97875 0.0
Cd169 Cd 0.38742 0.25703 0.91408 0.0
Cd170 Cd 0.34986 0.25233 0.95176 0.0
O171 O 0.34701 0.22954 0.99619 0.0
O172 O 0.40292 0.25163 0.8555 0.0
O173 O 0.36797 0.24449 0.8381 0.0
C174 C 0.38404 0.24333 0.82158 0.0
C175 C 0.32122 0.25051 0.88902 0.0
C176 C 0.36353 0.22775 1.0041 0.0
C177 C 0.3953 0.2919 0.9734 0.0
O178 O 0.37463 0.28033 0.98504 0.0
O179 O 0.40428 0.28609 0.94093 0.0
O180 O 0.32045 0.25039 0.94534 0.0
O181 O 0.33723 0.25007 0.86832 0.0
O182 O 0.81354 0.14671 0.96772 0.0
Cd183 Cd 0.78945 0.12897 0.90113 0.0
Cd184 Cd 0.80296 0.10692 0.935 0.0
O185 O 0.83052 0.13176 0.9816 0.0
O186 O 0.78942 0.14722 0.84627 0.0
O187 O 0.80182 0.12922 0.82537 0.0
C188 C 0.79985 0.14307 0.81196 0.0
C189 C 0.80282 0.08478 0.87183 0.0
C190 C 0.82947 0.14605 0.99277 0.0
C191 C 0.75672 0.09619 0.96598 0.0
O192 O 0.77332 0.09464 0.97504 0.0
O193 O 0.75787 0.10807 0.9298 0.0
O194 O 0.80775 0.08578 0.92785 0.0
O195 O 0.79999 0.09753 0.85125 0.0
O196 O 0.91322 0.69203 0.89861 0.0
Cd197 Cd 0.93269 0.6926 0.96892 0.0
Cd198 Cd 0.91819 0.65878 0.91439 0.0
O199 O 0.89308 0.6609 0.87103 0.0
O200 O 0.93144 0.70826 0.03364 0.0
O201 O 0.91473 0.67663 0.03304 0.0
C202 C 0.91773 0.69196 0.05662 0.0
C203 C 0.91521 0.63481 0.97245 0.0
C204 C 0.89703 0.67762 0.86632 0.0
C205 C 0.9665 0.69335 0.90312 0.0
O206 O 0.9493 0.67686 0.88247 0.0
O207 O 0.96507 0.70171 0.94773 0.0
O208 O 0.91155 0.63203 0.91579 0.0
O209 O 0.91888 0.65047 0.99548 0.0
O210 O 0.37045 0.15292 0.47448 0.0
Cd211 Cd 0.37589 0.13916 0.41057 0.0
Cd212 Cd 0.34104 0.10749 0.45713 0.0
O213 O 0.33926 0.12754 0.50618 0.0
O214 O 0.39262 0.15931 0.35311 0.0
O215 O 0.35726 0.13325 0.33306 0.0
C216 C 0.37417 0.14971 0.31756 0.0
C217 C 0.31142 0.08178 0.39436 0.0
C218 C 0.35422 0.1458 0.50738 0.0
C219 C 0.3873 0.11395 0.47023 0.0
O220 O 0.36685 0.10441 0.48437 0.0
O221 O 0.39454 0.12813 0.43751 0.0
O222 O 0.31158 0.08085 0.4508 0.0
O223 O 0.32725 0.09784 0.37396 0.0
O224 O 0.91436 0.23932 0.38439 0.0
Cd225 Cd 0.93068 0.25539 0.46124 0.0
Cd226 Cd 0.91923 0.2774 0.41126 0.0
O227 O 0.89627 0.25252 0.3562 0.0
O228 O 0.92635 0.23684 0.52213 0.0
O229 O 0.90992 0.2525 0.52026 0.0
C230 C 0.91191 0.23951 0.5427 0.0
C231 C 0.91346 0.29736 0.46757 0.0
C232 C 0.9 0.23955 0.34906 0.0
C233 C 0.96846 0.29047 0.41494 0.0
O234 O 0.95247 0.29143 0.39179 0.0
O235 O 0.96432 0.27806 0.45263 0.0
O236 O 0.9127 0.2977 0.41092 0.0
O237 O 0.91531 0.28444 0.49119 0.0
O238 O 0.81736 0.69067 0.48559 0.0
Cd239 Cd 0.79395 0.68431 0.41642 0.0
Cd240 Cd 0.80335 0.71745 0.45773 0.0
O241 O 0.83155 0.72142 0.50576 0.0
O242 O 0.79617 0.66643 0.3642 0.0
O243 O 0.80693 0.69575 0.34095 0.0
C244 C 0.80627 0.68042 0.32949 0.0
C245 C 0.80142 0.73763 0.39215 0.0
C246 C 0.83181 0.70666 0.51438 0.0
C247 C 0.75832 0.6809 0.4812 0.0
O248 O 0.77371 0.69867 0.49531 0.0
O249 O 0.76113 0.672 0.44117 0.0
O250 O 0.80512 0.74184 0.44822 0.0
O251 O 0.80059 0.72273 0.37333 0.0
H252 H 0.05589 0.52178 0.84173 0.0
H253 H 0.99628 0.47524 0.91802 0.0
H254 H 0.05889 0.54501 0.91224 0.0
H255 H 0.99954 0.49872 0.98962 0.0
H256 H 0.07562 0.5746 0.09782 0.0
H257 H 0.06989 0.55255 0.01768 0.0
H258 H 0.99727 0.52693 1.00188 0.0
H259 H 1.00297 0.54894 0.08263 0.0
C260 C 0.04332 0.51646 0.87344 0.0
C261 C 0.02595 0.49655 0.87451 0.0
C262 C 0.04514 0.52984 0.91407 0.0
C263 C 0.02965 0.52373 0.95702 0.0
C264 C 0.01169 0.50392 0.95684 0.0
C265 C 0.00986 0.49044 0.91598 0.0
C266 C 0.05848 0.56449 0.07671 0.0
C267 C 0.03978 0.56357 0.09666 0.0
C268 C 0.05518 0.55184 0.03065 0.0
C269 C 0.03308 0.5379 1.00351 0.0
C270 C 0.01445 0.53734 0.02232 0.0
C271 C 0.01778 0.55009 0.06821 0.0
H272 H 0.54752 0.57318 0.94211 0.0
H273 H 0.58317 0.5457 0.95615 0.0
H274 H 0.51969 0.54997 1.00496 0.0
H275 H 0.55582 0.52288 0.02187 0.0
H276 H 0.48935 0.47153 0.08083 0.0
H277 H 0.51752 0.4955 0.01897 0.0
H278 H 0.51185 0.53908 0.09887 0.0
H279 H 0.483 0.51496 0.15819 0.0
C280 C 0.54979 0.56248 0.95993 0.0
C281 C 0.56758 0.56129 0.94392 0.0
C282 C 0.53376 0.54911 0.99621 0.0
C283 C 0.53523 0.53431 0.01824 0.0
C284 C 0.55375 0.53375 1.00462 0.0
C285 C 0.56967 0.54702 0.96762 0.0
C286 C 0.49385 0.48617 0.08432 0.0
C287 C 0.48379 0.49129 0.12411 0.0
C288 C 0.51028 0.50001 0.04948 0.0
C289 C 0.51727 0.51938 0.05417 0.0
C290 C 0.50678 0.52432 0.09324 0.0
C291 C 0.49016 0.51044 0.1274 0.0
H292 H 0.55318 0.98881 0.06259 0.0
H293 H 0.53845 0.02245 0.16797 0.0
H294 H 0.54133 0.99776 0.97346 0.0
H295 H 0.52547 0.03064 0.07952 0.0
H296 H 0.52298 0.0578 0.91546 0.0
H297 H 0.53936 0.05027 0.99905 0.0
H298 H 0.51066 0.99361 0.91569 0.0
H299 H 0.49569 1.00153 0.83177 0.0
C300 C 0.54666 0.99758 0.06664 0.0
C301 C 0.54657 1.00484 0.12203 0.0
C302 C 0.54001 1.00286 0.01559 0.0
C303 C 0.53278 0.01524 0.01903 0.0
C304 C 0.53161 0.02162 0.07487 0.0
C305 C 0.53862 0.01662 0.12568 0.0
C306 C 0.52081 0.044 0.91443 0.0
C307 C 0.50781 0.03021 0.86731 0.0
C308 C 0.52984 0.03951 0.96273 0.0
C309 C 0.52589 0.02111 0.96492 0.0
C310 C 0.51419 1.00792 0.91585 0.0
C311 C 0.50545 0.01246 0.86761 0.0
H312 H 0.53949 0.98679 0.40882 0.0
H313 H 0.57265 0.04861 0.42656 0.0
H314 H 0.50995 0.98175 0.46851 0.0
H315 H 0.54371 0.04369 0.48881 0.0
H316 H 0.47826 0.03033 0.54801 0.0
H317 H 0.50512 0.03281 0.48262 0.0
H318 H 0.50065 0.9846 0.56223 0.0
H319 H 0.47297 0.98161 0.62544 0.0
C320 C 0.54078 0.99936 0.42667 0.0
C321 C 0.55842 0.01811 0.41286 0.0
C322 C 0.52378 0.99646 0.46099 0.0
C323 C 0.52414 0.01227 0.48301 0.0
C324 C 0.54242 0.0311 0.4713 0.0
C325 C 0.55926 0.03397 0.43629 0.0
C326 C 0.48258 0.01995 0.55041 0.0
C327 C 0.47348 1.00577 0.59185 0.0
C328 C 0.49829 0.02156 0.51358 0.0
C329 C 0.50558 0.00922 0.51793 0.0
C330 C 0.49544 0.99433 0.55722 0.0
C331 C 0.47946 0.99255 0.59347 0.0
H332 H 0.99501 0.53494 0.41533 0.0
H333 H 0.05717 0.55019 0.34337 0.0
H334 H 0.99894 0.51487 0.48466 0.0
H335 H 0.06083 0.53004 0.41157 0.0
H336 H 0.07676 0.51668 0.59649 0.0
H337 H 0.07063 0.53258 0.51675 0.0
H338 H 0.99874 0.48562 0.49539 0.0
H339 H 1.00483 0.46974 0.57595 0.0
C340 C 0.00931 0.53381 0.4137 0.0
C341 C 0.0259 0.54438 0.37422 0.0
C342 C 0.01152 0.52224 0.45325 0.0
C343 C 0.03036 0.52101 0.45407 0.0
C344 C 0.04637 0.53095 0.41292 0.0
C345 C 0.04419 0.54247 0.37361 0.0
C346 C 0.0597 0.50956 0.57423 0.0
C347 C 0.0413 0.49194 0.59268 0.0
C348 C 0.05618 0.51867 0.52834 0.0
C349 C 0.03415 0.51042 0.4998 0.0
C350 C 0.01585 0.49247 0.51694 0.0
C351 C 0.0194 0.48329 0.56272 0.0
H352 H 0.52574 0.55977 0.6212 0.0
H353 H 0.55718 0.5326 0.69629 0.0
H354 H 0.50874 0.53587 0.5376 0.0
H355 H 0.54101 0.50935 0.61226 0.0
H356 H 0.50817 0.50914 0.36535 0.0
H357 H 0.52346 0.53047 0.45416 0.0
H358 H 0.50754 0.48235 0.55788 0.0
H359 H 0.49277 0.46105 0.46808 0.0
C360 C 0.52875 0.54857 0.62034 0.0
C361 C 0.54302 0.54825 0.66507 0.0
C362 C 0.51928 0.53502 0.5721 0.0
C363 C 0.52393 0.52094 0.56762 0.0
C364 C 0.53703 0.51994 0.61419 0.0
C365 C 0.5464 0.53338 0.66234 0.0
C366 C 0.50835 0.5032 0.40705 0.0
C367 C 0.4993 0.48345 0.40989 0.0
C368 C 0.51677 0.51535 0.45807 0.0
C369 C 0.51616 0.50803 0.51335 0.0
C370 C 0.50823 0.48846 0.51599 0.0
C371 C 0.49994 0.47628 0.46459 0.0
H372 H 0.65803 0.82025 0.19209 0.0
H373 H 0.72978 0.84498 0.23415 0.0
H374 H 0.66113 0.84415 0.26132 0.0
H375 H 0.7327 0.86777 0.30564 0.0
H376 H 0.73981 0.91629 0.40556 0.0
H377 H 0.73484 0.89532 0.32301 0.0
H378 H 0.66452 0.85351 0.35843 0.0
H379 H 0.6692 0.87525 0.43773 0.0
C380 C 0.67439 0.83069 0.21656 0.0
C381 C 0.69367 0.83082 0.20741 0.0
C382 C 0.67622 0.84437 0.25657 0.0
C383 C 0.69726 0.85819 0.28932 0.0
C384 C 0.71636 0.85795 0.28034 0.0
C385 C 0.71465 0.84466 0.23957 0.0
C386 C 0.7232 0.90277 0.39481 0.0
C387 C 0.70494 0.8974 0.42815 0.0
C388 C 0.72035 0.89055 0.34786 0.0
C389 C 0.69936 0.87234 0.33426 0.0
C390 C 0.68087 0.86739 0.36659 0.0
C391 C 0.68358 0.87986 0.41247 0.0
H392 H 0.14633 0.84299 0.46909 0.0
H393 H 0.15994 0.8031 0.39985 0.0
H394 H 0.17304 0.86754 0.40669 0.0
H395 H 0.18597 0.82739 0.33514 0.0
H396 H 0.25047 0.88082 0.27747 0.0
H397 H 0.22297 0.85657 0.33993 0.0
H398 H 0.18105 0.87812 0.31201 0.0
H399 H 0.20901 0.90281 0.25216 0.0
C400 C 0.15453 0.83926 0.43927 0.0
C401 C 0.151 0.82108 0.43956 0.0
C402 C 0.16994 0.8534 0.40336 0.0
C403 C 0.18202 0.84964 0.3662 0.0
C404 C 0.1775 0.83104 0.36426 0.0
C405 C 0.16229 0.81698 0.40074 0.0
C406 C 0.23556 0.88056 0.28556 0.0
C407 C 0.23201 0.89381 0.26001 0.0
C408 C 0.21959 0.86647 0.32071 0.0
C409 C 0.19952 0.86513 0.3306 0.0
C410 C 0.19634 0.87875 0.30613 0.0
C411 C 0.21243 0.89296 0.27164 0.0
H412 H 0.18699 0.30436 0.39113 0.0
H413 H 0.24448 0.3623 0.44982 0.0
H414 H 0.17928 0.31702 0.30399 0.0
H415 H 0.23701 0.37488 0.36262 0.0
H416 H 0.19137 0.38937 0.25063 0.0
H417 H 0.20779 0.37973 0.32767 0.0
H418 H 0.1932 0.33227 0.21239 0.0
H419 H 0.17651 0.34171 0.136 0.0
C420 C 0.19819 0.31972 0.38493 0.0
C421 C 0.21614 0.33231 0.42767 0.0
C422 C 0.19388 0.32701 0.33488 0.0
C423 C 0.20748 0.34703 0.32648 0.0
C424 C 0.226 0.35946 0.36814 0.0
C425 C 0.23029 0.3522 0.41806 0.0
C426 C 0.19237 0.37729 0.24113 0.0
C427 C 0.18242 0.36619 0.18753 0.0
C428 C 0.2017 0.37168 0.28535 0.0
C429 C 0.20133 0.35494 0.2766 0.0
C430 C 0.1932 0.34491 0.2211 0.0
C431 C 0.18385 0.35046 0.17713 0.0
H432 H 0.14399 0.3665 0.88179 0.0
H433 H 0.12282 0.30914 0.92595 0.0
H434 H 0.16265 0.36469 0.79936 0.0
H435 H 0.14175 0.30745 0.84409 0.0
H436 H 0.16792 0.3052 0.67363 0.0
H437 H 0.14308 0.30634 0.73824 0.0
H438 H 0.19732 0.36576 0.79315 0.0
H439 H 0.22214 0.36475 0.72763 0.0
C440 C 0.14292 0.35334 0.87325 0.0
C441 C 0.13205 0.338 0.91075 0.0
C442 C 0.15381 0.35239 0.82629 0.0
C443 C 0.15401 0.33606 0.81564 0.0
C444 C 0.14183 0.32021 0.8508 0.0
C445 C 0.13096 0.32117 0.89784 0.0
C446 C 0.17453 0.3186 0.69897 0.0
C447 C 0.19714 0.33485 0.69579 0.0
C448 C 0.16027 0.3192 0.73621 0.0
C449 C 0.16823 0.33607 0.7712 0.0
C450 C 0.19054 0.35258 0.76632 0.0
C451 C 0.20484 0.35198 0.72899 0.0
H452 H 0.67147 0.80441 0.90958 0.0
H453 H 0.74354 0.85089 0.93341 0.0
H454 H 0.66618 0.82078 0.82932 0.0
H455 H 0.7382 0.86736 0.85407 0.0
H456 H 0.72596 0.88602 0.68047 0.0
H457 H 0.72945 0.86592 0.74942 0.0
H458 H 0.66637 0.84965 0.81778 0.0
H459 H 0.6626 0.86957 0.74767 0.0
C460 C 0.68625 0.818 0.89726 0.0
C461 C 0.70795 0.82634 0.92798 0.0
C462 C 0.68316 0.82747 0.85158 0.0
C463 C 0.70171 0.84545 0.83539 0.0
C464 C 0.72355 0.85343 0.86484 0.0
C465 C 0.72662 0.844 0.91054 0.0
C466 C 0.7127 0.87807 0.70985 0.0
C467 C 0.69407 0.87957 0.70875 0.0
C468 C 0.71478 0.86659 0.74965 0.0
C469 C 0.69833 0.8563 0.78963 0.0
C470 C 0.67927 0.85726 0.78729 0.0
C471 C 0.67716 0.86875 0.74727 0.0
H472 H 0.19915 0.89705 0.93353 0.0
H473 H 0.24256 0.87921 0.99573 0.0
H474 H 0.1857 0.87475 0.84663 0.0
H475 H 0.23017 0.85795 0.90862 0.0
H476 H 0.18521 0.80678 0.77291 0.0
H477 H 0.19988 0.82895 0.86011 0.0
H478 H 0.19803 0.8709 0.75744 0.0
H479 H 0.1824 0.84829 0.67126 0.0
C480 C 0.20575 0.88838 0.92883 0.0
C481 C 0.22189 0.88995 0.97173 0.0
C482 C 0.19829 0.87576 0.8787 0.0
C483 C 0.207 0.86462 0.8702 0.0
C484 C 0.22281 0.86603 0.91376 0.0
C485 C 0.23001 0.87838 0.96387 0.0
C486 C 0.18857 0.82095 0.76879 0.0
C487 C 0.18273 0.82585 0.71546 0.0
C488 C 0.19684 0.83366 0.81883 0.0
C489 C 0.19976 0.85164 0.81621 0.0
C490 C 0.19535 0.85698 0.76165 0.0
C491 C 0.18678 0.84417 0.71199 0.0
H492 H 0.351 0.23021 0.72917 0.0
H493 H 0.40668 0.22718 0.79786 0.0
H494 H 0.34095 0.20586 0.65016 0.0
H495 H 0.39611 0.20253 0.72006 0.0
H496 H 0.34152 0.13951 0.61961 0.0
H497 H 0.34802 0.16394 0.69376 0.0
H498 H 0.37329 0.20662 0.56389 0.0
H499 H 0.36752 0.18253 0.49027 0.0
C500 C 0.36121 0.22451 0.72706 0.0
C501 C 0.37974 0.23071 0.76948 0.0
C502 C 0.35536 0.21055 0.68219 0.0
C503 C 0.3676 0.20225 0.67994 0.0
C504 C 0.38634 0.20866 0.72148 0.0
C505 C 0.3925 0.22289 0.76551 0.0
C506 C 0.34799 0.15399 0.60668 0.0
C507 C 0.35405 0.15916 0.54932 0.0
C508 C 0.35181 0.16793 0.64903 0.0
C509 C 0.36117 0.18705 0.63414 0.0
C510 C 0.36601 0.19194 0.57611 0.0
C511 C 0.36271 0.17817 0.53421 0.0
H512 H 0.82042 0.13689 0.72682 0.0
H513 H 0.80897 0.17858 0.79222 0.0
H514 H 0.84712 0.16041 0.66153 0.0
H515 H 0.83635 0.20235 0.72921 0.0
H516 H 0.87423 0.23665 0.57534 0.0
H517 H 0.8452 0.21252 0.63438 0.0
H518 H 0.88469 0.18887 0.66673 0.0
H519 H 0.91326 0.21255 0.60513 0.0
C520 C 0.82338 0.151 0.72671 0.0
C521 C 0.81253 0.15584 0.76469 0.0
C522 C 0.83897 0.16461 0.68989 0.0
C523 C 0.84431 0.18349 0.69066 0.0
C524 C 0.83262 0.18798 0.72683 0.0
C525 C 0.81684 0.17429 0.76308 0.0
C526 C 0.87687 0.22644 0.59557 0.0
C527 C 0.89611 0.22655 0.58554 0.0
C528 C 0.86017 0.21255 0.62959 0.0
C529 C 0.86237 0.19853 0.65514 0.0
C530 C 0.88205 0.19909 0.64666 0.0
C531 C 0.89864 0.21286 0.61199 0.0
H532 H 0.90164 0.71149 0.84987 0.0
H533 H 0.86609 0.65285 0.77461 0.0
H534 H 0.88834 0.72026 0.7645 0.0
H535 H 0.85162 0.66147 0.68961 0.0
H536 H 0.85065 0.68653 0.51801 0.0
H537 H 0.86562 0.67949 0.60534 0.0
H538 H 0.85741 0.71757 0.71112 0.0
H539 H 0.84343 0.72521 0.62293 0.0
C540 C 0.89055 0.7003 0.81554 0.0
C541 C 0.88513 0.68146 0.81889 0.0
C542 C 0.88281 0.70537 0.76648 0.0
C543 C 0.86915 0.6917 0.71959 0.0
C544 C 0.86264 0.67254 0.72426 0.0
C545 C 0.87063 0.66748 0.77334 0.0
C546 C 0.8527 0.6938 0.55981 0.0
C547 C 0.84605 0.7065 0.56382 0.0
C548 C 0.86085 0.68949 0.61003 0.0
C549 C 0.8622 0.69756 0.66563 0.0
C550 C 0.85672 0.71112 0.66908 0.0
C551 C 0.84887 0.71566 0.61853 0.0
H552 H 0.82622 0.70569 0.243 0.0
H553 H 0.81805 0.6552 0.31519 0.0
H554 H 0.85361 0.7083 0.1791 0.0
H555 H 0.84615 0.6583 0.25381 0.0
H556 H 0.88245 0.65878 0.0979 0.0
H557 H 0.85423 0.65519 0.15954 0.0
H558 H 0.89165 0.71749 0.1822 0.0
H559 H 0.91939 0.72103 0.1176 0.0
C560 C 0.83009 0.69503 0.24478 0.0
C561 C 0.81985 0.68019 0.28397 0.0
C562 C 0.84609 0.69669 0.20879 0.0
C563 C 0.85246 0.6837 0.2117 0.0
C564 C 0.84158 0.66848 0.24964 0.0
C565 C 0.82538 0.66667 0.28496 0.0
C566 C 0.88488 0.67176 0.11664 0.0
C567 C 0.9032 0.69021 0.10272 0.0
C568 C 0.86864 0.66969 0.15223 0.0
C569 C 0.87041 0.68602 0.17566 0.0
C570 C 0.88935 0.70454 0.16384 0.0
C571 C 0.90549 0.70661 0.12749 0.0
H572 H 0.40772 0.18223 0.26904 0.0
H573 H 0.33509 0.13725 0.24623 0.0
H574 H 0.40325 0.19907 0.18953 0.0
H575 H 0.33064 0.15413 0.1658 0.0
H576 H 0.33206 0.20603 0.08335 0.0
H577 H 0.33346 0.18497 0.15409 0.0
H578 H 0.39399 0.19599 0.08349 0.0
H579 H 0.39285 0.21702 0.01409 0.0
C580 C 0.39084 0.17575 0.24638 0.0
C581 C 0.37178 0.15837 0.26393 0.0
C582 C 0.38827 0.1854 0.20065 0.0
C583 C 0.36656 0.17797 0.17136 0.0
C584 C 0.34754 0.16032 0.18788 0.0
C585 C 0.35015 0.15056 0.23352 0.0
C586 C 0.3455 0.20378 0.08266 0.0
C587 C 0.36251 0.21346 0.04361 0.0
C588 C 0.34626 0.19166 0.12297 0.0
C589 C 0.36403 0.18901 0.12488 0.0
C590 C 0.38036 0.19803 0.08404 0.0
C591 C 0.37964 0.21007 0.04408 0.0
H592 H 0.91041 0.21467 0.31575 0.0
H593 H 0.86632 0.23277 0.26421 0.0
H594 H 0.89625 0.19338 0.2279 0.0
H595 H 0.85119 0.21053 0.17661 0.0
H596 H 0.84382 0.18355 0.99838 0.0
H597 H 0.8614 0.20632 0.08426 0.0
H598 H 0.86466 0.16425 0.18229 0.0
H599 H 0.84794 0.14185 0.09522 0.0
C600 C 0.89738 0.21391 0.28605 0.0
C601 C 0.88949 0.22549 0.29719 0.0
C602 C 0.88917 0.20156 0.23555 0.0
C603 C 0.87259 0.20019 0.19486 0.0
C604 C 0.8643 0.21148 0.20642 0.0
C605 C 0.87277 0.22409 0.25692 0.0
C606 C 0.84884 0.17939 0.03797 0.0
C607 C 0.84461 0.16097 0.04019 0.0
C608 C 0.85858 0.19232 0.08749 0.0
C609 C 0.86403 0.18703 0.14074 0.0
C610 C 0.86084 0.16892 0.142 0.0
C611 C 0.85137 0.15607 0.09204 0.0
H612 H 0.09272 0.655 0.277 0.0
H613 H 0.05107 0.63267 0.42292 0.0
H614 H 0.11721 0.68693 0.33076 0.0
H615 H 0.07552 0.66415 0.47615 0.0
H616 H 0.1351 0.71593 0.58152 0.0
H617 H 0.11733 0.68578 0.5214 0.0
H618 H 0.11139 0.7133 0.37009 0.0
H619 H 0.12905 0.74358 0.43033 0.0
C620 C 0.08883 0.65686 0.32041 0.0
C621 C 0.06988 0.64128 0.34552 0.0
C622 C 0.10281 0.67512 0.35108 0.0
C623 C 0.0984 0.67796 0.40788 0.0
C624 C 0.07956 0.66234 0.43285 0.0
C625 C 0.06542 0.64432 0.402 0.0
C626 C 0.1305 0.71574 0.53518 0.0
C627 C 0.13331 0.73215 0.51094 0.0
C628 C 0.1202 0.69842 0.50082 0.0
C629 C 0.11272 0.69713 0.44125 0.0
C630 C 0.11703 0.71389 0.41584 0.0
C631 C 0.1271 0.7312 0.45043 0.0
H632 H 0.3841 0.38967 0.32178 0.0
H633 H 0.39086 0.44388 0.33112 0.0
H634 H 0.35226 0.37559 0.38274 0.0
H635 H 0.35892 0.42975 0.39311 0.0
H636 H 0.32701 0.40225 0.57346 0.0
H637 H 0.35449 0.41785 0.49926 0.0
H638 H 0.31208 0.36661 0.38215 0.0
H639 H 0.28485 0.35111 0.45528 0.0
C640 C 0.3784 0.39843 0.33579 0.0
C641 C 0.38986 0.41782 0.32148 0.0
C642 C 0.36018 0.39038 0.37076 0.0
C643 C 0.35322 0.40163 0.39301 0.0
C644 C 0.36407 0.42082 0.37688 0.0
C645 C 0.38211 0.42881 0.34084 0.0
C646 C 0.3235 0.39443 0.53166 0.0
C647 C 0.30395 0.37535 0.52071 0.0
C648 C 0.33912 0.40339 0.48908 0.0
C649 C 0.33546 0.39337 0.43512 0.0
C650 C 0.31548 0.3746 0.42356 0.0
C651 C 0.29991 0.36573 0.46568 0.0
H652 H 0.64927 0.91873 0.44574 0.0
H653 H 0.61252 0.91635 0.59112 0.0
H654 H 0.62796 0.92709 0.38186 0.0
H655 H 0.59051 0.92417 0.52642 0.0
H656 H 0.58613 0.96859 0.41777 0.0
H657 H 0.59802 0.95235 0.48122 0.0
H658 H 0.59293 0.91825 0.33055 0.0
H659 H 0.58175 0.93505 0.26667 0.0
C660 C 0.63626 0.91957 0.46384 0.0
C661 C 0.63279 0.91704 0.52378 0.0
C662 C 0.62386 0.92425 0.42694 0.0
C663 C 0.60753 0.92645 0.44883 0.0
C664 C 0.6032 0.92292 0.50817 0.0
C665 C 0.6157 0.91829 0.54523 0.0
C666 C 0.58711 0.95737 0.3982 0.0
C667 C 0.58324 0.9533 0.33695 0.0
C668 C 0.59385 0.94794 0.43478 0.0
C669 C 0.59676 0.9341 0.41113 0.0
C670 C 0.59136 0.92911 0.35025 0.0
C671 C 0.58475 0.93864 0.3136 0.0
H672 H 0.65133 0.01352 0.1795 0.0
H673 H 0.65802 0.06668 0.22163 0.0
H674 H 0.68113 0.03012 0.11361 0.0
H675 H 0.68871 0.08365 0.15635 0.0
H676 H 0.72158 0.10026 0.97916 0.0
H677 H 0.69271 0.08464 0.0498 0.0
H678 H 0.72089 0.05343 0.11025 0.0
H679 H 0.74881 0.06826 0.03919 0.0
C680 C 0.6596 0.02891 0.17581 0.0
C681 C 0.65227 0.03877 0.20583 0.0
C682 C 0.67675 0.03847 0.13791 0.0
C683 C 0.6872 0.0582 0.12917 0.0
C684 C 0.6807 0.06835 0.16136 0.0
C685 C 0.66343 0.05873 0.19953 0.0
C686 C 0.7213 0.08981 1.00691 0.0
C687 C 0.73745 0.08546 1.0032 0.0
C688 C 0.70501 0.08109 0.04799 0.0
C689 C 0.70456 0.06785 0.08597 0.0
C690 C 0.72052 0.06336 0.08138 0.0
C691 C 0.73661 0.07194 0.04048 0.0
H692 H 0.9217 0.63695 0.09209 0.0
H693 H 0.91543 0.60363 0.93784 0.0
H694 H 0.93326 0.62 0.15286 0.0
H695 H 0.92648 0.58616 0.99919 0.0
H696 H 0.94605 0.58253 0.2587 0.0
H697 H 0.92439 0.59095 0.19526 0.0
H698 H 0.96176 0.59439 0.0499 0.0
H699 H 0.98284 0.58548 0.11267 0.0
C700 C 0.92226 0.62565 0.07125 0.0
C701 C 0.91785 0.6218 0.00992 0.0
C702 C 0.92878 0.6158 0.1063 0.0
C703 C 0.93105 0.60178 0.08105 0.0
C704 C 0.9253 0.5971 0.02007 0.0
C705 C 0.91876 0.60699 0.98491 0.0
C706 C 0.94931 0.58471 0.21291 0.0
C707 C 0.96634 0.58349 0.19098 0.0
C708 C 0.937 0.58968 0.17657 0.0
C709 C 0.94145 0.59358 0.11745 0.0
C710 C 0.95763 0.59131 0.09488 0.0
C711 C 0.96988 0.58631 0.13113 0.0
H712 H 0.37965 0.31386 0.99375 0.0
H713 H 0.44089 0.31503 0.01386 0.0
H714 H 0.39998 0.34549 0.04702 0.0
H715 H 0.46119 0.34669 0.06911 0.0
H716 H 0.46477 0.38339 0.24217 0.0
H717 H 0.45305 0.35608 0.17349 0.0
H718 H 0.43557 0.38157 0.03679 0.0
H719 H 0.44768 0.40906 0.10476 0.0
C720 C 0.39757 0.32101 0.00903 0.0
C721 C 0.40871 0.31201 0.99965 0.0
C722 C 0.40922 0.33915 0.03929 0.0
C723 C 0.43215 0.34853 0.06211 0.0
C724 C 0.44351 0.33975 0.05187 0.0
C725 C 0.43196 0.32173 0.02009 0.0
C726 C 0.45898 0.38342 0.19706 0.0
C727 C 0.45702 0.39834 0.17907 0.0
C728 C 0.45236 0.36782 0.15773 0.0
C729 C 0.44328 0.36669 0.09999 0.0
C730 C 0.44244 0.38208 0.08114 0.0
C731 C 0.44945 0.39783 0.12008 0.0
H732 H 0.91875 0.30183 0.58746 0.0
H733 H 0.91386 0.32858 0.43245 0.0
H734 H 0.93055 0.33048 0.64786 0.0
H735 H 0.92497 0.35716 0.49335 0.0
H736 H 0.98162 0.41315 0.60527 0.0
H737 H 0.9599 0.38327 0.54328 0.0
H738 H 0.9232 0.35191 0.69032 0.0
H739 H 0.94561 0.38184 0.75299 0.0
C740 C 0.91956 0.31363 0.56638 0.0
C741 C 0.91559 0.31295 0.50492 0.0
C742 C 0.92626 0.33011 0.60122 0.0
C743 C 0.92905 0.34636 0.57563 0.0
C744 C 0.9235 0.34512 0.51455 0.0
C745 C 0.91689 0.32863 0.47961 0.0
C746 C 0.96865 0.39995 0.62424 0.0
C747 C 0.96556 0.3999 0.68435 0.0
C748 C 0.95603 0.38275 0.58845 0.0
C749 C 0.93985 0.36501 0.61168 0.0
C750 C 0.93581 0.36519 0.67106 0.0
C751 C 0.94855 0.3824 0.70697 0.0
H752 H 0.62734 0.62364 0.6217 0.0
H753 H 0.67201 0.62844 0.76929 0.0
H754 H 0.65873 0.6376 0.55969 0.0
H755 H 0.70382 0.64291 0.70653 0.0
H756 H 0.75567 0.69255 0.58944 0.0
H757 H 0.72464 0.67555 0.65225 0.0
H758 H 0.68539 0.62862 0.51903 0.0
H759 H 0.71692 0.64555 0.45565 0.0
C760 C 0.64393 0.62779 0.64111 0.0
C761 C 0.64726 0.62512 0.70074 0.0
C762 C 0.66181 0.63557 0.60523 0.0
C763 C 0.68358 0.64119 0.62824 0.0
C764 C 0.68709 0.63863 0.68784 0.0
C765 C 0.66898 0.63043 0.7237 0.0
C766 C 0.74044 0.67862 0.57315 0.0
C767 C 0.73866 0.67047 0.51715 0.0
C768 C 0.7228 0.66881 0.6096 0.0
C769 C 0.70277 0.65076 0.59064 0.0
C770 C 0.70077 0.64256 0.53458 0.0
C771 C 0.71871 0.65223 0.49834 0.0
H772 H 0.43379 0.13787 0.49901 0.0
H773 H 0.37545 0.07832 0.49803 0.0
H774 H 0.45806 0.12935 0.55019 0.0
H775 H 0.39965 0.06981 0.54748 0.0
H776 H 0.45161 0.05706 0.59122 0.0
H777 H 0.43499 0.06964 0.5268 0.0
H778 H 0.45712 0.11592 0.65698 0.0
H779 H 0.47359 0.10318 0.72243 0.0
C780 C 0.42628 0.12293 0.50867 0.0
C781 C 0.40274 0.10874 0.49457 0.0
C782 C 0.44012 0.1181 0.53819 0.0
C783 C 0.43073 0.09892 0.5526 0.0
C784 C 0.40739 0.08467 0.53644 0.0
C785 C 0.39352 0.08956 0.50832 0.0
C786 C 0.45343 0.07016 0.60584 0.0
C787 C 0.46372 0.07898 0.6624 0.0
C788 C 0.44382 0.07732 0.56888 0.0
C789 C 0.44457 0.09362 0.58716 0.0
C790 C 0.45639 0.10336 0.64174 0.0
C791 C 0.46578 0.09604 0.67922 0.0
H792 H 0.33133 0.94926 0.06888 0.0
H793 H 0.31555 0.9902 0.02365 0.0
H794 H 0.36126 0.96366 1.00099 0.0
H795 H 0.34502 1.00432 0.95572 0.0
H796 H 0.41315 0.03527 0.87525 0.0
H797 H 0.38601 0.02262 0.94919 0.0
H798 H 0.3612 0.96428 0.89137 0.0
H799 H 0.38884 0.97702 0.81749 0.0
C800 C 0.33469 0.96167 0.04577 0.0
C801 C 0.32114 0.96863 0.05159 0.0
C802 C 0.35153 0.96968 1.00616 0.0
C803 C 0.35524 0.98492 0.9723 0.0
C804 C 0.34265 0.99264 0.98115 0.0
C805 C 0.32578 0.98457 0.02022 0.0
C806 C 0.40176 0.01972 0.87774 0.0
C807 C 0.40314 1.00714 0.84036 0.0
C808 C 0.38621 0.01248 0.92025 0.0
C809 C 0.37164 0.99247 0.92662 0.0
C810 C 0.37252 0.9798 0.8882 0.0
C811 C 0.38807 0.98707 0.84529 0.0
H812 H 0.04308 0.41335 0.84108 0.0
H813 H 0.10344 0.47124 0.82835 0.0
H814 H 0.06647 0.40441 0.89288 0.0
H815 H 0.12689 0.4623 0.88188 0.0
H816 H 0.14381 0.43834 0.05798 0.0
H817 H 0.12689 0.45076 0.99254 0.0
H818 H 0.10021 0.40186 0.86903 0.0
H819 H 0.11729 0.38961 0.93319 0.0
C820 C 0.06139 0.42413 0.84899 0.0
C821 C 0.07143 0.44298 0.8305 0.0
C822 C 0.07478 0.41899 0.8785 0.0
C823 C 0.09848 0.43267 0.89134 0.0
C824 C 0.10865 0.45151 0.87255 0.0
C825 C 0.09527 0.45655 0.84166 0.0
C826 C 0.13483 0.43051 0.01621 0.0
C827 C 0.13175 0.4129 1.00115 0.0
C828 C 0.12518 0.43764 0.97876 0.0
C829 C 0.11206 0.42714 0.92607 0.0
C830 C 0.11007 0.41013 0.90963 0.0
C831 C 0.11994 0.40318 0.94645 0.0
H832 H 0.57902 0.65827 0.77301 0.0
H833 H 0.58821 0.63478 0.93076 0.0
H834 H 0.59097 0.68779 0.83022 0.0
H835 H 0.60054 0.66427 0.98747 0.0
H836 H 0.61258 0.71582 0.08602 0.0
H837 H 0.59109 0.68515 0.02682 0.0
H838 H 0.62695 0.71504 0.87719 0.0
H839 H 0.648 0.74566 0.93588 0.0
C840 C 0.58321 0.65925 0.82 0.0
C841 C 0.58277 0.64418 0.84717 0.0
C842 C 0.59025 0.67626 0.85276 0.0
C843 C 0.59695 0.67856 0.91349 0.0
C844 C 0.59531 0.66302 0.94101 0.0
C845 C 0.58834 0.64608 0.90832 0.0
C846 C 0.61555 0.7159 0.04017 0.0
C847 C 0.63215 0.73321 0.01589 0.0
C848 C 0.60334 0.69827 1.00629 0.0
C849 C 0.60741 0.69752 0.94727 0.0
C850 C 0.62315 0.71501 0.92223 0.0
C851 C 0.63535 0.73262 0.95608 0.0
H852 H 0.75804 0.98961 0.60491 0.0
H853 H 0.71791 0.96762 0.75367 0.0
H854 H 0.78201 0.02197 0.65629 0.0
H855 H 0.74181 0.99952 0.80448 0.0
H856 H 0.8003 0.05271 0.90575 0.0
H857 H 0.78352 0.02234 0.84771 0.0
H858 H 0.77535 0.04788 0.69405 0.0
H859 H 0.79206 0.07838 0.7522 0.0
C860 C 0.75438 0.99163 0.64845 0.0
C861 C 0.736 0.97602 0.67504 0.0
C862 C 0.76806 0.01014 0.67776 0.0
C863 C 0.76391 0.01321 0.73464 0.0
C864 C 0.74566 0.99756 0.7611 0.0
C865 C 0.73183 0.97928 0.73162 0.0
C866 C 0.79544 0.05206 0.85931 0.0
C867 C 0.79732 0.06796 0.83384 0.0
C868 C 0.78571 0.0346 0.82614 0.0
C869 C 0.77784 0.03266 0.76655 0.0
C870 C 0.78129 0.04896 0.73985 0.0
C871 C 0.79083 0.06641 0.77325 0.0
H872 H 0.05149 0.75056 0.61843 0.0
H873 H 0.09749 0.75247 0.75642 0.0
H874 H 0.02048 0.73479 0.68365 0.0
H875 H 0.06686 0.73722 0.82108 0.0
H876 H 0.00894 0.7274 0.93375 0.0
H877 H 0.04047 0.74521 0.87081 0.0
H878 H 1.00039 0.70078 0.73098 0.0
H879 H 0.96938 0.68286 0.79317 0.0
C880 C 0.05499 0.7477 0.66253 0.0
C881 C 0.07681 0.75252 0.68198 0.0
C882 C 0.03733 0.73873 0.69976 0.0
C883 C 0.04142 0.73491 0.75738 0.0
C884 C 0.06334 0.74017 0.77713 0.0
C885 C 0.08077 0.74871 0.73973 0.0
C886 C 0.00701 0.72136 0.88985 0.0
C887 C 0.98669 0.70366 0.86878 0.0
C888 C 0.02495 0.73158 0.85382 0.0
C889 C 0.02262 0.72444 0.79586 0.0
C890 C 1.00245 0.70673 0.77512 0.0
C891 C 0.9848 0.69638 0.81123 0.0
H892 H 0.27791 0.31896 0.76754 0.0
H893 H 0.25293 0.27909 0.6147 0.0
H894 H 0.28906 0.30034 0.81981 0.0
H895 H 0.26434 0.26027 0.66787 0.0
H896 H 0.32013 0.25318 0.76946 0.0
H897 H 0.30171 0.26539 0.70985 0.0
H898 H 0.27064 0.26797 0.86142 0.0
H899 H 0.28909 0.25592 0.92111 0.0
C900 C 0.27476 0.30619 0.74493 0.0
C901 C 0.26454 0.30057 0.68671 0.0
C902 C 0.28098 0.29538 0.77528 0.0
C903 C 0.27735 0.2787 0.74828 0.0
C904 C 0.26731 0.27306 0.68984 0.0
C905 C 0.26077 0.28381 0.65947 0.0
C906 C 0.30894 0.25592 0.78977 0.0
C907 C 0.30632 0.2538 0.8503 0.0
C908 C 0.29834 0.26287 0.7555 0.0
C909 C 0.28503 0.26794 0.78116 0.0
C910 C 0.28112 0.2645 0.84064 0.0
C911 C 0.2916 0.25748 0.87477 0.0
H912 H 0.98733 0.32495 0.36572 0.0
H913 H 0.99901 0.28113 0.4043 0.0
H914 H 0.01857 0.33984 0.30293 0.0
H915 H 0.03061 0.29621 0.34137 0.0
H916 H 0.06047 0.31248 0.15935 0.0
H917 H 0.03235 0.29912 0.23199 0.0
H918 H 0.06003 0.35701 0.30207 0.0
H919 H 0.08776 0.37034 0.22952 0.0
C920 C 0.99701 0.31881 0.36198 0.0
C921 C 0.99074 0.30188 0.38991 0.0
C922 C 0.0149 0.32733 0.32591 0.0
C923 C 0.02685 0.31904 0.31656 0.0
C924 C 0.02145 0.30273 0.34708 0.0
C925 C 1.00362 0.29428 0.38381 0.0
C926 C 0.06037 0.32234 0.18986 0.0
C927 C 0.0763 0.34247 0.18839 0.0
C928 C 0.04449 0.31469 0.23197 0.0
C929 C 0.04413 0.32702 0.27309 0.0
C930 C 0.05981 0.34713 0.2709 0.0
C931 C 0.07571 0.35475 0.22919 0.0
H932 H 0.79422 0.73317 0.27169 0.0
H933 H 0.79416 0.76506 0.4208 0.0
H934 H 0.77712 0.7456 0.20742 0.0
H935 H 0.77698 0.77728 0.35663 0.0
H936 H 0.71291 0.76513 0.24585 0.0
H937 H 0.73634 0.7575 0.30353 0.0
H938 H 0.78279 0.77736 0.16823 0.0
H939 H 0.75931 0.78537 0.10993 0.0
C940 C 0.79103 0.74315 0.29057 0.0
C941 C 0.79536 0.74797 0.35153 0.0
C942 C 0.78128 0.75028 0.25369 0.0
C943 C 0.77544 0.76219 0.2772 0.0
C944 C 0.78105 0.76793 0.33747 0.0
C945 C 0.79101 0.76099 0.37416 0.0
C946 C 0.72806 0.76787 0.228 0.0
C947 C 0.7342 0.77587 0.17311 0.0
C948 C 0.7416 0.76364 0.26144 0.0
C949 C 0.76153 0.76704 0.24071 0.0
C950 C 0.76753 0.77465 0.18529 0.0
C951 C 0.75411 0.77923 0.15202 0.0
H952 H 0.24342 0.993 0.10228 0.0
H953 H 0.24931 0.96665 0.25707 0.0
H954 H 0.25436 0.02154 0.16322 0.0
H955 H 0.2609 0.99523 0.31743 0.0
H956 H 0.2755 0.04613 0.42311 0.0
H957 H 0.25311 0.01628 0.36016 0.0
H958 H 0.28929 0.04794 0.21288 0.0
H959 H 0.31102 0.07777 0.27527 0.0
C960 C 0.24661 0.99312 0.14941 0.0
C961 C 0.24565 0.97757 0.17465 0.0
C962 C 0.25312 0.00959 0.18435 0.0
C963 C 0.25889 0.01092 0.24534 0.0
C964 C 0.25643 0.99479 0.27087 0.0
C965 C 0.24986 0.97834 0.23604 0.0
C966 C 0.27833 0.04678 0.37699 0.0
C967 C 0.29522 0.06434 0.35442 0.0
C968 C 0.26559 0.02961 0.34091 0.0
C969 C 0.26953 0.02954 0.28141 0.0
C970 C 0.28553 0.04734 0.25819 0.0
C971 C 0.29814 0.06452 0.29417 0.0
loop_
_geom_bond_atom_site_label_1
_geom_bond_atom_site_label_2
_geom_bond_distance
_geom_bond_site_symmetry_2
_ccdc_geom_bond_type
O0 Cd1 2.223 . S
O0 C8 1.315 . S
Cd1 O0 2.223 . S
Cd1 O4 2.297 . S
Cd1 O5 2.439 . S
Cd1 O11 2.240 . S
Cd2 O3 2.240 1_655 S
Cd2 O10 2.223 1_655 S
Cd2 O12 2.297 . S
Cd2 O13 2.441 1_655 S
O3 Cd2 2.240 1_455 S
O3 C8 1.279 . S
O4 Cd1 2.297 . S
O4 C6 1.247 . S
O5 Cd1 2.439 . S
O5 C6 1.208 . S
C6 O4 1.247 . S
C6 O5 1.208 . S
C7 O12 1.247 . S
C7 O13 1.183 1_655 S
C8 O0 1.315 . S
C8 O3 1.279 . S
C9 O10 1.315 . S
C9 O11 1.279 . S
O10 Cd2 2.223 1_455 S
O10 C9 1.315 . S
O11 Cd1 2.240 . S
O11 C9 1.279 . S
O12 Cd2 2.297 . S
O12 C7 1.247 . S
O13 Cd2 2.441 1_455 S
O13 C7 1.183 1_455 S
O14 Cd15 2.223 . S
O14 C22 1.315 . S
Cd15 O14 2.223 . S
Cd15 O18 2.297 . S
Cd15 O19 2.439 . S
Cd15 O25 2.240 . S
Cd16 O17 2.240 . S
Cd16 O24 2.223 . S
Cd16 O26 2.297 . S
Cd16 O27 2.439 . S
O17 Cd16 2.240 . S
O17 C22 1.279 . S
O18 Cd15 2.297 . S
O18 C20 1.247 . S
O19 Cd15 2.439 . S
O19 C20 1.208 . S
C20 O18 1.247 . S
C20 O19 1.208 . S
C21 O26 1.247 . S
C21 O27 1.208 . S
C22 O14 1.315 . S
C22 O17 1.279 . S
C23 O24 1.315 . S
C23 O25 1.279 . S
O24 Cd16 2.223 . S
O24 C23 1.315 . S
O25 Cd15 2.240 . S
O25 C23 1.279 . S
O26 Cd16 2.297 . S
O26 C21 1.247 . S
O27 Cd16 2.439 . S
O27 C21 1.208 . S
O28 Cd29 2.223 . S
O28 C36 1.315 . S
Cd29 O28 2.223 . S
Cd29 O32 2.297 . S
Cd29 O33 2.439 . S
Cd29 O39 2.240 . S
Cd30 O31 2.240 . S
Cd30 O38 2.223 1_565 S
Cd30 O40 2.297 . S
Cd30 O41 2.439 . S
O31 Cd30 2.240 . S
O31 C36 1.279 1_565 S
O32 Cd29 2.297 . S
O32 C34 1.247 . S
O33 Cd29 2.439 . S
O33 C34 1.208 . S
C34 O32 1.247 . S
C34 O33 1.208 . S
C35 O40 1.247 . S
C35 O41 1.208 . S
C36 O28 1.315 . S
C36 O31 1.279 1_545 S
C37 O38 1.315 . S
C37 O39 1.279 . S
O38 Cd30 2.223 1_545 S
O38 C37 1.315 . S
O39 Cd29 2.240 . S
O39 C37 1.279 . S
O40 Cd30 2.297 . S
O40 C35 1.247 . S
O41 Cd30 2.439 . S
O41 C35 1.208 . S
O42 Cd43 2.223 . S
O42 C50 1.315 . S
Cd43 O42 2.223 . S
Cd43 O46 2.297 . S
Cd43 O47 2.439 . S
Cd43 O53 2.240 . S
Cd44 O45 2.240 . S
Cd44 O52 2.223 1_655 S
Cd44 O54 2.297 . S
Cd44 O55 2.439 . S
O45 Cd44 2.240 . S
O45 C50 1.279 1_655 S
O46 Cd43 2.297 . S
O46 C48 1.247 . S
O47 Cd43 2.439 . S
O47 C48 1.208 . S
C48 O46 1.247 . S
C48 O47 1.208 . S
C49 O54 1.247 . S
C49 O55 1.208 . S
C50 O42 1.315 . S
C50 O45 1.279 1_455 S
C51 O52 1.315 . S
C51 O53 1.279 . S
O52 Cd44 2.223 1_455 S
O52 C51 1.315 . S
O53 Cd43 2.240 . S
O53 C51 1.279 . S
O54 Cd44 2.297 . S
O54 C49 1.247 . S
O55 Cd44 2.439 . S
O55 C49 1.208 . S
O56 Cd57 2.223 . S
O56 C64 1.315 . S
Cd57 O56 2.223 . S
Cd57 O60 2.297 . S
Cd57 O61 2.439 . S
Cd57 O67 2.240 . S
Cd58 O59 2.240 . S
Cd58 O66 2.223 . S
Cd58 O68 2.297 . S
Cd58 O69 2.439 . S
O59 Cd58 2.240 . S
O59 C64 1.279 . S
O60 Cd57 2.297 . S
O60 C62 1.247 . S
O61 Cd57 2.439 . S
O61 C62 1.208 . S
C62 O60 1.247 . S
C62 O61 1.208 . S
C63 O68 1.247 . S
C63 O69 1.208 . S
C64 O56 1.315 . S
C64 O59 1.279 . S
C65 O66 1.315 . S
C65 O67 1.279 . S
O66 Cd58 2.223 . S
O66 C65 1.315 . S
O67 Cd57 2.240 . S
O67 C65 1.279 . S
O68 Cd58 2.297 . S
O68 C63 1.247 . S
O69 Cd58 2.439 . S
O69 C63 1.208 . S
O70 Cd71 2.223 . S
O70 C78 1.315 . S
Cd71 O70 2.223 . S
Cd71 O74 2.297 . S
Cd71 O75 2.439 . S
Cd71 O81 2.240 . S
Cd72 O73 2.240 . S
Cd72 O80 2.223 . S
Cd72 O82 2.297 . S
Cd72 O83 2.439 . S
O73 Cd72 2.240 . S
O73 C78 1.279 . S
O74 Cd71 2.297 . S
O74 C76 1.247 . S
O75 Cd71 2.439 . S
O75 C76 1.208 . S
C76 O74 1.247 . S
C76 O75 1.208 . S
C77 O82 1.247 . S
C77 O83 1.208 . S
C78 O70 1.315 . S
C78 O73 1.279 . S
C79 O80 1.315 . S
C79 O81 1.279 . S
O80 Cd72 2.223 . S
O80 C79 1.315 . S
O81 Cd71 2.240 . S
O81 C79 1.279 . S
O82 Cd72 2.297 . S
O82 C77 1.247 . S
O83 Cd72 2.439 . S
O83 C77 1.208 . S
O84 Cd85 2.223 . S
O84 C92 1.315 . S
Cd85 O84 2.223 . S
Cd85 O88 2.297 . S
Cd85 O89 2.439 . S
Cd85 O95 2.240 . S
Cd86 O87 2.240 . S
Cd86 O94 2.223 . S
Cd86 O96 2.297 . S
Cd86 O97 2.439 . S
O87 Cd86 2.240 . S
O87 C92 1.279 . S
O88 Cd85 2.297 . S
O88 C90 1.247 . S
O89 Cd85 2.439 . S
O89 C90 1.208 . S
C90 O88 1.247 . S
C90 O89 1.208 . S
C91 O96 1.247 . S
C91 O97 1.208 . S
C92 O84 1.315 . S
C92 O87 1.279 . S
C93 O94 1.315 . S
C93 O95 1.279 . S
O94 Cd86 2.223 . S
O94 C93 1.315 . S
O95 Cd85 2.240 . S
O95 C93 1.279 . S
O96 Cd86 2.297 . S
O96 C91 1.247 . S
O97 Cd86 2.439 . S
O97 C91 1.208 . S
O98 Cd99 2.223 . S
O98 C106 1.315 . S
Cd99 O98 2.223 . S
Cd99 O102 2.297 . S
Cd99 O103 2.439 . S
Cd99 O109 2.240 . S
Cd100 O101 2.240 . S
Cd100 O108 2.223 . S
Cd100 O110 2.297 . S
Cd100 O111 2.439 . S
O101 Cd100 2.240 . S
O101 C106 1.279 . S
O102 Cd99 2.297 . S
O102 C104 1.247 . S
O103 Cd99 2.439 . S
O103 C104 1.208 . S
C104 O102 1.247 . S
C104 O103 1.208 . S
C105 O110 1.247 . S
C105 O111 1.208 . S
C106 O98 1.315 . S
C106 O101 1.279 . S
C107 O108 1.315 . S
C107 O109 1.279 . S
O108 Cd100 2.223 . S
O108 C107 1.315 . S
O109 Cd99 2.240 . S
O109 C107 1.279 . S
O110 Cd100 2.297 . S
O110 C105 1.247 . S
O111 Cd100 2.439 . S
O111 C105 1.208 . S
O112 Cd113 2.223 . S
O112 C120 1.315 . S
Cd113 O112 2.223 . S
Cd113 O116 2.297 . S
Cd113 O117 2.439 . S
Cd113 O123 2.240 . S
Cd114 O115 2.240 . S
Cd114 O122 2.223 . S
Cd114 O124 2.297 . S
Cd114 O125 2.439 . S
O115 Cd114 2.240 . S
O115 C120 1.279 . S
O116 Cd113 2.297 . S
O116 C118 1.247 . S
O117 Cd113 2.439 . S
O117 C118 1.208 . S
C118 O116 1.247 . S
C118 O117 1.208 . S
C119 O124 1.247 . S
C119 O125 1.208 . S
C120 O112 1.315 . S
C120 O115 1.279 . S
C121 O122 1.315 . S
C121 O123 1.279 . S
O122 Cd114 2.223 . S
O122 C121 1.315 . S
O123 Cd113 2.240 . S
O123 C121 1.279 . S
O124 Cd114 2.297 . S
O124 C119 1.247 . S
O125 Cd114 2.439 . S
O125 C119 1.208 . S
O126 Cd127 2.223 . S
O126 C134 1.315 . S
Cd127 O126 2.223 . S
Cd127 O130 2.297 . S
Cd127 O131 2.439 1_554 S
Cd127 O137 2.240 . S
Cd128 O129 2.240 . S
Cd128 O136 2.223 . S
Cd128 O138 2.297 . S
Cd128 O139 2.439 . S
O129 Cd128 2.240 . S
O129 C134 1.279 . S
O130 Cd127 2.297 . S
O130 C132 1.247 1_554 S
O131 Cd127 2.439 1_556 S
O131 C132 1.208 . S
C132 O130 1.247 1_556 S
C132 O131 1.208 . S
C133 O138 1.247 . S
C133 O139 1.208 . S
C134 O126 1.315 . S
C134 O129 1.279 . S
C135 O136 1.315 . S
C135 O137 1.279 . S
O136 Cd128 2.223 . S
O136 C135 1.315 . S
O137 Cd127 2.240 . S
O137 C135 1.279 . S
O138 Cd128 2.297 . S
O138 C133 1.247 . S
O139 Cd128 2.439 . S
O139 C133 1.208 . S
O140 Cd141 2.223 . S
O140 C148 1.315 1_554 S
Cd141 O140 2.223 . S
Cd141 O144 2.297 . S
Cd141 O145 2.439 . S
Cd141 O151 2.240 . S
Cd142 O143 2.240 . S
Cd142 O150 2.223 1_554 S
Cd142 O152 2.297 . S
Cd142 O153 2.439 . S
O143 Cd142 2.240 . S
O143 C148 1.279 1_554 S
O144 Cd141 2.297 . S
O144 C146 1.247 . S
O145 Cd141 2.439 . S
O145 C146 1.208 . S
C146 O144 1.247 . S
C146 O145 1.208 . S
C147 O152 1.247 . S
C147 O153 1.208 . S
C148 O140 1.315 1_556 S
C148 O143 1.279 1_556 S
C149 O150 1.315 1_554 S
C149 O151 1.279 . S
O150 Cd142 2.223 1_556 S
O150 C149 1.315 1_556 S
O151 Cd141 2.240 . S
O151 C149 1.279 . S
O152 Cd142 2.297 . S
O152 C147 1.247 . S
O153 Cd142 2.439 . S
O153 C147 1.208 . S
O154 Cd155 2.223 . S
O154 C162 1.315 . S
Cd155 O154 2.223 . S
Cd155 O158 2.297 . S
Cd155 O159 2.439 1_554 S
Cd155 O165 2.240 . S
Cd156 O157 2.240 . S
Cd156 O164 2.223 . S
Cd156 O166 2.297 . S
Cd156 O167 2.439 . S
O157 Cd156 2.240 . S
O157 C162 1.279 . S
O158 Cd155 2.297 . S
O158 C160 1.247 1_554 S
O159 Cd155 2.439 1_556 S
O159 C160 1.208 . S
C160 O158 1.247 1_556 S
C160 O159 1.208 . S
C161 O166 1.247 . S
C161 O167 1.208 . S
C162 O154 1.315 . S
C162 O157 1.279 . S
C163 O164 1.315 . S
C163 O165 1.279 . S
O164 Cd156 2.223 . S
O164 C163 1.315 . S
O165 Cd155 2.240 . S
O165 C163 1.279 . S
O166 Cd156 2.297 . S
O166 C161 1.247 . S
O167 Cd156 2.439 . S
O167 C161 1.208 . S
O168 Cd169 2.223 1_554 S
O168 C176 1.315 . S
Cd169 O168 2.223 1_556 S
Cd169 O172 2.297 . S
Cd169 O173 2.439 . S
Cd169 O179 2.240 . S
Cd170 O171 2.240 . S
Cd170 O178 2.223 1_556 S
Cd170 O180 2.297 . S
Cd170 O181 2.439 . S
O171 Cd170 2.240 . S
O171 C176 1.279 1_556 S
O172 Cd169 2.297 . S
O172 C174 1.247 . S
O173 Cd169 2.439 . S
O173 C174 1.208 . S
C174 O172 1.247 . S
C174 O173 1.208 . S
C175 O180 1.247 . S
C175 O181 1.208 . S
C176 O168 1.315 . S
C176 O171 1.279 1_554 S
C177 O178 1.311 1_556 S
C177 O179 1.287 . S
O178 Cd170 2.223 1_554 S
O178 C177 1.311 1_554 S
O179 Cd169 2.240 . S
O179 C177 1.287 . S
O180 Cd170 2.297 . S
O180 C175 1.247 . S
O181 Cd170 2.439 . S
O181 C175 1.208 . S
O182 Cd183 2.223 . S
O182 C190 1.315 1_556 S
Cd183 O182 2.223 . S
Cd183 O186 2.297 . S
Cd183 O187 2.439 . S
Cd183 O193 2.240 . S
Cd184 O185 2.240 . S
Cd184 O192 2.223 1_556 S
Cd184 O194 2.297 . S
Cd184 O195 2.439 . S
O185 Cd184 2.240 . S
O185 C190 1.279 1_556 S
O186 Cd183 2.297 . S
O186 C188 1.247 . S
O187 Cd183 2.439 . S
O187 C188 1.208 . S
C188 O186 1.247 . S
C188 O187 1.208 . S
C189 O194 1.247 . S
C189 O195 1.208 . S
C190 O182 1.315 1_554 S
C190 O185 1.279 1_554 S
C191 O192 1.315 1_556 S
C191 O193 1.279 . S
O192 Cd184 2.223 1_554 S
O192 C191 1.315 1_554 S
O193 Cd183 2.240 . S
O193 C191 1.279 . S
O194 Cd184 2.297 . S
O194 C189 1.247 . S
O195 Cd184 2.439 . S
O195 C189 1.208 . S
O196 Cd197 2.223 . S
O196 C204 1.315 . S
Cd197 O196 2.223 . S
Cd197 O200 2.297 . S
Cd197 O201 2.439 1_556 S
Cd197 O207 2.240 . S
Cd198 O199 2.240 . S
Cd198 O206 2.223 . S
Cd198 O208 2.297 . S
Cd198 O209 2.439 . S
O199 Cd198 2.240 . S
O199 C204 1.279 . S
O200 Cd197 2.297 . S
O200 C202 1.247 1_556 S
O201 Cd197 2.439 1_554 S
O201 C202 1.208 . S
C202 O200 1.247 1_554 S
C202 O201 1.208 . S
C203 O208 1.247 . S
C203 O209 1.208 . S
C204 O196 1.315 . S
C204 O199 1.279 . S
C205 O206 1.315 . S
C205 O207 1.279 . S
O206 Cd198 2.223 . S
O206 C205 1.315 . S
O207 Cd197 2.240 . S
O207 C205 1.279 . S
O208 Cd198 2.297 . S
O208 C203 1.247 . S
O209 Cd198 2.439 . S
O209 C203 1.208 . S
O210 Cd211 2.223 . S
O210 C218 1.315 . S
Cd211 O210 2.223 . S
Cd211 O214 2.297 . S
Cd211 O215 2.439 . S
Cd211 O221 2.240 . S
Cd212 O213 2.240 . S
Cd212 O220 2.223 . S
Cd212 O222 2.297 . S
Cd212 O223 2.439 . S
O213 Cd212 2.240 . S
O213 C218 1.279 . S
O214 Cd211 2.297 . S
O214 C216 1.247 . S
O215 Cd211 2.439 . S
O215 C216 1.208 . S
C216 O214 1.247 . S
C216 O215 1.208 . S
C217 O222 1.247 . S
C217 O223 1.208 . S
C218 O210 1.315 . S
C218 O213 1.279 . S
C219 O220 1.315 . S
C219 O221 1.279 . S
O220 Cd212 2.223 . S
O220 C219 1.315 . S
O221 Cd211 2.240 . S
O221 C219 1.279 . S
O222 Cd212 2.297 . S
O222 C217 1.247 . S
O223 Cd212 2.439 . S
O223 C217 1.208 . S
O224 Cd225 2.223 . S
O224 C232 1.315 . S
Cd225 O224 2.223 . S
Cd225 O228 2.297 . S
Cd225 O229 2.439 . S
Cd225 O235 2.240 . S
Cd226 O227 2.240 . S
Cd226 O234 2.223 . S
Cd226 O236 2.297 . S
Cd226 O237 2.439 . S
O227 Cd226 2.240 . S
O227 C232 1.279 . S
O228 Cd225 2.297 . S
O228 C230 1.247 . S
O229 Cd225 2.439 . S
O229 C230 1.208 . S
C230 O228 1.247 . S
C230 O229 1.208 . S
C231 O236 1.247 . S
C231 O237 1.208 . S
C232 O224 1.315 . S
C232 O227 1.279 . S
C233 O234 1.315 . S
C233 O235 1.279 . S
O234 Cd226 2.223 . S
O234 C233 1.315 . S
O235 Cd225 2.240 . S
O235 C233 1.279 . S
O236 Cd226 2.297 . S
O236 C231 1.247 . S
O237 Cd226 2.439 . S
O237 C231 1.208 . S
O238 Cd239 2.223 . S
O238 C246 1.315 . S
Cd239 O238 2.223 . S
Cd239 O242 2.297 . S
Cd239 O243 2.439 . S
Cd239 O249 2.240 . S
Cd240 O241 2.240 . S
Cd240 O248 2.223 . S
Cd240 O250 2.297 . S
Cd240 O251 2.439 . S
O241 Cd240 2.240 . S
O241 C246 1.279 . S
O242 Cd239 2.297 . S
O242 C244 1.247 . S
O243 Cd239 2.439 . S
O243 C244 1.208 . S
C244 O242 1.247 . S
C244 O243 1.208 . S
C245 O250 1.247 . S
C245 O251 1.208 . S
C246 O238 1.315 . S
C246 O241 1.279 . S
C247 O248 1.315 . S
C247 O249 1.279 . S
O248 Cd240 2.223 . S
O248 C247 1.315 . S
O249 Cd239 2.240 . S
O249 C247 1.279 . S
O250 Cd240 2.297 . S
O250 C245 1.247 . S
O251 Cd240 2.439 . S
O251 C245 1.208 . S
H252 C260 0.950 . S
H253 C265 0.950 . S
H254 C262 0.912 1_655 S
H255 C264 0.950 . S
H256 C266 0.950 . S
H257 C268 0.950 . S
H258 C270 0.950 . S
H259 C271 0.950 . S
C260 H252 0.950 . S
C260 C261 1.386 1_655 S
C260 C262 1.404 1_655 S
C261 C260 1.386 1_455 S
C261 C265 1.393 . S
C262 H254 0.912 1_455 S
C262 C260 1.404 1_455 S
C262 C263 1.426 . S
C263 C262 1.426 . S
C263 C264 1.398 . S
C263 C269 1.491 . S
C264 H255 0.950 . S
C264 C263 1.398 . S
C264 C265 1.391 . S
C265 H253 0.950 . S
C265 C261 1.393 . S
C265 C264 1.391 . S
C266 H256 0.950 . S
C266 C267 1.386 . S
C266 C268 1.391 . S
C267 C266 1.386 . S
C267 C271 1.393 . S
C268 H257 0.950 . S
C268 C266 1.391 . S
C268 C269 1.400 1_554 S
C269 C263 1.491 . S
C269 C268 1.400 1_556 S
C269 C270 1.398 . S
C270 H258 0.950 . S
C270 C269 1.398 . S
C270 C271 1.391 1_556 S
C271 H259 0.950 . S
C271 C267 1.393 . S
C271 C270 1.391 1_554 S
H272 C280 0.950 . S
H273 C285 0.950 . S
H274 C282 0.950 1_554 S
H275 C284 0.950 . S
H276 C286 0.950 . S
H277 C288 0.950 . S
H278 C290 0.950 . S
H279 C291 0.950 . S
C280 H272 0.950 . S
C280 C281 1.386 . S
C280 C282 1.391 . S
C281 C280 1.386 . S
C281 C285 1.393 . S
C282 H274 0.950 1_556 S
C282 C280 1.391 . S
C282 C283 1.400 1_556 S
C283 C282 1.400 1_554 S
C283 C284 1.398 1_554 S
C283 C289 1.491 . S
C284 H275 0.950 . S
C284 C283 1.398 1_556 S
C284 C285 1.391 . S
C285 H273 0.950 . S
C285 C281 1.393 . S
C285 C284 1.391 . S
C286 H276 0.950 . S
C286 C287 1.386 . S
C286 C288 1.391 . S
C287 C286 1.386 . S
C287 C291 1.393 . S
C288 H277 0.950 . S
C288 C286 1.391 . S
C288 C289 1.400 . S
C289 C283 1.491 . S
C289 C288 1.400 . S
C289 C290 1.398 . S
C290 H278 0.950 . S
C290 C289 1.398 . S
C290 C291 1.391 . S
C291 H279 0.950 . S
C291 C287 1.393 . S
C291 C290 1.391 . S
H292 C300 0.950 . S
H293 C305 0.959 . S
H294 C302 0.950 1_556 S
H295 C304 0.950 . S
H296 C306 0.950 . S
H297 C308 0.950 1_554 S
H298 C310 0.950 . S
H299 C311 0.950 . S
C300 H292 0.950 . S
C300 C301 1.386 . S
C300 C302 1.391 . S
C301 C300 1.386 . S
C301 C305 1.393 . S
C302 H294 0.950 1_554 S
C302 C300 1.391 . S
C302 C303 1.400 . S
C303 C302 1.400 . S
C303 C304 1.398 . S
C303 C309 1.491 1_554 S
C304 H295 0.950 . S
C304 C303 1.398 . S
C304 C305 1.391 . S
C305 H293 0.959 . S
C305 C301 1.393 . S
C305 C304 1.391 . S
C306 H296 0.950 . S
C306 C307 1.386 . S
C306 C308 1.391 . S
C307 C306 1.386 . S
C307 C311 1.393 . S
C308 H297 0.950 1_556 S
C308 C306 1.391 . S
C308 C309 1.400 . S
C309 C303 1.491 1_556 S
C309 C308 1.400 . S
C309 C310 1.398 . S
C310 H298 0.950 . S
C310 C309 1.398 . S
C310 C311 1.391 . S
C311 H299 0.950 . S
C311 C307 1.393 . S
C311 C310 1.391 . S
H312 C320 0.950 1_565 S
H313 C325 0.950 . S
H314 C322 0.952 . S
H315 C324 0.950 . S
H316 C326 0.950 . S
H317 C328 0.950 . S
H318 C330 0.950 . S
H319 C331 0.950 . S
C320 H312 0.950 1_545 S
C320 C321 1.386 . S
C320 C322 1.391 . S
C321 C320 1.386 . S
C321 C325 1.393 . S
C322 H314 0.952 . S
C322 C320 1.391 . S
C322 C323 1.400 . S
C323 C322 1.400 . S
C323 C324 1.398 . S
C323 C329 1.491 . S
C324 H315 0.950 . S
C324 C323 1.398 . S
C324 C325 1.391 . S
C325 H313 0.950 . S
C325 C321 1.393 . S
C325 C324 1.391 . S
C326 H316 0.950 . S
C326 C327 1.386 . S
C326 C328 1.391 . S
C327 C326 1.386 . S
C327 C331 1.393 . S
C328 H317 0.950 . S
C328 C326 1.391 . S
C328 C329 1.400 . S
C329 C323 1.491 . S
C329 C328 1.400 . S
C329 C330 1.398 . S
C330 H318 0.950 . S
C330 C329 1.398 . S
C330 C331 1.391 . S
C331 H319 0.950 . S
C331 C327 1.393 . S
C331 C330 1.391 . S
H332 C340 0.983 . S
H333 C345 0.950 . S
H334 C342 0.950 . S
H335 C344 0.950 . S
H336 C346 0.950 . S
H337 C348 0.950 . S
H338 C350 0.950 . S
H339 C351 0.950 . S
C340 H332 0.983 . S
C340 C341 1.368 1_655 S
C340 C342 1.378 . S
C341 C340 1.368 1_455 S
C341 C345 1.393 . S
C342 H334 0.950 . S
C342 C340 1.378 . S
C342 C343 1.400 1_655 S
C343 C342 1.400 1_455 S
C343 C344 1.398 . S
C343 C349 1.491 . S
C344 H335 0.950 . S
C344 C343 1.398 . S
C344 C345 1.391 . S
C345 H333 0.950 . S
C345 C341 1.393 . S
C345 C344 1.391 . S
C346 H336 0.950 . S
C346 C347 1.386 . S
C346 C348 1.391 . S
C347 C346 1.386 . S
C347 C351 1.393 1_455 S
C348 H337 0.950 . S
C348 C346 1.391 . S
C348 C349 1.400 . S
C349 C343 1.491 . S
C349 C348 1.400 . S
C349 C350 1.398 1_455 S
C350 H338 0.950 . S
C350 C349 1.398 1_655 S
C350 C351 1.391 . S
C351 H339 0.950 . S
C351 C347 1.393 1_655 S
C351 C350 1.391 . S
H352 C360 0.950 . S
H353 C365 0.950 . S
H354 C362 0.950 . S
H355 C364 0.950 . S
H356 C366 0.950 . S
H357 C368 0.950 . S
H358 C370 0.950 . S
H359 C371 0.950 . S
C360 H352 0.950 . S
C360 C361 1.386 . S
C360 C362 1.391 . S
C361 C360 1.386 . S
C361 C365 1.393 . S
C362 H354 0.950 . S
C362 C360 1.391 . S
C362 C363 1.400 . S
C363 C362 1.400 . S
C363 C364 1.398 . S
C363 C369 1.491 . S
C364 H355 0.950 . S
C364 C363 1.398 . S
C364 C365 1.391 . S
C365 H353 0.950 . S
C365 C361 1.393 . S
C365 C364 1.391 . S
C366 H356 0.950 . S
C366 C367 1.386 . S
C366 C368 1.391 . S
C367 C366 1.386 . S
C367 C371 1.393 . S
C368 H357 0.950 . S
C368 C366 1.391 . S
C368 C369 1.400 . S
C369 C363 1.491 . S
C369 C368 1.400 . S
C369 C370 1.398 . S
C370 H358 0.950 . S
C370 C369 1.398 . S
C370 C371 1.391 . S
C371 H359 0.950 . S
C371 C367 1.393 . S
C371 C370 1.391 . S
H372 C380 0.950 . S
H373 C385 0.950 . S
H374 C382 0.950 . S
H375 C384 0.950 . S
H376 C386 0.950 . S
H377 C388 0.950 . S
H378 C390 0.950 . S
H379 C391 0.950 . S
C380 H372 0.950 . S
C380 C381 1.386 . S
C380 C382 1.391 . S
C381 C380 1.386 . S
C381 C385 1.393 . S
C382 H374 0.950 . S
C382 C380 1.391 . S
C382 C383 1.400 . S
C383 C382 1.400 . S
C383 C384 1.398 . S
C383 C389 1.491 . S
C384 H375 0.950 . S
C384 C383 1.398 . S
C384 C385 1.391 . S
C385 H373 0.950 . S
C385 C381 1.393 . S
C385 C384 1.391 . S
C386 H376 0.950 . S
C386 C387 1.386 . S
C386 C388 1.391 . S
C387 C386 1.386 . S
C387 C391 1.393 . S
C388 H377 0.950 . S
C388 C386 1.391 . S
C388 C389 1.400 . S
C389 C383 1.491 . S
C389 C388 1.400 . S
C389 C390 1.398 . S
C390 H378 0.950 . S
C390 C389 1.398 . S
C390 C391 1.391 . S
C391 H379 0.950 . S
C391 C387 1.393 . S
C391 C390 1.391 . S
H392 C400 0.950 . S
H393 C405 0.950 . S
H394 C402 0.950 . S
H395 C404 0.950 . S
H396 C406 0.950 . S
H397 C408 0.950 . S
H398 C410 0.950 . S
H399 C411 0.950 . S
C400 H392 0.950 . S
C400 C401 1.386 . S
C400 C402 1.391 . S
C401 C400 1.386 . S
C401 C405 1.393 . S
C402 H394 0.950 . S
C402 C400 1.391 . S
C402 C403 1.400 . S
C403 C402 1.400 . S
C403 C404 1.398 . S
C403 C409 1.491 . S
C404 H395 0.950 . S
C404 C403 1.398 . S
C404 C405 1.391 . S
C405 H393 0.950 . S
C405 C401 1.393 . S
C405 C404 1.391 . S
C406 H396 0.950 . S
C406 C407 1.386 . S
C406 C408 1.391 . S
C407 C406 1.386 . S
C407 C411 1.393 . S
C408 H397 0.950 . S
C408 C406 1.391 . S
C408 C409 1.400 . S
C409 C403 1.491 . S
C409 C408 1.400 . S
C409 C410 1.398 . S
C410 H398 0.950 . S
C410 C409 1.398 . S
C410 C411 1.391 . S
C411 H399 0.950 . S
C411 C407 1.393 . S
C411 C410 1.391 . S
H412 C420 0.950 . S
H413 C425 0.950 . S
H414 C422 0.950 . S
H415 C424 0.950 . S
H416 C426 0.950 . S
H417 C428 0.950 . S
H418 C430 0.950 . S
H419 C431 0.950 . S
C420 H412 0.950 . S
C420 C421 1.386 . S
C420 C422 1.391 . S
C421 C420 1.386 . S
C421 C425 1.393 . S
C422 H414 0.950 . S
C422 C420 1.391 . S
C422 C423 1.400 . S
C423 C422 1.400 . S
C423 C424 1.398 . S
C423 C429 1.491 . S
C424 H415 0.950 . S
C424 C423 1.398 . S
C424 C425 1.391 . S
C425 H413 0.950 . S
C425 C421 1.393 . S
C425 C424 1.391 . S
C426 H416 0.950 . S
C426 C427 1.386 . S
C426 C428 1.391 . S
C427 C426 1.386 . S
C427 C431 1.393 . S
C428 H417 0.950 . S
C428 C426 1.391 . S
C428 C429 1.400 . S
C429 C423 1.491 . S
C429 C428 1.400 . S
C429 C430 1.398 . S
C430 H418 0.950 . S
C430 C429 1.398 . S
C430 C431 1.391 . S
C431 H419 0.950 . S
C431 C427 1.393 . S
C431 C430 1.391 . S
H432 C440 0.950 . S
H433 C445 0.950 . S
H434 C442 0.950 . S
H435 C444 0.950 . S
H436 C446 0.950 . S
H437 C448 0.950 . S
H438 C450 0.950 . S
H439 C451 0.950 . S
C440 H432 0.950 . S
C440 C441 1.386 . S
C440 C442 1.391 . S
C441 C440 1.386 . S
C441 C445 1.393 . S
C442 H434 0.950 . S
C442 C440 1.391 . S
C442 C443 1.400 . S
C443 C442 1.400 . S
C443 C444 1.398 . S
C443 C449 1.491 . S
C444 H435 0.950 . S
C444 C443 1.398 . S
C444 C445 1.391 . S
C445 H433 0.950 . S
C445 C441 1.393 . S
C445 C444 1.391 . S
C446 H436 0.950 . S
C446 C447 1.386 . S
C446 C448 1.391 . S
C447 C446 1.386 . S
C447 C451 1.393 . S
C448 H437 0.950 . S
C448 C446 1.391 . S
C448 C449 1.400 . S
C449 C443 1.491 . S
C449 C448 1.400 . S
C449 C450 1.398 . S
C450 H438 0.950 . S
C450 C449 1.398 . S
C450 C451 1.391 . S
C451 H439 0.950 . S
C451 C447 1.393 . S
C451 C450 1.391 . S
H452 C460 0.950 . S
H453 C465 0.950 . S
H454 C462 0.950 . S
H455 C464 0.950 . S
H456 C466 0.950 . S
H457 C468 0.950 . S
H458 C470 0.950 . S
H459 C471 0.950 . S
C460 H452 0.950 . S
C460 C461 1.386 . S
C460 C462 1.391 . S
C461 C460 1.386 . S
C461 C465 1.393 . S
C462 H454 0.950 . S
C462 C460 1.391 . S
C462 C463 1.400 . S
C463 C462 1.400 . S
C463 C464 1.398 . S
C463 C469 1.491 . S
C464 H455 0.950 . S
C464 C463 1.398 . S
C464 C465 1.391 . S
C465 H453 0.950 . S
C465 C461 1.393 . S
C465 C464 1.391 . S
C466 H456 0.950 . S
C466 C467 1.386 . S
C466 C468 1.391 . S
C467 C466 1.386 . S
C467 C471 1.393 . S
C468 H457 0.950 . S
C468 C466 1.391 . S
C468 C469 1.400 . S
C469 C463 1.491 . S
C469 C468 1.400 . S
C469 C470 1.398 . S
C470 H458 0.950 . S
C470 C469 1.398 . S
C470 C471 1.391 . S
C471 H459 0.950 . S
C471 C467 1.393 . S
C471 C470 1.391 . S
H472 C480 0.950 . S
H473 C485 0.950 . S
H474 C482 0.950 . S
H475 C484 0.950 . S
H476 C486 0.950 . S
H477 C488 0.950 . S
H478 C490 0.950 . S
H479 C491 0.950 . S
C480 H472 0.950 . S
C480 C481 1.386 . S
C480 C482 1.391 . S
C481 C480 1.386 . S
C481 C485 1.393 . S
C482 H474 0.950 . S
C482 C480 1.391 . S
C482 C483 1.400 . S
C483 C482 1.400 . S
C483 C484 1.398 . S
C483 C489 1.491 . S
C484 H475 0.950 . S
C484 C483 1.398 . S
C484 C485 1.391 . S
C485 H473 0.950 . S
C485 C481 1.393 . S
C485 C484 1.391 . S
C486 H476 0.950 . S
C486 C487 1.386 . S
C486 C488 1.391 . S
C487 C486 1.386 . S
C487 C491 1.393 . S
C488 H477 0.950 . S
C488 C486 1.391 . S
C488 C489 1.400 . S
C489 C483 1.491 . S
C489 C488 1.400 . S
C489 C490 1.398 . S
C490 H478 0.950 . S
C490 C489 1.398 . S
C490 C491 1.391 . S
C491 H479 0.950 . S
C491 C487 1.393 . S
C491 C490 1.391 . S
H492 C500 0.950 . S
H493 C505 0.950 . S
H494 C502 0.950 . S
H495 C504 0.950 . S
H496 C506 0.950 . S
H497 C508 0.950 . S
H498 C510 0.950 . S
H499 C511 0.950 . S
C500 H492 0.950 . S
C500 C501 1.386 . S
C500 C502 1.391 . S
C501 C500 1.386 . S
C501 C505 1.393 . S
C502 H494 0.950 . S
C502 C500 1.391 . S
C502 C503 1.400 . S
C503 C502 1.400 . S
C503 C504 1.398 . S
C503 C509 1.491 . S
C504 H495 0.950 . S
C504 C503 1.398 . S
C504 C505 1.391 . S
C505 H493 0.950 . S
C505 C501 1.393 . S
C505 C504 1.391 . S
C506 H496 0.950 . S
C506 C507 1.386 . S
C506 C508 1.391 . S
C507 C506 1.386 . S
C507 C511 1.393 . S
C508 H497 0.950 . S
C508 C506 1.391 . S
C508 C509 1.400 . S
C509 C503 1.491 . S
C509 C508 1.400 . S
C509 C510 1.398 . S
C510 H498 0.950 . S
C510 C509 1.398 . S
C510 C511 1.391 . S
C511 H499 0.950 . S
C511 C507 1.393 . S
C511 C510 1.391 . S
H512 C520 0.950 . S
H513 C525 0.950 . S
H514 C522 0.950 . S
H515 C524 0.950 . S
H516 C526 0.950 . S
H517 C528 0.950 . S
H518 C530 0.950 . S
H519 C531 0.950 . S
C520 H512 0.950 . S
C520 C521 1.386 . S
C520 C522 1.391 . S
C521 C520 1.386 . S
C521 C525 1.393 . S
C522 H514 0.950 . S
C522 C520 1.391 . S
C522 C523 1.400 . S
C523 C522 1.400 . S
C523 C524 1.398 . S
C523 C529 1.491 . S
C524 H515 0.950 . S
C524 C523 1.398 . S
C524 C525 1.391 . S
C525 H513 0.950 . S
C525 C521 1.393 . S
C525 C524 1.391 . S
C526 H516 0.950 . S
C526 C527 1.386 . S
C526 C528 1.391 . S
C527 C526 1.386 . S
C527 C531 1.393 . S
C528 H517 0.950 . S
C528 C526 1.391 . S
C528 C529 1.400 . S
C529 C523 1.491 . S
C529 C528 1.400 . S
C529 C530 1.398 . S
C530 H518 0.950 . S
C530 C529 1.398 . S
C530 C531 1.391 . S
C531 H519 0.950 . S
C531 C527 1.393 . S
C531 C530 1.391 . S
H532 C540 0.950 . S
H533 C545 0.950 . S
H534 C542 0.950 . S
H535 C544 0.950 . S
H536 C546 0.950 . S
H537 C548 0.950 . S
H538 C550 0.950 . S
H539 C551 0.950 . S
C540 H532 0.950 . S
C540 C541 1.386 . S
C540 C542 1.391 . S
C541 C540 1.386 . S
C541 C545 1.393 . S
C542 H534 0.950 . S
C542 C540 1.391 . S
C542 C543 1.400 . S
C543 C542 1.400 . S
C543 C544 1.398 . S
C543 C549 1.491 . S
C544 H535 0.950 . S
C544 C543 1.398 . S
C544 C545 1.391 . S
C545 H533 0.950 . S
C545 C541 1.393 . S
C545 C544 1.391 . S
C546 H536 0.950 . S
C546 C547 1.386 . S
C546 C548 1.391 . S
C547 C546 1.386 . S
C547 C551 1.393 . S
C548 H537 0.950 . S
C548 C546 1.391 . S
C548 C549 1.400 . S
C549 C543 1.491 . S
C549 C548 1.400 . S
C549 C550 1.398 . S
C550 H538 0.950 . S
C550 C549 1.398 . S
C550 C551 1.391 . S
C551 H539 0.950 . S
C551 C547 1.393 . S
C551 C550 1.391 . S
H552 C560 0.950 . S
H553 C565 0.950 . S
H554 C562 0.950 . S
H555 C564 0.950 . S
H556 C566 0.950 . S
H557 C568 0.950 . S
H558 C570 0.950 . S
H559 C571 0.950 . S
C560 H552 0.950 . S
C560 C561 1.386 . S
C560 C562 1.391 . S
C561 C560 1.386 . S
C561 C565 1.393 . S
C562 H554 0.950 . S
C562 C560 1.391 . S
C562 C563 1.400 . S
C563 C562 1.400 . S
C563 C564 1.398 . S
C563 C569 1.491 . S
C564 H555 0.950 . S
C564 C563 1.398 . S
C564 C565 1.391 . S
C565 H553 0.950 . S
C565 C561 1.393 . S
C565 C564 1.391 . S
C566 H556 0.950 . S
C566 C567 1.386 . S
C566 C568 1.391 . S
C567 C566 1.386 . S
C567 C571 1.393 . S
C568 H557 0.950 . S
C568 C566 1.391 . S
C568 C569 1.400 . S
C569 C563 1.491 . S
C569 C568 1.400 . S
C569 C570 1.398 . S
C570 H558 0.950 . S
C570 C569 1.398 . S
C570 C571 1.391 . S
C571 H559 0.950 . S
C571 C567 1.393 . S
C571 C570 1.391 . S
H572 C580 0.950 . S
H573 C585 0.950 . S
H574 C582 0.950 . S
H575 C584 0.950 . S
H576 C586 0.950 . S
H577 C588 0.950 . S
H578 C590 0.950 . S
H579 C591 0.950 . S
C580 H572 0.950 . S
C580 C581 1.386 . S
C580 C582 1.391 . S
C581 C580 1.386 . S
C581 C585 1.393 . S
C582 H574 0.950 . S
C582 C580 1.391 . S
C582 C583 1.400 . S
C583 C582 1.400 . S
C583 C584 1.398 . S
C583 C589 1.491 . S
C584 H575 0.950 . S
C584 C583 1.398 . S
C584 C585 1.391 . S
C585 H573 0.950 . S
C585 C581 1.393 . S
C585 C584 1.391 . S
C586 H576 0.950 . S
C586 C587 1.386 . S
C586 C588 1.391 . S
C587 C586 1.386 . S
C587 C591 1.393 . S
C588 H577 0.950 . S
C588 C586 1.391 . S
C588 C589 1.400 . S
C589 C583 1.491 . S
C589 C588 1.400 . S
C589 C590 1.398 . S
C590 H578 0.950 . S
C590 C589 1.398 . S
C590 C591 1.391 . S
C591 H579 0.950 . S
C591 C587 1.393 . S
C591 C590 1.391 . S
H592 C600 0.950 . S
H593 C605 0.950 . S
H594 C602 0.950 . S
H595 C604 0.950 . S
H596 C606 0.943 1_556 S
H597 C608 0.950 . S
H598 C610 0.950 . S
H599 C611 0.950 . S
C600 H592 0.950 . S
C600 C601 1.386 . S
C600 C602 1.391 . S
C601 C600 1.386 . S
C601 C605 1.393 . S
C602 H594 0.950 . S
C602 C600 1.391 . S
C602 C603 1.400 . S
C603 C602 1.400 . S
C603 C604 1.398 . S
C603 C609 1.491 . S
C604 H595 0.950 . S
C604 C603 1.398 . S
C604 C605 1.391 . S
C605 H593 0.950 . S
C605 C601 1.393 . S
C605 C604 1.391 . S
C606 H596 0.943 1_554 S
C606 C607 1.386 . S
C606 C608 1.391 . S
C607 C606 1.386 . S
C607 C611 1.393 . S
C608 H597 0.950 . S
C608 C606 1.391 . S
C608 C609 1.400 . S
C609 C603 1.491 . S
C609 C608 1.400 . S
C609 C610 1.398 . S
C610 H598 0.950 . S
C610 C609 1.398 . S
C610 C611 1.391 . S
C611 H599 0.950 . S
C611 C607 1.393 . S
C611 C610 1.391 . S
H612 C620 0.950 . S
H613 C625 0.950 . S
H614 C622 0.950 . S
H615 C624 0.950 . S
H616 C626 0.950 . S
H617 C628 0.950 . S
H618 C630 0.950 . S
H619 C631 0.950 . S
C620 H612 0.950 . S
C620 C621 1.386 . S
C620 C622 1.391 . S
C621 C620 1.386 . S
C621 C625 1.393 . S
C622 H614 0.950 . S
C622 C620 1.391 . S
C622 C623 1.400 . S
C623 C622 1.400 . S
C623 C624 1.398 . S
C623 C629 1.491 . S
C624 H615 0.950 . S
C624 C623 1.398 . S
C624 C625 1.391 . S
C625 H613 0.950 . S
C625 C621 1.393 . S
C625 C624 1.391 . S
C626 H616 0.950 . S
C626 C627 1.386 . S
C626 C628 1.391 . S
C627 C626 1.386 . S
C627 C631 1.393 . S
C628 H617 0.950 . S
C628 C626 1.391 . S
C628 C629 1.400 . S
C629 C623 1.491 . S
C629 C628 1.400 . S
C629 C630 1.398 . S
C630 H618 0.950 . S
C630 C629 1.398 . S
C630 C631 1.391 . S
C631 H619 0.950 . S
C631 C627 1.393 . S
C631 C630 1.391 . S
H632 C640 0.950 . S
H633 C645 0.950 . S
H634 C642 0.950 . S
H635 C644 0.950 . S
H636 C646 0.950 . S
H637 C648 0.950 . S
H638 C650 0.950 . S
H639 C651 0.950 . S
C640 H632 0.950 . S
C640 C641 1.386 . S
C640 C642 1.391 . S
C641 C640 1.386 . S
C641 C645 1.393 . S
C642 H634 0.950 . S
C642 C640 1.391 . S
C642 C643 1.400 . S
C643 C642 1.400 . S
C643 C644 1.398 . S
C643 C649 1.491 . S
C644 H635 0.950 . S
C644 C643 1.398 . S
C644 C645 1.391 . S
C645 H633 0.950 . S
C645 C641 1.393 . S
C645 C644 1.391 . S
C646 H636 0.950 . S
C646 C647 1.386 . S
C646 C648 1.391 . S
C647 C646 1.386 . S
C647 C651 1.393 . S
C648 H637 0.950 . S
C648 C646 1.391 . S
C648 C649 1.400 . S
C649 C643 1.491 . S
C649 C648 1.400 . S
C649 C650 1.398 . S
C650 H638 0.950 . S
C650 C649 1.398 . S
C650 C651 1.391 . S
C651 H639 0.950 . S
C651 C647 1.393 . S
C651 C650 1.391 . S
H652 C660 0.950 . S
H653 C665 0.950 . S
H654 C662 0.950 . S
H655 C664 0.950 . S
H656 C666 0.950 . S
H657 C668 0.950 . S
H658 C670 0.950 . S
H659 C671 0.950 . S
C660 H652 0.950 . S
C660 C661 1.386 . S
C660 C662 1.391 . S
C661 C660 1.386 . S
C661 C665 1.393 . S
C662 H654 0.950 . S
C662 C660 1.391 . S
C662 C663 1.400 . S
C663 C662 1.400 . S
C663 C664 1.398 . S
C663 C669 1.491 . S
C664 H655 0.950 . S
C664 C663 1.398 . S
C664 C665 1.391 . S
C665 H653 0.950 . S
C665 C661 1.393 . S
C665 C664 1.391 . S
C666 H656 0.950 . S
C666 C667 1.386 . S
C666 C668 1.391 . S
C667 C666 1.386 . S
C667 C671 1.393 . S
C668 H657 0.950 . S
C668 C666 1.391 . S
C668 C669 1.400 . S
C669 C663 1.491 . S
C669 C668 1.400 . S
C669 C670 1.398 . S
C670 H658 0.950 . S
C670 C669 1.398 . S
C670 C671 1.391 . S
C671 H659 0.950 . S
C671 C667 1.393 . S
C671 C670 1.391 . S
H672 C680 0.950 . S
H673 C685 0.950 . S
H674 C682 0.950 . S
H675 C684 0.950 . S
H676 C686 0.950 . S
H677 C688 0.950 . S
H678 C690 0.950 . S
H679 C691 0.950 . S
C680 H672 0.950 . S
C680 C681 1.386 . S
C680 C682 1.391 . S
C681 C680 1.386 . S
C681 C685 1.393 . S
C682 H674 0.950 . S
C682 C680 1.391 . S
C682 C683 1.400 . S
C683 C682 1.400 . S
C683 C684 1.398 . S
C683 C689 1.491 . S
C684 H675 0.950 . S
C684 C683 1.398 . S
C684 C685 1.391 . S
C685 H673 0.950 . S
C685 C681 1.393 . S
C685 C684 1.391 . S
C686 H676 0.950 . S
C686 C687 1.386 . S
C686 C688 1.391 . S
C687 C686 1.386 . S
C687 C691 1.393 . S
C688 H677 0.950 . S
C688 C686 1.391 . S
C688 C689 1.400 . S
C689 C683 1.491 . S
C689 C688 1.400 . S
C689 C690 1.398 . S
C690 H678 0.950 . S
C690 C689 1.398 . S
C690 C691 1.391 . S
C691 H679 0.950 . S
C691 C687 1.393 . S
C691 C690 1.391 . S
H692 C700 0.950 . S
H693 C705 0.950 1_556 S
H694 C702 0.950 . S
H695 C704 0.950 . S
H696 C706 0.950 . S
H697 C708 0.950 . S
H698 C710 0.950 1_455 S
H699 C711 0.950 . S
C700 H692 0.950 . S
C700 C701 1.386 . S
C700 C702 1.391 1_556 S
C701 C700 1.386 . S
C701 C705 1.393 1_556 S
C702 H694 0.950 . S
C702 C700 1.391 1_554 S
C702 C703 1.400 . S
C703 C702 1.400 . S
C703 C704 1.398 . S
C703 C709 1.491 . S
C704 H695 0.950 . S
C704 C703 1.398 . S
C704 C705 1.391 . S
C705 H693 0.950 1_554 S
C705 C701 1.393 1_554 S
C705 C704 1.391 . S
C706 H696 0.950 . S
C706 C707 1.386 . S
C706 C708 1.391 . S
C707 C706 1.386 . S
C707 C711 1.393 1_655 S
C708 H697 0.950 . S
C708 C706 1.391 . S
C708 C709 1.400 . S
C709 C703 1.491 . S
C709 C708 1.400 . S
C709 C710 1.398 . S
C710 H698 0.950 1_655 S
C710 C709 1.398 . S
C710 C711 1.391 1_655 S
C711 H699 0.950 . S
C711 C707 1.393 1_455 S
C711 C710 1.391 1_455 S
H712 C720 0.945 1_556 S
H713 C725 0.950 . S
H714 C722 0.950 . S
H715 C724 0.950 . S
H716 C726 0.950 . S
H717 C728 0.950 . S
H718 C730 0.950 . S
H719 C731 0.950 . S
C720 H712 0.945 1_554 S
C720 C721 1.386 . S
C720 C722 1.391 . S
C721 C720 1.386 . S
C721 C725 1.393 . S
C722 H714 0.950 . S
C722 C720 1.391 . S
C722 C723 1.400 . S
C723 C722 1.400 . S
C723 C724 1.398 . S
C723 C729 1.491 . S
C724 H715 0.950 . S
C724 C723 1.398 . S
C724 C725 1.391 . S
C725 H713 0.950 . S
C725 C721 1.393 . S
C725 C724 1.391 . S
C726 H716 0.950 . S
C726 C727 1.386 . S
C726 C728 1.391 . S
C727 C726 1.386 . S
C727 C731 1.393 . S
C728 H717 0.950 . S
C728 C726 1.391 . S
C728 C729 1.400 . S
C729 C723 1.491 . S
C729 C728 1.400 . S
C729 C730 1.398 . S
C730 H718 0.950 . S
C730 C729 1.398 . S
C730 C731 1.391 . S
C731 H719 0.950 . S
C731 C727 1.393 . S
C731 C730 1.391 . S
H732 C740 0.950 . S
H733 C745 0.950 . S
H734 C742 0.950 . S
H735 C744 0.950 . S
H736 C746 0.950 . S
H737 C748 0.950 . S
H738 C750 0.950 . S
H739 C751 0.950 . S
C740 H732 0.950 . S
C740 C741 1.386 . S
C740 C742 1.391 . S
C741 C740 1.386 . S
C741 C745 1.393 . S
C742 H734 0.950 . S
C742 C740 1.391 . S
C742 C743 1.400 . S
C743 C742 1.400 . S
C743 C744 1.398 . S
C743 C749 1.491 . S
C744 H735 0.950 . S
C744 C743 1.398 . S
C744 C745 1.391 . S
C745 H733 0.950 . S
C745 C741 1.393 . S
C745 C744 1.391 . S
C746 H736 0.950 . S
C746 C747 1.386 . S
C746 C748 1.391 . S
C747 C746 1.386 . S
C747 C751 1.393 . S
C748 H737 0.950 . S
C748 C746 1.391 . S
C748 C749 1.400 . S
C749 C743 1.491 . S
C749 C748 1.400 . S
C749 C750 1.398 . S
C750 H738 0.950 . S
C750 C749 1.398 . S
C750 C751 1.391 . S
C751 H739 0.950 . S
C751 C747 1.393 . S
C751 C750 1.391 . S
H752 C760 0.950 . S
H753 C765 0.950 . S
H754 C762 0.950 . S
H755 C764 0.950 . S
H756 C766 0.950 . S
H757 C768 0.950 . S
H758 C770 0.950 . S
H759 C771 0.950 . S
C760 H752 0.950 . S
C760 C761 1.386 . S
C760 C762 1.391 . S
C761 C760 1.386 . S
C761 C765 1.393 . S
C762 H754 0.950 . S
C762 C760 1.391 . S
C762 C763 1.400 . S
C763 C762 1.400 . S
C763 C764 1.398 . S
C763 C769 1.491 . S
C764 H755 0.950 . S
C764 C763 1.398 . S
C764 C765 1.391 . S
C765 H753 0.950 . S
C765 C761 1.393 . S
C765 C764 1.391 . S
C766 H756 0.950 . S
C766 C767 1.386 . S
C766 C768 1.391 . S
C767 C766 1.386 . S
C767 C771 1.393 . S
C768 H757 0.950 . S
C768 C766 1.391 . S
C768 C769 1.400 . S
C769 C763 1.491 . S
C769 C768 1.400 . S
C769 C770 1.398 . S
C770 H758 0.950 . S
C770 C769 1.398 . S
C770 C771 1.391 . S
C771 H759 0.950 . S
C771 C767 1.393 . S
C771 C770 1.391 . S
H772 C780 0.950 . S
H773 C785 0.950 . S
H774 C782 0.950 . S
H775 C784 0.950 . S
H776 C786 0.950 . S
H777 C788 0.950 . S
H778 C790 0.950 . S
H779 C791 0.950 . S
C780 H772 0.950 . S
C780 C781 1.386 . S
C780 C782 1.391 . S
C781 C780 1.386 . S
C781 C785 1.393 . S
C782 H774 0.950 . S
C782 C780 1.391 . S
C782 C783 1.400 . S
C783 C782 1.400 . S
C783 C784 1.398 . S
C783 C789 1.491 . S
C784 H775 0.950 . S
C784 C783 1.398 . S
C784 C785 1.391 . S
C785 H773 0.950 . S
C785 C781 1.393 . S
C785 C784 1.391 . S
C786 H776 0.950 . S
C786 C787 1.386 . S
C786 C788 1.391 . S
C787 C786 1.386 . S
C787 C791 1.393 . S
C788 H777 0.950 . S
C788 C786 1.391 . S
C788 C789 1.400 . S
C789 C783 1.491 . S
C789 C788 1.400 . S
C789 C790 1.398 . S
C790 H778 0.950 . S
C790 C789 1.398 . S
C790 C791 1.391 . S
C791 H779 0.950 . S
C791 C787 1.393 . S
C791 C790 1.391 . S
H792 C800 0.950 . S
H793 C805 0.950 . S
H794 C802 0.950 . S
H795 C804 0.950 . S
H796 C806 0.950 . S
H797 C808 0.950 . S
H798 C810 0.950 . S
H799 C811 0.950 . S
C800 H792 0.950 . S
C800 C801 1.386 . S
C800 C802 1.391 . S
C801 C800 1.386 . S
C801 C805 1.393 . S
C802 H794 0.950 . S
C802 C800 1.391 . S
C802 C803 1.400 . S
C803 C802 1.400 . S
C803 C804 1.398 . S
C803 C809 1.491 . S
C804 H795 0.950 . S
C804 C803 1.398 . S
C804 C805 1.391 . S
C805 H793 0.950 . S
C805 C801 1.393 . S
C805 C804 1.391 . S
C806 H796 0.950 . S
C806 C807 1.386 . S
C806 C808 1.391 . S
C807 C806 1.386 . S
C807 C811 1.393 1_545 S
C808 H797 0.950 . S
C808 C806 1.391 . S
C808 C809 1.400 1_545 S
C809 C803 1.491 . S
C809 C808 1.400 1_565 S
C809 C810 1.398 . S
C810 H798 0.950 . S
C810 C809 1.398 . S
C810 C811 1.391 . S
C811 H799 0.950 . S
C811 C807 1.393 1_565 S
C811 C810 1.391 . S
H812 C820 0.950 . S
H813 C825 0.950 . S
H814 C822 0.950 . S
H815 C824 0.950 . S
H816 C826 0.950 1_554 S
H817 C828 0.950 . S
H818 C830 0.950 . S
H819 C831 0.950 . S
C820 H812 0.950 . S
C820 C821 1.386 . S
C820 C822 1.391 . S
C821 C820 1.386 . S
C821 C825 1.393 . S
C822 H814 0.950 . S
C822 C820 1.391 . S
C822 C823 1.400 . S
C823 C822 1.400 . S
C823 C824 1.398 . S
C823 C829 1.491 . S
C824 H815 0.950 . S
C824 C823 1.398 . S
C824 C825 1.391 . S
C825 H813 0.950 . S
C825 C821 1.393 . S
C825 C824 1.391 . S
C826 H816 0.950 1_556 S
C826 C827 1.386 . S
C826 C828 1.391 . S
C827 C826 1.386 . S
C827 C831 1.393 . S
C828 H817 0.950 . S
C828 C826 1.391 . S
C828 C829 1.400 . S
C829 C823 1.491 . S
C829 C828 1.400 . S
C829 C830 1.398 . S
C830 H818 0.950 . S
C830 C829 1.398 . S
C830 C831 1.391 . S
C831 H819 0.950 . S
C831 C827 1.393 . S
C831 C830 1.391 . S
H832 C840 0.950 . S
H833 C845 0.950 . S
H834 C842 0.950 . S
H835 C844 0.950 . S
H836 C846 0.950 . S
H837 C848 0.950 . S
H838 C850 0.950 . S
H839 C851 0.950 . S
C840 H832 0.950 . S
C840 C841 1.386 . S
C840 C842 1.391 . S
C841 C840 1.386 . S
C841 C845 1.393 . S
C842 H834 0.950 . S
C842 C840 1.391 . S
C842 C843 1.400 . S
C843 C842 1.400 . S
C843 C844 1.398 . S
C843 C849 1.491 . S
C844 H835 0.950 . S
C844 C843 1.398 . S
C844 C845 1.391 . S
C845 H833 0.950 . S
C845 C841 1.393 . S
C845 C844 1.391 . S
C846 H836 0.950 . S
C846 C847 1.386 1_554 S
C846 C848 1.391 1_554 S
C847 C846 1.386 1_556 S
C847 C851 1.393 . S
C848 H837 0.950 . S
C848 C846 1.391 1_556 S
C848 C849 1.400 . S
C849 C843 1.491 . S
C849 C848 1.400 . S
C849 C850 1.398 . S
C850 H838 0.950 . S
C850 C849 1.398 . S
C850 C851 1.391 . S
C851 H839 0.950 . S
C851 C847 1.393 . S
C851 C850 1.391 . S
H852 C860 0.950 . S
H853 C865 0.950 . S
H854 C862 0.950 . S
H855 C864 0.950 . S
H856 C866 0.950 . S
H857 C868 0.950 . S
H858 C870 0.950 . S
H859 C871 0.950 . S
C860 H852 0.950 . S
C860 C861 1.386 . S
C860 C862 1.391 . S
C861 C860 1.386 . S
C861 C865 1.393 . S
C862 H854 0.950 . S
C862 C860 1.391 . S
C862 C863 1.400 . S
C863 C862 1.400 . S
C863 C864 1.398 . S
C863 C869 1.491 . S
C864 H855 0.950 . S
C864 C863 1.398 . S
C864 C865 1.391 . S
C865 H853 0.950 . S
C865 C861 1.393 . S
C865 C864 1.391 . S
C866 H856 0.950 . S
C866 C867 1.386 . S
C866 C868 1.391 1_545 S
C867 C866 1.386 . S
C867 C871 1.393 . S
C868 H857 0.950 . S
C868 C866 1.391 1_565 S
C868 C869 1.400 . S
C869 C863 1.491 . S
C869 C868 1.400 . S
C869 C870 1.398 1_565 S
C870 H858 0.950 . S
C870 C869 1.398 1_545 S
C870 C871 1.391 . S
C871 H859 0.950 . S
C871 C867 1.393 . S
C871 C870 1.391 . S
H872 C880 0.950 . S
H873 C885 0.950 . S
H874 C882 0.950 . S
H875 C884 0.950 . S
H876 C886 0.950 . S
H877 C888 0.950 . S
H878 C890 0.959 1_655 S
H879 C891 0.950 . S
C880 H872 0.950 . S
C880 C881 1.386 . S
C880 C882 1.391 . S
C881 C880 1.386 . S
C881 C885 1.393 . S
C882 H874 0.950 . S
C882 C880 1.391 . S
C882 C883 1.400 . S
C883 C882 1.400 . S
C883 C884 1.398 . S
C883 C889 1.491 . S
C884 H875 0.950 . S
C884 C883 1.398 . S
C884 C885 1.391 . S
C885 H873 0.950 . S
C885 C881 1.393 . S
C885 C884 1.391 . S
C886 H876 0.950 . S
C886 C887 1.386 1_455 S
C886 C888 1.391 . S
C887 C886 1.386 1_655 S
C887 C891 1.393 . S
C888 H877 0.950 . S
C888 C886 1.391 . S
C888 C889 1.400 . S
C889 C883 1.491 . S
C889 C888 1.400 . S
C889 C890 1.422 . S
C890 H878 0.959 1_455 S
C890 C889 1.422 . S
C890 C891 1.360 1_455 S
C891 H879 0.950 . S
C891 C887 1.393 . S
C891 C890 1.360 1_655 S
H892 C900 0.950 . S
H893 C905 0.950 . S
H894 C902 0.950 . S
H895 C904 0.950 . S
H896 C906 0.950 . S
H897 C908 0.950 . S
H898 C910 0.950 . S
H899 C911 0.950 . S
C900 H892 0.950 . S
C900 C901 1.386 . S
C900 C902 1.391 . S
C901 C900 1.386 . S
C901 C905 1.393 . S
C902 H894 0.950 . S
C902 C900 1.391 . S
C902 C903 1.400 . S
C903 C902 1.400 . S
C903 C904 1.398 . S
C903 C909 1.491 . S
C904 H895 0.950 . S
C904 C903 1.398 . S
C904 C905 1.391 . S
C905 H893 0.950 . S
C905 C901 1.393 . S
C905 C904 1.391 . S
C906 H896 0.950 . S
C906 C907 1.386 . S
C906 C908 1.391 . S
C907 C906 1.386 . S
C907 C911 1.393 . S
C908 H897 0.950 . S
C908 C906 1.391 . S
C908 C909 1.400 . S
C909 C903 1.491 . S
C909 C908 1.400 . S
C909 C910 1.398 . S
C910 H898 0.950 . S
C910 C909 1.398 . S
C910 C911 1.391 . S
C911 H899 0.950 . S
C911 C907 1.393 . S
C911 C910 1.391 . S
H912 C920 0.950 . S
H913 C925 0.950 . S
H914 C922 0.950 . S
H915 C924 0.941 1_455 S
H916 C926 0.950 . S
H917 C928 0.950 . S
H918 C930 0.950 . S
H919 C931 0.950 . S
C920 H912 0.950 . S
C920 C921 1.386 . S
C920 C922 1.391 . S
C921 C920 1.386 . S
C921 C925 1.393 . S
C922 H914 0.950 . S
C922 C920 1.391 . S
C922 C923 1.400 1_655 S
C923 C922 1.400 1_455 S
C923 C924 1.401 1_455 S
C923 C929 1.491 . S
C924 H915 0.941 1_655 S
C924 C923 1.401 1_655 S
C924 C925 1.396 . S
C925 H913 0.950 . S
C925 C921 1.393 . S
C925 C924 1.396 . S
C926 H916 0.950 . S
C926 C927 1.386 . S
C926 C928 1.391 . S
C927 C926 1.386 . S
C927 C931 1.393 . S
C928 H917 0.950 . S
C928 C926 1.391 . S
C928 C929 1.400 . S
C929 C923 1.491 . S
C929 C928 1.400 . S
C929 C930 1.398 . S
C930 H918 0.950 . S
C930 C929 1.398 . S
C930 C931 1.391 . S
C931 H919 0.950 . S
C931 C927 1.393 . S
C931 C930 1.391 . S
H932 C940 0.950 . S
H933 C945 0.950 . S
H934 C942 0.950 . S
H935 C944 0.950 . S
H936 C946 0.950 . S
H937 C948 0.950 . S
H938 C950 0.950 . S
H939 C951 0.950 . S
C940 H932 0.950 . S
C940 C941 1.386 . S
C940 C942 1.391 . S
C941 C940 1.386 . S
C941 C945 1.393 . S
C942 H934 0.950 . S
C942 C940 1.391 . S
C942 C943 1.400 . S
C943 C942 1.400 . S
C943 C944 1.398 . S
C943 C949 1.491 . S
C944 H935 0.950 . S
C944 C943 1.398 . S
C944 C945 1.391 . S
C945 H933 0.950 . S
C945 C941 1.393 . S
C945 C944 1.391 . S
C946 H936 0.950 . S
C946 C947 1.386 . S
C946 C948 1.391 . S
C947 C946 1.386 . S
C947 C951 1.393 . S
C948 H937 0.950 . S
C948 C946 1.391 . S
C948 C949 1.400 . S
C949 C943 1.491 . S
C949 C948 1.400 . S
C949 C950 1.398 . S
C950 H938 0.950 . S
C950 C949 1.398 . S
C950 C951 1.391 . S
C951 H939 0.950 . S
C951 C947 1.393 . S
C951 C950 1.391 . S
H952 C960 0.950 . S
H953 C965 0.950 . S
H954 C962 0.950 1_545 S
H955 C964 0.950 . S
H956 C966 0.950 . S
H957 C968 0.950 . S
H958 C970 0.950 . S
H959 C971 0.950 . S
C960 H952 0.950 . S
C960 C961 1.386 . S
C960 C962 1.391 . S
C961 C960 1.386 . S
C961 C965 1.393 . S
C962 H954 0.950 1_565 S
C962 C960 1.391 . S
C962 C963 1.400 1_565 S
C963 C962 1.400 1_545 S
C963 C964 1.398 1_545 S
C963 C969 1.491 . S
C964 H955 0.950 . S
C964 C963 1.398 1_565 S
C964 C965 1.391 . S
C965 H953 0.950 . S
C965 C961 1.393 . S
C965 C964 1.391 . S
C966 H956 0.950 . S
C966 C967 1.386 . S
C966 C968 1.391 . S
C967 C966 1.386 . S
C967 C971 1.393 . S
C968 H957 0.950 . S
C968 C966 1.391 . S
C968 C969 1.400 . S
C969 C963 1.491 . S
C969 C968 1.400 . S
C969 C970 1.398 . S
C970 H958 0.950 . S
C970 C969 1.398 . S
C970 C971 1.391 . S
C971 H959 0.950 . S
C971 C967 1.393 . S
C971 C970 1.391 . S
C261 C50 1.333 . S
C267 C6 1.378 . S
C281 C62 1.509 . S
C287 C20 1.487 . S
C301 C36 1.606 . S
C307 C78 1.582 . S
C321 C34 1.414 . S
C327 C76 1.402 . S
C341 C8 1.340 . S
C347 C48 1.381 . S
C361 C64 1.554 . S
C367 C22 1.503 . S
C381 C134 1.278 . S
C387 C90 1.303 . S
C401 C104 1.389 . S
C407 C146 1.399 . S
C421 C118 1.376 . S
C427 C162 1.324 . S
C441 C160 1.538 . S
C447 C120 1.492 . S
C461 C132 1.425 . S
C467 C92 1.376 . S
C481 C148 1.610 . S
C487 C106 1.585 . S
C501 C174 1.484 . S
C507 C218 1.464 . S
C521 C188 1.432 . S
C527 C230 1.442 . S
C541 C204 1.542 . S
C547 C246 1.513 . S
C561 C244 1.384 . S
C567 C202 1.394 . S
C581 C216 1.374 . S
C587 C176 1.304 . S
C601 C232 1.513 . S
C607 C190 1.494 . S
C621 C9 1.361 . S
C627 C105 1.436 . S
C641 C23 1.414 . S
C647 C119 1.422 . S
C661 C91 1.128 . S
C667 C35 1.129 . S
C681 C37 1.584 . S
C687 C191 1.614 1_554 S
C701 C203 1.048 . S
C707 C7 1.048 . S
C721 C177 1.481 1_554 S
C727 C21 1.492 . S
C741 C231 1.096 . S
C747 C49 1.095 . S
C761 C65 1.509 . S
C767 C247 1.572 . S
C781 C219 1.375 . S
C787 C77 1.417 . S
C801 C149 1.562 1_556 S
C807 C79 1.598 . S
C821 C51 1.249 . S
C827 C161 1.286 1_556 S
C841 C63 1.025 . S
C847 C133 1.021 1_556 S
C861 C93 1.266 . S
C867 C189 1.320 . S
C881 C107 1.544 . S
C887 C205 1.520 . S
C901 C121 1.240 . S
C907 C175 1.254 . S
C921 C233 1.504 . S
C927 C163 1.527 . S
C941 C245 1.404 . S
C947 C135 1.372 . S
C961 C147 1.128 . S
C967 C217 1.126 . S
