# Generated by pormake.
# Topology sml, (6)-cn, num edge types: 1
# Building blocks:
#     Node 0, Type 0, BuildingBlock: UKALOJ_clean_sbu_0, # of connection points: 6
#     Node 1, Type 0, BuildingBlock: UKALOJ_clean_sbu_0, # of connection points: 6
#     Node 2, Type 0, BuildingBlock: UKALOJ_clean_sbu_0, # of connection points: 6
#     Node 3, Type 0, BuildingBlock: UKALOJ_clean_sbu_0, # of connection points: 6
#     Node 4, Type 0, BuildingBlock: UKALOJ_clean_sbu_0, # of connection points: 6
#     Node 5, Type 0, BuildingBlock: UKALOJ_clean_sbu_0, # of connection points: 6
#     Edge 6, Type (0, 0), BuildingBlock: TEMPAE_clean_linker_10, # of connection points: 2
#     Edge 7, Type (0, 0), BuildingBlock: TEMPAE_clean_linker_10, # of connection points: 2
#     Edge 8, Type (0, 0), BuildingBlock: TEMPAE_clean_linker_10, # of connection points: 2
#     Edge 9, Type (0, 0), BuildingBlock: TEMPAE_clean_linker_10, # of connection points: 2
#     Edge 10, Type (0, 0), BuildingBlock: TEMPAE_clean_linker_10, # of connection points: 2
#     Edge 11, Type (0, 0), BuildingBlock: TEMPAE_clean_linker_10, # of connection points: 2
#     Edge 12, Type (0, 0), BuildingBlock: TEMPAE_clean_linker_10, # of connection points: 2
#     Edge 13, Type (0, 0), BuildingBlock: TEMPAE_clean_linker_10, # of connection points: 2
#     Edge 14, Type (0, 0), BuildingBlock: TEMPAE_clean_linker_10, # of connection points: 2
#     Edge 15, Type (0, 0), BuildingBlock: TEMPAE_clean_linker_10, # of connection points: 2
#     Edge 16, Type (0, 0), BuildingBlock: TEMPAE_clean_linker_10, # of connection points: 2
#     Edge 17, Type (0, 0), BuildingBlock: TEMPAE_clean_linker_10, # of connection points: 2
#     Edge 18, Type (0, 0), BuildingBlock: TEMPAE_clean_linker_10, # of connection points: 2
#     Edge 19, Type (0, 0), BuildingBlock: TEMPAE_clean_linker_10, # of connection points: 2
#     Edge 20, Type (0, 0), BuildingBlock: TEMPAE_clean_linker_10, # of connection points: 2
#     Edge 21, Type (0, 0), BuildingBlock: TEMPAE_clean_linker_10, # of connection points: 2
#     Edge 22, Type (0, 0), BuildingBlock: TEMPAE_clean_linker_10, # of connection points: 2
#     Edge 23, Type (0, 0), BuildingBlock: TEMPAE_clean_linker_10, # of connection points: 2
# Relax obj value: 0.313
# Max RMSD: 0.225
# Mean RMSD: 0.225
data_MOF--net-sml--node1-UKALOJ_clean_sbu_0--edge1-TEMPAE_clean_linker_10
_symmetry_space_group_name_H-M    P1
_symmetry_Int_Tables_number       1
_symmetry_cell_setting            triclinic
loop_
_symmetry_equiv_pos_as_xyz
'x, y, z'
_cell_length_a     36.950375
_cell_length_b     36.955846
_cell_length_c     19.428248
_cell_angle_alpha  89.882156
_cell_angle_beta   89.951366
_cell_angle_gamma 120.00875
loop_
_atom_site_label
_atom_site_type_symbol
_atom_site_fract_x
_atom_site_fract_y
_atom_site_fract_z
_atom_type_partial_charge
Zn0 Zn 0.23544 0.41232 0.06716 0.0
O1 O 0.22387 0.46076 0.08927 0.0
C2 C 0.14084 0.35153 0.07341 0.0
Zn3 Zn 0.19766 0.40546 0.97353 0.0
C4 C 0.20214 0.4722 0.05494 0.0
O5 O 0.18533 0.45389 -0.00113 0.0
C6 C 0.23017 0.34504 0.98751 0.0
O7 O 0.25643 0.45008 0.93627 0.0
O8 O 0.2948 0.45725 0.02695 0.0
N9 N 0.1741 0.40012 0.8762 0.0
C10 C 0.18739 0.39198 0.8165 0.0
C11 C 0.13678 0.40194 0.79225 0.0
N12 N 0.14261 0.40623 0.86104 0.0
N13 N 0.16419 0.39248 0.76338 0.0
C14 C 0.2414 0.41896 0.22483 0.0
C15 C 0.28482 0.399 0.24988 0.0
N16 N 0.25781 0.41517 0.16501 0.0
N17 N 0.28496 0.40296 0.18072 0.0
N18 N 0.25747 0.40859 0.27851 0.0
H19 H 0.22742 0.46831 0.21562 0.0
H20 H 0.20038 0.4338 0.28472 0.0
H21 H 0.18383 0.41733 0.19756 0.0
C22 C 0.21128 0.435 0.23125 0.0
C23 C 0.22466 0.38606 0.80892 0.0
H24 H 0.24704 0.39992 0.85155 0.0
H25 H 0.24153 0.40024 0.76015 0.0
H26 H 0.21381 0.35213 0.8076 0.0
O27 O 0.20865 0.35614 0.95182 0.0
O28 O 0.24744 0.36446 0.04241 0.0
C29 C 0.29195 0.46704 0.96511 0.0
O30 O 0.17549 0.36702 0.10507 0.0
O31 O 0.1399 0.36247 0.01185 0.0
Zn32 Zn 0.7797 0.19817 0.28599 0.0
O33 O 0.79602 0.25626 0.24195 0.0
C34 C 0.87131 0.2315 0.31142 0.0
Zn35 Zn 0.80527 0.23839 0.37912 0.0
C36 C 0.81272 0.29238 0.2686 0.0
O37 O 0.8213 0.2966 0.33257 0.0
C38 C 0.77217 0.14419 0.39445 0.0
O39 O 0.74454 0.22703 0.39366 0.0
O40 O 0.71817 0.18674 0.30325 0.0
N41 N 0.822 0.26324 0.47638 0.0
C42 C 0.80048 0.24776 0.53557 0.0
C43 C 0.86351 0.29069 0.56296 0.0
N44 N 0.86113 0.29019 0.49357 0.0
N45 N 0.82588 0.26404 0.59044 0.0
C46 C 0.78494 0.18554 0.12966 0.0
C47 C 0.7235 0.13659 0.10575 0.0
N48 N 0.76365 0.1724 0.18962 0.0
N49 N 0.72556 0.14181 0.17464 0.0
N50 N 0.76047 0.16345 0.07639 0.0
H51 H 0.83121 0.2406 0.07569 0.0
H52 H 0.85056 0.20977 0.11576 0.0
H53 H 0.839 0.24282 0.16688 0.0
C54 C 0.82868 0.22188 0.12206 0.0
C55 C 0.75413 0.2181 0.54004 0.0
H56 H 0.7376 0.23365 0.51863 0.0
H57 H 0.74311 0.20939 0.59377 0.0
H58 H 0.74509 0.18941 0.51003 0.0
O59 O 0.78949 0.17976 0.42327 0.0
O60 O 0.7629 0.14108 0.33105 0.0
C61 C 0.71333 0.20409 0.35607 0.0
O62 O 0.8408 0.20837 0.27254 0.0
O63 O 0.86577 0.24978 0.36206 0.0
Zn64 Zn 0.56532 0.81998 0.74734 0.0
O65 O 0.51722 0.75907 0.76919 0.0
C66 C 0.62571 0.78692 0.75039 0.0
Zn67 Zn 0.57233 0.79286 0.64959 0.0
C68 C 0.50589 0.72747 0.73087 0.0
O69 O 0.52338 0.73173 0.67271 0.0
C70 C 0.63238 0.88489 0.66775 0.0
O71 O 0.53043 0.81035 0.61019 0.0
O72 O 0.52031 0.8343 0.70722 0.0
N73 N 0.58066 0.77627 0.55343 0.0
C74 C 0.55548 0.76494 0.49803 0.0
C75 C 0.61673 0.78355 0.46193 0.0
N76 N 0.61864 0.78724 0.53098 0.0
N77 N 0.57744 0.76983 0.43987 0.0
C78 C 0.5517 0.81816 0.90433 0.0
C79 C 0.56421 0.8799 0.92597 0.0
N80 N 0.55964 0.83863 0.8437 0.0
N81 N 0.56728 0.87696 0.85721 0.0
N82 N 0.55394 0.84321 0.95633 0.0
H83 H 0.55937 0.76598 0.87279 0.0
H84 H 0.51035 0.75224 0.913 0.0
H85 H 0.55681 0.77141 0.96407 0.0
C86 C 0.54448 0.77464 0.9138 0.0
C87 C 0.50909 0.74736 0.50063 0.0
H88 H 0.49643 0.73431 0.55219 0.0
H89 H 0.4937 0.72259 0.46116 0.0
H90 H 0.5014 0.77197 0.48864 0.0
O91 O 0.62202 0.85356 0.62912 0.0
O92 O 0.6127 0.88052 0.7235 0.0
C93 C 0.51293 0.82703 0.6433 0.0
O94 O 0.61144 0.80606 0.78545 0.0
O95 O 0.6138 0.77658 0.68886 0.0
Zn96 Zn 0.78846 0.57605 0.92671 0.0
O97 O 0.72993 0.53307 0.88554 0.0
C98 C 0.75601 0.6352 0.95147 0.0
Zn99 Zn 0.75024 0.56329 0.02185 0.0
C100 C 0.6943 0.51519 0.9144 0.0
O101 O 0.69144 0.52182 0.97789 0.0
C102 C 0.84444 0.62363 0.03237 0.0
O103 O 0.76012 0.51325 0.03713 0.0
O104 O 0.8007 0.52649 0.94699 0.0
N105 N 0.72619 0.55638 0.11926 0.0
C106 C 0.74151 0.55007 0.17826 0.0
C107 C 0.69972 0.57162 0.20594 0.0
N108 N 0.69994 0.56944 0.13659 0.0
N109 N 0.72582 0.5599 0.23314 0.0
C110 C 0.80116 0.59235 0.7701 0.0
C111 C 0.85129 0.58129 0.74774 0.0
N112 N 0.81387 0.58432 0.83043 0.0
N113 N 0.84517 0.57767 0.81647 0.0
N114 N 0.82431 0.59089 0.71762 0.0
H115 H 0.7464 0.58259 0.7145 0.0
H116 H 0.77573 0.63264 0.75536 0.0
H117 H 0.7428 0.58737 0.8057 0.0
C118 C 0.76428 0.59874 0.76139 0.0
C119 C 0.77049 0.53257 0.18259 0.0
H120 H 0.75426 0.50028 0.16217 0.0
H121 H 0.77947 0.53056 0.23622 0.0
H122 H 0.79908 0.55155 0.15168 0.0
O123 O 0.80964 0.60553 0.0639 0.0
O124 O 0.84591 0.61733 0.96858 0.0
C125 C 0.7831 0.50467 0.00024 0.0
O126 O 0.77742 0.62665 0.91031 0.0
O127 O 0.74006 0.61286 0.00464 0.0
Zn128 Zn 0.17228 0.75397 0.38988 0.0
O129 O 0.23332 0.7737 0.42188 0.0
C130 C 0.19587 0.84625 0.38503 0.0
Zn131 Zn 0.20272 0.79059 0.29459 0.0
C132 C 0.26649 0.79675 0.38833 0.0
O133 O 0.26432 0.80988 0.32888 0.0
C134 C 0.10868 0.74881 0.29821 0.0
O135 O 0.19537 0.73333 0.26479 0.0
O136 O 0.16534 0.69602 0.35722 0.0
N137 N 0.22424 0.81247 0.19732 0.0
C138 C 0.2073 0.79513 0.13605 0.0
C139 C 0.26705 0.84825 0.11549 0.0
N140 N 0.26137 0.8455 0.18444 0.0
N141 N 0.23347 0.81697 0.0844 0.0
C142 C 0.16892 0.72718 0.54252 0.0
C143 C 0.1173 0.73202 0.57955 0.0
N144 N 0.15011 0.73269 0.48724 0.0
N145 N 0.11771 0.73514 0.51044 0.0
N146 N 0.14942 0.72745 0.60123 0.0
H147 H 0.20378 0.70321 0.48979 0.0
H148 H 0.20311 0.6988 0.58283 0.0
H149 H 0.2347 0.7486 0.54228 0.0
C150 C 0.20462 0.71882 0.53898 0.0
C151 C 0.16436 0.75804 0.12574 0.0
H152 H 0.15543 0.73495 0.16769 0.0
H153 H 0.16199 0.74222 0.07616 0.0
H154 H 0.14139 0.76905 0.12462 0.0
O155 O 0.1413 0.77254 0.26367 0.0
O156 O 0.11186 0.73466 0.35598 0.0
C157 C 0.17905 0.69859 0.29621 0.0
O158 O 0.17935 0.81259 0.42007 0.0
O159 O 0.21006 0.84694 0.32529 0.0
Zn160 Zn 0.39681 0.20417 0.59904 0.0
O161 O 0.43871 0.18725 0.55711 0.0
C162 C 0.33695 0.11209 0.62152 0.0
Zn163 Zn 0.40799 0.17606 0.69246 0.0
C164 C 0.45747 0.17038 0.58572 0.0
O165 O 0.45127 0.16106 0.64932 0.0
C166 C 0.3468 0.20918 0.70315 0.0
O167 O 0.45715 0.23647 0.71097 0.0
O168 O 0.44727 0.26516 0.61927 0.0
N169 N 0.41542 0.15865 0.78913 0.0
C170 C 0.42269 0.17945 0.84921 0.0
C171 C 0.4116 0.11837 0.87281 0.0
N172 N 0.4087 0.12076 0.80388 0.0
N173 N 0.42079 0.15498 0.90223 0.0
C174 C 0.38356 0.20005 0.44248 0.0
C175 C 0.40629 0.26356 0.41433 0.0
N176 N 0.39072 0.22189 0.50138 0.0
N177 N 0.40455 0.26134 0.48376 0.0
N178 N 0.39354 0.22552 0.38733 0.0
H179 H 0.38365 0.14334 0.46949 0.0
H180 H 0.36257 0.14213 0.3852 0.0
H181 H 0.33281 0.13807 0.45949 0.0
C182 C 0.36506 0.15343 0.43866 0.0
C183 C 0.42876 0.22265 0.85725 0.0
H184 H 0.41653 0.23216 0.81341 0.0
H185 H 0.46269 0.24538 0.86166 0.0
H186 H 0.41318 0.22469 0.90473 0.0
O187 O 0.36341 0.19038 0.73271 0.0
O188 O 0.35603 0.22118 0.64112 0.0
C189 C 0.46744 0.26849 0.67406 0.0
O190 O 0.34571 0.14356 0.58389 0.0
O191 O 0.35971 0.11599 0.67291 0.0
C192 C 0.31742 0.25523 0.72702 0.0
C193 C 0.3197 0.21957 0.74333 0.0
C194 C 0.29733 0.26935 0.77137 0.0
C195 C 0.27835 0.2465 0.83229 0.0
C196 C 0.27798 0.20881 0.8464 0.0
C197 C 0.29928 0.19606 0.80206 0.0
C198 C 0.29858 0.30998 0.75508 0.0
C199 C 0.25677 0.183 0.90965 0.0
C200 C 0.27694 0.31559 0.97285 0.0
C201 C 0.23847 0.31302 0.9602 0.0
C202 C 0.28938 0.29177 0.93427 0.0
C203 C 0.26211 0.26427 0.88341 0.0
C204 C 0.22154 0.25846 0.87562 0.0
C205 C 0.21035 0.28343 0.91366 0.0
C206 C 0.33309 0.29894 0.94353 0.0
C207 C 0.19116 0.2283 0.82359 0.0
H208 H 0.33338 0.27342 0.68168 0.0
H209 H 0.30074 0.16815 0.81417 0.0
H210 H 0.26649 0.30524 0.75425 0.0
H211 H 0.31615 0.33324 0.79582 0.0
H212 H 0.31368 0.32326 0.70467 0.0
H213 H 0.25309 0.15131 0.9067 0.0
H214 H 0.27563 0.19884 0.95588 0.0
H215 H 0.2255 0.17981 0.91687 0.0
H216 H 0.29862 0.33855 0.00891 0.0
H217 H 0.1803 0.28114 0.90469 0.0
H218 H 0.35209 0.31497 0.89727 0.0
H219 H 0.33249 0.26878 0.94885 0.0
H220 H 0.34884 0.31843 0.98937 0.0
H221 H 0.20015 0.24216 0.77133 0.0
H222 H 0.15867 0.2212 0.83393 0.0
H223 H 0.19185 0.19863 0.82348 0.0
C224 C 0.10227 0.30486 0.17217 0.0
C225 C 0.10178 0.32435 0.11043 0.0
C226 C 0.06594 0.28312 0.212 0.0
C227 C 0.02887 0.28182 0.18992 0.0
C228 C 0.02794 0.30023 0.12642 0.0
C229 C 0.06437 0.32083 0.08699 0.0
C230 C 0.06736 0.26226 0.27804 0.0
C231 C 0.98911 0.30023 0.10184 0.0
C232 C 0.91878 0.21245 0.25132 0.0
C233 C 0.91346 0.2403 0.29311 0.0
C234 C 0.95788 0.22392 0.22289 0.0
C235 C -0.00829 0.26456 0.23498 0.0
C236 C 0.98724 0.29148 0.28159 0.0
C237 C 0.94808 0.27871 0.31091 0.0
C238 C 0.96203 0.19384 0.1756 0.0
C239 C 0.02259 0.33528 0.2952 0.0
H240 H 0.1312 0.30725 0.18991 0.0
H241 H 0.06402 0.33605 0.03942 0.0
H242 H 0.04567 0.22808 0.27428 0.0
H243 H 0.09922 0.26786 0.28944 0.0
H244 H 0.05667 0.27364 0.322 0.0
H245 H -0.00632 0.31569 0.05093 0.0
H246 H 0.96266 0.26775 0.09777 0.0
H247 H 0.98003 0.31676 0.13967 0.0
H248 H 0.89203 0.18238 0.23857 0.0
H249 H 0.94395 0.30017 0.34351 0.0
H250 H -0.00753 0.19527 0.18326 0.0
H251 H 0.96072 0.20248 0.12132 0.0
H252 H 0.93644 0.16117 0.18388 0.0
H253 H 0.05176 0.33508 0.30774 0.0
H254 H 0.01532 0.35048 0.33809 0.0
H255 H 0.0287 0.35458 0.24811 0.0
C256 C 0.72573 0.0686 0.41729 0.0
C257 C 0.76013 0.1068 0.4364 0.0
C258 C 0.71043 0.03395 0.46109 0.0
C259 C 0.73084 0.03751 0.52451 0.0
C260 C 0.76683 0.0755 0.5426 0.0
C261 C 0.78084 0.10996 0.49846 0.0
C262 C 0.67131 -0.00588 0.44085 0.0
C263 C 0.79034 0.07981 0.60845 0.0
C264 C 0.65845 0.96075 0.65677 0.0
C265 C 0.66372 0.9265 0.64335 0.0
C266 C 0.68223 -0.00155 0.62133 0.0
C267 C 0.71255 0.00192 0.57307 0.0
C268 C 0.72084 0.96875 0.56474 0.0
C269 C 0.6957 0.93099 0.59923 0.0
C270 C 0.67228 0.0331 0.63102 0.0
C271 C 0.75414 0.97209 0.51585 0.0
H272 H 0.70954 0.06632 0.36955 0.0
H273 H 0.80776 0.13953 0.51283 0.0
H274 H 0.67755 0.96774 0.43945 0.0
H275 H 0.64644 0.98633 0.47977 0.0
H276 H 0.65932 -0.00337 0.38968 0.0
H277 H 0.8142 0.11281 0.61925 0.0
H278 H 0.76863 0.06726 0.65293 0.0
H279 H 0.8063 0.06123 0.60431 0.0
H280 H 0.63358 0.95711 0.69086 0.0
H281 H 0.70001 0.90448 0.5897 0.0
H282 H 0.65653 0.0357 0.58419 0.0
H283 H 0.70132 0.06353 0.63807 0.0
H284 H 0.65146 0.02739 0.67596 0.0
H285 H 0.74318 0.96985 0.46205 0.0
H286 H 0.76164 0.94683 0.52453 0.0
H287 H 0.78316 0.00276 0.52144 0.0
C288 C 0.67833 0.79466 0.8385 0.0
C289 C 0.65297 0.77335 0.78219 0.0
C290 C 0.70242 0.7799 0.87084 0.0
C291 C 0.69954 0.74228 0.84763 0.0
C292 C 0.67444 0.72113 0.79004 0.0
C293 C 0.65196 0.73733 0.75742 0.0
C294 C 0.72999 0.80389 0.93066 0.0
C295 C 0.66974 0.68033 0.76466 0.0
C296 C 0.77043 0.69904 0.88562 0.0
C297 C 0.74648 0.6683 0.93445 0.0
C298 C 0.75777 0.72678 0.86179 0.0
C299 C 0.7197 0.72254 0.88594 0.0
C300 C 0.69702 0.69349 0.93876 0.0
C301 C 0.71104 0.66702 0.96304 0.0
C302 C 0.78348 0.75847 0.80725 0.0
C303 C 0.65582 0.68745 0.96489 0.0
H304 H 0.67927 0.82274 0.85723 0.0
H305 H 0.63209 0.72067 0.71415 0.0
H306 H 0.71571 0.78705 0.97937 0.0
H307 H 0.7611 0.80639 0.92583 0.0
H308 H 0.73435 0.83583 0.93442 0.0
H309 H 0.64894 0.66801 0.7191 0.0
H310 H 0.70069 0.6845 0.75063 0.0
H311 H 0.6566 0.65652 0.80625 0.0
H312 H 0.79828 0.70052 0.86433 0.0
H313 H 0.69256 0.64339 0.00109 0.0
H314 H 0.78489 0.78873 0.81706 0.0
H315 H 0.7687 0.74712 0.75622 0.0
H316 H 0.81583 0.7638 0.80482 0.0
H317 H 0.6585 0.71788 0.97786 0.0
H318 H 0.64454 0.66696 0.01112 0.0
H319 H 0.6319 0.67298 0.92387 0.0
C320 C 0.03393 0.6959 0.28291 0.0
C321 C 0.06751 0.73579 0.26873 0.0
C322 C -0.00383 0.68073 0.24743 0.0
C323 C -0.00813 0.7067 0.19834 0.0
C324 C 0.02472 0.7481 0.1876 0.0
C325 C 0.06257 0.76196 0.22219 0.0
C326 C 0.96193 0.63612 0.25931 0.0
C327 C 0.02059 0.77702 0.13731 0.0
C328 C 0.9203 0.65157 0.04888 0.0
C329 C 0.88301 0.64878 0.07135 0.0
C330 C 0.95622 0.67095 0.08957 0.0
C331 C 0.95487 0.68891 0.15315 0.0
C332 C 0.91777 0.6878 0.17468 0.0
C333 C 0.88196 0.66719 0.13373 0.0
C334 C -0.005 0.67054 0.06596 0.0
C335 C 0.91585 0.70808 0.24094 0.0
H336 H 0.03796 0.67569 0.31881 0.0
H337 H 0.08857 0.79304 0.21196 0.0
H338 H 0.932 0.63491 0.27134 0.0
H339 H 0.95705 0.61772 0.21165 0.0
H340 H 0.96941 0.62089 0.30197 0.0
H341 H 0.04639 0.80983 0.14267 0.0
H342 H 0.02102 0.76665 0.08393 0.0
H343 H 0.99035 0.77607 0.14485 0.0
H344 H 0.92089 0.63689 0.00095 0.0
H345 H 0.85305 0.66519 0.15073 0.0
H346 H 0.00335 0.65353 0.10411 0.0
H347 H 0.02179 0.70289 0.06253 0.0
H348 H 0.99079 0.65537 0.01499 0.0
H349 H 0.92684 0.69683 0.28476 0.0
H350 H 0.88378 0.70185 0.25255 0.0
H351 H 0.93705 0.74236 0.2372 0.0
C352 C 0.27028 0.06715 0.56017 0.0
C353 C 0.30307 0.07078 0.60125 0.0
C354 C 0.2421 0.02891 0.53001 0.0
C355 C 0.24807 -0.00566 0.53961 0.0
C356 C 0.279 -0.00293 0.58573 0.0
C357 C 0.30589 0.03533 0.61683 0.0
C358 C 0.20816 0.02647 0.48376 0.0
C359 C 0.28651 0.96086 0.59691 0.0
C360 C 0.18085 0.88414 0.47637 0.0
C361 C 0.20291 0.88519 0.41694 0.0
C362 C 0.19268 0.92062 0.51408 0.0
C363 C 0.22803 0.95831 0.49262 0.0
C364 C 0.24838 0.96004 0.42988 0.0
C365 C 0.23513 0.92341 0.39225 0.0
C366 C 0.16914 0.9181 0.57909 0.0
C367 C 0.28651 -0.00031 0.40552 0.0
H368 H 0.26764 0.09455 0.5494 0.0
H369 H 0.33115 0.03819 0.64903 0.0
H370 H 0.21845 0.02979 0.42933 0.0
H371 H 0.17906 -0.00418 0.48923 0.0
H372 H 0.20112 0.05176 0.4952 0.0
H373 H 0.30944 0.9671 0.63862 0.0
H374 H 0.25688 0.93209 0.61003 0.0
H375 H 0.29861 0.95468 0.54866 0.0
H376 H 0.15539 0.8546 0.49484 0.0
H377 H 0.25207 0.92429 0.34609 0.0
H378 H 0.16731 0.94691 0.58653 0.0
H379 H 0.1857 0.91471 0.62405 0.0
H380 H 0.13695 0.89074 0.5784 0.0
H381 H 0.27993 0.02583 0.40358 0.0
H382 H 0.29712 -0.00381 0.3537 0.0
H383 H 0.31255 0.00853 0.44236 0.0
C384 C 0.17703 0.35686 0.66756 0.0
C385 C 0.17053 0.38895 0.69126 0.0
C386 C 0.19003 0.35685 0.59976 0.0
C387 C 0.19542 0.3891 0.55419 0.0
C388 C 0.18616 0.42004 0.57669 0.0
C389 C 0.17389 0.41963 0.64522 0.0
C390 C 0.19965 0.32337 0.57786 0.0
C391 C 0.19066 0.45442 0.52911 0.0
C392 C 0.27042 0.41988 0.40287 0.0
C393 C 0.24272 0.4008 0.34833 0.0
C394 C 0.25551 0.41536 0.47071 0.0
C395 C 0.21193 0.39132 0.48362 0.0
C396 C 0.18409 0.37057 0.4287 0.0
C397 C 0.19997 0.37502 0.36183 0.0
C398 C 0.2862 0.43726 0.52826 0.0
C399 C 0.13746 0.34484 0.44012 0.0
H400 H 0.17318 0.33248 0.7029 0.0
H401 H 0.16865 0.44428 0.66374 0.0
H402 H 0.18162 0.3073 0.5311 0.0
H403 H 0.23329 0.33787 0.56452 0.0
H404 H 0.19236 0.29968 0.61887 0.0
H405 H 0.17954 0.47435 0.55318 0.0
H406 H 0.22397 0.4745 0.51448 0.0
H407 H 0.17281 0.44089 0.48101 0.0
H408 H 0.30349 0.4393 0.39199 0.0
H409 H 0.17886 0.35945 0.31932 0.0
H410 H 0.28176 0.41464 0.56963 0.0
H411 H 0.28048 0.4614 0.55129 0.0
H412 H 0.31915 0.45256 0.51024 0.0
H413 H 0.13021 0.31911 0.47692 0.0
H414 H 0.12015 0.33119 0.39156 0.0
H415 H 0.12581 0.36456 0.46316 0.0
C416 C 0.80616 0.17951 0.97488 0.0
C417 C 0.76851 0.17247 0.00411 0.0
C418 C 0.81684 0.19403 0.90696 0.0
C419 C 0.78868 0.20072 0.86701 0.0
C420 C 0.74963 0.19156 0.89525 0.0
C421 C 0.74006 0.17759 0.9636 0.0
C422 C 0.85869 0.20331 0.87865 0.0
C423 C 0.71838 0.19739 0.85374 0.0
C424 C 0.82894 0.27625 0.71547 0.0
C425 C 0.81814 0.24869 0.66004 0.0
C426 C 0.82009 0.26111 0.78345 0.0
C427 C 0.8 0.21743 0.79573 0.0
C428 C 0.79005 0.18964 0.73973 0.0
C429 C 0.79998 0.20572 0.67271 0.0
C430 C 0.83164 0.29171 0.84203 0.0
C431 C 0.76858 0.14292 0.75033 0.0
H432 H 0.82763 0.1745 0.00583 0.0
H433 H 0.71094 0.17209 0.98635 0.0
H434 H 0.85428 0.18474 0.83144 0.0
H435 H 0.87728 0.23678 0.86396 0.0
H436 H 0.87693 0.19627 0.91638 0.0
H437 H 0.68877 0.18722 0.88234 0.0
H438 H 0.73194 0.2308 0.83956 0.0
H439 H 0.71112 0.17937 0.80513 0.0
H440 H 0.8436 0.30949 0.70532 0.0
H441 H 0.79302 0.18462 0.62968 0.0
H442 H 0.85161 0.2871 0.87957 0.0
H443 H 0.80301 0.28602 0.86981 0.0
H444 H 0.84855 0.32468 0.82403 0.0
H445 H 0.79017 0.13469 0.77648 0.0
H446 H 0.75858 0.12566 0.70093 0.0
H447 H 0.74068 0.13214 0.78379 0.0
C448 C 0.57776 0.75959 0.31513 0.0
C449 C 0.56717 0.77603 0.3713 0.0
C450 C 0.57288 0.76994 0.24751 0.0
C451 C 0.55765 0.79787 0.23634 0.0
C452 C 0.54673 0.81439 0.2931 0.0
C453 C 0.5516 0.8032 0.3599 0.0
C454 C 0.58538 0.75217 0.18816 0.0
C455 C 0.53063 0.84445 0.28362 0.0
C456 C 0.58823 0.85884 0.06875 0.0
C457 C 0.55278 0.83495 0.02858 0.0
C458 C 0.59005 0.84737 0.13692 0.0
C459 C 0.55525 0.81149 0.16542 0.0
C460 C 0.5186 0.78842 0.1258 0.0
C461 C 0.51793 0.80034 0.05746 0.0
C462 C 0.62953 0.87296 0.17786 0.0
C463 C 0.48061 0.75064 0.15503 0.0
H464 H 0.59061 0.73932 0.32443 0.0
H465 H 0.54517 0.81737 0.40342 0.0
H466 H 0.55902 0.73624 0.15153 0.0
H467 H 0.61178 0.77788 0.15963 0.0
H468 H 0.59499 0.72955 0.20548 0.0
H469 H 0.53196 0.8609 0.33215 0.0
H470 H 0.54878 0.86829 0.24379 0.0
H471 H 0.49765 0.82688 0.26618 0.0
H472 H 0.61515 0.88538 0.04561 0.0
H473 H 0.49059 0.78215 0.02577 0.0
H474 H 0.64298 0.85318 0.19306 0.0
H475 H 0.62231 0.88432 0.22589 0.0
H476 H 0.65349 0.90031 0.14843 0.0
H477 H 0.48859 0.72634 0.16898 0.0
H478 H 0.45413 0.73699 0.11815 0.0
H479 H 0.47032 0.75928 0.20284 0.0
C480 C 0.81233 0.5583 0.60372 0.0
C481 C 0.81681 0.59121 0.64516 0.0
C482 C 0.79923 0.55492 0.53513 0.0
C483 C 0.79042 0.58522 0.50772 0.0
C484 C 0.79685 0.61962 0.5485 0.0
C485 C 0.81038 0.62239 0.61669 0.0
C486 C 0.79355 0.51825 0.4927 0.0
C487 C 0.788 0.65265 0.52098 0.0
C488 C 0.78459 0.59223 0.31388 0.0
C489 C 0.74152 0.56759 0.30227 0.0
C490 C 0.80103 0.59821 0.38045 0.0
C491 C 0.77348 0.58026 0.43694 0.0
C492 C 0.72972 0.55688 0.42571 0.0
C493 C 0.71422 0.55083 0.35818 0.0
C494 C 0.84782 0.62328 0.39006 0.0
C495 C 0.6994 0.53771 0.4849 0.0
H496 H 0.81741 0.5343 0.62599 0.0
H497 H 0.81492 0.64834 0.64852 0.0
H498 H 0.7601 0.49831 0.47905 0.0
H499 H 0.81138 0.52941 0.44382 0.0
H500 H 0.80397 0.49876 0.52044 0.0
H501 H 0.79587 0.67807 0.55871 0.0
H502 H 0.80609 0.66653 0.47309 0.0
H503 H 0.7544 0.6382 0.50769 0.0
H504 H 0.80545 0.60627 0.27035 0.0
H505 H 0.68092 0.53235 0.34873 0.0
H506 H 0.8587 0.60545 0.42146 0.0
H507 H 0.85623 0.65252 0.41819 0.0
H508 H 0.86488 0.63158 0.34022 0.0
H509 H 0.70513 0.51461 0.51204 0.0
H510 H 0.66633 0.52179 0.46764 0.0
H511 H 0.70428 0.56219 0.52274 0.0
C512 C 0.13755 0.71842 0.72619 0.0
C513 C 0.16523 0.73526 0.67056 0.0
C514 C 0.15122 0.7309 0.79398 0.0
C515 C 0.19362 0.76107 0.80623 0.0
C516 C 0.22202 0.77712 0.75045 0.0
C517 C 0.20736 0.76444 0.68329 0.0
C518 C 0.11994 0.71316 0.85215 0.0
C519 C 0.26749 0.8092 0.76128 0.0
C520 C 0.21565 0.82693 0.96725 0.0
C521 C 0.22861 0.80647 0.01288 0.0
C522 C 0.20499 0.81298 0.89917 0.0
C523 C 0.20756 0.77782 0.87676 0.0
C524 C 0.22214 0.75803 0.92245 0.0
C525 C 0.23233 0.77256 0.99027 0.0
C526 C 0.18958 0.83491 0.85203 0.0
C527 C 0.22561 0.72072 0.90051 0.0
H528 H 0.1049 0.69642 0.71619 0.0
H529 H 0.22852 0.77926 0.6406 0.0
H530 H 0.13129 0.70016 0.89279 0.0
H531 H 0.11633 0.73844 0.87599 0.0
H532 H 0.08877 0.68819 0.83451 0.0
H533 H 0.28633 0.81511 0.71363 0.0
H534 H 0.2702 0.83911 0.7782 0.0
H535 H 0.28108 0.79882 0.80244 0.0
H536 H 0.21244 0.85282 0.98581 0.0
H537 H 0.242 0.75674 0.02659 0.0
H538 H 0.1568 0.81295 0.8368 0.0
H539 H 0.20858 0.84513 0.80423 0.0
H540 H 0.19087 0.86264 0.87666 0.0
H541 H 0.19392 0.69368 0.89158 0.0
H542 H 0.24148 0.71171 0.93986 0.0
H543 H 0.24312 0.72738 0.85132 0.0
C544 C 0.42306 0.19698 0.30482 0.0
C545 C 0.40003 0.21699 0.31771 0.0
C546 C 0.42787 0.18605 0.23792 0.0
C547 C 0.41058 0.19695 0.18218 0.0
C548 C 0.38884 0.2189 0.19459 0.0
C549 C 0.38381 0.22869 0.26253 0.0
C550 C 0.45133 0.16276 0.22723 0.0
C551 C 0.37042 0.23145 0.13622 0.0
C552 C 0.4525 0.20057 0.00245 0.0
C553 C 0.42079 0.16323 0.9744 0.0
C554 C 0.44977 0.2119 0.07026 0.0
C555 C 0.41474 0.18485 0.11104 0.0
C556 C 0.38362 0.14612 0.08388 0.0
C557 C 0.38707 0.13576 0.0157 0.0
C558 C 0.48376 0.25323 0.09763 0.0
C559 C 0.34631 0.11607 0.1264 0.0
H560 H 0.43674 0.18926 0.34763 0.0
H561 H 0.36661 0.24475 0.27285 0.0
H562 H 0.456 0.15014 0.27627 0.0
H563 H 0.43447 0.13642 0.19091 0.0
H564 H 0.48245 0.18423 0.20458 0.0
H565 H 0.35566 0.24955 0.15432 0.0
H566 H 0.39509 0.25061 0.09812 0.0
H567 H 0.3465 0.20315 0.10907 0.0
H568 H 0.4789 0.22132 0.97052 0.0
H569 H 0.36263 0.10693 0.99364 0.0
H570 H 0.49776 0.24812 0.14449 0.0
H571 H 0.47027 0.27298 0.11264 0.0
H572 H 0.50897 0.27059 0.05924 0.0
H573 H 0.3569 0.10809 0.1746 0.0
H574 H 0.32555 0.08671 0.09829 0.0
H575 H 0.32787 0.13102 0.14132 0.0
C576 C 0.15816 0.50523 0.07341 0.0
C577 C 0.19574 0.50536 0.08344 0.0
C578 C 0.15045 0.53407 0.10799 0.0
C579 C 0.1814 0.56381 0.15237 0.0
C580 C 0.21973 0.56453 0.16118 0.0
C581 C 0.22631 0.53516 0.12684 0.0
C582 C 0.10916 0.53243 0.09789 0.0
C583 C 0.2539 0.59637 0.20684 0.0
C584 C 0.18928 0.66732 0.19034 0.0
C585 C 0.17609 0.66231 0.25933 0.0
C586 C 0.18903 0.63473 0.15386 0.0
C587 C 0.17522 0.59596 0.18703 0.0
C588 C 0.16015 0.58991 0.25565 0.0
C589 C 0.16082 0.62332 0.29125 0.0
C590 C 0.20566 0.64261 0.08094 0.0
C591 C 0.14487 0.54869 0.29219 0.0
H592 H 0.13433 0.48177 0.0405 0.0
H593 H 0.25549 0.53534 0.13432 0.0
H594 H 0.09312 0.52758 0.14822 0.0
H595 H 0.11442 0.56261 0.07687 0.0
H596 H 0.08819 0.50699 0.06242 0.0
H597 H 0.28174 0.59235 0.20842 0.0
H598 H 0.26384 0.62839 0.1881 0.0
H599 H 0.24201 0.59387 0.2601 0.0
H600 H 0.20076 0.69719 0.16473 0.0
H601 H 0.15023 0.61917 0.34423 0.0
H602 H 0.18358 0.61744 0.04624 0.0
H603 H 0.23565 0.64255 0.0794 0.0
H604 H 0.21116 0.67306 0.06047 0.0
H605 H 0.12211 0.52259 0.25958 0.0
H606 H 0.1299 0.54754 0.34238 0.0
H607 H 0.17157 0.54353 0.3016 0.0
C608 C 0.66887 0.22499 0.42031 0.0
C609 C 0.67177 0.19592 0.37796 0.0
C610 C 0.63083 0.21607 0.44996 0.0
C611 C 0.59477 0.17693 0.4373 0.0
C612 C 0.59713 0.14783 0.39289 0.0
C613 C 0.63575 0.15781 0.36327 0.0
C614 C 0.62943 0.24836 0.49579 0.0
C615 C 0.55928 0.10575 0.3787 0.0
C616 C 0.51295 0.15044 0.57545 0.0
C617 C 0.48837 0.16514 0.54508 0.0
C618 C 0.54607 0.1511 0.53884 0.0
C619 C 0.55487 0.16725 0.47085 0.0
C620 C 0.52861 0.17978 0.43869 0.0
C621 C 0.49544 0.17816 0.47596 0.0
C622 C 0.57328 0.13707 0.57443 0.0
C623 C 0.53714 0.19744 0.36645 0.0
H624 H 0.69668 0.25462 0.43125 0.0
H625 H 0.63811 0.13515 0.33107 0.0
H626 H 0.60588 0.2561 0.4763 0.0
H627 H 0.61981 0.2356 0.54859 0.0
H628 H 0.66012 0.27766 0.49882 0.0
H629 H 0.5659 0.08747 0.34051 0.0
H630 H 0.54846 0.0875 0.42724 0.0
H631 H 0.53321 0.10966 0.35931 0.0
H632 H 0.5074 0.13996 0.62855 0.0
H633 H 0.47624 0.18907 0.45169 0.0
H634 H 0.60403 0.16474 0.58657 0.0
H635 H 0.57913 0.11655 0.54018 0.0
H636 H 0.55902 0.12003 0.62314 0.0
H637 H 0.51436 0.20694 0.34969 0.0
H638 H 0.53597 0.17393 0.32979 0.0
H639 H 0.56896 0.22518 0.36328 0.0
C640 C 0.32245 0.50777 0.85781 0.0
C641 C 0.32817 0.49964 0.92645 0.0
C642 C 0.35356 0.54218 0.82216 0.0
C643 C 0.39177 0.56885 0.8554 0.0
C644 C 0.3991 0.55914 0.92278 0.0
C645 C 0.36699 0.52467 0.95788 0.0
C646 C 0.3442 0.55161 0.75074 0.0
C647 C 0.43998 0.58643 0.95908 0.0
C648 C 0.47825 0.65077 0.74274 0.0
C649 C 0.47496 0.68609 0.75764 0.0
C650 C 0.4521 0.61242 0.77557 0.0
C651 C 0.42147 0.6094 0.82279 0.0
C652 C 0.41753 0.64487 0.83662 0.0
C653 C 0.44468 0.68289 0.80448 0.0
C654 C 0.45771 0.57543 0.76084 0.0
C655 C 0.38455 0.6427 0.88526 0.0
H656 H 0.29278 0.48825 0.8325 0.0
H657 H 0.37176 0.51833 0.01058 0.0
H658 H 0.34147 0.58017 0.75233 0.0
H659 H 0.37001 0.55786 0.71477 0.0
H660 H 0.31465 0.52562 0.72973 0.0
H661 H 0.44319 0.5713 0.00633 0.0
H662 H 0.46671 0.59404 0.92429 0.0
H663 H 0.44196 0.61635 0.97389 0.0
H664 H 0.50228 0.65354 0.70751 0.0
H665 H 0.4423 0.71032 0.81614 0.0
H666 H 0.42842 0.54929 0.73969 0.0
H667 H 0.4645 0.56412 0.80941 0.0
H668 H 0.48348 0.58317 0.72373 0.0
H669 H 0.35305 0.61875 0.86728 0.0
H670 H 0.38537 0.67307 0.88957 0.0
H671 H 0.389 0.63316 0.93729 0.0
C672 C 0.81436 0.32176 0.15269 0.0
C673 C 0.81963 0.32783 0.22418 0.0
C674 C 0.81432 0.35206 0.10953 0.0
C675 C 0.81979 0.38948 0.13848 0.0
C676 C 0.8283 0.39724 0.20979 0.0
C677 C 0.82808 0.36619 0.25201 0.0
C678 C 0.80517 0.34248 0.03385 0.0
C679 C 0.83486 0.43717 0.24218 0.0
C680 C 0.832 0.47781 0.02197 0.0
C681 C 0.79154 0.47196 0.02457 0.0
C682 C 0.84185 0.45087 0.05812 0.0
C683 C 0.81025 0.41725 0.09653 0.0
C684 C 0.76886 0.41009 0.09598 0.0
C685 C 0.76014 0.43775 0.06045 0.0
C686 C 0.88633 0.45955 0.05801 0.0
C687 C 0.73401 0.37403 0.13493 0.0
H688 H 0.8084 0.29243 0.1304 0.0
H689 H 0.83253 0.3712 0.30704 0.0
H690 H 0.77297 0.33588 0.02279 0.0
H691 H 0.82685 0.36968 0.00186 0.0
H692 H 0.80765 0.31494 0.01787 0.0
H693 H 0.84671 0.44092 0.29574 0.0
H694 H 0.85726 0.46462 0.2113 0.0
H695 H 0.80479 0.43709 0.24319 0.0
H696 H 0.85641 0.50475 0.99511 0.0
H697 H 0.72885 0.43337 0.0624 0.0
H698 H 0.88733 0.43077 0.04567 0.0
H699 H 0.89991 0.46968 0.11012 0.0
H700 H 0.90624 0.48435 0.02049 0.0
H701 H 0.73175 0.34415 0.11905 0.0
H702 H 0.70321 0.37175 0.12634 0.0
H703 H 0.7408 0.37781 0.1909 0.0
C704 C 0.33942 0.8486 0.42294 0.0
C705 C 0.30663 0.80721 0.41973 0.0
C706 C 0.37567 0.85884 0.46093 0.0
C707 C 0.37919 0.8267 0.49463 0.0
C708 C 0.34657 0.78469 0.48914 0.0
C709 C 0.31044 0.77559 0.45258 0.0
C710 C 0.40999 0.90385 0.46545 0.0
C711 C 0.35005 0.7492 0.52095 0.0
C712 C 0.48391 0.8371 0.53455 0.0
C713 C 0.48294 0.83552 0.60667 0.0
C714 C 0.45115 0.83603 0.49696 0.0
C715 C 0.41771 0.83595 0.53256 0.0
C716 C 0.4189 0.83917 0.60536 0.0
C717 C 0.45134 0.83835 0.64183 0.0
C718 C 0.45218 0.83323 0.41943 0.0
C719 C 0.38467 0.84105 0.64481 0.0
H720 H 0.33605 0.87301 0.39794 0.0
H721 H 0.28501 0.74354 0.4494 0.0
H722 H 0.41863 0.91276 0.52006 0.0
H723 H 0.43824 0.90783 0.43848 0.0
H724 H 0.40079 0.9255 0.442 0.0
H725 H 0.32234 0.7182 0.50994 0.0
H726 H 0.37833 0.74946 0.50095 0.0
H727 H 0.3535 0.75319 0.57756 0.0
H728 H 0.50957 0.83738 0.50706 0.0
H729 H 0.4509 0.838 0.69762 0.0
H730 H 0.42062 0.81737 0.39599 0.0
H731 H 0.46842 0.81613 0.40359 0.0
H732 H 0.46991 0.86529 0.39777 0.0
H733 H 0.37713 0.86363 0.62027 0.0
H734 H 0.39347 0.85024 0.69932 0.0
H735 H 0.35586 0.80995 0.64405 0.0
C736 C 0.61835 0.46108 0.90425 0.0
C737 C 0.65759 0.48565 0.87357 0.0
C738 C 0.5851 0.42955 0.86663 0.0
C739 C 0.5916 0.42242 0.79722 0.0
C740 C 0.63032 0.44894 0.76489 0.0
C741 C 0.66275 0.48033 0.80335 0.0
C742 C 0.54388 0.40223 0.90236 0.0
C743 C 0.63866 0.44226 0.69117 0.0
C744 C 0.53268 0.30985 0.73976 0.0
C745 C 0.50128 0.30903 0.69837 0.0
C746 C 0.56256 0.34679 0.77113 0.0
C747 C 0.56053 0.38371 0.76189 0.0
C748 C 0.52935 0.38336 0.71904 0.0
C749 C 0.50016 0.3459 0.68708 0.0
C750 C 0.5959 0.34604 0.81515 0.0
C751 C 0.52602 0.42209 0.70891 0.0
H752 H 0.61401 0.46536 0.95819 0.0
H753 H 0.69281 0.49959 0.77876 0.0
H754 H 0.51752 0.39782 0.86926 0.0
H755 H 0.54007 0.37091 0.91206 0.0
H756 H 0.54179 0.41558 0.9524 0.0
H757 H 0.6682 0.46885 0.67103 0.0
H758 H 0.64095 0.41349 0.68799 0.0
H759 H 0.6126 0.43778 0.6573 0.0
H760 H 0.53356 0.28129 0.74834 0.0
H761 H 0.47545 0.34504 0.65582 0.0
H762 H 0.59289 0.35399 0.86909 0.0
H763 H 0.62737 0.36984 0.79656 0.0
H764 H 0.59392 0.31503 0.81487 0.0
H765 H 0.51877 0.43158 0.75886 0.0
H766 H 0.50131 0.41714 0.67134 0.0
H767 H 0.55627 0.44842 0.69077 0.0
loop_
_geom_bond_atom_site_label_1
_geom_bond_atom_site_label_2
_geom_bond_distance
_geom_bond_site_symmetry_2
_ccdc_geom_bond_type
Zn0 O1 2.055 . S
Zn0 O8 2.046 . S
Zn0 N16 2.036 . S
Zn0 O28 2.053 . S
Zn0 O30 2.066 . S
O1 Zn0 2.055 . S
O1 C4 1.259 . S
C2 O30 1.256 . S
C2 O31 1.244 1_554 S
Zn3 O5 2.046 . S
Zn3 O7 2.055 . S
Zn3 N9 2.036 . S
Zn3 O27 2.066 . S
Zn3 O31 2.053 . S
C4 O1 1.259 . S
C4 O5 1.254 1_554 S
O5 Zn3 2.046 . S
O5 C4 1.254 1_556 S
C6 O27 1.256 . S
C6 O28 1.244 1_556 S
O7 Zn3 2.055 . S
O7 C29 1.259 . S
O8 Zn0 2.046 . S
O8 C29 1.254 1_554 S
N9 Zn3 2.036 . S
N9 C10 1.298 . S
N9 N12 1.398 . S
C10 N9 1.298 . S
C10 N13 1.367 . S
C10 C23 1.481 . S
C11 N12 1.299 . S
C11 N13 1.379 . S
N12 N9 1.398 . S
N12 C11 1.299 . S
N13 C10 1.367 . S
N13 C11 1.379 . S
C14 N16 1.298 . S
C14 N18 1.367 . S
C14 C22 1.481 . S
C15 N17 1.299 . S
C15 N18 1.379 . S
N16 Zn0 2.036 . S
N16 C14 1.298 . S
N16 N17 1.398 . S
N17 C15 1.299 . S
N17 N16 1.398 . S
N18 C14 1.367 . S
N18 C15 1.379 . S
H19 C22 0.980 . S
H20 C22 0.981 . S
H21 C22 0.981 . S
C22 C14 1.481 . S
C22 H19 0.980 . S
C22 H20 0.981 . S
C22 H21 0.981 . S
C23 C10 1.481 . S
C23 H24 0.980 . S
C23 H25 0.981 . S
C23 H26 0.981 . S
H24 C23 0.980 . S
H25 C23 0.981 . S
H26 C23 0.981 . S
O27 Zn3 2.066 . S
O27 C6 1.256 . S
O28 Zn0 2.053 . S
O28 C6 1.244 1_554 S
C29 O7 1.259 . S
C29 O8 1.254 1_556 S
O30 Zn0 2.066 . S
O30 C2 1.256 . S
O31 C2 1.244 1_556 S
O31 Zn3 2.053 . S
Zn32 O33 2.055 . S
Zn32 O40 2.046 . S
Zn32 N48 2.036 . S
Zn32 O60 2.053 . S
Zn32 O62 2.066 . S
O33 Zn32 2.055 . S
O33 C36 1.259 . S
C34 O62 1.256 . S
C34 O63 1.244 . S
Zn35 O37 2.046 . S
Zn35 O39 2.055 . S
Zn35 N41 2.036 . S
Zn35 O59 2.066 . S
Zn35 O63 2.053 . S
C36 O33 1.259 . S
C36 O37 1.254 . S
O37 Zn35 2.046 . S
O37 C36 1.254 . S
C38 O59 1.256 . S
C38 O60 1.244 . S
O39 Zn35 2.055 . S
O39 C61 1.259 . S
O40 Zn32 2.046 . S
O40 C61 1.254 . S
N41 Zn35 2.036 . S
N41 C42 1.298 . S
N41 N44 1.398 . S
C42 N41 1.298 . S
C42 N45 1.367 . S
C42 C55 1.481 . S
C43 N44 1.299 . S
C43 N45 1.379 . S
N44 N41 1.398 . S
N44 C43 1.299 . S
N45 C42 1.367 . S
N45 C43 1.379 . S
C46 N48 1.298 . S
C46 N50 1.367 . S
C46 C54 1.481 . S
C47 N49 1.299 . S
C47 N50 1.379 . S
N48 Zn32 2.036 . S
N48 C46 1.298 . S
N48 N49 1.398 . S
N49 C47 1.299 . S
N49 N48 1.398 . S
N50 C46 1.367 . S
N50 C47 1.379 . S
H51 C54 0.980 . S
H52 C54 0.981 . S
H53 C54 0.981 . S
C54 C46 1.481 . S
C54 H51 0.980 . S
C54 H52 0.981 . S
C54 H53 0.981 . S
C55 C42 1.481 . S
C55 H56 0.980 . S
C55 H57 0.981 . S
C55 H58 0.981 . S
H56 C55 0.980 . S
H57 C55 0.981 . S
H58 C55 0.981 . S
O59 Zn35 2.066 . S
O59 C38 1.256 . S
O60 Zn32 2.053 . S
O60 C38 1.244 . S
C61 O39 1.259 . S
C61 O40 1.254 . S
O62 Zn32 2.066 . S
O62 C34 1.256 . S
O63 C34 1.244 . S
O63 Zn35 2.053 . S
Zn64 O65 2.055 . S
Zn64 O72 2.046 . S
Zn64 N80 2.036 . S
Zn64 O92 2.053 . S
Zn64 O94 2.066 . S
O65 Zn64 2.055 . S
O65 C68 1.259 . S
C66 O94 1.256 . S
C66 O95 1.244 . S
Zn67 O69 2.046 . S
Zn67 O71 2.055 . S
Zn67 N73 2.036 . S
Zn67 O91 2.066 . S
Zn67 O95 2.053 . S
C68 O65 1.259 . S
C68 O69 1.254 . S
O69 Zn67 2.046 . S
O69 C68 1.254 . S
C70 O91 1.256 . S
C70 O92 1.244 . S
O71 Zn67 2.055 . S
O71 C93 1.259 . S
O72 Zn64 2.046 . S
O72 C93 1.254 . S
N73 Zn67 2.036 . S
N73 C74 1.298 . S
N73 N76 1.398 . S
C74 N73 1.298 . S
C74 N77 1.367 . S
C74 C87 1.481 . S
C75 N76 1.299 . S
C75 N77 1.379 . S
N76 N73 1.398 . S
N76 C75 1.299 . S
N77 C74 1.367 . S
N77 C75 1.379 . S
C78 N80 1.298 . S
C78 N82 1.367 . S
C78 C86 1.481 . S
C79 N81 1.299 . S
C79 N82 1.379 . S
N80 Zn64 2.036 . S
N80 C78 1.298 . S
N80 N81 1.398 . S
N81 C79 1.299 . S
N81 N80 1.398 . S
N82 C78 1.367 . S
N82 C79 1.379 . S
H83 C86 0.980 . S
H84 C86 0.981 . S
H85 C86 0.981 . S
C86 C78 1.481 . S
C86 H83 0.980 . S
C86 H84 0.981 . S
C86 H85 0.981 . S
C87 C74 1.481 . S
C87 H88 0.980 . S
C87 H89 0.981 . S
C87 H90 0.981 . S
H88 C87 0.980 . S
H89 C87 0.981 . S
H90 C87 0.981 . S
O91 Zn67 2.066 . S
O91 C70 1.256 . S
O92 Zn64 2.053 . S
O92 C70 1.244 . S
C93 O71 1.259 . S
C93 O72 1.254 . S
O94 Zn64 2.066 . S
O94 C66 1.256 . S
O95 C66 1.244 . S
O95 Zn67 2.053 . S
Zn96 O97 2.055 . S
Zn96 O104 2.046 . S
Zn96 N112 2.036 . S
Zn96 O124 2.053 . S
Zn96 O126 2.066 . S
O97 Zn96 2.055 . S
O97 C100 1.259 . S
C98 O126 1.256 . S
C98 O127 1.244 1_556 S
Zn99 O101 2.046 . S
Zn99 O103 2.055 . S
Zn99 N105 2.036 . S
Zn99 O123 2.066 . S
Zn99 O127 2.053 . S
C100 O97 1.259 . S
C100 O101 1.254 1_556 S
O101 Zn99 2.046 . S
O101 C100 1.254 1_554 S
C102 O123 1.256 . S
C102 O124 1.244 1_554 S
O103 Zn99 2.055 . S
O103 C125 1.259 . S
O104 Zn96 2.046 . S
O104 C125 1.254 1_556 S
N105 Zn99 2.036 . S
N105 C106 1.298 . S
N105 N108 1.398 . S
C106 N105 1.298 . S
C106 N109 1.367 . S
C106 C119 1.481 . S
C107 N108 1.299 . S
C107 N109 1.379 . S
N108 N105 1.398 . S
N108 C107 1.299 . S
N109 C106 1.367 . S
N109 C107 1.379 . S
C110 N112 1.298 . S
C110 N114 1.367 . S
C110 C118 1.481 . S
C111 N113 1.299 . S
C111 N114 1.379 . S
N112 Zn96 2.036 . S
N112 C110 1.298 . S
N112 N113 1.398 . S
N113 C111 1.299 . S
N113 N112 1.398 . S
N114 C110 1.367 . S
N114 C111 1.379 . S
H115 C118 0.980 . S
H116 C118 0.981 . S
H117 C118 0.981 . S
C118 C110 1.481 . S
C118 H115 0.980 . S
C118 H116 0.981 . S
C118 H117 0.981 . S
C119 C106 1.481 . S
C119 H120 0.980 . S
C119 H121 0.981 . S
C119 H122 0.981 . S
H120 C119 0.980 . S
H121 C119 0.981 . S
H122 C119 0.981 . S
O123 Zn99 2.066 . S
O123 C102 1.256 . S
O124 Zn96 2.053 . S
O124 C102 1.244 1_556 S
C125 O103 1.259 . S
C125 O104 1.254 1_554 S
O126 Zn96 2.066 . S
O126 C98 1.256 . S
O127 C98 1.244 1_554 S
O127 Zn99 2.053 . S
Zn128 O129 2.055 . S
Zn128 O136 2.046 . S
Zn128 N144 2.036 . S
Zn128 O156 2.053 . S
Zn128 O158 2.066 . S
O129 Zn128 2.055 . S
O129 C132 1.259 . S
C130 O158 1.256 . S
C130 O159 1.244 . S
Zn131 O133 2.046 . S
Zn131 O135 2.055 . S
Zn131 N137 2.036 . S
Zn131 O155 2.066 . S
Zn131 O159 2.053 . S
C132 O129 1.259 . S
C132 O133 1.254 . S
O133 Zn131 2.046 . S
O133 C132 1.254 . S
C134 O155 1.256 . S
C134 O156 1.244 . S
O135 Zn131 2.055 . S
O135 C157 1.259 . S
O136 Zn128 2.046 . S
O136 C157 1.254 . S
N137 Zn131 2.036 . S
N137 C138 1.298 . S
N137 N140 1.398 . S
C138 N137 1.298 . S
C138 N141 1.367 . S
C138 C151 1.481 . S
C139 N140 1.299 . S
C139 N141 1.379 . S
N140 N137 1.398 . S
N140 C139 1.299 . S
N141 C138 1.367 . S
N141 C139 1.379 . S
C142 N144 1.298 . S
C142 N146 1.367 . S
C142 C150 1.481 . S
C143 N145 1.299 . S
C143 N146 1.379 . S
N144 Zn128 2.036 . S
N144 C142 1.298 . S
N144 N145 1.398 . S
N145 C143 1.299 . S
N145 N144 1.398 . S
N146 C142 1.367 . S
N146 C143 1.379 . S
H147 C150 0.980 . S
H148 C150 0.981 . S
H149 C150 0.981 . S
C150 C142 1.481 . S
C150 H147 0.980 . S
C150 H148 0.981 . S
C150 H149 0.981 . S
C151 C138 1.481 . S
C151 H152 0.980 . S
C151 H153 0.981 . S
C151 H154 0.981 . S
H152 C151 0.980 . S
H153 C151 0.981 . S
H154 C151 0.981 . S
O155 Zn131 2.066 . S
O155 C134 1.256 . S
O156 Zn128 2.053 . S
O156 C134 1.244 . S
C157 O135 1.259 . S
C157 O136 1.254 . S
O158 Zn128 2.066 . S
O158 C130 1.256 . S
O159 C130 1.244 . S
O159 Zn131 2.053 . S
Zn160 O161 2.055 . S
Zn160 O168 2.046 . S
Zn160 N176 2.036 . S
Zn160 O188 2.053 . S
Zn160 O190 2.066 . S
O161 Zn160 2.055 . S
O161 C164 1.259 . S
C162 O190 1.256 . S
C162 O191 1.244 . S
Zn163 O165 2.046 . S
Zn163 O167 2.055 . S
Zn163 N169 2.036 . S
Zn163 O187 2.066 . S
Zn163 O191 2.053 . S
C164 O161 1.259 . S
C164 O165 1.254 . S
O165 Zn163 2.046 . S
O165 C164 1.254 . S
C166 O187 1.256 . S
C166 O188 1.244 . S
O167 Zn163 2.055 . S
O167 C189 1.259 . S
O168 Zn160 2.046 . S
O168 C189 1.254 . S
N169 Zn163 2.036 . S
N169 C170 1.298 . S
N169 N172 1.398 . S
C170 N169 1.298 . S
C170 N173 1.367 . S
C170 C183 1.481 . S
C171 N172 1.299 . S
C171 N173 1.379 . S
N172 N169 1.398 . S
N172 C171 1.299 . S
N173 C170 1.367 . S
N173 C171 1.379 . S
C174 N176 1.298 . S
C174 N178 1.367 . S
C174 C182 1.481 . S
C175 N177 1.299 . S
C175 N178 1.379 . S
N176 Zn160 2.036 . S
N176 C174 1.298 . S
N176 N177 1.398 . S
N177 C175 1.299 . S
N177 N176 1.398 . S
N178 C174 1.367 . S
N178 C175 1.379 . S
H179 C182 0.980 . S
H180 C182 0.981 . S
H181 C182 0.981 . S
C182 C174 1.481 . S
C182 H179 0.980 . S
C182 H180 0.981 . S
C182 H181 0.981 . S
C183 C170 1.481 . S
C183 H184 0.980 . S
C183 H185 0.981 . S
C183 H186 0.981 . S
H184 C183 0.980 . S
H185 C183 0.981 . S
H186 C183 0.981 . S
O187 Zn163 2.066 . S
O187 C166 1.256 . S
O188 Zn160 2.053 . S
O188 C166 1.244 . S
C189 O167 1.259 . S
C189 O168 1.254 . S
O190 Zn160 2.066 . S
O190 C162 1.256 . S
O191 C162 1.244 . S
O191 Zn163 2.053 . S
C192 C193 1.391 . S
C192 C194 1.394 . S
C192 H208 0.931 . S
C193 C192 1.391 . S
C193 C197 1.376 . S
C194 C192 1.394 . S
C194 C195 1.369 . S
C194 C198 1.531 . S
C195 C194 1.369 . S
C195 C196 1.410 . S
C195 C203 1.503 . S
C196 C195 1.410 . S
C196 C197 1.392 . S
C196 C199 1.511 . S
C197 C193 1.376 . S
C197 C196 1.392 . S
C197 H209 0.929 . S
C198 C194 1.531 . S
C198 H210 0.960 . S
C198 H211 0.962 . S
C198 H212 0.960 . S
C199 C196 1.511 . S
C199 H213 0.961 . S
C199 H214 0.961 . S
C199 H215 0.961 . S
C200 C201 1.370 . S
C200 C202 1.363 . S
C200 H216 0.931 . S
C201 C200 1.370 . S
C201 C205 1.408 . S
C202 C200 1.363 . S
C202 C203 1.370 . S
C202 C206 1.524 . S
C203 C195 1.503 . S
C203 C202 1.370 . S
C203 C204 1.403 . S
C204 C203 1.403 . S
C204 C205 1.404 . S
C204 C207 1.539 . S
C205 C201 1.408 . S
C205 C204 1.404 . S
C205 H217 0.930 . S
C206 C202 1.524 . S
C206 H218 0.956 . S
C206 H219 0.961 . S
C206 H220 0.961 . S
C207 C204 1.539 . S
C207 H221 0.958 . S
C207 H222 0.961 . S
C207 H223 0.960 . S
H208 C192 0.931 . S
H209 C197 0.929 . S
H210 C198 0.960 . S
H211 C198 0.962 . S
H212 C198 0.960 . S
H213 C199 0.961 . S
H214 C199 0.961 . S
H215 C199 0.961 . S
H216 C200 0.931 . S
H217 C205 0.930 . S
H218 C206 0.956 . S
H219 C206 0.961 . S
H220 C206 0.961 . S
H221 C207 0.958 . S
H222 C207 0.961 . S
H223 C207 0.960 . S
C224 C225 1.391 . S
C224 C226 1.394 . S
C224 H240 0.931 . S
C225 C224 1.391 . S
C225 C229 1.376 . S
C226 C224 1.394 . S
C226 C227 1.369 . S
C226 C230 1.531 . S
C227 C226 1.369 . S
C227 C228 1.410 . S
C227 C235 1.503 1_455 S
C228 C227 1.410 . S
C228 C229 1.392 . S
C228 C231 1.511 1_455 S
C229 C225 1.376 . S
C229 C228 1.392 . S
C229 H241 0.929 . S
C230 C226 1.531 . S
C230 H242 0.960 . S
C230 H243 0.962 . S
C230 H244 0.960 . S
C231 C228 1.511 1_655 S
C231 H245 0.961 . S
C231 H246 0.961 . S
C231 H247 0.961 . S
C232 C233 1.370 . S
C232 C234 1.363 . S
C232 H248 0.931 . S
C233 C232 1.370 . S
C233 C237 1.408 . S
C234 C232 1.363 . S
C234 C235 1.370 . S
C234 C238 1.524 1_655 S
C235 C227 1.503 1_655 S
C235 C234 1.370 . S
C235 C236 1.403 . S
C236 C235 1.403 . S
C236 C237 1.404 . S
C236 C239 1.539 . S
C237 C233 1.408 . S
C237 C236 1.404 . S
C237 H249 0.930 . S
C238 C234 1.524 1_455 S
C238 H250 0.956 . S
C238 H251 0.961 . S
C238 H252 0.961 1_455 S
C239 C236 1.539 . S
C239 H253 0.958 . S
C239 H254 0.961 . S
C239 H255 0.960 . S
H240 C224 0.931 . S
H241 C229 0.929 . S
H242 C230 0.960 . S
H243 C230 0.962 . S
H244 C230 0.960 . S
H245 C231 0.961 . S
H246 C231 0.961 . S
H247 C231 0.961 . S
H248 C232 0.931 . S
H249 C237 0.930 . S
H250 C238 0.956 . S
H251 C238 0.961 . S
H252 C238 0.961 1_655 S
H253 C239 0.958 . S
H254 C239 0.961 . S
H255 C239 0.960 . S
C256 C257 1.391 . S
C256 C258 1.394 . S
C256 H272 0.931 . S
C257 C256 1.391 . S
C257 C261 1.376 . S
C258 C256 1.394 . S
C258 C259 1.369 . S
C258 C262 1.531 1_545 S
C259 C258 1.369 . S
C259 C260 1.410 . S
C259 C267 1.503 1_545 S
C260 C259 1.410 . S
C260 C261 1.392 . S
C260 C263 1.511 . S
C261 C257 1.376 . S
C261 C260 1.392 . S
C261 H273 0.929 . S
C262 C258 1.531 1_565 S
C262 H274 0.960 . S
C262 H275 0.962 . S
C262 H276 0.960 . S
C263 C260 1.511 . S
C263 H277 0.961 . S
C263 H278 0.961 . S
C263 H279 0.961 . S
C264 C265 1.370 . S
C264 C266 1.363 . S
C264 H280 0.931 . S
C265 C264 1.370 . S
C265 C269 1.408 . S
C266 C264 1.363 . S
C266 C267 1.370 . S
C266 C270 1.524 1_565 S
C267 C259 1.503 1_565 S
C267 C266 1.370 . S
C267 C268 1.403 . S
C268 C267 1.403 . S
C268 C269 1.404 . S
C268 C271 1.539 . S
C269 C265 1.408 . S
C269 C268 1.404 . S
C269 H281 0.930 . S
C270 C266 1.524 1_545 S
C270 H282 0.956 . S
C270 H283 0.961 . S
C270 H284 0.961 . S
C271 C268 1.539 . S
C271 H285 0.958 . S
C271 H286 0.961 . S
C271 H287 0.960 . S
H272 C256 0.931 . S
H273 C261 0.929 . S
H274 C262 0.960 . S
H275 C262 0.962 . S
H276 C262 0.960 . S
H277 C263 0.961 . S
H278 C263 0.961 . S
H279 C263 0.961 . S
H280 C264 0.931 . S
H281 C269 0.930 . S
H282 C270 0.956 . S
H283 C270 0.961 . S
H284 C270 0.961 . S
H285 C271 0.958 . S
H286 C271 0.961 . S
H287 C271 0.960 . S
C288 C289 1.391 . S
C288 C290 1.394 . S
C288 H304 0.931 . S
C289 C288 1.391 . S
C289 C293 1.376 . S
C290 C288 1.394 . S
C290 C291 1.369 . S
C290 C294 1.531 . S
C291 C290 1.369 . S
C291 C292 1.410 . S
C291 C299 1.503 . S
C292 C291 1.410 . S
C292 C293 1.392 . S
C292 C295 1.511 . S
C293 C289 1.376 . S
C293 C292 1.392 . S
C293 H305 0.929 . S
C294 C290 1.531 . S
C294 H306 0.960 . S
C294 H307 0.962 . S
C294 H308 0.960 . S
C295 C292 1.511 . S
C295 H309 0.961 . S
C295 H310 0.961 . S
C295 H311 0.961 . S
C296 C297 1.370 . S
C296 C298 1.363 . S
C296 H312 0.931 . S
C297 C296 1.370 . S
C297 C301 1.408 . S
C298 C296 1.363 . S
C298 C299 1.370 . S
C298 C302 1.524 . S
C299 C291 1.503 . S
C299 C298 1.370 . S
C299 C300 1.403 . S
C300 C299 1.403 . S
C300 C301 1.404 . S
C300 C303 1.539 . S
C301 C297 1.408 . S
C301 C300 1.404 . S
C301 H313 0.930 . S
C302 C298 1.524 . S
C302 H314 0.956 . S
C302 H315 0.961 . S
C302 H316 0.961 . S
C303 C300 1.539 . S
C303 H317 0.958 . S
C303 H318 0.961 1_556 S
C303 H319 0.960 . S
H304 C288 0.931 . S
H305 C293 0.929 . S
H306 C294 0.960 . S
H307 C294 0.962 . S
H308 C294 0.960 . S
H309 C295 0.961 . S
H310 C295 0.961 . S
H311 C295 0.961 . S
H312 C296 0.931 . S
H313 C301 0.930 . S
H314 C302 0.956 . S
H315 C302 0.961 . S
H316 C302 0.961 . S
H317 C303 0.958 . S
H318 C303 0.961 1_554 S
H319 C303 0.960 . S
C320 C321 1.391 . S
C320 C322 1.394 . S
C320 H336 0.931 . S
C321 C320 1.391 . S
C321 C325 1.376 . S
C322 C320 1.394 . S
C322 C323 1.369 . S
C322 C326 1.531 1_455 S
C323 C322 1.369 . S
C323 C324 1.410 . S
C323 C331 1.503 1_455 S
C324 C323 1.410 . S
C324 C325 1.392 . S
C324 C327 1.511 . S
C325 C321 1.376 . S
C325 C324 1.392 . S
C325 H337 0.929 . S
C326 C322 1.531 1_655 S
C326 H338 0.960 . S
C326 H339 0.962 . S
C326 H340 0.960 . S
C327 C324 1.511 . S
C327 H341 0.961 . S
C327 H342 0.961 . S
C327 H343 0.961 . S
C328 C329 1.370 . S
C328 C330 1.363 . S
C328 H344 0.931 . S
C329 C328 1.370 . S
C329 C333 1.408 . S
C330 C328 1.363 . S
C330 C331 1.370 . S
C330 C334 1.524 1_655 S
C331 C323 1.503 1_655 S
C331 C330 1.370 . S
C331 C332 1.403 . S
C332 C331 1.403 . S
C332 C333 1.404 . S
C332 C335 1.539 . S
C333 C329 1.408 . S
C333 C332 1.404 . S
C333 H345 0.930 . S
C334 C330 1.524 1_455 S
C334 H346 0.956 . S
C334 H347 0.961 . S
C334 H348 0.961 . S
C335 C332 1.539 . S
C335 H349 0.958 . S
C335 H350 0.961 . S
C335 H351 0.960 . S
H336 C320 0.931 . S
H337 C325 0.929 . S
H338 C326 0.960 . S
H339 C326 0.962 . S
H340 C326 0.960 . S
H341 C327 0.961 . S
H342 C327 0.961 . S
H343 C327 0.961 . S
H344 C328 0.931 . S
H345 C333 0.930 . S
H346 C334 0.956 . S
H347 C334 0.961 . S
H348 C334 0.961 . S
H349 C335 0.958 . S
H350 C335 0.961 . S
H351 C335 0.960 . S
C352 C353 1.391 . S
C352 C354 1.394 . S
C352 H368 0.931 . S
C353 C352 1.391 . S
C353 C357 1.376 . S
C354 C352 1.394 . S
C354 C355 1.369 . S
C354 C358 1.531 . S
C355 C354 1.369 . S
C355 C356 1.410 . S
C355 C363 1.503 1_545 S
C356 C355 1.410 . S
C356 C357 1.392 . S
C356 C359 1.511 . S
C357 C353 1.376 . S
C357 C356 1.392 . S
C357 H369 0.929 . S
C358 C354 1.531 . S
C358 H370 0.960 . S
C358 H371 0.962 . S
C358 H372 0.960 . S
C359 C356 1.511 . S
C359 H373 0.961 . S
C359 H374 0.961 1_545 S
C359 H375 0.961 . S
C360 C361 1.370 . S
C360 C362 1.363 . S
C360 H376 0.931 . S
C361 C360 1.370 . S
C361 C365 1.408 . S
C362 C360 1.363 . S
C362 C363 1.370 . S
C362 C366 1.524 . S
C363 C355 1.503 1_565 S
C363 C362 1.370 . S
C363 C364 1.403 . S
C364 C363 1.403 . S
C364 C365 1.404 . S
C364 C367 1.539 1_565 S
C365 C361 1.408 . S
C365 C364 1.404 . S
C365 H377 0.930 . S
C366 C362 1.524 . S
C366 H378 0.956 . S
C366 H379 0.961 . S
C366 H380 0.961 . S
C367 C364 1.539 1_545 S
C367 H381 0.958 . S
C367 H382 0.961 . S
C367 H383 0.960 . S
H368 C352 0.931 . S
H369 C357 0.929 . S
H370 C358 0.960 . S
H371 C358 0.962 . S
H372 C358 0.960 . S
H373 C359 0.961 . S
H374 C359 0.961 1_565 S
H375 C359 0.961 . S
H376 C360 0.931 . S
H377 C365 0.930 . S
H378 C366 0.956 . S
H379 C366 0.961 . S
H380 C366 0.961 . S
H381 C367 0.958 . S
H382 C367 0.961 . S
H383 C367 0.960 . S
C384 C385 1.391 . S
C384 C386 1.394 . S
C384 H400 0.931 . S
C385 C384 1.391 . S
C385 C389 1.376 . S
C386 C384 1.394 . S
C386 C387 1.369 . S
C386 C390 1.531 . S
C387 C386 1.369 . S
C387 C388 1.410 . S
C387 C395 1.503 . S
C388 C387 1.410 . S
C388 C389 1.392 . S
C388 C391 1.511 . S
C389 C385 1.376 . S
C389 C388 1.392 . S
C389 H401 0.929 . S
C390 C386 1.531 . S
C390 H402 0.960 . S
C390 H403 0.962 . S
C390 H404 0.960 . S
C391 C388 1.511 . S
C391 H405 0.961 . S
C391 H406 0.961 . S
C391 H407 0.961 . S
C392 C393 1.370 . S
C392 C394 1.363 . S
C392 H408 0.931 . S
C393 C392 1.370 . S
C393 C397 1.408 . S
C394 C392 1.363 . S
C394 C395 1.370 . S
C394 C398 1.524 . S
C395 C387 1.503 . S
C395 C394 1.370 . S
C395 C396 1.403 . S
C396 C395 1.403 . S
C396 C397 1.404 . S
C396 C399 1.539 . S
C397 C393 1.408 . S
C397 C396 1.404 . S
C397 H409 0.930 . S
C398 C394 1.524 . S
C398 H410 0.956 . S
C398 H411 0.961 . S
C398 H412 0.961 . S
C399 C396 1.539 . S
C399 H413 0.958 . S
C399 H414 0.961 . S
C399 H415 0.960 . S
H400 C384 0.931 . S
H401 C389 0.929 . S
H402 C390 0.960 . S
H403 C390 0.962 . S
H404 C390 0.960 . S
H405 C391 0.961 . S
H406 C391 0.961 . S
H407 C391 0.961 . S
H408 C392 0.931 . S
H409 C397 0.930 . S
H410 C398 0.956 . S
H411 C398 0.961 . S
H412 C398 0.961 . S
H413 C399 0.958 . S
H414 C399 0.961 . S
H415 C399 0.960 . S
C416 C417 1.391 1_556 S
C416 C418 1.394 . S
C416 H432 0.931 1_556 S
C417 C416 1.391 1_554 S
C417 C421 1.376 1_554 S
C418 C416 1.394 . S
C418 C419 1.369 . S
C418 C422 1.531 . S
C419 C418 1.369 . S
C419 C420 1.410 . S
C419 C427 1.503 . S
C420 C419 1.410 . S
C420 C421 1.392 . S
C420 C423 1.511 . S
C421 C417 1.376 1_556 S
C421 C420 1.392 . S
C421 H433 0.929 . S
C422 C418 1.531 . S
C422 H434 0.960 . S
C422 H435 0.962 . S
C422 H436 0.960 . S
C423 C420 1.511 . S
C423 H437 0.961 . S
C423 H438 0.961 . S
C423 H439 0.961 . S
C424 C425 1.370 . S
C424 C426 1.363 . S
C424 H440 0.931 . S
C425 C424 1.370 . S
C425 C429 1.408 . S
C426 C424 1.363 . S
C426 C427 1.370 . S
C426 C430 1.524 . S
C427 C419 1.503 . S
C427 C426 1.370 . S
C427 C428 1.403 . S
C428 C427 1.403 . S
C428 C429 1.404 . S
C428 C431 1.539 . S
C429 C425 1.408 . S
C429 C428 1.404 . S
C429 H441 0.930 . S
C430 C426 1.524 . S
C430 H442 0.956 . S
C430 H443 0.961 . S
C430 H444 0.961 . S
C431 C428 1.539 . S
C431 H445 0.958 . S
C431 H446 0.961 . S
C431 H447 0.960 . S
H432 C416 0.931 1_554 S
H433 C421 0.929 . S
H434 C422 0.960 . S
H435 C422 0.962 . S
H436 C422 0.960 . S
H437 C423 0.961 . S
H438 C423 0.961 . S
H439 C423 0.961 . S
H440 C424 0.931 . S
H441 C429 0.930 . S
H442 C430 0.956 . S
H443 C430 0.961 . S
H444 C430 0.961 . S
H445 C431 0.958 . S
H446 C431 0.961 . S
H447 C431 0.960 . S
C448 C449 1.391 . S
C448 C450 1.394 . S
C448 H464 0.931 . S
C449 C448 1.391 . S
C449 C453 1.376 . S
C450 C448 1.394 . S
C450 C451 1.369 . S
C450 C454 1.531 . S
C451 C450 1.369 . S
C451 C452 1.410 . S
C451 C459 1.503 . S
C452 C451 1.410 . S
C452 C453 1.392 . S
C452 C455 1.511 . S
C453 C449 1.376 . S
C453 C452 1.392 . S
C453 H465 0.929 . S
C454 C450 1.531 . S
C454 H466 0.960 . S
C454 H467 0.962 . S
C454 H468 0.960 . S
C455 C452 1.511 . S
C455 H469 0.961 . S
C455 H470 0.961 . S
C455 H471 0.961 . S
C456 C457 1.370 . S
C456 C458 1.363 . S
C456 H472 0.931 . S
C457 C456 1.370 . S
C457 C461 1.408 . S
C458 C456 1.363 . S
C458 C459 1.370 . S
C458 C462 1.524 . S
C459 C451 1.503 . S
C459 C458 1.370 . S
C459 C460 1.403 . S
C460 C459 1.403 . S
C460 C461 1.404 . S
C460 C463 1.539 . S
C461 C457 1.408 . S
C461 C460 1.404 . S
C461 H473 0.930 1_554 S
C462 C458 1.524 . S
C462 H474 0.956 . S
C462 H475 0.961 . S
C462 H476 0.961 . S
C463 C460 1.539 . S
C463 H477 0.958 . S
C463 H478 0.961 . S
C463 H479 0.960 . S
H464 C448 0.931 . S
H465 C453 0.929 . S
H466 C454 0.960 . S
H467 C454 0.962 . S
H468 C454 0.960 . S
H469 C455 0.961 . S
H470 C455 0.961 . S
H471 C455 0.961 . S
H472 C456 0.931 . S
H473 C461 0.930 1_556 S
H474 C462 0.956 . S
H475 C462 0.961 . S
H476 C462 0.961 . S
H477 C463 0.958 . S
H478 C463 0.961 . S
H479 C463 0.960 . S
C480 C481 1.391 . S
C480 C482 1.394 . S
C480 H496 0.931 . S
C481 C480 1.391 . S
C481 C485 1.376 . S
C482 C480 1.394 . S
C482 C483 1.369 . S
C482 C486 1.531 . S
C483 C482 1.369 . S
C483 C484 1.410 . S
C483 C491 1.503 . S
C484 C483 1.410 . S
C484 C485 1.392 . S
C484 C487 1.511 . S
C485 C481 1.376 . S
C485 C484 1.392 . S
C485 H497 0.929 . S
C486 C482 1.531 . S
C486 H498 0.960 . S
C486 H499 0.962 . S
C486 H500 0.960 . S
C487 C484 1.511 . S
C487 H501 0.961 . S
C487 H502 0.961 . S
C487 H503 0.961 . S
C488 C489 1.370 . S
C488 C490 1.363 . S
C488 H504 0.931 . S
C489 C488 1.370 . S
C489 C493 1.408 . S
C490 C488 1.363 . S
C490 C491 1.370 . S
C490 C494 1.524 . S
C491 C483 1.503 . S
C491 C490 1.370 . S
C491 C492 1.403 . S
C492 C491 1.403 . S
C492 C493 1.404 . S
C492 C495 1.539 . S
C493 C489 1.408 . S
C493 C492 1.404 . S
C493 H505 0.930 . S
C494 C490 1.524 . S
C494 H506 0.956 . S
C494 H507 0.961 . S
C494 H508 0.961 . S
C495 C492 1.539 . S
C495 H509 0.958 . S
C495 H510 0.961 . S
C495 H511 0.960 . S
H496 C480 0.931 . S
H497 C485 0.929 . S
H498 C486 0.960 . S
H499 C486 0.962 . S
H500 C486 0.960 . S
H501 C487 0.961 . S
H502 C487 0.961 . S
H503 C487 0.961 . S
H504 C488 0.931 . S
H505 C493 0.930 . S
H506 C494 0.956 . S
H507 C494 0.961 . S
H508 C494 0.961 . S
H509 C495 0.958 . S
H510 C495 0.961 . S
H511 C495 0.960 . S
C512 C513 1.391 . S
C512 C514 1.394 . S
C512 H528 0.931 . S
C513 C512 1.391 . S
C513 C517 1.376 . S
C514 C512 1.394 . S
C514 C515 1.369 . S
C514 C518 1.531 . S
C515 C514 1.369 . S
C515 C516 1.410 . S
C515 C523 1.503 . S
C516 C515 1.410 . S
C516 C517 1.392 . S
C516 C519 1.511 . S
C517 C513 1.376 . S
C517 C516 1.392 . S
C517 H529 0.929 . S
C518 C514 1.531 . S
C518 H530 0.960 . S
C518 H531 0.962 . S
C518 H532 0.960 . S
C519 C516 1.511 . S
C519 H533 0.961 . S
C519 H534 0.961 . S
C519 H535 0.961 . S
C520 C521 1.370 1_556 S
C520 C522 1.363 . S
C520 H536 0.931 . S
C521 C520 1.370 1_554 S
C521 C525 1.408 1_554 S
C522 C520 1.363 . S
C522 C523 1.370 . S
C522 C526 1.524 . S
C523 C515 1.503 . S
C523 C522 1.370 . S
C523 C524 1.403 . S
C524 C523 1.403 . S
C524 C525 1.404 . S
C524 C527 1.539 . S
C525 C521 1.408 1_556 S
C525 C524 1.404 . S
C525 H537 0.930 1_556 S
C526 C522 1.524 . S
C526 H538 0.956 . S
C526 H539 0.961 . S
C526 H540 0.961 . S
C527 C524 1.539 . S
C527 H541 0.958 . S
C527 H542 0.961 . S
C527 H543 0.960 . S
H528 C512 0.931 . S
H529 C517 0.929 . S
H530 C518 0.960 . S
H531 C518 0.962 . S
H532 C518 0.960 . S
H533 C519 0.961 . S
H534 C519 0.961 . S
H535 C519 0.961 . S
H536 C520 0.931 . S
H537 C525 0.930 1_554 S
H538 C526 0.956 . S
H539 C526 0.961 . S
H540 C526 0.961 . S
H541 C527 0.958 . S
H542 C527 0.961 . S
H543 C527 0.960 . S
C544 C545 1.391 . S
C544 C546 1.394 . S
C544 H560 0.931 . S
C545 C544 1.391 . S
C545 C549 1.376 . S
C546 C544 1.394 . S
C546 C547 1.369 . S
C546 C550 1.531 . S
C547 C546 1.369 . S
C547 C548 1.410 . S
C547 C555 1.503 . S
C548 C547 1.410 . S
C548 C549 1.392 . S
C548 C551 1.511 . S
C549 C545 1.376 . S
C549 C548 1.392 . S
C549 H561 0.929 . S
C550 C546 1.531 . S
C550 H562 0.960 . S
C550 H563 0.962 . S
C550 H564 0.960 . S
C551 C548 1.511 . S
C551 H565 0.961 . S
C551 H566 0.961 . S
C551 H567 0.961 . S
C552 C553 1.370 . S
C552 C554 1.363 . S
C552 H568 0.931 1_554 S
C553 C552 1.370 . S
C553 C557 1.408 . S
C554 C552 1.363 . S
C554 C555 1.370 . S
C554 C558 1.524 . S
C555 C547 1.503 . S
C555 C554 1.370 . S
C555 C556 1.403 . S
C556 C555 1.403 . S
C556 C557 1.404 . S
C556 C559 1.539 . S
C557 C553 1.408 . S
C557 C556 1.404 . S
C557 H569 0.930 . S
C558 C554 1.524 . S
C558 H570 0.956 . S
C558 H571 0.961 . S
C558 H572 0.961 . S
C559 C556 1.539 . S
C559 H573 0.958 . S
C559 H574 0.961 . S
C559 H575 0.960 . S
H560 C544 0.931 . S
H561 C549 0.929 . S
H562 C550 0.960 . S
H563 C550 0.962 . S
H564 C550 0.960 . S
H565 C551 0.961 . S
H566 C551 0.961 . S
H567 C551 0.961 . S
H568 C552 0.931 1_556 S
H569 C557 0.930 . S
H570 C558 0.956 . S
H571 C558 0.961 . S
H572 C558 0.961 . S
H573 C559 0.958 . S
H574 C559 0.961 . S
H575 C559 0.960 . S
C576 C577 1.391 . S
C576 C578 1.394 . S
C576 H592 0.931 . S
C577 C576 1.391 . S
C577 C581 1.376 . S
C578 C576 1.394 . S
C578 C579 1.369 . S
C578 C582 1.531 . S
C579 C578 1.369 . S
C579 C580 1.410 . S
C579 C587 1.503 . S
C580 C579 1.410 . S
C580 C581 1.392 . S
C580 C583 1.511 . S
C581 C577 1.376 . S
C581 C580 1.392 . S
C581 H593 0.929 . S
C582 C578 1.531 . S
C582 H594 0.960 . S
C582 H595 0.962 . S
C582 H596 0.960 . S
C583 C580 1.511 . S
C583 H597 0.961 . S
C583 H598 0.961 . S
C583 H599 0.961 . S
C584 C585 1.370 . S
C584 C586 1.363 . S
C584 H600 0.931 . S
C585 C584 1.370 . S
C585 C589 1.408 . S
C586 C584 1.363 . S
C586 C587 1.370 . S
C586 C590 1.524 . S
C587 C579 1.503 . S
C587 C586 1.370 . S
C587 C588 1.403 . S
C588 C587 1.403 . S
C588 C589 1.404 . S
C588 C591 1.539 . S
C589 C585 1.408 . S
C589 C588 1.404 . S
C589 H601 0.930 . S
C590 C586 1.524 . S
C590 H602 0.956 . S
C590 H603 0.961 . S
C590 H604 0.961 . S
C591 C588 1.539 . S
C591 H605 0.958 . S
C591 H606 0.961 . S
C591 H607 0.960 . S
H592 C576 0.931 . S
H593 C581 0.929 . S
H594 C582 0.960 . S
H595 C582 0.962 . S
H596 C582 0.960 . S
H597 C583 0.961 . S
H598 C583 0.961 . S
H599 C583 0.961 . S
H600 C584 0.931 . S
H601 C589 0.930 . S
H602 C590 0.956 . S
H603 C590 0.961 . S
H604 C590 0.961 . S
H605 C591 0.958 . S
H606 C591 0.961 . S
H607 C591 0.960 . S
C608 C609 1.391 . S
C608 C610 1.394 . S
C608 H624 0.931 . S
C609 C608 1.391 . S
C609 C613 1.376 . S
C610 C608 1.394 . S
C610 C611 1.369 . S
C610 C614 1.531 . S
C611 C610 1.369 . S
C611 C612 1.410 . S
C611 C619 1.503 . S
C612 C611 1.410 . S
C612 C613 1.392 . S
C612 C615 1.511 . S
C613 C609 1.376 . S
C613 C612 1.392 . S
C613 H625 0.929 . S
C614 C610 1.531 . S
C614 H626 0.960 . S
C614 H627 0.962 . S
C614 H628 0.960 . S
C615 C612 1.511 . S
C615 H629 0.961 . S
C615 H630 0.961 . S
C615 H631 0.961 . S
C616 C617 1.370 . S
C616 C618 1.363 . S
C616 H632 0.931 . S
C617 C616 1.370 . S
C617 C621 1.408 . S
C618 C616 1.363 . S
C618 C619 1.370 . S
C618 C622 1.524 . S
C619 C611 1.503 . S
C619 C618 1.370 . S
C619 C620 1.403 . S
C620 C619 1.403 . S
C620 C621 1.404 . S
C620 C623 1.539 . S
C621 C617 1.408 . S
C621 C620 1.404 . S
C621 H633 0.930 . S
C622 C618 1.524 . S
C622 H634 0.956 . S
C622 H635 0.961 . S
C622 H636 0.961 . S
C623 C620 1.539 . S
C623 H637 0.958 . S
C623 H638 0.961 . S
C623 H639 0.960 . S
H624 C608 0.931 . S
H625 C613 0.929 . S
H626 C614 0.960 . S
H627 C614 0.962 . S
H628 C614 0.960 . S
H629 C615 0.961 . S
H630 C615 0.961 . S
H631 C615 0.961 . S
H632 C616 0.931 . S
H633 C621 0.930 . S
H634 C622 0.956 . S
H635 C622 0.961 . S
H636 C622 0.961 . S
H637 C623 0.958 . S
H638 C623 0.961 . S
H639 C623 0.960 . S
C640 C641 1.391 . S
C640 C642 1.394 . S
C640 H656 0.931 . S
C641 C640 1.391 . S
C641 C645 1.376 . S
C642 C640 1.394 . S
C642 C643 1.369 . S
C642 C646 1.531 . S
C643 C642 1.369 . S
C643 C644 1.410 . S
C643 C651 1.503 . S
C644 C643 1.410 . S
C644 C645 1.392 . S
C644 C647 1.511 . S
C645 C641 1.376 . S
C645 C644 1.392 . S
C645 H657 0.929 . S
C646 C642 1.531 . S
C646 H658 0.960 . S
C646 H659 0.962 . S
C646 H660 0.960 . S
C647 C644 1.511 . S
C647 H661 0.961 . S
C647 H662 0.961 . S
C647 H663 0.961 . S
C648 C649 1.370 . S
C648 C650 1.363 . S
C648 H664 0.931 . S
C649 C648 1.370 . S
C649 C653 1.408 . S
C650 C648 1.363 . S
C650 C651 1.370 . S
C650 C654 1.524 . S
C651 C643 1.503 . S
C651 C650 1.370 . S
C651 C652 1.403 . S
C652 C651 1.403 . S
C652 C653 1.404 . S
C652 C655 1.539 . S
C653 C649 1.408 . S
C653 C652 1.404 . S
C653 H665 0.930 . S
C654 C650 1.524 . S
C654 H666 0.956 . S
C654 H667 0.961 . S
C654 H668 0.961 . S
C655 C652 1.539 . S
C655 H669 0.958 . S
C655 H670 0.961 . S
C655 H671 0.960 . S
H656 C640 0.931 . S
H657 C645 0.929 . S
H658 C646 0.960 . S
H659 C646 0.962 . S
H660 C646 0.960 . S
H661 C647 0.961 . S
H662 C647 0.961 . S
H663 C647 0.961 . S
H664 C648 0.931 . S
H665 C653 0.930 . S
H666 C654 0.956 . S
H667 C654 0.961 . S
H668 C654 0.961 . S
H669 C655 0.958 . S
H670 C655 0.961 . S
H671 C655 0.960 . S
C672 C673 1.391 . S
C672 C674 1.394 . S
C672 H688 0.931 . S
C673 C672 1.391 . S
C673 C677 1.376 . S
C674 C672 1.394 . S
C674 C675 1.369 . S
C674 C678 1.531 . S
C675 C674 1.369 . S
C675 C676 1.410 . S
C675 C683 1.503 . S
C676 C675 1.410 . S
C676 C677 1.392 . S
C676 C679 1.511 . S
C677 C673 1.376 . S
C677 C676 1.392 . S
C677 H689 0.929 . S
C678 C674 1.531 . S
C678 H690 0.960 . S
C678 H691 0.962 . S
C678 H692 0.960 . S
C679 C676 1.511 . S
C679 H693 0.961 . S
C679 H694 0.961 . S
C679 H695 0.961 . S
C680 C681 1.370 . S
C680 C682 1.363 . S
C680 H696 0.931 . S
C681 C680 1.370 . S
C681 C685 1.408 . S
C682 C680 1.363 . S
C682 C683 1.370 . S
C682 C686 1.524 . S
C683 C675 1.503 . S
C683 C682 1.370 . S
C683 C684 1.403 . S
C684 C683 1.403 . S
C684 C685 1.404 . S
C684 C687 1.539 . S
C685 C681 1.408 . S
C685 C684 1.404 . S
C685 H697 0.930 . S
C686 C682 1.524 . S
C686 H698 0.956 . S
C686 H699 0.961 . S
C686 H700 0.961 . S
C687 C684 1.539 . S
C687 H701 0.958 . S
C687 H702 0.961 . S
C687 H703 0.960 . S
H688 C672 0.931 . S
H689 C677 0.929 . S
H690 C678 0.960 . S
H691 C678 0.962 . S
H692 C678 0.960 . S
H693 C679 0.961 . S
H694 C679 0.961 . S
H695 C679 0.961 . S
H696 C680 0.931 . S
H697 C685 0.930 . S
H698 C686 0.956 . S
H699 C686 0.961 . S
H700 C686 0.961 . S
H701 C687 0.958 . S
H702 C687 0.961 . S
H703 C687 0.960 . S
C704 C705 1.391 . S
C704 C706 1.394 . S
C704 H720 0.931 . S
C705 C704 1.391 . S
C705 C709 1.376 . S
C706 C704 1.394 . S
C706 C707 1.369 . S
C706 C710 1.531 . S
C707 C706 1.369 . S
C707 C708 1.410 . S
C707 C715 1.503 . S
C708 C707 1.410 . S
C708 C709 1.392 . S
C708 C711 1.511 . S
C709 C705 1.376 . S
C709 C708 1.392 . S
C709 H721 0.929 . S
C710 C706 1.531 . S
C710 H722 0.960 . S
C710 H723 0.962 . S
C710 H724 0.960 . S
C711 C708 1.511 . S
C711 H725 0.961 . S
C711 H726 0.961 . S
C711 H727 0.961 . S
C712 C713 1.370 . S
C712 C714 1.363 . S
C712 H728 0.931 . S
C713 C712 1.370 . S
C713 C717 1.408 . S
C714 C712 1.363 . S
C714 C715 1.370 . S
C714 C718 1.524 . S
C715 C707 1.503 . S
C715 C714 1.370 . S
C715 C716 1.403 . S
C716 C715 1.403 . S
C716 C717 1.404 . S
C716 C719 1.539 . S
C717 C713 1.408 . S
C717 C716 1.404 . S
C717 H729 0.930 . S
C718 C714 1.524 . S
C718 H730 0.956 . S
C718 H731 0.961 . S
C718 H732 0.961 . S
C719 C716 1.539 . S
C719 H733 0.958 . S
C719 H734 0.961 . S
C719 H735 0.960 . S
H720 C704 0.931 . S
H721 C709 0.929 . S
H722 C710 0.960 . S
H723 C710 0.962 . S
H724 C710 0.960 . S
H725 C711 0.961 . S
H726 C711 0.961 . S
H727 C711 0.961 . S
H728 C712 0.931 . S
H729 C717 0.930 . S
H730 C718 0.956 . S
H731 C718 0.961 . S
H732 C718 0.961 . S
H733 C719 0.958 . S
H734 C719 0.961 . S
H735 C719 0.960 . S
C736 C737 1.391 . S
C736 C738 1.394 . S
C736 H752 0.931 . S
C737 C736 1.391 . S
C737 C741 1.376 . S
C738 C736 1.394 . S
C738 C739 1.369 . S
C738 C742 1.531 . S
C739 C738 1.369 . S
C739 C740 1.410 . S
C739 C747 1.503 . S
C740 C739 1.410 . S
C740 C741 1.392 . S
C740 C743 1.511 . S
C741 C737 1.376 . S
C741 C740 1.392 . S
C741 H753 0.929 . S
C742 C738 1.531 . S
C742 H754 0.960 . S
C742 H755 0.962 . S
C742 H756 0.960 . S
C743 C740 1.511 . S
C743 H757 0.961 . S
C743 H758 0.961 . S
C743 H759 0.961 . S
C744 C745 1.370 . S
C744 C746 1.363 . S
C744 H760 0.931 . S
C745 C744 1.370 . S
C745 C749 1.408 . S
C746 C744 1.363 . S
C746 C747 1.370 . S
C746 C750 1.524 . S
C747 C739 1.503 . S
C747 C746 1.370 . S
C747 C748 1.403 . S
C748 C747 1.403 . S
C748 C749 1.404 . S
C748 C751 1.539 . S
C749 C745 1.408 . S
C749 C748 1.404 . S
C749 H761 0.930 . S
C750 C746 1.524 . S
C750 H762 0.956 . S
C750 H763 0.961 . S
C750 H764 0.961 . S
C751 C748 1.539 . S
C751 H765 0.958 . S
C751 H766 0.961 . S
C751 H767 0.960 . S
H752 C736 0.931 . S
H753 C741 0.929 . S
H754 C742 0.960 . S
H755 C742 0.962 . S
H756 C742 0.960 . S
H757 C743 0.961 . S
H758 C743 0.961 . S
H759 C743 0.961 . S
H760 C744 0.931 . S
H761 C749 0.930 . S
H762 C750 0.956 . S
H763 C750 0.961 . S
H764 C750 0.961 . S
H765 C751 0.958 . S
H766 C751 0.961 . S
H767 C751 0.960 . S
C193 C166 1.483 . S
C201 C6 1.467 . S
C225 C2 1.468 . S
C233 C34 1.462 . S
C257 C38 1.484 . S
C265 C70 1.468 . S
C289 C66 1.462 . S
C297 C98 1.477 . S
C321 C134 1.483 . S
C329 C102 1.468 . S
C353 C162 1.448 . S
C361 C130 1.472 . S
C385 N13 1.095 . S
C393 N18 1.074 . S
C417 N50 1.095 . S
C425 N45 1.074 . S
C449 N77 1.076 . S
C457 N82 1.076 1_554 S
C481 N114 1.060 . S
C489 N109 1.085 . S
C513 N146 1.073 . S
C521 N141 1.077 . S
C545 N178 1.073 . S
C553 N173 1.087 1_554 S
C577 C4 1.520 . S
C585 C157 1.541 . S
C609 C61 1.553 . S
C617 C164 1.542 . S
C641 C29 1.559 . S
C649 C68 1.546 . S
C673 C36 1.513 . S
C681 C125 1.536 . S
C705 C132 1.516 . S
C713 C93 1.538 . S
C737 C100 1.532 . S
C745 C189 1.547 . S
