# Generated by pormake.
# Topology umg, (4)-cn, num edge types: 1
# Building blocks:
#     Node 0, Type 0, BuildingBlock: CEKHIL_clean_sbu_0, # of connection points: 4
#     Node 1, Type 0, BuildingBlock: CEKHIL_clean_sbu_0, # of connection points: 4
#     Node 2, Type 0, BuildingBlock: CEKHIL_clean_sbu_0, # of connection points: 4
#     Node 3, Type 0, BuildingBlock: CEKHIL_clean_sbu_0, # of connection points: 4
#     Node 4, Type 0, BuildingBlock: CEKHIL_clean_sbu_0, # of connection points: 4
#     Node 5, Type 0, BuildingBlock: CEKHIL_clean_sbu_0, # of connection points: 4
#     Node 6, Type 0, BuildingBlock: CEKHIL_clean_sbu_0, # of connection points: 4
#     Node 7, Type 0, BuildingBlock: CEKHIL_clean_sbu_0, # of connection points: 4
#     Node 8, Type 0, BuildingBlock: CEKHIL_clean_sbu_0, # of connection points: 4
#     Node 9, Type 0, BuildingBlock: CEKHIL_clean_sbu_0, # of connection points: 4
#     Node 10, Type 0, BuildingBlock: CEKHIL_clean_sbu_0, # of connection points: 4
#     Node 11, Type 0, BuildingBlock: CEKHIL_clean_sbu_0, # of connection points: 4
#     Edge 12, Type (0, 0), BuildingBlock: EZIPEK_clean_linker_0, # of connection points: 2
#     Edge 13, Type (0, 0), BuildingBlock: EZIPEK_clean_linker_0, # of connection points: 2
#     Edge 14, Type (0, 0), BuildingBlock: EZIPEK_clean_linker_0, # of connection points: 2
#     Edge 15, Type (0, 0), BuildingBlock: EZIPEK_clean_linker_0, # of connection points: 2
#     Edge 16, Type (0, 0), BuildingBlock: EZIPEK_clean_linker_0, # of connection points: 2
#     Edge 17, Type (0, 0), BuildingBlock: EZIPEK_clean_linker_0, # of connection points: 2
#     Edge 18, Type (0, 0), BuildingBlock: EZIPEK_clean_linker_0, # of connection points: 2
#     Edge 19, Type (0, 0), BuildingBlock: EZIPEK_clean_linker_0, # of connection points: 2
#     Edge 20, Type (0, 0), BuildingBlock: EZIPEK_clean_linker_0, # of connection points: 2
#     Edge 21, Type (0, 0), BuildingBlock: EZIPEK_clean_linker_0, # of connection points: 2
#     Edge 22, Type (0, 0), BuildingBlock: EZIPEK_clean_linker_0, # of connection points: 2
#     Edge 23, Type (0, 0), BuildingBlock: EZIPEK_clean_linker_0, # of connection points: 2
#     Edge 24, Type (0, 0), BuildingBlock: EZIPEK_clean_linker_0, # of connection points: 2
#     Edge 25, Type (0, 0), BuildingBlock: EZIPEK_clean_linker_0, # of connection points: 2
#     Edge 26, Type (0, 0), BuildingBlock: EZIPEK_clean_linker_0, # of connection points: 2
#     Edge 27, Type (0, 0), BuildingBlock: EZIPEK_clean_linker_0, # of connection points: 2
#     Edge 28, Type (0, 0), BuildingBlock: EZIPEK_clean_linker_0, # of connection points: 2
#     Edge 29, Type (0, 0), BuildingBlock: EZIPEK_clean_linker_0, # of connection points: 2
#     Edge 30, Type (0, 0), BuildingBlock: EZIPEK_clean_linker_0, # of connection points: 2
#     Edge 31, Type (0, 0), BuildingBlock: EZIPEK_clean_linker_0, # of connection points: 2
#     Edge 32, Type (0, 0), BuildingBlock: EZIPEK_clean_linker_0, # of connection points: 2
#     Edge 33, Type (0, 0), BuildingBlock: EZIPEK_clean_linker_0, # of connection points: 2
#     Edge 34, Type (0, 0), BuildingBlock: EZIPEK_clean_linker_0, # of connection points: 2
#     Edge 35, Type (0, 0), BuildingBlock: EZIPEK_clean_linker_0, # of connection points: 2
# Relax obj value: 0.085
# Max RMSD: 0.196
# Mean RMSD: 0.196
data_MOF--net-umg--node1-CEKHIL_clean_sbu_0--edge1-EZIPEK_clean_linker_0
_symmetry_space_group_name_H-M    P1
_symmetry_Int_Tables_number       1
_symmetry_cell_setting            triclinic
loop_
_symmetry_equiv_pos_as_xyz
'x, y, z'
_cell_length_a     20.791743
_cell_length_b     20.848536
_cell_length_c     60.520787
_cell_angle_alpha  89.928525
_cell_angle_beta   89.901024
_cell_angle_gamma 120.10377
loop_
_atom_site_label
_atom_site_type_symbol
_atom_site_fract_x
_atom_site_fract_y
_atom_site_fract_z
_atom_type_partial_charge
Co0 Co 0.30689 0.58599 0.08036 0.0
O1 O 0.4031 0.59403 0.08174 0.0
O2 O 0.3042 0.49975 0.06663 0.0
C3 C 0.30667 0.61627 0.11633 0.0
O4 O 0.19758 0.55931 0.07712 0.0
Co5 Co 0.29934 0.72714 0.08651 0.0
O6 O 0.1906 0.66229 0.08307 0.0
C7 C 0.34985 0.70382 0.0443 0.0
C8 C 0.37437 0.53086 0.07181 0.0
C9 C 0.16015 0.59329 0.07904 0.0
O10 O 0.3336 0.63905 0.05107 0.0
O11 O 0.34668 0.75187 0.05658 0.0
O12 O 0.28479 0.54872 0.11038 0.0
O13 O 0.33337 0.66511 0.10053 0.0
Co14 Co 0.73062 0.32102 0.41813 0.0
O15 O 0.80805 0.42324 0.42008 0.0
O16 O 0.8242 0.33377 0.4067 0.0
C17 C 0.68821 0.31373 0.45285 0.0
O18 O 0.66277 0.20801 0.41421 0.0
Co19 Co 0.56825 0.28256 0.42055 0.0
O20 O 0.54438 0.17823 0.42097 0.0
C21 C 0.64629 0.33309 0.37834 0.0
C22 C 0.85288 0.40366 0.41167 0.0
C23 C 0.5929 0.15993 0.41663 0.0
O24 O 0.70437 0.33987 0.38791 0.0
O25 O 0.58502 0.31256 0.38851 0.0
O26 O 0.74432 0.30463 0.44878 0.0
O27 O 0.66287 0.33367 0.43619 0.0
Co28 Co 0.41261 0.73718 0.75046 0.0
O29 O 0.39697 0.82089 0.75051 0.0
O30 O 0.49724 0.8242 0.737 0.0
C31 C 0.38015 0.70527 0.78611 0.0
O32 O 0.44595 0.65898 0.74879 0.0
Co33 Co 0.27342 0.58122 0.75742 0.0
O34 O 0.34668 0.5472 0.75723 0.0
C35 C 0.30227 0.65023 0.7136 0.0
C36 C 0.46158 0.85932 0.74138 0.0
C37 C 0.41527 0.58821 0.75243 0.0
O38 O 0.36325 0.70477 0.72083 0.0
O39 O 0.25509 0.59735 0.72584 0.0
O40 O 0.44623 0.75785 0.78085 0.0
O41 O 0.33324 0.67948 0.7699 0.0
Co42 Co 0.67703 0.39982 0.07906 0.0
O43 O 0.57329 0.37022 0.0809 0.0
O44 O 0.65913 0.47524 0.06594 0.0
C45 C 0.68665 0.37367 0.11484 0.0
O46 O 0.79032 0.4483 0.07502 0.0
Co47 Co 0.71908 0.27919 0.08548 0.0
O48 O 0.82275 0.36258 0.08299 0.0
C49 C 0.65871 0.28914 0.04293 0.0
C50 C 0.58984 0.4327 0.07173 0.0
C51 C 0.83947 0.42823 0.07756 0.0
O52 O 0.66074 0.34861 0.04967 0.0
O53 O 0.67137 0.24756 0.05559 0.0
O54 O 0.69285 0.43648 0.10925 0.0
O55 O 0.66794 0.32549 0.09909 0.0
Co56 Co 0.28967 0.68822 0.4161 0.0
O57 O 0.20469 0.58961 0.41596 0.0
O58 O 0.20426 0.68828 0.40273 0.0
C59 C 0.31922 0.68539 0.45181 0.0
O60 O 0.36917 0.79934 0.41471 0.0
Co61 Co 0.44397 0.70283 0.42293 0.0
O62 O 0.48006 0.81042 0.42323 0.0
C63 C 0.37527 0.66254 0.3792 0.0
C64 C 0.16762 0.61746 0.4071 0.0
C65 C 0.43996 0.83883 0.4185 0.0
O66 O 0.32192 0.67101 0.38642 0.0
O67 O 0.42754 0.66721 0.39145 0.0
O68 O 0.26824 0.70075 0.44636 0.0
O69 O 0.34543 0.66441 0.43563 0.0
Co70 Co 0.604 0.2966 0.74943 0.0
O71 O 0.62701 0.21773 0.75063 0.0
O72 O 0.52272 0.20464 0.73709 0.0
C73 C 0.63741 0.33413 0.78479 0.0
O74 O 0.56093 0.36642 0.74651 0.0
Co75 Co 0.73158 0.45727 0.75392 0.0
O76 O 0.65356 0.4846 0.75087 0.0
C77 C 0.71311 0.38205 0.712 0.0
C78 C 0.56264 0.17441 0.742 0.0
C79 C 0.58541 0.43695 0.74777 0.0
O80 O 0.65215 0.32747 0.7194 0.0
O81 O 0.75802 0.43689 0.72391 0.0
O82 O 0.57208 0.27912 0.78016 0.0
O83 O 0.68343 0.36056 0.76831 0.0
Co84 Co 0.41256 0.69332 0.58112 0.0
O85 O 0.39745 0.59431 0.58023 0.0
O86 O 0.49778 0.69095 0.59381 0.0
C87 C 0.37853 0.6933 0.54552 0.0
O88 O 0.44743 0.80457 0.58382 0.0
Co89 Co 0.27686 0.7127 0.57599 0.0
O90 O 0.34897 0.82011 0.57813 0.0
C91 C 0.30332 0.66677 0.61883 0.0
C92 C 0.46223 0.62045 0.58914 0.0
C93 C 0.41768 0.8459 0.58199 0.0
O94 O 0.3641 0.67372 0.61114 0.0
O95 O 0.25643 0.67398 0.60704 0.0
O96 O 0.44556 0.70969 0.55058 0.0
O97 O 0.33154 0.67064 0.56184 0.0
Co98 Co 0.73676 0.40963 0.91394 0.0
O99 O 0.82187 0.39609 0.91424 0.0
O100 O 0.81968 0.49063 0.92972 0.0
C101 C 0.71211 0.38633 0.87771 0.0
O102 O 0.65673 0.44065 0.91549 0.0
Co103 Co 0.58405 0.27122 0.90399 0.0
O104 O 0.54612 0.34083 0.90671 0.0
C105 C 0.64411 0.29007 0.94853 0.0
C106 C 0.85738 0.45785 0.92492 0.0
C107 C 0.58577 0.40898 0.91186 0.0
O108 O 0.69935 0.35269 0.9425 0.0
O109 O 0.59345 0.24552 0.93533 0.0
O110 O 0.76287 0.4513 0.88439 0.0
O111 O 0.68427 0.33517 0.8928 0.0
Co112 Co 0.32919 0.72308 0.24657 0.0
O113 O 0.43082 0.80217 0.24459 0.0
O114 O 0.3408 0.816 0.25847 0.0
C115 C 0.32266 0.68794 0.21043 0.0
O116 O 0.21675 0.65086 0.25012 0.0
Co117 Co 0.30357 0.56841 0.2421 0.0
O118 O 0.19719 0.53805 0.24063 0.0
C119 C 0.35382 0.63982 0.28452 0.0
C120 C 0.41062 0.84646 0.25274 0.0
C121 C 0.17312 0.58127 0.2459 0.0
O122 O 0.35011 0.69492 0.27652 0.0
O123 O 0.34232 0.58381 0.27301 0.0
O124 O 0.30865 0.73881 0.21668 0.0
O125 O 0.34663 0.66275 0.22621 0.0
Co126 Co 0.60193 0.3242 0.58153 0.0
O127 O 0.62658 0.42629 0.57948 0.0
O128 O 0.52289 0.33737 0.59434 0.0
C129 C 0.6308 0.31538 0.54602 0.0
O130 O 0.55753 0.21168 0.58553 0.0
Co131 Co 0.72785 0.28896 0.57629 0.0
O132 O 0.64883 0.18452 0.58057 0.0
C133 C 0.71294 0.34807 0.61825 0.0
C134 C 0.56313 0.40683 0.58863 0.0
C135 C 0.58131 0.16513 0.58447 0.0
O136 O 0.65268 0.34356 0.61109 0.0
O137 O 0.75621 0.33587 0.60622 0.0
O138 O 0.56651 0.30675 0.55125 0.0
O139 O 0.67889 0.33653 0.56191 0.0
Co140 Co 0.29074 0.59439 0.91485 0.0
O141 O 0.21052 0.61594 0.91526 0.0
O142 O 0.20266 0.51593 0.92955 0.0
C143 C 0.32148 0.6243 0.87887 0.0
O144 O 0.36113 0.5517 0.91663 0.0
Co145 Co 0.45061 0.72058 0.90778 0.0
O146 O 0.47955 0.64444 0.91262 0.0
C147 C 0.38363 0.70621 0.9508 0.0
C148 C 0.17037 0.5547 0.92603 0.0
C149 C 0.43193 0.57649 0.91577 0.0
O150 O 0.32734 0.64561 0.94414 0.0
O151 O 0.43755 0.74947 0.93825 0.0
O152 O 0.26726 0.55942 0.88454 0.0
O153 O 0.35121 0.67168 0.89483 0.0
Co154 Co 0.69498 0.28572 0.24336 0.0
O155 O 0.5952 0.20204 0.24221 0.0
O156 O 0.6922 0.19784 0.25543 0.0
C157 C 0.69722 0.32468 0.20839 0.0
O158 O 0.80712 0.36024 0.24652 0.0
Co159 Co 0.7209 0.4425 0.24078 0.0
O160 O 0.82813 0.47649 0.2423 0.0
C161 C 0.67727 0.36653 0.2832 0.0
C162 C 0.62136 0.16334 0.25108 0.0
C163 C 0.85124 0.43116 0.24539 0.0
O164 O 0.67469 0.31054 0.2736 0.0
O165 O 0.69292 0.42624 0.27295 0.0
O166 O 0.7114 0.27213 0.21269 0.0
O167 O 0.67455 0.34787 0.22498 0.0
C168 C 0.43702 0.71557 0.98857 0.0
C169 C 0.38678 0.72357 0.97454 0.0
C170 C 0.31738 0.72815 0.00655 0.0
C171 C 0.36777 0.72057 0.02064 0.0
N172 N 0.48458 0.72464 0.02573 0.0
N173 N 0.29321 0.75793 0.96987 0.0
C174 C 0.43073 0.72015 0.01182 0.0
C175 C 0.33161 0.73677 0.9835 0.0
N176 N 0.4879 0.69947 0.97978 0.0
N177 N 0.25336 0.72199 0.01493 0.0
H178 H 0.30345 0.76548 0.9529 0.0
H179 H 0.25691 0.77499 0.9756 0.0
H180 H 0.23992 0.71473 0.03169 0.0
H181 H 0.21056 0.71809 0.00506 0.0
H182 H 0.51922 0.68338 0.98923 0.0
H183 H 0.49577 0.69765 0.96283 0.0
H184 H 0.53517 0.7314 0.02029 0.0
H185 H 0.48139 0.72823 0.04285 0.0
C186 C 0.62292 0.38308 0.34268 0.0
C187 C 0.64973 0.34122 0.35391 0.0
C188 C 0.70609 0.33156 0.3197 0.0
C189 C 0.66991 0.36281 0.30767 0.0
N190 N 0.58134 0.40583 0.30767 0.0
N191 N 0.69459 0.25443 0.35068 0.0
C192 C 0.62472 0.38531 0.31911 0.0
C193 C 0.6846 0.30901 0.3417 0.0
N194 N 0.59852 0.42285 0.35432 0.0
N195 N 0.76317 0.32588 0.31054 0.0
H196 H 0.67388 0.23114 0.36617 0.0
H197 H 0.71484 0.22594 0.34153 0.0
H198 H 0.78534 0.34717 0.29499 0.0
H199 H 0.79446 0.3086 0.31959 0.0
H200 H 0.5851 0.45967 0.34684 0.0
H201 H 0.5987 0.42473 0.37153 0.0
H202 H 0.5423 0.41588 0.31531 0.0
H203 H 0.57896 0.40563 0.29047 0.0
C204 C 0.28394 0.70521 0.67922 0.0
C205 C 0.28937 0.64707 0.68951 0.0
C206 C 0.28621 0.59316 0.65324 0.0
C207 C 0.29097 0.65655 0.64297 0.0
N208 N 0.30512 0.77864 0.64618 0.0
N209 N 0.30528 0.54022 0.68648 0.0
C210 C 0.29186 0.71386 0.65592 0.0
C211 C 0.29223 0.59163 0.6766 0.0
N212 N 0.27059 0.75182 0.69177 0.0
N213 N 0.27513 0.53412 0.64062 0.0
H214 H 0.31006 0.53684 0.70353 0.0
H215 H 0.31728 0.50455 0.67771 0.0
H216 H 0.27034 0.53355 0.62345 0.0
H217 H 0.26394 0.48342 0.64725 0.0
H218 H 0.25879 0.7908 0.68507 0.0
H219 H 0.26435 0.74675 0.70891 0.0
H220 H 0.31566 0.82563 0.65509 0.0
H221 H 0.31206 0.78813 0.62921 0.0
C222 C 0.69797 0.26367 0.00583 0.0
C223 C 0.64531 0.27154 0.01897 0.0
C224 C 0.58457 0.2808 0.98537 0.0
C225 C 0.63671 0.2723 0.97239 0.0
N226 N 0.72872 0.23516 0.96982 0.0
N227 N 0.52701 0.26623 0.02131 0.0
C228 C 0.68857 0.25674 0.98253 0.0
C229 C 0.58477 0.2731 0.00871 0.0
N230 N 0.75992 0.26826 0.0152 0.0
N231 N 0.53751 0.30013 0.97556 0.0
H232 H 0.52472 0.25856 0.0384 0.0
H233 H 0.47822 0.26049 0.01466 0.0
H234 H 0.53453 0.30497 0.95849 0.0
H235 H 0.50507 0.3164 0.98441 0.0
H236 H 0.8044 0.2728 0.006 0.0
H237 H 0.77044 0.27356 0.03208 0.0
H238 H 0.7622 0.21587 0.97638 0.0
H239 H 0.72285 0.22981 0.95268 0.0
C240 C 0.43061 0.69649 0.3184 0.0
C241 C 0.36505 0.63889 0.30867 0.0
C242 C 0.31667 0.58717 0.34541 0.0
C243 C 0.37708 0.6504 0.35515 0.0
N244 N 0.48749 0.77063 0.35102 0.0
N245 N 0.24016 0.53505 0.31297 0.0
C246 C 0.43359 0.70623 0.34171 0.0
C247 C 0.30682 0.58509 0.32215 0.0
N248 N 0.49026 0.74137 0.30535 0.0
N249 N 0.26897 0.52883 0.35843 0.0
H250 H 0.22958 0.53195 0.29606 0.0
H251 H 0.19299 0.50077 0.32229 0.0
H252 H 0.27491 0.52861 0.37555 0.0
H253 H 0.22805 0.47819 0.35213 0.0
H254 H 0.54217 0.7797 0.31162 0.0
H255 H 0.4898 0.73541 0.28822 0.0
H256 H 0.52461 0.81678 0.3418 0.0
H257 H 0.49168 0.78048 0.36798 0.0
C258 C 0.73121 0.43707 0.67389 0.0
C259 C 0.72956 0.38207 0.68819 0.0
C260 C 0.72869 0.30938 0.65631 0.0
C261 C 0.72989 0.36418 0.64202 0.0
N262 N 0.75172 0.48794 0.63677 0.0
N263 N 0.74646 0.27702 0.69344 0.0
C264 C 0.73754 0.43066 0.65073 0.0
C265 C 0.73477 0.3218 0.67948 0.0
N266 N 0.72228 0.49302 0.68225 0.0
N267 N 0.71724 0.24358 0.64795 0.0
H268 H 0.75181 0.28528 0.7105 0.0
H269 H 0.75801 0.23646 0.68802 0.0
H270 H 0.71408 0.23229 0.63111 0.0
H271 H 0.70577 0.19793 0.65774 0.0
H272 H 0.71285 0.52857 0.67246 0.0
H273 H 0.71933 0.50132 0.69909 0.0
H274 H 0.76506 0.54057 0.64219 0.0
H275 H 0.75726 0.48491 0.61972 0.0
C276 C 0.3207 0.71937 0.1697 0.0
C277 C 0.32215 0.67065 0.18619 0.0
C278 C 0.33251 0.59805 0.15598 0.0
C279 C 0.31399 0.63672 0.14021 0.0
N280 N 0.27024 0.72311 0.13441 0.0
N281 N 0.30637 0.54847 0.19276 0.0
C282 C 0.30182 0.6939 0.14774 0.0
C283 C 0.32161 0.60555 0.17876 0.0
N284 N 0.34126 0.79136 0.1741 0.0
N285 N 0.36316 0.55643 0.14957 0.0
H286 H 0.2871 0.54595 0.2087 0.0
H287 H 0.30136 0.49869 0.18734 0.0
H288 H 0.37985 0.55567 0.13338 0.0
H289 H 0.38151 0.53146 0.16093 0.0
H290 H 0.34511 0.82822 0.16179 0.0
H291 H 0.36565 0.81815 0.18871 0.0
H292 H 0.25469 0.76062 0.14011 0.0
H293 H 0.25092 0.70267 0.11876 0.0
C294 C 0.68875 0.38338 0.48686 0.0
C295 C 0.6661 0.31488 0.47606 0.0
C296 C 0.63599 0.25125 0.51178 0.0
C297 C 0.65122 0.3177 0.52244 0.0
N298 N 0.68363 0.446 0.52001 0.0
N299 N 0.6018 0.18174 0.47778 0.0
C300 C 0.67499 0.38356 0.50992 0.0
C301 C 0.63494 0.24827 0.48842 0.0
N302 N 0.72631 0.44846 0.47535 0.0
N303 N 0.62489 0.19153 0.52396 0.0
H304 H 0.59669 0.17831 0.46069 0.0
H305 H 0.57205 0.13087 0.48585 0.0
H306 H 0.62854 0.19354 0.54106 0.0
H307 H 0.62029 0.14358 0.5171 0.0
H308 H 0.75192 0.50037 0.48284 0.0
H309 H 0.73639 0.45069 0.45841 0.0
H310 H 0.69184 0.49277 0.51137 0.0
H311 H 0.67831 0.44952 0.53703 0.0
C312 C 0.41419 0.67141 0.82221 0.0
C313 C 0.36158 0.67989 0.80944 0.0
C314 C 0.28074 0.64834 0.8421 0.0
C315 C 0.33655 0.64652 0.8552 0.0
N316 N 0.46272 0.67203 0.85841 0.0
N317 N 0.2527 0.6935 0.80872 0.0
C318 C 0.40522 0.66303 0.84546 0.0
C319 C 0.29651 0.6723 0.81969 0.0
N320 N 0.47166 0.66861 0.81212 0.0
N321 N 0.21301 0.6288 0.85115 0.0
H322 H 0.26387 0.71528 0.79278 0.0
H323 H 0.20944 0.69698 0.81622 0.0
H324 H 0.20118 0.61821 0.86794 0.0
H325 H 0.16716 0.61927 0.84173 0.0
H326 H 0.5066 0.65424 0.82036 0.0
H327 H 0.47954 0.67176 0.79507 0.0
H328 H 0.5168 0.69274 0.85261 0.0
H329 H 0.45782 0.66536 0.87539 0.0
C330 C 0.75621 0.39473 0.1502 0.0
C331 C 0.68835 0.35591 0.13853 0.0
C332 C 0.62378 0.29805 0.17327 0.0
C333 C 0.69085 0.34247 0.18504 0.0
N334 N 0.81624 0.44504 0.18514 0.0
N335 N 0.5547 0.27923 0.13929 0.0
C336 C 0.75564 0.3945 0.17361 0.0
C337 C 0.62117 0.30972 0.15014 0.0
N338 N 0.82177 0.42913 0.13887 0.0
N339 N 0.56305 0.24367 0.18408 0.0
H340 H 0.55055 0.28547 0.12235 0.0
H341 H 0.50344 0.25218 0.14732 0.0
H342 H 0.56172 0.23595 0.20114 0.0
H343 H 0.51566 0.20361 0.176 0.0
H344 H 0.8737 0.45281 0.14641 0.0
H345 H 0.82361 0.42586 0.12178 0.0
H346 H 0.86297 0.48886 0.17776 0.0
H347 H 0.81599 0.44759 0.20227 0.0
C348 C 0.33767 0.73531 0.51227 0.0
C349 C 0.35575 0.68473 0.52194 0.0
C350 C 0.3459 0.62897 0.48541 0.0
C351 C 0.33969 0.68757 0.47547 0.0
N352 N 0.34884 0.80733 0.47985 0.0
N353 N 0.383 0.58564 0.51746 0.0
C354 C 0.34135 0.74398 0.48904 0.0
C355 C 0.36242 0.63269 0.50838 0.0
N356 N 0.31476 0.77369 0.5251 0.0
N357 N 0.33081 0.56724 0.47354 0.0
H358 H 0.38813 0.58108 0.53444 0.0
H359 H 0.39832 0.55369 0.508 0.0
H360 H 0.31442 0.55947 0.45708 0.0
H361 H 0.32695 0.51993 0.48068 0.0
H362 H 0.29497 0.80688 0.51863 0.0
H363 H 0.30711 0.76493 0.54201 0.0
H364 H 0.35723 0.85272 0.48927 0.0
H365 H 0.3557 0.81821 0.46294 0.0
C366 C 0.69879 0.31595 0.84267 0.0
C367 C 0.69264 0.37234 0.85395 0.0
C368 C 0.66378 0.41208 0.8189 0.0
C369 C 0.66202 0.35088 0.80815 0.0
N370 N 0.67312 0.24122 0.80972 0.0
N371 N 0.66379 0.47115 0.85333 0.0
C372 C 0.67793 0.30174 0.82005 0.0
C373 C 0.67419 0.42 0.84217 0.0
N374 N 0.72946 0.27939 0.85308 0.0
N375 N 0.65622 0.46314 0.8068 0.0
H376 H 0.66979 0.47852 0.87037 0.0
H377 H 0.6423 0.50183 0.84618 0.0
H378 H 0.64591 0.45722 0.78996 0.0
H379 H 0.66565 0.51375 0.81292 0.0
H380 H 0.7431 0.24369 0.84504 0.0
H381 H 0.74826 0.28984 0.86935 0.0
H382 H 0.67329 0.19764 0.8181 0.0
H383 H 0.66523 0.23263 0.79276 0.0
C384 C 0.95859 0.53359 0.09183 0.0
C385 C 0.92024 0.4824 0.07474 0.0
C386 C 0.04042 0.51083 0.05837 0.0
C387 C 0.07734 0.55153 0.07762 0.0
N388 N 0.06808 0.58864 0.11478 0.0
N389 N 0.92358 0.42192 0.04128 0.0
C390 C 0.03548 0.55976 0.09488 0.0
C391 C 0.96104 0.471 0.05784 0.0
N392 N 0.92194 0.55777 0.10508 0.0
N393 N 0.08089 0.51277 0.0403 0.0
H394 H 0.86621 0.39774 0.03935 0.0
H395 H 0.9488 0.40365 0.03002 0.0
H396 H 0.13885 0.54229 0.03995 0.0
H397 H 0.05722 0.49036 0.02506 0.0
H398 H 0.94887 0.6 0.11664 0.0
H399 H 0.86607 0.54132 0.10283 0.0
H400 H 0.03833 0.58939 0.12856 0.0
H401 H 0.12291 0.60361 0.11831 0.0
C402 C 0.57703 0.04115 0.4321 0.0
C403 C 0.56491 0.0789 0.41461 0.0
C404 C 0.47609 0.9586 0.39799 0.0
C405 C 0.47924 0.92164 0.41737 0.0
N406 N 0.52476 0.93056 0.45467 0.0
N407 N 0.50082 0.07437 0.38098 0.0
C408 C 0.52784 0.96374 0.43488 0.0
C409 C 0.51367 0.03772 0.39758 0.0
N410 N 0.63591 0.07891 0.44601 0.0
N411 N 0.44077 0.91862 0.37956 0.0
H412 H 0.53151 0.1319 0.37917 0.0
H413 H 0.45762 0.04806 0.36967 0.0
H414 H 0.41456 0.86097 0.3789 0.0
H415 H 0.44337 0.9428 0.36427 0.0
H416 H 0.65148 0.05288 0.45781 0.0
H417 H 0.6739 0.1353 0.44421 0.0
H418 H 0.55283 0.96014 0.46872 0.0
H419 H 0.48838 0.87453 0.45781 0.0
C420 C 0.5353 0.51137 0.72944 0.0
C421 C 0.53303 0.46613 0.74735 0.0
C422 C 0.45904 0.5057 0.76903 0.0
C423 C 0.45959 0.54981 0.7509 0.0
N424 N 0.48454 0.58171 0.71226 0.0
N425 N 0.48199 0.40932 0.78258 0.0
C426 C 0.49426 0.54939 0.73067 0.0
C427 C 0.49128 0.45977 0.7666 0.0
N428 N 0.57714 0.5181 0.71122 0.0
N429 N 0.43008 0.50976 0.78895 0.0
H430 H 0.50606 0.37598 0.78169 0.0
H431 H 0.44541 0.39564 0.79584 0.0
H432 H 0.40365 0.54032 0.79146 0.0
H433 H 0.43693 0.48742 0.80354 0.0
H434 H 0.5897 0.55739 0.69884 0.0
H435 H 0.60179 0.48566 0.70894 0.0
H436 H 0.501 0.57612 0.69647 0.0
H437 H 0.45445 0.60938 0.71234 0.0
C438 C 0.5289 0.04333 0.60462 0.0
C439 C 0.52863 0.08399 0.58579 0.0
C440 C 0.46844 0.96976 0.56414 0.0
C441 C 0.46406 0.92801 0.58318 0.0
N442 N 0.48054 0.92305 0.62243 0.0
N443 N 0.48033 0.08349 0.54965 0.0
C444 C 0.49179 0.96423 0.60373 0.0
C445 C 0.49248 0.0463 0.56621 0.0
N446 N 0.56501 0.08067 0.62328 0.0
N447 N 0.45281 0.93675 0.54385 0.0
H448 H 0.49548 0.13919 0.55096 0.0
H449 H 0.44857 0.05743 0.53572 0.0
H450 H 0.43997 0.88198 0.54169 0.0
H451 H 0.46115 0.96568 0.52909 0.0
H452 H 0.57536 0.05593 0.63671 0.0
H453 H 0.58658 0.13764 0.62495 0.0
H454 H 0.4919 0.94533 0.63828 0.0
H455 H 0.4557 0.86542 0.62219 0.0
C456 C 0.49606 0.51722 0.93498 0.0
C457 C 0.46104 0.52428 0.91578 0.0
C458 C 0.50494 0.45356 0.89437 0.0
C459 C 0.54616 0.45224 0.91307 0.0
N460 N 0.58106 0.48234 0.95132 0.0
N461 N 0.43459 0.50379 0.87692 0.0
C462 C 0.54195 0.48426 0.93342 0.0
C463 C 0.46561 0.49305 0.89547 0.0
N464 N 0.48316 0.54018 0.95481 0.0
N465 N 0.50226 0.41606 0.87553 0.0
H466 H 0.40027 0.5269 0.87735 0.0
H467 H 0.44546 0.49325 0.86095 0.0
H468 H 0.53415 0.39106 0.87297 0.0
H469 H 0.46521 0.40592 0.86267 0.0
H470 H 0.50174 0.53236 0.96997 0.0
H471 H 0.44805 0.56223 0.95631 0.0
H472 H 0.587 0.51089 0.96594 0.0
H473 H 0.61071 0.45424 0.95139 0.0
C474 C 0.05183 0.5424 0.26589 0.0
C475 C 0.09082 0.54802 0.24603 0.0
C476 C 0.97274 0.46285 0.22777 0.0
C477 C 0.93319 0.46339 0.24679 0.0
N478 N 0.93393 0.50972 0.28333 0.0
N479 N 0.08744 0.52626 0.2068 0.0
C480 C 0.97248 0.50518 0.26567 0.0
C481 C 0.05087 0.51173 0.22661 0.0
N482 N 0.09022 0.56949 0.28516 0.0
N483 N 0.93586 0.41497 0.21087 0.0
H484 H 0.14428 0.56363 0.20516 0.0
H485 H 0.06039 0.50746 0.19172 0.0
H486 H 0.87886 0.37757 0.21128 0.0
H487 H 0.9627 0.40712 0.19748 0.0
H488 H 0.06475 0.55955 0.3006 0.0
H489 H 0.14811 0.5974 0.28595 0.0
H490 H 0.95911 0.54598 0.29648 0.0
H491 H 0.876 0.48004 0.28426 0.0
C492 C 0.49133 0.45019 0.09004 0.0
C493 C 0.53287 0.45628 0.07064 0.0
C494 C 0.46371 0.50525 0.0505 0.0
C495 C 0.41915 0.49376 0.06954 0.0
N496 N 0.37839 0.43855 0.10547 0.0
N497 N 0.54881 0.47637 0.03125 0.0
C498 C 0.42894 0.46042 0.08861 0.0
C499 C 0.51638 0.48015 0.05048 0.0
N500 N 0.51422 0.43952 0.11019 0.0
N501 N 0.45691 0.54169 0.03269 0.0
H502 H 0.58658 0.45736 0.03061 0.0
H503 H 0.53366 0.4861 0.01576 0.0
H504 H 0.41667 0.55757 0.0319 0.0
H505 H 0.49342 0.5595 0.0193 0.0
H506 H 0.49036 0.44216 0.12507 0.0
H507 H 0.56238 0.43663 0.11241 0.0
H508 H 0.37858 0.40748 0.11894 0.0
H509 H 0.33165 0.44476 0.10482 0.0
C510 C 0.97232 0.46999 0.38917 0.0
C511 C 0.93378 0.459 0.40954 0.0
C512 C 0.044 0.56663 0.42513 0.0
C513 C 0.08532 0.57149 0.40596 0.0
N514 N 0.09183 0.52404 0.37032 0.0
N515 N 0.9394 0.48733 0.44847 0.0
C516 C 0.0503 0.52203 0.38811 0.0
C517 C 0.97127 0.50504 0.42792 0.0
N518 N 0.93413 0.43324 0.37066 0.0
N519 N 0.07439 0.62099 0.44079 0.0
H520 H 0.88826 0.44005 0.45166 0.0
H521 H 0.96733 0.51466 0.4628 0.0
H522 H 0.12738 0.66726 0.43919 0.0
H523 H 0.04427 0.62417 0.4541 0.0
H524 H 0.95773 0.4444 0.35493 0.0
H525 H 0.87705 0.39601 0.37068 0.0
H526 H 0.07174 0.48409 0.35792 0.0
H527 H 0.14797 0.56389 0.36863 0.0
C528 C 0.51688 0.05434 0.72042 0.0
C529 C 0.53413 0.09286 0.74089 0.0
C530 C 0.52143 0.98269 0.75973 0.0
C531 C 0.49601 0.94147 0.73992 0.0
N532 N 0.46193 0.93506 0.70166 0.0
N533 N 0.53524 0.08735 0.7807 0.0
C534 C 0.49166 0.97649 0.72027 0.0
C535 C 0.5317 0.05524 0.76072 0.0
N536 N 0.5269 0.09244 0.70115 0.0
N537 N 0.53692 0.9528 0.77764 0.0
H538 H 0.5381 0.1385 0.78219 0.0
H539 H 0.52663 0.05976 0.79573 0.0
H540 H 0.5318 0.90045 0.77732 0.0
H541 H 0.56252 0.98288 0.79186 0.0
H542 H 0.52277 0.06939 0.68559 0.0
H543 H 0.54464 0.14894 0.70076 0.0
H544 H 0.44968 0.95516 0.68748 0.0
H545 H 0.44562 0.8789 0.70091 0.0
C546 C 0.4926 0.53399 0.61019 0.0
C547 C 0.49655 0.57285 0.59047 0.0
C548 C 0.53361 0.49573 0.56971 0.0
C549 C 0.5358 0.46066 0.58962 0.0
N550 N 0.5287 0.45433 0.62939 0.0
N551 N 0.53648 0.60211 0.5526 0.0
C552 C 0.51829 0.48186 0.61008 0.0
C553 C 0.52211 0.55725 0.57061 0.0
N554 N 0.46267 0.54561 0.62882 0.0
N555 N 0.53863 0.46782 0.54975 0.0
H556 H 0.52984 0.64846 0.55278 0.0
H557 H 0.56225 0.59805 0.53832 0.0
H558 H 0.54352 0.42068 0.54823 0.0
H559 H 0.52972 0.4863 0.53469 0.0
H560 H 0.4505 0.51335 0.64304 0.0
H561 H 0.44599 0.58518 0.62956 0.0
H562 H 0.52438 0.47333 0.64492 0.0
H563 H 0.54722 0.4162 0.62986 0.0
C564 C 0.06811 0.58516 0.93122 0.0
C565 C 0.09118 0.53147 0.93269 0.0
C566 C 0.95953 0.43729 0.93888 0.0
C567 C 0.93731 0.48735 0.93086 0.0
N568 N 0.97432 0.61074 0.91758 0.0
N569 N 0.05486 0.40382 0.94158 0.0
C570 C 0.99246 0.56211 0.92679 0.0
C571 C 0.03595 0.45679 0.9378 0.0
N572 N 0.11774 0.65818 0.93506 0.0
N573 N 0.9078 0.37223 0.94851 0.0
H574 H 0.10818 0.41538 0.94549 0.0
H575 H 0.01625 0.34725 0.94121 0.0
H576 H 0.85254 0.35847 0.95065 0.0
H577 H 0.9211 0.33636 0.95664 0.0
H578 H 0.1023 0.69863 0.93571 0.0
H579 H 0.17131 0.67598 0.94082 0.0
H580 H 0.01442 0.66361 0.91232 0.0
H581 H 0.92035 0.59657 0.91328 0.0
C582 C 0.5127 0.96212 0.23458 0.0
C583 C 0.46479 0.92833 0.25315 0.0
C584 C 0.52222 0.05054 0.27124 0.0
C585 C 0.57325 0.08181 0.2534 0.0
N586 N 0.62768 0.0642 0.22049 0.0
N587 N 0.4356 0.93874 0.29115 0.0
C588 C 0.57207 0.03638 0.23595 0.0
C589 C 0.47253 0.97213 0.27207 0.0
N590 N 0.49898 0.92521 0.21497 0.0
N591 N 0.52092 0.09584 0.28731 0.0
H592 H 0.401 0.88157 0.29265 0.0
H593 H 0.44469 0.96679 0.30607 0.0
H594 H 0.55892 0.15266 0.28775 0.0
H595 H 0.4797 0.07789 0.2994 0.0
H596 H 0.52647 0.95025 0.2003 0.0
H597 H 0.45479 0.87201 0.21258 0.0
H598 H 0.63441 0.03118 0.20886 0.0
H599 H 0.67133 0.11895 0.22054 0.0
loop_
_geom_bond_atom_site_label_1
_geom_bond_atom_site_label_2
_geom_bond_distance
_geom_bond_site_symmetry_2
_ccdc_geom_bond_type
Co0 O1 2.216 . S
Co0 O2 2.091 . S
Co0 O4 2.004 . S
Co0 O10 2.021 . S
Co0 O12 2.137 . S
Co0 O13 2.244 . S
O1 Co0 2.216 . S
O1 C8 1.247 . S
O2 Co0 2.091 . S
O2 C8 1.261 . S
C3 O12 1.247 . S
C3 O13 1.272 . S
O4 Co0 2.004 . S
O4 C9 1.259 . S
Co5 O6 2.061 . S
Co5 O11 2.052 . S
Co5 O13 2.135 . S
O6 Co5 2.061 . S
O6 C9 1.235 . S
C7 O10 1.238 . S
C7 O11 1.241 . S
C8 O1 1.247 . S
C8 O2 1.261 . S
C9 O4 1.259 . S
C9 O6 1.235 . S
O10 Co0 2.021 . S
O10 C7 1.238 . S
O11 Co5 2.052 . S
O11 C7 1.241 . S
O12 Co0 2.137 . S
O12 C3 1.247 . S
O13 Co0 2.244 . S
O13 C3 1.272 . S
O13 Co5 2.135 . S
Co14 O15 2.216 . S
Co14 O16 2.091 . S
Co14 O18 2.004 . S
Co14 O24 2.021 . S
Co14 O26 2.137 . S
Co14 O27 2.244 . S
O15 Co14 2.216 . S
O15 C22 1.247 . S
O16 Co14 2.091 . S
O16 C22 1.261 . S
C17 O26 1.247 . S
C17 O27 1.272 . S
O18 Co14 2.004 . S
O18 C23 1.259 . S
Co19 O20 2.061 . S
Co19 O25 2.052 . S
Co19 O27 2.135 . S
O20 Co19 2.061 . S
O20 C23 1.235 . S
C21 O24 1.238 . S
C21 O25 1.241 . S
C22 O15 1.247 . S
C22 O16 1.261 . S
C23 O18 1.259 . S
C23 O20 1.235 . S
O24 Co14 2.021 . S
O24 C21 1.238 . S
O25 Co19 2.052 . S
O25 C21 1.241 . S
O26 Co14 2.137 . S
O26 C17 1.247 . S
O27 Co14 2.244 . S
O27 C17 1.272 . S
O27 Co19 2.135 . S
Co28 O29 2.216 . S
Co28 O30 2.091 . S
Co28 O32 2.004 . S
Co28 O38 2.021 . S
Co28 O40 2.137 . S
Co28 O41 2.244 . S
O29 Co28 2.216 . S
O29 C36 1.247 . S
O30 Co28 2.091 . S
O30 C36 1.261 . S
C31 O40 1.247 . S
C31 O41 1.272 . S
O32 Co28 2.004 . S
O32 C37 1.259 . S
Co33 O34 2.061 . S
Co33 O39 2.052 . S
Co33 O41 2.135 . S
O34 Co33 2.061 . S
O34 C37 1.235 . S
C35 O38 1.238 . S
C35 O39 1.241 . S
C36 O29 1.247 . S
C36 O30 1.261 . S
C37 O32 1.259 . S
C37 O34 1.235 . S
O38 Co28 2.021 . S
O38 C35 1.238 . S
O39 Co33 2.052 . S
O39 C35 1.241 . S
O40 Co28 2.137 . S
O40 C31 1.247 . S
O41 Co28 2.244 . S
O41 C31 1.272 . S
O41 Co33 2.135 . S
Co42 O43 2.216 . S
Co42 O44 2.091 . S
Co42 O46 2.004 . S
Co42 O52 2.021 . S
Co42 O54 2.137 . S
Co42 O55 2.244 . S
O43 Co42 2.216 . S
O43 C50 1.247 . S
O44 Co42 2.091 . S
O44 C50 1.261 . S
C45 O54 1.247 . S
C45 O55 1.272 . S
O46 Co42 2.004 . S
O46 C51 1.259 . S
Co47 O48 2.061 . S
Co47 O53 2.052 . S
Co47 O55 2.135 . S
O48 Co47 2.061 . S
O48 C51 1.235 . S
C49 O52 1.238 . S
C49 O53 1.241 . S
C50 O43 1.247 . S
C50 O44 1.261 . S
C51 O46 1.259 . S
C51 O48 1.235 . S
O52 Co42 2.021 . S
O52 C49 1.238 . S
O53 Co47 2.052 . S
O53 C49 1.241 . S
O54 Co42 2.137 . S
O54 C45 1.247 . S
O55 Co42 2.244 . S
O55 C45 1.272 . S
O55 Co47 2.135 . S
Co56 O57 2.216 . S
Co56 O58 2.091 . S
Co56 O60 2.004 . S
Co56 O66 2.021 . S
Co56 O68 2.137 . S
Co56 O69 2.244 . S
O57 Co56 2.216 . S
O57 C64 1.247 . S
O58 Co56 2.091 . S
O58 C64 1.261 . S
C59 O68 1.247 . S
C59 O69 1.272 . S
O60 Co56 2.004 . S
O60 C65 1.259 . S
Co61 O62 2.061 . S
Co61 O67 2.052 . S
Co61 O69 2.135 . S
O62 Co61 2.061 . S
O62 C65 1.235 . S
C63 O66 1.238 . S
C63 O67 1.241 . S
C64 O57 1.247 . S
C64 O58 1.261 . S
C65 O60 1.259 . S
C65 O62 1.235 . S
O66 Co56 2.021 . S
O66 C63 1.238 . S
O67 Co61 2.052 . S
O67 C63 1.241 . S
O68 Co56 2.137 . S
O68 C59 1.247 . S
O69 Co56 2.244 . S
O69 C59 1.272 . S
O69 Co61 2.135 . S
Co70 O71 2.216 . S
Co70 O72 2.091 . S
Co70 O74 2.004 . S
Co70 O80 2.021 . S
Co70 O82 2.137 . S
Co70 O83 2.244 . S
O71 Co70 2.216 . S
O71 C78 1.247 . S
O72 Co70 2.091 . S
O72 C78 1.261 . S
C73 O82 1.247 . S
C73 O83 1.272 . S
O74 Co70 2.004 . S
O74 C79 1.259 . S
Co75 O76 2.061 . S
Co75 O81 2.052 . S
Co75 O83 2.135 . S
O76 Co75 2.061 . S
O76 C79 1.235 . S
C77 O80 1.238 . S
C77 O81 1.241 . S
C78 O71 1.247 . S
C78 O72 1.261 . S
C79 O74 1.259 . S
C79 O76 1.235 . S
O80 Co70 2.021 . S
O80 C77 1.238 . S
O81 Co75 2.052 . S
O81 C77 1.241 . S
O82 Co70 2.137 . S
O82 C73 1.247 . S
O83 Co70 2.244 . S
O83 C73 1.272 . S
O83 Co75 2.135 . S
Co84 O85 2.216 . S
Co84 O86 2.091 . S
Co84 O88 2.004 . S
Co84 O94 2.021 . S
Co84 O96 2.137 . S
Co84 O97 2.244 . S
O85 Co84 2.216 . S
O85 C92 1.247 . S
O86 Co84 2.091 . S
O86 C92 1.261 . S
C87 O96 1.247 . S
C87 O97 1.272 . S
O88 Co84 2.004 . S
O88 C93 1.259 . S
Co89 O90 2.061 . S
Co89 O95 2.052 . S
Co89 O97 2.135 . S
O90 Co89 2.061 . S
O90 C93 1.235 . S
C91 O94 1.238 . S
C91 O95 1.241 . S
C92 O85 1.247 . S
C92 O86 1.261 . S
C93 O88 1.259 . S
C93 O90 1.235 . S
O94 Co84 2.021 . S
O94 C91 1.238 . S
O95 Co89 2.052 . S
O95 C91 1.241 . S
O96 Co84 2.137 . S
O96 C87 1.247 . S
O97 Co84 2.244 . S
O97 C87 1.272 . S
O97 Co89 2.135 . S
Co98 O99 2.216 . S
Co98 O100 2.091 . S
Co98 O102 2.004 . S
Co98 O108 2.021 . S
Co98 O110 2.137 . S
Co98 O111 2.244 . S
O99 Co98 2.216 . S
O99 C106 1.247 . S
O100 Co98 2.091 . S
O100 C106 1.261 . S
C101 O110 1.247 . S
C101 O111 1.272 . S
O102 Co98 2.004 . S
O102 C107 1.259 . S
Co103 O104 2.061 . S
Co103 O109 2.052 . S
Co103 O111 2.135 . S
O104 Co103 2.061 . S
O104 C107 1.235 . S
C105 O108 1.238 . S
C105 O109 1.241 . S
C106 O99 1.247 . S
C106 O100 1.261 . S
C107 O102 1.259 . S
C107 O104 1.235 . S
O108 Co98 2.021 . S
O108 C105 1.238 . S
O109 Co103 2.052 . S
O109 C105 1.241 . S
O110 Co98 2.137 . S
O110 C101 1.247 . S
O111 Co98 2.244 . S
O111 C101 1.272 . S
O111 Co103 2.135 . S
Co112 O113 2.216 . S
Co112 O114 2.091 . S
Co112 O116 2.004 . S
Co112 O122 2.021 . S
Co112 O124 2.137 . S
Co112 O125 2.244 . S
O113 Co112 2.216 . S
O113 C120 1.247 . S
O114 Co112 2.091 . S
O114 C120 1.261 . S
C115 O124 1.247 . S
C115 O125 1.272 . S
O116 Co112 2.004 . S
O116 C121 1.259 . S
Co117 O118 2.061 . S
Co117 O123 2.052 . S
Co117 O125 2.135 . S
O118 Co117 2.061 . S
O118 C121 1.235 . S
C119 O122 1.238 . S
C119 O123 1.241 . S
C120 O113 1.247 . S
C120 O114 1.261 . S
C121 O116 1.259 . S
C121 O118 1.235 . S
O122 Co112 2.021 . S
O122 C119 1.238 . S
O123 Co117 2.052 . S
O123 C119 1.241 . S
O124 Co112 2.137 . S
O124 C115 1.247 . S
O125 Co112 2.244 . S
O125 C115 1.272 . S
O125 Co117 2.135 . S
Co126 O127 2.216 . S
Co126 O128 2.091 . S
Co126 O130 2.004 . S
Co126 O136 2.021 . S
Co126 O138 2.137 . S
Co126 O139 2.244 . S
O127 Co126 2.216 . S
O127 C134 1.247 . S
O128 Co126 2.091 . S
O128 C134 1.261 . S
C129 O138 1.247 . S
C129 O139 1.272 . S
O130 Co126 2.004 . S
O130 C135 1.259 . S
Co131 O132 2.061 . S
Co131 O137 2.052 . S
Co131 O139 2.135 . S
O132 Co131 2.061 . S
O132 C135 1.235 . S
C133 O136 1.238 . S
C133 O137 1.241 . S
C134 O127 1.247 . S
C134 O128 1.261 . S
C135 O130 1.259 . S
C135 O132 1.235 . S
O136 Co126 2.021 . S
O136 C133 1.238 . S
O137 Co131 2.052 . S
O137 C133 1.241 . S
O138 Co126 2.137 . S
O138 C129 1.247 . S
O139 Co126 2.244 . S
O139 C129 1.272 . S
O139 Co131 2.135 . S
Co140 O141 2.216 . S
Co140 O142 2.091 . S
Co140 O144 2.004 . S
Co140 O150 2.021 . S
Co140 O152 2.137 . S
Co140 O153 2.244 . S
O141 Co140 2.216 . S
O141 C148 1.247 . S
O142 Co140 2.091 . S
O142 C148 1.261 . S
C143 O152 1.247 . S
C143 O153 1.272 . S
O144 Co140 2.004 . S
O144 C149 1.259 . S
Co145 O146 2.061 . S
Co145 O151 2.052 . S
Co145 O153 2.135 . S
O146 Co145 2.061 . S
O146 C149 1.235 . S
C147 O150 1.238 . S
C147 O151 1.241 . S
C148 O141 1.247 . S
C148 O142 1.261 . S
C149 O144 1.259 . S
C149 O146 1.235 . S
O150 Co140 2.021 . S
O150 C147 1.238 . S
O151 Co145 2.052 . S
O151 C147 1.241 . S
O152 Co140 2.137 . S
O152 C143 1.247 . S
O153 Co140 2.244 . S
O153 C143 1.272 . S
O153 Co145 2.135 . S
Co154 O155 2.216 . S
Co154 O156 2.091 . S
Co154 O158 2.004 . S
Co154 O164 2.021 . S
Co154 O166 2.137 . S
Co154 O167 2.244 . S
O155 Co154 2.216 . S
O155 C162 1.247 . S
O156 Co154 2.091 . S
O156 C162 1.261 . S
C157 O166 1.247 . S
C157 O167 1.272 . S
O158 Co154 2.004 . S
O158 C163 1.259 . S
Co159 O160 2.061 . S
Co159 O165 2.052 . S
Co159 O167 2.135 . S
O160 Co159 2.061 . S
O160 C163 1.235 . S
C161 O164 1.238 . S
C161 O165 1.241 . S
C162 O155 1.247 . S
C162 O156 1.261 . S
C163 O158 1.259 . S
C163 O160 1.235 . S
O164 Co154 2.021 . S
O164 C161 1.238 . S
O165 Co159 2.052 . S
O165 C161 1.241 . S
O166 Co154 2.137 . S
O166 C157 1.247 . S
O167 Co154 2.244 . S
O167 C157 1.272 . S
O167 Co159 2.135 . S
C168 C169 1.363 . S
C168 C174 1.379 1_556 S
C168 N176 1.356 . S
C169 C168 1.363 . S
C169 C175 1.363 . S
C170 C171 1.363 . S
C170 C175 1.379 1_554 S
C170 N177 1.356 . S
C171 C170 1.363 . S
C171 C174 1.363 . S
N172 C174 1.356 . S
N172 H184 0.984 . S
N172 H185 0.985 . S
N173 C175 1.356 . S
N173 H178 0.984 . S
N173 H179 0.985 . S
C174 C168 1.379 1_554 S
C174 C171 1.363 . S
C174 N172 1.356 . S
C175 C169 1.363 . S
C175 C170 1.379 1_556 S
C175 N173 1.356 . S
N176 C168 1.356 . S
N176 H182 0.984 . S
N176 H183 0.984 . S
N177 C170 1.356 . S
N177 H180 0.984 . S
N177 H181 0.985 . S
H178 N173 0.984 . S
H179 N173 0.985 . S
H180 N177 0.984 . S
H181 N177 0.985 . S
H182 N176 0.984 . S
H183 N176 0.984 . S
H184 N172 0.984 . S
H185 N172 0.985 . S
C186 C187 1.363 . S
C186 C192 1.379 . S
C186 N194 1.356 . S
C187 C186 1.363 . S
C187 C193 1.363 . S
C188 C189 1.363 . S
C188 C193 1.379 . S
C188 N195 1.356 . S
C189 C188 1.363 . S
C189 C192 1.363 . S
N190 C192 1.356 . S
N190 H202 0.984 . S
N190 H203 0.985 . S
N191 C193 1.356 . S
N191 H196 0.984 . S
N191 H197 0.985 . S
C192 C186 1.379 . S
C192 C189 1.363 . S
C192 N190 1.356 . S
C193 C187 1.363 . S
C193 C188 1.379 . S
C193 N191 1.356 . S
N194 C186 1.356 . S
N194 H200 0.984 . S
N194 H201 0.984 . S
N195 C188 1.356 . S
N195 H198 0.984 . S
N195 H199 0.985 . S
H196 N191 0.984 . S
H197 N191 0.985 . S
H198 N195 0.984 . S
H199 N195 0.985 . S
H200 N194 0.984 . S
H201 N194 0.984 . S
H202 N190 0.984 . S
H203 N190 0.985 . S
C204 C205 1.363 . S
C204 C210 1.379 . S
C204 N212 1.356 . S
C205 C204 1.363 . S
C205 C211 1.363 . S
C206 C207 1.363 . S
C206 C211 1.379 . S
C206 N213 1.356 . S
C207 C206 1.363 . S
C207 C210 1.363 . S
N208 C210 1.356 . S
N208 H220 0.984 . S
N208 H221 0.985 . S
N209 C211 1.356 . S
N209 H214 0.984 . S
N209 H215 0.985 . S
C210 C204 1.379 . S
C210 C207 1.363 . S
C210 N208 1.356 . S
C211 C205 1.363 . S
C211 C206 1.379 . S
C211 N209 1.356 . S
N212 C204 1.356 . S
N212 H218 0.984 . S
N212 H219 0.984 . S
N213 C206 1.356 . S
N213 H216 0.984 . S
N213 H217 0.985 . S
H214 N209 0.984 . S
H215 N209 0.985 . S
H216 N213 0.984 . S
H217 N213 0.985 . S
H218 N212 0.984 . S
H219 N212 0.984 . S
H220 N208 0.984 . S
H221 N208 0.985 . S
C222 C223 1.363 . S
C222 C228 1.379 1_554 S
C222 N230 1.356 . S
C223 C222 1.363 . S
C223 C229 1.363 . S
C224 C225 1.363 . S
C224 C229 1.379 1_556 S
C224 N231 1.356 . S
C225 C224 1.363 . S
C225 C228 1.363 . S
N226 C228 1.356 . S
N226 H238 0.984 . S
N226 H239 0.985 . S
N227 C229 1.356 . S
N227 H232 0.984 . S
N227 H233 0.985 . S
C228 C222 1.379 1_556 S
C228 C225 1.363 . S
C228 N226 1.356 . S
C229 C223 1.363 . S
C229 C224 1.379 1_554 S
C229 N227 1.356 . S
N230 C222 1.356 . S
N230 H236 0.984 . S
N230 H237 0.984 . S
N231 C224 1.356 . S
N231 H234 0.984 . S
N231 H235 0.985 . S
H232 N227 0.984 . S
H233 N227 0.985 . S
H234 N231 0.984 . S
H235 N231 0.985 . S
H236 N230 0.984 . S
H237 N230 0.984 . S
H238 N226 0.984 . S
H239 N226 0.985 . S
C240 C241 1.363 . S
C240 C246 1.379 . S
C240 N248 1.356 . S
C241 C240 1.363 . S
C241 C247 1.363 . S
C242 C243 1.363 . S
C242 C247 1.379 . S
C242 N249 1.356 . S
C243 C242 1.363 . S
C243 C246 1.363 . S
N244 C246 1.356 . S
N244 H256 0.984 . S
N244 H257 0.985 . S
N245 C247 1.356 . S
N245 H250 0.984 . S
N245 H251 0.985 . S
C246 C240 1.379 . S
C246 C243 1.363 . S
C246 N244 1.356 . S
C247 C241 1.363 . S
C247 C242 1.379 . S
C247 N245 1.356 . S
N248 C240 1.356 . S
N248 H254 0.984 . S
N248 H255 0.984 . S
N249 C242 1.356 . S
N249 H252 0.984 . S
N249 H253 0.985 . S
H250 N245 0.984 . S
H251 N245 0.985 . S
H252 N249 0.984 . S
H253 N249 0.985 . S
H254 N248 0.984 . S
H255 N248 0.984 . S
H256 N244 0.984 . S
H257 N244 0.985 . S
C258 C259 1.363 . S
C258 C264 1.379 . S
C258 N266 1.356 . S
C259 C258 1.363 . S
C259 C265 1.363 . S
C260 C261 1.363 . S
C260 C265 1.379 . S
C260 N267 1.356 . S
C261 C260 1.363 . S
C261 C264 1.363 . S
N262 C264 1.356 . S
N262 H274 0.984 . S
N262 H275 0.985 . S
N263 C265 1.356 . S
N263 H268 0.984 . S
N263 H269 0.985 . S
C264 C258 1.379 . S
C264 C261 1.363 . S
C264 N262 1.356 . S
C265 C259 1.363 . S
C265 C260 1.379 . S
C265 N263 1.356 . S
N266 C258 1.356 . S
N266 H272 0.984 . S
N266 H273 0.984 . S
N267 C260 1.356 . S
N267 H270 0.984 . S
N267 H271 0.985 . S
H268 N263 0.984 . S
H269 N263 0.985 . S
H270 N267 0.984 . S
H271 N267 0.985 . S
H272 N266 0.984 . S
H273 N266 0.984 . S
H274 N262 0.984 . S
H275 N262 0.985 . S
C276 C277 1.363 . S
C276 C282 1.379 . S
C276 N284 1.356 . S
C277 C276 1.363 . S
C277 C283 1.363 . S
C278 C279 1.363 . S
C278 C283 1.379 . S
C278 N285 1.356 . S
C279 C278 1.363 . S
C279 C282 1.363 . S
N280 C282 1.356 . S
N280 H292 0.984 . S
N280 H293 0.985 . S
N281 C283 1.356 . S
N281 H286 0.984 . S
N281 H287 0.985 . S
C282 C276 1.379 . S
C282 C279 1.363 . S
C282 N280 1.356 . S
C283 C277 1.363 . S
C283 C278 1.379 . S
C283 N281 1.356 . S
N284 C276 1.356 . S
N284 H290 0.984 . S
N284 H291 0.984 . S
N285 C278 1.356 . S
N285 H288 0.984 . S
N285 H289 0.985 . S
H286 N281 0.984 . S
H287 N281 0.985 . S
H288 N285 0.984 . S
H289 N285 0.985 . S
H290 N284 0.984 . S
H291 N284 0.984 . S
H292 N280 0.984 . S
H293 N280 0.985 . S
C294 C295 1.363 . S
C294 C300 1.379 . S
C294 N302 1.356 . S
C295 C294 1.363 . S
C295 C301 1.363 . S
C296 C297 1.363 . S
C296 C301 1.379 . S
C296 N303 1.356 . S
C297 C296 1.363 . S
C297 C300 1.363 . S
N298 C300 1.356 . S
N298 H310 0.984 . S
N298 H311 0.985 . S
N299 C301 1.356 . S
N299 H304 0.984 . S
N299 H305 0.985 . S
C300 C294 1.379 . S
C300 C297 1.363 . S
C300 N298 1.356 . S
C301 C295 1.363 . S
C301 C296 1.379 . S
C301 N299 1.356 . S
N302 C294 1.356 . S
N302 H308 0.984 . S
N302 H309 0.984 . S
N303 C296 1.356 . S
N303 H306 0.984 . S
N303 H307 0.985 . S
H304 N299 0.984 . S
H305 N299 0.985 . S
H306 N303 0.984 . S
H307 N303 0.985 . S
H308 N302 0.984 . S
H309 N302 0.984 . S
H310 N298 0.984 . S
H311 N298 0.985 . S
C312 C313 1.363 . S
C312 C318 1.379 . S
C312 N320 1.356 . S
C313 C312 1.363 . S
C313 C319 1.363 . S
C314 C315 1.363 . S
C314 C319 1.379 . S
C314 N321 1.356 . S
C315 C314 1.363 . S
C315 C318 1.363 . S
N316 C318 1.356 . S
N316 H328 0.984 . S
N316 H329 0.985 . S
N317 C319 1.356 . S
N317 H322 0.984 . S
N317 H323 0.985 . S
C318 C312 1.379 . S
C318 C315 1.363 . S
C318 N316 1.356 . S
C319 C313 1.363 . S
C319 C314 1.379 . S
C319 N317 1.356 . S
N320 C312 1.356 . S
N320 H326 0.984 . S
N320 H327 0.984 . S
N321 C314 1.356 . S
N321 H324 0.984 . S
N321 H325 0.985 . S
H322 N317 0.984 . S
H323 N317 0.985 . S
H324 N321 0.984 . S
H325 N321 0.985 . S
H326 N320 0.984 . S
H327 N320 0.984 . S
H328 N316 0.984 . S
H329 N316 0.985 . S
C330 C331 1.363 . S
C330 C336 1.379 . S
C330 N338 1.356 . S
C331 C330 1.363 . S
C331 C337 1.363 . S
C332 C333 1.363 . S
C332 C337 1.379 . S
C332 N339 1.356 . S
C333 C332 1.363 . S
C333 C336 1.363 . S
N334 C336 1.356 . S
N334 H346 0.984 . S
N334 H347 0.985 . S
N335 C337 1.356 . S
N335 H340 0.984 . S
N335 H341 0.985 . S
C336 C330 1.379 . S
C336 C333 1.363 . S
C336 N334 1.356 . S
C337 C331 1.363 . S
C337 C332 1.379 . S
C337 N335 1.356 . S
N338 C330 1.356 . S
N338 H344 0.984 . S
N338 H345 0.984 . S
N339 C332 1.356 . S
N339 H342 0.984 . S
N339 H343 0.985 . S
H340 N335 0.984 . S
H341 N335 0.985 . S
H342 N339 0.984 . S
H343 N339 0.985 . S
H344 N338 0.984 . S
H345 N338 0.984 . S
H346 N334 0.984 . S
H347 N334 0.985 . S
C348 C349 1.363 . S
C348 C354 1.379 . S
C348 N356 1.356 . S
C349 C348 1.363 . S
C349 C355 1.363 . S
C350 C351 1.363 . S
C350 C355 1.379 . S
C350 N357 1.356 . S
C351 C350 1.363 . S
C351 C354 1.363 . S
N352 C354 1.356 . S
N352 H364 0.984 . S
N352 H365 0.985 . S
N353 C355 1.356 . S
N353 H358 0.984 . S
N353 H359 0.985 . S
C354 C348 1.379 . S
C354 C351 1.363 . S
C354 N352 1.356 . S
C355 C349 1.363 . S
C355 C350 1.379 . S
C355 N353 1.356 . S
N356 C348 1.356 . S
N356 H362 0.984 . S
N356 H363 0.984 . S
N357 C350 1.356 . S
N357 H360 0.984 . S
N357 H361 0.985 . S
H358 N353 0.984 . S
H359 N353 0.985 . S
H360 N357 0.984 . S
H361 N357 0.985 . S
H362 N356 0.984 . S
H363 N356 0.984 . S
H364 N352 0.984 . S
H365 N352 0.985 . S
C366 C367 1.363 . S
C366 C372 1.379 . S
C366 N374 1.356 . S
C367 C366 1.363 . S
C367 C373 1.363 . S
C368 C369 1.363 . S
C368 C373 1.379 . S
C368 N375 1.356 . S
C369 C368 1.363 . S
C369 C372 1.363 . S
N370 C372 1.356 . S
N370 H382 0.984 . S
N370 H383 0.985 . S
N371 C373 1.356 . S
N371 H376 0.984 . S
N371 H377 0.985 . S
C372 C366 1.379 . S
C372 C369 1.363 . S
C372 N370 1.356 . S
C373 C367 1.363 . S
C373 C368 1.379 . S
C373 N371 1.356 . S
N374 C366 1.356 . S
N374 H380 0.984 . S
N374 H381 0.984 . S
N375 C368 1.356 . S
N375 H378 0.984 . S
N375 H379 0.985 . S
H376 N371 0.984 . S
H377 N371 0.985 . S
H378 N375 0.984 . S
H379 N375 0.985 . S
H380 N374 0.984 . S
H381 N374 0.984 . S
H382 N370 0.984 . S
H383 N370 0.985 . S
C384 C385 1.363 . S
C384 C390 1.379 1_655 S
C384 N392 1.356 . S
C385 C384 1.363 . S
C385 C391 1.363 . S
C386 C387 1.363 . S
C386 C391 1.379 1_455 S
C386 N393 1.356 . S
C387 C386 1.363 . S
C387 C390 1.363 . S
N388 C390 1.356 . S
N388 H400 0.984 . S
N388 H401 0.985 . S
N389 C391 1.356 . S
N389 H394 0.984 . S
N389 H395 0.985 . S
C390 C384 1.379 1_455 S
C390 C387 1.363 . S
C390 N388 1.356 . S
C391 C385 1.363 . S
C391 C386 1.379 1_655 S
C391 N389 1.356 . S
N392 C384 1.356 . S
N392 H398 0.984 . S
N392 H399 0.984 . S
N393 C386 1.356 . S
N393 H396 0.984 . S
N393 H397 0.985 . S
H394 N389 0.984 . S
H395 N389 0.985 . S
H396 N393 0.984 . S
H397 N393 0.985 . S
H398 N392 0.984 . S
H399 N392 0.984 . S
H400 N388 0.984 . S
H401 N388 0.985 . S
C402 C403 1.363 . S
C402 C408 1.379 1_545 S
C402 N410 1.356 . S
C403 C402 1.363 . S
C403 C409 1.363 . S
C404 C405 1.363 . S
C404 C409 1.379 1_565 S
C404 N411 1.356 . S
C405 C404 1.363 . S
C405 C408 1.363 . S
N406 C408 1.356 . S
N406 H418 0.984 . S
N406 H419 0.985 . S
N407 C409 1.356 . S
N407 H412 0.984 . S
N407 H413 0.985 . S
C408 C402 1.379 1_565 S
C408 C405 1.363 . S
C408 N406 1.356 . S
C409 C403 1.363 . S
C409 C404 1.379 1_545 S
C409 N407 1.356 . S
N410 C402 1.356 . S
N410 H416 0.984 . S
N410 H417 0.984 . S
N411 C404 1.356 . S
N411 H414 0.984 . S
N411 H415 0.985 . S
H412 N407 0.984 . S
H413 N407 0.985 . S
H414 N411 0.984 . S
H415 N411 0.985 . S
H416 N410 0.984 . S
H417 N410 0.984 . S
H418 N406 0.984 . S
H419 N406 0.985 . S
C420 C421 1.363 . S
C420 C426 1.379 . S
C420 N428 1.356 . S
C421 C420 1.363 . S
C421 C427 1.363 . S
C422 C423 1.363 . S
C422 C427 1.379 . S
C422 N429 1.356 . S
C423 C422 1.363 . S
C423 C426 1.363 . S
N424 C426 1.356 . S
N424 H436 0.984 . S
N424 H437 0.985 . S
N425 C427 1.356 . S
N425 H430 0.984 . S
N425 H431 0.985 . S
C426 C420 1.379 . S
C426 C423 1.363 . S
C426 N424 1.356 . S
C427 C421 1.363 . S
C427 C422 1.379 . S
C427 N425 1.356 . S
N428 C420 1.356 . S
N428 H434 0.984 . S
N428 H435 0.984 . S
N429 C422 1.356 . S
N429 H432 0.984 . S
N429 H433 0.985 . S
H430 N425 0.984 . S
H431 N425 0.985 . S
H432 N429 0.984 . S
H433 N429 0.985 . S
H434 N428 0.984 . S
H435 N428 0.984 . S
H436 N424 0.984 . S
H437 N424 0.985 . S
C438 C439 1.363 . S
C438 C444 1.379 1_545 S
C438 N446 1.356 . S
C439 C438 1.363 . S
C439 C445 1.363 . S
C440 C441 1.363 . S
C440 C445 1.379 1_565 S
C440 N447 1.356 . S
C441 C440 1.363 . S
C441 C444 1.363 . S
N442 C444 1.356 . S
N442 H454 0.984 . S
N442 H455 0.985 . S
N443 C445 1.356 . S
N443 H448 0.984 . S
N443 H449 0.985 . S
C444 C438 1.379 1_565 S
C444 C441 1.363 . S
C444 N442 1.356 . S
C445 C439 1.363 . S
C445 C440 1.379 1_545 S
C445 N443 1.356 . S
N446 C438 1.356 . S
N446 H452 0.984 . S
N446 H453 0.984 . S
N447 C440 1.356 . S
N447 H450 0.984 . S
N447 H451 0.985 . S
H448 N443 0.984 . S
H449 N443 0.985 . S
H450 N447 0.984 . S
H451 N447 0.985 . S
H452 N446 0.984 . S
H453 N446 0.984 . S
H454 N442 0.984 . S
H455 N442 0.985 . S
C456 C457 1.363 . S
C456 C462 1.379 . S
C456 N464 1.356 . S
C457 C456 1.363 . S
C457 C463 1.363 . S
C458 C459 1.363 . S
C458 C463 1.379 . S
C458 N465 1.356 . S
C459 C458 1.363 . S
C459 C462 1.363 . S
N460 C462 1.356 . S
N460 H472 0.984 . S
N460 H473 0.985 . S
N461 C463 1.356 . S
N461 H466 0.984 . S
N461 H467 0.985 . S
C462 C456 1.379 . S
C462 C459 1.363 . S
C462 N460 1.356 . S
C463 C457 1.363 . S
C463 C458 1.379 . S
C463 N461 1.356 . S
N464 C456 1.356 . S
N464 H470 0.984 . S
N464 H471 0.984 . S
N465 C458 1.356 . S
N465 H468 0.984 . S
N465 H469 0.985 . S
H466 N461 0.984 . S
H467 N461 0.985 . S
H468 N465 0.984 . S
H469 N465 0.985 . S
H470 N464 0.984 . S
H471 N464 0.984 . S
H472 N460 0.984 . S
H473 N460 0.985 . S
C474 C475 1.363 . S
C474 C480 1.379 1_455 S
C474 N482 1.356 . S
C475 C474 1.363 . S
C475 C481 1.363 . S
C476 C477 1.363 . S
C476 C481 1.379 1_655 S
C476 N483 1.356 . S
C477 C476 1.363 . S
C477 C480 1.363 . S
N478 C480 1.356 . S
N478 H490 0.984 . S
N478 H491 0.985 . S
N479 C481 1.356 . S
N479 H484 0.984 . S
N479 H485 0.985 . S
C480 C474 1.379 1_655 S
C480 C477 1.363 . S
C480 N478 1.356 . S
C481 C475 1.363 . S
C481 C476 1.379 1_455 S
C481 N479 1.356 . S
N482 C474 1.356 . S
N482 H488 0.984 . S
N482 H489 0.984 . S
N483 C476 1.356 . S
N483 H486 0.984 . S
N483 H487 0.985 . S
H484 N479 0.984 . S
H485 N479 0.985 . S
H486 N483 0.984 . S
H487 N483 0.985 . S
H488 N482 0.984 . S
H489 N482 0.984 . S
H490 N478 0.984 . S
H491 N478 0.985 . S
C492 C493 1.363 . S
C492 C498 1.379 . S
C492 N500 1.356 . S
C493 C492 1.363 . S
C493 C499 1.363 . S
C494 C495 1.363 . S
C494 C499 1.379 . S
C494 N501 1.356 . S
C495 C494 1.363 . S
C495 C498 1.363 . S
N496 C498 1.356 . S
N496 H508 0.984 . S
N496 H509 0.985 . S
N497 C499 1.356 . S
N497 H502 0.984 . S
N497 H503 0.985 . S
C498 C492 1.379 . S
C498 C495 1.363 . S
C498 N496 1.356 . S
C499 C493 1.363 . S
C499 C494 1.379 . S
C499 N497 1.356 . S
N500 C492 1.356 . S
N500 H506 0.984 . S
N500 H507 0.984 . S
N501 C494 1.356 . S
N501 H504 0.984 . S
N501 H505 0.985 . S
H502 N497 0.984 . S
H503 N497 0.985 . S
H504 N501 0.984 . S
H505 N501 0.985 . S
H506 N500 0.984 . S
H507 N500 0.984 . S
H508 N496 0.984 . S
H509 N496 0.985 . S
C510 C511 1.363 . S
C510 C516 1.379 1_655 S
C510 N518 1.356 . S
C511 C510 1.363 . S
C511 C517 1.363 . S
C512 C513 1.363 . S
C512 C517 1.379 1_455 S
C512 N519 1.356 . S
C513 C512 1.363 . S
C513 C516 1.363 . S
N514 C516 1.356 . S
N514 H526 0.984 . S
N514 H527 0.985 . S
N515 C517 1.356 . S
N515 H520 0.984 . S
N515 H521 0.985 . S
C516 C510 1.379 1_455 S
C516 C513 1.363 . S
C516 N514 1.356 . S
C517 C511 1.363 . S
C517 C512 1.379 1_655 S
C517 N515 1.356 . S
N518 C510 1.356 . S
N518 H524 0.984 . S
N518 H525 0.984 . S
N519 C512 1.356 . S
N519 H522 0.984 . S
N519 H523 0.985 . S
H520 N515 0.984 . S
H521 N515 0.985 . S
H522 N519 0.984 . S
H523 N519 0.985 . S
H524 N518 0.984 . S
H525 N518 0.984 . S
H526 N514 0.984 . S
H527 N514 0.985 . S
C528 C529 1.363 . S
C528 C534 1.379 1_545 S
C528 N536 1.356 . S
C529 C528 1.363 . S
C529 C535 1.363 . S
C530 C531 1.363 . S
C530 C535 1.379 1_565 S
C530 N537 1.356 . S
C531 C530 1.363 . S
C531 C534 1.363 . S
N532 C534 1.356 . S
N532 H544 0.984 . S
N532 H545 0.985 . S
N533 C535 1.356 . S
N533 H538 0.984 . S
N533 H539 0.985 . S
C534 C528 1.379 1_565 S
C534 C531 1.363 . S
C534 N532 1.356 . S
C535 C529 1.363 . S
C535 C530 1.379 1_545 S
C535 N533 1.356 . S
N536 C528 1.356 . S
N536 H542 0.984 . S
N536 H543 0.984 . S
N537 C530 1.356 . S
N537 H540 0.984 . S
N537 H541 0.985 . S
H538 N533 0.984 . S
H539 N533 0.985 . S
H540 N537 0.984 . S
H541 N537 0.985 . S
H542 N536 0.984 . S
H543 N536 0.984 . S
H544 N532 0.984 . S
H545 N532 0.985 . S
C546 C547 1.363 . S
C546 C552 1.379 . S
C546 N554 1.356 . S
C547 C546 1.363 . S
C547 C553 1.363 . S
C548 C549 1.363 . S
C548 C553 1.379 . S
C548 N555 1.356 . S
C549 C548 1.363 . S
C549 C552 1.363 . S
N550 C552 1.356 . S
N550 H562 0.984 . S
N550 H563 0.985 . S
N551 C553 1.356 . S
N551 H556 0.984 . S
N551 H557 0.985 . S
C552 C546 1.379 . S
C552 C549 1.363 . S
C552 N550 1.356 . S
C553 C547 1.363 . S
C553 C548 1.379 . S
C553 N551 1.356 . S
N554 C546 1.356 . S
N554 H560 0.984 . S
N554 H561 0.984 . S
N555 C548 1.356 . S
N555 H558 0.984 . S
N555 H559 0.985 . S
H556 N551 0.984 . S
H557 N551 0.985 . S
H558 N555 0.984 . S
H559 N555 0.985 . S
H560 N554 0.984 . S
H561 N554 0.984 . S
H562 N550 0.984 . S
H563 N550 0.985 . S
C564 C565 1.363 . S
C564 C570 1.379 1_455 S
C564 N572 1.356 . S
C565 C564 1.363 . S
C565 C571 1.363 . S
C566 C567 1.363 . S
C566 C571 1.379 1_655 S
C566 N573 1.356 . S
C567 C566 1.363 . S
C567 C570 1.363 . S
N568 C570 1.356 . S
N568 H580 0.984 . S
N568 H581 0.985 . S
N569 C571 1.356 . S
N569 H574 0.984 . S
N569 H575 0.985 . S
C570 C564 1.379 1_655 S
C570 C567 1.363 . S
C570 N568 1.356 . S
C571 C565 1.363 . S
C571 C566 1.379 1_455 S
C571 N569 1.356 . S
N572 C564 1.356 . S
N572 H578 0.984 . S
N572 H579 0.984 . S
N573 C566 1.356 . S
N573 H576 0.984 . S
N573 H577 0.985 . S
H574 N569 0.984 . S
H575 N569 0.985 . S
H576 N573 0.984 . S
H577 N573 0.985 . S
H578 N572 0.984 . S
H579 N572 0.984 . S
H580 N568 0.984 . S
H581 N568 0.985 . S
C582 C583 1.363 . S
C582 C588 1.379 1_565 S
C582 N590 1.356 . S
C583 C582 1.363 . S
C583 C589 1.363 . S
C584 C585 1.363 . S
C584 C589 1.379 1_545 S
C584 N591 1.356 . S
C585 C584 1.363 . S
C585 C588 1.363 . S
N586 C588 1.356 . S
N586 H598 0.984 . S
N586 H599 0.985 . S
N587 C589 1.356 . S
N587 H592 0.984 . S
N587 H593 0.985 . S
C588 C582 1.379 1_545 S
C588 C585 1.363 . S
C588 N586 1.356 . S
C589 C583 1.363 . S
C589 C584 1.379 1_565 S
C589 N587 1.356 . S
N590 C582 1.356 . S
N590 H596 0.984 . S
N590 H597 0.984 . S
N591 C584 1.356 . S
N591 H594 0.984 . S
N591 H595 0.985 . S
H592 N587 0.984 . S
H593 N587 0.985 . S
H594 N591 0.984 . S
H595 N591 0.985 . S
H596 N590 0.984 . S
H597 N590 0.984 . S
H598 N586 0.984 . S
H599 N586 0.985 . S
C169 C147 1.380 . S
C171 C7 1.380 . S
C187 C21 1.380 . S
C189 C161 1.380 . S
C205 C35 1.380 . S
C207 C91 1.380 . S
C223 C49 1.380 . S
C225 C105 1.380 . S
C241 C119 1.380 . S
C243 C63 1.380 . S
C259 C77 1.380 . S
C261 C133 1.380 . S
C277 C115 1.446 . S
C279 C3 1.446 . S
C295 C17 1.447 . S
C297 C129 1.446 . S
C313 C31 1.447 . S
C315 C143 1.447 . S
C331 C45 1.446 . S
C333 C157 1.447 . S
C349 C87 1.446 . S
C351 C59 1.446 . S
C367 C101 1.445 . S
C369 C73 1.445 . S
C385 C51 1.482 . S
C387 C9 1.482 . S
C403 C23 1.482 . S
C405 C65 1.482 . S
C421 C79 1.482 . S
C423 C37 1.482 . S
C439 C135 1.482 . S
C441 C93 1.482 . S
C457 C149 1.482 . S
C459 C107 1.482 . S
C475 C121 1.482 . S
C477 C163 1.482 . S
C493 C50 1.452 . S
C495 C8 1.452 . S
C511 C22 1.452 . S
C513 C64 1.452 . S
C529 C78 1.451 . S
C531 C36 1.451 . S
C547 C92 1.452 . S
C549 C134 1.452 . S
C565 C148 1.451 . S
C567 C106 1.451 . S
C583 C120 1.452 . S
C585 C162 1.452 . S
