# Generated by pormake.
# Topology etd, (3)-cn, num edge types: 1
# Building blocks:
#     Node 0, Type 0, BuildingBlock: OLANEW_clean_sbu_2, # of connection points: 3
#     Node 1, Type 0, BuildingBlock: OLANEW_clean_sbu_2, # of connection points: 3
#     Node 2, Type 0, BuildingBlock: OLANEW_clean_sbu_2, # of connection points: 3
#     Node 3, Type 0, BuildingBlock: OLANEW_clean_sbu_2, # of connection points: 3
#     Node 4, Type 0, BuildingBlock: OLANEW_clean_sbu_2, # of connection points: 3
#     Node 5, Type 0, BuildingBlock: OLANEW_clean_sbu_2, # of connection points: 3
#     Node 6, Type 0, BuildingBlock: OLANEW_clean_sbu_2, # of connection points: 3
#     Node 7, Type 0, BuildingBlock: OLANEW_clean_sbu_2, # of connection points: 3
#     Node 8, Type 0, BuildingBlock: OLANEW_clean_sbu_2, # of connection points: 3
#     Node 9, Type 0, BuildingBlock: OLANEW_clean_sbu_2, # of connection points: 3
#     Node 10, Type 0, BuildingBlock: OLANEW_clean_sbu_2, # of connection points: 3
#     Node 11, Type 0, BuildingBlock: OLANEW_clean_sbu_2, # of connection points: 3
#     Edge 12, Type (0, 0), BuildingBlock: ZUJKAS_clean_linker_0, # of connection points: 2
#     Edge 13, Type (0, 0), BuildingBlock: ZUJKAS_clean_linker_0, # of connection points: 2
#     Edge 14, Type (0, 0), BuildingBlock: ZUJKAS_clean_linker_0, # of connection points: 2
#     Edge 15, Type (0, 0), BuildingBlock: ZUJKAS_clean_linker_0, # of connection points: 2
#     Edge 16, Type (0, 0), BuildingBlock: ZUJKAS_clean_linker_0, # of connection points: 2
#     Edge 17, Type (0, 0), BuildingBlock: ZUJKAS_clean_linker_0, # of connection points: 2
#     Edge 18, Type (0, 0), BuildingBlock: ZUJKAS_clean_linker_0, # of connection points: 2
#     Edge 19, Type (0, 0), BuildingBlock: ZUJKAS_clean_linker_0, # of connection points: 2
#     Edge 20, Type (0, 0), BuildingBlock: ZUJKAS_clean_linker_0, # of connection points: 2
#     Edge 21, Type (0, 0), BuildingBlock: ZUJKAS_clean_linker_0, # of connection points: 2
#     Edge 22, Type (0, 0), BuildingBlock: ZUJKAS_clean_linker_0, # of connection points: 2
#     Edge 23, Type (0, 0), BuildingBlock: ZUJKAS_clean_linker_0, # of connection points: 2
#     Edge 24, Type (0, 0), BuildingBlock: ZUJKAS_clean_linker_0, # of connection points: 2
#     Edge 25, Type (0, 0), BuildingBlock: ZUJKAS_clean_linker_0, # of connection points: 2
#     Edge 26, Type (0, 0), BuildingBlock: ZUJKAS_clean_linker_0, # of connection points: 2
#     Edge 27, Type (0, 0), BuildingBlock: ZUJKAS_clean_linker_0, # of connection points: 2
#     Edge 28, Type (0, 0), BuildingBlock: ZUJKAS_clean_linker_0, # of connection points: 2
#     Edge 29, Type (0, 0), BuildingBlock: ZUJKAS_clean_linker_0, # of connection points: 2
# Relax obj value: 0.002
# Max RMSD: 0.058
# Mean RMSD: 0.058
data_MOF--net-etd--node1-OLANEW_clean_sbu_2--edge1-ZUJKAS_clean_linker_0
_symmetry_space_group_name_H-M    P1
_symmetry_Int_Tables_number       1
_symmetry_cell_setting            triclinic
loop_
_symmetry_equiv_pos_as_xyz
'x, y, z'
_cell_length_a     78.342936
_cell_length_b     78.343744
_cell_length_c     58.542078
_cell_angle_alpha  89.997928
_cell_angle_beta   90.001302
_cell_angle_gamma 119.99673
loop_
_atom_site_label
_atom_site_type_symbol
_atom_site_fract_x
_atom_site_fract_y
_atom_site_fract_z
_atom_type_partial_charge
O0 O 0.61094 0.12758 0.12395 0.0
Cd1 Cd 0.61991 0.12822 0.08383 0.0
O2 O 0.59722 0.14464 0.11317 0.0
Cd3 Cd 0.58374 0.1631 0.11715 0.0
O4 O 0.57526 0.18554 0.11279 0.0
C5 C 0.57637 0.19678 0.12907 0.0
O6 O 0.58217 0.19442 0.1493 0.0
C7 C 0.60159 0.13643 0.12906 0.0
C8 C 0.59914 0.09179 0.06207 0.0
O9 O 0.61587 0.09726 0.07149 0.0
O10 O 0.59213 0.10345 0.06319 0.0
O11 O 0.48003 0.60994 0.2897 0.0
Cd12 Cd 0.48866 0.61928 0.24972 0.0
O13 O 0.44925 0.59555 0.27873 0.0
Cd14 Cd 0.41723 0.58132 0.28248 0.0
O15 O 0.38603 0.57197 0.27881 0.0
C16 C 0.37943 0.58217 0.28809 0.0
O17 O 0.39145 0.59762 0.30036 0.0
C18 C 0.46183 0.60016 0.2947 0.0
C19 C 0.50355 0.59791 0.22774 0.0
O20 O 0.51509 0.61444 0.23741 0.0
O21 O 0.48495 0.59141 0.22866 0.0
O22 O 0.86441 0.48007 0.46482 0.0
Cd23 Cd 0.86286 0.49061 0.42595 0.0
O24 O 0.84708 0.44976 0.45247 0.0
Cd25 Cd 0.82903 0.41763 0.45454 0.0
O26 O 0.80679 0.3869 0.44816 0.0
C27 C 0.80005 0.38242 0.42795 0.0
O28 O 0.80705 0.39621 0.41219 0.0
C29 C 0.85585 0.46168 0.46882 0.0
C30 C 0.89758 0.50256 0.40151 0.0
O31 O 0.89483 0.51501 0.41278 0.0
O32 O 0.88393 0.48442 0.40191 0.0
O33 O 0.40043 0.88105 0.62837 0.0
Cd34 Cd 0.38966 0.88076 0.58911 0.0
O35 O 0.41116 0.8615 0.61703 0.0
Cd36 Cd 0.42219 0.84087 0.6203 0.0
O37 O 0.42856 0.8169 0.61612 0.0
C38 C 0.4159 0.79972 0.62283 0.0
O39 O 0.39974 0.79712 0.6328 0.0
C40 C 0.40855 0.87092 0.63306 0.0
C41 C 0.41164 0.91642 0.56609 0.0
O42 O 0.3964 0.91291 0.57781 0.0
O43 O 0.41665 0.90315 0.56552 0.0
O44 O 0.53032 0.40908 0.7896 0.0
Cd45 Cd 0.52457 0.40197 0.74875 0.0
O46 O 0.56028 0.41553 0.78233 0.0
Cd47 Cd 0.59143 0.4246 0.78688 0.0
O48 O 0.62084 0.42877 0.78116 0.0
C49 C 0.62284 0.42026 0.76372 0.0
O50 O 0.60743 0.40976 0.75065 0.0
C51 C 0.5475 0.41411 0.7968 0.0
C52 C 0.50626 0.42023 0.72701 0.0
O53 O 0.49613 0.4028 0.73526 0.0
O54 O 0.52504 0.42913 0.72935 0.0
O55 O 0.11766 0.52874 0.96007 0.0
Cd56 Cd 0.11962 0.52115 0.91998 0.0
O57 O 0.13895 0.55926 0.95152 0.0
Cd58 Cd 0.15903 0.59107 0.95452 0.0
O59 O 0.18407 0.62068 0.94941 0.0
C60 C 0.20112 0.62354 0.95419 0.0
O61 O 0.20274 0.60891 0.96278 0.0
C62 C 0.12847 0.54649 0.96649 0.0
C63 C 0.08345 0.50259 0.89738 0.0
O64 O 0.08981 0.49257 0.90803 0.0
O65 O 0.09408 0.52143 0.89771 0.0
O66 O 0.87294 0.38827 0.7 0.0
Cd67 Cd 0.87299 0.37514 0.73786 0.0
O68 O 0.85329 0.39806 0.71366 0.0
Cd69 Cd 0.83509 0.41203 0.7147 0.0
O70 O 0.81274 0.42044 0.72052 0.0
C71 C 0.79686 0.41206 0.70904 0.0
O72 O 0.79465 0.39904 0.69344 0.0
C73 C 0.86263 0.39645 0.69678 0.0
C74 C 0.90749 0.39836 0.76248 0.0
O75 O 0.90591 0.38465 0.74918 0.0
O76 O 0.89279 0.40123 0.76395 0.0
O77 O 0.47671 0.87536 0.87405 0.0
Cd78 Cd 0.48378 0.87343 0.91435 0.0
O79 O 0.44581 0.85628 0.88334 0.0
Cd80 Cd 0.41421 0.8363 0.87834 0.0
O81 O 0.38423 0.81185 0.88338 0.0
C82 C 0.38262 0.7971 0.8943 0.0
O83 O 0.39873 0.79743 0.90128 0.0
C84 C 0.45871 0.86576 0.86811 0.0
C85 C 0.50206 0.90971 0.93668 0.0
O86 O 0.51223 0.90287 0.92741 0.0
O87 O 0.48323 0.89949 0.93513 0.0
O88 O 0.5922 0.46786 0.04434 0.0
Cd89 Cd 0.5998 0.47375 0.08506 0.0
O90 O 0.58476 0.43759 0.05157 0.0
Cd91 Cd 0.57466 0.40617 0.04746 0.0
O92 O 0.56963 0.37657 0.05425 0.0
C93 C 0.57013 0.37212 0.07502 0.0
O94 O 0.57316 0.38519 0.09091 0.0
C95 C 0.58646 0.45052 0.03714 0.0
C96 C 0.58299 0.49368 0.10629 0.0
O97 O 0.60045 0.50308 0.09796 0.0
O98 O 0.57341 0.47486 0.10435 0.0
O99 O 0.1159 0.58295 0.21655 0.0
Cd100 Cd 0.11578 0.58592 0.25812 0.0
O101 O 0.13684 0.57267 0.22233 0.0
Cd102 Cd 0.15906 0.56456 0.21382 0.0
O103 O 0.1852 0.56154 0.21725 0.0
C104 C 0.18966 0.55889 0.23731 0.0
O105 O 0.17812 0.55752 0.25435 0.0
C106 C 0.12699 0.57689 0.20849 0.0
C107 C 0.07835 0.57099 0.27709 0.0
O108 O 0.08862 0.58917 0.27135 0.0
O109 O 0.08569 0.55981 0.27354 0.0
O110 O 0.52442 0.12536 0.36562 0.0
Cd111 Cd 0.51207 0.1261 0.40375 0.0
O112 O 0.55392 0.14633 0.37809 0.0
Cd113 Cd 0.58598 0.16555 0.37823 0.0
O114 O 0.61636 0.18846 0.38494 0.0
C115 C 0.62638 0.20135 0.36993 0.0
O116 O 0.61845 0.20035 0.34985 0.0
C117 C 0.54275 0.13615 0.36173 0.0
C118 C 0.49875 0.0911 0.42812 0.0
O119 O 0.48712 0.09376 0.41511 0.0
O120 O 0.51677 0.10494 0.4294 0.0
O121 O 0.40049 0.52902 0.53518 0.0
Cd122 Cd 0.39044 0.52062 0.57505 0.0
O123 O 0.40955 0.55931 0.5449 0.0
Cd124 Cd 0.41904 0.59056 0.54056 0.0
O125 O 0.42368 0.62017 0.5461 0.0
C126 C 0.42455 0.62573 0.56668 0.0
O127 O 0.42313 0.61373 0.5832 0.0
C128 C 0.40773 0.547 0.52957 0.0
C129 C 0.41047 0.50481 0.59818 0.0
O130 O 0.39405 0.49362 0.58813 0.0
O131 O 0.41755 0.52349 0.59705 0.0
H132 H 0.5694 0.13733 0.14571 0.0
H133 H 0.56121 0.13877 0.1857 0.0
H134 H 0.61405 0.13894 0.20683 0.0
H135 H 0.62219 0.13729 0.16683 0.0
H136 H 0.5831 0.11339 0.2313 0.0
H137 H 0.58456 0.18478 0.22918 0.0
H138 H 0.56806 0.16764 0.2084 0.0
H139 H 0.59411 0.17668 0.20615 0.0
C140 C 0.5795 0.13815 0.15884 0.0
C141 C 0.59666 0.13764 0.15314 0.0
C142 C 0.57478 0.13893 0.18172 0.0
C143 C 0.58725 0.13943 0.19928 0.0
C144 C 0.60429 0.13873 0.19358 0.0
H145 H 0.57549 0.1663 0.34107 0.0
H146 H 0.58766 0.16683 0.30252 0.0
C147 C 0.60892 0.13777 0.17074 0.0
C148 C 0.58209 0.13976 0.22361 0.0
H149 H 0.57018 0.16479 0.26225 0.0
C150 C 0.58042 0.12471 0.2381 0.0
C151 C 0.57888 0.1547 0.23259 0.0
C152 C 0.58169 0.17197 0.21833 0.0
C153 C 0.5752 0.12394 0.26117 0.0
C154 C 0.57104 0.13832 0.26985 0.0
C155 C 0.57317 0.15364 0.25552 0.0
C156 C 0.56418 0.1376 0.29366 0.0
C157 C 0.57445 0.10784 0.27605 0.0
C158 C 0.54688 0.12107 0.30148 0.0
C159 C 0.54016 0.12056 0.32371 0.0
C160 C 0.55054 0.13662 0.33855 0.0
C161 C 0.56767 0.15332 0.33054 0.0
C162 C 0.57446 0.15377 0.30833 0.0
H163 H 0.58374 0.10206 0.269 0.0
H164 H 0.57947 0.11319 0.2937 0.0
H165 H 0.55905 0.09542 0.27687 0.0
H166 H 0.53838 0.10864 0.29027 0.0
H167 H 0.52675 0.10759 0.32925 0.0
H168 H 0.39123 0.52495 0.49148 0.0
H169 H 0.4004 0.53464 0.45157 0.0
H170 H 0.44586 0.59217 0.47344 0.0
H171 H 0.43701 0.58248 0.51339 0.0
H172 H 0.40218 0.56901 0.42797 0.0
H173 H 0.47374 0.57016 0.43102 0.0
H174 H 0.45449 0.55712 0.45184 0.0
H175 H 0.46945 0.58346 0.45321 0.0
C176 C 0.40318 0.53967 0.48778 0.0
C177 C 0.4132 0.55308 0.50554 0.0
C178 C 0.40834 0.54518 0.465 0.0
C179 C 0.42382 0.56407 0.45962 0.0
C180 C 0.4339 0.5775 0.47729 0.0
H181 H 0.48127 0.62074 0.33261 0.0
H182 H 0.47143 0.61233 0.37257 0.0
C183 C 0.42865 0.57204 0.50008 0.0
C184 C 0.4294 0.5697 0.43549 0.0
H185 H 0.46602 0.58068 0.39677 0.0
C186 C 0.41611 0.57155 0.42108 0.0
C187 C 0.44761 0.57304 0.42668 0.0
C188 C 0.46215 0.57073 0.44137 0.0
C189 C 0.42069 0.57696 0.39806 0.0
C190 C 0.43884 0.5801 0.38913 0.0
C191 C 0.45212 0.57827 0.40362 0.0
C192 C 0.4444 0.58533 0.36483 0.0
C193 C 0.40624 0.57971 0.38369 0.0
C194 C 0.4326 0.57283 0.34721 0.0
C195 C 0.43813 0.57769 0.32436 0.0
C196 C 0.45565 0.59504 0.31876 0.0
C197 C 0.46762 0.60733 0.33643 0.0
C198 C 0.46202 0.60255 0.35925 0.0
H199 H 0.39611 0.58238 0.39443 0.0
H200 H 0.414 0.59225 0.37166 0.0
H201 H 0.39715 0.56614 0.37357 0.0
H202 H 0.41928 0.55914 0.35112 0.0
H203 H 0.429 0.56755 0.31117 0.0
H204 H 0.83258 0.40014 0.67764 0.0
H205 H 0.83137 0.41186 0.63937 0.0
H206 H 0.88842 0.41877 0.62445 0.0
H207 H 0.89022 0.40819 0.66322 0.0
H208 H 0.88574 0.44985 0.60939 0.0
H209 H 0.82025 0.3804 0.58124 0.0
H210 H 0.81581 0.39073 0.60636 0.0
H211 H 0.83325 0.38215 0.60737 0.0
C212 C 0.84513 0.40474 0.66653 0.0
C213 C 0.86172 0.40373 0.67373 0.0
C214 C 0.84422 0.41099 0.64441 0.0
C215 C 0.85969 0.41593 0.62892 0.0
C216 C 0.87629 0.415 0.63609 0.0
H217 H 0.85571 0.42801 0.4817 0.0
H218 H 0.85657 0.41699 0.52059 0.0
C219 C 0.87727 0.40889 0.65824 0.0
C220 C 0.85873 0.42226 0.60528 0.0
H221 H 0.83132 0.40793 0.55634 0.0
C222 C 0.87387 0.44067 0.59777 0.0
C223 C 0.84339 0.41012 0.59001 0.0
C224 C 0.82736 0.38967 0.59654 0.0
C225 C 0.87399 0.44739 0.57551 0.0
C226 C 0.85826 0.43559 0.56053 0.0
C227 C 0.84325 0.41706 0.56793 0.0
C228 C 0.85724 0.44208 0.53701 0.0
C229 C 0.89122 0.46688 0.56814 0.0
C230 C 0.85701 0.45967 0.53332 0.0
C231 C 0.85651 0.46596 0.51113 0.0
C232 C 0.8558 0.45458 0.49222 0.0
C233 C 0.85569 0.43681 0.49593 0.0
C234 C 0.85637 0.4306 0.51814 0.0
H235 H 0.9044 0.47117 0.57896 0.0
H236 H 0.89521 0.46638 0.55005 0.0
H237 H 0.88719 0.47854 0.56981 0.0
H238 H 0.85721 0.46853 0.54762 0.0
H239 H 0.85652 0.47968 0.50877 0.0
H240 H 0.39049 0.87314 0.67164 0.0
H241 H 0.39938 0.87137 0.71133 0.0
H242 H 0.44774 0.86432 0.68817 0.0
H243 H 0.43913 0.8664 0.64841 0.0
H244 H 0.40359 0.8388 0.73227 0.0
H245 H 0.47173 0.91244 0.73406 0.0
H246 H 0.45247 0.90603 0.71319 0.0
H247 H 0.46895 0.89647 0.71052 0.0
C248 C 0.40302 0.87121 0.67501 0.0
C249 C 0.41393 0.86959 0.65692 0.0
C250 C 0.40802 0.87014 0.69766 0.0
C251 C 0.42421 0.86776 0.70261 0.0
C252 C 0.4352 0.8662 0.68464 0.0
H253 H 0.48065 0.86861 0.83079 0.0
H254 H 0.4719 0.86798 0.79053 0.0
C255 C 0.43011 0.86713 0.66195 0.0
C256 C 0.42958 0.86696 0.72666 0.0
H257 H 0.46422 0.89299 0.76726 0.0
C258 C 0.41684 0.85061 0.73998 0.0
C259 C 0.4469 0.88237 0.73652 0.0
C260 C 0.46081 0.90043 0.72297 0.0
C261 C 0.42108 0.84916 0.76297 0.0
C262 C 0.43825 0.86477 0.77301 0.0
C263 C 0.45105 0.88106 0.75956 0.0
C264 C 0.44322 0.86459 0.79744 0.0
C265 C 0.40733 0.83076 0.77611 0.0
C266 C 0.43012 0.86315 0.81473 0.0
C267 C 0.43504 0.86335 0.83773 0.0
C268 C 0.45322 0.8652 0.84386 0.0
C269 C 0.46647 0.86704 0.82655 0.0
C270 C 0.46149 0.86668 0.80357 0.0
H271 H 0.39852 0.81814 0.7645 0.0
H272 H 0.41558 0.82658 0.78814 0.0
H273 H 0.3969 0.83348 0.78613 0.0
H274 H 0.41623 0.8622 0.81044 0.0
H275 H 0.42485 0.86265 0.85067 0.0
H276 H 0.57709 0.47046 0.00623 0.0
H277 H 0.57045 0.46373 0.96541 0.0
H278 H 0.5793 0.41387 0.9714 0.0
H279 H 0.58661 0.42086 0.01203 0.0
H280 H 0.59734 0.46071 0.93186 0.0
H281 H 0.52372 0.39298 0.93933 0.0
H282 H 0.5343 0.41088 0.96208 0.0
H283 H 0.54328 0.39421 0.95669 0.0
C284 C 0.57755 0.458 0.99891 0.0
C285 C 0.58188 0.44587 0.01259 0.0
C286 C 0.57375 0.45419 0.9756 0.0
C287 C 0.57411 0.43815 0.96553 0.0
C288 C 0.57855 0.42608 0.97901 0.0
H289 H 0.57592 0.41151 0.82167 0.0
H290 H 0.58315 0.41817 0.86236 0.0
C291 C 0.5825 0.42996 0.00233 0.0
C292 C 0.57035 0.4344 0.94077 0.0
H293 H 0.53698 0.40245 0.9022 0.0
C294 C 0.58418 0.44797 0.92533 0.0
C295 C 0.5531 0.41783 0.93242 0.0
C296 C 0.53762 0.40314 0.94841 0.0
C297 C 0.58124 0.44529 0.90164 0.0
C298 C 0.56407 0.42864 0.89329 0.0
C299 C 0.55017 0.41515 0.90873 0.0
C300 C 0.56011 0.42516 0.86853 0.0
C301 C 0.59634 0.46042 0.88567 0.0
C302 C 0.54467 0.42673 0.85862 0.0
C303 C 0.54076 0.42332 0.83526 0.0
C304 C 0.55218 0.4182 0.82141 0.0
C305 C 0.56744 0.41631 0.83152 0.0
C306 C 0.57143 0.41986 0.85487 0.0
H307 H 0.6071 0.47402 0.8948 0.0
H308 H 0.60456 0.45407 0.87713 0.0
H309 H 0.58899 0.46442 0.87218 0.0
H310 H 0.5357 0.43069 0.86896 0.0
H311 H 0.5288 0.42474 0.82804 0.0
H312 H 0.10044 0.52591 0.99852 0.0
H313 H 0.10123 0.53307 0.03918 0.0
H314 H 0.15772 0.58574 0.0306 0.0
H315 H 0.15762 0.57794 0.99026 0.0
H316 H 0.15797 0.566 0.06693 0.0
H317 H 0.09086 0.57242 0.0704 0.0
H318 H 0.0858 0.54916 0.05883 0.0
H319 H 0.102 0.57159 0.04377 0.0
C320 C 0.11299 0.53911 0.00522 0.0
C321 C 0.12871 0.55169 0.99088 0.0
C322 C 0.11332 0.54329 0.02847 0.0
C323 C 0.12927 0.56026 0.03787 0.0
C324 C 0.14508 0.57274 0.02366 0.0
H325 H 0.12405 0.59982 0.17564 0.0
H326 H 0.12616 0.59712 0.1342 0.0
C327 C 0.14485 0.56845 0.00043 0.0
C328 C 0.12988 0.56439 0.06271 0.0
H329 H 0.10327 0.56863 0.10627 0.0
C330 C 0.14609 0.56677 0.0755 0.0
C331 C 0.11455 0.56572 0.07387 0.0
C332 C 0.09744 0.5648 0.06096 0.0
C333 C 0.14717 0.56992 0.0992 0.0
C334 C 0.13129 0.57009 0.11055 0.0
C335 C 0.11533 0.56824 0.09766 0.0
C336 C 0.13087 0.57217 0.13574 0.0
C337 C 0.16545 0.57332 0.11172 0.0
C338 C 0.13266 0.55896 0.15043 0.0
C339 C 0.13173 0.56066 0.17412 0.0
C340 C 0.12867 0.5754 0.18353 0.0
C341 C 0.12652 0.58838 0.16883 0.0
C342 C 0.12772 0.58685 0.14517 0.0
H343 H 0.17836 0.57904 0.10008 0.0
H344 H 0.1691 0.58391 0.12601 0.0
H345 H 0.16295 0.55912 0.11883 0.0
H346 H 0.13439 0.54707 0.14358 0.0
H347 H 0.13277 0.55005 0.185 0.0
H348 H 0.57887 0.22452 0.15945 0.0
H349 H 0.57474 0.25292 0.15152 0.0
H350 H 0.56173 0.23497 0.08107 0.0
H351 H 0.56553 0.20644 0.08885 0.0
H352 H 0.59692 0.28282 0.121 0.0
H353 H 0.51778 0.24622 0.09766 0.0
H354 H 0.52846 0.23349 0.11227 0.0
H355 H 0.53141 0.23732 0.0819 0.0
C356 C 0.57487 0.22646 0.14233 0.0
C357 C 0.57254 0.2132 0.12478 0.0
C358 C 0.57253 0.24271 0.13784 0.0
C359 C 0.56768 0.24592 0.11578 0.0
C360 C 0.56505 0.23255 0.09832 0.0
H361 H 0.56408 0.34177 0.04659 0.0
H362 H 0.56288 0.31091 0.05709 0.0
C363 C 0.56737 0.21631 0.10278 0.0
C364 C 0.56679 0.26398 0.11063 0.0
H365 H 0.53716 0.28048 0.08892 0.0
C366 C 0.5838 0.28232 0.1142 0.0
C367 C 0.54968 0.26327 0.10163 0.0
C368 C 0.53073 0.24403 0.09832 0.0
C369 C 0.58432 0.29997 0.10854 0.0
C370 C 0.56727 0.29926 0.09938 0.0
C371 C 0.55021 0.28094 0.09591 0.0
C372 C 0.56698 0.31744 0.09324 0.0
C373 C 0.60326 0.31924 0.11187 0.0
C374 C 0.56928 0.33109 0.11016 0.0
C375 C 0.56998 0.3487 0.10425 0.0
C376 C 0.56833 0.35296 0.08128 0.0
C377 C 0.56549 0.33898 0.06442 0.0
C378 C 0.56476 0.32134 0.07038 0.0
H379 H 0.61611 0.31702 0.11407 0.0
H380 H 0.60613 0.32923 0.09711 0.0
H381 H 0.60202 0.32664 0.12742 0.0
H382 H 0.5707 0.32819 0.12795 0.0
H383 H 0.57205 0.35907 0.11768 0.0
H384 H 0.20389 0.5552 0.27846 0.0
H385 H 0.23545 0.55714 0.28622 0.0
H386 H 0.24876 0.56365 0.2142 0.0
H387 H 0.21729 0.56203 0.20625 0.0
H388 H 0.25154 0.53432 0.27092 0.0
H389 H 0.29595 0.61224 0.24255 0.0
H390 H 0.26976 0.60049 0.24765 0.0
H391 H 0.27888 0.59571 0.22168 0.0
C392 C 0.21347 0.55697 0.26423 0.0
C393 C 0.20815 0.55866 0.24174 0.0
C394 C 0.23149 0.55804 0.26871 0.0
C395 C 0.24456 0.56085 0.25083 0.0
C396 C 0.23903 0.56186 0.22828 0.0
H397 H 0.35134 0.55258 0.26166 0.0
H398 H 0.31822 0.54647 0.25287 0.0
C399 C 0.22101 0.56083 0.22377 0.0
C400 C 0.26416 0.56324 0.25598 0.0
H401 H 0.31349 0.59617 0.25304 0.0
C402 C 0.26511 0.54781 0.26698 0.0
C403 C 0.28179 0.58097 0.25109 0.0
C404 C 0.28165 0.59839 0.24028 0.0
C405 C 0.28327 0.54961 0.27314 0.0
C406 C 0.3009 0.56722 0.26788 0.0
C407 C 0.29993 0.58265 0.25694 0.0
C408 C 0.32057 0.57021 0.27401 0.0
C409 C 0.28342 0.53287 0.2857 0.0
C410 C 0.33294 0.5857 0.28862 0.0
C411 C 0.3519 0.58931 0.29359 0.0
C412 C 0.35891 0.57755 0.28391 0.0
C413 C 0.34638 0.56187 0.26948 0.0
C414 C 0.3274 0.55828 0.26452 0.0
H415 H 0.2688 0.52258 0.29325 0.0
H416 H 0.28724 0.52441 0.27356 0.0
H417 H 0.29462 0.53852 0.29953 0.0
H418 H 0.32795 0.59511 0.29607 0.0
H419 H 0.36115 0.60151 0.30475 0.0
H420 H 0.78142 0.36901 0.38698 0.0
H421 H 0.75356 0.33644 0.37826 0.0
H422 H 0.75448 0.31759 0.44723 0.0
H423 H 0.78221 0.35029 0.45627 0.0
H424 H 0.74946 0.29884 0.38087 0.0
H425 H 0.69776 0.30618 0.43966 0.0
H426 H 0.72124 0.3269 0.43161 0.0
H427 H 0.72003 0.30968 0.45272 0.0
C428 C 0.77575 0.35795 0.40032 0.0
C429 C 0.78392 0.36232 0.4224 0.0
C430 C 0.75985 0.33932 0.39527 0.0
C431 C 0.75177 0.32472 0.41219 0.0
C432 C 0.76026 0.3288 0.43406 0.0
H433 H 0.64639 0.2084 0.41034 0.0
H434 H 0.67794 0.23719 0.42054 0.0
C435 C 0.77615 0.34746 0.43915 0.0
C436 C 0.7342 0.3054 0.40694 0.0
H437 H 0.68563 0.27586 0.42043 0.0
C438 C 0.73551 0.29377 0.38955 0.0
C439 C 0.71603 0.29885 0.4183 0.0
C440 C 0.71353 0.31109 0.43648 0.0
C441 C 0.7191 0.27571 0.38321 0.0
C442 C 0.70087 0.26932 0.39434 0.0
C443 C 0.69966 0.28079 0.41198 0.0
C444 C 0.68263 0.25115 0.38746 0.0
C445 C 0.72146 0.26357 0.3648 0.0
C446 C 0.67484 0.24943 0.36544 0.0
C447 C 0.65681 0.233 0.35954 0.0
C448 C 0.64616 0.21803 0.37561 0.0
C449 C 0.65419 0.21965 0.39754 0.0
C450 C 0.67222 0.23609 0.40341 0.0
H451 H 0.73712 0.26759 0.36264 0.0
H452 H 0.7126 0.24759 0.36869 0.0
H453 H 0.71624 0.26628 0.34831 0.0
H454 H 0.68243 0.26108 0.35301 0.0
H455 H 0.65102 0.23226 0.34254 0.0
H456 H 0.42503 0.64085 0.60885 0.0
H457 H 0.42543 0.67149 0.61786 0.0
H458 H 0.42813 0.68483 0.54604 0.0
H459 H 0.42744 0.65401 0.5368 0.0
H460 H 0.45271 0.71075 0.60749 0.0
H461 H 0.37966 0.68715 0.56818 0.0
H462 H 0.38837 0.67016 0.57388 0.0
H463 H 0.3973 0.68615 0.54944 0.0
C464 C 0.42576 0.6503 0.59494 0.0
C465 C 0.42602 0.64489 0.57208 0.0
C466 C 0.42603 0.66783 0.60014 0.0
C467 C 0.4265 0.68027 0.58261 0.0
C468 C 0.42738 0.67524 0.5598 0.0
H469 H 0.44648 0.79956 0.6003 0.0
H470 H 0.44991 0.77099 0.59087 0.0
C471 C 0.42708 0.65767 0.55456 0.0
C472 C 0.42565 0.69825 0.58832 0.0
H473 H 0.39733 0.71981 0.58211 0.0
C474 C 0.44063 0.71278 0.60192 0.0
C475 C 0.40973 0.7007 0.58127 0.0
C476 C 0.39274 0.68516 0.56756 0.0
C477 C 0.44017 0.72977 0.60859 0.0
C478 C 0.42443 0.73237 0.60118 0.0
C479 C 0.40944 0.71781 0.58764 0.0
C480 C 0.42292 0.74984 0.60769 0.0
C481 C 0.45625 0.74454 0.62394 0.0
C482 C 0.4065 0.7474 0.62004 0.0
C483 C 0.40442 0.76366 0.62534 0.0
C484 C 0.4187 0.78269 0.61828 0.0
C485 C 0.43526 0.78512 0.60609 0.0
C486 C 0.4373 0.76882 0.60078 0.0
H487 H 0.4644 0.73812 0.63255 0.0
H488 H 0.46695 0.75727 0.61355 0.0
H489 H 0.4501 0.7501 0.63718 0.0
H490 H 0.3952 0.73286 0.62548 0.0
H491 H 0.39149 0.76125 0.63472 0.0
H492 H 0.658 0.44143 0.7864 0.0
H493 H 0.6896 0.44377 0.77703 0.0
H494 H 0.66262 0.40497 0.71957 0.0
H495 H 0.63117 0.40277 0.72854 0.0
H496 H 0.69821 0.41357 0.77484 0.0
H497 H 0.7114 0.45068 0.69088 0.0
H498 H 0.69335 0.44958 0.71091 0.0
H499 H 0.68766 0.42883 0.69282 0.0
C500 C 0.65883 0.4335 0.77168 0.0
C501 C 0.64208 0.42197 0.75816 0.0
C502 C 0.67689 0.43487 0.76635 0.0
C503 C 0.67853 0.42484 0.74737 0.0
C504 C 0.66181 0.41323 0.73396 0.0
H505 H 0.76077 0.39577 0.68845 0.0
H506 H 0.73319 0.40062 0.69842 0.0
C507 C 0.64379 0.41188 0.73923 0.0
C508 C 0.69743 0.42566 0.7421 0.0
H509 H 0.73085 0.43572 0.6994 0.0
C510 C 0.70552 0.41865 0.75848 0.0
C511 C 0.70692 0.43232 0.72073 0.0
C512 C 0.69951 0.44096 0.70291 0.0
C513 C 0.72239 0.41735 0.7537 0.0
C514 C 0.73154 0.42349 0.73208 0.0
C515 C 0.72375 0.43096 0.71592 0.0
C516 C 0.74869 0.42144 0.72557 0.0
C517 C 0.72983 0.40869 0.77147 0.0
C518 C 0.76668 0.43186 0.73724 0.0
C519 C 0.78248 0.42911 0.73161 0.0
C520 C 0.78059 0.41594 0.71413 0.0
C521 C 0.76271 0.40596 0.70205 0.0
C522 C 0.74693 0.40873 0.7077 0.0
H523 H 0.7188 0.40092 0.78517 0.0
H524 H 0.73369 0.39818 0.76355 0.0
H525 H 0.74334 0.42072 0.7795 0.0
H526 H 0.76843 0.44201 0.75081 0.0
H527 H 0.79609 0.43712 0.74115 0.0
H528 H 0.20324 0.65622 0.93419 0.0
H529 H 0.23302 0.68663 0.9228 0.0
H530 H 0.26905 0.66427 0.95039 0.0
H531 H 0.23949 0.63382 0.96163 0.0
H532 H 0.26565 0.71441 0.94922 0.0
H533 H 0.28804 0.67816 0.88387 0.0
H534 H 0.2636 0.66644 0.89606 0.0
H535 H 0.28363 0.66686 0.91156 0.0
C536 C 0.21751 0.6578 0.93791 0.0
C537 C 0.21899 0.64251 0.94864 0.0
C538 C 0.23449 0.67518 0.93139 0.0
C539 C 0.25319 0.67751 0.93538 0.0
C540 C 0.25472 0.66257 0.94673 0.0
H541 H 0.37475 0.76315 0.91604 0.0
H542 H 0.34258 0.73492 0.92522 0.0
C543 C 0.2378 0.64522 0.95325 0.0
C544 C 0.27119 0.69549 0.9276 0.0
H545 H 0.31196 0.71102 0.89405 0.0
C546 C 0.2757 0.71376 0.93699 0.0
C547 C 0.28418 0.69454 0.91153 0.0
C548 C 0.27957 0.67548 0.89998 0.0
C549 C 0.29333 0.73102 0.93144 0.0
C550 C 0.30657 0.72995 0.91587 0.0
C551 C 0.3018 0.71176 0.90606 0.0
C552 C 0.32591 0.74732 0.91031 0.0
C553 C 0.298 0.75014 0.94286 0.0
C554 C 0.32718 0.76357 0.89866 0.0
C555 C 0.34559 0.77977 0.89333 0.0
C556 C 0.36303 0.77994 0.89953 0.0
C557 C 0.36164 0.76354 0.91105 0.0
C558 C 0.34327 0.74738 0.91631 0.0
H559 H 0.28817 0.74776 0.95765 0.0
H560 H 0.31353 0.75813 0.94883 0.0
H561 H 0.29608 0.75969 0.93035 0.0
H562 H 0.31393 0.76365 0.89355 0.0
H563 H 0.34616 0.79215 0.88439 0.0
H564 H 0.61239 0.0664 0.05169 0.0
H565 H 0.5952 0.03561 0.03012 0.0
H566 H 0.54442 0.04301 0.02378 0.0
H567 H 0.5617 0.07409 0.0448 0.0
H568 H 0.56127 0.00174 0.03903 0.0
H569 H 0.55369 0.03422 0.95808 0.0
H570 H 0.56939 0.0491 0.9811 0.0
H571 H 0.54324 0.03972 0.98229 0.0
C572 C 0.59757 0.0615 0.04568 0.0
C573 C 0.58846 0.07276 0.0498 0.0
C574 C 0.58777 0.0439 0.03335 0.0
C575 C 0.56867 0.0372 0.02495 0.0
C576 C 0.55934 0.04816 0.02956 0.0
H577 H 0.48498 0.93003 0.95404 0.0
H578 H 0.501 0.96095 0.97567 0.0
C579 C 0.56919 0.06585 0.04172 0.0
C580 C 0.55848 0.0186 0.01169 0.0
H581 H 0.53662 0.99925 0.96031 0.0
C582 C 0.55595 0.00122 0.02179 0.0
C583 C 0.55157 0.01795 0.98916 0.0
C584 C 0.55476 0.03627 0.97691 0.0
C585 C 0.54654 0.98319 0.01006 0.0
C586 C 0.53957 0.98257 0.98765 0.0
C587 C 0.54195 -0.00015 0.97756 0.0
C588 C 0.53002 0.96409 0.97429 0.0
C589 C 0.54391 0.96486 0.02173 0.0
C590 C 0.54115 0.95587 0.96614 0.0
C591 C 0.5321 0.93831 0.95366 0.0
C592 C 0.51174 0.92865 0.94922 0.0
C593 C 0.50068 0.93707 0.95724 0.0
C594 C 0.50978 0.95472 0.96957 0.0
H595 H 0.54699 0.96714 0.04034 0.0
H596 H 0.52867 0.95243 0.0192 0.0
H597 H 0.55418 0.96058 0.01405 0.0
H598 H 0.55684 0.96304 0.96946 0.0
H599 H 0.54104 0.93222 0.94772 0.0
H600 H 0.60118 0.53266 0.11793 0.0
H601 H 0.58713 0.54974 0.13886 0.0
H602 H 0.53108 0.49585 0.14196 0.0
H603 H 0.54514 0.47852 0.12156 0.0
H604 H 0.55677 0.55565 0.12822 0.0
H605 H 0.53989 0.51227 0.20831 0.0
H606 H 0.55519 0.511 0.1861 0.0
H607 H 0.52878 0.49739 0.18345 0.0
C608 C 0.58587 0.52442 0.1231 0.0
C609 C 0.57431 0.50419 0.11823 0.0
C610 C 0.57786 0.53421 0.13506 0.0
C611 C 0.55816 0.52399 0.14236 0.0
C612 C 0.54645 0.50391 0.13704 0.0
H613 H 0.48297 0.56085 0.20954 0.0
H614 H 0.49618 0.54292 0.18861 0.0
C615 C 0.55449 0.49406 0.12523 0.0
C616 C 0.54984 0.53447 0.1552 0.0
H617 H 0.5274 0.53429 0.20534 0.0
C618 C 0.55043 0.55102 0.14512 0.0
C619 C 0.54159 0.52843 0.17728 0.0
C620 C 0.54147 0.51142 0.18954 0.0
C621 C 0.54279 0.56155 0.1564 0.0
C622 C 0.53445 0.55542 0.17836 0.0
C623 C 0.53376 0.53886 0.18844 0.0
C624 C 0.52657 0.5662 0.19124 0.0
C625 C 0.54344 0.57903 0.14471 0.0
C626 C 0.53935 0.58508 0.19986 0.0
C627 C 0.5319 0.59532 0.21194 0.0
C628 C 0.51149 0.58684 0.21552 0.0
C629 C 0.49874 0.56781 0.20701 0.0
C630 C 0.50625 0.55754 0.19507 0.0
H631 H 0.54702 0.57967 0.12626 0.0
H632 H 0.52909 0.57854 0.14653 0.0
H633 H 0.5549 0.5928 0.15291 0.0
H634 H 0.55511 0.59189 0.19726 0.0
H635 H 0.54211 0.60993 0.21829 0.0
H636 H 0.0518 0.53271 0.2879 0.0
H637 H 0.02008 0.52018 0.30726 0.0
H638 H 0.02944 0.57923 0.31129 0.0
H639 H 0.0609 0.59181 0.29146 0.0
H640 H 0.01299 0.52888 0.34973 0.0
H641 H 0.97414 0.54951 0.28601 0.0
H642 H 0.99684 0.54985 0.27959 0.0
H643 H 0.99726 0.57003 0.29479 0.0
C644 C 0.04701 0.54301 0.29269 0.0
C645 C 0.05883 0.56325 0.28805 0.0
C646 C 0.02889 0.53582 0.30378 0.0
C647 C 0.02223 0.54872 0.3104 0.0
C648 C 0.03402 0.56893 0.30582 0.0
H649 H 0.92725 0.54024 0.39356 0.0
H650 H 0.95736 0.55077 0.37133 0.0
C651 C 0.05208 0.57612 0.2946 0.0
C652 C 0.00343 0.54118 0.32308 0.0
H653 H 0.95922 0.53995 0.32287 0.0
C654 C 0.00116 0.53114 0.34375 0.0
C655 C 0.988 0.54412 0.31524 0.0
C656 C 0.98906 0.55379 0.29258 0.0
C657 C 0.98408 0.5244 0.35705 0.0
C658 C 0.96887 0.52771 0.34941 0.0
C659 C 0.97101 0.53756 0.32869 0.0
C660 C 0.95066 0.52119 0.36285 0.0
C661 C 0.98256 0.5142 0.37944 0.0
C662 C 0.93691 0.50107 0.36524 0.0
C663 C 0.91965 0.49499 0.37783 0.0
C664 C 0.91589 0.50895 0.38828 0.0
C665 C 0.92973 0.52911 0.3858 0.0
C666 C 0.94692 0.53517 0.37308 0.0
H667 H 0.99692 0.51586 0.38479 0.0
H668 H 0.97718 0.52015 0.39313 0.0
H669 H 0.97178 0.49824 0.37767 0.0
H670 H 0.93949 0.49009 0.35725 0.0
H671 H 0.90928 0.47936 0.37938 0.0
H672 H 0.51951 0.08153 0.45803 0.0
H673 H 0.50706 0.05167 0.48127 0.0
H674 H 0.44911 0.02969 0.45251 0.0
H675 H 0.46142 0.05934 0.42906 0.0
H676 H 0.4772 0.03789 0.51395 0.0
H677 H 0.45869 0.98319 0.44459 0.0
H678 H 0.47434 0.00936 0.44014 0.0
H679 H 0.44798 0.9986 0.44079 0.0
C680 C 0.50415 0.07027 0.4565 0.0
C681 C 0.49146 0.07279 0.44163 0.0
C682 C 0.49706 0.05324 0.46982 0.0
C683 C 0.47723 0.03836 0.46838 0.0
C684 C 0.46455 0.04081 0.45354 0.0
H685 H 0.40446 0.94712 0.56376 0.0
H686 H 0.42188 0.97708 0.54084 0.0
C687 C 0.4716 0.05783 0.44024 0.0
C688 C 0.46956 0.02065 0.48309 0.0
H689 H 0.44573 0.97038 0.48154 0.0
C690 C 0.47046 0.02313 0.50689 0.0
C691 C 0.46102 0.00143 0.47383 0.0
C692 C 0.46059 0.99793 0.44844 0.0
C693 C 0.46246 0.00685 0.52169 0.0
C694 C 0.45308 0.98761 0.51239 0.0
C695 C 0.45276 0.98515 0.48862 0.0
C696 C 0.44307 0.96981 0.52698 0.0
C697 C 0.46418 0.01039 0.54713 0.0
C698 C 0.44901 0.95563 0.52652 0.0
C699 C 0.43902 0.93842 0.53953 0.0
C700 C 0.4228 0.93502 0.5531 0.0
C701 C 0.41695 0.94932 0.55359 0.0
C702 C 0.42696 0.96652 0.54059 0.0
H703 H 0.47633 0.02542 0.55142 0.0
H704 H 0.45023 0.00897 0.55365 0.0
H705 H 0.46679 0.99942 0.55613 0.0
H706 H 0.46135 0.95786 0.51602 0.0
H707 H 0.44387 0.92769 0.53873 0.0
H708 H 0.4676 0.40341 0.71435 0.0
H709 H 0.45202 0.41845 0.69232 0.0
H710 H 0.50724 0.47328 0.6901 0.0
H711 H 0.52307 0.45821 0.71161 0.0
H712 H 0.44734 0.44978 0.70162 0.0
H713 H 0.49246 0.46454 0.62326 0.0
H714 H 0.49246 0.44902 0.64603 0.0
H715 H 0.50685 0.47542 0.6485 0.0
C716 C 0.47644 0.41867 0.70916 0.0
C717 C 0.49661 0.42958 0.71458 0.0
C718 C 0.46751 0.42724 0.69657 0.0
C719 C 0.47855 0.44687 0.68917 0.0
C720 C 0.49856 0.45796 0.69509 0.0
H721 H 0.44718 0.52449 0.61746 0.0
H722 H 0.46373 0.51051 0.63975 0.0
C723 C 0.50755 0.44936 0.70753 0.0
C724 C 0.46901 0.45574 0.67553 0.0
H725 H 0.47136 0.47818 0.62462 0.0
C726 C 0.45255 0.45592 0.68475 0.0
C727 C 0.4758 0.46371 0.65348 0.0
C728 C 0.49274 0.46302 0.64211 0.0
C729 C 0.44284 0.46404 0.67264 0.0
C730 C 0.44973 0.4721 0.65073 0.0
C731 C 0.46621 0.47204 0.6415 0.0
C732 C 0.43981 0.48044 0.63698 0.0
C733 C 0.42543 0.46419 0.68343 0.0
C734 C 0.42103 0.46806 0.62782 0.0
C735 C 0.41159 0.47595 0.61497 0.0
C736 C 0.42076 0.49638 0.61114 0.0
C737 C 0.43969 0.50871 0.62017 0.0
C738 C 0.44918 0.50077 0.63288 0.0
H739 H 0.4242 0.46073 0.70196 0.0
H740 H 0.42655 0.47879 0.68111 0.0
H741 H 0.41169 0.45299 0.67492 0.0
H742 H 0.41369 0.45229 0.63063 0.0
H743 H 0.39703 0.46606 0.60824 0.0
H744 H 0.94111 0.39596 0.7626 0.0
H745 H 0.97055 0.41476 0.78607 0.0
H746 H 0.94447 0.4465 0.8164 0.0
H747 H 0.91486 0.42765 0.79313 0.0
H748 H 0.9961 0.45603 0.78849 0.0
H749 H 0.95995 0.42445 0.87177 0.0
H750 H 0.94877 0.41343 0.84474 0.0
H751 H 0.94833 0.43488 0.85476 0.0
C752 C 0.94162 0.40694 0.77425 0.0
C753 C 0.92559 0.41023 0.77609 0.0
C754 C 0.95846 0.41768 0.78762 0.0
C755 C 0.95955 0.43181 0.80318 0.0
C756 C 0.94376 0.43541 0.80478 0.0
H757 H 0.06673 0.51967 0.87184 0.0
H758 H 0.03642 0.50306 0.84924 0.0
C759 C 0.9269 0.42469 0.79138 0.0
C760 C 0.97729 0.44278 0.81764 0.0
H761 H 0.99322 0.45009 0.87297 0.0
C762 C 0.9955 0.45479 0.80696 0.0
C763 C 0.97643 0.44093 0.84171 0.0
C764 C 0.95737 0.42761 0.854 0.0
C765 C 0.01291 0.46508 0.81973 0.0
C766 C 0.012 0.46346 0.84383 0.0
C767 C 0.99381 0.4514 0.8545 0.0
C768 C 0.02992 0.47361 0.85818 0.0
C769 C 0.03219 0.4772 0.80733 0.0
C770 C 0.03597 0.46255 0.87119 0.0
C771 C 0.05322 0.47197 0.88418 0.0
C772 C 0.06468 0.49266 0.8845 0.0
C773 C 0.0583 0.50371 0.87187 0.0
C774 C 0.04105 0.49426 0.85886 0.0
H775 H 0.03095 0.47341 0.78888 0.0
H776 H 0.03678 0.49304 0.80879 0.0
H777 H 0.04395 0.47505 0.815 0.0
H778 H 0.02752 0.44659 0.87096 0.0
H779 H 0.05768 0.46302 0.89376 0.0
loop_
_geom_bond_atom_site_label_1
_geom_bond_atom_site_label_2
_geom_bond_distance
_geom_bond_site_symmetry_2
_ccdc_geom_bond_type
O0 Cd1 2.300 . S
O0 C7 1.275 . S
Cd1 O0 2.300 . S
Cd1 O9 2.381 . S
Cd1 O10 2.378 . S
O2 Cd3 2.385 . S
O2 C7 1.255 . S
Cd3 O2 2.385 . S
Cd3 O4 2.317 . S
O4 Cd3 2.317 . S
O4 C5 1.232 . S
C5 O4 1.232 . S
C5 O6 1.218 . S
O6 C5 1.218 . S
C7 O0 1.275 . S
C7 O2 1.255 . S
C8 O9 1.258 . S
C8 O10 1.256 . S
O9 Cd1 2.381 . S
O9 C8 1.258 . S
O10 Cd1 2.378 . S
O10 C8 1.256 . S
O11 Cd12 2.300 . S
O11 C18 1.275 . S
Cd12 O11 2.300 . S
Cd12 O20 2.381 . S
Cd12 O21 2.378 . S
O13 Cd14 2.385 . S
O13 C18 1.255 . S
Cd14 O13 2.385 . S
Cd14 O15 2.317 . S
O15 Cd14 2.317 . S
O15 C16 1.232 . S
C16 O15 1.232 . S
C16 O17 1.218 . S
O17 C16 1.218 . S
C18 O11 1.275 . S
C18 O13 1.255 . S
C19 O20 1.258 . S
C19 O21 1.256 . S
O20 Cd12 2.381 . S
O20 C19 1.258 . S
O21 Cd12 2.378 . S
O21 C19 1.256 . S
O22 Cd23 2.300 . S
O22 C29 1.275 . S
Cd23 O22 2.300 . S
Cd23 O31 2.381 . S
Cd23 O32 2.378 . S
O24 Cd25 2.385 . S
O24 C29 1.255 . S
Cd25 O24 2.385 . S
Cd25 O26 2.317 . S
O26 Cd25 2.317 . S
O26 C27 1.232 . S
C27 O26 1.232 . S
C27 O28 1.218 . S
O28 C27 1.218 . S
C29 O22 1.275 . S
C29 O24 1.255 . S
C30 O31 1.258 . S
C30 O32 1.256 . S
O31 Cd23 2.381 . S
O31 C30 1.258 . S
O32 Cd23 2.378 . S
O32 C30 1.256 . S
O33 Cd34 2.300 . S
O33 C40 1.275 . S
Cd34 O33 2.300 . S
Cd34 O42 2.381 . S
Cd34 O43 2.378 . S
O35 Cd36 2.385 . S
O35 C40 1.255 . S
Cd36 O35 2.385 . S
Cd36 O37 2.317 . S
O37 Cd36 2.317 . S
O37 C38 1.232 . S
C38 O37 1.232 . S
C38 O39 1.218 . S
O39 C38 1.218 . S
C40 O33 1.275 . S
C40 O35 1.255 . S
C41 O42 1.258 . S
C41 O43 1.256 . S
O42 Cd34 2.381 . S
O42 C41 1.258 . S
O43 Cd34 2.378 . S
O43 C41 1.256 . S
O44 Cd45 2.300 . S
O44 C51 1.275 . S
Cd45 O44 2.300 . S
Cd45 O53 2.381 . S
Cd45 O54 2.378 . S
O46 Cd47 2.385 . S
O46 C51 1.255 . S
Cd47 O46 2.385 . S
Cd47 O48 2.317 . S
O48 Cd47 2.317 . S
O48 C49 1.232 . S
C49 O48 1.232 . S
C49 O50 1.218 . S
O50 C49 1.218 . S
C51 O44 1.275 . S
C51 O46 1.255 . S
C52 O53 1.258 . S
C52 O54 1.256 . S
O53 Cd45 2.381 . S
O53 C52 1.258 . S
O54 Cd45 2.378 . S
O54 C52 1.256 . S
O55 Cd56 2.300 . S
O55 C62 1.275 . S
Cd56 O55 2.300 . S
Cd56 O64 2.381 . S
Cd56 O65 2.378 . S
O57 Cd58 2.385 . S
O57 C62 1.255 . S
Cd58 O57 2.385 . S
Cd58 O59 2.317 . S
O59 Cd58 2.317 . S
O59 C60 1.232 . S
C60 O59 1.232 . S
C60 O61 1.218 . S
O61 C60 1.218 . S
C62 O55 1.275 . S
C62 O57 1.255 . S
C63 O64 1.258 . S
C63 O65 1.256 . S
O64 Cd56 2.381 . S
O64 C63 1.258 . S
O65 Cd56 2.378 . S
O65 C63 1.256 . S
O66 Cd67 2.300 . S
O66 C73 1.275 . S
Cd67 O66 2.300 . S
Cd67 O75 2.381 . S
Cd67 O76 2.378 . S
O68 Cd69 2.385 . S
O68 C73 1.255 . S
Cd69 O68 2.385 . S
Cd69 O70 2.317 . S
O70 Cd69 2.317 . S
O70 C71 1.232 . S
C71 O70 1.232 . S
C71 O72 1.218 . S
O72 C71 1.218 . S
C73 O66 1.275 . S
C73 O68 1.255 . S
C74 O75 1.258 . S
C74 O76 1.256 . S
O75 Cd67 2.381 . S
O75 C74 1.258 . S
O76 Cd67 2.378 . S
O76 C74 1.256 . S
O77 Cd78 2.300 . S
O77 C84 1.275 . S
Cd78 O77 2.300 . S
Cd78 O86 2.381 . S
Cd78 O87 2.378 . S
O79 Cd80 2.385 . S
O79 C84 1.255 . S
Cd80 O79 2.385 . S
Cd80 O81 2.317 . S
O81 Cd80 2.317 . S
O81 C82 1.232 . S
C82 O81 1.232 . S
C82 O83 1.218 . S
O83 C82 1.218 . S
C84 O77 1.275 . S
C84 O79 1.255 . S
C85 O86 1.258 . S
C85 O87 1.256 . S
O86 Cd78 2.381 . S
O86 C85 1.258 . S
O87 Cd78 2.378 . S
O87 C85 1.256 . S
O88 Cd89 2.300 . S
O88 C95 1.275 . S
Cd89 O88 2.300 . S
Cd89 O97 2.381 . S
Cd89 O98 2.378 . S
O90 Cd91 2.385 . S
O90 C95 1.255 . S
Cd91 O90 2.385 . S
Cd91 O92 2.317 . S
O92 Cd91 2.317 . S
O92 C93 1.232 . S
C93 O92 1.232 . S
C93 O94 1.218 . S
O94 C93 1.218 . S
C95 O88 1.275 . S
C95 O90 1.255 . S
C96 O97 1.258 . S
C96 O98 1.256 . S
O97 Cd89 2.381 . S
O97 C96 1.258 . S
O98 Cd89 2.378 . S
O98 C96 1.256 . S
O99 Cd100 2.300 . S
O99 C106 1.275 . S
Cd100 O99 2.300 . S
Cd100 O108 2.381 . S
Cd100 O109 2.378 . S
O101 Cd102 2.385 . S
O101 C106 1.255 . S
Cd102 O101 2.385 . S
Cd102 O103 2.317 . S
O103 Cd102 2.317 . S
O103 C104 1.232 . S
C104 O103 1.232 . S
C104 O105 1.218 . S
O105 C104 1.218 . S
C106 O99 1.275 . S
C106 O101 1.255 . S
C107 O108 1.258 . S
C107 O109 1.256 . S
O108 Cd100 2.381 . S
O108 C107 1.258 . S
O109 Cd100 2.378 . S
O109 C107 1.256 . S
O110 Cd111 2.300 . S
O110 C117 1.275 . S
Cd111 O110 2.300 . S
Cd111 O119 2.381 . S
Cd111 O120 2.378 . S
O112 Cd113 2.385 . S
O112 C117 1.255 . S
Cd113 O112 2.385 . S
Cd113 O114 2.317 . S
O114 Cd113 2.317 . S
O114 C115 1.232 . S
C115 O114 1.232 . S
C115 O116 1.218 . S
O116 C115 1.218 . S
C117 O110 1.275 . S
C117 O112 1.255 . S
C118 O119 1.258 . S
C118 O120 1.256 . S
O119 Cd111 2.381 . S
O119 C118 1.258 . S
O120 Cd111 2.378 . S
O120 C118 1.256 . S
O121 Cd122 2.300 . S
O121 C128 1.275 . S
Cd122 O121 2.300 . S
Cd122 O130 2.381 . S
Cd122 O131 2.378 . S
O123 Cd124 2.385 . S
O123 C128 1.255 . S
Cd124 O123 2.385 . S
Cd124 O125 2.317 . S
O125 Cd124 2.317 . S
O125 C126 1.232 . S
C126 O125 1.232 . S
C126 O127 1.218 . S
O127 C126 1.218 . S
C128 O121 1.275 . S
C128 O123 1.255 . S
C129 O130 1.258 . S
C129 O131 1.256 . S
O130 Cd122 2.381 . S
O130 C129 1.258 . S
O131 Cd122 2.378 . S
O131 C129 1.256 . S
H132 C140 0.929 . S
H133 C142 0.930 . S
H134 C144 0.930 . S
H135 C147 0.929 . S
H136 C150 0.930 . S
H137 C152 0.960 . S
H138 C152 0.960 . S
H139 C152 0.960 . S
C140 H132 0.929 . S
C140 C141 1.377 . S
C140 C142 1.384 . S
C141 C140 1.377 . S
C141 C147 1.390 . S
C142 H133 0.930 . S
C142 C140 1.384 . S
C142 C143 1.372 . S
C143 C142 1.372 . S
C143 C144 1.400 . S
C143 C148 1.490 . S
C144 H134 0.930 . S
C144 C143 1.400 . S
C144 C147 1.386 . S
H145 C161 0.930 . S
H146 C162 0.931 . S
C147 H135 0.929 . S
C147 C141 1.390 . S
C147 C144 1.386 . S
C148 C143 1.490 . S
C148 C150 1.395 . S
C148 C151 1.403 . S
H149 C155 0.930 . S
C150 H136 0.930 . S
C150 C148 1.395 . S
C150 C153 1.403 . S
C151 C148 1.403 . S
C151 C152 1.524 . S
C151 C155 1.400 . S
C152 H137 0.960 . S
C152 H138 0.960 . S
C152 H139 0.960 . S
C152 C151 1.524 . S
C153 C150 1.403 . S
C153 C154 1.392 . S
C153 C157 1.495 . S
C154 C153 1.392 . S
C154 C155 1.385 . S
C154 C156 1.478 . S
C155 H149 0.930 . S
C155 C151 1.400 . S
C155 C154 1.385 . S
C156 C154 1.478 . S
C156 C158 1.381 . S
C156 C162 1.383 . S
C157 C153 1.495 . S
C157 H163 0.959 . S
C157 H164 0.961 . S
C157 H165 0.960 . S
C158 C156 1.381 . S
C158 C159 1.394 . S
C158 H166 0.930 . S
C159 C158 1.394 . S
C159 C160 1.383 . S
C159 H167 0.929 . S
C160 C159 1.383 . S
C160 C161 1.377 . S
C161 H145 0.930 . S
C161 C160 1.377 . S
C161 C162 1.379 . S
C162 H146 0.931 . S
C162 C156 1.383 . S
C162 C161 1.379 . S
H163 C157 0.959 . S
H164 C157 0.961 . S
H165 C157 0.960 . S
H166 C158 0.930 . S
H167 C159 0.929 . S
H168 C176 0.929 . S
H169 C178 0.930 . S
H170 C180 0.930 . S
H171 C183 0.929 . S
H172 C186 0.930 . S
H173 C188 0.960 . S
H174 C188 0.960 . S
H175 C188 0.960 . S
C176 H168 0.929 . S
C176 C177 1.377 . S
C176 C178 1.384 . S
C177 C176 1.377 . S
C177 C183 1.390 . S
C178 H169 0.930 . S
C178 C176 1.384 . S
C178 C179 1.372 . S
C179 C178 1.372 . S
C179 C180 1.400 . S
C179 C184 1.490 . S
C180 H170 0.930 . S
C180 C179 1.400 . S
C180 C183 1.386 . S
H181 C197 0.930 . S
H182 C198 0.931 . S
C183 H171 0.929 . S
C183 C177 1.390 . S
C183 C180 1.386 . S
C184 C179 1.490 . S
C184 C186 1.395 . S
C184 C187 1.403 . S
H185 C191 0.930 . S
C186 H172 0.930 . S
C186 C184 1.395 . S
C186 C189 1.403 . S
C187 C184 1.403 . S
C187 C188 1.524 . S
C187 C191 1.400 . S
C188 H173 0.960 . S
C188 H174 0.960 . S
C188 H175 0.960 . S
C188 C187 1.524 . S
C189 C186 1.403 . S
C189 C190 1.392 . S
C189 C193 1.495 . S
C190 C189 1.392 . S
C190 C191 1.385 . S
C190 C192 1.478 . S
C191 H185 0.930 . S
C191 C187 1.400 . S
C191 C190 1.385 . S
C192 C190 1.478 . S
C192 C194 1.381 . S
C192 C198 1.383 . S
C193 C189 1.495 . S
C193 H199 0.959 . S
C193 H200 0.961 . S
C193 H201 0.960 . S
C194 C192 1.381 . S
C194 C195 1.394 . S
C194 H202 0.930 . S
C195 C194 1.394 . S
C195 C196 1.383 . S
C195 H203 0.929 . S
C196 C195 1.383 . S
C196 C197 1.377 . S
C197 H181 0.930 . S
C197 C196 1.377 . S
C197 C198 1.379 . S
C198 H182 0.931 . S
C198 C192 1.383 . S
C198 C197 1.379 . S
H199 C193 0.959 . S
H200 C193 0.961 . S
H201 C193 0.960 . S
H202 C194 0.930 . S
H203 C195 0.929 . S
H204 C212 0.929 . S
H205 C214 0.930 . S
H206 C216 0.930 . S
H207 C219 0.929 . S
H208 C222 0.930 . S
H209 C224 0.960 . S
H210 C224 0.960 . S
H211 C224 0.960 . S
C212 H204 0.929 . S
C212 C213 1.377 . S
C212 C214 1.384 . S
C213 C212 1.377 . S
C213 C219 1.390 . S
C214 H205 0.930 . S
C214 C212 1.384 . S
C214 C215 1.372 . S
C215 C214 1.372 . S
C215 C216 1.400 . S
C215 C220 1.490 . S
C216 H206 0.930 . S
C216 C215 1.400 . S
C216 C219 1.386 . S
H217 C233 0.930 . S
H218 C234 0.931 . S
C219 H207 0.929 . S
C219 C213 1.390 . S
C219 C216 1.386 . S
C220 C215 1.490 . S
C220 C222 1.395 . S
C220 C223 1.403 . S
H221 C227 0.930 . S
C222 H208 0.930 . S
C222 C220 1.395 . S
C222 C225 1.403 . S
C223 C220 1.403 . S
C223 C224 1.524 . S
C223 C227 1.400 . S
C224 H209 0.960 . S
C224 H210 0.960 . S
C224 H211 0.960 . S
C224 C223 1.524 . S
C225 C222 1.403 . S
C225 C226 1.392 . S
C225 C229 1.495 . S
C226 C225 1.392 . S
C226 C227 1.385 . S
C226 C228 1.478 . S
C227 H221 0.930 . S
C227 C223 1.400 . S
C227 C226 1.385 . S
C228 C226 1.478 . S
C228 C230 1.381 . S
C228 C234 1.383 . S
C229 C225 1.495 . S
C229 H235 0.959 . S
C229 H236 0.961 . S
C229 H237 0.960 . S
C230 C228 1.381 . S
C230 C231 1.394 . S
C230 H238 0.930 . S
C231 C230 1.394 . S
C231 C232 1.383 . S
C231 H239 0.929 . S
C232 C231 1.383 . S
C232 C233 1.377 . S
C233 H217 0.930 . S
C233 C232 1.377 . S
C233 C234 1.379 . S
C234 H218 0.931 . S
C234 C228 1.383 . S
C234 C233 1.379 . S
H235 C229 0.959 . S
H236 C229 0.961 . S
H237 C229 0.960 . S
H238 C230 0.930 . S
H239 C231 0.929 . S
H240 C248 0.929 . S
H241 C250 0.930 . S
H242 C252 0.930 . S
H243 C255 0.929 . S
H244 C258 0.930 . S
H245 C260 0.960 . S
H246 C260 0.960 . S
H247 C260 0.960 . S
C248 H240 0.929 . S
C248 C249 1.377 . S
C248 C250 1.384 . S
C249 C248 1.377 . S
C249 C255 1.390 . S
C250 H241 0.930 . S
C250 C248 1.384 . S
C250 C251 1.372 . S
C251 C250 1.372 . S
C251 C252 1.400 . S
C251 C256 1.490 . S
C252 H242 0.930 . S
C252 C251 1.400 . S
C252 C255 1.386 . S
H253 C269 0.930 . S
H254 C270 0.931 . S
C255 H243 0.929 . S
C255 C249 1.390 . S
C255 C252 1.386 . S
C256 C251 1.490 . S
C256 C258 1.395 . S
C256 C259 1.403 . S
H257 C263 0.930 . S
C258 H244 0.930 . S
C258 C256 1.395 . S
C258 C261 1.403 . S
C259 C256 1.403 . S
C259 C260 1.524 . S
C259 C263 1.400 . S
C260 H245 0.960 . S
C260 H246 0.960 . S
C260 H247 0.960 . S
C260 C259 1.524 . S
C261 C258 1.403 . S
C261 C262 1.392 . S
C261 C265 1.495 . S
C262 C261 1.392 . S
C262 C263 1.385 . S
C262 C264 1.478 . S
C263 H257 0.930 . S
C263 C259 1.400 . S
C263 C262 1.385 . S
C264 C262 1.478 . S
C264 C266 1.381 . S
C264 C270 1.383 . S
C265 C261 1.495 . S
C265 H271 0.959 . S
C265 H272 0.961 . S
C265 H273 0.960 . S
C266 C264 1.381 . S
C266 C267 1.394 . S
C266 H274 0.930 . S
C267 C266 1.394 . S
C267 C268 1.383 . S
C267 H275 0.929 . S
C268 C267 1.383 . S
C268 C269 1.377 . S
C269 H253 0.930 . S
C269 C268 1.377 . S
C269 C270 1.379 . S
C270 H254 0.931 . S
C270 C264 1.383 . S
C270 C269 1.379 . S
H271 C265 0.959 . S
H272 C265 0.961 . S
H273 C265 0.960 . S
H274 C266 0.930 . S
H275 C267 0.929 . S
H276 C284 0.929 . S
H277 C286 0.930 . S
H278 C288 0.930 . S
H279 C291 0.947 . S
H280 C294 0.930 . S
H281 C296 0.960 . S
H282 C296 0.960 . S
H283 C296 0.960 . S
C284 H276 0.929 . S
C284 C285 1.377 . S
C284 C286 1.384 1_554 S
C285 C284 1.377 . S
C285 C291 1.409 . S
C286 H277 0.930 . S
C286 C284 1.384 1_556 S
C286 C287 1.372 . S
C287 C286 1.372 . S
C287 C288 1.400 . S
C287 C292 1.490 . S
C288 H278 0.930 . S
C288 C287 1.400 . S
C288 C291 1.350 1_556 S
H289 C305 0.930 . S
H290 C306 0.931 . S
C291 H279 0.947 . S
C291 C285 1.409 . S
C291 C288 1.350 1_554 S
C292 C287 1.490 . S
C292 C294 1.395 . S
C292 C295 1.403 . S
H293 C299 0.930 . S
C294 H280 0.930 . S
C294 C292 1.395 . S
C294 C297 1.403 . S
C295 C292 1.403 . S
C295 C296 1.524 . S
C295 C299 1.400 . S
C296 H281 0.960 . S
C296 H282 0.960 . S
C296 H283 0.960 . S
C296 C295 1.524 . S
C297 C294 1.403 . S
C297 C298 1.392 . S
C297 C301 1.495 . S
C298 C297 1.392 . S
C298 C299 1.385 . S
C298 C300 1.478 . S
C299 H293 0.930 . S
C299 C295 1.400 . S
C299 C298 1.385 . S
C300 C298 1.478 . S
C300 C302 1.381 . S
C300 C306 1.383 . S
C301 C297 1.495 . S
C301 H307 0.959 . S
C301 H308 0.961 . S
C301 H309 0.960 . S
C302 C300 1.381 . S
C302 C303 1.394 . S
C302 H310 0.930 . S
C303 C302 1.394 . S
C303 C304 1.383 . S
C303 H311 0.929 . S
C304 C303 1.383 . S
C304 C305 1.377 . S
C305 H289 0.930 . S
C305 C304 1.377 . S
C305 C306 1.379 . S
C306 H290 0.931 . S
C306 C300 1.383 . S
C306 C305 1.379 . S
H307 C301 0.959 . S
H308 C301 0.961 . S
H309 C301 0.960 . S
H310 C302 0.930 . S
H311 C303 0.929 . S
H312 C320 0.929 . S
H313 C322 0.930 . S
H314 C324 0.930 . S
H315 C327 0.923 1_556 S
H316 C330 0.930 . S
H317 C332 0.960 . S
H318 C332 0.960 . S
H319 C332 0.960 . S
C320 H312 0.929 . S
C320 C321 1.377 . S
C320 C322 1.384 1_556 S
C321 C320 1.377 . S
C321 C327 1.381 1_556 S
C322 H313 0.930 . S
C322 C320 1.384 1_554 S
C322 C323 1.372 . S
C323 C322 1.372 . S
C323 C324 1.400 . S
C323 C328 1.490 . S
C324 H314 0.930 . S
C324 C323 1.400 . S
C324 C327 1.401 . S
H325 C341 0.930 . S
H326 C342 0.931 . S
C327 H315 0.923 1_554 S
C327 C321 1.381 1_554 S
C327 C324 1.401 . S
C328 C323 1.490 . S
C328 C330 1.395 . S
C328 C331 1.403 . S
H329 C335 0.930 . S
C330 H316 0.930 . S
C330 C328 1.395 . S
C330 C333 1.403 . S
C331 C328 1.403 . S
C331 C332 1.524 . S
C331 C335 1.400 . S
C332 H317 0.960 . S
C332 H318 0.960 . S
C332 H319 0.960 . S
C332 C331 1.524 . S
C333 C330 1.403 . S
C333 C334 1.392 . S
C333 C337 1.495 . S
C334 C333 1.392 . S
C334 C335 1.385 . S
C334 C336 1.478 . S
C335 H329 0.930 . S
C335 C331 1.400 . S
C335 C334 1.385 . S
C336 C334 1.478 . S
C336 C338 1.381 . S
C336 C342 1.383 . S
C337 C333 1.495 . S
C337 H343 0.959 . S
C337 H344 0.961 . S
C337 H345 0.960 . S
C338 C336 1.381 . S
C338 C339 1.394 . S
C338 H346 0.930 . S
C339 C338 1.394 . S
C339 C340 1.383 . S
C339 H347 0.929 . S
C340 C339 1.383 . S
C340 C341 1.377 . S
C341 H325 0.930 . S
C341 C340 1.377 . S
C341 C342 1.379 . S
C342 H326 0.931 . S
C342 C336 1.383 . S
C342 C341 1.379 . S
H343 C337 0.959 . S
H344 C337 0.961 . S
H345 C337 0.960 . S
H346 C338 0.930 . S
H347 C339 0.929 . S
H348 C356 0.929 . S
H349 C358 0.930 . S
H350 C360 0.930 . S
H351 C363 0.929 . S
H352 C366 0.930 . S
H353 C368 0.960 . S
H354 C368 0.960 . S
H355 C368 0.960 . S
C356 H348 0.929 . S
C356 C357 1.377 . S
C356 C358 1.384 . S
C357 C356 1.377 . S
C357 C363 1.390 . S
C358 H349 0.930 . S
C358 C356 1.384 . S
C358 C359 1.372 . S
C359 C358 1.372 . S
C359 C360 1.400 . S
C359 C364 1.490 . S
C360 H350 0.930 . S
C360 C359 1.400 . S
C360 C363 1.386 . S
H361 C377 0.930 . S
H362 C378 0.931 . S
C363 H351 0.929 . S
C363 C357 1.390 . S
C363 C360 1.386 . S
C364 C359 1.490 . S
C364 C366 1.395 . S
C364 C367 1.403 . S
H365 C371 0.930 . S
C366 H352 0.930 . S
C366 C364 1.395 . S
C366 C369 1.403 . S
C367 C364 1.403 . S
C367 C368 1.524 . S
C367 C371 1.400 . S
C368 H353 0.960 . S
C368 H354 0.960 . S
C368 H355 0.960 . S
C368 C367 1.524 . S
C369 C366 1.403 . S
C369 C370 1.392 . S
C369 C373 1.495 . S
C370 C369 1.392 . S
C370 C371 1.385 . S
C370 C372 1.478 . S
C371 H365 0.930 . S
C371 C367 1.400 . S
C371 C370 1.385 . S
C372 C370 1.478 . S
C372 C374 1.381 . S
C372 C378 1.383 . S
C373 C369 1.495 . S
C373 H379 0.959 . S
C373 H380 0.961 . S
C373 H381 0.960 . S
C374 C372 1.381 . S
C374 C375 1.394 . S
C374 H382 0.930 . S
C375 C374 1.394 . S
C375 C376 1.383 . S
C375 H383 0.929 . S
C376 C375 1.383 . S
C376 C377 1.377 . S
C377 H361 0.930 . S
C377 C376 1.377 . S
C377 C378 1.379 . S
C378 H362 0.931 . S
C378 C372 1.383 . S
C378 C377 1.379 . S
H379 C373 0.959 . S
H380 C373 0.961 . S
H381 C373 0.960 . S
H382 C374 0.930 . S
H383 C375 0.929 . S
H384 C392 0.929 . S
H385 C394 0.930 . S
H386 C396 0.930 . S
H387 C399 0.929 . S
H388 C402 0.930 . S
H389 C404 0.960 . S
H390 C404 0.960 . S
H391 C404 0.960 . S
C392 H384 0.929 . S
C392 C393 1.377 . S
C392 C394 1.384 . S
C393 C392 1.377 . S
C393 C399 1.390 . S
C394 H385 0.930 . S
C394 C392 1.384 . S
C394 C395 1.372 . S
C395 C394 1.372 . S
C395 C396 1.400 . S
C395 C400 1.490 . S
C396 H386 0.930 . S
C396 C395 1.400 . S
C396 C399 1.386 . S
H397 C413 0.930 . S
H398 C414 0.931 . S
C399 H387 0.929 . S
C399 C393 1.390 . S
C399 C396 1.386 . S
C400 C395 1.490 . S
C400 C402 1.395 . S
C400 C403 1.403 . S
H401 C407 0.930 . S
C402 H388 0.930 . S
C402 C400 1.395 . S
C402 C405 1.403 . S
C403 C400 1.403 . S
C403 C404 1.524 . S
C403 C407 1.400 . S
C404 H389 0.960 . S
C404 H390 0.960 . S
C404 H391 0.960 . S
C404 C403 1.524 . S
C405 C402 1.403 . S
C405 C406 1.392 . S
C405 C409 1.495 . S
C406 C405 1.392 . S
C406 C407 1.385 . S
C406 C408 1.478 . S
C407 H401 0.930 . S
C407 C403 1.400 . S
C407 C406 1.385 . S
C408 C406 1.478 . S
C408 C410 1.381 . S
C408 C414 1.383 . S
C409 C405 1.495 . S
C409 H415 0.959 . S
C409 H416 0.961 . S
C409 H417 0.960 . S
C410 C408 1.381 . S
C410 C411 1.394 . S
C410 H418 0.930 . S
C411 C410 1.394 . S
C411 C412 1.383 . S
C411 H419 0.929 . S
C412 C411 1.383 . S
C412 C413 1.377 . S
C413 H397 0.930 . S
C413 C412 1.377 . S
C413 C414 1.379 . S
C414 H398 0.931 . S
C414 C408 1.383 . S
C414 C413 1.379 . S
H415 C409 0.959 . S
H416 C409 0.961 . S
H417 C409 0.960 . S
H418 C410 0.930 . S
H419 C411 0.929 . S
H420 C428 0.929 . S
H421 C430 0.930 . S
H422 C432 0.930 . S
H423 C435 0.929 . S
H424 C438 0.930 . S
H425 C440 0.960 . S
H426 C440 0.960 . S
H427 C440 0.960 . S
C428 H420 0.929 . S
C428 C429 1.377 . S
C428 C430 1.384 . S
C429 C428 1.377 . S
C429 C435 1.390 . S
C430 H421 0.930 . S
C430 C428 1.384 . S
C430 C431 1.372 . S
C431 C430 1.372 . S
C431 C432 1.400 . S
C431 C436 1.490 . S
C432 H422 0.930 . S
C432 C431 1.400 . S
C432 C435 1.386 . S
H433 C449 0.930 . S
H434 C450 0.931 . S
C435 H423 0.929 . S
C435 C429 1.390 . S
C435 C432 1.386 . S
C436 C431 1.490 . S
C436 C438 1.395 . S
C436 C439 1.403 . S
H437 C443 0.930 . S
C438 H424 0.930 . S
C438 C436 1.395 . S
C438 C441 1.403 . S
C439 C436 1.403 . S
C439 C440 1.524 . S
C439 C443 1.400 . S
C440 H425 0.960 . S
C440 H426 0.960 . S
C440 H427 0.960 . S
C440 C439 1.524 . S
C441 C438 1.403 . S
C441 C442 1.392 . S
C441 C445 1.495 . S
C442 C441 1.392 . S
C442 C443 1.385 . S
C442 C444 1.478 . S
C443 H437 0.930 . S
C443 C439 1.400 . S
C443 C442 1.385 . S
C444 C442 1.478 . S
C444 C446 1.381 . S
C444 C450 1.383 . S
C445 C441 1.495 . S
C445 H451 0.959 . S
C445 H452 0.961 . S
C445 H453 0.960 . S
C446 C444 1.381 . S
C446 C447 1.394 . S
C446 H454 0.930 . S
C447 C446 1.394 . S
C447 C448 1.383 . S
C447 H455 0.929 . S
C448 C447 1.383 . S
C448 C449 1.377 . S
C449 H433 0.930 . S
C449 C448 1.377 . S
C449 C450 1.379 . S
C450 H434 0.931 . S
C450 C444 1.383 . S
C450 C449 1.379 . S
H451 C445 0.959 . S
H452 C445 0.961 . S
H453 C445 0.960 . S
H454 C446 0.930 . S
H455 C447 0.929 . S
H456 C464 0.929 . S
H457 C466 0.930 . S
H458 C468 0.930 . S
H459 C471 0.929 . S
H460 C474 0.930 . S
H461 C476 0.960 . S
H462 C476 0.960 . S
H463 C476 0.960 . S
C464 H456 0.929 . S
C464 C465 1.377 . S
C464 C466 1.384 . S
C465 C464 1.377 . S
C465 C471 1.390 . S
C466 H457 0.930 . S
C466 C464 1.384 . S
C466 C467 1.372 . S
C467 C466 1.372 . S
C467 C468 1.400 . S
C467 C472 1.490 . S
C468 H458 0.930 . S
C468 C467 1.400 . S
C468 C471 1.386 . S
H469 C485 0.930 . S
H470 C486 0.931 . S
C471 H459 0.929 . S
C471 C465 1.390 . S
C471 C468 1.386 . S
C472 C467 1.490 . S
C472 C474 1.395 . S
C472 C475 1.403 . S
H473 C479 0.930 . S
C474 H460 0.930 . S
C474 C472 1.395 . S
C474 C477 1.403 . S
C475 C472 1.403 . S
C475 C476 1.524 . S
C475 C479 1.400 . S
C476 H461 0.960 . S
C476 H462 0.960 . S
C476 H463 0.960 . S
C476 C475 1.524 . S
C477 C474 1.403 . S
C477 C478 1.392 . S
C477 C481 1.495 . S
C478 C477 1.392 . S
C478 C479 1.385 . S
C478 C480 1.478 . S
C479 H473 0.930 . S
C479 C475 1.400 . S
C479 C478 1.385 . S
C480 C478 1.478 . S
C480 C482 1.381 . S
C480 C486 1.383 . S
C481 C477 1.495 . S
C481 H487 0.959 . S
C481 H488 0.961 . S
C481 H489 0.960 . S
C482 C480 1.381 . S
C482 C483 1.394 . S
C482 H490 0.930 . S
C483 C482 1.394 . S
C483 C484 1.383 . S
C483 H491 0.929 . S
C484 C483 1.383 . S
C484 C485 1.377 . S
C485 H469 0.930 . S
C485 C484 1.377 . S
C485 C486 1.379 . S
C486 H470 0.931 . S
C486 C480 1.383 . S
C486 C485 1.379 . S
H487 C481 0.959 . S
H488 C481 0.961 . S
H489 C481 0.960 . S
H490 C482 0.930 . S
H491 C483 0.929 . S
H492 C500 0.929 . S
H493 C502 0.930 . S
H494 C504 0.930 . S
H495 C507 0.929 . S
H496 C510 0.930 . S
H497 C512 0.960 . S
H498 C512 0.960 . S
H499 C512 0.960 . S
C500 H492 0.929 . S
C500 C501 1.377 . S
C500 C502 1.384 . S
C501 C500 1.377 . S
C501 C507 1.390 . S
C502 H493 0.930 . S
C502 C500 1.384 . S
C502 C503 1.372 . S
C503 C502 1.372 . S
C503 C504 1.400 . S
C503 C508 1.490 . S
C504 H494 0.930 . S
C504 C503 1.400 . S
C504 C507 1.386 . S
H505 C521 0.930 . S
H506 C522 0.931 . S
C507 H495 0.929 . S
C507 C501 1.390 . S
C507 C504 1.386 . S
C508 C503 1.490 . S
C508 C510 1.395 . S
C508 C511 1.403 . S
H509 C515 0.930 . S
C510 H496 0.930 . S
C510 C508 1.395 . S
C510 C513 1.403 . S
C511 C508 1.403 . S
C511 C512 1.524 . S
C511 C515 1.400 . S
C512 H497 0.960 . S
C512 H498 0.960 . S
C512 H499 0.960 . S
C512 C511 1.524 . S
C513 C510 1.403 . S
C513 C514 1.392 . S
C513 C517 1.495 . S
C514 C513 1.392 . S
C514 C515 1.385 . S
C514 C516 1.478 . S
C515 H509 0.930 . S
C515 C511 1.400 . S
C515 C514 1.385 . S
C516 C514 1.478 . S
C516 C518 1.381 . S
C516 C522 1.383 . S
C517 C513 1.495 . S
C517 H523 0.959 . S
C517 H524 0.961 . S
C517 H525 0.960 . S
C518 C516 1.381 . S
C518 C519 1.394 . S
C518 H526 0.930 . S
C519 C518 1.394 . S
C519 C520 1.383 . S
C519 H527 0.929 . S
C520 C519 1.383 . S
C520 C521 1.377 . S
C521 H505 0.930 . S
C521 C520 1.377 . S
C521 C522 1.379 . S
C522 H506 0.931 . S
C522 C516 1.383 . S
C522 C521 1.379 . S
H523 C517 0.959 . S
H524 C517 0.961 . S
H525 C517 0.960 . S
H526 C518 0.930 . S
H527 C519 0.929 . S
H528 C536 0.929 . S
H529 C538 0.930 . S
H530 C540 0.930 . S
H531 C543 0.929 . S
H532 C546 0.930 . S
H533 C548 0.960 . S
H534 C548 0.960 . S
H535 C548 0.960 . S
C536 H528 0.929 . S
C536 C537 1.377 . S
C536 C538 1.384 . S
C537 C536 1.377 . S
C537 C543 1.390 . S
C538 H529 0.930 . S
C538 C536 1.384 . S
C538 C539 1.372 . S
C539 C538 1.372 . S
C539 C540 1.400 . S
C539 C544 1.490 . S
C540 H530 0.930 . S
C540 C539 1.400 . S
C540 C543 1.386 . S
H541 C557 0.930 . S
H542 C558 0.931 . S
C543 H531 0.929 . S
C543 C537 1.390 . S
C543 C540 1.386 . S
C544 C539 1.490 . S
C544 C546 1.395 . S
C544 C547 1.403 . S
H545 C551 0.930 . S
C546 H532 0.930 . S
C546 C544 1.395 . S
C546 C549 1.403 . S
C547 C544 1.403 . S
C547 C548 1.524 . S
C547 C551 1.400 . S
C548 H533 0.960 . S
C548 H534 0.960 . S
C548 H535 0.960 . S
C548 C547 1.524 . S
C549 C546 1.403 . S
C549 C550 1.392 . S
C549 C553 1.495 . S
C550 C549 1.392 . S
C550 C551 1.385 . S
C550 C552 1.478 . S
C551 H545 0.930 . S
C551 C547 1.400 . S
C551 C550 1.385 . S
C552 C550 1.478 . S
C552 C554 1.381 . S
C552 C558 1.383 . S
C553 C549 1.495 . S
C553 H559 0.959 . S
C553 H560 0.961 . S
C553 H561 0.960 . S
C554 C552 1.381 . S
C554 C555 1.394 . S
C554 H562 0.930 . S
C555 C554 1.394 . S
C555 C556 1.383 . S
C555 H563 0.929 . S
C556 C555 1.383 . S
C556 C557 1.377 . S
C557 H541 0.930 . S
C557 C556 1.377 . S
C557 C558 1.379 . S
C558 H542 0.931 . S
C558 C552 1.383 . S
C558 C557 1.379 . S
H559 C553 0.959 . S
H560 C553 0.961 . S
H561 C553 0.960 . S
H562 C554 0.930 . S
H563 C555 0.929 . S
H564 C572 0.929 . S
H565 C574 0.930 . S
H566 C576 0.930 . S
H567 C579 0.929 . S
H568 C582 0.930 . S
H569 C584 0.960 . S
H570 C584 0.960 . S
H571 C584 0.976 . S
C572 H564 0.929 . S
C572 C573 1.377 . S
C572 C574 1.384 . S
C573 C572 1.377 . S
C573 C579 1.390 . S
C574 H565 0.930 . S
C574 C572 1.384 . S
C574 C575 1.372 . S
C575 C574 1.372 . S
C575 C576 1.400 . S
C575 C580 1.490 . S
C576 H566 0.930 . S
C576 C575 1.400 . S
C576 C579 1.386 . S
H577 C593 0.930 . S
H578 C594 0.931 . S
C579 H567 0.929 . S
C579 C573 1.390 . S
C579 C576 1.386 . S
C580 C575 1.490 . S
C580 C582 1.395 . S
C580 C583 1.403 1_554 S
H581 C587 0.930 . S
C582 H568 0.930 . S
C582 C580 1.395 . S
C582 C585 1.403 1_545 S
C583 C580 1.403 1_556 S
C583 C584 1.524 . S
C583 C587 1.400 1_545 S
C584 H569 0.960 . S
C584 H570 0.960 . S
C584 H571 0.976 . S
C584 C583 1.524 . S
C585 C582 1.403 1_565 S
C585 C586 1.392 1_554 S
C585 C589 1.495 . S
C586 C585 1.392 1_556 S
C586 C587 1.385 . S
C586 C588 1.478 . S
C587 H581 0.930 . S
C587 C583 1.400 1_565 S
C587 C586 1.385 . S
C588 C586 1.478 . S
C588 C590 1.381 . S
C588 C594 1.383 . S
C589 C585 1.495 . S
C589 H595 0.959 . S
C589 H596 0.961 . S
C589 H597 0.962 1_554 S
C590 C588 1.381 . S
C590 C591 1.394 . S
C590 H598 0.930 . S
C591 C590 1.394 . S
C591 C592 1.383 . S
C591 H599 0.929 . S
C592 C591 1.383 . S
C592 C593 1.377 . S
C593 H577 0.930 . S
C593 C592 1.377 . S
C593 C594 1.379 . S
C594 H578 0.931 . S
C594 C588 1.383 . S
C594 C593 1.379 . S
H595 C589 0.959 . S
H596 C589 0.961 . S
H597 C589 0.962 1_556 S
H598 C590 0.930 . S
H599 C591 0.929 . S
H600 C608 0.929 . S
H601 C610 0.930 . S
H602 C612 0.930 . S
H603 C615 0.929 . S
H604 C618 0.930 . S
H605 C620 0.960 . S
H606 C620 0.960 . S
H607 C620 0.960 . S
C608 H600 0.929 . S
C608 C609 1.377 . S
C608 C610 1.384 . S
C609 C608 1.377 . S
C609 C615 1.390 . S
C610 H601 0.930 . S
C610 C608 1.384 . S
C610 C611 1.372 . S
C611 C610 1.372 . S
C611 C612 1.400 . S
C611 C616 1.490 . S
C612 H602 0.930 . S
C612 C611 1.400 . S
C612 C615 1.386 . S
H613 C629 0.930 . S
H614 C630 0.931 . S
C615 H603 0.929 . S
C615 C609 1.390 . S
C615 C612 1.386 . S
C616 C611 1.490 . S
C616 C618 1.395 . S
C616 C619 1.403 . S
H617 C623 0.930 . S
C618 H604 0.930 . S
C618 C616 1.395 . S
C618 C621 1.403 . S
C619 C616 1.403 . S
C619 C620 1.524 . S
C619 C623 1.400 . S
C620 H605 0.960 . S
C620 H606 0.960 . S
C620 H607 0.960 . S
C620 C619 1.524 . S
C621 C618 1.403 . S
C621 C622 1.392 . S
C621 C625 1.495 . S
C622 C621 1.392 . S
C622 C623 1.385 . S
C622 C624 1.478 . S
C623 H617 0.930 . S
C623 C619 1.400 . S
C623 C622 1.385 . S
C624 C622 1.478 . S
C624 C626 1.381 . S
C624 C630 1.383 . S
C625 C621 1.495 . S
C625 H631 0.959 . S
C625 H632 0.961 . S
C625 H633 0.960 . S
C626 C624 1.381 . S
C626 C627 1.394 . S
C626 H634 0.930 . S
C627 C626 1.394 . S
C627 C628 1.383 . S
C627 H635 0.929 . S
C628 C627 1.383 . S
C628 C629 1.377 . S
C629 H613 0.930 . S
C629 C628 1.377 . S
C629 C630 1.379 . S
C630 H614 0.931 . S
C630 C624 1.383 . S
C630 C629 1.379 . S
H631 C625 0.959 . S
H632 C625 0.961 . S
H633 C625 0.960 . S
H634 C626 0.930 . S
H635 C627 0.929 . S
H636 C644 0.929 . S
H637 C646 0.930 . S
H638 C648 0.930 . S
H639 C651 0.929 . S
H640 C654 0.930 . S
H641 C656 0.960 . S
H642 C656 0.960 . S
H643 C656 0.960 . S
C644 H636 0.929 . S
C644 C645 1.377 . S
C644 C646 1.384 . S
C645 C644 1.377 . S
C645 C651 1.390 . S
C646 H637 0.930 . S
C646 C644 1.384 . S
C646 C647 1.372 . S
C647 C646 1.372 . S
C647 C648 1.400 . S
C647 C652 1.490 . S
C648 H638 0.930 . S
C648 C647 1.400 . S
C648 C651 1.386 . S
H649 C665 0.930 . S
H650 C666 0.931 . S
C651 H639 0.929 . S
C651 C645 1.390 . S
C651 C648 1.386 . S
C652 C647 1.490 . S
C652 C654 1.395 . S
C652 C655 1.403 . S
H653 C659 0.930 . S
C654 H640 0.930 . S
C654 C652 1.395 . S
C654 C657 1.403 1_455 S
C655 C652 1.403 . S
C655 C656 1.524 . S
C655 C659 1.400 1_455 S
C656 H641 0.960 . S
C656 H642 0.960 . S
C656 H643 0.960 . S
C656 C655 1.524 . S
C657 C654 1.403 1_655 S
C657 C658 1.392 . S
C657 C661 1.495 . S
C658 C657 1.392 . S
C658 C659 1.385 . S
C658 C660 1.478 . S
C659 H653 0.930 . S
C659 C655 1.400 1_655 S
C659 C658 1.385 . S
C660 C658 1.478 . S
C660 C662 1.381 . S
C660 C666 1.383 . S
C661 C657 1.495 . S
C661 H667 0.959 . S
C661 H668 0.961 . S
C661 H669 0.960 . S
C662 C660 1.381 . S
C662 C663 1.394 . S
C662 H670 0.930 . S
C663 C662 1.394 . S
C663 C664 1.383 . S
C663 H671 0.929 . S
C664 C663 1.383 . S
C664 C665 1.377 . S
C665 H649 0.930 . S
C665 C664 1.377 . S
C665 C666 1.379 . S
C666 H650 0.931 . S
C666 C660 1.383 . S
C666 C665 1.379 . S
H667 C661 0.959 . S
H668 C661 0.961 . S
H669 C661 0.960 . S
H670 C662 0.930 . S
H671 C663 0.929 . S
H672 C680 0.929 . S
H673 C682 0.930 . S
H674 C684 0.930 . S
H675 C687 0.929 . S
H676 C690 0.930 . S
H677 C692 0.946 1_565 S
H678 C692 0.958 . S
H679 C692 0.980 . S
C680 H672 0.929 . S
C680 C681 1.377 . S
C680 C682 1.384 . S
C681 C680 1.377 . S
C681 C687 1.390 . S
C682 H673 0.930 . S
C682 C680 1.384 . S
C682 C683 1.372 . S
C683 C682 1.372 . S
C683 C684 1.400 . S
C683 C688 1.490 . S
C684 H674 0.930 . S
C684 C683 1.400 . S
C684 C687 1.386 . S
H685 C701 0.930 . S
H686 C702 0.931 . S
C687 H675 0.929 . S
C687 C681 1.390 . S
C687 C684 1.386 . S
C688 C683 1.490 . S
C688 C690 1.395 . S
C688 C691 1.403 . S
H689 C695 0.930 . S
C690 H676 0.930 . S
C690 C688 1.395 . S
C690 C693 1.407 . S
C691 C688 1.403 . S
C691 C692 1.522 . S
C691 C695 1.400 1_545 S
C692 H677 0.946 1_545 S
C692 H678 0.958 . S
C692 H679 0.980 . S
C692 C691 1.522 . S
C693 C690 1.407 . S
C693 C694 1.390 1_545 S
C693 C697 1.498 . S
C694 C693 1.390 1_565 S
C694 C695 1.385 . S
C694 C696 1.478 . S
C695 H689 0.930 . S
C695 C691 1.400 1_565 S
C695 C694 1.385 . S
C696 C694 1.478 . S
C696 C698 1.381 . S
C696 C702 1.383 . S
C697 C693 1.498 . S
C697 H703 0.977 . S
C697 H704 0.964 1_545 S
C697 H705 0.936 1_545 S
C698 C696 1.381 . S
C698 C699 1.394 . S
C698 H706 0.930 . S
C699 C698 1.394 . S
C699 C700 1.383 . S
C699 H707 0.929 . S
C700 C699 1.383 . S
C700 C701 1.377 . S
C701 H685 0.930 . S
C701 C700 1.377 . S
C701 C702 1.379 . S
C702 H686 0.931 . S
C702 C696 1.383 . S
C702 C701 1.379 . S
H703 C697 0.977 . S
H704 C697 0.964 1_565 S
H705 C697 0.936 1_565 S
H706 C698 0.930 . S
H707 C699 0.929 . S
H708 C716 0.929 . S
H709 C718 0.930 . S
H710 C720 0.930 . S
H711 C723 0.929 . S
H712 C726 0.930 . S
H713 C728 0.960 . S
H714 C728 0.960 . S
H715 C728 0.960 . S
C716 H708 0.929 . S
C716 C717 1.377 . S
C716 C718 1.384 . S
C717 C716 1.377 . S
C717 C723 1.390 . S
C718 H709 0.930 . S
C718 C716 1.384 . S
C718 C719 1.372 . S
C719 C718 1.372 . S
C719 C720 1.400 . S
C719 C724 1.490 . S
C720 H710 0.930 . S
C720 C719 1.400 . S
C720 C723 1.386 . S
H721 C737 0.930 . S
H722 C738 0.931 . S
C723 H711 0.929 . S
C723 C717 1.390 . S
C723 C720 1.386 . S
C724 C719 1.490 . S
C724 C726 1.395 . S
C724 C727 1.403 . S
H725 C731 0.930 . S
C726 H712 0.930 . S
C726 C724 1.395 . S
C726 C729 1.403 . S
C727 C724 1.403 . S
C727 C728 1.524 . S
C727 C731 1.400 . S
C728 H713 0.960 . S
C728 H714 0.960 . S
C728 H715 0.960 . S
C728 C727 1.524 . S
C729 C726 1.403 . S
C729 C730 1.392 . S
C729 C733 1.495 . S
C730 C729 1.392 . S
C730 C731 1.385 . S
C730 C732 1.478 . S
C731 H725 0.930 . S
C731 C727 1.400 . S
C731 C730 1.385 . S
C732 C730 1.478 . S
C732 C734 1.381 . S
C732 C738 1.383 . S
C733 C729 1.495 . S
C733 H739 0.959 . S
C733 H740 0.961 . S
C733 H741 0.960 . S
C734 C732 1.381 . S
C734 C735 1.394 . S
C734 H742 0.930 . S
C735 C734 1.394 . S
C735 C736 1.383 . S
C735 H743 0.929 . S
C736 C735 1.383 . S
C736 C737 1.377 . S
C737 H721 0.930 . S
C737 C736 1.377 . S
C737 C738 1.379 . S
C738 H722 0.931 . S
C738 C732 1.383 . S
C738 C737 1.379 . S
H739 C733 0.959 . S
H740 C733 0.961 . S
H741 C733 0.960 . S
H742 C734 0.930 . S
H743 C735 0.929 . S
H744 C752 0.929 . S
H745 C754 0.930 . S
H746 C756 0.930 . S
H747 C759 0.929 . S
H748 C762 0.930 . S
H749 C764 0.960 . S
H750 C764 0.960 . S
H751 C764 0.960 . S
C752 H744 0.929 . S
C752 C753 1.377 . S
C752 C754 1.384 . S
C753 C752 1.377 . S
C753 C759 1.390 . S
C754 H745 0.930 . S
C754 C752 1.384 . S
C754 C755 1.372 . S
C755 C754 1.372 . S
C755 C756 1.400 . S
C755 C760 1.490 . S
C756 H746 0.930 . S
C756 C755 1.400 . S
C756 C759 1.386 . S
H757 C773 0.930 . S
H758 C774 0.931 . S
C759 H747 0.929 . S
C759 C753 1.390 . S
C759 C756 1.386 . S
C760 C755 1.490 . S
C760 C762 1.395 . S
C760 C763 1.403 . S
H761 C767 0.930 . S
C762 H748 0.930 . S
C762 C760 1.395 . S
C762 C765 1.403 1_655 S
C763 C760 1.403 . S
C763 C764 1.524 . S
C763 C767 1.400 1_655 S
C764 H749 0.960 . S
C764 H750 0.960 . S
C764 H751 0.960 . S
C764 C763 1.524 . S
C765 C762 1.403 1_455 S
C765 C766 1.392 . S
C765 C769 1.495 . S
C766 C765 1.392 . S
C766 C767 1.385 . S
C766 C768 1.478 . S
C767 H761 0.930 . S
C767 C763 1.400 1_455 S
C767 C766 1.385 . S
C768 C766 1.478 . S
C768 C770 1.381 . S
C768 C774 1.383 . S
C769 C765 1.495 . S
C769 H775 0.959 . S
C769 H776 0.961 . S
C769 H777 0.960 . S
C770 C768 1.381 . S
C770 C771 1.394 . S
C770 H778 0.930 . S
C771 C770 1.394 . S
C771 C772 1.383 . S
C771 H779 0.929 . S
C772 C771 1.383 . S
C772 C773 1.377 . S
C773 H757 0.930 . S
C773 C772 1.377 . S
C773 C774 1.379 . S
C774 H758 0.931 . S
C774 C768 1.383 . S
C774 C773 1.379 . S
H775 C769 0.959 . S
H776 C769 0.961 . S
H777 C769 0.960 . S
H778 C770 0.930 . S
H779 C771 0.929 . S
C141 C7 1.540 . S
C160 C117 1.514 . S
C177 C128 1.541 . S
C196 C18 1.553 . S
C213 C73 1.547 . S
C232 C29 1.545 . S
C249 C40 1.541 . S
C268 C84 1.550 . S
C285 C95 1.536 . S
C304 C51 1.514 . S
C321 C62 1.538 . S
C340 C106 1.533 . S
C357 C5 1.334 . S
C376 C93 1.365 . S
C393 C104 1.350 . S
C412 C16 1.292 . S
C429 C27 1.348 . S
C448 C115 1.300 . S
C465 C126 1.349 . S
C484 C38 1.293 . S
C501 C49 1.340 . S
C520 C71 1.359 . S
C537 C60 1.345 . S
C556 C82 1.336 . S
C573 C8 1.607 . S
C592 C85 1.618 . S
C609 C96 1.607 . S
C628 C19 1.618 . S
C645 C107 1.602 . S
C664 C30 1.586 . S
C681 C118 1.600 . S
C700 C41 1.585 . S
C717 C52 1.607 . S
C736 C129 1.605 . S
C753 C74 1.605 . S
C772 C63 1.599 . S
