# Generated by pormake.
# Topology cds-f, (5)-cn, num edge types: 1
# Building blocks:
#     Node 0, Type 0, BuildingBlock: BEQFEK_clean_sbu_0, # of connection points: 5
#     Node 1, Type 0, BuildingBlock: BEQFEK_clean_sbu_0, # of connection points: 5
#     Node 2, Type 0, BuildingBlock: BEQFEK_clean_sbu_0, # of connection points: 5
#     Node 3, Type 0, BuildingBlock: BEQFEK_clean_sbu_0, # of connection points: 5
#     Node 4, Type 0, BuildingBlock: BEQFEK_clean_sbu_0, # of connection points: 5
#     Node 5, Type 0, BuildingBlock: BEQFEK_clean_sbu_0, # of connection points: 5
#     Node 6, Type 0, BuildingBlock: BEQFEK_clean_sbu_0, # of connection points: 5
#     Node 7, Type 0, BuildingBlock: BEQFEK_clean_sbu_0, # of connection points: 5
#     Node 8, Type 0, BuildingBlock: BEQFEK_clean_sbu_0, # of connection points: 5
#     Node 9, Type 0, BuildingBlock: BEQFEK_clean_sbu_0, # of connection points: 5
#     Node 10, Type 0, BuildingBlock: BEQFEK_clean_sbu_0, # of connection points: 5
#     Node 11, Type 0, BuildingBlock: BEQFEK_clean_sbu_0, # of connection points: 5
#     Node 12, Type 0, BuildingBlock: BEQFEK_clean_sbu_0, # of connection points: 5
#     Node 13, Type 0, BuildingBlock: BEQFEK_clean_sbu_0, # of connection points: 5
#     Node 14, Type 0, BuildingBlock: BEQFEK_clean_sbu_0, # of connection points: 5
#     Node 15, Type 0, BuildingBlock: BEQFEK_clean_sbu_0, # of connection points: 5
#     Edge 16, Type (0, 0), BuildingBlock: UVAHIK_clean_linker_0, # of connection points: 2
#     Edge 17, Type (0, 0), BuildingBlock: UVAHIK_clean_linker_0, # of connection points: 2
#     Edge 18, Type (0, 0), BuildingBlock: UVAHIK_clean_linker_0, # of connection points: 2
#     Edge 19, Type (0, 0), BuildingBlock: UVAHIK_clean_linker_0, # of connection points: 2
#     Edge 20, Type (0, 0), BuildingBlock: UVAHIK_clean_linker_0, # of connection points: 2
#     Edge 21, Type (0, 0), BuildingBlock: UVAHIK_clean_linker_0, # of connection points: 2
#     Edge 22, Type (0, 0), BuildingBlock: UVAHIK_clean_linker_0, # of connection points: 2
#     Edge 23, Type (0, 0), BuildingBlock: UVAHIK_clean_linker_0, # of connection points: 2
#     Edge 24, Type (0, 0), BuildingBlock: UVAHIK_clean_linker_0, # of connection points: 2
#     Edge 25, Type (0, 0), BuildingBlock: UVAHIK_clean_linker_0, # of connection points: 2
#     Edge 26, Type (0, 0), BuildingBlock: UVAHIK_clean_linker_0, # of connection points: 2
#     Edge 27, Type (0, 0), BuildingBlock: UVAHIK_clean_linker_0, # of connection points: 2
#     Edge 28, Type (0, 0), BuildingBlock: UVAHIK_clean_linker_0, # of connection points: 2
#     Edge 29, Type (0, 0), BuildingBlock: UVAHIK_clean_linker_0, # of connection points: 2
#     Edge 30, Type (0, 0), BuildingBlock: UVAHIK_clean_linker_0, # of connection points: 2
#     Edge 31, Type (0, 0), BuildingBlock: UVAHIK_clean_linker_0, # of connection points: 2
#     Edge 32, Type (0, 0), BuildingBlock: UVAHIK_clean_linker_0, # of connection points: 2
#     Edge 33, Type (0, 0), BuildingBlock: UVAHIK_clean_linker_0, # of connection points: 2
#     Edge 34, Type (0, 0), BuildingBlock: UVAHIK_clean_linker_0, # of connection points: 2
#     Edge 35, Type (0, 0), BuildingBlock: UVAHIK_clean_linker_0, # of connection points: 2
#     Edge 36, Type (0, 0), BuildingBlock: UVAHIK_clean_linker_0, # of connection points: 2
#     Edge 37, Type (0, 0), BuildingBlock: UVAHIK_clean_linker_0, # of connection points: 2
#     Edge 38, Type (0, 0), BuildingBlock: UVAHIK_clean_linker_0, # of connection points: 2
#     Edge 39, Type (0, 0), BuildingBlock: UVAHIK_clean_linker_0, # of connection points: 2
#     Edge 40, Type (0, 0), BuildingBlock: UVAHIK_clean_linker_0, # of connection points: 2
#     Edge 41, Type (0, 0), BuildingBlock: UVAHIK_clean_linker_0, # of connection points: 2
#     Edge 42, Type (0, 0), BuildingBlock: UVAHIK_clean_linker_0, # of connection points: 2
#     Edge 43, Type (0, 0), BuildingBlock: UVAHIK_clean_linker_0, # of connection points: 2
#     Edge 44, Type (0, 0), BuildingBlock: UVAHIK_clean_linker_0, # of connection points: 2
#     Edge 45, Type (0, 0), BuildingBlock: UVAHIK_clean_linker_0, # of connection points: 2
#     Edge 46, Type (0, 0), BuildingBlock: UVAHIK_clean_linker_0, # of connection points: 2
#     Edge 47, Type (0, 0), BuildingBlock: UVAHIK_clean_linker_0, # of connection points: 2
#     Edge 48, Type (0, 0), BuildingBlock: UVAHIK_clean_linker_0, # of connection points: 2
#     Edge 49, Type (0, 0), BuildingBlock: UVAHIK_clean_linker_0, # of connection points: 2
#     Edge 50, Type (0, 0), BuildingBlock: UVAHIK_clean_linker_0, # of connection points: 2
#     Edge 51, Type (0, 0), BuildingBlock: UVAHIK_clean_linker_0, # of connection points: 2
#     Edge 52, Type (0, 0), BuildingBlock: UVAHIK_clean_linker_0, # of connection points: 2
#     Edge 53, Type (0, 0), BuildingBlock: UVAHIK_clean_linker_0, # of connection points: 2
#     Edge 54, Type (0, 0), BuildingBlock: UVAHIK_clean_linker_0, # of connection points: 2
#     Edge 55, Type (0, 0), BuildingBlock: UVAHIK_clean_linker_0, # of connection points: 2
# Relax obj value: 0.094
# Max RMSD: 0.129
# Mean RMSD: 0.097
data_MOF--net-cds-f--node1-BEQFEK_clean_sbu_0--edge1-UVAHIK_clean_linker_0
_symmetry_space_group_name_H-M    P1
_symmetry_Int_Tables_number       1
_symmetry_cell_setting            triclinic
loop_
_symmetry_equiv_pos_as_xyz
'x, y, z'
_cell_length_a     47.675997
_cell_length_b     47.749925
_cell_length_c     78.852311
_cell_angle_alpha  90.07266
_cell_angle_beta   94.320175
_cell_angle_gamma 87.475958
loop_
_atom_site_label
_atom_site_type_symbol
_atom_site_fract_x
_atom_site_fract_y
_atom_site_fract_z
_atom_type_partial_charge
Co0 Co 0.28647 0.28888 0.13445 0.0
Co1 Co 0.22136 0.3011 0.13365 0.0
C2 C 0.25312 0.27161 0.16312 0.0
O3 O 0.27626 0.27334 0.15619 0.0
O4 O 0.22994 0.28121 0.15578 0.0
C5 C 0.34488 0.27284 0.14323 0.0
O6 O 0.33734 0.27185 0.15889 0.0
C7 C 0.161 0.28978 0.13106 0.0
C8 C 0.14253 0.33039 0.12123 0.0
C9 C 0.13566 0.30363 0.12568 0.0
N10 N 0.18179 0.30758 0.12972 0.0
N11 N 0.17058 0.33188 0.124 0.0
C12 C 0.16589 0.25968 0.13608 0.0
H13 H 0.18783 0.25246 0.13402 0.0
H14 H 0.15078 0.2464 0.12874 0.0
H15 H 0.16273 0.25747 0.1498 0.0
C16 C 0.26998 0.26163 0.10179 0.0
N17 N 0.26335 0.27486 0.11611 0.0
N18 N 0.23612 0.28096 0.11524 0.0
C19 C 0.22463 0.27265 0.1 0.0
C20 C 0.24572 0.25994 0.09096 0.0
C21 C 0.29916 0.25106 0.09863 0.0
H22 H 0.30919 0.24072 0.11028 0.0
H23 H 0.29902 0.23584 0.08799 0.0
H24 H 0.31191 0.26904 0.09561 0.0
O25 O 0.28317 0.33059 0.13503 0.0
O26 O 0.23704 0.33856 0.13504 0.0
H27 H 0.18933 0.30209 0.09713 0.0
H28 H 0.19217 0.27898 0.07933 0.0
C29 C 0.19501 0.28034 0.09338 0.0
H30 H 0.18049 0.26604 0.09899 0.0
H31 H 0.18216 0.3493 0.12161 0.0
O32 O 0.32646 0.27912 0.13119 0.0
C33 C 0.2618 0.3475 0.13534 0.0
Co34 Co 0.68241 0.27503 0.62129 0.0
Co35 Co 0.67688 0.21 0.61817 0.0
C36 C 0.69877 0.23633 0.65071 0.0
O37 O 0.6964 0.26072 0.64407 0.0
O38 O 0.69194 0.21466 0.64217 0.0
C39 C 0.70055 0.33045 0.6313 0.0
O40 O 0.70938 0.31883 0.64594 0.0
C41 C 0.69157 0.14953 0.61942 0.0
C42 C 0.66082 0.13347 0.59979 0.0
C43 C 0.68288 0.12518 0.61139 0.0
N44 N 0.67536 0.17119 0.61285 0.0
N45 N 0.65693 0.16143 0.6012 0.0
C46 C 0.7159 0.15261 0.6323 0.0
H47 H 0.72558 0.17304 0.63059 0.0
H48 H 0.73197 0.13528 0.63125 0.0
H49 H 0.70819 0.15218 0.64523 0.0
C50 C 0.7148 0.26501 0.5912 0.0
N51 N 0.70078 0.25562 0.60409 0.0
N52 N 0.69899 0.22828 0.60281 0.0
C53 C 0.712 0.21937 0.58904 0.0
C54 C 0.72238 0.2424 0.5812 0.0
C55 C 0.71985 0.29527 0.58823 0.0
H56 H 0.73018 0.30428 0.59994 0.0
H57 H 0.73337 0.29806 0.57756 0.0
H58 H 0.69935 0.30688 0.58543 0.0
O59 O 0.64109 0.27123 0.6181 0.0
O60 O 0.63747 0.22522 0.6158 0.0
H61 H 0.68958 0.18477 0.57872 0.0
H62 H 0.72419 0.18704 0.57129 0.0
C63 C 0.71161 0.18996 0.58247 0.0
H64 H 0.72003 0.17528 0.59268 0.0
H65 H 0.64185 0.17392 0.59409 0.0
O66 O 0.68894 0.31556 0.61963 0.0
C67 C 0.62616 0.24985 0.61609 0.0
Co68 Co 0.75517 0.70644 0.12747 0.0
Co69 Co 0.82067 0.70079 0.12671 0.0
C70 C 0.79505 0.72343 0.15714 0.0
O71 O 0.77055 0.72079 0.14983 0.0
O72 O 0.81708 0.71644 0.1497 0.0
C73 C 0.70067 0.72958 0.13556 0.0
O74 O 0.71464 0.74132 0.14847 0.0
C75 C 0.88037 0.71429 0.127 0.0
C76 C 0.89564 0.68295 0.10877 0.0
C77 C 0.90391 0.70537 0.11881 0.0
N78 N 0.85909 0.69798 0.12186 0.0
N79 N 0.86846 0.67909 0.11114 0.0
C80 C 0.87725 0.73935 0.13821 0.0
H81 H 0.88167 0.73274 0.15167 0.0
H82 H 0.85538 0.74842 0.13663 0.0
H83 H 0.89226 0.75548 0.13529 0.0
C84 C 0.76086 0.73269 0.09405 0.0
N85 N 0.77197 0.72286 0.10921 0.0
N86 N 0.79958 0.72257 0.10953 0.0
C87 C 0.80694 0.7335 0.09485 0.0
C88 C 0.78271 0.73977 0.08432 0.0
C89 C 0.73036 0.73084 0.0882 0.0
H90 H 0.72189 0.71172 0.09348 0.0
H91 H 0.71845 0.74933 0.09298 0.0
H92 H 0.72701 0.73022 0.07414 0.0
O93 O 0.76153 0.66538 0.12664 0.0
O94 O 0.80799 0.66157 0.12609 0.0
H95 H 0.84644 0.71686 0.08723 0.0
H96 H 0.83763 0.75227 0.08008 0.0
C97 C 0.8367 0.73733 0.09077 0.0
H98 H 0.84892 0.7455 0.10207 0.0
H99 H 0.85603 0.66406 0.10508 0.0
O100 O 0.71392 0.71448 0.12525 0.0
C101 C 0.7842 0.65041 0.12607 0.0
Co102 Co 0.26334 0.79552 0.61756 0.0
Co103 Co 0.27095 0.73043 0.62117 0.0
C104 C 0.24549 0.75659 0.58906 0.0
O105 O 0.24859 0.78098 0.59529 0.0
O106 O 0.25276 0.73464 0.59777 0.0
C107 C 0.24371 0.85126 0.60643 0.0
O108 O 0.2373 0.83969 0.5916 0.0
C109 C 0.25859 0.67072 0.6228 0.0
C110 C 0.2951 0.65414 0.63929 0.0
C111 C 0.27054 0.64632 0.63037 0.0
N112 N 0.27537 0.69188 0.62711 0.0
N113 N 0.29721 0.68181 0.63688 0.0
C114 C 0.23091 0.67454 0.61263 0.0
H115 H 0.2221 0.69624 0.61411 0.0
H116 H 0.21578 0.65928 0.61664 0.0
H117 H 0.23417 0.67111 0.59898 0.0
C118 C 0.23477 0.78842 0.64917 0.0
N119 N 0.24733 0.77777 0.63571 0.0
N120 N 0.2503 0.75038 0.6373 0.0
C121 C 0.23973 0.74267 0.6519 0.0
C122 C 0.22954 0.76657 0.65992 0.0
C123 C 0.22901 0.81908 0.65195 0.0
H124 H 0.21716 0.82828 0.6405 0.0
H125 H 0.21661 0.82298 0.66314 0.0
H126 H 0.24928 0.82964 0.65382 0.0
O127 O 0.30496 0.79017 0.61962 0.0
O128 O 0.30965 0.74388 0.62154 0.0
H129 H 0.26535 0.70684 0.66041 0.0
H130 H 0.23398 0.71197 0.67156 0.0
C131 C 0.24273 0.71353 0.65899 0.0
H132 H 0.23182 0.69902 0.65 0.0
H133 H 0.31345 0.6939 0.64202 0.0
O134 O 0.2547 0.8362 0.61865 0.0
C135 C 0.32042 0.76774 0.62094 0.0
Co136 Co 0.20508 0.71506 0.88553 0.0
Co137 Co 0.26955 0.70737 0.88041 0.0
C138 C 0.2494 0.73568 0.91121 0.0
O139 O 0.22374 0.73283 0.90595 0.0
O140 O 0.26943 0.72679 0.90254 0.0
C141 C 0.15134 0.74616 0.88642 0.0
O142 O 0.16587 0.76887 0.88608 0.0
C143 C 0.32967 0.71806 0.87787 0.0
C144 C 0.34201 0.68402 0.86055 0.0
C145 C 0.35235 0.70655 0.86976 0.0
N146 N 0.30705 0.70296 0.87362 0.0
N147 N 0.31463 0.68258 0.86334 0.0
C148 C 0.32883 0.74394 0.88856 0.0
H149 H 0.30769 0.7547 0.88686 0.0
H150 H 0.34509 0.75848 0.88521 0.0
H151 H 0.33285 0.73793 0.90215 0.0
C152 C 0.20494 0.73727 0.85025 0.0
N153 N 0.2184 0.7283 0.86504 0.0
N154 N 0.24567 0.72633 0.86331 0.0
C155 C 0.25046 0.73478 0.84754 0.0
C156 C 0.22485 0.74171 0.83867 0.0
C157 C 0.17367 0.73753 0.84651 0.0
H158 H 0.16472 0.72018 0.85338 0.0
H159 H 0.1643 0.7577 0.85088 0.0
H160 H 0.1679 0.7354 0.83269 0.0
O161 O 0.21153 0.67393 0.88702 0.0
O162 O 0.25711 0.66873 0.88333 0.0
H163 H 0.28606 0.71357 0.83761 0.0
H164 H 0.27855 0.74845 0.82923 0.0
C165 C 0.27897 0.73523 0.84082 0.0
H166 H 0.29424 0.74359 0.85063 0.0
H167 H 0.30103 0.66776 0.85815 0.0
O168 O 0.16401 0.72221 0.88609 0.0
C169 C 0.23365 0.65834 0.88587 0.0
Co170 Co 0.31174 0.2838 0.37261 0.0
Co171 Co 0.32108 0.21853 0.37372 0.0
C172 C 0.29465 0.24688 0.3427 0.0
O173 O 0.29721 0.27066 0.34988 0.0
O174 O 0.30269 0.22422 0.35048 0.0
C175 C 0.29261 0.34007 0.36268 0.0
O176 O 0.28863 0.32949 0.34736 0.0
C177 C 0.31147 0.15794 0.37371 0.0
C178 C 0.34737 0.14249 0.39109 0.0
C179 C 0.32382 0.13384 0.38146 0.0
N180 N 0.32701 0.17972 0.37866 0.0
N181 N 0.34855 0.1703 0.38891 0.0
C182 C 0.28418 0.16089 0.36305 0.0
H183 H 0.27474 0.18242 0.36416 0.0
H184 H 0.26921 0.14538 0.36694 0.0
H185 H 0.28818 0.15717 0.34953 0.0
C186 C 0.28267 0.27232 0.40356 0.0
N187 N 0.29622 0.26365 0.38999 0.0
N188 N 0.29972 0.23617 0.3904 0.0
C189 C 0.28842 0.22645 0.40429 0.0
C190 C 0.27727 0.249 0.41309 0.0
C191 C 0.27768 0.30249 0.40808 0.0
H192 H 0.29773 0.31342 0.408 0.0
H193 H 0.26259 0.31255 0.39828 0.0
H194 H 0.26926 0.305 0.42075 0.0
O195 O 0.35345 0.27966 0.37465 0.0
O196 O 0.35929 0.23338 0.37474 0.0
H197 H 0.31067 0.18856 0.41271 0.0
H198 H 0.27573 0.19279 0.42007 0.0
C199 C 0.2887 0.19618 0.40921 0.0
H200 H 0.28029 0.18378 0.39825 0.0
H201 H 0.36377 0.18299 0.39469 0.0
O202 O 0.30186 0.3242 0.37496 0.0
C203 C 0.36945 0.25758 0.37518 0.0
Co204 Co 0.75527 0.3014 0.87453 0.0
Co205 Co 0.68932 0.30254 0.87017 0.0
C206 C 0.72058 0.28025 0.90181 0.0
O207 O 0.74386 0.2855 0.89586 0.0
O208 O 0.6972 0.28556 0.89325 0.0
C209 C 0.81014 0.27427 0.87961 0.0
O210 O 0.7961 0.2522 0.88315 0.0
C211 C 0.6294 0.28912 0.87056 0.0
C212 C 0.61028 0.31481 0.84905 0.0
C213 C 0.60397 0.29635 0.86158 0.0
N214 N 0.64988 0.30267 0.86361 0.0
N215 N 0.63825 0.3181 0.85083 0.0
C216 C 0.63433 0.26903 0.88511 0.0
H217 H 0.63734 0.28106 0.89711 0.0
H218 H 0.65376 0.25588 0.88362 0.0
H219 H 0.61627 0.25533 0.88595 0.0
C220 C 0.74858 0.27233 0.84144 0.0
N221 N 0.73789 0.28352 0.85538 0.0
N222 N 0.71023 0.28289 0.85372 0.0
C223 C 0.70255 0.27048 0.83879 0.0
C224 C 0.72659 0.2636 0.83048 0.0
C225 C 0.77922 0.27137 0.83838 0.0
H226 H 0.78805 0.29211 0.84124 0.0
H227 H 0.79049 0.25571 0.84707 0.0
H228 H 0.78295 0.26526 0.82514 0.0
O229 O 0.74558 0.34182 0.87365 0.0
O230 O 0.69891 0.3429 0.87095 0.0
H231 H 0.66456 0.28837 0.8265 0.0
H232 H 0.67119 0.25213 0.82141 0.0
C233 C 0.67275 0.26784 0.83177 0.0
H234 H 0.65955 0.26164 0.842 0.0
H235 H 0.64943 0.33099 0.84334 0.0
O236 O 0.79673 0.29701 0.87522 0.0
C237 C 0.72201 0.35547 0.87226 0.0
Co238 Co 0.73285 0.78036 0.37699 0.0
Co239 Co 0.73075 0.7152 0.37303 0.0
C240 C 0.75401 0.74006 0.40522 0.0
O241 O 0.74887 0.76448 0.39894 0.0
O242 O 0.74862 0.71816 0.39653 0.0
C243 C 0.76193 0.83169 0.38175 0.0
O244 O 0.78442 0.81516 0.3851 0.0
C245 C 0.74315 0.65387 0.37212 0.0
C246 C 0.71166 0.64151 0.35178 0.0
C247 C 0.73297 0.63085 0.36319 0.0
N248 N 0.72843 0.67698 0.36623 0.0
N249 N 0.70961 0.66939 0.35412 0.0
C250 C 0.76731 0.65433 0.38534 0.0
H251 H 0.77826 0.67427 0.38455 0.0
H252 H 0.78243 0.63635 0.38376 0.0
H253 H 0.75916 0.65306 0.39812 0.0
C254 C 0.7604 0.77399 0.34464 0.0
N255 N 0.74967 0.7632 0.35841 0.0
N256 N 0.75004 0.7357 0.35712 0.0
C257 C 0.76179 0.7281 0.34267 0.0
C258 C 0.76862 0.75212 0.33427 0.0
C259 C 0.7614 0.80471 0.34112 0.0
H260 H 0.77866 0.81346 0.34942 0.0
H261 H 0.76546 0.80892 0.32772 0.0
H262 H 0.74131 0.81553 0.34412 0.0
O263 O 0.69191 0.77559 0.3751 0.0
O264 O 0.69087 0.72935 0.37304 0.0
H265 H 0.74236 0.69257 0.33129 0.0
H266 H 0.7778 0.69665 0.32563 0.0
C267 C 0.76364 0.6987 0.33613 0.0
H268 H 0.77147 0.68424 0.34659 0.0
H269 H 0.69533 0.68331 0.34745 0.0
O270 O 0.7384 0.82106 0.3777 0.0
C271 C 0.67823 0.75332 0.37381 0.0
Co272 Co 0.70744 0.71401 0.87522 0.0
Co273 Co 0.77259 0.7048 0.87294 0.0
C274 C 0.74851 0.73161 0.90338 0.0
O275 O 0.72331 0.7301 0.89694 0.0
O276 O 0.76928 0.72251 0.89541 0.0
C277 C 0.65179 0.72612 0.88574 0.0
O278 O 0.66455 0.72508 0.9011 0.0
C279 C 0.83151 0.71981 0.87334 0.0
C280 C 0.85069 0.68424 0.85971 0.0
C281 C 0.85684 0.70926 0.86781 0.0
N282 N 0.81142 0.70181 0.86875 0.0
N283 N 0.82302 0.68055 0.86067 0.0
C284 C 0.82582 0.7473 0.88182 0.0
H285 H 0.80387 0.7551 0.87833 0.0
H286 H 0.84075 0.76303 0.87819 0.0
H287 H 0.82831 0.74431 0.89582 0.0
C288 C 0.7123 0.73783 0.84113 0.0
N289 N 0.72414 0.72853 0.85623 0.0
N290 N 0.75152 0.72517 0.85531 0.0
C291 C 0.75799 0.73249 0.83962 0.0
C292 C 0.73331 0.74059 0.83006 0.0
C293 C 0.6812 0.74057 0.83681 0.0
H294 H 0.6714 0.75437 0.84625 0.0
H295 H 0.67615 0.74945 0.82388 0.0
H296 H 0.67212 0.71964 0.83756 0.0
O297 O 0.71308 0.67251 0.87559 0.0
O298 O 0.75915 0.66622 0.87364 0.0
H299 H 0.79139 0.70417 0.83309 0.0
H300 H 0.78719 0.73513 0.81991 0.0
C301 C 0.78635 0.72706 0.83303 0.0
H302 H 0.80251 0.73725 0.84148 0.0
H303 H 0.81203 0.66356 0.85575 0.0
O304 O 0.66622 0.72234 0.87296 0.0
C305 C 0.73495 0.65638 0.87473 0.0
Co306 Co 0.32006 0.78335 0.37614 0.0
Co307 Co 0.32857 0.71797 0.37672 0.0
C308 C 0.30689 0.74787 0.34509 0.0
O309 O 0.30852 0.77146 0.3526 0.0
O310 O 0.31344 0.72497 0.35299 0.0
C311 C 0.29507 0.83834 0.36776 0.0
O312 O 0.2842 0.82637 0.35393 0.0
C313 C 0.3175 0.65782 0.37518 0.0
C314 C 0.35134 0.64067 0.39347 0.0
C315 C 0.3284 0.63313 0.38289 0.0
N316 N 0.33324 0.6789 0.38108 0.0
N317 N 0.35358 0.66847 0.39185 0.0
C318 C 0.29123 0.66195 0.36368 0.0
H319 H 0.28223 0.68364 0.36487 0.0
H320 H 0.27541 0.64669 0.36669 0.0
H321 H 0.29645 0.65871 0.35032 0.0
C322 C 0.2873 0.77102 0.40555 0.0
N323 N 0.30209 0.76274 0.39238 0.0
N324 N 0.30541 0.73525 0.39256 0.0
C325 C 0.29282 0.72515 0.40586 0.0
C326 C 0.28096 0.74743 0.41454 0.0
C327 C 0.28212 0.80103 0.41035 0.0
H328 H 0.30243 0.81162 0.41157 0.0
H329 H 0.26856 0.81176 0.40006 0.0
H330 H 0.27184 0.80305 0.42248 0.0
O331 O 0.36171 0.77851 0.37971 0.0
O332 O 0.36685 0.73216 0.37945 0.0
H333 H 0.31494 0.68731 0.41453 0.0
H334 H 0.27952 0.6912 0.42119 0.0
C335 C 0.29306 0.69481 0.41063 0.0
H336 H 0.2853 0.68248 0.39948 0.0
H337 H 0.36864 0.68047 0.39839 0.0
O338 O 0.31043 0.82376 0.37861 0.0
C339 C 0.37737 0.75618 0.38048 0.0
Co340 Co 0.25665 0.30308 0.88656 0.0
Co341 Co 0.19073 0.30615 0.88505 0.0
C342 C 0.22381 0.2776 0.91371 0.0
O343 O 0.24657 0.28345 0.90728 0.0
O344 O 0.1999 0.28484 0.90637 0.0
C345 C 0.31034 0.27379 0.88261 0.0
O346 O 0.29553 0.25161 0.87933 0.0
C347 C 0.13083 0.29254 0.88464 0.0
C348 C 0.11108 0.32611 0.86787 0.0
C349 C 0.10512 0.30286 0.87721 0.0
N350 N 0.15103 0.30898 0.87985 0.0
N351 N 0.13904 0.3291 0.86994 0.0
C352 C 0.1365 0.26647 0.89505 0.0
H353 H 0.15724 0.25659 0.89246 0.0
H354 H 0.11978 0.2513 0.89229 0.0
H355 H 0.13712 0.27208 0.90873 0.0
C356 C 0.24418 0.28365 0.85096 0.0
N357 N 0.23635 0.2903 0.8666 0.0
N358 N 0.20876 0.28963 0.86652 0.0
C359 C 0.19831 0.2813 0.85107 0.0
C360 C 0.22033 0.27753 0.84062 0.0
C361 C 0.27299 0.28765 0.84525 0.0
H362 H 0.28406 0.30332 0.85334 0.0
H363 H 0.28529 0.26738 0.84614 0.0
H364 H 0.27181 0.29478 0.83181 0.0
O365 O 0.24885 0.34362 0.88896 0.0
O366 O 0.2022 0.34557 0.8882 0.0
H367 H 0.15705 0.29806 0.84331 0.0
H368 H 0.1649 0.26366 0.83498 0.0
C369 C 0.16777 0.27738 0.84629 0.0
H370 H 0.15789 0.26782 0.85703 0.0
H371 H 0.15004 0.34469 0.86441 0.0
O372 O 0.2979 0.29715 0.88563 0.0
C373 C 0.22559 0.35761 0.88943 0.0
Co374 Co 0.7276 0.27715 0.37591 0.0
Co375 Co 0.7213 0.21205 0.37473 0.0
C376 C 0.74877 0.23971 0.40521 0.0
O377 O 0.74538 0.26376 0.39819 0.0
O378 O 0.74056 0.21774 0.39751 0.0
C379 C 0.73925 0.33351 0.38604 0.0
O380 O 0.73834 0.32343 0.40147 0.0
C381 C 0.73666 0.15188 0.37602 0.0
C382 C 0.70155 0.13435 0.36009 0.0
C383 C 0.72643 0.12697 0.36955 0.0
N384 N 0.71863 0.17297 0.37061 0.0
N385 N 0.6976 0.16235 0.36118 0.0
C386 C 0.764 0.15604 0.3861 0.0
H387 H 0.77211 0.17675 0.38308 0.0
H388 H 0.77984 0.13918 0.38345 0.0
H389 H 0.7605 0.15566 0.39985 0.0
C390 C 0.75098 0.26526 0.34287 0.0
N391 N 0.74188 0.25657 0.35766 0.0
N392 N 0.73956 0.22922 0.35718 0.0
C393 C 0.7471 0.21967 0.34201 0.0
C394 C 0.7545 0.24216 0.33243 0.0
C395 C 0.75217 0.29546 0.33802 0.0
H396 H 0.73117 0.30605 0.33906 0.0
H397 H 0.76737 0.30582 0.34706 0.0
H398 H 0.75857 0.29797 0.32489 0.0
O399 O 0.68602 0.27395 0.37561 0.0
O400 O 0.68234 0.22776 0.37487 0.0
H401 H 0.72217 0.18521 0.33416 0.0
H402 H 0.75478 0.18651 0.32398 0.0
C403 C 0.74473 0.19003 0.3361 0.0
H404 H 0.75501 0.1756 0.3459 0.0
H405 H 0.68072 0.17427 0.35533 0.0
O406 O 0.73527 0.31733 0.37335 0.0
C407 C 0.67109 0.25242 0.37524 0.0
Co408 Co 0.7856 0.29222 0.12198 0.0
Co409 Co 0.72048 0.30413 0.1218 0.0
C410 C 0.75382 0.27867 0.15207 0.0
O411 O 0.77663 0.27976 0.14473 0.0
O412 O 0.73028 0.28688 0.14458 0.0
C413 C 0.84128 0.26584 0.12841 0.0
O414 O 0.83072 0.25358 0.14125 0.0
C415 C 0.66058 0.29257 0.12263 0.0
C416 C 0.64032 0.32995 0.10954 0.0
C417 C 0.63458 0.30492 0.11714 0.0
N418 N 0.6807 0.30955 0.11841 0.0
N419 N 0.66845 0.33195 0.11072 0.0
C420 C 0.66652 0.26442 0.13072 0.0
H421 H 0.68759 0.25587 0.1277 0.0
H422 H 0.65012 0.24968 0.12635 0.0
H423 H 0.66649 0.26665 0.14472 0.0
C424 C 0.76802 0.26242 0.09033 0.0
N425 N 0.7619 0.27615 0.10458 0.0
N426 N 0.73464 0.28202 0.10403 0.0
C427 C 0.72258 0.2729 0.08913 0.0
C428 C 0.74338 0.26008 0.07989 0.0
C429 C 0.79721 0.25273 0.08661 0.0
H430 H 0.80796 0.24235 0.09805 0.0
H431 H 0.797 0.23777 0.07583 0.0
H432 H 0.80935 0.27114 0.08357 0.0
O433 O 0.7818 0.33384 0.12085 0.0
O434 O 0.73571 0.34186 0.12134 0.0
H435 H 0.68842 0.30316 0.08474 0.0
H436 H 0.6882 0.27563 0.06927 0.0
C437 C 0.69273 0.28042 0.08291 0.0
H438 H 0.67833 0.26886 0.0905 0.0
H439 H 0.67933 0.34842 0.10605 0.0
O440 O 0.82559 0.28227 0.11878 0.0
C441 C 0.7604 0.35077 0.12085 0.0
Co442 Co 0.67878 0.77729 0.61863 0.0
Co443 Co 0.67039 0.7127 0.61638 0.0
C444 C 0.69587 0.7388 0.64802 0.0
O445 O 0.69352 0.76305 0.64123 0.0
O446 O 0.68798 0.71712 0.63984 0.0
C447 C 0.70797 0.82863 0.6246 0.0
O448 O 0.728 0.81255 0.63239 0.0
C449 C 0.68296 0.65169 0.61625 0.0
C450 C 0.64603 0.6372 0.60056 0.0
C451 C 0.67085 0.62782 0.60943 0.0
N452 N 0.66603 0.67403 0.61156 0.0
N453 N 0.64393 0.6652 0.60228 0.0
C454 C 0.71081 0.65371 0.62614 0.0
H455 H 0.71947 0.67456 0.62416 0.0
H456 H 0.72589 0.63691 0.62234 0.0
H457 H 0.70787 0.65135 0.63989 0.0
C458 C 0.7107 0.76442 0.58831 0.0
N459 N 0.6955 0.75666 0.6011 0.0
N460 N 0.69148 0.72962 0.59994 0.0
C461 C 0.70348 0.71938 0.58614 0.0
C462 C 0.71626 0.74106 0.57833 0.0
C463 C 0.72043 0.7935 0.58617 0.0
H464 H 0.73182 0.8001 0.59817 0.0
H465 H 0.7348 0.79487 0.57582 0.0
H466 H 0.70188 0.80814 0.58358 0.0
O467 O 0.63699 0.77527 0.6166 0.0
O468 O 0.63188 0.72943 0.61548 0.0
H469 H 0.67782 0.68473 0.57969 0.0
H470 H 0.70667 0.6875 0.56657 0.0
C471 C 0.70017 0.6901 0.57969 0.0
H472 H 0.71295 0.67529 0.58827 0.0
H473 H 0.62753 0.67835 0.59698 0.0
O474 O 0.68626 0.81763 0.61757 0.0
C475 C 0.62133 0.75432 0.61564 0.0
Co476 Co 0.25372 0.70335 0.13408 0.0
Co477 Co 0.31925 0.698 0.13486 0.0
C478 C 0.29165 0.72266 0.16401 0.0
O479 O 0.26762 0.71899 0.15631 0.0
O480 O 0.31433 0.71576 0.15717 0.0
C481 C 0.19996 0.73429 0.1333 0.0
O482 O 0.21459 0.7565 0.13692 0.0
C483 C 0.38004 0.70902 0.13508 0.0
C484 C 0.39387 0.67441 0.11855 0.0
C485 C 0.40337 0.69749 0.12756 0.0
N486 N 0.35785 0.69348 0.13052 0.0
N487 N 0.36637 0.67271 0.1208 0.0
C488 C 0.37805 0.73553 0.14512 0.0
H489 H 0.35608 0.74443 0.14416 0.0
H490 H 0.39238 0.75113 0.14058 0.0
H491 H 0.38428 0.73084 0.1587 0.0
C492 C 0.26134 0.72863 0.10044 0.0
N493 N 0.27145 0.71876 0.11581 0.0
N494 N 0.29911 0.71844 0.11677 0.0
C495 C 0.30749 0.72931 0.10232 0.0
C496 C 0.28389 0.73572 0.0913 0.0
C497 C 0.23111 0.72731 0.09389 0.0
H498 H 0.22121 0.70965 0.0999 0.0
H499 H 0.21968 0.74712 0.09711 0.0
H500 H 0.22902 0.72453 0.07989 0.0
O501 O 0.25996 0.66238 0.13444 0.0
O502 O 0.30651 0.65887 0.1354 0.0
H503 H 0.34791 0.71308 0.096 0.0
H504 H 0.33928 0.74843 0.08855 0.0
C505 C 0.33758 0.73349 0.09915 0.0
H506 H 0.34876 0.74186 0.11076 0.0
H507 H 0.3532 0.65771 0.11538 0.0
O508 O 0.21269 0.71068 0.13146 0.0
C509 C 0.28281 0.64754 0.13508 0.0
Co510 Co 0.2684 0.2954 0.6176 0.0
Co511 Co 0.27393 0.22992 0.61837 0.0
C512 C 0.24667 0.25949 0.58816 0.0
O513 O 0.25134 0.2831 0.59512 0.0
O514 O 0.2537 0.23656 0.59589 0.0
C515 C 0.24624 0.35166 0.60936 0.0
O516 O 0.23622 0.34083 0.59495 0.0
C517 C 0.26196 0.16997 0.61787 0.0
C518 C 0.29728 0.15277 0.63509 0.0
C519 C 0.27341 0.14531 0.62531 0.0
N520 N 0.27832 0.19099 0.62309 0.0
N521 N 0.29949 0.18054 0.63326 0.0
C522 C 0.23481 0.17409 0.60718 0.0
H523 H 0.22545 0.19543 0.60914 0.0
H524 H 0.21968 0.15819 0.61027 0.0
H525 H 0.23901 0.17194 0.59357 0.0
C526 C 0.24472 0.28533 0.6506 0.0
N527 N 0.25427 0.27606 0.63586 0.0
N528 N 0.25556 0.24851 0.6359 0.0
C529 C 0.2463 0.23931 0.65053 0.0
C530 C 0.23939 0.2623 0.66044 0.0
C531 C 0.24438 0.31548 0.65587 0.0
H532 H 0.26448 0.32469 0.65305 0.0
H533 H 0.22707 0.32716 0.64834 0.0
H534 H 0.24143 0.31808 0.6696 0.0
O535 O 0.30981 0.28925 0.61799 0.0
O536 O 0.31278 0.24279 0.61774 0.0
H537 H 0.26619 0.2001 0.65864 0.0
H538 H 0.2315 0.2064 0.66599 0.0
C539 C 0.24468 0.20906 0.65514 0.0
H540 H 0.23549 0.19737 0.64408 0.0
H541 H 0.31521 0.19249 0.63918 0.0
O542 O 0.26021 0.33605 0.6203 0.0
C543 C 0.3244 0.26629 0.61776 0.0
C544 C 0.89051 0.24967 0.13845 0.0
C545 C 0.87172 0.26279 0.12601 0.0
C546 C 0.91957 0.24974 0.13702 0.0
C547 C 0.97097 0.2921 0.11778 0.0
H548 H 0.02425 0.23069 0.13063 0.0
C549 C 0.08825 0.30221 0.1104 0.0
C550 C 0.10693 0.29311 0.12408 0.0
C551 C 0.06019 0.29495 0.10947 0.0
C552 C 0.00961 0.24806 0.12711 0.0
H553 H 0.86857 0.28458 0.10176 0.0
H554 H 0.91912 0.28442 0.0992 0.0
H555 H 0.97365 0.22398 0.13094 0.0
H556 H 0.11098 0.26908 0.1475 0.0
H557 H 0.0617 0.25653 0.14599 0.0
H558 H 0.00656 0.31642 0.11428 0.0
C559 C 0.91147 0.27464 0.11025 0.0
C560 C 0.98068 0.24421 0.12727 0.0
C561 C 0.88249 0.27465 0.11169 0.0
C562 C 0.09719 0.27591 0.13662 0.0
C563 C 0.06895 0.26878 0.13577 0.0
C564 C -0.00026 0.29595 0.11766 0.0
C565 C 0.93036 0.26287 0.12311 0.0
C566 C 0.96107 0.26621 0.12256 0.0
C567 C 0.05002 0.27875 0.12235 0.0
C568 C 0.01943 0.274 0.12227 0.0
H569 H 0.88285 0.24029 0.14962 0.0
H570 H 0.9336 0.24061 0.14718 0.0
H571 H 0.95647 0.30969 0.11449 0.0
H572 H 0.09528 0.31532 0.10049 0.0
H573 H 0.04632 0.30248 0.09878 0.0
C574 C 0.69589 0.07774 0.60057 0.0
C575 C 0.69347 0.09598 0.6144 0.0
C576 C 0.70318 0.04938 0.60327 0.0
C577 C 0.69445 0.99439 0.63343 0.0
H578 H 0.74645 0.95072 0.60724 0.0
C579 C 0.68558 0.87666 0.62103 0.0
C580 C 0.70999 0.8594 0.62444 0.0
C581 C 0.68701 0.90575 0.62136 0.0
C582 C 0.7321 0.96273 0.61476 0.0
H583 H 0.69665 0.09903 0.64189 0.0
H584 H 0.70911 0.04922 0.64665 0.0
H585 H 0.74421 0.00205 0.60509 0.0
H586 H 0.75512 0.85906 0.63054 0.0
H587 H 0.75767 0.91029 0.63064 0.0
H588 H 0.68146 0.95512 0.64253 0.0
C589 C 0.70581 0.05702 0.63372 0.0
C590 C 0.73072 0.99198 0.61347 0.0
C591 C 0.69893 0.08551 0.63101 0.0
C592 C 0.73597 0.87186 0.62793 0.0
C593 C 0.73746 0.90108 0.62794 0.0
C594 C 0.69551 0.96519 0.6345 0.0
C595 C 0.70764 0.03865 0.61988 0.0
C596 C 0.71159 0.00803 0.62262 0.0
C597 C 0.71292 0.91822 0.62483 0.0
C598 C 0.71401 0.94911 0.62497 0.0
H599 H 0.69165 0.08534 0.58765 0.0
H600 H 0.7041 0.0356 0.59238 0.0
H601 H 0.67933 0.00625 0.6405 0.0
H602 H 0.66524 0.8677 0.61835 0.0
H603 H 0.66785 0.91856 0.61874 0.0
C604 C 0.94621 0.72387 0.13514 0.0
C605 C 0.93198 0.71721 0.11953 0.0
C606 C 0.97423 0.73163 0.13575 0.0
C607 C 0.03599 0.72094 0.11088 0.0
H608 H 0.07116 0.77033 0.14444 0.0
C609 C 0.15387 0.76225 0.1319 0.0
C610 C 0.16886 0.73628 0.13138 0.0
C611 C 0.1244 0.76361 0.12984 0.0
C612 C 0.06157 0.75676 0.13485 0.0
H613 H 0.93487 0.71506 0.09229 0.0
H614 H 0.98333 0.72949 0.09323 0.0
H615 H 0.01982 0.76815 0.14154 0.0
H616 H 0.16467 0.69135 0.12868 0.0
H617 H 0.11372 0.69371 0.12537 0.0
H618 H 0.07745 0.70961 0.1041 0.0
C619 C 0.97335 0.72796 0.10507 0.0
C620 C 0.03222 0.75528 0.13331 0.0
C621 C 0.94558 0.71981 0.1045 0.0
C622 C 0.15385 0.71175 0.12898 0.0
C623 C 0.12457 0.71311 0.12698 0.0
C624 C 0.06515 0.72251 0.11237 0.0
C625 C 0.98833 0.73304 0.12074 0.0
C626 C 0.01914 0.73699 0.12148 0.0
C627 C 0.10949 0.73902 0.12721 0.0
C628 C 0.07834 0.73992 0.12462 0.0
H629 H 0.93623 0.72165 0.14692 0.0
H630 H 0.98521 0.73508 0.14805 0.0
H631 H 0.02679 0.70631 0.1018 0.0
H632 H 0.16487 0.78152 0.13374 0.0
H633 H 0.11332 0.7839 0.13001 0.0
C634 C 0.2328 0.89969 0.5948 0.0
C635 C 0.23994 0.88183 0.60876 0.0
C636 C 0.23182 0.92878 0.59696 0.0
C637 C 0.26277 0.98153 0.62544 0.0
H638 H 0.20772 0.03329 0.60231 0.0
C639 C 0.26607 0.09899 0.63812 0.0
C640 C 0.26321 0.11665 0.62385 0.0
C641 C 0.25925 0.07098 0.63668 0.0
C642 C 0.22331 0.01906 0.60876 0.0
H643 H 0.24994 0.88037 0.63608 0.0
H644 H 0.24795 0.93093 0.63982 0.0
H645 H 0.20272 0.9827 0.599 0.0
H646 H 0.25087 0.11902 0.59685 0.0
H647 H 0.23911 0.06984 0.59424 0.0
H648 H 0.28373 0.01752 0.63494 0.0
C649 C 0.24372 0.92253 0.62717 0.0
C650 C 0.22045 0.99015 0.60687 0.0
C651 C 0.24477 0.89355 0.62502 0.0
C652 C 0.25269 0.10601 0.60814 0.0
C653 C 0.24601 0.07784 0.60665 0.0
C654 C 0.26565 0.01027 0.62729 0.0
C655 C 0.23791 0.94046 0.61312 0.0
C656 C 0.24016 0.97113 0.61524 0.0
C657 C 0.24981 0.05991 0.62085 0.0
C658 C 0.24596 0.02938 0.61902 0.0
H659 H 0.22888 0.89126 0.58213 0.0
H660 H 0.22742 0.9421 0.58588 0.0
H661 H 0.27868 0.96742 0.63172 0.0
H662 H 0.27399 0.10676 0.65041 0.0
H663 H 0.26189 0.05783 0.64792 0.0
C664 C 0.90374 0.7177 0.85727 0.0
C665 C 0.88512 0.72081 0.87018 0.0
C666 C 0.93132 0.72639 0.85984 0.0
C667 C 0.98611 0.73506 0.89388 0.0
H668 H 0.02533 0.77015 0.85873 0.0
C669 C 0.10579 0.72427 0.89053 0.0
C670 C 0.12032 0.74802 0.88644 0.0
C671 C 0.07646 0.72533 0.88996 0.0
C672 C 0.01458 0.76069 0.86875 0.0
H673 H 0.88086 0.73512 0.89601 0.0
H674 H 0.92905 0.75048 0.90047 0.0
H675 H 0.97441 0.76512 0.85463 0.0
H676 H 0.11551 0.79162 0.87867 0.0
H677 H 0.06392 0.79332 0.87741 0.0
H678 H 0.02635 0.72988 0.90778 0.0
C679 C 0.92218 0.74158 0.88829 0.0
C680 C 0.98551 0.75761 0.86635 0.0
C681 C 0.89449 0.73309 0.88566 0.0
C682 C 0.10488 0.773 0.88193 0.0
C683 C 0.07541 0.77396 0.88114 0.0
C684 C 0.01517 0.73791 0.89621 0.0
C685 C 0.94097 0.73802 0.87547 0.0
C686 C 0.97109 0.74429 0.87876 0.0
C687 C 0.06095 0.75008 0.88511 0.0
C688 C 0.02977 0.75024 0.88353 0.0
H689 H 0.89708 0.70815 0.84525 0.0
H690 H 0.94541 0.723 0.84981 0.0
H691 H 0.97563 0.72451 0.90361 0.0
H692 H 0.11707 0.70471 0.89409 0.0
H693 H 0.06589 0.7065 0.89287 0.0
C694 C 0.28094 0.88646 0.35666 0.0
C695 C 0.29143 0.86892 0.37019 0.0
C696 C 0.28029 0.91559 0.35856 0.0
C697 C 0.31622 0.96943 0.38426 0.0
H698 H 0.25774 0.02013 0.3635 0.0
C699 C 0.31923 0.0876 0.39516 0.0
C700 C 0.31447 0.10476 0.3807 0.0
C701 C 0.31296 0.05939 0.39441 0.0
C702 C 0.27427 0.00618 0.36927 0.0
H703 H 0.30771 0.86804 0.39664 0.0
H704 H 0.30607 0.91872 0.40004 0.0
H705 H 0.25251 0.96943 0.36147 0.0
H706 H 0.29945 0.10578 0.35405 0.0
H707 H 0.28833 0.05633 0.35273 0.0
H708 H 0.33814 0.00592 0.39193 0.0
C709 C 0.29908 0.91006 0.38782 0.0
C710 C 0.2713 0.9772 0.36811 0.0
C711 C 0.29992 0.88101 0.38589 0.0
C712 C 0.30268 0.09328 0.36552 0.0
C713 C 0.29642 0.06493 0.36475 0.0
C714 C 0.31914 0.99828 0.38545 0.0
C715 C 0.28995 0.92771 0.37405 0.0
C716 C 0.29228 0.95852 0.37561 0.0
C717 C 0.30201 0.0476 0.37912 0.0
C718 C 0.29823 0.01698 0.37799 0.0
H719 H 0.27422 0.87774 0.34441 0.0
H720 H 0.2733 0.9286 0.34768 0.0
H721 H 0.33311 0.95566 0.38981 0.0
H722 H 0.32815 0.09594 0.40707 0.0
H723 H 0.31708 0.04667 0.40576 0.0
C724 C 0.85603 0.29771 0.88144 0.0
C725 C 0.84123 0.27288 0.88076 0.0
C726 C 0.88539 0.29666 0.88268 0.0
C727 C 0.9463 0.25429 0.87195 0.0
H728 H 0.98707 0.30167 0.90438 0.0
C729 C 0.05761 0.29232 0.86419 0.0
C730 C 0.07676 0.29236 0.87861 0.0
C731 C 0.02989 0.28488 0.86556 0.0
C732 C 0.97602 0.28805 0.89541 0.0
H733 H 0.84555 0.22748 0.88069 0.0
H734 H 0.89716 0.22571 0.88246 0.0
H735 H 0.93609 0.29878 0.90501 0.0
H736 H 0.08207 0.28485 0.90578 0.0
H737 H 0.03332 0.27209 0.90823 0.0
H738 H 0.98613 0.24441 0.86193 0.0
C739 C 0.88587 0.24591 0.8822 0.0
C740 C 0.94688 0.28658 0.89569 0.0
C741 C 0.85641 0.24695 0.88124 0.0
C742 C 0.06785 0.28445 0.89441 0.0
C743 C 0.03996 0.2774 0.89584 0.0
C744 C 0.97543 0.25607 0.87151 0.0
C745 C 0.90058 0.27078 0.88302 0.0
C746 C 0.93171 0.27005 0.88379 0.0
C747 C 0.02066 0.27785 0.88145 0.0
C748 C 0.99047 0.2733 0.88308 0.0
H749 H 0.84493 0.31801 0.88114 0.0
H750 H 0.89625 0.31614 0.88309 0.0
H751 H 0.93504 0.2415 0.86259 0.0
H752 H 0.06399 0.29845 0.85188 0.0
H753 H 0.01537 0.28575 0.85431 0.0
C754 C 0.73683 0.07917 0.35837 0.0
C755 C 0.73842 0.09811 0.37199 0.0
C756 C 0.74579 0.05115 0.36081 0.0
C757 C 0.75031 0.9975 0.39331 0.0
H758 H 0.79111 0.95388 0.36084 0.0
C759 C 0.73914 0.87948 0.38357 0.0
C760 C 0.76372 0.86246 0.38248 0.0
C761 C 0.74044 0.90858 0.38409 0.0
C762 C 0.78003 0.96587 0.37012 0.0
H763 H 0.75044 0.10271 0.39888 0.0
H764 H 0.76597 0.05353 0.4032 0.0
H765 H 0.78681 0.00503 0.35814 0.0
H766 H 0.80896 0.86252 0.38102 0.0
H767 H 0.8111 0.91376 0.38152 0.0
H768 H 0.74253 0.95831 0.40488 0.0
C769 C 0.75817 0.06052 0.39058 0.0
C770 C 0.77742 0.99504 0.36852 0.0
C771 C 0.74953 0.08867 0.38808 0.0
C772 C 0.78969 0.87514 0.38192 0.0
C773 C 0.79092 0.90438 0.38215 0.0
C774 C 0.75262 0.96835 0.39478 0.0
C775 C 0.75605 0.04143 0.37701 0.0
C776 C 0.76208 0.01106 0.37991 0.0
C777 C 0.76628 0.92131 0.38328 0.0
C778 C 0.76699 0.95224 0.38299 0.0
H779 H 0.72824 0.08595 0.34586 0.0
H780 H 0.74356 0.03683 0.35018 0.0
H781 H 0.73818 0.0093 0.40219 0.0
H782 H 0.71882 0.87033 0.38407 0.0
H783 H 0.72108 0.92118 0.38475 0.0
C784 C 0.29234 0.3892 0.13578 0.0
C785 C 0.26546 0.37816 0.13571 0.0
C786 C 0.29539 0.41822 0.1357 0.0
C787 C 0.25557 0.48453 0.12455 0.0
H788 H 0.31377 0.51886 0.1535 0.0
C789 C 0.25585 0.60366 0.13515 0.0
C790 C 0.2818 0.61658 0.13529 0.0
C791 C 0.25479 0.57449 0.13512 0.0
C792 C 0.29762 0.50955 0.1452 0.0
H793 H 0.22074 0.3891 0.13577 0.0
H794 H 0.22613 0.43942 0.13578 0.0
H795 H 0.31046 0.46795 0.15357 0.0
H796 H 0.32705 0.60884 0.1356 0.0
H797 H 0.32513 0.55788 0.13541 0.0
H798 H 0.24264 0.526 0.1162 0.0
C799 C 0.24483 0.4257 0.13563 0.0
C800 C 0.29574 0.4804 0.14523 0.0
C801 C 0.24178 0.39679 0.13574 0.0
C802 C 0.3067 0.5996 0.13552 0.0
C803 C 0.30563 0.57038 0.1355 0.0
C804 C 0.25746 0.5136 0.1245 0.0
C805 C 0.27162 0.43678 0.13549 0.0
C806 C 0.27451 0.4676 0.13502 0.0
C807 C 0.27965 0.55751 0.13522 0.0
C808 C 0.27833 0.52649 0.13494 0.0
H809 H 0.31102 0.37545 0.13575 0.0
H810 H 0.3163 0.42613 0.13547 0.0
H811 H 0.23933 0.47527 0.11628 0.0
H812 H 0.23626 0.61607 0.13505 0.0
H813 H 0.23447 0.56523 0.13517 0.0
C814 C 0.36931 0.29198 0.61742 0.0
C815 C 0.35538 0.26661 0.61714 0.0
C816 C 0.39851 0.29198 0.61645 0.0
C817 C 0.45814 0.24817 0.60245 0.0
H818 H 0.50408 0.29463 0.63269 0.0
C819 C 0.57825 0.23005 0.61276 0.0
C820 C 0.59503 0.25352 0.61459 0.0
C821 C 0.54894 0.23326 0.61203 0.0
C822 C 0.49152 0.28185 0.62397 0.0
H823 H 0.36136 0.22131 0.61581 0.0
H824 H 0.41204 0.22139 0.6142 0.0
H825 H 0.45294 0.29748 0.63351 0.0
H826 H 0.59399 0.29887 0.61678 0.0
H827 H 0.54275 0.30444 0.61531 0.0
H828 H 0.4966 0.23237 0.59298 0.0
C829 C 0.4004 0.2413 0.61495 0.0
C830 C 0.46223 0.28346 0.62446 0.0
C831 C 0.37132 0.24128 0.61599 0.0
C832 C 0.58173 0.28033 0.61542 0.0
C833 C 0.55236 0.28353 0.61468 0.0
C834 C 0.48737 0.2466 0.60193 0.0
C835 C 0.41432 0.26663 0.61509 0.0
C836 C 0.44526 0.26634 0.61387 0.0
C837 C 0.53563 0.26001 0.61307 0.0
C838 C 0.50445 0.26312 0.61285 0.0
H839 H 0.35768 0.31187 0.6183 0.0
H840 H 0.40865 0.31184 0.61649 0.0
H841 H 0.44559 0.2351 0.5939 0.0
H842 H 0.58773 0.20908 0.61212 0.0
H843 H 0.53672 0.21466 0.61103 0.0
C844 C 0.79104 0.39225 0.12034 0.0
C845 C 0.76409 0.38142 0.12043 0.0
C846 C 0.79432 0.42123 0.12021 0.0
C847 C 0.7551 0.48856 0.11032 0.0
H848 H 0.81412 0.52041 0.13986 0.0
C849 C 0.75678 0.60673 0.12472 0.0
C850 C 0.78285 0.61948 0.12515 0.0
C851 C 0.75542 0.57763 0.1236 0.0
C852 C 0.79775 0.51181 0.13138 0.0
H853 H 0.71945 0.39266 0.12038 0.0
H854 H 0.72522 0.44296 0.12033 0.0
H855 H 0.81023 0.46964 0.13866 0.0
H856 H 0.82799 0.61149 0.12475 0.0
H857 H 0.82552 0.56067 0.12272 0.0
H858 H 0.74244 0.5307 0.10316 0.0
C859 C 0.7438 0.42911 0.12014 0.0
C860 C 0.79554 0.48272 0.13068 0.0
C861 C 0.74053 0.40022 0.12028 0.0
C862 C 0.80755 0.60239 0.1245 0.0
C863 C 0.80617 0.57324 0.12341 0.0
C864 C 0.75729 0.51761 0.11103 0.0
C865 C 0.77072 0.43998 0.12012 0.0
C866 C 0.77401 0.47078 0.12026 0.0
C867 C 0.78008 0.56054 0.12289 0.0
C868 C 0.77848 0.52959 0.12169 0.0
H869 H 0.80965 0.37838 0.12041 0.0
H870 H 0.81532 0.42894 0.12003 0.0
H871 H 0.7386 0.48001 0.10192 0.0
H872 H 0.73734 0.61922 0.12523 0.0
H873 H 0.73502 0.56847 0.12348 0.0
C874 C 0.57339 0.7352 0.61581 0.0
C875 C 0.59033 0.75856 0.61559 0.0
C876 C 0.5444 0.73871 0.6169 0.0
C877 C 0.48372 0.78806 0.60953 0.0
H878 H 0.45026 0.73962 0.64114 0.0
C879 C 0.36443 0.79492 0.62051 0.0
C880 C 0.35148 0.76911 0.62146 0.0
C881 C 0.39376 0.79582 0.62062 0.0
C882 C 0.45921 0.75316 0.63215 0.0
H883 H 0.58982 0.80403 0.61583 0.0
H884 H 0.53884 0.81011 0.61763 0.0
H885 H 0.50104 0.73725 0.63931 0.0
H886 H 0.35933 0.72403 0.62331 0.0
H887 H 0.41011 0.72562 0.62329 0.0
H888 H 0.44171 0.80353 0.60211 0.0
C889 C 0.54823 0.7891 0.61699 0.0
C890 C 0.48831 0.75182 0.63113 0.0
C891 C 0.5774 0.78559 0.616 0.0
C892 C 0.36852 0.7443 0.62263 0.0
C893 C 0.39773 0.74522 0.62273 0.0
C894 C 0.45448 0.78932 0.6105 0.0
C895 C 0.53154 0.76565 0.61772 0.0
C896 C 0.50084 0.76888 0.6196 0.0
C897 C 0.41073 0.77095 0.62173 0.0
C898 C 0.44187 0.7715 0.62161 0.0
H899 H 0.58252 0.71406 0.61541 0.0
H900 H 0.53202 0.72025 0.61712 0.0
H901 H 0.49281 0.80137 0.60047 0.0
H902 H 0.35193 0.81443 0.61961 0.0
H903 H 0.40315 0.816 0.61997 0.0
C904 C 0.25118 0.40238 0.89113 0.0
C905 C 0.22572 0.38854 0.8909 0.0
C906 C 0.25128 0.4316 0.8918 0.0
C907 C 0.20549 0.49477 0.88242 0.0
H908 H 0.26464 0.53209 0.90893 0.0
C909 C 0.20619 0.61529 0.88921 0.0
C910 C 0.23211 0.62754 0.88746 0.0
C911 C 0.20477 0.5862 0.89051 0.0
C912 C 0.2481 0.52194 0.90137 0.0
H913 H 0.18042 0.39464 0.89152 0.0
H914 H 0.18069 0.44562 0.89293 0.0
H915 H 0.26316 0.48113 0.90993 0.0
H916 H 0.2769 0.61876 0.8858 0.0
H917 H 0.27433 0.56809 0.88801 0.0
H918 H 0.19051 0.53562 0.87382 0.0
C919 C 0.20053 0.43385 0.89233 0.0
C920 C 0.24726 0.49276 0.90193 0.0
C921 C 0.2004 0.40461 0.89162 0.0
C922 C 0.25658 0.61005 0.88715 0.0
C923 C 0.25516 0.58101 0.88853 0.0
C924 C 0.20629 0.52396 0.8819 0.0
C925 C 0.22595 0.44769 0.8923 0.0
C926 C 0.22609 0.47881 0.89235 0.0
C927 C 0.22924 0.56876 0.89017 0.0
C928 C 0.22774 0.53785 0.89126 0.0
H929 H 0.27107 0.3907 0.89054 0.0
H930 H 0.2712 0.44159 0.89152 0.0
H931 H 0.18914 0.48467 0.87468 0.0
H932 H 0.18693 0.62812 0.88952 0.0
H933 H 0.18453 0.57738 0.89193 0.0
C934 C 0.62635 0.28244 0.37571 0.0
C935 C 0.64007 0.25575 0.37562 0.0
C936 C 0.59709 0.28516 0.37648 0.0
C937 C 0.53714 0.24616 0.3895 0.0
H938 H 0.49124 0.29701 0.35953 0.0
C939 C 0.41812 0.23539 0.3774 0.0
C940 C 0.40046 0.25979 0.37624 0.0
C941 C 0.44732 0.23712 0.37827 0.0
C942 C 0.5038 0.28302 0.36817 0.0
H943 H 0.63362 0.211 0.37602 0.0
H944 H 0.58295 0.2158 0.3773 0.0
H945 H 0.54254 0.29619 0.35924 0.0
H946 H 0.39981 0.30523 0.37512 0.0
H947 H 0.45102 0.3082 0.37674 0.0
H948 H 0.4986 0.23273 0.39832 0.0
C949 C 0.59477 0.23463 0.377 0.0
C950 C 0.53316 0.28255 0.36799 0.0
C951 C 0.62386 0.23191 0.37616 0.0
C952 C 0.41278 0.28602 0.376 0.0
C953 C 0.44211 0.28773 0.37684 0.0
C954 C 0.50789 0.24667 0.3897 0.0
C955 C 0.58105 0.26125 0.37729 0.0
C956 C 0.55009 0.2637 0.37842 0.0
C957 C 0.45969 0.26327 0.37802 0.0
C958 C 0.49084 0.26469 0.3788 0.0
H959 H 0.63819 0.30124 0.3753 0.0
H960 H 0.5871 0.30595 0.37675 0.0
H961 H 0.54965 0.23184 0.39796 0.0
H962 H 0.40943 0.21482 0.37757 0.0
H963 H 0.46022 0.21785 0.37888 0.0
C964 C 0.75623 0.60749 0.87411 0.0
C965 C 0.73222 0.62557 0.87464 0.0
C966 C 0.75374 0.57848 0.87356 0.0
C967 C 0.70603 0.52224 0.88244 0.0
H968 H 0.75322 0.47871 0.85323 0.0
C969 C 0.69615 0.4026 0.87167 0.0
C970 C 0.72165 0.38654 0.87213 0.0
C971 C 0.69612 0.43193 0.87158 0.0
C972 C 0.74005 0.49054 0.86155 0.0
H973 H 0.68671 0.62717 0.87513 0.0
H974 H 0.68239 0.57646 0.87399 0.0
H975 H 0.75559 0.52954 0.85392 0.0
H976 H 0.76713 0.38883 0.87286 0.0
H977 H 0.76701 0.43972 0.87276 0.0
H978 H 0.69055 0.48307 0.89006 0.0
C979 C 0.70318 0.58479 0.87419 0.0
C980 C 0.74144 0.51968 0.86197 0.0
C981 C 0.70566 0.61387 0.87477 0.0
C982 C 0.74707 0.40048 0.87247 0.0
C983 C 0.74702 0.42969 0.8723 0.0
C984 C 0.7046 0.49304 0.88198 0.0
C985 C 0.72719 0.56677 0.87348 0.0
C986 C 0.7247 0.53586 0.87256 0.0
C987 C 0.72158 0.44577 0.87183 0.0
C988 C 0.72184 0.47686 0.87168 0.0
H989 H 0.77704 0.61572 0.87408 0.0
H990 H 0.77271 0.56519 0.87333 0.0
H991 H 0.69306 0.53406 0.89086 0.0
H992 H 0.67619 0.39256 0.87139 0.0
H993 H 0.67617 0.44376 0.87109 0.0
C994 C 0.42123 0.78374 0.38095 0.0
C995 C 0.40842 0.7578 0.38147 0.0
C996 C 0.45045 0.78477 0.38035 0.0
C997 C 0.51093 0.74186 0.36725 0.0
H998 H 0.55633 0.7932 0.39439 0.0
C999 C 0.63177 0.73067 0.37343 0.0
C1000 C 0.64711 0.75517 0.37375 0.0
C1001 C 0.60255 0.73227 0.37399 0.0
C1002 C 0.54388 0.77901 0.38655 0.0
H1003 H 0.41648 0.71266 0.3825 0.0
H1004 H 0.46715 0.71457 0.38153 0.0
H1005 H 0.50543 0.79393 0.3966 0.0
H1006 H 0.64361 0.80062 0.37469 0.0
H1007 H 0.59251 0.80336 0.37541 0.0
H1008 H 0.54914 0.72695 0.35713 0.0
C1009 C 0.45461 0.73407 0.38129 0.0
C1010 C 0.51476 0.7794 0.38785 0.0
C1011 C 0.42555 0.73302 0.38195 0.0
C1012 C 0.63247 0.78132 0.37447 0.0
C1013 C 0.60319 0.78291 0.37499 0.0
C1014 C 0.53995 0.74154 0.36589 0.0
C1015 C 0.46735 0.75989 0.38018 0.0
C1016 C 0.49806 0.76057 0.37837 0.0
C1017 C 0.58791 0.75839 0.37482 0.0
C1018 C 0.55684 0.75985 0.37567 0.0
H1019 H 0.40867 0.80321 0.38057 0.0
H1020 H 0.45971 0.80498 0.37946 0.0
H1021 H 0.49852 0.72749 0.35951 0.0
H1022 H 0.64234 0.71017 0.37295 0.0
H1023 H 0.5915 0.71294 0.37409 0.0
C1024 C 0.2633 0.26075 0.06192 0.0
C1025 C 0.24371 0.25146 0.07285 0.0
C1026 C 0.26047 0.25459 0.0446 0.0
C1027 C 0.20808 0.24662 0.01057 0.0
H1028 H 0.27006 0.2189 0.98517 0.0
C1029 C 0.2011 0.2548 0.93757 0.0
C1030 C 0.22536 0.2643 0.93072 0.0
C1031 C 0.20222 0.24526 0.95439 0.0
C1032 C 0.25255 0.22682 0.99203 0.0
H1033 H 0.20617 0.2279 0.07436 0.0
H1034 H 0.20042 0.21822 0.04371 0.0
H1035 H 0.27458 0.21729 0.0162 0.0
H1036 H 0.27006 0.27012 0.93597 0.0
H1037 H 0.27183 0.25461 0.96523 0.0
H1038 H 0.18676 0.25823 0.98667 0.0
C1039 C 0.2182 0.22986 0.04872 0.0
C1040 C 0.25511 0.22565 0.00978 0.0
C1041 C 0.22142 0.23549 0.06616 0.0
C1042 C 0.25096 0.26291 0.9408 0.0
C1043 C 0.25201 0.25374 0.95763 0.0
C1044 C 0.20568 0.24828 0.99282 0.0
C1045 C 0.23764 0.23953 0.03781 0.0
C1046 C 0.23318 0.23621 0.01919 0.0
C1047 C 0.22756 0.24532 0.96478 0.0
C1048 C 0.22823 0.23918 0.98334 0.0
H1049 H 0.2803 0.27366 0.06662 0.0
H1050 H 0.27545 0.26268 0.03638 0.0
H1051 H 0.19097 0.25512 0.01759 0.0
H1052 H 0.18109 0.25531 0.93007 0.0
H1053 H 0.18308 0.23842 0.95934 0.0
C1054 C 0.75399 0.2141 0.43301 0.0
C1055 C 0.75907 0.23785 0.42338 0.0
C1056 C 0.75853 0.21439 0.45071 0.0
C1057 C 0.75985 0.26599 0.4855 0.0
H1058 H 0.77269 0.19923 0.51342 0.0
C1059 C 0.71764 0.25914 0.55126 0.0
C1060 C 0.73292 0.24346 0.56411 0.0
C1061 C 0.72656 0.25936 0.53483 0.0
C1062 C 0.76953 0.21821 0.50589 0.0
H1063 H 0.77556 0.27947 0.42463 0.0
H1064 H 0.78448 0.27961 0.45546 0.0
H1065 H 0.78112 0.19704 0.48335 0.0
H1066 H 0.76964 0.21611 0.57021 0.0
H1067 H 0.78575 0.21674 0.54138 0.0
H1068 H 0.74853 0.28724 0.50801 0.0
C1069 C 0.77594 0.26113 0.44941 0.0
C1070 C 0.77403 0.21687 0.48857 0.0
C1071 C 0.77102 0.26099 0.43171 0.0
C1072 C 0.75754 0.22827 0.56039 0.0
C1073 C 0.76662 0.22858 0.54392 0.0
C1074 C 0.75565 0.26739 0.50281 0.0
C1075 C 0.76863 0.23831 0.4592 0.0
C1076 C 0.76842 0.24055 0.47804 0.0
C1077 C 0.75112 0.24402 0.5309 0.0
C1078 C 0.75953 0.24333 0.51311 0.0
H1079 H 0.74482 0.19589 0.42699 0.0
H1080 H 0.75241 0.19648 0.45775 0.0
H1081 H 0.75502 0.28465 0.47786 0.0
H1082 H 0.69838 0.27073 0.55385 0.0
H1083 H 0.71371 0.27097 0.52509 0.0
C1084 C 0.78029 0.73651 0.9298 0.0
C1085 C 0.75366 0.74136 0.92113 0.0
C1086 C 0.78421 0.74134 0.94725 0.0
C1087 C 0.75934 0.77647 0.98433 0.0
H1088 H 0.78146 0.70677 0.00781 0.0
C1089 C 0.7609 0.76399 0.0579 0.0
C1090 C 0.78106 0.74489 0.06572 0.0
C1091 C 0.75795 0.76661 0.04014 0.0
C1092 C 0.77587 0.72662 0.00155 0.0
H1093 H 0.71082 0.75724 0.92376 0.0
H1094 H 0.718 0.76616 0.95435 0.0
H1095 H 0.77675 0.70776 0.97698 0.0
H1096 H 0.81419 0.71386 0.06109 0.0
H1097 H 0.81077 0.72 0.0306 0.0
H1098 H 0.75924 0.79559 0.00893 0.0
C1099 C 0.73563 0.75833 0.94755 0.0
C1100 C 0.77298 0.72706 0.98386 0.0
C1101 C 0.73155 0.7531 0.93008 0.0
C1102 C 0.79883 0.72922 0.05553 0.0
C1103 C 0.79639 0.7323 0.03793 0.0
C1104 C 0.76279 0.77619 0.00214 0.0
C1105 C 0.76174 0.75158 0.95633 0.0
C1106 C 0.76481 0.75195 0.97509 0.0
C1107 C 0.77543 0.75043 0.02991 0.0
C1108 C 0.77128 0.75124 0.01098 0.0
H1109 H 0.79783 0.72761 0.92332 0.0
H1110 H 0.80457 0.73612 0.9538 0.0
H1111 H 0.75292 0.79588 0.97776 0.0
H1112 H 0.747 0.77641 0.06549 0.0
H1113 H 0.74143 0.78066 0.03446 0.0
C1114 C 0.24276 0.75633 0.43424 0.0
C1115 C 0.27019 0.74644 0.43154 0.0
C1116 C 0.23276 0.75475 0.45045 0.0
C1117 C 0.24929 0.72029 0.49272 0.0
H1118 H 0.20626 0.7838 0.50951 0.0
C1119 C 0.23104 0.72762 0.56353 0.0
C1120 C 0.2363 0.75394 0.5708 0.0
C1121 C 0.22679 0.72477 0.54587 0.0
C1122 C 0.21829 0.76587 0.50504 0.0
H1123 H 0.30896 0.72783 0.44338 0.0
H1124 H 0.2921 0.72582 0.47169 0.0
H1125 H 0.21678 0.78249 0.4798 0.0
H1126 H 0.23939 0.79817 0.56525 0.0
H1127 H 0.23306 0.79312 0.53473 0.0
H1128 H 0.25279 0.70466 0.51813 0.0
C1129 C 0.27778 0.7339 0.46136 0.0
C1130 C 0.22402 0.76496 0.48791 0.0
C1131 C 0.28759 0.73526 0.4452 0.0
C1132 C 0.23544 0.77755 0.56012 0.0
C1133 C 0.23156 0.77466 0.54251 0.0
C1134 C 0.24392 0.72139 0.50986 0.0
C1135 C 0.25019 0.74346 0.46421 0.0
C1136 C 0.24041 0.74258 0.48168 0.0
C1137 C 0.22806 0.74812 0.5351 0.0
C1138 C 0.22912 0.74463 0.51638 0.0
H1139 H 0.22904 0.76498 0.42378 0.0
H1140 H 0.21137 0.76215 0.45215 0.0
H1141 H 0.26131 0.70234 0.48826 0.0
H1142 H 0.23119 0.70905 0.57142 0.0
H1143 H 0.22347 0.70409 0.54065 0.0
C1144 C 0.28328 0.74173 0.93659 0.0
C1145 C 0.25604 0.74623 0.92865 0.0
C1146 C 0.28841 0.74645 0.95399 0.0
C1147 C 0.26404 0.77933 0.99227 0.0
H1148 H 0.28916 0.70903 0.01413 0.0
C1149 C 0.26304 0.76125 0.06513 0.0
C1150 C 0.2833 0.74218 0.07288 0.0
C1151 C 0.26115 0.76524 0.04747 0.0
C1152 C 0.28281 0.72909 0.00835 0.0
H1153 H 0.21347 0.76171 0.93245 0.0
H1154 H 0.22273 0.77039 0.9629 0.0
H1155 H 0.28469 0.71201 0.98338 0.0
H1156 H 0.3177 0.71263 0.06823 0.0
H1157 H 0.31613 0.72125 0.03799 0.0
H1158 H 0.2627 0.79665 0.01729 0.0
C1159 C 0.23991 0.76292 0.95561 0.0
C1160 C 0.28009 0.73067 0.99068 0.0
C1161 C 0.23463 0.75781 0.93821 0.0
C1162 C 0.30223 0.72794 0.06276 0.0
C1163 C 0.30087 0.73244 0.04526 0.0
C1164 C 0.26733 0.77794 0.01007 0.0
C1165 C 0.26656 0.75622 0.96372 0.0
C1166 C 0.27063 0.75573 0.98248 0.0
C1167 C 0.27984 0.75054 0.03727 0.0
C1168 C 0.27673 0.75272 0.01835 0.0
H1169 H 0.3003 0.73294 0.92961 0.0
H1170 H 0.30918 0.74131 0.96 0.0
H1171 H 0.2566 0.79886 0.98616 0.0
H1172 H 0.24827 0.77264 0.07266 0.0
H1173 H 0.24451 0.77917 0.04183 0.0
C1174 C 0.2402 0.26035 0.43319 0.0
C1175 C 0.26683 0.24856 0.43022 0.0
C1176 C 0.23067 0.25992 0.44955 0.0
C1177 C 0.24556 0.22522 0.49173 0.0
H1178 H 0.20875 0.29225 0.50894 0.0
C1179 C 0.22806 0.23334 0.56243 0.0
C1180 C 0.23625 0.25864 0.57002 0.0
C1181 C 0.22328 0.23139 0.54477 0.0
C1182 C 0.21901 0.27335 0.50435 0.0
H1183 H 0.30467 0.2276 0.44174 0.0
H1184 H 0.28851 0.22727 0.47029 0.0
H1185 H 0.2186 0.28982 0.47909 0.0
H1186 H 0.24384 0.30226 0.5651 0.0
H1187 H 0.23652 0.29868 0.53446 0.0
H1188 H 0.2479 0.20945 0.51709 0.0
C1189 C 0.27448 0.23613 0.46006 0.0
C1190 C 0.22435 0.27182 0.48716 0.0
C1191 C 0.28387 0.23645 0.44375 0.0
C1192 C 0.2376 0.28243 0.55968 0.0
C1193 C 0.23321 0.28039 0.54203 0.0
C1194 C 0.2405 0.22685 0.50891 0.0
C1195 C 0.24774 0.24778 0.46319 0.0
C1196 C 0.23847 0.24805 0.48078 0.0
C1197 C 0.22699 0.25459 0.5343 0.0
C1198 C 0.22787 0.25124 0.51556 0.0
H1199 H 0.22675 0.26975 0.42285 0.0
H1200 H 0.20991 0.26891 0.45149 0.0
H1201 H 0.25587 0.20632 0.48716 0.0
H1202 H 0.22643 0.21473 0.57007 0.0
H1203 H 0.21777 0.21138 0.53929 0.0
C1204 C 0.75946 0.26302 0.05056 0.0
C1205 C 0.74092 0.25225 0.06166 0.0
C1206 C 0.75602 0.2577 0.03316 0.0
C1207 C 0.70348 0.25053 -0.00048 0.0
H1208 H 0.76462 0.2231 0.97335 0.0
C1209 C 0.6965 0.26019 0.92615 0.0
C1210 C 0.72107 0.26904 0.91935 0.0
C1211 C 0.69719 0.25117 0.94309 0.0
C1212 C 0.74734 0.23095 0.98043 0.0
H1213 H 0.70466 0.22689 0.06338 0.0
H1214 H 0.69773 0.21874 0.03256 0.0
H1215 H 0.76961 0.22012 0.00432 0.0
H1216 H 0.76573 0.27485 0.92498 0.0
H1217 H 0.76673 0.26022 0.95433 0.0
H1218 H 0.68198 0.26344 0.97586 0.0
C1219 C 0.71519 0.23087 0.03751 0.0
C1220 C 0.75016 0.22897 0.99814 0.0
C1221 C 0.7191 0.23561 0.05504 0.0
C1222 C 0.74638 0.26809 0.92973 0.0
C1223 C 0.74702 0.25938 0.94661 0.0
C1224 C 0.70083 0.25301 0.98179 0.0
C1225 C 0.73358 0.24204 0.02645 0.0
C1226 C 0.72856 0.23941 0.00783 0.0
C1227 C 0.72243 0.251 0.9536 0.0
C1228 C 0.72313 0.24408 0.97205 0.0
H1229 H 0.77608 0.27642 0.05522 0.0
H1230 H 0.7702 0.26685 0.02482 0.0
H1231 H 0.68665 0.25892 0.00679 0.0
H1232 H 0.67669 0.26046 0.91846 0.0
H1233 H 0.67791 0.24454 0.94797 0.0
C1234 C 0.76416 0.76168 0.43373 0.0
C1235 C 0.7634 0.73754 0.42352 0.0
C1236 C 0.76835 0.7595 0.45136 0.0
C1237 C 0.75851 0.7091 0.48564 0.0
H1238 H 0.78466 0.77099 0.51363 0.0
C1239 C 0.74989 0.7183 0.55897 0.0
C1240 C 0.73 0.73995 0.5621 0.0
C1241 C 0.76098 0.71595 0.54307 0.0
C1242 C 0.77766 0.75341 0.50597 0.0
H1243 H 0.76881 0.6922 0.42379 0.0
H1244 H 0.77718 0.68841 0.45465 0.0
H1245 H 0.79418 0.76931 0.48364 0.0
H1246 H 0.70649 0.77632 0.55123 0.0
H1247 H 0.72704 0.77307 0.52376 0.0
H1248 H 0.74205 0.69339 0.50819 0.0
C1249 C 0.77354 0.70904 0.44902 0.0
C1250 C 0.78283 0.75251 0.48877 0.0
C1251 C 0.76896 0.71121 0.43131 0.0
C1252 C 0.72219 0.75977 0.54929 0.0
C1253 C 0.73381 0.75785 0.53358 0.0
C1254 C 0.75392 0.70971 0.50294 0.0
C1255 C 0.77236 0.73313 0.45933 0.0
C1256 C 0.77224 0.73098 0.47819 0.0
C1257 C 0.75292 0.7357 0.53028 0.0
C1258 C 0.76258 0.73238 0.51305 0.0
H1259 H 0.76002 0.78235 0.42821 0.0
H1260 H 0.76681 0.77857 0.45873 0.0
H1261 H 0.74971 0.69235 0.47798 0.0
H1262 H 0.75643 0.70291 0.56872 0.0
H1263 H 0.77567 0.69868 0.54072 0.0
C1264 C 0.59871 0.28292 0.13394 0.0
C1265 C 0.60614 0.29468 0.11869 0.0
C1266 C 0.57082 0.27629 0.13583 0.0
C1267 C 0.49884 0.29611 0.11791 0.0
H1268 H 0.47749 0.2336 0.14478 0.0
C1269 C 0.38299 0.27282 0.12311 0.0
C1270 C 0.37487 0.26926 0.13972 0.0
C1271 C 0.41142 0.27222 0.11996 0.0
C1272 C 0.48321 0.25117 0.13729 0.0
H1273 H 0.59077 0.30767 0.09325 0.0
H1274 H 0.5424 0.29528 0.09628 0.0
H1275 H 0.52712 0.23898 0.14005 0.0
H1276 H 0.39022 0.26088 0.1659 0.0
H1277 H 0.43999 0.25986 0.16035 0.0
H1278 H 0.45508 0.30832 0.11515 0.0
C1279 C 0.55777 0.29184 0.10698 0.0
C1280 C 0.5116 0.25432 0.13461 0.0
C1281 C 0.5855 0.29878 0.10519 0.0
C1282 C 0.39579 0.26381 0.15298 0.0
C1283 C 0.42428 0.26308 0.1498 0.0
C1284 C 0.47056 0.29283 0.12047 0.0
C1285 C 0.5499 0.28117 0.12246 0.0
C1286 C 0.51975 0.2769 0.12492 0.0
C1287 C 0.43236 0.26792 0.13332 0.0
C1288 C 0.46243 0.27041 0.13021 0.0
H1289 H 0.61411 0.28009 0.14468 0.0
H1290 H 0.56547 0.26847 0.14801 0.0
H1291 H 0.50432 0.31416 0.11076 0.0
H1292 H 0.36742 0.27681 0.11256 0.0
H1293 H 0.41704 0.27561 0.10709 0.0
C1294 C 0.71191 0.3785 0.64197 0.0
C1295 C 0.70278 0.36088 0.62856 0.0
C1296 C 0.71214 0.4075 0.63952 0.0
C1297 C 0.6775 0.46284 0.61204 0.0
H1298 H 0.73628 0.50933 0.63158 0.0
C1299 C 0.67546 0.58 0.59719 0.0
C1300 C 0.68075 0.59811 0.61097 0.0
C1301 C 0.68156 0.55127 0.59891 0.0
C1302 C 0.71963 0.49661 0.62615 0.0
H1303 H 0.688 0.35974 0.60185 0.0
H1304 H 0.68865 0.41012 0.59758 0.0
H1305 H 0.74068 0.45841 0.63543 0.0
H1306 H 0.69672 0.60039 0.63739 0.0
H1307 H 0.70737 0.55007 0.64045 0.0
H1308 H 0.65621 0.50076 0.60295 0.0
C1309 C 0.6951 0.40165 0.61007 0.0
C1310 C 0.72214 0.46749 0.62835 0.0
C1311 C 0.69483 0.37274 0.61252 0.0
C1312 C 0.69304 0.58705 0.62642 0.0
C1313 C 0.69904 0.55819 0.62819 0.0
C1314 C 0.67499 0.49182 0.60985 0.0
C1315 C 0.70326 0.41942 0.62361 0.0
C1316 C 0.70111 0.4503 0.62126 0.0
C1317 C 0.69276 0.53993 0.61454 0.0
C1318 C 0.69604 0.50906 0.61682 0.0
H1319 H 0.71823 0.36999 0.65447 0.0
H1320 H 0.71836 0.42066 0.65023 0.0
H1321 H 0.66061 0.45028 0.60675 0.0
H1322 H 0.66612 0.588 0.58511 0.0
H1323 H 0.67699 0.53786 0.58806 0.0
C1324 C 0.65429 0.74261 0.14704 0.0
C1325 C 0.6696 0.73205 0.1337 0.0
C1326 C 0.62489 0.74253 0.14582 0.0
C1327 C 0.56717 0.70539 0.12328 0.0
H1328 H 0.51924 0.76382 0.14172 0.0
C1329 C 0.44752 0.70303 0.11334 0.0
C1330 C 0.43239 0.70723 0.1278 0.0
C1331 C 0.47581 0.70928 0.11368 0.0
C1332 C 0.53243 0.7473 0.13662 0.0
H1333 H 0.6661 0.71462 0.10824 0.0
H1334 H 0.6149 0.71504 0.10597 0.0
H1335 H 0.57017 0.76922 0.14265 0.0
H1336 H 0.43504 0.72147 0.15397 0.0
H1337 H 0.48467 0.73268 0.15452 0.0
H1338 H 0.52965 0.68345 0.11727 0.0
C1339 C 0.62557 0.72266 0.11757 0.0
C1340 C 0.56155 0.75036 0.13716 0.0
C1341 C 0.65492 0.72255 0.11884 0.0
C1342 C 0.44593 0.71862 0.1425 0.0
C1343 C 0.47438 0.72492 0.14284 0.0
C1344 C 0.53818 0.70243 0.12267 0.0
C1345 C 0.61023 0.73205 0.1312 0.0
C1346 C 0.57923 0.72943 0.13045 0.0
C1347 C 0.48971 0.71972 0.12853 0.0
C1348 C 0.52048 0.72335 0.12928 0.0
H1349 H 0.66502 0.75007 0.15866 0.0
H1350 H 0.61374 0.7497 0.15659 0.0
H1351 H 0.5802 0.68854 0.1184 0.0
H1352 H 0.43757 0.69447 0.10177 0.0
H1353 H 0.48696 0.7055 0.10236 0.0
C1354 C 0.23224 0.40054 0.59953 0.0
C1355 C 0.24265 0.38204 0.61259 0.0
C1356 C 0.23096 0.42947 0.60235 0.0
C1357 C 0.26477 0.48206 0.63007 0.0
H1358 H 0.2051 0.53262 0.61051 0.0
C1359 C 0.26585 0.59964 0.64353 0.0
C1360 C 0.26072 0.61743 0.62937 0.0
C1361 C 0.25974 0.57139 0.64233 0.0
C1362 C 0.22195 0.51873 0.61598 0.0
H1363 H 0.25841 0.37922 0.63911 0.0
H1364 H 0.25579 0.42952 0.64407 0.0
H1365 H 0.2014 0.48197 0.60691 0.0
H1366 H 0.2451 0.61959 0.60284 0.0
H1367 H 0.23435 0.57016 0.60073 0.0
H1368 H 0.28555 0.51857 0.63893 0.0
C1369 C 0.24925 0.42178 0.63154 0.0
C1370 C 0.21986 0.48977 0.61391 0.0
C1371 C 0.25066 0.39294 0.62871 0.0
C1372 C 0.2486 0.6066 0.61409 0.0
C1373 C 0.24254 0.57824 0.61287 0.0
C1374 C 0.26683 0.51089 0.63216 0.0
C1375 C 0.23996 0.44042 0.6183 0.0
C1376 C 0.24131 0.47113 0.62091 0.0
C1377 C 0.24864 0.56022 0.62688 0.0
C1378 C 0.24551 0.52957 0.62511 0.0
H1379 H 0.22586 0.39277 0.58698 0.0
H1380 H 0.2239 0.44328 0.59185 0.0
H1381 H 0.28197 0.46836 0.6353 0.0
H1382 H 0.27508 0.60749 0.65548 0.0
H1383 H 0.26424 0.55815 0.65343 0.0
C1384 C 0.60688 0.72825 0.86704 0.0
C1385 C 0.62075 0.72976 0.88337 0.0
C1386 C 0.5775 0.72965 0.8649 0.0
C1387 C 0.51296 0.75033 0.88586 0.0
H1388 H 0.47935 0.69341 0.85677 0.0
C1389 C 0.39582 0.72292 0.88608 0.0
C1390 C 0.38188 0.71496 0.87062 0.0
C1391 C 0.42458 0.72799 0.88701 0.0
C1392 C 0.48828 0.70979 0.8647 0.0
H1393 H 0.61462 0.73498 0.9102 0.0
H1394 H 0.56331 0.73733 0.90644 0.0
H1395 H 0.53019 0.69677 0.85939 0.0
H1396 H 0.38674 0.70679 0.84395 0.0
H1397 H 0.43667 0.7163 0.84544 0.0
H1398 H 0.47095 0.76324 0.89123 0.0
C1399 C 0.57519 0.73518 0.8953 0.0
C1400 C 0.51749 0.71167 0.86622 0.0
C1401 C 0.60459 0.73366 0.89745 0.0
C1402 C 0.39702 0.71283 0.85605 0.0
C1403 C 0.42565 0.71812 0.85694 0.0
C1404 C 0.48366 0.74856 0.88426 0.0
C1405 C 0.56133 0.73271 0.87903 0.0
C1406 C 0.53018 0.73183 0.87689 0.0
C1407 C 0.43994 0.72522 0.8725 0.0
C1408 C 0.47098 0.72814 0.87373 0.0
H1409 H 0.61868 0.72544 0.8559 0.0
H1410 H 0.5674 0.72807 0.85218 0.0
H1411 H 0.52214 0.76626 0.89405 0.0
H1412 H 0.38487 0.724 0.89761 0.0
H1413 H 0.43498 0.73298 0.89926 0.0
C1414 C 0.29321 0.38175 0.38188 0.0
C1415 C 0.28892 0.37058 0.36544 0.0
C1416 C 0.29265 0.41069 0.38435 0.0
C1417 C 0.27204 0.47927 0.36419 0.0
H1418 H 0.33507 0.5047 0.39326 0.0
C1419 C 0.30799 0.5938 0.36551 0.0
C1420 C 0.31804 0.60451 0.3813 0.0
C1421 C 0.3007 0.56579 0.36405 0.0
C1422 C 0.31706 0.49801 0.38533 0.0
H1423 H 0.27921 0.381 0.33881 0.0
H1424 H 0.27857 0.43162 0.34313 0.0
H1425 H 0.32841 0.45483 0.39004 0.0
H1426 H 0.32747 0.59479 0.40801 0.0
H1427 H 0.31437 0.54617 0.40555 0.0
H1428 H 0.26102 0.52269 0.35933 0.0
C1429 C 0.28219 0.41796 0.3541 0.0
C1430 C 0.31324 0.46938 0.38348 0.0
C1431 C 0.28271 0.38896 0.35162 0.0
C1432 C 0.31996 0.587 0.39566 0.0
C1433 C 0.31254 0.55915 0.39423 0.0
C1434 C 0.27585 0.50803 0.36607 0.0
C1435 C 0.28783 0.42911 0.37045 0.0
C1436 C 0.29076 0.45966 0.37287 0.0
C1437 C 0.30339 0.54805 0.37836 0.0
C1438 C 0.29846 0.51768 0.37664 0.0
H1439 H 0.2977 0.36817 0.39283 0.0
H1440 H 0.29656 0.41868 0.39714 0.0
H1441 H 0.25441 0.47237 0.35601 0.0
H1442 H 0.30692 0.60663 0.35416 0.0
H1443 H 0.29408 0.55777 0.3516 0.0
C1444 C 0.3542 0.25406 0.87074 0.0
C1445 C 0.34119 0.27223 0.88205 0.0
C1446 C 0.38331 0.25422 0.86943 0.0
C1447 C 0.44455 0.29886 0.88047 0.0
H1448 H 0.48766 0.23281 0.86705 0.0
C1449 C 0.5661 0.2917 0.88147 0.0
C1450 C 0.5754 0.28856 0.86508 0.0
C1451 C 0.53808 0.28722 0.88436 0.0
C1452 C 0.47577 0.25133 0.87084 0.0
H1453 H 0.34829 0.30377 0.90146 0.0
H1454 H 0.39904 0.3029 0.90003 0.0
H1455 H 0.43761 0.22953 0.87122 0.0
H1456 H 0.56327 0.27773 0.83896 0.0
H1457 H 0.51429 0.26888 0.84418 0.0
H1458 H 0.48317 0.32024 0.88062 0.0
C1459 C 0.38693 0.28945 0.89151 0.0
C1460 C 0.44706 0.2496 0.8731 0.0
C1461 C 0.35781 0.2898 0.89247 0.0
C1462 C 0.55653 0.28009 0.85172 0.0
C1463 C 0.52867 0.27496 0.8547 0.0
C1464 C 0.47332 0.30036 0.87861 0.0
C1465 C 0.4001 0.27211 0.87971 0.0
C1466 C 0.43095 0.27343 0.87783 0.0
C1467 C 0.51916 0.279 0.87097 0.0
C1468 C 0.48907 0.2767 0.87367 0.0
H1469 H 0.34176 0.24046 0.86247 0.0
H1470 H 0.39242 0.24087 0.86 0.0
H1471 H 0.43295 0.3179 0.88365 0.0
H1472 H 0.58018 0.29871 0.89189 0.0
H1473 H 0.53105 0.2906 0.89698 0.0
C1474 C 0.74761 0.38177 0.39734 0.0
C1475 C 0.74375 0.36362 0.38339 0.0
C1476 C 0.75049 0.41044 0.39481 0.0
C1477 C 0.73189 0.4657 0.36313 0.0
H1478 H 0.78375 0.50956 0.39127 0.0
C1479 C 0.74024 0.58323 0.35098 0.0
C1480 C 0.74099 0.60073 0.3653 0.0
C1481 C 0.74441 0.55425 0.35282 0.0
C1482 C 0.76903 0.49762 0.38339 0.0
H1483 H 0.74082 0.36122 0.35583 0.0
H1484 H 0.74593 0.41119 0.35144 0.0
H1485 H 0.78386 0.45877 0.39518 0.0
H1486 H 0.74662 0.60162 0.39283 0.0
H1487 H 0.75381 0.55096 0.39609 0.0
H1488 H 0.71658 0.50436 0.35157 0.0
C1489 C 0.74636 0.40331 0.36434 0.0
C1490 C 0.76911 0.46855 0.38562 0.0
C1491 C 0.74354 0.37465 0.36686 0.0
C1492 C 0.74668 0.58875 0.38152 0.0
C1493 C 0.75069 0.55968 0.38339 0.0
C1494 C 0.73176 0.49469 0.36093 0.0
C1495 C 0.74951 0.42158 0.37828 0.0
C1496 C 0.75044 0.45229 0.37556 0.0
C1497 C 0.74903 0.54205 0.36906 0.0
C1498 C 0.75024 0.51104 0.37106 0.0
H1499 H 0.74793 0.37394 0.41024 0.0
H1500 H 0.75262 0.42401 0.40581 0.0
H1501 H 0.71687 0.45387 0.35539 0.0
H1502 H 0.73595 0.59193 0.33832 0.0
H1503 H 0.74351 0.54134 0.3415 0.0
C1504 C 0.28035 0.2203 0.31607 0.0
C1505 C 0.28415 0.24598 0.32455 0.0
C1506 C 0.27345 0.21976 0.29849 0.0
C1507 C 0.28544 0.25986 0.26111 0.0
H1508 H 0.22623 0.2189 0.23709 0.0
C1509 C 0.27964 0.2509 0.189 0.0
C1510 C 0.25388 0.26055 0.18071 0.0
C1511 C 0.28158 0.24462 0.20631 0.0
C1512 C 0.24285 0.23034 0.24369 0.0
H1513 H 0.28223 0.29121 0.32128 0.0
H1514 H 0.27061 0.29011 0.29077 0.0
H1515 H 0.23177 0.21759 0.26838 0.0
H1516 H 0.20947 0.26904 0.18388 0.0
H1517 H 0.21299 0.25795 0.21428 0.0
H1518 H 0.29667 0.27268 0.23669 0.0
C1519 C 0.27307 0.27047 0.2977 0.0
C1520 C 0.24608 0.2295 0.2615 0.0
C1521 C 0.27966 0.27105 0.31521 0.0
C1522 C 0.22967 0.26184 0.1899 0.0
C1523 C 0.23163 0.25539 0.20728 0.0
C1524 C 0.2825 0.26036 0.24342 0.0
C1525 C 0.27055 0.24484 0.28913 0.0
C1526 C 0.26722 0.24456 0.27033 0.0
C1527 C 0.25781 0.24767 0.21573 0.0
C1528 C 0.26113 0.24575 0.23451 0.0
H1529 H 0.28349 0.20062 0.32291 0.0
H1530 H 0.27165 0.19973 0.29212 0.0
H1531 H 0.30208 0.27143 0.26762 0.0
H1532 H 0.29865 0.24927 0.1823 0.0
H1533 H 0.30194 0.23829 0.21248 0.0
C1534 C 0.73772 0.27494 0.80105 0.0
C1535 C 0.72786 0.25584 0.81244 0.0
C1536 C 0.73821 0.26834 0.78383 0.0
C1537 C 0.70496 0.2236 0.75079 0.0
H1538 H 0.7648 0.24908 0.7247 0.0
C1539 C 0.70376 0.20876 0.67795 0.0
C1540 C 0.70795 0.23352 0.66901 0.0
C1541 C 0.70969 0.20735 0.69558 0.0
C1542 C 0.74796 0.24182 0.73183 0.0
H1543 H 0.71094 0.21494 0.81508 0.0
H1544 H 0.71193 0.20308 0.78483 0.0
H1545 H 0.76848 0.254 0.75557 0.0
H1546 H 0.72297 0.27569 0.67148 0.0
H1547 H 0.7334 0.27314 0.70211 0.0
H1548 H 0.68424 0.21188 0.72696 0.0
C1549 C 0.7191 0.22326 0.78916 0.0
C1550 C 0.75001 0.2447 0.74949 0.0
C1551 C 0.71859 0.22994 0.80643 0.0
C1552 C 0.71936 0.25635 0.67796 0.0
C1553 C 0.72553 0.25483 0.69553 0.0
C1554 C 0.70298 0.22058 0.7331 0.0
C1555 C 0.72884 0.24246 0.77765 0.0
C1556 C 0.7282 0.23629 0.75915 0.0
C1557 C 0.72027 0.23053 0.70457 0.0
C1558 C 0.72415 0.23029 0.72341 0.0
H1559 H 0.74461 0.2952 0.80544 0.0
H1560 H 0.74527 0.28387 0.7753 0.0
H1561 H 0.68766 0.21715 0.7578 0.0
H1562 H 0.69502 0.19078 0.67142 0.0
H1563 H 0.70566 0.18826 0.70222 0.0
C1564 C 0.77428 0.74532 0.18245 0.0
C1565 C 0.7977 0.73301 0.17502 0.0
C1566 C 0.77577 0.75174 0.19975 0.0
C1567 C 0.81154 0.72811 0.23981 0.0
H1568 H 0.77592 0.79521 0.25782 0.0
C1569 C 0.80245 0.74311 0.31197 0.0
C1570 C 0.77634 0.75402 0.31658 0.0
C1571 C 0.80897 0.74372 0.29497 0.0
C1572 C 0.78582 0.77628 0.253 0.0
H1573 H 0.84144 0.71876 0.17984 0.0
H1574 H 0.84387 0.72975 0.21021 0.0
H1575 H 0.78048 0.79115 0.22729 0.0
H1576 H 0.73648 0.77392 0.30739 0.0
H1577 H 0.74745 0.77463 0.27768 0.0
H1578 H 0.81582 0.71264 0.26535 0.0
C1579 C 0.82438 0.73435 0.20257 0.0
C1580 C 0.78852 0.77403 0.23553 0.0
C1581 C 0.823 0.7282 0.18518 0.0
C1582 C 0.7569 0.76573 0.30407 0.0
C1583 C 0.7633 0.76625 0.2871 0.0
C1584 C 0.80865 0.73025 0.25728 0.0
C1585 C 0.80063 0.74578 0.21006 0.0
C1586 C 0.80091 0.7497 0.22873 0.0
C1587 C 0.78935 0.75509 0.2823 0.0
C1588 C 0.79522 0.75412 0.26404 0.0
H1589 H 0.75454 0.74944 0.17499 0.0
H1590 H 0.75705 0.76031 0.2052 0.0
H1591 H 0.82089 0.70897 0.2349 0.0
H1592 H 0.81768 0.73397 0.3215 0.0
H1593 H 0.82931 0.7352 0.29175 0.0
C1594 C 0.20257 0.769 0.81368 0.0
C1595 C 0.2197 0.74625 0.82016 0.0
C1596 C 0.19798 0.77306 0.79609 0.0
C1597 C 0.20226 0.73577 0.7551 0.0
H1598 H 0.21144 0.80958 0.73642 0.0
C1599 C 0.19908 0.75341 0.68284 0.0
C1600 C 0.2213 0.76871 0.67755 0.0
C1601 C 0.19327 0.75328 0.69995 0.0
C1602 C 0.20874 0.78886 0.74145 0.0
H1603 H 0.24463 0.70938 0.81358 0.0
H1604 H 0.23713 0.71663 0.78299 0.0
H1605 H 0.21224 0.80342 0.7672 0.0
H1606 H 0.25439 0.79646 0.68565 0.0
H1607 H 0.24447 0.79622 0.71554 0.0
H1608 H 0.20013 0.72089 0.72949 0.0
C1609 C 0.22708 0.7313 0.79136 0.0
C1610 C 0.20891 0.78539 0.75907 0.0
C1611 C 0.23171 0.72735 0.80887 0.0
C1612 C 0.23695 0.78473 0.68945 0.0
C1613 C 0.23117 0.78464 0.70654 0.0
C1614 C 0.20207 0.73923 0.73752 0.0
C1615 C 0.21022 0.75422 0.78475 0.0
C1616 C 0.20641 0.75866 0.76608 0.0
C1617 C 0.20963 0.76848 0.71205 0.0
C1618 C 0.20599 0.76569 0.73051 0.0
H1619 H 0.19299 0.78373 0.82222 0.0
H1620 H 0.18474 0.7908 0.79137 0.0
H1621 H 0.19984 0.71498 0.76012 0.0
H1622 H 0.18668 0.74104 0.67379 0.0
H1623 H 0.17631 0.7409 0.70376 0.0
C1624 C 0.71627 0.71915 0.8027 0.0
C1625 C 0.72953 0.74118 0.81135 0.0
C1626 C 0.71427 0.7183 0.78498 0.0
C1627 C 0.74565 0.74688 0.74735 0.0
H1628 H 0.67835 0.71934 0.72342 0.0
C1629 C 0.71737 0.7593 0.67493 0.0
C1630 C 0.70554 0.73637 0.66626 0.0
C1631 C 0.72308 0.75848 0.69256 0.0
C1632 C 0.69742 0.72673 0.72994 0.0
H1633 H 0.75102 0.77964 0.80858 0.0
H1634 H 0.74678 0.77883 0.7774 0.0
H1635 H 0.6814 0.72217 0.75431 0.0
H1636 H 0.69177 0.69405 0.66922 0.0
H1637 H 0.70158 0.69277 0.70006 0.0
H1638 H 0.76119 0.75215 0.72278 0.0
C1639 C 0.73838 0.76187 0.78427 0.0
C1640 C 0.69921 0.72837 0.74766 0.0
C1641 C 0.74058 0.76255 0.80206 0.0
C1642 C 0.70079 0.7121 0.67551 0.0
C1643 C 0.70623 0.71141 0.69317 0.0
C1644 C 0.74372 0.74551 0.72959 0.0
C1645 C 0.72533 0.73962 0.77551 0.0
C1646 C 0.72336 0.73839 0.75661 0.0
C1647 C 0.71686 0.73482 0.70189 0.0
C1648 C 0.71961 0.73535 0.72073 0.0
H1649 H 0.70805 0.7022 0.8097 0.0
H1650 H 0.70459 0.70057 0.77872 0.0
H1651 H 0.76475 0.75427 0.75383 0.0
H1652 H 0.72144 0.77827 0.66817 0.0
H1653 H 0.73118 0.77686 0.69896 0.0
C1654 C 0.26801 0.73849 0.18987 0.0
C1655 C 0.29297 0.73247 0.18186 0.0
C1656 C 0.26888 0.74375 0.20731 0.0
C1657 C 0.31339 0.72683 0.24615 0.0
H1658 H 0.26215 0.77905 0.26733 0.0
C1659 C 0.29624 0.77244 0.31713 0.0
C1660 C 0.29999 0.7473 0.32647 0.0
C1661 C 0.29353 0.77201 0.29937 0.0
C1662 C 0.27668 0.76447 0.2616 0.0
H1663 H 0.33855 0.72914 0.18574 0.0
H1664 H 0.34004 0.73866 0.21618 0.0
H1665 H 0.26301 0.77841 0.23639 0.0
H1666 H 0.30214 0.70192 0.32445 0.0
H1667 H 0.29702 0.70121 0.29348 0.0
H1668 H 0.32734 0.71311 0.27128 0.0
C1669 C 0.31977 0.73872 0.20899 0.0
C1670 C 0.27705 0.76398 0.24388 0.0
C1671 C 0.31891 0.73345 0.19152 0.0
C1672 C 0.29954 0.72169 0.31766 0.0
C1673 C 0.29681 0.72127 0.29991 0.0
C1674 C 0.31299 0.7273 0.26381 0.0
C1675 C 0.29472 0.74316 0.21715 0.0
C1676 C 0.29535 0.74507 0.23596 0.0
C1677 C 0.29448 0.74643 0.29056 0.0
C1678 C 0.29453 0.74599 0.27174 0.0
H1679 H 0.24765 0.73806 0.18281 0.0
H1680 H 0.2492 0.74694 0.21321 0.0
H1681 H 0.32745 0.71173 0.24045 0.0
H1682 H 0.29646 0.79256 0.32348 0.0
H1683 H 0.2919 0.79175 0.29254 0.0
C1684 C 0.25131 0.24603 0.69023 0.0
C1685 C 0.23363 0.26207 0.67858 0.0
C1686 C 0.24661 0.24618 0.70747 0.0
C1687 C 0.21521 0.28949 0.73992 0.0
H1688 H 0.22363 0.22112 0.76669 0.0
C1689 C 0.19877 0.28945 0.81151 0.0
C1690 C 0.2184 0.27337 0.82199 0.0
C1691 C 0.1979 0.28671 0.79386 0.0
C1692 C 0.22144 0.24042 0.75942 0.0
H1693 H 0.19711 0.29067 0.67564 0.0
H1694 H 0.18892 0.29123 0.70599 0.0
H1695 H 0.2267 0.21887 0.73596 0.0
H1696 H 0.25234 0.24172 0.82238 0.0
H1697 H 0.25137 0.2373 0.79145 0.0
H1698 H 0.21064 0.31116 0.76335 0.0
C1699 C 0.20644 0.27856 0.70176 0.0
C1700 C 0.22312 0.23912 0.74182 0.0
C1701 C 0.21107 0.27825 0.68444 0.0
C1702 C 0.23701 0.25433 0.81453 0.0
C1703 C 0.23624 0.25165 0.79685 0.0
C1704 C 0.21364 0.29081 0.75752 0.0
C1705 C 0.22424 0.26257 0.71345 0.0
C1706 C 0.22034 0.26368 0.73192 0.0
C1707 C 0.21682 0.268 0.7863 0.0
C1708 C 0.21702 0.26633 0.7675 0.0
H1709 H 0.26917 0.23378 0.68605 0.0
H1710 H 0.26099 0.23405 0.71619 0.0
H1711 H 0.21337 0.30881 0.73265 0.0
H1712 H 0.18452 0.30469 0.81692 0.0
H1713 H 0.1825 0.29941 0.78613 0.0
C1714 C 0.73323 0.23564 0.30303 0.0
C1715 C 0.75652 0.24257 0.31388 0.0
C1716 C 0.73441 0.23693 0.28542 0.0
C1717 C 0.77435 0.26869 0.25231 0.0
H1718 H 0.73323 0.21707 0.2228 0.0
C1719 C 0.78123 0.26753 0.17972 0.0
C1720 C 0.75516 0.26962 0.17007 0.0
C1721 C 0.78249 0.26167 0.1971 0.0
C1722 C 0.74473 0.23164 0.23092 0.0
H1723 H 0.79935 0.25587 0.3152 0.0
H1724 H 0.80202 0.25725 0.28432 0.0
H1725 H 0.73438 0.21129 0.2536 0.0
H1726 H 0.7101 0.26595 0.17099 0.0
H1727 H 0.71245 0.25522 0.20141 0.0
H1728 H 0.78501 0.2887 0.22952 0.0
C1729 C 0.78254 0.25145 0.28931 0.0
C1730 C 0.74532 0.22846 0.24856 0.0
C1731 C 0.78118 0.25049 0.30696 0.0
C1732 C 0.73048 0.26459 0.17808 0.0
C1733 C 0.73182 0.25834 0.19545 0.0
C1734 C 0.77408 0.2716 0.23468 0.0
C1735 C 0.75907 0.24489 0.2783 0.0
C1736 C 0.75985 0.24716 0.2595 0.0
C1737 C 0.75779 0.25738 0.20517 0.0
C1738 C 0.75904 0.2533 0.22383 0.0
H1739 H 0.71389 0.22976 0.30819 0.0
H1740 H 0.71572 0.23231 0.27743 0.0
H1741 H 0.78532 0.28383 0.26026 0.0
H1742 H 0.80066 0.27126 0.17398 0.0
H1743 H 0.8028 0.26077 0.20429 0.0
loop_
_geom_bond_atom_site_label_1
_geom_bond_atom_site_label_2
_geom_bond_distance
_geom_bond_site_symmetry_2
_ccdc_geom_bond_type
Co0 O3 1.970 . S
Co0 N17 1.989 . S
Co0 O25 1.967 . S
Co0 O32 1.920 . S
Co1 O4 1.966 . S
Co1 N10 2.022 . S
Co1 N18 1.993 . S
Co1 O26 1.941 . S
C2 O3 1.258 . S
C2 O4 1.263 . S
O3 Co0 1.970 . S
O3 C2 1.258 . S
O4 Co1 1.966 . S
O4 C2 1.263 . S
C5 O6 1.235 . S
C5 O32 1.289 . S
O6 C5 1.235 . S
C7 C9 1.400 . S
C7 N10 1.351 . S
C7 C12 1.501 . S
C8 C9 1.387 . S
C8 N11 1.341 . S
C9 C7 1.400 . S
C9 C8 1.387 . S
N10 Co1 2.022 . S
N10 C7 1.351 . S
N10 N11 1.365 . S
N11 C8 1.341 . S
N11 N10 1.365 . S
N11 H31 0.862 . S
C12 C7 1.501 . S
C12 H13 0.961 . S
C12 H14 0.961 . S
C12 H15 0.960 . S
H13 C12 0.961 . S
H14 C12 0.961 . S
H15 C12 0.960 . S
C16 N17 1.342 . S
C16 C20 1.401 . S
C16 C21 1.499 . S
N17 Co0 1.989 . S
N17 C16 1.342 . S
N17 N18 1.388 . S
N18 Co1 1.993 . S
N18 N17 1.388 . S
N18 C19 1.346 . S
C19 N18 1.346 . S
C19 C20 1.396 . S
C19 C29 1.510 . S
C20 C16 1.401 . S
C20 C19 1.396 . S
C21 C16 1.499 . S
C21 H22 0.959 . S
C21 H23 0.960 . S
C21 H24 0.961 . S
H22 C21 0.959 . S
H23 C21 0.960 . S
H24 C21 0.961 . S
O25 Co0 1.967 . S
O25 C33 1.258 . S
O26 Co1 1.941 . S
O26 C33 1.266 . S
H27 C29 0.959 . S
H28 C29 0.961 . S
C29 C19 1.510 . S
C29 H27 0.959 . S
C29 H28 0.961 . S
C29 H30 0.960 . S
H30 C29 0.960 . S
H31 N11 0.862 . S
O32 Co0 1.920 . S
O32 C5 1.289 . S
C33 O25 1.258 . S
C33 O26 1.266 . S
Co34 O37 1.970 . S
Co34 N51 1.989 . S
Co34 O59 1.967 . S
Co34 O66 1.920 . S
Co35 O38 1.966 . S
Co35 N44 2.022 . S
Co35 N52 1.993 . S
Co35 O60 1.941 . S
C36 O37 1.258 . S
C36 O38 1.263 . S
O37 Co34 1.970 . S
O37 C36 1.258 . S
O38 Co35 1.966 . S
O38 C36 1.263 . S
C39 O40 1.235 . S
C39 O66 1.289 . S
O40 C39 1.235 . S
C41 C43 1.400 . S
C41 N44 1.351 . S
C41 C46 1.501 . S
C42 C43 1.387 . S
C42 N45 1.341 . S
C43 C41 1.400 . S
C43 C42 1.387 . S
N44 Co35 2.022 . S
N44 C41 1.351 . S
N44 N45 1.365 . S
N45 C42 1.341 . S
N45 N44 1.365 . S
N45 H65 0.862 . S
C46 C41 1.501 . S
C46 H47 0.961 . S
C46 H48 0.961 . S
C46 H49 0.960 . S
H47 C46 0.961 . S
H48 C46 0.961 . S
H49 C46 0.960 . S
C50 N51 1.342 . S
C50 C54 1.401 . S
C50 C55 1.499 . S
N51 Co34 1.989 . S
N51 C50 1.342 . S
N51 N52 1.388 . S
N52 Co35 1.993 . S
N52 N51 1.388 . S
N52 C53 1.346 . S
C53 N52 1.346 . S
C53 C54 1.396 . S
C53 C63 1.510 . S
C54 C50 1.401 . S
C54 C53 1.396 . S
C55 C50 1.499 . S
C55 H56 0.959 . S
C55 H57 0.960 . S
C55 H58 0.961 . S
H56 C55 0.959 . S
H57 C55 0.960 . S
H58 C55 0.961 . S
O59 Co34 1.967 . S
O59 C67 1.258 . S
O60 Co35 1.941 . S
O60 C67 1.266 . S
H61 C63 0.959 . S
H62 C63 0.961 . S
C63 C53 1.510 . S
C63 H61 0.959 . S
C63 H62 0.961 . S
C63 H64 0.960 . S
H64 C63 0.960 . S
H65 N45 0.862 . S
O66 Co34 1.920 . S
O66 C39 1.289 . S
C67 O59 1.258 . S
C67 O60 1.266 . S
Co68 O71 1.970 . S
Co68 N85 1.989 . S
Co68 O93 1.967 . S
Co68 O100 1.920 . S
Co69 O72 1.966 . S
Co69 N78 2.022 . S
Co69 N86 1.993 . S
Co69 O94 1.941 . S
C70 O71 1.258 . S
C70 O72 1.263 . S
O71 Co68 1.970 . S
O71 C70 1.258 . S
O72 Co69 1.966 . S
O72 C70 1.263 . S
C73 O74 1.235 . S
C73 O100 1.289 . S
O74 C73 1.235 . S
C75 C77 1.400 . S
C75 N78 1.351 . S
C75 C80 1.501 . S
C76 C77 1.387 . S
C76 N79 1.341 . S
C77 C75 1.400 . S
C77 C76 1.387 . S
N78 Co69 2.022 . S
N78 C75 1.351 . S
N78 N79 1.365 . S
N79 C76 1.341 . S
N79 N78 1.365 . S
N79 H99 0.862 . S
C80 C75 1.501 . S
C80 H81 0.961 . S
C80 H82 0.961 . S
C80 H83 0.960 . S
H81 C80 0.961 . S
H82 C80 0.961 . S
H83 C80 0.960 . S
C84 N85 1.342 . S
C84 C88 1.401 . S
C84 C89 1.499 . S
N85 Co68 1.989 . S
N85 C84 1.342 . S
N85 N86 1.388 . S
N86 Co69 1.993 . S
N86 N85 1.388 . S
N86 C87 1.346 . S
C87 N86 1.346 . S
C87 C88 1.396 . S
C87 C97 1.510 . S
C88 C84 1.401 . S
C88 C87 1.396 . S
C89 C84 1.499 . S
C89 H90 0.959 . S
C89 H91 0.960 . S
C89 H92 0.961 . S
H90 C89 0.959 . S
H91 C89 0.960 . S
H92 C89 0.961 . S
O93 Co68 1.967 . S
O93 C101 1.258 . S
O94 Co69 1.941 . S
O94 C101 1.266 . S
H95 C97 0.959 . S
H96 C97 0.961 . S
C97 C87 1.510 . S
C97 H95 0.959 . S
C97 H96 0.961 . S
C97 H98 0.960 . S
H98 C97 0.960 . S
H99 N79 0.862 . S
O100 Co68 1.920 . S
O100 C73 1.289 . S
C101 O93 1.258 . S
C101 O94 1.266 . S
Co102 O105 1.970 . S
Co102 N119 1.989 . S
Co102 O127 1.967 . S
Co102 O134 1.920 . S
Co103 O106 1.966 . S
Co103 N112 2.022 . S
Co103 N120 1.993 . S
Co103 O128 1.941 . S
C104 O105 1.258 . S
C104 O106 1.263 . S
O105 Co102 1.970 . S
O105 C104 1.258 . S
O106 Co103 1.966 . S
O106 C104 1.263 . S
C107 O108 1.235 . S
C107 O134 1.289 . S
O108 C107 1.235 . S
C109 C111 1.400 . S
C109 N112 1.351 . S
C109 C114 1.501 . S
C110 C111 1.387 . S
C110 N113 1.341 . S
C111 C109 1.400 . S
C111 C110 1.387 . S
N112 Co103 2.022 . S
N112 C109 1.351 . S
N112 N113 1.365 . S
N113 C110 1.341 . S
N113 N112 1.365 . S
N113 H133 0.862 . S
C114 C109 1.501 . S
C114 H115 0.961 . S
C114 H116 0.961 . S
C114 H117 0.960 . S
H115 C114 0.961 . S
H116 C114 0.961 . S
H117 C114 0.960 . S
C118 N119 1.342 . S
C118 C122 1.401 . S
C118 C123 1.499 . S
N119 Co102 1.989 . S
N119 C118 1.342 . S
N119 N120 1.388 . S
N120 Co103 1.993 . S
N120 N119 1.388 . S
N120 C121 1.346 . S
C121 N120 1.346 . S
C121 C122 1.396 . S
C121 C131 1.510 . S
C122 C118 1.401 . S
C122 C121 1.396 . S
C123 C118 1.499 . S
C123 H124 0.959 . S
C123 H125 0.960 . S
C123 H126 0.961 . S
H124 C123 0.959 . S
H125 C123 0.960 . S
H126 C123 0.961 . S
O127 Co102 1.967 . S
O127 C135 1.258 . S
O128 Co103 1.941 . S
O128 C135 1.266 . S
H129 C131 0.959 . S
H130 C131 0.961 . S
C131 C121 1.510 . S
C131 H129 0.959 . S
C131 H130 0.961 . S
C131 H132 0.960 . S
H132 C131 0.960 . S
H133 N113 0.862 . S
O134 Co102 1.920 . S
O134 C107 1.289 . S
C135 O127 1.258 . S
C135 O128 1.266 . S
Co136 O139 1.970 . S
Co136 N153 1.989 . S
Co136 O161 1.967 . S
Co136 O168 1.920 . S
Co137 O140 1.966 . S
Co137 N146 2.022 . S
Co137 N154 1.993 . S
Co137 O162 1.941 . S
C138 O139 1.258 . S
C138 O140 1.263 . S
O139 Co136 1.970 . S
O139 C138 1.258 . S
O140 Co137 1.966 . S
O140 C138 1.263 . S
C141 O142 1.235 . S
C141 O168 1.289 . S
O142 C141 1.235 . S
C143 C145 1.400 . S
C143 N146 1.351 . S
C143 C148 1.501 . S
C144 C145 1.387 . S
C144 N147 1.341 . S
C145 C143 1.400 . S
C145 C144 1.387 . S
N146 Co137 2.022 . S
N146 C143 1.351 . S
N146 N147 1.365 . S
N147 C144 1.341 . S
N147 N146 1.365 . S
N147 H167 0.862 . S
C148 C143 1.501 . S
C148 H149 0.961 . S
C148 H150 0.961 . S
C148 H151 0.960 . S
H149 C148 0.961 . S
H150 C148 0.961 . S
H151 C148 0.960 . S
C152 N153 1.342 . S
C152 C156 1.401 . S
C152 C157 1.499 . S
N153 Co136 1.989 . S
N153 C152 1.342 . S
N153 N154 1.388 . S
N154 Co137 1.993 . S
N154 N153 1.388 . S
N154 C155 1.346 . S
C155 N154 1.346 . S
C155 C156 1.396 . S
C155 C165 1.510 . S
C156 C152 1.401 . S
C156 C155 1.396 . S
C157 C152 1.499 . S
C157 H158 0.959 . S
C157 H159 0.960 . S
C157 H160 0.961 . S
H158 C157 0.959 . S
H159 C157 0.960 . S
H160 C157 0.961 . S
O161 Co136 1.967 . S
O161 C169 1.258 . S
O162 Co137 1.941 . S
O162 C169 1.266 . S
H163 C165 0.959 . S
H164 C165 0.961 . S
C165 C155 1.510 . S
C165 H163 0.959 . S
C165 H164 0.961 . S
C165 H166 0.960 . S
H166 C165 0.960 . S
H167 N147 0.862 . S
O168 Co136 1.920 . S
O168 C141 1.289 . S
C169 O161 1.258 . S
C169 O162 1.266 . S
Co170 O173 1.970 . S
Co170 N187 1.989 . S
Co170 O195 1.967 . S
Co170 O202 1.920 . S
Co171 O174 1.966 . S
Co171 N180 2.022 . S
Co171 N188 1.993 . S
Co171 O196 1.941 . S
C172 O173 1.258 . S
C172 O174 1.263 . S
O173 Co170 1.970 . S
O173 C172 1.258 . S
O174 Co171 1.966 . S
O174 C172 1.263 . S
C175 O176 1.235 . S
C175 O202 1.289 . S
O176 C175 1.235 . S
C177 C179 1.400 . S
C177 N180 1.351 . S
C177 C182 1.501 . S
C178 C179 1.387 . S
C178 N181 1.341 . S
C179 C177 1.400 . S
C179 C178 1.387 . S
N180 Co171 2.022 . S
N180 C177 1.351 . S
N180 N181 1.365 . S
N181 C178 1.341 . S
N181 N180 1.365 . S
N181 H201 0.862 . S
C182 C177 1.501 . S
C182 H183 0.961 . S
C182 H184 0.961 . S
C182 H185 0.960 . S
H183 C182 0.961 . S
H184 C182 0.961 . S
H185 C182 0.960 . S
C186 N187 1.342 . S
C186 C190 1.401 . S
C186 C191 1.499 . S
N187 Co170 1.989 . S
N187 C186 1.342 . S
N187 N188 1.388 . S
N188 Co171 1.993 . S
N188 N187 1.388 . S
N188 C189 1.346 . S
C189 N188 1.346 . S
C189 C190 1.396 . S
C189 C199 1.510 . S
C190 C186 1.401 . S
C190 C189 1.396 . S
C191 C186 1.499 . S
C191 H192 0.959 . S
C191 H193 0.960 . S
C191 H194 0.961 . S
H192 C191 0.959 . S
H193 C191 0.960 . S
H194 C191 0.961 . S
O195 Co170 1.967 . S
O195 C203 1.258 . S
O196 Co171 1.941 . S
O196 C203 1.266 . S
H197 C199 0.959 . S
H198 C199 0.961 . S
C199 C189 1.510 . S
C199 H197 0.959 . S
C199 H198 0.961 . S
C199 H200 0.960 . S
H200 C199 0.960 . S
H201 N181 0.862 . S
O202 Co170 1.920 . S
O202 C175 1.289 . S
C203 O195 1.258 . S
C203 O196 1.266 . S
Co204 O207 1.970 . S
Co204 N221 1.989 . S
Co204 O229 1.967 . S
Co204 O236 1.920 . S
Co205 O208 1.966 . S
Co205 N214 2.022 . S
Co205 N222 1.993 . S
Co205 O230 1.941 . S
C206 O207 1.258 . S
C206 O208 1.263 . S
O207 Co204 1.970 . S
O207 C206 1.258 . S
O208 Co205 1.966 . S
O208 C206 1.263 . S
C209 O210 1.235 . S
C209 O236 1.289 . S
O210 C209 1.235 . S
C211 C213 1.400 . S
C211 N214 1.351 . S
C211 C216 1.501 . S
C212 C213 1.387 . S
C212 N215 1.341 . S
C213 C211 1.400 . S
C213 C212 1.387 . S
N214 Co205 2.022 . S
N214 C211 1.351 . S
N214 N215 1.365 . S
N215 C212 1.341 . S
N215 N214 1.365 . S
N215 H235 0.862 . S
C216 C211 1.501 . S
C216 H217 0.961 . S
C216 H218 0.961 . S
C216 H219 0.960 . S
H217 C216 0.961 . S
H218 C216 0.961 . S
H219 C216 0.960 . S
C220 N221 1.342 . S
C220 C224 1.401 . S
C220 C225 1.499 . S
N221 Co204 1.989 . S
N221 C220 1.342 . S
N221 N222 1.388 . S
N222 Co205 1.993 . S
N222 N221 1.388 . S
N222 C223 1.346 . S
C223 N222 1.346 . S
C223 C224 1.396 . S
C223 C233 1.510 . S
C224 C220 1.401 . S
C224 C223 1.396 . S
C225 C220 1.499 . S
C225 H226 0.959 . S
C225 H227 0.960 . S
C225 H228 0.961 . S
H226 C225 0.959 . S
H227 C225 0.960 . S
H228 C225 0.961 . S
O229 Co204 1.967 . S
O229 C237 1.258 . S
O230 Co205 1.941 . S
O230 C237 1.266 . S
H231 C233 0.959 . S
H232 C233 0.961 . S
C233 C223 1.510 . S
C233 H231 0.959 . S
C233 H232 0.961 . S
C233 H234 0.960 . S
H234 C233 0.960 . S
H235 N215 0.862 . S
O236 Co204 1.920 . S
O236 C209 1.289 . S
C237 O229 1.258 . S
C237 O230 1.266 . S
Co238 O241 1.970 . S
Co238 N255 1.989 . S
Co238 O263 1.967 . S
Co238 O270 1.920 . S
Co239 O242 1.966 . S
Co239 N248 2.022 . S
Co239 N256 1.993 . S
Co239 O264 1.941 . S
C240 O241 1.258 . S
C240 O242 1.263 . S
O241 Co238 1.970 . S
O241 C240 1.258 . S
O242 Co239 1.966 . S
O242 C240 1.263 . S
C243 O244 1.235 . S
C243 O270 1.289 . S
O244 C243 1.235 . S
C245 C247 1.400 . S
C245 N248 1.351 . S
C245 C250 1.501 . S
C246 C247 1.387 . S
C246 N249 1.341 . S
C247 C245 1.400 . S
C247 C246 1.387 . S
N248 Co239 2.022 . S
N248 C245 1.351 . S
N248 N249 1.365 . S
N249 C246 1.341 . S
N249 N248 1.365 . S
N249 H269 0.862 . S
C250 C245 1.501 . S
C250 H251 0.961 . S
C250 H252 0.961 . S
C250 H253 0.960 . S
H251 C250 0.961 . S
H252 C250 0.961 . S
H253 C250 0.960 . S
C254 N255 1.342 . S
C254 C258 1.401 . S
C254 C259 1.499 . S
N255 Co238 1.989 . S
N255 C254 1.342 . S
N255 N256 1.388 . S
N256 Co239 1.993 . S
N256 N255 1.388 . S
N256 C257 1.346 . S
C257 N256 1.346 . S
C257 C258 1.396 . S
C257 C267 1.510 . S
C258 C254 1.401 . S
C258 C257 1.396 . S
C259 C254 1.499 . S
C259 H260 0.959 . S
C259 H261 0.960 . S
C259 H262 0.961 . S
H260 C259 0.959 . S
H261 C259 0.960 . S
H262 C259 0.961 . S
O263 Co238 1.967 . S
O263 C271 1.258 . S
O264 Co239 1.941 . S
O264 C271 1.266 . S
H265 C267 0.959 . S
H266 C267 0.961 . S
C267 C257 1.510 . S
C267 H265 0.959 . S
C267 H266 0.961 . S
C267 H268 0.960 . S
H268 C267 0.960 . S
H269 N249 0.862 . S
O270 Co238 1.920 . S
O270 C243 1.289 . S
C271 O263 1.258 . S
C271 O264 1.266 . S
Co272 O275 1.970 . S
Co272 N289 1.989 . S
Co272 O297 1.967 . S
Co272 O304 1.920 . S
Co273 O276 1.966 . S
Co273 N282 2.022 . S
Co273 N290 1.993 . S
Co273 O298 1.941 . S
C274 O275 1.258 . S
C274 O276 1.263 . S
O275 Co272 1.970 . S
O275 C274 1.258 . S
O276 Co273 1.966 . S
O276 C274 1.263 . S
C277 O278 1.235 . S
C277 O304 1.289 . S
O278 C277 1.235 . S
C279 C281 1.400 . S
C279 N282 1.351 . S
C279 C284 1.501 . S
C280 C281 1.387 . S
C280 N283 1.341 . S
C281 C279 1.400 . S
C281 C280 1.387 . S
N282 Co273 2.022 . S
N282 C279 1.351 . S
N282 N283 1.365 . S
N283 C280 1.341 . S
N283 N282 1.365 . S
N283 H303 0.862 . S
C284 C279 1.501 . S
C284 H285 0.961 . S
C284 H286 0.961 . S
C284 H287 0.960 . S
H285 C284 0.961 . S
H286 C284 0.961 . S
H287 C284 0.960 . S
C288 N289 1.342 . S
C288 C292 1.401 . S
C288 C293 1.499 . S
N289 Co272 1.989 . S
N289 C288 1.342 . S
N289 N290 1.388 . S
N290 Co273 1.993 . S
N290 N289 1.388 . S
N290 C291 1.346 . S
C291 N290 1.346 . S
C291 C292 1.396 . S
C291 C301 1.510 . S
C292 C288 1.401 . S
C292 C291 1.396 . S
C293 C288 1.499 . S
C293 H294 0.959 . S
C293 H295 0.960 . S
C293 H296 0.961 . S
H294 C293 0.959 . S
H295 C293 0.960 . S
H296 C293 0.961 . S
O297 Co272 1.967 . S
O297 C305 1.258 . S
O298 Co273 1.941 . S
O298 C305 1.266 . S
H299 C301 0.959 . S
H300 C301 0.961 . S
C301 C291 1.510 . S
C301 H299 0.959 . S
C301 H300 0.961 . S
C301 H302 0.960 . S
H302 C301 0.960 . S
H303 N283 0.862 . S
O304 Co272 1.920 . S
O304 C277 1.289 . S
C305 O297 1.258 . S
C305 O298 1.266 . S
Co306 O309 1.970 . S
Co306 N323 1.989 . S
Co306 O331 1.967 . S
Co306 O338 1.920 . S
Co307 O310 1.966 . S
Co307 N316 2.022 . S
Co307 N324 1.993 . S
Co307 O332 1.941 . S
C308 O309 1.258 . S
C308 O310 1.263 . S
O309 Co306 1.970 . S
O309 C308 1.258 . S
O310 Co307 1.966 . S
O310 C308 1.263 . S
C311 O312 1.235 . S
C311 O338 1.289 . S
O312 C311 1.235 . S
C313 C315 1.400 . S
C313 N316 1.351 . S
C313 C318 1.501 . S
C314 C315 1.387 . S
C314 N317 1.341 . S
C315 C313 1.400 . S
C315 C314 1.387 . S
N316 Co307 2.022 . S
N316 C313 1.351 . S
N316 N317 1.365 . S
N317 C314 1.341 . S
N317 N316 1.365 . S
N317 H337 0.862 . S
C318 C313 1.501 . S
C318 H319 0.961 . S
C318 H320 0.961 . S
C318 H321 0.960 . S
H319 C318 0.961 . S
H320 C318 0.961 . S
H321 C318 0.960 . S
C322 N323 1.342 . S
C322 C326 1.401 . S
C322 C327 1.499 . S
N323 Co306 1.989 . S
N323 C322 1.342 . S
N323 N324 1.388 . S
N324 Co307 1.993 . S
N324 N323 1.388 . S
N324 C325 1.346 . S
C325 N324 1.346 . S
C325 C326 1.396 . S
C325 C335 1.510 . S
C326 C322 1.401 . S
C326 C325 1.396 . S
C327 C322 1.499 . S
C327 H328 0.959 . S
C327 H329 0.960 . S
C327 H330 0.961 . S
H328 C327 0.959 . S
H329 C327 0.960 . S
H330 C327 0.961 . S
O331 Co306 1.967 . S
O331 C339 1.258 . S
O332 Co307 1.941 . S
O332 C339 1.266 . S
H333 C335 0.959 . S
H334 C335 0.961 . S
C335 C325 1.510 . S
C335 H333 0.959 . S
C335 H334 0.961 . S
C335 H336 0.960 . S
H336 C335 0.960 . S
H337 N317 0.862 . S
O338 Co306 1.920 . S
O338 C311 1.289 . S
C339 O331 1.258 . S
C339 O332 1.266 . S
Co340 O343 1.970 . S
Co340 N357 1.989 . S
Co340 O365 1.967 . S
Co340 O372 1.920 . S
Co341 O344 1.966 . S
Co341 N350 2.022 . S
Co341 N358 1.993 . S
Co341 O366 1.941 . S
C342 O343 1.258 . S
C342 O344 1.263 . S
O343 Co340 1.970 . S
O343 C342 1.258 . S
O344 Co341 1.966 . S
O344 C342 1.263 . S
C345 O346 1.235 . S
C345 O372 1.289 . S
O346 C345 1.235 . S
C347 C349 1.400 . S
C347 N350 1.351 . S
C347 C352 1.501 . S
C348 C349 1.387 . S
C348 N351 1.341 . S
C349 C347 1.400 . S
C349 C348 1.387 . S
N350 Co341 2.022 . S
N350 C347 1.351 . S
N350 N351 1.365 . S
N351 C348 1.341 . S
N351 N350 1.365 . S
N351 H371 0.862 . S
C352 C347 1.501 . S
C352 H353 0.961 . S
C352 H354 0.961 . S
C352 H355 0.960 . S
H353 C352 0.961 . S
H354 C352 0.961 . S
H355 C352 0.960 . S
C356 N357 1.342 . S
C356 C360 1.401 . S
C356 C361 1.499 . S
N357 Co340 1.989 . S
N357 C356 1.342 . S
N357 N358 1.388 . S
N358 Co341 1.993 . S
N358 N357 1.388 . S
N358 C359 1.346 . S
C359 N358 1.346 . S
C359 C360 1.396 . S
C359 C369 1.510 . S
C360 C356 1.401 . S
C360 C359 1.396 . S
C361 C356 1.499 . S
C361 H362 0.959 . S
C361 H363 0.960 . S
C361 H364 0.961 . S
H362 C361 0.959 . S
H363 C361 0.960 . S
H364 C361 0.961 . S
O365 Co340 1.967 . S
O365 C373 1.258 . S
O366 Co341 1.941 . S
O366 C373 1.266 . S
H367 C369 0.959 . S
H368 C369 0.961 . S
C369 C359 1.510 . S
C369 H367 0.959 . S
C369 H368 0.961 . S
C369 H370 0.960 . S
H370 C369 0.960 . S
H371 N351 0.862 . S
O372 Co340 1.920 . S
O372 C345 1.289 . S
C373 O365 1.258 . S
C373 O366 1.266 . S
Co374 O377 1.970 . S
Co374 N391 1.989 . S
Co374 O399 1.967 . S
Co374 O406 1.920 . S
Co375 O378 1.966 . S
Co375 N384 2.022 . S
Co375 N392 1.993 . S
Co375 O400 1.941 . S
C376 O377 1.258 . S
C376 O378 1.263 . S
O377 Co374 1.970 . S
O377 C376 1.258 . S
O378 Co375 1.966 . S
O378 C376 1.263 . S
C379 O380 1.235 . S
C379 O406 1.289 . S
O380 C379 1.235 . S
C381 C383 1.400 . S
C381 N384 1.351 . S
C381 C386 1.501 . S
C382 C383 1.387 . S
C382 N385 1.341 . S
C383 C381 1.400 . S
C383 C382 1.387 . S
N384 Co375 2.022 . S
N384 C381 1.351 . S
N384 N385 1.365 . S
N385 C382 1.341 . S
N385 N384 1.365 . S
N385 H405 0.862 . S
C386 C381 1.501 . S
C386 H387 0.961 . S
C386 H388 0.961 . S
C386 H389 0.960 . S
H387 C386 0.961 . S
H388 C386 0.961 . S
H389 C386 0.960 . S
C390 N391 1.342 . S
C390 C394 1.401 . S
C390 C395 1.499 . S
N391 Co374 1.989 . S
N391 C390 1.342 . S
N391 N392 1.388 . S
N392 Co375 1.993 . S
N392 N391 1.388 . S
N392 C393 1.346 . S
C393 N392 1.346 . S
C393 C394 1.396 . S
C393 C403 1.510 . S
C394 C390 1.401 . S
C394 C393 1.396 . S
C395 C390 1.499 . S
C395 H396 0.959 . S
C395 H397 0.960 . S
C395 H398 0.961 . S
H396 C395 0.959 . S
H397 C395 0.960 . S
H398 C395 0.961 . S
O399 Co374 1.967 . S
O399 C407 1.258 . S
O400 Co375 1.941 . S
O400 C407 1.266 . S
H401 C403 0.959 . S
H402 C403 0.961 . S
C403 C393 1.510 . S
C403 H401 0.959 . S
C403 H402 0.961 . S
C403 H404 0.960 . S
H404 C403 0.960 . S
H405 N385 0.862 . S
O406 Co374 1.920 . S
O406 C379 1.289 . S
C407 O399 1.258 . S
C407 O400 1.266 . S
Co408 O411 1.970 . S
Co408 N425 1.989 . S
Co408 O433 1.967 . S
Co408 O440 1.920 . S
Co409 O412 1.966 . S
Co409 N418 2.022 . S
Co409 N426 1.993 . S
Co409 O434 1.941 . S
C410 O411 1.258 . S
C410 O412 1.263 . S
O411 Co408 1.970 . S
O411 C410 1.258 . S
O412 Co409 1.966 . S
O412 C410 1.263 . S
C413 O414 1.235 . S
C413 O440 1.289 . S
O414 C413 1.235 . S
C415 C417 1.400 . S
C415 N418 1.351 . S
C415 C420 1.501 . S
C416 C417 1.387 . S
C416 N419 1.341 . S
C417 C415 1.400 . S
C417 C416 1.387 . S
N418 Co409 2.022 . S
N418 C415 1.351 . S
N418 N419 1.365 . S
N419 C416 1.341 . S
N419 N418 1.365 . S
N419 H439 0.862 . S
C420 C415 1.501 . S
C420 H421 0.961 . S
C420 H422 0.961 . S
C420 H423 0.960 . S
H421 C420 0.961 . S
H422 C420 0.961 . S
H423 C420 0.960 . S
C424 N425 1.342 . S
C424 C428 1.401 . S
C424 C429 1.499 . S
N425 Co408 1.989 . S
N425 C424 1.342 . S
N425 N426 1.388 . S
N426 Co409 1.993 . S
N426 N425 1.388 . S
N426 C427 1.346 . S
C427 N426 1.346 . S
C427 C428 1.396 . S
C427 C437 1.510 . S
C428 C424 1.401 . S
C428 C427 1.396 . S
C429 C424 1.499 . S
C429 H430 0.959 . S
C429 H431 0.960 . S
C429 H432 0.961 . S
H430 C429 0.959 . S
H431 C429 0.960 . S
H432 C429 0.961 . S
O433 Co408 1.967 . S
O433 C441 1.258 . S
O434 Co409 1.941 . S
O434 C441 1.266 . S
H435 C437 0.959 . S
H436 C437 0.961 . S
C437 C427 1.510 . S
C437 H435 0.959 . S
C437 H436 0.961 . S
C437 H438 0.960 . S
H438 C437 0.960 . S
H439 N419 0.862 . S
O440 Co408 1.920 . S
O440 C413 1.289 . S
C441 O433 1.258 . S
C441 O434 1.266 . S
Co442 O445 1.970 . S
Co442 N459 1.989 . S
Co442 O467 1.967 . S
Co442 O474 1.920 . S
Co443 O446 1.966 . S
Co443 N452 2.022 . S
Co443 N460 1.993 . S
Co443 O468 1.941 . S
C444 O445 1.258 . S
C444 O446 1.263 . S
O445 Co442 1.970 . S
O445 C444 1.258 . S
O446 Co443 1.966 . S
O446 C444 1.263 . S
C447 O448 1.235 . S
C447 O474 1.289 . S
O448 C447 1.235 . S
C449 C451 1.400 . S
C449 N452 1.351 . S
C449 C454 1.501 . S
C450 C451 1.387 . S
C450 N453 1.341 . S
C451 C449 1.400 . S
C451 C450 1.387 . S
N452 Co443 2.022 . S
N452 C449 1.351 . S
N452 N453 1.365 . S
N453 C450 1.341 . S
N453 N452 1.365 . S
N453 H473 0.862 . S
C454 C449 1.501 . S
C454 H455 0.961 . S
C454 H456 0.961 . S
C454 H457 0.960 . S
H455 C454 0.961 . S
H456 C454 0.961 . S
H457 C454 0.960 . S
C458 N459 1.342 . S
C458 C462 1.401 . S
C458 C463 1.499 . S
N459 Co442 1.989 . S
N459 C458 1.342 . S
N459 N460 1.388 . S
N460 Co443 1.993 . S
N460 N459 1.388 . S
N460 C461 1.346 . S
C461 N460 1.346 . S
C461 C462 1.396 . S
C461 C471 1.510 . S
C462 C458 1.401 . S
C462 C461 1.396 . S
C463 C458 1.499 . S
C463 H464 0.959 . S
C463 H465 0.960 . S
C463 H466 0.961 . S
H464 C463 0.959 . S
H465 C463 0.960 . S
H466 C463 0.961 . S
O467 Co442 1.967 . S
O467 C475 1.258 . S
O468 Co443 1.941 . S
O468 C475 1.266 . S
H469 C471 0.959 . S
H470 C471 0.961 . S
C471 C461 1.510 . S
C471 H469 0.959 . S
C471 H470 0.961 . S
C471 H472 0.960 . S
H472 C471 0.960 . S
H473 N453 0.862 . S
O474 Co442 1.920 . S
O474 C447 1.289 . S
C475 O467 1.258 . S
C475 O468 1.266 . S
Co476 O479 1.970 . S
Co476 N493 1.989 . S
Co476 O501 1.967 . S
Co476 O508 1.920 . S
Co477 O480 1.966 . S
Co477 N486 2.022 . S
Co477 N494 1.993 . S
Co477 O502 1.941 . S
C478 O479 1.258 . S
C478 O480 1.263 . S
O479 Co476 1.970 . S
O479 C478 1.258 . S
O480 Co477 1.966 . S
O480 C478 1.263 . S
C481 O482 1.235 . S
C481 O508 1.289 . S
O482 C481 1.235 . S
C483 C485 1.400 . S
C483 N486 1.351 . S
C483 C488 1.501 . S
C484 C485 1.387 . S
C484 N487 1.341 . S
C485 C483 1.400 . S
C485 C484 1.387 . S
N486 Co477 2.022 . S
N486 C483 1.351 . S
N486 N487 1.365 . S
N487 C484 1.341 . S
N487 N486 1.365 . S
N487 H507 0.862 . S
C488 C483 1.501 . S
C488 H489 0.961 . S
C488 H490 0.961 . S
C488 H491 0.960 . S
H489 C488 0.961 . S
H490 C488 0.961 . S
H491 C488 0.960 . S
C492 N493 1.342 . S
C492 C496 1.401 . S
C492 C497 1.499 . S
N493 Co476 1.989 . S
N493 C492 1.342 . S
N493 N494 1.388 . S
N494 Co477 1.993 . S
N494 N493 1.388 . S
N494 C495 1.346 . S
C495 N494 1.346 . S
C495 C496 1.396 . S
C495 C505 1.510 . S
C496 C492 1.401 . S
C496 C495 1.396 . S
C497 C492 1.499 . S
C497 H498 0.959 . S
C497 H499 0.960 . S
C497 H500 0.961 . S
H498 C497 0.959 . S
H499 C497 0.960 . S
H500 C497 0.961 . S
O501 Co476 1.967 . S
O501 C509 1.258 . S
O502 Co477 1.941 . S
O502 C509 1.266 . S
H503 C505 0.959 . S
H504 C505 0.961 . S
C505 C495 1.510 . S
C505 H503 0.959 . S
C505 H504 0.961 . S
C505 H506 0.960 . S
H506 C505 0.960 . S
H507 N487 0.862 . S
O508 Co476 1.920 . S
O508 C481 1.289 . S
C509 O501 1.258 . S
C509 O502 1.266 . S
Co510 O513 1.970 . S
Co510 N527 1.989 . S
Co510 O535 1.967 . S
Co510 O542 1.920 . S
Co511 O514 1.966 . S
Co511 N520 2.022 . S
Co511 N528 1.993 . S
Co511 O536 1.941 . S
C512 O513 1.258 . S
C512 O514 1.263 . S
O513 Co510 1.970 . S
O513 C512 1.258 . S
O514 Co511 1.966 . S
O514 C512 1.263 . S
C515 O516 1.235 . S
C515 O542 1.289 . S
O516 C515 1.235 . S
C517 C519 1.400 . S
C517 N520 1.351 . S
C517 C522 1.501 . S
C518 C519 1.387 . S
C518 N521 1.341 . S
C519 C517 1.400 . S
C519 C518 1.387 . S
N520 Co511 2.022 . S
N520 C517 1.351 . S
N520 N521 1.365 . S
N521 C518 1.341 . S
N521 N520 1.365 . S
N521 H541 0.862 . S
C522 C517 1.501 . S
C522 H523 0.961 . S
C522 H524 0.961 . S
C522 H525 0.960 . S
H523 C522 0.961 . S
H524 C522 0.961 . S
H525 C522 0.960 . S
C526 N527 1.342 . S
C526 C530 1.401 . S
C526 C531 1.499 . S
N527 Co510 1.989 . S
N527 C526 1.342 . S
N527 N528 1.388 . S
N528 Co511 1.993 . S
N528 N527 1.388 . S
N528 C529 1.346 . S
C529 N528 1.346 . S
C529 C530 1.396 . S
C529 C539 1.510 . S
C530 C526 1.401 . S
C530 C529 1.396 . S
C531 C526 1.499 . S
C531 H532 0.959 . S
C531 H533 0.960 . S
C531 H534 0.961 . S
H532 C531 0.959 . S
H533 C531 0.960 . S
H534 C531 0.961 . S
O535 Co510 1.967 . S
O535 C543 1.258 . S
O536 Co511 1.941 . S
O536 C543 1.266 . S
H537 C539 0.959 . S
H538 C539 0.961 . S
C539 C529 1.510 . S
C539 H537 0.959 . S
C539 H538 0.961 . S
C539 H540 0.960 . S
H540 C539 0.960 . S
H541 N521 0.862 . S
O542 Co510 1.920 . S
O542 C515 1.289 . S
C543 O535 1.258 . S
C543 O536 1.266 . S
C544 C545 1.349 . S
C544 C546 1.327 . S
C544 H569 0.950 . S
C545 C544 1.349 . S
C545 C561 1.349 . S
C546 C544 1.327 . S
C546 C565 1.429 . S
C546 H570 0.950 . S
C547 C564 1.574 1_655 S
C547 C566 1.368 . S
C547 H571 0.949 . S
H548 C552 0.949 . S
C549 C550 1.349 . S
C549 C551 1.327 . S
C549 H572 0.950 . S
C550 C549 1.349 . S
C550 C562 1.349 . S
C551 C549 1.327 . S
C551 C567 1.429 . S
C551 H573 0.950 . S
C552 H548 0.949 . S
C552 C560 1.574 1_455 S
C552 C568 1.368 . S
H553 C561 0.950 . S
H554 C559 0.950 . S
H555 C560 0.949 . S
H556 C562 0.950 . S
H557 C563 0.950 . S
H558 C564 0.949 . S
C559 H554 0.950 . S
C559 C561 1.327 . S
C559 C565 1.429 . S
C560 C552 1.574 1_655 S
C560 H555 0.949 . S
C560 C566 1.368 . S
C561 C545 1.349 . S
C561 H553 0.950 . S
C561 C559 1.327 . S
C562 C550 1.349 . S
C562 H556 0.950 . S
C562 C563 1.327 . S
C563 H557 0.950 . S
C563 C562 1.327 . S
C563 C567 1.429 . S
C564 C547 1.574 1_455 S
C564 H558 0.949 . S
C564 C568 1.368 . S
C565 C546 1.429 . S
C565 C559 1.429 . S
C565 C566 1.523 . S
C566 C547 1.368 . S
C566 C560 1.368 . S
C566 C565 1.523 . S
C567 C551 1.429 . S
C567 C563 1.429 . S
C567 C568 1.523 . S
C568 C552 1.368 . S
C568 C564 1.368 . S
C568 C567 1.523 . S
H569 C544 0.950 . S
H570 C546 0.950 . S
H571 C547 0.949 . S
H572 C549 0.950 . S
H573 C551 0.950 . S
C574 C575 1.349 . S
C574 C576 1.327 . S
C574 H599 0.950 . S
C575 C574 1.349 . S
C575 C591 1.349 . S
C576 C574 1.327 . S
C576 C595 1.429 . S
C576 H600 0.950 . S
C577 C594 1.584 . S
C577 C596 1.364 1_565 S
C577 H601 0.943 1_565 S
H578 C582 0.949 . S
C579 C580 1.349 . S
C579 C581 1.327 . S
C579 H602 0.950 . S
C580 C579 1.349 . S
C580 C592 1.349 . S
C581 C579 1.327 . S
C581 C597 1.429 . S
C581 H603 0.950 . S
C582 H578 0.949 . S
C582 C590 1.574 . S
C582 C598 1.368 . S
H583 C591 0.950 . S
H584 C589 0.950 . S
H585 C590 0.949 1_545 S
H586 C592 0.950 . S
H587 C593 0.950 . S
H588 C594 0.949 . S
C589 H584 0.950 . S
C589 C591 1.327 . S
C589 C595 1.429 . S
C590 C582 1.574 . S
C590 H585 0.949 1_565 S
C590 C596 1.368 1_565 S
C591 C575 1.349 . S
C591 H583 0.950 . S
C591 C589 1.327 . S
C592 C580 1.349 . S
C592 H586 0.950 . S
C592 C593 1.327 . S
C593 H587 0.950 . S
C593 C592 1.327 . S
C593 C597 1.429 . S
C594 C577 1.584 . S
C594 H588 0.949 . S
C594 C598 1.368 . S
C595 C576 1.429 . S
C595 C589 1.429 . S
C595 C596 1.523 . S
C596 C577 1.364 1_545 S
C596 C590 1.368 1_545 S
C596 C595 1.523 . S
C597 C581 1.429 . S
C597 C593 1.429 . S
C597 C598 1.523 . S
C598 C582 1.368 . S
C598 C594 1.368 . S
C598 C597 1.523 . S
H599 C574 0.950 . S
H600 C576 0.950 . S
H601 C577 0.943 1_545 S
H602 C579 0.950 . S
H603 C581 0.950 . S
C604 C605 1.349 . S
C604 C606 1.327 . S
C604 H629 0.950 . S
C605 C604 1.349 . S
C605 C621 1.349 . S
C606 C604 1.327 . S
C606 C625 1.429 . S
C606 H630 0.950 . S
C607 C624 1.574 . S
C607 C626 1.368 . S
C607 H631 0.949 . S
H608 C612 0.949 . S
C609 C610 1.349 . S
C609 C611 1.327 . S
C609 H632 0.950 . S
C610 C609 1.349 . S
C610 C622 1.349 . S
C611 C609 1.327 . S
C611 C627 1.429 . S
C611 H633 0.950 . S
C612 H608 0.949 . S
C612 C620 1.574 . S
C612 C628 1.368 . S
H613 C621 0.950 . S
H614 C619 0.950 . S
H615 C620 0.949 . S
H616 C622 0.950 . S
H617 C623 0.950 . S
H618 C624 0.949 . S
C619 H614 0.950 . S
C619 C621 1.327 . S
C619 C625 1.429 . S
C620 C612 1.574 . S
C620 H615 0.949 . S
C620 C626 1.368 . S
C621 C605 1.349 . S
C621 H613 0.950 . S
C621 C619 1.327 . S
C622 C610 1.349 . S
C622 H616 0.950 . S
C622 C623 1.327 . S
C623 H617 0.950 . S
C623 C622 1.327 . S
C623 C627 1.429 . S
C624 C607 1.574 . S
C624 H618 0.949 . S
C624 C628 1.368 . S
C625 C606 1.429 . S
C625 C619 1.429 . S
C625 C626 1.523 1_655 S
C626 C607 1.368 . S
C626 C620 1.368 . S
C626 C625 1.523 1_455 S
C627 C611 1.429 . S
C627 C623 1.429 . S
C627 C628 1.523 . S
C628 C612 1.368 . S
C628 C624 1.368 . S
C628 C627 1.523 . S
H629 C604 0.950 . S
H630 C606 0.950 . S
H631 C607 0.949 . S
H632 C609 0.950 . S
H633 C611 0.950 . S
C634 C635 1.349 . S
C634 C636 1.327 . S
C634 H659 0.950 . S
C635 C634 1.349 . S
C635 C651 1.349 . S
C636 C634 1.327 . S
C636 C655 1.429 . S
C636 H660 0.950 . S
C637 C654 1.574 1_565 S
C637 C656 1.368 . S
C637 H661 0.949 . S
H638 C642 0.949 . S
C639 C640 1.349 . S
C639 C641 1.327 . S
C639 H662 0.950 . S
C640 C639 1.349 . S
C640 C652 1.349 . S
C641 C639 1.327 . S
C641 C657 1.429 . S
C641 H663 0.950 . S
C642 H638 0.949 . S
C642 C650 1.574 1_545 S
C642 C658 1.368 . S
H643 C651 0.950 . S
H644 C649 0.950 . S
H645 C650 0.949 . S
H646 C652 0.950 . S
H647 C653 0.950 . S
H648 C654 0.949 . S
C649 H644 0.950 . S
C649 C651 1.327 . S
C649 C655 1.429 . S
C650 C642 1.574 1_565 S
C650 H645 0.949 . S
C650 C656 1.368 . S
C651 C635 1.349 . S
C651 H643 0.950 . S
C651 C649 1.327 . S
C652 C640 1.349 . S
C652 H646 0.950 . S
C652 C653 1.327 . S
C653 H647 0.950 . S
C653 C652 1.327 . S
C653 C657 1.429 . S
C654 C637 1.574 1_545 S
C654 H648 0.949 . S
C654 C658 1.368 . S
C655 C636 1.429 . S
C655 C649 1.429 . S
C655 C656 1.523 . S
C656 C637 1.368 . S
C656 C650 1.368 . S
C656 C655 1.523 . S
C657 C641 1.429 . S
C657 C653 1.429 . S
C657 C658 1.523 . S
C658 C642 1.368 . S
C658 C654 1.368 . S
C658 C657 1.523 . S
H659 C634 0.950 . S
H660 C636 0.950 . S
H661 C637 0.949 . S
H662 C639 0.950 . S
H663 C641 0.950 . S
C664 C665 1.349 . S
C664 C666 1.327 . S
C664 H689 0.950 . S
C665 C664 1.349 . S
C665 C681 1.349 . S
C666 C664 1.327 . S
C666 C685 1.429 . S
C666 H690 0.950 . S
C667 C684 1.574 1_655 S
C667 C686 1.368 . S
C667 H691 0.949 . S
H668 C672 0.949 . S
C669 C670 1.349 . S
C669 C671 1.327 . S
C669 H692 0.950 . S
C670 C669 1.349 . S
C670 C682 1.349 . S
C671 C669 1.327 . S
C671 C687 1.429 . S
C671 H693 0.950 . S
C672 H668 0.949 . S
C672 C680 1.574 1_455 S
C672 C688 1.368 . S
H673 C681 0.950 . S
H674 C679 0.950 . S
H675 C680 0.949 . S
H676 C682 0.950 . S
H677 C683 0.950 . S
H678 C684 0.949 . S
C679 H674 0.950 . S
C679 C681 1.327 . S
C679 C685 1.429 . S
C680 C672 1.574 1_655 S
C680 H675 0.949 . S
C680 C686 1.368 . S
C681 C665 1.349 . S
C681 H673 0.950 . S
C681 C679 1.327 . S
C682 C670 1.349 . S
C682 H676 0.950 . S
C682 C683 1.327 . S
C683 H677 0.950 . S
C683 C682 1.327 . S
C683 C687 1.429 . S
C684 C667 1.574 1_455 S
C684 H678 0.949 . S
C684 C688 1.368 . S
C685 C666 1.429 . S
C685 C679 1.429 . S
C685 C686 1.523 . S
C686 C667 1.368 . S
C686 C680 1.368 . S
C686 C685 1.523 . S
C687 C671 1.429 . S
C687 C683 1.429 . S
C687 C688 1.523 . S
C688 C672 1.368 . S
C688 C684 1.368 . S
C688 C687 1.523 . S
H689 C664 0.950 . S
H690 C666 0.950 . S
H691 C667 0.949 . S
H692 C669 0.950 . S
H693 C671 0.950 . S
C694 C695 1.349 . S
C694 C696 1.327 . S
C694 H719 0.950 . S
C695 C694 1.349 . S
C695 C711 1.349 . S
C696 C694 1.327 . S
C696 C715 1.429 . S
C696 H720 0.950 . S
C697 C714 1.574 1_565 S
C697 C716 1.368 . S
C697 H721 0.949 . S
H698 C702 0.949 . S
C699 C700 1.349 . S
C699 C701 1.327 . S
C699 H722 0.950 . S
C700 C699 1.349 . S
C700 C712 1.349 . S
C701 C699 1.327 . S
C701 C717 1.429 . S
C701 H723 0.950 . S
C702 H698 0.949 . S
C702 C710 1.574 1_545 S
C702 C718 1.368 . S
H703 C711 0.950 . S
H704 C709 0.950 . S
H705 C710 0.949 . S
H706 C712 0.950 . S
H707 C713 0.950 . S
H708 C714 0.949 . S
C709 H704 0.950 . S
C709 C711 1.327 . S
C709 C715 1.429 . S
C710 C702 1.574 1_565 S
C710 H705 0.949 . S
C710 C716 1.368 . S
C711 C695 1.349 . S
C711 H703 0.950 . S
C711 C709 1.327 . S
C712 C700 1.349 . S
C712 H706 0.950 . S
C712 C713 1.327 . S
C713 H707 0.950 . S
C713 C712 1.327 . S
C713 C717 1.429 . S
C714 C697 1.574 1_545 S
C714 H708 0.949 . S
C714 C718 1.368 . S
C715 C696 1.429 . S
C715 C709 1.429 . S
C715 C716 1.523 . S
C716 C697 1.368 . S
C716 C710 1.368 . S
C716 C715 1.523 . S
C717 C701 1.429 . S
C717 C713 1.429 . S
C717 C718 1.523 . S
C718 C702 1.368 . S
C718 C714 1.368 . S
C718 C717 1.523 . S
H719 C694 0.950 . S
H720 C696 0.950 . S
H721 C697 0.949 . S
H722 C699 0.950 . S
H723 C701 0.950 . S
C724 C725 1.349 . S
C724 C726 1.327 . S
C724 H749 0.950 . S
C725 C724 1.349 . S
C725 C741 1.349 . S
C726 C724 1.327 . S
C726 C745 1.429 . S
C726 H750 0.950 . S
C727 C744 1.574 . S
C727 C746 1.368 . S
C727 H751 0.949 . S
H728 C732 0.949 . S
C729 C730 1.349 . S
C729 C731 1.327 . S
C729 H752 0.950 . S
C730 C729 1.349 . S
C730 C742 1.349 . S
C731 C729 1.327 . S
C731 C747 1.429 . S
C731 H753 0.950 . S
C732 H728 0.949 . S
C732 C740 1.574 . S
C732 C748 1.368 . S
H733 C741 0.950 . S
H734 C739 0.950 . S
H735 C740 0.949 . S
H736 C742 0.950 . S
H737 C743 0.950 . S
H738 C744 0.949 . S
C739 H734 0.950 . S
C739 C741 1.327 . S
C739 C745 1.429 . S
C740 C732 1.574 . S
C740 H735 0.949 . S
C740 C746 1.368 . S
C741 C725 1.349 . S
C741 H733 0.950 . S
C741 C739 1.327 . S
C742 C730 1.349 . S
C742 H736 0.950 . S
C742 C743 1.327 . S
C743 H737 0.950 . S
C743 C742 1.327 . S
C743 C747 1.429 . S
C744 C727 1.574 . S
C744 H738 0.949 . S
C744 C748 1.368 . S
C745 C726 1.429 . S
C745 C739 1.429 . S
C745 C746 1.523 . S
C746 C727 1.368 . S
C746 C740 1.368 . S
C746 C745 1.523 . S
C747 C731 1.429 . S
C747 C743 1.429 . S
C747 C748 1.523 1_455 S
C748 C732 1.368 . S
C748 C744 1.368 . S
C748 C747 1.523 1_655 S
H749 C724 0.950 . S
H750 C726 0.950 . S
H751 C727 0.949 . S
H752 C729 0.950 . S
H753 C731 0.950 . S
C754 C755 1.349 . S
C754 C756 1.327 . S
C754 H779 0.950 . S
C755 C754 1.349 . S
C755 C771 1.349 . S
C756 C754 1.327 . S
C756 C775 1.429 . S
C756 H780 0.950 . S
C757 C774 1.574 . S
C757 C776 1.368 1_565 S
C757 H781 0.949 1_565 S
H758 C762 0.949 . S
C759 C760 1.349 . S
C759 C761 1.327 . S
C759 H782 0.950 . S
C760 C759 1.349 . S
C760 C772 1.349 . S
C761 C759 1.327 . S
C761 C777 1.429 . S
C761 H783 0.950 . S
C762 H758 0.949 . S
C762 C770 1.574 . S
C762 C778 1.368 . S
H763 C771 0.950 . S
H764 C769 0.950 . S
H765 C770 0.949 1_545 S
H766 C772 0.950 . S
H767 C773 0.950 . S
H768 C774 0.949 . S
C769 H764 0.950 . S
C769 C771 1.327 . S
C769 C775 1.429 . S
C770 C762 1.574 . S
C770 H765 0.949 1_565 S
C770 C776 1.368 1_565 S
C771 C755 1.349 . S
C771 H763 0.950 . S
C771 C769 1.327 . S
C772 C760 1.349 . S
C772 H766 0.950 . S
C772 C773 1.327 . S
C773 H767 0.950 . S
C773 C772 1.327 . S
C773 C777 1.429 . S
C774 C757 1.574 . S
C774 H768 0.949 . S
C774 C778 1.368 . S
C775 C756 1.429 . S
C775 C769 1.429 . S
C775 C776 1.523 . S
C776 C757 1.368 1_545 S
C776 C770 1.368 1_545 S
C776 C775 1.523 . S
C777 C761 1.429 . S
C777 C773 1.429 . S
C777 C778 1.523 . S
C778 C762 1.368 . S
C778 C774 1.368 . S
C778 C777 1.523 . S
H779 C754 0.950 . S
H780 C756 0.950 . S
H781 C757 0.949 1_545 S
H782 C759 0.950 . S
H783 C761 0.950 . S
C784 C785 1.349 . S
C784 C786 1.327 . S
C784 H809 0.950 . S
C785 C784 1.349 . S
C785 C801 1.349 . S
C786 C784 1.327 . S
C786 C805 1.429 . S
C786 H810 0.950 . S
C787 C804 1.574 . S
C787 C806 1.368 . S
C787 H811 0.949 . S
H788 C792 0.949 . S
C789 C790 1.349 . S
C789 C791 1.327 . S
C789 H812 0.950 . S
C790 C789 1.349 . S
C790 C802 1.349 . S
C791 C789 1.327 . S
C791 C807 1.429 . S
C791 H813 0.950 . S
C792 H788 0.949 . S
C792 C800 1.574 . S
C792 C808 1.368 . S
H793 C801 0.950 . S
H794 C799 0.950 . S
H795 C800 0.949 . S
H796 C802 0.950 . S
H797 C803 0.950 . S
H798 C804 0.949 . S
C799 H794 0.950 . S
C799 C801 1.327 . S
C799 C805 1.429 . S
C800 C792 1.574 . S
C800 H795 0.949 . S
C800 C806 1.368 . S
C801 C785 1.349 . S
C801 H793 0.950 . S
C801 C799 1.327 . S
C802 C790 1.349 . S
C802 H796 0.950 . S
C802 C803 1.327 . S
C803 H797 0.950 . S
C803 C802 1.327 . S
C803 C807 1.429 . S
C804 C787 1.574 . S
C804 H798 0.949 . S
C804 C808 1.368 . S
C805 C786 1.429 . S
C805 C799 1.429 . S
C805 C806 1.523 . S
C806 C787 1.368 . S
C806 C800 1.368 . S
C806 C805 1.523 . S
C807 C791 1.429 . S
C807 C803 1.429 . S
C807 C808 1.523 . S
C808 C792 1.368 . S
C808 C804 1.368 . S
C808 C807 1.523 . S
H809 C784 0.950 . S
H810 C786 0.950 . S
H811 C787 0.949 . S
H812 C789 0.950 . S
H813 C791 0.950 . S
C814 C815 1.349 . S
C814 C816 1.327 . S
C814 H839 0.950 . S
C815 C814 1.349 . S
C815 C831 1.349 . S
C816 C814 1.327 . S
C816 C835 1.429 . S
C816 H840 0.950 . S
C817 C834 1.574 . S
C817 C836 1.368 . S
C817 H841 0.949 . S
H818 C822 0.949 . S
C819 C820 1.349 . S
C819 C821 1.327 . S
C819 H842 0.950 . S
C820 C819 1.349 . S
C820 C832 1.349 . S
C821 C819 1.327 . S
C821 C837 1.429 . S
C821 H843 0.950 . S
C822 H818 0.949 . S
C822 C830 1.574 . S
C822 C838 1.368 . S
H823 C831 0.950 . S
H824 C829 0.950 . S
H825 C830 0.949 . S
H826 C832 0.950 . S
H827 C833 0.950 . S
H828 C834 0.949 . S
C829 H824 0.950 . S
C829 C831 1.327 . S
C829 C835 1.429 . S
C830 C822 1.574 . S
C830 H825 0.949 . S
C830 C836 1.368 . S
C831 C815 1.349 . S
C831 H823 0.950 . S
C831 C829 1.327 . S
C832 C820 1.349 . S
C832 H826 0.950 . S
C832 C833 1.327 . S
C833 H827 0.950 . S
C833 C832 1.327 . S
C833 C837 1.429 . S
C834 C817 1.574 . S
C834 H828 0.949 . S
C834 C838 1.368 . S
C835 C816 1.429 . S
C835 C829 1.429 . S
C835 C836 1.523 . S
C836 C817 1.368 . S
C836 C830 1.368 . S
C836 C835 1.523 . S
C837 C821 1.429 . S
C837 C833 1.429 . S
C837 C838 1.523 . S
C838 C822 1.368 . S
C838 C834 1.368 . S
C838 C837 1.523 . S
H839 C814 0.950 . S
H840 C816 0.950 . S
H841 C817 0.949 . S
H842 C819 0.950 . S
H843 C821 0.950 . S
C844 C845 1.349 . S
C844 C846 1.327 . S
C844 H869 0.950 . S
C845 C844 1.349 . S
C845 C861 1.349 . S
C846 C844 1.327 . S
C846 C865 1.429 . S
C846 H870 0.950 . S
C847 C864 1.574 . S
C847 C866 1.368 . S
C847 H871 0.949 . S
H848 C852 0.949 . S
C849 C850 1.349 . S
C849 C851 1.327 . S
C849 H872 0.950 . S
C850 C849 1.349 . S
C850 C862 1.349 . S
C851 C849 1.327 . S
C851 C867 1.429 . S
C851 H873 0.950 . S
C852 H848 0.949 . S
C852 C860 1.574 . S
C852 C868 1.368 . S
H853 C861 0.950 . S
H854 C859 0.950 . S
H855 C860 0.949 . S
H856 C862 0.950 . S
H857 C863 0.950 . S
H858 C864 0.949 . S
C859 H854 0.950 . S
C859 C861 1.327 . S
C859 C865 1.429 . S
C860 C852 1.574 . S
C860 H855 0.949 . S
C860 C866 1.368 . S
C861 C845 1.349 . S
C861 H853 0.950 . S
C861 C859 1.327 . S
C862 C850 1.349 . S
C862 H856 0.950 . S
C862 C863 1.327 . S
C863 H857 0.950 . S
C863 C862 1.327 . S
C863 C867 1.429 . S
C864 C847 1.574 . S
C864 H858 0.949 . S
C864 C868 1.368 . S
C865 C846 1.429 . S
C865 C859 1.429 . S
C865 C866 1.523 . S
C866 C847 1.368 . S
C866 C860 1.368 . S
C866 C865 1.523 . S
C867 C851 1.429 . S
C867 C863 1.429 . S
C867 C868 1.523 . S
C868 C852 1.368 . S
C868 C864 1.368 . S
C868 C867 1.523 . S
H869 C844 0.950 . S
H870 C846 0.950 . S
H871 C847 0.949 . S
H872 C849 0.950 . S
H873 C851 0.950 . S
C874 C875 1.349 . S
C874 C876 1.327 . S
C874 H899 0.950 . S
C875 C874 1.349 . S
C875 C891 1.349 . S
C876 C874 1.327 . S
C876 C895 1.429 . S
C876 H900 0.950 . S
C877 C894 1.574 . S
C877 C896 1.368 . S
C877 H901 0.949 . S
H878 C882 0.949 . S
C879 C880 1.349 . S
C879 C881 1.327 . S
C879 H902 0.950 . S
C880 C879 1.349 . S
C880 C892 1.349 . S
C881 C879 1.327 . S
C881 C897 1.429 . S
C881 H903 0.950 . S
C882 H878 0.949 . S
C882 C890 1.574 . S
C882 C898 1.368 . S
H883 C891 0.950 . S
H884 C889 0.950 . S
H885 C890 0.949 . S
H886 C892 0.950 . S
H887 C893 0.950 . S
H888 C894 0.949 . S
C889 H884 0.950 . S
C889 C891 1.327 . S
C889 C895 1.429 . S
C890 C882 1.574 . S
C890 H885 0.949 . S
C890 C896 1.368 . S
C891 C875 1.349 . S
C891 H883 0.950 . S
C891 C889 1.327 . S
C892 C880 1.349 . S
C892 H886 0.950 . S
C892 C893 1.327 . S
C893 H887 0.950 . S
C893 C892 1.327 . S
C893 C897 1.429 . S
C894 C877 1.574 . S
C894 H888 0.949 . S
C894 C898 1.368 . S
C895 C876 1.429 . S
C895 C889 1.429 . S
C895 C896 1.523 . S
C896 C877 1.368 . S
C896 C890 1.368 . S
C896 C895 1.523 . S
C897 C881 1.429 . S
C897 C893 1.429 . S
C897 C898 1.523 . S
C898 C882 1.368 . S
C898 C894 1.368 . S
C898 C897 1.523 . S
H899 C874 0.950 . S
H900 C876 0.950 . S
H901 C877 0.949 . S
H902 C879 0.950 . S
H903 C881 0.950 . S
C904 C905 1.349 . S
C904 C906 1.327 . S
C904 H929 0.950 . S
C905 C904 1.349 . S
C905 C921 1.349 . S
C906 C904 1.327 . S
C906 C925 1.429 . S
C906 H930 0.950 . S
C907 C924 1.574 . S
C907 C926 1.368 . S
C907 H931 0.949 . S
H908 C912 0.949 . S
C909 C910 1.349 . S
C909 C911 1.327 . S
C909 H932 0.950 . S
C910 C909 1.349 . S
C910 C922 1.349 . S
C911 C909 1.327 . S
C911 C927 1.429 . S
C911 H933 0.950 . S
C912 H908 0.949 . S
C912 C920 1.574 . S
C912 C928 1.368 . S
H913 C921 0.950 . S
H914 C919 0.950 . S
H915 C920 0.949 . S
H916 C922 0.950 . S
H917 C923 0.950 . S
H918 C924 0.949 . S
C919 H914 0.950 . S
C919 C921 1.327 . S
C919 C925 1.429 . S
C920 C912 1.574 . S
C920 H915 0.949 . S
C920 C926 1.368 . S
C921 C905 1.349 . S
C921 H913 0.950 . S
C921 C919 1.327 . S
C922 C910 1.349 . S
C922 H916 0.950 . S
C922 C923 1.327 . S
C923 H917 0.950 . S
C923 C922 1.327 . S
C923 C927 1.429 . S
C924 C907 1.574 . S
C924 H918 0.949 . S
C924 C928 1.368 . S
C925 C906 1.429 . S
C925 C919 1.429 . S
C925 C926 1.523 . S
C926 C907 1.368 . S
C926 C920 1.368 . S
C926 C925 1.523 . S
C927 C911 1.429 . S
C927 C923 1.429 . S
C927 C928 1.523 . S
C928 C912 1.368 . S
C928 C924 1.368 . S
C928 C927 1.523 . S
H929 C904 0.950 . S
H930 C906 0.950 . S
H931 C907 0.949 . S
H932 C909 0.950 . S
H933 C911 0.950 . S
C934 C935 1.349 . S
C934 C936 1.327 . S
C934 H959 0.950 . S
C935 C934 1.349 . S
C935 C951 1.349 . S
C936 C934 1.327 . S
C936 C955 1.429 . S
C936 H960 0.950 . S
C937 C954 1.574 . S
C937 C956 1.368 . S
C937 H961 0.949 . S
H938 C942 0.949 . S
C939 C940 1.349 . S
C939 C941 1.327 . S
C939 H962 0.950 . S
C940 C939 1.349 . S
C940 C952 1.349 . S
C941 C939 1.327 . S
C941 C957 1.429 . S
C941 H963 0.950 . S
C942 H938 0.949 . S
C942 C950 1.574 . S
C942 C958 1.368 . S
H943 C951 0.950 . S
H944 C949 0.950 . S
H945 C950 0.949 . S
H946 C952 0.950 . S
H947 C953 0.950 . S
H948 C954 0.949 . S
C949 H944 0.950 . S
C949 C951 1.327 . S
C949 C955 1.429 . S
C950 C942 1.574 . S
C950 H945 0.949 . S
C950 C956 1.368 . S
C951 C935 1.349 . S
C951 H943 0.950 . S
C951 C949 1.327 . S
C952 C940 1.349 . S
C952 H946 0.950 . S
C952 C953 1.327 . S
C953 H947 0.950 . S
C953 C952 1.327 . S
C953 C957 1.429 . S
C954 C937 1.574 . S
C954 H948 0.949 . S
C954 C958 1.368 . S
C955 C936 1.429 . S
C955 C949 1.429 . S
C955 C956 1.523 . S
C956 C937 1.368 . S
C956 C950 1.368 . S
C956 C955 1.523 . S
C957 C941 1.429 . S
C957 C953 1.429 . S
C957 C958 1.523 . S
C958 C942 1.368 . S
C958 C954 1.368 . S
C958 C957 1.523 . S
H959 C934 0.950 . S
H960 C936 0.950 . S
H961 C937 0.949 . S
H962 C939 0.950 . S
H963 C941 0.950 . S
C964 C965 1.349 . S
C964 C966 1.327 . S
C964 H989 0.950 . S
C965 C964 1.349 . S
C965 C981 1.349 . S
C966 C964 1.327 . S
C966 C985 1.429 . S
C966 H990 0.950 . S
C967 C984 1.574 . S
C967 C986 1.368 . S
C967 H991 0.949 . S
H968 C972 0.949 . S
C969 C970 1.349 . S
C969 C971 1.327 . S
C969 H992 0.950 . S
C970 C969 1.349 . S
C970 C982 1.349 . S
C971 C969 1.327 . S
C971 C987 1.429 . S
C971 H993 0.950 . S
C972 H968 0.949 . S
C972 C980 1.574 . S
C972 C988 1.368 . S
H973 C981 0.950 . S
H974 C979 0.950 . S
H975 C980 0.949 . S
H976 C982 0.950 . S
H977 C983 0.950 . S
H978 C984 0.949 . S
C979 H974 0.950 . S
C979 C981 1.327 . S
C979 C985 1.429 . S
C980 C972 1.574 . S
C980 H975 0.949 . S
C980 C986 1.368 . S
C981 C965 1.349 . S
C981 H973 0.950 . S
C981 C979 1.327 . S
C982 C970 1.349 . S
C982 H976 0.950 . S
C982 C983 1.327 . S
C983 H977 0.950 . S
C983 C982 1.327 . S
C983 C987 1.429 . S
C984 C967 1.574 . S
C984 H978 0.949 . S
C984 C988 1.368 . S
C985 C966 1.429 . S
C985 C979 1.429 . S
C985 C986 1.523 . S
C986 C967 1.368 . S
C986 C980 1.368 . S
C986 C985 1.523 . S
C987 C971 1.429 . S
C987 C983 1.429 . S
C987 C988 1.523 . S
C988 C972 1.368 . S
C988 C984 1.368 . S
C988 C987 1.523 . S
H989 C964 0.950 . S
H990 C966 0.950 . S
H991 C967 0.949 . S
H992 C969 0.950 . S
H993 C971 0.950 . S
C994 C995 1.349 . S
C994 C996 1.327 . S
C994 H1019 0.950 . S
C995 C994 1.349 . S
C995 C1011 1.349 . S
C996 C994 1.327 . S
C996 C1015 1.429 . S
C996 H1020 0.950 . S
C997 C1014 1.574 . S
C997 C1016 1.368 . S
C997 H1021 0.949 . S
H998 C1002 0.949 . S
C999 C1000 1.349 . S
C999 C1001 1.327 . S
C999 H1022 0.950 . S
C1000 C999 1.349 . S
C1000 C1012 1.349 . S
C1001 C999 1.327 . S
C1001 C1017 1.429 . S
C1001 H1023 0.950 . S
C1002 H998 0.949 . S
C1002 C1010 1.574 . S
C1002 C1018 1.368 . S
H1003 C1011 0.950 . S
H1004 C1009 0.950 . S
H1005 C1010 0.949 . S
H1006 C1012 0.950 . S
H1007 C1013 0.950 . S
H1008 C1014 0.949 . S
C1009 H1004 0.950 . S
C1009 C1011 1.327 . S
C1009 C1015 1.429 . S
C1010 C1002 1.574 . S
C1010 H1005 0.949 . S
C1010 C1016 1.368 . S
C1011 C995 1.349 . S
C1011 H1003 0.950 . S
C1011 C1009 1.327 . S
C1012 C1000 1.349 . S
C1012 H1006 0.950 . S
C1012 C1013 1.327 . S
C1013 H1007 0.950 . S
C1013 C1012 1.327 . S
C1013 C1017 1.429 . S
C1014 C997 1.574 . S
C1014 H1008 0.949 . S
C1014 C1018 1.368 . S
C1015 C996 1.429 . S
C1015 C1009 1.429 . S
C1015 C1016 1.523 . S
C1016 C997 1.368 . S
C1016 C1010 1.368 . S
C1016 C1015 1.523 . S
C1017 C1001 1.429 . S
C1017 C1013 1.429 . S
C1017 C1018 1.523 . S
C1018 C1002 1.368 . S
C1018 C1014 1.368 . S
C1018 C1017 1.523 . S
H1019 C994 0.950 . S
H1020 C996 0.950 . S
H1021 C997 0.949 . S
H1022 C999 0.950 . S
H1023 C1001 0.950 . S
C1024 C1025 1.349 . S
C1024 C1026 1.327 . S
C1024 H1049 0.950 . S
C1025 C1024 1.349 . S
C1025 C1041 1.349 . S
C1026 C1024 1.327 . S
C1026 C1045 1.429 . S
C1026 H1050 0.950 . S
C1027 C1044 1.574 1_554 S
C1027 C1046 1.368 . S
C1027 H1051 0.949 . S
H1028 C1032 0.949 . S
C1029 C1030 1.349 . S
C1029 C1031 1.327 . S
C1029 H1052 0.950 . S
C1030 C1029 1.349 . S
C1030 C1042 1.349 . S
C1031 C1029 1.327 . S
C1031 C1047 1.429 . S
C1031 H1053 0.950 . S
C1032 H1028 0.949 . S
C1032 C1040 1.574 1_556 S
C1032 C1048 1.368 . S
H1033 C1041 0.950 . S
H1034 C1039 0.950 . S
H1035 C1040 0.949 . S
H1036 C1042 0.950 . S
H1037 C1043 0.950 . S
H1038 C1044 0.949 . S
C1039 H1034 0.950 . S
C1039 C1041 1.327 . S
C1039 C1045 1.429 . S
C1040 C1032 1.574 1_554 S
C1040 H1035 0.949 . S
C1040 C1046 1.368 . S
C1041 C1025 1.349 . S
C1041 H1033 0.950 . S
C1041 C1039 1.327 . S
C1042 C1030 1.349 . S
C1042 H1036 0.950 . S
C1042 C1043 1.327 . S
C1043 H1037 0.950 . S
C1043 C1042 1.327 . S
C1043 C1047 1.429 . S
C1044 C1027 1.574 1_556 S
C1044 H1038 0.949 . S
C1044 C1048 1.368 . S
C1045 C1026 1.429 . S
C1045 C1039 1.429 . S
C1045 C1046 1.523 . S
C1046 C1027 1.368 . S
C1046 C1040 1.368 . S
C1046 C1045 1.523 . S
C1047 C1031 1.429 . S
C1047 C1043 1.429 . S
C1047 C1048 1.523 . S
C1048 C1032 1.368 . S
C1048 C1044 1.368 . S
C1048 C1047 1.523 . S
H1049 C1024 0.950 . S
H1050 C1026 0.950 . S
H1051 C1027 0.949 . S
H1052 C1029 0.950 . S
H1053 C1031 0.950 . S
C1054 C1055 1.349 . S
C1054 C1056 1.327 . S
C1054 H1079 0.950 . S
C1055 C1054 1.349 . S
C1055 C1071 1.349 . S
C1056 C1054 1.327 . S
C1056 C1075 1.429 . S
C1056 H1080 0.950 . S
C1057 C1074 1.574 . S
C1057 C1076 1.368 . S
C1057 H1081 0.949 . S
H1058 C1062 0.949 . S
C1059 C1060 1.349 . S
C1059 C1061 1.327 . S
C1059 H1082 0.950 . S
C1060 C1059 1.349 . S
C1060 C1072 1.349 . S
C1061 C1059 1.327 . S
C1061 C1077 1.429 . S
C1061 H1083 0.950 . S
C1062 H1058 0.949 . S
C1062 C1070 1.574 . S
C1062 C1078 1.368 . S
H1063 C1071 0.950 . S
H1064 C1069 0.950 . S
H1065 C1070 0.949 . S
H1066 C1072 0.950 . S
H1067 C1073 0.950 . S
H1068 C1074 0.949 . S
C1069 H1064 0.950 . S
C1069 C1071 1.327 . S
C1069 C1075 1.429 . S
C1070 C1062 1.574 . S
C1070 H1065 0.949 . S
C1070 C1076 1.368 . S
C1071 C1055 1.349 . S
C1071 H1063 0.950 . S
C1071 C1069 1.327 . S
C1072 C1060 1.349 . S
C1072 H1066 0.950 . S
C1072 C1073 1.327 . S
C1073 H1067 0.950 . S
C1073 C1072 1.327 . S
C1073 C1077 1.429 . S
C1074 C1057 1.574 . S
C1074 H1068 0.949 . S
C1074 C1078 1.368 . S
C1075 C1056 1.429 . S
C1075 C1069 1.429 . S
C1075 C1076 1.523 . S
C1076 C1057 1.368 . S
C1076 C1070 1.368 . S
C1076 C1075 1.523 . S
C1077 C1061 1.429 . S
C1077 C1073 1.429 . S
C1077 C1078 1.523 . S
C1078 C1062 1.368 . S
C1078 C1074 1.368 . S
C1078 C1077 1.523 . S
H1079 C1054 0.950 . S
H1080 C1056 0.950 . S
H1081 C1057 0.949 . S
H1082 C1059 0.950 . S
H1083 C1061 0.950 . S
C1084 C1085 1.349 . S
C1084 C1086 1.327 . S
C1084 H1109 0.950 . S
C1085 C1084 1.349 . S
C1085 C1101 1.349 . S
C1086 C1084 1.327 . S
C1086 C1105 1.429 . S
C1086 H1110 0.950 . S
C1087 C1104 1.574 1_556 S
C1087 C1106 1.368 . S
C1087 H1111 0.949 . S
H1088 C1092 0.949 . S
C1089 C1090 1.349 . S
C1089 C1091 1.327 . S
C1089 H1112 0.950 . S
C1090 C1089 1.349 . S
C1090 C1102 1.349 . S
C1091 C1089 1.327 . S
C1091 C1107 1.429 . S
C1091 H1113 0.950 . S
C1092 H1088 0.949 . S
C1092 C1100 1.574 1_554 S
C1092 C1108 1.368 . S
H1093 C1101 0.950 . S
H1094 C1099 0.950 . S
H1095 C1100 0.949 . S
H1096 C1102 0.950 . S
H1097 C1103 0.950 . S
H1098 C1104 0.949 . S
C1099 H1094 0.950 . S
C1099 C1101 1.327 . S
C1099 C1105 1.429 . S
C1100 C1092 1.574 1_556 S
C1100 H1095 0.949 . S
C1100 C1106 1.368 . S
C1101 C1085 1.349 . S
C1101 H1093 0.950 . S
C1101 C1099 1.327 . S
C1102 C1090 1.349 . S
C1102 H1096 0.950 . S
C1102 C1103 1.327 . S
C1103 H1097 0.950 . S
C1103 C1102 1.327 . S
C1103 C1107 1.429 . S
C1104 C1087 1.574 1_554 S
C1104 H1098 0.949 . S
C1104 C1108 1.368 . S
C1105 C1086 1.429 . S
C1105 C1099 1.429 . S
C1105 C1106 1.523 . S
C1106 C1087 1.368 . S
C1106 C1100 1.368 . S
C1106 C1105 1.523 . S
C1107 C1091 1.429 . S
C1107 C1103 1.429 . S
C1107 C1108 1.523 . S
C1108 C1092 1.368 . S
C1108 C1104 1.368 . S
C1108 C1107 1.523 . S
H1109 C1084 0.950 . S
H1110 C1086 0.950 . S
H1111 C1087 0.949 . S
H1112 C1089 0.950 . S
H1113 C1091 0.950 . S
C1114 C1115 1.349 . S
C1114 C1116 1.327 . S
C1114 H1139 0.950 . S
C1115 C1114 1.349 . S
C1115 C1131 1.349 . S
C1116 C1114 1.327 . S
C1116 C1135 1.429 . S
C1116 H1140 0.950 . S
C1117 C1134 1.574 . S
C1117 C1136 1.368 . S
C1117 H1141 0.949 . S
H1118 C1122 0.949 . S
C1119 C1120 1.349 . S
C1119 C1121 1.327 . S
C1119 H1142 0.950 . S
C1120 C1119 1.349 . S
C1120 C1132 1.349 . S
C1121 C1119 1.327 . S
C1121 C1137 1.429 . S
C1121 H1143 0.950 . S
C1122 H1118 0.949 . S
C1122 C1130 1.574 . S
C1122 C1138 1.368 . S
H1123 C1131 0.950 . S
H1124 C1129 0.950 . S
H1125 C1130 0.949 . S
H1126 C1132 0.950 . S
H1127 C1133 0.950 . S
H1128 C1134 0.949 . S
C1129 H1124 0.950 . S
C1129 C1131 1.327 . S
C1129 C1135 1.429 . S
C1130 C1122 1.574 . S
C1130 H1125 0.949 . S
C1130 C1136 1.368 . S
C1131 C1115 1.349 . S
C1131 H1123 0.950 . S
C1131 C1129 1.327 . S
C1132 C1120 1.349 . S
C1132 H1126 0.950 . S
C1132 C1133 1.327 . S
C1133 H1127 0.950 . S
C1133 C1132 1.327 . S
C1133 C1137 1.429 . S
C1134 C1117 1.574 . S
C1134 H1128 0.949 . S
C1134 C1138 1.368 . S
C1135 C1116 1.429 . S
C1135 C1129 1.429 . S
C1135 C1136 1.523 . S
C1136 C1117 1.368 . S
C1136 C1130 1.368 . S
C1136 C1135 1.523 . S
C1137 C1121 1.429 . S
C1137 C1133 1.429 . S
C1137 C1138 1.523 . S
C1138 C1122 1.368 . S
C1138 C1134 1.368 . S
C1138 C1137 1.523 . S
H1139 C1114 0.950 . S
H1140 C1116 0.950 . S
H1141 C1117 0.949 . S
H1142 C1119 0.950 . S
H1143 C1121 0.950 . S
C1144 C1145 1.349 . S
C1144 C1146 1.327 . S
C1144 H1169 0.950 . S
C1145 C1144 1.349 . S
C1145 C1161 1.349 . S
C1146 C1144 1.327 . S
C1146 C1165 1.429 . S
C1146 H1170 0.950 . S
C1147 C1164 1.574 1_556 S
C1147 C1166 1.368 . S
C1147 H1171 0.949 . S
H1148 C1152 0.949 . S
C1149 C1150 1.349 . S
C1149 C1151 1.327 . S
C1149 H1172 0.950 . S
C1150 C1149 1.349 . S
C1150 C1162 1.349 . S
C1151 C1149 1.327 . S
C1151 C1167 1.429 . S
C1151 H1173 0.950 . S
C1152 H1148 0.949 . S
C1152 C1160 1.574 1_554 S
C1152 C1168 1.368 . S
H1153 C1161 0.950 . S
H1154 C1159 0.950 . S
H1155 C1160 0.949 . S
H1156 C1162 0.950 . S
H1157 C1163 0.950 . S
H1158 C1164 0.949 . S
C1159 H1154 0.950 . S
C1159 C1161 1.327 . S
C1159 C1165 1.429 . S
C1160 C1152 1.574 1_556 S
C1160 H1155 0.949 . S
C1160 C1166 1.368 . S
C1161 C1145 1.349 . S
C1161 H1153 0.950 . S
C1161 C1159 1.327 . S
C1162 C1150 1.349 . S
C1162 H1156 0.950 . S
C1162 C1163 1.327 . S
C1163 H1157 0.950 . S
C1163 C1162 1.327 . S
C1163 C1167 1.429 . S
C1164 C1147 1.574 1_554 S
C1164 H1158 0.949 . S
C1164 C1168 1.368 . S
C1165 C1146 1.429 . S
C1165 C1159 1.429 . S
C1165 C1166 1.523 . S
C1166 C1147 1.368 . S
C1166 C1160 1.368 . S
C1166 C1165 1.523 . S
C1167 C1151 1.429 . S
C1167 C1163 1.429 . S
C1167 C1168 1.523 . S
C1168 C1152 1.368 . S
C1168 C1164 1.368 . S
C1168 C1167 1.523 . S
H1169 C1144 0.950 . S
H1170 C1146 0.950 . S
H1171 C1147 0.949 . S
H1172 C1149 0.950 . S
H1173 C1151 0.950 . S
C1174 C1175 1.349 . S
C1174 C1176 1.327 . S
C1174 H1199 0.950 . S
C1175 C1174 1.349 . S
C1175 C1191 1.349 . S
C1176 C1174 1.327 . S
C1176 C1195 1.429 . S
C1176 H1200 0.950 . S
C1177 C1194 1.574 . S
C1177 C1196 1.368 . S
C1177 H1201 0.949 . S
H1178 C1182 0.949 . S
C1179 C1180 1.349 . S
C1179 C1181 1.327 . S
C1179 H1202 0.950 . S
C1180 C1179 1.349 . S
C1180 C1192 1.349 . S
C1181 C1179 1.327 . S
C1181 C1197 1.429 . S
C1181 H1203 0.950 . S
C1182 H1178 0.949 . S
C1182 C1190 1.574 . S
C1182 C1198 1.368 . S
H1183 C1191 0.950 . S
H1184 C1189 0.950 . S
H1185 C1190 0.949 . S
H1186 C1192 0.950 . S
H1187 C1193 0.950 . S
H1188 C1194 0.949 . S
C1189 H1184 0.950 . S
C1189 C1191 1.327 . S
C1189 C1195 1.429 . S
C1190 C1182 1.574 . S
C1190 H1185 0.949 . S
C1190 C1196 1.368 . S
C1191 C1175 1.349 . S
C1191 H1183 0.950 . S
C1191 C1189 1.327 . S
C1192 C1180 1.349 . S
C1192 H1186 0.950 . S
C1192 C1193 1.327 . S
C1193 H1187 0.950 . S
C1193 C1192 1.327 . S
C1193 C1197 1.429 . S
C1194 C1177 1.574 . S
C1194 H1188 0.949 . S
C1194 C1198 1.368 . S
C1195 C1176 1.429 . S
C1195 C1189 1.429 . S
C1195 C1196 1.523 . S
C1196 C1177 1.368 . S
C1196 C1190 1.368 . S
C1196 C1195 1.523 . S
C1197 C1181 1.429 . S
C1197 C1193 1.429 . S
C1197 C1198 1.523 . S
C1198 C1182 1.368 . S
C1198 C1194 1.368 . S
C1198 C1197 1.523 . S
H1199 C1174 0.950 . S
H1200 C1176 0.950 . S
H1201 C1177 0.949 . S
H1202 C1179 0.950 . S
H1203 C1181 0.950 . S
C1204 C1205 1.349 . S
C1204 C1206 1.327 . S
C1204 H1229 0.950 . S
C1205 C1204 1.349 . S
C1205 C1221 1.349 . S
C1206 C1204 1.327 . S
C1206 C1225 1.429 . S
C1206 H1230 0.950 . S
C1207 C1224 1.574 1_554 S
C1207 C1226 1.368 . S
C1207 H1231 0.949 . S
H1208 C1212 0.949 . S
C1209 C1210 1.349 . S
C1209 C1211 1.327 . S
C1209 H1232 0.950 . S
C1210 C1209 1.349 . S
C1210 C1222 1.349 . S
C1211 C1209 1.327 . S
C1211 C1227 1.429 . S
C1211 H1233 0.950 . S
C1212 H1208 0.949 . S
C1212 C1220 1.574 1_556 S
C1212 C1228 1.368 . S
H1213 C1221 0.950 . S
H1214 C1219 0.950 . S
H1215 C1220 0.949 . S
H1216 C1222 0.950 . S
H1217 C1223 0.950 . S
H1218 C1224 0.949 . S
C1219 H1214 0.950 . S
C1219 C1221 1.327 . S
C1219 C1225 1.429 . S
C1220 C1212 1.574 1_554 S
C1220 H1215 0.949 . S
C1220 C1226 1.368 . S
C1221 C1205 1.349 . S
C1221 H1213 0.950 . S
C1221 C1219 1.327 . S
C1222 C1210 1.349 . S
C1222 H1216 0.950 . S
C1222 C1223 1.327 . S
C1223 H1217 0.950 . S
C1223 C1222 1.327 . S
C1223 C1227 1.429 . S
C1224 C1207 1.574 1_556 S
C1224 H1218 0.949 . S
C1224 C1228 1.368 . S
C1225 C1206 1.429 . S
C1225 C1219 1.429 . S
C1225 C1226 1.523 . S
C1226 C1207 1.368 . S
C1226 C1220 1.368 . S
C1226 C1225 1.523 . S
C1227 C1211 1.429 . S
C1227 C1223 1.429 . S
C1227 C1228 1.523 . S
C1228 C1212 1.368 . S
C1228 C1224 1.368 . S
C1228 C1227 1.523 . S
H1229 C1204 0.950 . S
H1230 C1206 0.950 . S
H1231 C1207 0.949 . S
H1232 C1209 0.950 . S
H1233 C1211 0.950 . S
C1234 C1235 1.349 . S
C1234 C1236 1.327 . S
C1234 H1259 0.950 . S
C1235 C1234 1.349 . S
C1235 C1251 1.349 . S
C1236 C1234 1.327 . S
C1236 C1255 1.429 . S
C1236 H1260 0.950 . S
C1237 C1254 1.574 . S
C1237 C1256 1.368 . S
C1237 H1261 0.949 . S
H1238 C1242 0.949 . S
C1239 C1240 1.349 . S
C1239 C1241 1.327 . S
C1239 H1262 0.950 . S
C1240 C1239 1.349 . S
C1240 C1252 1.349 . S
C1241 C1239 1.327 . S
C1241 C1257 1.429 . S
C1241 H1263 0.950 . S
C1242 H1238 0.949 . S
C1242 C1250 1.574 . S
C1242 C1258 1.368 . S
H1243 C1251 0.950 . S
H1244 C1249 0.950 . S
H1245 C1250 0.949 . S
H1246 C1252 0.950 . S
H1247 C1253 0.950 . S
H1248 C1254 0.949 . S
C1249 H1244 0.950 . S
C1249 C1251 1.327 . S
C1249 C1255 1.429 . S
C1250 C1242 1.574 . S
C1250 H1245 0.949 . S
C1250 C1256 1.368 . S
C1251 C1235 1.349 . S
C1251 H1243 0.950 . S
C1251 C1249 1.327 . S
C1252 C1240 1.349 . S
C1252 H1246 0.950 . S
C1252 C1253 1.327 . S
C1253 H1247 0.950 . S
C1253 C1252 1.327 . S
C1253 C1257 1.429 . S
C1254 C1237 1.574 . S
C1254 H1248 0.949 . S
C1254 C1258 1.368 . S
C1255 C1236 1.429 . S
C1255 C1249 1.429 . S
C1255 C1256 1.523 . S
C1256 C1237 1.368 . S
C1256 C1250 1.368 . S
C1256 C1255 1.523 . S
C1257 C1241 1.429 . S
C1257 C1253 1.429 . S
C1257 C1258 1.523 . S
C1258 C1242 1.368 . S
C1258 C1254 1.368 . S
C1258 C1257 1.523 . S
H1259 C1234 0.950 . S
H1260 C1236 0.950 . S
H1261 C1237 0.949 . S
H1262 C1239 0.950 . S
H1263 C1241 0.950 . S
C1264 C1265 1.349 . S
C1264 C1266 1.327 . S
C1264 H1289 0.950 . S
C1265 C1264 1.349 . S
C1265 C1281 1.349 . S
C1266 C1264 1.327 . S
C1266 C1285 1.429 . S
C1266 H1290 0.950 . S
C1267 C1284 1.574 . S
C1267 C1286 1.368 . S
C1267 H1291 0.949 . S
H1268 C1272 0.949 . S
C1269 C1270 1.349 . S
C1269 C1271 1.327 . S
C1269 H1292 0.950 . S
C1270 C1269 1.349 . S
C1270 C1282 1.349 . S
C1271 C1269 1.327 . S
C1271 C1287 1.429 . S
C1271 H1293 0.950 . S
C1272 H1268 0.949 . S
C1272 C1280 1.574 . S
C1272 C1288 1.368 . S
H1273 C1281 0.950 . S
H1274 C1279 0.950 . S
H1275 C1280 0.949 . S
H1276 C1282 0.950 . S
H1277 C1283 0.950 . S
H1278 C1284 0.949 . S
C1279 H1274 0.950 . S
C1279 C1281 1.327 . S
C1279 C1285 1.429 . S
C1280 C1272 1.574 . S
C1280 H1275 0.949 . S
C1280 C1286 1.368 . S
C1281 C1265 1.349 . S
C1281 H1273 0.950 . S
C1281 C1279 1.327 . S
C1282 C1270 1.349 . S
C1282 H1276 0.950 . S
C1282 C1283 1.327 . S
C1283 H1277 0.950 . S
C1283 C1282 1.327 . S
C1283 C1287 1.429 . S
C1284 C1267 1.574 . S
C1284 H1278 0.949 . S
C1284 C1288 1.368 . S
C1285 C1266 1.429 . S
C1285 C1279 1.429 . S
C1285 C1286 1.523 . S
C1286 C1267 1.368 . S
C1286 C1280 1.368 . S
C1286 C1285 1.523 . S
C1287 C1271 1.429 . S
C1287 C1283 1.429 . S
C1287 C1288 1.523 . S
C1288 C1272 1.368 . S
C1288 C1284 1.368 . S
C1288 C1287 1.523 . S
H1289 C1264 0.950 . S
H1290 C1266 0.950 . S
H1291 C1267 0.949 . S
H1292 C1269 0.950 . S
H1293 C1271 0.950 . S
C1294 C1295 1.349 . S
C1294 C1296 1.327 . S
C1294 H1319 0.950 . S
C1295 C1294 1.349 . S
C1295 C1311 1.349 . S
C1296 C1294 1.327 . S
C1296 C1315 1.429 . S
C1296 H1320 0.950 . S
C1297 C1314 1.574 . S
C1297 C1316 1.368 . S
C1297 H1321 0.949 . S
H1298 C1302 0.949 . S
C1299 C1300 1.349 . S
C1299 C1301 1.327 . S
C1299 H1322 0.950 . S
C1300 C1299 1.349 . S
C1300 C1312 1.349 . S
C1301 C1299 1.327 . S
C1301 C1317 1.429 . S
C1301 H1323 0.950 . S
C1302 H1298 0.949 . S
C1302 C1310 1.574 . S
C1302 C1318 1.368 . S
H1303 C1311 0.950 . S
H1304 C1309 0.950 . S
H1305 C1310 0.949 . S
H1306 C1312 0.950 . S
H1307 C1313 0.950 . S
H1308 C1314 0.949 . S
C1309 H1304 0.950 . S
C1309 C1311 1.327 . S
C1309 C1315 1.429 . S
C1310 C1302 1.574 . S
C1310 H1305 0.949 . S
C1310 C1316 1.368 . S
C1311 C1295 1.349 . S
C1311 H1303 0.950 . S
C1311 C1309 1.327 . S
C1312 C1300 1.349 . S
C1312 H1306 0.950 . S
C1312 C1313 1.327 . S
C1313 H1307 0.950 . S
C1313 C1312 1.327 . S
C1313 C1317 1.429 . S
C1314 C1297 1.574 . S
C1314 H1308 0.949 . S
C1314 C1318 1.368 . S
C1315 C1296 1.429 . S
C1315 C1309 1.429 . S
C1315 C1316 1.523 . S
C1316 C1297 1.368 . S
C1316 C1310 1.368 . S
C1316 C1315 1.523 . S
C1317 C1301 1.429 . S
C1317 C1313 1.429 . S
C1317 C1318 1.523 . S
C1318 C1302 1.368 . S
C1318 C1314 1.368 . S
C1318 C1317 1.523 . S
H1319 C1294 0.950 . S
H1320 C1296 0.950 . S
H1321 C1297 0.949 . S
H1322 C1299 0.950 . S
H1323 C1301 0.950 . S
C1324 C1325 1.349 . S
C1324 C1326 1.327 . S
C1324 H1349 0.950 . S
C1325 C1324 1.349 . S
C1325 C1341 1.349 . S
C1326 C1324 1.327 . S
C1326 C1345 1.429 . S
C1326 H1350 0.950 . S
C1327 C1344 1.574 . S
C1327 C1346 1.368 . S
C1327 H1351 0.949 . S
H1328 C1332 0.949 . S
C1329 C1330 1.349 . S
C1329 C1331 1.327 . S
C1329 H1352 0.950 . S
C1330 C1329 1.349 . S
C1330 C1342 1.349 . S
C1331 C1329 1.327 . S
C1331 C1347 1.429 . S
C1331 H1353 0.950 . S
C1332 H1328 0.949 . S
C1332 C1340 1.574 . S
C1332 C1348 1.368 . S
H1333 C1341 0.950 . S
H1334 C1339 0.950 . S
H1335 C1340 0.949 . S
H1336 C1342 0.950 . S
H1337 C1343 0.950 . S
H1338 C1344 0.949 . S
C1339 H1334 0.950 . S
C1339 C1341 1.327 . S
C1339 C1345 1.429 . S
C1340 C1332 1.574 . S
C1340 H1335 0.949 . S
C1340 C1346 1.368 . S
C1341 C1325 1.349 . S
C1341 H1333 0.950 . S
C1341 C1339 1.327 . S
C1342 C1330 1.349 . S
C1342 H1336 0.950 . S
C1342 C1343 1.327 . S
C1343 H1337 0.950 . S
C1343 C1342 1.327 . S
C1343 C1347 1.429 . S
C1344 C1327 1.574 . S
C1344 H1338 0.949 . S
C1344 C1348 1.368 . S
C1345 C1326 1.429 . S
C1345 C1339 1.429 . S
C1345 C1346 1.523 . S
C1346 C1327 1.368 . S
C1346 C1340 1.368 . S
C1346 C1345 1.523 . S
C1347 C1331 1.429 . S
C1347 C1343 1.429 . S
C1347 C1348 1.523 . S
C1348 C1332 1.368 . S
C1348 C1344 1.368 . S
C1348 C1347 1.523 . S
H1349 C1324 0.950 . S
H1350 C1326 0.950 . S
H1351 C1327 0.949 . S
H1352 C1329 0.950 . S
H1353 C1331 0.950 . S
C1354 C1355 1.349 . S
C1354 C1356 1.327 . S
C1354 H1379 0.950 . S
C1355 C1354 1.349 . S
C1355 C1371 1.349 . S
C1356 C1354 1.327 . S
C1356 C1375 1.429 . S
C1356 H1380 0.950 . S
C1357 C1374 1.574 . S
C1357 C1376 1.368 . S
C1357 H1381 0.949 . S
H1358 C1362 0.949 . S
C1359 C1360 1.349 . S
C1359 C1361 1.327 . S
C1359 H1382 0.950 . S
C1360 C1359 1.349 . S
C1360 C1372 1.349 . S
C1361 C1359 1.327 . S
C1361 C1377 1.429 . S
C1361 H1383 0.950 . S
C1362 H1358 0.949 . S
C1362 C1370 1.574 . S
C1362 C1378 1.368 . S
H1363 C1371 0.950 . S
H1364 C1369 0.950 . S
H1365 C1370 0.949 . S
H1366 C1372 0.950 . S
H1367 C1373 0.950 . S
H1368 C1374 0.949 . S
C1369 H1364 0.950 . S
C1369 C1371 1.327 . S
C1369 C1375 1.429 . S
C1370 C1362 1.574 . S
C1370 H1365 0.949 . S
C1370 C1376 1.368 . S
C1371 C1355 1.349 . S
C1371 H1363 0.950 . S
C1371 C1369 1.327 . S
C1372 C1360 1.349 . S
C1372 H1366 0.950 . S
C1372 C1373 1.327 . S
C1373 H1367 0.950 . S
C1373 C1372 1.327 . S
C1373 C1377 1.429 . S
C1374 C1357 1.574 . S
C1374 H1368 0.949 . S
C1374 C1378 1.368 . S
C1375 C1356 1.429 . S
C1375 C1369 1.429 . S
C1375 C1376 1.523 . S
C1376 C1357 1.368 . S
C1376 C1370 1.368 . S
C1376 C1375 1.523 . S
C1377 C1361 1.429 . S
C1377 C1373 1.429 . S
C1377 C1378 1.523 . S
C1378 C1362 1.368 . S
C1378 C1374 1.368 . S
C1378 C1377 1.523 . S
H1379 C1354 0.950 . S
H1380 C1356 0.950 . S
H1381 C1357 0.949 . S
H1382 C1359 0.950 . S
H1383 C1361 0.950 . S
C1384 C1385 1.349 . S
C1384 C1386 1.327 . S
C1384 H1409 0.950 . S
C1385 C1384 1.349 . S
C1385 C1401 1.349 . S
C1386 C1384 1.327 . S
C1386 C1405 1.429 . S
C1386 H1410 0.950 . S
C1387 C1404 1.574 . S
C1387 C1406 1.368 . S
C1387 H1411 0.949 . S
H1388 C1392 0.949 . S
C1389 C1390 1.349 . S
C1389 C1391 1.327 . S
C1389 H1412 0.950 . S
C1390 C1389 1.349 . S
C1390 C1402 1.349 . S
C1391 C1389 1.327 . S
C1391 C1407 1.429 . S
C1391 H1413 0.950 . S
C1392 H1388 0.949 . S
C1392 C1400 1.574 . S
C1392 C1408 1.368 . S
H1393 C1401 0.950 . S
H1394 C1399 0.950 . S
H1395 C1400 0.949 . S
H1396 C1402 0.950 . S
H1397 C1403 0.950 . S
H1398 C1404 0.949 . S
C1399 H1394 0.950 . S
C1399 C1401 1.327 . S
C1399 C1405 1.429 . S
C1400 C1392 1.574 . S
C1400 H1395 0.949 . S
C1400 C1406 1.368 . S
C1401 C1385 1.349 . S
C1401 H1393 0.950 . S
C1401 C1399 1.327 . S
C1402 C1390 1.349 . S
C1402 H1396 0.950 . S
C1402 C1403 1.327 . S
C1403 H1397 0.950 . S
C1403 C1402 1.327 . S
C1403 C1407 1.429 . S
C1404 C1387 1.574 . S
C1404 H1398 0.949 . S
C1404 C1408 1.368 . S
C1405 C1386 1.429 . S
C1405 C1399 1.429 . S
C1405 C1406 1.523 . S
C1406 C1387 1.368 . S
C1406 C1400 1.368 . S
C1406 C1405 1.523 . S
C1407 C1391 1.429 . S
C1407 C1403 1.429 . S
C1407 C1408 1.523 . S
C1408 C1392 1.368 . S
C1408 C1404 1.368 . S
C1408 C1407 1.523 . S
H1409 C1384 0.950 . S
H1410 C1386 0.950 . S
H1411 C1387 0.949 . S
H1412 C1389 0.950 . S
H1413 C1391 0.950 . S
C1414 C1415 1.349 . S
C1414 C1416 1.327 . S
C1414 H1439 0.950 . S
C1415 C1414 1.349 . S
C1415 C1431 1.349 . S
C1416 C1414 1.327 . S
C1416 C1435 1.429 . S
C1416 H1440 0.950 . S
C1417 C1434 1.574 . S
C1417 C1436 1.368 . S
C1417 H1441 0.949 . S
H1418 C1422 0.949 . S
C1419 C1420 1.349 . S
C1419 C1421 1.327 . S
C1419 H1442 0.950 . S
C1420 C1419 1.349 . S
C1420 C1432 1.349 . S
C1421 C1419 1.327 . S
C1421 C1437 1.429 . S
C1421 H1443 0.950 . S
C1422 H1418 0.949 . S
C1422 C1430 1.574 . S
C1422 C1438 1.368 . S
H1423 C1431 0.950 . S
H1424 C1429 0.950 . S
H1425 C1430 0.949 . S
H1426 C1432 0.950 . S
H1427 C1433 0.950 . S
H1428 C1434 0.949 . S
C1429 H1424 0.950 . S
C1429 C1431 1.327 . S
C1429 C1435 1.429 . S
C1430 C1422 1.574 . S
C1430 H1425 0.949 . S
C1430 C1436 1.368 . S
C1431 C1415 1.349 . S
C1431 H1423 0.950 . S
C1431 C1429 1.327 . S
C1432 C1420 1.349 . S
C1432 H1426 0.950 . S
C1432 C1433 1.327 . S
C1433 H1427 0.950 . S
C1433 C1432 1.327 . S
C1433 C1437 1.429 . S
C1434 C1417 1.574 . S
C1434 H1428 0.949 . S
C1434 C1438 1.368 . S
C1435 C1416 1.429 . S
C1435 C1429 1.429 . S
C1435 C1436 1.523 . S
C1436 C1417 1.368 . S
C1436 C1430 1.368 . S
C1436 C1435 1.523 . S
C1437 C1421 1.429 . S
C1437 C1433 1.429 . S
C1437 C1438 1.523 . S
C1438 C1422 1.368 . S
C1438 C1434 1.368 . S
C1438 C1437 1.523 . S
H1439 C1414 0.950 . S
H1440 C1416 0.950 . S
H1441 C1417 0.949 . S
H1442 C1419 0.950 . S
H1443 C1421 0.950 . S
C1444 C1445 1.349 . S
C1444 C1446 1.327 . S
C1444 H1469 0.950 . S
C1445 C1444 1.349 . S
C1445 C1461 1.349 . S
C1446 C1444 1.327 . S
C1446 C1465 1.429 . S
C1446 H1470 0.950 . S
C1447 C1464 1.574 . S
C1447 C1466 1.368 . S
C1447 H1471 0.949 . S
H1448 C1452 0.949 . S
C1449 C1450 1.349 . S
C1449 C1451 1.327 . S
C1449 H1472 0.950 . S
C1450 C1449 1.349 . S
C1450 C1462 1.349 . S
C1451 C1449 1.327 . S
C1451 C1467 1.429 . S
C1451 H1473 0.950 . S
C1452 H1448 0.949 . S
C1452 C1460 1.574 . S
C1452 C1468 1.368 . S
H1453 C1461 0.950 . S
H1454 C1459 0.950 . S
H1455 C1460 0.949 . S
H1456 C1462 0.950 . S
H1457 C1463 0.950 . S
H1458 C1464 0.949 . S
C1459 H1454 0.950 . S
C1459 C1461 1.327 . S
C1459 C1465 1.429 . S
C1460 C1452 1.574 . S
C1460 H1455 0.949 . S
C1460 C1466 1.368 . S
C1461 C1445 1.349 . S
C1461 H1453 0.950 . S
C1461 C1459 1.327 . S
C1462 C1450 1.349 . S
C1462 H1456 0.950 . S
C1462 C1463 1.327 . S
C1463 H1457 0.950 . S
C1463 C1462 1.327 . S
C1463 C1467 1.429 . S
C1464 C1447 1.574 . S
C1464 H1458 0.949 . S
C1464 C1468 1.368 . S
C1465 C1446 1.429 . S
C1465 C1459 1.429 . S
C1465 C1466 1.523 . S
C1466 C1447 1.368 . S
C1466 C1460 1.368 . S
C1466 C1465 1.523 . S
C1467 C1451 1.429 . S
C1467 C1463 1.429 . S
C1467 C1468 1.523 . S
C1468 C1452 1.368 . S
C1468 C1464 1.368 . S
C1468 C1467 1.523 . S
H1469 C1444 0.950 . S
H1470 C1446 0.950 . S
H1471 C1447 0.949 . S
H1472 C1449 0.950 . S
H1473 C1451 0.950 . S
C1474 C1475 1.349 . S
C1474 C1476 1.327 . S
C1474 H1499 0.950 . S
C1475 C1474 1.349 . S
C1475 C1491 1.349 . S
C1476 C1474 1.327 . S
C1476 C1495 1.429 . S
C1476 H1500 0.950 . S
C1477 C1494 1.574 . S
C1477 C1496 1.368 . S
C1477 H1501 0.949 . S
H1478 C1482 0.949 . S
C1479 C1480 1.349 . S
C1479 C1481 1.327 . S
C1479 H1502 0.950 . S
C1480 C1479 1.349 . S
C1480 C1492 1.349 . S
C1481 C1479 1.327 . S
C1481 C1497 1.429 . S
C1481 H1503 0.950 . S
C1482 H1478 0.949 . S
C1482 C1490 1.574 . S
C1482 C1498 1.368 . S
H1483 C1491 0.950 . S
H1484 C1489 0.950 . S
H1485 C1490 0.949 . S
H1486 C1492 0.950 . S
H1487 C1493 0.950 . S
H1488 C1494 0.949 . S
C1489 H1484 0.950 . S
C1489 C1491 1.327 . S
C1489 C1495 1.429 . S
C1490 C1482 1.574 . S
C1490 H1485 0.949 . S
C1490 C1496 1.368 . S
C1491 C1475 1.349 . S
C1491 H1483 0.950 . S
C1491 C1489 1.327 . S
C1492 C1480 1.349 . S
C1492 H1486 0.950 . S
C1492 C1493 1.327 . S
C1493 H1487 0.950 . S
C1493 C1492 1.327 . S
C1493 C1497 1.429 . S
C1494 C1477 1.574 . S
C1494 H1488 0.949 . S
C1494 C1498 1.368 . S
C1495 C1476 1.429 . S
C1495 C1489 1.429 . S
C1495 C1496 1.523 . S
C1496 C1477 1.368 . S
C1496 C1490 1.368 . S
C1496 C1495 1.523 . S
C1497 C1481 1.429 . S
C1497 C1493 1.429 . S
C1497 C1498 1.523 . S
C1498 C1482 1.368 . S
C1498 C1494 1.368 . S
C1498 C1497 1.523 . S
H1499 C1474 0.950 . S
H1500 C1476 0.950 . S
H1501 C1477 0.949 . S
H1502 C1479 0.950 . S
H1503 C1481 0.950 . S
C1504 C1505 1.349 . S
C1504 C1506 1.327 . S
C1504 H1529 0.950 . S
C1505 C1504 1.349 . S
C1505 C1521 1.349 . S
C1506 C1504 1.327 . S
C1506 C1525 1.429 . S
C1506 H1530 0.950 . S
C1507 C1524 1.574 . S
C1507 C1526 1.368 . S
C1507 H1531 0.949 . S
H1508 C1512 0.949 . S
C1509 C1510 1.349 . S
C1509 C1511 1.327 . S
C1509 H1532 0.950 . S
C1510 C1509 1.349 . S
C1510 C1522 1.349 . S
C1511 C1509 1.327 . S
C1511 C1527 1.429 . S
C1511 H1533 0.950 . S
C1512 H1508 0.949 . S
C1512 C1520 1.574 . S
C1512 C1528 1.368 . S
H1513 C1521 0.950 . S
H1514 C1519 0.950 . S
H1515 C1520 0.949 . S
H1516 C1522 0.950 . S
H1517 C1523 0.950 . S
H1518 C1524 0.949 . S
C1519 H1514 0.950 . S
C1519 C1521 1.327 . S
C1519 C1525 1.429 . S
C1520 C1512 1.574 . S
C1520 H1515 0.949 . S
C1520 C1526 1.368 . S
C1521 C1505 1.349 . S
C1521 H1513 0.950 . S
C1521 C1519 1.327 . S
C1522 C1510 1.349 . S
C1522 H1516 0.950 . S
C1522 C1523 1.327 . S
C1523 H1517 0.950 . S
C1523 C1522 1.327 . S
C1523 C1527 1.429 . S
C1524 C1507 1.574 . S
C1524 H1518 0.949 . S
C1524 C1528 1.368 . S
C1525 C1506 1.429 . S
C1525 C1519 1.429 . S
C1525 C1526 1.523 . S
C1526 C1507 1.368 . S
C1526 C1520 1.368 . S
C1526 C1525 1.523 . S
C1527 C1511 1.429 . S
C1527 C1523 1.429 . S
C1527 C1528 1.523 . S
C1528 C1512 1.368 . S
C1528 C1524 1.368 . S
C1528 C1527 1.523 . S
H1529 C1504 0.950 . S
H1530 C1506 0.950 . S
H1531 C1507 0.949 . S
H1532 C1509 0.950 . S
H1533 C1511 0.950 . S
C1534 C1535 1.349 . S
C1534 C1536 1.327 . S
C1534 H1559 0.950 . S
C1535 C1534 1.349 . S
C1535 C1551 1.349 . S
C1536 C1534 1.327 . S
C1536 C1555 1.429 . S
C1536 H1560 0.950 . S
C1537 C1554 1.574 . S
C1537 C1556 1.368 . S
C1537 H1561 0.949 . S
H1538 C1542 0.949 . S
C1539 C1540 1.349 . S
C1539 C1541 1.327 . S
C1539 H1562 0.950 . S
C1540 C1539 1.349 . S
C1540 C1552 1.349 . S
C1541 C1539 1.327 . S
C1541 C1557 1.429 . S
C1541 H1563 0.950 . S
C1542 H1538 0.949 . S
C1542 C1550 1.574 . S
C1542 C1558 1.368 . S
H1543 C1551 0.950 . S
H1544 C1549 0.950 . S
H1545 C1550 0.949 . S
H1546 C1552 0.950 . S
H1547 C1553 0.950 . S
H1548 C1554 0.949 . S
C1549 H1544 0.950 . S
C1549 C1551 1.327 . S
C1549 C1555 1.429 . S
C1550 C1542 1.574 . S
C1550 H1545 0.949 . S
C1550 C1556 1.368 . S
C1551 C1535 1.349 . S
C1551 H1543 0.950 . S
C1551 C1549 1.327 . S
C1552 C1540 1.349 . S
C1552 H1546 0.950 . S
C1552 C1553 1.327 . S
C1553 H1547 0.950 . S
C1553 C1552 1.327 . S
C1553 C1557 1.429 . S
C1554 C1537 1.574 . S
C1554 H1548 0.949 . S
C1554 C1558 1.368 . S
C1555 C1536 1.429 . S
C1555 C1549 1.429 . S
C1555 C1556 1.523 . S
C1556 C1537 1.368 . S
C1556 C1550 1.368 . S
C1556 C1555 1.523 . S
C1557 C1541 1.429 . S
C1557 C1553 1.429 . S
C1557 C1558 1.523 . S
C1558 C1542 1.368 . S
C1558 C1554 1.368 . S
C1558 C1557 1.523 . S
H1559 C1534 0.950 . S
H1560 C1536 0.950 . S
H1561 C1537 0.949 . S
H1562 C1539 0.950 . S
H1563 C1541 0.950 . S
C1564 C1565 1.349 . S
C1564 C1566 1.327 . S
C1564 H1589 0.950 . S
C1565 C1564 1.349 . S
C1565 C1581 1.349 . S
C1566 C1564 1.327 . S
C1566 C1585 1.429 . S
C1566 H1590 0.950 . S
C1567 C1584 1.574 . S
C1567 C1586 1.368 . S
C1567 H1591 0.949 . S
H1568 C1572 0.949 . S
C1569 C1570 1.349 . S
C1569 C1571 1.327 . S
C1569 H1592 0.950 . S
C1570 C1569 1.349 . S
C1570 C1582 1.349 . S
C1571 C1569 1.327 . S
C1571 C1587 1.429 . S
C1571 H1593 0.950 . S
C1572 H1568 0.949 . S
C1572 C1580 1.574 . S
C1572 C1588 1.368 . S
H1573 C1581 0.950 . S
H1574 C1579 0.950 . S
H1575 C1580 0.949 . S
H1576 C1582 0.950 . S
H1577 C1583 0.950 . S
H1578 C1584 0.949 . S
C1579 H1574 0.950 . S
C1579 C1581 1.327 . S
C1579 C1585 1.429 . S
C1580 C1572 1.574 . S
C1580 H1575 0.949 . S
C1580 C1586 1.368 . S
C1581 C1565 1.349 . S
C1581 H1573 0.950 . S
C1581 C1579 1.327 . S
C1582 C1570 1.349 . S
C1582 H1576 0.950 . S
C1582 C1583 1.327 . S
C1583 H1577 0.950 . S
C1583 C1582 1.327 . S
C1583 C1587 1.429 . S
C1584 C1567 1.574 . S
C1584 H1578 0.949 . S
C1584 C1588 1.368 . S
C1585 C1566 1.429 . S
C1585 C1579 1.429 . S
C1585 C1586 1.523 . S
C1586 C1567 1.368 . S
C1586 C1580 1.368 . S
C1586 C1585 1.523 . S
C1587 C1571 1.429 . S
C1587 C1583 1.429 . S
C1587 C1588 1.523 . S
C1588 C1572 1.368 . S
C1588 C1584 1.368 . S
C1588 C1587 1.523 . S
H1589 C1564 0.950 . S
H1590 C1566 0.950 . S
H1591 C1567 0.949 . S
H1592 C1569 0.950 . S
H1593 C1571 0.950 . S
C1594 C1595 1.349 . S
C1594 C1596 1.327 . S
C1594 H1619 0.950 . S
C1595 C1594 1.349 . S
C1595 C1611 1.349 . S
C1596 C1594 1.327 . S
C1596 C1615 1.429 . S
C1596 H1620 0.950 . S
C1597 C1614 1.574 . S
C1597 C1616 1.368 . S
C1597 H1621 0.949 . S
H1598 C1602 0.949 . S
C1599 C1600 1.349 . S
C1599 C1601 1.327 . S
C1599 H1622 0.950 . S
C1600 C1599 1.349 . S
C1600 C1612 1.349 . S
C1601 C1599 1.327 . S
C1601 C1617 1.429 . S
C1601 H1623 0.950 . S
C1602 H1598 0.949 . S
C1602 C1610 1.574 . S
C1602 C1618 1.368 . S
H1603 C1611 0.950 . S
H1604 C1609 0.950 . S
H1605 C1610 0.949 . S
H1606 C1612 0.950 . S
H1607 C1613 0.950 . S
H1608 C1614 0.949 . S
C1609 H1604 0.950 . S
C1609 C1611 1.327 . S
C1609 C1615 1.429 . S
C1610 C1602 1.574 . S
C1610 H1605 0.949 . S
C1610 C1616 1.368 . S
C1611 C1595 1.349 . S
C1611 H1603 0.950 . S
C1611 C1609 1.327 . S
C1612 C1600 1.349 . S
C1612 H1606 0.950 . S
C1612 C1613 1.327 . S
C1613 H1607 0.950 . S
C1613 C1612 1.327 . S
C1613 C1617 1.429 . S
C1614 C1597 1.574 . S
C1614 H1608 0.949 . S
C1614 C1618 1.368 . S
C1615 C1596 1.429 . S
C1615 C1609 1.429 . S
C1615 C1616 1.523 . S
C1616 C1597 1.368 . S
C1616 C1610 1.368 . S
C1616 C1615 1.523 . S
C1617 C1601 1.429 . S
C1617 C1613 1.429 . S
C1617 C1618 1.523 . S
C1618 C1602 1.368 . S
C1618 C1614 1.368 . S
C1618 C1617 1.523 . S
H1619 C1594 0.950 . S
H1620 C1596 0.950 . S
H1621 C1597 0.949 . S
H1622 C1599 0.950 . S
H1623 C1601 0.950 . S
C1624 C1625 1.349 . S
C1624 C1626 1.327 . S
C1624 H1649 0.950 . S
C1625 C1624 1.349 . S
C1625 C1641 1.349 . S
C1626 C1624 1.327 . S
C1626 C1645 1.429 . S
C1626 H1650 0.950 . S
C1627 C1644 1.574 . S
C1627 C1646 1.368 . S
C1627 H1651 0.949 . S
H1628 C1632 0.949 . S
C1629 C1630 1.349 . S
C1629 C1631 1.327 . S
C1629 H1652 0.950 . S
C1630 C1629 1.349 . S
C1630 C1642 1.349 . S
C1631 C1629 1.327 . S
C1631 C1647 1.429 . S
C1631 H1653 0.950 . S
C1632 H1628 0.949 . S
C1632 C1640 1.574 . S
C1632 C1648 1.368 . S
H1633 C1641 0.950 . S
H1634 C1639 0.950 . S
H1635 C1640 0.949 . S
H1636 C1642 0.950 . S
H1637 C1643 0.950 . S
H1638 C1644 0.949 . S
C1639 H1634 0.950 . S
C1639 C1641 1.327 . S
C1639 C1645 1.429 . S
C1640 C1632 1.574 . S
C1640 H1635 0.949 . S
C1640 C1646 1.368 . S
C1641 C1625 1.349 . S
C1641 H1633 0.950 . S
C1641 C1639 1.327 . S
C1642 C1630 1.349 . S
C1642 H1636 0.950 . S
C1642 C1643 1.327 . S
C1643 H1637 0.950 . S
C1643 C1642 1.327 . S
C1643 C1647 1.429 . S
C1644 C1627 1.574 . S
C1644 H1638 0.949 . S
C1644 C1648 1.368 . S
C1645 C1626 1.429 . S
C1645 C1639 1.429 . S
C1645 C1646 1.523 . S
C1646 C1627 1.368 . S
C1646 C1640 1.368 . S
C1646 C1645 1.523 . S
C1647 C1631 1.429 . S
C1647 C1643 1.429 . S
C1647 C1648 1.523 . S
C1648 C1632 1.368 . S
C1648 C1644 1.368 . S
C1648 C1647 1.523 . S
H1649 C1624 0.950 . S
H1650 C1626 0.950 . S
H1651 C1627 0.949 . S
H1652 C1629 0.950 . S
H1653 C1631 0.950 . S
C1654 C1655 1.349 . S
C1654 C1656 1.327 . S
C1654 H1679 0.950 . S
C1655 C1654 1.349 . S
C1655 C1671 1.349 . S
C1656 C1654 1.327 . S
C1656 C1675 1.429 . S
C1656 H1680 0.950 . S
C1657 C1674 1.574 . S
C1657 C1676 1.368 . S
C1657 H1681 0.949 . S
H1658 C1662 0.949 . S
C1659 C1660 1.349 . S
C1659 C1661 1.327 . S
C1659 H1682 0.950 . S
C1660 C1659 1.349 . S
C1660 C1672 1.349 . S
C1661 C1659 1.327 . S
C1661 C1677 1.429 . S
C1661 H1683 0.950 . S
C1662 H1658 0.949 . S
C1662 C1670 1.574 . S
C1662 C1678 1.368 . S
H1663 C1671 0.950 . S
H1664 C1669 0.950 . S
H1665 C1670 0.949 . S
H1666 C1672 0.950 . S
H1667 C1673 0.950 . S
H1668 C1674 0.949 . S
C1669 H1664 0.950 . S
C1669 C1671 1.327 . S
C1669 C1675 1.429 . S
C1670 C1662 1.574 . S
C1670 H1665 0.949 . S
C1670 C1676 1.368 . S
C1671 C1655 1.349 . S
C1671 H1663 0.950 . S
C1671 C1669 1.327 . S
C1672 C1660 1.349 . S
C1672 H1666 0.950 . S
C1672 C1673 1.327 . S
C1673 H1667 0.950 . S
C1673 C1672 1.327 . S
C1673 C1677 1.429 . S
C1674 C1657 1.574 . S
C1674 H1668 0.949 . S
C1674 C1678 1.368 . S
C1675 C1656 1.429 . S
C1675 C1669 1.429 . S
C1675 C1676 1.523 . S
C1676 C1657 1.368 . S
C1676 C1670 1.368 . S
C1676 C1675 1.523 . S
C1677 C1661 1.429 . S
C1677 C1673 1.429 . S
C1677 C1678 1.523 . S
C1678 C1662 1.368 . S
C1678 C1674 1.368 . S
C1678 C1677 1.523 . S
H1679 C1654 0.950 . S
H1680 C1656 0.950 . S
H1681 C1657 0.949 . S
H1682 C1659 0.950 . S
H1683 C1661 0.950 . S
C1684 C1685 1.349 . S
C1684 C1686 1.327 . S
C1684 H1709 0.950 . S
C1685 C1684 1.349 . S
C1685 C1701 1.349 . S
C1686 C1684 1.327 . S
C1686 C1705 1.429 . S
C1686 H1710 0.950 . S
C1687 C1704 1.574 . S
C1687 C1706 1.368 . S
C1687 H1711 0.949 . S
H1688 C1692 0.949 . S
C1689 C1690 1.349 . S
C1689 C1691 1.327 . S
C1689 H1712 0.950 . S
C1690 C1689 1.349 . S
C1690 C1702 1.349 . S
C1691 C1689 1.327 . S
C1691 C1707 1.429 . S
C1691 H1713 0.950 . S
C1692 H1688 0.949 . S
C1692 C1700 1.574 . S
C1692 C1708 1.368 . S
H1693 C1701 0.950 . S
H1694 C1699 0.950 . S
H1695 C1700 0.949 . S
H1696 C1702 0.950 . S
H1697 C1703 0.950 . S
H1698 C1704 0.949 . S
C1699 H1694 0.950 . S
C1699 C1701 1.327 . S
C1699 C1705 1.429 . S
C1700 C1692 1.574 . S
C1700 H1695 0.949 . S
C1700 C1706 1.368 . S
C1701 C1685 1.349 . S
C1701 H1693 0.950 . S
C1701 C1699 1.327 . S
C1702 C1690 1.349 . S
C1702 H1696 0.950 . S
C1702 C1703 1.327 . S
C1703 H1697 0.950 . S
C1703 C1702 1.327 . S
C1703 C1707 1.429 . S
C1704 C1687 1.574 . S
C1704 H1698 0.949 . S
C1704 C1708 1.368 . S
C1705 C1686 1.429 . S
C1705 C1699 1.429 . S
C1705 C1706 1.523 . S
C1706 C1687 1.368 . S
C1706 C1700 1.368 . S
C1706 C1705 1.523 . S
C1707 C1691 1.429 . S
C1707 C1703 1.429 . S
C1707 C1708 1.523 . S
C1708 C1692 1.368 . S
C1708 C1704 1.368 . S
C1708 C1707 1.523 . S
H1709 C1684 0.950 . S
H1710 C1686 0.950 . S
H1711 C1687 0.949 . S
H1712 C1689 0.950 . S
H1713 C1691 0.950 . S
C1714 C1715 1.349 . S
C1714 C1716 1.327 . S
C1714 H1739 0.950 . S
C1715 C1714 1.349 . S
C1715 C1731 1.349 . S
C1716 C1714 1.327 . S
C1716 C1735 1.429 . S
C1716 H1740 0.950 . S
C1717 C1734 1.574 . S
C1717 C1736 1.368 . S
C1717 H1741 0.949 . S
H1718 C1722 0.949 . S
C1719 C1720 1.349 . S
C1719 C1721 1.327 . S
C1719 H1742 0.950 . S
C1720 C1719 1.349 . S
C1720 C1732 1.349 . S
C1721 C1719 1.327 . S
C1721 C1737 1.429 . S
C1721 H1743 0.950 . S
C1722 H1718 0.949 . S
C1722 C1730 1.574 . S
C1722 C1738 1.368 . S
H1723 C1731 0.950 . S
H1724 C1729 0.950 . S
H1725 C1730 0.949 . S
H1726 C1732 0.950 . S
H1727 C1733 0.950 . S
H1728 C1734 0.949 . S
C1729 H1724 0.950 . S
C1729 C1731 1.327 . S
C1729 C1735 1.429 . S
C1730 C1722 1.574 . S
C1730 H1725 0.949 . S
C1730 C1736 1.368 . S
C1731 C1715 1.349 . S
C1731 H1723 0.950 . S
C1731 C1729 1.327 . S
C1732 C1720 1.349 . S
C1732 H1726 0.950 . S
C1732 C1733 1.327 . S
C1733 H1727 0.950 . S
C1733 C1732 1.327 . S
C1733 C1737 1.429 . S
C1734 C1717 1.574 . S
C1734 H1728 0.949 . S
C1734 C1738 1.368 . S
C1735 C1716 1.429 . S
C1735 C1729 1.429 . S
C1735 C1736 1.523 . S
C1736 C1717 1.368 . S
C1736 C1730 1.368 . S
C1736 C1735 1.523 . S
C1737 C1721 1.429 . S
C1737 C1733 1.429 . S
C1737 C1738 1.523 . S
C1738 C1722 1.368 . S
C1738 C1734 1.368 . S
C1738 C1737 1.523 . S
H1739 C1714 0.950 . S
H1740 C1716 0.950 . S
H1741 C1717 0.949 . S
H1742 C1719 0.950 . S
H1743 C1721 0.950 . S
C545 C413 1.486 . S
C550 C9 1.408 . S
C575 C43 1.300 . S
C580 C447 1.391 . S
C605 C77 1.400 . S
C610 C481 1.478 . S
C635 C107 1.399 . S
C640 C519 1.302 . S
C665 C281 1.405 . S
C670 C141 1.480 . S
C695 C311 1.571 . S
C700 C179 1.467 . S
C725 C209 1.472 . S
C730 C349 1.390 . S
C755 C383 1.479 . S
C760 C243 1.584 . S
C785 C33 1.447 . S
C790 C509 1.447 . S
C815 C543 1.610 . S
C820 C67 1.608 . S
C845 C441 1.433 . S
C850 C101 1.435 . S
C875 C475 1.614 . S
C880 C135 1.616 . S
C905 C373 1.838 . S
C910 C169 1.837 . S
C935 C407 1.618 . S
C940 C203 1.617 . S
C965 C305 1.840 . S
C970 C237 1.840 . S
C995 C339 1.624 . S
C1000 C271 1.623 . S
C1025 C20 1.368 . S
C1030 C342 1.373 . S
C1055 C376 1.407 . S
C1060 C54 1.434 . S
C1085 C274 1.432 . S
C1090 C88 1.424 . S
C1115 C326 1.403 . S
C1120 C104 1.382 . S
C1145 C138 1.377 . S
C1150 C496 1.366 . S
C1175 C190 1.365 . S
C1180 C512 1.339 . S
C1205 C428 1.324 . S
C1210 C206 1.335 . S
C1235 C240 1.311 . S
C1240 C462 1.329 . S
C1265 C417 1.371 . S
C1270 C5 1.448 . S
C1295 C39 1.544 . S
C1300 C451 1.441 . S
C1325 C73 1.446 . S
C1330 C485 1.360 . S
C1355 C515 1.532 . S
C1360 C111 1.447 . S
C1385 C277 1.442 . S
C1390 C145 1.363 . S
C1415 C175 1.350 . S
C1420 C315 1.269 . S
C1445 C345 1.452 . S
C1450 C213 1.379 . S
C1475 C379 1.350 . S
C1480 C247 1.265 . S
C1505 C172 1.575 . S
C1510 C2 1.574 . S
C1535 C224 1.615 . S
C1540 C36 1.622 . S
C1565 C70 1.123 . S
C1570 C258 1.120 . S
C1595 C156 1.204 . S
C1600 C122 1.202 . S
C1625 C292 1.641 . S
C1630 C444 1.661 . S
C1655 C478 1.495 . S
C1660 C308 1.493 . S
C1685 C530 1.292 . S
C1690 C360 1.287 . S
C1715 C394 1.193 . S
C1720 C410 1.210 . S
