# Generated by pormake.
# Topology ull, (4)-cn, num edge types: 1
# Building blocks:
#     Node 0, Type 0, BuildingBlock: CEKHIL_clean_sbu_0, # of connection points: 4
#     Node 1, Type 0, BuildingBlock: CEKHIL_clean_sbu_0, # of connection points: 4
#     Node 2, Type 0, BuildingBlock: CEKHIL_clean_sbu_0, # of connection points: 4
#     Node 3, Type 0, BuildingBlock: CEKHIL_clean_sbu_0, # of connection points: 4
#     Node 4, Type 0, BuildingBlock: CEKHIL_clean_sbu_0, # of connection points: 4
#     Node 5, Type 0, BuildingBlock: CEKHIL_clean_sbu_0, # of connection points: 4
#     Node 6, Type 0, BuildingBlock: CEKHIL_clean_sbu_0, # of connection points: 4
#     Node 7, Type 0, BuildingBlock: CEKHIL_clean_sbu_0, # of connection points: 4
#     Node 8, Type 0, BuildingBlock: CEKHIL_clean_sbu_0, # of connection points: 4
#     Node 9, Type 0, BuildingBlock: CEKHIL_clean_sbu_0, # of connection points: 4
#     Node 10, Type 0, BuildingBlock: CEKHIL_clean_sbu_0, # of connection points: 4
#     Node 11, Type 0, BuildingBlock: CEKHIL_clean_sbu_0, # of connection points: 4
#     Node 12, Type 0, BuildingBlock: CEKHIL_clean_sbu_0, # of connection points: 4
#     Node 13, Type 0, BuildingBlock: CEKHIL_clean_sbu_0, # of connection points: 4
#     Node 14, Type 0, BuildingBlock: CEKHIL_clean_sbu_0, # of connection points: 4
#     Node 15, Type 0, BuildingBlock: CEKHIL_clean_sbu_0, # of connection points: 4
#     Node 16, Type 0, BuildingBlock: CEKHIL_clean_sbu_0, # of connection points: 4
#     Node 17, Type 0, BuildingBlock: CEKHIL_clean_sbu_0, # of connection points: 4
#     Node 18, Type 0, BuildingBlock: CEKHIL_clean_sbu_0, # of connection points: 4
#     Node 19, Type 0, BuildingBlock: CEKHIL_clean_sbu_0, # of connection points: 4
#     Node 20, Type 0, BuildingBlock: CEKHIL_clean_sbu_0, # of connection points: 4
#     Node 21, Type 0, BuildingBlock: CEKHIL_clean_sbu_0, # of connection points: 4
#     Node 22, Type 0, BuildingBlock: CEKHIL_clean_sbu_0, # of connection points: 4
#     Node 23, Type 0, BuildingBlock: CEKHIL_clean_sbu_0, # of connection points: 4
#     Node 24, Type 0, BuildingBlock: CEKHIL_clean_sbu_0, # of connection points: 4
#     Node 25, Type 0, BuildingBlock: CEKHIL_clean_sbu_0, # of connection points: 4
#     Node 26, Type 0, BuildingBlock: CEKHIL_clean_sbu_0, # of connection points: 4
#     Node 27, Type 0, BuildingBlock: CEKHIL_clean_sbu_0, # of connection points: 4
#     Node 28, Type 0, BuildingBlock: CEKHIL_clean_sbu_0, # of connection points: 4
#     Node 29, Type 0, BuildingBlock: CEKHIL_clean_sbu_0, # of connection points: 4
#     Node 30, Type 0, BuildingBlock: CEKHIL_clean_sbu_0, # of connection points: 4
#     Node 31, Type 0, BuildingBlock: CEKHIL_clean_sbu_0, # of connection points: 4
#     Node 32, Type 0, BuildingBlock: CEKHIL_clean_sbu_0, # of connection points: 4
#     Node 33, Type 0, BuildingBlock: CEKHIL_clean_sbu_0, # of connection points: 4
#     Node 34, Type 0, BuildingBlock: CEKHIL_clean_sbu_0, # of connection points: 4
#     Node 35, Type 0, BuildingBlock: CEKHIL_clean_sbu_0, # of connection points: 4
#     Node 36, Type 0, BuildingBlock: CEKHIL_clean_sbu_0, # of connection points: 4
#     Node 37, Type 0, BuildingBlock: CEKHIL_clean_sbu_0, # of connection points: 4
#     Node 38, Type 0, BuildingBlock: CEKHIL_clean_sbu_0, # of connection points: 4
#     Node 39, Type 0, BuildingBlock: CEKHIL_clean_sbu_0, # of connection points: 4
#     Node 40, Type 0, BuildingBlock: CEKHIL_clean_sbu_0, # of connection points: 4
#     Node 41, Type 0, BuildingBlock: CEKHIL_clean_sbu_0, # of connection points: 4
#     Node 42, Type 0, BuildingBlock: CEKHIL_clean_sbu_0, # of connection points: 4
#     Node 43, Type 0, BuildingBlock: CEKHIL_clean_sbu_0, # of connection points: 4
#     Node 44, Type 0, BuildingBlock: CEKHIL_clean_sbu_0, # of connection points: 4
#     Node 45, Type 0, BuildingBlock: CEKHIL_clean_sbu_0, # of connection points: 4
#     Node 46, Type 0, BuildingBlock: CEKHIL_clean_sbu_0, # of connection points: 4
#     Node 47, Type 0, BuildingBlock: CEKHIL_clean_sbu_0, # of connection points: 4
#     Edge 48, Type (0, 0), BuildingBlock: AJUNOK_clean_linker_0, # of connection points: 2
#     Edge 49, Type (0, 0), BuildingBlock: AJUNOK_clean_linker_0, # of connection points: 2
#     Edge 50, Type (0, 0), BuildingBlock: AJUNOK_clean_linker_0, # of connection points: 2
#     Edge 51, Type (0, 0), BuildingBlock: AJUNOK_clean_linker_0, # of connection points: 2
#     Edge 52, Type (0, 0), BuildingBlock: AJUNOK_clean_linker_0, # of connection points: 2
#     Edge 53, Type (0, 0), BuildingBlock: AJUNOK_clean_linker_0, # of connection points: 2
#     Edge 54, Type (0, 0), BuildingBlock: AJUNOK_clean_linker_0, # of connection points: 2
#     Edge 55, Type (0, 0), BuildingBlock: AJUNOK_clean_linker_0, # of connection points: 2
#     Edge 56, Type (0, 0), BuildingBlock: AJUNOK_clean_linker_0, # of connection points: 2
#     Edge 57, Type (0, 0), BuildingBlock: AJUNOK_clean_linker_0, # of connection points: 2
#     Edge 58, Type (0, 0), BuildingBlock: AJUNOK_clean_linker_0, # of connection points: 2
#     Edge 59, Type (0, 0), BuildingBlock: AJUNOK_clean_linker_0, # of connection points: 2
#     Edge 60, Type (0, 0), BuildingBlock: AJUNOK_clean_linker_0, # of connection points: 2
#     Edge 61, Type (0, 0), BuildingBlock: AJUNOK_clean_linker_0, # of connection points: 2
#     Edge 62, Type (0, 0), BuildingBlock: AJUNOK_clean_linker_0, # of connection points: 2
#     Edge 63, Type (0, 0), BuildingBlock: AJUNOK_clean_linker_0, # of connection points: 2
#     Edge 64, Type (0, 0), BuildingBlock: AJUNOK_clean_linker_0, # of connection points: 2
#     Edge 65, Type (0, 0), BuildingBlock: AJUNOK_clean_linker_0, # of connection points: 2
#     Edge 66, Type (0, 0), BuildingBlock: AJUNOK_clean_linker_0, # of connection points: 2
#     Edge 67, Type (0, 0), BuildingBlock: AJUNOK_clean_linker_0, # of connection points: 2
#     Edge 68, Type (0, 0), BuildingBlock: AJUNOK_clean_linker_0, # of connection points: 2
#     Edge 69, Type (0, 0), BuildingBlock: AJUNOK_clean_linker_0, # of connection points: 2
#     Edge 70, Type (0, 0), BuildingBlock: AJUNOK_clean_linker_0, # of connection points: 2
#     Edge 71, Type (0, 0), BuildingBlock: AJUNOK_clean_linker_0, # of connection points: 2
#     Edge 72, Type (0, 0), BuildingBlock: AJUNOK_clean_linker_0, # of connection points: 2
#     Edge 73, Type (0, 0), BuildingBlock: AJUNOK_clean_linker_0, # of connection points: 2
#     Edge 74, Type (0, 0), BuildingBlock: AJUNOK_clean_linker_0, # of connection points: 2
#     Edge 75, Type (0, 0), BuildingBlock: AJUNOK_clean_linker_0, # of connection points: 2
#     Edge 76, Type (0, 0), BuildingBlock: AJUNOK_clean_linker_0, # of connection points: 2
#     Edge 77, Type (0, 0), BuildingBlock: AJUNOK_clean_linker_0, # of connection points: 2
#     Edge 78, Type (0, 0), BuildingBlock: AJUNOK_clean_linker_0, # of connection points: 2
#     Edge 79, Type (0, 0), BuildingBlock: AJUNOK_clean_linker_0, # of connection points: 2
#     Edge 80, Type (0, 0), BuildingBlock: AJUNOK_clean_linker_0, # of connection points: 2
#     Edge 81, Type (0, 0), BuildingBlock: AJUNOK_clean_linker_0, # of connection points: 2
#     Edge 82, Type (0, 0), BuildingBlock: AJUNOK_clean_linker_0, # of connection points: 2
#     Edge 83, Type (0, 0), BuildingBlock: AJUNOK_clean_linker_0, # of connection points: 2
#     Edge 84, Type (0, 0), BuildingBlock: AJUNOK_clean_linker_0, # of connection points: 2
#     Edge 85, Type (0, 0), BuildingBlock: AJUNOK_clean_linker_0, # of connection points: 2
#     Edge 86, Type (0, 0), BuildingBlock: AJUNOK_clean_linker_0, # of connection points: 2
#     Edge 87, Type (0, 0), BuildingBlock: AJUNOK_clean_linker_0, # of connection points: 2
#     Edge 88, Type (0, 0), BuildingBlock: AJUNOK_clean_linker_0, # of connection points: 2
#     Edge 89, Type (0, 0), BuildingBlock: AJUNOK_clean_linker_0, # of connection points: 2
#     Edge 90, Type (0, 0), BuildingBlock: AJUNOK_clean_linker_0, # of connection points: 2
#     Edge 91, Type (0, 0), BuildingBlock: AJUNOK_clean_linker_0, # of connection points: 2
#     Edge 92, Type (0, 0), BuildingBlock: AJUNOK_clean_linker_0, # of connection points: 2
#     Edge 93, Type (0, 0), BuildingBlock: AJUNOK_clean_linker_0, # of connection points: 2
#     Edge 94, Type (0, 0), BuildingBlock: AJUNOK_clean_linker_0, # of connection points: 2
#     Edge 95, Type (0, 0), BuildingBlock: AJUNOK_clean_linker_0, # of connection points: 2
#     Edge 96, Type (0, 0), BuildingBlock: AJUNOK_clean_linker_0, # of connection points: 2
#     Edge 97, Type (0, 0), BuildingBlock: AJUNOK_clean_linker_0, # of connection points: 2
#     Edge 98, Type (0, 0), BuildingBlock: AJUNOK_clean_linker_0, # of connection points: 2
#     Edge 99, Type (0, 0), BuildingBlock: AJUNOK_clean_linker_0, # of connection points: 2
#     Edge 100, Type (0, 0), BuildingBlock: AJUNOK_clean_linker_0, # of connection points: 2
#     Edge 101, Type (0, 0), BuildingBlock: AJUNOK_clean_linker_0, # of connection points: 2
#     Edge 102, Type (0, 0), BuildingBlock: AJUNOK_clean_linker_0, # of connection points: 2
#     Edge 103, Type (0, 0), BuildingBlock: AJUNOK_clean_linker_0, # of connection points: 2
#     Edge 104, Type (0, 0), BuildingBlock: AJUNOK_clean_linker_0, # of connection points: 2
#     Edge 105, Type (0, 0), BuildingBlock: AJUNOK_clean_linker_0, # of connection points: 2
#     Edge 106, Type (0, 0), BuildingBlock: AJUNOK_clean_linker_0, # of connection points: 2
#     Edge 107, Type (0, 0), BuildingBlock: AJUNOK_clean_linker_0, # of connection points: 2
#     Edge 108, Type (0, 0), BuildingBlock: AJUNOK_clean_linker_0, # of connection points: 2
#     Edge 109, Type (0, 0), BuildingBlock: AJUNOK_clean_linker_0, # of connection points: 2
#     Edge 110, Type (0, 0), BuildingBlock: AJUNOK_clean_linker_0, # of connection points: 2
#     Edge 111, Type (0, 0), BuildingBlock: AJUNOK_clean_linker_0, # of connection points: 2
#     Edge 112, Type (0, 0), BuildingBlock: AJUNOK_clean_linker_0, # of connection points: 2
#     Edge 113, Type (0, 0), BuildingBlock: AJUNOK_clean_linker_0, # of connection points: 2
#     Edge 114, Type (0, 0), BuildingBlock: AJUNOK_clean_linker_0, # of connection points: 2
#     Edge 115, Type (0, 0), BuildingBlock: AJUNOK_clean_linker_0, # of connection points: 2
#     Edge 116, Type (0, 0), BuildingBlock: AJUNOK_clean_linker_0, # of connection points: 2
#     Edge 117, Type (0, 0), BuildingBlock: AJUNOK_clean_linker_0, # of connection points: 2
#     Edge 118, Type (0, 0), BuildingBlock: AJUNOK_clean_linker_0, # of connection points: 2
#     Edge 119, Type (0, 0), BuildingBlock: AJUNOK_clean_linker_0, # of connection points: 2
#     Edge 120, Type (0, 0), BuildingBlock: AJUNOK_clean_linker_0, # of connection points: 2
#     Edge 121, Type (0, 0), BuildingBlock: AJUNOK_clean_linker_0, # of connection points: 2
#     Edge 122, Type (0, 0), BuildingBlock: AJUNOK_clean_linker_0, # of connection points: 2
#     Edge 123, Type (0, 0), BuildingBlock: AJUNOK_clean_linker_0, # of connection points: 2
#     Edge 124, Type (0, 0), BuildingBlock: AJUNOK_clean_linker_0, # of connection points: 2
#     Edge 125, Type (0, 0), BuildingBlock: AJUNOK_clean_linker_0, # of connection points: 2
#     Edge 126, Type (0, 0), BuildingBlock: AJUNOK_clean_linker_0, # of connection points: 2
#     Edge 127, Type (0, 0), BuildingBlock: AJUNOK_clean_linker_0, # of connection points: 2
#     Edge 128, Type (0, 0), BuildingBlock: AJUNOK_clean_linker_0, # of connection points: 2
#     Edge 129, Type (0, 0), BuildingBlock: AJUNOK_clean_linker_0, # of connection points: 2
#     Edge 130, Type (0, 0), BuildingBlock: AJUNOK_clean_linker_0, # of connection points: 2
#     Edge 131, Type (0, 0), BuildingBlock: AJUNOK_clean_linker_0, # of connection points: 2
#     Edge 132, Type (0, 0), BuildingBlock: AJUNOK_clean_linker_0, # of connection points: 2
#     Edge 133, Type (0, 0), BuildingBlock: AJUNOK_clean_linker_0, # of connection points: 2
#     Edge 134, Type (0, 0), BuildingBlock: AJUNOK_clean_linker_0, # of connection points: 2
#     Edge 135, Type (0, 0), BuildingBlock: AJUNOK_clean_linker_0, # of connection points: 2
#     Edge 136, Type (0, 0), BuildingBlock: AJUNOK_clean_linker_0, # of connection points: 2
#     Edge 137, Type (0, 0), BuildingBlock: AJUNOK_clean_linker_0, # of connection points: 2
#     Edge 138, Type (0, 0), BuildingBlock: AJUNOK_clean_linker_0, # of connection points: 2
#     Edge 139, Type (0, 0), BuildingBlock: AJUNOK_clean_linker_0, # of connection points: 2
#     Edge 140, Type (0, 0), BuildingBlock: AJUNOK_clean_linker_0, # of connection points: 2
#     Edge 141, Type (0, 0), BuildingBlock: AJUNOK_clean_linker_0, # of connection points: 2
#     Edge 142, Type (0, 0), BuildingBlock: AJUNOK_clean_linker_0, # of connection points: 2
#     Edge 143, Type (0, 0), BuildingBlock: AJUNOK_clean_linker_0, # of connection points: 2
# Relax obj value: 0.022
# Max RMSD: 0.081
# Mean RMSD: 0.081
data_MOF--net-ull--node1-CEKHIL_clean_sbu_0--edge1-AJUNOK_clean_linker_0
_symmetry_space_group_name_H-M    P1
_symmetry_Int_Tables_number       1
_symmetry_cell_setting            triclinic
loop_
_symmetry_equiv_pos_as_xyz
'x, y, z'
_cell_length_a     44.548659
_cell_length_b     44.506698
_cell_length_c     44.548961
_cell_angle_alpha  89.986758
_cell_angle_beta   89.976729
_cell_angle_gamma 90.028273
loop_
_atom_site_label
_atom_site_type_symbol
_atom_site_fract_x
_atom_site_fract_y
_atom_site_fract_z
_atom_type_partial_charge
Co0 Co 0.04911 0.34521 0.17289 0.0
O1 O 0.0829 0.35143 0.19859 0.0
O2 O 0.04009 0.37602 0.20291 0.0
C3 C 0.07578 0.34711 0.12941 0.0
O4 O 0.00969 0.34417 0.1491 0.0
Co5 Co 0.04964 0.28683 0.13331 0.0
O6 O 0.01141 0.30369 0.11847 0.0
C7 C 0.02984 0.2834 0.19684 0.0
C8 C 0.06751 0.37194 0.21224 0.0
C9 C 0.99814 0.32677 0.12895 0.0
O10 O 0.03315 0.31203 0.20025 0.0
O11 O 0.0372 0.26941 0.17281 0.0
O12 O 0.06725 0.37171 0.1424 0.0
O13 O 0.07057 0.32287 0.14437 0.0
Co14 Co 0.66718 0.0496 0.17117 0.0
O15 O 0.66183 0.08396 0.19642 0.0
O16 O 0.63407 0.04299 0.19923 0.0
C17 C 0.67017 0.07688 0.12807 0.0
O18 O 0.66617 0.01002 0.14764 0.0
Co19 Co 0.72522 0.04271 0.13294 0.0
O20 O 0.70077 0.01283 0.11085 0.0
C21 C 0.72563 0.02516 0.19742 0.0
C22 C 0.63936 0.07018 0.20869 0.0
C23 C 0.67851 1.00001 0.1234 0.0
O24 O 0.69755 0.03173 0.20033 0.0
O25 O 0.74048 0.0293 0.17313 0.0
O26 O 0.64424 0.06955 0.13916 0.0
O27 O 0.69295 0.06917 0.14421 0.0
Co28 Co 0.96048 0.66793 0.17689 0.0
O29 O 0.92596 0.65983 0.20086 0.0
O30 O 0.9687 0.6353 0.2054 0.0
C31 C 0.93436 0.6687 0.13309 0.0
O32 O 1.00048 0.67097 0.15416 0.0
Co33 Co 0.96044 0.72842 0.1414 0.0
O34 O 0.9974 0.71139 0.1236 0.0
C35 C 0.97242 0.72856 0.20666 0.0
C36 C 0.9409 0.63872 0.21397 0.0
C37 C 0.01135 0.68849 0.1337 0.0
O38 O 0.97439 0.69962 0.20681 0.0
O39 O 0.96424 0.74363 0.18357 0.0
O40 O 0.94375 0.64341 0.14413 0.0
O41 O 0.93921 0.69178 0.14983 0.0
Co42 Co 0.345 0.9591 0.17267 0.0
O43 O 0.35261 0.92447 0.19676 0.0
O44 O 0.37749 0.96707 0.20125 0.0
C45 C 0.34403 0.93365 0.12846 0.0
O46 O 0.34277 0.99909 0.14982 0.0
Co47 Co 0.28465 0.96017 0.13695 0.0
O48 O 0.30321 0.99598 0.1183 0.0
C49 C 0.28444 0.97293 0.20208 0.0
C50 C 0.37384 0.9393 0.20987 0.0
C51 C 0.32617 0.00974 0.12852 0.0
O52 O 0.31342 0.97364 0.20251 0.0
O53 O 0.26936 0.96505 0.1789 0.0
O54 O 0.36943 0.94201 0.13999 0.0
O55 O 0.32095 0.93846 0.14522 0.0
Co56 Co 0.0483 0.66396 0.83914 0.0
O57 O 0.08229 0.66043 0.813 0.0
O58 O 0.04199 0.63167 0.81017 0.0
C59 C 0.0756 0.66628 0.88218 0.0
O60 O 0.00934 0.66096 0.86352 0.0
Co61 Co 0.04054 0.72103 0.87883 0.0
O62 O 0.01234 0.69477 0.90103 0.0
C63 C 0.02212 0.72267 0.81473 0.0
C64 C 0.06874 0.63808 0.80021 0.0
C65 C 0.99986 0.6723 0.88848 0.0
O66 O 0.02909 0.69473 0.81119 0.0
O67 O 0.02637 0.73705 0.83927 0.0
O68 O 0.06939 0.64052 0.87005 0.0
O69 O 0.06739 0.68939 0.86672 0.0
Co70 Co 0.34323 0.05111 0.83722 0.0
O71 O 0.35008 0.08486 0.81151 0.0
O72 O 0.37501 0.04199 0.80838 0.0
C73 C 0.34273 0.07808 0.88061 0.0
O74 O 0.34198 0.01177 0.86118 0.0
Co75 Co 0.284 0.04991 0.87467 0.0
O76 O 0.30287 0.01425 0.89327 0.0
C77 C 0.28207 0.03632 0.80969 0.0
C78 C 0.37064 0.06912 0.79831 0.0
C79 C 0.32592 1.0009 0.88277 0.0
O80 O 0.31104 0.03548 0.80853 0.0
O81 O 0.26766 0.04455 0.83318 0.0
O82 O 0.36805 0.0696 0.86892 0.0
O83 O 0.31945 0.07233 0.86446 0.0
Co84 Co 0.9631 0.34666 0.83562 0.0
O85 O 0.93007 0.35268 0.80882 0.0
O86 O 0.97235 0.37872 0.80705 0.0
C87 C 0.93504 0.34579 0.87829 0.0
O88 O 1.00171 0.34601 0.86081 0.0
Co89 Co 0.96392 0.28719 0.87305 0.0
O90 O 0.99844 0.30681 0.89282 0.0
C91 C 0.98458 0.28639 0.8099 0.0
C92 C 0.94567 0.3737 0.79617 0.0
C93 C 0.01206 0.32986 0.88262 0.0
O94 O 0.98077 0.31505 0.80752 0.0
O95 O 0.97742 0.27133 0.83331 0.0
O96 O 0.94316 0.37122 0.86658 0.0
O97 O 0.94148 0.32247 0.86237 0.0
Co98 Co 0.66429 0.95896 0.83752 0.0
O99 O 0.65687 0.92478 0.81267 0.0
O100 O 0.63054 0.96673 0.81049 0.0
C101 C 0.66716 0.93199 0.88078 0.0
O102 O 0.66577 0.99833 0.86144 0.0
Co103 Co 0.72518 0.96137 0.8721 0.0
O104 O 0.70557 0.99553 0.89262 0.0
C105 C 0.72292 0.98043 0.80841 0.0
C106 C 0.63423 0.9391 0.80151 0.0
C107 C 0.68221 0.00891 0.88288 0.0
O108 O 0.6943 0.97596 0.80736 0.0
O109 O 0.73911 0.97439 0.83137 0.0
O110 O 0.64134 0.94011 0.87013 0.0
O111 O 0.6898 0.93807 0.86373 0.0
Co112 Co 0.17502 0.05196 0.34386 0.0
O113 O 0.2019 0.08489 0.35022 0.0
O114 O 0.20242 0.043 0.37695 0.0
C115 C 0.13297 0.08088 0.34109 0.0
O116 O 0.14967 0.01341 0.343 0.0
Co117 Co 0.13886 0.05046 0.2837 0.0
O118 O 0.11839 0.01624 0.30322 0.0
C119 C 0.20187 0.02882 0.28495 0.0
C120 C 0.2137 0.06954 0.37185 0.0
C121 C 0.12834 1.0028 0.32644 0.0
O122 O 0.20386 0.03356 0.31346 0.0
O123 O 0.17875 0.03561 0.26929 0.0
O124 O 0.14343 0.07256 0.36698 0.0
O125 O 0.14949 0.07361 0.31849 0.0
Co126 Co 0.96138 0.17383 0.34328 0.0
O127 O 0.92625 0.19739 0.35043 0.0
O128 O 0.96934 0.20451 0.37379 0.0
C129 C 0.93722 0.12913 0.34608 0.0
O130 O 1.00205 0.1523 0.34136 0.0
Co131 Co 0.9621 0.13419 0.28557 0.0
O132 O 1.00056 0.11984 0.30239 0.0
C133 C 0.97462 0.19941 0.28072 0.0
C134 C 0.94126 0.21207 0.37047 0.0
C135 C 0.01392 0.13167 0.32476 0.0
O136 O 0.97436 0.20206 0.30959 0.0
O137 O 0.96759 0.17494 0.26731 0.0
O138 O 0.94628 0.1424 0.37032 0.0
O139 O 0.94057 0.1442 0.32161 0.0
Co140 Co 0.83654 0.96297 0.34492 0.0
O141 O 0.81197 0.92837 0.35157 0.0
O142 O 0.80715 0.97093 0.37655 0.0
C143 C 0.88053 0.93725 0.34506 0.0
O144 O 0.8595 1.00288 0.34417 0.0
Co145 Co 0.87531 0.96624 0.2868 0.0
O146 O 0.89636 0.99804 0.3098 0.0
C147 C 0.80974 0.97712 0.28347 0.0
C148 C 0.79843 0.94326 0.37252 0.0
C149 C 0.88401 0.01192 0.33156 0.0
O150 O 0.80784 0.97763 0.3124 0.0
O151 O 0.834 0.97064 0.26943 0.0
O152 O 0.86831 0.94555 0.37017 0.0
O153 O 0.86469 0.9426 0.32143 0.0
Co154 Co 0.04984 0.84045 0.34699 0.0
O155 O 0.08344 0.81436 0.35268 0.0
O156 O 0.04221 0.81266 0.38023 0.0
C157 C 0.0774 0.88338 0.34348 0.0
O158 O 0.01093 0.86512 0.34677 0.0
Co159 Co 0.0467 0.87536 0.2861 0.0
O160 O 0.01198 0.89488 0.30565 0.0
C161 C 0.02697 0.81198 0.28857 0.0
C162 C 0.06879 0.80189 0.37443 0.0
C163 C 0.99957 0.88575 0.3298 0.0
O164 O 0.03147 0.81101 0.31716 0.0
O165 O 0.03339 0.83472 0.2722 0.0
O166 O 0.0701 0.87265 0.36959 0.0
O167 O 0.0703 0.86644 0.32113 0.0
Co168 Co 0.17155 0.95941 0.66712 0.0
O169 O 0.19814 0.9263 0.66099 0.0
O170 O 0.19953 0.96815 0.6344 0.0
C171 C 0.12909 0.93102 0.66901 0.0
O172 O 0.14625 0.99794 0.66746 0.0
Co173 Co 0.13462 0.96122 0.7267 0.0
O174 O 0.11335 0.99407 0.70575 0.0
C175 C 0.19788 0.98205 0.7266 0.0
C176 C 0.21019 0.94132 0.63922 0.0
C177 C 0.12369 0.00778 0.68283 0.0
O178 O 0.20012 0.97755 0.69804 0.0
O179 O 0.17447 0.97536 0.74189 0.0
O180 O 0.1403 0.93911 0.64337 0.0
O181 O 0.14527 0.93793 0.692 0.0
Co182 Co 0.05066 0.17304 0.66563 0.0
O183 O 0.08624 0.19606 0.65918 0.0
O184 O 0.04418 0.20306 0.63402 0.0
C185 C 0.07432 0.1278 0.66579 0.0
O186 O 0.00977 0.15173 0.66705 0.0
Co187 Co 0.04793 0.13606 0.72536 0.0
O188 O 0.01081 0.12021 0.7069 0.0
C189 C 0.03743 0.2016 0.72681 0.0
C190 C 0.07201 0.21089 0.63871 0.0
C191 C 0.99786 0.13124 0.68387 0.0
O192 O 0.0369 0.20261 0.69785 0.0
O193 O 0.04448 0.17787 0.74146 0.0
O194 O 0.06683 0.14028 0.64054 0.0
O195 O 0.06985 0.14423 0.68915 0.0
Co196 Co 0.83686 0.04994 0.66695 0.0
O197 O 0.81217 0.0841 0.65927 0.0
O198 O 0.80913 0.04172 0.63381 0.0
C199 C 0.88022 0.0769 0.66911 0.0
O200 O 0.86044 0.0104 0.66911 0.0
Co201 Co 0.87135 0.04865 0.72776 0.0
O202 O 0.89094 0.01321 0.70943 0.0
C203 C 0.80632 0.03565 0.72673 0.0
C204 C 0.79977 0.06921 0.63767 0.0
C205 C 0.88148 0.99971 0.686 0.0
O206 O 0.80668 0.03449 0.69777 0.0
O207 O 0.82905 0.04374 0.74237 0.0
O208 O 0.86966 0.06807 0.64343 0.0
O209 O 0.8632 0.07111 0.69178 0.0
Co210 Co 0.95842 0.83595 0.66891 0.0
O211 O 0.92358 0.81193 0.66147 0.0
O212 O 0.96625 0.80689 0.63684 0.0
C213 C 0.93337 0.88051 0.66941 0.0
O214 O 0.99871 0.85833 0.67073 0.0
Co215 Co 0.96037 0.87277 0.72856 0.0
O216 O 0.99687 0.89014 0.71016 0.0
C217 C 0.97144 0.80727 0.72996 0.0
C218 C 0.9385 0.79837 0.64055 0.0
C219 C 0.0101 0.87942 0.68714 0.0
O220 O 0.97248 0.80634 0.70099 0.0
O221 O 0.96396 0.83092 0.74454 0.0
O222 O 0.94162 0.8686 0.64412 0.0
O223 O 0.93814 0.86398 0.69266 0.0
Co224 Co 0.34261 0.17331 0.05133 0.0
O225 O 0.3489 0.19726 0.08631 0.0
O226 O 0.37445 0.20286 0.04422 0.0
C227 C 0.34206 0.12881 0.07634 0.0
O228 O 0.34162 0.1509 0.01104 0.0
Co229 Co 0.28286 0.1367 0.04874 0.0
O230 O 0.30205 0.11919 0.0127 0.0
C231 C 0.28172 0.2021 0.03786 0.0
C232 C 0.36963 0.21146 0.07179 0.0
C233 C 0.32527 0.12976 0.99965 0.0
O234 O 0.31067 0.2027 0.03668 0.0
O235 O 0.26683 0.17861 0.04522 0.0
O236 O 0.36738 0.14096 0.06856 0.0
O237 O 0.31874 0.14515 0.07119 0.0
Co238 Co 0.34533 0.8376 0.9592 0.0
O239 O 0.35271 0.81209 0.92544 0.0
O240 O 0.37753 0.80927 0.96838 0.0
C241 C 0.34425 0.88118 0.93264 0.0
O242 O 0.3434 0.8615 0.99849 0.0
Co243 Co 0.28519 0.87362 0.96 0.0
O244 O 0.3036 0.89272 0.99563 0.0
C245 C 0.28471 0.80864 0.9735 0.0
C246 C 0.37338 0.7992 0.94123 0.0
C247 C 0.32681 0.88279 0.00914 0.0
O248 O 0.31367 0.80826 0.97466 0.0
O249 O 0.26975 0.83169 0.96503 0.0
O250 O 0.36972 0.86978 0.94102 0.0
O251 O 0.32119 0.86453 0.93802 0.0
Co252 Co 0.17441 0.34675 0.96137 0.0
O253 O 0.20077 0.35146 0.92785 0.0
O254 O 0.20341 0.37888 0.96912 0.0
C255 C 0.13155 0.3456 0.93371 0.0
O256 O 0.14946 0.34756 1.00014 0.0
Co257 Co 0.13643 0.28784 0.96442 0.0
O258 O 0.11534 0.31039 0.99631 0.0
C259 C 0.19963 0.28699 0.98485 0.0
C260 C 0.21376 0.37298 0.94239 0.0
C261 C 0.12623 0.33313 0.00992 0.0
O262 O 0.20234 0.31542 0.97974 0.0
O263 O 0.17594 0.27192 0.9787 0.0
O264 O 0.14361 0.37106 0.94112 0.0
O265 O 0.14724 0.32224 0.94066 0.0
Co266 Co 0.66543 0.17325 0.9582 0.0
O267 O 0.65791 0.19706 0.92332 0.0
O268 O 0.63357 0.20257 0.96612 0.0
C269 C 0.66566 0.12857 0.93343 0.0
O270 O 0.66791 0.15108 0.99858 0.0
Co271 Co 0.7255 0.13688 0.95899 0.0
O272 O 0.70784 0.11985 0.99602 0.0
C273 C 0.72647 0.20223 0.97076 0.0
C274 C 0.63735 0.21101 0.93833 0.0
C275 C 0.68508 0.13049 0.00975 0.0
O276 O 0.69752 0.2029 0.97194 0.0
O277 O 0.74124 0.17882 0.96292 0.0
O278 O 0.64044 0.14053 0.94182 0.0
O279 O 0.68891 0.1452 0.9378 0.0
Co280 Co 0.83757 0.66222 0.96367 0.0
O281 O 0.81363 0.65539 0.9288 0.0
O282 O 0.80609 0.63261 0.97217 0.0
C283 C 0.88211 0.65795 0.93947 0.0
O284 O 0.85946 0.66411 1.00406 0.0
Co285 Co 0.87838 0.71925 0.96307 0.0
O286 O 0.89244 0.70271 1.00175 0.0
C287 C 0.8136 0.72558 0.97675 0.0
C288 C 0.79839 0.63599 0.94412 0.0
C289 C 0.88047 0.68056 0.0154 0.0
O290 O 0.81032 0.69675 0.97656 0.0
O291 O 0.83822 0.73848 0.96929 0.0
O292 O 0.86816 0.63414 0.94874 0.0
O293 O 0.86764 0.68284 0.94246 0.0
Co294 Co 0.66954 0.83586 0.05066 0.0
O295 O 0.66319 0.81197 0.0857 0.0
O296 O 0.63845 0.80531 0.04351 0.0
C297 C 0.66717 0.88032 0.07537 0.0
O298 O 0.67055 0.85824 0.01036 0.0
Co299 Co 0.72721 0.87562 0.04941 0.0
O300 O 0.70837 0.89199 0.01276 0.0
C301 C 0.73117 0.81142 0.03182 0.0
C302 C 0.64213 0.79791 0.07161 0.0
C303 C 0.68613 0.8801 0.99923 0.0
O304 O 0.70271 0.80775 0.03606 0.0
O305 O 0.74492 0.83599 0.03772 0.0
O306 O 0.64285 0.86703 0.06663 0.0
O307 O 0.69163 0.86529 0.07156 0.0
Co308 Co 0.17214 0.66841 0.0516 0.0
O309 O 0.19741 0.66181 0.08563 0.0
O310 O 0.1992 0.63443 0.04442 0.0
C311 C 0.12923 0.67222 0.07925 0.0
O312 O 0.14789 0.66897 0.01237 0.0
Co313 Co 0.1371 0.72899 0.04788 0.0
O314 O 0.11611 0.7083 0.01474 0.0
C315 C 0.20076 0.72652 0.02837 0.0
C316 C 0.20865 0.63893 0.07175 0.0
C317 C 0.12611 0.68489 1.00164 0.0
O318 O 0.2022 0.69804 0.03372 0.0
O319 O 0.17762 0.7426 0.03407 0.0
O320 O 0.13952 0.64609 0.07147 0.0
O321 O 0.14629 0.69452 0.07215 0.0
Co322 Co 0.83756 0.34424 0.04736 0.0
O323 O 0.8124 0.35004 0.08149 0.0
O324 O 0.8099 0.37788 0.04067 0.0
C325 C 0.88034 0.34141 0.07511 0.0
O326 O 0.86184 0.34409 0.00811 0.0
Co327 Co 0.87389 0.28434 0.04408 0.0
O328 O 0.89491 0.30591 0.0115 0.0
C329 C 0.81024 0.28556 0.02422 0.0
C330 C 0.80088 0.37303 0.06811 0.0
C331 C 0.8843 0.32876 0.99789 0.0
O332 O 0.80812 0.31401 0.02957 0.0
O333 O 0.83372 0.27001 0.03001 0.0
O334 O 0.86965 0.36729 0.06712 0.0
O335 O 0.86382 0.31873 0.068 0.0
Co336 Co 0.54843 0.84645 0.67373 0.0
O337 O 0.58079 0.85281 0.70117 0.0
O338 O 0.53841 0.87876 0.70166 0.0
C339 C 0.57747 0.84537 0.63182 0.0
O340 O 0.51051 0.84548 0.64761 0.0
Co341 Co 0.54845 0.78681 0.63677 0.0
O342 O 0.51513 0.80673 0.6153 0.0
C343 C 0.52616 0.7865 0.69946 0.0
C344 C 0.56487 0.87394 0.71315 0.0
C345 C 0.50108 0.82963 0.6252 0.0
O346 O 0.53022 0.81511 0.70174 0.0
O347 O 0.53353 0.77125 0.67622 0.0
O348 O 0.56887 0.87082 0.6431 0.0
O349 O 0.57081 0.8221 0.64778 0.0
Co350 Co 0.16682 0.55348 0.67256 0.0
O351 O 0.15913 0.58805 0.69686 0.0
O352 O 0.13459 0.54521 0.70125 0.0
C353 C 0.16749 0.57894 0.62831 0.0
O354 O 0.16907 0.51349 0.64972 0.0
Co355 Co 0.22693 0.55248 0.63645 0.0
O356 O 0.20871 0.51627 0.61825 0.0
C357 C 0.22754 0.53942 0.70153 0.0
C358 C 0.13812 0.57294 0.71004 0.0
C359 C 0.18574 0.50262 0.62858 0.0
O360 O 0.19856 0.53891 0.70219 0.0
O361 O 0.24251 0.54729 0.67827 0.0
O362 O 0.14217 0.57051 0.64002 0.0
O363 O 0.19066 0.57423 0.64497 0.0
Co364 Co 0.45833 0.16498 0.67163 0.0
O365 O 0.42359 0.15896 0.69601 0.0
O366 O 0.46443 0.13122 0.69926 0.0
C367 C 0.43231 0.16836 0.62785 0.0
O368 O 0.49811 0.16533 0.6483 0.0
Co369 Co 0.46258 0.22604 0.63721 0.0
O370 O 0.49677 0.20565 0.61756 0.0
C371 C 0.4808 0.22309 0.70102 0.0
C372 C 0.4369 0.13612 0.70795 0.0
C373 C 0.50947 0.18189 0.62729 0.0
O374 O 0.47573 0.19456 0.70186 0.0
O375 O 0.47536 0.23959 0.67813 0.0
O376 O 0.43936 0.14235 0.63887 0.0
O377 O 0.43868 0.19091 0.64491 0.0
Co378 Co 0.84434 0.45792 0.67221 0.0
O379 O 0.85278 0.42359 0.69657 0.0
O380 O 0.87919 0.46547 0.69801 0.0
C381 C 0.83949 0.43103 0.62897 0.0
O382 O 0.84155 0.49754 0.64871 0.0
Co383 Co 0.78178 0.46004 0.64068 0.0
O384 O 0.79965 0.49523 0.62028 0.0
C385 C 0.78707 0.47893 0.70414 0.0
C386 C 0.87572 0.43785 0.70716 0.0
C387 C 0.82342 0.50863 0.62895 0.0
O388 O 0.81574 0.4748 0.70368 0.0
O389 O 0.76972 0.47266 0.68212 0.0
O390 O 0.86576 0.43926 0.63842 0.0
O391 O 0.81773 0.43705 0.6471 0.0
Co392 Co 0.55169 0.16759 0.33439 0.0
O393 O 0.58591 0.16032 0.30963 0.0
O394 O 0.54314 0.13572 0.30522 0.0
C395 C 0.57813 0.16727 0.37799 0.0
O396 O 0.51207 0.16968 0.35784 0.0
Co397 Co 0.5518 0.2269 0.37183 0.0
O398 O 0.5159 0.20842 0.39034 0.0
C399 C 0.53787 0.22903 0.30686 0.0
C400 C 0.57078 0.13948 0.29627 0.0
C401 C 0.5018 0.18588 0.37965 0.0
O402 O 0.53708 0.20004 0.30552 0.0
O403 O 0.54608 0.24336 0.33041 0.0
O404 O 0.56891 0.14222 0.36628 0.0
O405 O 0.57313 0.19077 0.36189 0.0
Co406 Co 0.84289 0.54998 0.3385 0.0
O407 O 0.84958 0.58392 0.3132 0.0
O408 O 0.87635 0.54228 0.31096 0.0
C409 C 0.84022 0.57703 0.38174 0.0
O410 O 0.84175 0.51077 0.36267 0.0
Co411 Co 0.78202 0.54763 0.37322 0.0
O412 O 0.80174 0.5135 0.39364 0.0
C413 C 0.7842 0.52795 0.30978 0.0
C414 C 0.87174 0.56952 0.3012 0.0
C415 C 0.82518 0.50016 0.38402 0.0
O416 O 0.81278 0.53259 0.30869 0.0
O417 O 0.76798 0.5341 0.33269 0.0
O418 O 0.86601 0.56918 0.37078 0.0
O419 O 0.8175 0.57081 0.36486 0.0
Co420 Co 0.46045 0.84367 0.33757 0.0
O421 O 0.42717 0.84982 0.3113 0.0
O422 O 0.46855 0.87706 0.31001 0.0
C423 C 0.43194 0.84072 0.37986 0.0
O424 O 0.49909 0.84307 0.36273 0.0
Co425 Co 0.46266 0.78333 0.37331 0.0
O426 O 0.49616 0.80348 0.39425 0.0
C427 C 0.48357 0.78499 0.31011 0.0
C428 C 0.44174 0.87196 0.29942 0.0
C429 C 0.5095 0.82688 0.38448 0.0
O430 O 0.47873 0.81353 0.3084 0.0
O431 O 0.47711 0.76912 0.33321 0.0
O432 O 0.44006 0.86666 0.36932 0.0
O433 O 0.43916 0.81811 0.36329 0.0
Co434 Co 0.16573 0.4606 0.33684 0.0
O435 O 0.15731 0.42555 0.31365 0.0
O436 O 0.13222 0.46799 0.3092 0.0
C437 C 0.16818 0.43539 0.38122 0.0
O438 O 0.16908 0.50099 0.35884 0.0
Co439 Co 0.22752 0.46159 0.36984 0.0
O440 O 0.21083 0.49882 0.38755 0.0
C441 C 0.22513 0.47336 0.30472 0.0
C442 C 0.13569 0.44008 0.30092 0.0
C443 C 0.18739 0.5124 0.37827 0.0
O444 O 0.1962 0.47469 0.30571 0.0
O445 O 0.24127 0.46541 0.32714 0.0
O446 O 0.14247 0.4441 0.37067 0.0
O447 O 0.19062 0.44007 0.36357 0.0
Co448 Co 0.67303 0.55182 0.84308 0.0
O449 O 0.69729 0.586 0.85204 0.0
O450 O 0.69968 0.54335 0.87711 0.0
C451 C 0.62958 0.57849 0.83975 0.0
O452 O 0.64972 0.51221 0.83925 0.0
Co453 Co 0.6412 0.5519 0.78071 0.0
O454 O 0.62112 0.51596 0.79758 0.0
C455 C 0.70582 0.53791 0.78433 0.0
C456 C 0.70907 0.57093 0.87384 0.0
C457 C 0.62979 0.50177 0.8209 0.0
O458 O 0.70426 0.53671 0.81324 0.0
O459 O 0.68397 0.54649 0.76774 0.0
O460 O 0.63936 0.56946 0.86566 0.0
O461 O 0.64751 0.57327 0.81765 0.0
Co462 Co 0.45909 0.67318 0.84328 0.0
O463 O 0.42368 0.69593 0.85147 0.0
O464 O 0.4664 0.70204 0.87568 0.0
C465 C 0.43512 0.62807 0.84279 0.0
O466 O 0.49985 0.65188 0.84054 0.0
Co467 Co 0.46067 0.63712 0.78306 0.0
O468 O 0.49807 0.62076 0.80047 0.0
C469 C 0.47161 0.70271 0.78243 0.0
C470 C 0.43816 0.70919 0.87282 0.0
C471 C 0.51145 0.63157 0.82335 0.0
O472 O 0.4722 0.70347 0.81142 0.0
O473 O 0.46445 0.67914 0.76757 0.0
O474 O 0.44348 0.63993 0.86803 0.0
O475 O 0.43913 0.64489 0.81959 0.0
Co476 Co 0.33807 0.45905 0.84185 0.0
O477 O 0.31284 0.42491 0.848 0.0
O478 O 0.31043 0.46604 0.8754 0.0
C479 C 0.38124 0.43191 0.83914 0.0
O480 O 0.36238 0.49827 0.84144 0.0
Co481 Co 0.37399 0.46211 0.7816 0.0
O482 O 0.39501 0.49492 0.80283 0.0
C483 C 0.31056 0.4825 0.7833 0.0
C484 C 0.30129 0.43857 0.87082 0.0
C485 C 0.38468 0.50845 0.82585 0.0
O486 O 0.30856 0.47688 0.81168 0.0
O487 O 0.3339 0.47666 0.76756 0.0
O488 O 0.37017 0.4395 0.86495 0.0
O489 O 0.36458 0.43849 0.8164 0.0
Co490 Co 0.5519 0.3382 0.8403 0.0
O491 O 0.58666 0.31435 0.84839 0.0
O492 O 0.54444 0.31105 0.87409 0.0
C493 C 0.57721 0.38252 0.83663 0.0
O494 O 0.51185 0.36071 0.83793 0.0
Co495 Co 0.5489 0.37068 0.77843 0.0
O496 O 0.51293 0.38961 0.79632 0.0
C497 C 0.53756 0.30561 0.78159 0.0
C498 C 0.57201 0.302 0.87024 0.0
C499 C 0.50019 0.38067 0.82036 0.0
O500 O 0.53672 0.30688 0.81052 0.0
O501 O 0.54513 0.3279 0.76508 0.0
O502 O 0.56941 0.37209 0.86271 0.0
O503 O 0.57194 0.36462 0.81449 0.0
Co504 Co 0.67509 0.45981 0.16397 0.0
O505 O 0.70039 0.42613 0.15603 0.0
O506 O 0.70374 0.46956 0.13211 0.0
C507 C 0.63187 0.43269 0.16394 0.0
O508 O 0.65132 0.4991 0.16673 0.0
Co509 Co 0.63843 0.45871 0.22371 0.0
O510 O 0.62 0.4953 0.20645 0.0
C511 C 0.70336 0.47252 0.22525 0.0
C512 C 0.71352 0.4422 0.13572 0.0
C513 C 0.63023 0.50944 0.18373 0.0
O514 O 0.70407 0.47441 0.19632 0.0
O515 O 0.68014 0.46381 0.23982 0.0
O516 O 0.64312 0.44235 0.13885 0.0
O517 O 0.64816 0.43773 0.18728 0.0
Co518 Co 0.55162 0.67226 0.16666 0.0
O519 O 0.58648 0.69622 0.15917 0.0
O520 O 0.54412 0.70065 0.13382 0.0
C521 C 0.57727 0.62806 0.16871 0.0
O522 O 0.51123 0.64997 0.16892 0.0
Co523 Co 0.54953 0.63679 0.22722 0.0
O524 O 0.51245 0.61981 0.20971 0.0
C525 C 0.53815 0.70227 0.22682 0.0
C526 C 0.57165 0.7096 0.13812 0.0
C527 C 0.49932 0.63006 0.18643 0.0
O528 O 0.53713 0.70252 0.19784 0.0
O529 O 0.54587 0.67908 0.242 0.0
O530 O 0.5689 0.63896 0.143 0.0
O531 O 0.57185 0.64518 0.19133 0.0
Co532 Co 0.33684 0.55228 0.165 0.0
O533 O 0.3105 0.58554 0.15848 0.0
O534 O 0.30997 0.54402 0.13124 0.0
C535 C 0.37942 0.5803 0.1691 0.0
O536 O 0.36197 0.51366 0.16603 0.0
Co537 Co 0.37006 0.5497 0.22658 0.0
O538 O 0.39181 0.51638 0.20682 0.0
C539 C 0.30698 0.52972 0.22296 0.0
C540 C 0.29875 0.57053 0.13657 0.0
C541 C 0.38312 0.5032 0.18294 0.0
O542 O 0.30694 0.53375 0.19429 0.0
O543 O 0.32919 0.53642 0.2399 0.0
O544 O 0.36921 0.57272 0.14288 0.0
O545 O 0.3621 0.57328 0.19124 0.0
Co546 Co 0.45983 0.33936 0.1651 0.0
O547 O 0.42448 0.31542 0.16109 0.0
O548 O 0.46486 0.30952 0.13317 0.0
C549 C 0.43481 0.38392 0.16628 0.0
O550 O 0.50024 0.3614 0.16337 0.0
Co551 Co 0.46634 0.3784 0.22319 0.0
O552 O 0.50075 0.39548 0.20099 0.0
C553 C 0.48336 0.31385 0.22451 0.0
C554 C 0.43732 0.30151 0.1391 0.0
C555 C 0.51252 0.38327 0.17795 0.0
O556 O 0.47693 0.31062 0.19642 0.0
O557 O 0.47903 0.33829 0.23905 0.0
O558 O 0.44117 0.37128 0.14084 0.0
O559 O 0.44136 0.36812 0.18963 0.0
Co560 Co 0.84139 0.67244 0.55194 0.0
O561 O 0.84904 0.69621 0.58685 0.0
O562 O 0.87483 0.70023 0.54479 0.0
C563 C 0.83851 0.62808 0.57725 0.0
O564 O 0.83921 0.64994 0.51177 0.0
Co565 Co 0.77998 0.63884 0.54933 0.0
O566 O 0.79798 0.62045 0.51312 0.0
C567 C 0.78209 0.70408 0.53797 0.0
C568 C 0.87076 0.70899 0.57244 0.0
C569 C 0.82181 0.62976 0.50021 0.0
O570 O 0.81105 0.70333 0.53702 0.0
O571 O 0.76602 0.68145 0.54552 0.0
O572 O 0.8644 0.63883 0.56926 0.0
O573 O 0.81611 0.64562 0.572 0.0
Co574 Co 0.84182 0.33571 0.45903 0.0
O575 O 0.84995 0.31232 0.424 0.0
O576 O 0.87422 0.307 0.46682 0.0
C577 C 0.84133 0.38048 0.43448 0.0
O578 O 0.83893 0.35763 0.49948 0.0
Co579 Co 0.7815 0.37157 0.45992 0.0
O580 O 0.79872 0.38849 0.49716 0.0
C581 C 0.781 0.30615 0.47171 0.0
C582 C 0.87099 0.29896 0.43886 0.0
C583 C 0.82157 0.37797 0.51081 0.0
O584 O 0.80999 0.30558 0.47254 0.0
O585 O 0.76607 0.32953 0.4641 0.0
O586 O 0.86656 0.36873 0.44302 0.0
O587 O 0.81814 0.36366 0.43861 0.0
Co588 Co 0.67264 0.84678 0.46145 0.0
O589 O 0.6973 0.85322 0.42695 0.0
O590 O 0.7008 0.87981 0.4686 0.0
C591 C 0.62873 0.84469 0.43552 0.0
O592 O 0.64937 0.84582 0.50119 0.0
Co593 Co 0.63736 0.78609 0.46425 0.0
O594 O 0.61874 0.80539 0.49963 0.0
C595 C 0.70116 0.78765 0.48255 0.0
C596 C 0.70994 0.87516 0.44118 0.0
C597 C 0.62864 0.82895 0.51258 0.0
O598 O 0.70238 0.81628 0.47818 0.0
O599 O 0.67806 0.7716 0.47664 0.0
O600 O 0.64022 0.87039 0.44302 0.0
O601 O 0.64549 0.82175 0.44127 0.0
Co602 Co 0.16703 0.6743 0.45833 0.0
O603 O 0.16038 0.69951 0.42425 0.0
O604 O 0.13294 0.70127 0.46538 0.0
C605 C 0.1711 0.6312 0.43101 0.0
O606 O 0.16783 0.65012 0.49757 0.0
Co607 Co 0.2282 0.64022 0.46179 0.0
O608 O 0.20822 0.61959 0.49563 0.0
C609 C 0.22478 0.70364 0.48161 0.0
C610 C 0.13751 0.71079 0.43807 0.0
C611 C 0.18447 0.62901 0.50855 0.0
O612 O 0.19631 0.70457 0.4763 0.0
O613 O 0.24134 0.68089 0.47575 0.0
O614 O 0.14494 0.64147 0.43861 0.0
O615 O 0.19328 0.64851 0.43787 0.0
Co616 Co 0.33847 0.16916 0.45715 0.0
O617 O 0.31485 0.16117 0.42222 0.0
O618 O 0.31006 0.13644 0.46487 0.0
C619 C 0.38287 0.17007 0.43193 0.0
O620 O 0.36078 0.17136 0.49737 0.0
Co621 Co 0.37469 0.22919 0.45906 0.0
O622 O 0.39251 0.21086 0.49535 0.0
C623 C 0.30937 0.22978 0.47145 0.0
C624 C 0.30229 0.13942 0.43681 0.0
C625 C 0.38188 0.18782 0.50866 0.0
O626 O 0.30848 0.20075 0.47143 0.0
O627 O 0.33285 0.24473 0.46418 0.0
O628 O 0.37127 0.14472 0.44043 0.0
O629 O 0.36621 0.19327 0.43669 0.0
Co630 Co 0.16808 0.33913 0.55139 0.0
O631 O 0.16306 0.31451 0.5861 0.0
O632 O 0.13564 0.30987 0.54529 0.0
C633 C 0.1695 0.38308 0.57753 0.0
O634 O 0.16771 0.36228 0.5115 0.0
Co635 Co 0.22732 0.37686 0.54747 0.0
O636 O 0.20648 0.39509 0.51284 0.0
C637 C 0.22735 0.31297 0.52818 0.0
C638 C 0.14108 0.30117 0.57272 0.0
C639 C 0.18347 0.38385 0.50007 0.0
O640 O 0.19911 0.31021 0.53412 0.0
O641 O 0.24243 0.33689 0.53348 0.0
O642 O 0.144 0.37102 0.57032 0.0
O643 O 0.19269 0.36699 0.57114 0.0
Co644 Co 0.67201 0.16271 0.54892 0.0
O645 O 0.69724 0.15703 0.58311 0.0
O646 O 0.70081 0.13038 0.54148 0.0
C647 C 0.62847 0.16405 0.57568 0.0
O648 O 0.64855 0.16283 0.50935 0.0
Co649 Co 0.63414 0.22186 0.54576 0.0
O650 O 0.6158 0.20157 0.51084 0.0
C651 C 0.69793 0.22236 0.52625 0.0
C652 C 0.71024 0.13541 0.56872 0.0
C653 C 0.627 0.17857 0.49802 0.0
O654 O 0.70076 0.194 0.53173 0.0
O655 O 0.67401 0.23729 0.53187 0.0
O656 O 0.64023 0.13852 0.56802 0.0
O657 O 0.64458 0.18725 0.56927 0.0
Co658 Co 0.33685 0.84638 0.55004 0.0
O659 O 0.31396 0.85427 0.58538 0.0
O660 O 0.30791 0.87873 0.54275 0.0
C661 C 0.38191 0.84573 0.57386 0.0
O662 O 0.35825 0.84349 0.50937 0.0
Co663 Co 0.37173 0.78544 0.54899 0.0
O664 O 0.38829 0.80259 0.51147 0.0
C665 C 0.30644 0.78581 0.53806 0.0
C666 C 0.30018 0.87523 0.57079 0.0
C667 C 0.37812 0.8257 0.49791 0.0
O668 O 0.30653 0.81477 0.53672 0.0
O669 O 0.32947 0.77036 0.54563 0.0
O670 O 0.37003 0.87104 0.56569 0.0
O671 O 0.36498 0.82256 0.56998 0.0
C672 C 0.12521 0.39512 0.26973 0.0
C673 C 0.11651 0.42421 0.2786 0.0
C674 C 0.10848 0.37847 0.24919 0.0
C675 C 0.08206 0.38988 0.23633 0.0
H676 H 0.14545 0.38491 0.27851 0.0
H677 H 0.11672 0.35638 0.24311 0.0
S678 S 0.04843 0.46445 0.25243 0.0
N679 N 0.07898 0.46357 0.27346 0.0
N680 N 0.04731 0.43199 0.23441 0.0
C681 C 0.07248 0.4187 0.24528 0.0
C682 C 0.0898 0.43594 0.2664 0.0
C683 C 0.63027 0.11452 0.24122 0.0
C684 C 0.62056 0.08616 0.23124 0.0
C685 C 0.61342 0.13145 0.26145 0.0
C686 C 0.58588 0.12103 0.27288 0.0
H687 H 0.65129 0.12396 0.23342 0.0
H688 H 0.62239 0.15302 0.26828 0.0
S689 S 0.5497 0.04841 0.25379 0.0
N690 N 0.58112 0.04839 0.23403 0.0
N691 N 0.54928 0.08047 0.27251 0.0
C692 C 0.57548 0.09284 0.263 0.0
C693 C 0.59288 0.07533 0.24218 0.0
C694 C 0.89699 0.62937 0.24673 0.0
C695 C 0.92543 0.61986 0.23682 0.0
C696 C 0.88008 0.61242 0.26684 0.0
C697 C 0.89059 0.58496 0.27833 0.0
H698 H 0.88738 0.6503 0.23889 0.0
H699 H 0.8584 0.62124 0.27344 0.0
S700 S 0.96369 0.54949 0.25984 0.0
N701 N 0.96356 0.58088 0.23997 0.0
N702 N 0.93153 0.54878 0.27838 0.0
C703 C 0.91901 0.57486 0.26875 0.0
C704 C 0.9365 0.59239 0.24798 0.0
C705 C 0.40124 0.87809 0.2619 0.0
C706 C 0.42702 0.89009 0.27557 0.0
C707 C 0.38457 0.89447 0.24112 0.0
C708 C 0.3927 0.92385 0.23274 0.0
H709 H 0.3935 0.85567 0.26741 0.0
H710 H 0.3649 0.88374 0.23166 0.0
S711 S 0.45882 0.96583 0.26124 0.0
N712 N 0.46042 0.93321 0.27893 0.0
N713 N 0.42889 0.96428 0.23936 0.0
C714 C 0.4187 0.93626 0.24583 0.0
C715 C 0.43594 0.91931 0.26725 0.0
C716 C 0.12792 0.61665 0.7432 0.0
C717 C 0.1193 0.58789 0.73327 0.0
C718 C 0.11097 0.63255 0.76422 0.0
C719 C 0.08441 0.62063 0.77643 0.0
H720 H 0.14816 0.6272 0.73477 0.0
H721 H 0.11902 0.6545 0.77101 0.0
S722 S 0.05139 0.54631 0.7579 0.0
N723 N 0.08206 0.54809 0.73709 0.0
N724 N 0.04998 0.57818 0.7769 0.0
C725 C 0.07517 0.59197 0.76664 0.0
C726 C 0.09269 0.57554 0.74509 0.0
C727 C 0.41873 0.07915 0.7699 0.0
C728 C 0.38741 0.08233 0.77283 0.0
C729 C 0.43489 0.096 0.74839 0.0
C730 C 0.42015 0.11643 0.72921 0.0
H731 H 0.43093 0.06466 0.78515 0.0
H732 H 0.45908 0.09373 0.74745 0.0
S733 S 0.33764 0.12899 0.72517 0.0
N734 N 0.34203 0.10477 0.75284 0.0
N735 N 0.37177 0.13591 0.71257 0.0
C736 C 0.38858 0.11825 0.73098 0.0
C737 C 0.37238 0.10134 0.75274 0.0
C738 C 0.91562 0.43759 0.74779 0.0
C739 C 0.89702 0.422 0.72746 0.0
C740 C 0.93322 0.42195 0.76906 0.0
C741 C 0.93269 0.39033 0.77051 0.0
H742 H 0.91559 0.46192 0.74812 0.0
H743 H 0.94598 0.43465 0.78541 0.0
S744 S 0.89213 0.33897 0.71913 0.0
N745 N 0.88254 0.37295 0.70788 0.0
N746 N 0.91505 0.34412 0.74774 0.0
C747 C 0.91579 0.37465 0.7491 0.0
C748 C 0.89811 0.39033 0.72759 0.0
C749 C 0.59523 0.93854 0.76012 0.0
C750 C 0.61304 0.92314 0.78125 0.0
C751 C 0.57763 0.92266 0.73904 0.0
C752 C 0.57734 0.89102 0.73869 0.0
H753 H 0.59592 0.96284 0.75899 0.0
H754 H 0.56558 0.93512 0.72199 0.0
S755 S 0.61552 0.84037 0.7925 0.0
N756 N 0.62583 0.87445 0.80279 0.0
N757 N 0.59327 0.84514 0.7633 0.0
C758 C 0.59338 0.87562 0.76093 0.0
C759 C 0.6111 0.89154 0.7822 0.0
C760 C 0.23926 0.08314 0.42056 0.0
C761 C 0.239 0.08257 0.38895 0.0
C762 C 0.26036 0.10084 0.43633 0.0
C763 C 0.28168 0.11846 0.42088 0.0
H764 H 0.22219 0.07114 0.43306 0.0
H765 H 0.25921 0.10165 0.4606 0.0
S766 S 0.29304 0.12031 0.33815 0.0
N767 N 0.26375 0.09816 0.34305 0.0
N768 N 0.30329 0.13087 0.37214 0.0
C769 C 0.28262 0.11633 0.38931 0.0
C770 C 0.2613 0.09853 0.37349 0.0
C771 C 0.88046 0.26579 0.39516 0.0
C772 C 0.89012 0.27644 0.42327 0.0
C773 C 0.8977 0.24577 0.37837 0.0
C774 C 0.92563 0.2353 0.38867 0.0
H775 H 0.85916 0.27288 0.38582 0.0
H776 H 0.88878 0.23835 0.35699 0.0
S777 S 0.96177 0.25637 0.46069 0.0
N778 N 0.92982 0.27525 0.46073 0.0
N779 N 0.96248 0.23722 0.4289 0.0
C780 C 0.93593 0.24582 0.41666 0.0
C781 C 0.91809 0.26636 0.43404 0.0
C782 C 0.74324 0.88376 0.39736 0.0
C783 C 0.73285 0.89375 0.42546 0.0
C784 C 0.76376 0.90042 0.38057 0.0
C785 C 0.77505 0.92805 0.39088 0.0
H786 H 0.73552 0.86267 0.38799 0.0
H787 H 0.77088 0.89129 0.35918 0.0
S788 S 0.75512 0.96479 0.46298 0.0
N789 N 0.73527 0.9334 0.46297 0.0
N790 N 0.77425 0.96494 0.43117 0.0
C791 C 0.76484 0.93865 0.41889 0.0
C792 C 0.74376 0.92143 0.43625 0.0
C793 C 0.08011 0.77298 0.42206 0.0
C794 C 0.08252 0.77628 0.3907 0.0
C795 C 0.09733 0.75126 0.43755 0.0
C796 C 0.1174 0.73225 0.42209 0.0
H797 H 0.06592 0.78807 0.4348 0.0
H798 H 0.09563 0.75002 0.46177 0.0
S799 S 0.12797 0.72909 0.33928 0.0
N800 N 0.10385 0.75667 0.34456 0.0
N801 N 0.13573 0.71617 0.37309 0.0
C802 C 0.11848 0.73439 0.39052 0.0
C803 C 0.10116 0.75631 0.37499 0.0
C804 C 0.24821 0.9013 0.63261 0.0
C805 C 0.23423 0.92708 0.62098 0.0
C806 C 0.26916 0.8851 0.61596 0.0
C807 C 0.27732 0.89371 0.58667 0.0
H808 H 0.2428 0.8932 0.65491 0.0
H809 H 0.27886 0.86536 0.62635 0.0
S810 S 0.24798 0.96012 0.54572 0.0
N811 N 0.23038 0.96107 0.57839 0.0
N812 N 0.27018 0.93038 0.54679 0.0
C813 C 0.26391 0.91974 0.57466 0.0
C814 C 0.24237 0.93651 0.5919 0.0
C815 C 0.08004 0.2435 0.59265 0.0
C816 C 0.08778 0.23532 0.62221 0.0
C817 C 0.09734 0.26464 0.57641 0.0
C818 C 0.12284 0.27836 0.58927 0.0
H819 H 0.06102 0.23298 0.58175 0.0
H820 H 0.09077 0.27013 0.55366 0.0
S821 S 0.15104 0.2661 0.66702 0.0
N822 N 0.12155 0.24395 0.66418 0.0
N823 N 0.15388 0.28283 0.63414 0.0
C824 C 0.1302 0.27071 0.61913 0.0
C825 C 0.11271 0.24946 0.63545 0.0
C826 C 0.7665 0.11274 0.62787 0.0
C827 C 0.77675 0.08427 0.61874 0.0
C828 C 0.7457 0.1289 0.61102 0.0
C829 C 0.73392 0.11757 0.58404 0.0
H830 H 0.77452 0.1229 0.64846 0.0
H831 H 0.73874 0.15062 0.61951 0.0
S832 S 0.75338 0.04422 0.54952 0.0
N833 N 0.77375 0.04536 0.58051 0.0
N834 N 0.73418 0.07599 0.54859 0.0
C835 C 0.74401 0.08921 0.57423 0.0
C836 C 0.76542 0.07249 0.59167 0.0
C837 C 0.87922 0.74278 0.61594 0.0
C838 C 0.88936 0.73203 0.58801 0.0
C839 C 0.89569 0.76362 0.63252 0.0
C840 C 0.92333 0.77488 0.62222 0.0
H841 H 0.85811 0.73512 0.6253 0.0
H842 H 0.88643 0.77097 0.65378 0.0
S843 S 0.96047 0.75411 0.55057 0.0
N844 N 0.92915 0.73415 0.55067 0.0
N845 N 0.9604 0.77365 0.58212 0.0
C846 C 0.9341 0.76433 0.59439 0.0
C847 C 0.91703 0.74295 0.57721 0.0
C848 C 0.43296 0.26414 0.09631 0.0
C849 C 0.42019 0.27889 0.12127 0.0
C850 C 0.41634 0.24304 0.0794 0.0
C851 C 0.38647 0.23594 0.087 0.0
H852 H 0.45596 0.26875 0.0899 0.0
H853 H 0.42718 0.23168 0.06084 0.0
S854 S 0.34175 0.26978 0.14872 0.0
N855 N 0.37507 0.28564 0.15154 0.0
N856 N 0.34432 0.2467 0.11993 0.0
C857 C 0.37331 0.25113 0.11134 0.0
C858 C 0.39003 0.27238 0.12844 0.0
C859 C 0.42175 0.77239 0.92885 0.0
C860 C 0.39018 0.7737 0.92821 0.0
C861 C 0.43749 0.75095 0.91155 0.0
C862 C 0.42206 0.73027 0.89318 0.0
H863 H 0.43433 0.78887 0.94157 0.0
H864 H 0.4618 0.75128 0.91174 0.0
S865 S 0.33909 0.72193 0.88782 0.0
N866 N 0.34412 0.7508 0.91048 0.0
N867 N 0.3731 0.71056 0.87856 0.0
C868 C 0.39039 0.73044 0.89402 0.0
C869 C 0.37462 0.75216 0.91137 0.0
C870 C 0.26246 0.437 0.91255 0.0
C871 C 0.28053 0.42206 0.89126 0.0
C872 C 0.24182 0.42099 0.93062 0.0
C873 C 0.23873 0.3896 0.92792 0.0
H874 H 0.26362 0.46121 0.91465 0.0
H875 H 0.22736 0.43336 0.94575 0.0
S876 S 0.28371 0.33936 0.87906 0.0
N877 N 0.29591 0.37345 0.8712 0.0
N878 N 0.25748 0.34399 0.90476 0.0
C879 C 0.25777 0.37439 0.90796 0.0
C880 C 0.27856 0.39045 0.88973 0.0
C881 C 0.6311 0.24686 0.89623 0.0
C882 C 0.61982 0.23513 0.92329 0.0
C883 C 0.61525 0.26817 0.87967 0.0
C884 C 0.58711 0.27893 0.88914 0.0
H885 H 0.65255 0.23947 0.88746 0.0
H886 H 0.62531 0.2761 0.85899 0.0
S887 S 0.54742 0.25603 0.95877 0.0
N888 N 0.57876 0.23616 0.95926 0.0
N889 N 0.54862 0.27654 0.92784 0.0
C890 C 0.57542 0.2677 0.91633 0.0
C891 C 0.59187 0.24584 0.9335 0.0
C892 C 0.74272 0.61403 0.88425 0.0
C893 C 0.73168 0.58586 0.89341 0.0
C894 C 0.76339 0.62999 0.90146 0.0
C895 C 0.77422 0.61876 0.92887 0.0
H896 H 0.73553 0.62407 0.86329 0.0
H897 H 0.7711 0.65143 0.89286 0.0
S898 S 0.75223 0.54634 0.96383 0.0
N899 N 0.73274 0.54745 0.93226 0.0
N900 N 0.77206 0.57774 0.96488 0.0
C901 C 0.7632 0.5908 0.93881 0.0
C902 C 0.74195 0.57426 0.92099 0.0
C903 C 0.58335 0.73729 0.08975 0.0
C904 C 0.58632 0.73423 0.12109 0.0
C905 C 0.6012 0.75803 0.07356 0.0
C906 C 0.6225 0.77634 0.08826 0.0
H907 H 0.56806 0.72283 0.07757 0.0
H908 H 0.59873 0.75929 0.04941 0.0
S909 S 0.63573 0.77919 0.17079 0.0
N910 N 0.61002 0.75292 0.16638 0.0
N911 N 0.64317 0.7915 0.13668 0.0
C912 C 0.62447 0.77418 0.11983 0.0
C913 C 0.60648 0.75326 0.13604 0.0
C914 C 0.25001 0.59972 0.07242 0.0
C915 C 0.22972 0.61855 0.08781 0.0
C916 C 0.27154 0.58254 0.08819 0.0
C917 C 0.2733 0.58373 0.11974 0.0
H918 H 0.24999 0.59911 0.04812 0.0
H919 H 0.28772 0.56945 0.07562 0.0
S920 S 0.22226 0.6253 0.1707 0.0
N921 N 0.21068 0.63413 0.13667 0.0
N922 N 0.25088 0.60234 0.16575 0.0
C923 C 0.25201 0.60098 0.13526 0.0
C924 C 0.23028 0.61826 0.11944 0.0
C925 C 0.74084 0.43176 0.08707 0.0
C926 C 0.73861 0.42891 0.11849 0.0
C927 C 0.7615 0.4142 0.07055 0.0
C928 C 0.7804 0.39333 0.08504 0.0
H929 H 0.72561 0.44646 0.07511 0.0
H930 H 0.76195 0.41625 0.04633 0.0
S931 S 0.78599 0.38126 0.16757 0.0
N932 N 0.75901 0.40628 0.16359 0.0
N933 N 0.79759 0.37375 0.13322 0.0
C934 C 0.77936 0.39183 0.11667 0.0
C935 C 0.75853 0.40951 0.13321 0.0
C936 C 0.9807 0.22261 0.23007 0.0
C937 C 0.98563 0.22451 0.26126 0.0
C938 C 0.99452 0.24235 0.20999 0.0
C939 C 0.0138 0.26531 0.21991 0.0
H940 H 0.96669 0.20504 0.22077 0.0
H941 H 0.99034 0.2392 0.18622 0.0
S942 S 0.03219 0.28248 0.29921 0.0
N943 N 0.0098 0.25292 0.30128 0.0
N944 N 0.0354 0.29054 0.26313 0.0
C945 C 0.01764 0.26892 0.25105 0.0
C946 C 1.00366 0.24842 0.27176 0.0
C947 C 0.76534 0.01055 0.27185 0.0
C948 C 0.78351 0.98562 0.26463 0.0
C949 C 0.74479 0.02246 0.2508 0.0
C950 C 0.7419 0.00971 0.22201 0.0
H951 H 0.76836 0.02206 0.29306 0.0
H952 H 0.73254 0.04272 0.25638 0.0
S953 S 0.78006 0.94109 0.19429 0.0
N954 N 0.794 0.94635 0.22821 0.0
N955 N 0.75583 0.96864 0.18902 0.0
C956 C 0.7582 0.98348 0.21559 0.0
C957 C 0.77887 0.97145 0.23681 0.0
C958 C 0.00883 0.73859 0.24882 0.0
C959 C 0.98242 0.74627 0.23311 0.0
C960 C 0.02247 0.75909 0.26881 0.0
C961 C 0.00995 0.78769 0.27367 0.0
H962 H 0.02014 0.71759 0.24406 0.0
H963 H 0.0438 0.7533 0.27895 0.0
S964 S 0.93859 0.81657 0.24222 0.0
N965 N 0.94246 0.78296 0.22702 0.0
N966 N 0.96806 0.82115 0.26422 0.0
C967 C 0.98244 0.79454 0.25998 0.0
C968 C 0.96864 0.77389 0.23982 0.0
C969 C 0.21654 0.98775 0.25065 0.0
C970 C 0.22555 0.0117 0.26908 0.0
C971 C 0.23657 0.9739 0.23089 0.0
C972 C 0.26658 0.98357 0.22832 0.0
H973 H 0.19335 0.98033 0.25065 0.0
H974 H 0.22797 0.95632 0.21644 0.0
S975 S 0.30223 0.04351 0.2741 0.0
N976 N 0.26702 0.04286 0.28582 0.0
N977 N 0.30499 0.01712 0.24812 0.0
C978 C 0.27652 0.00618 0.24819 0.0
C979 C 0.25593 0.02022 0.26868 0.0
C980 C 0.9832 0.75911 0.79883 0.0
C981 C 0.00645 0.73946 0.79054 0.0
C982 C 0.97065 0.77923 0.77831 0.0
C983 C 0.98092 0.78098 0.74845 0.0
H984 H 0.97523 0.75968 0.82182 0.0
H985 H 0.95354 0.79451 0.7864 0.0
S986 S 0.03934 0.73217 0.71446 0.0
N987 N 0.03756 0.72091 0.74978 0.0
N988 N 0.01422 0.75927 0.71094 0.0
C989 C 1.00281 0.76003 0.73919 0.0
C990 C 0.01554 0.73917 0.7603 0.0
C991 C 0.21276 0.02127 0.76302 0.0
C992 C 0.22171 0.99857 0.74304 0.0
C993 C 0.23308 0.03465 0.78279 0.0
C994 C 0.2634 0.02576 0.78391 0.0
H995 H 0.18944 0.02817 0.76408 0.0
H996 H 0.22449 0.05135 0.79826 0.0
S997 S 0.29902 0.96927 0.73393 0.0
N998 N 0.26342 0.96948 0.72343 0.0
N999 N 0.30195 0.99434 0.76116 0.0
C1000 C 0.27322 1.0044 0.76264 0.0
C1001 C 0.2523 0.99085 0.7421 0.0
C1002 C 0.03643 0.22913 0.77544 0.0
C1003 C 0.02757 0.22788 0.74512 0.0
C1004 C 0.02331 0.24931 0.79553 0.0
C1005 C 1.00094 0.26953 0.78632 0.0
H1006 H 0.05281 0.21343 0.7842 0.0
H1007 H 0.0301 0.24836 0.81888 0.0
S1008 S 0.97188 0.27834 0.70892 0.0
N1009 N 0.99656 0.25071 0.70629 0.0
N1010 N 0.97222 0.2892 0.7444 0.0
C1011 C 0.99331 0.27032 0.75572 0.0
C1012 C 0.00658 0.24939 0.73504 0.0
C1013 C 0.76466 0.99831 0.73601 0.0
C1014 C 0.77954 0.02522 0.74374 0.0
C1015 C 0.74426 0.98453 0.75605 0.0
C1016 C 0.73806 0.99745 0.7842 0.0
H1017 H 0.77039 0.98677 0.71539 0.0
H1018 H 0.73483 0.96284 0.75032 0.0
S1019 S 0.76724 0.06992 0.81296 0.0
N1020 N 0.78366 0.06583 0.77997 0.0
N1021 N 0.7456 0.0401 0.81723 0.0
C1022 C 0.75099 0.02539 0.79103 0.0
C1023 C 0.77163 0.03926 0.77088 0.0
C1024 C 0.25233 0.2667 0.98989 0.0
C1025 C 0.22326 0.2707 1.0016 0.0
C1026 C 0.27242 0.24597 1.00307 0.0
C1027 C 0.26392 0.2287 0.02826 0.0
H1028 H 0.25888 0.2782 0.96948 0.0
H1029 H 0.29388 0.24205 0.99233 0.0
S1030 S 0.19219 0.23518 0.07018 0.0
N1031 N 0.1885 0.25875 0.0418 0.0
N1032 N 0.22592 0.22027 0.06654 0.0
C1033 C 0.23578 0.23448 0.04137 0.0
C1034 C 0.21553 0.25534 0.02802 0.0
C1035 C 0.21685 0.75956 0.98682 0.0
C1036 C 0.22507 0.74185 0.01159 0.0
C1037 C 0.2372 0.77925 0.97329 0.0
C1038 C 0.26673 0.78244 0.98408 0.0
H1039 H 0.19398 0.75913 0.97853 0.0
H1040 H 0.22917 0.7932 0.95505 0.0
S1041 S 0.30044 0.73864 0.04649 0.0
N1042 N 0.26541 0.72646 0.0448 0.0
N1043 N 0.30398 0.76396 0.01955 0.0
C1044 C 0.27599 0.76323 0.00753 0.0
C1045 C 0.25506 0.74285 0.02128 0.0
C1046 C 0.79473 0.25082 0.98382 0.0
C1047 C 0.78618 0.2696 0.00768 0.0
C1048 C 0.77444 0.23089 0.9706 0.0
C1049 C 0.74462 0.22851 0.9808 0.0
H1050 H 0.81778 0.25067 0.976 0.0
H1051 H 0.78272 0.21616 0.95309 0.0
S1052 S 0.71006 0.27515 0.04067 0.0
N1053 N 0.74528 0.2868 0.0393 0.0
N1054 N 0.70682 0.24883 0.01468 0.0
C1055 C 0.73509 0.24872 1.00329 0.0
C1056 C 0.75596 0.26936 0.01671 0.0
C1057 C 0.79165 0.77677 0.98318 0.0
C1058 C 0.78911 0.74561 0.98809 0.0
C1059 C 0.77238 0.79728 0.997 0.0
C1060 C 0.74921 0.78786 0.01632 0.0
H1061 H 0.80934 0.78573 0.96907 0.0
H1062 H 0.77597 0.82097 0.99266 0.0
S1063 S 0.73064 0.70882 0.03499 0.0
N1064 N 0.76006 0.70616 0.01252 0.0
N1065 N 0.72328 0.74508 0.03813 0.0
C1066 C 0.74508 0.75676 0.02029 0.0
C1067 C 0.76511 0.7356 0.0063 0.0
C1068 C 0.47281 0.73057 0.73398 0.0
C1069 C 0.48176 0.729 0.76427 0.0
C1070 C 0.48644 0.7504 0.71384 0.0
C1071 C 0.5094 0.76998 0.72301 0.0
H1072 H 0.456 0.7153 0.72526 0.0
H1073 H 0.47959 0.74967 0.6905 0.0
S1074 S 0.53902 0.7778 0.80031 0.0
N1075 N 0.51359 0.75085 0.80299 0.0
N1076 N 0.53881 0.78877 0.76485 0.0
C1077 C 0.51714 0.77052 0.75359 0.0
C1078 C 0.50338 0.74991 0.77429 0.0
C1079 C 0.2956 0.52402 0.74962 0.0
C1080 C 0.28671 0.49976 0.76776 0.0
C1081 C 0.27549 0.53813 0.73014 0.0
C1082 C 0.2455 0.52848 0.72758 0.0
H1083 H 0.31877 0.53148 0.74962 0.0
H1084 H 0.28402 0.55591 0.71587 0.0
S1085 S 0.21004 0.46789 0.77268 0.0
N1086 N 0.2453 0.46835 0.78424 0.0
N1087 N 0.20718 0.49465 0.74709 0.0
C1088 C 0.23564 0.50558 0.74719 0.0
C1089 C 0.25633 0.49124 0.76738 0.0
C1090 C 0.49879 0.26545 0.77282 0.0
C1091 C 0.52677 0.27843 0.76561 0.0
C1092 C 0.4845 0.24534 0.75289 0.0
C1093 C 0.498 0.23754 0.72543 0.0
H1094 H 0.48684 0.27263 0.79275 0.0
H1095 H 0.46206 0.2375 0.75804 0.0
S1096 S 0.57294 0.26153 0.69843 0.0
N1097 N 0.56873 0.27915 0.73079 0.0
N1098 N 0.5421 0.24149 0.69373 0.0
C1099 C 0.5269 0.24846 0.71927 0.0
C1100 C 0.54127 0.26885 0.73929 0.0
C1101 C 0.7642 0.48279 0.75568 0.0
C1102 C 0.7733 0.49646 0.7287 0.0
C1103 C 0.74434 0.4976 0.77546 0.0
C1104 C 0.73272 0.52624 0.7685 0.0
H1105 H 0.77087 0.4599 0.76055 0.0
H1106 H 0.73624 0.48562 0.79502 0.0
S1107 S 0.75277 0.57268 0.70234 0.0
N1108 N 0.77174 0.54117 0.69762 0.0
N1109 N 0.73433 0.56869 0.73427 0.0
C1110 C 0.7434 0.54075 0.7426 0.0
C1111 C 0.76369 0.5259 0.7228 0.0
C1112 C 0.53649 0.27795 0.27981 0.0
C1113 C 0.52712 0.24776 0.28124 0.0
C1114 C 0.52295 0.29844 0.26032 0.0
C1115 C 0.49952 0.28981 0.24104 0.0
H1116 H 0.55374 0.28629 0.29479 0.0
H1117 H 0.53039 0.32163 0.26103 0.0
S1118 S 0.46869 0.21289 0.23305 0.0
N1119 N 0.49443 0.20964 0.25958 0.0
N1120 N 0.46922 0.24847 0.2224 0.0
C1121 C 0.49126 0.25932 0.24043 0.0
C1122 C 0.50501 0.23823 0.26064 0.0
C1123 C 0.76485 0.52321 0.25666 0.0
C1124 C 0.76918 0.51096 0.28546 0.0
C1125 C 0.74519 0.50937 0.23594 0.0
C1126 C 0.7293 0.48299 0.24353 0.0
H1127 H 0.77521 0.54444 0.25081 0.0
H1128 H 0.7409 0.52047 0.21473 0.0
S1129 S 0.73709 0.43977 0.31439 0.0
N1130 N 0.759 0.46932 0.31909 0.0
N1131 N 0.72251 0.44337 0.2805 0.0
C1132 C 0.73545 0.46952 0.27144 0.0
C1133 C 0.75524 0.48352 0.29232 0.0
C1134 C 0.53835 0.73154 0.27436 0.0
C1135 C 0.52798 0.7287 0.24464 0.0
C1136 C 0.52477 0.75125 0.29462 0.0
C1137 C 0.50043 0.76937 0.2861 0.0
H1138 H 0.55623 0.71726 0.28261 0.0
H1139 H 0.53266 0.75141 0.31764 0.0
S1140 S 0.46684 0.77367 0.21018 0.0
N1141 N 0.49342 0.74795 0.20693 0.0
N1142 N 0.46817 0.78559 0.2453 0.0
C1143 C 0.49124 0.76875 0.25593 0.0
C1144 C 0.50501 0.74831 0.23511 0.0
C1145 C 0.25524 0.52676 0.24545 0.0
C1146 C 0.28232 0.51272 0.23727 0.0
C1147 C 0.235 0.51261 0.26534 0.0
C1148 C 0.24152 0.48422 0.27782 0.0
H1149 H 0.2506 0.54946 0.23799 0.0
H1150 H 0.21538 0.52491 0.27274 0.0
S1151 S 0.30759 0.4368 0.26005 0.0
N1152 N 0.313 0.46785 0.24048 0.0
N1153 N 0.27539 0.44148 0.27783 0.0
C1154 C 0.26751 0.46929 0.26799 0.0
C1155 C 0.28784 0.48352 0.24775 0.0
C1156 C 0.77319 0.74537 0.5003 0.0
C1157 C 0.76559 0.73113 0.52757 0.0
C1158 C 0.75323 0.76572 0.48637 0.0
C1159 C 0.72532 0.77247 0.49951 0.0
H1160 H 0.79356 0.7391 0.4886 0.0
H1161 H 0.75881 0.77465 0.46445 0.0
S1162 S 0.69709 0.74508 0.57283 0.0
N1163 N 0.72983 0.72819 0.56866 0.0
N1164 N 0.69271 0.7662 0.54267 0.0
C1165 C 0.71868 0.76023 0.52777 0.0
C1166 C 0.73874 0.73964 0.54179 0.0
C1167 C 0.71275 0.25781 0.48609 0.0
C1168 C 0.72169 0.23883 0.50967 0.0
C1169 C 0.73288 0.27768 0.4725 0.0
C1170 C 0.76295 0.27985 0.48202 0.0
H1171 H 0.68957 0.25806 0.47869 0.0
H1172 H 0.72431 0.2925 0.45522 0.0
S1173 S 0.79851 0.23264 0.54085 0.0
N1174 N 0.76321 0.22119 0.54022 0.0
N1175 N 0.80133 0.25912 0.51496 0.0
C1176 C 0.77282 0.25949 0.50422 0.0
C1177 C 0.75212 0.23887 0.518 0.0
C1178 C 0.26481 0.77657 0.50092 0.0
C1179 C 0.2798 0.76862 0.52767 0.0
C1180 C 0.24485 0.75638 0.48677 0.0
C1181 C 0.23925 0.72785 0.49915 0.0
H1182 H 0.2702 0.79749 0.48971 0.0
H1183 H 0.23539 0.76231 0.46518 0.0
S1184 S 0.26872 0.69839 0.57115 0.0
N1185 N 0.28453 0.73178 0.56765 0.0
N1186 N 0.24725 0.69421 0.54124 0.0
C1187 C 0.25218 0.72079 0.527 0.0
C1188 C 0.27238 0.7411 0.54125 0.0
C1189 C 0.26178 0.29816 0.48719 0.0
C1190 C 0.24337 0.28919 0.51121 0.0
C1191 C 0.28115 0.27798 0.47301 0.0
C1192 C 0.28336 0.24783 0.48234 0.0
H1193 H 0.26197 0.32139 0.47987 0.0
H1194 H 0.29561 0.28656 0.45541 0.0
S1195 S 0.23752 0.21216 0.5422 0.0
N1196 N 0.22627 0.24756 0.54201 0.0
N1197 N 0.26329 0.20934 0.51563 0.0
C1198 C 0.26353 0.23794 0.505 0.0
C1199 C 0.24342 0.25869 0.5194 0.0
C1200 C 0.07444 0.3277 0.07728 0.0
C1201 C 0.08783 0.34651 0.09858 0.0
C1202 C 0.08612 0.32515 0.0483 0.0
C1203 C 0.11237 0.34065 0.03948 0.0
H1204 H 0.05484 0.3146 0.08303 0.0
H1205 H 0.0748 0.31002 0.033 0.0
S1206 S 0.15581 0.3932 0.08752 0.0
N1207 N 0.12795 0.38182 0.10923 0.0
N1208 N 0.15102 0.37619 0.0549 0.0
C1209 C 0.12566 0.36019 0.06055 0.0
C1210 C 0.11318 0.36327 0.09006 0.0
C1211 C 0.64865 0.09752 0.07989 0.0
C1212 C 0.67367 0.09219 0.09859 0.0
C1213 C 0.65196 0.11112 0.05149 0.0
C1214 C 0.68044 0.11959 0.04084 0.0
H1215 H 0.62642 0.09069 0.08699 0.0
H1216 H 0.63235 0.11406 0.03742 0.0
S1217 S 0.75256 0.11372 0.08215 0.0
N1218 N 0.72751 0.09886 0.10504 0.0
N1219 N 0.73364 0.12399 0.05203 0.0
C1220 C 0.70536 0.11539 0.05976 0.0
C1221 C 0.70202 0.10179 0.08852 0.0
C1222 C 0.91776 0.64639 0.0839 0.0
C1223 C 0.91857 0.67098 0.10388 0.0
C1224 C 0.90386 0.64877 0.05562 0.0
C1225 C 0.89039 0.67581 0.04657 0.0
H1226 H 0.92856 0.62541 0.08982 0.0
H1227 H 0.90475 0.62987 0.04033 0.0
S1228 S 0.88337 0.74559 0.0914 0.0
N1229 N 0.90235 0.72239 0.11318 0.0
N1230 N 0.87666 0.72675 0.06021 0.0
C1231 C 0.89 0.70004 0.06671 0.0
C1232 C 0.90398 0.69767 0.09533 0.0
C1233 C 0.30853 0.90689 0.05611 0.0
C1234 C 0.3328 0.89533 0.03945 0.0
C1235 C 0.31257 0.91905 0.08472 0.0
C1236 C 0.34113 0.92065 0.09794 0.0
H1237 H 0.28593 0.90625 0.04716 0.0
H1238 H 0.29298 0.92737 0.09645 0.0
S1239 S 0.41233 0.89372 0.06396 0.0
N1240 N 0.38656 0.88611 0.03839 0.0
N1241 N 0.39433 0.90957 0.09227 0.0
C1242 C 0.36576 0.90932 0.08163 0.0
C1243 C 0.36155 0.89645 0.05243 0.0
C1244 C 0.08842 0.69779 0.92647 0.0
C1245 C 0.08872 0.66944 0.91267 0.0
C1246 C 0.10029 0.7021 0.95515 0.0
C1247 C 0.11347 0.67834 0.97141 0.0
H1248 H 0.07884 0.71705 0.91513 0.0
H1249 H 0.09946 0.72458 0.96442 0.0
S1250 S 0.1204 0.59952 0.94532 0.0
N1251 N 0.10335 0.61696 0.91736 0.0
N1252 N 0.12628 0.62526 0.97139 0.0
C1253 C 0.11425 0.64981 0.95786 0.0
C1254 C 0.10169 0.6453 0.92855 0.0
C1255 C 0.31113 0.09549 0.92322 0.0
C1256 C 0.33992 0.09197 0.91082 0.0
C1257 C 0.30702 0.10801 0.95165 0.0
C1258 C 0.33144 0.11799 0.96905 0.0
H1259 H 0.29138 0.0883 0.91101 0.0
H1260 H 0.28426 0.10995 0.96001 0.0
S1261 S 0.41157 0.11483 0.94678 0.0
N1262 N 0.3935 0.1 0.91797 0.0
N1263 N 0.38558 0.12407 0.9716 0.0
C1264 C 0.36042 0.11526 0.95683 0.0
C1265 C 0.3647 0.10205 0.92775 0.0
C1266 C 0.91212 0.31163 0.95255 0.0
C1267 C 0.89707 0.33507 0.96763 0.0
C1268 C 0.92399 0.31549 0.92383 0.0
C1269 C 0.92192 0.34309 0.90879 0.0
H1270 H 0.91445 0.28967 0.96276 0.0
H1271 H 0.93505 0.29649 0.91348 0.0
S1272 S 0.8847 0.41186 0.93774 0.0
N1273 N 0.88038 0.38701 0.96497 0.0
N1274 N 0.90348 0.3945 0.91085 0.0
C1275 C 0.90712 0.36695 0.92343 0.0
C1276 C 0.89447 0.36285 0.95279 0.0
C1277 C 0.70415 0.90164 0.95101 0.0
C1278 C 0.67989 0.89155 0.96863 0.0
C1279 C 0.6997 0.91429 0.92264 0.0
C1280 C 0.67074 0.9178 0.91071 0.0
H1281 H 0.72697 0.89976 0.95922 0.0
H1282 H 0.71922 0.92169 0.91017 0.0
S1283 S 0.59951 0.89485 0.94763 0.0
N1284 N 0.62584 0.8855 0.97201 0.0
N1285 N 0.61722 0.9097 0.91859 0.0
C1286 C 0.64617 0.90758 0.92792 0.0
C1287 C 0.6508 0.89428 0.95685 0.0
C1288 C 0.08403 0.10014 0.36205 0.0
C1289 C 0.10348 0.09604 0.33737 0.0
C1290 C 0.05536 0.11301 0.35838 0.0
C1291 C 0.04523 0.12195 0.32988 0.0
H1292 H 0.09069 0.09277 0.38423 0.0
H1293 H 0.04067 0.11489 0.37767 0.0
S1294 S 0.08841 0.11934 0.25871 0.0
N1295 N 0.11115 0.10456 0.28391 0.0
N1296 N 0.0575 0.12812 0.27713 0.0
C1297 C 0.06485 0.11905 0.30535 0.0
C1298 C 0.09391 0.10626 0.30905 0.0
C1299 C 0.89262 0.09536 0.34574 0.0
C1300 C 0.92397 0.09889 0.34633 0.0
C1301 C 0.87956 0.06673 0.34309 0.0
C1302 C 0.89755 0.04092 0.34033 0.0
H1303 H 0.87817 0.11492 0.34653 0.0
H1304 H 0.85535 0.06497 0.34153 0.0
S1305 S 0.98076 0.03832 0.34318 0.0
N1306 N 0.97255 0.07437 0.34636 0.0
N1307 N 0.94825 0.02065 0.34035 0.0
C1308 C 0.92893 0.04422 0.34203 0.0
C1309 C 0.9421 0.07323 0.34528 0.0
C1310 C 0.92116 0.914 0.31468 0.0
C1311 C 0.9108 0.92346 0.34293 0.0
C1312 C 0.94964 0.90143 0.31115 0.0
C1313 C 0.96908 0.89752 0.33571 0.0
H1314 H 0.90723 0.91643 0.2949 0.0
H1315 H 0.95652 0.89467 0.28881 0.0
S1316 S 0.95316 0.91848 0.41457 0.0
N1317 N 0.9224 0.92804 0.39618 0.0
N1318 N 0.97617 0.90395 0.38934 0.0
C1319 C 0.95904 0.90633 0.36425 0.0
C1320 C 0.92988 0.91947 0.36789 0.0
C1321 C 0.10905 0.96146 0.36022 0.0
C1322 C 0.11697 0.97193 0.33152 0.0
C1323 C 0.09638 0.93268 0.36406 0.0
C1324 C 0.09161 0.91334 0.33939 0.0
H1325 H 0.1119 0.97585 0.37961 0.0
H1326 H 0.08999 0.92569 0.38646 0.0
S1327 S 0.11216 0.92917 0.26011 0.0
N1328 N 0.12142 0.95999 0.27846 0.0
N1329 N 0.09821 0.90621 0.28562 0.0
C1330 C 0.10061 0.9233 0.3108 0.0
C1331 C 0.11315 0.95249 0.3069 0.0
C1332 C 0.05803 0.90164 0.70531 0.0
C1333 C 0.04076 0.89107 0.68102 0.0
C1334 C 0.08653 0.91404 0.70105 0.0
C1335 C 0.09906 0.91686 0.67225 0.0
H1336 H 0.0495 0.90028 0.72805 0.0
H1337 H 0.09865 0.92177 0.72065 0.0
S1338 S 0.0635 0.89222 0.60096 0.0
N1339 N 0.03854 0.88364 0.62704 0.0
N1340 N 0.09221 0.90747 0.61884 0.0
C1341 C 0.08227 0.90613 0.64764 0.0
C1342 C 0.05317 0.89306 0.65207 0.0
C1343 C 0.09746 0.05383 0.7004 0.0
C1344 C 0.11067 0.03786 0.6765 0.0
C1345 C 0.08574 0.08262 0.69644 0.0
C1346 C 0.08621 0.09678 0.66829 0.0
H1347 H 0.09666 0.04431 0.72278 0.0
H1348 H 0.07627 0.09382 0.71581 0.0
S1349 S 0.11748 0.06474 0.59799 0.0
N1350 N 0.12331 0.03833 0.62342 0.0
N1351 N 0.10057 0.0926 0.61575 0.0
C1352 C 0.09888 0.08107 0.64393 0.0
C1353 C 0.11135 0.05166 0.6481 0.0
C1354 C 0.95739 0.10966 0.65078 0.0
C1355 C 0.96672 0.12101 0.67868 0.0
C1356 C 0.92915 0.09569 0.64764 0.0
C1357 C 0.90941 0.09276 0.67228 0.0
H1358 H 0.97241 0.11048 0.63167 0.0
H1359 H 0.92306 0.08654 0.62595 0.0
S1360 S 0.92237 0.12229 0.74917 0.0
N1361 N 0.95329 0.13074 0.7306 0.0
N1362 N 0.90054 0.10489 0.72482 0.0
C1363 C 0.91816 0.10533 0.69989 0.0
C1364 C 0.94672 0.11936 0.70304 0.0
C1365 C 0.91833 0.92438 0.70056 0.0
C1366 C 0.92026 0.91107 0.67205 0.0
C1367 C 0.90586 0.9529 0.70447 0.0
C1368 C 0.89431 0.96944 0.6801 0.0
H1369 H 0.9266 0.91276 0.72024 0.0
H1370 H 0.90499 0.96188 0.72705 0.0
S1371 S 0.89358 0.94472 0.6006 0.0
N1372 N 0.90954 0.91657 0.61876 0.0
N1373 N 0.88553 0.97029 0.62626 0.0
C1374 C 0.8958 0.95639 0.65138 0.0
C1375 C 0.90897 0.92726 0.64731 0.0
C1376 C 0.30735 0.05652 0.10447 0.0
C1377 C 0.33183 0.04018 0.11606 0.0
C1378 C 0.31109 0.08497 0.09181 0.0
C1379 C 0.33954 0.09841 0.08978 0.0
H1380 H 0.28483 0.04737 0.10536 0.0
H1381 H 0.29136 0.09642 0.08342 0.0
S1382 S 0.41117 0.06539 0.11676 0.0
N1383 N 0.38565 0.03969 0.12492 0.0
N1384 N 0.39285 0.09334 0.10063 0.0
C1385 C 0.36437 0.08247 0.10125 0.0
C1386 C 0.36046 0.0534 0.11458 0.0
C1387 C 0.30807 0.95329 0.90592 0.0
C1388 C 0.33222 0.97045 0.89486 0.0
C1389 C 0.31237 0.92458 0.91779 0.0
C1390 C 0.34111 0.91172 0.91961 0.0
H1391 H 0.28536 0.96196 0.90514 0.0
H1392 H 0.29284 0.9125 0.92575 0.0
S1393 S 0.4121 0.94707 0.89382 0.0
N1394 N 0.38606 0.97237 0.88619 0.0
N1395 N 0.39434 0.91829 0.90916 0.0
C1396 C 0.36562 0.92852 0.90869 0.0
C1397 C 0.36113 0.95783 0.89609 0.0
C1398 C 0.05904 0.31097 0.90611 0.0
C1399 C 0.04248 0.33557 0.89503 0.0
C1400 C 0.08772 0.3146 0.91821 0.0
C1401 C 0.10119 0.34305 0.92019 0.0
H1402 H 0.04991 0.28842 0.90518 0.0
H1403 H 0.0993 0.29478 0.92623 0.0
S1404 S 0.06765 0.41496 0.89436 0.0
N1405 N 0.04185 0.38947 0.88649 0.0
N1406 N 0.09589 0.39651 0.90981 0.0
C1407 C 0.08505 0.36799 0.90917 0.0
C1408 C 0.05574 0.36419 0.8964 0.0
C1409 C 0.6968 0.08471 0.91855 0.0
C1410 C 0.66825 0.09788 0.92068 0.0
C1411 C 0.70068 0.05605 0.90644 0.0
C1412 C 0.67624 0.03922 0.89548 0.0
H1413 H 0.71654 0.09654 0.92636 0.0
H1414 H 0.72331 0.0472 0.90532 0.0
S1415 S 0.59663 0.06348 0.89538 0.0
N1416 N 0.61485 0.09196 0.91073 0.0
N1417 N 0.62232 0.03793 0.88737 0.0
C1418 C 0.64748 0.05212 0.89714 0.0
C1419 C 0.64343 0.08141 0.90995 0.0
C1420 C 0.94555 0.65963 0.883 0.0
C1421 C 0.97103 0.66231 0.90146 0.0
C1422 C 0.91668 0.65725 0.89553 0.0
C1423 C 0.91256 0.65683 0.92679 0.0
H1424 H 0.94772 0.66136 0.85884 0.0
H1425 H 0.89741 0.65671 0.88071 0.0
S1426 S 0.97207 0.65962 0.98469 0.0
N1427 N 0.99034 0.66227 0.9525 0.0
N1428 N 0.93619 0.65658 0.97582 0.0
C1429 C 0.93789 0.65756 0.94539 0.0
C1430 C 0.96715 0.66057 0.93275 0.0
C1431 C 0.67405 0.94475 0.13037 0.0
C1432 C 0.67031 0.97009 0.11187 0.0
C1433 C 0.67273 0.91558 0.1184 0.0
C1434 C 0.66694 0.91093 0.08776 0.0
H1435 H 0.67965 0.94753 0.15388 0.0
H1436 H 0.67672 0.89658 0.13307 0.0
S1437 S 0.6537 0.96961 0.03036 0.0
N1438 N 0.65992 0.98859 0.06164 0.0
N1439 N 0.65582 0.9337 0.03954 0.0
C1440 C 0.6618 0.93596 0.06935 0.0
C1441 C 0.66394 0.96561 0.08132 0.0
C1442 C 0.05291 0.65507 0.11457 0.0
C1443 C 0.0422 0.6838 0.12211 0.0
C1444 C 0.08117 0.6514 0.10082 0.0
C1445 C 0.09978 0.67629 0.09448 0.0
H1446 H 0.03901 0.63547 0.11845 0.0
H1447 H 0.08831 0.62893 0.09482 0.0
S1448 S 0.08317 0.75593 0.11309 0.0
N1449 N 0.0532 0.73726 0.12431 0.0
N1450 N 0.10605 0.73043 0.09904 0.0
C1451 C 0.08966 0.70497 0.10306 0.0
C1452 C 0.06096 0.70868 0.11673 0.0
C1453 C 0.95687 0.35983 0.10892 0.0
C1454 C 0.96707 0.33151 0.11836 0.0
C1455 C 0.92857 0.36302 0.0952 0.0
C1456 C 0.90958 0.33802 0.0907 0.0
H1457 H 0.97125 0.37935 0.11111 0.0
H1458 H 0.92181 0.3851 0.08756 0.0
S1459 S 0.92477 0.2597 0.11512 0.0
N1460 N 0.95513 0.2786 0.12475 0.0
N1461 N 0.90226 0.28451 0.09932 0.0
C1462 C 0.91915 0.30988 0.10136 0.0
C1463 C 0.9478 0.30667 0.11512 0.0
C1464 C 0.6077 0.81008 0.56073 0.0
C1465 C 0.61694 0.83478 0.54322 0.0
C1466 C 0.5955 0.8139 0.58934 0.0
C1467 C 0.59163 0.84262 0.60178 0.0
H1468 H 0.60999 0.78735 0.5523 0.0
H1469 H 0.58877 0.79401 0.60163 0.0
S1470 S 0.61292 0.91484 0.56571 0.0
N1471 N 0.62221 0.88904 0.54071 0.0
N1472 N 0.59876 0.89642 0.59466 0.0
C1473 C 0.60114 0.86764 0.5848 0.0
C1474 C 0.61398 0.86367 0.55555 0.0
C1475 C 0.1989 0.59444 0.58484 0.0
C1476 C 0.17024 0.5918 0.59769 0.0
C1477 C 0.20285 0.60638 0.55613 0.0
C1478 C 0.17838 0.61662 0.53891 0.0
H1479 H 0.21865 0.58714 0.59696 0.0
H1480 H 0.22556 0.60791 0.54753 0.0
S1481 S 0.09852 0.61534 0.56231 0.0
N1482 N 0.11671 0.60063 0.5911 0.0
N1483 N 0.12433 0.62365 0.53698 0.0
C1484 C 0.14952 0.61453 0.55152 0.0
C1485 C 0.1454 0.60191 0.58087 0.0
C1486 C 0.40572 0.20546 0.55612 0.0
C1487 C 0.39374 0.18153 0.53919 0.0
C1488 C 0.41784 0.20091 0.5847 0.0
C1489 C 0.4189 0.17215 0.5976 0.0
H1490 H 0.40561 0.22815 0.54731 0.0
H1491 H 0.42667 0.22018 0.59663 0.0
S1492 S 0.3904 0.10176 0.563 0.0
N1493 N 0.38336 0.12795 0.53768 0.0
N1494 N 0.40659 0.1192 0.59145 0.0
C1495 C 0.40693 0.14791 0.58109 0.0
C1496 C 0.39418 0.15265 0.55195 0.0
C1497 C 0.85543 0.3964 0.55218 0.0
C1498 C 0.82659 0.38908 0.54175 0.0
C1499 C 0.85948 0.40988 0.5805 0.0
C1500 C 0.83485 0.41615 0.59945 0.0
H1501 H 0.87484 0.3926 0.53803 0.0
H1502 H 0.88204 0.41572 0.58741 0.0
S1503 S 0.75502 0.39814 0.58354 0.0
N1504 N 0.77328 0.38707 0.55328 0.0
N1505 N 0.78083 0.41183 0.60629 0.0
C1506 C 0.80605 0.40779 0.58959 0.0
C1507 C 0.80195 0.3944 0.56082 0.0
C1508 C 0.5918 0.14466 0.42803 0.0
C1509 C 0.59274 0.1691 0.40785 0.0
C1510 C 0.60416 0.14696 0.45707 0.0
C1511 C 0.61773 0.17378 0.46664 0.0
H1512 H 0.58078 0.12392 0.42167 0.0
H1513 H 0.60209 0.12817 0.47239 0.0
S1514 S 0.6294 0.2428 0.4215 0.0
N1515 N 0.61094 0.21992 0.39895 0.0
N1516 N 0.63378 0.22413 0.4532 0.0
C1517 C 0.61997 0.19776 0.44628 0.0
C1518 C 0.60755 0.19547 0.41695 0.0
C1519 C 0.80793 0.59427 0.42406 0.0
C1520 C 0.83678 0.59107 0.41178 0.0
C1521 C 0.80363 0.60697 0.45244 0.0
C1522 C 0.82794 0.61741 0.46982 0.0
H1523 H 0.78836 0.58668 0.4118 0.0
H1524 H 0.78084 0.60873 0.46076 0.0
S1525 S 0.90816 0.61485 0.4478 0.0
N1526 N 0.89028 0.59969 0.41906 0.0
N1527 N 0.88201 0.62398 0.47246 0.0
C1528 C 0.85695 0.61484 0.45769 0.0
C1529 C 0.86142 0.60151 0.42874 0.0
C1530 C 0.39777 0.85878 0.4564 0.0
C1531 C 0.38897 0.83032 0.46684 0.0
C1532 C 0.4114 0.86212 0.42804 0.0
C1533 C 0.41641 0.83714 0.40917 0.0
H1534 H 0.39511 0.87835 0.4706 0.0
H1535 H 0.41854 0.88434 0.42113 0.0
S1536 S 0.39387 0.75835 0.425 0.0
N1537 N 0.38387 0.7772 0.45528 0.0
N1538 N 0.409 0.7834 0.40227 0.0
C1539 C 0.40641 0.80882 0.41899 0.0
C1540 C 0.39281 0.80544 0.44774 0.0
C1541 C 0.14704 0.41851 0.43097 0.0
C1542 C 0.17154 0.42062 0.41094 0.0
C1543 C 0.15028 0.4053 0.45955 0.0
C1544 C 0.17814 0.39395 0.46894 0.0
H1545 H 0.12537 0.4276 0.42477 0.0
H1546 H 0.13126 0.40494 0.47471 0.0
S1547 S 0.24829 0.39083 0.42413 0.0
N1548 N 0.22393 0.40786 0.40203 0.0
N1549 N 0.22988 0.38341 0.4554 0.0
C1550 C 0.20238 0.39489 0.44874 0.0
C1551 C 0.19913 0.40814 0.41984 0.0
C1552 C 0.58071 0.59802 0.86044 0.0
C1553 C 0.60014 0.59366 0.83579 0.0
C1554 C 0.55238 0.61161 0.85683 0.0
C1555 C 0.54251 0.62098 0.82838 0.0
H1556 H 0.5872 0.59049 0.88263 0.0
H1557 H 0.53774 0.61377 0.87613 0.0
S1558 S 0.58575 0.61769 0.75724 0.0
N1559 N 0.60807 0.60219 0.78239 0.0
N1560 N 0.55505 0.62715 0.77567 0.0
C1561 C 0.5621 0.61772 0.80384 0.0
C1562 C 0.59085 0.60419 0.8075 0.0
C1563 C 0.42256 0.58334 0.81196 0.0
C1564 C 0.42267 0.59729 0.84019 0.0
C1565 C 0.4105 0.55467 0.80803 0.0
C1566 C 0.39754 0.53863 0.83206 0.0
H1567 H 0.43191 0.59457 0.79254 0.0
H1568 H 0.41095 0.54525 0.78561 0.0
S1569 S 0.39186 0.56523 0.91072 0.0
N1570 N 0.40883 0.59302 0.89288 0.0
N1571 N 0.3855 0.53897 0.88528 0.0
C1572 C 0.39729 0.55231 0.86051 0.0
C1573 C 0.41008 0.58159 0.86464 0.0
C1574 C 0.42399 0.41604 0.80681 0.0
C1575 C 0.41145 0.41834 0.83563 0.0
C1576 C 0.45255 0.40382 0.80241 0.0
C1577 C 0.46982 0.39297 0.8266 0.0
H1578 H 0.4118 0.42393 0.78732 0.0
H1579 H 0.46102 0.4027 0.77965 0.0
S1580 S 0.4471 0.3932 0.90669 0.0
N1581 N 0.41835 0.40848 0.88895 0.0
N1582 N 0.4721 0.38506 0.88053 0.0
C1583 C 0.45745 0.3947 0.85558 0.0
C1584 C 0.42831 0.40754 0.86014 0.0
C1585 C 0.59881 0.43056 0.85749 0.0
C1586 C 0.591 0.41271 0.83249 0.0
C1587 C 0.61199 0.45914 0.85389 0.0
C1588 C 0.61736 0.47106 0.82515 0.0
H1589 H 0.59474 0.42241 0.88004 0.0
H1590 H 0.61741 0.47219 0.87368 0.0
S1591 S 0.60282 0.43282 0.75241 0.0
N1592 N 0.59114 0.40877 0.77803 0.0
N1593 N 0.61524 0.46215 0.77129 0.0
C1594 C 0.61006 0.45323 0.80004 0.0
C1595 C 0.59705 0.42418 0.8037 0.0
C1596 C 0.55237 0.40663 0.14536 0.0
C1597 C 0.54389 0.3918 0.17188 0.0
C1598 C 0.58127 0.41922 0.14246 0.0
C1599 C 0.60233 0.41744 0.16606 0.0
H1600 H 0.53625 0.40961 0.12741 0.0
H1601 H 0.58677 0.43128 0.12207 0.0
S1602 S 0.59155 0.37763 0.23856 0.0
N1603 N 0.55922 0.37375 0.22091 0.0
N1604 N 0.61319 0.39715 0.21564 0.0
C1605 C 0.59431 0.40134 0.19203 0.0
C1606 C 0.56516 0.38859 0.19488 0.0
C1607 C 0.60979 0.55067 0.15071 0.0
C1608 C 0.61873 0.54027 0.17913 0.0
C1609 C 0.5964 0.57917 0.14734 0.0
C1610 C 0.5919 0.59825 0.17224 0.0
H1611 H 0.61233 0.53639 0.13119 0.0
H1612 H 0.58928 0.58613 0.12517 0.0
S1613 S 0.61484 0.58238 0.25089 0.0
N1614 N 0.62425 0.55189 0.23209 0.0
N1615 N 0.59981 0.60521 0.2259 0.0
C1616 C 0.60192 0.58834 0.20053 0.0
C1617 C 0.61516 0.55943 0.20393 0.0
C1618 C 0.45732 0.61248 0.15264 0.0
C1619 C 0.46807 0.61964 0.18143 0.0
C1620 C 0.42849 0.59998 0.14873 0.0
C1621 C 0.40934 0.59457 0.17341 0.0
H1622 H 0.47157 0.61565 0.1332 0.0
H1623 H 0.42137 0.59415 0.12623 0.0
S1624 S 0.42587 0.61286 0.25305 0.0
N1625 N 0.45653 0.62262 0.2347 0.0
N1626 N 0.40267 0.59971 0.22737 0.0
C1627 C 0.41952 0.60285 0.20212 0.0
C1628 C 0.44878 0.61524 0.2061 0.0
C1629 C 0.4221 0.42881 0.19697 0.0
C1630 C 0.42204 0.41461 0.16885 0.0
C1631 C 0.40987 0.45743 0.20083 0.0
C1632 C 0.39659 0.47322 0.17681 0.0
H1633 H 0.43166 0.41778 0.21641 0.0
H1634 H 0.41042 0.46696 0.22319 0.0
S1635 S 0.39051 0.446 0.09835 0.0
N1636 N 0.40775 0.41845 0.11627 0.0
N1637 N 0.38421 0.47238 0.12367 0.0
C1638 C 0.39626 0.45932 0.14846 0.0
C1639 C 0.40915 0.43007 0.14442 0.0
C1640 C 0.85636 0.5502 0.60875 0.0
C1641 C 0.82793 0.53955 0.61738 0.0
C1642 C 0.85972 0.5789 0.59576 0.0
C1643 C 0.83481 0.598 0.59133 0.0
H1644 H 0.87594 0.53601 0.61132 0.0
H1645 H 0.88194 0.58604 0.58894 0.0
S1646 S 0.75604 0.58162 0.61335 0.0
N1647 N 0.77483 0.55107 0.62259 0.0
N1648 N 0.78111 0.60468 0.59877 0.0
C1649 C 0.80648 0.58785 0.60092 0.0
C1650 C 0.80307 0.55874 0.6138 0.0
C1651 C 0.80649 0.45304 0.40746 0.0
C1652 C 0.83102 0.46984 0.39661 0.0
C1653 C 0.81025 0.42435 0.41954 0.0
C1654 C 0.83877 0.41114 0.42172 0.0
H1655 H 0.78388 0.46194 0.40629 0.0
H1656 H 0.79048 0.41253 0.42731 0.0
S1657 S 0.91056 0.44538 0.3966 0.0
N1658 N 0.88496 0.47102 0.38859 0.0
N1659 N 0.89222 0.41693 0.41187 0.0
C1660 C 0.86366 0.42757 0.41106 0.0
C1661 C 0.85974 0.45688 0.3983 0.0
C1662 C 0.55614 0.80896 0.40954 0.0
C1663 C 0.53965 0.8331 0.39736 0.0
C1664 C 0.58479 0.81307 0.42162 0.0
C1665 C 0.59824 0.84157 0.42249 0.0
H1666 H 0.54706 0.78638 0.40941 0.0
H1667 H 0.59638 0.7936 0.43045 0.0
S1668 S 0.56481 0.91243 0.3938 0.0
N1669 N 0.53904 0.88666 0.38682 0.0
N1670 N 0.59295 0.89459 0.41011 0.0
C1671 C 0.58209 0.86608 0.41056 0.0
C1672 C 0.55286 0.86178 0.3978 0.0
C1673 C 0.15041 0.5827 0.41036 0.0
C1674 C 0.17526 0.60148 0.41632 0.0
C1675 C 0.15409 0.5542 0.39709 0.0
C1676 C 0.18278 0.54339 0.38965 0.0
H1677 H 0.12796 0.5899 0.41628 0.0
H1678 H 0.1345 0.54024 0.39347 0.0
S1679 S 0.25481 0.58469 0.39783 0.0
N1680 N 0.22931 0.60777 0.41157 0.0
N1681 N 0.23619 0.55449 0.38714 0.0
C1682 C 0.20764 0.5623 0.39467 0.0
C1683 C 0.2039 0.59124 0.40788 0.0
C1684 C 0.45522 0.20479 0.40399 0.0
C1685 C 0.47137 0.18031 0.39211 0.0
C1686 C 0.42675 0.20109 0.41663 0.0
C1687 C 0.41318 0.17267 0.41838 0.0
H1688 H 0.46452 0.22728 0.40335 0.0
H1689 H 0.41543 0.2208 0.42528 0.0
S1690 S 0.44565 0.10109 0.39045 0.0
N1691 N 0.47149 0.12656 0.38257 0.0
N1692 N 0.41788 0.11941 0.40687 0.0
C1693 C 0.42893 0.14786 0.4066 0.0
C1694 C 0.45797 0.15173 0.39326 0.0
C1695 C 0.20454 0.45543 0.60524 0.0
C1696 C 0.18007 0.47203 0.6165 0.0
C1697 C 0.20074 0.42681 0.59295 0.0
C1698 C 0.17224 0.41347 0.59098 0.0
H1699 H 0.22709 0.46452 0.60608 0.0
H1700 H 0.22045 0.41517 0.58477 0.0
S1701 S 0.10063 0.44718 0.61726 0.0
N1702 N 0.12623 0.47285 0.62518 0.0
N1703 N 0.11889 0.41893 0.60159 0.0
C1704 C 0.14744 0.42965 0.6022 0.0
C1705 C 0.1514 0.45888 0.61513 0.0
C1706 C 0.58565 0.19579 0.59227 0.0
C1707 C 0.5982 0.167 0.58936 0.0
C1708 C 0.55718 0.19996 0.60467 0.0
C1709 C 0.53986 0.17558 0.61508 0.0
H1710 H 0.5978 0.21548 0.58477 0.0
H1711 H 0.54879 0.22275 0.60628 0.0
S1712 S 0.5626 0.09549 0.61355 0.0
N1713 N 0.59133 0.11348 0.59841 0.0
N1714 N 0.53761 0.12151 0.62221 0.0
C1715 C 0.55223 0.14662 0.61289 0.0
C1716 C 0.58137 0.14228 0.59985 0.0
C1717 C 0.45531 0.81128 0.59894 0.0
C1718 C 0.47114 0.83552 0.61176 0.0
C1719 C 0.42667 0.815 0.58675 0.0
C1720 C 0.41264 0.84321 0.58635 0.0
H1721 H 0.46483 0.78889 0.59879 0.0
H1722 H 0.41551 0.79545 0.57754 0.0
S1723 S 0.4444 0.91426 0.61639 0.0
N1724 N 0.47064 0.88892 0.62314 0.0
N1725 N 0.41675 0.89612 0.59956 0.0
C1726 C 0.42822 0.86786 0.59868 0.0
C1727 C 0.45742 0.86395 0.61161 0.0
loop_
_geom_bond_atom_site_label_1
_geom_bond_atom_site_label_2
_geom_bond_distance
_geom_bond_site_symmetry_2
_ccdc_geom_bond_type
Co0 O1 2.216 . S
Co0 O2 2.091 . S
Co0 O4 2.004 1_455 S
Co0 O10 2.021 . S
Co0 O12 2.137 . S
Co0 O13 2.244 . S
O1 Co0 2.216 . S
O1 C8 1.247 . S
O2 Co0 2.091 . S
O2 C8 1.261 . S
C3 O12 1.247 . S
C3 O13 1.272 . S
O4 Co0 2.004 1_655 S
O4 C9 1.259 . S
Co5 O6 2.061 1_455 S
Co5 O11 2.052 . S
Co5 O13 2.135 . S
O6 Co5 2.061 1_655 S
O6 C9 1.235 . S
C7 O10 1.238 . S
C7 O11 1.241 . S
C8 O1 1.247 . S
C8 O2 1.261 . S
C9 O4 1.259 . S
C9 O6 1.235 . S
O10 Co0 2.021 . S
O10 C7 1.238 . S
O11 Co5 2.052 . S
O11 C7 1.241 . S
O12 Co0 2.137 . S
O12 C3 1.247 . S
O13 Co0 2.244 . S
O13 C3 1.272 . S
O13 Co5 2.135 . S
Co14 O15 2.216 . S
Co14 O16 2.091 . S
Co14 O18 2.004 1_545 S
Co14 O24 2.021 . S
Co14 O26 2.137 . S
Co14 O27 2.244 . S
O15 Co14 2.216 . S
O15 C22 1.247 . S
O16 Co14 2.091 . S
O16 C22 1.261 . S
C17 O26 1.247 . S
C17 O27 1.272 . S
O18 Co14 2.004 1_565 S
O18 C23 1.259 . S
Co19 O20 2.061 1_545 S
Co19 O25 2.052 . S
Co19 O27 2.135 . S
O20 Co19 2.061 1_565 S
O20 C23 1.235 . S
C21 O24 1.238 . S
C21 O25 1.241 . S
C22 O15 1.247 . S
C22 O16 1.261 . S
C23 O18 1.259 . S
C23 O20 1.235 . S
O24 Co14 2.021 . S
O24 C21 1.238 . S
O25 Co19 2.052 . S
O25 C21 1.241 . S
O26 Co14 2.137 . S
O26 C17 1.247 . S
O27 Co14 2.244 . S
O27 C17 1.272 . S
O27 Co19 2.135 . S
Co28 O29 2.216 . S
Co28 O30 2.091 . S
Co28 O32 2.004 1_655 S
Co28 O38 2.021 . S
Co28 O40 2.137 . S
Co28 O41 2.244 . S
O29 Co28 2.216 . S
O29 C36 1.247 . S
O30 Co28 2.091 . S
O30 C36 1.261 . S
C31 O40 1.247 . S
C31 O41 1.272 . S
O32 Co28 2.004 1_455 S
O32 C37 1.259 . S
Co33 O34 2.061 1_655 S
Co33 O39 2.052 . S
Co33 O41 2.135 . S
O34 Co33 2.061 1_455 S
O34 C37 1.235 . S
C35 O38 1.238 . S
C35 O39 1.241 . S
C36 O29 1.247 . S
C36 O30 1.261 . S
C37 O32 1.259 . S
C37 O34 1.235 . S
O38 Co28 2.021 . S
O38 C35 1.238 . S
O39 Co33 2.052 . S
O39 C35 1.241 . S
O40 Co28 2.137 . S
O40 C31 1.247 . S
O41 Co28 2.244 . S
O41 C31 1.272 . S
O41 Co33 2.135 . S
Co42 O43 2.216 . S
Co42 O44 2.091 . S
Co42 O46 2.004 1_565 S
Co42 O52 2.021 . S
Co42 O54 2.137 . S
Co42 O55 2.244 . S
O43 Co42 2.216 . S
O43 C50 1.247 . S
O44 Co42 2.091 . S
O44 C50 1.261 . S
C45 O54 1.247 . S
C45 O55 1.272 . S
O46 Co42 2.004 1_545 S
O46 C51 1.259 . S
Co47 O48 2.061 1_565 S
Co47 O53 2.052 . S
Co47 O55 2.135 . S
O48 Co47 2.061 1_545 S
O48 C51 1.235 . S
C49 O52 1.238 . S
C49 O53 1.241 . S
C50 O43 1.247 . S
C50 O44 1.261 . S
C51 O46 1.259 . S
C51 O48 1.235 . S
O52 Co42 2.021 . S
O52 C49 1.238 . S
O53 Co47 2.052 . S
O53 C49 1.241 . S
O54 Co42 2.137 . S
O54 C45 1.247 . S
O55 Co42 2.244 . S
O55 C45 1.272 . S
O55 Co47 2.135 . S
Co56 O57 2.216 . S
Co56 O58 2.091 . S
Co56 O60 2.004 1_455 S
Co56 O66 2.021 . S
Co56 O68 2.137 . S
Co56 O69 2.244 . S
O57 Co56 2.216 . S
O57 C64 1.247 . S
O58 Co56 2.091 . S
O58 C64 1.261 . S
C59 O68 1.247 . S
C59 O69 1.272 . S
O60 Co56 2.004 1_655 S
O60 C65 1.259 . S
Co61 O62 2.061 1_455 S
Co61 O67 2.052 . S
Co61 O69 2.135 . S
O62 Co61 2.061 1_655 S
O62 C65 1.235 . S
C63 O66 1.238 . S
C63 O67 1.241 . S
C64 O57 1.247 . S
C64 O58 1.261 . S
C65 O60 1.259 . S
C65 O62 1.235 . S
O66 Co56 2.021 . S
O66 C63 1.238 . S
O67 Co61 2.052 . S
O67 C63 1.241 . S
O68 Co56 2.137 . S
O68 C59 1.247 . S
O69 Co56 2.244 . S
O69 C59 1.272 . S
O69 Co61 2.135 . S
Co70 O71 2.216 . S
Co70 O72 2.091 . S
Co70 O74 2.004 1_545 S
Co70 O80 2.021 . S
Co70 O82 2.137 . S
Co70 O83 2.244 . S
O71 Co70 2.216 . S
O71 C78 1.247 . S
O72 Co70 2.091 . S
O72 C78 1.261 . S
C73 O82 1.247 . S
C73 O83 1.272 . S
O74 Co70 2.004 1_565 S
O74 C79 1.259 . S
Co75 O76 2.061 1_545 S
Co75 O81 2.052 . S
Co75 O83 2.135 . S
O76 Co75 2.061 1_565 S
O76 C79 1.235 . S
C77 O80 1.238 . S
C77 O81 1.241 . S
C78 O71 1.247 . S
C78 O72 1.261 . S
C79 O74 1.259 . S
C79 O76 1.235 . S
O80 Co70 2.021 . S
O80 C77 1.238 . S
O81 Co75 2.052 . S
O81 C77 1.241 . S
O82 Co70 2.137 . S
O82 C73 1.247 . S
O83 Co70 2.244 . S
O83 C73 1.272 . S
O83 Co75 2.135 . S
Co84 O85 2.216 . S
Co84 O86 2.091 . S
Co84 O88 2.004 1_655 S
Co84 O94 2.021 . S
Co84 O96 2.137 . S
Co84 O97 2.244 . S
O85 Co84 2.216 . S
O85 C92 1.247 . S
O86 Co84 2.091 . S
O86 C92 1.261 . S
C87 O96 1.247 . S
C87 O97 1.272 . S
O88 Co84 2.004 1_455 S
O88 C93 1.259 . S
Co89 O90 2.061 1_655 S
Co89 O95 2.052 . S
Co89 O97 2.135 . S
O90 Co89 2.061 1_455 S
O90 C93 1.235 . S
C91 O94 1.238 . S
C91 O95 1.241 . S
C92 O85 1.247 . S
C92 O86 1.261 . S
C93 O88 1.259 . S
C93 O90 1.235 . S
O94 Co84 2.021 . S
O94 C91 1.238 . S
O95 Co89 2.052 . S
O95 C91 1.241 . S
O96 Co84 2.137 . S
O96 C87 1.247 . S
O97 Co84 2.244 . S
O97 C87 1.272 . S
O97 Co89 2.135 . S
Co98 O99 2.216 . S
Co98 O100 2.091 . S
Co98 O102 2.004 1_565 S
Co98 O108 2.021 . S
Co98 O110 2.137 . S
Co98 O111 2.244 . S
O99 Co98 2.216 . S
O99 C106 1.247 . S
O100 Co98 2.091 . S
O100 C106 1.261 . S
C101 O110 1.247 . S
C101 O111 1.272 . S
O102 Co98 2.004 1_545 S
O102 C107 1.259 . S
Co103 O104 2.061 1_565 S
Co103 O109 2.052 . S
Co103 O111 2.135 . S
O104 Co103 2.061 1_545 S
O104 C107 1.235 . S
C105 O108 1.238 . S
C105 O109 1.241 . S
C106 O99 1.247 . S
C106 O100 1.261 . S
C107 O102 1.259 . S
C107 O104 1.235 . S
O108 Co98 2.021 . S
O108 C105 1.238 . S
O109 Co103 2.052 . S
O109 C105 1.241 . S
O110 Co98 2.137 . S
O110 C101 1.247 . S
O111 Co98 2.244 . S
O111 C101 1.272 . S
O111 Co103 2.135 . S
Co112 O113 2.216 . S
Co112 O114 2.091 . S
Co112 O116 2.004 1_545 S
Co112 O122 2.021 . S
Co112 O124 2.137 . S
Co112 O125 2.244 . S
O113 Co112 2.216 . S
O113 C120 1.247 . S
O114 Co112 2.091 . S
O114 C120 1.261 . S
C115 O124 1.247 . S
C115 O125 1.272 . S
O116 Co112 2.004 1_565 S
O116 C121 1.259 . S
Co117 O118 2.061 1_545 S
Co117 O123 2.052 . S
Co117 O125 2.135 . S
O118 Co117 2.061 1_565 S
O118 C121 1.235 . S
C119 O122 1.238 . S
C119 O123 1.241 . S
C120 O113 1.247 . S
C120 O114 1.261 . S
C121 O116 1.259 . S
C121 O118 1.235 . S
O122 Co112 2.021 . S
O122 C119 1.238 . S
O123 Co117 2.052 . S
O123 C119 1.241 . S
O124 Co112 2.137 . S
O124 C115 1.247 . S
O125 Co112 2.244 . S
O125 C115 1.272 . S
O125 Co117 2.135 . S
Co126 O127 2.216 . S
Co126 O128 2.091 . S
Co126 O130 2.004 1_655 S
Co126 O136 2.021 . S
Co126 O138 2.137 . S
Co126 O139 2.244 . S
O127 Co126 2.216 . S
O127 C134 1.247 . S
O128 Co126 2.091 . S
O128 C134 1.261 . S
C129 O138 1.247 . S
C129 O139 1.272 . S
O130 Co126 2.004 1_455 S
O130 C135 1.259 . S
Co131 O132 2.061 1_655 S
Co131 O137 2.052 . S
Co131 O139 2.135 . S
O132 Co131 2.061 1_455 S
O132 C135 1.235 . S
C133 O136 1.238 . S
C133 O137 1.241 . S
C134 O127 1.247 . S
C134 O128 1.261 . S
C135 O130 1.259 . S
C135 O132 1.235 . S
O136 Co126 2.021 . S
O136 C133 1.238 . S
O137 Co131 2.052 . S
O137 C133 1.241 . S
O138 Co126 2.137 . S
O138 C129 1.247 . S
O139 Co126 2.244 . S
O139 C129 1.272 . S
O139 Co131 2.135 . S
Co140 O141 2.216 . S
Co140 O142 2.091 . S
Co140 O144 2.004 1_565 S
Co140 O150 2.021 . S
Co140 O152 2.137 . S
Co140 O153 2.244 . S
O141 Co140 2.216 . S
O141 C148 1.247 . S
O142 Co140 2.091 . S
O142 C148 1.261 . S
C143 O152 1.247 . S
C143 O153 1.272 . S
O144 Co140 2.004 1_545 S
O144 C149 1.259 . S
Co145 O146 2.061 1_565 S
Co145 O151 2.052 . S
Co145 O153 2.135 . S
O146 Co145 2.061 1_545 S
O146 C149 1.235 . S
C147 O150 1.238 . S
C147 O151 1.241 . S
C148 O141 1.247 . S
C148 O142 1.261 . S
C149 O144 1.259 . S
C149 O146 1.235 . S
O150 Co140 2.021 . S
O150 C147 1.238 . S
O151 Co145 2.052 . S
O151 C147 1.241 . S
O152 Co140 2.137 . S
O152 C143 1.247 . S
O153 Co140 2.244 . S
O153 C143 1.272 . S
O153 Co145 2.135 . S
Co154 O155 2.216 . S
Co154 O156 2.091 . S
Co154 O158 2.004 1_455 S
Co154 O164 2.021 . S
Co154 O166 2.137 . S
Co154 O167 2.244 . S
O155 Co154 2.216 . S
O155 C162 1.247 . S
O156 Co154 2.091 . S
O156 C162 1.261 . S
C157 O166 1.247 . S
C157 O167 1.272 . S
O158 Co154 2.004 1_655 S
O158 C163 1.259 . S
Co159 O160 2.061 1_455 S
Co159 O165 2.052 . S
Co159 O167 2.135 . S
O160 Co159 2.061 1_655 S
O160 C163 1.235 . S
C161 O164 1.238 . S
C161 O165 1.241 . S
C162 O155 1.247 . S
C162 O156 1.261 . S
C163 O158 1.259 . S
C163 O160 1.235 . S
O164 Co154 2.021 . S
O164 C161 1.238 . S
O165 Co159 2.052 . S
O165 C161 1.241 . S
O166 Co154 2.137 . S
O166 C157 1.247 . S
O167 Co154 2.244 . S
O167 C157 1.272 . S
O167 Co159 2.135 . S
Co168 O169 2.216 . S
Co168 O170 2.091 . S
Co168 O172 2.004 1_565 S
Co168 O178 2.021 . S
Co168 O180 2.137 . S
Co168 O181 2.244 . S
O169 Co168 2.216 . S
O169 C176 1.247 . S
O170 Co168 2.091 . S
O170 C176 1.261 . S
C171 O180 1.247 . S
C171 O181 1.272 . S
O172 Co168 2.004 1_545 S
O172 C177 1.259 . S
Co173 O174 2.061 1_565 S
Co173 O179 2.052 . S
Co173 O181 2.135 . S
O174 Co173 2.061 1_545 S
O174 C177 1.235 . S
C175 O178 1.238 . S
C175 O179 1.241 . S
C176 O169 1.247 . S
C176 O170 1.261 . S
C177 O172 1.259 . S
C177 O174 1.235 . S
O178 Co168 2.021 . S
O178 C175 1.238 . S
O179 Co173 2.052 . S
O179 C175 1.241 . S
O180 Co168 2.137 . S
O180 C171 1.247 . S
O181 Co168 2.244 . S
O181 C171 1.272 . S
O181 Co173 2.135 . S
Co182 O183 2.216 . S
Co182 O184 2.091 . S
Co182 O186 2.004 1_455 S
Co182 O192 2.021 . S
Co182 O194 2.137 . S
Co182 O195 2.244 . S
O183 Co182 2.216 . S
O183 C190 1.247 . S
O184 Co182 2.091 . S
O184 C190 1.261 . S
C185 O194 1.247 . S
C185 O195 1.272 . S
O186 Co182 2.004 1_655 S
O186 C191 1.259 . S
Co187 O188 2.061 1_455 S
Co187 O193 2.052 . S
Co187 O195 2.135 . S
O188 Co187 2.061 1_655 S
O188 C191 1.235 . S
C189 O192 1.238 . S
C189 O193 1.241 . S
C190 O183 1.247 . S
C190 O184 1.261 . S
C191 O186 1.259 . S
C191 O188 1.235 . S
O192 Co182 2.021 . S
O192 C189 1.238 . S
O193 Co187 2.052 . S
O193 C189 1.241 . S
O194 Co182 2.137 . S
O194 C185 1.247 . S
O195 Co182 2.244 . S
O195 C185 1.272 . S
O195 Co187 2.135 . S
Co196 O197 2.216 . S
Co196 O198 2.091 . S
Co196 O200 2.004 1_545 S
Co196 O206 2.021 . S
Co196 O208 2.137 . S
Co196 O209 2.244 . S
O197 Co196 2.216 . S
O197 C204 1.247 . S
O198 Co196 2.091 . S
O198 C204 1.261 . S
C199 O208 1.247 . S
C199 O209 1.272 . S
O200 Co196 2.004 1_565 S
O200 C205 1.259 . S
Co201 O202 2.061 1_545 S
Co201 O207 2.052 . S
Co201 O209 2.135 . S
O202 Co201 2.061 1_565 S
O202 C205 1.235 . S
C203 O206 1.238 . S
C203 O207 1.241 . S
C204 O197 1.247 . S
C204 O198 1.261 . S
C205 O200 1.259 . S
C205 O202 1.235 . S
O206 Co196 2.021 . S
O206 C203 1.238 . S
O207 Co201 2.052 . S
O207 C203 1.241 . S
O208 Co196 2.137 . S
O208 C199 1.247 . S
O209 Co196 2.244 . S
O209 C199 1.272 . S
O209 Co201 2.135 . S
Co210 O211 2.216 . S
Co210 O212 2.091 . S
Co210 O214 2.004 1_655 S
Co210 O220 2.021 . S
Co210 O222 2.137 . S
Co210 O223 2.244 . S
O211 Co210 2.216 . S
O211 C218 1.247 . S
O212 Co210 2.091 . S
O212 C218 1.261 . S
C213 O222 1.247 . S
C213 O223 1.272 . S
O214 Co210 2.004 1_455 S
O214 C219 1.259 . S
Co215 O216 2.061 1_655 S
Co215 O221 2.052 . S
Co215 O223 2.135 . S
O216 Co215 2.061 1_455 S
O216 C219 1.235 . S
C217 O220 1.238 . S
C217 O221 1.241 . S
C218 O211 1.247 . S
C218 O212 1.261 . S
C219 O214 1.259 . S
C219 O216 1.235 . S
O220 Co210 2.021 . S
O220 C217 1.238 . S
O221 Co215 2.052 . S
O221 C217 1.241 . S
O222 Co210 2.137 . S
O222 C213 1.247 . S
O223 Co210 2.244 . S
O223 C213 1.272 . S
O223 Co215 2.135 . S
Co224 O225 2.216 . S
Co224 O226 2.091 . S
Co224 O228 2.004 1_554 S
Co224 O234 2.021 . S
Co224 O236 2.137 . S
Co224 O237 2.244 . S
O225 Co224 2.216 . S
O225 C232 1.247 . S
O226 Co224 2.091 . S
O226 C232 1.261 . S
C227 O236 1.247 . S
C227 O237 1.272 . S
O228 Co224 2.004 1_556 S
O228 C233 1.259 . S
Co229 O230 2.061 1_554 S
Co229 O235 2.052 . S
Co229 O237 2.135 . S
O230 Co229 2.061 1_556 S
O230 C233 1.235 . S
C231 O234 1.238 . S
C231 O235 1.241 . S
C232 O225 1.247 . S
C232 O226 1.261 . S
C233 O228 1.259 . S
C233 O230 1.235 . S
O234 Co224 2.021 . S
O234 C231 1.238 . S
O235 Co229 2.052 . S
O235 C231 1.241 . S
O236 Co224 2.137 . S
O236 C227 1.247 . S
O237 Co224 2.244 . S
O237 C227 1.272 . S
O237 Co229 2.135 . S
Co238 O239 2.216 . S
Co238 O240 2.091 . S
Co238 O242 2.004 1_556 S
Co238 O248 2.021 . S
Co238 O250 2.137 . S
Co238 O251 2.244 . S
O239 Co238 2.216 . S
O239 C246 1.247 . S
O240 Co238 2.091 . S
O240 C246 1.261 . S
C241 O250 1.247 . S
C241 O251 1.272 . S
O242 Co238 2.004 1_554 S
O242 C247 1.259 . S
Co243 O244 2.061 1_556 S
Co243 O249 2.052 . S
Co243 O251 2.135 . S
O244 Co243 2.061 1_554 S
O244 C247 1.235 . S
C245 O248 1.238 . S
C245 O249 1.241 . S
C246 O239 1.247 . S
C246 O240 1.261 . S
C247 O242 1.259 . S
C247 O244 1.235 . S
O248 Co238 2.021 . S
O248 C245 1.238 . S
O249 Co243 2.052 . S
O249 C245 1.241 . S
O250 Co238 2.137 . S
O250 C241 1.247 . S
O251 Co238 2.244 . S
O251 C241 1.272 . S
O251 Co243 2.135 . S
Co252 O253 2.216 . S
Co252 O254 2.091 . S
Co252 O256 2.004 1_556 S
Co252 O262 2.021 . S
Co252 O264 2.137 . S
Co252 O265 2.244 . S
O253 Co252 2.216 . S
O253 C260 1.247 . S
O254 Co252 2.091 . S
O254 C260 1.261 . S
C255 O264 1.247 . S
C255 O265 1.272 . S
O256 Co252 2.004 1_554 S
O256 C261 1.259 . S
Co257 O258 2.061 1_556 S
Co257 O263 2.052 . S
Co257 O265 2.135 . S
O258 Co257 2.061 1_554 S
O258 C261 1.235 . S
C259 O262 1.238 . S
C259 O263 1.241 . S
C260 O253 1.247 . S
C260 O254 1.261 . S
C261 O256 1.259 . S
C261 O258 1.235 . S
O262 Co252 2.021 . S
O262 C259 1.238 . S
O263 Co257 2.052 . S
O263 C259 1.241 . S
O264 Co252 2.137 . S
O264 C255 1.247 . S
O265 Co252 2.244 . S
O265 C255 1.272 . S
O265 Co257 2.135 . S
Co266 O267 2.216 . S
Co266 O268 2.091 . S
Co266 O270 2.004 1_556 S
Co266 O276 2.021 . S
Co266 O278 2.137 . S
Co266 O279 2.244 . S
O267 Co266 2.216 . S
O267 C274 1.247 . S
O268 Co266 2.091 . S
O268 C274 1.261 . S
C269 O278 1.247 . S
C269 O279 1.272 . S
O270 Co266 2.004 1_554 S
O270 C275 1.259 . S
Co271 O272 2.061 1_556 S
Co271 O277 2.052 . S
Co271 O279 2.135 . S
O272 Co271 2.061 1_554 S
O272 C275 1.235 . S
C273 O276 1.238 . S
C273 O277 1.241 . S
C274 O267 1.247 . S
C274 O268 1.261 . S
C275 O270 1.259 . S
C275 O272 1.235 . S
O276 Co266 2.021 . S
O276 C273 1.238 . S
O277 Co271 2.052 . S
O277 C273 1.241 . S
O278 Co266 2.137 . S
O278 C269 1.247 . S
O279 Co266 2.244 . S
O279 C269 1.272 . S
O279 Co271 2.135 . S
Co280 O281 2.216 . S
Co280 O282 2.091 . S
Co280 O284 2.004 1_556 S
Co280 O290 2.021 . S
Co280 O292 2.137 . S
Co280 O293 2.244 . S
O281 Co280 2.216 . S
O281 C288 1.247 . S
O282 Co280 2.091 . S
O282 C288 1.261 . S
C283 O292 1.247 . S
C283 O293 1.272 . S
O284 Co280 2.004 1_554 S
O284 C289 1.259 . S
Co285 O286 2.061 1_556 S
Co285 O291 2.052 . S
Co285 O293 2.135 . S
O286 Co285 2.061 1_554 S
O286 C289 1.235 . S
C287 O290 1.238 . S
C287 O291 1.241 . S
C288 O281 1.247 . S
C288 O282 1.261 . S
C289 O284 1.259 . S
C289 O286 1.235 . S
O290 Co280 2.021 . S
O290 C287 1.238 . S
O291 Co285 2.052 . S
O291 C287 1.241 . S
O292 Co280 2.137 . S
O292 C283 1.247 . S
O293 Co280 2.244 . S
O293 C283 1.272 . S
O293 Co285 2.135 . S
Co294 O295 2.216 . S
Co294 O296 2.091 . S
Co294 O298 2.004 1_554 S
Co294 O304 2.021 . S
Co294 O306 2.137 . S
Co294 O307 2.244 . S
O295 Co294 2.216 . S
O295 C302 1.247 . S
O296 Co294 2.091 . S
O296 C302 1.261 . S
C297 O306 1.247 . S
C297 O307 1.272 . S
O298 Co294 2.004 1_556 S
O298 C303 1.259 . S
Co299 O300 2.061 1_554 S
Co299 O305 2.052 . S
Co299 O307 2.135 . S
O300 Co299 2.061 1_556 S
O300 C303 1.235 . S
C301 O304 1.238 . S
C301 O305 1.241 . S
C302 O295 1.247 . S
C302 O296 1.261 . S
C303 O298 1.259 . S
C303 O300 1.235 . S
O304 Co294 2.021 . S
O304 C301 1.238 . S
O305 Co299 2.052 . S
O305 C301 1.241 . S
O306 Co294 2.137 . S
O306 C297 1.247 . S
O307 Co294 2.244 . S
O307 C297 1.272 . S
O307 Co299 2.135 . S
Co308 O309 2.216 . S
Co308 O310 2.091 . S
Co308 O312 2.004 1_554 S
Co308 O318 2.021 . S
Co308 O320 2.137 . S
Co308 O321 2.244 . S
O309 Co308 2.216 . S
O309 C316 1.247 . S
O310 Co308 2.091 . S
O310 C316 1.261 . S
C311 O320 1.247 . S
C311 O321 1.272 . S
O312 Co308 2.004 1_556 S
O312 C317 1.259 . S
Co313 O314 2.061 1_554 S
Co313 O319 2.052 . S
Co313 O321 2.135 . S
O314 Co313 2.061 1_556 S
O314 C317 1.235 . S
C315 O318 1.238 . S
C315 O319 1.241 . S
C316 O309 1.247 . S
C316 O310 1.261 . S
C317 O312 1.259 . S
C317 O314 1.235 . S
O318 Co308 2.021 . S
O318 C315 1.238 . S
O319 Co313 2.052 . S
O319 C315 1.241 . S
O320 Co308 2.137 . S
O320 C311 1.247 . S
O321 Co308 2.244 . S
O321 C311 1.272 . S
O321 Co313 2.135 . S
Co322 O323 2.216 . S
Co322 O324 2.091 . S
Co322 O326 2.004 1_554 S
Co322 O332 2.021 . S
Co322 O334 2.137 . S
Co322 O335 2.244 . S
O323 Co322 2.216 . S
O323 C330 1.247 . S
O324 Co322 2.091 . S
O324 C330 1.261 . S
C325 O334 1.247 . S
C325 O335 1.272 . S
O326 Co322 2.004 1_556 S
O326 C331 1.259 . S
Co327 O328 2.061 1_554 S
Co327 O333 2.052 . S
Co327 O335 2.135 . S
O328 Co327 2.061 1_556 S
O328 C331 1.235 . S
C329 O332 1.238 . S
C329 O333 1.241 . S
C330 O323 1.247 . S
C330 O324 1.261 . S
C331 O326 1.259 . S
C331 O328 1.235 . S
O332 Co322 2.021 . S
O332 C329 1.238 . S
O333 Co327 2.052 . S
O333 C329 1.241 . S
O334 Co322 2.137 . S
O334 C325 1.247 . S
O335 Co322 2.244 . S
O335 C325 1.272 . S
O335 Co327 2.135 . S
Co336 O337 2.216 . S
Co336 O338 2.091 . S
Co336 O340 2.004 . S
Co336 O346 2.021 . S
Co336 O348 2.137 . S
Co336 O349 2.244 . S
O337 Co336 2.216 . S
O337 C344 1.247 . S
O338 Co336 2.091 . S
O338 C344 1.261 . S
C339 O348 1.247 . S
C339 O349 1.272 . S
O340 Co336 2.004 . S
O340 C345 1.259 . S
Co341 O342 2.061 . S
Co341 O347 2.052 . S
Co341 O349 2.135 . S
O342 Co341 2.061 . S
O342 C345 1.235 . S
C343 O346 1.238 . S
C343 O347 1.241 . S
C344 O337 1.247 . S
C344 O338 1.261 . S
C345 O340 1.259 . S
C345 O342 1.235 . S
O346 Co336 2.021 . S
O346 C343 1.238 . S
O347 Co341 2.052 . S
O347 C343 1.241 . S
O348 Co336 2.137 . S
O348 C339 1.247 . S
O349 Co336 2.244 . S
O349 C339 1.272 . S
O349 Co341 2.135 . S
Co350 O351 2.216 . S
Co350 O352 2.091 . S
Co350 O354 2.004 . S
Co350 O360 2.021 . S
Co350 O362 2.137 . S
Co350 O363 2.244 . S
O351 Co350 2.216 . S
O351 C358 1.247 . S
O352 Co350 2.091 . S
O352 C358 1.261 . S
C353 O362 1.247 . S
C353 O363 1.272 . S
O354 Co350 2.004 . S
O354 C359 1.259 . S
Co355 O356 2.061 . S
Co355 O361 2.052 . S
Co355 O363 2.135 . S
O356 Co355 2.061 . S
O356 C359 1.235 . S
C357 O360 1.238 . S
C357 O361 1.241 . S
C358 O351 1.247 . S
C358 O352 1.261 . S
C359 O354 1.259 . S
C359 O356 1.235 . S
O360 Co350 2.021 . S
O360 C357 1.238 . S
O361 Co355 2.052 . S
O361 C357 1.241 . S
O362 Co350 2.137 . S
O362 C353 1.247 . S
O363 Co350 2.244 . S
O363 C353 1.272 . S
O363 Co355 2.135 . S
Co364 O365 2.216 . S
Co364 O366 2.091 . S
Co364 O368 2.004 . S
Co364 O374 2.021 . S
Co364 O376 2.137 . S
Co364 O377 2.244 . S
O365 Co364 2.216 . S
O365 C372 1.247 . S
O366 Co364 2.091 . S
O366 C372 1.261 . S
C367 O376 1.247 . S
C367 O377 1.272 . S
O368 Co364 2.004 . S
O368 C373 1.259 . S
Co369 O370 2.061 . S
Co369 O375 2.052 . S
Co369 O377 2.135 . S
O370 Co369 2.061 . S
O370 C373 1.235 . S
C371 O374 1.238 . S
C371 O375 1.241 . S
C372 O365 1.247 . S
C372 O366 1.261 . S
C373 O368 1.259 . S
C373 O370 1.235 . S
O374 Co364 2.021 . S
O374 C371 1.238 . S
O375 Co369 2.052 . S
O375 C371 1.241 . S
O376 Co364 2.137 . S
O376 C367 1.247 . S
O377 Co364 2.244 . S
O377 C367 1.272 . S
O377 Co369 2.135 . S
Co378 O379 2.216 . S
Co378 O380 2.091 . S
Co378 O382 2.004 . S
Co378 O388 2.021 . S
Co378 O390 2.137 . S
Co378 O391 2.244 . S
O379 Co378 2.216 . S
O379 C386 1.247 . S
O380 Co378 2.091 . S
O380 C386 1.261 . S
C381 O390 1.247 . S
C381 O391 1.272 . S
O382 Co378 2.004 . S
O382 C387 1.259 . S
Co383 O384 2.061 . S
Co383 O389 2.052 . S
Co383 O391 2.135 . S
O384 Co383 2.061 . S
O384 C387 1.235 . S
C385 O388 1.238 . S
C385 O389 1.241 . S
C386 O379 1.247 . S
C386 O380 1.261 . S
C387 O382 1.259 . S
C387 O384 1.235 . S
O388 Co378 2.021 . S
O388 C385 1.238 . S
O389 Co383 2.052 . S
O389 C385 1.241 . S
O390 Co378 2.137 . S
O390 C381 1.247 . S
O391 Co378 2.244 . S
O391 C381 1.272 . S
O391 Co383 2.135 . S
Co392 O393 2.216 . S
Co392 O394 2.091 . S
Co392 O396 2.004 . S
Co392 O402 2.021 . S
Co392 O404 2.137 . S
Co392 O405 2.244 . S
O393 Co392 2.216 . S
O393 C400 1.247 . S
O394 Co392 2.091 . S
O394 C400 1.261 . S
C395 O404 1.247 . S
C395 O405 1.272 . S
O396 Co392 2.004 . S
O396 C401 1.259 . S
Co397 O398 2.061 . S
Co397 O403 2.052 . S
Co397 O405 2.135 . S
O398 Co397 2.061 . S
O398 C401 1.235 . S
C399 O402 1.238 . S
C399 O403 1.241 . S
C400 O393 1.247 . S
C400 O394 1.261 . S
C401 O396 1.259 . S
C401 O398 1.235 . S
O402 Co392 2.021 . S
O402 C399 1.238 . S
O403 Co397 2.052 . S
O403 C399 1.241 . S
O404 Co392 2.137 . S
O404 C395 1.247 . S
O405 Co392 2.244 . S
O405 C395 1.272 . S
O405 Co397 2.135 . S
Co406 O407 2.216 . S
Co406 O408 2.091 . S
Co406 O410 2.004 . S
Co406 O416 2.021 . S
Co406 O418 2.137 . S
Co406 O419 2.244 . S
O407 Co406 2.216 . S
O407 C414 1.247 . S
O408 Co406 2.091 . S
O408 C414 1.261 . S
C409 O418 1.247 . S
C409 O419 1.272 . S
O410 Co406 2.004 . S
O410 C415 1.259 . S
Co411 O412 2.061 . S
Co411 O417 2.052 . S
Co411 O419 2.135 . S
O412 Co411 2.061 . S
O412 C415 1.235 . S
C413 O416 1.238 . S
C413 O417 1.241 . S
C414 O407 1.247 . S
C414 O408 1.261 . S
C415 O410 1.259 . S
C415 O412 1.235 . S
O416 Co406 2.021 . S
O416 C413 1.238 . S
O417 Co411 2.052 . S
O417 C413 1.241 . S
O418 Co406 2.137 . S
O418 C409 1.247 . S
O419 Co406 2.244 . S
O419 C409 1.272 . S
O419 Co411 2.135 . S
Co420 O421 2.216 . S
Co420 O422 2.091 . S
Co420 O424 2.004 . S
Co420 O430 2.021 . S
Co420 O432 2.137 . S
Co420 O433 2.244 . S
O421 Co420 2.216 . S
O421 C428 1.247 . S
O422 Co420 2.091 . S
O422 C428 1.261 . S
C423 O432 1.247 . S
C423 O433 1.272 . S
O424 Co420 2.004 . S
O424 C429 1.259 . S
Co425 O426 2.061 . S
Co425 O431 2.052 . S
Co425 O433 2.135 . S
O426 Co425 2.061 . S
O426 C429 1.235 . S
C427 O430 1.238 . S
C427 O431 1.241 . S
C428 O421 1.247 . S
C428 O422 1.261 . S
C429 O424 1.259 . S
C429 O426 1.235 . S
O430 Co420 2.021 . S
O430 C427 1.238 . S
O431 Co425 2.052 . S
O431 C427 1.241 . S
O432 Co420 2.137 . S
O432 C423 1.247 . S
O433 Co420 2.244 . S
O433 C423 1.272 . S
O433 Co425 2.135 . S
Co434 O435 2.216 . S
Co434 O436 2.091 . S
Co434 O438 2.004 . S
Co434 O444 2.021 . S
Co434 O446 2.137 . S
Co434 O447 2.244 . S
O435 Co434 2.216 . S
O435 C442 1.247 . S
O436 Co434 2.091 . S
O436 C442 1.261 . S
C437 O446 1.247 . S
C437 O447 1.272 . S
O438 Co434 2.004 . S
O438 C443 1.259 . S
Co439 O440 2.061 . S
Co439 O445 2.052 . S
Co439 O447 2.135 . S
O440 Co439 2.061 . S
O440 C443 1.235 . S
C441 O444 1.238 . S
C441 O445 1.241 . S
C442 O435 1.247 . S
C442 O436 1.261 . S
C443 O438 1.259 . S
C443 O440 1.235 . S
O444 Co434 2.021 . S
O444 C441 1.238 . S
O445 Co439 2.052 . S
O445 C441 1.241 . S
O446 Co434 2.137 . S
O446 C437 1.247 . S
O447 Co434 2.244 . S
O447 C437 1.272 . S
O447 Co439 2.135 . S
Co448 O449 2.216 . S
Co448 O450 2.091 . S
Co448 O452 2.004 . S
Co448 O458 2.021 . S
Co448 O460 2.137 . S
Co448 O461 2.244 . S
O449 Co448 2.216 . S
O449 C456 1.247 . S
O450 Co448 2.091 . S
O450 C456 1.261 . S
C451 O460 1.247 . S
C451 O461 1.272 . S
O452 Co448 2.004 . S
O452 C457 1.259 . S
Co453 O454 2.061 . S
Co453 O459 2.052 . S
Co453 O461 2.135 . S
O454 Co453 2.061 . S
O454 C457 1.235 . S
C455 O458 1.238 . S
C455 O459 1.241 . S
C456 O449 1.247 . S
C456 O450 1.261 . S
C457 O452 1.259 . S
C457 O454 1.235 . S
O458 Co448 2.021 . S
O458 C455 1.238 . S
O459 Co453 2.052 . S
O459 C455 1.241 . S
O460 Co448 2.137 . S
O460 C451 1.247 . S
O461 Co448 2.244 . S
O461 C451 1.272 . S
O461 Co453 2.135 . S
Co462 O463 2.216 . S
Co462 O464 2.091 . S
Co462 O466 2.004 . S
Co462 O472 2.021 . S
Co462 O474 2.137 . S
Co462 O475 2.244 . S
O463 Co462 2.216 . S
O463 C470 1.247 . S
O464 Co462 2.091 . S
O464 C470 1.261 . S
C465 O474 1.247 . S
C465 O475 1.272 . S
O466 Co462 2.004 . S
O466 C471 1.259 . S
Co467 O468 2.061 . S
Co467 O473 2.052 . S
Co467 O475 2.135 . S
O468 Co467 2.061 . S
O468 C471 1.235 . S
C469 O472 1.238 . S
C469 O473 1.241 . S
C470 O463 1.247 . S
C470 O464 1.261 . S
C471 O466 1.259 . S
C471 O468 1.235 . S
O472 Co462 2.021 . S
O472 C469 1.238 . S
O473 Co467 2.052 . S
O473 C469 1.241 . S
O474 Co462 2.137 . S
O474 C465 1.247 . S
O475 Co462 2.244 . S
O475 C465 1.272 . S
O475 Co467 2.135 . S
Co476 O477 2.216 . S
Co476 O478 2.091 . S
Co476 O480 2.004 . S
Co476 O486 2.021 . S
Co476 O488 2.137 . S
Co476 O489 2.244 . S
O477 Co476 2.216 . S
O477 C484 1.247 . S
O478 Co476 2.091 . S
O478 C484 1.261 . S
C479 O488 1.247 . S
C479 O489 1.272 . S
O480 Co476 2.004 . S
O480 C485 1.259 . S
Co481 O482 2.061 . S
Co481 O487 2.052 . S
Co481 O489 2.135 . S
O482 Co481 2.061 . S
O482 C485 1.235 . S
C483 O486 1.238 . S
C483 O487 1.241 . S
C484 O477 1.247 . S
C484 O478 1.261 . S
C485 O480 1.259 . S
C485 O482 1.235 . S
O486 Co476 2.021 . S
O486 C483 1.238 . S
O487 Co481 2.052 . S
O487 C483 1.241 . S
O488 Co476 2.137 . S
O488 C479 1.247 . S
O489 Co476 2.244 . S
O489 C479 1.272 . S
O489 Co481 2.135 . S
Co490 O491 2.216 . S
Co490 O492 2.091 . S
Co490 O494 2.004 . S
Co490 O500 2.021 . S
Co490 O502 2.137 . S
Co490 O503 2.244 . S
O491 Co490 2.216 . S
O491 C498 1.247 . S
O492 Co490 2.091 . S
O492 C498 1.261 . S
C493 O502 1.247 . S
C493 O503 1.272 . S
O494 Co490 2.004 . S
O494 C499 1.259 . S
Co495 O496 2.061 . S
Co495 O501 2.052 . S
Co495 O503 2.135 . S
O496 Co495 2.061 . S
O496 C499 1.235 . S
C497 O500 1.238 . S
C497 O501 1.241 . S
C498 O491 1.247 . S
C498 O492 1.261 . S
C499 O494 1.259 . S
C499 O496 1.235 . S
O500 Co490 2.021 . S
O500 C497 1.238 . S
O501 Co495 2.052 . S
O501 C497 1.241 . S
O502 Co490 2.137 . S
O502 C493 1.247 . S
O503 Co490 2.244 . S
O503 C493 1.272 . S
O503 Co495 2.135 . S
Co504 O505 2.216 . S
Co504 O506 2.091 . S
Co504 O508 2.004 . S
Co504 O514 2.021 . S
Co504 O516 2.137 . S
Co504 O517 2.244 . S
O505 Co504 2.216 . S
O505 C512 1.247 . S
O506 Co504 2.091 . S
O506 C512 1.261 . S
C507 O516 1.247 . S
C507 O517 1.272 . S
O508 Co504 2.004 . S
O508 C513 1.259 . S
Co509 O510 2.061 . S
Co509 O515 2.052 . S
Co509 O517 2.135 . S
O510 Co509 2.061 . S
O510 C513 1.235 . S
C511 O514 1.238 . S
C511 O515 1.241 . S
C512 O505 1.247 . S
C512 O506 1.261 . S
C513 O508 1.259 . S
C513 O510 1.235 . S
O514 Co504 2.021 . S
O514 C511 1.238 . S
O515 Co509 2.052 . S
O515 C511 1.241 . S
O516 Co504 2.137 . S
O516 C507 1.247 . S
O517 Co504 2.244 . S
O517 C507 1.272 . S
O517 Co509 2.135 . S
Co518 O519 2.216 . S
Co518 O520 2.091 . S
Co518 O522 2.004 . S
Co518 O528 2.021 . S
Co518 O530 2.137 . S
Co518 O531 2.244 . S
O519 Co518 2.216 . S
O519 C526 1.247 . S
O520 Co518 2.091 . S
O520 C526 1.261 . S
C521 O530 1.247 . S
C521 O531 1.272 . S
O522 Co518 2.004 . S
O522 C527 1.259 . S
Co523 O524 2.061 . S
Co523 O529 2.052 . S
Co523 O531 2.135 . S
O524 Co523 2.061 . S
O524 C527 1.235 . S
C525 O528 1.238 . S
C525 O529 1.241 . S
C526 O519 1.247 . S
C526 O520 1.261 . S
C527 O522 1.259 . S
C527 O524 1.235 . S
O528 Co518 2.021 . S
O528 C525 1.238 . S
O529 Co523 2.052 . S
O529 C525 1.241 . S
O530 Co518 2.137 . S
O530 C521 1.247 . S
O531 Co518 2.244 . S
O531 C521 1.272 . S
O531 Co523 2.135 . S
Co532 O533 2.216 . S
Co532 O534 2.091 . S
Co532 O536 2.004 . S
Co532 O542 2.021 . S
Co532 O544 2.137 . S
Co532 O545 2.244 . S
O533 Co532 2.216 . S
O533 C540 1.247 . S
O534 Co532 2.091 . S
O534 C540 1.261 . S
C535 O544 1.247 . S
C535 O545 1.272 . S
O536 Co532 2.004 . S
O536 C541 1.259 . S
Co537 O538 2.061 . S
Co537 O543 2.052 . S
Co537 O545 2.135 . S
O538 Co537 2.061 . S
O538 C541 1.235 . S
C539 O542 1.238 . S
C539 O543 1.241 . S
C540 O533 1.247 . S
C540 O534 1.261 . S
C541 O536 1.259 . S
C541 O538 1.235 . S
O542 Co532 2.021 . S
O542 C539 1.238 . S
O543 Co537 2.052 . S
O543 C539 1.241 . S
O544 Co532 2.137 . S
O544 C535 1.247 . S
O545 Co532 2.244 . S
O545 C535 1.272 . S
O545 Co537 2.135 . S
Co546 O547 2.216 . S
Co546 O548 2.091 . S
Co546 O550 2.004 . S
Co546 O556 2.021 . S
Co546 O558 2.137 . S
Co546 O559 2.244 . S
O547 Co546 2.216 . S
O547 C554 1.247 . S
O548 Co546 2.091 . S
O548 C554 1.261 . S
C549 O558 1.247 . S
C549 O559 1.272 . S
O550 Co546 2.004 . S
O550 C555 1.259 . S
Co551 O552 2.061 . S
Co551 O557 2.052 . S
Co551 O559 2.135 . S
O552 Co551 2.061 . S
O552 C555 1.235 . S
C553 O556 1.238 . S
C553 O557 1.241 . S
C554 O547 1.247 . S
C554 O548 1.261 . S
C555 O550 1.259 . S
C555 O552 1.235 . S
O556 Co546 2.021 . S
O556 C553 1.238 . S
O557 Co551 2.052 . S
O557 C553 1.241 . S
O558 Co546 2.137 . S
O558 C549 1.247 . S
O559 Co546 2.244 . S
O559 C549 1.272 . S
O559 Co551 2.135 . S
Co560 O561 2.216 . S
Co560 O562 2.091 . S
Co560 O564 2.004 . S
Co560 O570 2.021 . S
Co560 O572 2.137 . S
Co560 O573 2.244 . S
O561 Co560 2.216 . S
O561 C568 1.247 . S
O562 Co560 2.091 . S
O562 C568 1.261 . S
C563 O572 1.247 . S
C563 O573 1.272 . S
O564 Co560 2.004 . S
O564 C569 1.259 . S
Co565 O566 2.061 . S
Co565 O571 2.052 . S
Co565 O573 2.135 . S
O566 Co565 2.061 . S
O566 C569 1.235 . S
C567 O570 1.238 . S
C567 O571 1.241 . S
C568 O561 1.247 . S
C568 O562 1.261 . S
C569 O564 1.259 . S
C569 O566 1.235 . S
O570 Co560 2.021 . S
O570 C567 1.238 . S
O571 Co565 2.052 . S
O571 C567 1.241 . S
O572 Co560 2.137 . S
O572 C563 1.247 . S
O573 Co560 2.244 . S
O573 C563 1.272 . S
O573 Co565 2.135 . S
Co574 O575 2.216 . S
Co574 O576 2.091 . S
Co574 O578 2.004 . S
Co574 O584 2.021 . S
Co574 O586 2.137 . S
Co574 O587 2.244 . S
O575 Co574 2.216 . S
O575 C582 1.247 . S
O576 Co574 2.091 . S
O576 C582 1.261 . S
C577 O586 1.247 . S
C577 O587 1.272 . S
O578 Co574 2.004 . S
O578 C583 1.259 . S
Co579 O580 2.061 . S
Co579 O585 2.052 . S
Co579 O587 2.135 . S
O580 Co579 2.061 . S
O580 C583 1.235 . S
C581 O584 1.238 . S
C581 O585 1.241 . S
C582 O575 1.247 . S
C582 O576 1.261 . S
C583 O578 1.259 . S
C583 O580 1.235 . S
O584 Co574 2.021 . S
O584 C581 1.238 . S
O585 Co579 2.052 . S
O585 C581 1.241 . S
O586 Co574 2.137 . S
O586 C577 1.247 . S
O587 Co574 2.244 . S
O587 C577 1.272 . S
O587 Co579 2.135 . S
Co588 O589 2.216 . S
Co588 O590 2.091 . S
Co588 O592 2.004 . S
Co588 O598 2.021 . S
Co588 O600 2.137 . S
Co588 O601 2.244 . S
O589 Co588 2.216 . S
O589 C596 1.247 . S
O590 Co588 2.091 . S
O590 C596 1.261 . S
C591 O600 1.247 . S
C591 O601 1.272 . S
O592 Co588 2.004 . S
O592 C597 1.259 . S
Co593 O594 2.061 . S
Co593 O599 2.052 . S
Co593 O601 2.135 . S
O594 Co593 2.061 . S
O594 C597 1.235 . S
C595 O598 1.238 . S
C595 O599 1.241 . S
C596 O589 1.247 . S
C596 O590 1.261 . S
C597 O592 1.259 . S
C597 O594 1.235 . S
O598 Co588 2.021 . S
O598 C595 1.238 . S
O599 Co593 2.052 . S
O599 C595 1.241 . S
O600 Co588 2.137 . S
O600 C591 1.247 . S
O601 Co588 2.244 . S
O601 C591 1.272 . S
O601 Co593 2.135 . S
Co602 O603 2.216 . S
Co602 O604 2.091 . S
Co602 O606 2.004 . S
Co602 O612 2.021 . S
Co602 O614 2.137 . S
Co602 O615 2.244 . S
O603 Co602 2.216 . S
O603 C610 1.247 . S
O604 Co602 2.091 . S
O604 C610 1.261 . S
C605 O614 1.247 . S
C605 O615 1.272 . S
O606 Co602 2.004 . S
O606 C611 1.259 . S
Co607 O608 2.061 . S
Co607 O613 2.052 . S
Co607 O615 2.135 . S
O608 Co607 2.061 . S
O608 C611 1.235 . S
C609 O612 1.238 . S
C609 O613 1.241 . S
C610 O603 1.247 . S
C610 O604 1.261 . S
C611 O606 1.259 . S
C611 O608 1.235 . S
O612 Co602 2.021 . S
O612 C609 1.238 . S
O613 Co607 2.052 . S
O613 C609 1.241 . S
O614 Co602 2.137 . S
O614 C605 1.247 . S
O615 Co602 2.244 . S
O615 C605 1.272 . S
O615 Co607 2.135 . S
Co616 O617 2.216 . S
Co616 O618 2.091 . S
Co616 O620 2.004 . S
Co616 O626 2.021 . S
Co616 O628 2.137 . S
Co616 O629 2.244 . S
O617 Co616 2.216 . S
O617 C624 1.247 . S
O618 Co616 2.091 . S
O618 C624 1.261 . S
C619 O628 1.247 . S
C619 O629 1.272 . S
O620 Co616 2.004 . S
O620 C625 1.259 . S
Co621 O622 2.061 . S
Co621 O627 2.052 . S
Co621 O629 2.135 . S
O622 Co621 2.061 . S
O622 C625 1.235 . S
C623 O626 1.238 . S
C623 O627 1.241 . S
C624 O617 1.247 . S
C624 O618 1.261 . S
C625 O620 1.259 . S
C625 O622 1.235 . S
O626 Co616 2.021 . S
O626 C623 1.238 . S
O627 Co621 2.052 . S
O627 C623 1.241 . S
O628 Co616 2.137 . S
O628 C619 1.247 . S
O629 Co616 2.244 . S
O629 C619 1.272 . S
O629 Co621 2.135 . S
Co630 O631 2.216 . S
Co630 O632 2.091 . S
Co630 O634 2.004 . S
Co630 O640 2.021 . S
Co630 O642 2.137 . S
Co630 O643 2.244 . S
O631 Co630 2.216 . S
O631 C638 1.247 . S
O632 Co630 2.091 . S
O632 C638 1.261 . S
C633 O642 1.247 . S
C633 O643 1.272 . S
O634 Co630 2.004 . S
O634 C639 1.259 . S
Co635 O636 2.061 . S
Co635 O641 2.052 . S
Co635 O643 2.135 . S
O636 Co635 2.061 . S
O636 C639 1.235 . S
C637 O640 1.238 . S
C637 O641 1.241 . S
C638 O631 1.247 . S
C638 O632 1.261 . S
C639 O634 1.259 . S
C639 O636 1.235 . S
O640 Co630 2.021 . S
O640 C637 1.238 . S
O641 Co635 2.052 . S
O641 C637 1.241 . S
O642 Co630 2.137 . S
O642 C633 1.247 . S
O643 Co630 2.244 . S
O643 C633 1.272 . S
O643 Co635 2.135 . S
Co644 O645 2.216 . S
Co644 O646 2.091 . S
Co644 O648 2.004 . S
Co644 O654 2.021 . S
Co644 O656 2.137 . S
Co644 O657 2.244 . S
O645 Co644 2.216 . S
O645 C652 1.247 . S
O646 Co644 2.091 . S
O646 C652 1.261 . S
C647 O656 1.247 . S
C647 O657 1.272 . S
O648 Co644 2.004 . S
O648 C653 1.259 . S
Co649 O650 2.061 . S
Co649 O655 2.052 . S
Co649 O657 2.135 . S
O650 Co649 2.061 . S
O650 C653 1.235 . S
C651 O654 1.238 . S
C651 O655 1.241 . S
C652 O645 1.247 . S
C652 O646 1.261 . S
C653 O648 1.259 . S
C653 O650 1.235 . S
O654 Co644 2.021 . S
O654 C651 1.238 . S
O655 Co649 2.052 . S
O655 C651 1.241 . S
O656 Co644 2.137 . S
O656 C647 1.247 . S
O657 Co644 2.244 . S
O657 C647 1.272 . S
O657 Co649 2.135 . S
Co658 O659 2.216 . S
Co658 O660 2.091 . S
Co658 O662 2.004 . S
Co658 O668 2.021 . S
Co658 O670 2.137 . S
Co658 O671 2.244 . S
O659 Co658 2.216 . S
O659 C666 1.247 . S
O660 Co658 2.091 . S
O660 C666 1.261 . S
C661 O670 1.247 . S
C661 O671 1.272 . S
O662 Co658 2.004 . S
O662 C667 1.259 . S
Co663 O664 2.061 . S
Co663 O669 2.052 . S
Co663 O671 2.135 . S
O664 Co663 2.061 . S
O664 C667 1.235 . S
C665 O668 1.238 . S
C665 O669 1.241 . S
C666 O659 1.247 . S
C666 O660 1.261 . S
C667 O662 1.259 . S
C667 O664 1.235 . S
O668 Co658 2.021 . S
O668 C665 1.238 . S
O669 Co663 2.052 . S
O669 C665 1.241 . S
O670 Co658 2.137 . S
O670 C661 1.247 . S
O671 Co658 2.244 . S
O671 C661 1.272 . S
O671 Co663 2.135 . S
C672 C673 1.369 . S
C672 C674 1.419 . S
C672 H676 0.930 . S
C673 C672 1.369 . S
C673 C682 1.429 . S
C674 C672 1.419 . S
C674 C675 1.363 . S
C674 H677 0.929 . S
C675 C674 1.363 . S
C675 C681 1.428 . S
H676 C672 0.930 . S
H677 C674 0.929 . S
S678 N679 1.613 . S
S678 N680 1.610 . S
N679 S678 1.613 . S
N679 C682 1.350 . S
N680 S678 1.610 . S
N680 C681 1.351 . S
C681 C675 1.428 . S
C681 N680 1.351 . S
C681 C682 1.434 . S
C682 C673 1.429 . S
C682 N679 1.350 . S
C682 C681 1.434 . S
C683 C684 1.369 . S
C683 C685 1.419 . S
C683 H687 0.930 . S
C684 C683 1.369 . S
C684 C693 1.429 . S
C685 C683 1.419 . S
C685 C686 1.363 . S
C685 H688 0.929 . S
C686 C685 1.363 . S
C686 C692 1.428 . S
H687 C683 0.930 . S
H688 C685 0.929 . S
S689 N690 1.613 . S
S689 N691 1.610 . S
N690 S689 1.613 . S
N690 C693 1.350 . S
N691 S689 1.610 . S
N691 C692 1.351 . S
C692 C686 1.428 . S
C692 N691 1.351 . S
C692 C693 1.434 . S
C693 C684 1.429 . S
C693 N690 1.350 . S
C693 C692 1.434 . S
C694 C695 1.369 . S
C694 C696 1.419 . S
C694 H698 0.930 . S
C695 C694 1.369 . S
C695 C704 1.429 . S
C696 C694 1.419 . S
C696 C697 1.363 . S
C696 H699 0.929 . S
C697 C696 1.363 . S
C697 C703 1.428 . S
H698 C694 0.930 . S
H699 C696 0.929 . S
S700 N701 1.613 . S
S700 N702 1.610 . S
N701 S700 1.613 . S
N701 C704 1.350 . S
N702 S700 1.610 . S
N702 C703 1.351 . S
C703 C697 1.428 . S
C703 N702 1.351 . S
C703 C704 1.434 . S
C704 C695 1.429 . S
C704 N701 1.350 . S
C704 C703 1.434 . S
C705 C706 1.369 . S
C705 C707 1.419 . S
C705 H709 0.930 . S
C706 C705 1.369 . S
C706 C715 1.429 . S
C707 C705 1.419 . S
C707 C708 1.363 . S
C707 H710 0.929 . S
C708 C707 1.363 . S
C708 C714 1.428 . S
H709 C705 0.930 . S
H710 C707 0.929 . S
S711 N712 1.613 . S
S711 N713 1.610 . S
N712 S711 1.613 . S
N712 C715 1.350 . S
N713 S711 1.610 . S
N713 C714 1.351 . S
C714 C708 1.428 . S
C714 N713 1.351 . S
C714 C715 1.434 . S
C715 C706 1.429 . S
C715 N712 1.350 . S
C715 C714 1.434 . S
C716 C717 1.369 . S
C716 C718 1.419 . S
C716 H720 0.930 . S
C717 C716 1.369 . S
C717 C726 1.429 . S
C718 C716 1.419 . S
C718 C719 1.363 . S
C718 H721 0.929 . S
C719 C718 1.363 . S
C719 C725 1.428 . S
H720 C716 0.930 . S
H721 C718 0.929 . S
S722 N723 1.613 . S
S722 N724 1.610 . S
N723 S722 1.613 . S
N723 C726 1.350 . S
N724 S722 1.610 . S
N724 C725 1.351 . S
C725 C719 1.428 . S
C725 N724 1.351 . S
C725 C726 1.434 . S
C726 C717 1.429 . S
C726 N723 1.350 . S
C726 C725 1.434 . S
C727 C728 1.369 . S
C727 C729 1.419 . S
C727 H731 0.930 . S
C728 C727 1.369 . S
C728 C737 1.429 . S
C729 C727 1.419 . S
C729 C730 1.363 . S
C729 H732 0.929 . S
C730 C729 1.363 . S
C730 C736 1.428 . S
H731 C727 0.930 . S
H732 C729 0.929 . S
S733 N734 1.613 . S
S733 N735 1.610 . S
N734 S733 1.613 . S
N734 C737 1.350 . S
N735 S733 1.610 . S
N735 C736 1.351 . S
C736 C730 1.428 . S
C736 N735 1.351 . S
C736 C737 1.434 . S
C737 C728 1.429 . S
C737 N734 1.350 . S
C737 C736 1.434 . S
C738 C739 1.369 . S
C738 C740 1.419 . S
C738 H742 0.930 . S
C739 C738 1.369 . S
C739 C748 1.429 . S
C740 C738 1.419 . S
C740 C741 1.363 . S
C740 H743 0.929 . S
C741 C740 1.363 . S
C741 C747 1.428 . S
H742 C738 0.930 . S
H743 C740 0.929 . S
S744 N745 1.613 . S
S744 N746 1.610 . S
N745 S744 1.613 . S
N745 C748 1.350 . S
N746 S744 1.610 . S
N746 C747 1.351 . S
C747 C741 1.428 . S
C747 N746 1.351 . S
C747 C748 1.434 . S
C748 C739 1.429 . S
C748 N745 1.350 . S
C748 C747 1.434 . S
C749 C750 1.369 . S
C749 C751 1.419 . S
C749 H753 0.930 . S
C750 C749 1.369 . S
C750 C759 1.429 . S
C751 C749 1.419 . S
C751 C752 1.363 . S
C751 H754 0.929 . S
C752 C751 1.363 . S
C752 C758 1.428 . S
H753 C749 0.930 . S
H754 C751 0.929 . S
S755 N756 1.613 . S
S755 N757 1.610 . S
N756 S755 1.613 . S
N756 C759 1.350 . S
N757 S755 1.610 . S
N757 C758 1.351 . S
C758 C752 1.428 . S
C758 N757 1.351 . S
C758 C759 1.434 . S
C759 C750 1.429 . S
C759 N756 1.350 . S
C759 C758 1.434 . S
C760 C761 1.369 . S
C760 C762 1.419 . S
C760 H764 0.930 . S
C761 C760 1.369 . S
C761 C770 1.429 . S
C762 C760 1.419 . S
C762 C763 1.363 . S
C762 H765 0.929 . S
C763 C762 1.363 . S
C763 C769 1.428 . S
H764 C760 0.930 . S
H765 C762 0.929 . S
S766 N767 1.613 . S
S766 N768 1.610 . S
N767 S766 1.613 . S
N767 C770 1.350 . S
N768 S766 1.610 . S
N768 C769 1.351 . S
C769 C763 1.428 . S
C769 N768 1.351 . S
C769 C770 1.434 . S
C770 C761 1.429 . S
C770 N767 1.350 . S
C770 C769 1.434 . S
C771 C772 1.369 . S
C771 C773 1.419 . S
C771 H775 0.930 . S
C772 C771 1.369 . S
C772 C781 1.429 . S
C773 C771 1.419 . S
C773 C774 1.363 . S
C773 H776 0.929 . S
C774 C773 1.363 . S
C774 C780 1.428 . S
H775 C771 0.930 . S
H776 C773 0.929 . S
S777 N778 1.613 . S
S777 N779 1.610 . S
N778 S777 1.613 . S
N778 C781 1.350 . S
N779 S777 1.610 . S
N779 C780 1.351 . S
C780 C774 1.428 . S
C780 N779 1.351 . S
C780 C781 1.434 . S
C781 C772 1.429 . S
C781 N778 1.350 . S
C781 C780 1.434 . S
C782 C783 1.369 . S
C782 C784 1.419 . S
C782 H786 0.930 . S
C783 C782 1.369 . S
C783 C792 1.429 . S
C784 C782 1.419 . S
C784 C785 1.363 . S
C784 H787 0.929 . S
C785 C784 1.363 . S
C785 C791 1.428 . S
H786 C782 0.930 . S
H787 C784 0.929 . S
S788 N789 1.613 . S
S788 N790 1.610 . S
N789 S788 1.613 . S
N789 C792 1.350 . S
N790 S788 1.610 . S
N790 C791 1.351 . S
C791 C785 1.428 . S
C791 N790 1.351 . S
C791 C792 1.434 . S
C792 C783 1.429 . S
C792 N789 1.350 . S
C792 C791 1.434 . S
C793 C794 1.369 . S
C793 C795 1.419 . S
C793 H797 0.930 . S
C794 C793 1.369 . S
C794 C803 1.429 . S
C795 C793 1.419 . S
C795 C796 1.363 . S
C795 H798 0.929 . S
C796 C795 1.363 . S
C796 C802 1.428 . S
H797 C793 0.930 . S
H798 C795 0.929 . S
S799 N800 1.613 . S
S799 N801 1.610 . S
N800 S799 1.613 . S
N800 C803 1.350 . S
N801 S799 1.610 . S
N801 C802 1.351 . S
C802 C796 1.428 . S
C802 N801 1.351 . S
C802 C803 1.434 . S
C803 C794 1.429 . S
C803 N800 1.350 . S
C803 C802 1.434 . S
C804 C805 1.369 . S
C804 C806 1.419 . S
C804 H808 0.930 . S
C805 C804 1.369 . S
C805 C814 1.429 . S
C806 C804 1.419 . S
C806 C807 1.363 . S
C806 H809 0.929 . S
C807 C806 1.363 . S
C807 C813 1.428 . S
H808 C804 0.930 . S
H809 C806 0.929 . S
S810 N811 1.613 . S
S810 N812 1.610 . S
N811 S810 1.613 . S
N811 C814 1.350 . S
N812 S810 1.610 . S
N812 C813 1.351 . S
C813 C807 1.428 . S
C813 N812 1.351 . S
C813 C814 1.434 . S
C814 C805 1.429 . S
C814 N811 1.350 . S
C814 C813 1.434 . S
C815 C816 1.369 . S
C815 C817 1.419 . S
C815 H819 0.930 . S
C816 C815 1.369 . S
C816 C825 1.429 . S
C817 C815 1.419 . S
C817 C818 1.363 . S
C817 H820 0.929 . S
C818 C817 1.363 . S
C818 C824 1.428 . S
H819 C815 0.930 . S
H820 C817 0.929 . S
S821 N822 1.613 . S
S821 N823 1.610 . S
N822 S821 1.613 . S
N822 C825 1.350 . S
N823 S821 1.610 . S
N823 C824 1.351 . S
C824 C818 1.428 . S
C824 N823 1.351 . S
C824 C825 1.434 . S
C825 C816 1.429 . S
C825 N822 1.350 . S
C825 C824 1.434 . S
C826 C827 1.369 . S
C826 C828 1.419 . S
C826 H830 0.930 . S
C827 C826 1.369 . S
C827 C836 1.429 . S
C828 C826 1.419 . S
C828 C829 1.363 . S
C828 H831 0.929 . S
C829 C828 1.363 . S
C829 C835 1.428 . S
H830 C826 0.930 . S
H831 C828 0.929 . S
S832 N833 1.613 . S
S832 N834 1.610 . S
N833 S832 1.613 . S
N833 C836 1.350 . S
N834 S832 1.610 . S
N834 C835 1.351 . S
C835 C829 1.428 . S
C835 N834 1.351 . S
C835 C836 1.434 . S
C836 C827 1.429 . S
C836 N833 1.350 . S
C836 C835 1.434 . S
C837 C838 1.369 . S
C837 C839 1.419 . S
C837 H841 0.930 . S
C838 C837 1.369 . S
C838 C847 1.429 . S
C839 C837 1.419 . S
C839 C840 1.363 . S
C839 H842 0.929 . S
C840 C839 1.363 . S
C840 C846 1.428 . S
H841 C837 0.930 . S
H842 C839 0.929 . S
S843 N844 1.613 . S
S843 N845 1.610 . S
N844 S843 1.613 . S
N844 C847 1.350 . S
N845 S843 1.610 . S
N845 C846 1.351 . S
C846 C840 1.428 . S
C846 N845 1.351 . S
C846 C847 1.434 . S
C847 C838 1.429 . S
C847 N844 1.350 . S
C847 C846 1.434 . S
C848 C849 1.369 . S
C848 C850 1.419 . S
C848 H852 0.930 . S
C849 C848 1.369 . S
C849 C858 1.429 . S
C850 C848 1.419 . S
C850 C851 1.363 . S
C850 H853 0.929 . S
C851 C850 1.363 . S
C851 C857 1.428 . S
H852 C848 0.930 . S
H853 C850 0.929 . S
S854 N855 1.613 . S
S854 N856 1.610 . S
N855 S854 1.613 . S
N855 C858 1.350 . S
N856 S854 1.610 . S
N856 C857 1.351 . S
C857 C851 1.428 . S
C857 N856 1.351 . S
C857 C858 1.434 . S
C858 C849 1.429 . S
C858 N855 1.350 . S
C858 C857 1.434 . S
C859 C860 1.369 . S
C859 C861 1.419 . S
C859 H863 0.930 . S
C860 C859 1.369 . S
C860 C869 1.429 . S
C861 C859 1.419 . S
C861 C862 1.363 . S
C861 H864 0.929 . S
C862 C861 1.363 . S
C862 C868 1.428 . S
H863 C859 0.930 . S
H864 C861 0.929 . S
S865 N866 1.613 . S
S865 N867 1.610 . S
N866 S865 1.613 . S
N866 C869 1.350 . S
N867 S865 1.610 . S
N867 C868 1.351 . S
C868 C862 1.428 . S
C868 N867 1.351 . S
C868 C869 1.434 . S
C869 C860 1.429 . S
C869 N866 1.350 . S
C869 C868 1.434 . S
C870 C871 1.369 . S
C870 C872 1.419 . S
C870 H874 0.930 . S
C871 C870 1.369 . S
C871 C880 1.429 . S
C872 C870 1.419 . S
C872 C873 1.363 . S
C872 H875 0.929 . S
C873 C872 1.363 . S
C873 C879 1.428 . S
H874 C870 0.930 . S
H875 C872 0.929 . S
S876 N877 1.613 . S
S876 N878 1.610 . S
N877 S876 1.613 . S
N877 C880 1.350 . S
N878 S876 1.610 . S
N878 C879 1.351 . S
C879 C873 1.428 . S
C879 N878 1.351 . S
C879 C880 1.434 . S
C880 C871 1.429 . S
C880 N877 1.350 . S
C880 C879 1.434 . S
C881 C882 1.369 . S
C881 C883 1.419 . S
C881 H885 0.930 . S
C882 C881 1.369 . S
C882 C891 1.429 . S
C883 C881 1.419 . S
C883 C884 1.363 . S
C883 H886 0.929 . S
C884 C883 1.363 . S
C884 C890 1.428 . S
H885 C881 0.930 . S
H886 C883 0.929 . S
S887 N888 1.613 . S
S887 N889 1.610 . S
N888 S887 1.613 . S
N888 C891 1.350 . S
N889 S887 1.610 . S
N889 C890 1.351 . S
C890 C884 1.428 . S
C890 N889 1.351 . S
C890 C891 1.434 . S
C891 C882 1.429 . S
C891 N888 1.350 . S
C891 C890 1.434 . S
C892 C893 1.369 . S
C892 C894 1.419 . S
C892 H896 0.930 . S
C893 C892 1.369 . S
C893 C902 1.429 . S
C894 C892 1.419 . S
C894 C895 1.363 . S
C894 H897 0.929 . S
C895 C894 1.363 . S
C895 C901 1.428 . S
H896 C892 0.930 . S
H897 C894 0.929 . S
S898 N899 1.613 . S
S898 N900 1.610 . S
N899 S898 1.613 . S
N899 C902 1.350 . S
N900 S898 1.610 . S
N900 C901 1.351 . S
C901 C895 1.428 . S
C901 N900 1.351 . S
C901 C902 1.434 . S
C902 C893 1.429 . S
C902 N899 1.350 . S
C902 C901 1.434 . S
C903 C904 1.369 . S
C903 C905 1.419 . S
C903 H907 0.930 . S
C904 C903 1.369 . S
C904 C913 1.429 . S
C905 C903 1.419 . S
C905 C906 1.363 . S
C905 H908 0.929 . S
C906 C905 1.363 . S
C906 C912 1.428 . S
H907 C903 0.930 . S
H908 C905 0.929 . S
S909 N910 1.613 . S
S909 N911 1.610 . S
N910 S909 1.613 . S
N910 C913 1.350 . S
N911 S909 1.610 . S
N911 C912 1.351 . S
C912 C906 1.428 . S
C912 N911 1.351 . S
C912 C913 1.434 . S
C913 C904 1.429 . S
C913 N910 1.350 . S
C913 C912 1.434 . S
C914 C915 1.369 . S
C914 C916 1.419 . S
C914 H918 0.930 . S
C915 C914 1.369 . S
C915 C924 1.429 . S
C916 C914 1.419 . S
C916 C917 1.363 . S
C916 H919 0.929 . S
C917 C916 1.363 . S
C917 C923 1.428 . S
H918 C914 0.930 . S
H919 C916 0.929 . S
S920 N921 1.613 . S
S920 N922 1.610 . S
N921 S920 1.613 . S
N921 C924 1.350 . S
N922 S920 1.610 . S
N922 C923 1.351 . S
C923 C917 1.428 . S
C923 N922 1.351 . S
C923 C924 1.434 . S
C924 C915 1.429 . S
C924 N921 1.350 . S
C924 C923 1.434 . S
C925 C926 1.369 . S
C925 C927 1.419 . S
C925 H929 0.930 . S
C926 C925 1.369 . S
C926 C935 1.429 . S
C927 C925 1.419 . S
C927 C928 1.363 . S
C927 H930 0.929 . S
C928 C927 1.363 . S
C928 C934 1.428 . S
H929 C925 0.930 . S
H930 C927 0.929 . S
S931 N932 1.613 . S
S931 N933 1.610 . S
N932 S931 1.613 . S
N932 C935 1.350 . S
N933 S931 1.610 . S
N933 C934 1.351 . S
C934 C928 1.428 . S
C934 N933 1.351 . S
C934 C935 1.434 . S
C935 C926 1.429 . S
C935 N932 1.350 . S
C935 C934 1.434 . S
C936 C937 1.369 . S
C936 C938 1.419 . S
C936 H940 0.930 . S
C937 C936 1.369 . S
C937 C946 1.429 1_655 S
C938 C936 1.419 . S
C938 C939 1.363 1_655 S
C938 H941 0.929 . S
C939 C938 1.363 1_455 S
C939 C945 1.428 . S
H940 C936 0.930 . S
H941 C938 0.929 . S
S942 N943 1.613 . S
S942 N944 1.610 . S
N943 S942 1.613 . S
N943 C946 1.350 . S
N944 S942 1.610 . S
N944 C945 1.351 . S
C945 C939 1.428 . S
C945 N944 1.351 . S
C945 C946 1.434 . S
C946 C937 1.429 1_455 S
C946 N943 1.350 . S
C946 C945 1.434 . S
C947 C948 1.369 1_545 S
C947 C949 1.419 . S
C947 H951 0.930 . S
C948 C947 1.369 1_565 S
C948 C957 1.429 . S
C949 C947 1.419 . S
C949 C950 1.363 . S
C949 H952 0.929 . S
C950 C949 1.363 . S
C950 C956 1.428 1_545 S
H951 C947 0.930 . S
H952 C949 0.929 . S
S953 N954 1.613 . S
S953 N955 1.610 . S
N954 S953 1.613 . S
N954 C957 1.350 . S
N955 S953 1.610 . S
N955 C956 1.351 . S
C956 C950 1.428 1_565 S
C956 N955 1.351 . S
C956 C957 1.434 . S
C957 C948 1.429 . S
C957 N954 1.350 . S
C957 C956 1.434 . S
C958 C959 1.369 1_455 S
C958 C960 1.419 . S
C958 H962 0.930 . S
C959 C958 1.369 1_655 S
C959 C968 1.429 . S
C960 C958 1.419 . S
C960 C961 1.363 . S
C960 H963 0.929 . S
C961 C960 1.363 . S
C961 C967 1.428 1_455 S
H962 C958 0.930 . S
H963 C960 0.929 . S
S964 N965 1.613 . S
S964 N966 1.610 . S
N965 S964 1.613 . S
N965 C968 1.350 . S
N966 S964 1.610 . S
N966 C967 1.351 . S
C967 C961 1.428 1_655 S
C967 N966 1.351 . S
C967 C968 1.434 . S
C968 C959 1.429 . S
C968 N965 1.350 . S
C968 C967 1.434 . S
C969 C970 1.369 1_565 S
C969 C971 1.419 . S
C969 H973 0.930 . S
C970 C969 1.369 1_545 S
C970 C979 1.429 . S
C971 C969 1.419 . S
C971 C972 1.363 . S
C971 H974 0.929 . S
C972 C971 1.363 . S
C972 C978 1.428 1_565 S
H973 C969 0.930 . S
H974 C971 0.929 . S
S975 N976 1.613 . S
S975 N977 1.610 . S
N976 S975 1.613 . S
N976 C979 1.350 . S
N977 S975 1.610 . S
N977 C978 1.351 . S
C978 C972 1.428 1_545 S
C978 N977 1.351 . S
C978 C979 1.434 . S
C979 C970 1.429 . S
C979 N976 1.350 . S
C979 C978 1.434 . S
C980 C981 1.369 1_655 S
C980 C982 1.419 . S
C980 H984 0.930 . S
C981 C980 1.369 1_455 S
C981 C990 1.429 . S
C982 C980 1.419 . S
C982 C983 1.363 . S
C982 H985 0.929 . S
C983 C982 1.363 . S
C983 C989 1.428 1_655 S
H984 C980 0.930 . S
H985 C982 0.929 . S
S986 N987 1.613 . S
S986 N988 1.610 . S
N987 S986 1.613 . S
N987 C990 1.350 . S
N988 S986 1.610 . S
N988 C989 1.351 . S
C989 C983 1.428 1_455 S
C989 N988 1.351 . S
C989 C990 1.434 . S
C990 C981 1.429 . S
C990 N987 1.350 . S
C990 C989 1.434 . S
C991 C992 1.369 1_545 S
C991 C993 1.419 . S
C991 H995 0.930 . S
C992 C991 1.369 1_565 S
C992 C1001 1.429 . S
C993 C991 1.419 . S
C993 C994 1.363 . S
C993 H996 0.929 . S
C994 C993 1.363 . S
C994 C1000 1.428 1_545 S
H995 C991 0.930 . S
H996 C993 0.929 . S
S997 N998 1.613 . S
S997 N999 1.610 . S
N998 S997 1.613 . S
N998 C1001 1.350 . S
N999 S997 1.610 . S
N999 C1000 1.351 . S
C1000 C994 1.428 1_565 S
C1000 N999 1.351 . S
C1000 C1001 1.434 . S
C1001 C992 1.429 . S
C1001 N998 1.350 . S
C1001 C1000 1.434 . S
C1002 C1003 1.369 . S
C1002 C1004 1.419 1_455 S
C1002 H1006 0.930 . S
C1003 C1002 1.369 . S
C1003 C1012 1.429 . S
C1004 C1002 1.419 1_655 S
C1004 C1005 1.363 . S
C1004 H1007 0.929 . S
C1005 C1004 1.363 . S
C1005 C1011 1.428 . S
H1006 C1002 0.930 . S
H1007 C1004 0.929 . S
S1008 N1009 1.618 . S
S1008 N1010 1.606 1_455 S
N1009 S1008 1.618 . S
N1009 C1012 1.350 . S
N1010 S1008 1.606 1_655 S
N1010 C1011 1.351 . S
C1011 C1005 1.428 . S
C1011 N1010 1.351 . S
C1011 C1012 1.434 1_655 S
C1012 C1003 1.429 . S
C1012 N1009 1.350 . S
C1012 C1011 1.434 1_455 S
C1013 C1014 1.369 . S
C1013 C1015 1.419 1_545 S
C1013 H1017 0.930 . S
C1014 C1013 1.369 . S
C1014 C1023 1.429 . S
C1015 C1013 1.419 1_565 S
C1015 C1016 1.363 . S
C1015 H1018 0.929 . S
C1016 C1015 1.363 . S
C1016 C1022 1.428 . S
H1017 C1013 0.930 . S
H1018 C1015 0.929 . S
S1019 N1020 1.613 . S
S1019 N1021 1.610 1_545 S
N1020 S1019 1.613 . S
N1020 C1023 1.350 . S
N1021 S1019 1.610 1_565 S
N1021 C1022 1.351 . S
C1022 C1016 1.428 . S
C1022 N1021 1.351 . S
C1022 C1023 1.434 1_565 S
C1023 C1014 1.429 . S
C1023 N1020 1.350 . S
C1023 C1022 1.434 1_545 S
C1024 C1025 1.369 . S
C1024 C1026 1.419 . S
C1024 H1028 0.930 . S
C1025 C1024 1.369 . S
C1025 C1034 1.429 1_556 S
C1026 C1024 1.419 . S
C1026 C1027 1.363 1_556 S
C1026 H1029 0.929 . S
C1027 C1026 1.363 1_554 S
C1027 C1033 1.428 . S
H1028 C1024 0.930 . S
H1029 C1026 0.929 . S
S1030 N1031 1.613 . S
S1030 N1032 1.610 . S
N1031 S1030 1.613 . S
N1031 C1034 1.350 . S
N1032 S1030 1.610 . S
N1032 C1033 1.351 . S
C1033 C1027 1.428 . S
C1033 N1032 1.351 . S
C1033 C1034 1.434 . S
C1034 C1025 1.429 1_554 S
C1034 N1031 1.350 . S
C1034 C1033 1.434 . S
C1035 C1036 1.369 1_556 S
C1035 C1037 1.419 . S
C1035 H1039 0.930 . S
C1036 C1035 1.369 1_554 S
C1036 C1045 1.429 . S
C1037 C1035 1.419 . S
C1037 C1038 1.363 . S
C1037 H1040 0.929 . S
C1038 C1037 1.363 . S
C1038 C1044 1.428 1_556 S
H1039 C1035 0.930 . S
H1040 C1037 0.929 . S
S1041 N1042 1.613 . S
S1041 N1043 1.610 . S
N1042 S1041 1.613 . S
N1042 C1045 1.350 . S
N1043 S1041 1.610 . S
N1043 C1044 1.351 . S
C1044 C1038 1.428 1_554 S
C1044 N1043 1.351 . S
C1044 C1045 1.434 . S
C1045 C1036 1.429 . S
C1045 N1042 1.350 . S
C1045 C1044 1.434 . S
C1046 C1047 1.369 . S
C1046 C1048 1.419 1_554 S
C1046 H1050 0.930 . S
C1047 C1046 1.369 . S
C1047 C1056 1.429 . S
C1048 C1046 1.419 1_556 S
C1048 C1049 1.363 . S
C1048 H1051 0.929 . S
C1049 C1048 1.363 . S
C1049 C1055 1.428 . S
H1050 C1046 0.930 . S
H1051 C1048 0.929 . S
S1052 N1053 1.613 . S
S1052 N1054 1.610 1_554 S
N1053 S1052 1.613 . S
N1053 C1056 1.350 . S
N1054 S1052 1.610 1_556 S
N1054 C1055 1.351 . S
C1055 C1049 1.428 . S
C1055 N1054 1.351 . S
C1055 C1056 1.434 1_556 S
C1056 C1047 1.429 . S
C1056 N1053 1.350 . S
C1056 C1055 1.434 1_554 S
C1057 C1058 1.369 . S
C1057 C1059 1.414 1_556 S
C1057 H1061 0.930 . S
C1058 C1057 1.369 . S
C1058 C1067 1.440 . S
C1059 C1057 1.414 1_554 S
C1059 C1060 1.368 . S
C1059 H1062 0.929 . S
C1060 C1059 1.368 . S
C1060 C1066 1.428 . S
H1061 C1057 0.930 . S
H1062 C1059 0.929 . S
S1063 N1064 1.613 1_554 S
S1063 N1065 1.610 . S
N1064 S1063 1.613 1_556 S
N1064 C1067 1.352 . S
N1065 S1063 1.610 . S
N1065 C1066 1.351 . S
C1066 C1060 1.428 . S
C1066 N1065 1.351 . S
C1066 C1067 1.423 1_554 S
C1067 C1058 1.440 . S
C1067 N1064 1.352 . S
C1067 C1066 1.423 1_556 S
C1068 C1069 1.369 . S
C1068 C1070 1.419 . S
C1068 H1072 0.930 . S
C1069 C1068 1.369 . S
C1069 C1078 1.429 . S
C1070 C1068 1.419 . S
C1070 C1071 1.363 . S
C1070 H1073 0.929 . S
C1071 C1070 1.363 . S
C1071 C1077 1.428 . S
H1072 C1068 0.930 . S
H1073 C1070 0.929 . S
S1074 N1075 1.613 . S
S1074 N1076 1.610 . S
N1075 S1074 1.613 . S
N1075 C1078 1.350 . S
N1076 S1074 1.610 . S
N1076 C1077 1.351 . S
C1077 C1071 1.428 . S
C1077 N1076 1.351 . S
C1077 C1078 1.434 . S
C1078 C1069 1.429 . S
C1078 N1075 1.350 . S
C1078 C1077 1.434 . S
C1079 C1080 1.369 . S
C1079 C1081 1.419 . S
C1079 H1083 0.930 . S
C1080 C1079 1.369 . S
C1080 C1089 1.429 . S
C1081 C1079 1.419 . S
C1081 C1082 1.363 . S
C1081 H1084 0.929 . S
C1082 C1081 1.363 . S
C1082 C1088 1.428 . S
H1083 C1079 0.930 . S
H1084 C1081 0.929 . S
S1085 N1086 1.613 . S
S1085 N1087 1.610 . S
N1086 S1085 1.613 . S
N1086 C1089 1.350 . S
N1087 S1085 1.610 . S
N1087 C1088 1.351 . S
C1088 C1082 1.428 . S
C1088 N1087 1.351 . S
C1088 C1089 1.434 . S
C1089 C1080 1.429 . S
C1089 N1086 1.350 . S
C1089 C1088 1.434 . S
C1090 C1091 1.369 . S
C1090 C1092 1.419 . S
C1090 H1094 0.930 . S
C1091 C1090 1.369 . S
C1091 C1100 1.429 . S
C1092 C1090 1.419 . S
C1092 C1093 1.363 . S
C1092 H1095 0.929 . S
C1093 C1092 1.363 . S
C1093 C1099 1.428 . S
H1094 C1090 0.930 . S
H1095 C1092 0.929 . S
S1096 N1097 1.613 . S
S1096 N1098 1.610 . S
N1097 S1096 1.613 . S
N1097 C1100 1.350 . S
N1098 S1096 1.610 . S
N1098 C1099 1.351 . S
C1099 C1093 1.428 . S
C1099 N1098 1.351 . S
C1099 C1100 1.434 . S
C1100 C1091 1.429 . S
C1100 N1097 1.350 . S
C1100 C1099 1.434 . S
C1101 C1102 1.369 . S
C1101 C1103 1.419 . S
C1101 H1105 0.930 . S
C1102 C1101 1.369 . S
C1102 C1111 1.429 . S
C1103 C1101 1.419 . S
C1103 C1104 1.363 . S
C1103 H1106 0.929 . S
C1104 C1103 1.363 . S
C1104 C1110 1.428 . S
H1105 C1101 0.930 . S
H1106 C1103 0.929 . S
S1107 N1108 1.613 . S
S1107 N1109 1.610 . S
N1108 S1107 1.613 . S
N1108 C1111 1.350 . S
N1109 S1107 1.610 . S
N1109 C1110 1.351 . S
C1110 C1104 1.428 . S
C1110 N1109 1.351 . S
C1110 C1111 1.434 . S
C1111 C1102 1.429 . S
C1111 N1108 1.350 . S
C1111 C1110 1.434 . S
C1112 C1113 1.369 . S
C1112 C1114 1.419 . S
C1112 H1116 0.930 . S
C1113 C1112 1.369 . S
C1113 C1122 1.429 . S
C1114 C1112 1.419 . S
C1114 C1115 1.363 . S
C1114 H1117 0.929 . S
C1115 C1114 1.363 . S
C1115 C1121 1.428 . S
H1116 C1112 0.930 . S
H1117 C1114 0.929 . S
S1118 N1119 1.613 . S
S1118 N1120 1.610 . S
N1119 S1118 1.613 . S
N1119 C1122 1.350 . S
N1120 S1118 1.610 . S
N1120 C1121 1.351 . S
C1121 C1115 1.428 . S
C1121 N1120 1.351 . S
C1121 C1122 1.434 . S
C1122 C1113 1.429 . S
C1122 N1119 1.350 . S
C1122 C1121 1.434 . S
C1123 C1124 1.369 . S
C1123 C1125 1.419 . S
C1123 H1127 0.930 . S
C1124 C1123 1.369 . S
C1124 C1133 1.429 . S
C1125 C1123 1.419 . S
C1125 C1126 1.363 . S
C1125 H1128 0.929 . S
C1126 C1125 1.363 . S
C1126 C1132 1.428 . S
H1127 C1123 0.930 . S
H1128 C1125 0.929 . S
S1129 N1130 1.613 . S
S1129 N1131 1.610 . S
N1130 S1129 1.613 . S
N1130 C1133 1.350 . S
N1131 S1129 1.610 . S
N1131 C1132 1.351 . S
C1132 C1126 1.428 . S
C1132 N1131 1.351 . S
C1132 C1133 1.434 . S
C1133 C1124 1.429 . S
C1133 N1130 1.350 . S
C1133 C1132 1.434 . S
C1134 C1135 1.369 . S
C1134 C1136 1.419 . S
C1134 H1138 0.930 . S
C1135 C1134 1.369 . S
C1135 C1144 1.429 . S
C1136 C1134 1.419 . S
C1136 C1137 1.363 . S
C1136 H1139 0.929 . S
C1137 C1136 1.363 . S
C1137 C1143 1.428 . S
H1138 C1134 0.930 . S
H1139 C1136 0.929 . S
S1140 N1141 1.613 . S
S1140 N1142 1.610 . S
N1141 S1140 1.613 . S
N1141 C1144 1.350 . S
N1142 S1140 1.610 . S
N1142 C1143 1.351 . S
C1143 C1137 1.428 . S
C1143 N1142 1.351 . S
C1143 C1144 1.434 . S
C1144 C1135 1.429 . S
C1144 N1141 1.350 . S
C1144 C1143 1.434 . S
C1145 C1146 1.369 . S
C1145 C1147 1.419 . S
C1145 H1149 0.930 . S
C1146 C1145 1.369 . S
C1146 C1155 1.429 . S
C1147 C1145 1.419 . S
C1147 C1148 1.363 . S
C1147 H1150 0.929 . S
C1148 C1147 1.363 . S
C1148 C1154 1.428 . S
H1149 C1145 0.930 . S
H1150 C1147 0.929 . S
S1151 N1152 1.613 . S
S1151 N1153 1.610 . S
N1152 S1151 1.613 . S
N1152 C1155 1.350 . S
N1153 S1151 1.610 . S
N1153 C1154 1.351 . S
C1154 C1148 1.428 . S
C1154 N1153 1.351 . S
C1154 C1155 1.434 . S
C1155 C1146 1.429 . S
C1155 N1152 1.350 . S
C1155 C1154 1.434 . S
C1156 C1157 1.369 . S
C1156 C1158 1.419 . S
C1156 H1160 0.930 . S
C1157 C1156 1.369 . S
C1157 C1166 1.429 . S
C1158 C1156 1.419 . S
C1158 C1159 1.363 . S
C1158 H1161 0.929 . S
C1159 C1158 1.363 . S
C1159 C1165 1.428 . S
H1160 C1156 0.930 . S
H1161 C1158 0.929 . S
S1162 N1163 1.613 . S
S1162 N1164 1.610 . S
N1163 S1162 1.613 . S
N1163 C1166 1.350 . S
N1164 S1162 1.610 . S
N1164 C1165 1.351 . S
C1165 C1159 1.428 . S
C1165 N1164 1.351 . S
C1165 C1166 1.434 . S
C1166 C1157 1.429 . S
C1166 N1163 1.350 . S
C1166 C1165 1.434 . S
C1167 C1168 1.369 . S
C1167 C1169 1.419 . S
C1167 H1171 0.930 . S
C1168 C1167 1.369 . S
C1168 C1177 1.429 . S
C1169 C1167 1.419 . S
C1169 C1170 1.363 . S
C1169 H1172 0.929 . S
C1170 C1169 1.363 . S
C1170 C1176 1.428 . S
H1171 C1167 0.930 . S
H1172 C1169 0.929 . S
S1173 N1174 1.613 . S
S1173 N1175 1.610 . S
N1174 S1173 1.613 . S
N1174 C1177 1.350 . S
N1175 S1173 1.610 . S
N1175 C1176 1.351 . S
C1176 C1170 1.428 . S
C1176 N1175 1.351 . S
C1176 C1177 1.434 . S
C1177 C1168 1.429 . S
C1177 N1174 1.350 . S
C1177 C1176 1.434 . S
C1178 C1179 1.369 . S
C1178 C1180 1.419 . S
C1178 H1182 0.930 . S
C1179 C1178 1.369 . S
C1179 C1188 1.429 . S
C1180 C1178 1.419 . S
C1180 C1181 1.363 . S
C1180 H1183 0.929 . S
C1181 C1180 1.363 . S
C1181 C1187 1.428 . S
H1182 C1178 0.930 . S
H1183 C1180 0.929 . S
S1184 N1185 1.613 . S
S1184 N1186 1.610 . S
N1185 S1184 1.613 . S
N1185 C1188 1.350 . S
N1186 S1184 1.610 . S
N1186 C1187 1.351 . S
C1187 C1181 1.428 . S
C1187 N1186 1.351 . S
C1187 C1188 1.434 . S
C1188 C1179 1.429 . S
C1188 N1185 1.350 . S
C1188 C1187 1.434 . S
C1189 C1190 1.369 . S
C1189 C1191 1.419 . S
C1189 H1193 0.930 . S
C1190 C1189 1.369 . S
C1190 C1199 1.429 . S
C1191 C1189 1.419 . S
C1191 C1192 1.363 . S
C1191 H1194 0.929 . S
C1192 C1191 1.363 . S
C1192 C1198 1.428 . S
H1193 C1189 0.930 . S
H1194 C1191 0.929 . S
S1195 N1196 1.613 . S
S1195 N1197 1.610 . S
N1196 S1195 1.613 . S
N1196 C1199 1.350 . S
N1197 S1195 1.610 . S
N1197 C1198 1.351 . S
C1198 C1192 1.428 . S
C1198 N1197 1.351 . S
C1198 C1199 1.434 . S
C1199 C1190 1.429 . S
C1199 N1196 1.350 . S
C1199 C1198 1.434 . S
C1200 C1201 1.369 . S
C1200 C1202 1.419 . S
C1200 H1204 0.930 . S
C1201 C1200 1.369 . S
C1201 C1210 1.429 . S
C1202 C1200 1.419 . S
C1202 C1203 1.363 . S
C1202 H1205 0.929 . S
C1203 C1202 1.363 . S
C1203 C1209 1.428 . S
H1204 C1200 0.930 . S
H1205 C1202 0.929 . S
S1206 N1207 1.613 . S
S1206 N1208 1.610 . S
N1207 S1206 1.613 . S
N1207 C1210 1.350 . S
N1208 S1206 1.610 . S
N1208 C1209 1.351 . S
C1209 C1203 1.428 . S
C1209 N1208 1.351 . S
C1209 C1210 1.434 . S
C1210 C1201 1.429 . S
C1210 N1207 1.350 . S
C1210 C1209 1.434 . S
C1211 C1212 1.369 . S
C1211 C1213 1.419 . S
C1211 H1215 0.930 . S
C1212 C1211 1.369 . S
C1212 C1221 1.429 . S
C1213 C1211 1.419 . S
C1213 C1214 1.363 . S
C1213 H1216 0.929 . S
C1214 C1213 1.363 . S
C1214 C1220 1.428 . S
H1215 C1211 0.930 . S
H1216 C1213 0.929 . S
S1217 N1218 1.613 . S
S1217 N1219 1.610 . S
N1218 S1217 1.613 . S
N1218 C1221 1.350 . S
N1219 S1217 1.610 . S
N1219 C1220 1.351 . S
C1220 C1214 1.428 . S
C1220 N1219 1.351 . S
C1220 C1221 1.434 . S
C1221 C1212 1.429 . S
C1221 N1218 1.350 . S
C1221 C1220 1.434 . S
C1222 C1223 1.369 . S
C1222 C1224 1.419 . S
C1222 H1226 0.930 . S
C1223 C1222 1.369 . S
C1223 C1232 1.429 . S
C1224 C1222 1.419 . S
C1224 C1225 1.363 . S
C1224 H1227 0.929 . S
C1225 C1224 1.363 . S
C1225 C1231 1.428 . S
H1226 C1222 0.930 . S
H1227 C1224 0.929 . S
S1228 N1229 1.613 . S
S1228 N1230 1.610 . S
N1229 S1228 1.613 . S
N1229 C1232 1.350 . S
N1230 S1228 1.610 . S
N1230 C1231 1.351 . S
C1231 C1225 1.428 . S
C1231 N1230 1.351 . S
C1231 C1232 1.434 . S
C1232 C1223 1.429 . S
C1232 N1229 1.350 . S
C1232 C1231 1.434 . S
C1233 C1234 1.369 . S
C1233 C1235 1.419 . S
C1233 H1237 0.930 . S
C1234 C1233 1.369 . S
C1234 C1243 1.429 . S
C1235 C1233 1.419 . S
C1235 C1236 1.363 . S
C1235 H1238 0.929 . S
C1236 C1235 1.363 . S
C1236 C1242 1.428 . S
H1237 C1233 0.930 . S
H1238 C1235 0.929 . S
S1239 N1240 1.613 . S
S1239 N1241 1.610 . S
N1240 S1239 1.613 . S
N1240 C1243 1.350 . S
N1241 S1239 1.610 . S
N1241 C1242 1.351 . S
C1242 C1236 1.428 . S
C1242 N1241 1.351 . S
C1242 C1243 1.434 . S
C1243 C1234 1.429 . S
C1243 N1240 1.350 . S
C1243 C1242 1.434 . S
C1244 C1245 1.369 . S
C1244 C1246 1.419 . S
C1244 H1248 0.930 . S
C1245 C1244 1.369 . S
C1245 C1254 1.429 . S
C1246 C1244 1.419 . S
C1246 C1247 1.363 . S
C1246 H1249 0.929 . S
C1247 C1246 1.363 . S
C1247 C1253 1.428 . S
H1248 C1244 0.930 . S
H1249 C1246 0.929 . S
S1250 N1251 1.613 . S
S1250 N1252 1.610 . S
N1251 S1250 1.613 . S
N1251 C1254 1.350 . S
N1252 S1250 1.610 . S
N1252 C1253 1.351 . S
C1253 C1247 1.428 . S
C1253 N1252 1.351 . S
C1253 C1254 1.434 . S
C1254 C1245 1.429 . S
C1254 N1251 1.350 . S
C1254 C1253 1.434 . S
C1255 C1256 1.369 . S
C1255 C1257 1.419 . S
C1255 H1259 0.930 . S
C1256 C1255 1.369 . S
C1256 C1265 1.429 . S
C1257 C1255 1.419 . S
C1257 C1258 1.363 . S
C1257 H1260 0.929 . S
C1258 C1257 1.363 . S
C1258 C1264 1.428 . S
H1259 C1255 0.930 . S
H1260 C1257 0.929 . S
S1261 N1262 1.613 . S
S1261 N1263 1.610 . S
N1262 S1261 1.613 . S
N1262 C1265 1.350 . S
N1263 S1261 1.610 . S
N1263 C1264 1.351 . S
C1264 C1258 1.428 . S
C1264 N1263 1.351 . S
C1264 C1265 1.434 . S
C1265 C1256 1.429 . S
C1265 N1262 1.350 . S
C1265 C1264 1.434 . S
C1266 C1267 1.369 . S
C1266 C1268 1.419 . S
C1266 H1270 0.930 . S
C1267 C1266 1.369 . S
C1267 C1276 1.429 . S
C1268 C1266 1.419 . S
C1268 C1269 1.363 . S
C1268 H1271 0.929 . S
C1269 C1268 1.363 . S
C1269 C1275 1.428 . S
H1270 C1266 0.930 . S
H1271 C1268 0.929 . S
S1272 N1273 1.613 . S
S1272 N1274 1.610 . S
N1273 S1272 1.613 . S
N1273 C1276 1.350 . S
N1274 S1272 1.610 . S
N1274 C1275 1.351 . S
C1275 C1269 1.428 . S
C1275 N1274 1.351 . S
C1275 C1276 1.434 . S
C1276 C1267 1.429 . S
C1276 N1273 1.350 . S
C1276 C1275 1.434 . S
C1277 C1278 1.369 . S
C1277 C1279 1.419 . S
C1277 H1281 0.930 . S
C1278 C1277 1.369 . S
C1278 C1287 1.429 . S
C1279 C1277 1.419 . S
C1279 C1280 1.363 . S
C1279 H1282 0.929 . S
C1280 C1279 1.363 . S
C1280 C1286 1.428 . S
H1281 C1277 0.930 . S
H1282 C1279 0.929 . S
S1283 N1284 1.613 . S
S1283 N1285 1.610 . S
N1284 S1283 1.613 . S
N1284 C1287 1.350 . S
N1285 S1283 1.610 . S
N1285 C1286 1.351 . S
C1286 C1280 1.428 . S
C1286 N1285 1.351 . S
C1286 C1287 1.434 . S
C1287 C1278 1.429 . S
C1287 N1284 1.350 . S
C1287 C1286 1.434 . S
C1288 C1289 1.369 . S
C1288 C1290 1.419 . S
C1288 H1292 0.930 . S
C1289 C1288 1.369 . S
C1289 C1298 1.429 . S
C1290 C1288 1.419 . S
C1290 C1291 1.363 . S
C1290 H1293 0.929 . S
C1291 C1290 1.363 . S
C1291 C1297 1.428 . S
H1292 C1288 0.930 . S
H1293 C1290 0.929 . S
S1294 N1295 1.613 . S
S1294 N1296 1.610 . S
N1295 S1294 1.613 . S
N1295 C1298 1.350 . S
N1296 S1294 1.610 . S
N1296 C1297 1.351 . S
C1297 C1291 1.428 . S
C1297 N1296 1.351 . S
C1297 C1298 1.434 . S
C1298 C1289 1.429 . S
C1298 N1295 1.350 . S
C1298 C1297 1.434 . S
C1299 C1300 1.369 . S
C1299 C1301 1.419 . S
C1299 H1303 0.930 . S
C1300 C1299 1.369 . S
C1300 C1309 1.429 . S
C1301 C1299 1.419 . S
C1301 C1302 1.363 . S
C1301 H1304 0.929 . S
C1302 C1301 1.363 . S
C1302 C1308 1.428 . S
H1303 C1299 0.930 . S
H1304 C1301 0.929 . S
S1305 N1306 1.613 . S
S1305 N1307 1.610 . S
N1306 S1305 1.613 . S
N1306 C1309 1.350 . S
N1307 S1305 1.610 . S
N1307 C1308 1.351 . S
C1308 C1302 1.428 . S
C1308 N1307 1.351 . S
C1308 C1309 1.434 . S
C1309 C1300 1.429 . S
C1309 N1306 1.350 . S
C1309 C1308 1.434 . S
C1310 C1311 1.369 . S
C1310 C1312 1.419 . S
C1310 H1314 0.930 . S
C1311 C1310 1.369 . S
C1311 C1320 1.429 . S
C1312 C1310 1.419 . S
C1312 C1313 1.363 . S
C1312 H1315 0.929 . S
C1313 C1312 1.363 . S
C1313 C1319 1.428 . S
H1314 C1310 0.930 . S
H1315 C1312 0.929 . S
S1316 N1317 1.613 . S
S1316 N1318 1.610 . S
N1317 S1316 1.613 . S
N1317 C1320 1.350 . S
N1318 S1316 1.610 . S
N1318 C1319 1.351 . S
C1319 C1313 1.428 . S
C1319 N1318 1.351 . S
C1319 C1320 1.434 . S
C1320 C1311 1.429 . S
C1320 N1317 1.350 . S
C1320 C1319 1.434 . S
C1321 C1322 1.369 . S
C1321 C1323 1.419 . S
C1321 H1325 0.930 . S
C1322 C1321 1.369 . S
C1322 C1331 1.429 . S
C1323 C1321 1.419 . S
C1323 C1324 1.363 . S
C1323 H1326 0.929 . S
C1324 C1323 1.363 . S
C1324 C1330 1.428 . S
H1325 C1321 0.930 . S
H1326 C1323 0.929 . S
S1327 N1328 1.613 . S
S1327 N1329 1.610 . S
N1328 S1327 1.613 . S
N1328 C1331 1.350 . S
N1329 S1327 1.610 . S
N1329 C1330 1.351 . S
C1330 C1324 1.428 . S
C1330 N1329 1.351 . S
C1330 C1331 1.434 . S
C1331 C1322 1.429 . S
C1331 N1328 1.350 . S
C1331 C1330 1.434 . S
C1332 C1333 1.369 . S
C1332 C1334 1.419 . S
C1332 H1336 0.930 . S
C1333 C1332 1.369 . S
C1333 C1342 1.429 . S
C1334 C1332 1.419 . S
C1334 C1335 1.363 . S
C1334 H1337 0.929 . S
C1335 C1334 1.363 . S
C1335 C1341 1.428 . S
H1336 C1332 0.930 . S
H1337 C1334 0.929 . S
S1338 N1339 1.613 . S
S1338 N1340 1.610 . S
N1339 S1338 1.613 . S
N1339 C1342 1.350 . S
N1340 S1338 1.610 . S
N1340 C1341 1.351 . S
C1341 C1335 1.428 . S
C1341 N1340 1.351 . S
C1341 C1342 1.434 . S
C1342 C1333 1.429 . S
C1342 N1339 1.350 . S
C1342 C1341 1.434 . S
C1343 C1344 1.369 . S
C1343 C1345 1.419 . S
C1343 H1347 0.930 . S
C1344 C1343 1.369 . S
C1344 C1353 1.429 . S
C1345 C1343 1.419 . S
C1345 C1346 1.363 . S
C1345 H1348 0.929 . S
C1346 C1345 1.363 . S
C1346 C1352 1.428 . S
H1347 C1343 0.930 . S
H1348 C1345 0.929 . S
S1349 N1350 1.613 . S
S1349 N1351 1.610 . S
N1350 S1349 1.613 . S
N1350 C1353 1.350 . S
N1351 S1349 1.610 . S
N1351 C1352 1.351 . S
C1352 C1346 1.428 . S
C1352 N1351 1.351 . S
C1352 C1353 1.434 . S
C1353 C1344 1.429 . S
C1353 N1350 1.350 . S
C1353 C1352 1.434 . S
C1354 C1355 1.369 . S
C1354 C1356 1.419 . S
C1354 H1358 0.930 . S
C1355 C1354 1.369 . S
C1355 C1364 1.429 . S
C1356 C1354 1.419 . S
C1356 C1357 1.363 . S
C1356 H1359 0.929 . S
C1357 C1356 1.363 . S
C1357 C1363 1.428 . S
H1358 C1354 0.930 . S
H1359 C1356 0.929 . S
S1360 N1361 1.613 . S
S1360 N1362 1.610 . S
N1361 S1360 1.613 . S
N1361 C1364 1.350 . S
N1362 S1360 1.610 . S
N1362 C1363 1.351 . S
C1363 C1357 1.428 . S
C1363 N1362 1.351 . S
C1363 C1364 1.434 . S
C1364 C1355 1.429 . S
C1364 N1361 1.350 . S
C1364 C1363 1.434 . S
C1365 C1366 1.369 . S
C1365 C1367 1.419 . S
C1365 H1369 0.930 . S
C1366 C1365 1.369 . S
C1366 C1375 1.429 . S
C1367 C1365 1.419 . S
C1367 C1368 1.363 . S
C1367 H1370 0.929 . S
C1368 C1367 1.363 . S
C1368 C1374 1.428 . S
H1369 C1365 0.930 . S
H1370 C1367 0.929 . S
S1371 N1372 1.613 . S
S1371 N1373 1.610 . S
N1372 S1371 1.613 . S
N1372 C1375 1.350 . S
N1373 S1371 1.610 . S
N1373 C1374 1.351 . S
C1374 C1368 1.428 . S
C1374 N1373 1.351 . S
C1374 C1375 1.434 . S
C1375 C1366 1.429 . S
C1375 N1372 1.350 . S
C1375 C1374 1.434 . S
C1376 C1377 1.369 . S
C1376 C1378 1.419 . S
C1376 H1380 0.930 . S
C1377 C1376 1.369 . S
C1377 C1386 1.429 . S
C1378 C1376 1.419 . S
C1378 C1379 1.363 . S
C1378 H1381 0.929 . S
C1379 C1378 1.363 . S
C1379 C1385 1.428 . S
H1380 C1376 0.930 . S
H1381 C1378 0.929 . S
S1382 N1383 1.613 . S
S1382 N1384 1.610 . S
N1383 S1382 1.613 . S
N1383 C1386 1.350 . S
N1384 S1382 1.610 . S
N1384 C1385 1.351 . S
C1385 C1379 1.428 . S
C1385 N1384 1.351 . S
C1385 C1386 1.434 . S
C1386 C1377 1.429 . S
C1386 N1383 1.350 . S
C1386 C1385 1.434 . S
C1387 C1388 1.369 . S
C1387 C1389 1.419 . S
C1387 H1391 0.930 . S
C1388 C1387 1.369 . S
C1388 C1397 1.429 . S
C1389 C1387 1.419 . S
C1389 C1390 1.363 . S
C1389 H1392 0.929 . S
C1390 C1389 1.363 . S
C1390 C1396 1.428 . S
H1391 C1387 0.930 . S
H1392 C1389 0.929 . S
S1393 N1394 1.613 . S
S1393 N1395 1.610 . S
N1394 S1393 1.613 . S
N1394 C1397 1.350 . S
N1395 S1393 1.610 . S
N1395 C1396 1.351 . S
C1396 C1390 1.428 . S
C1396 N1395 1.351 . S
C1396 C1397 1.434 . S
C1397 C1388 1.429 . S
C1397 N1394 1.350 . S
C1397 C1396 1.434 . S
C1398 C1399 1.369 . S
C1398 C1400 1.419 . S
C1398 H1402 0.930 . S
C1399 C1398 1.369 . S
C1399 C1408 1.429 . S
C1400 C1398 1.419 . S
C1400 C1401 1.363 . S
C1400 H1403 0.929 . S
C1401 C1400 1.363 . S
C1401 C1407 1.428 . S
H1402 C1398 0.930 . S
H1403 C1400 0.929 . S
S1404 N1405 1.613 . S
S1404 N1406 1.610 . S
N1405 S1404 1.613 . S
N1405 C1408 1.350 . S
N1406 S1404 1.610 . S
N1406 C1407 1.351 . S
C1407 C1401 1.428 . S
C1407 N1406 1.351 . S
C1407 C1408 1.434 . S
C1408 C1399 1.429 . S
C1408 N1405 1.350 . S
C1408 C1407 1.434 . S
C1409 C1410 1.369 . S
C1409 C1411 1.419 . S
C1409 H1413 0.930 . S
C1410 C1409 1.369 . S
C1410 C1419 1.429 . S
C1411 C1409 1.419 . S
C1411 C1412 1.363 . S
C1411 H1414 0.929 . S
C1412 C1411 1.363 . S
C1412 C1418 1.428 . S
H1413 C1409 0.930 . S
H1414 C1411 0.929 . S
S1415 N1416 1.613 . S
S1415 N1417 1.610 . S
N1416 S1415 1.613 . S
N1416 C1419 1.350 . S
N1417 S1415 1.610 . S
N1417 C1418 1.351 . S
C1418 C1412 1.428 . S
C1418 N1417 1.351 . S
C1418 C1419 1.434 . S
C1419 C1410 1.429 . S
C1419 N1416 1.350 . S
C1419 C1418 1.434 . S
C1420 C1421 1.369 . S
C1420 C1422 1.419 . S
C1420 H1424 0.930 . S
C1421 C1420 1.369 . S
C1421 C1430 1.429 . S
C1422 C1420 1.419 . S
C1422 C1423 1.363 . S
C1422 H1425 0.929 . S
C1423 C1422 1.363 . S
C1423 C1429 1.428 . S
H1424 C1420 0.930 . S
H1425 C1422 0.929 . S
S1426 N1427 1.613 . S
S1426 N1428 1.610 . S
N1427 S1426 1.613 . S
N1427 C1430 1.350 . S
N1428 S1426 1.610 . S
N1428 C1429 1.351 . S
C1429 C1423 1.428 . S
C1429 N1428 1.351 . S
C1429 C1430 1.434 . S
C1430 C1421 1.429 . S
C1430 N1427 1.350 . S
C1430 C1429 1.434 . S
C1431 C1432 1.369 . S
C1431 C1433 1.419 . S
C1431 H1435 0.930 . S
C1432 C1431 1.369 . S
C1432 C1441 1.429 . S
C1433 C1431 1.419 . S
C1433 C1434 1.363 . S
C1433 H1436 0.929 . S
C1434 C1433 1.363 . S
C1434 C1440 1.428 . S
H1435 C1431 0.930 . S
H1436 C1433 0.929 . S
S1437 N1438 1.613 . S
S1437 N1439 1.610 . S
N1438 S1437 1.613 . S
N1438 C1441 1.350 . S
N1439 S1437 1.610 . S
N1439 C1440 1.351 . S
C1440 C1434 1.428 . S
C1440 N1439 1.351 . S
C1440 C1441 1.434 . S
C1441 C1432 1.429 . S
C1441 N1438 1.350 . S
C1441 C1440 1.434 . S
C1442 C1443 1.369 . S
C1442 C1444 1.419 . S
C1442 H1446 0.930 . S
C1443 C1442 1.369 . S
C1443 C1452 1.429 . S
C1444 C1442 1.419 . S
C1444 C1445 1.363 . S
C1444 H1447 0.929 . S
C1445 C1444 1.363 . S
C1445 C1451 1.428 . S
H1446 C1442 0.930 . S
H1447 C1444 0.929 . S
S1448 N1449 1.613 . S
S1448 N1450 1.610 . S
N1449 S1448 1.613 . S
N1449 C1452 1.350 . S
N1450 S1448 1.610 . S
N1450 C1451 1.351 . S
C1451 C1445 1.428 . S
C1451 N1450 1.351 . S
C1451 C1452 1.434 . S
C1452 C1443 1.429 . S
C1452 N1449 1.350 . S
C1452 C1451 1.434 . S
C1453 C1454 1.369 . S
C1453 C1455 1.419 . S
C1453 H1457 0.930 . S
C1454 C1453 1.369 . S
C1454 C1463 1.429 . S
C1455 C1453 1.419 . S
C1455 C1456 1.363 . S
C1455 H1458 0.929 . S
C1456 C1455 1.363 . S
C1456 C1462 1.428 . S
H1457 C1453 0.930 . S
H1458 C1455 0.929 . S
S1459 N1460 1.613 . S
S1459 N1461 1.610 . S
N1460 S1459 1.613 . S
N1460 C1463 1.350 . S
N1461 S1459 1.610 . S
N1461 C1462 1.351 . S
C1462 C1456 1.428 . S
C1462 N1461 1.351 . S
C1462 C1463 1.434 . S
C1463 C1454 1.429 . S
C1463 N1460 1.350 . S
C1463 C1462 1.434 . S
C1464 C1465 1.369 . S
C1464 C1466 1.419 . S
C1464 H1468 0.930 . S
C1465 C1464 1.369 . S
C1465 C1474 1.429 . S
C1466 C1464 1.419 . S
C1466 C1467 1.363 . S
C1466 H1469 0.929 . S
C1467 C1466 1.363 . S
C1467 C1473 1.428 . S
H1468 C1464 0.930 . S
H1469 C1466 0.929 . S
S1470 N1471 1.613 . S
S1470 N1472 1.610 . S
N1471 S1470 1.613 . S
N1471 C1474 1.350 . S
N1472 S1470 1.610 . S
N1472 C1473 1.351 . S
C1473 C1467 1.428 . S
C1473 N1472 1.351 . S
C1473 C1474 1.434 . S
C1474 C1465 1.429 . S
C1474 N1471 1.350 . S
C1474 C1473 1.434 . S
C1475 C1476 1.369 . S
C1475 C1477 1.419 . S
C1475 H1479 0.930 . S
C1476 C1475 1.369 . S
C1476 C1485 1.429 . S
C1477 C1475 1.419 . S
C1477 C1478 1.363 . S
C1477 H1480 0.929 . S
C1478 C1477 1.363 . S
C1478 C1484 1.428 . S
H1479 C1475 0.930 . S
H1480 C1477 0.929 . S
S1481 N1482 1.613 . S
S1481 N1483 1.610 . S
N1482 S1481 1.613 . S
N1482 C1485 1.350 . S
N1483 S1481 1.610 . S
N1483 C1484 1.351 . S
C1484 C1478 1.428 . S
C1484 N1483 1.351 . S
C1484 C1485 1.434 . S
C1485 C1476 1.429 . S
C1485 N1482 1.350 . S
C1485 C1484 1.434 . S
C1486 C1487 1.369 . S
C1486 C1488 1.419 . S
C1486 H1490 0.930 . S
C1487 C1486 1.369 . S
C1487 C1496 1.429 . S
C1488 C1486 1.419 . S
C1488 C1489 1.363 . S
C1488 H1491 0.929 . S
C1489 C1488 1.363 . S
C1489 C1495 1.428 . S
H1490 C1486 0.930 . S
H1491 C1488 0.929 . S
S1492 N1493 1.613 . S
S1492 N1494 1.610 . S
N1493 S1492 1.613 . S
N1493 C1496 1.350 . S
N1494 S1492 1.610 . S
N1494 C1495 1.351 . S
C1495 C1489 1.428 . S
C1495 N1494 1.351 . S
C1495 C1496 1.434 . S
C1496 C1487 1.429 . S
C1496 N1493 1.350 . S
C1496 C1495 1.434 . S
C1497 C1498 1.369 . S
C1497 C1499 1.419 . S
C1497 H1501 0.930 . S
C1498 C1497 1.369 . S
C1498 C1507 1.429 . S
C1499 C1497 1.419 . S
C1499 C1500 1.363 . S
C1499 H1502 0.929 . S
C1500 C1499 1.363 . S
C1500 C1506 1.428 . S
H1501 C1497 0.930 . S
H1502 C1499 0.929 . S
S1503 N1504 1.613 . S
S1503 N1505 1.610 . S
N1504 S1503 1.613 . S
N1504 C1507 1.350 . S
N1505 S1503 1.610 . S
N1505 C1506 1.351 . S
C1506 C1500 1.428 . S
C1506 N1505 1.351 . S
C1506 C1507 1.434 . S
C1507 C1498 1.429 . S
C1507 N1504 1.350 . S
C1507 C1506 1.434 . S
C1508 C1509 1.369 . S
C1508 C1510 1.419 . S
C1508 H1512 0.930 . S
C1509 C1508 1.369 . S
C1509 C1518 1.429 . S
C1510 C1508 1.419 . S
C1510 C1511 1.363 . S
C1510 H1513 0.929 . S
C1511 C1510 1.363 . S
C1511 C1517 1.428 . S
H1512 C1508 0.930 . S
H1513 C1510 0.929 . S
S1514 N1515 1.613 . S
S1514 N1516 1.610 . S
N1515 S1514 1.613 . S
N1515 C1518 1.350 . S
N1516 S1514 1.610 . S
N1516 C1517 1.351 . S
C1517 C1511 1.428 . S
C1517 N1516 1.351 . S
C1517 C1518 1.434 . S
C1518 C1509 1.429 . S
C1518 N1515 1.350 . S
C1518 C1517 1.434 . S
C1519 C1520 1.369 . S
C1519 C1521 1.419 . S
C1519 H1523 0.930 . S
C1520 C1519 1.369 . S
C1520 C1529 1.429 . S
C1521 C1519 1.419 . S
C1521 C1522 1.363 . S
C1521 H1524 0.929 . S
C1522 C1521 1.363 . S
C1522 C1528 1.428 . S
H1523 C1519 0.930 . S
H1524 C1521 0.929 . S
S1525 N1526 1.613 . S
S1525 N1527 1.610 . S
N1526 S1525 1.613 . S
N1526 C1529 1.350 . S
N1527 S1525 1.610 . S
N1527 C1528 1.351 . S
C1528 C1522 1.428 . S
C1528 N1527 1.351 . S
C1528 C1529 1.434 . S
C1529 C1520 1.429 . S
C1529 N1526 1.350 . S
C1529 C1528 1.434 . S
C1530 C1531 1.369 . S
C1530 C1532 1.419 . S
C1530 H1534 0.930 . S
C1531 C1530 1.369 . S
C1531 C1540 1.429 . S
C1532 C1530 1.419 . S
C1532 C1533 1.363 . S
C1532 H1535 0.929 . S
C1533 C1532 1.363 . S
C1533 C1539 1.428 . S
H1534 C1530 0.930 . S
H1535 C1532 0.929 . S
S1536 N1537 1.613 . S
S1536 N1538 1.610 . S
N1537 S1536 1.613 . S
N1537 C1540 1.350 . S
N1538 S1536 1.610 . S
N1538 C1539 1.351 . S
C1539 C1533 1.428 . S
C1539 N1538 1.351 . S
C1539 C1540 1.434 . S
C1540 C1531 1.429 . S
C1540 N1537 1.350 . S
C1540 C1539 1.434 . S
C1541 C1542 1.369 . S
C1541 C1543 1.419 . S
C1541 H1545 0.930 . S
C1542 C1541 1.369 . S
C1542 C1551 1.429 . S
C1543 C1541 1.419 . S
C1543 C1544 1.363 . S
C1543 H1546 0.929 . S
C1544 C1543 1.363 . S
C1544 C1550 1.428 . S
H1545 C1541 0.930 . S
H1546 C1543 0.929 . S
S1547 N1548 1.613 . S
S1547 N1549 1.610 . S
N1548 S1547 1.613 . S
N1548 C1551 1.350 . S
N1549 S1547 1.610 . S
N1549 C1550 1.351 . S
C1550 C1544 1.428 . S
C1550 N1549 1.351 . S
C1550 C1551 1.434 . S
C1551 C1542 1.429 . S
C1551 N1548 1.350 . S
C1551 C1550 1.434 . S
C1552 C1553 1.369 . S
C1552 C1554 1.419 . S
C1552 H1556 0.930 . S
C1553 C1552 1.369 . S
C1553 C1562 1.429 . S
C1554 C1552 1.419 . S
C1554 C1555 1.363 . S
C1554 H1557 0.929 . S
C1555 C1554 1.363 . S
C1555 C1561 1.428 . S
H1556 C1552 0.930 . S
H1557 C1554 0.929 . S
S1558 N1559 1.613 . S
S1558 N1560 1.610 . S
N1559 S1558 1.613 . S
N1559 C1562 1.350 . S
N1560 S1558 1.610 . S
N1560 C1561 1.351 . S
C1561 C1555 1.428 . S
C1561 N1560 1.351 . S
C1561 C1562 1.434 . S
C1562 C1553 1.429 . S
C1562 N1559 1.350 . S
C1562 C1561 1.434 . S
C1563 C1564 1.369 . S
C1563 C1565 1.419 . S
C1563 H1567 0.930 . S
C1564 C1563 1.369 . S
C1564 C1573 1.429 . S
C1565 C1563 1.419 . S
C1565 C1566 1.363 . S
C1565 H1568 0.929 . S
C1566 C1565 1.363 . S
C1566 C1572 1.428 . S
H1567 C1563 0.930 . S
H1568 C1565 0.929 . S
S1569 N1570 1.613 . S
S1569 N1571 1.610 . S
N1570 S1569 1.613 . S
N1570 C1573 1.350 . S
N1571 S1569 1.610 . S
N1571 C1572 1.351 . S
C1572 C1566 1.428 . S
C1572 N1571 1.351 . S
C1572 C1573 1.434 . S
C1573 C1564 1.429 . S
C1573 N1570 1.350 . S
C1573 C1572 1.434 . S
C1574 C1575 1.369 . S
C1574 C1576 1.419 . S
C1574 H1578 0.930 . S
C1575 C1574 1.369 . S
C1575 C1584 1.429 . S
C1576 C1574 1.419 . S
C1576 C1577 1.363 . S
C1576 H1579 0.929 . S
C1577 C1576 1.363 . S
C1577 C1583 1.428 . S
H1578 C1574 0.930 . S
H1579 C1576 0.929 . S
S1580 N1581 1.613 . S
S1580 N1582 1.610 . S
N1581 S1580 1.613 . S
N1581 C1584 1.350 . S
N1582 S1580 1.610 . S
N1582 C1583 1.351 . S
C1583 C1577 1.428 . S
C1583 N1582 1.351 . S
C1583 C1584 1.434 . S
C1584 C1575 1.429 . S
C1584 N1581 1.350 . S
C1584 C1583 1.434 . S
C1585 C1586 1.369 . S
C1585 C1587 1.419 . S
C1585 H1589 0.930 . S
C1586 C1585 1.369 . S
C1586 C1595 1.429 . S
C1587 C1585 1.419 . S
C1587 C1588 1.363 . S
C1587 H1590 0.929 . S
C1588 C1587 1.363 . S
C1588 C1594 1.428 . S
H1589 C1585 0.930 . S
H1590 C1587 0.929 . S
S1591 N1592 1.613 . S
S1591 N1593 1.610 . S
N1592 S1591 1.613 . S
N1592 C1595 1.350 . S
N1593 S1591 1.610 . S
N1593 C1594 1.351 . S
C1594 C1588 1.428 . S
C1594 N1593 1.351 . S
C1594 C1595 1.434 . S
C1595 C1586 1.429 . S
C1595 N1592 1.350 . S
C1595 C1594 1.434 . S
C1596 C1597 1.369 . S
C1596 C1598 1.419 . S
C1596 H1600 0.930 . S
C1597 C1596 1.369 . S
C1597 C1606 1.429 . S
C1598 C1596 1.419 . S
C1598 C1599 1.363 . S
C1598 H1601 0.929 . S
C1599 C1598 1.363 . S
C1599 C1605 1.428 . S
H1600 C1596 0.930 . S
H1601 C1598 0.929 . S
S1602 N1603 1.613 . S
S1602 N1604 1.610 . S
N1603 S1602 1.613 . S
N1603 C1606 1.350 . S
N1604 S1602 1.610 . S
N1604 C1605 1.351 . S
C1605 C1599 1.428 . S
C1605 N1604 1.351 . S
C1605 C1606 1.434 . S
C1606 C1597 1.429 . S
C1606 N1603 1.350 . S
C1606 C1605 1.434 . S
C1607 C1608 1.369 . S
C1607 C1609 1.419 . S
C1607 H1611 0.930 . S
C1608 C1607 1.369 . S
C1608 C1617 1.429 . S
C1609 C1607 1.419 . S
C1609 C1610 1.363 . S
C1609 H1612 0.929 . S
C1610 C1609 1.363 . S
C1610 C1616 1.428 . S
H1611 C1607 0.930 . S
H1612 C1609 0.929 . S
S1613 N1614 1.613 . S
S1613 N1615 1.610 . S
N1614 S1613 1.613 . S
N1614 C1617 1.350 . S
N1615 S1613 1.610 . S
N1615 C1616 1.351 . S
C1616 C1610 1.428 . S
C1616 N1615 1.351 . S
C1616 C1617 1.434 . S
C1617 C1608 1.429 . S
C1617 N1614 1.350 . S
C1617 C1616 1.434 . S
C1618 C1619 1.369 . S
C1618 C1620 1.419 . S
C1618 H1622 0.930 . S
C1619 C1618 1.369 . S
C1619 C1628 1.429 . S
C1620 C1618 1.419 . S
C1620 C1621 1.363 . S
C1620 H1623 0.929 . S
C1621 C1620 1.363 . S
C1621 C1627 1.428 . S
H1622 C1618 0.930 . S
H1623 C1620 0.929 . S
S1624 N1625 1.613 . S
S1624 N1626 1.610 . S
N1625 S1624 1.613 . S
N1625 C1628 1.350 . S
N1626 S1624 1.610 . S
N1626 C1627 1.351 . S
C1627 C1621 1.428 . S
C1627 N1626 1.351 . S
C1627 C1628 1.434 . S
C1628 C1619 1.429 . S
C1628 N1625 1.350 . S
C1628 C1627 1.434 . S
C1629 C1630 1.369 . S
C1629 C1631 1.419 . S
C1629 H1633 0.930 . S
C1630 C1629 1.369 . S
C1630 C1639 1.429 . S
C1631 C1629 1.419 . S
C1631 C1632 1.363 . S
C1631 H1634 0.929 . S
C1632 C1631 1.363 . S
C1632 C1638 1.428 . S
H1633 C1629 0.930 . S
H1634 C1631 0.929 . S
S1635 N1636 1.613 . S
S1635 N1637 1.610 . S
N1636 S1635 1.613 . S
N1636 C1639 1.350 . S
N1637 S1635 1.610 . S
N1637 C1638 1.351 . S
C1638 C1632 1.428 . S
C1638 N1637 1.351 . S
C1638 C1639 1.434 . S
C1639 C1630 1.429 . S
C1639 N1636 1.350 . S
C1639 C1638 1.434 . S
C1640 C1641 1.369 . S
C1640 C1642 1.419 . S
C1640 H1644 0.930 . S
C1641 C1640 1.369 . S
C1641 C1650 1.429 . S
C1642 C1640 1.419 . S
C1642 C1643 1.363 . S
C1642 H1645 0.929 . S
C1643 C1642 1.363 . S
C1643 C1649 1.428 . S
H1644 C1640 0.930 . S
H1645 C1642 0.929 . S
S1646 N1647 1.613 . S
S1646 N1648 1.610 . S
N1647 S1646 1.613 . S
N1647 C1650 1.350 . S
N1648 S1646 1.610 . S
N1648 C1649 1.351 . S
C1649 C1643 1.428 . S
C1649 N1648 1.351 . S
C1649 C1650 1.434 . S
C1650 C1641 1.429 . S
C1650 N1647 1.350 . S
C1650 C1649 1.434 . S
C1651 C1652 1.369 . S
C1651 C1653 1.419 . S
C1651 H1655 0.930 . S
C1652 C1651 1.369 . S
C1652 C1661 1.429 . S
C1653 C1651 1.419 . S
C1653 C1654 1.363 . S
C1653 H1656 0.929 . S
C1654 C1653 1.363 . S
C1654 C1660 1.428 . S
H1655 C1651 0.930 . S
H1656 C1653 0.929 . S
S1657 N1658 1.613 . S
S1657 N1659 1.610 . S
N1658 S1657 1.613 . S
N1658 C1661 1.350 . S
N1659 S1657 1.610 . S
N1659 C1660 1.351 . S
C1660 C1654 1.428 . S
C1660 N1659 1.351 . S
C1660 C1661 1.434 . S
C1661 C1652 1.429 . S
C1661 N1658 1.350 . S
C1661 C1660 1.434 . S
C1662 C1663 1.369 . S
C1662 C1664 1.419 . S
C1662 H1666 0.930 . S
C1663 C1662 1.369 . S
C1663 C1672 1.429 . S
C1664 C1662 1.419 . S
C1664 C1665 1.363 . S
C1664 H1667 0.929 . S
C1665 C1664 1.363 . S
C1665 C1671 1.428 . S
H1666 C1662 0.930 . S
H1667 C1664 0.929 . S
S1668 N1669 1.613 . S
S1668 N1670 1.610 . S
N1669 S1668 1.613 . S
N1669 C1672 1.350 . S
N1670 S1668 1.610 . S
N1670 C1671 1.351 . S
C1671 C1665 1.428 . S
C1671 N1670 1.351 . S
C1671 C1672 1.434 . S
C1672 C1663 1.429 . S
C1672 N1669 1.350 . S
C1672 C1671 1.434 . S
C1673 C1674 1.369 . S
C1673 C1675 1.419 . S
C1673 H1677 0.930 . S
C1674 C1673 1.369 . S
C1674 C1683 1.429 . S
C1675 C1673 1.419 . S
C1675 C1676 1.363 . S
C1675 H1678 0.929 . S
C1676 C1675 1.363 . S
C1676 C1682 1.428 . S
H1677 C1673 0.930 . S
H1678 C1675 0.929 . S
S1679 N1680 1.613 . S
S1679 N1681 1.610 . S
N1680 S1679 1.613 . S
N1680 C1683 1.350 . S
N1681 S1679 1.610 . S
N1681 C1682 1.351 . S
C1682 C1676 1.428 . S
C1682 N1681 1.351 . S
C1682 C1683 1.434 . S
C1683 C1674 1.429 . S
C1683 N1680 1.350 . S
C1683 C1682 1.434 . S
C1684 C1685 1.369 . S
C1684 C1686 1.419 . S
C1684 H1688 0.930 . S
C1685 C1684 1.369 . S
C1685 C1694 1.429 . S
C1686 C1684 1.419 . S
C1686 C1687 1.363 . S
C1686 H1689 0.929 . S
C1687 C1686 1.363 . S
C1687 C1693 1.428 . S
H1688 C1684 0.930 . S
H1689 C1686 0.929 . S
S1690 N1691 1.613 . S
S1690 N1692 1.610 . S
N1691 S1690 1.613 . S
N1691 C1694 1.350 . S
N1692 S1690 1.610 . S
N1692 C1693 1.351 . S
C1693 C1687 1.428 . S
C1693 N1692 1.351 . S
C1693 C1694 1.434 . S
C1694 C1685 1.429 . S
C1694 N1691 1.350 . S
C1694 C1693 1.434 . S
C1695 C1696 1.369 . S
C1695 C1697 1.419 . S
C1695 H1699 0.930 . S
C1696 C1695 1.369 . S
C1696 C1705 1.429 . S
C1697 C1695 1.419 . S
C1697 C1698 1.363 . S
C1697 H1700 0.929 . S
C1698 C1697 1.363 . S
C1698 C1704 1.428 . S
H1699 C1695 0.930 . S
H1700 C1697 0.929 . S
S1701 N1702 1.613 . S
S1701 N1703 1.610 . S
N1702 S1701 1.613 . S
N1702 C1705 1.350 . S
N1703 S1701 1.610 . S
N1703 C1704 1.351 . S
C1704 C1698 1.428 . S
C1704 N1703 1.351 . S
C1704 C1705 1.434 . S
C1705 C1696 1.429 . S
C1705 N1702 1.350 . S
C1705 C1704 1.434 . S
C1706 C1707 1.369 . S
C1706 C1708 1.419 . S
C1706 H1710 0.930 . S
C1707 C1706 1.369 . S
C1707 C1716 1.429 . S
C1708 C1706 1.419 . S
C1708 C1709 1.363 . S
C1708 H1711 0.929 . S
C1709 C1708 1.363 . S
C1709 C1715 1.428 . S
H1710 C1706 0.930 . S
H1711 C1708 0.929 . S
S1712 N1713 1.613 . S
S1712 N1714 1.610 . S
N1713 S1712 1.613 . S
N1713 C1716 1.350 . S
N1714 S1712 1.610 . S
N1714 C1715 1.351 . S
C1715 C1709 1.428 . S
C1715 N1714 1.351 . S
C1715 C1716 1.434 . S
C1716 C1707 1.429 . S
C1716 N1713 1.350 . S
C1716 C1715 1.434 . S
C1717 C1718 1.369 . S
C1717 C1719 1.419 . S
C1717 H1721 0.930 . S
C1718 C1717 1.369 . S
C1718 C1727 1.429 . S
C1719 C1717 1.419 . S
C1719 C1720 1.363 . S
C1719 H1722 0.929 . S
C1720 C1719 1.363 . S
C1720 C1726 1.428 . S
H1721 C1717 0.930 . S
H1722 C1719 0.929 . S
S1723 N1724 1.613 . S
S1723 N1725 1.610 . S
N1724 S1723 1.613 . S
N1724 C1727 1.350 . S
N1725 S1723 1.610 . S
N1725 C1726 1.351 . S
C1726 C1720 1.428 . S
C1726 N1725 1.351 . S
C1726 C1727 1.434 . S
C1727 C1718 1.429 . S
C1727 N1724 1.350 . S
C1727 C1726 1.434 . S
C673 C442 1.419 . S
C675 C8 1.419 . S
C684 C22 1.419 . S
C686 C400 1.419 . S
C695 C36 1.419 . S
C697 C414 1.419 . S
C706 C428 1.419 . S
C708 C50 1.419 . S
C717 C358 1.419 . S
C719 C64 1.419 . S
C728 C78 1.419 . S
C730 C372 1.419 . S
C739 C386 1.419 . S
C741 C92 1.419 . S
C750 C106 1.419 . S
C752 C344 1.419 . S
C761 C120 1.419 . S
C763 C624 1.419 . S
C772 C582 1.419 . S
C774 C134 1.419 . S
C783 C596 1.419 . S
C785 C148 1.419 . S
C794 C162 1.419 . S
C796 C610 1.419 . S
C805 C176 1.419 . S
C807 C666 1.419 . S
C816 C190 1.419 . S
C818 C638 1.419 . S
C827 C204 1.419 . S
C829 C652 1.419 . S
C838 C568 1.419 . S
C840 C218 1.419 . S
C849 C554 1.419 . S
C851 C232 1.419 . S
C860 C246 1.419 . S
C862 C470 1.419 . S
C871 C484 1.419 . S
C873 C260 1.419 . S
C882 C274 1.419 . S
C884 C498 1.419 . S
C893 C456 1.419 . S
C895 C288 1.419 . S
C904 C526 1.419 . S
C906 C302 1.419 . S
C915 C316 1.419 . S
C917 C540 1.419 . S
C926 C512 1.419 . S
C928 C330 1.419 . S
C937 C133 1.366 . S
C939 C7 1.366 . S
C948 C147 1.361 . S
C950 C21 1.361 . S
C959 C35 1.361 . S
C961 C161 1.361 . S
C970 C119 1.367 . S
C972 C49 1.365 . S
C981 C63 1.365 . S
C983 C217 1.363 . S
C992 C175 1.366 . S
C994 C77 1.364 . S
C1003 C189 1.367 . S
C1005 C91 1.365 . S
C1014 C203 1.360 . S
C1016 C105 1.361 . S
C1025 C259 1.361 . S
C1027 C231 1.363 . S
C1036 C315 1.364 . S
C1038 C245 1.362 . S
C1047 C329 1.367 . S
C1049 C273 1.365 . S
C1058 C287 1.367 . S
C1060 C301 1.366 . S
C1069 C469 1.365 . S
C1071 C343 1.366 . S
C1080 C483 1.366 . S
C1082 C357 1.365 . S
C1091 C497 1.363 . S
C1093 C371 1.361 . S
C1102 C385 1.362 . S
C1104 C455 1.364 . S
C1113 C399 1.366 . S
C1115 C553 1.366 . S
C1124 C413 1.360 . S
C1126 C511 1.362 . S
C1135 C525 1.367 . S
C1137 C427 1.366 . S
C1146 C539 1.363 . S
C1148 C441 1.365 . S
C1157 C567 1.360 . S
C1159 C595 1.361 . S
C1168 C651 1.365 . S
C1170 C581 1.363 . S
C1179 C665 1.362 . S
C1181 C609 1.361 . S
C1190 C637 1.366 . S
C1192 C623 1.365 . S
C1201 C3 1.453 . S
C1203 C261 1.426 . S
C1212 C17 1.454 . S
C1214 C275 1.424 . S
C1223 C31 1.453 . S
C1225 C289 1.426 . S
C1234 C247 1.425 . S
C1236 C45 1.454 . S
C1245 C59 1.453 . S
C1247 C317 1.426 . S
C1256 C73 1.451 . S
C1258 C233 1.426 . S
C1267 C331 1.424 . S
C1269 C87 1.454 . S
C1278 C303 1.424 . S
C1280 C101 1.452 . S
C1289 C115 1.456 . S
C1291 C135 1.420 . S
C1300 C129 1.454 . S
C1302 C149 1.420 . S
C1311 C143 1.454 . S
C1313 C163 1.420 . S
C1322 C121 1.419 . S
C1324 C157 1.455 . S
C1333 C219 1.426 . S
C1335 C171 1.452 . S
C1344 C177 1.425 . S
C1346 C185 1.452 . S
C1355 C191 1.422 . S
C1357 C199 1.455 . S
C1366 C213 1.451 . S
C1368 C205 1.425 . S
C1377 C51 1.427 . S
C1379 C227 1.453 . S
C1388 C79 1.427 . S
C1390 C241 1.453 . S
C1399 C93 1.424 . S
C1401 C255 1.452 . S
C1410 C269 1.451 . S
C1412 C107 1.426 . S
C1421 C65 1.421 . S
C1423 C283 1.453 . S
C1432 C23 1.423 . S
C1434 C297 1.452 . S
C1443 C37 1.419 . S
C1445 C311 1.455 . S
C1454 C9 1.419 . S
C1456 C325 1.454 . S
C1465 C597 1.425 . S
C1467 C339 1.452 . S
C1476 C353 1.451 . S
C1478 C611 1.426 . S
C1487 C625 1.427 . S
C1489 C367 1.452 . S
C1498 C583 1.419 . S
C1500 C381 1.454 . S
C1509 C395 1.453 . S
C1511 C653 1.425 . S
C1520 C409 1.453 . S
C1522 C569 1.421 . S
C1531 C667 1.419 . S
C1533 C423 1.455 . S
C1542 C437 1.453 . S
C1544 C639 1.425 . S
C1553 C451 1.454 . S
C1555 C471 1.424 . S
C1564 C465 1.452 . S
C1566 C485 1.426 . S
C1575 C479 1.451 . S
C1577 C499 1.426 . S
C1586 C493 1.455 . S
C1588 C457 1.420 . S
C1597 C555 1.423 . S
C1599 C507 1.455 . S
C1608 C513 1.422 . S
C1610 C521 1.455 . S
C1619 C527 1.420 . S
C1621 C535 1.454 . S
C1630 C549 1.452 . S
C1632 C541 1.426 . S
C1641 C387 1.419 . S
C1643 C563 1.455 . S
C1652 C415 1.427 . S
C1654 C577 1.452 . S
C1663 C429 1.425 . S
C1665 C591 1.452 . S
C1674 C605 1.454 . S
C1676 C443 1.424 . S
C1685 C401 1.425 . S
C1687 C619 1.453 . S
C1696 C359 1.423 . S
C1698 C633 1.452 . S
C1707 C647 1.451 . S
C1709 C373 1.425 . S
C1718 C345 1.427 . S
C1720 C661 1.452 . S
