# Generated by pormake.
# Topology umr, (4)-cn, num edge types: 1
# Building blocks:
#     Node 0, Type 0, BuildingBlock: CEKHIL_clean_sbu_0, # of connection points: 4
#     Node 1, Type 0, BuildingBlock: CEKHIL_clean_sbu_0, # of connection points: 4
#     Node 2, Type 0, BuildingBlock: CEKHIL_clean_sbu_0, # of connection points: 4
#     Node 3, Type 0, BuildingBlock: CEKHIL_clean_sbu_0, # of connection points: 4
#     Node 4, Type 0, BuildingBlock: CEKHIL_clean_sbu_0, # of connection points: 4
#     Node 5, Type 0, BuildingBlock: CEKHIL_clean_sbu_0, # of connection points: 4
#     Node 6, Type 0, BuildingBlock: CEKHIL_clean_sbu_0, # of connection points: 4
#     Node 7, Type 0, BuildingBlock: CEKHIL_clean_sbu_0, # of connection points: 4
#     Node 8, Type 0, BuildingBlock: CEKHIL_clean_sbu_0, # of connection points: 4
#     Node 9, Type 0, BuildingBlock: CEKHIL_clean_sbu_0, # of connection points: 4
#     Node 10, Type 0, BuildingBlock: CEKHIL_clean_sbu_0, # of connection points: 4
#     Node 11, Type 0, BuildingBlock: CEKHIL_clean_sbu_0, # of connection points: 4
#     Node 12, Type 0, BuildingBlock: CEKHIL_clean_sbu_0, # of connection points: 4
#     Node 13, Type 0, BuildingBlock: CEKHIL_clean_sbu_0, # of connection points: 4
#     Node 14, Type 0, BuildingBlock: CEKHIL_clean_sbu_0, # of connection points: 4
#     Node 15, Type 0, BuildingBlock: CEKHIL_clean_sbu_0, # of connection points: 4
#     Node 16, Type 0, BuildingBlock: CEKHIL_clean_sbu_0, # of connection points: 4
#     Node 17, Type 0, BuildingBlock: CEKHIL_clean_sbu_0, # of connection points: 4
#     Node 18, Type 0, BuildingBlock: CEKHIL_clean_sbu_0, # of connection points: 4
#     Node 19, Type 0, BuildingBlock: CEKHIL_clean_sbu_0, # of connection points: 4
#     Node 20, Type 0, BuildingBlock: CEKHIL_clean_sbu_0, # of connection points: 4
#     Node 21, Type 0, BuildingBlock: CEKHIL_clean_sbu_0, # of connection points: 4
#     Node 22, Type 0, BuildingBlock: CEKHIL_clean_sbu_0, # of connection points: 4
#     Node 23, Type 0, BuildingBlock: CEKHIL_clean_sbu_0, # of connection points: 4
#     Node 24, Type 0, BuildingBlock: CEKHIL_clean_sbu_0, # of connection points: 4
#     Node 25, Type 0, BuildingBlock: CEKHIL_clean_sbu_0, # of connection points: 4
#     Node 26, Type 0, BuildingBlock: CEKHIL_clean_sbu_0, # of connection points: 4
#     Node 27, Type 0, BuildingBlock: CEKHIL_clean_sbu_0, # of connection points: 4
#     Node 28, Type 0, BuildingBlock: CEKHIL_clean_sbu_0, # of connection points: 4
#     Node 29, Type 0, BuildingBlock: CEKHIL_clean_sbu_0, # of connection points: 4
#     Node 30, Type 0, BuildingBlock: CEKHIL_clean_sbu_0, # of connection points: 4
#     Node 31, Type 0, BuildingBlock: CEKHIL_clean_sbu_0, # of connection points: 4
#     Edge 32, Type (0, 0), BuildingBlock: XUDNAN_clean_linker_2, # of connection points: 2
#     Edge 33, Type (0, 0), BuildingBlock: XUDNAN_clean_linker_2, # of connection points: 2
#     Edge 34, Type (0, 0), BuildingBlock: XUDNAN_clean_linker_2, # of connection points: 2
#     Edge 35, Type (0, 0), BuildingBlock: XUDNAN_clean_linker_2, # of connection points: 2
#     Edge 36, Type (0, 0), BuildingBlock: XUDNAN_clean_linker_2, # of connection points: 2
#     Edge 37, Type (0, 0), BuildingBlock: XUDNAN_clean_linker_2, # of connection points: 2
#     Edge 38, Type (0, 0), BuildingBlock: XUDNAN_clean_linker_2, # of connection points: 2
#     Edge 39, Type (0, 0), BuildingBlock: XUDNAN_clean_linker_2, # of connection points: 2
#     Edge 40, Type (0, 0), BuildingBlock: XUDNAN_clean_linker_2, # of connection points: 2
#     Edge 41, Type (0, 0), BuildingBlock: XUDNAN_clean_linker_2, # of connection points: 2
#     Edge 42, Type (0, 0), BuildingBlock: XUDNAN_clean_linker_2, # of connection points: 2
#     Edge 43, Type (0, 0), BuildingBlock: XUDNAN_clean_linker_2, # of connection points: 2
#     Edge 44, Type (0, 0), BuildingBlock: XUDNAN_clean_linker_2, # of connection points: 2
#     Edge 45, Type (0, 0), BuildingBlock: XUDNAN_clean_linker_2, # of connection points: 2
#     Edge 46, Type (0, 0), BuildingBlock: XUDNAN_clean_linker_2, # of connection points: 2
#     Edge 47, Type (0, 0), BuildingBlock: XUDNAN_clean_linker_2, # of connection points: 2
#     Edge 48, Type (0, 0), BuildingBlock: XUDNAN_clean_linker_2, # of connection points: 2
#     Edge 49, Type (0, 0), BuildingBlock: XUDNAN_clean_linker_2, # of connection points: 2
#     Edge 50, Type (0, 0), BuildingBlock: XUDNAN_clean_linker_2, # of connection points: 2
#     Edge 51, Type (0, 0), BuildingBlock: XUDNAN_clean_linker_2, # of connection points: 2
#     Edge 52, Type (0, 0), BuildingBlock: XUDNAN_clean_linker_2, # of connection points: 2
#     Edge 53, Type (0, 0), BuildingBlock: XUDNAN_clean_linker_2, # of connection points: 2
#     Edge 54, Type (0, 0), BuildingBlock: XUDNAN_clean_linker_2, # of connection points: 2
#     Edge 55, Type (0, 0), BuildingBlock: XUDNAN_clean_linker_2, # of connection points: 2
#     Edge 56, Type (0, 0), BuildingBlock: XUDNAN_clean_linker_2, # of connection points: 2
#     Edge 57, Type (0, 0), BuildingBlock: XUDNAN_clean_linker_2, # of connection points: 2
#     Edge 58, Type (0, 0), BuildingBlock: XUDNAN_clean_linker_2, # of connection points: 2
#     Edge 59, Type (0, 0), BuildingBlock: XUDNAN_clean_linker_2, # of connection points: 2
#     Edge 60, Type (0, 0), BuildingBlock: XUDNAN_clean_linker_2, # of connection points: 2
#     Edge 61, Type (0, 0), BuildingBlock: XUDNAN_clean_linker_2, # of connection points: 2
#     Edge 62, Type (0, 0), BuildingBlock: XUDNAN_clean_linker_2, # of connection points: 2
#     Edge 63, Type (0, 0), BuildingBlock: XUDNAN_clean_linker_2, # of connection points: 2
#     Edge 64, Type (0, 0), BuildingBlock: XUDNAN_clean_linker_2, # of connection points: 2
#     Edge 65, Type (0, 0), BuildingBlock: XUDNAN_clean_linker_2, # of connection points: 2
#     Edge 66, Type (0, 0), BuildingBlock: XUDNAN_clean_linker_2, # of connection points: 2
#     Edge 67, Type (0, 0), BuildingBlock: XUDNAN_clean_linker_2, # of connection points: 2
#     Edge 68, Type (0, 0), BuildingBlock: XUDNAN_clean_linker_2, # of connection points: 2
#     Edge 69, Type (0, 0), BuildingBlock: XUDNAN_clean_linker_2, # of connection points: 2
#     Edge 70, Type (0, 0), BuildingBlock: XUDNAN_clean_linker_2, # of connection points: 2
#     Edge 71, Type (0, 0), BuildingBlock: XUDNAN_clean_linker_2, # of connection points: 2
#     Edge 72, Type (0, 0), BuildingBlock: XUDNAN_clean_linker_2, # of connection points: 2
#     Edge 73, Type (0, 0), BuildingBlock: XUDNAN_clean_linker_2, # of connection points: 2
#     Edge 74, Type (0, 0), BuildingBlock: XUDNAN_clean_linker_2, # of connection points: 2
#     Edge 75, Type (0, 0), BuildingBlock: XUDNAN_clean_linker_2, # of connection points: 2
#     Edge 76, Type (0, 0), BuildingBlock: XUDNAN_clean_linker_2, # of connection points: 2
#     Edge 77, Type (0, 0), BuildingBlock: XUDNAN_clean_linker_2, # of connection points: 2
#     Edge 78, Type (0, 0), BuildingBlock: XUDNAN_clean_linker_2, # of connection points: 2
#     Edge 79, Type (0, 0), BuildingBlock: XUDNAN_clean_linker_2, # of connection points: 2
#     Edge 80, Type (0, 0), BuildingBlock: XUDNAN_clean_linker_2, # of connection points: 2
#     Edge 81, Type (0, 0), BuildingBlock: XUDNAN_clean_linker_2, # of connection points: 2
#     Edge 82, Type (0, 0), BuildingBlock: XUDNAN_clean_linker_2, # of connection points: 2
#     Edge 83, Type (0, 0), BuildingBlock: XUDNAN_clean_linker_2, # of connection points: 2
#     Edge 84, Type (0, 0), BuildingBlock: XUDNAN_clean_linker_2, # of connection points: 2
#     Edge 85, Type (0, 0), BuildingBlock: XUDNAN_clean_linker_2, # of connection points: 2
#     Edge 86, Type (0, 0), BuildingBlock: XUDNAN_clean_linker_2, # of connection points: 2
#     Edge 87, Type (0, 0), BuildingBlock: XUDNAN_clean_linker_2, # of connection points: 2
#     Edge 88, Type (0, 0), BuildingBlock: XUDNAN_clean_linker_2, # of connection points: 2
#     Edge 89, Type (0, 0), BuildingBlock: XUDNAN_clean_linker_2, # of connection points: 2
#     Edge 90, Type (0, 0), BuildingBlock: XUDNAN_clean_linker_2, # of connection points: 2
#     Edge 91, Type (0, 0), BuildingBlock: XUDNAN_clean_linker_2, # of connection points: 2
#     Edge 92, Type (0, 0), BuildingBlock: XUDNAN_clean_linker_2, # of connection points: 2
#     Edge 93, Type (0, 0), BuildingBlock: XUDNAN_clean_linker_2, # of connection points: 2
#     Edge 94, Type (0, 0), BuildingBlock: XUDNAN_clean_linker_2, # of connection points: 2
#     Edge 95, Type (0, 0), BuildingBlock: XUDNAN_clean_linker_2, # of connection points: 2
# Relax obj value: 0.090
# Max RMSD: 0.107
# Mean RMSD: 0.107
data_MOF--net-umr--node1-CEKHIL_clean_sbu_0--edge1-XUDNAN_clean_linker_2
_symmetry_space_group_name_H-M    P1
_symmetry_Int_Tables_number       1
_symmetry_cell_setting            triclinic
loop_
_symmetry_equiv_pos_as_xyz
'x, y, z'
_cell_length_a     83.073037
_cell_length_b     83.077133
_cell_length_c     26.246678
_cell_angle_alpha  89.969574
_cell_angle_beta   90.036166
_cell_angle_gamma 90.011283
loop_
_atom_site_label
_atom_site_type_symbol
_atom_site_fract_x
_atom_site_fract_y
_atom_site_fract_z
_atom_type_partial_charge
Co0 Co 0.16202 0.28909 0.03567 0.0
O1 O 0.14038 0.29612 0.05223 0.0
O2 O 0.16275 0.30768 0.07954 0.0
C3 C 0.15794 0.28606 0.95087 0.0
O4 O 0.18626 0.28669 0.02554 0.0
Co5 Co 0.1701 0.25579 0.98816 0.0
O6 O 0.19185 0.265 0.97772 0.0
C7 C 0.16188 0.25816 0.09793 0.0
C8 C 0.14713 0.30778 0.07743 0.0
C9 C 0.1962 0.27783 0.0005 0.0
O10 O 0.16221 0.2737 0.09602 0.0
O11 O 0.1634 0.24926 0.0584 0.0
O12 O 0.16065 0.30022 0.97006 0.0
O13 O 0.15647 0.27456 0.98354 0.0
Co14 Co 0.96284 0.90943 0.29853 0.0
O15 O 0.95659 0.88762 0.31612 0.0
O16 O 0.94065 0.90889 0.32046 0.0
C17 C 0.97521 0.90308 0.22417 0.0
O18 O 0.96416 0.93351 0.28232 0.0
Co19 Co 0.99873 0.91978 0.28337 0.0
O20 O 0.98943 0.94059 0.26124 0.0
C21 C 0.98526 0.91615 0.38747 0.0
C22 C 0.94238 0.89342 0.32556 0.0
C23 C 0.9746 0.94398 0.26749 0.0
O24 O 0.97089 0.9135 0.37056 0.0
O25 O 0.99765 0.9177 0.35899 0.0
O26 O 0.95965 0.90473 0.22569 0.0
O27 O 0.98241 0.90414 0.26739 0.0
Co28 Co 0.34858 0.715 0.53564 0.0
O29 O 0.37032 0.71299 0.5589 0.0
O30 O 0.35221 0.69375 0.56667 0.0
C31 C 0.35583 0.72522 0.45922 0.0
O32 O 0.32475 0.71329 0.51394 0.0
Co33 Co 0.33589 0.74924 0.50482 0.0
O34 O 0.3183 0.73649 0.4744 0.0
C35 C 0.3375 0.73952 0.61384 0.0
C36 C 0.36703 0.69849 0.57338 0.0
C37 C 0.31486 0.72217 0.48809 0.0
O38 O 0.34209 0.72506 0.60305 0.0
O39 O 0.33551 0.75063 0.5806 0.0
O40 O 0.3554 0.70972 0.46571 0.0
O41 O 0.35275 0.73368 0.49889 0.0
Co42 Co 0.54358 0.09574 0.78967 0.0
O43 O 0.55166 0.11745 0.7987 0.0
O44 O 0.56255 0.09562 0.83234 0.0
C45 C 0.54013 0.09712 0.7043 0.0
O46 O 0.53983 0.07141 0.78694 0.0
Co47 Co 0.50933 0.08841 0.74797 0.0
O48 O 0.51711 0.06589 0.74374 0.0
C49 C 0.51335 0.10013 0.85367 0.0
C50 C 0.56325 0.11108 0.8252 0.0
C51 C 0.53002 0.0614 0.76583 0.0
O52 O 0.52876 0.09826 0.85081 0.0
O53 O 0.50394 0.09822 0.81548 0.0
O54 O 0.55427 0.09436 0.72358 0.0
O55 O 0.52896 0.1004 0.73685 0.0
Co56 Co 0.16249 0.70784 0.43415 0.0
O57 O 0.14043 0.7002 0.42819 0.0
O58 O 0.1621 0.68591 0.40985 0.0
C59 C 0.15973 0.71949 0.51175 0.0
O60 O 0.18703 0.71041 0.43756 0.0
Co61 Co 0.17193 0.744 0.44549 0.0
O62 O 0.19406 0.73588 0.45618 0.0
C63 C 0.15816 0.73163 0.34942 0.0
C64 C 0.14651 0.68661 0.41288 0.0
C65 C 0.19768 0.72119 0.44827 0.0
O66 O 0.16123 0.71692 0.36221 0.0
O67 O 0.1599 0.74357 0.37967 0.0
O68 O 0.16215 0.70403 0.5085 0.0
O69 O 0.1581 0.72684 0.46903 0.0
Co70 Co 0.5471 0.91076 0.69643 0.0
O71 O 0.55537 0.88986 0.67797 0.0
O72 O 0.56896 0.91266 0.67144 0.0
C73 C 0.53648 0.90297 0.77111 0.0
O74 O 0.54317 0.93448 0.71362 0.0
Co75 Co 0.51051 0.91701 0.7152 0.0
O76 O 0.51763 0.93846 0.73915 0.0
C77 C 0.52305 0.91269 0.61051 0.0
C78 C 0.56871 0.89709 0.66619 0.0
C79 C 0.53189 0.94355 0.73145 0.0
O80 O 0.53776 0.91357 0.62601 0.0
O81 O 0.51095 0.9123 0.64067 0.0
O82 O 0.55171 0.90654 0.76842 0.0
O83 O 0.52867 0.90324 0.72889 0.0
Co84 Co 0.34924 0.29024 0.96895 0.0
O85 O 0.37148 0.29405 0.9545 0.0
O86 O 0.35204 0.31125 0.93628 0.0
C87 C 0.35335 0.28141 0.04893 0.0
O88 O 0.32479 0.29005 0.97987 0.0
Co89 Co 0.33873 0.25477 0.99261 0.0
O90 O 0.31769 0.2651 0.00565 0.0
C91 C 0.34576 0.26454 0.88712 0.0
C92 C 0.36736 0.30785 0.93571 0.0
C93 C 0.31422 0.27966 0.99472 0.0
O94 O 0.34656 0.27939 0.90093 0.0
O95 O 0.34427 0.25285 0.91858 0.0
O96 O 0.35262 0.29677 0.03977 0.0
O97 O 0.35301 0.27221 0.00956 0.0
Co98 Co 0.9632 0.09579 0.20056 0.0
O99 O 0.96059 0.11772 0.18015 0.0
O100 O 0.94153 0.09945 0.17232 0.0
C101 C 0.9744 0.10229 0.2765 0.0
O102 O 0.96216 0.07171 0.21936 0.0
Co103 Co 0.99811 0.08338 0.22543 0.0
O104 O 0.98594 0.0653 0.25531 0.0
C105 C 0.98663 0.08547 0.11821 0.0
C106 C 0.946 0.1144 0.16675 0.0
C107 C 0.97157 0.06169 0.24262 0.0
O108 O 0.9724 0.09013 0.13132 0.0
O109 O 0.99823 0.08319 0.14953 0.0
O110 O 0.95883 0.10178 0.27201 0.0
O111 O 0.9823 0.09979 0.23533 0.0
Co112 Co 0.84144 0.71573 0.95377 0.0
O113 O 0.86296 0.70879 0.93582 0.0
O114 O 0.84053 0.69694 0.91043 0.0
C115 C 0.84646 0.71888 0.03791 0.0
O116 O 0.81719 0.71821 0.96635 0.0
Co117 Co 0.83412 0.74924 0.00105 0.0
O118 O 0.8124 0.74028 0.01347 0.0
C119 C 0.84168 0.74653 0.89095 0.0
C120 C 0.85617 0.69695 0.91165 0.0
C121 C 0.80765 0.72738 0.992 0.0
O122 O 0.84088 0.731 0.89305 0.0
O123 O 0.84068 0.75549 0.9305 0.0
O124 O 0.84342 0.7047 0.01936 0.0
O125 O 0.84755 0.73033 0.00494 0.0
Co126 Co 0.04397 0.09813 0.70596 0.0
O127 O 0.04758 0.12088 0.70339 0.0
O128 O 0.06503 0.10289 0.67562 0.0
C129 C 0.03497 0.09743 0.78647 0.0
O130 O 0.04401 0.07334 0.70546 0.0
Co131 Co 0.00858 0.08636 0.72241 0.0
O132 O 0.01933 0.06529 0.73112 0.0
C133 C 0.01836 0.09895 0.62248 0.0
C134 C 0.06139 0.118 0.68258 0.0
C135 C 0.03389 0.06227 0.71892 0.0
O136 O 0.0332 0.09911 0.63691 0.0
O137 O 0.00667 0.09562 0.65238 0.0
O138 O 0.05036 0.09734 0.77759 0.0
O139 O 0.02585 0.09967 0.74748 0.0
Co140 Co 0.66101 0.29237 0.44621 0.0
O141 O 0.63815 0.29554 0.4462 0.0
O142 O 0.65562 0.31311 0.4156 0.0
C143 C 0.66268 0.28373 0.52733 0.0
O144 O 0.68563 0.29348 0.44224 0.0
Co145 Co 0.67545 0.25827 0.46339 0.0
O146 O 0.69507 0.27095 0.47928 0.0
C147 C 0.66103 0.26645 0.36389 0.0
C148 C 0.64067 0.3094 0.42489 0.0
C149 C 0.69713 0.28517 0.46224 0.0
O150 O 0.65952 0.28125 0.37794 0.0
O151 O 0.66616 0.25532 0.39349 0.0
O152 O 0.66234 0.29906 0.51742 0.0
O153 O 0.66065 0.27429 0.4889 0.0
Co154 Co 0.46347 0.91415 0.19205 0.0
O155 O 0.46159 0.89127 0.18435 0.0
O156 O 0.44185 0.90843 0.16918 0.0
C157 C 0.47624 0.91299 0.26783 0.0
O158 O 0.46094 0.93867 0.19772 0.0
Co159 Co 0.49766 0.93019 0.20169 0.0
O160 O 0.4851 0.94982 0.21557 0.0
C161 C 0.48595 0.91783 0.10259 0.0
C162 C 0.44679 0.89356 0.17041 0.0
C163 C 0.46996 0.95085 0.20857 0.0
O164 O 0.47152 0.91587 0.11965 0.0
O165 O 0.4979 0.92191 0.13056 0.0
O166 O 0.4606 0.91204 0.2663 0.0
O167 O 0.48329 0.91356 0.22447 0.0
Co168 Co 0.84621 0.29357 0.54436 0.0
O169 O 0.86782 0.29578 0.56974 0.0
O170 O 0.84912 0.31458 0.57623 0.0
C171 C 0.8538 0.2835 0.46791 0.0
O172 O 0.8227 0.29592 0.52169 0.0
Co173 Co 0.83217 0.26041 0.50965 0.0
O174 O 0.81456 0.27355 0.48065 0.0
C175 C 0.83438 0.26863 0.62006 0.0
C176 C 0.86392 0.31016 0.58448 0.0
C177 C 0.81237 0.28802 0.49491 0.0
O178 O 0.83923 0.28313 0.61089 0.0
O179 O 0.83209 0.25804 0.58535 0.0
O180 O 0.85355 0.29898 0.47499 0.0
O181 O 0.8502 0.27489 0.50693 0.0
Co182 Co 0.46936 0.09981 0.28932 0.0
O183 O 0.46712 0.1218 0.31156 0.0
O184 O 0.45065 0.102 0.33308 0.0
C185 C 0.47358 0.10558 0.20601 0.0
O186 O 0.46718 0.07585 0.27249 0.0
Co187 Co 0.50102 0.08714 0.24011 0.0
O188 O 0.48727 0.06878 0.21977 0.0
C189 C 0.49934 0.09227 0.35189 0.0
C190 C 0.45423 0.11721 0.33546 0.0
C191 C 0.474 0.06573 0.24215 0.0
O192 O 0.48406 0.09505 0.34945 0.0
O193 O 0.50811 0.0901 0.31237 0.0
O194 O 0.45906 0.10517 0.2243 0.0
O195 O 0.48494 0.10384 0.23904 0.0
Co196 Co 0.65446 0.71519 0.04001 0.0
O197 O 0.63191 0.71028 0.039 0.0
O198 O 0.65067 0.69316 0.06372 0.0
C199 C 0.65491 0.7269 0.96239 0.0
O200 O 0.67921 0.71627 0.04282 0.0
Co201 Co 0.66505 0.75142 0.03337 0.0
O202 O 0.68651 0.7417 0.02315 0.0
C203 C 0.64912 0.73872 0.125 0.0
C204 C 0.63547 0.69603 0.05551 0.0
C205 C 0.68999 0.72701 0.0321 0.0
O206 O 0.65217 0.7241 0.11161 0.0
O207 O 0.65157 0.7509 0.0962 0.0
O208 O 0.65583 0.7113 0.96594 0.0
O209 O 0.65244 0.73432 0.00448 0.0
Co210 Co 0.0468 0.91111 0.79592 0.0
O211 O 0.05439 0.88919 0.80439 0.0
O212 O 0.06816 0.91099 0.82526 0.0
C213 C 0.03746 0.90849 0.71571 0.0
O214 O 0.04389 0.93557 0.79044 0.0
Co215 Co 0.01081 0.91932 0.77738 0.0
O216 O 0.01933 0.94084 0.75872 0.0
C217 C 0.02159 0.90995 0.88037 0.0
C218 C 0.06761 0.89538 0.82222 0.0
C219 C 0.03344 0.94537 0.77142 0.0
O220 O 0.03642 0.91042 0.8658 0.0
O221 O 0.00972 0.91195 0.84989 0.0
O222 O 0.0527 0.91092 0.72388 0.0
O223 O 0.02877 0.9062 0.75573 0.0
Co224 Co 0.66366 0.79572 0.53306 0.0
O225 O 0.64267 0.80358 0.5525 0.0
O226 O 0.66539 0.81716 0.56142 0.0
C227 C 0.65612 0.78637 0.45643 0.0
O228 O 0.68743 0.79214 0.51602 0.0
Co229 Co 0.66998 0.75936 0.51163 0.0
O230 O 0.69166 0.76661 0.49074 0.0
C231 C 0.66591 0.77082 0.61731 0.0
C232 C 0.64981 0.81678 0.56631 0.0
C233 C 0.69666 0.78086 0.49912 0.0
O234 O 0.66647 0.78557 0.60221 0.0
O235 O 0.66576 0.75881 0.58675 0.0
O236 O 0.6593 0.80157 0.46237 0.0
O237 O 0.65639 0.77767 0.49705 0.0
Co238 Co 0.45843 0.41333 0.7953 0.0
O239 O 0.45735 0.39059 0.80671 0.0
O240 O 0.43704 0.40724 0.81965 0.0
C241 C 0.47104 0.4111 0.71982 0.0
O242 O 0.45518 0.43764 0.78576 0.0
Co243 Co 0.49202 0.43019 0.78235 0.0
O244 O 0.47886 0.44909 0.76394 0.0
C245 C 0.48124 0.41816 0.8829 0.0
C246 C 0.44255 0.39256 0.82084 0.0
C247 C 0.46374 0.4498 0.77144 0.0
O248 O 0.46667 0.41633 0.86693 0.0
O249 O 0.49297 0.42205 0.85381 0.0
O250 O 0.45541 0.41001 0.72166 0.0
O251 O 0.47819 0.41268 0.7628 0.0
Co252 Co 0.84584 0.21379 0.04075 0.0
O253 O 0.86845 0.20923 0.04144 0.0
O254 O 0.84999 0.19298 0.07341 0.0
C255 C 0.84442 0.22184 0.95892 0.0
O256 O 0.82116 0.21456 0.04438 0.0
Co257 Co 0.83486 0.2492 0.0218 0.0
O258 O 0.81335 0.23905 0.01665 0.0
C259 C 0.84812 0.24026 0.12168 0.0
C260 C 0.86516 0.19585 0.06461 0.0
C261 C 0.81016 0.22474 0.03115 0.0
O262 O 0.84803 0.22531 0.10835 0.0
O263 O 0.8445 0.25174 0.09124 0.0
O264 O 0.84399 0.2066 0.97013 0.0
O265 O 0.84744 0.23139 -0.0036 0.0
Co266 Co 0.0421 0.58996 0.30848 0.0
O267 O 0.04974 0.61165 0.32211 0.0
O268 O 0.06435 0.58958 0.32998 0.0
C269 C 0.02962 0.59588 0.23433 0.0
O270 O 0.03942 0.5657 0.29623 0.0
Co271 Co 0.00584 0.58074 0.29606 0.0
O272 O 0.01401 0.55948 0.2744 0.0
C273 C 0.01949 0.5878 0.39818 0.0
C274 C 0.06356 0.60517 0.33295 0.0
C275 C 0.02865 0.55553 0.28143 0.0
O276 O 0.03405 0.58807 0.38099 0.0
O277 O 0.00706 0.58636 0.36974 0.0
O278 O 0.04508 0.59331 0.23488 0.0
O279 O 0.02266 0.59569 0.27796 0.0
Co280 Co 0.66051 0.21193 0.9454 0.0
O281 O 0.63965 0.20515 0.92038 0.0
O282 O 0.66179 0.19043 0.91737 0.0
C283 C 0.65131 0.22152 0.02063 0.0
O284 O 0.68393 0.21405 0.96901 0.0
Co285 Co 0.66833 0.2475 0.97504 0.0
O286 O 0.68816 0.23824 0.00486 0.0
C287 C 0.66896 0.23725 0.86631 0.0
C288 C 0.64638 0.19149 0.90922 0.0
C289 C 0.69291 0.22412 0.99332 0.0
O290 O 0.66599 0.22238 0.87743 0.0
O291 O 0.66929 0.24861 0.89921 0.0
O292 O 0.65415 0.20623 0.01527 0.0
O293 O 0.65313 0.23012 0.98033 0.0
Co294 Co 0.046 0.40469 0.20005 0.0
O295 O 0.05368 0.38336 0.18381 0.0
O296 O 0.06805 0.40566 0.17632 0.0
C297 C 0.03477 0.39785 0.27479 0.0
O298 O 0.04265 0.42871 0.21487 0.0
Co299 Co 0.0095 0.4121 0.21684 0.0
O300 O 0.01733 0.43322 0.24145 0.0
C301 C 0.02244 0.40676 0.11292 0.0
C302 C 0.06733 0.39006 0.17241 0.0
C303 C 0.03164 0.43806 0.23291 0.0
O304 O 0.03712 0.40718 0.12892 0.0
O305 O 0.01022 0.407 0.14261 0.0
O306 O 0.0501 0.40098 0.27264 0.0
O307 O 0.0272 0.39796 0.23215 0.0
Co308 Co 0.84917 0.7894 0.45315 0.0
O309 O 0.87089 0.7969 0.43929 0.0
O310 O 0.84865 0.80799 0.40917 0.0
C311 C 0.85205 0.78641 0.53837 0.0
O312 O 0.82488 0.78646 0.46031 0.0
Co313 Co 0.84129 0.75577 0.49902 0.0
O314 O 0.81903 0.76415 0.50508 0.0
C315 C 0.8507 0.75859 0.39054 0.0
C316 C 0.86422 0.80843 0.4132 0.0
C317 C 0.81477 0.77709 0.48275 0.0
O318 O 0.84995 0.7741 0.39278 0.0
O319 O 0.84906 0.74952 0.42966 0.0
O320 O 0.84944 0.80053 0.51872 0.0
O321 O 0.85428 0.77494 0.50603 0.0
Co322 Co 0.46559 0.5996 0.70395 0.0
O323 O 0.46392 0.62231 0.69098 0.0
O324 O 0.44694 0.60418 0.66104 0.0
C325 C 0.46964 0.60227 0.78899 0.0
O326 O 0.46289 0.57518 0.71172 0.0
Co327 Co 0.49683 0.58463 0.74971 0.0
O328 O 0.48227 0.56638 0.76472 0.0
C329 C 0.49584 0.59425 0.64065 0.0
C330 C 0.4508 0.61928 0.66589 0.0
C331 C 0.46916 0.56422 0.74042 0.0
O332 O 0.48051 0.5969 0.6429 0.0
O333 O 0.5043 0.59054 0.67974 0.0
O334 O 0.45517 0.60265 0.77024 0.0
O335 O 0.48105 0.60146 0.75589 0.0
Co336 Co 0.34785 0.20786 0.46446 0.0
O337 O 0.37089 0.20624 0.46467 0.0
O338 O 0.35462 0.18659 0.44099 0.0
C339 C 0.34618 0.2196 0.54175 0.0
O340 O 0.32322 0.20525 0.462 0.0
Co341 Co 0.33185 0.24204 0.47067 0.0
O342 O 0.31171 0.22953 0.47568 0.0
C343 C 0.35027 0.23191 0.38057 0.0
C344 C 0.3693 0.19165 0.44808 0.0
C345 C 0.3108 0.21437 0.46885 0.0
O346 O 0.34881 0.21696 0.3929 0.0
O347 O 0.34607 0.24353 0.40961 0.0
O348 O 0.34737 0.20401 0.53865 0.0
O349 O 0.34716 0.22718 0.49929 0.0
Co350 Co 0.54128 0.59567 0.20372 0.0
O351 O 0.54508 0.61823 0.19129 0.0
O352 O 0.56001 0.59847 0.1602 0.0
C353 C 0.53755 0.5978 0.28896 0.0
O354 O 0.54156 0.57106 0.20958 0.0
Co355 Co 0.50837 0.58389 0.24693 0.0
O356 O 0.51896 0.56256 0.24875 0.0
C357 C 0.51063 0.59529 0.14052 0.0
C358 C 0.55739 0.61384 0.16426 0.0
C359 C 0.53267 0.55987 0.22877 0.0
O360 O 0.52616 0.59496 0.14272 0.0
O361 O 0.50166 0.59286 0.17942 0.0
O362 O 0.552 0.5971 0.27009 0.0
O363 O 0.52611 0.59861 0.2559 0.0
Co364 Co 0.16297 0.79151 0.93947 0.0
O365 O 0.14141 0.79857 0.92098 0.0
O366 O 0.16359 0.81291 0.91108 0.0
C367 C 0.15658 0.78175 0.01695 0.0
O368 O 0.187 0.7896 0.95569 0.0
Co369 Co 0.17233 0.75599 0.96171 0.0
O370 O 0.19279 0.76519 0.98732 0.0
C371 C 0.16652 0.76647 0.85561 0.0
C372 C 0.14803 0.81208 0.90721 0.0
C373 C 0.19682 0.7796 0.97671 0.0
O374 O 0.16589 0.78131 0.87002 0.0
O375 O 0.16781 0.75468 0.8868 0.0
O376 O 0.1587 0.79711 0.0105 0.0
O377 O 0.15712 0.77302 0.97639 0.0
Co378 Co 0.96254 0.41216 0.69594 0.0
O379 O 0.95931 0.38948 0.68807 0.0
O380 O 0.94028 0.40753 0.67529 0.0
C381 C 0.97571 0.40971 0.77069 0.0
O382 O 0.9619 0.43691 0.70315 0.0
Co383 Co 0.99802 0.4253 0.70352 0.0
O384 O 0.9868 0.44486 0.7265 0.0
C385 C 0.98428 0.41543 0.60407 0.0
C386 C 0.94444 0.3924 0.6768 0.0
C387 C 0.97198 0.44782 0.71818 0.0
O388 O 0.97002 0.4137 0.6228 0.0
O389 O 0.99674 0.41867 0.63083 0.0
O390 O 0.96006 0.40993 0.77018 0.0
O391 O 0.9825 0.40994 0.72686 0.0
Co392 Co 0.34901 0.79415 0.03208 0.0
O393 O 0.3716 0.79873 0.03529 0.0
O394 O 0.35267 0.81484 0.06541 0.0
C395 C 0.34831 0.78612 0.95054 0.0
O396 O 0.32434 0.7933 0.03333 0.0
Co397 Co 0.33832 0.75866 0.01241 0.0
O398 O 0.31666 0.76852 0.00774 0.0
C399 C 0.351 0.76772 0.11269 0.0
C400 C 0.36794 0.81196 0.0587 0.0
C401 C 0.31343 0.78294 0.02085 0.0
O402 O 0.35057 0.78266 0.09959 0.0
O403 O 0.34786 0.75619 0.08198 0.0
O404 O 0.34781 0.80139 0.96144 0.0
O405 O 0.35105 0.77657 0.98824 0.0
Co406 Co 0.95791 0.5986 0.80534 0.0
O407 O 0.95062 0.62022 0.82036 0.0
O408 O 0.93579 0.59825 0.82827 0.0
C409 C 0.9696 0.60477 0.73038 0.0
O410 O 0.96041 0.57444 0.79141 0.0
Co411 Co 0.99409 0.58977 0.78913 0.0
O412 O 0.98537 0.56919 0.76308 0.0
C413 C 0.98138 0.59583 0.89307 0.0
C414 C 0.93675 0.61384 0.83119 0.0
C415 C 0.97095 0.56481 0.77223 0.0
O416 O 0.96666 0.5962 0.87708 0.0
O417 O 0.99354 0.59479 0.86334 0.0
O418 O 0.95417 0.60215 0.73227 0.0
O419 O 0.977 0.60457 0.77331 0.0
Co420 Co 0.16035 0.21446 0.53635 0.0
O421 O 0.13773 0.21215 0.54995 0.0
O422 O 0.15648 0.19591 0.58037 0.0
C423 C 0.1576 0.21807 0.45125 0.0
O424 O 0.18488 0.21265 0.52814 0.0
Co425 Co 0.1738 0.24634 0.4905 0.0
O426 O 0.19286 0.23275 0.47652 0.0
C427 C 0.16384 0.24515 0.59885 0.0
C428 C 0.14127 0.19944 0.57639 0.0
C429 C 0.1956 0.21959 0.50002 0.0
O430 O 0.16248 0.22966 0.59686 0.0
O431 O 0.16694 0.25379 0.55964 0.0
O432 O 0.15766 0.20367 0.47056 0.0
O433 O 0.15787 0.22963 0.48394 0.0
Co434 Co 0.54179 0.40856 0.29306 0.0
O435 O 0.54486 0.38648 0.31132 0.0
O436 O 0.56358 0.40518 0.31966 0.0
C437 C 0.53 0.40297 0.21801 0.0
O438 O 0.54255 0.43276 0.27623 0.0
Co439 Co 0.50666 0.42112 0.27415 0.0
O440 O 0.51824 0.43977 0.24528 0.0
C441 C 0.51833 0.41468 0.37877 0.0
C442 C 0.55935 0.39016 0.32514 0.0
C443 C 0.53294 0.443 0.25494 0.0
O444 O 0.53297 0.41299 0.36325 0.0
O445 O 0.50633 0.41656 0.34874 0.0
O446 O 0.54563 0.40348 0.22087 0.0
O447 O 0.52243 0.40486 0.26012 0.0
H448 H 0.28946 0.25957 0.97484 0.0
H449 H 0.29984 0.30913 0.01492 0.0
H450 H 0.27041 0.31473 0.019 0.0
H451 H 0.25519 0.26807 0.8944 0.0
H452 H 0.24475 0.25005 0.91378 0.0
H453 H 0.26642 0.25048 0.91331 0.0
H454 H 0.26684 0.24198 0.00843 0.0
H455 H 0.24519 0.24156 0.00924 0.0
H456 H 0.25596 0.25382 0.05451 0.0
H457 H 0.23922 0.31378 0.02412 0.0
H458 H 0.21013 0.30708 0.02392 0.0
H459 H 0.22153 0.2584 0.97626 0.0
C460 C 0.28561 0.27165 0.98457 0.0
C461 C 0.29691 0.28388 0.99528 0.0
C462 C 0.29135 0.29958 0.00675 0.0
C463 C 0.27469 0.30282 0.00922 0.0
C464 C 0.26387 0.29031 -0.00086 0.0
C465 C 0.26922 0.2751 0.98636 0.0
C466 C 0.25545 0.26362 0.97683 0.0
C467 C 0.25545 0.25771 0.92128 0.0
C468 C 0.25589 0.24942 0.01451 0.0
C469 C 0.24137 0.27458 0.98716 0.0
C470 C 0.24634 0.28993 0.00014 0.0
C471 C 0.23526 0.30184 0.01343 0.0
C472 C 0.21876 0.29791 0.01337 0.0
C473 C 0.21351 0.28224 -0.00028 0.0
C474 C 0.22506 0.27055 0.98623 0.0
H475 H 0.99337 0.97011 0.28381 0.0
H476 H 0.94486 0.95656 0.24072 0.0
H477 H 0.93759 0.98552 0.23296 0.0
H478 H 0.98209 0.00397 0.361 0.0
H479 H 0.99956 0.0155 0.34283 0.0
H480 H 1.00052 0.99385 0.34406 0.0
H481 H 0.00977 0.99359 0.24961 0.0
H482 H 0.00897 0.01522 0.24827 0.0
H483 H 0.99773 0.0037 0.20222 0.0
H484 H 0.9368 0.01708 0.22499 0.0
H485 H 0.9423 0.04651 0.22163 0.0
H486 H 0.99066 0.03754 0.27765 0.0
C487 C 0.98122 0.97317 0.27239 0.0
C488 C 0.96975 0.96109 0.26209 0.0
C489 C 0.95388 0.96565 0.24847 0.0
C490 C 0.94966 0.98206 0.24403 0.0
C491 C 0.96137 0.9937 0.25445 0.0
C492 C 0.97677 0.98931 0.26893 0.0
C493 C 0.98725 0.00377 0.27901 0.0
C494 C 0.99267 0.0043 0.33505 0.0
C495 C 1.00178 0.00409 0.2426 0.0
C496 C 0.97552 0.01711 0.26717 0.0
C497 C 0.96064 0.01127 0.25272 0.0
C498 C 0.94837 0.02172 0.23699 0.0
C499 C 0.95157 0.03843 0.23533 0.0
C500 C 0.96686 0.04451 0.24979 0.0
C501 C 0.97873 0.03355 0.26684 0.0
H502 H 0.22344 0.74011 0.4264 0.0
H503 H 0.2109 0.69206 0.47694 0.0
H504 H 0.23995 0.68571 0.4878 0.0
H505 H 0.25944 0.72857 0.35532 0.0
H506 H 0.26991 0.74676 0.3727 0.0
H507 H 0.2483 0.74682 0.3669 0.0
H508 H 0.24583 0.75772 0.45921 0.0
H509 H 0.26738 0.7577 0.46524 0.0
H510 H 0.25526 0.74685 0.51066 0.0
H511 H 0.27114 0.68612 0.50112 0.0
H512 H 0.30019 0.69278 0.51038 0.0
H513 H 0.29091 0.73986 0.44474 0.0
C514 C 0.22677 0.72818 0.43934 0.0
C515 C 0.21493 0.71661 0.45109 0.0
C516 C 0.21981 0.7011 0.46752 0.0
C517 C 0.23628 0.69741 0.47389 0.0
C518 C 0.24768 0.70926 0.46261 0.0
C519 C 0.24303 0.72425 0.44491 0.0
C520 C 0.25732 0.73509 0.43604 0.0
C521 C 0.25883 0.73957 0.37937 0.0
C522 C 0.25639 0.75022 0.46981 0.0
C523 C 0.27081 0.72409 0.4526 0.0
C524 C 0.26519 0.70922 0.46802 0.0
C525 C 0.27564 0.69765 0.48826 0.0
C526 C 0.29215 0.70151 0.49335 0.0
C527 C 0.29801 0.71679 0.47797 0.0
C528 C 0.28708 0.72796 0.45645 0.0
H529 H 0.50906 0.03634 0.75275 0.0
H530 H 0.55947 0.04689 0.78039 0.0
H531 H 0.56568 0.01775 0.77658 0.0
H532 H 0.50757 0.99984 0.82856 0.0
H533 H 0.49382 0.98998 0.78556 0.0
H534 H 0.49353 0.01157 0.79159 0.0
H535 H 0.49775 0.01439 0.6941 0.0
H536 H 0.49811 0.99282 0.6878 0.0
H537 H 0.51474 0.00465 0.66455 0.0
H538 H 0.56638 0.98715 0.76367 0.0
H539 H 0.56119 0.95811 0.74916 0.0
H540 H 0.51015 0.96817 0.73449 0.0
C541 C 0.52141 0.03256 0.75824 0.0
C542 C 0.53379 0.04393 0.76667 0.0
C543 C 0.54977 0.03841 0.77406 0.0
C544 C 0.55342 0.02188 0.7718 0.0
C545 C 0.54092 0.01102 0.76284 0.0
C546 C 0.52521 0.01617 0.75681 0.0
C547 C 0.51391 1.00218 0.74775 0.0
C548 C 0.50148 1.00081 0.79095 0.0
C549 C 0.50564 0.0036 0.69544 0.0
C550 C 0.52569 0.98832 0.74893 0.0
C551 C 0.54124 0.99359 0.75736 0.0
C552 C 0.55421 0.9829 0.75764 0.0
C553 C 0.55116 0.96644 0.74921 0.0
C554 C 0.53525 0.96082 0.74118 0.0
C555 C 0.52242 0.972 0.74133 0.0
H556 H 0.71541 0.74759 0.03458 0.0
H557 H 0.70401 0.69677 0.02233 0.0
H558 H 0.7331 0.69078 0.01031 0.0
H559 H 0.74551 0.74844 0.93929 0.0
H560 H 0.75777 0.76295 0.97249 0.0
H561 H 0.73629 0.76281 0.98164 0.0
H562 H 0.74031 0.75981 0.07921 0.0
H563 H 0.76179 0.76007 0.07043 0.0
H564 H 0.75242 0.74351 0.10345 0.0
H565 H 0.76413 0.69114 0.99454 0.0
H566 H 0.79317 0.69749 0.98398 0.0
H567 H 0.78282 0.74803 0.00895 0.0
C568 C 0.71892 0.73513 0.02965 0.0
C569 C 0.70735 0.72265 0.02925 0.0
C570 C 0.71263 0.70654 0.023 0.0
C571 C 0.72912 0.70306 0.01588 0.0
C572 C 0.74014 0.71581 0.01548 0.0
C573 C 0.73514 0.7315 0.02274 0.0
C574 C 0.74903 0.74321 0.02053 0.0
C575 C 0.74702 0.75505 0.97584 0.0
C576 C 0.751 0.75217 0.07144 0.0
C577 C 0.76279 0.73173 0.01124 0.0
C578 C 0.75754 0.71597 0.0078 0.0
C579 C 0.7683 0.70344 -0.00238 0.0
C580 C 0.78476 0.70716 0.99145 0.0
C581 C 0.7903 0.72324 0.9961 0.0
C582 C 0.77905 0.73558 0.00589 0.0
H583 H 0.01397 0.96937 0.73547 0.0
H584 H 0.0626 0.96059 0.7893 0.0
H585 H 0.06915 0.9894 0.77553 0.0
H586 H 0.02409 0.99834 0.6378 0.0
H587 H 0.00634 0.01026 0.64947 0.0
H588 H 0.00601 0.9889 0.66128 0.0
H589 H 0.99698 0.99403 0.75449 0.0
H590 H 0.99718 0.01537 0.74285 0.0
H591 H 0.00885 0.00709 0.7945 0.0
H592 H 0.06976 0.02022 0.7574 0.0
H593 H 0.06369 0.04918 0.74238 0.0
H594 H 0.01474 0.03648 0.70163 0.0
C595 C 0.02606 0.97338 0.74424 0.0
C596 C 0.03775 0.96261 0.76354 0.0
C597 C 0.05339 0.96856 0.77454 0.0
C598 C 0.05725 0.98491 0.76663 0.0
C599 C 0.04536 0.99517 0.74756 0.0
C600 C 0.03007 0.98954 0.73671 0.0
C601 C 0.01913 1.00289 0.71863 0.0
C602 C 0.01357 0.99992 0.66352 0.0
C603 C 0.00469 0.00497 0.75478 0.0
C604 C 0.0305 0.01705 0.7217 0.0
C605 C 0.04566 0.01248 0.73783 0.0
C606 C 0.05793 0.02385 0.7445 0.0
C607 C 0.05443 0.04025 0.73561 0.0
C608 C 0.03876 0.04509 0.72087 0.0
C609 C 0.02685 0.03321 0.71298 0.0
H610 H 0.7195 0.27944 0.53514 0.0
H611 H 0.71215 0.30528 0.3936 0.0
H612 H 0.74115 0.31252 0.39214 0.0
H613 H 0.75096 0.30712 0.58827 0.0
H614 H 0.76161 0.29051 0.61688 0.0
H615 H 0.74003 0.28968 0.61009 0.0
H616 H 0.7426 0.26275 0.56092 0.0
H617 H 0.76411 0.26352 0.5674 0.0
H618 H 0.75517 0.26185 0.50501 0.0
H619 H 0.77192 0.31276 0.39964 0.0
H620 H 0.80075 0.30695 0.41749 0.0
H621 H 0.78718 0.28199 0.55557 0.0
C622 C 0.72392 0.28694 0.50441 0.0
C623 C 0.71365 0.29178 0.4644 0.0
C624 C 0.71983 0.30157 0.42483 0.0
C625 C 0.73628 0.30571 0.42373 0.0
C626 C 0.74622 0.30028 0.46312 0.0
C627 C 0.74014 0.29134 0.5032 0.0
C628 C 0.75332 0.28591 0.53906 0.0
C629 C 0.75136 0.29378 0.59169 0.0
C630 C 0.75383 0.26742 0.54328 0.0
C631 C 0.76792 0.29242 0.51166 0.0
C632 C 0.76367 0.30088 0.46823 0.0
C633 C 0.77533 0.30658 0.4343 0.0
C634 C 0.79165 0.30329 0.44467 0.0
C635 C 0.79603 0.29446 0.48856 0.0
C636 C 0.78406 0.28924 0.52269 0.0
H637 H 0.48059 0.97574 0.15329 0.0
H638 H 0.4453 0.96291 0.26743 0.0
H639 H 0.43918 0.99194 0.28068 0.0
H640 H 0.4972 0.00667 0.21618 0.0
H641 H 0.50083 0.01936 0.16164 0.0
H642 H 0.49974 0.99793 0.15384 0.0
H643 H 0.47709 1.00121 0.08664 0.0
H644 H 0.47825 0.02276 0.09369 0.0
H645 H 0.45929 0.01257 0.10239 0.0
H646 H 0.44089 0.02265 0.2914 0.0
H647 H 0.4494 0.0512 0.29639 0.0
H648 H 0.48333 0.04299 0.17352 0.0
C649 C 0.47112 0.97906 0.17965 0.0
C650 C 0.46325 0.96724 0.20896 0.0
C651 C 0.45119 0.97188 0.24397 0.0
C652 C 0.44772 0.98831 0.25177 0.0
C653 C 0.45625 0.99978 0.22355 0.0
C654 C 0.46749 0.99525 0.18743 0.0
C655 C 0.47631 0.00959 0.16567 0.0
C656 C 0.49459 0.0083 0.17493 0.0
C657 C 0.4725 0.01166 0.10872 0.0
C658 C 0.46891 0.02293 0.19686 0.0
C659 C 0.45719 0.01719 0.22957 0.0
C660 C 0.4498 0.02728 0.26514 0.0
C661 C 0.45473 0.04349 0.26776 0.0
C662 C 0.46706 0.04939 0.23538 0.0
C663 C 0.47384 0.03896 0.19875 0.0
H664 H 0.72096 0.75887 0.50091 0.0
H665 H 0.71186 0.81002 0.48395 0.0
H666 H 0.74122 0.81483 0.47554 0.0
H667 H 0.75582 0.76306 0.57833 0.0
H668 H 0.7659 0.74588 0.55114 0.0
H669 H 0.74425 0.74658 0.55271 0.0
H670 H 0.74327 0.74226 0.4549 0.0
H671 H 0.76492 0.74152 0.45302 0.0
H672 H 0.75423 0.75575 0.41375 0.0
H673 H 0.772 0.81363 0.46816 0.0
H674 H 0.80105 0.80687 0.46806 0.0
H675 H 0.78924 0.75671 0.49502 0.0
C676 C 0.72507 0.77109 0.49478 0.0
C677 C 0.71409 0.78406 0.49244 0.0
C678 C 0.72005 0.79989 0.48561 0.0
C679 C 0.73669 0.80272 0.48072 0.0
C680 C 0.74718 0.78961 0.48342 0.0
C681 C 0.74154 0.77413 0.49073 0.0
C682 C 0.75518 0.76215 0.49479 0.0
C683 C 0.75529 0.75394 0.54737 0.0
C684 C 0.75435 0.74969 0.45153 0.0
C685 C 0.76945 0.77324 0.48848 0.0
C686 C 0.76466 0.78902 0.48144 0.0
C687 C 0.77585 0.80132 0.47388 0.0
C688 C 0.79231 0.79736 0.47377 0.0
C689 C 0.79743 0.78128 0.48187 0.0
C690 C 0.78576 0.76914 0.48926 0.0
H691 H 0.47036 0.47445 0.83338 0.0
H692 H 0.44263 0.46161 0.70003 0.0
H693 H 0.43702 0.49057 0.68387 0.0
H694 H 0.44633 0.51147 0.87091 0.0
H695 H 0.4645 0.52166 0.89022 0.0
H696 H 0.4629 0.50012 0.89697 0.0
H697 H 0.48903 0.49669 0.84419 0.0
H698 H 0.4906 0.51809 0.83657 0.0
H699 H 0.49013 0.50528 0.78118 0.0
H700 H 0.43893 0.52127 0.67458 0.0
H701 H 0.44771 0.54981 0.67385 0.0
H702 H 0.47428 0.54171 0.8138 0.0
C703 C 0.46246 0.47776 0.80222 0.0
C704 C 0.45657 0.46595 0.76862 0.0
C705 C 0.44682 0.47056 0.72694 0.0
C706 C 0.44367 0.48696 0.71746 0.0
C707 C 0.45025 0.49846 0.75038 0.0
C708 C 0.45924 0.49395 0.79248 0.0
C709 C 0.46669 0.50834 0.81863 0.0
C710 C 0.45968 0.51052 0.87237 0.0
C711 C 0.4852 0.50701 0.82017 0.0
C712 C 0.46124 0.52163 0.78338 0.0
C713 C 0.45152 0.51587 0.7447 0.0
C714 C 0.44625 0.52592 0.70534 0.0
C715 C 0.4513 0.54213 0.70519 0.0
C716 C 0.46171 0.54801 0.7437 0.0
C717 C 0.46631 0.53764 0.78379 0.0
H718 H 0.71708 0.24456 0.02094 0.0
H719 H 0.70749 0.19418 0.9897 0.0
H720 H 0.73642 0.18802 0.00294 0.0
H721 H 0.75322 0.24641 0.95315 0.0
H722 H 0.7627 0.26037 -0.00367 0.0
H723 H 0.74115 0.26023 0.98976 0.0
H724 H 0.73812 0.25584 0.08714 0.0
H725 H 0.7597 0.25598 0.09405 0.0
H726 H 0.74818 0.23909 0.11708 0.0
H727 H 0.76738 0.18799 0.01607 0.0
H728 H 0.79654 0.19442 0.02262 0.0
H729 H 0.78468 0.24488 0.04187 0.0
C730 C 0.72091 0.23214 0.0178 0.0
C731 C 0.70992 0.21984 0.00477 0.0
C732 C 0.71565 0.20382 -6e-05 0.0
C733 C 0.73206 0.20021 0.0075 0.0
C734 C 0.7426 0.21274 0.01964 0.0
C735 C 0.73715 0.22839 0.02455 0.0
C736 C 0.75083 0.23999 0.03396 0.0
C737 C 0.75204 0.25248 0.99073 0.0
C738 C 0.7491 0.2482 0.08617 0.0
C739 C 0.76492 0.22852 0.03325 0.0
C740 C 0.76006 0.2128 0.02556 0.0
C741 C 0.77125 0.20027 0.02235 0.0
C742 C 0.78778 0.204 0.02629 0.0
C743 C 0.7929 0.22014 0.03259 0.0
C744 C 0.78121 0.23241 0.03683 0.0
H745 H 0.01021 0.46199 0.25559 0.0
H746 H 0.0611 0.45359 0.2292 0.0
H747 H 0.06635 0.48274 0.24066 0.0
H748 H 0.00764 0.49856 0.18719 0.0
H749 H 0.99336 0.50755 0.23033 0.0
H750 H 0.99397 0.48602 0.22288 0.0
H751 H 0.99813 0.48262 0.32024 0.0
H752 H 0.99747 0.50415 0.32805 0.0
H753 H 0.01456 0.49293 0.35109 0.0
H754 H 0.06562 0.51352 0.25481 0.0
H755 H 0.05886 0.54235 0.26711 0.0
H756 H 0.00837 0.52968 0.28043 0.0
C757 C 0.02252 0.46616 0.25262 0.0
C758 C 0.03525 0.45539 0.2417 0.0
C759 C 0.05113 0.46154 0.23765 0.0
C760 C 0.05423 0.4781 0.24415 0.0
C761 C 0.04131 0.48836 0.25444 0.0
C762 C 0.02578 0.48255 0.2585 0.0
C763 C 0.01385 0.49594 0.26805 0.0
C764 C 1.00148 0.49708 0.22451 0.0
C765 C 0.00552 0.49378 0.31994 0.0
C766 C 0.02501 0.5103 0.26833 0.0
C767 C 0.04084 0.50578 0.26098 0.0
C768 C 0.05324 0.51714 0.26047 0.0
C769 C 0.0493 0.5335 0.26753 0.0
C770 C 0.03307 0.53833 0.27434 0.0
C771 C 0.02087 0.52647 0.27475 0.0
H772 H 0.28602 0.22453 0.41148 0.0
H773 H 0.29851 0.19022 0.52902 0.0
H774 H 0.26945 0.18475 0.54367 0.0
H775 H 0.25552 0.24229 0.47295 0.0
H776 H 0.24269 0.24549 0.41847 0.0
H777 H 0.26407 0.24398 0.41003 0.0
H778 H 0.26024 0.2206 0.34579 0.0
H779 H 0.23874 0.22222 0.35327 0.0
H780 H 0.24862 0.2032 0.364 0.0
H781 H 0.23863 0.18708 0.55502 0.0
H782 H 0.21006 0.19579 0.55851 0.0
H783 H 0.21876 0.2283 0.43209 0.0
C784 C 0.28261 0.21534 0.43873 0.0
C785 C 0.29439 0.20757 0.46853 0.0
C786 C 0.28961 0.19597 0.50495 0.0
C787 C 0.27313 0.1929 0.51368 0.0
C788 C 0.26172 0.20136 0.48502 0.0
C789 C 0.26636 0.21209 0.44745 0.0
C790 C 0.25208 0.22089 0.42509 0.0
C791 C 0.25369 0.23923 0.4321 0.0
C792 C 0.24979 0.21645 0.3687 0.0
C793 C 0.2387 0.21408 0.45751 0.0
C794 C 0.24431 0.20267 0.49148 0.0
C795 C 0.23411 0.19577 0.5278 0.0
C796 C 0.21789 0.2008 0.5296 0.0
C797 C 0.2121 0.21276 0.49567 0.0
C798 C 0.22269 0.21913 0.45865 0.0
H799 H 0.51501 0.467 0.21291 0.0
H800 H 0.56248 0.45752 0.2753 0.0
H801 H 0.56914 0.48655 0.26647 0.0
H802 H 0.52603 0.49919 0.12404 0.0
H803 H 0.50773 0.51007 0.13714 0.0
H804 H 0.50799 0.48842 0.14124 0.0
H805 H 0.49734 0.49004 0.23399 0.0
H806 H 0.49712 0.51163 0.23031 0.0
H807 H 0.50826 0.50177 0.28033 0.0
H808 H 0.56936 0.51779 0.25606 0.0
H809 H 0.56249 0.54693 0.25081 0.0
H810 H 0.51433 0.53454 0.20134 0.0
C811 C 0.52698 0.47081 0.22394 0.0
C812 C 0.53824 0.45984 0.24467 0.0
C813 C 0.55366 0.46562 0.25896 0.0
C814 C 0.55754 0.4821 0.25403 0.0
C815 C 0.54587 0.49262 0.23474 0.0
C816 C 0.5309 0.48706 0.21998 0.0
C817 C 0.51977 0.50064 0.20512 0.0
C818 C 0.51511 0.49951 0.14852 0.0
C819 C 0.50475 0.50104 0.2395 0.0
C820 C 0.53059 0.51488 0.21491 0.0
C821 C 0.54575 0.51016 0.23092 0.0
C822 C 0.55755 0.52153 0.24327 0.0
C823 C 0.55359 0.53802 0.24007 0.0
C824 C 0.53788 0.54288 0.22583 0.0
C825 C 0.52642 0.53113 0.21245 0.0
H826 H 0.28833 0.76385 0.04678 0.0
H827 H 0.2997 0.81197 0.99417 0.0
H828 H 0.2705 0.81752 0.98306 0.0
H829 H 0.25799 0.75558 0.96187 0.0
H830 H 0.24549 0.74463 0.00603 0.0
H831 H 0.2669 0.74537 0.01556 0.0
H832 H 0.26272 0.75686 0.10643 0.0
H833 H 0.24123 0.75602 0.09739 0.0
H834 H 0.25071 0.77473 0.11498 0.0
H835 H 0.23987 0.81621 0.96829 0.0
H836 H 0.21126 0.80883 0.95568 0.0
H837 H 0.22081 0.76168 0.02034 0.0
C838 C 0.28467 0.77568 0.03387 0.0
C839 C 0.29622 0.7875 0.02133 0.0
C840 C 0.29099 0.80283 0.00452 0.0
C841 C 0.27446 0.80604 -0.00206 0.0
C842 C 0.26338 0.79388 0.00933 0.0
C843 C 0.26833 0.77911 0.02781 0.0
C844 C 0.25431 0.76774 0.03518 0.0
C845 C 0.2563 0.75244 0.00271 0.0
C846 C 0.25212 0.7636 0.09186 0.0
C847 C 0.24068 0.77812 0.01593 0.0
C848 C 0.24602 0.79322 0.00161 0.0
C849 C 0.23557 0.8045 0.98015 0.0
C850 C 0.21932 0.80018 0.97302 0.0
C851 C 0.2137 0.78466 0.98704 0.0
C852 C 0.2246 0.77366 0.00935 0.0
H853 H 0.99183 0.47363 0.71799 0.0
H854 H 0.94128 0.46107 0.73038 0.0
H855 H 0.93473 0.49005 0.7436 0.0
H856 H 0.9925 0.5031 0.81411 0.0
H857 H 0.00674 0.51566 0.78092 0.0
H858 H 0.00682 0.49425 0.77081 0.0
H859 H 0.00343 0.49874 0.67353 0.0
H860 H 0.00336 0.52018 0.68331 0.0
H861 H 0.98684 0.51069 0.65045 0.0
H862 H 0.93469 0.52131 0.76026 0.0
H863 H 0.94087 0.55022 0.77455 0.0
H864 H 0.9915 0.54038 0.74873 0.0
C865 C 0.9793 0.47681 0.72345 0.0
C866 C 0.96707 0.46497 0.72361 0.0
C867 C 0.95087 0.46989 0.73015 0.0
C868 C 0.94708 0.48632 0.73778 0.0
C869 C 0.95961 0.49761 0.7382 0.0
C870 C 0.97538 0.49291 0.73075 0.0
C871 C 0.9869 0.50692 0.73323 0.0
C872 C 0.99894 0.50486 0.77739 0.0
C873 C 0.99564 0.50927 0.68208 0.0
C874 C 0.97528 0.52044 0.74351 0.0
C875 C 0.95956 0.51501 0.74651 0.0
C876 C 0.94696 0.52559 0.75754 0.0
C877 C 0.95059 0.542 0.76569 0.0
C878 C 0.96668 0.54767 0.76253 0.0
C879 C 0.97904 0.53661 0.751 0.0
H880 H 0.15755 0.25678 0.90217 0.0
H881 H 0.15875 0.30827 0.87412 0.0
H882 H 0.15943 0.30315 0.78145 0.0
H883 H 0.18497 0.24597 0.80272 0.0
H884 H 0.17462 0.22763 0.78618 0.0
H885 H 0.17353 0.23528 0.85028 0.0
H886 H 0.14239 0.23525 0.84512 0.0
H887 H 0.14338 0.22762 0.78095 0.0
H888 H 0.13253 0.24594 0.79409 0.0
H889 H 0.16043 0.29265 0.69296 0.0
H890 H 0.16243 0.27764 0.6129 0.0
H891 H 0.16106 0.23251 0.69681 0.0
C892 C 0.15786 0.26698 0.87652 0.0
C893 C 0.15806 0.28296 0.89534 0.0
C894 C 0.15859 0.29596 0.86056 0.0
C895 C 0.15895 0.29316 0.80789 0.0
C896 C 0.15882 0.27729 0.79063 0.0
C897 C 0.15833 0.2644 0.82378 0.0
C898 C 0.1588 0.24852 0.79507 0.0
C899 C 0.17388 0.23878 0.80942 0.0
C900 C 0.14335 0.23876 0.80436 0.0
C901 C 0.15968 0.25452 0.74052 0.0
C902 C 0.1596 0.27116 0.7391 0.0
C903 C 0.16051 0.27962 0.69355 0.0
C904 C 0.16167 0.2709 0.64815 0.0
C905 C 0.16197 0.2538 0.64818 0.0
C906 C 0.16083 0.24554 0.69525 0.0
H907 H 0.99185 0.91066 0.92575 0.0
H908 H 0.04259 0.90349 0.95909 0.0
H909 H 0.03593 0.8998 0.05015 0.0
H910 H 0.98265 0.93336 0.03644 0.0
H911 H 0.96293 0.92469 0.04466 0.0
H912 H 0.97162 0.92604 0.98199 0.0
H913 H 0.96785 0.89531 0.96992 0.0
H914 H 0.95915 0.89386 0.03261 0.0
H915 H 0.97628 0.88163 0.01609 0.0
H916 H 0.02382 0.89774 0.13754 0.0
H917 H 0.00736 0.89781 0.2155 0.0
H918 H 0.96443 0.90642 0.12514 0.0
C919 C 1.00162 0.9082 0.95195 0.0
C920 C 0.01779 0.90734 0.93503 0.0
C921 C 0.03013 0.9042 0.97096 0.0
C922 C 0.02646 0.90207 0.02276 0.0
C923 C 0.01039 0.90308 0.03796 0.0
C924 C 0.99818 0.90608 0.00361 0.0
C925 C 0.98196 0.90704 0.02989 0.0
C926 C 0.97435 0.92378 0.02282 0.0
C927 C 0.97064 0.89366 0.011 0.0
C928 C 0.98695 0.90426 0.08465 0.0
C929 C 0.0034 0.90193 0.08835 0.0
C930 C 0.01094 0.89948 0.13504 0.0
C931 C 1.00145 0.89957 0.17913 0.0
C932 C 0.98459 0.90211 0.1764 0.0
C933 C 0.97725 0.90434 0.12839 0.0
H934 H 0.35097 0.713 0.3628 0.0
H935 H 0.36655 0.75554 0.44512 0.0
H936 H 0.36906 0.77038 0.36437 0.0
H937 H 0.37623 0.7193 0.24799 0.0
H938 H 0.36065 0.71245 0.20535 0.0
H939 H 0.36186 0.70447 0.2691 0.0
H940 H 0.33228 0.71294 0.28526 0.0
H941 H 0.331 0.72103 0.22177 0.0
H942 H 0.32647 0.73364 0.27576 0.0
H943 H 0.36772 0.78138 0.2769 0.0
H944 H 0.36268 0.78786 0.18663 0.0
H945 H 0.34761 0.73845 0.16016 0.0
C946 C 0.35527 0.72531 0.36349 0.0
C947 C 0.35868 0.73312 0.40993 0.0
C948 C 0.3639 0.74935 0.40977 0.0
C949 C 0.36542 0.75787 0.36415 0.0
C950 C 0.36164 0.75 0.319 0.0
C951 C 0.35671 0.73409 0.3181 0.0
C952 C 0.35223 0.72896 0.26459 0.0
C953 C 0.36341 0.7155 0.24564 0.0
C954 C 0.33444 0.72385 0.2617 0.0
C955 C 0.35516 0.74454 0.236 0.0
C956 C 0.36071 0.75647 0.26809 0.0
C957 C 0.36355 0.7721 0.25113 0.0
C958 C 0.36059 0.77568 0.19984 0.0
C959 C 0.35479 0.76367 0.16621 0.0
C960 C 0.35221 0.74787 0.18467 0.0
H961 H 0.51169 0.10303 0.65385 0.0
H962 H 0.5608 0.08674 0.63063 0.0
H963 H 0.55522 0.08315 0.53902 0.0
H964 H 0.49288 0.07598 0.5635 0.0
H965 H 0.47844 0.09062 0.5415 0.0
H966 H 0.4861 0.0917 0.60566 0.0
H967 H 0.49534 0.12106 0.58992 0.0
H968 H 0.48769 0.12008 0.52577 0.0
H969 H 0.50843 0.12543 0.5369 0.0
H970 H 0.54468 0.08151 0.451 0.0
H971 H 0.53012 0.0824 0.3699 0.0
H972 H 0.48746 0.10002 0.44798 0.0
C973 C 0.52125 0.09869 0.62946 0.0
C974 C 0.5367 0.09515 0.64935 0.0
C975 C 0.54891 0.08954 0.61624 0.0
C976 C 0.54584 0.08744 0.56418 0.0
C977 C 0.53051 0.09102 0.54579 0.0
C978 C 0.51841 0.09657 0.57722 0.0
C979 C 0.50309 0.09978 0.5472 0.0
C980 C 0.48931 0.08886 0.56556 0.0
C981 C 0.49837 0.11765 0.55012 0.0
C982 C 0.50853 0.09522 0.49392 0.0
C983 C 0.52438 0.09016 0.49432 0.0
C984 C 0.53227 0.08546 0.45014 0.0
C985 C 0.52383 0.08605 0.40411 0.0
C986 C 0.50758 0.09135 0.40216 0.0
C987 C 0.49982 0.09588 0.44801 0.0
H988 H 0.17096 0.73702 0.80991 0.0
H989 H 0.15951 0.78697 0.77643 0.0
H990 H 0.15664 0.78008 0.6854 0.0
H991 H 0.19413 0.72951 0.69548 0.0
H992 H 0.18689 0.70918 0.68847 0.0
H993 H 0.18835 0.71807 0.7509 0.0
H994 H 0.15819 0.71192 0.76673 0.0
H995 H 0.1566 0.70309 0.70428 0.0
H996 H 0.14333 0.71927 0.72234 0.0
H997 H 0.15433 0.76782 0.59929 0.0
H998 H 0.15347 0.7513 0.52191 0.0
H999 H 0.16659 0.709 0.61006 0.0
C1000 C 0.16789 0.74657 0.78353 0.0
C1001 C 0.16545 0.76258 0.80052 0.0
C1002 C 0.1615 0.77465 0.7645 0.0
C1003 C 0.15981 0.77084 0.7127 0.0
C1004 C 0.16217 0.75493 0.69751 0.0
C1005 C 0.16621 0.74299 0.73172 0.0
C1006 C 0.16805 0.72683 0.70533 0.0
C1007 C 0.18539 0.72053 0.71035 0.0
C1008 C 0.15581 0.71456 0.7259 0.0
C1009 C 0.16425 0.73152 0.65082 0.0
C1010 C 0.16092 0.74781 0.64742 0.0
C1011 C 0.15698 0.75509 0.60144 0.0
C1012 C 0.15654 0.74554 0.55764 0.0
C1013 C 0.16002 0.72882 0.5598 0.0
C1014 C 0.16387 0.72172 0.60719 0.0
H1015 H 0.51166 0.92903 0.04978 0.0
H1016 H 0.46877 0.89956 0.03379 0.0
H1017 H 0.47753 0.89189 0.94679 0.0
H1018 H 0.51353 0.94285 0.91824 0.0
H1019 H 0.53521 0.94233 0.91748 0.0
H1020 H 0.5247 0.94627 0.97614 0.0
H1021 H 0.53985 0.92248 0.01859 0.0
H1022 H 0.55012 0.91822 0.95977 0.0
H1023 H 0.53854 0.90269 0.99071 0.0
H1024 H 0.49172 0.88679 0.86334 0.0
H1025 H 0.50921 0.88595 0.78726 0.0
H1026 H 0.54326 0.91785 0.86136 0.0
C1027 C 0.50397 0.92107 0.02795 0.0
C1028 C 0.48957 0.9148 0.04852 0.0
C1029 C 0.4798 0.90456 0.01852 0.0
C1030 C 0.48474 0.90007 0.96935 0.0
C1031 C 0.49936 0.90604 0.95113 0.0
C1032 C 0.50871 0.91648 0.97934 0.0
C1033 C 0.52403 0.92104 0.95184 0.0
C1034 C 0.52438 0.93919 0.94023 0.0
C1035 C 0.53901 0.91578 0.98204 0.0
C1036 C 0.52206 0.91127 0.90385 0.0
C1037 C 0.5077 0.90279 0.90397 0.0
C1038 C 0.50299 0.89332 0.86292 0.0
C1039 C 0.51302 0.89287 0.82013 0.0
C1040 C 0.52762 0.90166 0.81914 0.0
C1041 C 0.53234 0.91073 0.86182 0.0
H1042 H 0.341 0.2538 0.08949 0.0
H1043 H 0.37199 0.29444 0.12293 0.0
H1044 H 0.37832 0.28271 0.20716 0.0
H1045 H 0.32378 0.25222 0.21264 0.0
H1046 H 0.32186 0.23061 0.2139 0.0
H1047 H 0.32157 0.24113 0.15402 0.0
H1048 H 0.34515 0.22333 0.12234 0.0
H1049 H 0.34571 0.21298 0.18271 0.0
H1050 H 0.3636 0.22258 0.15847 0.0
H1051 H 0.38046 0.26761 0.28733 0.0
H1052 H 0.37426 0.25298 0.36648 0.0
H1053 H 0.3405 0.22268 0.28489 0.0
C1054 C 0.34924 0.26008 0.11453 0.0
C1055 C 0.35619 0.27489 0.10001 0.0
C1056 C 0.36659 0.28308 0.13376 0.0
C1057 C 0.37039 0.27641 0.18123 0.0
C1058 C 0.3635 0.26168 0.19438 0.0
C1059 C 0.35284 0.25378 0.16264 0.0
C1060 C 0.34552 0.23924 0.1888 0.0
C1061 C 0.3271 0.24091 0.19258 0.0
C1062 C 0.35028 0.2236 0.16144 0.0
C1063 C 0.35348 0.24041 0.24067 0.0
C1064 C 0.36417 0.25319 0.24225 0.0
C1065 C 0.37227 0.25749 0.28654 0.0
C1066 C 0.36872 0.24908 0.33118 0.0
C1067 C 0.35709 0.23664 0.33128 0.0
C1068 C 0.3498 0.23182 0.28522 0.0
H1069 H 0.98883 0.09691 0.57605 0.0
H1070 H 0.03911 0.10784 0.54595 0.0
H1071 H 0.03269 0.11157 0.45489 0.0
H1072 H 0.98207 0.07406 0.4653 0.0
H1073 H 0.96182 0.08116 0.45529 0.0
H1074 H 0.97007 0.08055 0.51868 0.0
H1075 H 0.96389 0.11091 0.53001 0.0
H1076 H 0.95558 0.11162 0.46661 0.0
H1077 H 0.97159 0.12517 0.48429 0.0
H1078 H 0.02132 0.11231 0.36729 0.0
H1079 H 0.00576 0.11021 0.28782 0.0
H1080 H 0.96267 0.09904 0.3744 0.0
C1081 C 0.9985 0.1003 0.55058 0.0
C1082 C 0.0145 0.10211 0.56831 0.0
C1083 C 0.02677 0.10639 0.5334 0.0
C1084 C 0.02324 0.10857 0.48162 0.0
C1085 C 0.00738 0.1065 0.4655 0.0
C1086 C 0.9952 0.1025 0.49889 0.0
C1087 C 0.9793 0.10026 0.47137 0.0
C1088 C 0.97295 0.08298 0.47806 0.0
C1089 C 0.96686 0.11274 0.48913 0.0
C1090 C 0.9845 0.10337 0.41701 0.0
C1091 C 1.00074 0.10702 0.41468 0.0
C1092 C 0.00857 0.10963 0.36866 0.0
C1093 C 0.99962 0.10836 0.32375 0.0
C1094 C 0.983 0.10453 0.32508 0.0
C1095 C 0.9753 0.10219 0.37238 0.0
H1096 H 0.84583 0.74798 0.0873 0.0
H1097 H 0.8507 0.6966 0.11316 0.0
H1098 H 0.85401 0.7016 0.20537 0.0
H1099 H 0.87435 0.76131 0.18274 0.0
H1100 H 0.86244 0.7784 0.20194 0.0
H1101 H 0.86112 0.77094 0.1376 0.0
H1102 H 0.83026 0.76763 0.1472 0.0
H1103 H 0.83147 0.77519 0.21138 0.0
H1104 H 0.82238 0.75586 0.19924 0.0
H1105 H 0.85678 0.71198 0.29367 0.0
H1106 H 0.85654 0.72667 0.37466 0.0
H1107 H 0.84886 0.7716 0.29316 0.0
C1108 C 0.84767 0.73779 0.11236 0.0
C1109 C 0.84811 0.72188 0.09313 0.0
C1110 C 0.85033 0.70886 0.12713 0.0
C1111 C 0.8523 0.71159 0.17948 0.0
C1112 C 0.85188 0.72741 0.19717 0.0
C1113 C 0.84946 0.74029 0.16482 0.0
C1114 C 0.84874 0.75602 0.19417 0.0
C1115 C 0.86249 0.76733 0.17815 0.0
C1116 C 0.83223 0.76415 0.18761 0.0
C1117 C 0.8511 0.74995 0.24817 0.0
C1118 C 0.85305 0.73342 0.24872 0.0
C1119 C 0.85523 0.72492 0.29378 0.0
C1120 C 0.85507 0.73344 0.33969 0.0
C1121 C 0.85261 0.75036 0.34061 0.0
C1122 C 0.85086 0.75872 0.29393 0.0
H1123 H 0.9802 0.10404 0.03369 0.0
H1124 H 1.00261 0.05962 0.08364 0.0
H1125 H 0.01577 0.05672 0.00025 0.0
H1126 H 0.97544 0.09145 0.89397 0.0
H1127 H 0.97993 0.11156 0.87245 0.0
H1128 H 0.96969 0.10852 0.93224 0.0
H1129 H 0.9917 0.12534 0.97752 0.0
H1130 H 1.00225 0.12806 0.91834 0.0
H1131 H 0.01248 0.11931 0.97223 0.0
H1132 H 0.03101 0.06157 0.92149 0.0
H1133 H 0.04385 0.0715 0.84239 0.0
H1134 H 0.01068 0.11175 0.83889 0.0
C1135 C 0.98725 0.09336 0.02594 0.0
C1136 C 0.9904 0.08201 0.06467 0.0
C1137 C 1.00009 0.0684 0.05414 0.0
C1138 C 0.00762 0.06666 0.00699 0.0
C1139 C 0.00516 0.07852 0.97053 0.0
C1140 C 0.99487 0.09139 0.97863 0.0
C1141 C 0.99546 0.10306 0.93423 0.0
C1142 C 0.97916 0.10368 0.90658 0.0
C1143 C 1.00079 0.11993 0.95166 0.0
C1144 C 0.00822 0.09511 0.90153 0.0
C1145 C 0.01366 0.08099 0.92331 0.0
C1146 C 0.02658 0.07237 0.90318 0.0
C1147 C 0.03393 0.07817 0.85884 0.0
C1148 C 0.02815 0.09229 0.83513 0.0
C1149 C 0.01511 0.10081 0.85643 0.0
H1150 H 0.65024 0.25742 0.57559 0.0
H1151 H 0.68515 0.29587 0.59186 0.0
H1152 H 0.69323 0.28499 0.6758 0.0
H1153 H 0.6369 0.25888 0.70333 0.0
H1154 H 0.63362 0.23752 0.70934 0.0
H1155 H 0.63215 0.247 0.64787 0.0
H1156 H 0.65342 0.22715 0.6124 0.0
H1157 H 0.6551 0.21773 0.67408 0.0
H1158 H 0.67278 0.22562 0.6431 0.0
H1159 H 0.69665 0.27108 0.75788 0.0
H1160 H 0.69269 0.25755 0.84015 0.0
H1161 H 0.65425 0.22873 0.77524 0.0
C1162 C 0.65972 0.26337 0.59678 0.0
C1163 C 0.6672 0.27739 0.57759 0.0
C1164 C 0.67929 0.28515 0.60633 0.0
C1165 C 0.68405 0.27896 0.65363 0.0
C1166 C 0.67643 0.26513 0.67173 0.0
C1167 C 0.66433 0.25756 0.64473 0.0
C1168 C 0.65687 0.244 0.6756 0.0
C1169 C 0.63882 0.24704 0.68458 0.0
C1170 C 0.65972 0.22765 0.64974 0.0
C1171 C 0.66644 0.24537 0.72468 0.0
C1172 C 0.67792 0.2574 0.72077 0.0
C1173 C 0.68777 0.2616 0.76137 0.0
C1174 C 0.68542 0.25384 0.80792 0.0
C1175 C 0.67318 0.24211 0.81391 0.0
C1176 C 0.66389 0.23742 0.77134 0.0
H1177 H 0.46564 0.9111 0.36719 0.0
H1178 H 0.50865 0.91639 0.27464 0.0
H1179 H 0.52537 0.91673 0.35176 0.0
H1180 H 0.47877 0.93692 0.47025 0.0
H1181 H 0.46991 0.92451 0.51913 0.0
H1182 H 0.46117 0.92499 0.45634 0.0
H1183 H 0.46377 0.89394 0.45043 0.0
H1184 H 0.4726 0.89339 0.51309 0.0
H1185 H 0.48317 0.88467 0.45987 0.0
H1186 H 0.53766 0.91607 0.43861 0.0
H1187 H 0.54436 0.91518 0.53043 0.0
H1188 H 0.49348 0.9101 0.56571 0.0
C1189 C 0.47855 0.91243 0.36329 0.0
C1190 C 0.48581 0.91377 0.315 0.0
C1191 C 0.50277 0.9154 0.31131 0.0
C1192 C 0.51243 0.91558 0.35488 0.0
C1193 C 0.50496 0.91409 0.40192 0.0
C1194 C 0.48842 0.91259 0.40653 0.0
C1195 C 0.48352 0.91107 0.46173 0.0
C1196 C 0.47271 0.92522 0.47779 0.0
C1197 C 0.47528 0.8948 0.47185 0.0
C1198 C 0.49986 0.91195 0.4871 0.0
C1199 C 0.51208 0.91367 0.45203 0.0
C1200 C 0.5282 0.91475 0.46662 0.0
C1201 C 0.53189 0.9142 0.51876 0.0
C1202 C 0.51949 0.9126 0.55537 0.0
C1203 C 0.50331 0.91136 0.53892 0.0
H1204 H 0.84448 0.26954 0.169 0.0
H1205 H 0.86039 0.22043 0.19581 0.0
H1206 H 0.86577 0.22718 0.28574 0.0
H1207 H 0.87319 0.28932 0.25477 0.0
H1208 H 0.8587 0.304 0.27599 0.0
H1209 H 0.85728 0.29574 0.21266 0.0
H1210 H 0.82795 0.28676 0.23065 0.0
H1211 H 0.82927 0.29501 0.29391 0.0
H1212 H 0.82382 0.27419 0.28511 0.0
H1213 H 0.86749 0.23847 0.37309 0.0
H1214 H 0.86517 0.25346 0.45362 0.0
H1215 H 0.84845 0.29553 0.37112 0.0
C1216 C 0.84932 0.26024 0.1935 0.0
C1217 C 0.85207 0.24444 0.17514 0.0
C1218 C 0.85819 0.2326 0.20884 0.0
C1219 C 0.86134 0.23634 0.25996 0.0
C1220 C 0.85836 0.25197 0.27677 0.0
C1221 C 0.8525 0.26375 0.24465 0.0
C1222 C 0.84945 0.27935 0.27314 0.0
C1223 C 0.86031 0.2929 0.25293 0.0
C1224 C 0.83156 0.2841 0.27055 0.0
C1225 C 0.85427 0.27441 0.3266 0.0
C1226 C 0.85946 0.25859 0.32757 0.0
C1227 C 0.86365 0.25091 0.37274 0.0
C1228 C 0.86225 0.25953 0.41825 0.0
C1229 C 0.85676 0.27567 0.41841 0.0
C1230 C 0.85299 0.28331 0.37188 0.0
H1231 H 0.50225 0.10004 0.15699 0.0
H1232 H 0.4525 0.1136 0.13027 0.0
H1233 H 0.45801 0.11545 0.03794 0.0
H1234 H 0.52037 0.12521 0.05922 0.0
H1235 H 0.53511 0.11033 0.04134 0.0
H1236 H 0.52757 0.11093 0.10568 0.0
H1237 H 0.51893 0.08104 0.09882 0.0
H1238 H 0.52652 0.08032 0.03462 0.0
H1239 H 0.50591 0.07487 0.04744 0.0
H1240 H 0.4686 0.11528 0.9493 0.0
H1241 H 0.48294 0.11147 0.86846 0.0
H1242 H 0.52597 0.09724 0.95125 0.0
C1243 C 0.49254 0.10352 0.13176 0.0
C1244 C 0.47694 0.10677 0.1508 0.0
C1245 C 0.46453 0.11108 0.1165 0.0
C1246 C 0.46757 0.11222 0.06406 0.0
C1247 C 0.48307 0.10893 0.04654 0.0
C1248 C 0.49533 0.10455 0.07922 0.0
C1249 C 0.51068 0.10083 0.05009 0.0
C1250 C 0.52423 0.11253 0.06498 0.0
C1251 C 0.51581 0.08322 0.05823 0.0
C1252 C 0.50509 0.10372 0.99581 0.0
C1253 C 0.48915 0.10852 0.99491 0.0
C1254 C 0.48108 0.11154 0.94951 0.0
C1255 C 0.48938 0.10931 0.9037 0.0
C1256 C 0.50563 0.104 0.90325 0.0
C1257 C 0.51364 0.10144 0.95018 0.0
H1258 H 0.66049 0.71525 0.86538 0.0
H1259 H 0.65468 0.75938 0.9522 0.0
H1260 H 0.65815 0.77531 0.87428 0.0
H1261 H 0.69062 0.73095 0.77661 0.0
H1262 H 0.68252 0.72017 0.72281 0.0
H1263 H 0.68046 0.71201 0.7861 0.0
H1264 H 0.64952 0.71043 0.77408 0.0
H1265 H 0.65149 0.71857 0.71082 0.0
H1266 H 0.63855 0.72831 0.75647 0.0
H1267 H 0.6612 0.78664 0.78745 0.0
H1268 H 0.66329 0.79255 0.6956 0.0
H1269 H 0.66692 0.74129 0.66424 0.0
C1270 C 0.66008 0.72826 0.86791 0.0
C1271 C 0.6574 0.73605 0.91489 0.0
C1272 C 0.65682 0.7531 0.91671 0.0
C1273 C 0.65878 0.76231 0.87264 0.0
C1274 C 0.66133 0.75432 0.82692 0.0
C1275 C 0.66199 0.7377 0.82405 0.0
C1276 C 0.66434 0.73222 0.76957 0.0
C1277 C 0.68044 0.72331 0.76343 0.0
C1278 C 0.65013 0.72177 0.7517 0.0
C1279 C 0.66459 0.74833 0.7425 0.0
C1280 C 0.66297 0.76092 0.77636 0.0
C1281 C 0.66256 0.77691 0.7604 0.0
C1282 C 0.66376 0.78014 0.70816 0.0
C1283 C 0.66526 0.76742 0.67258 0.0
C1284 C 0.66578 0.75133 0.69031 0.0
H1285 H 0.98307 0.89518 0.46855 0.0
H1286 H 0.99563 0.944 0.4262 0.0
H1287 H 0.0092 0.94781 0.50876 0.0
H1288 H 0.97759 0.90418 0.61101 0.0
H1289 H 0.98601 0.88494 0.6283 0.0
H1290 H 0.97474 0.88703 0.56994 0.0
H1291 H 0.99901 0.87551 0.52009 0.0
H1292 H 0.01056 0.87386 0.57787 0.0
H1293 H 0.01833 0.8853 0.52495 0.0
H1294 H 0.02635 0.94443 0.58489 0.0
H1295 H 0.04139 0.93598 0.66171 0.0
H1296 H 0.0162 0.89028 0.66098 0.0
C1297 C 0.98792 0.9069 0.47807 0.0
C1298 C 0.98812 0.91942 0.4417 0.0
C1299 C 0.99517 0.93441 0.45419 0.0
C1300 C 1.00299 0.93664 0.50077 0.0
C1301 C 0.00346 0.92382 0.53479 0.0
C1302 C 0.99567 0.90941 0.52505 0.0
C1303 C 0.99898 0.89732 0.56719 0.0
C1304 C 0.9834 0.89312 0.59582 0.0
C1305 C 0.00721 0.8821 0.54624 0.0
C1306 C 0.01038 0.90696 0.60053 0.0
C1307 C 0.01288 0.92217 0.58079 0.0
C1308 C 0.02415 0.93273 0.60164 0.0
C1309 C 0.03278 0.92778 0.64476 0.0
C1310 C 0.02983 0.91257 0.66695 0.0
C1311 C 0.01849 0.90204 0.64469 0.0
H1312 H 0.66682 0.75867 0.41234 0.0
H1313 H 0.6345 0.79902 0.39051 0.0
H1314 H 0.62508 0.78715 0.30938 0.0
H1315 H 0.6796 0.75761 0.28503 0.0
H1316 H 0.68179 0.73604 0.28214 0.0
H1317 H 0.68384 0.74628 0.3421 0.0
H1318 H 0.66166 0.72795 0.38029 0.0
H1319 H 0.65933 0.71788 0.31989 0.0
H1320 H 0.64217 0.72705 0.35019 0.0
H1321 H 0.62042 0.77227 0.22998 0.0
H1322 H 0.62469 0.75859 0.148 0.0
H1323 H 0.66149 0.7286 0.21656 0.0
C1324 C 0.65759 0.76481 0.39061 0.0
C1325 C 0.65117 0.7796 0.40739 0.0
C1326 C 0.63947 0.78765 0.37786 0.0
C1327 C 0.63393 0.78089 0.33226 0.0
C1328 C 0.64041 0.76622 0.31664 0.0
C1329 C 0.65227 0.75845 0.3442 0.0
C1330 C 0.65893 0.74416 0.31507 0.0
C1331 C 0.67711 0.74615 0.3055 0.0
C1332 C 0.6553 0.72832 0.34304 0.0
C1333 C 0.64931 0.74544 0.2661 0.0
C1334 C 0.63831 0.75793 0.26882 0.0
C1335 C 0.62883 0.76236 0.22748 0.0
C1336 C 0.63129 0.75448 0.18118 0.0
C1337 C 0.64327 0.74247 0.17642 0.0
C1338 C 0.65193 0.73739 0.21982 0.0
H1339 H 0.46102 0.41728 0.62173 0.0
H1340 H 0.50266 0.40398 0.71245 0.0
H1341 H 0.51956 0.40389 0.63552 0.0
H1342 H 0.4708 0.39376 0.51091 0.0
H1343 H 0.46396 0.40882 0.46644 0.0
H1344 H 0.45504 0.40756 0.5288 0.0
H1345 H 0.46204 0.43757 0.54476 0.0
H1346 H 0.47109 0.43888 0.48255 0.0
H1347 H 0.48259 0.44421 0.53829 0.0
H1348 H 0.53201 0.40509 0.54904 0.0
H1349 H 0.53896 0.40733 0.45767 0.0
H1350 H 0.48943 0.42064 0.4244 0.0
C1351 C 0.47365 0.41424 0.62514 0.0
C1352 C 0.48055 0.41061 0.67276 0.0
C1353 C 0.49717 0.40687 0.67614 0.0
C1354 C 0.50688 0.40677 0.63274 0.0
C1355 C 0.49982 0.41058 0.58635 0.0
C1356 C 0.48361 0.41428 0.58217 0.0
C1357 C 0.47916 0.41823 0.5278 0.0
C1358 C 0.46649 0.40638 0.50729 0.0
C1359 C 0.47338 0.43576 0.52309 0.0
C1360 C 0.49531 0.41588 0.50222 0.0
C1361 C 0.50709 0.41153 0.53658 0.0
C1362 C 0.52291 0.40854 0.5216 0.0
C1363 C 0.52675 0.40988 0.46974 0.0
C1364 C 0.51477 0.41414 0.43382 0.0
C1365 C 0.49892 0.41732 0.4507 0.0
H1366 H 0.85008 0.27687 0.70974 0.0
H1367 H 0.81138 0.24756 0.64844 0.0
H1368 H 0.80867 0.23372 0.73062 0.0
H1369 H 0.86869 0.24693 0.77896 0.0
H1370 H 0.87384 0.25881 0.83407 0.0
H1371 H 0.87149 0.26838 0.773 0.0
H1372 H 0.85008 0.28769 0.81034 0.0
H1373 H 0.85256 0.27836 0.8719 0.0
H1374 H 0.83287 0.2795 0.84322 0.0
H1375 H 0.81307 0.21984 0.81225 0.0
H1376 H 0.82181 0.20926 0.89582 0.0
H1377 H 0.85632 0.24821 0.90906 0.0
C1378 C 0.84068 0.26796 0.71437 0.0
C1379 C 0.83099 0.26324 0.67267 0.0
C1380 C 0.81903 0.25128 0.67977 0.0
C1381 C 0.81735 0.24334 0.72634 0.0
C1382 C 0.82758 0.24763 0.76594 0.0
C1383 C 0.83876 0.25989 0.76113 0.0
C1384 C 0.84878 0.26137 0.80933 0.0
C1385 C 0.86676 0.25871 0.79814 0.0
C1386 C 0.84589 0.2777 0.83523 0.0
C1387 C 0.84185 0.24766 0.84074 0.0
C1388 C 0.82965 0.2399 0.81477 0.0
C1389 C 0.82233 0.22602 0.83364 0.0
C1390 C 0.82746 0.22001 0.88078 0.0
C1391 C 0.83961 0.228 0.90866 0.0
C1392 C 0.84682 0.24205 0.88859 0.0
H1393 H 0.03929 0.59165 0.13474 0.0
H1394 H 0.99777 0.60295 0.2285 0.0
H1395 H 0.98066 0.60409 0.15202 0.0
H1396 H 0.02855 0.6174 0.02881 0.0
H1397 H 0.03573 0.60345 0.98144 0.0
H1398 H 0.04479 0.60379 0.04378 0.0
H1399 H 0.03878 0.57333 0.05421 0.0
H1400 H 0.02964 0.57292 0.992 0.0
H1401 H 0.01843 0.56616 0.04675 0.0
H1402 H 0.96779 0.60353 0.06492 0.0
H1403 H 0.96065 0.60197 0.97328 0.0
H1404 H 0.01057 0.59101 0.93799 0.0
C1405 C 0.02664 0.59447 0.13906 0.0
C1406 C 0.01988 0.59719 0.1875 0.0
C1407 C 0.00323 0.60077 0.19169 0.0
C1408 C 0.99337 0.60145 0.14849 0.0
C1409 C 1.00033 0.59854 0.10128 0.0
C1410 C 0.01658 0.59518 0.09626 0.0
C1411 C 0.021 0.59239 0.04117 0.0
C1412 C 0.03324 0.60501 0.02273 0.0
C1413 C 0.02733 0.57518 0.03308 0.0
C1414 C 0.00474 0.59474 0.01625 0.0
C1415 C 0.99293 0.59825 0.05138 0.0
C1416 C 0.97695 0.60082 0.03691 0.0
C1417 C 0.97298 0.59987 0.98489 0.0
C1418 C 0.985 0.59644 0.94828 0.0
C1419 C 1.00103 0.59378 0.96467 0.0
H1420 H 0.66674 0.23771 0.31544 0.0
H1421 H 0.64579 0.28507 0.29209 0.0
H1422 H 0.63905 0.27763 0.2036 0.0
H1423 H 0.6849 0.23458 0.19384 0.0
H1424 H 0.68117 0.21331 0.18725 0.0
H1425 H 0.68342 0.222 0.24964 0.0
H1426 H 0.65564 0.21044 0.27577 0.0
H1427 H 0.65326 0.20179 0.21327 0.0
H1428 H 0.63812 0.2152 0.23807 0.0
H1429 H 0.63596 0.26574 0.11701 0.0
H1430 H 0.63742 0.25049 0.03662 0.0
H1431 H 0.66007 0.21064 0.11591 0.0
C1432 C 0.66058 0.2465 0.29199 0.0
C1433 C 0.65675 0.26199 0.31092 0.0
C1434 C 0.64887 0.27315 0.27858 0.0
C1435 C 0.64493 0.26901 0.22832 0.0
C1436 C 0.64891 0.25366 0.21099 0.0
C1437 C 0.6566 0.24258 0.24175 0.0
C1438 C 0.66027 0.22719 0.21299 0.0
C1439 C 0.67852 0.2241 0.2108 0.0
C1440 C 0.65128 0.2128 0.23643 0.0
C1441 C 0.6536 0.23141 0.16096 0.0
C1442 C 0.64703 0.24671 0.16085 0.0
C1443 C 0.64091 0.25369 0.11674 0.0
C1444 C 0.6418 0.24494 0.07131 0.0
C1445 C 0.64871 0.22936 0.07029 0.0
C1446 C 0.65442 0.22239 0.11589 0.0
H1447 H 0.00877 0.42779 0.54852 0.0
H1448 H 0.96672 0.39699 0.53681 0.0
H1449 H 0.97512 0.38915 0.44961 0.0
H1450 H 0.01014 0.44035 0.41351 0.0
H1451 H 0.03183 0.44025 0.41322 0.0
H1452 H 0.02111 0.4449 0.47101 0.0
H1453 H 0.03671 0.42215 0.51734 0.0
H1454 H 0.04713 0.4171 0.45945 0.0
H1455 H 0.03578 0.4019 0.4928 0.0
H1456 H 0.98948 0.38319 0.36696 0.0
H1457 H 0.00749 0.38101 0.29233 0.0
H1458 H 0.04078 0.41461 0.36215 0.0
C1459 C 1.00113 0.41961 0.52734 0.0
C1460 C 0.98713 0.41291 0.54931 0.0
C1461 C 0.97742 0.40233 0.52038 0.0
C1462 C 0.98216 0.39775 0.47109 0.0
C1463 C 0.99651 0.404 0.45169 0.0
C1464 C 0.0057 0.41491 0.47868 0.0
C1465 C 0.02099 0.41932 0.45076 0.0
C1466 C 0.02101 0.43727 0.43626 0.0
C1467 C 0.03603 0.41484 0.48196 0.0
C1468 C 0.0193 0.40877 0.40434 0.0
C1469 C 0.00501 0.40019 0.40523 0.0
C1470 C 1.00066 0.38986 0.36589 0.0
C1471 C 0.011 0.38861 0.32399 0.0
C1472 C 0.02557 0.39744 0.32231 0.0
C1473 C 0.02989 0.40744 0.36328 0.0
H1474 H 0.84516 0.73346 0.79361 0.0
H1475 H 0.84235 0.77896 0.87511 0.0
H1476 H 0.84496 0.79362 0.79475 0.0
H1477 H 0.87464 0.74669 0.70043 0.0
H1478 H 0.8657 0.73574 0.64836 0.0
H1479 H 0.86365 0.72838 0.71262 0.0
H1480 H 0.83263 0.72818 0.70259 0.0
H1481 H 0.83459 0.73555 0.63832 0.0
H1482 H 0.8224 0.74636 0.68361 0.0
H1483 H 0.84724 0.8038 0.7066 0.0
H1484 H 0.84966 0.80871 0.61418 0.0
H1485 H 0.85162 0.75715 0.58773 0.0
C1486 C 0.84512 0.74649 0.79454 0.0
C1487 C 0.84353 0.75494 0.84114 0.0
C1488 C 0.84355 0.77205 0.84035 0.0
C1489 C 0.84503 0.78059 0.79473 0.0
C1490 C 0.84653 0.77196 0.74973 0.0
C1491 C 0.84665 0.75532 0.74899 0.0
C1492 C 0.84842 0.74916 0.69479 0.0
C1493 C 0.86403 0.73942 0.68871 0.0
C1494 C 0.83363 0.73922 0.67891 0.0
C1495 C 0.84925 0.76495 0.66564 0.0
C1496 C 0.84808 0.77793 0.69823 0.0
C1497 C 0.84823 0.79375 0.68058 0.0
C1498 C 0.8496 0.79643 0.62804 0.0
C1499 C 0.85088 0.78335 0.59378 0.0
C1500 C 0.85075 0.76741 0.613 0.0
H1501 H 0.52308 0.59404 0.04227 0.0
H1502 H 0.47907 0.60306 0.12703 0.0
H1503 H 0.46418 0.60612 0.0469 0.0
H1504 H 0.51465 0.62234 0.93858 0.0
H1505 H 0.52307 0.60946 0.89021 0.0
H1506 H 0.53067 0.60859 0.95447 0.0
H1507 H 0.52488 0.57795 0.95704 0.0
H1508 H 0.51716 0.57877 0.89295 0.0
H1509 H 0.50484 0.57077 0.9435 0.0
H1510 H 0.45348 0.60692 0.95861 0.0
H1511 H 0.44803 0.60666 0.86609 0.0
H1512 H 0.49866 0.59756 0.83702 0.0
C1513 C 0.51037 0.59685 0.04393 0.0
C1514 C 0.5023 0.59823 0.09123 0.0
C1515 C 0.48558 0.6018 0.09153 0.0
C1516 C 0.47696 0.6036 0.04612 0.0
C1517 C 0.48515 0.60185 0.00034 0.0
C1518 C 0.50148 0.59867 -0.00133 0.0
C1519 C 0.50718 0.59708 0.94396 0.0
C1520 C 0.51963 0.61015 0.93105 0.0
C1521 C 0.51391 0.58013 0.93378 0.0
C1522 C 0.49148 0.59979 0.91552 0.0
C1523 C 0.47894 0.60249 0.94889 0.0
C1524 C 0.46321 0.60493 0.93198 0.0
C1525 C 0.46022 0.60471 0.8794 0.0
C1526 C 0.4729 0.60214 0.84439 0.0
C1527 C 0.48872 0.59964 0.86286 0.0
H1528 H 0.34635 0.20796 0.64049 0.0
H1529 H 0.34244 0.25183 0.55113 0.0
H1530 H 0.34183 0.26786 0.62948 0.0
H1531 H 0.31989 0.22127 0.74413 0.0
H1532 H 0.33179 0.21165 0.79288 0.0
H1533 H 0.33122 0.20334 0.72951 0.0
H1534 H 0.36235 0.20483 0.72502 0.0
H1535 H 0.36301 0.21328 0.78815 0.0
H1536 H 0.37229 0.22383 0.7358 0.0
H1537 H 0.34317 0.27945 0.7159 0.0
H1538 H 0.34445 0.28581 0.80745 0.0
H1539 H 0.34709 0.23468 0.84217 0.0
C1540 C 0.34515 0.22091 0.63759 0.0
C1541 C 0.34444 0.22862 0.58974 0.0
C1542 C 0.34299 0.24562 0.58735 0.0
C1543 C 0.34266 0.25488 0.63165 0.0
C1544 C 0.34371 0.24699 0.67816 0.0
C1545 C 0.34476 0.23041 0.68169 0.0
C1546 C 0.34591 0.22512 0.73679 0.0
C1547 C 0.33133 0.21473 0.7517 0.0
C1548 C 0.36184 0.21624 0.74702 0.0
C1549 C 0.34553 0.24133 0.76326 0.0
C1550 C 0.34429 0.25376 0.72863 0.0
C1551 C 0.34402 0.26983 0.74361 0.0
C1552 C 0.34482 0.27332 0.79569 0.0
C1553 C 0.34581 0.26076 0.83211 0.0
C1554 C 0.34626 0.24457 0.81541 0.0
H1555 H 0.4835 0.59834 0.54253 0.0
H1556 H 0.52827 0.59215 0.62633 0.0
H1557 H 0.54337 0.59253 0.54639 0.0
H1558 H 0.49431 0.57326 0.43631 0.0
H1559 H 0.48492 0.58588 0.38897 0.0
H1560 H 0.47722 0.58553 0.4531 0.0
H1561 H 0.48059 0.61648 0.45911 0.0
H1562 H 0.48825 0.61691 0.39492 0.0
H1563 H 0.49996 0.62537 0.44618 0.0
H1564 H 0.55402 0.59305 0.45835 0.0
H1565 H 0.55939 0.59411 0.36589 0.0
H1566 H 0.50825 0.59993 0.33711 0.0
C1567 C 0.49647 0.59716 0.54406 0.0
C1568 C 0.50458 0.59518 0.59116 0.0
C1569 C 0.52162 0.59363 0.59114 0.0
C1570 C 0.53041 0.59384 0.54577 0.0
C1571 C 0.5221 0.59564 0.50024 0.0
C1572 C 0.50554 0.59733 0.49877 0.0
C1573 C 0.49973 0.59898 0.44414 0.0
C1574 C 0.48837 0.58508 0.4298 0.0
C1575 C 0.49166 0.61541 0.4356 0.0
C1576 C 0.5156 0.59783 0.41556 0.0
C1577 C 0.52833 0.59594 0.44881 0.0
C1578 C 0.54417 0.59456 0.4318 0.0
C1579 C 0.54711 0.59517 0.37924 0.0
C1580 C 0.53428 0.5971 0.34433 0.0
C1581 C 0.51832 0.59842 0.36289 0.0
H1582 H 0.17096 0.72387 0.25538 0.0
H1583 H 0.13244 0.75003 0.32975 0.0
H1584 H 0.12653 0.76434 0.24987 0.0
H1585 H 0.1859 0.75504 0.18649 0.0
H1586 H 0.1903 0.74441 0.1283 0.0
H1587 H 0.18989 0.73371 0.18788 0.0
H1588 H 0.16856 0.71393 0.15248 0.0
H1589 H 0.1692 0.72431 0.09215 0.0
H1590 H 0.15028 0.72172 0.12476 0.0
H1591 H 0.12879 0.78003 0.17049 0.0
H1592 H 0.13538 0.79252 0.08747 0.0
H1593 H 0.17064 0.75512 0.05935 0.0
C1594 C 0.16077 0.73198 0.25386 0.0
C1595 C 0.15201 0.73575 0.2984 0.0
C1596 C 0.13915 0.7469 0.29577 0.0
C1597 C 0.13575 0.75514 0.25066 0.0
C1598 C 0.14517 0.75194 0.20814 0.0
C1599 C 0.15708 0.74029 0.20857 0.0
C1600 C 0.16604 0.74009 0.15812 0.0
C1601 C 0.1841 0.74352 0.16569 0.0
C1602 C 0.16335 0.72406 0.13022 0.0
C1603 C 0.15776 0.75389 0.13062 0.0
C1604 C 0.14583 0.7606 0.16043 0.0
C1605 C 0.13772 0.77458 0.14597 0.0
C1606 C 0.14164 0.78168 0.09915 0.0
C1607 C 0.15331 0.77462 0.06714 0.0
C1608 C 0.16142 0.76053 0.08292 0.0
H1609 H 0.96528 0.40837 0.86987 0.0
H1610 H 0.00837 0.41067 0.77657 0.0
H1611 H 0.02522 0.40976 0.8536 0.0
H1612 H 0.98012 0.43315 0.97216 0.0
H1613 H 0.97045 0.42142 0.02117 0.0
H1614 H 0.96177 0.42241 0.95838 0.0
H1615 H 0.96229 0.39124 0.95278 0.0
H1616 H 0.97106 0.39017 0.01545 0.0
H1617 H 0.98103 0.38071 0.96234 0.0
H1618 H 0.03751 0.4085 0.94101 0.0
H1619 H 0.04405 0.40754 0.03304 0.0
H1620 H 0.99291 0.40568 0.06769 0.0
C1621 C 0.97824 0.40875 0.86575 0.0
C1622 C 0.9855 0.40965 0.81739 0.0
C1623 C 1.00252 0.41005 0.81338 0.0
C1624 C 0.01224 0.4095 0.85686 0.0
C1625 C 0.00474 0.40851 0.90403 0.0
C1626 C 0.98814 0.40816 0.90878 0.0
C1627 C 0.98314 0.40703 0.96392 0.0
C1628 C 0.97329 0.42189 0.97983 0.0
C1629 C 0.97383 0.39135 0.97421 0.0
C1630 C 0.99949 0.40684 0.98922 0.0
C1631 C 0.01182 0.40768 0.95419 0.0
C1632 C 0.02796 0.40782 0.96896 0.0
C1633 C 0.03156 0.40725 0.0212 0.0
C1634 C 0.01904 0.40655 0.05768 0.0
C1635 C 1.00284 0.40621 0.04104 0.0
H1636 H 0.36097 0.76047 0.89972 0.0
H1637 H 0.32452 0.79769 0.89 0.0
H1638 H 0.3152 0.78646 0.8079 0.0
H1639 H 0.37167 0.76226 0.76928 0.0
H1640 H 0.37559 0.74101 0.76305 0.0
H1641 H 0.37798 0.75069 0.82388 0.0
H1642 H 0.35822 0.73014 0.86398 0.0
H1643 H 0.35558 0.72055 0.80294 0.0
H1644 H 0.33832 0.72788 0.83747 0.0
H1645 H 0.31053 0.77226 0.72718 0.0
H1646 H 0.31337 0.75884 0.64431 0.0
H1647 H 0.35405 0.73152 0.70174 0.0
C1648 C 0.35094 0.76611 0.88029 0.0
C1649 C 0.34335 0.77985 0.90078 0.0
C1650 C 0.33048 0.78719 0.87441 0.0
C1651 C 0.32501 0.78079 0.82824 0.0
C1652 C 0.3327 0.76718 0.80892 0.0
C1653 C 0.34559 0.76009 0.83346 0.0
C1654 C 0.35286 0.74674 0.8014 0.0
C1655 C 0.37057 0.7504 0.78864 0.0
C1656 C 0.35114 0.73035 0.82805 0.0
C1657 C 0.34225 0.7477 0.75446 0.0
C1658 C 0.33045 0.7593 0.76052 0.0
C1659 C 0.31965 0.76311 0.72198 0.0
C1660 C 0.32138 0.75542 0.67508 0.0
C1661 C 0.33395 0.74419 0.66678 0.0
C1662 C 0.34418 0.73984 0.70748 0.0
H1663 H 0.96179 0.59101 0.63857 0.0
H1664 H 0.99899 0.61809 0.71673 0.0
H1665 H 0.01677 0.61546 0.64189 0.0
H1666 H 0.98857 0.56294 0.57965 0.0
H1667 H 0.97727 0.56167 0.52113 0.0
H1668 H 0.96712 0.56622 0.58 0.0
H1669 H 0.95553 0.59245 0.54076 0.0
H1670 H 0.96537 0.58779 0.4815 0.0
H1671 H 0.96905 0.60684 0.51222 0.0
H1672 H 0.03072 0.60949 0.55864 0.0
H1673 H 0.0387 0.60236 0.47043 0.0
H1674 H 0.9927 0.57844 0.44934 0.0
C1675 C 0.97354 0.59665 0.63941 0.0
C1676 C 0.979 0.60487 0.68298 0.0
C1677 C 0.9946 0.61179 0.68336 0.0
C1678 C 0.00481 0.6103 0.64124 0.0
C1679 C 0.99928 0.60173 0.59926 0.0
C1680 C 0.98399 0.5951 0.59789 0.0
C1681 C 0.98107 0.58629 0.54845 0.0
C1682 C 0.97835 0.56821 0.5579 0.0
C1683 C 0.96692 0.5938 0.519 0.0
C1684 C 0.99696 0.58929 0.52198 0.0
C1685 C 0.0074 0.59807 0.55194 0.0
C1686 C 0.02267 0.60256 0.53477 0.0
C1687 C 0.02716 0.59837 0.48487 0.0
C1688 C 0.01632 0.58992 0.45307 0.0
C1689 C 1.00125 0.58499 0.47263 0.0
H1690 H 0.16087 0.27108 0.19582 0.0
H1691 H 0.15928 0.22577 0.11302 0.0
H1692 H 0.15797 0.21101 0.19362 0.0
H1693 H 0.18568 0.25708 0.29858 0.0
H1694 H 0.17526 0.26825 0.34729 0.0
H1695 H 0.17569 0.2757 0.28284 0.0
H1696 H 0.14452 0.27672 0.28145 0.0
H1697 H 0.144 0.26934 0.346 0.0
H1698 H 0.1332 0.25883 0.29659 0.0
H1699 H 0.15761 0.20071 0.2822 0.0
H1700 H 0.15729 0.19575 0.37494 0.0
H1701 H 0.15879 0.24728 0.40214 0.0
C1702 C 0.16013 0.25808 0.19464 0.0
C1703 C 0.16021 0.24969 0.14767 0.0
C1704 C 0.15927 0.23261 0.14813 0.0
C1705 C 0.15852 0.22402 0.19386 0.0
C1706 C 0.15865 0.23259 0.23926 0.0
C1707 C 0.15933 0.24922 0.24026 0.0
C1708 C 0.15936 0.25533 0.29477 0.0
C1709 C 0.17492 0.26464 0.30654 0.0
C1710 C 0.14438 0.26567 0.30531 0.0
C1711 C 0.15871 0.23952 0.32384 0.0
C1712 C 0.15831 0.22658 0.29094 0.0
C1713 C 0.15784 0.21074 0.30847 0.0
C1714 C 0.15768 0.20804 0.36119 0.0
C1715 C 0.15798 0.2211 0.39573 0.0
C1716 C 0.15852 0.23704 0.37665 0.0
H1717 H 0.53961 0.41259 0.12273 0.0
H1718 H 0.49962 0.39204 0.20678 0.0
H1719 H 0.48256 0.39354 0.13008 0.0
H1720 H 0.51631 0.44082 0.05437 0.0
H1721 H 0.52763 0.43922 0.99604 0.0
H1722 H 0.53727 0.43525 0.0562 0.0
H1723 H 0.54589 0.40695 0.02472 0.0
H1724 H 0.5365 0.41093 0.96414 0.0
H1725 H 0.53086 0.39334 0.00018 0.0
H1726 H 0.46942 0.3985 0.0457 0.0
H1727 H 0.4616 0.40549 0.95742 0.0
H1728 H 0.50996 0.42356 0.93027 0.0
C1729 C 0.52739 0.40807 0.12446 0.0
C1730 C 0.52092 0.40209 0.17021 0.0
C1731 C 0.50477 0.39663 0.17174 0.0
C1732 C 0.49498 0.39744 0.12852 0.0
C1733 C 0.50153 0.40383 0.08423 0.0
C1734 C 0.51737 0.40897 0.08173 0.0
C1735 C 0.52118 0.41602 0.0301 0.0
C1736 C 0.52587 0.43389 0.03447 0.0
C1737 C 0.53438 0.40622 0.0032 0.0
C1738 C 0.50504 0.414 0.00419 0.0
C1739 C 0.49385 0.40696 0.03593 0.0
C1740 C 0.47808 0.40398 0.02026 0.0
C1741 C 0.47373 0.40806 0.97024 0.0
C1742 C 0.48514 0.41504 0.93685 0.0
C1743 C 0.50091 0.41819 0.9546 0.0
H1744 H 0.11421 0.31022 0.08823 0.0
H1745 H 0.15874 0.33651 0.11205 0.0
H1746 H 0.14322 0.36047 0.13785 0.0
H1747 H 0.0914 0.34251 0.03706 0.0
H1748 H 0.07291 0.33715 0.06874 0.0
H1749 H 0.08744 0.32181 0.05355 0.0
H1750 H 0.08847 0.31307 0.14829 0.0
H1751 H 0.07379 0.32826 0.16368 0.0
H1752 H 0.09282 0.32785 0.19664 0.0
H1753 H 0.1228 0.38225 0.15527 0.0
H1754 H 0.09897 0.39925 0.17249 0.0
H1755 H 0.06777 0.35851 0.14159 0.0
C1756 C 0.1207 0.32096 0.09944 0.0
C1757 C 0.13771 0.32147 0.09805 0.0
C1758 C 0.14573 0.33578 0.113 0.0
C1759 C 0.13701 0.3495 0.12749 0.0
C1760 C 0.12026 0.3487 0.12748 0.0
C1761 C 0.11218 0.33473 0.11469 0.0
C1762 C 0.09411 0.33704 0.11839 0.0
C1763 C 0.08599 0.33447 0.06633 0.0
C1764 C 0.08687 0.32589 0.15919 0.0
C1765 C 0.09331 0.35454 0.1346 0.0
C1766 C 0.10852 0.36109 0.13922 0.0
C1767 C 0.11082 0.3772 0.15226 0.0
C1768 C 0.09722 0.3868 0.16169 0.0
C1769 C 0.08153 0.38021 0.15858 0.0
C1770 C 0.07962 0.36388 0.14458 0.0
H1771 H 0.89728 0.81194 0.40774 0.0
H1772 H 0.85235 0.83658 0.37522 0.0
H1773 H 0.86745 0.86089 0.35043 0.0
H1774 H 0.91824 0.84543 0.46013 0.0
H1775 H 0.93737 0.84056 0.43168 0.0
H1776 H 0.92317 0.82479 0.44574 0.0
H1777 H 0.92393 0.81544 0.35162 0.0
H1778 H 0.93827 0.83108 0.33738 0.0
H1779 H 0.91979 0.82975 0.30163 0.0
H1780 H 0.88719 0.88317 0.33493 0.0
H1781 H 0.91048 0.90103 0.32029 0.0
H1782 H 0.9429 0.86183 0.35802 0.0
C1783 C 0.89064 0.8224 0.39486 0.0
C1784 C 0.8736 0.82233 0.3935 0.0
C1785 C 0.86537 0.83627 0.37644 0.0
C1786 C 0.87385 0.8502 0.36247 0.0
C1787 C 0.89059 0.84998 0.36512 0.0
C1788 C 0.89894 0.83638 0.38006 0.0
C1789 C 0.91698 0.83936 0.37891 0.0
C1790 C 0.92437 0.83742 0.43229 0.0
C1791 C 0.92523 0.82825 0.34006 0.0
C1792 C 0.91742 0.8568 0.36159 0.0
C1793 C 0.90205 0.86271 0.35434 0.0
C1794 C 0.8993 0.87863 0.33999 0.0
C1795 C 0.91261 0.88872 0.33204 0.0
C1796 C 0.92851 0.88284 0.33783 0.0
C1797 C 0.93089 0.86665 0.353 0.0
H1798 H 0.36892 0.66485 0.58133 0.0
H1799 H 0.39533 0.70905 0.61059 0.0
H1800 H 0.41921 0.69342 0.63373 0.0
H1801 H 0.38765 0.64173 0.68664 0.0
H1802 H 0.38839 0.6232 0.65103 0.0
H1803 H 0.37279 0.63772 0.63818 0.0
H1804 H 0.38119 0.63821 0.54326 0.0
H1805 H 0.39697 0.62388 0.55599 0.0
H1806 H 0.40172 0.64292 0.52666 0.0
H1807 H 0.4407 0.67399 0.64845 0.0
H1808 H 0.45842 0.65096 0.66496 0.0
H1809 H 0.41918 0.61818 0.62991 0.0
C1810 C 0.37965 0.67117 0.59353 0.0
C1811 C 0.38021 0.68824 0.59387 0.0
C1812 C 0.39455 0.69604 0.6096 0.0
C1813 C 0.40826 0.68726 0.62279 0.0
C1814 C 0.40756 0.67058 0.62052 0.0
C1815 C 0.39364 0.66249 0.6072 0.0
C1816 C 0.3965 0.64436 0.6084 0.0
C1817 C 0.38569 0.63627 0.64845 0.0
C1818 C 0.39394 0.6369 0.55542 0.0
C1819 C 0.41418 0.6437 0.62403 0.0
C1820 C 0.42021 0.65905 0.63033 0.0
C1821 C 0.43612 0.66188 0.64411 0.0
C1822 C 0.44613 0.64866 0.65324 0.0
C1823 C 0.44026 0.63271 0.64889 0.0
C1824 C 0.42408 0.63021 0.63327 0.0
H1825 H 0.61486 0.191 0.87677 0.0
H1826 H 0.65572 0.15994 0.90755 0.0
H1827 H 0.63876 0.13607 0.89117 0.0
H1828 H 0.58485 0.16657 0.93405 0.0
H1829 H 0.56967 0.17054 0.8866 0.0
H1830 H 0.58505 0.18529 0.89923 0.0
H1831 H 0.59319 0.18528 0.80396 0.0
H1832 H 0.57769 0.17069 0.7909 0.0
H1833 H 0.59825 0.16653 0.77337 0.0
H1834 H 0.61683 0.11551 0.87748 0.0
H1835 H 0.59246 0.09978 0.85694 0.0
H1836 H 0.56609 0.1441 0.83055 0.0
C1837 C 0.62029 0.17918 0.87946 0.0
C1838 C 0.63665 0.17735 0.89349 0.0
C1839 C 0.64327 0.16167 0.8966 0.0
C1840 C 0.6337 0.14802 0.88765 0.0
C1841 C 0.61755 0.15023 0.87498 0.0
C1842 C 0.61095 0.16542 0.86996 0.0
C1843 C 0.59331 0.16446 0.85519 0.0
C1844 C 0.58259 0.17217 0.89622 0.0
C1845 C 0.59045 0.1722 0.80273 0.0
C1846 C 0.59096 0.14636 0.85326 0.0
C1847 C 0.60506 0.13838 0.86532 0.0
C1848 C 0.60577 0.12163 0.86752 0.0
C1849 C 0.59182 0.1128 0.8561 0.0
C1850 C 0.57736 0.12068 0.84204 0.0
C1851 C 0.57696 0.13771 0.84099 0.0
H1852 H 0.06506 0.63775 0.35375 0.0
H1853 H 0.09464 0.59486 0.34171 0.0
H1854 H 0.11884 0.61103 0.3604 0.0
H1855 H 0.09311 0.66524 0.29646 0.0
H1856 H 0.08851 0.68167 0.33885 0.0
H1857 H 0.07339 0.66678 0.32471 0.0
H1858 H 0.06989 0.66104 0.42108 0.0
H1859 H 0.08496 0.67596 0.43554 0.0
H1860 H 0.08722 0.65566 0.45879 0.0
H1861 H 0.13999 0.63189 0.37744 0.0
H1862 H 0.15654 0.65578 0.3966 0.0
H1863 H 0.11344 0.68528 0.40101 0.0
C1864 C 0.07662 0.63176 0.35519 0.0
C1865 C 0.07793 0.61501 0.34615 0.0
C1866 C 0.0933 0.60764 0.34859 0.0
C1867 C 0.10714 0.61675 0.35907 0.0
C1868 C 0.10546 0.63322 0.36749 0.0
C1869 C 0.0906 0.64067 0.36613 0.0
C1870 C 0.09218 0.65855 0.37725 0.0
C1871 C 0.08646 0.66866 0.33159 0.0
C1872 C 0.08302 0.66306 0.42607 0.0
C1873 C 0.11026 0.65999 0.38472 0.0
C1874 C 0.11767 0.64523 0.37862 0.0
C1875 C 0.1343 0.64349 0.3826 0.0
C1876 C 0.14362 0.65717 0.39339 0.0
C1877 C 0.13632 0.67242 0.4005 0.0
C1878 C 0.11938 0.67379 0.39607 0.0
H1879 H 0.61759 0.81819 0.5879 0.0
H1880 H 0.66088 0.84739 0.58409 0.0
H1881 H 0.64488 0.87133 0.60823 0.0
H1882 H 0.59091 0.84741 0.53562 0.0
H1883 H 0.5742 0.84194 0.57584 0.0
H1884 H 0.58911 0.82711 0.55932 0.0
H1885 H 0.5943 0.82141 0.65504 0.0
H1886 H 0.5793 0.83612 0.67185 0.0
H1887 H 0.59944 0.83783 0.69687 0.0
H1888 H 0.6237 0.89236 0.6298 0.0
H1889 H 0.59953 0.90824 0.65245 0.0
H1890 H 0.57041 0.86496 0.64366 0.0
C1891 C 0.62374 0.82959 0.59242 0.0
C1892 C 0.6405 0.83092 0.58405 0.0
C1893 C 0.64807 0.84607 0.59045 0.0
C1894 C 0.63907 0.85975 0.60399 0.0
C1895 C 0.62253 0.85805 0.6113 0.0
C1896 C 0.61498 0.84331 0.60621 0.0
C1897 C 0.59709 0.84463 0.61644 0.0
C1898 C 0.58725 0.84 0.56897 0.0
C1899 C 0.59225 0.83439 0.66281 0.0
C1900 C 0.59569 0.86244 0.62779 0.0
C1901 C 0.61047 0.87002 0.62443 0.0
C1902 C 0.61209 0.88652 0.63275 0.0
C1903 C 0.59828 0.89546 0.64541 0.0
C1904 C 0.58308 0.88786 0.6499 0.0
C1905 C 0.58185 0.87114 0.64065 0.0
H1906 H 0.40967 0.39056 0.84304 0.0
H1907 H 0.45381 0.36251 0.83719 0.0
H1908 H 0.43899 0.33845 0.86347 0.0
H1909 H 0.39277 0.37058 0.95394 0.0
H1910 H 0.37236 0.37072 0.93063 0.0
H1911 H 0.38622 0.3862 0.91094 0.0
H1912 H 0.38066 0.3792 0.81647 0.0
H1913 H 0.36683 0.36365 0.83589 0.0
H1914 H 0.3835 0.35882 0.79471 0.0
H1915 H 0.4204 0.31753 0.88985 0.0
H1916 H 0.3984 0.30012 0.91807 0.0
H1917 H 0.36507 0.34034 0.90823 0.0
C1918 C 0.41616 0.37934 0.84742 0.0
C1919 C 0.43295 0.37847 0.83782 0.0
C1920 C 0.44099 0.36356 0.84394 0.0
C1921 C 0.43267 0.34975 0.85891 0.0
C1922 C 0.41623 0.35092 0.86763 0.0
C1923 C 0.40795 0.36524 0.86233 0.0
C1924 C 0.39017 0.36281 0.87454 0.0
C1925 C 0.38509 0.3732 0.92024 0.0
C1926 C 0.37967 0.36633 0.8276 0.0
C1927 C 0.38994 0.34496 0.88786 0.0
C1928 C 0.40518 0.33848 0.88325 0.0
C1929 C 0.40839 0.32241 0.89362 0.0
C1930 C 0.39574 0.31261 0.90972 0.0
C1931 C 0.37995 0.31881 0.9155 0.0
C1932 C 0.37698 0.33522 0.90393 0.0
H1933 H 0.86473 0.16289 0.08836 0.0
H1934 H 0.89595 0.20476 0.07877 0.0
H1935 H 0.91913 0.18816 0.1022 0.0
H1936 H 0.88508 0.14386 0.19645 0.0
H1937 H 0.88314 0.12366 0.17222 0.0
H1938 H 0.86841 0.1387 0.15557 0.0
H1939 H 0.87357 0.13321 0.05995 0.0
H1940 H 0.88839 0.11822 0.07631 0.0
H1941 H 0.89375 0.13475 0.03521 0.0
H1942 H 0.93897 0.16806 0.12367 0.0
H1943 H 0.9553 0.14484 0.14731 0.0
H1944 H 0.91273 0.11435 0.14519 0.0
C1945 C 0.87644 0.16851 0.09164 0.0
C1946 C 0.8785 0.18518 0.08146 0.0
C1947 C 0.89403 0.19206 0.08581 0.0
C1948 C 0.90733 0.18272 0.0992 0.0
C1949 C 0.90504 0.16639 0.10803 0.0
C1950 C 0.89009 0.15921 0.10475 0.0
C1951 C 0.89145 0.14121 0.11586 0.0
C1952 C 0.88143 0.13659 0.16283 0.0
C1953 C 0.8865 0.13126 0.06904 0.0
C1954 C 0.90946 0.1396 0.12637 0.0
C1955 C 0.91689 0.15439 0.12111 0.0
C1956 C 0.93332 0.1564 0.1281 0.0
C1957 C 0.94252 0.14302 0.14155 0.0
C1958 C 0.93539 0.12766 0.14838 0.0
C1959 C 0.91857 0.12589 0.14018 0.0
H1960 H 0.88911 0.69454 0.90278 0.0
H1961 H 0.8448 0.66802 0.8774 0.0
H1962 H 0.86058 0.64389 0.85464 0.0
H1963 H 0.91167 0.67598 0.79797 0.0
H1964 H 0.93032 0.67588 0.83307 0.0
H1965 H 0.91548 0.6912 0.8454 0.0
H1966 H 0.91546 0.68334 0.94095 0.0
H1967 H 0.93013 0.66786 0.92882 0.0
H1968 H 0.91129 0.66281 0.95888 0.0
H1969 H 0.88118 0.62199 0.84132 0.0
H1970 H 0.90512 0.60481 0.82863 0.0
H1971 H 0.93609 0.64579 0.85869 0.0
C1972 C 0.88272 0.68372 0.8917 0.0
C1973 C 0.86569 0.68319 0.89186 0.0
C1974 C 0.85782 0.66877 0.87731 0.0
C1975 C 0.86668 0.65496 0.86456 0.0
C1976 C 0.88344 0.65578 0.86596 0.0
C1977 C 0.89139 0.66986 0.8783 0.0
C1978 C 0.9095 0.66752 0.87684 0.0
C1979 C 0.91719 0.67828 0.83587 0.0
C1980 C 0.91703 0.67056 0.92951 0.0
C1981 C 0.91048 0.64987 0.86235 0.0
C1982 C 0.8953 0.6433 0.85669 0.0
C1983 C 0.89312 0.62706 0.84513 0.0
C1984 C 0.9068 0.61737 0.8383 0.0
C1985 C 0.92248 0.62395 0.84251 0.0
C1986 C 0.92427 0.64042 0.85493 0.0
H1987 H 0.14173 0.16691 0.60186 0.0
H1988 H 0.1111 0.20924 0.59883 0.0
H1989 H 0.08808 0.19285 0.62643 0.0
H1990 H 0.11251 0.13969 0.55201 0.0
H1991 H 0.11809 0.12282 0.59146 0.0
H1992 H 0.13286 0.13786 0.57525 0.0
H1993 H 0.13875 0.14266 0.67087 0.0
H1994 H 0.1241 0.12752 0.68739 0.0
H1995 H 0.1224 0.14754 0.71328 0.0
H1996 H 0.06822 0.17251 0.65013 0.0
H1997 H 0.052 0.14887 0.67171 0.0
H1998 H 0.0943 0.11838 0.65876 0.0
C1999 C 0.13023 0.17272 0.60803 0.0
C2000 C 0.12824 0.18942 0.59847 0.0
C2001 C 0.11294 0.19653 0.60595 0.0
C2002 C 0.09977 0.18731 0.62164 0.0
C2003 C 0.10198 0.1709 0.6296 0.0
C2004 C 0.11677 0.16358 0.62339 0.0
C2005 C 0.11543 0.14552 0.63296 0.0
C2006 C 0.11999 0.13591 0.58506 0.0
C2007 C 0.12578 0.14052 0.67886 0.0
C2008 C 0.09755 0.14392 0.64482 0.0
C2009 C 0.09018 0.15883 0.64285 0.0
C2010 C 0.07384 0.16078 0.65211 0.0
C2011 C 0.06472 0.1472 0.66437 0.0
C2012 C 0.07182 0.13171 0.66714 0.0
C2013 C 0.0885 0.13003 0.65677 0.0
H2014 H 0.59297 0.38909 0.33166 0.0
H2015 H 0.54947 0.36223 0.36661 0.0
H2016 H 0.56572 0.33952 0.39645 0.0
H2017 H 0.61549 0.35554 0.28463 0.0
H2018 H 0.63449 0.36151 0.31191 0.0
H2019 H 0.61971 0.37654 0.29578 0.0
H2020 H 0.62038 0.38731 0.38826 0.0
H2021 H 0.63526 0.37238 0.40459 0.0
H2022 H 0.61682 0.37366 0.44047 0.0
H2023 H 0.58568 0.31932 0.41867 0.0
H2024 H 0.6091 0.30223 0.43557 0.0
H2025 H 0.64092 0.34086 0.38718 0.0
C2026 C 0.58695 0.3785 0.34634 0.0
C2027 C 0.56991 0.37747 0.34671 0.0
C2028 C 0.56246 0.36333 0.36562 0.0
C2029 C 0.57159 0.35032 0.38282 0.0
C2030 C 0.58825 0.35152 0.38101 0.0
C2031 C 0.59598 0.36519 0.36362 0.0
C2032 C 0.61417 0.36279 0.36483 0.0
C2033 C 0.62139 0.36418 0.31108 0.0
C2034 C 0.62213 0.37475 0.40174 0.0
C2035 C 0.61528 0.3456 0.3849 0.0
C2036 C 0.6001 0.3395 0.39404 0.0
C2037 C 0.59767 0.32395 0.41202 0.0
C2038 C 0.61111 0.31432 0.42145 0.0
C2039 C 0.6269 0.32016 0.41286 0.0
C2040 C 0.62901 0.33605 0.39412 0.0
H2041 H 0.36767 0.84499 0.07792 0.0
H2042 H 0.39765 0.80223 0.0857 0.0
H2043 H 0.42022 0.81849 0.11723 0.0
H2044 H 0.39908 0.87122 0.03249 0.0
H2045 H 0.39267 0.88857 0.06836 0.0
H2046 H 0.37817 0.87362 0.04917 0.0
H2047 H 0.36936 0.86998 0.14306 0.0
H2048 H 0.38381 0.88495 0.16252 0.0
H2049 H 0.38425 0.86516 0.19069 0.0
H2050 H 0.43967 0.83862 0.14559 0.0
H2051 H 0.45578 0.86224 0.16847 0.0
H2052 H 0.41449 0.8932 0.14113 0.0
C2053 C 0.37896 0.8391 0.08682 0.0
C2054 C 0.3809 0.82232 0.07939 0.0
C2055 C 0.3959 0.81506 0.09077 0.0
C2056 C 0.4088 0.82418 0.10891 0.0
C2057 C 0.40665 0.84065 0.11517 0.0
C2058 C 0.3922 0.84816 0.10442 0.0
C2059 C 0.39363 0.86625 0.1127 0.0
C2060 C 0.39071 0.87546 0.0627 0.0
C2061 C 0.38208 0.87192 0.15475 0.0
C2062 C 0.41111 0.8676 0.12966 0.0
C2063 C 0.41825 0.85259 0.13095 0.0
C2064 C 0.43425 0.85046 0.14484 0.0
C2065 C 0.44332 0.86402 0.15776 0.0
C2066 C 0.43646 0.87963 0.15663 0.0
C2067 C 0.42008 0.88143 0.1424 0.0
H2068 H 0.91294 0.39231 0.63794 0.0
H2069 H 0.95044 0.36123 0.69857 0.0
H2070 H 0.93306 0.33777 0.68693 0.0
H2071 H 0.87874 0.36991 0.69274 0.0
H2072 H 0.86609 0.37241 0.63749 0.0
H2073 H 0.88099 0.38742 0.65279 0.0
H2074 H 0.89343 0.38437 0.56291 0.0
H2075 H 0.87853 0.3694 0.54731 0.0
H2076 H 0.89963 0.36473 0.54126 0.0
H2077 H 0.91296 0.31742 0.66618 0.0
H2078 H 0.89075 0.30067 0.63423 0.0
H2079 H 0.86511 0.34363 0.58628 0.0
C2080 C 0.91739 0.38058 0.64906 0.0
C2081 C 0.93313 0.37871 0.66922 0.0
C2082 C 0.93852 0.36309 0.68288 0.0
C2083 C 0.92869 0.34961 0.67667 0.0
C2084 C 0.91338 0.35177 0.65661 0.0
C2085 C 0.90765 0.36677 0.64277 0.0
C2086 C 0.89083 0.36528 0.61999 0.0
C2087 C 0.87843 0.37429 0.65271 0.0
C2088 C 0.8906 0.3713 0.56458 0.0
C2089 C 0.88825 0.34713 0.62272 0.0
C2090 C 0.90145 0.3397 0.6444 0.0
C2091 C 0.90247 0.32306 0.64947 0.0
C2092 C 0.88979 0.31364 0.63112 0.0
C2093 C 0.87616 0.32081 0.60805 0.0
C2094 C 0.87526 0.33783 0.60452 0.0
H2095 H 0.37119 0.16 0.41342 0.0
H2096 H 0.40041 0.20095 0.45874 0.0
H2097 H 0.42494 0.1856 0.44027 0.0
H2098 H 0.39838 0.12898 0.46482 0.0
H2099 H 0.395 0.11523 0.41281 0.0
H2100 H 0.37938 0.12906 0.43162 0.0
H2101 H 0.37794 0.14013 0.3395 0.0
H2102 H 0.3935 0.12631 0.32041 0.0
H2103 H 0.396 0.1476 0.30958 0.0
H2104 H 0.4463 0.16705 0.41212 0.0
H2105 H 0.46353 0.14572 0.37621 0.0
H2106 H 0.42141 0.11583 0.35131 0.0
C2107 C 0.38275 0.16565 0.41978 0.0
C2108 C 0.3838 0.18172 0.43761 0.0
C2109 C 0.3992 0.18869 0.44521 0.0
C2110 C 0.41327 0.18006 0.43492 0.0
C2111 C 0.41187 0.16435 0.41728 0.0
C2112 C 0.39707 0.15712 0.40987 0.0
C2113 C 0.39917 0.14015 0.38915 0.0
C2114 C 0.39259 0.12762 0.42686 0.0
C2115 C 0.39118 0.13846 0.33653 0.0
C2116 C 0.41742 0.13919 0.3853 0.0
C2117 C 0.42443 0.15332 0.40191 0.0
C2118 C 0.441 0.15583 0.39958 0.0
C2119 C 0.45068 0.14366 0.37908 0.0
C2120 C 0.44384 0.12909 0.36157 0.0
C2121 C 0.427 0.12674 0.36544 0.0
H2122 H 0.6365 0.66653 0.10662 0.0
H2123 H 0.60476 0.69841 0.0221 0.0
H2124 H 0.58221 0.67991 0.03637 0.0
H2125 H 0.61814 0.62851 0.06341 0.0
H2126 H 0.6201 0.61881 0.12455 0.0
H2127 H 0.63435 0.63404 0.10565 0.0
H2128 H 0.62808 0.65016 0.18763 0.0
H2129 H 0.61382 0.63498 0.20677 0.0
H2130 H 0.60756 0.65568 0.2015 0.0
H2131 H 0.56252 0.65973 0.06474 0.0
H2132 H 0.54672 0.63784 0.10411 0.0
H2133 H 0.5904 0.61758 0.16783 0.0
C2134 C 0.62485 0.66947 0.09065 0.0
C2135 C 0.62246 0.68399 0.06324 0.0
C2136 C 0.60696 0.68746 0.04343 0.0
C2137 C 0.59402 0.67699 0.05116 0.0
C2138 C 0.59665 0.66296 0.07877 0.0
C2139 C 0.61164 0.65906 0.09814 0.0
C2140 C 0.61078 0.64341 0.12824 0.0
C2141 C 0.62148 0.63042 0.10399 0.0
C2142 C 0.61533 0.64623 0.18436 0.0
C2143 C 0.593 0.63928 0.12277 0.0
C2144 C 0.58514 0.65083 0.09418 0.0
C2145 C 0.56855 0.65046 0.08653 0.0
C2146 C 0.55967 0.63802 0.10903 0.0
C2147 C 0.56739 0.62597 0.13807 0.0
C2148 C 0.58431 0.62648 0.14461 0.0
H2149 H 0.06843 0.86255 0.83802 0.0
H2150 H 0.09859 0.90522 0.83752 0.0
H2151 H 0.12236 0.88842 0.85657 0.0
H2152 H 0.08884 0.8429 0.94331 0.0
H2153 H 0.08661 0.82299 0.91701 0.0
H2154 H 0.07198 0.83833 0.90251 0.0
H2155 H 0.07678 0.83382 0.80605 0.0
H2156 H 0.0915 0.81854 0.82026 0.0
H2157 H 0.09689 0.83547 0.78081 0.0
H2158 H 0.143 0.867 0.8728 0.0
H2159 H 0.15886 0.84273 0.89277 0.0
H2160 H 0.11537 0.81381 0.88702 0.0
C2161 C 0.08004 0.86835 0.842 0.0
C2162 C 0.08166 0.88522 0.83608 0.0
C2163 C 0.09704 0.89235 0.84198 0.0
C2164 C 0.11063 0.88289 0.8526 0.0
C2165 C 0.10866 0.86631 0.85779 0.0
C2166 C 0.09374 0.85909 0.85333 0.0
C2167 C 0.09491 0.84106 0.86221 0.0
C2168 C 0.085 0.83603 0.90905 0.0
C2169 C 0.08971 0.83167 0.81448 0.0
C2170 C 0.11284 0.83925 0.87201 0.0
C2171 C 0.12053 0.85397 0.8688 0.0
C2172 C 0.13709 0.85542 0.87566 0.0
C2173 C 0.14601 0.84153 0.88682 0.0
C2174 C 0.13839 0.82633 0.89155 0.0
C2175 C 0.12156 0.82523 0.88371 0.0
loop_
_geom_bond_atom_site_label_1
_geom_bond_atom_site_label_2
_geom_bond_distance
_geom_bond_site_symmetry_2
_ccdc_geom_bond_type
Co0 O1 2.216 . S
Co0 O2 2.091 . S
Co0 O4 2.004 . S
Co0 O10 2.021 . S
Co0 O12 2.137 1_554 S
Co0 O13 2.244 . S
O1 Co0 2.216 . S
O1 C8 1.247 . S
O2 Co0 2.091 . S
O2 C8 1.261 . S
C3 O12 1.247 . S
C3 O13 1.272 1_556 S
O4 Co0 2.004 . S
O4 C9 1.259 . S
Co5 O6 2.061 . S
Co5 O11 2.052 . S
Co5 O13 2.135 . S
O6 Co5 2.061 . S
O6 C9 1.235 . S
C7 O10 1.238 . S
C7 O11 1.241 . S
C8 O1 1.247 . S
C8 O2 1.261 . S
C9 O4 1.259 . S
C9 O6 1.235 . S
O10 Co0 2.021 . S
O10 C7 1.238 . S
O11 Co5 2.052 . S
O11 C7 1.241 . S
O12 Co0 2.137 1_556 S
O12 C3 1.247 . S
O13 Co0 2.244 . S
O13 C3 1.272 1_554 S
O13 Co5 2.135 . S
Co14 O15 2.216 . S
Co14 O16 2.091 . S
Co14 O18 2.004 . S
Co14 O24 2.021 . S
Co14 O26 2.137 . S
Co14 O27 2.244 . S
O15 Co14 2.216 . S
O15 C22 1.247 . S
O16 Co14 2.091 . S
O16 C22 1.261 . S
C17 O26 1.247 . S
C17 O27 1.272 . S
O18 Co14 2.004 . S
O18 C23 1.259 . S
Co19 O20 2.061 . S
Co19 O25 2.052 . S
Co19 O27 2.135 . S
O20 Co19 2.061 . S
O20 C23 1.235 . S
C21 O24 1.238 . S
C21 O25 1.241 . S
C22 O15 1.247 . S
C22 O16 1.261 . S
C23 O18 1.259 . S
C23 O20 1.235 . S
O24 Co14 2.021 . S
O24 C21 1.238 . S
O25 Co19 2.052 . S
O25 C21 1.241 . S
O26 Co14 2.137 . S
O26 C17 1.247 . S
O27 Co14 2.244 . S
O27 C17 1.272 . S
O27 Co19 2.135 . S
Co28 O29 2.216 . S
Co28 O30 2.091 . S
Co28 O32 2.004 . S
Co28 O38 2.021 . S
Co28 O40 2.137 . S
Co28 O41 2.244 . S
O29 Co28 2.216 . S
O29 C36 1.247 . S
O30 Co28 2.091 . S
O30 C36 1.261 . S
C31 O40 1.247 . S
C31 O41 1.272 . S
O32 Co28 2.004 . S
O32 C37 1.259 . S
Co33 O34 2.061 . S
Co33 O39 2.052 . S
Co33 O41 2.135 . S
O34 Co33 2.061 . S
O34 C37 1.235 . S
C35 O38 1.238 . S
C35 O39 1.241 . S
C36 O29 1.247 . S
C36 O30 1.261 . S
C37 O32 1.259 . S
C37 O34 1.235 . S
O38 Co28 2.021 . S
O38 C35 1.238 . S
O39 Co33 2.052 . S
O39 C35 1.241 . S
O40 Co28 2.137 . S
O40 C31 1.247 . S
O41 Co28 2.244 . S
O41 C31 1.272 . S
O41 Co33 2.135 . S
Co42 O43 2.216 . S
Co42 O44 2.091 . S
Co42 O46 2.004 . S
Co42 O52 2.021 . S
Co42 O54 2.137 . S
Co42 O55 2.244 . S
O43 Co42 2.216 . S
O43 C50 1.247 . S
O44 Co42 2.091 . S
O44 C50 1.261 . S
C45 O54 1.247 . S
C45 O55 1.272 . S
O46 Co42 2.004 . S
O46 C51 1.259 . S
Co47 O48 2.061 . S
Co47 O53 2.052 . S
Co47 O55 2.135 . S
O48 Co47 2.061 . S
O48 C51 1.235 . S
C49 O52 1.238 . S
C49 O53 1.241 . S
C50 O43 1.247 . S
C50 O44 1.261 . S
C51 O46 1.259 . S
C51 O48 1.235 . S
O52 Co42 2.021 . S
O52 C49 1.238 . S
O53 Co47 2.052 . S
O53 C49 1.241 . S
O54 Co42 2.137 . S
O54 C45 1.247 . S
O55 Co42 2.244 . S
O55 C45 1.272 . S
O55 Co47 2.135 . S
Co56 O57 2.216 . S
Co56 O58 2.091 . S
Co56 O60 2.004 . S
Co56 O66 2.021 . S
Co56 O68 2.137 . S
Co56 O69 2.244 . S
O57 Co56 2.216 . S
O57 C64 1.247 . S
O58 Co56 2.091 . S
O58 C64 1.261 . S
C59 O68 1.247 . S
C59 O69 1.272 . S
O60 Co56 2.004 . S
O60 C65 1.259 . S
Co61 O62 2.061 . S
Co61 O67 2.052 . S
Co61 O69 2.135 . S
O62 Co61 2.061 . S
O62 C65 1.235 . S
C63 O66 1.238 . S
C63 O67 1.241 . S
C64 O57 1.247 . S
C64 O58 1.261 . S
C65 O60 1.259 . S
C65 O62 1.235 . S
O66 Co56 2.021 . S
O66 C63 1.238 . S
O67 Co61 2.052 . S
O67 C63 1.241 . S
O68 Co56 2.137 . S
O68 C59 1.247 . S
O69 Co56 2.244 . S
O69 C59 1.272 . S
O69 Co61 2.135 . S
Co70 O71 2.216 . S
Co70 O72 2.091 . S
Co70 O74 2.004 . S
Co70 O80 2.021 . S
Co70 O82 2.137 . S
Co70 O83 2.244 . S
O71 Co70 2.216 . S
O71 C78 1.247 . S
O72 Co70 2.091 . S
O72 C78 1.261 . S
C73 O82 1.247 . S
C73 O83 1.272 . S
O74 Co70 2.004 . S
O74 C79 1.259 . S
Co75 O76 2.061 . S
Co75 O81 2.052 . S
Co75 O83 2.135 . S
O76 Co75 2.061 . S
O76 C79 1.235 . S
C77 O80 1.238 . S
C77 O81 1.241 . S
C78 O71 1.247 . S
C78 O72 1.261 . S
C79 O74 1.259 . S
C79 O76 1.235 . S
O80 Co70 2.021 . S
O80 C77 1.238 . S
O81 Co75 2.052 . S
O81 C77 1.241 . S
O82 Co70 2.137 . S
O82 C73 1.247 . S
O83 Co70 2.244 . S
O83 C73 1.272 . S
O83 Co75 2.135 . S
Co84 O85 2.216 . S
Co84 O86 2.091 . S
Co84 O88 2.004 . S
Co84 O94 2.021 . S
Co84 O96 2.137 1_556 S
Co84 O97 2.244 . S
O85 Co84 2.216 . S
O85 C92 1.247 . S
O86 Co84 2.091 . S
O86 C92 1.261 . S
C87 O96 1.247 . S
C87 O97 1.272 1_554 S
O88 Co84 2.004 . S
O88 C93 1.259 . S
Co89 O90 2.061 . S
Co89 O95 2.052 . S
Co89 O97 2.135 . S
O90 Co89 2.061 . S
O90 C93 1.235 . S
C91 O94 1.238 . S
C91 O95 1.241 . S
C92 O85 1.247 . S
C92 O86 1.261 . S
C93 O88 1.259 . S
C93 O90 1.235 . S
O94 Co84 2.021 . S
O94 C91 1.238 . S
O95 Co89 2.052 . S
O95 C91 1.241 . S
O96 Co84 2.137 1_554 S
O96 C87 1.247 . S
O97 Co84 2.244 . S
O97 C87 1.272 1_556 S
O97 Co89 2.135 . S
Co98 O99 2.216 . S
Co98 O100 2.091 . S
Co98 O102 2.004 . S
Co98 O108 2.021 . S
Co98 O110 2.137 . S
Co98 O111 2.244 . S
O99 Co98 2.216 . S
O99 C106 1.247 . S
O100 Co98 2.091 . S
O100 C106 1.261 . S
C101 O110 1.247 . S
C101 O111 1.272 . S
O102 Co98 2.004 . S
O102 C107 1.259 . S
Co103 O104 2.061 . S
Co103 O109 2.052 . S
Co103 O111 2.135 . S
O104 Co103 2.061 . S
O104 C107 1.235 . S
C105 O108 1.238 . S
C105 O109 1.241 . S
C106 O99 1.247 . S
C106 O100 1.261 . S
C107 O102 1.259 . S
C107 O104 1.235 . S
O108 Co98 2.021 . S
O108 C105 1.238 . S
O109 Co103 2.052 . S
O109 C105 1.241 . S
O110 Co98 2.137 . S
O110 C101 1.247 . S
O111 Co98 2.244 . S
O111 C101 1.272 . S
O111 Co103 2.135 . S
Co112 O113 2.216 . S
Co112 O114 2.091 . S
Co112 O116 2.004 . S
Co112 O122 2.021 . S
Co112 O124 2.137 1_556 S
Co112 O125 2.244 . S
O113 Co112 2.216 . S
O113 C120 1.247 . S
O114 Co112 2.091 . S
O114 C120 1.261 . S
C115 O124 1.247 . S
C115 O125 1.272 1_554 S
O116 Co112 2.004 . S
O116 C121 1.259 . S
Co117 O118 2.061 . S
Co117 O123 2.052 . S
Co117 O125 2.135 . S
O118 Co117 2.061 . S
O118 C121 1.235 . S
C119 O122 1.238 . S
C119 O123 1.241 . S
C120 O113 1.247 . S
C120 O114 1.261 . S
C121 O116 1.259 . S
C121 O118 1.235 . S
O122 Co112 2.021 . S
O122 C119 1.238 . S
O123 Co117 2.052 . S
O123 C119 1.241 . S
O124 Co112 2.137 1_554 S
O124 C115 1.247 . S
O125 Co112 2.244 . S
O125 C115 1.272 1_556 S
O125 Co117 2.135 . S
Co126 O127 2.216 . S
Co126 O128 2.091 . S
Co126 O130 2.004 . S
Co126 O136 2.021 . S
Co126 O138 2.137 . S
Co126 O139 2.244 . S
O127 Co126 2.216 . S
O127 C134 1.247 . S
O128 Co126 2.091 . S
O128 C134 1.261 . S
C129 O138 1.247 . S
C129 O139 1.272 . S
O130 Co126 2.004 . S
O130 C135 1.259 . S
Co131 O132 2.061 . S
Co131 O137 2.052 . S
Co131 O139 2.135 . S
O132 Co131 2.061 . S
O132 C135 1.235 . S
C133 O136 1.238 . S
C133 O137 1.241 . S
C134 O127 1.247 . S
C134 O128 1.261 . S
C135 O130 1.259 . S
C135 O132 1.235 . S
O136 Co126 2.021 . S
O136 C133 1.238 . S
O137 Co131 2.052 . S
O137 C133 1.241 . S
O138 Co126 2.137 . S
O138 C129 1.247 . S
O139 Co126 2.244 . S
O139 C129 1.272 . S
O139 Co131 2.135 . S
Co140 O141 2.216 . S
Co140 O142 2.091 . S
Co140 O144 2.004 . S
Co140 O150 2.021 . S
Co140 O152 2.137 . S
Co140 O153 2.244 . S
O141 Co140 2.216 . S
O141 C148 1.247 . S
O142 Co140 2.091 . S
O142 C148 1.261 . S
C143 O152 1.247 . S
C143 O153 1.272 . S
O144 Co140 2.004 . S
O144 C149 1.259 . S
Co145 O146 2.061 . S
Co145 O151 2.052 . S
Co145 O153 2.135 . S
O146 Co145 2.061 . S
O146 C149 1.235 . S
C147 O150 1.238 . S
C147 O151 1.241 . S
C148 O141 1.247 . S
C148 O142 1.261 . S
C149 O144 1.259 . S
C149 O146 1.235 . S
O150 Co140 2.021 . S
O150 C147 1.238 . S
O151 Co145 2.052 . S
O151 C147 1.241 . S
O152 Co140 2.137 . S
O152 C143 1.247 . S
O153 Co140 2.244 . S
O153 C143 1.272 . S
O153 Co145 2.135 . S
Co154 O155 2.216 . S
Co154 O156 2.091 . S
Co154 O158 2.004 . S
Co154 O164 2.021 . S
Co154 O166 2.137 . S
Co154 O167 2.244 . S
O155 Co154 2.216 . S
O155 C162 1.247 . S
O156 Co154 2.091 . S
O156 C162 1.261 . S
C157 O166 1.247 . S
C157 O167 1.272 . S
O158 Co154 2.004 . S
O158 C163 1.259 . S
Co159 O160 2.061 . S
Co159 O165 2.052 . S
Co159 O167 2.135 . S
O160 Co159 2.061 . S
O160 C163 1.235 . S
C161 O164 1.238 . S
C161 O165 1.241 . S
C162 O155 1.247 . S
C162 O156 1.261 . S
C163 O158 1.259 . S
C163 O160 1.235 . S
O164 Co154 2.021 . S
O164 C161 1.238 . S
O165 Co159 2.052 . S
O165 C161 1.241 . S
O166 Co154 2.137 . S
O166 C157 1.247 . S
O167 Co154 2.244 . S
O167 C157 1.272 . S
O167 Co159 2.135 . S
Co168 O169 2.216 . S
Co168 O170 2.091 . S
Co168 O172 2.004 . S
Co168 O178 2.021 . S
Co168 O180 2.137 . S
Co168 O181 2.244 . S
O169 Co168 2.216 . S
O169 C176 1.247 . S
O170 Co168 2.091 . S
O170 C176 1.261 . S
C171 O180 1.247 . S
C171 O181 1.272 . S
O172 Co168 2.004 . S
O172 C177 1.259 . S
Co173 O174 2.061 . S
Co173 O179 2.052 . S
Co173 O181 2.135 . S
O174 Co173 2.061 . S
O174 C177 1.235 . S
C175 O178 1.238 . S
C175 O179 1.241 . S
C176 O169 1.247 . S
C176 O170 1.261 . S
C177 O172 1.259 . S
C177 O174 1.235 . S
O178 Co168 2.021 . S
O178 C175 1.238 . S
O179 Co173 2.052 . S
O179 C175 1.241 . S
O180 Co168 2.137 . S
O180 C171 1.247 . S
O181 Co168 2.244 . S
O181 C171 1.272 . S
O181 Co173 2.135 . S
Co182 O183 2.216 . S
Co182 O184 2.091 . S
Co182 O186 2.004 . S
Co182 O192 2.021 . S
Co182 O194 2.137 . S
Co182 O195 2.244 . S
O183 Co182 2.216 . S
O183 C190 1.247 . S
O184 Co182 2.091 . S
O184 C190 1.261 . S
C185 O194 1.247 . S
C185 O195 1.272 . S
O186 Co182 2.004 . S
O186 C191 1.259 . S
Co187 O188 2.061 . S
Co187 O193 2.052 . S
Co187 O195 2.135 . S
O188 Co187 2.061 . S
O188 C191 1.235 . S
C189 O192 1.238 . S
C189 O193 1.241 . S
C190 O183 1.247 . S
C190 O184 1.261 . S
C191 O186 1.259 . S
C191 O188 1.235 . S
O192 Co182 2.021 . S
O192 C189 1.238 . S
O193 Co187 2.052 . S
O193 C189 1.241 . S
O194 Co182 2.137 . S
O194 C185 1.247 . S
O195 Co182 2.244 . S
O195 C185 1.272 . S
O195 Co187 2.135 . S
Co196 O197 2.216 . S
Co196 O198 2.091 . S
Co196 O200 2.004 . S
Co196 O206 2.021 . S
Co196 O208 2.137 1_554 S
Co196 O209 2.244 . S
O197 Co196 2.216 . S
O197 C204 1.247 . S
O198 Co196 2.091 . S
O198 C204 1.261 . S
C199 O208 1.247 . S
C199 O209 1.272 1_556 S
O200 Co196 2.004 . S
O200 C205 1.259 . S
Co201 O202 2.061 . S
Co201 O207 2.052 . S
Co201 O209 2.135 . S
O202 Co201 2.061 . S
O202 C205 1.235 . S
C203 O206 1.238 . S
C203 O207 1.241 . S
C204 O197 1.247 . S
C204 O198 1.261 . S
C205 O200 1.259 . S
C205 O202 1.235 . S
O206 Co196 2.021 . S
O206 C203 1.238 . S
O207 Co201 2.052 . S
O207 C203 1.241 . S
O208 Co196 2.137 1_556 S
O208 C199 1.247 . S
O209 Co196 2.244 . S
O209 C199 1.272 1_554 S
O209 Co201 2.135 . S
Co210 O211 2.216 . S
Co210 O212 2.091 . S
Co210 O214 2.004 . S
Co210 O220 2.021 . S
Co210 O222 2.137 . S
Co210 O223 2.244 . S
O211 Co210 2.216 . S
O211 C218 1.247 . S
O212 Co210 2.091 . S
O212 C218 1.261 . S
C213 O222 1.247 . S
C213 O223 1.272 . S
O214 Co210 2.004 . S
O214 C219 1.259 . S
Co215 O216 2.061 . S
Co215 O221 2.052 . S
Co215 O223 2.135 . S
O216 Co215 2.061 . S
O216 C219 1.235 . S
C217 O220 1.238 . S
C217 O221 1.241 . S
C218 O211 1.247 . S
C218 O212 1.261 . S
C219 O214 1.259 . S
C219 O216 1.235 . S
O220 Co210 2.021 . S
O220 C217 1.238 . S
O221 Co215 2.052 . S
O221 C217 1.241 . S
O222 Co210 2.137 . S
O222 C213 1.247 . S
O223 Co210 2.244 . S
O223 C213 1.272 . S
O223 Co215 2.135 . S
Co224 O225 2.216 . S
Co224 O226 2.091 . S
Co224 O228 2.004 . S
Co224 O234 2.021 . S
Co224 O236 2.137 . S
Co224 O237 2.244 . S
O225 Co224 2.216 . S
O225 C232 1.247 . S
O226 Co224 2.091 . S
O226 C232 1.261 . S
C227 O236 1.247 . S
C227 O237 1.272 . S
O228 Co224 2.004 . S
O228 C233 1.259 . S
Co229 O230 2.061 . S
Co229 O235 2.052 . S
Co229 O237 2.135 . S
O230 Co229 2.061 . S
O230 C233 1.235 . S
C231 O234 1.238 . S
C231 O235 1.241 . S
C232 O225 1.247 . S
C232 O226 1.261 . S
C233 O228 1.259 . S
C233 O230 1.235 . S
O234 Co224 2.021 . S
O234 C231 1.238 . S
O235 Co229 2.052 . S
O235 C231 1.241 . S
O236 Co224 2.137 . S
O236 C227 1.247 . S
O237 Co224 2.244 . S
O237 C227 1.272 . S
O237 Co229 2.135 . S
Co238 O239 2.216 . S
Co238 O240 2.091 . S
Co238 O242 2.004 . S
Co238 O248 2.021 . S
Co238 O250 2.137 . S
Co238 O251 2.244 . S
O239 Co238 2.216 . S
O239 C246 1.247 . S
O240 Co238 2.091 . S
O240 C246 1.261 . S
C241 O250 1.247 . S
C241 O251 1.272 . S
O242 Co238 2.004 . S
O242 C247 1.259 . S
Co243 O244 2.061 . S
Co243 O249 2.052 . S
Co243 O251 2.135 . S
O244 Co243 2.061 . S
O244 C247 1.235 . S
C245 O248 1.238 . S
C245 O249 1.241 . S
C246 O239 1.247 . S
C246 O240 1.261 . S
C247 O242 1.259 . S
C247 O244 1.235 . S
O248 Co238 2.021 . S
O248 C245 1.238 . S
O249 Co243 2.052 . S
O249 C245 1.241 . S
O250 Co238 2.137 . S
O250 C241 1.247 . S
O251 Co238 2.244 . S
O251 C241 1.272 . S
O251 Co243 2.135 . S
Co252 O253 2.216 . S
Co252 O254 2.091 . S
Co252 O256 2.004 . S
Co252 O262 2.021 . S
Co252 O264 2.137 1_554 S
Co252 O265 2.244 . S
O253 Co252 2.216 . S
O253 C260 1.247 . S
O254 Co252 2.091 . S
O254 C260 1.261 . S
C255 O264 1.247 . S
C255 O265 1.272 1_556 S
O256 Co252 2.004 . S
O256 C261 1.259 . S
Co257 O258 2.061 . S
Co257 O263 2.052 . S
Co257 O265 2.135 . S
O258 Co257 2.061 . S
O258 C261 1.235 . S
C259 O262 1.238 . S
C259 O263 1.241 . S
C260 O253 1.247 . S
C260 O254 1.261 . S
C261 O256 1.259 . S
C261 O258 1.235 . S
O262 Co252 2.021 . S
O262 C259 1.238 . S
O263 Co257 2.052 . S
O263 C259 1.241 . S
O264 Co252 2.137 1_556 S
O264 C255 1.247 . S
O265 Co252 2.244 . S
O265 C255 1.272 1_554 S
O265 Co257 2.135 . S
Co266 O267 2.216 . S
Co266 O268 2.091 . S
Co266 O270 2.004 . S
Co266 O276 2.021 . S
Co266 O278 2.137 . S
Co266 O279 2.244 . S
O267 Co266 2.216 . S
O267 C274 1.247 . S
O268 Co266 2.091 . S
O268 C274 1.261 . S
C269 O278 1.247 . S
C269 O279 1.272 . S
O270 Co266 2.004 . S
O270 C275 1.259 . S
Co271 O272 2.061 . S
Co271 O277 2.052 . S
Co271 O279 2.135 . S
O272 Co271 2.061 . S
O272 C275 1.235 . S
C273 O276 1.238 . S
C273 O277 1.241 . S
C274 O267 1.247 . S
C274 O268 1.261 . S
C275 O270 1.259 . S
C275 O272 1.235 . S
O276 Co266 2.021 . S
O276 C273 1.238 . S
O277 Co271 2.052 . S
O277 C273 1.241 . S
O278 Co266 2.137 . S
O278 C269 1.247 . S
O279 Co266 2.244 . S
O279 C269 1.272 . S
O279 Co271 2.135 . S
Co280 O281 2.216 . S
Co280 O282 2.091 . S
Co280 O284 2.004 . S
Co280 O290 2.021 . S
Co280 O292 2.137 1_556 S
Co280 O293 2.244 . S
O281 Co280 2.216 . S
O281 C288 1.247 . S
O282 Co280 2.091 . S
O282 C288 1.261 . S
C283 O292 1.247 . S
C283 O293 1.272 1_554 S
O284 Co280 2.004 . S
O284 C289 1.259 . S
Co285 O286 2.061 . S
Co285 O291 2.052 . S
Co285 O293 2.135 . S
O286 Co285 2.061 . S
O286 C289 1.235 . S
C287 O290 1.238 . S
C287 O291 1.241 . S
C288 O281 1.247 . S
C288 O282 1.261 . S
C289 O284 1.259 . S
C289 O286 1.235 . S
O290 Co280 2.021 . S
O290 C287 1.238 . S
O291 Co285 2.052 . S
O291 C287 1.241 . S
O292 Co280 2.137 1_554 S
O292 C283 1.247 . S
O293 Co280 2.244 . S
O293 C283 1.272 1_556 S
O293 Co285 2.135 . S
Co294 O295 2.216 . S
Co294 O296 2.091 . S
Co294 O298 2.004 . S
Co294 O304 2.021 . S
Co294 O306 2.137 . S
Co294 O307 2.244 . S
O295 Co294 2.216 . S
O295 C302 1.247 . S
O296 Co294 2.091 . S
O296 C302 1.261 . S
C297 O306 1.247 . S
C297 O307 1.272 . S
O298 Co294 2.004 . S
O298 C303 1.259 . S
Co299 O300 2.061 . S
Co299 O305 2.052 . S
Co299 O307 2.135 . S
O300 Co299 2.061 . S
O300 C303 1.235 . S
C301 O304 1.238 . S
C301 O305 1.241 . S
C302 O295 1.247 . S
C302 O296 1.261 . S
C303 O298 1.259 . S
C303 O300 1.235 . S
O304 Co294 2.021 . S
O304 C301 1.238 . S
O305 Co299 2.052 . S
O305 C301 1.241 . S
O306 Co294 2.137 . S
O306 C297 1.247 . S
O307 Co294 2.244 . S
O307 C297 1.272 . S
O307 Co299 2.135 . S
Co308 O309 2.216 . S
Co308 O310 2.091 . S
Co308 O312 2.004 . S
Co308 O318 2.021 . S
Co308 O320 2.137 . S
Co308 O321 2.244 . S
O309 Co308 2.216 . S
O309 C316 1.247 . S
O310 Co308 2.091 . S
O310 C316 1.261 . S
C311 O320 1.247 . S
C311 O321 1.272 . S
O312 Co308 2.004 . S
O312 C317 1.259 . S
Co313 O314 2.061 . S
Co313 O319 2.052 . S
Co313 O321 2.135 . S
O314 Co313 2.061 . S
O314 C317 1.235 . S
C315 O318 1.238 . S
C315 O319 1.241 . S
C316 O309 1.247 . S
C316 O310 1.261 . S
C317 O312 1.259 . S
C317 O314 1.235 . S
O318 Co308 2.021 . S
O318 C315 1.238 . S
O319 Co313 2.052 . S
O319 C315 1.241 . S
O320 Co308 2.137 . S
O320 C311 1.247 . S
O321 Co308 2.244 . S
O321 C311 1.272 . S
O321 Co313 2.135 . S
Co322 O323 2.216 . S
Co322 O324 2.091 . S
Co322 O326 2.004 . S
Co322 O332 2.021 . S
Co322 O334 2.137 . S
Co322 O335 2.244 . S
O323 Co322 2.216 . S
O323 C330 1.247 . S
O324 Co322 2.091 . S
O324 C330 1.261 . S
C325 O334 1.247 . S
C325 O335 1.272 . S
O326 Co322 2.004 . S
O326 C331 1.259 . S
Co327 O328 2.061 . S
Co327 O333 2.052 . S
Co327 O335 2.135 . S
O328 Co327 2.061 . S
O328 C331 1.235 . S
C329 O332 1.238 . S
C329 O333 1.241 . S
C330 O323 1.247 . S
C330 O324 1.261 . S
C331 O326 1.259 . S
C331 O328 1.235 . S
O332 Co322 2.021 . S
O332 C329 1.238 . S
O333 Co327 2.052 . S
O333 C329 1.241 . S
O334 Co322 2.137 . S
O334 C325 1.247 . S
O335 Co322 2.244 . S
O335 C325 1.272 . S
O335 Co327 2.135 . S
Co336 O337 2.216 . S
Co336 O338 2.091 . S
Co336 O340 2.004 . S
Co336 O346 2.021 . S
Co336 O348 2.137 . S
Co336 O349 2.244 . S
O337 Co336 2.216 . S
O337 C344 1.247 . S
O338 Co336 2.091 . S
O338 C344 1.261 . S
C339 O348 1.247 . S
C339 O349 1.272 . S
O340 Co336 2.004 . S
O340 C345 1.259 . S
Co341 O342 2.061 . S
Co341 O347 2.052 . S
Co341 O349 2.135 . S
O342 Co341 2.061 . S
O342 C345 1.235 . S
C343 O346 1.238 . S
C343 O347 1.241 . S
C344 O337 1.247 . S
C344 O338 1.261 . S
C345 O340 1.259 . S
C345 O342 1.235 . S
O346 Co336 2.021 . S
O346 C343 1.238 . S
O347 Co341 2.052 . S
O347 C343 1.241 . S
O348 Co336 2.137 . S
O348 C339 1.247 . S
O349 Co336 2.244 . S
O349 C339 1.272 . S
O349 Co341 2.135 . S
Co350 O351 2.216 . S
Co350 O352 2.091 . S
Co350 O354 2.004 . S
Co350 O360 2.021 . S
Co350 O362 2.137 . S
Co350 O363 2.244 . S
O351 Co350 2.216 . S
O351 C358 1.247 . S
O352 Co350 2.091 . S
O352 C358 1.261 . S
C353 O362 1.247 . S
C353 O363 1.272 . S
O354 Co350 2.004 . S
O354 C359 1.259 . S
Co355 O356 2.061 . S
Co355 O361 2.052 . S
Co355 O363 2.135 . S
O356 Co355 2.061 . S
O356 C359 1.235 . S
C357 O360 1.238 . S
C357 O361 1.241 . S
C358 O351 1.247 . S
C358 O352 1.261 . S
C359 O354 1.259 . S
C359 O356 1.235 . S
O360 Co350 2.021 . S
O360 C357 1.238 . S
O361 Co355 2.052 . S
O361 C357 1.241 . S
O362 Co350 2.137 . S
O362 C353 1.247 . S
O363 Co350 2.244 . S
O363 C353 1.272 . S
O363 Co355 2.135 . S
Co364 O365 2.216 . S
Co364 O366 2.091 . S
Co364 O368 2.004 . S
Co364 O374 2.021 . S
Co364 O376 2.137 1_556 S
Co364 O377 2.244 . S
O365 Co364 2.216 . S
O365 C372 1.247 . S
O366 Co364 2.091 . S
O366 C372 1.261 . S
C367 O376 1.247 . S
C367 O377 1.272 1_554 S
O368 Co364 2.004 . S
O368 C373 1.259 . S
Co369 O370 2.061 . S
Co369 O375 2.052 . S
Co369 O377 2.135 . S
O370 Co369 2.061 . S
O370 C373 1.235 . S
C371 O374 1.238 . S
C371 O375 1.241 . S
C372 O365 1.247 . S
C372 O366 1.261 . S
C373 O368 1.259 . S
C373 O370 1.235 . S
O374 Co364 2.021 . S
O374 C371 1.238 . S
O375 Co369 2.052 . S
O375 C371 1.241 . S
O376 Co364 2.137 1_554 S
O376 C367 1.247 . S
O377 Co364 2.244 . S
O377 C367 1.272 1_556 S
O377 Co369 2.135 . S
Co378 O379 2.216 . S
Co378 O380 2.091 . S
Co378 O382 2.004 . S
Co378 O388 2.021 . S
Co378 O390 2.137 . S
Co378 O391 2.244 . S
O379 Co378 2.216 . S
O379 C386 1.247 . S
O380 Co378 2.091 . S
O380 C386 1.261 . S
C381 O390 1.247 . S
C381 O391 1.272 . S
O382 Co378 2.004 . S
O382 C387 1.259 . S
Co383 O384 2.061 . S
Co383 O389 2.052 . S
Co383 O391 2.135 . S
O384 Co383 2.061 . S
O384 C387 1.235 . S
C385 O388 1.238 . S
C385 O389 1.241 . S
C386 O379 1.247 . S
C386 O380 1.261 . S
C387 O382 1.259 . S
C387 O384 1.235 . S
O388 Co378 2.021 . S
O388 C385 1.238 . S
O389 Co383 2.052 . S
O389 C385 1.241 . S
O390 Co378 2.137 . S
O390 C381 1.247 . S
O391 Co378 2.244 . S
O391 C381 1.272 . S
O391 Co383 2.135 . S
Co392 O393 2.216 . S
Co392 O394 2.091 . S
Co392 O396 2.004 . S
Co392 O402 2.021 . S
Co392 O404 2.137 1_554 S
Co392 O405 2.244 . S
O393 Co392 2.216 . S
O393 C400 1.247 . S
O394 Co392 2.091 . S
O394 C400 1.261 . S
C395 O404 1.247 . S
C395 O405 1.272 1_556 S
O396 Co392 2.004 . S
O396 C401 1.259 . S
Co397 O398 2.061 . S
Co397 O403 2.052 . S
Co397 O405 2.135 . S
O398 Co397 2.061 . S
O398 C401 1.235 . S
C399 O402 1.238 . S
C399 O403 1.241 . S
C400 O393 1.247 . S
C400 O394 1.261 . S
C401 O396 1.259 . S
C401 O398 1.235 . S
O402 Co392 2.021 . S
O402 C399 1.238 . S
O403 Co397 2.052 . S
O403 C399 1.241 . S
O404 Co392 2.137 1_556 S
O404 C395 1.247 . S
O405 Co392 2.244 . S
O405 C395 1.272 1_554 S
O405 Co397 2.135 . S
Co406 O407 2.216 . S
Co406 O408 2.091 . S
Co406 O410 2.004 . S
Co406 O416 2.021 . S
Co406 O418 2.137 . S
Co406 O419 2.244 . S
O407 Co406 2.216 . S
O407 C414 1.247 . S
O408 Co406 2.091 . S
O408 C414 1.261 . S
C409 O418 1.247 . S
C409 O419 1.272 . S
O410 Co406 2.004 . S
O410 C415 1.259 . S
Co411 O412 2.061 . S
Co411 O417 2.052 . S
Co411 O419 2.135 . S
O412 Co411 2.061 . S
O412 C415 1.235 . S
C413 O416 1.238 . S
C413 O417 1.241 . S
C414 O407 1.247 . S
C414 O408 1.261 . S
C415 O410 1.259 . S
C415 O412 1.235 . S
O416 Co406 2.021 . S
O416 C413 1.238 . S
O417 Co411 2.052 . S
O417 C413 1.241 . S
O418 Co406 2.137 . S
O418 C409 1.247 . S
O419 Co406 2.244 . S
O419 C409 1.272 . S
O419 Co411 2.135 . S
Co420 O421 2.216 . S
Co420 O422 2.091 . S
Co420 O424 2.004 . S
Co420 O430 2.021 . S
Co420 O432 2.137 . S
Co420 O433 2.244 . S
O421 Co420 2.216 . S
O421 C428 1.247 . S
O422 Co420 2.091 . S
O422 C428 1.261 . S
C423 O432 1.247 . S
C423 O433 1.272 . S
O424 Co420 2.004 . S
O424 C429 1.259 . S
Co425 O426 2.061 . S
Co425 O431 2.052 . S
Co425 O433 2.135 . S
O426 Co425 2.061 . S
O426 C429 1.235 . S
C427 O430 1.238 . S
C427 O431 1.241 . S
C428 O421 1.247 . S
C428 O422 1.261 . S
C429 O424 1.259 . S
C429 O426 1.235 . S
O430 Co420 2.021 . S
O430 C427 1.238 . S
O431 Co425 2.052 . S
O431 C427 1.241 . S
O432 Co420 2.137 . S
O432 C423 1.247 . S
O433 Co420 2.244 . S
O433 C423 1.272 . S
O433 Co425 2.135 . S
Co434 O435 2.216 . S
Co434 O436 2.091 . S
Co434 O438 2.004 . S
Co434 O444 2.021 . S
Co434 O446 2.137 . S
Co434 O447 2.244 . S
O435 Co434 2.216 . S
O435 C442 1.247 . S
O436 Co434 2.091 . S
O436 C442 1.261 . S
C437 O446 1.247 . S
C437 O447 1.272 . S
O438 Co434 2.004 . S
O438 C443 1.259 . S
Co439 O440 2.061 . S
Co439 O445 2.052 . S
Co439 O447 2.135 . S
O440 Co439 2.061 . S
O440 C443 1.235 . S
C441 O444 1.238 . S
C441 O445 1.241 . S
C442 O435 1.247 . S
C442 O436 1.261 . S
C443 O438 1.259 . S
C443 O440 1.235 . S
O444 Co434 2.021 . S
O444 C441 1.238 . S
O445 Co439 2.052 . S
O445 C441 1.241 . S
O446 Co434 2.137 . S
O446 C437 1.247 . S
O447 Co434 2.244 . S
O447 C437 1.272 . S
O447 Co439 2.135 . S
H448 C460 0.930 . S
H449 C462 0.930 . S
H450 C463 0.930 . S
H451 C467 0.959 . S
H452 C467 0.959 . S
H453 C467 0.961 . S
H454 C468 0.960 . S
H455 C468 0.961 . S
H456 C468 0.959 . S
H457 C471 0.929 . S
H458 C472 0.931 . S
H459 C474 0.930 . S
C460 H448 0.930 . S
C460 C461 1.399 . S
C460 C465 1.399 . S
C461 C460 1.399 . S
C461 C462 1.376 . S
C462 H449 0.930 . S
C462 C461 1.376 . S
C462 C463 1.388 . S
C463 H450 0.930 . S
C463 C462 1.388 . S
C463 C464 1.390 . S
C464 C463 1.390 . S
C464 C465 1.394 . S
C464 C470 1.465 1_556 S
C465 C460 1.399 . S
C465 C464 1.394 . S
C465 C466 1.516 1_556 S
C466 C465 1.516 1_554 S
C466 C467 1.502 1_554 S
C466 C468 1.561 . S
C466 C469 1.526 . S
C467 H451 0.959 . S
C467 H452 0.959 . S
C467 H453 0.961 . S
C467 C466 1.502 1_556 S
C468 H454 0.960 . S
C468 H455 0.961 . S
C468 H456 0.959 . S
C468 C466 1.561 . S
C469 C466 1.526 . S
C469 C470 1.396 . S
C469 C474 1.390 . S
C470 C464 1.465 1_554 S
C470 C469 1.396 . S
C470 C471 1.399 . S
C471 H457 0.929 . S
C471 C470 1.399 . S
C471 C472 1.385 . S
C472 H458 0.931 . S
C472 C471 1.385 . S
C472 C473 1.389 . S
C473 C472 1.389 . S
C473 C474 1.387 . S
C474 H459 0.930 . S
C474 C469 1.390 . S
C474 C473 1.387 . S
H475 C487 0.930 . S
H476 C489 0.930 . S
H477 C490 0.930 . S
H478 C494 0.959 . S
H479 C494 0.959 . S
H480 C494 0.961 1_565 S
H481 C495 0.975 1_455 S
H482 C495 0.945 1_445 S
H483 C495 0.963 . S
H484 C498 0.929 . S
H485 C499 0.931 . S
H486 C501 0.930 . S
C487 H475 0.930 . S
C487 C488 1.399 . S
C487 C492 1.399 . S
C488 C487 1.399 . S
C488 C489 1.376 . S
C489 H476 0.930 . S
C489 C488 1.376 . S
C489 C490 1.388 . S
C490 H477 0.930 . S
C490 C489 1.388 . S
C490 C491 1.390 . S
C491 C490 1.390 . S
C491 C492 1.394 . S
C491 C497 1.465 1_565 S
C492 C487 1.399 . S
C492 C491 1.394 . S
C492 C493 1.516 1_565 S
C493 C492 1.516 1_545 S
C493 C494 1.502 . S
C493 C495 1.559 1_545 S
C493 C496 1.526 . S
C494 H478 0.959 . S
C494 H479 0.959 . S
C494 H480 0.961 1_545 S
C494 C493 1.502 . S
C495 H481 0.975 1_655 S
C495 H482 0.945 1_665 S
C495 H483 0.963 . S
C495 C493 1.559 1_565 S
C496 C493 1.526 . S
C496 C497 1.396 . S
C496 C501 1.390 . S
C497 C491 1.465 1_545 S
C497 C496 1.396 . S
C497 C498 1.399 . S
C498 H484 0.929 . S
C498 C497 1.399 . S
C498 C499 1.385 . S
C499 H485 0.931 . S
C499 C498 1.385 . S
C499 C500 1.389 . S
C500 C499 1.389 . S
C500 C501 1.387 . S
C501 H486 0.930 . S
C501 C496 1.390 . S
C501 C500 1.387 . S
H502 C514 0.930 . S
H503 C516 0.930 . S
H504 C517 0.930 . S
H505 C521 0.959 . S
H506 C521 0.959 . S
H507 C521 0.961 . S
H508 C522 0.960 . S
H509 C522 0.961 . S
H510 C522 0.959 . S
H511 C525 0.929 . S
H512 C526 0.931 . S
H513 C528 0.930 . S
C514 H502 0.930 . S
C514 C515 1.399 . S
C514 C519 1.399 . S
C515 C514 1.399 . S
C515 C516 1.376 . S
C516 H503 0.930 . S
C516 C515 1.376 . S
C516 C517 1.388 . S
C517 H504 0.930 . S
C517 C516 1.388 . S
C517 C518 1.390 . S
C518 C517 1.390 . S
C518 C519 1.394 . S
C518 C524 1.465 . S
C519 C514 1.399 . S
C519 C518 1.394 . S
C519 C520 1.516 . S
C520 C519 1.516 . S
C520 C521 1.502 . S
C520 C522 1.561 . S
C520 C523 1.526 . S
C521 H505 0.959 . S
C521 H506 0.959 . S
C521 H507 0.961 . S
C521 C520 1.502 . S
C522 H508 0.960 . S
C522 H509 0.961 . S
C522 H510 0.959 . S
C522 C520 1.561 . S
C523 C520 1.526 . S
C523 C524 1.396 . S
C523 C528 1.390 . S
C524 C518 1.465 . S
C524 C523 1.396 . S
C524 C525 1.399 . S
C525 H511 0.929 . S
C525 C524 1.399 . S
C525 C526 1.385 . S
C526 H512 0.931 . S
C526 C525 1.385 . S
C526 C527 1.389 . S
C527 C526 1.389 . S
C527 C528 1.387 . S
C528 H513 0.930 . S
C528 C523 1.390 . S
C528 C527 1.387 . S
H529 C541 0.930 . S
H530 C543 0.930 . S
H531 C544 0.930 . S
H532 C548 0.959 . S
H533 C548 0.990 . S
H534 C548 0.961 . S
H535 C549 0.960 . S
H536 C549 0.961 . S
H537 C549 0.959 . S
H538 C552 0.929 . S
H539 C553 0.931 . S
H540 C555 0.930 . S
C541 H529 0.930 . S
C541 C542 1.399 . S
C541 C546 1.399 . S
C542 C541 1.399 . S
C542 C543 1.376 . S
C543 H530 0.930 . S
C543 C542 1.376 . S
C543 C544 1.388 . S
C544 H531 0.930 . S
C544 C543 1.388 . S
C544 C545 1.390 . S
C545 C544 1.390 . S
C545 C546 1.394 . S
C545 C551 1.465 1_545 S
C546 C541 1.399 . S
C546 C545 1.394 . S
C546 C547 1.516 . S
C547 C546 1.516 . S
C547 C548 1.502 . S
C547 C549 1.561 . S
C547 C550 1.526 1_545 S
C548 H532 0.959 . S
C548 H533 0.990 . S
C548 H534 0.961 . S
C548 C547 1.502 . S
C549 H535 0.960 . S
C549 H536 0.961 . S
C549 H537 0.959 . S
C549 C547 1.561 . S
C550 C547 1.526 1_565 S
C550 C551 1.396 . S
C550 C555 1.390 . S
C551 C545 1.465 1_565 S
C551 C550 1.396 . S
C551 C552 1.399 . S
C552 H538 0.929 . S
C552 C551 1.399 . S
C552 C553 1.385 . S
C553 H539 0.931 . S
C553 C552 1.385 . S
C553 C554 1.389 . S
C554 C553 1.389 . S
C554 C555 1.387 . S
C555 H540 0.930 . S
C555 C550 1.390 . S
C555 C554 1.387 . S
H556 C568 0.930 . S
H557 C570 0.930 . S
H558 C571 0.930 . S
H559 C575 0.959 . S
H560 C575 0.959 . S
H561 C575 0.961 . S
H562 C576 0.960 . S
H563 C576 0.961 . S
H564 C576 0.959 . S
H565 C579 0.929 . S
H566 C580 0.931 . S
H567 C582 0.930 . S
C568 H556 0.930 . S
C568 C569 1.399 1_556 S
C568 C573 1.399 . S
C569 C568 1.399 1_554 S
C569 C570 1.376 . S
C570 H557 0.930 . S
C570 C569 1.376 . S
C570 C571 1.388 . S
C571 H558 0.930 . S
C571 C570 1.388 . S
C571 C572 1.390 . S
C572 C571 1.390 . S
C572 C573 1.394 1_554 S
C572 C578 1.465 . S
C573 C568 1.399 . S
C573 C572 1.394 1_556 S
C573 C574 1.516 . S
C574 C573 1.516 . S
C574 C575 1.502 . S
C574 C576 1.561 . S
C574 C577 1.526 . S
C575 H559 0.959 . S
C575 H560 0.959 . S
C575 H561 0.961 . S
C575 C574 1.502 . S
C576 H562 0.960 . S
C576 H563 0.961 . S
C576 H564 0.959 . S
C576 C574 1.561 . S
C577 C574 1.526 . S
C577 C578 1.396 1_556 S
C577 C582 1.390 . S
C578 C572 1.465 . S
C578 C577 1.396 1_554 S
C578 C579 1.399 . S
C579 H565 0.929 . S
C579 C578 1.399 . S
C579 C580 1.385 . S
C580 H566 0.931 . S
C580 C579 1.385 . S
C580 C581 1.389 1_554 S
C581 C580 1.389 1_556 S
C581 C582 1.387 . S
C582 H567 0.930 . S
C582 C577 1.390 . S
C582 C581 1.387 . S
H583 C595 0.930 . S
H584 C597 0.930 . S
H585 C598 0.930 . S
H586 C602 0.959 . S
H587 C602 0.981 . S
H588 C602 0.961 . S
H589 C603 0.960 . S
H590 C603 0.961 . S
H591 C603 0.959 . S
H592 C606 0.929 . S
H593 C607 0.931 . S
H594 C609 0.930 . S
C595 H583 0.930 . S
C595 C596 1.399 . S
C595 C600 1.399 . S
C596 C595 1.399 . S
C596 C597 1.376 . S
C597 H584 0.930 . S
C597 C596 1.376 . S
C597 C598 1.388 . S
C598 H585 0.930 . S
C598 C597 1.388 . S
C598 C599 1.390 . S
C599 C598 1.390 . S
C599 C600 1.394 . S
C599 C605 1.465 1_565 S
C600 C595 1.399 . S
C600 C599 1.394 . S
C600 C601 1.516 . S
C601 C600 1.516 . S
C601 C602 1.502 . S
C601 C603 1.561 . S
C601 C604 1.526 1_565 S
C602 H586 0.959 . S
C602 H587 0.981 . S
C602 H588 0.961 . S
C602 C601 1.502 . S
C603 H589 0.960 . S
C603 H590 0.961 . S
C603 H591 0.959 . S
C603 C601 1.561 . S
C604 C601 1.526 1_545 S
C604 C605 1.396 . S
C604 C609 1.390 . S
C605 C599 1.465 1_545 S
C605 C604 1.396 . S
C605 C606 1.399 . S
C606 H592 0.929 . S
C606 C605 1.399 . S
C606 C607 1.385 . S
C607 H593 0.931 . S
C607 C606 1.385 . S
C607 C608 1.389 . S
C608 C607 1.389 . S
C608 C609 1.387 . S
C609 H594 0.930 . S
C609 C604 1.390 . S
C609 C608 1.387 . S
H610 C622 0.930 . S
H611 C624 0.930 . S
H612 C625 0.930 . S
H613 C629 0.959 . S
H614 C629 0.959 . S
H615 C629 0.961 . S
H616 C630 0.960 . S
H617 C630 0.961 . S
H618 C630 0.959 . S
H619 C633 0.929 . S
H620 C634 0.931 . S
H621 C636 0.930 . S
C622 H610 0.930 . S
C622 C623 1.399 . S
C622 C627 1.399 . S
C623 C622 1.399 . S
C623 C624 1.376 . S
C624 H611 0.930 . S
C624 C623 1.376 . S
C624 C625 1.388 . S
C625 H612 0.930 . S
C625 C624 1.388 . S
C625 C626 1.390 . S
C626 C625 1.390 . S
C626 C627 1.394 . S
C626 C632 1.465 . S
C627 C622 1.399 . S
C627 C626 1.394 . S
C627 C628 1.516 . S
C628 C627 1.516 . S
C628 C629 1.502 . S
C628 C630 1.561 . S
C628 C631 1.526 . S
C629 H613 0.959 . S
C629 H614 0.959 . S
C629 H615 0.961 . S
C629 C628 1.502 . S
C630 H616 0.960 . S
C630 H617 0.961 . S
C630 H618 0.959 . S
C630 C628 1.561 . S
C631 C628 1.526 . S
C631 C632 1.396 . S
C631 C636 1.390 . S
C632 C626 1.465 . S
C632 C631 1.396 . S
C632 C633 1.399 . S
C633 H619 0.929 . S
C633 C632 1.399 . S
C633 C634 1.385 . S
C634 H620 0.931 . S
C634 C633 1.385 . S
C634 C635 1.389 . S
C635 C634 1.389 . S
C635 C636 1.387 . S
C636 H621 0.930 . S
C636 C631 1.390 . S
C636 C635 1.387 . S
H637 C649 0.930 . S
H638 C651 0.930 . S
H639 C652 0.930 . S
H640 C656 0.959 . S
H641 C656 0.959 . S
H642 C656 0.961 1_565 S
H643 C657 0.960 . S
H644 C657 0.961 . S
H645 C657 0.959 . S
H646 C660 0.929 . S
H647 C661 0.931 . S
H648 C663 0.930 . S
C649 H637 0.930 . S
C649 C650 1.399 . S
C649 C654 1.399 . S
C650 C649 1.399 . S
C650 C651 1.376 . S
C651 H638 0.930 . S
C651 C650 1.376 . S
C651 C652 1.388 . S
C652 H639 0.930 . S
C652 C651 1.388 . S
C652 C653 1.390 . S
C653 C652 1.390 . S
C653 C654 1.394 . S
C653 C659 1.465 1_565 S
C654 C649 1.399 . S
C654 C653 1.394 . S
C654 C655 1.516 1_565 S
C655 C654 1.516 1_545 S
C655 C656 1.502 . S
C655 C657 1.561 . S
C655 C658 1.526 . S
C656 H640 0.959 . S
C656 H641 0.959 . S
C656 H642 0.961 1_545 S
C656 C655 1.502 . S
C657 H643 0.960 . S
C657 H644 0.961 . S
C657 H645 0.959 . S
C657 C655 1.561 . S
C658 C655 1.526 . S
C658 C659 1.396 . S
C658 C663 1.390 . S
C659 C653 1.465 1_545 S
C659 C658 1.396 . S
C659 C660 1.399 . S
C660 H646 0.929 . S
C660 C659 1.399 . S
C660 C661 1.385 . S
C661 H647 0.931 . S
C661 C660 1.385 . S
C661 C662 1.389 . S
C662 C661 1.389 . S
C662 C663 1.387 . S
C663 H648 0.930 . S
C663 C658 1.390 . S
C663 C662 1.387 . S
H664 C676 0.930 . S
H665 C678 0.930 . S
H666 C679 0.930 . S
H667 C683 0.959 . S
H668 C683 0.959 . S
H669 C683 0.961 . S
H670 C684 0.960 . S
H671 C684 0.961 . S
H672 C684 0.959 . S
H673 C687 0.929 . S
H674 C688 0.931 . S
H675 C690 0.930 . S
C676 H664 0.930 . S
C676 C677 1.399 . S
C676 C681 1.399 . S
C677 C676 1.399 . S
C677 C678 1.376 . S
C678 H665 0.930 . S
C678 C677 1.376 . S
C678 C679 1.388 . S
C679 H666 0.930 . S
C679 C678 1.388 . S
C679 C680 1.390 . S
C680 C679 1.390 . S
C680 C681 1.394 . S
C680 C686 1.465 . S
C681 C676 1.399 . S
C681 C680 1.394 . S
C681 C682 1.516 . S
C682 C681 1.516 . S
C682 C683 1.502 . S
C682 C684 1.561 . S
C682 C685 1.526 . S
C683 H667 0.959 . S
C683 H668 0.959 . S
C683 H669 0.961 . S
C683 C682 1.502 . S
C684 H670 0.960 . S
C684 H671 0.961 . S
C684 H672 0.959 . S
C684 C682 1.561 . S
C685 C682 1.526 . S
C685 C686 1.396 . S
C685 C690 1.390 . S
C686 C680 1.465 . S
C686 C685 1.396 . S
C686 C687 1.399 . S
C687 H673 0.929 . S
C687 C686 1.399 . S
C687 C688 1.385 . S
C688 H674 0.931 . S
C688 C687 1.385 . S
C688 C689 1.389 . S
C689 C688 1.389 . S
C689 C690 1.387 . S
C690 H675 0.930 . S
C690 C685 1.390 . S
C690 C689 1.387 . S
H691 C703 0.930 . S
H692 C705 0.930 . S
H693 C706 0.930 . S
H694 C710 0.959 . S
H695 C710 0.959 . S
H696 C710 0.961 . S
H697 C711 0.960 . S
H698 C711 0.961 . S
H699 C711 0.959 . S
H700 C714 0.929 . S
H701 C715 0.931 . S
H702 C717 0.930 . S
C703 H691 0.930 . S
C703 C704 1.399 . S
C703 C708 1.399 . S
C704 C703 1.399 . S
C704 C705 1.376 . S
C705 H692 0.930 . S
C705 C704 1.376 . S
C705 C706 1.388 . S
C706 H693 0.930 . S
C706 C705 1.388 . S
C706 C707 1.390 . S
C707 C706 1.390 . S
C707 C708 1.394 . S
C707 C713 1.465 . S
C708 C703 1.399 . S
C708 C707 1.394 . S
C708 C709 1.516 . S
C709 C708 1.516 . S
C709 C710 1.502 . S
C709 C711 1.561 . S
C709 C712 1.526 . S
C710 H694 0.959 . S
C710 H695 0.959 . S
C710 H696 0.961 . S
C710 C709 1.502 . S
C711 H697 0.960 . S
C711 H698 0.961 . S
C711 H699 0.959 . S
C711 C709 1.561 . S
C712 C709 1.526 . S
C712 C713 1.396 . S
C712 C717 1.390 . S
C713 C707 1.465 . S
C713 C712 1.396 . S
C713 C714 1.399 . S
C714 H700 0.929 . S
C714 C713 1.399 . S
C714 C715 1.385 . S
C715 H701 0.931 . S
C715 C714 1.385 . S
C715 C716 1.389 . S
C716 C715 1.389 . S
C716 C717 1.387 . S
C717 H702 0.930 . S
C717 C712 1.390 . S
C717 C716 1.387 . S
H718 C730 0.930 . S
H719 C732 0.930 . S
H720 C733 0.930 . S
H721 C737 0.959 . S
H722 C737 0.959 . S
H723 C737 0.961 . S
H724 C738 0.960 . S
H725 C738 0.961 . S
H726 C738 0.959 . S
H727 C741 0.929 . S
H728 C742 0.931 . S
H729 C744 0.930 . S
C730 H718 0.930 . S
C730 C731 1.399 . S
C730 C735 1.399 . S
C731 C730 1.399 . S
C731 C732 1.376 . S
C732 H719 0.930 . S
C732 C731 1.376 . S
C732 C733 1.388 1_556 S
C733 H720 0.930 . S
C733 C732 1.388 1_554 S
C733 C734 1.390 . S
C734 C733 1.390 . S
C734 C735 1.394 1_554 S
C734 C740 1.465 . S
C735 C730 1.399 . S
C735 C734 1.394 1_556 S
C735 C736 1.516 . S
C736 C735 1.516 . S
C736 C737 1.502 . S
C736 C738 1.561 1_556 S
C736 C739 1.526 1_556 S
C737 H721 0.959 . S
C737 H722 0.959 . S
C737 H723 0.961 . S
C737 C736 1.502 . S
C738 H724 0.960 . S
C738 H725 0.961 . S
C738 H726 0.959 . S
C738 C736 1.561 1_554 S
C739 C736 1.526 1_554 S
C739 C740 1.396 . S
C739 C744 1.390 . S
C740 C734 1.465 . S
C740 C739 1.396 . S
C740 C741 1.399 . S
C741 H727 0.929 . S
C741 C740 1.399 . S
C741 C742 1.385 . S
C742 H728 0.931 . S
C742 C741 1.385 . S
C742 C743 1.389 . S
C743 C742 1.389 . S
C743 C744 1.387 . S
C744 H729 0.930 . S
C744 C739 1.390 . S
C744 C743 1.387 . S
H745 C757 0.930 . S
H746 C759 0.930 . S
H747 C760 0.930 . S
H748 C764 0.959 . S
H749 C764 0.959 . S
H750 C764 0.961 . S
H751 C765 0.960 . S
H752 C765 0.961 . S
H753 C765 0.959 . S
H754 C768 0.929 . S
H755 C769 0.931 . S
H756 C771 0.930 . S
C757 H745 0.930 . S
C757 C758 1.399 . S
C757 C762 1.399 . S
C758 C757 1.399 . S
C758 C759 1.376 . S
C759 H746 0.930 . S
C759 C758 1.376 . S
C759 C760 1.388 . S
C760 H747 0.930 . S
C760 C759 1.388 . S
C760 C761 1.390 . S
C761 C760 1.390 . S
C761 C762 1.394 . S
C761 C767 1.465 . S
C762 C757 1.399 . S
C762 C761 1.394 . S
C762 C763 1.516 . S
C763 C762 1.516 . S
C763 C764 1.502 . S
C763 C765 1.561 . S
C763 C766 1.526 . S
C764 H748 0.959 . S
C764 H749 0.959 . S
C764 H750 0.961 . S
C764 C763 1.502 . S
C765 H751 0.960 . S
C765 H752 0.961 . S
C765 H753 0.959 . S
C765 C763 1.561 . S
C766 C763 1.526 . S
C766 C767 1.396 . S
C766 C771 1.390 . S
C767 C761 1.465 . S
C767 C766 1.396 . S
C767 C768 1.399 . S
C768 H754 0.929 . S
C768 C767 1.399 . S
C768 C769 1.385 . S
C769 H755 0.931 . S
C769 C768 1.385 . S
C769 C770 1.389 . S
C770 C769 1.389 . S
C770 C771 1.387 . S
C771 H756 0.930 . S
C771 C766 1.390 . S
C771 C770 1.387 . S
H772 C784 0.930 . S
H773 C786 0.930 . S
H774 C787 0.930 . S
H775 C791 0.959 . S
H776 C791 0.959 . S
H777 C791 0.961 . S
H778 C792 0.960 . S
H779 C792 0.961 . S
H780 C792 0.959 . S
H781 C795 0.929 . S
H782 C796 0.931 . S
H783 C798 0.930 . S
C784 H772 0.930 . S
C784 C785 1.399 . S
C784 C789 1.399 . S
C785 C784 1.399 . S
C785 C786 1.376 . S
C786 H773 0.930 . S
C786 C785 1.376 . S
C786 C787 1.388 . S
C787 H774 0.930 . S
C787 C786 1.388 . S
C787 C788 1.390 . S
C788 C787 1.390 . S
C788 C789 1.394 . S
C788 C794 1.465 . S
C789 C784 1.399 . S
C789 C788 1.394 . S
C789 C790 1.516 . S
C790 C789 1.516 . S
C790 C791 1.502 . S
C790 C792 1.561 . S
C790 C793 1.526 . S
C791 H775 0.959 . S
C791 H776 0.959 . S
C791 H777 0.961 . S
C791 C790 1.502 . S
C792 H778 0.960 . S
C792 H779 0.961 . S
C792 H780 0.959 . S
C792 C790 1.561 . S
C793 C790 1.526 . S
C793 C794 1.396 . S
C793 C798 1.390 . S
C794 C788 1.465 . S
C794 C793 1.396 . S
C794 C795 1.399 . S
C795 H781 0.929 . S
C795 C794 1.399 . S
C795 C796 1.385 . S
C796 H782 0.931 . S
C796 C795 1.385 . S
C796 C797 1.389 . S
C797 C796 1.389 . S
C797 C798 1.387 . S
C798 H783 0.930 . S
C798 C793 1.390 . S
C798 C797 1.387 . S
H799 C811 0.930 . S
H800 C813 0.930 . S
H801 C814 0.930 . S
H802 C818 0.959 . S
H803 C818 0.959 . S
H804 C818 0.961 . S
H805 C819 0.960 . S
H806 C819 0.961 . S
H807 C819 0.959 . S
H808 C822 0.929 . S
H809 C823 0.931 . S
H810 C825 0.930 . S
C811 H799 0.930 . S
C811 C812 1.399 . S
C811 C816 1.399 . S
C812 C811 1.399 . S
C812 C813 1.376 . S
C813 H800 0.930 . S
C813 C812 1.376 . S
C813 C814 1.388 . S
C814 H801 0.930 . S
C814 C813 1.388 . S
C814 C815 1.390 . S
C815 C814 1.390 . S
C815 C816 1.394 . S
C815 C821 1.465 . S
C816 C811 1.399 . S
C816 C815 1.394 . S
C816 C817 1.516 . S
C817 C816 1.516 . S
C817 C818 1.502 . S
C817 C819 1.561 . S
C817 C820 1.526 . S
C818 H802 0.959 . S
C818 H803 0.959 . S
C818 H804 0.961 . S
C818 C817 1.502 . S
C819 H805 0.960 . S
C819 H806 0.961 . S
C819 H807 0.959 . S
C819 C817 1.561 . S
C820 C817 1.526 . S
C820 C821 1.396 . S
C820 C825 1.390 . S
C821 C815 1.465 . S
C821 C820 1.396 . S
C821 C822 1.399 . S
C822 H808 0.929 . S
C822 C821 1.399 . S
C822 C823 1.385 . S
C823 H809 0.931 . S
C823 C822 1.385 . S
C823 C824 1.389 . S
C824 C823 1.389 . S
C824 C825 1.387 . S
C825 H810 0.930 . S
C825 C820 1.390 . S
C825 C824 1.387 . S
H826 C838 0.930 . S
H827 C840 0.930 . S
H828 C841 0.930 . S
H829 C845 0.959 . S
H830 C845 0.959 . S
H831 C845 0.961 . S
H832 C846 0.960 . S
H833 C846 0.961 . S
H834 C846 0.959 . S
H835 C849 0.929 . S
H836 C850 0.931 . S
H837 C852 0.930 . S
C838 H826 0.930 . S
C838 C839 1.399 . S
C838 C843 1.399 . S
C839 C838 1.399 . S
C839 C840 1.376 . S
C840 H827 0.930 . S
C840 C839 1.376 . S
C840 C841 1.388 1_554 S
C841 H828 0.930 . S
C841 C840 1.388 1_556 S
C841 C842 1.390 . S
C842 C841 1.390 . S
C842 C843 1.394 1_556 S
C842 C848 1.465 . S
C843 C838 1.399 . S
C843 C842 1.394 1_554 S
C843 C844 1.516 . S
C844 C843 1.516 . S
C844 C845 1.502 . S
C844 C846 1.561 1_554 S
C844 C847 1.526 1_554 S
C845 H829 0.959 . S
C845 H830 0.959 . S
C845 H831 0.961 . S
C845 C844 1.502 . S
C846 H832 0.960 . S
C846 H833 0.961 . S
C846 H834 0.959 . S
C846 C844 1.561 1_556 S
C847 C844 1.526 1_556 S
C847 C848 1.396 . S
C847 C852 1.390 . S
C848 C842 1.465 . S
C848 C847 1.396 . S
C848 C849 1.399 . S
C849 H835 0.929 . S
C849 C848 1.399 . S
C849 C850 1.385 . S
C850 H836 0.931 . S
C850 C849 1.385 . S
C850 C851 1.389 . S
C851 C850 1.389 . S
C851 C852 1.387 . S
C852 H837 0.930 . S
C852 C847 1.390 . S
C852 C851 1.387 . S
H853 C865 0.930 . S
H854 C867 0.930 . S
H855 C868 0.930 . S
H856 C872 0.959 . S
H857 C872 0.959 . S
H858 C872 0.961 . S
H859 C873 0.960 1_455 S
H860 C873 0.961 1_455 S
H861 C873 0.959 . S
H862 C876 0.929 . S
H863 C877 0.931 . S
H864 C879 0.930 . S
C865 H853 0.930 . S
C865 C866 1.399 . S
C865 C870 1.399 . S
C866 C865 1.399 . S
C866 C867 1.376 . S
C867 H854 0.930 . S
C867 C866 1.376 . S
C867 C868 1.388 . S
C868 H855 0.930 . S
C868 C867 1.388 . S
C868 C869 1.390 . S
C869 C868 1.390 . S
C869 C870 1.394 . S
C869 C875 1.465 . S
C870 C865 1.399 . S
C870 C869 1.394 . S
C870 C871 1.516 . S
C871 C870 1.516 . S
C871 C872 1.502 . S
C871 C873 1.561 . S
C871 C874 1.526 . S
C872 H856 0.959 . S
C872 H857 0.959 . S
C872 H858 0.961 . S
C872 C871 1.502 . S
C873 H859 0.960 1_655 S
C873 H860 0.961 1_655 S
C873 H861 0.959 . S
C873 C871 1.561 . S
C874 C871 1.526 . S
C874 C875 1.396 . S
C874 C879 1.390 . S
C875 C869 1.465 . S
C875 C874 1.396 . S
C875 C876 1.399 . S
C876 H862 0.929 . S
C876 C875 1.399 . S
C876 C877 1.385 . S
C877 H863 0.931 . S
C877 C876 1.385 . S
C877 C878 1.389 . S
C878 C877 1.389 . S
C878 C879 1.387 . S
C879 H864 0.930 . S
C879 C874 1.390 . S
C879 C878 1.387 . S
H880 C892 0.930 . S
H881 C894 0.930 . S
H882 C895 0.930 . S
H883 C899 0.959 . S
H884 C899 0.959 . S
H885 C899 0.961 . S
H886 C900 0.960 . S
H887 C900 0.961 . S
H888 C900 0.959 . S
H889 C903 0.929 . S
H890 C904 0.931 . S
H891 C906 0.930 . S
C892 H880 0.930 . S
C892 C893 1.399 . S
C892 C897 1.399 . S
C893 C892 1.399 . S
C893 C894 1.376 . S
C894 H881 0.930 . S
C894 C893 1.376 . S
C894 C895 1.388 . S
C895 H882 0.930 . S
C895 C894 1.388 . S
C895 C896 1.390 . S
C896 C895 1.390 . S
C896 C897 1.394 . S
C896 C902 1.465 . S
C897 C892 1.399 . S
C897 C896 1.394 . S
C897 C898 1.516 . S
C898 C897 1.516 . S
C898 C899 1.502 . S
C898 C900 1.561 . S
C898 C901 1.526 . S
C899 H883 0.959 . S
C899 H884 0.959 . S
C899 H885 0.961 . S
C899 C898 1.502 . S
C900 H886 0.960 . S
C900 H887 0.961 . S
C900 H888 0.959 . S
C900 C898 1.561 . S
C901 C898 1.526 . S
C901 C902 1.396 . S
C901 C906 1.390 . S
C902 C896 1.465 . S
C902 C901 1.396 . S
C902 C903 1.399 . S
C903 H889 0.929 . S
C903 C902 1.399 . S
C903 C904 1.385 . S
C904 H890 0.931 . S
C904 C903 1.385 . S
C904 C905 1.389 . S
C905 C904 1.389 . S
C905 C906 1.387 . S
C906 H891 0.930 . S
C906 C901 1.390 . S
C906 C905 1.387 . S
H907 C919 0.930 . S
H908 C921 0.930 . S
H909 C922 0.930 . S
H910 C926 0.959 . S
H911 C926 0.959 . S
H912 C926 0.961 1_556 S
H913 C927 0.960 . S
H914 C927 0.961 . S
H915 C927 0.959 . S
H916 C930 0.929 1_455 S
H917 C931 0.931 . S
H918 C933 0.930 . S
C919 H907 0.930 . S
C919 C920 1.399 . S
C919 C924 1.399 1_556 S
C920 C919 1.399 . S
C920 C921 1.376 . S
C921 H908 0.930 . S
C921 C920 1.376 . S
C921 C922 1.388 1_556 S
C922 H909 0.930 . S
C922 C921 1.388 1_554 S
C922 C923 1.390 . S
C923 C922 1.390 . S
C923 C924 1.394 . S
C923 C929 1.447 1_455 S
C924 C919 1.399 1_554 S
C924 C923 1.394 . S
C924 C925 1.516 1_455 S
C925 C924 1.516 1_655 S
C925 C926 1.502 . S
C925 C927 1.561 1_655 S
C925 C928 1.526 . S
C926 H910 0.959 . S
C926 H911 0.959 . S
C926 H912 0.961 1_554 S
C926 C925 1.502 . S
C927 H913 0.960 . S
C927 H914 0.961 . S
C927 H915 0.959 . S
C927 C925 1.561 1_455 S
C928 C925 1.526 . S
C928 C929 1.416 . S
C928 C933 1.390 . S
C929 C923 1.447 1_655 S
C929 C928 1.416 . S
C929 C930 1.401 . S
C930 H916 0.929 1_655 S
C930 C929 1.401 . S
C930 C931 1.385 . S
C931 H917 0.931 . S
C931 C930 1.385 . S
C931 C932 1.389 . S
C932 C931 1.389 . S
C932 C933 1.387 . S
C933 H918 0.930 . S
C933 C928 1.390 . S
C933 C932 1.387 . S
H934 C946 0.930 . S
H935 C948 0.930 . S
H936 C949 0.930 . S
H937 C953 0.959 . S
H938 C953 0.959 . S
H939 C953 0.961 . S
H940 C954 0.960 . S
H941 C954 0.961 . S
H942 C954 0.959 . S
H943 C957 0.929 . S
H944 C958 0.931 . S
H945 C960 0.930 . S
C946 H934 0.930 . S
C946 C947 1.399 . S
C946 C951 1.399 . S
C947 C946 1.399 . S
C947 C948 1.376 . S
C948 H935 0.930 . S
C948 C947 1.376 . S
C948 C949 1.388 . S
C949 H936 0.930 . S
C949 C948 1.388 . S
C949 C950 1.390 . S
C950 C949 1.390 . S
C950 C951 1.394 . S
C950 C956 1.465 . S
C951 C946 1.399 . S
C951 C950 1.394 . S
C951 C952 1.516 . S
C952 C951 1.516 . S
C952 C953 1.502 . S
C952 C954 1.561 . S
C952 C955 1.526 . S
C953 H937 0.959 . S
C953 H938 0.959 . S
C953 H939 0.961 . S
C953 C952 1.502 . S
C954 H940 0.960 . S
C954 H941 0.961 . S
C954 H942 0.959 . S
C954 C952 1.561 . S
C955 C952 1.526 . S
C955 C956 1.396 . S
C955 C960 1.390 . S
C956 C950 1.465 . S
C956 C955 1.396 . S
C956 C957 1.399 . S
C957 H943 0.929 . S
C957 C956 1.399 . S
C957 C958 1.385 . S
C958 H944 0.931 . S
C958 C957 1.385 . S
C958 C959 1.389 . S
C959 C958 1.389 . S
C959 C960 1.387 . S
C960 H945 0.930 . S
C960 C955 1.390 . S
C960 C959 1.387 . S
H961 C973 0.930 . S
H962 C975 0.930 . S
H963 C976 0.930 . S
H964 C980 0.959 . S
H965 C980 0.959 . S
H966 C980 0.961 . S
H967 C981 0.960 . S
H968 C981 0.961 . S
H969 C981 0.959 . S
H970 C984 0.929 . S
H971 C985 0.931 . S
H972 C987 0.930 . S
C973 H961 0.930 . S
C973 C974 1.399 . S
C973 C978 1.399 . S
C974 C973 1.399 . S
C974 C975 1.376 . S
C975 H962 0.930 . S
C975 C974 1.376 . S
C975 C976 1.388 . S
C976 H963 0.930 . S
C976 C975 1.388 . S
C976 C977 1.390 . S
C977 C976 1.390 . S
C977 C978 1.394 . S
C977 C983 1.465 . S
C978 C973 1.399 . S
C978 C977 1.394 . S
C978 C979 1.516 . S
C979 C978 1.516 . S
C979 C980 1.502 . S
C979 C981 1.561 . S
C979 C982 1.526 . S
C980 H964 0.959 . S
C980 H965 0.959 . S
C980 H966 0.961 . S
C980 C979 1.502 . S
C981 H967 0.960 . S
C981 H968 0.961 . S
C981 H969 0.959 . S
C981 C979 1.561 . S
C982 C979 1.526 . S
C982 C983 1.396 . S
C982 C987 1.390 . S
C983 C977 1.465 . S
C983 C982 1.396 . S
C983 C984 1.399 . S
C984 H970 0.929 . S
C984 C983 1.399 . S
C984 C985 1.385 . S
C985 H971 0.931 . S
C985 C984 1.385 . S
C985 C986 1.389 . S
C986 C985 1.389 . S
C986 C987 1.387 . S
C987 H972 0.930 . S
C987 C982 1.390 . S
C987 C986 1.387 . S
H988 C1000 0.930 . S
H989 C1002 0.930 . S
H990 C1003 0.930 . S
H991 C1007 0.959 . S
H992 C1007 0.959 . S
H993 C1007 0.961 . S
H994 C1008 0.960 . S
H995 C1008 0.961 . S
H996 C1008 0.959 . S
H997 C1011 0.929 . S
H998 C1012 0.931 . S
H999 C1014 0.930 . S
C1000 H988 0.930 . S
C1000 C1001 1.399 . S
C1000 C1005 1.399 . S
C1001 C1000 1.399 . S
C1001 C1002 1.376 . S
C1002 H989 0.930 . S
C1002 C1001 1.376 . S
C1002 C1003 1.388 . S
C1003 H990 0.930 . S
C1003 C1002 1.388 . S
C1003 C1004 1.390 . S
C1004 C1003 1.390 . S
C1004 C1005 1.394 . S
C1004 C1010 1.465 . S
C1005 C1000 1.399 . S
C1005 C1004 1.394 . S
C1005 C1006 1.516 . S
C1006 C1005 1.516 . S
C1006 C1007 1.502 . S
C1006 C1008 1.561 . S
C1006 C1009 1.526 . S
C1007 H991 0.959 . S
C1007 H992 0.959 . S
C1007 H993 0.961 . S
C1007 C1006 1.502 . S
C1008 H994 0.960 . S
C1008 H995 0.961 . S
C1008 H996 0.959 . S
C1008 C1006 1.561 . S
C1009 C1006 1.526 . S
C1009 C1010 1.396 . S
C1009 C1014 1.390 . S
C1010 C1004 1.465 . S
C1010 C1009 1.396 . S
C1010 C1011 1.399 . S
C1011 H997 0.929 . S
C1011 C1010 1.399 . S
C1011 C1012 1.385 . S
C1012 H998 0.931 . S
C1012 C1011 1.385 . S
C1012 C1013 1.389 . S
C1013 C1012 1.389 . S
C1013 C1014 1.387 . S
C1014 H999 0.930 . S
C1014 C1009 1.390 . S
C1014 C1013 1.387 . S
H1015 C1027 0.930 . S
H1016 C1029 0.930 . S
H1017 C1030 0.930 . S
H1018 C1034 0.959 . S
H1019 C1034 0.959 . S
H1020 C1034 0.961 . S
H1021 C1035 0.960 . S
H1022 C1035 0.961 . S
H1023 C1035 0.959 . S
H1024 C1038 0.929 . S
H1025 C1039 0.931 . S
H1026 C1041 0.930 . S
C1027 H1015 0.930 . S
C1027 C1028 1.399 . S
C1027 C1032 1.399 1_554 S
C1028 C1027 1.399 . S
C1028 C1029 1.376 . S
C1029 H1016 0.930 . S
C1029 C1028 1.376 . S
C1029 C1030 1.388 . S
C1030 H1017 0.930 . S
C1030 C1029 1.388 . S
C1030 C1031 1.390 1_554 S
C1031 C1030 1.390 1_556 S
C1031 C1032 1.394 . S
C1031 C1037 1.465 . S
C1032 C1027 1.399 1_556 S
C1032 C1031 1.394 . S
C1032 C1033 1.516 . S
C1033 C1032 1.516 . S
C1033 C1034 1.502 . S
C1033 C1035 1.561 . S
C1033 C1036 1.526 . S
C1034 H1018 0.959 . S
C1034 H1019 0.959 . S
C1034 H1020 0.961 . S
C1034 C1033 1.502 . S
C1035 H1021 0.960 . S
C1035 H1022 0.961 . S
C1035 H1023 0.959 . S
C1035 C1033 1.561 . S
C1036 C1033 1.526 . S
C1036 C1037 1.396 . S
C1036 C1041 1.390 . S
C1037 C1031 1.465 . S
C1037 C1036 1.396 . S
C1037 C1038 1.399 . S
C1038 H1024 0.929 . S
C1038 C1037 1.399 . S
C1038 C1039 1.385 . S
C1039 H1025 0.931 . S
C1039 C1038 1.385 . S
C1039 C1040 1.389 . S
C1040 C1039 1.389 . S
C1040 C1041 1.387 . S
C1041 H1026 0.930 . S
C1041 C1036 1.390 . S
C1041 C1040 1.387 . S
H1042 C1054 0.930 . S
H1043 C1056 0.930 . S
H1044 C1057 0.930 . S
H1045 C1061 0.959 . S
H1046 C1061 0.959 . S
H1047 C1061 0.961 . S
H1048 C1062 0.960 . S
H1049 C1062 0.961 . S
H1050 C1062 0.959 . S
H1051 C1065 0.929 . S
H1052 C1066 0.931 . S
H1053 C1068 0.930 . S
C1054 H1042 0.930 . S
C1054 C1055 1.399 . S
C1054 C1059 1.399 . S
C1055 C1054 1.399 . S
C1055 C1056 1.376 . S
C1056 H1043 0.930 . S
C1056 C1055 1.376 . S
C1056 C1057 1.388 . S
C1057 H1044 0.930 . S
C1057 C1056 1.388 . S
C1057 C1058 1.390 . S
C1058 C1057 1.390 . S
C1058 C1059 1.394 . S
C1058 C1064 1.465 . S
C1059 C1054 1.399 . S
C1059 C1058 1.394 . S
C1059 C1060 1.516 . S
C1060 C1059 1.516 . S
C1060 C1061 1.502 . S
C1060 C1062 1.561 . S
C1060 C1063 1.526 . S
C1061 H1045 0.959 . S
C1061 H1046 0.959 . S
C1061 H1047 0.961 . S
C1061 C1060 1.502 . S
C1062 H1048 0.960 . S
C1062 H1049 0.961 . S
C1062 H1050 0.959 . S
C1062 C1060 1.561 . S
C1063 C1060 1.526 . S
C1063 C1064 1.396 . S
C1063 C1068 1.390 . S
C1064 C1058 1.465 . S
C1064 C1063 1.396 . S
C1064 C1065 1.399 . S
C1065 H1051 0.929 . S
C1065 C1064 1.399 . S
C1065 C1066 1.385 . S
C1066 H1052 0.931 . S
C1066 C1065 1.385 . S
C1066 C1067 1.389 . S
C1067 C1066 1.389 . S
C1067 C1068 1.387 . S
C1068 H1053 0.930 . S
C1068 C1063 1.390 . S
C1068 C1067 1.387 . S
H1069 C1081 0.884 1_655 S
H1070 C1083 0.930 . S
H1071 C1084 0.930 . S
H1072 C1088 0.959 . S
H1073 C1088 0.959 . S
H1074 C1088 0.961 . S
H1075 C1089 0.960 . S
H1076 C1089 0.961 . S
H1077 C1089 0.959 . S
H1078 C1092 0.929 . S
H1079 C1093 0.943 . S
H1080 C1095 0.930 . S
C1081 H1069 0.884 1_455 S
C1081 C1082 1.461 . S
C1081 C1086 1.386 1_455 S
C1082 C1081 1.461 . S
C1082 C1083 1.376 . S
C1083 H1070 0.930 . S
C1083 C1082 1.376 . S
C1083 C1084 1.388 . S
C1084 H1071 0.930 . S
C1084 C1083 1.388 . S
C1084 C1085 1.390 . S
C1085 C1084 1.390 . S
C1085 C1086 1.394 1_455 S
C1085 C1091 1.465 . S
C1086 C1081 1.386 1_655 S
C1086 C1085 1.394 1_655 S
C1086 C1087 1.516 . S
C1087 C1086 1.516 . S
C1087 C1088 1.502 . S
C1087 C1089 1.561 . S
C1087 C1090 1.526 . S
C1088 H1072 0.959 . S
C1088 H1073 0.959 . S
C1088 H1074 0.961 . S
C1088 C1087 1.502 . S
C1089 H1075 0.960 . S
C1089 H1076 0.961 . S
C1089 H1077 0.959 . S
C1089 C1087 1.561 . S
C1090 C1087 1.526 . S
C1090 C1091 1.396 1_655 S
C1090 C1095 1.390 . S
C1091 C1085 1.465 . S
C1091 C1090 1.396 1_455 S
C1091 C1092 1.399 . S
C1092 H1078 0.929 . S
C1092 C1091 1.399 . S
C1092 C1093 1.402 . S
C1093 H1079 0.943 . S
C1093 C1092 1.402 . S
C1093 C1094 1.361 1_455 S
C1094 C1093 1.361 1_655 S
C1094 C1095 1.387 . S
C1095 H1080 0.930 . S
C1095 C1090 1.390 . S
C1095 C1094 1.387 . S
H1096 C1108 0.930 . S
H1097 C1110 0.930 . S
H1098 C1111 0.930 . S
H1099 C1115 0.959 . S
H1100 C1115 0.959 . S
H1101 C1115 0.961 . S
H1102 C1116 0.960 . S
H1103 C1116 0.961 . S
H1104 C1116 0.959 . S
H1105 C1119 0.929 . S
H1106 C1120 0.931 . S
H1107 C1122 0.930 . S
C1108 H1096 0.930 . S
C1108 C1109 1.399 . S
C1108 C1113 1.399 . S
C1109 C1108 1.399 . S
C1109 C1110 1.376 . S
C1110 H1097 0.930 . S
C1110 C1109 1.376 . S
C1110 C1111 1.388 . S
C1111 H1098 0.930 . S
C1111 C1110 1.388 . S
C1111 C1112 1.390 . S
C1112 C1111 1.390 . S
C1112 C1113 1.394 . S
C1112 C1118 1.465 . S
C1113 C1108 1.399 . S
C1113 C1112 1.394 . S
C1113 C1114 1.516 . S
C1114 C1113 1.516 . S
C1114 C1115 1.502 . S
C1114 C1116 1.561 . S
C1114 C1117 1.526 . S
C1115 H1099 0.959 . S
C1115 H1100 0.959 . S
C1115 H1101 0.961 . S
C1115 C1114 1.502 . S
C1116 H1102 0.960 . S
C1116 H1103 0.961 . S
C1116 H1104 0.959 . S
C1116 C1114 1.561 . S
C1117 C1114 1.526 . S
C1117 C1118 1.396 . S
C1117 C1122 1.390 . S
C1118 C1112 1.465 . S
C1118 C1117 1.396 . S
C1118 C1119 1.399 . S
C1119 H1105 0.929 . S
C1119 C1118 1.399 . S
C1119 C1120 1.385 . S
C1120 H1106 0.931 . S
C1120 C1119 1.385 . S
C1120 C1121 1.389 . S
C1121 C1120 1.389 . S
C1121 C1122 1.387 . S
C1122 H1107 0.930 . S
C1122 C1117 1.390 . S
C1122 C1121 1.387 . S
H1123 C1135 0.930 . S
H1124 C1137 0.930 . S
H1125 C1138 0.930 1_556 S
H1126 C1142 0.959 . S
H1127 C1142 0.959 . S
H1128 C1142 0.961 . S
H1129 C1143 0.960 . S
H1130 C1143 0.961 . S
H1131 C1143 0.959 . S
H1132 C1146 0.929 . S
H1133 C1147 0.931 . S
H1134 C1149 0.930 . S
C1135 H1123 0.930 . S
C1135 C1136 1.399 . S
C1135 C1140 1.399 1_554 S
C1136 C1135 1.399 . S
C1136 C1137 1.376 . S
C1137 H1124 0.930 . S
C1137 C1136 1.376 . S
C1137 C1138 1.388 1_655 S
C1138 H1125 0.930 1_554 S
C1138 C1137 1.388 1_455 S
C1138 C1139 1.390 1_554 S
C1139 C1138 1.390 1_556 S
C1139 C1140 1.394 1_455 S
C1139 C1145 1.465 . S
C1140 C1135 1.399 1_556 S
C1140 C1139 1.394 1_655 S
C1140 C1141 1.516 . S
C1141 C1140 1.516 . S
C1141 C1142 1.502 . S
C1141 C1143 1.561 1_655 S
C1141 C1144 1.526 1_655 S
C1142 H1126 0.959 . S
C1142 H1127 0.959 . S
C1142 H1128 0.961 . S
C1142 C1141 1.502 . S
C1143 H1129 0.960 . S
C1143 H1130 0.961 . S
C1143 H1131 0.959 . S
C1143 C1141 1.561 1_455 S
C1144 C1141 1.526 1_455 S
C1144 C1145 1.396 . S
C1144 C1149 1.390 . S
C1145 C1139 1.465 . S
C1145 C1144 1.396 . S
C1145 C1146 1.399 . S
C1146 H1132 0.929 . S
C1146 C1145 1.399 . S
C1146 C1147 1.385 . S
C1147 H1133 0.931 . S
C1147 C1146 1.385 . S
C1147 C1148 1.389 . S
C1148 C1147 1.389 . S
C1148 C1149 1.387 . S
C1149 H1134 0.930 . S
C1149 C1144 1.390 . S
C1149 C1148 1.387 . S
H1150 C1162 0.930 . S
H1151 C1164 0.930 . S
H1152 C1165 0.930 . S
H1153 C1169 0.959 . S
H1154 C1169 0.959 . S
H1155 C1169 0.961 . S
H1156 C1170 0.960 . S
H1157 C1170 0.961 . S
H1158 C1170 0.959 . S
H1159 C1173 0.929 . S
H1160 C1174 0.931 . S
H1161 C1176 0.930 . S
C1162 H1150 0.930 . S
C1162 C1163 1.399 . S
C1162 C1167 1.399 . S
C1163 C1162 1.399 . S
C1163 C1164 1.376 . S
C1164 H1151 0.930 . S
C1164 C1163 1.376 . S
C1164 C1165 1.388 . S
C1165 H1152 0.930 . S
C1165 C1164 1.388 . S
C1165 C1166 1.390 . S
C1166 C1165 1.390 . S
C1166 C1167 1.394 . S
C1166 C1172 1.465 . S
C1167 C1162 1.399 . S
C1167 C1166 1.394 . S
C1167 C1168 1.516 . S
C1168 C1167 1.516 . S
C1168 C1169 1.502 . S
C1168 C1170 1.561 . S
C1168 C1171 1.526 . S
C1169 H1153 0.959 . S
C1169 H1154 0.959 . S
C1169 H1155 0.961 . S
C1169 C1168 1.502 . S
C1170 H1156 0.960 . S
C1170 H1157 0.961 . S
C1170 H1158 0.959 . S
C1170 C1168 1.561 . S
C1171 C1168 1.526 . S
C1171 C1172 1.396 . S
C1171 C1176 1.390 . S
C1172 C1166 1.465 . S
C1172 C1171 1.396 . S
C1172 C1173 1.399 . S
C1173 H1159 0.929 . S
C1173 C1172 1.399 . S
C1173 C1174 1.385 . S
C1174 H1160 0.931 . S
C1174 C1173 1.385 . S
C1174 C1175 1.389 . S
C1175 C1174 1.389 . S
C1175 C1176 1.387 . S
C1176 H1161 0.930 . S
C1176 C1171 1.390 . S
C1176 C1175 1.387 . S
H1177 C1189 0.930 . S
H1178 C1191 0.930 . S
H1179 C1192 0.930 . S
H1180 C1196 0.959 . S
H1181 C1196 0.959 . S
H1182 C1196 0.961 . S
H1183 C1197 0.960 . S
H1184 C1197 0.961 . S
H1185 C1197 0.959 . S
H1186 C1200 0.929 . S
H1187 C1201 0.931 . S
H1188 C1203 0.930 . S
C1189 H1177 0.930 . S
C1189 C1190 1.399 . S
C1189 C1194 1.399 . S
C1190 C1189 1.399 . S
C1190 C1191 1.376 . S
C1191 H1178 0.930 . S
C1191 C1190 1.376 . S
C1191 C1192 1.388 . S
C1192 H1179 0.930 . S
C1192 C1191 1.388 . S
C1192 C1193 1.390 . S
C1193 C1192 1.390 . S
C1193 C1194 1.394 . S
C1193 C1199 1.465 . S
C1194 C1189 1.399 . S
C1194 C1193 1.394 . S
C1194 C1195 1.516 . S
C1195 C1194 1.516 . S
C1195 C1196 1.502 . S
C1195 C1197 1.561 . S
C1195 C1198 1.526 . S
C1196 H1180 0.959 . S
C1196 H1181 0.959 . S
C1196 H1182 0.961 . S
C1196 C1195 1.502 . S
C1197 H1183 0.960 . S
C1197 H1184 0.961 . S
C1197 H1185 0.959 . S
C1197 C1195 1.561 . S
C1198 C1195 1.526 . S
C1198 C1199 1.396 . S
C1198 C1203 1.390 . S
C1199 C1193 1.465 . S
C1199 C1198 1.396 . S
C1199 C1200 1.399 . S
C1200 H1186 0.929 . S
C1200 C1199 1.399 . S
C1200 C1201 1.385 . S
C1201 H1187 0.931 . S
C1201 C1200 1.385 . S
C1201 C1202 1.389 . S
C1202 C1201 1.389 . S
C1202 C1203 1.387 . S
C1203 H1188 0.930 . S
C1203 C1198 1.390 . S
C1203 C1202 1.387 . S
H1204 C1216 0.930 . S
H1205 C1218 0.930 . S
H1206 C1219 0.930 . S
H1207 C1223 0.959 . S
H1208 C1223 0.959 . S
H1209 C1223 0.961 . S
H1210 C1224 0.960 . S
H1211 C1224 0.961 . S
H1212 C1224 0.959 . S
H1213 C1227 0.929 . S
H1214 C1228 0.931 . S
H1215 C1230 0.930 . S
C1216 H1204 0.930 . S
C1216 C1217 1.399 . S
C1216 C1221 1.399 . S
C1217 C1216 1.399 . S
C1217 C1218 1.376 . S
C1218 H1205 0.930 . S
C1218 C1217 1.376 . S
C1218 C1219 1.388 . S
C1219 H1206 0.930 . S
C1219 C1218 1.388 . S
C1219 C1220 1.390 . S
C1220 C1219 1.390 . S
C1220 C1221 1.394 . S
C1220 C1226 1.465 . S
C1221 C1216 1.399 . S
C1221 C1220 1.394 . S
C1221 C1222 1.516 . S
C1222 C1221 1.516 . S
C1222 C1223 1.502 . S
C1222 C1224 1.561 . S
C1222 C1225 1.526 . S
C1223 H1207 0.959 . S
C1223 H1208 0.959 . S
C1223 H1209 0.961 . S
C1223 C1222 1.502 . S
C1224 H1210 0.960 . S
C1224 H1211 0.961 . S
C1224 H1212 0.959 . S
C1224 C1222 1.561 . S
C1225 C1222 1.526 . S
C1225 C1226 1.396 . S
C1225 C1230 1.390 . S
C1226 C1220 1.465 . S
C1226 C1225 1.396 . S
C1226 C1227 1.399 . S
C1227 H1213 0.929 . S
C1227 C1226 1.399 . S
C1227 C1228 1.385 . S
C1228 H1214 0.931 . S
C1228 C1227 1.385 . S
C1228 C1229 1.389 . S
C1229 C1228 1.389 . S
C1229 C1230 1.387 . S
C1230 H1215 0.930 . S
C1230 C1225 1.390 . S
C1230 C1229 1.387 . S
H1231 C1243 0.930 . S
H1232 C1245 0.930 . S
H1233 C1246 0.930 . S
H1234 C1250 0.959 . S
H1235 C1250 0.959 . S
H1236 C1250 0.961 . S
H1237 C1251 0.960 . S
H1238 C1251 0.961 . S
H1239 C1251 0.959 . S
H1240 C1254 0.929 . S
H1241 C1255 0.931 . S
H1242 C1257 0.930 . S
C1243 H1231 0.930 . S
C1243 C1244 1.399 . S
C1243 C1248 1.399 . S
C1244 C1243 1.399 . S
C1244 C1245 1.376 . S
C1245 H1232 0.930 . S
C1245 C1244 1.376 . S
C1245 C1246 1.388 . S
C1246 H1233 0.930 . S
C1246 C1245 1.388 . S
C1246 C1247 1.390 . S
C1247 C1246 1.390 . S
C1247 C1248 1.394 . S
C1247 C1253 1.465 . S
C1248 C1243 1.399 . S
C1248 C1247 1.394 . S
C1248 C1249 1.516 . S
C1249 C1248 1.516 . S
C1249 C1250 1.502 . S
C1249 C1251 1.561 . S
C1249 C1252 1.526 . S
C1250 H1234 0.959 . S
C1250 H1235 0.959 . S
C1250 H1236 0.961 . S
C1250 C1249 1.502 . S
C1251 H1237 0.960 . S
C1251 H1238 0.961 . S
C1251 H1239 0.959 . S
C1251 C1249 1.561 . S
C1252 C1249 1.526 . S
C1252 C1253 1.396 . S
C1252 C1257 1.390 1_554 S
C1253 C1247 1.465 . S
C1253 C1252 1.396 . S
C1253 C1254 1.399 1_554 S
C1254 H1240 0.929 . S
C1254 C1253 1.399 1_556 S
C1254 C1255 1.385 . S
C1255 H1241 0.931 . S
C1255 C1254 1.385 . S
C1255 C1256 1.389 . S
C1256 C1255 1.389 . S
C1256 C1257 1.387 . S
C1257 H1242 0.930 . S
C1257 C1252 1.390 1_556 S
C1257 C1256 1.387 . S
H1258 C1270 0.930 . S
H1259 C1272 0.930 . S
H1260 C1273 0.930 . S
H1261 C1277 0.959 . S
H1262 C1277 0.959 . S
H1263 C1277 0.961 . S
H1264 C1278 0.960 . S
H1265 C1278 0.961 . S
H1266 C1278 0.959 . S
H1267 C1281 0.929 . S
H1268 C1282 0.931 . S
H1269 C1284 0.930 . S
C1270 H1258 0.930 . S
C1270 C1271 1.399 . S
C1270 C1275 1.399 . S
C1271 C1270 1.399 . S
C1271 C1272 1.376 . S
C1272 H1259 0.930 . S
C1272 C1271 1.376 . S
C1272 C1273 1.388 . S
C1273 H1260 0.930 . S
C1273 C1272 1.388 . S
C1273 C1274 1.390 . S
C1274 C1273 1.390 . S
C1274 C1275 1.394 . S
C1274 C1280 1.465 . S
C1275 C1270 1.399 . S
C1275 C1274 1.394 . S
C1275 C1276 1.516 . S
C1276 C1275 1.516 . S
C1276 C1277 1.502 . S
C1276 C1278 1.561 . S
C1276 C1279 1.526 . S
C1277 H1261 0.959 . S
C1277 H1262 0.959 . S
C1277 H1263 0.961 . S
C1277 C1276 1.502 . S
C1278 H1264 0.960 . S
C1278 H1265 0.961 . S
C1278 H1266 0.959 . S
C1278 C1276 1.561 . S
C1279 C1276 1.526 . S
C1279 C1280 1.396 . S
C1279 C1284 1.390 . S
C1280 C1274 1.465 . S
C1280 C1279 1.396 . S
C1280 C1281 1.399 . S
C1281 H1267 0.929 . S
C1281 C1280 1.399 . S
C1281 C1282 1.385 . S
C1282 H1268 0.931 . S
C1282 C1281 1.385 . S
C1282 C1283 1.389 . S
C1283 C1282 1.389 . S
C1283 C1284 1.387 . S
C1284 H1269 0.930 . S
C1284 C1279 1.390 . S
C1284 C1283 1.387 . S
H1285 C1297 0.930 . S
H1286 C1299 0.930 . S
H1287 C1300 0.923 1_455 S
H1288 C1304 0.959 . S
H1289 C1304 0.959 . S
H1290 C1304 0.961 . S
H1291 C1305 0.960 . S
H1292 C1305 0.961 . S
H1293 C1305 0.959 . S
H1294 C1308 0.929 . S
H1295 C1309 0.931 . S
H1296 C1311 0.930 . S
C1297 H1285 0.930 . S
C1297 C1298 1.399 . S
C1297 C1302 1.399 . S
C1298 C1297 1.399 . S
C1298 C1299 1.376 . S
C1299 H1286 0.930 . S
C1299 C1298 1.376 . S
C1299 C1300 1.397 . S
C1300 H1287 0.923 1_655 S
C1300 C1299 1.397 . S
C1300 C1301 1.386 1_655 S
C1301 C1300 1.386 1_455 S
C1301 C1302 1.369 1_455 S
C1301 C1307 1.495 . S
C1302 C1297 1.399 . S
C1302 C1301 1.369 1_655 S
C1302 C1303 1.516 . S
C1303 C1302 1.516 . S
C1303 C1304 1.502 . S
C1303 C1305 1.561 1_655 S
C1303 C1306 1.526 1_655 S
C1304 H1288 0.959 . S
C1304 H1289 0.959 . S
C1304 H1290 0.961 . S
C1304 C1303 1.502 . S
C1305 H1291 0.960 . S
C1305 H1292 0.961 . S
C1305 H1293 0.959 . S
C1305 C1303 1.561 1_455 S
C1306 C1303 1.526 1_455 S
C1306 C1307 1.396 . S
C1306 C1311 1.390 . S
C1307 C1301 1.495 . S
C1307 C1306 1.396 . S
C1307 C1308 1.399 . S
C1308 H1294 0.929 . S
C1308 C1307 1.399 . S
C1308 C1309 1.385 . S
C1309 H1295 0.931 . S
C1309 C1308 1.385 . S
C1309 C1310 1.389 . S
C1310 C1309 1.389 . S
C1310 C1311 1.387 . S
C1311 H1296 0.930 . S
C1311 C1306 1.390 . S
C1311 C1310 1.387 . S
H1312 C1324 0.930 . S
H1313 C1326 0.930 . S
H1314 C1327 0.930 . S
H1315 C1331 0.959 . S
H1316 C1331 0.959 . S
H1317 C1331 0.961 . S
H1318 C1332 0.960 . S
H1319 C1332 0.961 . S
H1320 C1332 0.959 . S
H1321 C1335 0.929 . S
H1322 C1336 0.931 . S
H1323 C1338 0.930 . S
C1324 H1312 0.930 . S
C1324 C1325 1.399 . S
C1324 C1329 1.399 . S
C1325 C1324 1.399 . S
C1325 C1326 1.376 . S
C1326 H1313 0.930 . S
C1326 C1325 1.376 . S
C1326 C1327 1.388 . S
C1327 H1314 0.930 . S
C1327 C1326 1.388 . S
C1327 C1328 1.390 . S
C1328 C1327 1.390 . S
C1328 C1329 1.394 . S
C1328 C1334 1.465 . S
C1329 C1324 1.399 . S
C1329 C1328 1.394 . S
C1329 C1330 1.516 . S
C1330 C1329 1.516 . S
C1330 C1331 1.502 . S
C1330 C1332 1.561 . S
C1330 C1333 1.526 . S
C1331 H1315 0.959 . S
C1331 H1316 0.959 . S
C1331 H1317 0.961 . S
C1331 C1330 1.502 . S
C1332 H1318 0.960 . S
C1332 H1319 0.961 . S
C1332 H1320 0.959 . S
C1332 C1330 1.561 . S
C1333 C1330 1.526 . S
C1333 C1334 1.396 . S
C1333 C1338 1.390 . S
C1334 C1328 1.465 . S
C1334 C1333 1.396 . S
C1334 C1335 1.399 . S
C1335 H1321 0.929 . S
C1335 C1334 1.399 . S
C1335 C1336 1.385 . S
C1336 H1322 0.931 . S
C1336 C1335 1.385 . S
C1336 C1337 1.389 . S
C1337 C1336 1.389 . S
C1337 C1338 1.387 . S
C1338 H1323 0.930 . S
C1338 C1333 1.390 . S
C1338 C1337 1.387 . S
H1339 C1351 0.930 . S
H1340 C1353 0.930 . S
H1341 C1354 0.930 . S
H1342 C1358 0.959 . S
H1343 C1358 0.959 . S
H1344 C1358 0.961 . S
H1345 C1359 0.960 . S
H1346 C1359 0.961 . S
H1347 C1359 0.959 . S
H1348 C1362 0.929 . S
H1349 C1363 0.931 . S
H1350 C1365 0.930 . S
C1351 H1339 0.930 . S
C1351 C1352 1.399 . S
C1351 C1356 1.399 . S
C1352 C1351 1.399 . S
C1352 C1353 1.376 . S
C1353 H1340 0.930 . S
C1353 C1352 1.376 . S
C1353 C1354 1.388 . S
C1354 H1341 0.930 . S
C1354 C1353 1.388 . S
C1354 C1355 1.390 . S
C1355 C1354 1.390 . S
C1355 C1356 1.394 . S
C1355 C1361 1.465 . S
C1356 C1351 1.399 . S
C1356 C1355 1.394 . S
C1356 C1357 1.516 . S
C1357 C1356 1.516 . S
C1357 C1358 1.502 . S
C1357 C1359 1.561 . S
C1357 C1360 1.526 . S
C1358 H1342 0.959 . S
C1358 H1343 0.959 . S
C1358 H1344 0.961 . S
C1358 C1357 1.502 . S
C1359 H1345 0.960 . S
C1359 H1346 0.961 . S
C1359 H1347 0.959 . S
C1359 C1357 1.561 . S
C1360 C1357 1.526 . S
C1360 C1361 1.396 . S
C1360 C1365 1.390 . S
C1361 C1355 1.465 . S
C1361 C1360 1.396 . S
C1361 C1362 1.399 . S
C1362 H1348 0.929 . S
C1362 C1361 1.399 . S
C1362 C1363 1.385 . S
C1363 H1349 0.931 . S
C1363 C1362 1.385 . S
C1363 C1364 1.389 . S
C1364 C1363 1.389 . S
C1364 C1365 1.387 . S
C1365 H1350 0.930 . S
C1365 C1360 1.390 . S
C1365 C1364 1.387 . S
H1366 C1378 0.930 . S
H1367 C1380 0.930 . S
H1368 C1381 0.930 . S
H1369 C1385 0.959 . S
H1370 C1385 0.959 . S
H1371 C1385 0.961 . S
H1372 C1386 0.960 . S
H1373 C1386 0.961 . S
H1374 C1386 0.959 . S
H1375 C1389 0.929 . S
H1376 C1390 0.931 . S
H1377 C1392 0.930 . S
C1378 H1366 0.930 . S
C1378 C1379 1.399 . S
C1378 C1383 1.399 . S
C1379 C1378 1.399 . S
C1379 C1380 1.376 . S
C1380 H1367 0.930 . S
C1380 C1379 1.376 . S
C1380 C1381 1.388 . S
C1381 H1368 0.930 . S
C1381 C1380 1.388 . S
C1381 C1382 1.390 . S
C1382 C1381 1.390 . S
C1382 C1383 1.394 . S
C1382 C1388 1.465 . S
C1383 C1378 1.399 . S
C1383 C1382 1.394 . S
C1383 C1384 1.516 . S
C1384 C1383 1.516 . S
C1384 C1385 1.502 . S
C1384 C1386 1.561 . S
C1384 C1387 1.526 . S
C1385 H1369 0.959 . S
C1385 H1370 0.959 . S
C1385 H1371 0.961 . S
C1385 C1384 1.502 . S
C1386 H1372 0.960 . S
C1386 H1373 0.961 . S
C1386 H1374 0.959 . S
C1386 C1384 1.561 . S
C1387 C1384 1.526 . S
C1387 C1388 1.396 . S
C1387 C1392 1.390 . S
C1388 C1382 1.465 . S
C1388 C1387 1.396 . S
C1388 C1389 1.399 . S
C1389 H1375 0.929 . S
C1389 C1388 1.399 . S
C1389 C1390 1.385 . S
C1390 H1376 0.931 . S
C1390 C1389 1.385 . S
C1390 C1391 1.389 . S
C1391 C1390 1.389 . S
C1391 C1392 1.387 . S
C1392 H1377 0.930 . S
C1392 C1387 1.390 . S
C1392 C1391 1.387 . S
H1393 C1405 0.930 . S
H1394 C1407 0.912 1_655 S
H1395 C1408 0.930 . S
H1396 C1412 0.959 . S
H1397 C1412 0.959 1_556 S
H1398 C1412 0.961 . S
H1399 C1413 0.960 . S
H1400 C1413 0.961 . S
H1401 C1413 0.959 . S
H1402 C1416 0.929 . S
H1403 C1417 0.931 . S
H1404 C1419 0.930 1_455 S
C1405 H1393 0.930 . S
C1405 C1406 1.399 . S
C1405 C1410 1.399 . S
C1406 C1405 1.399 . S
C1406 C1407 1.427 . S
C1407 H1394 0.912 1_455 S
C1407 C1406 1.427 . S
C1407 C1408 1.358 1_455 S
C1408 H1395 0.930 . S
C1408 C1407 1.358 1_655 S
C1408 C1409 1.390 . S
C1409 C1408 1.390 . S
C1409 C1410 1.394 1_655 S
C1409 C1415 1.465 . S
C1410 C1405 1.399 . S
C1410 C1409 1.394 1_455 S
C1410 C1411 1.516 . S
C1411 C1410 1.516 . S
C1411 C1412 1.502 . S
C1411 C1413 1.561 . S
C1411 C1414 1.573 . S
C1412 H1396 0.959 . S
C1412 H1397 0.959 1_554 S
C1412 H1398 0.961 . S
C1412 C1411 1.502 . S
C1413 H1399 0.960 . S
C1413 H1400 0.961 . S
C1413 H1401 0.959 . S
C1413 C1411 1.561 . S
C1414 C1411 1.573 . S
C1414 C1415 1.360 1_455 S
C1414 C1419 1.378 1_454 S
C1415 C1409 1.465 . S
C1415 C1414 1.360 1_655 S
C1415 C1416 1.399 . S
C1416 H1402 0.929 . S
C1416 C1415 1.399 . S
C1416 C1417 1.385 1_554 S
C1417 H1403 0.931 . S
C1417 C1416 1.385 1_556 S
C1417 C1418 1.389 . S
C1418 C1417 1.389 . S
C1418 C1419 1.387 . S
C1419 H1404 0.930 1_655 S
C1419 C1414 1.378 1_656 S
C1419 C1418 1.387 . S
H1420 C1432 0.930 . S
H1421 C1434 0.930 . S
H1422 C1435 0.930 . S
H1423 C1439 0.959 . S
H1424 C1439 0.959 . S
H1425 C1439 0.961 . S
H1426 C1440 0.960 . S
H1427 C1440 0.961 . S
H1428 C1440 0.959 . S
H1429 C1443 0.929 . S
H1430 C1444 0.931 . S
H1431 C1446 0.930 . S
C1432 H1420 0.930 . S
C1432 C1433 1.399 . S
C1432 C1437 1.399 . S
C1433 C1432 1.399 . S
C1433 C1434 1.376 . S
C1434 H1421 0.930 . S
C1434 C1433 1.376 . S
C1434 C1435 1.388 . S
C1435 H1422 0.930 . S
C1435 C1434 1.388 . S
C1435 C1436 1.390 . S
C1436 C1435 1.390 . S
C1436 C1437 1.394 . S
C1436 C1442 1.465 . S
C1437 C1432 1.399 . S
C1437 C1436 1.394 . S
C1437 C1438 1.516 . S
C1438 C1437 1.516 . S
C1438 C1439 1.502 . S
C1438 C1440 1.561 . S
C1438 C1441 1.526 . S
C1439 H1423 0.959 . S
C1439 H1424 0.959 . S
C1439 H1425 0.961 . S
C1439 C1438 1.502 . S
C1440 H1426 0.960 . S
C1440 H1427 0.961 . S
C1440 H1428 0.959 . S
C1440 C1438 1.561 . S
C1441 C1438 1.526 . S
C1441 C1442 1.396 . S
C1441 C1446 1.390 . S
C1442 C1436 1.465 . S
C1442 C1441 1.396 . S
C1442 C1443 1.399 . S
C1443 H1429 0.929 . S
C1443 C1442 1.399 . S
C1443 C1444 1.385 . S
C1444 H1430 0.931 . S
C1444 C1443 1.385 . S
C1444 C1445 1.389 . S
C1445 C1444 1.389 . S
C1445 C1446 1.387 . S
C1446 H1431 0.930 . S
C1446 C1441 1.390 . S
C1446 C1445 1.387 . S
H1447 C1459 0.930 . S
H1448 C1461 0.930 . S
H1449 C1462 0.911 1_455 S
H1450 C1466 0.959 . S
H1451 C1466 0.959 . S
H1452 C1466 0.961 . S
H1453 C1467 0.960 . S
H1454 C1467 0.961 . S
H1455 C1467 0.959 . S
H1456 C1470 0.929 . S
H1457 C1471 0.931 . S
H1458 C1473 0.930 . S
C1459 H1447 0.930 . S
C1459 C1460 1.399 . S
C1459 C1464 1.399 . S
C1460 C1459 1.399 . S
C1460 C1461 1.376 . S
C1461 H1448 0.930 . S
C1461 C1460 1.376 . S
C1461 C1462 1.417 . S
C1462 H1449 0.911 1_655 S
C1462 C1461 1.417 . S
C1462 C1463 1.383 1_655 S
C1463 C1462 1.383 1_455 S
C1463 C1464 1.375 1_455 S
C1463 C1469 1.488 . S
C1464 C1459 1.399 . S
C1464 C1463 1.375 1_655 S
C1464 C1465 1.534 . S
C1465 C1464 1.534 . S
C1465 C1466 1.560 . S
C1465 C1467 1.511 1_655 S
C1465 C1468 1.498 1_655 S
C1466 H1450 0.959 . S
C1466 H1451 0.959 . S
C1466 H1452 0.961 . S
C1466 C1465 1.560 . S
C1467 H1453 0.960 . S
C1467 H1454 0.961 . S
C1467 H1455 0.959 . S
C1467 C1465 1.511 1_455 S
C1468 C1465 1.498 1_455 S
C1468 C1469 1.396 . S
C1468 C1473 1.390 . S
C1469 C1463 1.488 . S
C1469 C1468 1.396 . S
C1469 C1470 1.399 . S
C1470 H1456 0.929 . S
C1470 C1469 1.399 . S
C1470 C1471 1.385 . S
C1471 H1457 0.931 . S
C1471 C1470 1.385 . S
C1471 C1472 1.389 . S
C1472 C1471 1.389 . S
C1472 C1473 1.387 . S
C1473 H1458 0.930 . S
C1473 C1468 1.390 . S
C1473 C1472 1.387 . S
H1474 C1486 0.930 . S
H1475 C1488 0.930 . S
H1476 C1489 0.930 . S
H1477 C1493 0.959 . S
H1478 C1493 0.959 . S
H1479 C1493 0.961 . S
H1480 C1494 0.960 . S
H1481 C1494 0.961 . S
H1482 C1494 0.959 . S
H1483 C1497 0.929 . S
H1484 C1498 0.931 . S
H1485 C1500 0.930 . S
C1486 H1474 0.930 . S
C1486 C1487 1.399 . S
C1486 C1491 1.399 . S
C1487 C1486 1.399 . S
C1487 C1488 1.376 . S
C1488 H1475 0.930 . S
C1488 C1487 1.376 . S
C1488 C1489 1.388 . S
C1489 H1476 0.930 . S
C1489 C1488 1.388 . S
C1489 C1490 1.390 . S
C1490 C1489 1.390 . S
C1490 C1491 1.394 . S
C1490 C1496 1.465 . S
C1491 C1486 1.399 . S
C1491 C1490 1.394 . S
C1491 C1492 1.516 . S
C1492 C1491 1.516 . S
C1492 C1493 1.502 . S
C1492 C1494 1.561 . S
C1492 C1495 1.526 . S
C1493 H1477 0.959 . S
C1493 H1478 0.959 . S
C1493 H1479 0.961 . S
C1493 C1492 1.502 . S
C1494 H1480 0.960 . S
C1494 H1481 0.961 . S
C1494 H1482 0.959 . S
C1494 C1492 1.561 . S
C1495 C1492 1.526 . S
C1495 C1496 1.396 . S
C1495 C1500 1.390 . S
C1496 C1490 1.465 . S
C1496 C1495 1.396 . S
C1496 C1497 1.399 . S
C1497 H1483 0.929 . S
C1497 C1496 1.399 . S
C1497 C1498 1.385 . S
C1498 H1484 0.931 . S
C1498 C1497 1.385 . S
C1498 C1499 1.389 . S
C1499 C1498 1.389 . S
C1499 C1500 1.387 . S
C1500 H1485 0.930 . S
C1500 C1495 1.390 . S
C1500 C1499 1.387 . S
H1501 C1513 0.930 . S
H1502 C1515 0.930 . S
H1503 C1516 0.930 . S
H1504 C1520 0.959 . S
H1505 C1520 0.959 . S
H1506 C1520 0.961 . S
H1507 C1521 0.960 . S
H1508 C1521 0.961 . S
H1509 C1521 0.959 . S
H1510 C1524 0.929 . S
H1511 C1525 0.931 . S
H1512 C1527 0.930 . S
C1513 H1501 0.930 . S
C1513 C1514 1.399 . S
C1513 C1518 1.399 1_554 S
C1514 C1513 1.399 . S
C1514 C1515 1.376 . S
C1515 H1502 0.930 . S
C1515 C1514 1.376 . S
C1515 C1516 1.388 . S
C1516 H1503 0.930 . S
C1516 C1515 1.388 . S
C1516 C1517 1.390 1_554 S
C1517 C1516 1.390 1_556 S
C1517 C1518 1.394 . S
C1517 C1523 1.465 . S
C1518 C1513 1.399 1_556 S
C1518 C1517 1.394 . S
C1518 C1519 1.516 . S
C1519 C1518 1.516 . S
C1519 C1520 1.502 . S
C1519 C1521 1.561 . S
C1519 C1522 1.526 . S
C1520 H1504 0.959 . S
C1520 H1505 0.959 . S
C1520 H1506 0.961 . S
C1520 C1519 1.502 . S
C1521 H1507 0.960 . S
C1521 H1508 0.961 . S
C1521 H1509 0.959 . S
C1521 C1519 1.561 . S
C1522 C1519 1.526 . S
C1522 C1523 1.396 . S
C1522 C1527 1.390 . S
C1523 C1517 1.465 . S
C1523 C1522 1.396 . S
C1523 C1524 1.399 . S
C1524 H1510 0.929 . S
C1524 C1523 1.399 . S
C1524 C1525 1.385 . S
C1525 H1511 0.931 . S
C1525 C1524 1.385 . S
C1525 C1526 1.389 . S
C1526 C1525 1.389 . S
C1526 C1527 1.387 . S
C1527 H1512 0.930 . S
C1527 C1522 1.390 . S
C1527 C1526 1.387 . S
H1528 C1540 0.930 . S
H1529 C1542 0.930 . S
H1530 C1543 0.930 . S
H1531 C1547 0.959 . S
H1532 C1547 0.959 . S
H1533 C1547 0.961 . S
H1534 C1548 0.960 . S
H1535 C1548 0.961 . S
H1536 C1548 0.959 . S
H1537 C1551 0.929 . S
H1538 C1552 0.931 . S
H1539 C1554 0.930 . S
C1540 H1528 0.930 . S
C1540 C1541 1.399 . S
C1540 C1545 1.399 . S
C1541 C1540 1.399 . S
C1541 C1542 1.376 . S
C1542 H1529 0.930 . S
C1542 C1541 1.376 . S
C1542 C1543 1.388 . S
C1543 H1530 0.930 . S
C1543 C1542 1.388 . S
C1543 C1544 1.390 . S
C1544 C1543 1.390 . S
C1544 C1545 1.394 . S
C1544 C1550 1.465 . S
C1545 C1540 1.399 . S
C1545 C1544 1.394 . S
C1545 C1546 1.516 . S
C1546 C1545 1.516 . S
C1546 C1547 1.502 . S
C1546 C1548 1.561 . S
C1546 C1549 1.526 . S
C1547 H1531 0.959 . S
C1547 H1532 0.959 . S
C1547 H1533 0.961 . S
C1547 C1546 1.502 . S
C1548 H1534 0.960 . S
C1548 H1535 0.961 . S
C1548 H1536 0.959 . S
C1548 C1546 1.561 . S
C1549 C1546 1.526 . S
C1549 C1550 1.396 . S
C1549 C1554 1.390 . S
C1550 C1544 1.465 . S
C1550 C1549 1.396 . S
C1550 C1551 1.399 . S
C1551 H1537 0.929 . S
C1551 C1550 1.399 . S
C1551 C1552 1.385 . S
C1552 H1538 0.931 . S
C1552 C1551 1.385 . S
C1552 C1553 1.389 . S
C1553 C1552 1.389 . S
C1553 C1554 1.387 . S
C1554 H1539 0.930 . S
C1554 C1549 1.390 . S
C1554 C1553 1.387 . S
H1555 C1567 0.930 . S
H1556 C1569 0.930 . S
H1557 C1570 0.930 . S
H1558 C1574 0.959 . S
H1559 C1574 0.959 . S
H1560 C1574 0.961 . S
H1561 C1575 0.960 . S
H1562 C1575 0.961 . S
H1563 C1575 0.959 . S
H1564 C1578 0.929 . S
H1565 C1579 0.931 . S
H1566 C1581 0.930 . S
C1567 H1555 0.930 . S
C1567 C1568 1.399 . S
C1567 C1572 1.399 . S
C1568 C1567 1.399 . S
C1568 C1569 1.376 . S
C1569 H1556 0.930 . S
C1569 C1568 1.376 . S
C1569 C1570 1.388 . S
C1570 H1557 0.930 . S
C1570 C1569 1.388 . S
C1570 C1571 1.390 . S
C1571 C1570 1.390 . S
C1571 C1572 1.394 . S
C1571 C1577 1.465 . S
C1572 C1567 1.399 . S
C1572 C1571 1.394 . S
C1572 C1573 1.516 . S
C1573 C1572 1.516 . S
C1573 C1574 1.502 . S
C1573 C1575 1.561 . S
C1573 C1576 1.526 . S
C1574 H1558 0.959 . S
C1574 H1559 0.959 . S
C1574 H1560 0.961 . S
C1574 C1573 1.502 . S
C1575 H1561 0.960 . S
C1575 H1562 0.961 . S
C1575 H1563 0.959 . S
C1575 C1573 1.561 . S
C1576 C1573 1.526 . S
C1576 C1577 1.396 . S
C1576 C1581 1.390 . S
C1577 C1571 1.465 . S
C1577 C1576 1.396 . S
C1577 C1578 1.399 . S
C1578 H1564 0.929 . S
C1578 C1577 1.399 . S
C1578 C1579 1.385 . S
C1579 H1565 0.931 . S
C1579 C1578 1.385 . S
C1579 C1580 1.389 . S
C1580 C1579 1.389 . S
C1580 C1581 1.387 . S
C1581 H1566 0.930 . S
C1581 C1576 1.390 . S
C1581 C1580 1.387 . S
H1582 C1594 0.930 . S
H1583 C1596 0.930 . S
H1584 C1597 0.930 . S
H1585 C1601 0.959 . S
H1586 C1601 0.959 . S
H1587 C1601 0.961 . S
H1588 C1602 0.960 . S
H1589 C1602 0.961 . S
H1590 C1602 0.959 . S
H1591 C1605 0.929 . S
H1592 C1606 0.931 . S
H1593 C1608 0.930 . S
C1594 H1582 0.930 . S
C1594 C1595 1.399 . S
C1594 C1599 1.399 . S
C1595 C1594 1.399 . S
C1595 C1596 1.376 . S
C1596 H1583 0.930 . S
C1596 C1595 1.376 . S
C1596 C1597 1.388 . S
C1597 H1584 0.930 . S
C1597 C1596 1.388 . S
C1597 C1598 1.390 . S
C1598 C1597 1.390 . S
C1598 C1599 1.394 . S
C1598 C1604 1.465 . S
C1599 C1594 1.399 . S
C1599 C1598 1.394 . S
C1599 C1600 1.516 . S
C1600 C1599 1.516 . S
C1600 C1601 1.502 . S
C1600 C1602 1.561 . S
C1600 C1603 1.526 . S
C1601 H1585 0.959 . S
C1601 H1586 0.959 . S
C1601 H1587 0.961 . S
C1601 C1600 1.502 . S
C1602 H1588 0.960 . S
C1602 H1589 0.961 . S
C1602 H1590 0.959 . S
C1602 C1600 1.561 . S
C1603 C1600 1.526 . S
C1603 C1604 1.396 . S
C1603 C1608 1.390 . S
C1604 C1598 1.465 . S
C1604 C1603 1.396 . S
C1604 C1605 1.399 . S
C1605 H1591 0.929 . S
C1605 C1604 1.399 . S
C1605 C1606 1.385 . S
C1606 H1592 0.931 . S
C1606 C1605 1.385 . S
C1606 C1607 1.389 . S
C1607 C1606 1.389 . S
C1607 C1608 1.387 . S
C1608 H1593 0.930 . S
C1608 C1603 1.390 . S
C1608 C1607 1.387 . S
H1609 C1621 0.930 . S
H1610 C1623 0.930 . S
H1611 C1624 0.930 . S
H1612 C1628 0.959 . S
H1613 C1628 0.959 1_554 S
H1614 C1628 0.961 . S
H1615 C1629 0.960 1_655 S
H1616 C1629 0.961 . S
H1617 C1629 0.959 . S
H1618 C1632 0.929 . S
H1619 C1633 0.931 . S
H1620 C1635 0.930 . S
C1621 H1609 0.930 . S
C1621 C1622 1.399 . S
C1621 C1626 1.399 . S
C1622 C1621 1.399 . S
C1622 C1623 1.376 . S
C1623 H1610 0.930 . S
C1623 C1622 1.376 . S
C1623 C1624 1.388 1_655 S
C1624 H1611 0.930 . S
C1624 C1623 1.388 1_455 S
C1624 C1625 1.392 . S
C1625 C1624 1.392 . S
C1625 C1626 1.377 1_455 S
C1625 C1631 1.477 . S
C1626 C1621 1.399 . S
C1626 C1625 1.377 1_655 S
C1626 C1627 1.516 . S
C1627 C1626 1.516 . S
C1627 C1628 1.502 . S
C1627 C1629 1.561 1_655 S
C1627 C1630 1.526 1_655 S
C1628 H1612 0.959 . S
C1628 H1613 0.959 1_556 S
C1628 H1614 0.961 . S
C1628 C1627 1.502 . S
C1629 H1615 0.960 1_455 S
C1629 H1616 0.961 . S
C1629 H1617 0.959 . S
C1629 C1627 1.561 1_455 S
C1630 C1627 1.526 1_455 S
C1630 C1631 1.396 . S
C1630 C1635 1.390 1_556 S
C1631 C1625 1.477 . S
C1631 C1630 1.396 . S
C1631 C1632 1.399 . S
C1632 H1618 0.929 . S
C1632 C1631 1.399 . S
C1632 C1633 1.385 1_556 S
C1633 H1619 0.931 . S
C1633 C1632 1.385 1_554 S
C1633 C1634 1.389 . S
C1634 C1633 1.389 . S
C1634 C1635 1.387 . S
C1635 H1620 0.930 . S
C1635 C1630 1.390 1_554 S
C1635 C1634 1.387 . S
H1636 C1648 0.930 . S
H1637 C1650 0.930 . S
H1638 C1651 0.930 . S
H1639 C1655 0.959 . S
H1640 C1655 0.959 . S
H1641 C1655 0.961 . S
H1642 C1656 0.960 . S
H1643 C1656 0.961 . S
H1644 C1656 0.959 . S
H1645 C1659 0.929 . S
H1646 C1660 0.931 . S
H1647 C1662 0.930 . S
C1648 H1636 0.930 . S
C1648 C1649 1.399 . S
C1648 C1653 1.399 . S
C1649 C1648 1.399 . S
C1649 C1650 1.376 . S
C1650 H1637 0.930 . S
C1650 C1649 1.376 . S
C1650 C1651 1.388 . S
C1651 H1638 0.930 . S
C1651 C1650 1.388 . S
C1651 C1652 1.390 . S
C1652 C1651 1.390 . S
C1652 C1653 1.394 . S
C1652 C1658 1.465 . S
C1653 C1648 1.399 . S
C1653 C1652 1.394 . S
C1653 C1654 1.516 . S
C1654 C1653 1.516 . S
C1654 C1655 1.502 . S
C1654 C1656 1.561 . S
C1654 C1657 1.526 . S
C1655 H1639 0.959 . S
C1655 H1640 0.959 . S
C1655 H1641 0.961 . S
C1655 C1654 1.502 . S
C1656 H1642 0.960 . S
C1656 H1643 0.961 . S
C1656 H1644 0.959 . S
C1656 C1654 1.561 . S
C1657 C1654 1.526 . S
C1657 C1658 1.396 . S
C1657 C1662 1.390 . S
C1658 C1652 1.465 . S
C1658 C1657 1.396 . S
C1658 C1659 1.399 . S
C1659 H1645 0.929 . S
C1659 C1658 1.399 . S
C1659 C1660 1.385 . S
C1660 H1646 0.931 . S
C1660 C1659 1.385 . S
C1660 C1661 1.389 . S
C1661 C1660 1.389 . S
C1661 C1662 1.387 . S
C1662 H1647 0.930 . S
C1662 C1657 1.390 . S
C1662 C1661 1.387 . S
H1663 C1675 0.930 . S
H1664 C1677 0.930 . S
H1665 C1678 0.930 . S
H1666 C1682 0.959 . S
H1667 C1682 0.959 . S
H1668 C1682 0.961 . S
H1669 C1683 0.960 . S
H1670 C1683 0.961 . S
H1671 C1683 0.959 . S
H1672 C1686 0.929 1_655 S
H1673 C1687 0.931 . S
H1674 C1689 0.930 . S
C1675 H1663 0.930 . S
C1675 C1676 1.399 . S
C1675 C1680 1.399 . S
C1676 C1675 1.399 . S
C1676 C1677 1.376 . S
C1677 H1664 0.930 . S
C1677 C1676 1.376 . S
C1677 C1678 1.388 . S
C1678 H1665 0.930 . S
C1678 C1677 1.388 . S
C1678 C1679 1.390 . S
C1679 C1678 1.390 . S
C1679 C1680 1.394 . S
C1679 C1685 1.484 . S
C1680 C1675 1.399 . S
C1680 C1679 1.394 . S
C1680 C1681 1.516 1_655 S
C1681 C1680 1.516 1_455 S
C1681 C1682 1.502 . S
C1681 C1683 1.561 1_455 S
C1681 C1684 1.526 . S
C1682 H1666 0.959 . S
C1682 H1667 0.959 . S
C1682 H1668 0.961 . S
C1682 C1681 1.502 . S
C1683 H1669 0.960 . S
C1683 H1670 0.961 . S
C1683 H1671 0.959 . S
C1683 C1681 1.561 1_655 S
C1684 C1681 1.526 . S
C1684 C1685 1.382 1_455 S
C1684 C1689 1.390 . S
C1685 C1679 1.484 . S
C1685 C1684 1.382 1_655 S
C1685 C1686 1.395 1_655 S
C1686 H1672 0.929 1_455 S
C1686 C1685 1.395 1_455 S
C1686 C1687 1.385 . S
C1687 H1673 0.931 . S
C1687 C1686 1.385 . S
C1687 C1688 1.389 . S
C1688 C1687 1.389 . S
C1688 C1689 1.387 . S
C1689 H1674 0.930 . S
C1689 C1684 1.390 . S
C1689 C1688 1.387 . S
H1690 C1702 0.930 . S
H1691 C1704 0.930 . S
H1692 C1705 0.930 . S
H1693 C1709 0.959 . S
H1694 C1709 0.959 . S
H1695 C1709 0.961 . S
H1696 C1710 0.960 . S
H1697 C1710 0.961 . S
H1698 C1710 0.959 . S
H1699 C1713 0.929 . S
H1700 C1714 0.931 . S
H1701 C1716 0.930 . S
C1702 H1690 0.930 . S
C1702 C1703 1.399 . S
C1702 C1707 1.399 . S
C1703 C1702 1.399 . S
C1703 C1704 1.376 . S
C1704 H1691 0.930 . S
C1704 C1703 1.376 . S
C1704 C1705 1.388 . S
C1705 H1692 0.930 . S
C1705 C1704 1.388 . S
C1705 C1706 1.390 . S
C1706 C1705 1.390 . S
C1706 C1707 1.394 . S
C1706 C1712 1.465 . S
C1707 C1702 1.399 . S
C1707 C1706 1.394 . S
C1707 C1708 1.516 . S
C1708 C1707 1.516 . S
C1708 C1709 1.502 . S
C1708 C1710 1.561 . S
C1708 C1711 1.526 . S
C1709 H1693 0.959 . S
C1709 H1694 0.959 . S
C1709 H1695 0.961 . S
C1709 C1708 1.502 . S
C1710 H1696 0.960 . S
C1710 H1697 0.961 . S
C1710 H1698 0.959 . S
C1710 C1708 1.561 . S
C1711 C1708 1.526 . S
C1711 C1712 1.396 . S
C1711 C1716 1.390 . S
C1712 C1706 1.465 . S
C1712 C1711 1.396 . S
C1712 C1713 1.399 . S
C1713 H1699 0.929 . S
C1713 C1712 1.399 . S
C1713 C1714 1.385 . S
C1714 H1700 0.931 . S
C1714 C1713 1.385 . S
C1714 C1715 1.389 . S
C1715 C1714 1.389 . S
C1715 C1716 1.387 . S
C1716 H1701 0.930 . S
C1716 C1711 1.390 . S
C1716 C1715 1.387 . S
H1717 C1729 0.930 . S
H1718 C1731 0.930 . S
H1719 C1732 0.930 . S
H1720 C1736 0.959 . S
H1721 C1736 0.959 . S
H1722 C1736 0.961 . S
H1723 C1737 0.960 . S
H1724 C1737 0.961 . S
H1725 C1737 0.959 . S
H1726 C1740 0.929 1_554 S
H1727 C1741 0.931 . S
H1728 C1743 0.930 . S
C1729 H1717 0.930 . S
C1729 C1730 1.399 . S
C1729 C1734 1.399 . S
C1730 C1729 1.399 . S
C1730 C1731 1.376 . S
C1731 H1718 0.930 . S
C1731 C1730 1.376 . S
C1731 C1732 1.388 . S
C1732 H1719 0.930 . S
C1732 C1731 1.388 . S
C1732 C1733 1.390 . S
C1733 C1732 1.390 . S
C1733 C1734 1.394 . S
C1733 C1739 1.465 . S
C1734 C1729 1.399 . S
C1734 C1733 1.394 . S
C1734 C1735 1.516 . S
C1735 C1734 1.516 . S
C1735 C1736 1.502 . S
C1735 C1737 1.561 . S
C1735 C1738 1.526 . S
C1736 H1720 0.959 . S
C1736 H1721 0.959 . S
C1736 H1722 0.961 . S
C1736 C1735 1.502 . S
C1737 H1723 0.960 . S
C1737 H1724 0.961 . S
C1737 H1725 0.959 . S
C1737 C1735 1.561 . S
C1738 C1735 1.526 . S
C1738 C1739 1.396 . S
C1738 C1743 1.390 1_554 S
C1739 C1733 1.465 . S
C1739 C1738 1.396 . S
C1739 C1740 1.399 1_554 S
C1740 H1726 0.929 1_556 S
C1740 C1739 1.399 1_556 S
C1740 C1741 1.385 . S
C1741 H1727 0.931 . S
C1741 C1740 1.385 . S
C1741 C1742 1.389 . S
C1742 C1741 1.389 . S
C1742 C1743 1.387 . S
C1743 H1728 0.930 . S
C1743 C1738 1.390 1_556 S
C1743 C1742 1.387 . S
H1744 C1756 0.930 . S
H1745 C1758 0.930 . S
H1746 C1759 0.930 . S
H1747 C1763 0.959 . S
H1748 C1763 0.959 . S
H1749 C1763 0.961 . S
H1750 C1764 0.960 . S
H1751 C1764 0.961 . S
H1752 C1764 0.959 . S
H1753 C1767 0.929 . S
H1754 C1768 0.931 . S
H1755 C1770 0.930 . S
C1756 H1744 0.930 . S
C1756 C1757 1.399 . S
C1756 C1761 1.399 . S
C1757 C1756 1.399 . S
C1757 C1758 1.376 . S
C1758 H1745 0.930 . S
C1758 C1757 1.376 . S
C1758 C1759 1.388 . S
C1759 H1746 0.930 . S
C1759 C1758 1.388 . S
C1759 C1760 1.390 . S
C1760 C1759 1.390 . S
C1760 C1761 1.394 . S
C1760 C1766 1.465 . S
C1761 C1756 1.399 . S
C1761 C1760 1.394 . S
C1761 C1762 1.516 . S
C1762 C1761 1.516 . S
C1762 C1763 1.502 . S
C1762 C1764 1.561 . S
C1762 C1765 1.526 . S
C1763 H1747 0.959 . S
C1763 H1748 0.959 . S
C1763 H1749 0.961 . S
C1763 C1762 1.502 . S
C1764 H1750 0.960 . S
C1764 H1751 0.961 . S
C1764 H1752 0.959 . S
C1764 C1762 1.561 . S
C1765 C1762 1.526 . S
C1765 C1766 1.396 . S
C1765 C1770 1.390 . S
C1766 C1760 1.465 . S
C1766 C1765 1.396 . S
C1766 C1767 1.399 . S
C1767 H1753 0.929 . S
C1767 C1766 1.399 . S
C1767 C1768 1.385 . S
C1768 H1754 0.931 . S
C1768 C1767 1.385 . S
C1768 C1769 1.389 . S
C1769 C1768 1.389 . S
C1769 C1770 1.387 . S
C1770 H1755 0.930 . S
C1770 C1765 1.390 . S
C1770 C1769 1.387 . S
H1771 C1783 0.930 . S
H1772 C1785 0.930 . S
H1773 C1786 0.930 . S
H1774 C1790 0.959 . S
H1775 C1790 0.959 . S
H1776 C1790 0.961 . S
H1777 C1791 0.960 . S
H1778 C1791 0.961 . S
H1779 C1791 0.959 . S
H1780 C1794 0.929 . S
H1781 C1795 0.931 . S
H1782 C1797 0.930 . S
C1783 H1771 0.930 . S
C1783 C1784 1.399 . S
C1783 C1788 1.399 . S
C1784 C1783 1.399 . S
C1784 C1785 1.376 . S
C1785 H1772 0.930 . S
C1785 C1784 1.376 . S
C1785 C1786 1.388 . S
C1786 H1773 0.930 . S
C1786 C1785 1.388 . S
C1786 C1787 1.390 . S
C1787 C1786 1.390 . S
C1787 C1788 1.394 . S
C1787 C1793 1.465 . S
C1788 C1783 1.399 . S
C1788 C1787 1.394 . S
C1788 C1789 1.516 . S
C1789 C1788 1.516 . S
C1789 C1790 1.502 . S
C1789 C1791 1.561 . S
C1789 C1792 1.526 . S
C1790 H1774 0.959 . S
C1790 H1775 0.959 . S
C1790 H1776 0.961 . S
C1790 C1789 1.502 . S
C1791 H1777 0.960 . S
C1791 H1778 0.961 . S
C1791 H1779 0.959 . S
C1791 C1789 1.561 . S
C1792 C1789 1.526 . S
C1792 C1793 1.396 . S
C1792 C1797 1.390 . S
C1793 C1787 1.465 . S
C1793 C1792 1.396 . S
C1793 C1794 1.399 . S
C1794 H1780 0.929 . S
C1794 C1793 1.399 . S
C1794 C1795 1.385 . S
C1795 H1781 0.931 . S
C1795 C1794 1.385 . S
C1795 C1796 1.389 . S
C1796 C1795 1.389 . S
C1796 C1797 1.387 . S
C1797 H1782 0.930 . S
C1797 C1792 1.390 . S
C1797 C1796 1.387 . S
H1798 C1810 0.930 . S
H1799 C1812 0.930 . S
H1800 C1813 0.930 . S
H1801 C1817 0.959 . S
H1802 C1817 0.959 . S
H1803 C1817 0.961 . S
H1804 C1818 0.960 . S
H1805 C1818 0.961 . S
H1806 C1818 0.959 . S
H1807 C1821 0.929 . S
H1808 C1822 0.931 . S
H1809 C1824 0.930 . S
C1810 H1798 0.930 . S
C1810 C1811 1.399 . S
C1810 C1815 1.399 . S
C1811 C1810 1.399 . S
C1811 C1812 1.376 . S
C1812 H1799 0.930 . S
C1812 C1811 1.376 . S
C1812 C1813 1.388 . S
C1813 H1800 0.930 . S
C1813 C1812 1.388 . S
C1813 C1814 1.390 . S
C1814 C1813 1.390 . S
C1814 C1815 1.394 . S
C1814 C1820 1.465 . S
C1815 C1810 1.399 . S
C1815 C1814 1.394 . S
C1815 C1816 1.516 . S
C1816 C1815 1.516 . S
C1816 C1817 1.502 . S
C1816 C1818 1.561 . S
C1816 C1819 1.526 . S
C1817 H1801 0.959 . S
C1817 H1802 0.959 . S
C1817 H1803 0.961 . S
C1817 C1816 1.502 . S
C1818 H1804 0.960 . S
C1818 H1805 0.961 . S
C1818 H1806 0.959 . S
C1818 C1816 1.561 . S
C1819 C1816 1.526 . S
C1819 C1820 1.396 . S
C1819 C1824 1.390 . S
C1820 C1814 1.465 . S
C1820 C1819 1.396 . S
C1820 C1821 1.399 . S
C1821 H1807 0.929 . S
C1821 C1820 1.399 . S
C1821 C1822 1.385 . S
C1822 H1808 0.931 . S
C1822 C1821 1.385 . S
C1822 C1823 1.389 . S
C1823 C1822 1.389 . S
C1823 C1824 1.387 . S
C1824 H1809 0.930 . S
C1824 C1819 1.390 . S
C1824 C1823 1.387 . S
H1825 C1837 0.930 . S
H1826 C1839 0.930 . S
H1827 C1840 0.930 . S
H1828 C1844 0.959 . S
H1829 C1844 0.959 . S
H1830 C1844 0.961 . S
H1831 C1845 0.960 . S
H1832 C1845 0.961 . S
H1833 C1845 0.959 . S
H1834 C1848 0.929 . S
H1835 C1849 0.931 . S
H1836 C1851 0.930 . S
C1837 H1825 0.930 . S
C1837 C1838 1.399 . S
C1837 C1842 1.399 . S
C1838 C1837 1.399 . S
C1838 C1839 1.376 . S
C1839 H1826 0.930 . S
C1839 C1838 1.376 . S
C1839 C1840 1.388 . S
C1840 H1827 0.930 . S
C1840 C1839 1.388 . S
C1840 C1841 1.390 . S
C1841 C1840 1.390 . S
C1841 C1842 1.394 . S
C1841 C1847 1.465 . S
C1842 C1837 1.399 . S
C1842 C1841 1.394 . S
C1842 C1843 1.516 . S
C1843 C1842 1.516 . S
C1843 C1844 1.502 . S
C1843 C1845 1.561 . S
C1843 C1846 1.526 . S
C1844 H1828 0.959 . S
C1844 H1829 0.959 . S
C1844 H1830 0.961 . S
C1844 C1843 1.502 . S
C1845 H1831 0.960 . S
C1845 H1832 0.961 . S
C1845 H1833 0.959 . S
C1845 C1843 1.561 . S
C1846 C1843 1.526 . S
C1846 C1847 1.396 . S
C1846 C1851 1.390 . S
C1847 C1841 1.465 . S
C1847 C1846 1.396 . S
C1847 C1848 1.399 . S
C1848 H1834 0.929 . S
C1848 C1847 1.399 . S
C1848 C1849 1.385 . S
C1849 H1835 0.931 . S
C1849 C1848 1.385 . S
C1849 C1850 1.389 . S
C1850 C1849 1.389 . S
C1850 C1851 1.387 . S
C1851 H1836 0.930 . S
C1851 C1846 1.390 . S
C1851 C1850 1.387 . S
H1852 C1864 0.930 . S
H1853 C1866 0.930 . S
H1854 C1867 0.930 . S
H1855 C1871 0.959 . S
H1856 C1871 0.959 . S
H1857 C1871 0.961 . S
H1858 C1872 0.960 . S
H1859 C1872 0.961 . S
H1860 C1872 0.959 . S
H1861 C1875 0.929 . S
H1862 C1876 0.931 . S
H1863 C1878 0.930 . S
C1864 H1852 0.930 . S
C1864 C1865 1.399 . S
C1864 C1869 1.399 . S
C1865 C1864 1.399 . S
C1865 C1866 1.376 . S
C1866 H1853 0.930 . S
C1866 C1865 1.376 . S
C1866 C1867 1.388 . S
C1867 H1854 0.930 . S
C1867 C1866 1.388 . S
C1867 C1868 1.390 . S
C1868 C1867 1.390 . S
C1868 C1869 1.394 . S
C1868 C1874 1.465 . S
C1869 C1864 1.399 . S
C1869 C1868 1.394 . S
C1869 C1870 1.516 . S
C1870 C1869 1.516 . S
C1870 C1871 1.502 . S
C1870 C1872 1.561 . S
C1870 C1873 1.526 . S
C1871 H1855 0.959 . S
C1871 H1856 0.959 . S
C1871 H1857 0.961 . S
C1871 C1870 1.502 . S
C1872 H1858 0.960 . S
C1872 H1859 0.961 . S
C1872 H1860 0.959 . S
C1872 C1870 1.561 . S
C1873 C1870 1.526 . S
C1873 C1874 1.396 . S
C1873 C1878 1.390 . S
C1874 C1868 1.465 . S
C1874 C1873 1.396 . S
C1874 C1875 1.399 . S
C1875 H1861 0.929 . S
C1875 C1874 1.399 . S
C1875 C1876 1.385 . S
C1876 H1862 0.931 . S
C1876 C1875 1.385 . S
C1876 C1877 1.389 . S
C1877 C1876 1.389 . S
C1877 C1878 1.387 . S
C1878 H1863 0.930 . S
C1878 C1873 1.390 . S
C1878 C1877 1.387 . S
H1879 C1891 0.930 . S
H1880 C1893 0.930 . S
H1881 C1894 0.930 . S
H1882 C1898 0.959 . S
H1883 C1898 0.959 . S
H1884 C1898 0.961 . S
H1885 C1899 0.960 . S
H1886 C1899 0.961 . S
H1887 C1899 0.959 . S
H1888 C1902 0.929 . S
H1889 C1903 0.931 . S
H1890 C1905 0.930 . S
C1891 H1879 0.930 . S
C1891 C1892 1.399 . S
C1891 C1896 1.399 . S
C1892 C1891 1.399 . S
C1892 C1893 1.376 . S
C1893 H1880 0.930 . S
C1893 C1892 1.376 . S
C1893 C1894 1.388 . S
C1894 H1881 0.930 . S
C1894 C1893 1.388 . S
C1894 C1895 1.390 . S
C1895 C1894 1.390 . S
C1895 C1896 1.394 . S
C1895 C1901 1.465 . S
C1896 C1891 1.399 . S
C1896 C1895 1.394 . S
C1896 C1897 1.516 . S
C1897 C1896 1.516 . S
C1897 C1898 1.502 . S
C1897 C1899 1.561 . S
C1897 C1900 1.526 . S
C1898 H1882 0.959 . S
C1898 H1883 0.959 . S
C1898 H1884 0.961 . S
C1898 C1897 1.502 . S
C1899 H1885 0.960 . S
C1899 H1886 0.961 . S
C1899 H1887 0.959 . S
C1899 C1897 1.561 . S
C1900 C1897 1.526 . S
C1900 C1901 1.396 . S
C1900 C1905 1.390 . S
C1901 C1895 1.465 . S
C1901 C1900 1.396 . S
C1901 C1902 1.399 . S
C1902 H1888 0.929 . S
C1902 C1901 1.399 . S
C1902 C1903 1.385 . S
C1903 H1889 0.931 . S
C1903 C1902 1.385 . S
C1903 C1904 1.389 . S
C1904 C1903 1.389 . S
C1904 C1905 1.387 . S
C1905 H1890 0.930 . S
C1905 C1900 1.390 . S
C1905 C1904 1.387 . S
H1906 C1918 0.930 . S
H1907 C1920 0.930 . S
H1908 C1921 0.930 . S
H1909 C1925 0.959 . S
H1910 C1925 0.959 . S
H1911 C1925 0.961 . S
H1912 C1926 0.960 . S
H1913 C1926 0.961 . S
H1914 C1926 0.959 . S
H1915 C1929 0.929 . S
H1916 C1930 0.931 . S
H1917 C1932 0.930 . S
C1918 H1906 0.930 . S
C1918 C1919 1.399 . S
C1918 C1923 1.399 . S
C1919 C1918 1.399 . S
C1919 C1920 1.376 . S
C1920 H1907 0.930 . S
C1920 C1919 1.376 . S
C1920 C1921 1.388 . S
C1921 H1908 0.930 . S
C1921 C1920 1.388 . S
C1921 C1922 1.390 . S
C1922 C1921 1.390 . S
C1922 C1923 1.394 . S
C1922 C1928 1.465 . S
C1923 C1918 1.399 . S
C1923 C1922 1.394 . S
C1923 C1924 1.516 . S
C1924 C1923 1.516 . S
C1924 C1925 1.502 . S
C1924 C1926 1.561 . S
C1924 C1927 1.526 . S
C1925 H1909 0.959 . S
C1925 H1910 0.959 . S
C1925 H1911 0.961 . S
C1925 C1924 1.502 . S
C1926 H1912 0.960 . S
C1926 H1913 0.961 . S
C1926 H1914 0.959 . S
C1926 C1924 1.561 . S
C1927 C1924 1.526 . S
C1927 C1928 1.396 . S
C1927 C1932 1.390 . S
C1928 C1922 1.465 . S
C1928 C1927 1.396 . S
C1928 C1929 1.399 . S
C1929 H1915 0.929 . S
C1929 C1928 1.399 . S
C1929 C1930 1.385 . S
C1930 H1916 0.931 . S
C1930 C1929 1.385 . S
C1930 C1931 1.389 . S
C1931 C1930 1.389 . S
C1931 C1932 1.387 . S
C1932 H1917 0.930 . S
C1932 C1927 1.390 . S
C1932 C1931 1.387 . S
H1933 C1945 0.930 . S
H1934 C1947 0.930 . S
H1935 C1948 0.930 . S
H1936 C1952 0.959 . S
H1937 C1952 0.959 . S
H1938 C1952 0.961 . S
H1939 C1953 0.960 1_556 S
H1940 C1953 0.961 . S
H1941 C1953 0.959 . S
H1942 C1956 0.929 . S
H1943 C1957 0.931 . S
H1944 C1959 0.930 . S
C1945 H1933 0.930 . S
C1945 C1946 1.399 . S
C1945 C1950 1.399 . S
C1946 C1945 1.399 . S
C1946 C1947 1.376 . S
C1947 H1934 0.930 . S
C1947 C1946 1.376 . S
C1947 C1948 1.388 . S
C1948 H1935 0.930 . S
C1948 C1947 1.388 . S
C1948 C1949 1.390 . S
C1949 C1948 1.390 . S
C1949 C1950 1.394 . S
C1949 C1955 1.465 . S
C1950 C1945 1.399 . S
C1950 C1949 1.394 . S
C1950 C1951 1.516 . S
C1951 C1950 1.516 . S
C1951 C1952 1.502 . S
C1951 C1953 1.561 . S
C1951 C1954 1.526 . S
C1952 H1936 0.959 . S
C1952 H1937 0.959 . S
C1952 H1938 0.961 . S
C1952 C1951 1.502 . S
C1953 H1939 0.960 1_554 S
C1953 H1940 0.961 . S
C1953 H1941 0.959 . S
C1953 C1951 1.561 . S
C1954 C1951 1.526 . S
C1954 C1955 1.396 . S
C1954 C1959 1.390 . S
C1955 C1949 1.465 . S
C1955 C1954 1.396 . S
C1955 C1956 1.399 . S
C1956 H1942 0.929 . S
C1956 C1955 1.399 . S
C1956 C1957 1.385 . S
C1957 H1943 0.931 . S
C1957 C1956 1.385 . S
C1957 C1958 1.389 . S
C1958 C1957 1.389 . S
C1958 C1959 1.387 . S
C1959 H1944 0.930 . S
C1959 C1954 1.390 . S
C1959 C1958 1.387 . S
H1960 C1972 0.930 . S
H1961 C1974 0.930 . S
H1962 C1975 0.930 . S
H1963 C1979 0.959 . S
H1964 C1979 0.959 . S
H1965 C1979 0.961 1_554 S
H1966 C1980 0.960 . S
H1967 C1980 0.961 . S
H1968 C1980 0.959 . S
H1969 C1983 0.929 . S
H1970 C1984 0.931 . S
H1971 C1986 0.930 . S
C1972 H1960 0.930 . S
C1972 C1973 1.399 . S
C1972 C1977 1.399 . S
C1973 C1972 1.399 . S
C1973 C1974 1.376 . S
C1974 H1961 0.930 . S
C1974 C1973 1.376 . S
C1974 C1975 1.388 . S
C1975 H1962 0.930 . S
C1975 C1974 1.388 . S
C1975 C1976 1.390 . S
C1976 C1975 1.390 . S
C1976 C1977 1.394 . S
C1976 C1982 1.465 . S
C1977 C1972 1.399 . S
C1977 C1976 1.394 . S
C1977 C1978 1.516 . S
C1978 C1977 1.516 . S
C1978 C1979 1.502 . S
C1978 C1980 1.561 . S
C1978 C1981 1.526 . S
C1979 H1963 0.959 . S
C1979 H1964 0.959 . S
C1979 H1965 0.961 1_556 S
C1979 C1978 1.502 . S
C1980 H1966 0.960 . S
C1980 H1967 0.961 . S
C1980 H1968 0.959 . S
C1980 C1978 1.561 . S
C1981 C1978 1.526 . S
C1981 C1982 1.396 . S
C1981 C1986 1.390 . S
C1982 C1976 1.465 . S
C1982 C1981 1.396 . S
C1982 C1983 1.399 . S
C1983 H1969 0.929 . S
C1983 C1982 1.399 . S
C1983 C1984 1.385 . S
C1984 H1970 0.931 . S
C1984 C1983 1.385 . S
C1984 C1985 1.389 . S
C1985 C1984 1.389 . S
C1985 C1986 1.387 . S
C1986 H1971 0.930 . S
C1986 C1981 1.390 . S
C1986 C1985 1.387 . S
H1987 C1999 0.930 . S
H1988 C2001 0.930 . S
H1989 C2002 0.930 . S
H1990 C2006 0.959 . S
H1991 C2006 0.959 . S
H1992 C2006 0.961 . S
H1993 C2007 0.960 . S
H1994 C2007 0.961 . S
H1995 C2007 0.959 . S
H1996 C2010 0.929 . S
H1997 C2011 0.931 . S
H1998 C2013 0.930 . S
C1999 H1987 0.930 . S
C1999 C2000 1.399 . S
C1999 C2004 1.399 . S
C2000 C1999 1.399 . S
C2000 C2001 1.376 . S
C2001 H1988 0.930 . S
C2001 C2000 1.376 . S
C2001 C2002 1.388 . S
C2002 H1989 0.930 . S
C2002 C2001 1.388 . S
C2002 C2003 1.390 . S
C2003 C2002 1.390 . S
C2003 C2004 1.394 . S
C2003 C2009 1.465 . S
C2004 C1999 1.399 . S
C2004 C2003 1.394 . S
C2004 C2005 1.516 . S
C2005 C2004 1.516 . S
C2005 C2006 1.502 . S
C2005 C2007 1.561 . S
C2005 C2008 1.526 . S
C2006 H1990 0.959 . S
C2006 H1991 0.959 . S
C2006 H1992 0.961 . S
C2006 C2005 1.502 . S
C2007 H1993 0.960 . S
C2007 H1994 0.961 . S
C2007 H1995 0.959 . S
C2007 C2005 1.561 . S
C2008 C2005 1.526 . S
C2008 C2009 1.396 . S
C2008 C2013 1.390 . S
C2009 C2003 1.465 . S
C2009 C2008 1.396 . S
C2009 C2010 1.399 . S
C2010 H1996 0.929 . S
C2010 C2009 1.399 . S
C2010 C2011 1.385 . S
C2011 H1997 0.931 . S
C2011 C2010 1.385 . S
C2011 C2012 1.389 . S
C2012 C2011 1.389 . S
C2012 C2013 1.387 . S
C2013 H1998 0.930 . S
C2013 C2008 1.390 . S
C2013 C2012 1.387 . S
H2014 C2026 0.930 . S
H2015 C2028 0.930 . S
H2016 C2029 0.930 . S
H2017 C2033 0.959 . S
H2018 C2033 0.959 . S
H2019 C2033 0.961 . S
H2020 C2034 0.960 . S
H2021 C2034 0.961 . S
H2022 C2034 0.959 . S
H2023 C2037 0.929 . S
H2024 C2038 0.931 . S
H2025 C2040 0.930 . S
C2026 H2014 0.930 . S
C2026 C2027 1.399 . S
C2026 C2031 1.399 . S
C2027 C2026 1.399 . S
C2027 C2028 1.376 . S
C2028 H2015 0.930 . S
C2028 C2027 1.376 . S
C2028 C2029 1.388 . S
C2029 H2016 0.930 . S
C2029 C2028 1.388 . S
C2029 C2030 1.390 . S
C2030 C2029 1.390 . S
C2030 C2031 1.394 . S
C2030 C2036 1.465 . S
C2031 C2026 1.399 . S
C2031 C2030 1.394 . S
C2031 C2032 1.516 . S
C2032 C2031 1.516 . S
C2032 C2033 1.502 . S
C2032 C2034 1.561 . S
C2032 C2035 1.526 . S
C2033 H2017 0.959 . S
C2033 H2018 0.959 . S
C2033 H2019 0.961 . S
C2033 C2032 1.502 . S
C2034 H2020 0.960 . S
C2034 H2021 0.961 . S
C2034 H2022 0.959 . S
C2034 C2032 1.561 . S
C2035 C2032 1.526 . S
C2035 C2036 1.396 . S
C2035 C2040 1.390 . S
C2036 C2030 1.465 . S
C2036 C2035 1.396 . S
C2036 C2037 1.399 . S
C2037 H2023 0.929 . S
C2037 C2036 1.399 . S
C2037 C2038 1.385 . S
C2038 H2024 0.931 . S
C2038 C2037 1.385 . S
C2038 C2039 1.389 . S
C2039 C2038 1.389 . S
C2039 C2040 1.387 . S
C2040 H2025 0.930 . S
C2040 C2035 1.390 . S
C2040 C2039 1.387 . S
H2041 C2053 0.930 . S
H2042 C2055 0.930 . S
H2043 C2056 0.930 . S
H2044 C2060 0.959 . S
H2045 C2060 0.959 . S
H2046 C2060 0.961 1_556 S
H2047 C2061 0.960 . S
H2048 C2061 0.961 . S
H2049 C2061 0.959 . S
H2050 C2064 0.929 . S
H2051 C2065 0.931 . S
H2052 C2067 0.930 . S
C2053 H2041 0.930 . S
C2053 C2054 1.399 . S
C2053 C2058 1.399 . S
C2054 C2053 1.399 . S
C2054 C2055 1.376 . S
C2055 H2042 0.930 . S
C2055 C2054 1.376 . S
C2055 C2056 1.388 . S
C2056 H2043 0.930 . S
C2056 C2055 1.388 . S
C2056 C2057 1.390 . S
C2057 C2056 1.390 . S
C2057 C2058 1.394 . S
C2057 C2063 1.465 . S
C2058 C2053 1.399 . S
C2058 C2057 1.394 . S
C2058 C2059 1.516 . S
C2059 C2058 1.516 . S
C2059 C2060 1.502 . S
C2059 C2061 1.561 . S
C2059 C2062 1.526 . S
C2060 H2044 0.959 . S
C2060 H2045 0.959 . S
C2060 H2046 0.961 1_554 S
C2060 C2059 1.502 . S
C2061 H2047 0.960 . S
C2061 H2048 0.961 . S
C2061 H2049 0.959 . S
C2061 C2059 1.561 . S
C2062 C2059 1.526 . S
C2062 C2063 1.396 . S
C2062 C2067 1.390 . S
C2063 C2057 1.465 . S
C2063 C2062 1.396 . S
C2063 C2064 1.399 . S
C2064 H2050 0.929 . S
C2064 C2063 1.399 . S
C2064 C2065 1.385 . S
C2065 H2051 0.931 . S
C2065 C2064 1.385 . S
C2065 C2066 1.389 . S
C2066 C2065 1.389 . S
C2066 C2067 1.387 . S
C2067 H2052 0.930 . S
C2067 C2062 1.390 . S
C2067 C2066 1.387 . S
H2068 C2080 0.930 . S
H2069 C2082 0.930 . S
H2070 C2083 0.930 . S
H2071 C2087 0.959 . S
H2072 C2087 0.959 . S
H2073 C2087 0.961 . S
H2074 C2088 0.960 . S
H2075 C2088 0.961 . S
H2076 C2088 0.959 . S
H2077 C2091 0.929 . S
H2078 C2092 0.931 . S
H2079 C2094 0.930 . S
C2080 H2068 0.930 . S
C2080 C2081 1.399 . S
C2080 C2085 1.399 . S
C2081 C2080 1.399 . S
C2081 C2082 1.376 . S
C2082 H2069 0.930 . S
C2082 C2081 1.376 . S
C2082 C2083 1.388 . S
C2083 H2070 0.930 . S
C2083 C2082 1.388 . S
C2083 C2084 1.390 . S
C2084 C2083 1.390 . S
C2084 C2085 1.394 . S
C2084 C2090 1.465 . S
C2085 C2080 1.399 . S
C2085 C2084 1.394 . S
C2085 C2086 1.516 . S
C2086 C2085 1.516 . S
C2086 C2087 1.502 . S
C2086 C2088 1.561 . S
C2086 C2089 1.526 . S
C2087 H2071 0.959 . S
C2087 H2072 0.959 . S
C2087 H2073 0.961 . S
C2087 C2086 1.502 . S
C2088 H2074 0.960 . S
C2088 H2075 0.961 . S
C2088 H2076 0.959 . S
C2088 C2086 1.561 . S
C2089 C2086 1.526 . S
C2089 C2090 1.396 . S
C2089 C2094 1.390 . S
C2090 C2084 1.465 . S
C2090 C2089 1.396 . S
C2090 C2091 1.399 . S
C2091 H2077 0.929 . S
C2091 C2090 1.399 . S
C2091 C2092 1.385 . S
C2092 H2078 0.931 . S
C2092 C2091 1.385 . S
C2092 C2093 1.389 . S
C2093 C2092 1.389 . S
C2093 C2094 1.387 . S
C2094 H2079 0.930 . S
C2094 C2089 1.390 . S
C2094 C2093 1.387 . S
H2095 C2107 0.930 . S
H2096 C2109 0.930 . S
H2097 C2110 0.930 . S
H2098 C2114 0.959 . S
H2099 C2114 0.959 . S
H2100 C2114 0.961 . S
H2101 C2115 0.960 . S
H2102 C2115 0.961 . S
H2103 C2115 0.959 . S
H2104 C2118 0.929 . S
H2105 C2119 0.931 . S
H2106 C2121 0.930 . S
C2107 H2095 0.930 . S
C2107 C2108 1.399 . S
C2107 C2112 1.399 . S
C2108 C2107 1.399 . S
C2108 C2109 1.376 . S
C2109 H2096 0.930 . S
C2109 C2108 1.376 . S
C2109 C2110 1.388 . S
C2110 H2097 0.930 . S
C2110 C2109 1.388 . S
C2110 C2111 1.390 . S
C2111 C2110 1.390 . S
C2111 C2112 1.394 . S
C2111 C2117 1.465 . S
C2112 C2107 1.399 . S
C2112 C2111 1.394 . S
C2112 C2113 1.516 . S
C2113 C2112 1.516 . S
C2113 C2114 1.502 . S
C2113 C2115 1.561 . S
C2113 C2116 1.526 . S
C2114 H2098 0.959 . S
C2114 H2099 0.959 . S
C2114 H2100 0.961 . S
C2114 C2113 1.502 . S
C2115 H2101 0.960 . S
C2115 H2102 0.961 . S
C2115 H2103 0.959 . S
C2115 C2113 1.561 . S
C2116 C2113 1.526 . S
C2116 C2117 1.396 . S
C2116 C2121 1.390 . S
C2117 C2111 1.465 . S
C2117 C2116 1.396 . S
C2117 C2118 1.399 . S
C2118 H2104 0.929 . S
C2118 C2117 1.399 . S
C2118 C2119 1.385 . S
C2119 H2105 0.931 . S
C2119 C2118 1.385 . S
C2119 C2120 1.389 . S
C2120 C2119 1.389 . S
C2120 C2121 1.387 . S
C2121 H2106 0.930 . S
C2121 C2116 1.390 . S
C2121 C2120 1.387 . S
H2122 C2134 0.930 . S
H2123 C2136 0.930 . S
H2124 C2137 0.930 . S
H2125 C2141 0.959 . S
H2126 C2141 0.959 . S
H2127 C2141 0.961 . S
H2128 C2142 0.960 . S
H2129 C2142 0.961 . S
H2130 C2142 0.959 . S
H2131 C2145 0.929 . S
H2132 C2146 0.931 . S
H2133 C2148 0.930 . S
C2134 H2122 0.930 . S
C2134 C2135 1.399 . S
C2134 C2139 1.399 . S
C2135 C2134 1.399 . S
C2135 C2136 1.376 . S
C2136 H2123 0.930 . S
C2136 C2135 1.376 . S
C2136 C2137 1.388 . S
C2137 H2124 0.930 . S
C2137 C2136 1.388 . S
C2137 C2138 1.390 . S
C2138 C2137 1.390 . S
C2138 C2139 1.394 . S
C2138 C2144 1.465 . S
C2139 C2134 1.399 . S
C2139 C2138 1.394 . S
C2139 C2140 1.516 . S
C2140 C2139 1.516 . S
C2140 C2141 1.502 . S
C2140 C2142 1.561 . S
C2140 C2143 1.526 . S
C2141 H2125 0.959 . S
C2141 H2126 0.959 . S
C2141 H2127 0.961 . S
C2141 C2140 1.502 . S
C2142 H2128 0.960 . S
C2142 H2129 0.961 . S
C2142 H2130 0.959 . S
C2142 C2140 1.561 . S
C2143 C2140 1.526 . S
C2143 C2144 1.396 . S
C2143 C2148 1.390 . S
C2144 C2138 1.465 . S
C2144 C2143 1.396 . S
C2144 C2145 1.399 . S
C2145 H2131 0.929 . S
C2145 C2144 1.399 . S
C2145 C2146 1.385 . S
C2146 H2132 0.931 . S
C2146 C2145 1.385 . S
C2146 C2147 1.389 . S
C2147 C2146 1.389 . S
C2147 C2148 1.387 . S
C2148 H2133 0.930 . S
C2148 C2143 1.390 . S
C2148 C2147 1.387 . S
H2149 C2161 0.930 . S
H2150 C2163 0.930 . S
H2151 C2164 0.930 . S
H2152 C2168 0.959 . S
H2153 C2168 0.959 . S
H2154 C2168 0.961 . S
H2155 C2169 0.960 . S
H2156 C2169 0.961 . S
H2157 C2169 0.959 . S
H2158 C2172 0.929 . S
H2159 C2173 0.931 . S
H2160 C2175 0.930 . S
C2161 H2149 0.930 . S
C2161 C2162 1.399 . S
C2161 C2166 1.399 . S
C2162 C2161 1.399 . S
C2162 C2163 1.376 . S
C2163 H2150 0.930 . S
C2163 C2162 1.376 . S
C2163 C2164 1.388 . S
C2164 H2151 0.930 . S
C2164 C2163 1.388 . S
C2164 C2165 1.390 . S
C2165 C2164 1.390 . S
C2165 C2166 1.394 . S
C2165 C2171 1.465 . S
C2166 C2161 1.399 . S
C2166 C2165 1.394 . S
C2166 C2167 1.516 . S
C2167 C2166 1.516 . S
C2167 C2168 1.502 . S
C2167 C2169 1.561 . S
C2167 C2170 1.526 . S
C2168 H2152 0.959 . S
C2168 H2153 0.959 . S
C2168 H2154 0.961 . S
C2168 C2167 1.502 . S
C2169 H2155 0.960 . S
C2169 H2156 0.961 . S
C2169 H2157 0.959 . S
C2169 C2167 1.561 . S
C2170 C2167 1.526 . S
C2170 C2171 1.396 . S
C2170 C2175 1.390 . S
C2171 C2165 1.465 . S
C2171 C2170 1.396 . S
C2171 C2172 1.399 . S
C2172 H2158 0.929 . S
C2172 C2171 1.399 . S
C2172 C2173 1.385 . S
C2173 H2159 0.931 . S
C2173 C2172 1.385 . S
C2173 C2174 1.389 . S
C2174 C2173 1.389 . S
C2174 C2175 1.387 . S
C2175 H2160 0.930 . S
C2175 C2170 1.390 . S
C2175 C2174 1.387 . S
C461 C93 1.480 . S
C473 C9 1.490 . S
C488 C23 1.465 . S
C500 C107 1.492 . S
C515 C65 1.455 . S
C527 C37 1.490 . S
C542 C51 1.492 . S
C554 C79 1.460 . S
C569 C205 1.476 . S
C581 C121 1.454 . S
C596 C219 1.458 . S
C608 C135 1.440 . S
C623 C149 1.435 . S
C635 C177 1.437 . S
C650 C163 1.477 . S
C662 C191 1.491 . S
C677 C233 1.469 . S
C689 C317 1.493 . S
C704 C247 1.436 . S
C716 C331 1.470 . S
C731 C289 1.471 . S
C743 C261 1.493 . S
C758 C303 1.491 . S
C770 C275 1.458 . S
C785 C345 1.437 . S
C797 C429 1.455 . S
C812 C443 1.464 . S
C824 C359 1.444 . S
C839 C401 1.434 . S
C851 C373 1.448 . S
C866 C387 1.492 . S
C878 C415 1.478 . S
C893 C3 1.238 . S
C905 C427 1.213 . S
C920 C217 1.238 . S
C932 C17 1.215 . S
C947 C31 1.229 . S
C959 C399 1.252 . S
C974 C45 1.204 . S
C986 C189 1.214 . S
C1001 C371 1.259 . S
C1013 C59 1.251 . S
C1028 C161 1.225 . S
C1040 C73 1.250 . S
C1055 C87 1.242 . S
C1067 C343 1.217 . S
C1082 C133 1.259 . S
C1094 C101 1.251 . S
C1109 C115 1.216 . S
C1121 C315 1.209 . S
C1136 C105 1.203 . S
C1148 C129 1.205 . S
C1163 C143 1.207 . S
C1175 C287 1.204 . S
C1190 C157 1.225 . S
C1202 C77 1.233 . S
C1217 C259 1.242 . S
C1229 C171 1.234 . S
C1244 C185 1.223 . S
C1256 C49 1.214 . S
C1271 C199 1.257 . S
C1283 C231 1.252 . S
C1298 C21 1.204 . S
C1310 C213 1.205 . S
C1325 C227 1.241 . S
C1337 C203 1.215 . S
C1352 C241 1.260 . S
C1364 C441 1.247 . S
C1379 C175 1.203 . S
C1391 C255 1.216 . S
C1406 C269 1.245 . S
C1418 C413 1.259 . S
C1433 C147 1.258 . S
C1445 C283 1.254 . S
C1460 C385 1.227 . S
C1472 C297 1.252 . S
C1487 C119 1.204 . S
C1499 C311 1.224 . S
C1514 C357 1.226 . S
C1526 C325 1.251 . S
C1541 C339 1.257 . S
C1553 C91 1.259 . S
C1568 C329 1.204 . S
C1580 C353 1.205 . S
C1595 C63 1.224 . S
C1607 C367 1.234 . S
C1622 C381 1.225 . S
C1634 C301 1.234 . S
C1649 C395 1.205 . S
C1661 C35 1.204 . S
C1676 C409 1.245 . S
C1688 C273 1.236 . S
C1703 C7 1.203 . S
C1715 C423 1.205 . S
C1730 C437 1.250 . S
C1742 C245 1.242 . S
C1757 C8 1.403 . S
C1769 C302 1.411 . S
C1784 C316 1.404 . S
C1796 C22 1.420 . S
C1811 C36 1.421 . S
C1823 C330 1.422 . S
C1838 C288 1.406 . S
C1850 C50 1.407 . S
C1865 C274 1.415 . S
C1877 C64 1.403 . S
C1892 C232 1.416 . S
C1904 C78 1.403 . S
C1919 C246 1.412 . S
C1931 C92 1.425 . S
C1946 C260 1.412 . S
C1958 C106 1.425 . S
C1973 C120 1.403 . S
C1985 C414 1.423 . S
C2000 C428 1.425 . S
C2012 C134 1.408 . S
C2027 C442 1.423 . S
C2039 C148 1.412 . S
C2054 C400 1.403 . S
C2066 C162 1.423 . S
C2081 C386 1.424 . S
C2093 C176 1.411 . S
C2108 C344 1.416 . S
C2120 C190 1.420 . S
C2135 C204 1.425 . S
C2147 C358 1.407 . S
C2162 C218 1.409 . S
C2174 C372 1.409 . S
