# Generated by pormake.
# Topology uog, (4)-cn, num edge types: 1
# Building blocks:
#     Node 0, Type 0, BuildingBlock: NAWXER_clean_sbu_0, # of connection points: 4
#     Node 1, Type 0, BuildingBlock: NAWXER_clean_sbu_0, # of connection points: 4
#     Node 2, Type 0, BuildingBlock: NAWXER_clean_sbu_0, # of connection points: 4
#     Node 3, Type 0, BuildingBlock: NAWXER_clean_sbu_0, # of connection points: 4
#     Node 4, Type 0, BuildingBlock: NAWXER_clean_sbu_0, # of connection points: 4
#     Node 5, Type 0, BuildingBlock: NAWXER_clean_sbu_0, # of connection points: 4
#     Edge 6, Type (0, 0), BuildingBlock: FUNLAD_clean_linker_1, # of connection points: 2
#     Edge 7, Type (0, 0), BuildingBlock: FUNLAD_clean_linker_1, # of connection points: 2
#     Edge 8, Type (0, 0), BuildingBlock: FUNLAD_clean_linker_1, # of connection points: 2
#     Edge 9, Type (0, 0), BuildingBlock: FUNLAD_clean_linker_1, # of connection points: 2
#     Edge 10, Type (0, 0), BuildingBlock: FUNLAD_clean_linker_1, # of connection points: 2
#     Edge 11, Type (0, 0), BuildingBlock: FUNLAD_clean_linker_1, # of connection points: 2
#     Edge 12, Type (0, 0), BuildingBlock: FUNLAD_clean_linker_1, # of connection points: 2
#     Edge 13, Type (0, 0), BuildingBlock: FUNLAD_clean_linker_1, # of connection points: 2
#     Edge 14, Type (0, 0), BuildingBlock: FUNLAD_clean_linker_1, # of connection points: 2
#     Edge 15, Type (0, 0), BuildingBlock: FUNLAD_clean_linker_1, # of connection points: 2
#     Edge 16, Type (0, 0), BuildingBlock: FUNLAD_clean_linker_1, # of connection points: 2
#     Edge 17, Type (0, 0), BuildingBlock: FUNLAD_clean_linker_1, # of connection points: 2
# Relax obj value: 0.013
# Max RMSD: 0.240
# Mean RMSD: 0.240
data_MOF--net-uog--node1-NAWXER_clean_sbu_0--edge1-FUNLAD_clean_linker_1
_symmetry_space_group_name_H-M    P1
_symmetry_Int_Tables_number       1
_symmetry_cell_setting            triclinic
loop_
_symmetry_equiv_pos_as_xyz
'x, y, z'
_cell_length_a     29.659993
_cell_length_b     30.139518
_cell_length_c     44.967002
_cell_angle_alpha  90.13141
_cell_angle_beta   89.825456
_cell_angle_gamma 119.5079
loop_
_atom_site_label
_atom_site_type_symbol
_atom_site_fract_x
_atom_site_fract_y
_atom_site_fract_z
_atom_type_partial_charge
C0 C 0.51763 0.33197 0.17489 0.0
C1 C 0.54492 0.18608 0.17915 0.0
O2 O 0.48431 0.28497 0.17597 0.0
Zn3 Zn 0.53196 0.2594 0.1772 0.0
O4 O 0.56614 0.34595 0.17497 0.0
Zn5 Zn 0.61258 0.30864 0.1767 0.0
O6 O 0.65081 0.32871 0.13973 0.0
O7 O 0.56688 0.2775 0.13352 0.0
O8 O 0.58808 0.22808 0.17859 0.0
O9 O 0.50251 0.18685 0.17873 0.0
O10 O 0.56721 0.28304 0.2205 0.0
O11 O 0.65086 0.33438 0.21327 0.0
C12 C 0.61247 0.304 0.12254 0.0
C13 C 0.61275 0.31164 0.23095 0.0
C14 C 0.35015 0.65829 0.5609 0.0
C15 C 0.3502 0.63113 0.45488 0.0
O16 O 0.37019 0.69124 0.54042 0.0
Zn17 Zn 0.34904 0.64415 0.50799 0.0
O18 O 0.32634 0.61056 0.55447 0.0
Zn19 Zn 0.30861 0.56464 0.51459 0.0
O20 O 0.34499 0.52709 0.52094 0.0
O21 O 0.39713 0.60954 0.51395 0.0
O22 O 0.32833 0.58867 0.46896 0.0
O23 O 0.36698 0.67282 0.46898 0.0
O24 O 0.26596 0.61021 0.50848 0.0
O25 O 0.23365 0.52738 0.51449 0.0
C26 C 0.39057 0.5648 0.51867 0.0
C27 C 0.22674 0.56543 0.51104 0.0
C28 C 0.71352 0.30741 0.90027 0.0
C29 C 0.71276 0.32182 0.79249 0.0
O30 O 0.6905 0.32487 0.88439 0.0
Zn31 Zn 0.71317 0.31385 0.84638 0.0
O32 O 0.74087 0.29033 0.88776 0.0
Zn33 Zn 0.76144 0.28166 0.8426 0.0
O34 O 0.83545 0.32257 0.84267 0.0
O35 O 0.79554 0.36774 0.84687 0.0
O36 O 0.74026 0.30188 0.80073 0.0
O37 O 0.68995 0.33436 0.81188 0.0
O38 O 0.67323 0.23142 0.84299 0.0
O39 O 0.73392 0.20954 0.83901 0.0
C40 C 0.83757 0.36549 0.84527 0.0
C41 C 0.68639 0.19688 0.84033 0.0
C42 C 0.38432 0.68172 0.22697 0.0
C43 C 0.38567 0.68857 0.11972 0.0
O44 O 0.34663 0.66224 0.209 0.0
Zn45 Zn 0.38658 0.68501 0.17338 0.0
O46 O 0.43088 0.70776 0.21711 0.0
Zn47 Zn 0.46715 0.73107 0.17372 0.0
O48 O 0.49983 0.80405 0.17549 0.0
O49 O 0.41442 0.76618 0.17475 0.0
O50 O 0.43186 0.71438 0.13004 0.0
O51 O 0.34787 0.66475 0.13734 0.0
O52 O 0.42971 0.64407 0.17272 0.0
O53 O 0.51242 0.70284 0.17239 0.0
C54 C 0.45859 0.807 0.1755 0.0
C55 C 0.47777 0.65626 0.17237 0.0
C56 C 0.66768 0.44819 0.51839 0.0
C57 C 0.83286 0.45011 0.51162 0.0
O58 O 0.71296 0.4864 0.5205 0.0
Zn59 Zn 0.75055 0.44974 0.51497 0.0
O60 O 0.6619 0.40364 0.51406 0.0
Zn61 Zn 0.71079 0.37 0.50826 0.0
O62 O 0.69157 0.32362 0.54135 0.0
O63 O 0.7326 0.40448 0.55503 0.0
O64 O 0.79401 0.40521 0.50855 0.0
O65 O 0.82543 0.48777 0.51562 0.0
O66 O 0.73391 0.42578 0.46911 0.0
O67 O 0.69284 0.34163 0.46872 0.0
C68 C 0.7102 0.35695 0.56178 0.0
C69 C 0.71163 0.38359 0.45471 0.0
C70 C 0.36305 0.83367 0.84511 0.0
C71 C 0.2208 0.65948 0.84912 0.0
O72 O 0.31511 0.8177 0.84876 0.0
Zn73 Zn 0.29235 0.74598 0.84705 0.0
O74 O 0.37921 0.80158 0.84151 0.0
Zn75 Zn 0.34481 0.71973 0.83964 0.0
O76 O 0.36233 0.70844 0.80064 0.0
O77 O 0.30306 0.73254 0.80083 0.0
O78 O 0.26413 0.66074 0.84441 0.0
O79 O 0.21977 0.70082 0.85244 0.0
O80 O 0.32558 0.73285 0.88673 0.0
O81 O 0.37842 0.7055 0.87128 0.0
C82 C 0.33148 0.71854 0.78658 0.0
C83 C 0.35802 0.71739 0.89239 0.0
H84 H 0.58263 0.1387 0.18019 0.0
C85 C 0.54535 0.13741 0.17994 0.0
H86 H 0.46404 0.09009 0.17865 0.0
H87 H 0.47602 0.90369 0.1222 0.0
H88 H 0.44623 0.93219 0.08005 0.0
H89 H 0.4425 0.01206 0.08251 0.0
H90 H 0.46832 0.06384 0.12721 0.0
C91 C 0.50159 0.09211 0.17995 0.0
C92 C 0.50314 0.04356 0.17898 0.0
C93 C 0.48715 0.01335 0.15283 0.0
C94 C 0.48881 0.96703 0.15151 0.0
C95 C 0.47426 0.9385 0.12474 0.0
C96 C 0.45749 0.95463 0.10026 0.0
C97 C 0.45537 0.9996 0.10164 0.0
C98 C 0.47018 0.02888 0.1275 0.0
H99 H 0.42407 0.85714 0.17589 0.0
C100 C 0.46057 0.85679 0.17592 0.0
H101 H 0.54223 0.9017 0.17678 0.0
H102 H 0.53312 0.09065 0.23328 0.0
H103 H 0.56301 0.06222 0.27541 0.0
H104 H 0.56729 0.9826 0.27282 0.0
H105 H 0.54143 0.93082 0.2281 0.0
C106 C 0.50536 0.90116 0.1759 0.0
C107 C 0.50566 0.95064 0.17658 0.0
C108 C 0.52209 0.98106 0.20263 0.0
C109 C 0.52035 0.02735 0.20396 0.0
C110 C 0.53496 0.05589 0.23072 0.0
C111 C 0.55188 0.03983 0.25517 0.0
C112 C 0.55423 0.99498 0.25373 0.0
C113 C 0.53936 0.96567 0.22788 0.0
H114 H 0.47448 0.59243 0.52004 0.0
C115 C 0.43661 0.55831 0.52089 0.0
H116 H 0.3964 0.47778 0.52253 0.0
H117 H 0.59165 0.47201 0.46708 0.0
H118 H 0.53391 0.44517 0.42471 0.0
H119 H 0.45142 0.44639 0.42673 0.0
H120 H 0.42641 0.47489 0.47113 0.0
C121 C 0.43371 0.51254 0.52293 0.0
C122 C 0.48166 0.50825 0.52281 0.0
C123 C 0.49499 0.49004 0.49704 0.0
C124 C 0.54204 0.48825 0.49613 0.0
C125 C 0.55558 0.47242 0.46947 0.0
C126 C 0.52297 0.45732 0.44484 0.0
C127 C 0.47658 0.45809 0.44596 0.0
C128 C 0.46266 0.47446 0.47162 0.0
H129 H 0.58356 0.4195 0.51889 0.0
C130 C 0.62114 0.45396 0.51992 0.0
H131 H 0.66032 0.53437 0.52278 0.0
H132 H 0.46615 0.54223 0.57632 0.0
H133 H 0.52374 0.56892 0.61885 0.0
H134 H 0.60529 0.56581 0.61734 0.0
H135 H 0.62972 0.53592 0.5733 0.0
C136 C 0.62326 0.49949 0.52112 0.0
C137 C 0.57497 0.50325 0.52139 0.0
C138 C 0.5616 0.52149 0.54716 0.0
C139 C 0.51478 0.52372 0.54794 0.0
C140 C 0.50174 0.54076 0.57428 0.0
C141 C 0.53431 0.55591 0.59893 0.0
C142 C 0.5802 0.55412 0.59809 0.0
C143 C 0.5938 0.53697 0.57262 0.0
H144 H 0.88754 0.44895 0.84779 0.0
C145 C 0.88779 0.41306 0.84621 0.0
H146 H 0.93436 0.37796 0.84434 0.0
H147 H 0.09624 0.61489 0.79998 0.0
H148 H 0.0431 0.59223 0.75561 0.0
H149 H 0.96269 0.50935 0.75187 0.0
H150 H 0.9348 0.44883 0.79253 0.0
C151 C 0.93325 0.41345 0.84497 0.0
C152 C 0.98325 0.46216 0.84629 0.0
C153 C 0.99926 0.49686 0.82213 0.0
C154 C 0.04601 0.54431 0.82411 0.0
C155 C 0.06102 0.57835 0.79971 0.0
C156 C 0.03096 0.56578 0.77406 0.0
C157 C 0.98567 0.51915 0.77196 0.0
C158 C 0.96991 0.48488 0.79558 0.0
H159 H 0.17521 0.5754 0.84767 0.0
C160 C 0.17248 0.60994 0.84979 0.0
H161 H 0.12219 0.64074 0.85273 0.0
H162 H 0.96468 0.4033 0.89599 0.0
H163 H 1.01845 0.42539 0.94008 0.0
H164 H 0.09918 0.50799 0.9437 0.0
H165 H 0.12671 0.56891 0.90324 0.0
C166 C 0.12566 0.60651 0.85187 0.0
C167 C 0.07716 0.55651 0.84997 0.0
C168 C 0.06161 0.52144 0.87392 0.0
C169 C 1.01476 0.47403 0.87197 0.0
C170 C 0.99994 0.43979 0.89626 0.0
C171 C 0.03039 0.45203 0.92173 0.0
C172 C 0.07586 0.49851 0.92376 0.0
C173 C 0.09137 0.53304 0.90027 0.0
H174 H 0.17126 0.59391 0.50864 0.0
C175 C 0.1743 0.55948 0.51026 0.0
H176 H 0.13307 0.47924 0.51389 0.0
H177 H 0.9303 0.46909 0.56671 0.0
H178 H 0.96055 0.44035 0.60855 0.0
H179 H 0.04523 0.44356 0.60676 0.0
H180 H 0.10013 0.47538 0.56309 0.0
C181 C 0.13081 0.51395 0.51141 0.0
C182 C 0.07868 0.51013 0.51175 0.0
C183 C 0.0468 0.49093 0.53737 0.0
C184 C 0.99783 0.48886 0.53837 0.0
C185 C 0.96738 0.47064 0.56452 0.0
C186 C 0.98441 0.45429 0.58879 0.0
C187 C 0.03209 0.45612 0.58778 0.0
C188 C 0.06318 0.47437 0.56251 0.0
H189 H 0.88894 0.42243 0.50844 0.0
C190 C 0.88547 0.4565 0.51108 0.0
H191 H 0.92641 0.5367 0.51602 0.0
H192 H 0.12675 0.54291 0.45762 0.0
H193 H 0.09649 0.57198 0.416 0.0
H194 H 1.01323 0.57163 0.41864 0.0
H195 H 0.95947 0.54166 0.46289 0.0
C196 C 0.9286 0.50186 0.51417 0.0
C197 C 0.98059 0.50563 0.51366 0.0
C198 C 1.01234 0.52476 0.48805 0.0
C199 C 0.06102 0.52622 0.48685 0.0
C200 C 0.09048 0.54284 0.46028 0.0
C201 C 0.07332 0.5592 0.43607 0.0
C202 C 0.02639 0.5589 0.43753 0.0
C203 C 0.99597 0.54168 0.46309 0.0
H204 H 0.38439 0.91476 0.84882 0.0
C205 C 0.39973 0.88895 0.8455 0.0
H206 H 0.46691 0.88292 0.83802 0.0
H207 H 0.59478 0.10684 0.78613 0.0
H208 H 0.57558 0.05711 0.74079 0.0
H209 H 0.51594 0.96424 0.74131 0.0
H210 H 0.47493 0.92059 0.78719 0.0
C211 C 0.45103 0.90804 0.84223 0.0
C212 C 0.48732 0.96396 0.84226 0.0
C213 C 0.51162 0.98873 0.81536 0.0
C214 C 0.54654 0.04216 0.81512 0.0
C215 C 0.56895 0.06617 0.78774 0.0
C216 C 0.55801 0.03812 0.7615 0.0
C217 C 0.52439 0.98585 0.76179 0.0
C218 C 0.50121 0.96126 0.7883 0.0
H219 H 0.66006 0.11489 0.8355 0.0
C220 C 0.64696 0.14246 0.83893 0.0
H221 H 0.58234 0.1527 0.84677 0.0
H222 H 0.45006 0.92774 0.89807 0.0
H223 H 0.46931 0.97747 0.9434 0.0
H224 H 0.52886 0.07038 0.94284 0.0
H225 H 0.56976 0.11402 0.89694 0.0
C226 C 0.5961 0.12598 0.84217 0.0
C227 C 0.55776 0.07053 0.84193 0.0
C228 C 0.53315 0.04584 0.8688 0.0
C229 C 0.49824 0.99239 0.86904 0.0
C230 C 0.47587 0.9684 0.89643 0.0
C231 C 0.48683 0.99647 0.92268 0.0
C232 C 0.5204 0.04876 0.92237 0.0
C233 C 0.54354 0.07334 0.89585 0.0
H234 H 0.53478 0.62946 0.17254 0.0
C235 C 0.49355 0.61692 0.17255 0.0
H236 H 0.41789 0.55333 0.17247 0.0
H237 H 0.49888 0.40928 0.11912 0.0
H238 H 0.45596 0.41962 0.07604 0.0
H239 H 0.42191 0.47959 0.07708 0.0
H240 H 0.43085 0.5298 0.12118 0.0
C241 C 0.45926 0.56682 0.17328 0.0
C242 C 0.47705 0.52848 0.17351 0.0
C243 C 0.47043 0.49857 0.14781 0.0
C244 C 0.48937 0.46343 0.14738 0.0
C245 C 0.48406 0.43554 0.12098 0.0
C246 C 0.45978 0.44135 0.096 0.0
C247 C 0.44066 0.47516 0.09657 0.0
C248 C 0.44599 0.50368 0.12206 0.0
H249 H 0.4585 0.3561 0.17333 0.0
C250 C 0.49998 0.36988 0.17359 0.0
H251 H 0.57464 0.43485 0.17419 0.0
H252 H 0.49174 0.57647 0.22735 0.0
H253 H 0.53429 0.56586 0.27052 0.0
H254 H 0.56822 0.50578 0.26954 0.0
H255 H 0.55957 0.4558 0.22541 0.0
C256 C 0.53311 0.42028 0.17291 0.0
C257 C 0.514 0.45759 0.17289 0.0
C258 C 0.52032 0.48726 0.19866 0.0
C259 C 0.50139 0.52241 0.19908 0.0
C260 C 0.50657 0.5502 0.22551 0.0
C261 C 0.53062 0.54423 0.25054 0.0
C262 C 0.54967 0.51037 0.25 0.0
C263 C 0.54453 0.48199 0.22448 0.0
H264 H 0.73038 0.29182 0.94565 0.0
C265 C 0.70922 0.30636 0.93303 0.0
H266 H 0.65996 0.33835 0.93527 0.0
H267 H 0.6294 0.22718 0.06774 0.0
H268 H 0.59151 0.14735 0.04061 0.0
H269 H 0.59026 0.14634 0.98575 0.0
H270 H 0.62795 0.22517 0.95776 0.0
C271 C 0.68006 0.32228 0.94753 0.0
C272 C 0.67731 0.32217 0.98065 0.0
C273 C 0.65301 0.27557 0.99667 0.0
C274 C 0.65116 0.27608 0.02831 0.0
C275 C 0.62963 0.22906 0.04373 0.0
C276 C 0.60811 0.1829 0.02843 0.0
C277 C 0.6076 0.18234 0.99755 0.0
C278 C 0.62971 0.22797 0.98174 0.0
H279 H 0.58455 0.28624 0.07636 0.0
C280 C 0.61926 0.30434 0.08999 0.0
H281 H 0.70106 0.343 0.09008 0.0
H282 H 0.72781 0.4182 0.9569 0.0
H283 H 0.76295 0.498 0.98399 0.0
H284 H 0.75593 0.4988 0.03863 0.0
H285 H 0.7141 0.41985 0.06657 0.0
C286 C 0.66595 0.32406 0.07684 0.0
C287 C 0.67103 0.32311 0.04383 0.0
C288 C 0.69529 0.36963 0.0278 0.0
C289 C 0.69858 0.36915 0.99622 0.0
C290 C 0.72358 0.41626 0.98085 0.0
C291 C 0.74404 0.46239 0.99612 0.0
C292 C 0.74014 0.46284 0.02689 0.0
C293 C 0.71607 0.41717 0.04265 0.0
H294 H 0.33561 0.66701 0.26667 0.0
C295 C 0.37385 0.67545 0.25906 0.0
H296 H 0.44733 0.68673 0.27115 0.0
H297 H 0.44908 0.75383 0.40348 0.0
H298 H 0.52475 0.82621 0.38259 0.0
H299 H 0.54291 0.83113 0.32879 0.0
H300 H 0.48607 0.76318 0.29569 0.0
C301 C 0.40918 0.6785 0.27877 0.0
C302 C 0.39852 0.67451 0.31136 0.0
C303 C 0.43151 0.71537 0.33029 0.0
C304 C 0.42003 0.71337 0.36116 0.0
C305 C 0.45491 0.75379 0.37974 0.0
C306 C 0.49872 0.79562 0.36806 0.0
C307 C 0.509 0.79834 0.33779 0.0
C308 C 0.47599 0.75887 0.31903 0.0
H309 H 0.35733 0.59809 0.41265 0.0
C310 C 0.35739 0.63105 0.42255 0.0
H311 H 0.36324 0.70269 0.41532 0.0
H312 H 0.33427 0.58393 0.28331 0.0
H313 H 0.25449 0.51461 0.30306 0.0
H314 H 0.22595 0.51856 0.35412 0.0
H315 H 0.27831 0.5906 0.38607 0.0
C316 C 0.36332 0.66988 0.40529 0.0
C317 C 0.37448 0.67145 0.37285 0.0
C318 C 0.34074 0.63123 0.3537 0.0
C319 C 0.35448 0.63132 0.32339 0.0
C320 C 0.32356 0.5877 0.30579 0.0
C321 C 0.27794 0.54736 0.31695 0.0
C322 C 0.26208 0.54941 0.34575 0.0
C323 C 0.29288 0.59078 0.36399 0.0
H324 H 0.68778 0.3519 0.75512 0.0
C325 C 0.70826 0.33148 0.76075 0.0
H326 H 0.7506 0.29725 0.7443 0.0
H327 H 0.62547 0.32227 0.62676 0.0
H328 H 0.54624 0.26408 0.65246 0.0
H329 H 0.54879 0.23296 0.70277 0.0
H330 H 0.63055 0.26096 0.72795 0.0
C331 C 0.72889 0.31652 0.73889 0.0
C332 C 0.72706 0.32991 0.70714 0.0
C333 C 0.67903 0.31083 0.69206 0.0
C334 C 0.67774 0.32635 0.66232 0.0
C335 C 0.629 0.30977 0.64871 0.0
C336 C 0.58311 0.27662 0.66331 0.0
C337 C 0.58453 0.25929 0.69168 0.0
C338 C 0.63177 0.27601 0.70598 0.0
H339 H 0.69099 0.30036 0.59766 0.0
C340 C 0.70711 0.34078 0.59307 0.0
H341 H 0.74168 0.41496 0.61121 0.0
H342 H 0.82574 0.37351 0.72936 0.0
H343 H 0.90524 0.42812 0.70276 0.0
H344 H 0.90333 0.4506 0.65024 0.0
H345 H 0.82188 0.41903 0.62411 0.0
C346 C 0.7242 0.37438 0.6157 0.0
C347 C 0.72469 0.35838 0.64703 0.0
C348 C 0.77276 0.3763 0.66185 0.0
C349 C 0.77392 0.36239 0.69196 0.0
C350 C 0.82249 0.38204 0.70637 0.0
C351 C 0.86851 0.41356 0.69138 0.0
C352 C 0.86744 0.42627 0.66183 0.0
C353 C 0.82031 0.40797 0.64713 0.0
H354 H 0.40034 0.7007 0.92672 0.0
C355 C 0.37213 0.71328 0.92318 0.0
H356 H 0.32439 0.73838 0.94361 0.0
H357 H 0.37938 0.61922 0.05088 0.0
H358 H 0.3293 0.54223 0.02198 0.0
H359 H 0.29389 0.54571 0.97301 0.0
H360 H 0.30951 0.62628 0.95236 0.0
C361 C 0.35137 0.72419 0.9467 0.0
C362 C 0.36775 0.72095 0.97745 0.0
C363 C 0.35594 0.6731 0.98975 0.0
C364 C 0.37371 0.67071 0.0187 0.0
C365 C 0.36453 0.62291 0.02964 0.0
C366 C 0.33621 0.57846 0.01318 0.0
C367 C 0.31648 0.58045 0.98556 0.0
C368 C 0.32608 0.62707 0.97387 0.0
H369 H 0.33525 0.66796 0.08047 0.0
C370 C 0.37542 0.68807 0.08772 0.0
H371 H 0.4534 0.73449 0.07464 0.0
H372 H 0.39846 0.81879 0.95995 0.0
H373 H 0.44663 0.89548 0.98939 0.0
H374 H 0.47364 0.89087 0.04059 0.0
H375 H 0.45268 0.80968 0.06268 0.0
C376 C 0.41321 0.71285 0.06763 0.0
C377 C 0.40035 0.71574 0.036 0.0
C378 C 0.41238 0.76359 0.02363 0.0
C379 C 0.3962 0.76619 0.99426 0.0
C380 C 0.40926 0.81452 0.98228 0.0
C381 C 0.43695 0.85888 0.99892 0.0
C382 C 0.45213 0.85629 0.02775 0.0
C383 C 0.43994 0.80934 0.04013 0.0
H384 H 0.72465 0.42196 0.41127 0.0
C385 C 0.70746 0.38489 0.42204 0.0
H386 H 0.66635 0.3051 0.41565 0.0
H387 H 0.6149 0.39321 0.29201 0.0
H388 H 0.5673 0.42051 0.32409 0.0
H389 H 0.56854 0.41187 0.37858 0.0
H390 H 0.61819 0.37686 0.40132 0.0
C391 C 0.68252 0.34251 0.40542 0.0
C392 C 0.67907 0.34527 0.37246 0.0
C393 C 0.64814 0.36402 0.35949 0.0
C394 C 0.64539 0.36671 0.32798 0.0
C395 C 0.61655 0.38821 0.31571 0.0
C396 C 0.58934 0.40441 0.33389 0.0
C397 C 0.5902 0.39973 0.36457 0.0
C398 C 0.61914 0.37979 0.37734 0.0
H399 H 0.58607 0.29407 0.27742 0.0
C400 C 0.61981 0.31665 0.26351 0.0
H401 H 0.70011 0.3689 0.26292 0.0
H402 H 0.74314 0.30907 0.39005 0.0
H403 H 0.78928 0.28006 0.35793 0.0
H404 H 0.78167 0.28138 0.30337 0.0
H405 H 0.72822 0.31202 0.28057 0.0
C406 C 0.66571 0.34718 0.27646 0.0
C407 C 0.67161 0.34843 0.30946 0.0
C408 C 0.70281 0.33009 0.32246 0.0
C409 C 0.7066 0.32861 0.35395 0.0
C410 C 0.7384 0.31049 0.36629 0.0
C411 C 0.76517 0.29379 0.34811 0.0
C412 C 0.76093 0.29458 0.31739 0.0
C413 C 0.73014 0.31238 0.30459 0.0
H414 H 0.29082 0.7072 0.74392 0.0
C415 C 0.32577 0.71121 0.75419 0.0
H416 H 0.39629 0.71142 0.74793 0.0
H417 H 0.34076 0.57512 0.63456 0.0
H418 H 0.35765 0.52606 0.67092 0.0
H419 H 0.37057 0.55126 0.72376 0.0
H420 H 0.3676 0.62614 0.74044 0.0
C421 C 0.36154 0.70767 0.73752 0.0
C422 C 0.35231 0.69242 0.70565 0.0
C423 C 0.35267 0.6475 0.69644 0.0
C424 C 0.34351 0.632 0.66616 0.0
C425 C 0.34616 0.58811 0.65739 0.0
C426 C 0.35598 0.55956 0.67803 0.0
C427 C 0.36336 0.57381 0.70775 0.0
C428 C 0.36174 0.61713 0.71699 0.0
H429 H 0.38508 0.71387 0.59733 0.0
C430 C 0.35536 0.67517 0.592 0.0
H431 H 0.29464 0.60572 0.60826 0.0
H432 H 0.35777 0.78522 0.71434 0.0
H433 H 0.33401 0.8306 0.67892 0.0
H434 H 0.30525 0.79663 0.62835 0.0
H435 H 0.30205 0.71816 0.61265 0.0
C436 C 0.32429 0.64447 0.61354 0.0
C437 C 0.33234 0.66047 0.64531 0.0
C438 C 0.33004 0.70431 0.65474 0.0
C439 C 0.34247 0.72164 0.6846 0.0
C440 C 0.34522 0.76843 0.69256 0.0
C441 C 0.33218 0.79518 0.67234 0.0
C442 C 0.3163 0.77622 0.64383 0.0
C443 C 0.31514 0.73135 0.63501 0.0
loop_
_geom_bond_atom_site_label_1
_geom_bond_atom_site_label_2
_geom_bond_distance
_geom_bond_site_symmetry_2
_ccdc_geom_bond_type
C0 O2 1.247 . S
C0 O4 1.258 . S
C1 O8 1.247 . S
C1 O9 1.258 . S
O2 C0 1.247 . S
O2 Zn3 2.028 . S
Zn3 O2 2.028 . S
Zn3 O7 2.035 . S
Zn3 O9 2.035 . S
Zn3 O10 2.028 . S
O4 C0 1.258 . S
O4 Zn5 2.035 . S
Zn5 O4 2.035 . S
Zn5 O6 2.028 . S
Zn5 O8 2.028 . S
Zn5 O11 2.035 . S
O6 Zn5 2.028 . S
O6 C12 1.247 . S
O7 Zn3 2.035 . S
O7 C12 1.258 . S
O8 C1 1.247 . S
O8 Zn5 2.028 . S
O9 C1 1.258 . S
O9 Zn3 2.035 . S
O10 Zn3 2.028 . S
O10 C13 1.247 . S
O11 Zn5 2.035 . S
O11 C13 1.258 . S
C12 O6 1.247 . S
C12 O7 1.258 . S
C13 O10 1.247 . S
C13 O11 1.258 . S
C14 O16 1.247 . S
C14 O18 1.258 . S
C15 O22 1.247 . S
C15 O23 1.258 . S
O16 C14 1.247 . S
O16 Zn17 2.028 . S
Zn17 O16 2.028 . S
Zn17 O21 2.035 . S
Zn17 O23 2.035 . S
Zn17 O24 2.028 . S
O18 C14 1.258 . S
O18 Zn19 2.035 . S
Zn19 O18 2.035 . S
Zn19 O20 2.028 . S
Zn19 O22 2.028 . S
Zn19 O25 2.035 . S
O20 Zn19 2.028 . S
O20 C26 1.247 . S
O21 Zn17 2.035 . S
O21 C26 1.258 . S
O22 C15 1.247 . S
O22 Zn19 2.028 . S
O23 C15 1.258 . S
O23 Zn17 2.035 . S
O24 Zn17 2.028 . S
O24 C27 1.247 . S
O25 Zn19 2.035 . S
O25 C27 1.258 . S
C26 O20 1.247 . S
C26 O21 1.258 . S
C27 O24 1.247 . S
C27 O25 1.258 . S
C28 O30 1.247 . S
C28 O32 1.258 . S
C29 O36 1.247 . S
C29 O37 1.258 . S
O30 C28 1.247 . S
O30 Zn31 2.028 . S
Zn31 O30 2.028 . S
Zn31 O35 2.035 . S
Zn31 O37 2.035 . S
Zn31 O38 2.028 . S
O32 C28 1.258 . S
O32 Zn33 2.035 . S
Zn33 O32 2.035 . S
Zn33 O34 2.028 . S
Zn33 O36 2.028 . S
Zn33 O39 2.035 . S
O34 Zn33 2.028 . S
O34 C40 1.247 . S
O35 Zn31 2.035 . S
O35 C40 1.258 . S
O36 C29 1.247 . S
O36 Zn33 2.028 . S
O37 C29 1.258 . S
O37 Zn31 2.035 . S
O38 Zn31 2.028 . S
O38 C41 1.247 . S
O39 Zn33 2.035 . S
O39 C41 1.258 . S
C40 O34 1.247 . S
C40 O35 1.258 . S
C41 O38 1.247 . S
C41 O39 1.258 . S
C42 O44 1.247 . S
C42 O46 1.258 . S
C43 O50 1.247 . S
C43 O51 1.258 . S
O44 C42 1.247 . S
O44 Zn45 2.028 . S
Zn45 O44 2.028 . S
Zn45 O49 2.035 . S
Zn45 O51 2.035 . S
Zn45 O52 2.028 . S
O46 C42 1.258 . S
O46 Zn47 2.035 . S
Zn47 O46 2.035 . S
Zn47 O48 2.028 . S
Zn47 O50 2.028 . S
Zn47 O53 2.035 . S
O48 Zn47 2.028 . S
O48 C54 1.247 . S
O49 Zn45 2.035 . S
O49 C54 1.258 . S
O50 C43 1.247 . S
O50 Zn47 2.028 . S
O51 C43 1.258 . S
O51 Zn45 2.035 . S
O52 Zn45 2.028 . S
O52 C55 1.247 . S
O53 Zn47 2.035 . S
O53 C55 1.258 . S
C54 O48 1.247 . S
C54 O49 1.258 . S
C55 O52 1.247 . S
C55 O53 1.258 . S
C56 O58 1.247 . S
C56 O60 1.258 . S
C57 O64 1.247 . S
C57 O65 1.258 . S
O58 C56 1.247 . S
O58 Zn59 2.028 . S
Zn59 O58 2.028 . S
Zn59 O63 2.035 . S
Zn59 O65 2.035 . S
Zn59 O66 2.028 . S
O60 C56 1.258 . S
O60 Zn61 2.035 . S
Zn61 O60 2.035 . S
Zn61 O62 2.028 . S
Zn61 O64 2.028 . S
Zn61 O67 2.035 . S
O62 Zn61 2.028 . S
O62 C68 1.247 . S
O63 Zn59 2.035 . S
O63 C68 1.258 . S
O64 C57 1.247 . S
O64 Zn61 2.028 . S
O65 C57 1.258 . S
O65 Zn59 2.035 . S
O66 Zn59 2.028 . S
O66 C69 1.247 . S
O67 Zn61 2.035 . S
O67 C69 1.258 . S
C68 O62 1.247 . S
C68 O63 1.258 . S
C69 O66 1.247 . S
C69 O67 1.258 . S
C70 O72 1.247 . S
C70 O74 1.258 . S
C71 O78 1.247 . S
C71 O79 1.258 . S
O72 C70 1.247 . S
O72 Zn73 2.028 . S
Zn73 O72 2.028 . S
Zn73 O77 2.035 . S
Zn73 O79 2.035 . S
Zn73 O80 2.028 . S
O74 C70 1.258 . S
O74 Zn75 2.035 . S
Zn75 O74 2.035 . S
Zn75 O76 2.028 . S
Zn75 O78 2.028 . S
Zn75 O81 2.035 . S
O76 Zn75 2.028 . S
O76 C82 1.247 . S
O77 Zn73 2.035 . S
O77 C82 1.258 . S
O78 C71 1.247 . S
O78 Zn75 2.028 . S
O79 C71 1.258 . S
O79 Zn73 2.035 . S
O80 Zn73 2.028 . S
O80 C83 1.247 . S
O81 Zn75 2.035 . S
O81 C83 1.258 . S
C82 O76 1.247 . S
C82 O77 1.258 . S
C83 O80 1.247 . S
C83 O81 1.258 . S
H84 C85 0.951 . S
C85 H84 0.951 . S
C85 C91 1.265 . S
H86 C91 0.950 . S
H87 C95 0.949 . S
H88 C96 0.950 . S
H89 C97 0.951 . S
H90 C98 0.951 . S
C91 C85 1.265 . S
C91 H86 0.950 . S
C91 C92 1.478 . S
C92 C91 1.478 . S
C92 C93 1.397 . S
C92 C109 1.394 . S
C93 C92 1.397 . S
C93 C94 1.438 1_545 S
C93 C98 1.429 . S
C94 C93 1.438 1_565 S
C94 C95 1.428 . S
C94 C107 1.394 . S
C95 H87 0.949 . S
C95 C94 1.428 . S
C95 C96 1.345 . S
C96 H88 0.950 . S
C96 C95 1.345 . S
C96 C97 1.424 1_565 S
C97 H89 0.951 . S
C97 C96 1.424 1_545 S
C97 C98 1.347 . S
C98 H90 0.951 . S
C98 C93 1.429 . S
C98 C97 1.347 . S
H99 C100 0.951 . S
C100 H99 0.951 . S
C100 C106 1.265 . S
H101 C106 0.950 . S
H102 C110 0.949 . S
H103 C111 0.950 . S
H104 C112 0.951 . S
H105 C113 0.951 . S
C106 C100 1.265 . S
C106 H101 0.950 . S
C106 C107 1.478 . S
C107 C94 1.394 . S
C107 C106 1.478 . S
C107 C108 1.397 . S
C108 C107 1.397 . S
C108 C109 1.438 1_565 S
C108 C113 1.429 . S
C109 C92 1.394 . S
C109 C108 1.438 1_545 S
C109 C110 1.428 . S
C110 H102 0.949 . S
C110 C109 1.428 . S
C110 C111 1.345 . S
C111 H103 0.950 . S
C111 C110 1.345 . S
C111 C112 1.424 1_545 S
C112 H104 0.951 . S
C112 C111 1.424 1_565 S
C112 C113 1.347 . S
C113 H105 0.951 . S
C113 C108 1.429 . S
C113 C112 1.347 . S
H114 C115 0.951 . S
C115 H114 0.951 . S
C115 C121 1.265 . S
H116 C121 0.950 . S
H117 C125 0.949 . S
H118 C126 0.950 . S
H119 C127 0.951 . S
H120 C128 0.951 . S
C121 C115 1.265 . S
C121 H116 0.950 . S
C121 C122 1.478 . S
C122 C121 1.478 . S
C122 C123 1.397 . S
C122 C139 1.394 . S
C123 C122 1.397 . S
C123 C124 1.438 . S
C123 C128 1.429 . S
C124 C123 1.438 . S
C124 C125 1.428 . S
C124 C137 1.394 . S
C125 H117 0.949 . S
C125 C124 1.428 . S
C125 C126 1.345 . S
C126 H118 0.950 . S
C126 C125 1.345 . S
C126 C127 1.424 . S
C127 H119 0.951 . S
C127 C126 1.424 . S
C127 C128 1.347 . S
C128 H120 0.951 . S
C128 C123 1.429 . S
C128 C127 1.347 . S
H129 C130 0.951 . S
C130 H129 0.951 . S
C130 C136 1.265 . S
H131 C136 0.950 . S
H132 C140 0.949 . S
H133 C141 0.950 . S
H134 C142 0.951 . S
H135 C143 0.951 . S
C136 C130 1.265 . S
C136 H131 0.950 . S
C136 C137 1.478 . S
C137 C124 1.394 . S
C137 C136 1.478 . S
C137 C138 1.397 . S
C138 C137 1.397 . S
C138 C139 1.438 . S
C138 C143 1.429 . S
C139 C122 1.394 . S
C139 C138 1.438 . S
C139 C140 1.428 . S
C140 H132 0.949 . S
C140 C139 1.428 . S
C140 C141 1.345 . S
C141 H133 0.950 . S
C141 C140 1.345 . S
C141 C142 1.424 . S
C142 H134 0.951 . S
C142 C141 1.424 . S
C142 C143 1.347 . S
C143 H135 0.951 . S
C143 C138 1.429 . S
C143 C142 1.347 . S
H144 C145 0.951 . S
C145 H144 0.951 . S
C145 C151 1.265 . S
H146 C151 0.950 . S
H147 C155 0.949 . S
H148 C156 0.950 . S
H149 C157 0.951 . S
H150 C158 0.951 . S
C151 C145 1.265 . S
C151 H146 0.950 . S
C151 C152 1.478 . S
C152 C151 1.478 . S
C152 C153 1.397 . S
C152 C169 1.394 . S
C153 C152 1.397 . S
C153 C154 1.438 1_655 S
C153 C158 1.429 . S
C154 C153 1.438 1_455 S
C154 C155 1.428 . S
C154 C167 1.394 . S
C155 H147 0.949 . S
C155 C154 1.428 . S
C155 C156 1.345 . S
C156 H148 0.950 . S
C156 C155 1.345 . S
C156 C157 1.424 1_455 S
C157 H149 0.951 . S
C157 C156 1.424 1_655 S
C157 C158 1.347 . S
C158 H150 0.951 . S
C158 C153 1.429 . S
C158 C157 1.347 . S
H159 C160 0.951 . S
C160 H159 0.951 . S
C160 C166 1.265 . S
H161 C166 0.950 . S
H162 C170 0.949 . S
H163 C171 0.950 . S
H164 C172 0.951 . S
H165 C173 0.951 . S
C166 C160 1.265 . S
C166 H161 0.950 . S
C166 C167 1.478 . S
C167 C154 1.394 . S
C167 C166 1.478 . S
C167 C168 1.397 . S
C168 C167 1.397 . S
C168 C169 1.438 1_455 S
C168 C173 1.429 . S
C169 C152 1.394 . S
C169 C168 1.438 1_655 S
C169 C170 1.428 . S
C170 H162 0.949 . S
C170 C169 1.428 . S
C170 C171 1.345 . S
C171 H163 0.950 . S
C171 C170 1.345 . S
C171 C172 1.424 1_655 S
C172 H164 0.951 . S
C172 C171 1.424 1_455 S
C172 C173 1.347 . S
C173 H165 0.951 . S
C173 C168 1.429 . S
C173 C172 1.347 . S
H174 C175 0.951 . S
C175 H174 0.951 . S
C175 C181 1.265 . S
H176 C181 0.950 . S
H177 C185 0.949 . S
H178 C186 0.950 . S
H179 C187 0.951 1_455 S
H180 C188 0.951 . S
C181 C175 1.265 . S
C181 H176 0.950 . S
C181 C182 1.478 . S
C182 C181 1.478 . S
C182 C183 1.397 . S
C182 C199 1.394 . S
C183 C182 1.397 . S
C183 C184 1.438 1_455 S
C183 C188 1.429 . S
C184 C183 1.438 1_655 S
C184 C185 1.428 . S
C184 C197 1.394 . S
C185 H177 0.949 . S
C185 C184 1.428 . S
C185 C186 1.345 . S
C186 H178 0.950 . S
C186 C185 1.345 . S
C186 C187 1.424 . S
C187 H179 0.951 1_655 S
C187 C186 1.424 . S
C187 C188 1.347 1_655 S
C188 H180 0.951 . S
C188 C183 1.429 . S
C188 C187 1.347 1_455 S
H189 C190 0.951 . S
C190 H189 0.951 . S
C190 C196 1.265 . S
H191 C196 0.950 . S
H192 C200 0.949 . S
H193 C201 0.950 . S
H194 C202 0.951 1_655 S
H195 C203 0.951 . S
C196 C190 1.265 . S
C196 H191 0.950 . S
C196 C197 1.478 . S
C197 C184 1.394 . S
C197 C196 1.478 . S
C197 C198 1.397 . S
C198 C197 1.397 . S
C198 C199 1.438 1_655 S
C198 C203 1.429 . S
C199 C182 1.394 . S
C199 C198 1.438 1_455 S
C199 C200 1.428 . S
C200 H192 0.949 . S
C200 C199 1.428 . S
C200 C201 1.345 . S
C201 H193 0.950 . S
C201 C200 1.345 . S
C201 C202 1.424 . S
C202 H194 0.951 1_455 S
C202 C201 1.424 . S
C202 C203 1.347 1_455 S
C203 H195 0.951 . S
C203 C198 1.429 . S
C203 C202 1.347 1_655 S
H204 C205 0.951 . S
C205 H204 0.951 . S
C205 C211 1.265 . S
H206 C211 0.950 . S
H207 C215 0.949 . S
H208 C216 0.950 . S
H209 C217 0.951 . S
H210 C218 0.951 . S
C211 C205 1.265 . S
C211 H206 0.950 . S
C211 C212 1.478 . S
C212 C211 1.478 . S
C212 C213 1.397 . S
C212 C229 1.394 . S
C213 C212 1.397 . S
C213 C214 1.438 1_565 S
C213 C218 1.429 . S
C214 C213 1.438 1_545 S
C214 C215 1.428 . S
C214 C227 1.394 . S
C215 H207 0.949 . S
C215 C214 1.428 . S
C215 C216 1.345 . S
C216 H208 0.950 . S
C216 C215 1.345 . S
C216 C217 1.424 1_545 S
C217 H209 0.951 . S
C217 C216 1.424 1_565 S
C217 C218 1.347 . S
C218 H210 0.951 . S
C218 C213 1.429 . S
C218 C217 1.347 . S
H219 C220 0.951 . S
C220 H219 0.951 . S
C220 C226 1.265 . S
H221 C226 0.950 . S
H222 C230 0.949 . S
H223 C231 0.950 . S
H224 C232 0.951 . S
H225 C233 0.951 . S
C226 C220 1.265 . S
C226 H221 0.950 . S
C226 C227 1.478 . S
C227 C214 1.394 . S
C227 C226 1.478 . S
C227 C228 1.397 . S
C228 C227 1.397 . S
C228 C229 1.438 1_545 S
C228 C233 1.429 . S
C229 C212 1.394 . S
C229 C228 1.438 1_565 S
C229 C230 1.428 . S
C230 H222 0.949 . S
C230 C229 1.428 . S
C230 C231 1.345 . S
C231 H223 0.950 . S
C231 C230 1.345 . S
C231 C232 1.424 1_565 S
C232 H224 0.951 . S
C232 C231 1.424 1_545 S
C232 C233 1.347 . S
C233 H225 0.951 . S
C233 C228 1.429 . S
C233 C232 1.347 . S
H234 C235 0.951 . S
C235 H234 0.951 . S
C235 C241 1.265 . S
H236 C241 0.950 . S
H237 C245 0.949 . S
H238 C246 0.950 . S
H239 C247 0.951 . S
H240 C248 0.951 . S
C241 C235 1.265 . S
C241 H236 0.950 . S
C241 C242 1.478 . S
C242 C241 1.478 . S
C242 C243 1.397 . S
C242 C259 1.394 . S
C243 C242 1.397 . S
C243 C244 1.438 . S
C243 C248 1.429 . S
C244 C243 1.438 . S
C244 C245 1.428 . S
C244 C257 1.394 . S
C245 H237 0.949 . S
C245 C244 1.428 . S
C245 C246 1.345 . S
C246 H238 0.950 . S
C246 C245 1.345 . S
C246 C247 1.424 . S
C247 H239 0.951 . S
C247 C246 1.424 . S
C247 C248 1.347 . S
C248 H240 0.951 . S
C248 C243 1.429 . S
C248 C247 1.347 . S
H249 C250 0.951 . S
C250 H249 0.951 . S
C250 C256 1.265 . S
H251 C256 0.950 . S
H252 C260 0.949 . S
H253 C261 0.950 . S
H254 C262 0.951 . S
H255 C263 0.951 . S
C256 C250 1.265 . S
C256 H251 0.950 . S
C256 C257 1.478 . S
C257 C244 1.394 . S
C257 C256 1.478 . S
C257 C258 1.397 . S
C258 C257 1.397 . S
C258 C259 1.438 . S
C258 C263 1.429 . S
C259 C242 1.394 . S
C259 C258 1.438 . S
C259 C260 1.428 . S
C260 H252 0.949 . S
C260 C259 1.428 . S
C260 C261 1.345 . S
C261 H253 0.950 . S
C261 C260 1.345 . S
C261 C262 1.424 . S
C262 H254 0.951 . S
C262 C261 1.424 . S
C262 C263 1.347 . S
C263 H255 0.951 . S
C263 C258 1.429 . S
C263 C262 1.347 . S
H264 C265 0.951 . S
C265 H264 0.951 . S
C265 C271 1.265 . S
H266 C271 0.950 . S
H267 C275 0.949 . S
H268 C276 0.950 . S
H269 C277 0.951 . S
H270 C278 0.951 . S
C271 C265 1.265 . S
C271 H266 0.950 . S
C271 C272 1.478 . S
C272 C271 1.478 . S
C272 C273 1.397 . S
C272 C289 1.394 . S
C273 C272 1.397 . S
C273 C274 1.438 1_556 S
C273 C278 1.429 . S
C274 C273 1.438 1_554 S
C274 C275 1.428 . S
C274 C287 1.394 . S
C275 H267 0.949 . S
C275 C274 1.428 . S
C275 C276 1.345 . S
C276 H268 0.950 . S
C276 C275 1.345 . S
C276 C277 1.424 1_554 S
C277 H269 0.951 . S
C277 C276 1.424 1_556 S
C277 C278 1.347 . S
C278 H270 0.951 . S
C278 C273 1.429 . S
C278 C277 1.347 . S
H279 C280 0.951 . S
C280 H279 0.951 . S
C280 C286 1.265 . S
H281 C286 0.950 . S
H282 C290 0.949 . S
H283 C291 0.950 . S
H284 C292 0.951 . S
H285 C293 0.951 . S
C286 C280 1.265 . S
C286 H281 0.950 . S
C286 C287 1.478 . S
C287 C274 1.394 . S
C287 C286 1.478 . S
C287 C288 1.397 . S
C288 C287 1.397 . S
C288 C289 1.438 1_554 S
C288 C293 1.429 . S
C289 C272 1.394 . S
C289 C288 1.438 1_556 S
C289 C290 1.428 . S
C290 H282 0.949 . S
C290 C289 1.428 . S
C290 C291 1.345 . S
C291 H283 0.950 . S
C291 C290 1.345 . S
C291 C292 1.424 1_556 S
C292 H284 0.951 . S
C292 C291 1.424 1_554 S
C292 C293 1.347 . S
C293 H285 0.951 . S
C293 C288 1.429 . S
C293 C292 1.347 . S
H294 C295 0.951 . S
C295 H294 0.951 . S
C295 C301 1.265 . S
H296 C301 0.950 . S
H297 C305 0.949 . S
H298 C306 0.950 . S
H299 C307 0.951 . S
H300 C308 0.951 . S
C301 C295 1.265 . S
C301 H296 0.950 . S
C301 C302 1.478 . S
C302 C301 1.478 . S
C302 C303 1.397 . S
C302 C319 1.394 . S
C303 C302 1.397 . S
C303 C304 1.438 . S
C303 C308 1.429 . S
C304 C303 1.438 . S
C304 C305 1.428 . S
C304 C317 1.394 . S
C305 H297 0.949 . S
C305 C304 1.428 . S
C305 C306 1.345 . S
C306 H298 0.950 . S
C306 C305 1.345 . S
C306 C307 1.424 . S
C307 H299 0.951 . S
C307 C306 1.424 . S
C307 C308 1.347 . S
C308 H300 0.951 . S
C308 C303 1.429 . S
C308 C307 1.347 . S
H309 C310 0.951 . S
C310 H309 0.951 . S
C310 C316 1.265 . S
H311 C316 0.950 . S
H312 C320 0.949 . S
H313 C321 0.950 . S
H314 C322 0.951 . S
H315 C323 0.951 . S
C316 C310 1.265 . S
C316 H311 0.950 . S
C316 C317 1.478 . S
C317 C304 1.394 . S
C317 C316 1.478 . S
C317 C318 1.397 . S
C318 C317 1.397 . S
C318 C319 1.438 . S
C318 C323 1.429 . S
C319 C302 1.394 . S
C319 C318 1.438 . S
C319 C320 1.428 . S
C320 H312 0.949 . S
C320 C319 1.428 . S
C320 C321 1.345 . S
C321 H313 0.950 . S
C321 C320 1.345 . S
C321 C322 1.424 . S
C322 H314 0.951 . S
C322 C321 1.424 . S
C322 C323 1.347 . S
C323 H315 0.951 . S
C323 C318 1.429 . S
C323 C322 1.347 . S
H324 C325 0.951 . S
C325 H324 0.951 . S
C325 C331 1.265 . S
H326 C331 0.950 . S
H327 C335 0.949 . S
H328 C336 0.950 . S
H329 C337 0.951 . S
H330 C338 0.951 . S
C331 C325 1.265 . S
C331 H326 0.950 . S
C331 C332 1.478 . S
C332 C331 1.478 . S
C332 C333 1.397 . S
C332 C349 1.394 . S
C333 C332 1.397 . S
C333 C334 1.438 . S
C333 C338 1.429 . S
C334 C333 1.438 . S
C334 C335 1.428 . S
C334 C347 1.394 . S
C335 H327 0.949 . S
C335 C334 1.428 . S
C335 C336 1.345 . S
C336 H328 0.950 . S
C336 C335 1.345 . S
C336 C337 1.424 . S
C337 H329 0.951 . S
C337 C336 1.424 . S
C337 C338 1.347 . S
C338 H330 0.951 . S
C338 C333 1.429 . S
C338 C337 1.347 . S
H339 C340 0.951 . S
C340 H339 0.951 . S
C340 C346 1.265 . S
H341 C346 0.950 . S
H342 C350 0.949 . S
H343 C351 0.950 . S
H344 C352 0.951 . S
H345 C353 0.951 . S
C346 C340 1.265 . S
C346 H341 0.950 . S
C346 C347 1.478 . S
C347 C334 1.394 . S
C347 C346 1.478 . S
C347 C348 1.397 . S
C348 C347 1.397 . S
C348 C349 1.438 . S
C348 C353 1.429 . S
C349 C332 1.394 . S
C349 C348 1.438 . S
C349 C350 1.428 . S
C350 H342 0.949 . S
C350 C349 1.428 . S
C350 C351 1.345 . S
C351 H343 0.950 . S
C351 C350 1.345 . S
C351 C352 1.424 . S
C352 H344 0.951 . S
C352 C351 1.424 . S
C352 C353 1.347 . S
C353 H345 0.951 . S
C353 C348 1.429 . S
C353 C352 1.347 . S
H354 C355 0.951 . S
C355 H354 0.951 . S
C355 C361 1.265 . S
H356 C361 0.950 . S
H357 C365 0.949 . S
H358 C366 0.950 . S
H359 C367 0.951 . S
H360 C368 0.951 . S
C361 C355 1.265 . S
C361 H356 0.950 . S
C361 C362 1.478 . S
C362 C361 1.478 . S
C362 C363 1.397 . S
C362 C379 1.394 . S
C363 C362 1.397 . S
C363 C364 1.438 1_556 S
C363 C368 1.429 . S
C364 C363 1.438 1_554 S
C364 C365 1.428 . S
C364 C377 1.394 . S
C365 H357 0.949 . S
C365 C364 1.428 . S
C365 C366 1.345 . S
C366 H358 0.950 . S
C366 C365 1.345 . S
C366 C367 1.424 . S
C367 H359 0.951 . S
C367 C366 1.424 . S
C367 C368 1.347 1_554 S
C368 H360 0.951 . S
C368 C363 1.429 . S
C368 C367 1.347 1_556 S
H369 C370 0.951 . S
C370 H369 0.951 . S
C370 C376 1.265 . S
H371 C376 0.950 . S
H372 C380 0.949 . S
H373 C381 0.950 . S
H374 C382 0.951 . S
H375 C383 0.951 . S
C376 C370 1.265 . S
C376 H371 0.950 . S
C376 C377 1.478 . S
C377 C364 1.394 . S
C377 C376 1.478 . S
C377 C378 1.397 . S
C378 C377 1.397 . S
C378 C379 1.438 1_554 S
C378 C383 1.429 . S
C379 C362 1.394 . S
C379 C378 1.438 1_556 S
C379 C380 1.428 . S
C380 H372 0.949 . S
C380 C379 1.428 . S
C380 C381 1.345 . S
C381 H373 0.950 . S
C381 C380 1.345 . S
C381 C382 1.424 . S
C382 H374 0.951 . S
C382 C381 1.424 . S
C382 C383 1.347 1_556 S
C383 H375 0.951 . S
C383 C378 1.429 . S
C383 C382 1.347 1_554 S
H384 C385 0.951 . S
C385 H384 0.951 . S
C385 C391 1.265 . S
H386 C391 0.950 . S
H387 C395 0.949 . S
H388 C396 0.950 . S
H389 C397 0.951 . S
H390 C398 0.951 . S
C391 C385 1.265 . S
C391 H386 0.950 . S
C391 C392 1.478 . S
C392 C391 1.478 . S
C392 C393 1.397 . S
C392 C409 1.394 . S
C393 C392 1.397 . S
C393 C394 1.438 . S
C393 C398 1.429 . S
C394 C393 1.438 . S
C394 C395 1.428 . S
C394 C407 1.394 . S
C395 H387 0.949 . S
C395 C394 1.428 . S
C395 C396 1.345 . S
C396 H388 0.950 . S
C396 C395 1.345 . S
C396 C397 1.424 . S
C397 H389 0.951 . S
C397 C396 1.424 . S
C397 C398 1.347 . S
C398 H390 0.951 . S
C398 C393 1.429 . S
C398 C397 1.347 . S
H399 C400 0.951 . S
C400 H399 0.951 . S
C400 C406 1.265 . S
H401 C406 0.950 . S
H402 C410 0.949 . S
H403 C411 0.950 . S
H404 C412 0.951 . S
H405 C413 0.951 . S
C406 C400 1.265 . S
C406 H401 0.950 . S
C406 C407 1.478 . S
C407 C394 1.394 . S
C407 C406 1.478 . S
C407 C408 1.397 . S
C408 C407 1.397 . S
C408 C409 1.438 . S
C408 C413 1.429 . S
C409 C392 1.394 . S
C409 C408 1.438 . S
C409 C410 1.428 . S
C410 H402 0.949 . S
C410 C409 1.428 . S
C410 C411 1.345 . S
C411 H403 0.950 . S
C411 C410 1.345 . S
C411 C412 1.424 . S
C412 H404 0.951 . S
C412 C411 1.424 . S
C412 C413 1.347 . S
C413 H405 0.951 . S
C413 C408 1.429 . S
C413 C412 1.347 . S
H414 C415 0.951 . S
C415 H414 0.951 . S
C415 C421 1.265 . S
H416 C421 0.950 . S
H417 C425 0.949 . S
H418 C426 0.950 . S
H419 C427 0.951 . S
H420 C428 0.951 . S
C421 C415 1.265 . S
C421 H416 0.950 . S
C421 C422 1.478 . S
C422 C421 1.478 . S
C422 C423 1.397 . S
C422 C439 1.394 . S
C423 C422 1.397 . S
C423 C424 1.438 . S
C423 C428 1.429 . S
C424 C423 1.438 . S
C424 C425 1.428 . S
C424 C437 1.394 . S
C425 H417 0.949 . S
C425 C424 1.428 . S
C425 C426 1.345 . S
C426 H418 0.950 . S
C426 C425 1.345 . S
C426 C427 1.424 . S
C427 H419 0.951 . S
C427 C426 1.424 . S
C427 C428 1.347 . S
C428 H420 0.951 . S
C428 C423 1.429 . S
C428 C427 1.347 . S
H429 C430 0.951 . S
C430 H429 0.951 . S
C430 C436 1.265 . S
H431 C436 0.950 . S
H432 C440 0.949 . S
H433 C441 0.950 . S
H434 C442 0.951 . S
H435 C443 0.951 . S
C436 C430 1.265 . S
C436 H431 0.950 . S
C436 C437 1.478 . S
C437 C424 1.394 . S
C437 C436 1.478 . S
C437 C438 1.397 . S
C438 C437 1.397 . S
C438 C439 1.438 . S
C438 C443 1.429 . S
C439 C422 1.394 . S
C439 C438 1.438 . S
C439 C440 1.428 . S
C440 H432 0.949 . S
C440 C439 1.428 . S
C440 C441 1.345 . S
C441 H433 0.950 . S
C441 C440 1.345 . S
C441 C442 1.424 . S
C442 H434 0.951 . S
C442 C441 1.424 . S
C442 C443 1.347 . S
C443 H435 0.951 . S
C443 C438 1.429 . S
C443 C442 1.347 . S
C85 C1 1.726 . S
C100 C54 1.726 . S
C115 C26 1.726 . S
C130 C56 1.726 . S
C145 C40 1.715 . S
C160 C71 1.724 . S
C175 C27 1.727 . S
C190 C57 1.723 . S
C205 C70 1.665 . S
C220 C41 1.668 . S
C235 C55 1.669 . S
C250 C0 1.665 . S
C265 C28 1.794 . S
C280 C12 1.798 . S
C295 C42 1.748 . S
C310 C15 1.775 . S
C325 C29 1.779 . S
C340 C68 1.750 . S
C355 C83 1.753 . S
C370 C43 1.752 . S
C385 C69 1.801 . S
C400 C13 1.791 . S
C415 C82 1.781 . S
C430 C14 1.752 . S
