# Generated by pormake.
# Topology ukb, (4)-cn, num edge types: 1
# Building blocks:
#     Node 0, Type 0, BuildingBlock: CEKHIL_clean_sbu_0, # of connection points: 4
#     Node 1, Type 0, BuildingBlock: CEKHIL_clean_sbu_0, # of connection points: 4
#     Node 2, Type 0, BuildingBlock: CEKHIL_clean_sbu_0, # of connection points: 4
#     Node 3, Type 0, BuildingBlock: CEKHIL_clean_sbu_0, # of connection points: 4
#     Node 4, Type 0, BuildingBlock: CEKHIL_clean_sbu_0, # of connection points: 4
#     Node 5, Type 0, BuildingBlock: CEKHIL_clean_sbu_0, # of connection points: 4
#     Node 6, Type 0, BuildingBlock: CEKHIL_clean_sbu_0, # of connection points: 4
#     Node 7, Type 0, BuildingBlock: CEKHIL_clean_sbu_0, # of connection points: 4
#     Node 8, Type 0, BuildingBlock: CEKHIL_clean_sbu_0, # of connection points: 4
#     Node 9, Type 0, BuildingBlock: CEKHIL_clean_sbu_0, # of connection points: 4
#     Node 10, Type 0, BuildingBlock: CEKHIL_clean_sbu_0, # of connection points: 4
#     Node 11, Type 0, BuildingBlock: CEKHIL_clean_sbu_0, # of connection points: 4
#     Node 12, Type 0, BuildingBlock: CEKHIL_clean_sbu_0, # of connection points: 4
#     Node 13, Type 0, BuildingBlock: CEKHIL_clean_sbu_0, # of connection points: 4
#     Node 14, Type 0, BuildingBlock: CEKHIL_clean_sbu_0, # of connection points: 4
#     Node 15, Type 0, BuildingBlock: CEKHIL_clean_sbu_0, # of connection points: 4
#     Edge 16, Type (0, 0), BuildingBlock: MIFKUJ_clean_linker_0, # of connection points: 2
#     Edge 17, Type (0, 0), BuildingBlock: MIFKUJ_clean_linker_0, # of connection points: 2
#     Edge 18, Type (0, 0), BuildingBlock: MIFKUJ_clean_linker_0, # of connection points: 2
#     Edge 19, Type (0, 0), BuildingBlock: MIFKUJ_clean_linker_0, # of connection points: 2
#     Edge 20, Type (0, 0), BuildingBlock: MIFKUJ_clean_linker_0, # of connection points: 2
#     Edge 21, Type (0, 0), BuildingBlock: MIFKUJ_clean_linker_0, # of connection points: 2
#     Edge 22, Type (0, 0), BuildingBlock: MIFKUJ_clean_linker_0, # of connection points: 2
#     Edge 23, Type (0, 0), BuildingBlock: MIFKUJ_clean_linker_0, # of connection points: 2
#     Edge 24, Type (0, 0), BuildingBlock: MIFKUJ_clean_linker_0, # of connection points: 2
#     Edge 25, Type (0, 0), BuildingBlock: MIFKUJ_clean_linker_0, # of connection points: 2
#     Edge 26, Type (0, 0), BuildingBlock: MIFKUJ_clean_linker_0, # of connection points: 2
#     Edge 27, Type (0, 0), BuildingBlock: MIFKUJ_clean_linker_0, # of connection points: 2
#     Edge 28, Type (0, 0), BuildingBlock: MIFKUJ_clean_linker_0, # of connection points: 2
#     Edge 29, Type (0, 0), BuildingBlock: MIFKUJ_clean_linker_0, # of connection points: 2
#     Edge 30, Type (0, 0), BuildingBlock: MIFKUJ_clean_linker_0, # of connection points: 2
#     Edge 31, Type (0, 0), BuildingBlock: MIFKUJ_clean_linker_0, # of connection points: 2
#     Edge 32, Type (0, 0), BuildingBlock: MIFKUJ_clean_linker_0, # of connection points: 2
#     Edge 33, Type (0, 0), BuildingBlock: MIFKUJ_clean_linker_0, # of connection points: 2
#     Edge 34, Type (0, 0), BuildingBlock: MIFKUJ_clean_linker_0, # of connection points: 2
#     Edge 35, Type (0, 0), BuildingBlock: MIFKUJ_clean_linker_0, # of connection points: 2
#     Edge 36, Type (0, 0), BuildingBlock: MIFKUJ_clean_linker_0, # of connection points: 2
#     Edge 37, Type (0, 0), BuildingBlock: MIFKUJ_clean_linker_0, # of connection points: 2
#     Edge 38, Type (0, 0), BuildingBlock: MIFKUJ_clean_linker_0, # of connection points: 2
#     Edge 39, Type (0, 0), BuildingBlock: MIFKUJ_clean_linker_0, # of connection points: 2
#     Edge 40, Type (0, 0), BuildingBlock: MIFKUJ_clean_linker_0, # of connection points: 2
#     Edge 41, Type (0, 0), BuildingBlock: MIFKUJ_clean_linker_0, # of connection points: 2
#     Edge 42, Type (0, 0), BuildingBlock: MIFKUJ_clean_linker_0, # of connection points: 2
#     Edge 43, Type (0, 0), BuildingBlock: MIFKUJ_clean_linker_0, # of connection points: 2
#     Edge 44, Type (0, 0), BuildingBlock: MIFKUJ_clean_linker_0, # of connection points: 2
#     Edge 45, Type (0, 0), BuildingBlock: MIFKUJ_clean_linker_0, # of connection points: 2
#     Edge 46, Type (0, 0), BuildingBlock: MIFKUJ_clean_linker_0, # of connection points: 2
#     Edge 47, Type (0, 0), BuildingBlock: MIFKUJ_clean_linker_0, # of connection points: 2
# Relax obj value: 0.092
# Max RMSD: 0.049
# Mean RMSD: 0.049
data_MOF--net-ukb--node1-CEKHIL_clean_sbu_0--edge1-MIFKUJ_clean_linker_0
_symmetry_space_group_name_H-M    P1
_symmetry_Int_Tables_number       1
_symmetry_cell_setting            triclinic
loop_
_symmetry_equiv_pos_as_xyz
'x, y, z'
_cell_length_a     56.509445
_cell_length_b     56.505626
_cell_length_c     48.757075
_cell_angle_alpha  89.993077
_cell_angle_beta   89.997375
_cell_angle_gamma 90.005556
loop_
_atom_site_label
_atom_site_type_symbol
_atom_site_fract_x
_atom_site_fract_y
_atom_site_fract_z
_atom_type_partial_charge
Co0 Co 0.53289 0.18565 0.17196 0.0
O1 O 0.51444 0.15737 0.16855 0.0
O2 O 0.51526 0.18037 0.20538 0.0
C3 C 0.52312 0.20078 0.13094 0.0
O4 O 0.549 0.21675 0.18208 0.0
Co5 Co 0.57459 0.19478 0.13176 0.0
O6 O 0.57438 0.22675 0.14844 0.0
C7 C 0.58035 0.16018 0.17648 0.0
C8 C 0.50676 0.16176 0.19309 0.0
C9 C 0.56349 0.23139 0.1707 0.0
O10 O 0.5604 0.16674 0.18672 0.0
O11 O 0.58817 0.16785 0.1535 0.0
O12 O 0.50895 0.20331 0.1517 0.0
O13 O 0.5413 0.18738 0.13498 0.0
Co14 Co 0.31572 0.52939 0.6742 0.0
O15 O 0.34205 0.50815 0.67219 0.0
O16 O 0.31834 0.51192 0.70821 0.0
C17 C 0.30159 0.52043 0.63244 0.0
O18 O 0.28606 0.5485 0.68295 0.0
Co19 Co 0.31087 0.57103 0.63306 0.0
O20 O 0.2786 0.57406 0.64869 0.0
C21 C 0.34548 0.57408 0.67827 0.0
C22 C 0.33634 0.50148 0.69675 0.0
C23 C 0.27278 0.56392 0.67105 0.0
O24 O 0.33684 0.55516 0.68909 0.0
O25 O 0.33885 0.58205 0.65492 0.0
O26 O 0.29636 0.50709 0.6533 0.0
O27 O 0.31624 0.53743 0.63717 0.0
Co28 Co 0.96523 0.32015 0.17354 0.0
O29 O 0.98306 0.34888 0.17087 0.0
O30 O 0.98399 0.32429 0.20631 0.0
C31 C 0.97395 0.30708 0.1313 0.0
O32 O 0.95019 0.28847 0.18281 0.0
Co33 Co 0.92267 0.31074 0.13487 0.0
O34 O 0.92512 0.27788 0.14921 0.0
C35 C 0.91754 0.34406 0.18107 0.0
C36 C 0.99185 0.34346 0.19463 0.0
C37 C 0.93654 0.27327 0.17112 0.0
O38 O 0.93781 0.33765 0.19053 0.0
O39 O 0.90937 0.33707 0.15794 0.0
O40 O 0.9887 0.30371 0.15134 0.0
O41 O 0.95561 0.31984 0.13687 0.0
Co42 Co 0.18781 0.96995 0.67435 0.0
O43 O 0.15983 0.98879 0.6705 0.0
O44 O 0.18195 0.98717 0.70802 0.0
C45 C 0.20331 0.9803 0.63364 0.0
O46 O 0.21862 0.95348 0.68501 0.0
Co47 Co 0.19788 0.92897 0.63348 0.0
O48 O 0.22951 0.92884 0.65103 0.0
C49 C 0.16137 0.9231 0.67616 0.0
C50 C 0.16379 0.99611 0.69527 0.0
C51 C 0.2336 0.93929 0.67372 0.0
O52 O 0.16832 0.94232 0.68786 0.0
O53 O 0.16947 0.916 0.65305 0.0
O54 O 0.20602 0.99405 0.65477 0.0
O55 O 0.18997 0.96206 0.63735 0.0
Co56 Co 0.53241 0.3136 0.82239 0.0
O57 O 0.51765 0.34386 0.82751 0.0
O58 O 0.5135 0.32135 0.79061 0.0
C59 C 0.52321 0.29972 0.86423 0.0
O60 O 0.54395 0.28095 0.81046 0.0
Co61 Co 0.5743 0.29724 0.85898 0.0
O62 O 0.56608 0.26555 0.84436 0.0
C63 C 0.58257 0.33194 0.81445 0.0
C64 C 0.50784 0.34057 0.80376 0.0
C65 C 0.55478 0.26348 0.82188 0.0
O66 O 0.56117 0.32927 0.80587 0.0
O67 O 0.59056 0.32193 0.83614 0.0
O68 O 0.50772 0.29878 0.84458 0.0
O69 O 0.54277 0.31043 0.85854 0.0
Co70 Co 0.18814 0.52803 0.32213 0.0
O71 O 0.16138 0.50746 0.32483 0.0
O72 O 0.18488 0.51019 0.28844 0.0
C73 C 0.20209 0.51888 0.36386 0.0
O74 O 0.21815 0.54627 0.31272 0.0
Co75 Co 0.19516 0.56976 0.36243 0.0
O76 O 0.22814 0.56944 0.34832 0.0
C77 C 0.16046 0.57395 0.31719 0.0
C78 C 0.16691 0.50018 0.30047 0.0
C79 C 0.23287 0.55986 0.32532 0.0
O80 O 0.16767 0.55419 0.30705 0.0
O81 O 0.168 0.58223 0.34005 0.0
O82 O 0.20701 0.50541 0.34303 0.0
O83 O 0.18805 0.53641 0.35912 0.0
Co84 Co 0.96765 0.18236 0.8256 0.0
O85 O 0.98502 0.15339 0.82813 0.0
O86 O 0.98735 0.17854 0.79337 0.0
C87 C 0.97508 0.19452 0.86856 0.0
O88 O 0.95304 0.21446 0.81692 0.0
Co89 Co 0.92379 0.18989 0.86307 0.0
O90 O 0.92462 0.22252 0.84797 0.0
C91 C 0.92076 0.15739 0.81615 0.0
C92 C 0.99435 0.15887 0.80469 0.0
C93 C 0.93755 0.22841 0.82764 0.0
O94 O 0.94065 0.16527 0.80708 0.0
O95 O 0.91223 0.1631 0.83956 0.0
O96 O 0.99053 0.19821 0.84929 0.0
O97 O 0.95702 0.18182 0.86182 0.0
Co98 Co 0.31385 0.97334 0.32653 0.0
O99 O 0.34117 0.99295 0.33113 0.0
O100 O 0.32004 0.99045 0.29288 0.0
C101 C 0.29679 0.98342 0.36643 0.0
O102 O 0.28382 0.95583 0.31512 0.0
Co103 Co 0.30473 0.9322 0.3676 0.0
O104 O 0.27405 0.92971 0.34817 0.0
C105 C 0.34136 0.92693 0.32507 0.0
C106 C 0.33767 0.99992 0.30613 0.0
C107 C 0.26976 0.94033 0.32563 0.0
O108 O 0.33436 0.94627 0.31371 0.0
O109 O 0.33318 0.91945 0.34798 0.0
O110 O 0.29447 0.99703 0.34513 0.0
O111 O 0.31092 0.96565 0.36356 0.0
Co112 Co 0.47194 0.81083 0.82454 0.0
O113 O 0.48772 0.84065 0.82899 0.0
O114 O 0.48994 0.81809 0.79188 0.0
C115 C 0.48205 0.79677 0.86601 0.0
O116 O 0.45924 0.77842 0.8132 0.0
Co117 Co 0.43076 0.79551 0.86272 0.0
O118 O 0.43834 0.76358 0.84844 0.0
C119 C 0.42181 0.82985 0.81808 0.0
C120 C 0.49655 0.83714 0.80477 0.0
C121 C 0.44876 0.76114 0.82545 0.0
O122 O 0.44313 0.82734 0.80921 0.0
O123 O 0.41394 0.81964 0.83969 0.0
O124 O 0.49689 0.79538 0.84573 0.0
O125 O 0.4626 0.80797 0.86109 0.0
Co126 Co 0.68109 0.47169 0.32711 0.0
O127 O 0.65312 0.49079 0.32559 0.0
O128 O 0.67948 0.4874 0.29194 0.0
C129 C 0.69271 0.48366 0.36886 0.0
O130 O 0.71231 0.45429 0.3217 0.0
Co131 Co 0.6865 0.43261 0.37143 0.0
O132 O 0.71916 0.42947 0.35689 0.0
C133 C 0.65439 0.4251 0.32449 0.0
C134 C 0.65998 0.49668 0.30115 0.0
C135 C 0.72551 0.43943 0.33462 0.0
O136 O 0.66262 0.44377 0.31272 0.0
O137 O 0.66011 0.41896 0.34889 0.0
O138 O 0.69783 0.49629 0.34741 0.0
O139 O 0.67927 0.46556 0.36467 0.0
Co140 Co 0.03123 0.68757 0.82626 0.0
O141 O 0.01672 0.65712 0.83077 0.0
O142 O 0.01365 0.67946 0.79357 0.0
C143 C 0.02031 0.70125 0.86765 0.0
O144 O 0.04267 0.72037 0.81473 0.0
Co145 Co 0.07137 0.70498 0.86477 0.0
O146 O 0.06389 0.7364 0.84897 0.0
C147 C 0.08227 0.67127 0.81995 0.0
C148 C 0.00777 0.6602 0.80653 0.0
C149 C 0.05327 0.73807 0.82601 0.0
O150 O 0.06082 0.67242 0.81113 0.0
O151 O 0.08949 0.68189 0.84161 0.0
O152 O 0.00558 0.70206 0.84722 0.0
O153 O 0.04025 0.69091 0.86289 0.0
Co154 Co 0.81729 0.02952 0.32003 0.0
O155 O 0.8463 0.01215 0.32147 0.0
O156 O 0.82161 0.01233 0.28609 0.0
C157 C 0.80496 0.01841 0.36181 0.0
O158 O 0.78544 0.0447 0.3117 0.0
Co159 Co 0.80694 0.06972 0.36158 0.0
O160 O 0.77403 0.06712 0.34743 0.0
C161 C 0.841 0.07742 0.31639 0.0
C162 C 0.84106 0.0045 0.29715 0.0
C163 C 0.76989 0.05716 0.32447 0.0
O164 O 0.83457 0.05788 0.30507 0.0
O165 O 0.83366 0.08415 0.34 0.0
O166 O 0.80121 0.00477 0.34083 0.0
O167 O 0.81718 0.0373 0.35724 0.0
Co168 Co 0.47212 0.69197 0.17697 0.0
O169 O 0.48795 0.66205 0.1743 0.0
O170 O 0.48965 0.68608 0.21026 0.0
C171 C 0.48286 0.70516 0.13533 0.0
O172 O 0.45883 0.72445 0.18661 0.0
Co173 Co 0.43137 0.70519 0.13708 0.0
O174 O 0.43627 0.73758 0.15179 0.0
C175 C 0.4229 0.67081 0.18179 0.0
C176 C 0.49629 0.66647 0.19856 0.0
C177 C 0.44695 0.74086 0.1745 0.0
O178 O 0.44319 0.67579 0.19233 0.0
O179 O 0.41586 0.67921 0.15878 0.0
O180 O 0.49735 0.70701 0.15589 0.0
O181 O 0.46349 0.69374 0.14005 0.0
Co182 Co 0.81972 0.46766 0.6719 0.0
O183 O 0.8473 0.48724 0.66945 0.0
O184 O 0.82372 0.48515 0.70572 0.0
C185 C 0.80542 0.47728 0.63035 0.0
O186 O 0.78899 0.45041 0.68111 0.0
Co187 Co 0.81234 0.42625 0.63071 0.0
O188 O 0.78086 0.42352 0.64829 0.0
C189 C 0.84617 0.42081 0.67643 0.0
C190 C 0.84221 0.49446 0.69399 0.0
C191 C 0.77548 0.43469 0.67011 0.0
O192 O 0.83938 0.44065 0.68679 0.0
O193 O 0.83889 0.41309 0.65323 0.0
O194 O 0.80148 0.49101 0.65123 0.0
O195 O 0.81926 0.45955 0.6348 0.0
Co196 Co 0.03162 0.8112 0.1755 0.0
O197 O 0.01565 0.84105 0.17369 0.0
O198 O 0.01458 0.81658 0.20928 0.0
C199 C 0.0199 0.79898 0.13388 0.0
O200 O 0.04504 0.77859 0.18434 0.0
Co201 Co 0.07128 0.79796 0.13454 0.0
O202 O 0.06551 0.76531 0.14798 0.0
C203 C 0.08127 0.83144 0.17983 0.0
C204 C 0.00761 0.83624 0.19798 0.0
C205 C 0.05573 0.76196 0.17119 0.0
O206 O 0.06073 0.82738 0.19024 0.0
O207 O 0.08818 0.82255 0.15701 0.0
O208 O 0.0061 0.7963 0.15495 0.0
O209 O 0.03946 0.8102 0.13827 0.0
Co210 Co 0.68314 0.02999 0.66783 0.0
O211 O 0.65559 0.01034 0.6653 0.0
O212 O 0.67925 0.01229 0.70151 0.0
C213 C 0.69733 0.0207 0.62617 0.0
O214 O 0.7138 0.04726 0.67719 0.0
Co215 Co 0.69069 0.0717 0.62731 0.0
O216 O 0.72322 0.07182 0.64261 0.0
C217 C 0.65595 0.0763 0.67223 0.0
C218 C 0.66074 0.00302 0.6898 0.0
C219 C 0.72826 0.06149 0.6651 0.0
O220 O 0.66338 0.05678 0.68283 0.0
O221 O 0.66329 0.08417 0.64912 0.0
O222 O 0.70137 0.00681 0.64689 0.0
O223 O 0.68352 0.03841 0.63089 0.0
H224 H 0.48944 0.16343 0.24561 0.0
H225 H 0.45874 0.13798 0.26561 0.0
H226 H 0.45217 0.10077 0.18875 0.0
H227 H 0.48266 0.12592 0.16872 0.0
H228 H 0.40857 0.11266 0.21204 0.0
H229 H 0.48312 0.07654 0.23861 0.0
H230 H 0.52259 0.07668 0.26021 0.0
H231 H 0.49139 0.095 0.33766 0.0
H232 H 0.45175 0.0953 0.3164 0.0
H233 H 0.34685 0.00833 0.25181 0.0
H234 H 0.3741 0.03791 0.23288 0.0
H235 H 0.38877 0.06328 0.3147 0.0
H236 H 0.36268 0.03309 0.33357 0.0
H237 H 0.42765 0.05948 0.28988 0.0
H238 H 0.35337 0.09447 0.26597 0.0
H239 H 0.31343 0.09642 0.24574 0.0
H240 H 0.34247 0.08314 0.16583 0.0
H241 H 0.38258 0.0808 0.18564 0.0
C242 C 0.48144 0.14981 0.23304 0.0
C243 C 0.48853 0.14656 0.20568 0.0
C244 C 0.46393 0.13533 0.24445 0.0
C245 C 0.45328 0.1175 0.22861 0.0
C246 C 0.46014 0.11448 0.20124 0.0
C247 C 0.47768 0.12878 0.18991 0.0
C248 C 0.43539 0.10146 0.24058 0.0
C249 C 0.41269 0.10087 0.22895 0.0
C250 C 0.44072 0.08662 0.26304 0.0
C251 C 0.46452 0.08618 0.27586 0.0
C252 C 0.4847 0.08077 0.2602 0.0
C253 C 0.5071 0.08074 0.27238 0.0
C254 C 0.5095 0.08591 0.30027 0.0
C255 C 0.4895 0.09104 0.31605 0.0
C256 C 0.46707 0.09112 0.30395 0.0
C257 C 0.35585 0.02034 0.26563 0.0
C258 C 0.35282 0.01839 0.2941 0.0
C259 C 0.37128 0.03733 0.25484 0.0
C260 C 0.38335 0.05304 0.27235 0.0
C261 C 0.37981 0.05133 0.30076 0.0
C262 C 0.36487 0.03408 0.31153 0.0
C263 C 0.40055 0.07053 0.26142 0.0
C264 C 0.42325 0.07136 0.27316 0.0
C265 C 0.39506 0.08585 0.23932 0.0
C266 C 0.37096 0.08723 0.22734 0.0
C267 C 0.35122 0.09178 0.24412 0.0
C268 C 0.32856 0.09299 0.23272 0.0
C269 C 0.32541 0.08984 0.20453 0.0
C270 C 0.34493 0.08554 0.18767 0.0
C271 C 0.36764 0.08429 0.19897 0.0
H272 H 0.30784 0.09079 0.19574 0.0
H273 H 0.52685 0.08589 0.30967 0.0
H274 H 0.34353 0.49534 0.75182 0.0
H275 H 0.37003 0.46627 0.77354 0.0
H276 H 0.3857 0.43637 0.69422 0.0
H277 H 0.35993 0.46558 0.67246 0.0
H278 H 0.37743 0.40225 0.73972 0.0
H279 H 0.42244 0.47269 0.7141 0.0
H280 H 0.42961 0.51574 0.71494 0.0
H281 H 0.43512 0.5139 0.80275 0.0
H282 H 0.42757 0.47086 0.80243 0.0
H283 H 0.4849 0.33969 0.75426 0.0
H284 H 0.45321 0.3661 0.73888 0.0
H285 H 0.45763 0.40463 0.81514 0.0
H286 H 0.48966 0.37884 0.83023 0.0
H287 H 0.45319 0.43442 0.77528 0.0
H288 H 0.41268 0.36442 0.80237 0.0
H289 H 0.40339 0.32182 0.80403 0.0
H290 H 0.3871 0.32247 0.71802 0.0
H291 H 0.39662 0.36504 0.71575 0.0
C292 C 0.35241 0.48233 0.73917 0.0
C293 C 0.34994 0.48275 0.71052 0.0
C294 C 0.36747 0.4658 0.75153 0.0
C295 C 0.37975 0.44929 0.73538 0.0
C296 C 0.37628 0.44895 0.70695 0.0
C297 C 0.36171 0.46572 0.69458 0.0
C298 C 0.39784 0.43366 0.74753 0.0
C299 C 0.39406 0.40915 0.74743 0.0
C300 C 0.4192 0.44289 0.75811 0.0
C301 C 0.42416 0.46864 0.75826 0.0
C302 C 0.42498 0.48151 0.73359 0.0
C303 C 0.42915 0.50589 0.73397 0.0
C304 C 0.43274 0.51757 0.75889 0.0
C305 C 0.43228 0.50485 0.78347 0.0
C306 C 0.42807 0.48046 0.7832 0.0
C307 C 0.47922 0.35391 0.76763 0.0
C308 C 0.48975 0.35719 0.79343 0.0
C309 C 0.46098 0.36886 0.75893 0.0
C310 C 0.45276 0.3871 0.77607 0.0
C311 C 0.46362 0.39065 0.8016 0.0
C312 C 0.48195 0.37588 0.81018 0.0
C313 C 0.43304 0.40271 0.76732 0.0
C314 C 0.43651 0.42732 0.76795 0.0
C315 C 0.41125 0.39353 0.75763 0.0
C316 C 0.4056 0.36789 0.75884 0.0
C317 C 0.40732 0.35544 0.78375 0.0
C318 C 0.40197 0.33131 0.78481 0.0
C319 C 0.39472 0.31943 0.76113 0.0
C320 C 0.39275 0.33169 0.73634 0.0
C321 C 0.39811 0.35583 0.73516 0.0
H322 H 0.39058 0.30075 0.76199 0.0
H323 H 0.43594 0.53645 0.75915 0.0
H324 H 0.01296 0.38205 0.17214 0.0
H325 H 0.046 0.40482 0.19039 0.0
H326 H 0.04759 0.36019 0.26215 0.0
H327 H 0.01428 0.33715 0.24396 0.0
H328 H 0.04964 0.40799 0.27414 0.0
H329 H 0.08935 0.3534 0.21489 0.0
H330 H 0.09675 0.332 0.17167 0.0
H331 H 0.11037 0.39778 0.13049 0.0
H332 H 0.10272 0.41962 0.17339 0.0
H333 H 0.15143 0.46096 0.32603 0.0
H334 H 0.12565 0.43019 0.3076 0.0
H335 H 0.12546 0.46542 0.22899 0.0
H336 H 0.15267 0.49557 0.24714 0.0
H337 H 0.12408 0.41939 0.22168 0.0
H338 H 0.0807 0.47421 0.27846 0.0
H339 H 0.07249 0.49659 0.32085 0.0
H340 H 0.06443 0.43153 0.36542 0.0
H341 H 0.07288 0.40877 0.32335 0.0
C342 C 0.02025 0.37706 0.19185 0.0
C343 C 0.01103 0.3578 0.20665 0.0
C344 C 0.03926 0.39 0.20213 0.0
C345 C 0.04944 0.38392 0.22736 0.0
C346 C 0.04003 0.365 0.24251 0.0
C347 C 0.02101 0.35192 0.23215 0.0
C348 C 0.06938 0.39802 0.23822 0.0
C349 C 0.06611 0.41014 0.26296 0.0
C350 C 0.09055 0.40126 0.22315 0.0
C351 C 0.09528 0.38816 0.19733 0.0
C352 C 0.09374 0.36333 0.19657 0.0
C353 C 0.09802 0.35111 0.17214 0.0
C354 C 0.10398 0.36353 0.14834 0.0
C355 C 0.10574 0.38819 0.14894 0.0
C356 C 0.10146 0.40049 0.17332 0.0
C357 C 0.14613 0.4619 0.3047 0.0
C358 C 0.15364 0.48067 0.288 0.0
C359 C 0.13135 0.4444 0.29422 0.0
C360 C 0.123 0.44593 0.26718 0.0
C361 C 0.13154 0.46402 0.25 0.0
C362 C 0.14698 0.48122 0.26031 0.0
C363 C 0.10426 0.42957 0.25753 0.0
C364 C 0.10771 0.41707 0.233 0.0
C365 C 0.08308 0.42614 0.27263 0.0
C366 C 0.07762 0.43981 0.29783 0.0
C367 C 0.07728 0.46469 0.29734 0.0
C368 C 0.07258 0.47744 0.3213 0.0
C369 C 0.06799 0.46549 0.34582 0.0
C370 C 0.06801 0.44076 0.34642 0.0
C371 C 0.07273 0.42793 0.32252 0.0
H372 H 0.06438 0.47539 0.36436 0.0
H373 H 0.10728 0.35404 0.12944 0.0
H374 H 0.13747 0.02859 0.66825 0.0
H375 H 0.11097 0.05834 0.68779 0.0
H376 H 0.12845 0.03439 0.76924 0.0
H377 H 0.1558 0.00489 0.7498 0.0
H378 H 0.0733 0.03863 0.74148 0.0
H379 H 0.14668 0.0775 0.77077 0.0
H380 H 0.18664 0.0934 0.76214 0.0
H381 H 0.15875 0.13939 0.69992 0.0
H382 H 0.11865 0.12346 0.70792 0.0
H383 H 0.01078 0.11731 0.82494 0.0
H384 H 0.04079 0.09148 0.80549 0.0
H385 H 0.04907 0.139 0.73689 0.0
H386 H 0.01894 0.16539 0.75659 0.0
H387 H 0.09183 0.12353 0.75646 0.0
H388 H 0.0193 0.08902 0.72807 0.0
H389 H 0.97867 0.07369 0.73285 0.0
H390 H 0.0034 0.01972 0.78781 0.0
H391 H 0.04416 0.03496 0.78372 0.0
C392 C 0.13583 0.02976 0.69035 0.0
C393 C 0.14857 0.01441 0.70757 0.0
C394 C 0.12079 0.04681 0.70142 0.0
C395 C 0.11798 0.04856 0.72985 0.0
C396 C 0.13068 0.03335 0.74721 0.0
C397 C 0.1462 0.01657 0.73613 0.0
C398 C 0.10046 0.06529 0.74101 0.0
C399 C 0.07737 0.0571 0.74531 0.0
C400 C 0.1057 0.08952 0.74455 0.0
C401 C 0.12976 0.09904 0.73965 0.0
C402 C 0.14913 0.09077 0.75499 0.0
C403 C 0.17178 0.09985 0.75029 0.0
C404 C 0.17525 0.11733 0.73042 0.0
C405 C 0.15605 0.12581 0.71526 0.0
C406 C 0.13336 0.11677 0.71988 0.0
C407 C 0.01889 0.12234 0.80567 0.0
C408 C 0.01238 0.14334 0.79219 0.0
C409 C 0.03603 0.10749 0.79456 0.0
C410 C 0.04694 0.11317 0.7696 0.0
C411 C 0.04078 0.13429 0.75616 0.0
C412 C 0.02353 0.14926 0.76734 0.0
C413 C 0.06465 0.09677 0.75778 0.0
C414 C 0.0877 0.10503 0.75294 0.0
C415 C 0.05927 0.0726 0.7533 0.0
C416 C 0.03478 0.06329 0.75579 0.0
C417 C 0.01606 0.07401 0.74137 0.0
C418 C 0.993 0.06531 0.74392 0.0
C419 C 0.98844 0.04578 0.76068 0.0
C420 C 0.00695 0.03487 0.77486 0.0
C421 C 0.03004 0.04352 0.77242 0.0
H422 H 0.97058 0.03907 0.76262 0.0
H423 H 0.1928 0.12435 0.72682 0.0
H424 H 0.51048 0.84205 0.75127 0.0
H425 H 0.54053 0.86915 0.73325 0.0
H426 H 0.5538 0.89499 0.81517 0.0
H427 H 0.52305 0.86893 0.83292 0.0
H428 H 0.55323 0.93019 0.78363 0.0
H429 H 0.59234 0.8555 0.77961 0.0
H430 H 0.59802 0.81347 0.76771 0.0
H431 H 0.59496 0.8307 0.68201 0.0
H432 H 0.58893 0.87281 0.69339 0.0
H433 H 0.65992 0.99045 0.74413 0.0
H434 H 0.63438 0.96056 0.76574 0.0
H435 H 0.60382 0.94416 0.68694 0.0
H436 H 0.6289 0.97397 0.66537 0.0
H437 H 0.61595 0.90366 0.71942 0.0
H438 H 0.5746 0.9791 0.72654 0.0
H439 H 0.57155 0.02089 0.74073 0.0
H440 H 0.58237 0.00081 0.82475 0.0
H441 H 0.58584 0.95892 0.81097 0.0
C442 C 0.5198 0.85358 0.76534 0.0
C443 C 0.5144 0.85346 0.79344 0.0
C444 C 0.53711 0.86892 0.7551 0.0
C445 C 0.54977 0.88388 0.77291 0.0
C446 C 0.54431 0.88369 0.80098 0.0
C447 C 0.52671 0.86877 0.81111 0.0
C448 C 0.56824 0.90024 0.76233 0.0
C449 C 0.56716 0.9242 0.76997 0.0
C450 C 0.58639 0.89262 0.74432 0.0
C451 C 0.58996 0.86729 0.73737 0.0
C452 C 0.59269 0.8503 0.75822 0.0
C453 C 0.59601 0.82647 0.75157 0.0
C454 C 0.59679 0.81941 0.72412 0.0
C455 C 0.59431 0.83619 0.70326 0.0
C456 C 0.59097 0.86005 0.7098 0.0
C457 C 0.64782 0.98037 0.73146 0.0
C458 C 0.64624 0.98463 0.70314 0.0
C459 C 0.6333 0.96335 0.74379 0.0
C460 C 0.61724 0.95026 0.72787 0.0
C461 C 0.61616 0.95406 0.69952 0.0
C462 C 0.63038 0.97121 0.68729 0.0
C463 C 0.60068 0.93331 0.74067 0.0
C464 C 0.60212 0.90936 0.73337 0.0
C465 C 0.58316 0.94081 0.75941 0.0
C466 C 0.58073 0.96593 0.76769 0.0
C467 C 0.5765 0.98363 0.74801 0.0
C468 C 0.57467 0.00732 0.75598 0.0
C469 C 0.57683 0.01351 0.78362 0.0
C470 C 0.58074 0.996 0.80335 0.0
C471 C 0.58263 0.97228 0.79547 0.0
H472 H 0.57542 0.03186 0.78975 0.0
H473 H 0.59937 0.80095 0.71902 0.0
H474 H 0.50222 0.6198 0.18773 0.0
H475 H 0.53251 0.59333 0.20631 0.0
H476 H 0.56022 0.65032 0.25553 0.0
H477 H 0.5294 0.67689 0.2376 0.0
H478 H 0.59202 0.61489 0.21201 0.0
H479 H 0.5438 0.62309 0.2953 0.0
H480 H 0.50536 0.62366 0.31928 0.0
H481 H 0.49039 0.55351 0.2902 0.0
H482 H 0.52862 0.5527 0.26569 0.0
H483 H 0.67329 0.54086 0.28611 0.0
H484 H 0.64738 0.57208 0.26829 0.0
H485 H 0.58993 0.52178 0.26291 0.0
H486 H 0.61548 0.49118 0.28251 0.0
H487 H 0.57452 0.55788 0.28666 0.0
H488 H 0.62112 0.54741 0.20479 0.0
H489 H 0.65761 0.54536 0.17714 0.0
H490 H 0.67429 0.61713 0.19868 0.0
H491 H 0.63803 0.61951 0.22674 0.0
C492 C 0.51463 0.62665 0.2027 0.0
C493 C 0.51347 0.65032 0.21135 0.0
C494 C 0.5319 0.61156 0.21319 0.0
C495 C 0.5485 0.62001 0.23212 0.0
C496 C 0.54745 0.64361 0.2409 0.0
C497 C 0.52981 0.65864 0.23081 0.0
C498 C 0.56684 0.60384 0.24251 0.0
C499 C 0.58855 0.60266 0.22869 0.0
C500 C 0.56176 0.58756 0.26358 0.0
C501 C 0.5389 0.58796 0.27842 0.0
C502 C 0.53219 0.6079 0.29378 0.0
C503 C 0.51048 0.60824 0.30753 0.0
C504 C 0.49541 0.58866 0.30619 0.0
C505 C 0.50206 0.56867 0.29118 0.0
C506 C 0.52375 0.56826 0.27738 0.0
C507 C 0.65526 0.53651 0.28046 0.0
C508 C 0.64624 0.51379 0.2853 0.0
C509 C 0.64047 0.55428 0.27025 0.0
C510 C 0.61666 0.54931 0.26406 0.0
C511 C 0.60815 0.52614 0.26768 0.0
C512 C 0.62273 0.50862 0.2786 0.0
C513 C 0.60002 0.56843 0.25597 0.0
C514 C 0.57843 0.57017 0.27018 0.0
C515 C 0.60517 0.58498 0.23493 0.0
C516 C 0.62699 0.58354 0.2181 0.0
C517 C 0.63267 0.56269 0.20381 0.0
C518 C 0.65329 0.56148 0.18803 0.0
C519 C 0.6683 0.58107 0.18622 0.0
C520 C 0.66267 0.60195 0.20013 0.0
C521 C 0.64208 0.60324 0.21596 0.0
H522 H 0.68425 0.5801 0.17399 0.0
H523 H 0.47861 0.58896 0.31685 0.0
H524 H 0.99172 0.65651 0.75368 0.0
H525 H 0.96169 0.62912 0.73622 0.0
H526 H 0.95368 0.59939 0.81728 0.0
H527 H 0.98432 0.62586 0.83442 0.0
H528 H 0.95317 0.56557 0.78329 0.0
H529 H 0.91253 0.63934 0.78794 0.0
H530 H 0.90533 0.68178 0.77966 0.0
H531 H 0.90321 0.66924 0.69284 0.0
H532 H 0.91073 0.62675 0.70058 0.0
H533 H 0.84507 0.50529 0.74874 0.0
H534 H 0.87106 0.53492 0.77017 0.0
H535 H 0.89747 0.5548 0.69044 0.0
H536 H 0.87204 0.52518 0.66905 0.0
H537 H 0.886 0.59393 0.72659 0.0
H538 H 0.92924 0.51924 0.72483 0.0
H539 H 0.93368 0.47684 0.73571 0.0
H540 H 0.92749 0.49223 0.82166 0.0
H541 H 0.92263 0.5347 0.81123 0.0
C542 C 0.98361 0.64402 0.76767 0.0
C543 C 0.99037 0.64329 0.79537 0.0
C544 C 0.96631 0.62851 0.75776 0.0
C545 C 0.95507 0.61244 0.77554 0.0
C546 C 0.96205 0.61159 0.80314 0.0
C547 C 0.97959 0.62675 0.81291 0.0
C548 C 0.93632 0.5962 0.76542 0.0
C549 C 0.93831 0.57192 0.77128 0.0
C550 C 0.9169 0.60433 0.74961 0.0
C551 C 0.91243 0.62989 0.74484 0.0
C552 C 0.91072 0.64566 0.76707 0.0
C553 C 0.90655 0.66972 0.76248 0.0
C554 C 0.90388 0.67821 0.73574 0.0
C555 C 0.90532 0.66264 0.71354 0.0
C556 C 0.90952 0.63856 0.71802 0.0
C557 C 0.85633 0.51611 0.73585 0.0
C558 C 0.85672 0.51284 0.70729 0.0
C559 C 0.87111 0.53297 0.74807 0.0
C560 C 0.88614 0.54695 0.73181 0.0
C561 C 0.88593 0.54421 0.70327 0.0
C562 C 0.87152 0.52717 0.69114 0.0
C563 C 0.90313 0.56359 0.74437 0.0
C564 C 0.9008 0.58783 0.73889 0.0
C565 C 0.92196 0.55554 0.76097 0.0
C566 C 0.92532 0.53009 0.76724 0.0
C567 C 0.92865 0.51355 0.74603 0.0
C568 C 0.93127 0.48952 0.75212 0.0
C569 C 0.9308 0.48183 0.77936 0.0
C570 C 0.92781 0.49819 0.80057 0.0
C571 C 0.92513 0.52225 0.79459 0.0
H572 H 0.93281 0.46322 0.78403 0.0
H573 H 0.90064 0.69684 0.73223 0.0
H574 H 0.82922 0.97383 0.25581 0.0
H575 H 0.85327 0.94083 0.2385 0.0
H576 H 0.91079 0.96237 0.29113 0.0
H577 H 0.88677 0.99462 0.30895 0.0
H578 H 0.89309 0.93634 0.21223 0.0
H579 H 0.93917 0.91694 0.31778 0.0
H580 H 0.92873 0.91784 0.36688 0.0
H581 H 0.8551 0.91128 0.34653 0.0
H582 H 0.86509 0.90997 0.29734 0.0
H583 H 0.0012 0.88305 0.18878 0.0
H584 H 0.969 0.90793 0.20538 0.0
H585 H 0.94072 0.84886 0.25105 0.0
H586 H 0.97374 0.82414 0.2354 0.0
H587 H 0.93534 0.88592 0.27973 0.0
H588 H 0.91583 0.86702 0.18874 0.0
H589 H 0.92135 0.86149 0.139 0.0
H590 H 0.93291 0.93611 0.12911 0.0
H591 H 0.9278 0.94206 0.17886 0.0
C592 C 0.84708 0.97157 0.26342 0.0
C593 C 0.85609 0.98658 0.28388 0.0
C594 C 0.86075 0.95271 0.25362 0.0
C595 C 0.88358 0.94878 0.26408 0.0
C596 C 0.89296 0.9646 0.2834 0.0
C597 C 0.87927 0.98315 0.29341 0.0
C598 C 0.89794 0.92828 0.25502 0.0
C599 C 0.90222 0.9252 0.22694 0.0
C600 C 0.909 0.91302 0.27418 0.0
C601 C 0.9029 0.91351 0.30382 0.0
C602 C 0.92076 0.91554 0.32377 0.0
C603 C 0.91491 0.91616 0.35163 0.0
C604 C 0.89127 0.91467 0.35981 0.0
C605 C 0.87341 0.9125 0.34016 0.0
C606 C 0.87915 0.91185 0.31229 0.0
C607 C 0.98826 0.87546 0.20262 0.0
C608 C 0.98984 0.8517 0.21076 0.0
C609 C 0.96972 0.8896 0.21187 0.0
C610 C 0.95201 0.88007 0.22877 0.0
C611 C 0.95406 0.85654 0.23781 0.0
C612 C 0.97295 0.84247 0.22897 0.0
C613 C 0.93156 0.89491 0.23701 0.0
C614 C 0.92601 0.89682 0.26495 0.0
C615 C 0.91857 0.90835 0.21762 0.0
C616 C 0.92156 0.90495 0.1876 0.0
C617 C 0.91969 0.88224 0.176 0.0
C618 C 0.92273 0.87903 0.14779 0.0
C619 C 0.92751 0.89843 0.13091 0.0
C620 C 0.92921 0.9211 0.14221 0.0
C621 C 0.9262 0.9244 0.17041 0.0
H622 H 0.92986 0.89592 0.10908 0.0
H623 H 0.88678 0.91517 0.38139 0.0
H624 H 0.53902 0.25308 0.21251 0.0
H625 H 0.54999 0.28954 0.23681 0.0
H626 H 0.61128 0.29701 0.18489 0.0
H627 H 0.60046 0.26105 0.16036 0.0
H628 H 0.62066 0.29807 0.24221 0.0
H629 H 0.56999 0.3332 0.17434 0.0
H630 H 0.53287 0.33866 0.14856 0.0
H631 H 0.49654 0.35665 0.22304 0.0
H632 H 0.5334 0.35093 0.24935 0.0
H633 H 0.6412 0.42843 0.27032 0.0
H634 H 0.62049 0.39842 0.24313 0.0
H635 H 0.61189 0.35532 0.3154 0.0
H636 H 0.63248 0.38494 0.34271 0.0
H637 H 0.57553 0.37338 0.24641 0.0
H638 H 0.63068 0.30033 0.29739 0.0
H639 H 0.6686 0.29579 0.32196 0.0
H640 H 0.69755 0.35465 0.27747 0.0
H641 H 0.65994 0.3593 0.25237 0.0
C642 C 0.55472 0.26261 0.20613 0.0
C643 C 0.56891 0.25407 0.18457 0.0
C644 C 0.56087 0.28346 0.21993 0.0
C645 C 0.58142 0.29588 0.21256 0.0
C646 C 0.59535 0.28764 0.19082 0.0
C647 C 0.58907 0.26708 0.17681 0.0
C648 C 0.58947 0.31656 0.2286 0.0
C649 C 0.61074 0.3145 0.24318 0.0
C650 C 0.5766 0.33801 0.22961 0.0
C651 C 0.5544 0.34135 0.21386 0.0
C652 C 0.55403 0.33806 0.18527 0.0
C653 C 0.53305 0.34126 0.17055 0.0
C654 C 0.51234 0.34792 0.18417 0.0
C655 C 0.51259 0.35145 0.21253 0.0
C656 C 0.53352 0.34824 0.22736 0.0
C657 C 0.63454 0.41276 0.28055 0.0
C658 C 0.63892 0.40892 0.30863 0.0
C659 C 0.62259 0.39572 0.26499 0.0
C660 C 0.61494 0.37461 0.27726 0.0
C661 C 0.61786 0.37145 0.30556 0.0
C662 C 0.62974 0.38841 0.3211 0.0
C663 C 0.60654 0.35469 0.26018 0.0
C664 C 0.5853 0.35687 0.2455 0.0
C665 C 0.61951 0.33331 0.25881 0.0
C666 C 0.64244 0.33028 0.27322 0.0
C667 C 0.64519 0.31221 0.29276 0.0
C668 C 0.66662 0.30964 0.3068 0.0
C669 C 0.68545 0.32497 0.30134 0.0
C670 C 0.68293 0.34284 0.28174 0.0
C671 C 0.66156 0.34546 0.26763 0.0
H672 H 0.702 0.32297 0.31226 0.0
H673 H 0.49611 0.35041 0.17273 0.0
H674 H 0.24482 0.60184 0.65836 0.0
H675 H 0.20992 0.61587 0.68271 0.0
H676 H 0.21436 0.55632 0.73787 0.0
H677 H 0.2499 0.54251 0.71409 0.0
H678 H 0.16741 0.60133 0.69319 0.0
H679 H 0.19828 0.57366 0.80194 0.0
H680 H 0.23553 0.56601 0.82687 0.0
H681 H 0.27289 0.61188 0.77156 0.0
H682 H 0.23586 0.62012 0.7467 0.0
H683 H 0.07472 0.6334 0.78578 0.0
H684 H 0.10458 0.61096 0.76018 0.0
H685 H 0.15916 0.65705 0.79163 0.0
H686 H 0.12972 0.67863 0.81808 0.0
H687 H 0.17496 0.6154 0.79322 0.0
H688 H 0.13516 0.66131 0.72415 0.0
H689 H 0.10078 0.6756 0.69775 0.0
H690 H 0.08607 0.60468 0.67107 0.0
H691 H 0.12023 0.58993 0.69759 0.0
C692 C 0.23833 0.59158 0.67555 0.0
C693 C 0.25038 0.57119 0.68448 0.0
C694 C 0.21825 0.59959 0.68938 0.0
C695 C 0.20965 0.58734 0.71235 0.0
C696 C 0.22092 0.56632 0.72051 0.0
C697 C 0.24123 0.55843 0.70687 0.0
C698 C 0.18987 0.59753 0.72863 0.0
C699 C 0.16898 0.60426 0.71511 0.0
C700 C 0.19205 0.60182 0.75713 0.0
C701 C 0.21436 0.59722 0.77225 0.0
C702 C 0.21445 0.58216 0.79519 0.0
C703 C 0.23553 0.57774 0.80932 0.0
C704 C 0.2566 0.58839 0.80077 0.0
C705 C 0.25661 0.60359 0.77816 0.0
C706 C 0.23558 0.60813 0.76403 0.0
C707 C 0.09312 0.63866 0.78721 0.0
C708 C 0.0999 0.6577 0.804 0.0
C709 C 0.11016 0.6259 0.7725 0.0
C710 C 0.13417 0.6324 0.77375 0.0
C711 C 0.14083 0.65151 0.79046 0.0
C712 C 0.12395 0.6639 0.80554 0.0
C713 C 0.15256 0.61959 0.75775 0.0
C714 C 0.17319 0.61221 0.77138 0.0
C715 C 0.15052 0.61566 0.72915 0.0
C716 C 0.13008 0.62449 0.71308 0.0
C717 C 0.1245 0.64875 0.71279 0.0
C718 C 0.10507 0.65693 0.69779 0.0
C719 C 0.09121 0.64105 0.6828 0.0
C720 C 0.0968 0.61696 0.68272 0.0
C721 C 0.1162 0.60868 0.69772 0.0
H722 H 0.07617 0.64742 0.67121 0.0
H723 H 0.2729 0.58491 0.81169 0.0
H724 H 0.87186 0.10978 0.33722 0.0
H725 H 0.89437 0.13957 0.312 0.0
H726 H 0.86701 0.11228 0.23564 0.0
H727 H 0.84531 0.08168 0.26077 0.0
H728 H 0.91077 0.12658 0.22827 0.0
H729 H 0.84117 0.16044 0.26913 0.0
H730 H 0.81366 0.16997 0.30682 0.0
H731 H 0.86875 0.20798 0.34852 0.0
H732 H 0.89668 0.19841 0.31122 0.0
H733 H 0.91378 0.23432 0.15042 0.0
H734 H 0.90395 0.19774 0.17464 0.0
H735 H 0.94053 0.22308 0.24648 0.0
H736 H 0.95047 0.25972 0.22253 0.0
H737 H 0.89466 0.20932 0.25678 0.0
H738 H 0.96314 0.17794 0.21153 0.0
H739 H 0.98884 0.16881 0.17207 0.0
H740 H 0.93355 0.12695 0.13609 0.0
H741 H 0.90737 0.13611 0.17516 0.0
C742 C 0.87089 0.10995 0.31503 0.0
C743 C 0.85658 0.09364 0.30096 0.0
C744 C 0.8837 0.12701 0.30063 0.0
C745 C 0.88187 0.12858 0.27196 0.0
C746 C 0.8686 0.1115 0.25776 0.0
C747 C 0.85616 0.09407 0.27214 0.0
C748 C 0.8924 0.14894 0.25706 0.0
C749 C 0.9071 0.14467 0.23435 0.0
C750 C 0.88787 0.17259 0.26517 0.0
C751 C 0.87106 0.17851 0.28753 0.0
C752 C 0.84745 0.17071 0.28642 0.0
C753 C 0.83178 0.17613 0.3077 0.0
C754 C 0.83947 0.18952 0.33009 0.0
C755 C 0.86283 0.19758 0.33119 0.0
C756 C 0.87858 0.19218 0.30998 0.0
C757 C 0.92 0.23202 0.17127 0.0
C758 C 0.93271 0.25008 0.18462 0.0
C759 C 0.91449 0.21102 0.185 0.0
C760 C 0.92157 0.20771 0.21231 0.0
C761 C 0.93494 0.22532 0.22538 0.0
C762 C 0.94061 0.24624 0.21162 0.0
C763 C 0.91306 0.18698 0.22806 0.0
C764 C 0.89856 0.19121 0.25087 0.0
C765 C 0.9175 0.16342 0.21971 0.0
C766 C 0.93321 0.1579 0.19618 0.0
C767 C 0.95637 0.16696 0.19509 0.0
C768 C 0.97105 0.16174 0.17282 0.0
C769 C 0.96281 0.14736 0.15155 0.0
C770 C 0.9399 0.13812 0.15256 0.0
C771 C 0.92514 0.14329 0.17478 0.0
H772 H 0.97421 0.14333 0.13433 0.0
H773 H 0.82732 0.19369 0.34655 0.0
H774 H 0.25294 0.96166 0.71856 0.0
H775 H 0.28945 0.95123 0.74281 0.0
H776 H 0.301 0.89372 0.68614 0.0
H777 H 0.26529 0.90443 0.66143 0.0
H778 H 0.30035 0.91475 0.77034 0.0
H779 H 0.35713 0.87989 0.67782 0.0
H780 H 0.36522 0.89114 0.62987 0.0
H781 H 0.34412 0.96261 0.64706 0.0
H782 H 0.33624 0.9519 0.69521 0.0
H783 H 0.37413 0.82507 0.8145 0.0
H784 H 0.34626 0.85037 0.79027 0.0
H785 H 0.40379 0.89497 0.76336 0.0
H786 H 0.43206 0.86876 0.78659 0.0
H787 H 0.37487 0.89127 0.72391 0.0
H788 H 0.36457 0.912 0.81663 0.0
H789 H 0.35912 0.90604 0.86633 0.0
H790 H 0.29184 0.87311 0.85161 0.0
H791 H 0.29702 0.87856 0.80179 0.0
C792 C 0.26343 0.94696 0.71109 0.0
C793 C 0.25615 0.93391 0.68801 0.0
C794 C 0.2843 0.94102 0.72498 0.0
C795 C 0.29824 0.92188 0.71611 0.0
C796 C 0.291 0.90896 0.693 0.0
C797 C 0.27037 0.91502 0.67898 0.0
C798 C 0.31931 0.91405 0.732 0.0
C799 C 0.31673 0.90985 0.76021 0.0
C800 C 0.34108 0.90845 0.71911 0.0
C801 C 0.34594 0.91503 0.69014 0.0
C802 C 0.35434 0.89804 0.67144 0.0
C803 C 0.35886 0.90432 0.64419 0.0
C804 C 0.35514 0.92756 0.63541 0.0
C805 C 0.34693 0.94459 0.65387 0.0
C806 C 0.34239 0.93842 0.68113 0.0
C807 C 0.38087 0.84028 0.80344 0.0
C808 C 0.40524 0.84507 0.80263 0.0
C809 C 0.36489 0.85486 0.78974 0.0
C810 C 0.37278 0.87505 0.77562 0.0
C811 C 0.39722 0.87963 0.77429 0.0
C812 C 0.41335 0.86467 0.78755 0.0
C813 C 0.35536 0.89083 0.76186 0.0
C814 C 0.35867 0.89657 0.73411 0.0
C815 C 0.33463 0.89872 0.77542 0.0
C816 C 0.33124 0.89561 0.80543 0.0
C817 C 0.34866 0.90338 0.82397 0.0
C818 C 0.34562 0.9001 0.85217 0.0
C819 C 0.32516 0.88918 0.86211 0.0
C820 C 0.30767 0.88157 0.84388 0.0
C821 C 0.31063 0.8848 0.81565 0.0
H822 H 0.32284 0.88664 0.88395 0.0
H823 H 0.35864 0.93238 0.61431 0.0
H824 H 0.55438 0.25578 0.76661 0.0
H825 H 0.5639 0.21895 0.74288 0.0
H826 H 0.56779 0.18254 0.82062 0.0
H827 H 0.55944 0.21965 0.84444 0.0
H828 H 0.60481 0.17309 0.79389 0.0
H829 H 0.52314 0.17119 0.76969 0.0
H830 H 0.48515 0.18634 0.75206 0.0
H831 H 0.51644 0.19743 0.67285 0.0
H832 H 0.55471 0.18265 0.69007 0.0
H833 H 0.63737 0.06799 0.72351 0.0
H834 H 0.61232 0.09454 0.75055 0.0
H835 H 0.61143 0.1446 0.68376 0.0
H836 H 0.63602 0.11822 0.65652 0.0
H837 H 0.56849 0.14195 0.70863 0.0
H838 H 0.65106 0.15014 0.73609 0.0
H839 H 0.68909 0.13495 0.75365 0.0
H840 H 0.6548 0.11153 0.82743 0.0
H841 H 0.6165 0.12636 0.81014 0.0
C842 C 0.55676 0.2398 0.77858 0.0
C843 C 0.55634 0.24059 0.80736 0.0
C844 C 0.56208 0.21867 0.76498 0.0
C845 C 0.56642 0.1978 0.7799 0.0
C846 C 0.56464 0.19837 0.80862 0.0
C847 C 0.55983 0.21957 0.82222 0.0
C848 C 0.57541 0.17621 0.76586 0.0
C849 C 0.59644 0.16597 0.77565 0.0
C850 C 0.56487 0.16705 0.74171 0.0
C851 C 0.54185 0.17593 0.73125 0.0
C852 C 0.52197 0.17701 0.74856 0.0
C853 C 0.50037 0.18551 0.73863 0.0
C854 C 0.49839 0.19288 0.71137 0.0
C855 C 0.518 0.19172 0.69396 0.0
C856 C 0.53964 0.18324 0.70379 0.0
C857 C 0.63163 0.08453 0.71444 0.0
C858 C 0.63901 0.09108 0.68794 0.0
C859 C 0.61732 0.09967 0.72995 0.0
C860 C 0.61027 0.12167 0.71927 0.0
C861 C 0.61666 0.12771 0.6924 0.0
C862 C 0.63088 0.11263 0.67689 0.0
C863 C 0.59787 0.13933 0.73655 0.0
C864 C 0.57636 0.14884 0.72729 0.0
C865 C 0.60786 0.14781 0.76124 0.0
C866 C 0.63091 0.13911 0.77171 0.0
C867 C 0.65162 0.14161 0.75598 0.0
C868 C 0.67322 0.13309 0.76589 0.0
C869 C 0.67434 0.12222 0.7916 0.0
C870 C 0.65389 0.11992 0.8075 0.0
C871 C 0.63224 0.12838 0.79766 0.0
H872 H 0.69108 0.11563 0.79924 0.0
H873 H 0.48166 0.19945 0.70372 0.0
H874 H 0.38229 0.65027 0.16305 0.0
H875 H 0.3534 0.62755 0.18907 0.0
H876 H 0.39669 0.63356 0.26158 0.0
H877 H 0.42615 0.65608 0.23545 0.0
H878 H 0.37595 0.59004 0.25863 0.0
H879 H 0.35112 0.66971 0.25515 0.0
H880 H 0.34263 0.70839 0.23433 0.0
H881 H 0.28869 0.67692 0.18409 0.0
H882 H 0.29714 0.63782 0.20448 0.0
H883 H 0.27343 0.57665 0.34904 0.0
H884 H 0.30916 0.59083 0.32569 0.0
H885 H 0.27867 0.57228 0.24757 0.0
H886 H 0.24312 0.55763 0.27065 0.0
H887 H 0.29423 0.62222 0.25631 0.0
H888 H 0.32079 0.54099 0.26494 0.0
H889 H 0.3304 0.50468 0.29067 0.0
H890 H 0.38186 0.54283 0.33805 0.0
H891 H 0.37229 0.57947 0.31287 0.0
C892 C 0.38584 0.64668 0.18448 0.0
C893 C 0.40641 0.65533 0.19725 0.0
C894 C 0.36927 0.63365 0.19933 0.0
C895 C 0.37268 0.62923 0.22737 0.0
C896 C 0.39369 0.63684 0.23997 0.0
C897 C 0.41044 0.64979 0.22502 0.0
C898 C 0.3535 0.61801 0.24361 0.0
C899 C 0.35814 0.5972 0.2584 0.0
C900 C 0.33029 0.62741 0.24343 0.0
C901 C 0.32493 0.65082 0.23114 0.0
C902 C 0.33757 0.671 0.23951 0.0
C903 C 0.33273 0.69302 0.22779 0.0
C904 C 0.31515 0.69516 0.20779 0.0
C905 C 0.30232 0.67524 0.19955 0.0
C906 C 0.30711 0.65313 0.21121 0.0
C907 C 0.27448 0.57528 0.32691 0.0
C908 C 0.2554 0.56616 0.31166 0.0
C909 C 0.29493 0.58327 0.31366 0.0
C910 C 0.29647 0.58254 0.28498 0.0
C911 C 0.27777 0.57287 0.26976 0.0
C912 C 0.25751 0.56449 0.28299 0.0
C913 C 0.31652 0.59393 0.27066 0.0
C914 C 0.31203 0.61499 0.25643 0.0
C915 C 0.33989 0.58506 0.27208 0.0
C916 C 0.34561 0.56304 0.28723 0.0
C917 C 0.33397 0.54171 0.28105 0.0
C918 C 0.33946 0.52104 0.29549 0.0
C919 C 0.35668 0.52146 0.31604 0.0
C920 C 0.36849 0.54253 0.32216 0.0
C921 C 0.36305 0.56325 0.30779 0.0
H922 H 0.36091 0.50544 0.32719 0.0
H923 H 0.31144 0.71225 0.19873 0.0
H924 H 0.85357 0.37378 0.66875 0.0
H925 H 0.87642 0.34687 0.69688 0.0
H926 H 0.89812 0.40497 0.7486 0.0
H927 H 0.87414 0.43218 0.72088 0.0
H928 H 0.91962 0.34072 0.70871 0.0
H929 H 0.90699 0.38402 0.8136 0.0
H930 H 0.87999 0.4116 0.83736 0.0
H931 H 0.82272 0.38936 0.7855 0.0
H932 H 0.84934 0.36152 0.76165 0.0
H933 H 0.96942 0.25613 0.79993 0.0
H934 H 0.96197 0.29454 0.77817 0.0
H935 H 0.88903 0.29124 0.80436 0.0
H936 H 0.89677 0.25382 0.82735 0.0
H937 H 0.90169 0.33387 0.80793 0.0
H938 H 0.91059 0.27398 0.73681 0.0
H939 H 0.93196 0.24315 0.7109 0.0
H940 H 0.98708 0.29281 0.69177 0.0
H941 H 0.96612 0.32386 0.71783 0.0
C942 C 0.86331 0.381 0.68595 0.0
C943 C 0.86188 0.40516 0.69263 0.0
C944 C 0.87651 0.36553 0.70203 0.0
C945 C 0.88892 0.37377 0.72505 0.0
C946 C 0.88838 0.39809 0.73123 0.0
C947 C 0.87473 0.41363 0.71533 0.0
C948 C 0.90118 0.35631 0.74292 0.0
C949 C 0.9159 0.33939 0.73049 0.0
C950 C 0.89641 0.35447 0.77135 0.0
C951 C 0.88021 0.37096 0.78566 0.0
C952 C 0.88862 0.38502 0.80733 0.0
C953 C 0.87339 0.40069 0.8208 0.0
C954 C 0.84968 0.4023 0.81288 0.0
C955 C 0.84111 0.38817 0.79155 0.0
C956 C 0.85626 0.37246 0.77804 0.0
C957 C 0.95187 0.26377 0.80117 0.0
C958 C 0.93363 0.25193 0.81516 0.0
C959 C 0.9476 0.28569 0.78868 0.0
C960 C 0.92481 0.29571 0.78917 0.0
C961 C 0.9068 0.28406 0.80374 0.0
C962 C 0.91121 0.26254 0.81678 0.0
C963 C 0.91899 0.3175 0.77336 0.0
C964 C 0.90582 0.33543 0.78627 0.0
C965 C 0.92436 0.31976 0.7451 0.0
C966 C 0.93698 0.30111 0.72955 0.0
C967 C 0.92735 0.27825 0.72723 0.0
C968 C 0.93937 0.26076 0.7125 0.0
C969 C 0.96091 0.266 0.69979 0.0
C970 C 0.97044 0.28876 0.7017 0.0
C971 C 0.9585 0.30631 0.71644 0.0
H972 H 0.97019 0.25243 0.68838 0.0
H973 H 0.83792 0.41445 0.82331 0.0
H974 H 0.07135 0.86231 0.22175 0.0
H975 H 0.09911 0.88805 0.24617 0.0
H976 H 0.15651 0.86072 0.19712 0.0
H977 H 0.12892 0.83568 0.17215 0.0
H978 H 0.13392 0.87978 0.2778 0.0
H979 H 0.19913 0.89952 0.18695 0.0
H980 H 0.19677 0.90733 0.13726 0.0
H981 H 0.12461 0.92983 0.1461 0.0
H982 H 0.12661 0.92251 0.19588 0.0
H983 H 0.24689 0.89816 0.32775 0.0
H984 H 0.21129 0.88633 0.30343 0.0
H985 H 0.20699 0.9555 0.26613 0.0
H986 H 0.24366 0.96708 0.28958 0.0
H987 H 0.19651 0.92542 0.22986 0.0
H988 H 0.16812 0.93706 0.3195 0.0
H989 H 0.16688 0.93443 0.36996 0.0
H990 H 0.15877 0.85901 0.36491 0.0
H991 H 0.1603 0.86112 0.31443 0.0
C992 C 0.08988 0.86189 0.21609 0.0
C993 C 0.09789 0.84701 0.1949 0.0
C994 C 0.10572 0.87663 0.23006 0.0
C995 C 0.12987 0.87668 0.22319 0.0
C996 C 0.13789 0.86157 0.2023 0.0
C997 C 0.12207 0.84709 0.18814 0.0
C998 C 0.14706 0.89151 0.23862 0.0
C999 C 0.14748 0.88993 0.26734 0.0
C1000 C 0.16421 0.9056 0.22511 0.0
C1001 C 0.163 0.91031 0.19517 0.0
C1002 C 0.1828 0.90627 0.17833 0.0
C1003 C 0.18151 0.91058 0.15013 0.0
C1004 C 0.16054 0.91902 0.13852 0.0
C1005 C 0.14082 0.92323 0.1551 0.0
C1006 C 0.14202 0.91897 0.1833 0.0
C1007 C 0.23834 0.91093 0.31448 0.0
C1008 C 0.24798 0.93362 0.31073 0.0
C1009 C 0.21782 0.9042 0.30071 0.0
C1010 C 0.20598 0.9202 0.28348 0.0
C1011 C 0.21568 0.94287 0.27946 0.0
C1012 C 0.23661 0.94948 0.29285 0.0
C1013 C 0.18409 0.91264 0.26894 0.0
C1014 C 0.18273 0.91563 0.2404 0.0
C1015 C 0.16551 0.90067 0.28273 0.0
C1016 C 0.16443 0.89926 0.31314 0.0
C1017 C 0.1662 0.91989 0.32914 0.0
C1018 C 0.16544 0.9185 0.35776 0.0
C1019 C 0.16277 0.89657 0.37063 0.0
C1020 C 0.16082 0.87599 0.35491 0.0
C1021 C 0.16159 0.87728 0.32629 0.0
H1022 H 0.16219 0.89553 0.39279 0.0
H1023 H 0.15958 0.92233 0.11668 0.0
H1024 H 0.36205 0.56616 0.73056 0.0
H1025 H 0.38741 0.59226 0.75781 0.0
H1026 H 0.39331 0.64012 0.68922 0.0
H1027 H 0.36846 0.61416 0.66178 0.0
H1028 H 0.43493 0.63656 0.71659 0.0
H1029 H 0.35151 0.64822 0.73921 0.0
H1030 H 0.31237 0.63518 0.75582 0.0
H1031 H 0.34323 0.61392 0.83244 0.0
H1032 H 0.3826 0.62656 0.81613 0.0
H1033 H 0.4503 0.75195 0.77037 0.0
H1034 H 0.44048 0.71469 0.74761 0.0
H1035 H 0.43316 0.68064 0.82643 0.0
H1036 H 0.44205 0.71805 0.84922 0.0
H1037 H 0.39637 0.67196 0.79821 0.0
H1038 H 0.47861 0.66618 0.7791 0.0
H1039 H 0.51801 0.67902 0.76326 0.0
H1040 H 0.49102 0.68834 0.68165 0.0
H1041 H 0.45137 0.67587 0.69706 0.0
C1042 C 0.36901 0.58208 0.72113 0.0
C1043 C 0.36289 0.58822 0.69407 0.0
C1044 C 0.38348 0.59697 0.73678 0.0
C1045 C 0.39195 0.61829 0.72565 0.0
C1046 C 0.38694 0.62377 0.69823 0.0
C1047 C 0.37256 0.60894 0.6826 0.0
C1048 C 0.40435 0.63598 0.7429 0.0
C1049 C 0.42656 0.64438 0.73444 0.0
C1050 C 0.39369 0.64565 0.76662 0.0
C1051 C 0.37001 0.63807 0.77634 0.0
C1052 C 0.34996 0.64059 0.75952 0.0
C1053 C 0.32773 0.6333 0.76889 0.0
C1054 C 0.32533 0.62367 0.79515 0.0
C1055 C 0.34513 0.62134 0.81209 0.0
C1056 C 0.36739 0.62856 0.8028 0.0
C1057 C 0.44707 0.73639 0.78281 0.0
C1058 C 0.44671 0.73797 0.81156 0.0
C1059 C 0.44157 0.71503 0.76978 0.0
C1060 C 0.43616 0.69473 0.78528 0.0
C1061 C 0.43713 0.69604 0.81401 0.0
C1062 C 0.44223 0.71744 0.82701 0.0
C1063 C 0.42695 0.67303 0.77172 0.0
C1064 C 0.40518 0.66391 0.78078 0.0
C1065 C 0.43813 0.66265 0.74868 0.0
C1066 C 0.46195 0.67023 0.73931 0.0
C1067 C 0.48102 0.67114 0.75782 0.0
C1068 C 0.50341 0.67832 0.74891 0.0
C1069 C 0.507 0.68453 0.72148 0.0
C1070 C 0.48821 0.68353 0.7029 0.0
C1071 C 0.46578 0.67637 0.7117 0.0
H1072 H 0.52435 0.69008 0.71462 0.0
H1073 H 0.30813 0.61808 0.80243 0.0
H1074 H 0.91412 0.34357 0.23686 0.0
H1075 H 0.88409 0.36342 0.26502 0.0
H1076 H 0.85619 0.39764 0.19293 0.0
H1077 H 0.88551 0.37714 0.16448 0.0
H1078 H 0.86839 0.41953 0.2642 0.0
H1079 H 0.81756 0.37696 0.19229 0.0
H1080 H 0.81115 0.34098 0.16454 0.0
H1081 H 0.81693 0.29803 0.23692 0.0
H1082 H 0.82389 0.33381 0.26494 0.0
H1083 H 0.75152 0.46347 0.29623 0.0
H1084 H 0.78773 0.45013 0.27326 0.0
H1085 H 0.78695 0.38604 0.32123 0.0
H1086 H 0.75109 0.39935 0.34465 0.0
H1087 H 0.7904 0.37903 0.26345 0.0
H1088 H 0.82699 0.42255 0.33592 0.0
H1089 H 0.83464 0.45705 0.36554 0.0
H1090 H 0.85743 0.49721 0.29559 0.0
H1091 H 0.84954 0.46304 0.26545 0.0
C1092 C 0.90183 0.35563 0.2271 0.0
C1093 C 0.90197 0.3587 0.19848 0.0
C1094 C 0.88472 0.36692 0.24318 0.0
C1095 C 0.86785 0.38172 0.23092 0.0
C1096 C 0.86892 0.386 0.20264 0.0
C1097 C 0.88565 0.37433 0.18646 0.0
C1098 C 0.84789 0.39096 0.24725 0.0
C1099 C 0.85122 0.41095 0.26384 0.0
C1100 C 0.82579 0.37932 0.24725 0.0
C1101 C 0.82158 0.35792 0.23055 0.0
C1102 C 0.81772 0.3598 0.20218 0.0
C1103 C 0.81397 0.33947 0.18643 0.0
C1104 C 0.81373 0.31722 0.19894 0.0
C1105 C 0.81722 0.31526 0.22724 0.0
C1106 C 0.82112 0.33554 0.24304 0.0
C1107 C 0.75921 0.44665 0.3021 0.0
C1108 C 0.74839 0.43244 0.32221 0.0
C1109 C 0.77992 0.43911 0.28903 0.0
C1110 C 0.78995 0.41712 0.29559 0.0
C1111 C 0.77944 0.40308 0.31594 0.0
C1112 C 0.759 0.41077 0.32934 0.0
C1113 C 0.81056 0.4081 0.28005 0.0
C1114 C 0.80743 0.38791 0.26373 0.0
C1115 C 0.83278 0.41967 0.28036 0.0
C1116 C 0.83738 0.44032 0.29837 0.0
C1117 C 0.83336 0.43882 0.32679 0.0
C1118 C 0.83781 0.4583 0.34369 0.0
C1119 C 0.84645 0.47934 0.33244 0.0
C1120 C 0.8507 0.48092 0.30427 0.0
C1121 C 0.84625 0.46149 0.28727 0.0
H1122 H 0.8499 0.49439 0.34557 0.0
H1123 H 0.81077 0.3015 0.18673 0.0
H1124 H 0.04545 0.74564 0.77124 0.0
H1125 H 0.05662 0.78059 0.74465 0.0
H1126 H 0.07814 0.81607 0.81886 0.0
H1127 H 0.067 0.78128 0.84566 0.0
H1128 H 0.05702 0.84689 0.77957 0.0
H1129 H 0.11828 0.78735 0.78609 0.0
H1130 H 0.134 0.74681 0.78172 0.0
H1131 H 0.11874 0.74742 0.69545 0.0
H1132 H 0.10257 0.78786 0.69941 0.0
H1133 H 0.14727 0.92491 0.73005 0.0
H1134 H 0.12217 0.89648 0.75426 0.0
H1135 H 0.11113 0.85818 0.67879 0.0
H1136 H 0.1365 0.8861 0.65462 0.0
H1137 H 0.12433 0.82913 0.71751 0.0
H1138 H 0.06646 0.8905 0.7099 0.0
H1139 H 0.0506 0.93096 0.71442 0.0
H1140 H 0.05919 0.92748 0.80182 0.0
H1141 H 0.07544 0.88711 0.7978 0.0
C1142 C 0.05202 0.76106 0.78202 0.0
C1143 C 0.05572 0.7605 0.81053 0.0
C1144 C 0.05841 0.78102 0.76677 0.0
C1145 C 0.0685 0.80075 0.77979 0.0
C1146 C 0.07043 0.80099 0.80844 0.0
C1147 C 0.0642 0.78101 0.82369 0.0
C1148 C 0.07981 0.81973 0.76343 0.0
C1149 C 0.07181 0.84313 0.76606 0.0
C1150 C 0.09889 0.81466 0.74561 0.0
C1151 C 0.10897 0.79051 0.7431 0.0
C1152 C 0.11812 0.77877 0.76623 0.0
C1153 C 0.12713 0.75582 0.76382 0.0
C1154 C 0.1273 0.74451 0.73834 0.0
C1155 C 0.11855 0.75618 0.71519 0.0
C1156 C 0.10946 0.77911 0.71749 0.0
C1157 C 0.13923 0.91063 0.71853 0.0
C1158 C 0.1441 0.90767 0.69044 0.0
C1159 C 0.12479 0.89444 0.73239 0.0
C1160 C 0.11469 0.87521 0.71832 0.0
C1161 C 0.11881 0.8728 0.69009 0.0
C1162 C 0.13334 0.88881 0.67631 0.0
C1163 C 0.10148 0.85651 0.73329 0.0
C1164 C 0.10932 0.83304 0.73063 0.0
C1165 C 0.08227 0.86161 0.75099 0.0
C1166 C 0.07238 0.88584 0.75351 0.0
C1167 C 0.06515 0.89843 0.73007 0.0
C1168 C 0.05605 0.92133 0.73254 0.0
C1169 C 0.05394 0.93181 0.75838 0.0
C1170 C 0.06086 0.91936 0.78181 0.0
C1171 C 0.06999 0.89645 0.77945 0.0
H1172 H 0.0469 0.94955 0.76026 0.0
H1173 H 0.13426 0.72674 0.73652 0.0
H1174 H 0.57226 0.14172 0.22786 0.0
H1175 H 0.5994 0.11783 0.25553 0.0
H1176 H 0.65021 0.11842 0.18953 0.0
H1177 H 0.62328 0.14189 0.16166 0.0
H1178 H 0.64775 0.07518 0.21414 0.0
H1179 H 0.65362 0.15803 0.24278 0.0
H1180 H 0.637 0.19519 0.26112 0.0
H1181 H 0.61478 0.15886 0.33408 0.0
H1182 H 0.63104 0.12144 0.31601 0.0
H1183 H 0.76101 0.05958 0.26973 0.0
H1184 H 0.72427 0.07117 0.24734 0.0
H1185 H 0.68979 0.07578 0.32622 0.0
H1186 H 0.72714 0.06559 0.3488 0.0
H1187 H 0.67825 0.1117 0.29961 0.0
H1188 H 0.67754 0.03025 0.27535 0.0
H1189 H 0.69308 0.99238 0.25783 0.0
H1190 H 0.70351 0.02353 0.17842 0.0
H1191 H 0.68833 0.06168 0.19553 0.0
C1192 C 0.58911 0.13656 0.21909 0.0
C1193 C 0.59566 0.14398 0.19259 0.0
C1194 C 0.6046 0.12294 0.23499 0.0
C1195 C 0.62694 0.1166 0.2247 0.0
C1196 C 0.63307 0.12312 0.19788 0.0
C1197 C 0.61765 0.13667 0.182 0.0
C1198 C 0.64466 0.10443 0.24214 0.0
C1199 C 0.65451 0.08311 0.23283 0.0
C1200 C 0.65283 0.11438 0.26702 0.0
C1201 C 0.64331 0.13693 0.27793 0.0
C1202 C 0.64506 0.15796 0.26266 0.0
C1203 C 0.63573 0.17906 0.27301 0.0
C1204 C 0.62478 0.17937 0.29871 0.0
C1205 C 0.62322 0.15859 0.31416 0.0
C1206 C 0.63251 0.13744 0.30388 0.0
C1207 C 0.74551 0.06274 0.28227 0.0
C1208 C 0.74691 0.06168 0.31099 0.0
C1209 C 0.72439 0.0692 0.26943 0.0
C1210 C 0.70397 0.07394 0.28497 0.0
C1211 C 0.70522 0.07221 0.31371 0.0
C1212 C 0.72654 0.06635 0.32661 0.0
C1213 C 0.682 0.08255 0.27133 0.0
C1214 C 0.6713 0.10329 0.2813 0.0
C1215 C 0.67285 0.07185 0.24724 0.0
C1216 C 0.68189 0.04888 0.2368 0.0
C1217 C 0.68327 0.02907 0.25419 0.0
C1218 C 0.692 0.00754 0.24432 0.0
C1219 C 0.69931 0.00556 0.21704 0.0
C1220 C 0.69784 0.02509 0.19954 0.0
C1221 C 0.68913 0.04666 0.20931 0.0
H1222 H 0.70608 0.98888 0.20945 0.0
H1223 H 0.61755 0.19572 0.30669 0.0
H1224 H 0.44835 0.74929 0.22952 0.0
H1225 H 0.43579 0.7853 0.25328 0.0
H1226 H 0.42489 0.82006 0.17562 0.0
H1227 H 0.43681 0.78384 0.15155 0.0
H1228 H 0.4481 0.84808 0.22675 0.0
H1229 H 0.37964 0.80775 0.19112 0.0
H1230 H 0.3542 0.77347 0.18074 0.0
H1231 H 0.35045 0.75646 0.26647 0.0
H1232 H 0.37623 0.79053 0.27731 0.0
H1233 H 0.36188 0.93453 0.27464 0.0
H1234 H 0.38585 0.90657 0.24813 0.0
H1235 H 0.38303 0.85674 0.31504 0.0
H1236 H 0.35921 0.88432 0.34162 0.0
H1237 H 0.36753 0.83829 0.26572 0.0
H1238 H 0.43369 0.88375 0.30014 0.0
H1239 H 0.45658 0.92033 0.3076 0.0
H1240 H 0.46257 0.93028 0.22056 0.0
H1241 H 0.43942 0.8939 0.21258 0.0
C1242 C 0.44381 0.76474 0.21747 0.0
C1243 C 0.44335 0.76369 0.18868 0.0
C1244 C 0.43666 0.78528 0.23107 0.0
C1245 C 0.42944 0.80521 0.21613 0.0
C1246 C 0.43053 0.80483 0.18742 0.0
C1247 C 0.43719 0.78411 0.17377 0.0
C1248 C 0.41791 0.82507 0.23053 0.0
C1249 C 0.43039 0.84617 0.23504 0.0
C1250 C 0.39488 0.82241 0.24129 0.0
C1251 C 0.38012 0.80144 0.23496 0.0
C1252 C 0.37372 0.79647 0.20771 0.0
C1253 C 0.35916 0.77716 0.20176 0.0
C1254 C 0.35075 0.7628 0.22293 0.0
C1255 C 0.35701 0.76761 0.2501 0.0
C1256 C 0.3716 0.78691 0.25616 0.0
C1257 C 0.36667 0.91777 0.2839 0.0
C1258 C 0.35835 0.9116 0.31018 0.0
C1259 C 0.38044 0.90187 0.26874 0.0
C1260 C 0.38613 0.8796 0.27964 0.0
C1261 C 0.37874 0.87383 0.30625 0.0
C1262 C 0.3651 0.88967 0.32142 0.0
C1263 C 0.39781 0.86133 0.26261 0.0
C1264 C 0.38526 0.84039 0.25751 0.0
C1265 C 0.42055 0.86446 0.25098 0.0
C1266 C 0.43461 0.88623 0.25577 0.0
C1267 C 0.43971 0.89384 0.28259 0.0
C1268 C 0.45277 0.91452 0.28691 0.0
C1269 C 0.46097 0.92766 0.26457 0.0
C1270 C 0.45618 0.9201 0.23785 0.0
C1271 C 0.44311 0.89944 0.23342 0.0
H1272 H 0.47108 0.94367 0.26795 0.0
H1273 H 0.33921 0.74809 0.21825 0.0
H1274 H 0.74225 0.46401 0.6928 0.0
H1275 H 0.70458 0.45238 0.71401 0.0
H1276 H 0.72221 0.3788 0.70111 0.0
H1277 H 0.7587 0.39053 0.67823 0.0
H1278 H 0.67946 0.38273 0.69056 0.0
H1279 H 0.72752 0.41213 0.76657 0.0
H1280 H 0.75038 0.44225 0.79192 0.0
H1281 H 0.68972 0.48802 0.79324 0.0
H1282 H 0.66659 0.45824 0.76767 0.0
H1283 H 0.63034 0.33607 0.82124 0.0
H1284 H 0.658 0.35946 0.7942 0.0
H1285 H 0.60054 0.38532 0.7444 0.0
H1286 H 0.57247 0.36154 0.77114 0.0
H1287 H 0.65701 0.41111 0.78323 0.0
H1288 H 0.61389 0.37923 0.69511 0.0
H1289 H 0.59385 0.34477 0.67423 0.0
H1290 H 0.64961 0.29922 0.70251 0.0
H1291 H 0.66973 0.33343 0.72382 0.0
C1292 C 0.73793 0.4454 0.69457 0.0
C1293 C 0.75326 0.42813 0.68396 0.0
C1294 C 0.71648 0.43873 0.70678 0.0
C1295 C 0.71054 0.41464 0.70955 0.0
C1296 C 0.72613 0.39749 0.69908 0.0
C1297 C 0.74708 0.40417 0.68614 0.0
C1298 C 0.68835 0.40685 0.7234 0.0
C1299 C 0.67455 0.38925 0.7107 0.0
C1300 C 0.68151 0.41527 0.74966 0.0
C1301 C 0.69545 0.43312 0.76494 0.0
C1302 C 0.71913 0.42869 0.77212 0.0
C1303 C 0.73211 0.44568 0.78655 0.0
C1304 C 0.72153 0.46707 0.7941 0.0
C1305 C 0.69791 0.47147 0.78732 0.0
C1306 C 0.68486 0.45455 0.77288 0.0
C1307 C 0.62343 0.34675 0.80461 0.0
C1308 C 0.59913 0.34681 0.79831 0.0
C1309 C 0.63932 0.36015 0.78922 0.0
C1310 C 0.63131 0.37395 0.76724 0.0
C1311 C 0.60707 0.3745 0.76109 0.0
C1312 C 0.59108 0.36094 0.77643 0.0
C1313 C 0.64879 0.38698 0.75048 0.0
C1314 C 0.66168 0.40536 0.76269 0.0
C1315 C 0.65509 0.37911 0.72405 0.0
C1316 C 0.64313 0.35873 0.71112 0.0
C1317 C 0.62176 0.36182 0.69691 0.0
C1318 C 0.61041 0.34236 0.68504 0.0
C1319 C 0.62043 0.31981 0.68709 0.0
C1320 C 0.64184 0.31668 0.70099 0.0
C1321 C 0.65319 0.33607 0.71299 0.0
H1322 H 0.61163 0.30477 0.67787 0.0
H1323 H 0.73161 0.48019 0.80527 0.0
H1324 H 0.13808 0.6145 0.33342 0.0
H1325 H 0.11332 0.64052 0.30589 0.0
H1326 H 0.11954 0.59287 0.23717 0.0
H1327 H 0.14466 0.56665 0.26456 0.0
H1328 H 0.12977 0.63795 0.22311 0.0
H1329 H 0.06682 0.59896 0.26961 0.0
H1330 H 0.04536 0.58282 0.30945 0.0
H1331 H 0.03947 0.65256 0.34373 0.0
H1332 H 0.06121 0.6691 0.30429 0.0
H1333 H 0.06227 0.71911 0.14646 0.0
H1334 H 0.07233 0.68156 0.1685 0.0
H1335 H 0.06754 0.715 0.2479 0.0
H1336 H 0.05638 0.75224 0.22601 0.0
H1337 H 0.05254 0.6715 0.25196 0.0
H1338 H 0.12152 0.70879 0.21103 0.0
H1339 H 0.14461 0.72564 0.17277 0.0
H1340 H 0.14044 0.65949 0.1297 0.0
H1341 H 0.11709 0.64234 0.1676 0.0
C1342 C 0.13402 0.60933 0.31256 0.0
C1343 C 0.14353 0.5885 0.30119 0.0
C1344 C 0.11968 0.62419 0.29688 0.0
C1345 C 0.1144 0.61854 0.26954 0.0
C1346 C 0.12334 0.5975 0.25827 0.0
C1347 C 0.13766 0.58253 0.27399 0.0
C1348 C 0.10125 0.63571 0.25229 0.0
C1349 C 0.1126 0.64488 0.22903 0.0
C1350 C 0.0791 0.64509 0.26037 0.0
C1351 C 0.06577 0.63526 0.28402 0.0
C1352 C 0.06108 0.61085 0.28572 0.0
C1353 C 0.04884 0.60163 0.30823 0.0
C1354 C 0.04108 0.61665 0.32913 0.0
C1355 C 0.04549 0.64094 0.32752 0.0
C1356 C 0.05773 0.65026 0.30506 0.0
C1357 C 0.06302 0.71833 0.16863 0.0
C1358 C 0.05886 0.73867 0.18451 0.0
C1359 C 0.06885 0.69688 0.18121 0.0
C1360 C 0.07133 0.69557 0.20985 0.0
C1361 C 0.06585 0.71555 0.22578 0.0
C1362 C 0.05952 0.73687 0.21324 0.0
C1363 C 0.08136 0.67413 0.22318 0.0
C1364 C 0.06946 0.66421 0.24572 0.0
C1365 C 0.10315 0.66415 0.21462 0.0
C1366 C 0.11736 0.67439 0.19198 0.0
C1367 C 0.12543 0.6979 0.19333 0.0
C1368 C 0.13857 0.70749 0.17172 0.0
C1369 C 0.14393 0.69367 0.14878 0.0
C1370 C 0.13623 0.67019 0.14745 0.0
C1371 C 0.12306 0.66052 0.16899 0.0
H1372 H 0.15409 0.70113 0.13207 0.0
H1373 H 0.03162 0.60947 0.34655 0.0
H1374 H 0.88988 0.12278 0.83133 0.0
H1375 H 0.8616 0.10183 0.80196 0.0
H1376 H 0.88897 0.13845 0.73118 0.0
H1377 H 0.91788 0.15895 0.76031 0.0
H1378 H 0.83614 0.14233 0.74606 0.0
H1379 H 0.89911 0.08795 0.72675 0.0
H1380 H 0.9316 0.06078 0.7388 0.0
H1381 H 0.88285 0.01626 0.7824 0.0
H1382 H 0.85009 0.04341 0.77099 0.0
H1383 H 0.7625 0.09177 0.64669 0.0
H1384 H 0.79868 0.10372 0.67003 0.0
H1385 H 0.7827 0.05632 0.7368 0.0
H1386 H 0.74625 0.04407 0.71353 0.0
H1387 H 0.83139 0.05694 0.72269 0.0
H1388 H 0.76938 0.11121 0.74528 0.0
H1389 H 0.73632 0.13852 0.73595 0.0
H1390 H 0.78265 0.18338 0.68935 0.0
H1391 H 0.81594 0.15613 0.69808 0.0
C1392 C 0.89018 0.126 0.80943 0.0
C1393 C 0.906 0.14252 0.79807 0.0
C1394 C 0.8741 0.11399 0.79272 0.0
C1395 C 0.87329 0.11865 0.7645 0.0
C1396 C 0.88949 0.13459 0.75294 0.0
C1397 C 0.906 0.1462 0.76956 0.0
C1398 C 0.85392 0.10869 0.74778 0.0
C1399 C 0.83529 0.12376 0.74044 0.0
C1400 C 0.85257 0.08432 0.74146 0.0
C1401 C 0.87218 0.06787 0.74828 0.0
C1402 C 0.89535 0.07251 0.73917 0.0
C1403 C 0.91381 0.05708 0.74582 0.0
C1404 C 0.90931 0.03684 0.76143 0.0
C1405 C 0.88631 0.03196 0.77035 0.0
C1406 C 0.86779 0.04736 0.76377 0.0
C1407 C 0.76667 0.08366 0.66622 0.0
C1408 C 0.75123 0.06715 0.67837 0.0
C1409 C 0.78742 0.09052 0.67952 0.0
C1410 C 0.79322 0.08109 0.70525 0.0
C1411 C 0.77851 0.0638 0.71693 0.0
C1412 C 0.75763 0.05694 0.70365 0.0
C1413 C 0.81368 0.09068 0.72069 0.0
C1414 C 0.83236 0.07555 0.72802 0.0
C1415 C 0.81504 0.11502 0.72734 0.0
C1416 C 0.79509 0.13149 0.72207 0.0
C1417 C 0.77247 0.12679 0.73283 0.0
C1418 C 0.7537 0.14227 0.7277 0.0
C1419 C 0.75736 0.16263 0.712 0.0
C1420 C 0.77983 0.16758 0.70147 0.0
C1421 C 0.79866 0.15213 0.70651 0.0
H1422 H 0.74281 0.17461 0.70805 0.0
H1423 H 0.92363 0.02491 0.76656 0.0
H1424 H 0.48179 0.21948 0.11178 0.0
H1425 H 0.4752 0.23873 0.0672 0.0
H1426 H 0.54887 0.22911 0.04703 0.0
H1427 H 0.55545 0.20938 0.09096 0.0
H1428 H 0.5269 0.27769 0.03902 0.0
H1429 H 0.51616 0.19258 0.02056 0.0
H1430 H 0.49598 0.15448 0.02842 0.0
H1431 H 0.4293 0.18617 0.00756 0.0
H1432 H 0.44909 0.22458 -3e-05 0.0
H1433 H 0.55598 0.29015 0.90321 0.0
H1434 H 0.54927 0.27551 0.94945 0.0
H1435 H 0.47415 0.27218 0.9338 0.0
H1436 H 0.48096 0.28611 0.88672 0.0
H1437 H 0.48748 0.23499 0.96264 0.0
H1438 H 0.4971 0.31734 0.97244 0.0
H1439 H 0.51471 0.35679 0.96542 0.0
H1440 H 0.57884 0.33378 0.00438 0.0
H1441 H 0.56177 0.29406 0.01127 0.0
C1442 C 0.49655 0.22155 0.09781 0.0
C1443 C 0.51912 0.21294 0.10469 0.0
C1444 C 0.49275 0.23248 0.07246 0.0
C1445 C 0.51158 0.23525 0.05405 0.0
C1446 C 0.53418 0.22709 0.06113 0.0
C1447 C 0.53788 0.21578 0.08614 0.0
C1448 C 0.508 0.24632 0.02705 0.0
C1449 C 0.51831 0.26845 0.02224 0.0
C1450 C 0.49582 0.2346 0.00572 0.0
C1451 C 0.48404 0.21149 0.01006 0.0
C1452 C 0.49717 0.19148 0.01792 0.0
C1453 C 0.48581 0.16982 0.02226 0.0
C1454 C 0.46135 0.16792 0.01859 0.0
C1455 C 0.44822 0.18768 0.01046 0.0
C1456 C 0.4595 0.20938 0.00613 0.0
C1457 C 0.53804 0.28621 0.90952 0.0
C1458 C 0.51896 0.28945 0.89151 0.0
C1459 C 0.53419 0.27799 0.93603 0.0
C1460 C 0.51114 0.27341 0.94533 0.0
C1461 C 0.49206 0.27585 0.9271 0.0
C1462 C 0.49596 0.28378 0.90028 0.0
C1463 C 0.50741 0.26602 0.97413 0.0
C1464 C 0.49563 0.24462 0.97941 0.0
C1465 C 0.51779 0.27871 0.99611 0.0
C1466 C 0.52816 0.30266 0.99227 0.0
C1467 C 0.51501 0.32064 0.97938 0.0
C1468 C 0.52489 0.34306 0.97543 0.0
C1469 C 0.54789 0.34778 0.98442 0.0
C1470 C 0.56103 0.3301 0.99743 0.0
C1471 C 0.55123 0.30763 0.00141 0.0
H1472 H 0.55551 0.36515 0.98134 0.0
H1473 H 0.45259 0.15114 0.02196 0.0
H1474 H 0.18447 0.53546 0.41166 0.0
H1475 H 0.20091 0.53054 0.45751 0.0
H1476 H 0.25766 0.48818 0.42437 0.0
H1477 H 0.24066 0.49234 0.37824 0.0
H1478 H 0.24334 0.4717 0.47435 0.0
H1479 H 0.26645 0.54592 0.43511 0.0
H1480 H 0.25959 0.58403 0.41178 0.0
H1481 H 0.21607 0.60716 0.47883 0.0
H1482 H 0.22236 0.56901 0.50235 0.0
H1483 H 0.31776 0.53918 0.58504 0.0
H1484 H 0.30171 0.53405 0.53915 0.0
H1485 H 0.24688 0.4887 0.57144 0.0
H1486 H 0.26356 0.49313 0.61765 0.0
H1487 H 0.26176 0.54772 0.52062 0.0
H1488 H 0.22824 0.45072 0.52033 0.0
H1489 H 0.23842 0.41224 0.54114 0.0
H1490 H 0.3107 0.43445 0.54988 0.0
H1491 H 0.30102 0.47292 0.52879 0.0
C1492 C 0.20035 0.52494 0.41415 0.0
C1493 C 0.21156 0.51458 0.39145 0.0
C1494 C 0.20967 0.52208 0.44034 0.0
C1495 C 0.23071 0.50937 0.4442 0.0
C1496 C 0.24141 0.4981 0.42174 0.0
C1497 C 0.23181 0.50061 0.39546 0.0
C1498 C 0.24243 0.50971 0.47126 0.0
C1499 C 0.24742 0.48826 0.48455 0.0
C1500 C 0.24815 0.53136 0.4842 0.0
C1501 C 0.24474 0.55454 0.47039 0.0
C1502 C 0.25533 0.55909 0.44481 0.0
C1503 C 0.25154 0.5807 0.43155 0.0
C1504 C 0.23737 0.59799 0.4438 0.0
C1505 C 0.22703 0.59374 0.46936 0.0
C1506 C 0.23072 0.57214 0.48268 0.0
C1507 C 0.30236 0.52799 0.58239 0.0
C1508 C 0.2918 0.51663 0.60486 0.0
C1509 C 0.29321 0.52507 0.55614 0.0
C1510 C 0.27315 0.51096 0.55183 0.0
C1511 C 0.26261 0.49938 0.57424 0.0
C1512 C 0.27203 0.50203 0.6006 0.0
C1513 C 0.2627 0.50967 0.52404 0.0
C1514 C 0.25779 0.53106 0.51057 0.0
C1515 C 0.25776 0.48795 0.51074 0.0
C1516 C 0.26382 0.4648 0.52326 0.0
C1517 C 0.24631 0.44736 0.52662 0.0
C1518 C 0.252 0.42556 0.53847 0.0
C1519 C 0.27517 0.42094 0.54691 0.0
C1520 C 0.29273 0.43809 0.54343 0.0
C1521 C 0.28715 0.45991 0.53157 0.0
H1522 H 0.27953 0.40405 0.55609 0.0
H1523 H 0.23444 0.61471 0.43349 0.0
H1524 H 0.95298 0.31963 0.08345 0.0
H1525 H 0.95637 0.29988 0.03909 0.0
H1526 H 0.00428 0.24875 0.0744 0.0
H1527 H 0.00175 0.26918 0.11863 0.0
H1528 H 0.01822 0.25902 0.02481 0.0
H1529 H 0.94515 0.23613 0.06546 0.0
H1530 H 0.90665 0.2423 0.08816 0.0
H1531 H 0.88136 0.2802 0.01766 0.0
H1532 H 0.91987 0.27459 0.99471 0.0
H1533 H 0.95343 0.17974 0.91509 0.0
H1534 H 0.95655 0.19695 0.96084 0.0
H1535 H 0.0039 0.25052 0.92948 0.0
H1536 H 0.00176 0.2325 0.8839 0.0
H1537 H 0.94313 0.23606 0.97929 0.0
H1538 H 0.03995 0.27135 0.97899 0.0
H1539 H 0.07888 0.2604 0.95994 0.0
H1540 H 0.05722 0.18767 0.95543 0.0
H1541 H 0.01829 0.19812 0.97479 0.0
C1542 C 0.96436 0.30427 0.08168 0.0
C1543 C 0.97694 0.29575 0.10442 0.0
C1544 C 0.96624 0.29298 0.05638 0.0
C1545 C 0.98019 0.27256 0.0536 0.0
C1546 C 0.99337 0.26445 0.07612 0.0
C1547 C 0.99185 0.27605 0.10136 0.0
C1548 C 0.98017 0.2592 0.02749 0.0
C1549 C 0.00184 0.25394 0.01483 0.0
C1550 C 0.9588 0.25199 0.01491 0.0
C1551 C 0.93546 0.25509 0.02845 0.0
C1552 C 0.93142 0.24589 0.05485 0.0
C1553 C 0.9096 0.24929 0.06776 0.0
C1554 C 0.89158 0.26167 0.05437 0.0
C1555 C 0.89534 0.27063 0.02801 0.0
C1556 C 0.91716 0.26733 0.01503 0.0
C1557 C 0.96467 0.19507 0.91805 0.0
C1558 C 0.97741 0.2048 0.89609 0.0
C1559 C 0.96641 0.20492 0.94417 0.0
C1560 C 0.98061 0.22493 0.94872 0.0
C1561 C 0.99327 0.23476 0.92667 0.0
C1562 C 0.99193 0.22457 0.90061 0.0
C1563 C 0.98121 0.23604 0.97626 0.0
C1564 C 0.95959 0.24098 0.98922 0.0
C1565 C 0.00267 0.24208 0.98956 0.0
C1566 C 0.02611 0.23558 0.97809 0.0
C1567 C 0.04353 0.25301 0.97403 0.0
C1568 C 0.06559 0.24689 0.96316 0.0
C1569 C 0.07049 0.22337 0.9564 0.0
C1570 C 0.05337 0.2059 0.96057 0.0
C1571 C 0.03129 0.21192 0.97146 0.0
H1572 H 0.08758 0.21867 0.94797 0.0
H1573 H 0.8747 0.26429 0.0644 0.0
H1574 H 0.27829 0.02531 0.38429 0.0
H1575 H 0.26049 0.03332 0.42941 0.0
H1576 H 0.26977 0.96009 0.45176 0.0
H1577 H 0.28809 0.95209 0.40732 0.0
H1578 H 0.21904 0.9924 0.4586 0.0
H1579 H 0.30564 0.97868 0.48161 0.0
H1580 H 0.34737 0.98959 0.47353 0.0
H1581 H 0.3306 0.06274 0.48752 0.0
H1582 H 0.2887 0.0522 0.49535 0.0
H1583 H 0.20506 0.95108 0.58967 0.0
H1584 H 0.21914 0.9602 0.54375 0.0
H1585 H 0.23832 0.0306 0.56994 0.0
H1586 H 0.22463 0.0213 0.61656 0.0
H1587 H 0.27163 0.01224 0.53692 0.0
H1588 H 0.1892 0.02334 0.53156 0.0
H1589 H 0.14689 0.01479 0.53885 0.0
H1590 H 0.15282 0.95207 0.48963 0.0
H1591 H 0.19526 0.96002 0.48238 0.0
C1592 C 0.27636 0.01094 0.39882 0.0
C1593 C 0.2846 0.98811 0.39248 0.0
C1594 C 0.26629 0.01555 0.42447 0.0
C1595 C 0.26404 0.99728 0.44369 0.0
C1596 C 0.27154 0.97437 0.43706 0.0
C1597 C 0.28199 0.96985 0.41175 0.0
C1598 C 0.25429 0.00173 0.47113 0.0
C1599 C 0.23037 0.99687 0.4758 0.0
C1600 C 0.26901 0.00848 0.49313 0.0
C1601 C 0.29412 0.01471 0.48877 0.0
C1602 C 0.31087 0.99709 0.48275 0.0
C1603 C 0.33453 0.0032 0.47826 0.0
C1604 C 0.34162 0.02685 0.47993 0.0
C1605 C 0.32508 0.04443 0.48618 0.0
C1606 C 0.30139 0.03841 0.49064 0.0
C1607 C 0.21236 0.96848 0.58576 0.0
C1608 C 0.21358 0.98556 0.60659 0.0
C1609 C 0.22025 0.97373 0.55945 0.0
C1610 C 0.22916 0.99629 0.55328 0.0
C1611 C 0.23124 0.01317 0.57426 0.0
C1612 C 0.22347 0.00784 0.60081 0.0
C1613 C 0.23643 0.00168 0.52483 0.0
C1614 C 0.25993 0.00845 0.51984 0.0
C1615 C 0.22109 0.99711 0.50245 0.0
C1616 C 0.19548 0.99226 0.5065 0.0
C1617 C 0.18153 0.00765 0.52241 0.0
C1618 C 0.15751 0.00291 0.52653 0.0
C1619 C 0.14718 0.98289 0.51473 0.0
C1620 C 0.16085 0.96758 0.49874 0.0
C1621 C 0.18488 0.97222 0.49458 0.0
H1622 H 0.12858 0.97925 0.51795 0.0
H1623 H 0.35995 0.03155 0.47645 0.0
H1624 H 0.45047 0.78931 0.90688 0.0
H1625 H 0.45837 0.77531 0.95312 0.0
H1626 H 0.53248 0.76783 0.93353 0.0
H1627 H 0.52446 0.78127 0.88648 0.0
H1628 H 0.51758 0.73163 0.96476 0.0
H1629 H 0.51461 0.81483 0.97118 0.0
H1630 H 0.49955 0.85516 0.96301 0.0
H1631 H 0.4355 0.83817 0.00611 0.0
H1632 H 0.45 0.79761 0.01419 0.0
H1633 H 0.52549 0.7196 0.11481 0.0
H1634 H 0.5331 0.73695 0.06936 0.0
H1635 H 0.45858 0.73332 0.05082 0.0
H1636 H 0.45094 0.71547 0.09553 0.0
H1637 H 0.48455 0.77961 0.04099 0.0
H1638 H 0.48727 0.69346 0.0251 0.0
H1639 H 0.50423 0.65389 0.03346 0.0
H1640 H 0.57284 0.67911 0.00934 0.0
H1641 H 0.5563 0.71894 0.00122 0.0
C1642 C 0.46844 0.78458 0.91229 0.0
C1643 C 0.4869 0.78659 0.89321 0.0
C1644 C 0.47297 0.7767 0.93879 0.0
C1645 C 0.49612 0.77118 0.94697 0.0
C1646 C 0.51453 0.77226 0.92767 0.0
C1647 C 0.50993 0.77991 0.90088 0.0
C1648 C 0.50065 0.76448 0.97583 0.0
C1649 C 0.51089 0.74238 0.98148 0.0
C1650 C 0.49216 0.77862 0.9977 0.0
C1651 C 0.48339 0.80312 0.99321 0.0
C1652 C 0.49726 0.81964 0.9788 0.0
C1653 C 0.48882 0.84255 0.97419 0.0
C1654 C 0.46657 0.84922 0.98402 0.0
C1655 C 0.45273 0.83299 0.99853 0.0
C1656 C 0.46108 0.81004 0.00317 0.0
C1657 C 0.51078 0.72258 0.101 0.0
C1658 C 0.48763 0.71621 0.10859 0.0
C1659 C 0.51516 0.73241 0.07516 0.0
C1660 C 0.49636 0.73635 0.05696 0.0
C1661 C 0.47325 0.7304 0.06473 0.0
C1662 C 0.46894 0.72016 0.09021 0.0
C1663 C 0.50038 0.74645 0.02954 0.0
C1664 C 0.49182 0.76924 0.02426 0.0
C1665 C 0.51081 0.73316 0.00819 0.0
C1666 C 0.52064 0.70922 0.01293 0.0
C1667 C 0.50602 0.69062 0.02186 0.0
C1668 C 0.51554 0.66814 0.02649 0.0
C1669 C 0.53962 0.66401 0.02204 0.0
C1670 C 0.55421 0.68234 0.01285 0.0
C1671 C 0.54477 0.70487 0.00823 0.0
H1672 H 0.54696 0.64659 0.02563 0.0
H1673 H 0.46006 0.86696 0.98041 0.0
H1674 H 0.81737 0.45601 0.58254 0.0
H1675 H 0.79934 0.46153 0.53762 0.0
H1676 H 0.75038 0.51206 0.57216 0.0
H1677 H 0.76904 0.50718 0.61719 0.0
H1678 H 0.75771 0.45141 0.52134 0.0
H1679 H 0.73301 0.55132 0.52251 0.0
H1680 H 0.74818 0.58878 0.54167 0.0
H1681 H 0.81829 0.55962 0.54487 0.0
H1682 H 0.80362 0.52213 0.52538 0.0
H1683 H 0.6759 0.46886 0.4179 0.0
H1684 H 0.69484 0.47279 0.46264 0.0
H1685 H 0.75221 0.51184 0.42564 0.0
H1686 H 0.73273 0.50876 0.3808 0.0
H1687 H 0.74278 0.52864 0.47603 0.0
H1688 H 0.75745 0.45307 0.43557 0.0
H1689 H 0.74645 0.41561 0.41296 0.0
H1690 H 0.70549 0.39553 0.48341 0.0
H1691 H 0.71593 0.43306 0.50627 0.0
C1692 C 0.80285 0.46841 0.58055 0.0
C1693 C 0.79455 0.48115 0.60331 0.0
C1694 C 0.79255 0.47154 0.55487 0.0
C1695 C 0.77359 0.48729 0.55147 0.0
C1696 C 0.76526 0.50011 0.5742 0.0
C1697 C 0.77582 0.49722 0.59992 0.0
C1698 C 0.76194 0.48926 0.52436 0.0
C1699 C 0.75449 0.46833 0.51149 0.0
C1700 C 0.7581 0.51128 0.51122 0.0
C1701 C 0.76714 0.53383 0.52277 0.0
C1702 C 0.75167 0.55293 0.52722 0.0
C1703 C 0.76019 0.57417 0.53815 0.0
C1704 C 0.78417 0.57655 0.54457 0.0
C1705 C 0.7997 0.55773 0.54 0.0
C1706 C 0.79129 0.53647 0.52905 0.0
C1707 C 0.69239 0.47856 0.41938 0.0
C1708 C 0.70308 0.48824 0.39596 0.0
C1709 C 0.70318 0.4808 0.44491 0.0
C1710 C 0.72516 0.49215 0.44731 0.0
C1711 C 0.73527 0.50295 0.42417 0.0
C1712 C 0.72422 0.5011 0.39862 0.0
C1713 C 0.7384 0.49084 0.47342 0.0
C1714 C 0.74606 0.5118 0.48603 0.0
C1715 C 0.74324 0.46879 0.48597 0.0
C1716 C 0.73733 0.44595 0.47255 0.0
C1717 C 0.746 0.44071 0.44619 0.0
C1718 C 0.73987 0.41947 0.43332 0.0
C1719 C 0.72525 0.40322 0.44672 0.0
C1720 C 0.7168 0.40814 0.47305 0.0
C1721 C 0.72283 0.42939 0.48598 0.0
H1722 H 0.7205 0.38679 0.43672 0.0
H1723 H 0.79072 0.593 0.55304 0.0
H1724 H 0.98482 0.76769 0.12062 0.0
H1725 H 0.9762 0.75126 0.07509 0.0
H1726 H 0.03261 0.79314 0.04045 0.0
H1727 H 0.04144 0.80939 0.08568 0.0
H1728 H 0.99125 0.79236 0.00779 0.0
H1729 H 0.04487 0.73921 0.05623 0.0
H1730 H 0.05616 0.71368 0.0951 0.0
H1731 H 0.99426 0.67101 0.08217 0.0
H1732 H 0.98251 0.69648 0.0433 0.0
H1733 H 0.04975 0.7038 0.91138 0.0
H1734 H 0.04139 0.72004 0.95654 0.0
H1735 H 0.97048 0.73771 0.93082 0.0
H1736 H 0.97892 0.72169 0.88502 0.0
H1737 H 0.00988 0.7073 0.99462 0.0
H1738 H 0.95522 0.78905 0.96718 0.0
H1739 H 0.948 0.81596 0.92817 0.0
H1740 H 0.01829 0.80306 0.89819 0.0
H1741 H 0.026 0.77633 0.9372 0.0
C1742 C 0.99523 0.77349 0.10322 0.0
C1743 C 0.01391 0.78964 0.10662 0.0
C1744 C 0.99024 0.76418 0.07731 0.0
C1745 C 0.00375 0.77111 0.05453 0.0
C1746 C 0.02189 0.78777 0.0578 0.0
C1747 C 0.02704 0.79685 0.08366 0.0
C1748 C 0.00062 0.75962 0.02763 0.0
C1749 C 0.99491 0.77368 0.00488 0.0
C1750 C 0.00556 0.73532 0.02399 0.0
C1751 C 0.01266 0.7199 0.04714 0.0
C1752 C 0.03358 0.72449 0.06183 0.0
C1753 C 0.04007 0.71002 0.08383 0.0
C1754 C 0.02587 0.6908 0.09121 0.0
C1755 C 0.00521 0.68595 0.07649 0.0
C1756 C 0.99863 0.70038 0.05446 0.0
C1757 C 0.03237 0.71116 0.91524 0.0
C1758 C 0.015 0.71155 0.89468 0.0
C1759 C 0.02757 0.7203 0.94113 0.0
C1760 C 0.00532 0.73 0.94703 0.0
C1761 C 0.98781 0.73038 0.92659 0.0
C1762 C 0.99266 0.72127 0.9005 0.0
C1763 C 0.00113 0.74016 0.97453 0.0
C1764 C 0.0054 0.72581 0.9975 0.0
C1765 C 0.99531 0.7643 0.97827 0.0
C1766 C 0.99104 0.78047 0.95488 0.0
C1767 C 0.96913 0.792 0.95227 0.0
C1768 C 0.96496 0.80722 0.93018 0.0
C1769 C 0.98264 0.81114 0.91066 0.0
C1770 C 0.00457 0.79993 0.91326 0.0
C1771 C 0.00884 0.78473 0.93534 0.0
H1772 H 0.97938 0.82291 0.89356 0.0
H1773 H 0.03093 0.67963 0.10827 0.0
H1774 H 0.68726 0.0446 0.57946 0.0
H1775 H 0.70532 0.03976 0.53449 0.0
H1776 H 0.75038 0.98459 0.56647 0.0
H1777 H 0.7318 0.98896 0.61167 0.0
H1778 H 0.74851 0.0475 0.51978 0.0
H1779 H 0.76402 0.94613 0.51345 0.0
H1780 H 0.74575 0.90917 0.53017 0.0
H1781 H 0.67841 0.944 0.53612 0.0
H1782 H 0.69619 0.98104 0.51908 0.0
H1783 H 0.82462 0.03004 0.41041 0.0
H1784 H 0.80754 0.02499 0.45602 0.0
H1785 H 0.74617 0.9915 0.42027 0.0
H1786 H 0.764 0.99533 0.37455 0.0
H1787 H 0.75546 0.97203 0.46836 0.0
H1788 H 0.74697 0.05135 0.43456 0.0
H1789 H 0.7611 0.08898 0.41482 0.0
H1790 H 0.80572 0.10006 0.48495 0.0
H1791 H 0.79212 0.0623 0.50491 0.0
C1792 C 0.70093 0.03134 0.57694 0.0
C1793 C 0.7082 0.01719 0.59905 0.0
C1794 C 0.71125 0.02861 0.55122 0.0
C1795 C 0.72912 0.01178 0.5471 0.0
C1796 C 0.73637 0.99747 0.56912 0.0
C1797 C 0.72586 1.00006 0.59492 0.0
C1798 C 0.74074 0.01015 0.51997 0.0
C1799 C 0.75004 0.03097 0.5086 0.0
C1800 C 0.74243 0.98866 0.50519 0.0
C1801 C 0.73153 0.96643 0.51531 0.0
C1802 C 0.7453 0.94587 0.51827 0.0
C1803 C 0.73503 0.92491 0.5278 0.0
C1804 C 0.71096 0.92426 0.5343 0.0
C1805 C 0.69708 0.94455 0.53119 0.0
C1806 C 0.70726 0.96554 0.52164 0.0
C1807 C 0.80763 0.02131 0.41237 0.0
C1808 C 0.79539 0.01336 0.38913 0.0
C1809 C 0.79789 0.01844 0.43838 0.0
C1810 C 0.77532 0.00843 0.44145 0.0
C1811 C 0.76357 0.99936 0.41833 0.0
C1812 C 0.77367 0.00165 0.39228 0.0
C1813 C 0.76324 0.00936 0.46837 0.0
C1814 C 0.75396 0.98848 0.47968 0.0
C1815 C 0.76083 0.03096 0.48281 0.0
C1816 C 0.76866 0.05392 0.47112 0.0
C1817 C 0.75987 0.06177 0.44571 0.0
C1818 C 0.76779 0.08312 0.43448 0.0
C1819 C 0.78432 0.09688 0.44861 0.0
C1820 C 0.79292 0.08937 0.47403 0.0
C1821 C 0.7851 0.06801 0.48532 0.0
H1822 H 0.79045 0.11339 0.43987 0.0
H1823 H 0.70304 0.90803 0.54169 0.0
loop_
_geom_bond_atom_site_label_1
_geom_bond_atom_site_label_2
_geom_bond_distance
_geom_bond_site_symmetry_2
_ccdc_geom_bond_type
Co0 O1 2.216 . S
Co0 O2 2.091 . S
Co0 O4 2.004 . S
Co0 O10 2.021 . S
Co0 O12 2.137 . S
Co0 O13 2.244 . S
O1 Co0 2.216 . S
O1 C8 1.247 . S
O2 Co0 2.091 . S
O2 C8 1.261 . S
C3 O12 1.247 . S
C3 O13 1.272 . S
O4 Co0 2.004 . S
O4 C9 1.259 . S
Co5 O6 2.061 . S
Co5 O11 2.052 . S
Co5 O13 2.135 . S
O6 Co5 2.061 . S
O6 C9 1.235 . S
C7 O10 1.238 . S
C7 O11 1.241 . S
C8 O1 1.247 . S
C8 O2 1.261 . S
C9 O4 1.259 . S
C9 O6 1.235 . S
O10 Co0 2.021 . S
O10 C7 1.238 . S
O11 Co5 2.052 . S
O11 C7 1.241 . S
O12 Co0 2.137 . S
O12 C3 1.247 . S
O13 Co0 2.244 . S
O13 C3 1.272 . S
O13 Co5 2.135 . S
Co14 O15 2.216 . S
Co14 O16 2.091 . S
Co14 O18 2.004 . S
Co14 O24 2.021 . S
Co14 O26 2.137 . S
Co14 O27 2.244 . S
O15 Co14 2.216 . S
O15 C22 1.247 . S
O16 Co14 2.091 . S
O16 C22 1.261 . S
C17 O26 1.247 . S
C17 O27 1.272 . S
O18 Co14 2.004 . S
O18 C23 1.259 . S
Co19 O20 2.061 . S
Co19 O25 2.052 . S
Co19 O27 2.135 . S
O20 Co19 2.061 . S
O20 C23 1.235 . S
C21 O24 1.238 . S
C21 O25 1.241 . S
C22 O15 1.247 . S
C22 O16 1.261 . S
C23 O18 1.259 . S
C23 O20 1.235 . S
O24 Co14 2.021 . S
O24 C21 1.238 . S
O25 Co19 2.052 . S
O25 C21 1.241 . S
O26 Co14 2.137 . S
O26 C17 1.247 . S
O27 Co14 2.244 . S
O27 C17 1.272 . S
O27 Co19 2.135 . S
Co28 O29 2.216 1_655 S
Co28 O30 2.091 1_655 S
Co28 O32 2.004 . S
Co28 O38 2.021 . S
Co28 O40 2.137 1_655 S
Co28 O41 2.244 . S
O29 Co28 2.216 1_455 S
O29 C36 1.247 . S
O30 Co28 2.091 1_455 S
O30 C36 1.261 . S
C31 O40 1.247 1_655 S
C31 O41 1.272 . S
O32 Co28 2.004 . S
O32 C37 1.259 . S
Co33 O34 2.061 . S
Co33 O39 2.052 . S
Co33 O41 2.135 . S
O34 Co33 2.061 . S
O34 C37 1.235 . S
C35 O38 1.238 . S
C35 O39 1.241 . S
C36 O29 1.247 . S
C36 O30 1.261 . S
C37 O32 1.259 . S
C37 O34 1.235 . S
O38 Co28 2.021 . S
O38 C35 1.238 . S
O39 Co33 2.052 . S
O39 C35 1.241 . S
O40 Co28 2.137 1_455 S
O40 C31 1.247 1_455 S
O41 Co28 2.244 . S
O41 C31 1.272 . S
O41 Co33 2.135 . S
Co42 O43 2.216 1_565 S
Co42 O44 2.091 1_565 S
Co42 O46 2.004 . S
Co42 O52 2.021 . S
Co42 O54 2.137 1_565 S
Co42 O55 2.244 . S
O43 Co42 2.216 1_545 S
O43 C50 1.247 . S
O44 Co42 2.091 1_545 S
O44 C50 1.261 . S
C45 O54 1.247 1_565 S
C45 O55 1.272 . S
O46 Co42 2.004 . S
O46 C51 1.259 . S
Co47 O48 2.061 . S
Co47 O53 2.052 . S
Co47 O55 2.135 . S
O48 Co47 2.061 . S
O48 C51 1.235 . S
C49 O52 1.238 . S
C49 O53 1.241 . S
C50 O43 1.247 . S
C50 O44 1.261 . S
C51 O46 1.259 . S
C51 O48 1.235 . S
O52 Co42 2.021 . S
O52 C49 1.238 . S
O53 Co47 2.052 . S
O53 C49 1.241 . S
O54 Co42 2.137 1_545 S
O54 C45 1.247 1_545 S
O55 Co42 2.244 . S
O55 C45 1.272 . S
O55 Co47 2.135 . S
Co56 O57 2.216 . S
Co56 O58 2.091 . S
Co56 O60 2.004 . S
Co56 O66 2.021 . S
Co56 O68 2.137 . S
Co56 O69 2.244 . S
O57 Co56 2.216 . S
O57 C64 1.247 . S
O58 Co56 2.091 . S
O58 C64 1.261 . S
C59 O68 1.247 . S
C59 O69 1.272 . S
O60 Co56 2.004 . S
O60 C65 1.259 . S
Co61 O62 2.061 . S
Co61 O67 2.052 . S
Co61 O69 2.135 . S
O62 Co61 2.061 . S
O62 C65 1.235 . S
C63 O66 1.238 . S
C63 O67 1.241 . S
C64 O57 1.247 . S
C64 O58 1.261 . S
C65 O60 1.259 . S
C65 O62 1.235 . S
O66 Co56 2.021 . S
O66 C63 1.238 . S
O67 Co61 2.052 . S
O67 C63 1.241 . S
O68 Co56 2.137 . S
O68 C59 1.247 . S
O69 Co56 2.244 . S
O69 C59 1.272 . S
O69 Co61 2.135 . S
Co70 O71 2.216 . S
Co70 O72 2.091 . S
Co70 O74 2.004 . S
Co70 O80 2.021 . S
Co70 O82 2.137 . S
Co70 O83 2.244 . S
O71 Co70 2.216 . S
O71 C78 1.247 . S
O72 Co70 2.091 . S
O72 C78 1.261 . S
C73 O82 1.247 . S
C73 O83 1.272 . S
O74 Co70 2.004 . S
O74 C79 1.259 . S
Co75 O76 2.061 . S
Co75 O81 2.052 . S
Co75 O83 2.135 . S
O76 Co75 2.061 . S
O76 C79 1.235 . S
C77 O80 1.238 . S
C77 O81 1.241 . S
C78 O71 1.247 . S
C78 O72 1.261 . S
C79 O74 1.259 . S
C79 O76 1.235 . S
O80 Co70 2.021 . S
O80 C77 1.238 . S
O81 Co75 2.052 . S
O81 C77 1.241 . S
O82 Co70 2.137 . S
O82 C73 1.247 . S
O83 Co70 2.244 . S
O83 C73 1.272 . S
O83 Co75 2.135 . S
Co84 O85 2.216 1_655 S
Co84 O86 2.091 1_655 S
Co84 O88 2.004 . S
Co84 O94 2.021 . S
Co84 O96 2.137 1_655 S
Co84 O97 2.244 . S
O85 Co84 2.216 1_455 S
O85 C92 1.247 . S
O86 Co84 2.091 1_455 S
O86 C92 1.261 . S
C87 O96 1.247 1_655 S
C87 O97 1.272 . S
O88 Co84 2.004 . S
O88 C93 1.259 . S
Co89 O90 2.061 . S
Co89 O95 2.052 . S
Co89 O97 2.135 . S
O90 Co89 2.061 . S
O90 C93 1.235 . S
C91 O94 1.238 . S
C91 O95 1.241 . S
C92 O85 1.247 . S
C92 O86 1.261 . S
C93 O88 1.259 . S
C93 O90 1.235 . S
O94 Co84 2.021 . S
O94 C91 1.238 . S
O95 Co89 2.052 . S
O95 C91 1.241 . S
O96 Co84 2.137 1_455 S
O96 C87 1.247 1_455 S
O97 Co84 2.244 . S
O97 C87 1.272 . S
O97 Co89 2.135 . S
Co98 O99 2.216 1_565 S
Co98 O100 2.091 1_565 S
Co98 O102 2.004 . S
Co98 O108 2.021 . S
Co98 O110 2.137 1_565 S
Co98 O111 2.244 . S
O99 Co98 2.216 1_545 S
O99 C106 1.247 . S
O100 Co98 2.091 1_545 S
O100 C106 1.261 . S
C101 O110 1.247 1_565 S
C101 O111 1.272 . S
O102 Co98 2.004 . S
O102 C107 1.259 . S
Co103 O104 2.061 . S
Co103 O109 2.052 . S
Co103 O111 2.135 . S
O104 Co103 2.061 . S
O104 C107 1.235 . S
C105 O108 1.238 . S
C105 O109 1.241 . S
C106 O99 1.247 . S
C106 O100 1.261 . S
C107 O102 1.259 . S
C107 O104 1.235 . S
O108 Co98 2.021 . S
O108 C105 1.238 . S
O109 Co103 2.052 . S
O109 C105 1.241 . S
O110 Co98 2.137 1_545 S
O110 C101 1.247 1_545 S
O111 Co98 2.244 . S
O111 C101 1.272 . S
O111 Co103 2.135 . S
Co112 O113 2.216 . S
Co112 O114 2.091 . S
Co112 O116 2.004 . S
Co112 O122 2.021 . S
Co112 O124 2.137 . S
Co112 O125 2.244 . S
O113 Co112 2.216 . S
O113 C120 1.247 . S
O114 Co112 2.091 . S
O114 C120 1.261 . S
C115 O124 1.247 . S
C115 O125 1.272 . S
O116 Co112 2.004 . S
O116 C121 1.259 . S
Co117 O118 2.061 . S
Co117 O123 2.052 . S
Co117 O125 2.135 . S
O118 Co117 2.061 . S
O118 C121 1.235 . S
C119 O122 1.238 . S
C119 O123 1.241 . S
C120 O113 1.247 . S
C120 O114 1.261 . S
C121 O116 1.259 . S
C121 O118 1.235 . S
O122 Co112 2.021 . S
O122 C119 1.238 . S
O123 Co117 2.052 . S
O123 C119 1.241 . S
O124 Co112 2.137 . S
O124 C115 1.247 . S
O125 Co112 2.244 . S
O125 C115 1.272 . S
O125 Co117 2.135 . S
Co126 O127 2.216 . S
Co126 O128 2.091 . S
Co126 O130 2.004 . S
Co126 O136 2.021 . S
Co126 O138 2.137 . S
Co126 O139 2.244 . S
O127 Co126 2.216 . S
O127 C134 1.247 . S
O128 Co126 2.091 . S
O128 C134 1.261 . S
C129 O138 1.247 . S
C129 O139 1.272 . S
O130 Co126 2.004 . S
O130 C135 1.259 . S
Co131 O132 2.061 . S
Co131 O137 2.052 . S
Co131 O139 2.135 . S
O132 Co131 2.061 . S
O132 C135 1.235 . S
C133 O136 1.238 . S
C133 O137 1.241 . S
C134 O127 1.247 . S
C134 O128 1.261 . S
C135 O130 1.259 . S
C135 O132 1.235 . S
O136 Co126 2.021 . S
O136 C133 1.238 . S
O137 Co131 2.052 . S
O137 C133 1.241 . S
O138 Co126 2.137 . S
O138 C129 1.247 . S
O139 Co126 2.244 . S
O139 C129 1.272 . S
O139 Co131 2.135 . S
Co140 O141 2.216 1_455 S
Co140 O142 2.091 1_455 S
Co140 O144 2.004 . S
Co140 O150 2.021 . S
Co140 O152 2.137 1_455 S
Co140 O153 2.244 . S
O141 Co140 2.216 1_655 S
O141 C148 1.247 . S
O142 Co140 2.091 1_655 S
O142 C148 1.261 . S
C143 O152 1.247 1_455 S
C143 O153 1.272 . S
O144 Co140 2.004 . S
O144 C149 1.259 . S
Co145 O146 2.061 . S
Co145 O151 2.052 . S
Co145 O153 2.135 . S
O146 Co145 2.061 . S
O146 C149 1.235 . S
C147 O150 1.238 . S
C147 O151 1.241 . S
C148 O141 1.247 . S
C148 O142 1.261 . S
C149 O144 1.259 . S
C149 O146 1.235 . S
O150 Co140 2.021 . S
O150 C147 1.238 . S
O151 Co145 2.052 . S
O151 C147 1.241 . S
O152 Co140 2.137 1_655 S
O152 C143 1.247 1_655 S
O153 Co140 2.244 . S
O153 C143 1.272 . S
O153 Co145 2.135 . S
Co154 O155 2.216 1_545 S
Co154 O156 2.091 1_545 S
Co154 O158 2.004 . S
Co154 O164 2.021 . S
Co154 O166 2.137 1_545 S
Co154 O167 2.244 . S
O155 Co154 2.216 1_565 S
O155 C162 1.247 . S
O156 Co154 2.091 1_565 S
O156 C162 1.261 . S
C157 O166 1.247 1_545 S
C157 O167 1.272 . S
O158 Co154 2.004 . S
O158 C163 1.259 . S
Co159 O160 2.061 . S
Co159 O165 2.052 . S
Co159 O167 2.135 . S
O160 Co159 2.061 . S
O160 C163 1.235 . S
C161 O164 1.238 . S
C161 O165 1.241 . S
C162 O155 1.247 . S
C162 O156 1.261 . S
C163 O158 1.259 . S
C163 O160 1.235 . S
O164 Co154 2.021 . S
O164 C161 1.238 . S
O165 Co159 2.052 . S
O165 C161 1.241 . S
O166 Co154 2.137 1_565 S
O166 C157 1.247 1_565 S
O167 Co154 2.244 . S
O167 C157 1.272 . S
O167 Co159 2.135 . S
Co168 O169 2.216 . S
Co168 O170 2.091 . S
Co168 O172 2.004 . S
Co168 O178 2.021 . S
Co168 O180 2.137 . S
Co168 O181 2.244 . S
O169 Co168 2.216 . S
O169 C176 1.247 . S
O170 Co168 2.091 . S
O170 C176 1.261 . S
C171 O180 1.247 . S
C171 O181 1.272 . S
O172 Co168 2.004 . S
O172 C177 1.259 . S
Co173 O174 2.061 . S
Co173 O179 2.052 . S
Co173 O181 2.135 . S
O174 Co173 2.061 . S
O174 C177 1.235 . S
C175 O178 1.238 . S
C175 O179 1.241 . S
C176 O169 1.247 . S
C176 O170 1.261 . S
C177 O172 1.259 . S
C177 O174 1.235 . S
O178 Co168 2.021 . S
O178 C175 1.238 . S
O179 Co173 2.052 . S
O179 C175 1.241 . S
O180 Co168 2.137 . S
O180 C171 1.247 . S
O181 Co168 2.244 . S
O181 C171 1.272 . S
O181 Co173 2.135 . S
Co182 O183 2.216 . S
Co182 O184 2.091 . S
Co182 O186 2.004 . S
Co182 O192 2.021 . S
Co182 O194 2.137 . S
Co182 O195 2.244 . S
O183 Co182 2.216 . S
O183 C190 1.247 . S
O184 Co182 2.091 . S
O184 C190 1.261 . S
C185 O194 1.247 . S
C185 O195 1.272 . S
O186 Co182 2.004 . S
O186 C191 1.259 . S
Co187 O188 2.061 . S
Co187 O193 2.052 . S
Co187 O195 2.135 . S
O188 Co187 2.061 . S
O188 C191 1.235 . S
C189 O192 1.238 . S
C189 O193 1.241 . S
C190 O183 1.247 . S
C190 O184 1.261 . S
C191 O186 1.259 . S
C191 O188 1.235 . S
O192 Co182 2.021 . S
O192 C189 1.238 . S
O193 Co187 2.052 . S
O193 C189 1.241 . S
O194 Co182 2.137 . S
O194 C185 1.247 . S
O195 Co182 2.244 . S
O195 C185 1.272 . S
O195 Co187 2.135 . S
Co196 O197 2.216 1_455 S
Co196 O198 2.091 1_455 S
Co196 O200 2.004 . S
Co196 O206 2.021 . S
Co196 O208 2.137 1_455 S
Co196 O209 2.244 . S
O197 Co196 2.216 1_655 S
O197 C204 1.247 . S
O198 Co196 2.091 1_655 S
O198 C204 1.261 . S
C199 O208 1.247 1_455 S
C199 O209 1.272 . S
O200 Co196 2.004 . S
O200 C205 1.259 . S
Co201 O202 2.061 . S
Co201 O207 2.052 . S
Co201 O209 2.135 . S
O202 Co201 2.061 . S
O202 C205 1.235 . S
C203 O206 1.238 . S
C203 O207 1.241 . S
C204 O197 1.247 . S
C204 O198 1.261 . S
C205 O200 1.259 . S
C205 O202 1.235 . S
O206 Co196 2.021 . S
O206 C203 1.238 . S
O207 Co201 2.052 . S
O207 C203 1.241 . S
O208 Co196 2.137 1_655 S
O208 C199 1.247 1_655 S
O209 Co196 2.244 . S
O209 C199 1.272 . S
O209 Co201 2.135 . S
Co210 O211 2.216 1_545 S
Co210 O212 2.091 1_545 S
Co210 O214 2.004 . S
Co210 O220 2.021 . S
Co210 O222 2.137 1_545 S
Co210 O223 2.244 . S
O211 Co210 2.216 1_565 S
O211 C218 1.247 . S
O212 Co210 2.091 1_565 S
O212 C218 1.261 . S
C213 O222 1.247 1_545 S
C213 O223 1.272 . S
O214 Co210 2.004 . S
O214 C219 1.259 . S
Co215 O216 2.061 . S
Co215 O221 2.052 . S
Co215 O223 2.135 . S
O216 Co215 2.061 . S
O216 C219 1.235 . S
C217 O220 1.238 . S
C217 O221 1.241 . S
C218 O211 1.247 . S
C218 O212 1.261 . S
C219 O214 1.259 . S
C219 O216 1.235 . S
O220 Co210 2.021 . S
O220 C217 1.238 . S
O221 Co215 2.052 . S
O221 C217 1.241 . S
O222 Co210 2.137 1_565 S
O222 C213 1.247 1_565 S
O223 Co210 2.244 . S
O223 C213 1.272 . S
O223 Co215 2.135 . S
H224 C242 0.951 . S
H225 C244 0.951 . S
H226 C246 0.950 . S
H227 C247 0.950 . S
H228 C249 0.950 . S
H229 C252 0.950 . S
H230 C253 0.950 . S
H231 C255 0.950 . S
H232 C256 0.950 . S
H233 C257 0.951 . S
H234 C259 0.951 . S
H235 C261 0.950 . S
H236 C262 0.950 . S
H237 C264 0.950 . S
H238 C267 0.950 . S
H239 C268 0.950 . S
H240 C270 0.950 . S
H241 C271 0.950 . S
C242 H224 0.951 . S
C242 C243 1.366 . S
C242 C244 1.388 . S
C243 C242 1.366 . S
C243 C247 1.385 . S
C244 H225 0.951 . S
C244 C242 1.388 . S
C244 C245 1.366 . S
C245 C244 1.366 . S
C245 C246 1.414 . S
C245 C248 1.499 . S
C246 H226 0.950 . S
C246 C245 1.414 . S
C246 C247 1.374 . S
C247 H227 0.950 . S
C247 C243 1.385 . S
C247 C246 1.374 . S
C248 C245 1.499 . S
C248 C249 1.373 . S
C248 C250 1.389 . S
C249 H228 0.950 . S
C249 C248 1.373 . S
C249 C265 1.377 . S
C250 C248 1.389 . S
C250 C251 1.524 . S
C250 C264 1.377 . S
C251 C250 1.524 . S
C251 C252 1.397 . S
C251 C256 1.363 . S
C252 H229 0.950 . S
C252 C251 1.397 . S
C252 C253 1.334 . S
C253 H230 0.950 . S
C253 C252 1.334 . S
C253 C254 1.287 . S
C254 C253 1.287 . S
C254 C255 1.524 . S
C254 H273 0.913 . S
C255 H231 0.950 . S
C255 C254 1.524 . S
C255 C256 1.415 . S
C256 H232 0.950 . S
C256 C251 1.363 . S
C256 C255 1.415 . S
C257 H233 0.951 . S
C257 C258 1.366 . S
C257 C259 1.388 . S
C258 C257 1.366 . S
C258 C262 1.385 . S
C259 H234 0.951 . S
C259 C257 1.388 . S
C259 C260 1.366 . S
C260 C259 1.366 . S
C260 C261 1.414 . S
C260 C263 1.499 . S
C261 H235 0.950 . S
C261 C260 1.414 . S
C261 C262 1.374 . S
C262 H236 0.950 . S
C262 C258 1.385 . S
C262 C261 1.374 . S
C263 C260 1.499 . S
C263 C264 1.373 . S
C263 C265 1.389 . S
C264 H237 0.950 . S
C264 C250 1.377 . S
C264 C263 1.373 . S
C265 C249 1.377 . S
C265 C263 1.389 . S
C265 C266 1.524 . S
C266 C265 1.524 . S
C266 C267 1.397 . S
C266 C271 1.363 . S
C267 H238 0.950 . S
C267 C266 1.397 . S
C267 C268 1.334 . S
C268 H239 0.950 . S
C268 C267 1.334 . S
C268 C269 1.287 . S
C269 C268 1.287 . S
C269 C270 1.524 . S
C269 H272 0.999 . S
C270 H240 0.950 . S
C270 C269 1.524 . S
C270 C271 1.415 . S
C271 H241 0.950 . S
C271 C266 1.363 . S
C271 C270 1.415 . S
H272 C269 0.999 . S
H273 C254 0.913 . S
H274 C292 0.951 . S
H275 C294 0.951 . S
H276 C296 0.950 . S
H277 C297 0.950 . S
H278 C299 0.950 . S
H279 C302 0.950 . S
H280 C303 0.950 . S
H281 C305 0.950 . S
H282 C306 0.950 . S
H283 C307 0.951 . S
H284 C309 0.951 . S
H285 C311 0.950 . S
H286 C312 0.950 . S
H287 C314 0.950 . S
H288 C317 0.950 . S
H289 C318 0.950 . S
H290 C320 0.950 . S
H291 C321 0.950 . S
C292 H274 0.951 . S
C292 C293 1.366 . S
C292 C294 1.388 . S
C293 C292 1.366 . S
C293 C297 1.385 . S
C294 H275 0.951 . S
C294 C292 1.388 . S
C294 C295 1.366 . S
C295 C294 1.366 . S
C295 C296 1.414 . S
C295 C298 1.499 . S
C296 H276 0.950 . S
C296 C295 1.414 . S
C296 C297 1.374 . S
C297 H277 0.950 . S
C297 C293 1.385 . S
C297 C296 1.374 . S
C298 C295 1.499 . S
C298 C299 1.373 . S
C298 C300 1.389 . S
C299 H278 0.950 . S
C299 C298 1.373 . S
C299 C315 1.377 . S
C300 C298 1.389 . S
C300 C301 1.524 . S
C300 C314 1.377 . S
C301 C300 1.524 . S
C301 C302 1.397 . S
C301 C306 1.363 . S
C302 H279 0.950 . S
C302 C301 1.397 . S
C302 C303 1.334 . S
C303 H280 0.950 . S
C303 C302 1.334 . S
C303 C304 1.287 . S
C304 C303 1.287 . S
C304 C305 1.524 . S
C304 H323 0.913 . S
C305 H281 0.950 . S
C305 C304 1.524 . S
C305 C306 1.415 . S
C306 H282 0.950 . S
C306 C301 1.363 . S
C306 C305 1.415 . S
C307 H283 0.951 . S
C307 C308 1.366 . S
C307 C309 1.388 . S
C308 C307 1.366 . S
C308 C312 1.385 . S
C309 H284 0.951 . S
C309 C307 1.388 . S
C309 C310 1.366 . S
C310 C309 1.366 . S
C310 C311 1.414 . S
C310 C313 1.499 . S
C311 H285 0.950 . S
C311 C310 1.414 . S
C311 C312 1.374 . S
C312 H286 0.950 . S
C312 C308 1.385 . S
C312 C311 1.374 . S
C313 C310 1.499 . S
C313 C314 1.373 . S
C313 C315 1.389 . S
C314 H287 0.950 . S
C314 C300 1.377 . S
C314 C313 1.373 . S
C315 C299 1.377 . S
C315 C313 1.389 . S
C315 C316 1.524 . S
C316 C315 1.524 . S
C316 C317 1.397 . S
C316 C321 1.363 . S
C317 H288 0.950 . S
C317 C316 1.397 . S
C317 C318 1.334 . S
C318 H289 0.950 . S
C318 C317 1.334 . S
C318 C319 1.287 . S
C319 C318 1.287 . S
C319 C320 1.524 . S
C319 H322 0.999 . S
C320 H290 0.950 . S
C320 C319 1.524 . S
C320 C321 1.415 . S
C321 H291 0.950 . S
C321 C316 1.363 . S
C321 C320 1.415 . S
H322 C319 0.999 . S
H323 C304 0.913 . S
H324 C342 0.951 . S
H325 C344 0.951 . S
H326 C346 0.950 . S
H327 C347 0.950 . S
H328 C349 0.950 . S
H329 C352 0.950 . S
H330 C353 0.950 . S
H331 C355 0.950 . S
H332 C356 0.950 . S
H333 C357 0.951 . S
H334 C359 0.951 . S
H335 C361 0.950 . S
H336 C362 0.950 . S
H337 C364 0.950 . S
H338 C367 0.950 . S
H339 C368 0.950 . S
H340 C370 0.950 . S
H341 C371 0.950 . S
C342 H324 0.951 . S
C342 C343 1.366 . S
C342 C344 1.388 . S
C343 C342 1.366 . S
C343 C347 1.385 . S
C344 H325 0.951 . S
C344 C342 1.388 . S
C344 C345 1.366 . S
C345 C344 1.366 . S
C345 C346 1.414 . S
C345 C348 1.499 . S
C346 H326 0.950 . S
C346 C345 1.414 . S
C346 C347 1.374 . S
C347 H327 0.950 . S
C347 C343 1.385 . S
C347 C346 1.374 . S
C348 C345 1.499 . S
C348 C349 1.373 . S
C348 C350 1.389 . S
C349 H328 0.950 . S
C349 C348 1.373 . S
C349 C365 1.377 . S
C350 C348 1.389 . S
C350 C351 1.524 . S
C350 C364 1.377 . S
C351 C350 1.524 . S
C351 C352 1.397 . S
C351 C356 1.363 . S
C352 H329 0.950 . S
C352 C351 1.397 . S
C352 C353 1.334 . S
C353 H330 0.950 . S
C353 C352 1.334 . S
C353 C354 1.287 . S
C354 C353 1.287 . S
C354 C355 1.524 . S
C354 H373 0.913 . S
C355 H331 0.950 . S
C355 C354 1.524 . S
C355 C356 1.415 . S
C356 H332 0.950 . S
C356 C351 1.363 . S
C356 C355 1.415 . S
C357 H333 0.951 . S
C357 C358 1.366 . S
C357 C359 1.388 . S
C358 C357 1.366 . S
C358 C362 1.385 . S
C359 H334 0.951 . S
C359 C357 1.388 . S
C359 C360 1.366 . S
C360 C359 1.366 . S
C360 C361 1.414 . S
C360 C363 1.499 . S
C361 H335 0.950 . S
C361 C360 1.414 . S
C361 C362 1.374 . S
C362 H336 0.950 . S
C362 C358 1.385 . S
C362 C361 1.374 . S
C363 C360 1.499 . S
C363 C364 1.373 . S
C363 C365 1.389 . S
C364 H337 0.950 . S
C364 C350 1.377 . S
C364 C363 1.373 . S
C365 C349 1.377 . S
C365 C363 1.389 . S
C365 C366 1.524 . S
C366 C365 1.524 . S
C366 C367 1.397 . S
C366 C371 1.363 . S
C367 H338 0.950 . S
C367 C366 1.397 . S
C367 C368 1.334 . S
C368 H339 0.950 . S
C368 C367 1.334 . S
C368 C369 1.287 . S
C369 C368 1.287 . S
C369 C370 1.524 . S
C369 H372 0.999 . S
C370 H340 0.950 . S
C370 C369 1.524 . S
C370 C371 1.415 . S
C371 H341 0.950 . S
C371 C366 1.363 . S
C371 C370 1.415 . S
H372 C369 0.999 . S
H373 C354 0.913 . S
H374 C392 0.951 . S
H375 C394 0.951 . S
H376 C396 0.950 . S
H377 C397 0.950 . S
H378 C399 0.950 . S
H379 C402 0.950 . S
H380 C403 0.950 . S
H381 C405 0.950 . S
H382 C406 0.950 . S
H383 C407 0.951 . S
H384 C409 0.951 . S
H385 C411 0.950 . S
H386 C412 0.950 . S
H387 C414 0.950 . S
H388 C417 0.950 . S
H389 C418 0.950 . S
H390 C420 0.950 . S
H391 C421 0.950 . S
C392 H374 0.951 . S
C392 C393 1.366 . S
C392 C394 1.388 . S
C393 C392 1.366 . S
C393 C397 1.385 . S
C394 H375 0.951 . S
C394 C392 1.388 . S
C394 C395 1.366 . S
C395 C394 1.366 . S
C395 C396 1.414 . S
C395 C398 1.499 . S
C396 H376 0.950 . S
C396 C395 1.414 . S
C396 C397 1.374 . S
C397 H377 0.950 . S
C397 C393 1.385 . S
C397 C396 1.374 . S
C398 C395 1.499 . S
C398 C399 1.373 . S
C398 C400 1.389 . S
C399 H378 0.950 . S
C399 C398 1.373 . S
C399 C415 1.377 . S
C400 C398 1.389 . S
C400 C401 1.524 . S
C400 C414 1.377 . S
C401 C400 1.524 . S
C401 C402 1.397 . S
C401 C406 1.363 . S
C402 H379 0.950 . S
C402 C401 1.397 . S
C402 C403 1.334 . S
C403 H380 0.950 . S
C403 C402 1.334 . S
C403 C404 1.287 . S
C404 C403 1.287 . S
C404 C405 1.524 . S
C404 H423 0.913 . S
C405 H381 0.950 . S
C405 C404 1.524 . S
C405 C406 1.415 . S
C406 H382 0.950 . S
C406 C401 1.363 . S
C406 C405 1.415 . S
C407 H383 0.951 . S
C407 C408 1.366 . S
C407 C409 1.388 . S
C408 C407 1.366 . S
C408 C412 1.385 . S
C409 H384 0.951 . S
C409 C407 1.388 . S
C409 C410 1.366 . S
C410 C409 1.366 . S
C410 C411 1.414 . S
C410 C413 1.499 . S
C411 H385 0.950 . S
C411 C410 1.414 . S
C411 C412 1.374 . S
C412 H386 0.950 . S
C412 C408 1.385 . S
C412 C411 1.374 . S
C413 C410 1.499 . S
C413 C414 1.373 . S
C413 C415 1.389 . S
C414 H387 0.950 . S
C414 C400 1.377 . S
C414 C413 1.373 . S
C415 C399 1.377 . S
C415 C413 1.389 . S
C415 C416 1.524 . S
C416 C415 1.524 . S
C416 C417 1.397 . S
C416 C421 1.363 . S
C417 H388 0.950 . S
C417 C416 1.397 . S
C417 C418 1.334 . S
C418 H389 0.950 . S
C418 C417 1.334 . S
C418 C419 1.287 . S
C419 C418 1.287 . S
C419 C420 1.524 . S
C419 H422 0.999 1_455 S
C420 H390 0.950 . S
C420 C419 1.524 . S
C420 C421 1.415 . S
C421 H391 0.950 . S
C421 C416 1.363 . S
C421 C420 1.415 . S
H422 C419 0.999 1_655 S
H423 C404 0.913 . S
H424 C442 0.951 . S
H425 C444 0.951 . S
H426 C446 0.950 . S
H427 C447 0.950 . S
H428 C449 0.950 . S
H429 C452 0.950 . S
H430 C453 0.950 . S
H431 C455 0.950 . S
H432 C456 0.950 . S
H433 C457 0.951 . S
H434 C459 0.951 . S
H435 C461 0.950 . S
H436 C462 0.950 . S
H437 C464 0.950 . S
H438 C467 0.950 . S
H439 C468 0.950 . S
H440 C470 0.950 . S
H441 C471 0.950 . S
C442 H424 0.951 . S
C442 C443 1.366 . S
C442 C444 1.388 . S
C443 C442 1.366 . S
C443 C447 1.385 . S
C444 H425 0.951 . S
C444 C442 1.388 . S
C444 C445 1.366 . S
C445 C444 1.366 . S
C445 C446 1.414 . S
C445 C448 1.499 . S
C446 H426 0.950 . S
C446 C445 1.414 . S
C446 C447 1.374 . S
C447 H427 0.950 . S
C447 C443 1.385 . S
C447 C446 1.374 . S
C448 C445 1.499 . S
C448 C449 1.373 . S
C448 C450 1.389 . S
C449 H428 0.950 . S
C449 C448 1.373 . S
C449 C465 1.377 . S
C450 C448 1.389 . S
C450 C451 1.524 . S
C450 C464 1.377 . S
C451 C450 1.524 . S
C451 C452 1.397 . S
C451 C456 1.363 . S
C452 H429 0.950 . S
C452 C451 1.397 . S
C452 C453 1.334 . S
C453 H430 0.950 . S
C453 C452 1.334 . S
C453 C454 1.287 . S
C454 C453 1.287 . S
C454 C455 1.524 . S
C454 H473 0.913 . S
C455 H431 0.950 . S
C455 C454 1.524 . S
C455 C456 1.415 . S
C456 H432 0.950 . S
C456 C451 1.363 . S
C456 C455 1.415 . S
C457 H433 0.951 . S
C457 C458 1.366 . S
C457 C459 1.388 . S
C458 C457 1.366 . S
C458 C462 1.385 . S
C459 H434 0.951 . S
C459 C457 1.388 . S
C459 C460 1.366 . S
C460 C459 1.366 . S
C460 C461 1.414 . S
C460 C463 1.499 . S
C461 H435 0.950 . S
C461 C460 1.414 . S
C461 C462 1.374 . S
C462 H436 0.950 . S
C462 C458 1.385 . S
C462 C461 1.374 . S
C463 C460 1.499 . S
C463 C464 1.373 . S
C463 C465 1.389 . S
C464 H437 0.950 . S
C464 C450 1.377 . S
C464 C463 1.373 . S
C465 C449 1.377 . S
C465 C463 1.389 . S
C465 C466 1.524 . S
C466 C465 1.524 . S
C466 C467 1.397 . S
C466 C471 1.363 . S
C467 H438 0.950 . S
C467 C466 1.397 . S
C467 C468 1.334 . S
C468 H439 0.950 . S
C468 C467 1.334 . S
C468 C469 1.287 . S
C469 C468 1.287 . S
C469 C470 1.524 . S
C469 H472 0.999 1_565 S
C470 H440 0.950 . S
C470 C469 1.524 . S
C470 C471 1.415 . S
C471 H441 0.950 . S
C471 C466 1.363 . S
C471 C470 1.415 . S
H472 C469 0.999 1_545 S
H473 C454 0.913 . S
H474 C492 0.951 . S
H475 C494 0.951 . S
H476 C496 0.950 . S
H477 C497 0.950 . S
H478 C499 0.950 . S
H479 C502 0.950 . S
H480 C503 0.950 . S
H481 C505 0.950 . S
H482 C506 0.950 . S
H483 C507 0.951 . S
H484 C509 0.951 . S
H485 C511 0.950 . S
H486 C512 0.950 . S
H487 C514 0.950 . S
H488 C517 0.950 . S
H489 C518 0.950 . S
H490 C520 0.950 . S
H491 C521 0.950 . S
C492 H474 0.951 . S
C492 C493 1.366 . S
C492 C494 1.388 . S
C493 C492 1.366 . S
C493 C497 1.385 . S
C494 H475 0.951 . S
C494 C492 1.388 . S
C494 C495 1.366 . S
C495 C494 1.366 . S
C495 C496 1.414 . S
C495 C498 1.499 . S
C496 H476 0.950 . S
C496 C495 1.414 . S
C496 C497 1.374 . S
C497 H477 0.950 . S
C497 C493 1.385 . S
C497 C496 1.374 . S
C498 C495 1.499 . S
C498 C499 1.373 . S
C498 C500 1.389 . S
C499 H478 0.950 . S
C499 C498 1.373 . S
C499 C515 1.377 . S
C500 C498 1.389 . S
C500 C501 1.524 . S
C500 C514 1.377 . S
C501 C500 1.524 . S
C501 C502 1.397 . S
C501 C506 1.363 . S
C502 H479 0.950 . S
C502 C501 1.397 . S
C502 C503 1.334 . S
C503 H480 0.950 . S
C503 C502 1.334 . S
C503 C504 1.287 . S
C504 C503 1.287 . S
C504 C505 1.524 . S
C504 H523 0.913 . S
C505 H481 0.950 . S
C505 C504 1.524 . S
C505 C506 1.415 . S
C506 H482 0.950 . S
C506 C501 1.363 . S
C506 C505 1.415 . S
C507 H483 0.951 . S
C507 C508 1.366 . S
C507 C509 1.388 . S
C508 C507 1.366 . S
C508 C512 1.385 . S
C509 H484 0.951 . S
C509 C507 1.388 . S
C509 C510 1.366 . S
C510 C509 1.366 . S
C510 C511 1.414 . S
C510 C513 1.499 . S
C511 H485 0.950 . S
C511 C510 1.414 . S
C511 C512 1.374 . S
C512 H486 0.950 . S
C512 C508 1.385 . S
C512 C511 1.374 . S
C513 C510 1.499 . S
C513 C514 1.373 . S
C513 C515 1.389 . S
C514 H487 0.950 . S
C514 C500 1.377 . S
C514 C513 1.373 . S
C515 C499 1.377 . S
C515 C513 1.389 . S
C515 C516 1.524 . S
C516 C515 1.524 . S
C516 C517 1.397 . S
C516 C521 1.363 . S
C517 H488 0.950 . S
C517 C516 1.397 . S
C517 C518 1.334 . S
C518 H489 0.950 . S
C518 C517 1.334 . S
C518 C519 1.287 . S
C519 C518 1.287 . S
C519 C520 1.524 . S
C519 H522 0.999 . S
C520 H490 0.950 . S
C520 C519 1.524 . S
C520 C521 1.415 . S
C521 H491 0.950 . S
C521 C516 1.363 . S
C521 C520 1.415 . S
H522 C519 0.999 . S
H523 C504 0.913 . S
H524 C542 0.951 . S
H525 C544 0.951 . S
H526 C546 0.950 . S
H527 C547 0.950 . S
H528 C549 0.950 . S
H529 C552 0.950 . S
H530 C553 0.950 . S
H531 C555 0.950 . S
H532 C556 0.950 . S
H533 C557 0.951 . S
H534 C559 0.951 . S
H535 C561 0.950 . S
H536 C562 0.950 . S
H537 C564 0.950 . S
H538 C567 0.950 . S
H539 C568 0.950 . S
H540 C570 0.950 . S
H541 C571 0.950 . S
C542 H524 0.951 . S
C542 C543 1.366 . S
C542 C544 1.388 . S
C543 C542 1.366 . S
C543 C547 1.385 . S
C544 H525 0.951 . S
C544 C542 1.388 . S
C544 C545 1.366 . S
C545 C544 1.366 . S
C545 C546 1.414 . S
C545 C548 1.499 . S
C546 H526 0.950 . S
C546 C545 1.414 . S
C546 C547 1.374 . S
C547 H527 0.950 . S
C547 C543 1.385 . S
C547 C546 1.374 . S
C548 C545 1.499 . S
C548 C549 1.373 . S
C548 C550 1.389 . S
C549 H528 0.950 . S
C549 C548 1.373 . S
C549 C565 1.377 . S
C550 C548 1.389 . S
C550 C551 1.524 . S
C550 C564 1.377 . S
C551 C550 1.524 . S
C551 C552 1.397 . S
C551 C556 1.363 . S
C552 H529 0.950 . S
C552 C551 1.397 . S
C552 C553 1.334 . S
C553 H530 0.950 . S
C553 C552 1.334 . S
C553 C554 1.287 . S
C554 C553 1.287 . S
C554 C555 1.524 . S
C554 H573 0.913 . S
C555 H531 0.950 . S
C555 C554 1.524 . S
C555 C556 1.415 . S
C556 H532 0.950 . S
C556 C551 1.363 . S
C556 C555 1.415 . S
C557 H533 0.951 . S
C557 C558 1.366 . S
C557 C559 1.388 . S
C558 C557 1.366 . S
C558 C562 1.385 . S
C559 H534 0.951 . S
C559 C557 1.388 . S
C559 C560 1.366 . S
C560 C559 1.366 . S
C560 C561 1.414 . S
C560 C563 1.499 . S
C561 H535 0.950 . S
C561 C560 1.414 . S
C561 C562 1.374 . S
C562 H536 0.950 . S
C562 C558 1.385 . S
C562 C561 1.374 . S
C563 C560 1.499 . S
C563 C564 1.373 . S
C563 C565 1.389 . S
C564 H537 0.950 . S
C564 C550 1.377 . S
C564 C563 1.373 . S
C565 C549 1.377 . S
C565 C563 1.389 . S
C565 C566 1.524 . S
C566 C565 1.524 . S
C566 C567 1.397 . S
C566 C571 1.363 . S
C567 H538 0.950 . S
C567 C566 1.397 . S
C567 C568 1.334 . S
C568 H539 0.950 . S
C568 C567 1.334 . S
C568 C569 1.287 . S
C569 C568 1.287 . S
C569 C570 1.524 . S
C569 H572 0.999 . S
C570 H540 0.950 . S
C570 C569 1.524 . S
C570 C571 1.415 . S
C571 H541 0.950 . S
C571 C566 1.363 . S
C571 C570 1.415 . S
H572 C569 0.999 . S
H573 C554 0.913 . S
H574 C592 0.951 . S
H575 C594 0.951 . S
H576 C596 0.950 . S
H577 C597 0.950 . S
H578 C599 0.950 . S
H579 C602 0.950 . S
H580 C603 0.950 . S
H581 C605 0.950 . S
H582 C606 0.950 . S
H583 C607 0.951 . S
H584 C609 0.951 . S
H585 C611 0.950 . S
H586 C612 0.950 . S
H587 C614 0.950 . S
H588 C617 0.950 . S
H589 C618 0.950 . S
H590 C620 0.950 . S
H591 C621 0.950 . S
C592 H574 0.951 . S
C592 C593 1.366 . S
C592 C594 1.388 . S
C593 C592 1.366 . S
C593 C597 1.385 . S
C594 H575 0.951 . S
C594 C592 1.388 . S
C594 C595 1.366 . S
C595 C594 1.366 . S
C595 C596 1.414 . S
C595 C598 1.499 . S
C596 H576 0.950 . S
C596 C595 1.414 . S
C596 C597 1.374 . S
C597 H577 0.950 . S
C597 C593 1.385 . S
C597 C596 1.374 . S
C598 C595 1.499 . S
C598 C599 1.373 . S
C598 C600 1.389 . S
C599 H578 0.950 . S
C599 C598 1.373 . S
C599 C615 1.377 . S
C600 C598 1.389 . S
C600 C601 1.524 . S
C600 C614 1.377 . S
C601 C600 1.524 . S
C601 C602 1.397 . S
C601 C606 1.363 . S
C602 H579 0.950 . S
C602 C601 1.397 . S
C602 C603 1.334 . S
C603 H580 0.950 . S
C603 C602 1.334 . S
C603 C604 1.287 . S
C604 C603 1.287 . S
C604 C605 1.524 . S
C604 H623 0.913 . S
C605 H581 0.950 . S
C605 C604 1.524 . S
C605 C606 1.415 . S
C606 H582 0.950 . S
C606 C601 1.363 . S
C606 C605 1.415 . S
C607 H583 0.951 . S
C607 C608 1.366 . S
C607 C609 1.388 . S
C608 C607 1.366 . S
C608 C612 1.385 . S
C609 H584 0.951 . S
C609 C607 1.388 . S
C609 C610 1.366 . S
C610 C609 1.366 . S
C610 C611 1.414 . S
C610 C613 1.499 . S
C611 H585 0.950 . S
C611 C610 1.414 . S
C611 C612 1.374 . S
C612 H586 0.950 . S
C612 C608 1.385 . S
C612 C611 1.374 . S
C613 C610 1.499 . S
C613 C614 1.373 . S
C613 C615 1.389 . S
C614 H587 0.950 . S
C614 C600 1.377 . S
C614 C613 1.373 . S
C615 C599 1.377 . S
C615 C613 1.389 . S
C615 C616 1.524 . S
C616 C615 1.524 . S
C616 C617 1.397 . S
C616 C621 1.363 . S
C617 H588 0.950 . S
C617 C616 1.397 . S
C617 C618 1.334 . S
C618 H589 0.950 . S
C618 C617 1.334 . S
C618 C619 1.287 . S
C619 C618 1.287 . S
C619 C620 1.524 . S
C619 H622 0.999 . S
C620 H590 0.950 . S
C620 C619 1.524 . S
C620 C621 1.415 . S
C621 H591 0.950 . S
C621 C616 1.363 . S
C621 C620 1.415 . S
H622 C619 0.999 . S
H623 C604 0.913 . S
H624 C642 0.951 . S
H625 C644 0.951 . S
H626 C646 0.950 . S
H627 C647 0.950 . S
H628 C649 0.950 . S
H629 C652 0.950 . S
H630 C653 0.950 . S
H631 C655 0.950 . S
H632 C656 0.950 . S
H633 C657 0.951 . S
H634 C659 0.951 . S
H635 C661 0.950 . S
H636 C662 0.950 . S
H637 C664 0.950 . S
H638 C667 0.950 . S
H639 C668 0.950 . S
H640 C670 0.950 . S
H641 C671 0.950 . S
C642 H624 0.951 . S
C642 C643 1.366 . S
C642 C644 1.388 . S
C643 C642 1.366 . S
C643 C647 1.385 . S
C644 H625 0.951 . S
C644 C642 1.388 . S
C644 C645 1.366 . S
C645 C644 1.366 . S
C645 C646 1.414 . S
C645 C648 1.499 . S
C646 H626 0.950 . S
C646 C645 1.414 . S
C646 C647 1.374 . S
C647 H627 0.950 . S
C647 C643 1.385 . S
C647 C646 1.374 . S
C648 C645 1.499 . S
C648 C649 1.373 . S
C648 C650 1.389 . S
C649 H628 0.950 . S
C649 C648 1.373 . S
C649 C665 1.377 . S
C650 C648 1.389 . S
C650 C651 1.524 . S
C650 C664 1.377 . S
C651 C650 1.524 . S
C651 C652 1.397 . S
C651 C656 1.363 . S
C652 H629 0.950 . S
C652 C651 1.397 . S
C652 C653 1.334 . S
C653 H630 0.950 . S
C653 C652 1.334 . S
C653 C654 1.287 . S
C654 C653 1.287 . S
C654 C655 1.524 . S
C654 H673 0.913 . S
C655 H631 0.950 . S
C655 C654 1.524 . S
C655 C656 1.415 . S
C656 H632 0.950 . S
C656 C651 1.363 . S
C656 C655 1.415 . S
C657 H633 0.951 . S
C657 C658 1.366 . S
C657 C659 1.388 . S
C658 C657 1.366 . S
C658 C662 1.385 . S
C659 H634 0.951 . S
C659 C657 1.388 . S
C659 C660 1.366 . S
C660 C659 1.366 . S
C660 C661 1.414 . S
C660 C663 1.499 . S
C661 H635 0.950 . S
C661 C660 1.414 . S
C661 C662 1.374 . S
C662 H636 0.950 . S
C662 C658 1.385 . S
C662 C661 1.374 . S
C663 C660 1.499 . S
C663 C664 1.373 . S
C663 C665 1.389 . S
C664 H637 0.950 . S
C664 C650 1.377 . S
C664 C663 1.373 . S
C665 C649 1.377 . S
C665 C663 1.389 . S
C665 C666 1.524 . S
C666 C665 1.524 . S
C666 C667 1.397 . S
C666 C671 1.363 . S
C667 H638 0.950 . S
C667 C666 1.397 . S
C667 C668 1.334 . S
C668 H639 0.950 . S
C668 C667 1.334 . S
C668 C669 1.287 . S
C669 C668 1.287 . S
C669 C670 1.524 . S
C669 H672 0.999 . S
C670 H640 0.950 . S
C670 C669 1.524 . S
C670 C671 1.415 . S
C671 H641 0.950 . S
C671 C666 1.363 . S
C671 C670 1.415 . S
H672 C669 0.999 . S
H673 C654 0.913 . S
H674 C692 0.951 . S
H675 C694 0.951 . S
H676 C696 0.950 . S
H677 C697 0.950 . S
H678 C699 0.950 . S
H679 C702 0.950 . S
H680 C703 0.950 . S
H681 C705 0.950 . S
H682 C706 0.950 . S
H683 C707 0.951 . S
H684 C709 0.951 . S
H685 C711 0.950 . S
H686 C712 0.950 . S
H687 C714 0.950 . S
H688 C717 0.950 . S
H689 C718 0.950 . S
H690 C720 0.950 . S
H691 C721 0.950 . S
C692 H674 0.951 . S
C692 C693 1.366 . S
C692 C694 1.388 . S
C693 C692 1.366 . S
C693 C697 1.385 . S
C694 H675 0.951 . S
C694 C692 1.388 . S
C694 C695 1.366 . S
C695 C694 1.366 . S
C695 C696 1.414 . S
C695 C698 1.499 . S
C696 H676 0.950 . S
C696 C695 1.414 . S
C696 C697 1.374 . S
C697 H677 0.950 . S
C697 C693 1.385 . S
C697 C696 1.374 . S
C698 C695 1.499 . S
C698 C699 1.373 . S
C698 C700 1.389 . S
C699 H678 0.950 . S
C699 C698 1.373 . S
C699 C715 1.377 . S
C700 C698 1.389 . S
C700 C701 1.524 . S
C700 C714 1.377 . S
C701 C700 1.524 . S
C701 C702 1.397 . S
C701 C706 1.363 . S
C702 H679 0.950 . S
C702 C701 1.397 . S
C702 C703 1.334 . S
C703 H680 0.950 . S
C703 C702 1.334 . S
C703 C704 1.287 . S
C704 C703 1.287 . S
C704 C705 1.524 . S
C704 H723 0.913 . S
C705 H681 0.950 . S
C705 C704 1.524 . S
C705 C706 1.415 . S
C706 H682 0.950 . S
C706 C701 1.363 . S
C706 C705 1.415 . S
C707 H683 0.951 . S
C707 C708 1.366 . S
C707 C709 1.388 . S
C708 C707 1.366 . S
C708 C712 1.385 . S
C709 H684 0.951 . S
C709 C707 1.388 . S
C709 C710 1.366 . S
C710 C709 1.366 . S
C710 C711 1.414 . S
C710 C713 1.499 . S
C711 H685 0.950 . S
C711 C710 1.414 . S
C711 C712 1.374 . S
C712 H686 0.950 . S
C712 C708 1.385 . S
C712 C711 1.374 . S
C713 C710 1.499 . S
C713 C714 1.373 . S
C713 C715 1.389 . S
C714 H687 0.950 . S
C714 C700 1.377 . S
C714 C713 1.373 . S
C715 C699 1.377 . S
C715 C713 1.389 . S
C715 C716 1.524 . S
C716 C715 1.524 . S
C716 C717 1.397 . S
C716 C721 1.363 . S
C717 H688 0.950 . S
C717 C716 1.397 . S
C717 C718 1.334 . S
C718 H689 0.950 . S
C718 C717 1.334 . S
C718 C719 1.287 . S
C719 C718 1.287 . S
C719 C720 1.524 . S
C719 H722 0.999 . S
C720 H690 0.950 . S
C720 C719 1.524 . S
C720 C721 1.415 . S
C721 H691 0.950 . S
C721 C716 1.363 . S
C721 C720 1.415 . S
H722 C719 0.999 . S
H723 C704 0.913 . S
H724 C742 0.951 . S
H725 C744 0.951 . S
H726 C746 0.950 . S
H727 C747 0.950 . S
H728 C749 0.950 . S
H729 C752 0.950 . S
H730 C753 0.950 . S
H731 C755 0.950 . S
H732 C756 0.950 . S
H733 C757 0.951 . S
H734 C759 0.951 . S
H735 C761 0.950 . S
H736 C762 0.950 . S
H737 C764 0.950 . S
H738 C767 0.950 . S
H739 C768 0.950 . S
H740 C770 0.950 . S
H741 C771 0.950 . S
C742 H724 0.951 . S
C742 C743 1.366 . S
C742 C744 1.388 . S
C743 C742 1.366 . S
C743 C747 1.385 . S
C744 H725 0.951 . S
C744 C742 1.388 . S
C744 C745 1.366 . S
C745 C744 1.366 . S
C745 C746 1.414 . S
C745 C748 1.499 . S
C746 H726 0.950 . S
C746 C745 1.414 . S
C746 C747 1.374 . S
C747 H727 0.950 . S
C747 C743 1.385 . S
C747 C746 1.374 . S
C748 C745 1.499 . S
C748 C749 1.373 . S
C748 C750 1.389 . S
C749 H728 0.950 . S
C749 C748 1.373 . S
C749 C765 1.377 . S
C750 C748 1.389 . S
C750 C751 1.524 . S
C750 C764 1.377 . S
C751 C750 1.524 . S
C751 C752 1.397 . S
C751 C756 1.363 . S
C752 H729 0.950 . S
C752 C751 1.397 . S
C752 C753 1.334 . S
C753 H730 0.950 . S
C753 C752 1.334 . S
C753 C754 1.287 . S
C754 C753 1.287 . S
C754 C755 1.524 . S
C754 H773 0.913 . S
C755 H731 0.950 . S
C755 C754 1.524 . S
C755 C756 1.415 . S
C756 H732 0.950 . S
C756 C751 1.363 . S
C756 C755 1.415 . S
C757 H733 0.951 . S
C757 C758 1.366 . S
C757 C759 1.388 . S
C758 C757 1.366 . S
C758 C762 1.385 . S
C759 H734 0.951 . S
C759 C757 1.388 . S
C759 C760 1.366 . S
C760 C759 1.366 . S
C760 C761 1.414 . S
C760 C763 1.499 . S
C761 H735 0.950 . S
C761 C760 1.414 . S
C761 C762 1.374 . S
C762 H736 0.950 . S
C762 C758 1.385 . S
C762 C761 1.374 . S
C763 C760 1.499 . S
C763 C764 1.373 . S
C763 C765 1.389 . S
C764 H737 0.950 . S
C764 C750 1.377 . S
C764 C763 1.373 . S
C765 C749 1.377 . S
C765 C763 1.389 . S
C765 C766 1.524 . S
C766 C765 1.524 . S
C766 C767 1.397 . S
C766 C771 1.363 . S
C767 H738 0.950 . S
C767 C766 1.397 . S
C767 C768 1.334 . S
C768 H739 0.950 . S
C768 C767 1.334 . S
C768 C769 1.287 . S
C769 C768 1.287 . S
C769 C770 1.524 . S
C769 H772 0.999 . S
C770 H740 0.950 . S
C770 C769 1.524 . S
C770 C771 1.415 . S
C771 H741 0.950 . S
C771 C766 1.363 . S
C771 C770 1.415 . S
H772 C769 0.999 . S
H773 C754 0.913 . S
H774 C792 0.951 . S
H775 C794 0.951 . S
H776 C796 0.950 . S
H777 C797 0.950 . S
H778 C799 0.950 . S
H779 C802 0.950 . S
H780 C803 0.950 . S
H781 C805 0.950 . S
H782 C806 0.950 . S
H783 C807 0.951 . S
H784 C809 0.951 . S
H785 C811 0.950 . S
H786 C812 0.950 . S
H787 C814 0.950 . S
H788 C817 0.950 . S
H789 C818 0.950 . S
H790 C820 0.950 . S
H791 C821 0.950 . S
C792 H774 0.951 . S
C792 C793 1.366 . S
C792 C794 1.388 . S
C793 C792 1.366 . S
C793 C797 1.385 . S
C794 H775 0.951 . S
C794 C792 1.388 . S
C794 C795 1.366 . S
C795 C794 1.366 . S
C795 C796 1.414 . S
C795 C798 1.499 . S
C796 H776 0.950 . S
C796 C795 1.414 . S
C796 C797 1.374 . S
C797 H777 0.950 . S
C797 C793 1.385 . S
C797 C796 1.374 . S
C798 C795 1.499 . S
C798 C799 1.373 . S
C798 C800 1.389 . S
C799 H778 0.950 . S
C799 C798 1.373 . S
C799 C815 1.377 . S
C800 C798 1.389 . S
C800 C801 1.524 . S
C800 C814 1.377 . S
C801 C800 1.524 . S
C801 C802 1.397 . S
C801 C806 1.363 . S
C802 H779 0.950 . S
C802 C801 1.397 . S
C802 C803 1.334 . S
C803 H780 0.950 . S
C803 C802 1.334 . S
C803 C804 1.287 . S
C804 C803 1.287 . S
C804 C805 1.524 . S
C804 H823 0.913 . S
C805 H781 0.950 . S
C805 C804 1.524 . S
C805 C806 1.415 . S
C806 H782 0.950 . S
C806 C801 1.363 . S
C806 C805 1.415 . S
C807 H783 0.951 . S
C807 C808 1.366 . S
C807 C809 1.388 . S
C808 C807 1.366 . S
C808 C812 1.385 . S
C809 H784 0.951 . S
C809 C807 1.388 . S
C809 C810 1.366 . S
C810 C809 1.366 . S
C810 C811 1.414 . S
C810 C813 1.499 . S
C811 H785 0.950 . S
C811 C810 1.414 . S
C811 C812 1.374 . S
C812 H786 0.950 . S
C812 C808 1.385 . S
C812 C811 1.374 . S
C813 C810 1.499 . S
C813 C814 1.373 . S
C813 C815 1.389 . S
C814 H787 0.950 . S
C814 C800 1.377 . S
C814 C813 1.373 . S
C815 C799 1.377 . S
C815 C813 1.389 . S
C815 C816 1.524 . S
C816 C815 1.524 . S
C816 C817 1.397 . S
C816 C821 1.363 . S
C817 H788 0.950 . S
C817 C816 1.397 . S
C817 C818 1.334 . S
C818 H789 0.950 . S
C818 C817 1.334 . S
C818 C819 1.287 . S
C819 C818 1.287 . S
C819 C820 1.524 . S
C819 H822 0.999 . S
C820 H790 0.950 . S
C820 C819 1.524 . S
C820 C821 1.415 . S
C821 H791 0.950 . S
C821 C816 1.363 . S
C821 C820 1.415 . S
H822 C819 0.999 . S
H823 C804 0.913 . S
H824 C842 0.951 . S
H825 C844 0.951 . S
H826 C846 0.950 . S
H827 C847 0.950 . S
H828 C849 0.950 . S
H829 C852 0.950 . S
H830 C853 0.950 . S
H831 C855 0.950 . S
H832 C856 0.950 . S
H833 C857 0.951 . S
H834 C859 0.951 . S
H835 C861 0.950 . S
H836 C862 0.950 . S
H837 C864 0.950 . S
H838 C867 0.950 . S
H839 C868 0.950 . S
H840 C870 0.950 . S
H841 C871 0.950 . S
C842 H824 0.951 . S
C842 C843 1.366 . S
C842 C844 1.388 . S
C843 C842 1.366 . S
C843 C847 1.385 . S
C844 H825 0.951 . S
C844 C842 1.388 . S
C844 C845 1.366 . S
C845 C844 1.366 . S
C845 C846 1.414 . S
C845 C848 1.499 . S
C846 H826 0.950 . S
C846 C845 1.414 . S
C846 C847 1.374 . S
C847 H827 0.950 . S
C847 C843 1.385 . S
C847 C846 1.374 . S
C848 C845 1.499 . S
C848 C849 1.373 . S
C848 C850 1.389 . S
C849 H828 0.950 . S
C849 C848 1.373 . S
C849 C865 1.377 . S
C850 C848 1.389 . S
C850 C851 1.524 . S
C850 C864 1.377 . S
C851 C850 1.524 . S
C851 C852 1.397 . S
C851 C856 1.363 . S
C852 H829 0.950 . S
C852 C851 1.397 . S
C852 C853 1.334 . S
C853 H830 0.950 . S
C853 C852 1.334 . S
C853 C854 1.287 . S
C854 C853 1.287 . S
C854 C855 1.524 . S
C854 H873 0.913 . S
C855 H831 0.950 . S
C855 C854 1.524 . S
C855 C856 1.415 . S
C856 H832 0.950 . S
C856 C851 1.363 . S
C856 C855 1.415 . S
C857 H833 0.951 . S
C857 C858 1.366 . S
C857 C859 1.388 . S
C858 C857 1.366 . S
C858 C862 1.385 . S
C859 H834 0.951 . S
C859 C857 1.388 . S
C859 C860 1.366 . S
C860 C859 1.366 . S
C860 C861 1.414 . S
C860 C863 1.499 . S
C861 H835 0.950 . S
C861 C860 1.414 . S
C861 C862 1.374 . S
C862 H836 0.950 . S
C862 C858 1.385 . S
C862 C861 1.374 . S
C863 C860 1.499 . S
C863 C864 1.373 . S
C863 C865 1.389 . S
C864 H837 0.950 . S
C864 C850 1.377 . S
C864 C863 1.373 . S
C865 C849 1.377 . S
C865 C863 1.389 . S
C865 C866 1.524 . S
C866 C865 1.524 . S
C866 C867 1.397 . S
C866 C871 1.363 . S
C867 H838 0.950 . S
C867 C866 1.397 . S
C867 C868 1.334 . S
C868 H839 0.950 . S
C868 C867 1.334 . S
C868 C869 1.287 . S
C869 C868 1.287 . S
C869 C870 1.524 . S
C869 H872 0.999 . S
C870 H840 0.950 . S
C870 C869 1.524 . S
C870 C871 1.415 . S
C871 H841 0.950 . S
C871 C866 1.363 . S
C871 C870 1.415 . S
H872 C869 0.999 . S
H873 C854 0.913 . S
H874 C892 0.951 . S
H875 C894 0.951 . S
H876 C896 0.950 . S
H877 C897 0.950 . S
H878 C899 0.950 . S
H879 C902 0.950 . S
H880 C903 0.950 . S
H881 C905 0.950 . S
H882 C906 0.950 . S
H883 C907 0.951 . S
H884 C909 0.951 . S
H885 C911 0.950 . S
H886 C912 0.950 . S
H887 C914 0.950 . S
H888 C917 0.950 . S
H889 C918 0.950 . S
H890 C920 0.950 . S
H891 C921 0.950 . S
C892 H874 0.951 . S
C892 C893 1.366 . S
C892 C894 1.388 . S
C893 C892 1.366 . S
C893 C897 1.385 . S
C894 H875 0.951 . S
C894 C892 1.388 . S
C894 C895 1.366 . S
C895 C894 1.366 . S
C895 C896 1.414 . S
C895 C898 1.499 . S
C896 H876 0.950 . S
C896 C895 1.414 . S
C896 C897 1.374 . S
C897 H877 0.950 . S
C897 C893 1.385 . S
C897 C896 1.374 . S
C898 C895 1.499 . S
C898 C899 1.373 . S
C898 C900 1.389 . S
C899 H878 0.950 . S
C899 C898 1.373 . S
C899 C915 1.377 . S
C900 C898 1.389 . S
C900 C901 1.524 . S
C900 C914 1.377 . S
C901 C900 1.524 . S
C901 C902 1.397 . S
C901 C906 1.363 . S
C902 H879 0.950 . S
C902 C901 1.397 . S
C902 C903 1.334 . S
C903 H880 0.950 . S
C903 C902 1.334 . S
C903 C904 1.287 . S
C904 C903 1.287 . S
C904 C905 1.524 . S
C904 H923 0.913 . S
C905 H881 0.950 . S
C905 C904 1.524 . S
C905 C906 1.415 . S
C906 H882 0.950 . S
C906 C901 1.363 . S
C906 C905 1.415 . S
C907 H883 0.951 . S
C907 C908 1.366 . S
C907 C909 1.388 . S
C908 C907 1.366 . S
C908 C912 1.385 . S
C909 H884 0.951 . S
C909 C907 1.388 . S
C909 C910 1.366 . S
C910 C909 1.366 . S
C910 C911 1.414 . S
C910 C913 1.499 . S
C911 H885 0.950 . S
C911 C910 1.414 . S
C911 C912 1.374 . S
C912 H886 0.950 . S
C912 C908 1.385 . S
C912 C911 1.374 . S
C913 C910 1.499 . S
C913 C914 1.373 . S
C913 C915 1.389 . S
C914 H887 0.950 . S
C914 C900 1.377 . S
C914 C913 1.373 . S
C915 C899 1.377 . S
C915 C913 1.389 . S
C915 C916 1.524 . S
C916 C915 1.524 . S
C916 C917 1.397 . S
C916 C921 1.363 . S
C917 H888 0.950 . S
C917 C916 1.397 . S
C917 C918 1.334 . S
C918 H889 0.950 . S
C918 C917 1.334 . S
C918 C919 1.287 . S
C919 C918 1.287 . S
C919 C920 1.524 . S
C919 H922 0.999 . S
C920 H890 0.950 . S
C920 C919 1.524 . S
C920 C921 1.415 . S
C921 H891 0.950 . S
C921 C916 1.363 . S
C921 C920 1.415 . S
H922 C919 0.999 . S
H923 C904 0.913 . S
H924 C942 0.951 . S
H925 C944 0.951 . S
H926 C946 0.950 . S
H927 C947 0.950 . S
H928 C949 0.950 . S
H929 C952 0.950 . S
H930 C953 0.950 . S
H931 C955 0.950 . S
H932 C956 0.950 . S
H933 C957 0.951 . S
H934 C959 0.951 . S
H935 C961 0.950 . S
H936 C962 0.950 . S
H937 C964 0.950 . S
H938 C967 0.950 . S
H939 C968 0.950 . S
H940 C970 0.950 . S
H941 C971 0.950 . S
C942 H924 0.951 . S
C942 C943 1.366 . S
C942 C944 1.388 . S
C943 C942 1.366 . S
C943 C947 1.385 . S
C944 H925 0.951 . S
C944 C942 1.388 . S
C944 C945 1.366 . S
C945 C944 1.366 . S
C945 C946 1.414 . S
C945 C948 1.499 . S
C946 H926 0.950 . S
C946 C945 1.414 . S
C946 C947 1.374 . S
C947 H927 0.950 . S
C947 C943 1.385 . S
C947 C946 1.374 . S
C948 C945 1.499 . S
C948 C949 1.373 . S
C948 C950 1.389 . S
C949 H928 0.950 . S
C949 C948 1.373 . S
C949 C965 1.377 . S
C950 C948 1.389 . S
C950 C951 1.524 . S
C950 C964 1.377 . S
C951 C950 1.524 . S
C951 C952 1.397 . S
C951 C956 1.363 . S
C952 H929 0.950 . S
C952 C951 1.397 . S
C952 C953 1.334 . S
C953 H930 0.950 . S
C953 C952 1.334 . S
C953 C954 1.287 . S
C954 C953 1.287 . S
C954 C955 1.524 . S
C954 H973 0.913 . S
C955 H931 0.950 . S
C955 C954 1.524 . S
C955 C956 1.415 . S
C956 H932 0.950 . S
C956 C951 1.363 . S
C956 C955 1.415 . S
C957 H933 0.951 . S
C957 C958 1.366 . S
C957 C959 1.388 . S
C958 C957 1.366 . S
C958 C962 1.385 . S
C959 H934 0.951 . S
C959 C957 1.388 . S
C959 C960 1.366 . S
C960 C959 1.366 . S
C960 C961 1.414 . S
C960 C963 1.499 . S
C961 H935 0.950 . S
C961 C960 1.414 . S
C961 C962 1.374 . S
C962 H936 0.950 . S
C962 C958 1.385 . S
C962 C961 1.374 . S
C963 C960 1.499 . S
C963 C964 1.373 . S
C963 C965 1.389 . S
C964 H937 0.950 . S
C964 C950 1.377 . S
C964 C963 1.373 . S
C965 C949 1.377 . S
C965 C963 1.389 . S
C965 C966 1.524 . S
C966 C965 1.524 . S
C966 C967 1.397 . S
C966 C971 1.363 . S
C967 H938 0.950 . S
C967 C966 1.397 . S
C967 C968 1.334 . S
C968 H939 0.950 . S
C968 C967 1.334 . S
C968 C969 1.287 . S
C969 C968 1.287 . S
C969 C970 1.524 . S
C969 H972 0.999 . S
C970 H940 0.950 . S
C970 C969 1.524 . S
C970 C971 1.415 . S
C971 H941 0.950 . S
C971 C966 1.363 . S
C971 C970 1.415 . S
H972 C969 0.999 . S
H973 C954 0.913 . S
H974 C992 0.951 . S
H975 C994 0.951 . S
H976 C996 0.950 . S
H977 C997 0.950 . S
H978 C999 0.950 . S
H979 C1002 0.950 . S
H980 C1003 0.950 . S
H981 C1005 0.950 . S
H982 C1006 0.950 . S
H983 C1007 0.951 . S
H984 C1009 0.951 . S
H985 C1011 0.950 . S
H986 C1012 0.950 . S
H987 C1014 0.950 . S
H988 C1017 0.950 . S
H989 C1018 0.950 . S
H990 C1020 0.950 . S
H991 C1021 0.950 . S
C992 H974 0.951 . S
C992 C993 1.366 . S
C992 C994 1.388 . S
C993 C992 1.366 . S
C993 C997 1.385 . S
C994 H975 0.951 . S
C994 C992 1.388 . S
C994 C995 1.366 . S
C995 C994 1.366 . S
C995 C996 1.414 . S
C995 C998 1.499 . S
C996 H976 0.950 . S
C996 C995 1.414 . S
C996 C997 1.374 . S
C997 H977 0.950 . S
C997 C993 1.385 . S
C997 C996 1.374 . S
C998 C995 1.499 . S
C998 C999 1.373 . S
C998 C1000 1.389 . S
C999 H978 0.950 . S
C999 C998 1.373 . S
C999 C1015 1.377 . S
C1000 C998 1.389 . S
C1000 C1001 1.524 . S
C1000 C1014 1.377 . S
C1001 C1000 1.524 . S
C1001 C1002 1.397 . S
C1001 C1006 1.363 . S
C1002 H979 0.950 . S
C1002 C1001 1.397 . S
C1002 C1003 1.334 . S
C1003 H980 0.950 . S
C1003 C1002 1.334 . S
C1003 C1004 1.287 . S
C1004 C1003 1.287 . S
C1004 C1005 1.524 . S
C1004 H1023 0.913 . S
C1005 H981 0.950 . S
C1005 C1004 1.524 . S
C1005 C1006 1.415 . S
C1006 H982 0.950 . S
C1006 C1001 1.363 . S
C1006 C1005 1.415 . S
C1007 H983 0.951 . S
C1007 C1008 1.366 . S
C1007 C1009 1.388 . S
C1008 C1007 1.366 . S
C1008 C1012 1.385 . S
C1009 H984 0.951 . S
C1009 C1007 1.388 . S
C1009 C1010 1.366 . S
C1010 C1009 1.366 . S
C1010 C1011 1.414 . S
C1010 C1013 1.499 . S
C1011 H985 0.950 . S
C1011 C1010 1.414 . S
C1011 C1012 1.374 . S
C1012 H986 0.950 . S
C1012 C1008 1.385 . S
C1012 C1011 1.374 . S
C1013 C1010 1.499 . S
C1013 C1014 1.373 . S
C1013 C1015 1.389 . S
C1014 H987 0.950 . S
C1014 C1000 1.377 . S
C1014 C1013 1.373 . S
C1015 C999 1.377 . S
C1015 C1013 1.389 . S
C1015 C1016 1.524 . S
C1016 C1015 1.524 . S
C1016 C1017 1.397 . S
C1016 C1021 1.363 . S
C1017 H988 0.950 . S
C1017 C1016 1.397 . S
C1017 C1018 1.334 . S
C1018 H989 0.950 . S
C1018 C1017 1.334 . S
C1018 C1019 1.287 . S
C1019 C1018 1.287 . S
C1019 C1020 1.524 . S
C1019 H1022 0.999 . S
C1020 H990 0.950 . S
C1020 C1019 1.524 . S
C1020 C1021 1.415 . S
C1021 H991 0.950 . S
C1021 C1016 1.363 . S
C1021 C1020 1.415 . S
H1022 C1019 0.999 . S
H1023 C1004 0.913 . S
H1024 C1042 0.951 . S
H1025 C1044 0.951 . S
H1026 C1046 0.950 . S
H1027 C1047 0.950 . S
H1028 C1049 0.950 . S
H1029 C1052 0.950 . S
H1030 C1053 0.950 . S
H1031 C1055 0.950 . S
H1032 C1056 0.950 . S
H1033 C1057 0.951 . S
H1034 C1059 0.951 . S
H1035 C1061 0.950 . S
H1036 C1062 0.950 . S
H1037 C1064 0.950 . S
H1038 C1067 0.950 . S
H1039 C1068 0.950 . S
H1040 C1070 0.950 . S
H1041 C1071 0.950 . S
C1042 H1024 0.951 . S
C1042 C1043 1.366 . S
C1042 C1044 1.388 . S
C1043 C1042 1.366 . S
C1043 C1047 1.385 . S
C1044 H1025 0.951 . S
C1044 C1042 1.388 . S
C1044 C1045 1.366 . S
C1045 C1044 1.366 . S
C1045 C1046 1.414 . S
C1045 C1048 1.499 . S
C1046 H1026 0.950 . S
C1046 C1045 1.414 . S
C1046 C1047 1.374 . S
C1047 H1027 0.950 . S
C1047 C1043 1.385 . S
C1047 C1046 1.374 . S
C1048 C1045 1.499 . S
C1048 C1049 1.373 . S
C1048 C1050 1.389 . S
C1049 H1028 0.950 . S
C1049 C1048 1.373 . S
C1049 C1065 1.377 . S
C1050 C1048 1.389 . S
C1050 C1051 1.524 . S
C1050 C1064 1.377 . S
C1051 C1050 1.524 . S
C1051 C1052 1.397 . S
C1051 C1056 1.363 . S
C1052 H1029 0.950 . S
C1052 C1051 1.397 . S
C1052 C1053 1.334 . S
C1053 H1030 0.950 . S
C1053 C1052 1.334 . S
C1053 C1054 1.287 . S
C1054 C1053 1.287 . S
C1054 C1055 1.524 . S
C1054 H1073 0.913 . S
C1055 H1031 0.950 . S
C1055 C1054 1.524 . S
C1055 C1056 1.415 . S
C1056 H1032 0.950 . S
C1056 C1051 1.363 . S
C1056 C1055 1.415 . S
C1057 H1033 0.951 . S
C1057 C1058 1.366 . S
C1057 C1059 1.388 . S
C1058 C1057 1.366 . S
C1058 C1062 1.385 . S
C1059 H1034 0.951 . S
C1059 C1057 1.388 . S
C1059 C1060 1.366 . S
C1060 C1059 1.366 . S
C1060 C1061 1.414 . S
C1060 C1063 1.499 . S
C1061 H1035 0.950 . S
C1061 C1060 1.414 . S
C1061 C1062 1.374 . S
C1062 H1036 0.950 . S
C1062 C1058 1.385 . S
C1062 C1061 1.374 . S
C1063 C1060 1.499 . S
C1063 C1064 1.373 . S
C1063 C1065 1.389 . S
C1064 H1037 0.950 . S
C1064 C1050 1.377 . S
C1064 C1063 1.373 . S
C1065 C1049 1.377 . S
C1065 C1063 1.389 . S
C1065 C1066 1.524 . S
C1066 C1065 1.524 . S
C1066 C1067 1.397 . S
C1066 C1071 1.363 . S
C1067 H1038 0.950 . S
C1067 C1066 1.397 . S
C1067 C1068 1.334 . S
C1068 H1039 0.950 . S
C1068 C1067 1.334 . S
C1068 C1069 1.287 . S
C1069 C1068 1.287 . S
C1069 C1070 1.524 . S
C1069 H1072 0.999 . S
C1070 H1040 0.950 . S
C1070 C1069 1.524 . S
C1070 C1071 1.415 . S
C1071 H1041 0.950 . S
C1071 C1066 1.363 . S
C1071 C1070 1.415 . S
H1072 C1069 0.999 . S
H1073 C1054 0.913 . S
H1074 C1092 0.951 . S
H1075 C1094 0.951 . S
H1076 C1096 0.950 . S
H1077 C1097 0.950 . S
H1078 C1099 0.950 . S
H1079 C1102 0.950 . S
H1080 C1103 0.950 . S
H1081 C1105 0.950 . S
H1082 C1106 0.950 . S
H1083 C1107 0.951 . S
H1084 C1109 0.951 . S
H1085 C1111 0.950 . S
H1086 C1112 0.950 . S
H1087 C1114 0.950 . S
H1088 C1117 0.950 . S
H1089 C1118 0.950 . S
H1090 C1120 0.950 . S
H1091 C1121 0.950 . S
C1092 H1074 0.951 . S
C1092 C1093 1.366 . S
C1092 C1094 1.388 . S
C1093 C1092 1.366 . S
C1093 C1097 1.385 . S
C1094 H1075 0.951 . S
C1094 C1092 1.388 . S
C1094 C1095 1.366 . S
C1095 C1094 1.366 . S
C1095 C1096 1.414 . S
C1095 C1098 1.499 . S
C1096 H1076 0.950 . S
C1096 C1095 1.414 . S
C1096 C1097 1.374 . S
C1097 H1077 0.950 . S
C1097 C1093 1.385 . S
C1097 C1096 1.374 . S
C1098 C1095 1.499 . S
C1098 C1099 1.373 . S
C1098 C1100 1.389 . S
C1099 H1078 0.950 . S
C1099 C1098 1.373 . S
C1099 C1115 1.377 . S
C1100 C1098 1.389 . S
C1100 C1101 1.524 . S
C1100 C1114 1.377 . S
C1101 C1100 1.524 . S
C1101 C1102 1.397 . S
C1101 C1106 1.363 . S
C1102 H1079 0.950 . S
C1102 C1101 1.397 . S
C1102 C1103 1.334 . S
C1103 H1080 0.950 . S
C1103 C1102 1.334 . S
C1103 C1104 1.287 . S
C1104 C1103 1.287 . S
C1104 C1105 1.524 . S
C1104 H1123 0.913 . S
C1105 H1081 0.950 . S
C1105 C1104 1.524 . S
C1105 C1106 1.415 . S
C1106 H1082 0.950 . S
C1106 C1101 1.363 . S
C1106 C1105 1.415 . S
C1107 H1083 0.951 . S
C1107 C1108 1.366 . S
C1107 C1109 1.388 . S
C1108 C1107 1.366 . S
C1108 C1112 1.385 . S
C1109 H1084 0.951 . S
C1109 C1107 1.388 . S
C1109 C1110 1.366 . S
C1110 C1109 1.366 . S
C1110 C1111 1.414 . S
C1110 C1113 1.499 . S
C1111 H1085 0.950 . S
C1111 C1110 1.414 . S
C1111 C1112 1.374 . S
C1112 H1086 0.950 . S
C1112 C1108 1.385 . S
C1112 C1111 1.374 . S
C1113 C1110 1.499 . S
C1113 C1114 1.373 . S
C1113 C1115 1.389 . S
C1114 H1087 0.950 . S
C1114 C1100 1.377 . S
C1114 C1113 1.373 . S
C1115 C1099 1.377 . S
C1115 C1113 1.389 . S
C1115 C1116 1.524 . S
C1116 C1115 1.524 . S
C1116 C1117 1.397 . S
C1116 C1121 1.363 . S
C1117 H1088 0.950 . S
C1117 C1116 1.397 . S
C1117 C1118 1.334 . S
C1118 H1089 0.950 . S
C1118 C1117 1.334 . S
C1118 C1119 1.287 . S
C1119 C1118 1.287 . S
C1119 C1120 1.524 . S
C1119 H1122 0.999 . S
C1120 H1090 0.950 . S
C1120 C1119 1.524 . S
C1120 C1121 1.415 . S
C1121 H1091 0.950 . S
C1121 C1116 1.363 . S
C1121 C1120 1.415 . S
H1122 C1119 0.999 . S
H1123 C1104 0.913 . S
H1124 C1142 0.951 . S
H1125 C1144 0.951 . S
H1126 C1146 0.950 . S
H1127 C1147 0.950 . S
H1128 C1149 0.950 . S
H1129 C1152 0.950 . S
H1130 C1153 0.950 . S
H1131 C1155 0.950 . S
H1132 C1156 0.950 . S
H1133 C1157 0.951 . S
H1134 C1159 0.951 . S
H1135 C1161 0.950 . S
H1136 C1162 0.950 . S
H1137 C1164 0.950 . S
H1138 C1167 0.950 . S
H1139 C1168 0.950 . S
H1140 C1170 0.950 . S
H1141 C1171 0.950 . S
C1142 H1124 0.951 . S
C1142 C1143 1.366 . S
C1142 C1144 1.388 . S
C1143 C1142 1.366 . S
C1143 C1147 1.385 . S
C1144 H1125 0.951 . S
C1144 C1142 1.388 . S
C1144 C1145 1.366 . S
C1145 C1144 1.366 . S
C1145 C1146 1.414 . S
C1145 C1148 1.499 . S
C1146 H1126 0.950 . S
C1146 C1145 1.414 . S
C1146 C1147 1.374 . S
C1147 H1127 0.950 . S
C1147 C1143 1.385 . S
C1147 C1146 1.374 . S
C1148 C1145 1.499 . S
C1148 C1149 1.373 . S
C1148 C1150 1.389 . S
C1149 H1128 0.950 . S
C1149 C1148 1.373 . S
C1149 C1165 1.377 . S
C1150 C1148 1.389 . S
C1150 C1151 1.524 . S
C1150 C1164 1.377 . S
C1151 C1150 1.524 . S
C1151 C1152 1.397 . S
C1151 C1156 1.363 . S
C1152 H1129 0.950 . S
C1152 C1151 1.397 . S
C1152 C1153 1.334 . S
C1153 H1130 0.950 . S
C1153 C1152 1.334 . S
C1153 C1154 1.287 . S
C1154 C1153 1.287 . S
C1154 C1155 1.524 . S
C1154 H1173 0.913 . S
C1155 H1131 0.950 . S
C1155 C1154 1.524 . S
C1155 C1156 1.415 . S
C1156 H1132 0.950 . S
C1156 C1151 1.363 . S
C1156 C1155 1.415 . S
C1157 H1133 0.951 . S
C1157 C1158 1.366 . S
C1157 C1159 1.388 . S
C1158 C1157 1.366 . S
C1158 C1162 1.385 . S
C1159 H1134 0.951 . S
C1159 C1157 1.388 . S
C1159 C1160 1.366 . S
C1160 C1159 1.366 . S
C1160 C1161 1.414 . S
C1160 C1163 1.499 . S
C1161 H1135 0.950 . S
C1161 C1160 1.414 . S
C1161 C1162 1.374 . S
C1162 H1136 0.950 . S
C1162 C1158 1.385 . S
C1162 C1161 1.374 . S
C1163 C1160 1.499 . S
C1163 C1164 1.373 . S
C1163 C1165 1.389 . S
C1164 H1137 0.950 . S
C1164 C1150 1.377 . S
C1164 C1163 1.373 . S
C1165 C1149 1.377 . S
C1165 C1163 1.389 . S
C1165 C1166 1.524 . S
C1166 C1165 1.524 . S
C1166 C1167 1.397 . S
C1166 C1171 1.363 . S
C1167 H1138 0.950 . S
C1167 C1166 1.397 . S
C1167 C1168 1.334 . S
C1168 H1139 0.950 . S
C1168 C1167 1.334 . S
C1168 C1169 1.287 . S
C1169 C1168 1.287 . S
C1169 C1170 1.524 . S
C1169 H1172 0.999 . S
C1170 H1140 0.950 . S
C1170 C1169 1.524 . S
C1170 C1171 1.415 . S
C1171 H1141 0.950 . S
C1171 C1166 1.363 . S
C1171 C1170 1.415 . S
H1172 C1169 0.999 . S
H1173 C1154 0.913 . S
H1174 C1192 0.951 . S
H1175 C1194 0.951 . S
H1176 C1196 0.950 . S
H1177 C1197 0.950 . S
H1178 C1199 0.950 . S
H1179 C1202 0.950 . S
H1180 C1203 0.950 . S
H1181 C1205 0.950 . S
H1182 C1206 0.950 . S
H1183 C1207 0.951 . S
H1184 C1209 0.951 . S
H1185 C1211 0.950 . S
H1186 C1212 0.950 . S
H1187 C1214 0.950 . S
H1188 C1217 0.950 . S
H1189 C1218 0.950 . S
H1190 C1220 0.950 . S
H1191 C1221 0.950 . S
C1192 H1174 0.951 . S
C1192 C1193 1.366 . S
C1192 C1194 1.388 . S
C1193 C1192 1.366 . S
C1193 C1197 1.385 . S
C1194 H1175 0.951 . S
C1194 C1192 1.388 . S
C1194 C1195 1.366 . S
C1195 C1194 1.366 . S
C1195 C1196 1.414 . S
C1195 C1198 1.499 . S
C1196 H1176 0.950 . S
C1196 C1195 1.414 . S
C1196 C1197 1.374 . S
C1197 H1177 0.950 . S
C1197 C1193 1.385 . S
C1197 C1196 1.374 . S
C1198 C1195 1.499 . S
C1198 C1199 1.373 . S
C1198 C1200 1.389 . S
C1199 H1178 0.950 . S
C1199 C1198 1.373 . S
C1199 C1215 1.377 . S
C1200 C1198 1.389 . S
C1200 C1201 1.524 . S
C1200 C1214 1.377 . S
C1201 C1200 1.524 . S
C1201 C1202 1.397 . S
C1201 C1206 1.363 . S
C1202 H1179 0.950 . S
C1202 C1201 1.397 . S
C1202 C1203 1.334 . S
C1203 H1180 0.950 . S
C1203 C1202 1.334 . S
C1203 C1204 1.287 . S
C1204 C1203 1.287 . S
C1204 C1205 1.524 . S
C1204 H1223 0.913 . S
C1205 H1181 0.950 . S
C1205 C1204 1.524 . S
C1205 C1206 1.415 . S
C1206 H1182 0.950 . S
C1206 C1201 1.363 . S
C1206 C1205 1.415 . S
C1207 H1183 0.951 . S
C1207 C1208 1.366 . S
C1207 C1209 1.388 . S
C1208 C1207 1.366 . S
C1208 C1212 1.385 . S
C1209 H1184 0.951 . S
C1209 C1207 1.388 . S
C1209 C1210 1.366 . S
C1210 C1209 1.366 . S
C1210 C1211 1.414 . S
C1210 C1213 1.499 . S
C1211 H1185 0.950 . S
C1211 C1210 1.414 . S
C1211 C1212 1.374 . S
C1212 H1186 0.950 . S
C1212 C1208 1.385 . S
C1212 C1211 1.374 . S
C1213 C1210 1.499 . S
C1213 C1214 1.373 . S
C1213 C1215 1.389 . S
C1214 H1187 0.950 . S
C1214 C1200 1.377 . S
C1214 C1213 1.373 . S
C1215 C1199 1.377 . S
C1215 C1213 1.389 . S
C1215 C1216 1.524 . S
C1216 C1215 1.524 . S
C1216 C1217 1.397 . S
C1216 C1221 1.363 . S
C1217 H1188 0.950 . S
C1217 C1216 1.397 . S
C1217 C1218 1.334 . S
C1218 H1189 0.950 . S
C1218 C1217 1.334 . S
C1218 C1219 1.287 . S
C1219 C1218 1.287 . S
C1219 C1220 1.524 . S
C1219 H1222 0.999 . S
C1220 H1190 0.950 . S
C1220 C1219 1.524 . S
C1220 C1221 1.415 . S
C1221 H1191 0.950 . S
C1221 C1216 1.363 . S
C1221 C1220 1.415 . S
H1222 C1219 0.999 . S
H1223 C1204 0.913 . S
H1224 C1242 0.951 . S
H1225 C1244 0.951 . S
H1226 C1246 0.950 . S
H1227 C1247 0.950 . S
H1228 C1249 0.950 . S
H1229 C1252 0.950 . S
H1230 C1253 0.950 . S
H1231 C1255 0.950 . S
H1232 C1256 0.950 . S
H1233 C1257 0.951 . S
H1234 C1259 0.951 . S
H1235 C1261 0.950 . S
H1236 C1262 0.950 . S
H1237 C1264 0.950 . S
H1238 C1267 0.950 . S
H1239 C1268 0.950 . S
H1240 C1270 0.950 . S
H1241 C1271 0.950 . S
C1242 H1224 0.951 . S
C1242 C1243 1.366 . S
C1242 C1244 1.388 . S
C1243 C1242 1.366 . S
C1243 C1247 1.385 . S
C1244 H1225 0.951 . S
C1244 C1242 1.388 . S
C1244 C1245 1.366 . S
C1245 C1244 1.366 . S
C1245 C1246 1.414 . S
C1245 C1248 1.499 . S
C1246 H1226 0.950 . S
C1246 C1245 1.414 . S
C1246 C1247 1.374 . S
C1247 H1227 0.950 . S
C1247 C1243 1.385 . S
C1247 C1246 1.374 . S
C1248 C1245 1.499 . S
C1248 C1249 1.373 . S
C1248 C1250 1.389 . S
C1249 H1228 0.950 . S
C1249 C1248 1.373 . S
C1249 C1265 1.377 . S
C1250 C1248 1.389 . S
C1250 C1251 1.524 . S
C1250 C1264 1.377 . S
C1251 C1250 1.524 . S
C1251 C1252 1.397 . S
C1251 C1256 1.363 . S
C1252 H1229 0.950 . S
C1252 C1251 1.397 . S
C1252 C1253 1.334 . S
C1253 H1230 0.950 . S
C1253 C1252 1.334 . S
C1253 C1254 1.287 . S
C1254 C1253 1.287 . S
C1254 C1255 1.524 . S
C1254 H1273 0.913 . S
C1255 H1231 0.950 . S
C1255 C1254 1.524 . S
C1255 C1256 1.415 . S
C1256 H1232 0.950 . S
C1256 C1251 1.363 . S
C1256 C1255 1.415 . S
C1257 H1233 0.951 . S
C1257 C1258 1.366 . S
C1257 C1259 1.388 . S
C1258 C1257 1.366 . S
C1258 C1262 1.385 . S
C1259 H1234 0.951 . S
C1259 C1257 1.388 . S
C1259 C1260 1.366 . S
C1260 C1259 1.366 . S
C1260 C1261 1.414 . S
C1260 C1263 1.499 . S
C1261 H1235 0.950 . S
C1261 C1260 1.414 . S
C1261 C1262 1.374 . S
C1262 H1236 0.950 . S
C1262 C1258 1.385 . S
C1262 C1261 1.374 . S
C1263 C1260 1.499 . S
C1263 C1264 1.373 . S
C1263 C1265 1.389 . S
C1264 H1237 0.950 . S
C1264 C1250 1.377 . S
C1264 C1263 1.373 . S
C1265 C1249 1.377 . S
C1265 C1263 1.389 . S
C1265 C1266 1.524 . S
C1266 C1265 1.524 . S
C1266 C1267 1.397 . S
C1266 C1271 1.363 . S
C1267 H1238 0.950 . S
C1267 C1266 1.397 . S
C1267 C1268 1.334 . S
C1268 H1239 0.950 . S
C1268 C1267 1.334 . S
C1268 C1269 1.287 . S
C1269 C1268 1.287 . S
C1269 C1270 1.524 . S
C1269 H1272 0.999 . S
C1270 H1240 0.950 . S
C1270 C1269 1.524 . S
C1270 C1271 1.415 . S
C1271 H1241 0.950 . S
C1271 C1266 1.363 . S
C1271 C1270 1.415 . S
H1272 C1269 0.999 . S
H1273 C1254 0.913 . S
H1274 C1292 0.951 . S
H1275 C1294 0.951 . S
H1276 C1296 0.950 . S
H1277 C1297 0.950 . S
H1278 C1299 0.950 . S
H1279 C1302 0.950 . S
H1280 C1303 0.950 . S
H1281 C1305 0.950 . S
H1282 C1306 0.950 . S
H1283 C1307 0.951 . S
H1284 C1309 0.951 . S
H1285 C1311 0.950 . S
H1286 C1312 0.950 . S
H1287 C1314 0.950 . S
H1288 C1317 0.950 . S
H1289 C1318 0.950 . S
H1290 C1320 0.950 . S
H1291 C1321 0.950 . S
C1292 H1274 0.951 . S
C1292 C1293 1.366 . S
C1292 C1294 1.388 . S
C1293 C1292 1.366 . S
C1293 C1297 1.385 . S
C1294 H1275 0.951 . S
C1294 C1292 1.388 . S
C1294 C1295 1.366 . S
C1295 C1294 1.366 . S
C1295 C1296 1.414 . S
C1295 C1298 1.499 . S
C1296 H1276 0.950 . S
C1296 C1295 1.414 . S
C1296 C1297 1.374 . S
C1297 H1277 0.950 . S
C1297 C1293 1.385 . S
C1297 C1296 1.374 . S
C1298 C1295 1.499 . S
C1298 C1299 1.373 . S
C1298 C1300 1.389 . S
C1299 H1278 0.950 . S
C1299 C1298 1.373 . S
C1299 C1315 1.377 . S
C1300 C1298 1.389 . S
C1300 C1301 1.524 . S
C1300 C1314 1.377 . S
C1301 C1300 1.524 . S
C1301 C1302 1.397 . S
C1301 C1306 1.363 . S
C1302 H1279 0.950 . S
C1302 C1301 1.397 . S
C1302 C1303 1.334 . S
C1303 H1280 0.950 . S
C1303 C1302 1.334 . S
C1303 C1304 1.287 . S
C1304 C1303 1.287 . S
C1304 C1305 1.524 . S
C1304 H1323 0.913 . S
C1305 H1281 0.950 . S
C1305 C1304 1.524 . S
C1305 C1306 1.415 . S
C1306 H1282 0.950 . S
C1306 C1301 1.363 . S
C1306 C1305 1.415 . S
C1307 H1283 0.951 . S
C1307 C1308 1.366 . S
C1307 C1309 1.388 . S
C1308 C1307 1.366 . S
C1308 C1312 1.385 . S
C1309 H1284 0.951 . S
C1309 C1307 1.388 . S
C1309 C1310 1.366 . S
C1310 C1309 1.366 . S
C1310 C1311 1.414 . S
C1310 C1313 1.499 . S
C1311 H1285 0.950 . S
C1311 C1310 1.414 . S
C1311 C1312 1.374 . S
C1312 H1286 0.950 . S
C1312 C1308 1.385 . S
C1312 C1311 1.374 . S
C1313 C1310 1.499 . S
C1313 C1314 1.373 . S
C1313 C1315 1.389 . S
C1314 H1287 0.950 . S
C1314 C1300 1.377 . S
C1314 C1313 1.373 . S
C1315 C1299 1.377 . S
C1315 C1313 1.389 . S
C1315 C1316 1.524 . S
C1316 C1315 1.524 . S
C1316 C1317 1.397 . S
C1316 C1321 1.363 . S
C1317 H1288 0.950 . S
C1317 C1316 1.397 . S
C1317 C1318 1.334 . S
C1318 H1289 0.950 . S
C1318 C1317 1.334 . S
C1318 C1319 1.287 . S
C1319 C1318 1.287 . S
C1319 C1320 1.524 . S
C1319 H1322 0.999 . S
C1320 H1290 0.950 . S
C1320 C1319 1.524 . S
C1320 C1321 1.415 . S
C1321 H1291 0.950 . S
C1321 C1316 1.363 . S
C1321 C1320 1.415 . S
H1322 C1319 0.999 . S
H1323 C1304 0.913 . S
H1324 C1342 0.951 . S
H1325 C1344 0.951 . S
H1326 C1346 0.950 . S
H1327 C1347 0.950 . S
H1328 C1349 0.950 . S
H1329 C1352 0.950 . S
H1330 C1353 0.950 . S
H1331 C1355 0.950 . S
H1332 C1356 0.950 . S
H1333 C1357 0.951 . S
H1334 C1359 0.951 . S
H1335 C1361 0.950 . S
H1336 C1362 0.950 . S
H1337 C1364 0.950 . S
H1338 C1367 0.950 . S
H1339 C1368 0.950 . S
H1340 C1370 0.950 . S
H1341 C1371 0.950 . S
C1342 H1324 0.951 . S
C1342 C1343 1.366 . S
C1342 C1344 1.388 . S
C1343 C1342 1.366 . S
C1343 C1347 1.385 . S
C1344 H1325 0.951 . S
C1344 C1342 1.388 . S
C1344 C1345 1.366 . S
C1345 C1344 1.366 . S
C1345 C1346 1.414 . S
C1345 C1348 1.499 . S
C1346 H1326 0.950 . S
C1346 C1345 1.414 . S
C1346 C1347 1.374 . S
C1347 H1327 0.950 . S
C1347 C1343 1.385 . S
C1347 C1346 1.374 . S
C1348 C1345 1.499 . S
C1348 C1349 1.373 . S
C1348 C1350 1.389 . S
C1349 H1328 0.950 . S
C1349 C1348 1.373 . S
C1349 C1365 1.377 . S
C1350 C1348 1.389 . S
C1350 C1351 1.524 . S
C1350 C1364 1.377 . S
C1351 C1350 1.524 . S
C1351 C1352 1.397 . S
C1351 C1356 1.363 . S
C1352 H1329 0.950 . S
C1352 C1351 1.397 . S
C1352 C1353 1.334 . S
C1353 H1330 0.950 . S
C1353 C1352 1.334 . S
C1353 C1354 1.287 . S
C1354 C1353 1.287 . S
C1354 C1355 1.524 . S
C1354 H1373 0.913 . S
C1355 H1331 0.950 . S
C1355 C1354 1.524 . S
C1355 C1356 1.415 . S
C1356 H1332 0.950 . S
C1356 C1351 1.363 . S
C1356 C1355 1.415 . S
C1357 H1333 0.951 . S
C1357 C1358 1.366 . S
C1357 C1359 1.388 . S
C1358 C1357 1.366 . S
C1358 C1362 1.385 . S
C1359 H1334 0.951 . S
C1359 C1357 1.388 . S
C1359 C1360 1.366 . S
C1360 C1359 1.366 . S
C1360 C1361 1.414 . S
C1360 C1363 1.499 . S
C1361 H1335 0.950 . S
C1361 C1360 1.414 . S
C1361 C1362 1.374 . S
C1362 H1336 0.950 . S
C1362 C1358 1.385 . S
C1362 C1361 1.374 . S
C1363 C1360 1.499 . S
C1363 C1364 1.373 . S
C1363 C1365 1.389 . S
C1364 H1337 0.950 . S
C1364 C1350 1.377 . S
C1364 C1363 1.373 . S
C1365 C1349 1.377 . S
C1365 C1363 1.389 . S
C1365 C1366 1.524 . S
C1366 C1365 1.524 . S
C1366 C1367 1.397 . S
C1366 C1371 1.363 . S
C1367 H1338 0.950 . S
C1367 C1366 1.397 . S
C1367 C1368 1.334 . S
C1368 H1339 0.950 . S
C1368 C1367 1.334 . S
C1368 C1369 1.287 . S
C1369 C1368 1.287 . S
C1369 C1370 1.524 . S
C1369 H1372 0.999 . S
C1370 H1340 0.950 . S
C1370 C1369 1.524 . S
C1370 C1371 1.415 . S
C1371 H1341 0.950 . S
C1371 C1366 1.363 . S
C1371 C1370 1.415 . S
H1372 C1369 0.999 . S
H1373 C1354 0.913 . S
H1374 C1392 0.951 . S
H1375 C1394 0.951 . S
H1376 C1396 0.950 . S
H1377 C1397 0.950 . S
H1378 C1399 0.950 . S
H1379 C1402 0.950 . S
H1380 C1403 0.950 . S
H1381 C1405 0.950 . S
H1382 C1406 0.950 . S
H1383 C1407 0.951 . S
H1384 C1409 0.951 . S
H1385 C1411 0.950 . S
H1386 C1412 0.950 . S
H1387 C1414 0.950 . S
H1388 C1417 0.950 . S
H1389 C1418 0.950 . S
H1390 C1420 0.950 . S
H1391 C1421 0.950 . S
C1392 H1374 0.951 . S
C1392 C1393 1.366 . S
C1392 C1394 1.388 . S
C1393 C1392 1.366 . S
C1393 C1397 1.385 . S
C1394 H1375 0.951 . S
C1394 C1392 1.388 . S
C1394 C1395 1.366 . S
C1395 C1394 1.366 . S
C1395 C1396 1.414 . S
C1395 C1398 1.499 . S
C1396 H1376 0.950 . S
C1396 C1395 1.414 . S
C1396 C1397 1.374 . S
C1397 H1377 0.950 . S
C1397 C1393 1.385 . S
C1397 C1396 1.374 . S
C1398 C1395 1.499 . S
C1398 C1399 1.373 . S
C1398 C1400 1.389 . S
C1399 H1378 0.950 . S
C1399 C1398 1.373 . S
C1399 C1415 1.377 . S
C1400 C1398 1.389 . S
C1400 C1401 1.524 . S
C1400 C1414 1.377 . S
C1401 C1400 1.524 . S
C1401 C1402 1.397 . S
C1401 C1406 1.363 . S
C1402 H1379 0.950 . S
C1402 C1401 1.397 . S
C1402 C1403 1.334 . S
C1403 H1380 0.950 . S
C1403 C1402 1.334 . S
C1403 C1404 1.287 . S
C1404 C1403 1.287 . S
C1404 C1405 1.524 . S
C1404 H1423 0.913 . S
C1405 H1381 0.950 . S
C1405 C1404 1.524 . S
C1405 C1406 1.415 . S
C1406 H1382 0.950 . S
C1406 C1401 1.363 . S
C1406 C1405 1.415 . S
C1407 H1383 0.951 . S
C1407 C1408 1.366 . S
C1407 C1409 1.388 . S
C1408 C1407 1.366 . S
C1408 C1412 1.385 . S
C1409 H1384 0.951 . S
C1409 C1407 1.388 . S
C1409 C1410 1.366 . S
C1410 C1409 1.366 . S
C1410 C1411 1.414 . S
C1410 C1413 1.499 . S
C1411 H1385 0.950 . S
C1411 C1410 1.414 . S
C1411 C1412 1.374 . S
C1412 H1386 0.950 . S
C1412 C1408 1.385 . S
C1412 C1411 1.374 . S
C1413 C1410 1.499 . S
C1413 C1414 1.373 . S
C1413 C1415 1.389 . S
C1414 H1387 0.950 . S
C1414 C1400 1.377 . S
C1414 C1413 1.373 . S
C1415 C1399 1.377 . S
C1415 C1413 1.389 . S
C1415 C1416 1.524 . S
C1416 C1415 1.524 . S
C1416 C1417 1.397 . S
C1416 C1421 1.363 . S
C1417 H1388 0.950 . S
C1417 C1416 1.397 . S
C1417 C1418 1.334 . S
C1418 H1389 0.950 . S
C1418 C1417 1.334 . S
C1418 C1419 1.287 . S
C1419 C1418 1.287 . S
C1419 C1420 1.524 . S
C1419 H1422 0.999 . S
C1420 H1390 0.950 . S
C1420 C1419 1.524 . S
C1420 C1421 1.415 . S
C1421 H1391 0.950 . S
C1421 C1416 1.363 . S
C1421 C1420 1.415 . S
H1422 C1419 0.999 . S
H1423 C1404 0.913 . S
H1424 C1442 0.951 . S
H1425 C1444 0.951 . S
H1426 C1446 0.950 . S
H1427 C1447 0.950 . S
H1428 C1449 0.950 . S
H1429 C1452 0.950 . S
H1430 C1453 0.950 . S
H1431 C1455 0.950 . S
H1432 C1456 0.933 1_556 S
H1433 C1457 0.951 . S
H1434 C1459 0.951 . S
H1435 C1461 0.950 . S
H1436 C1462 0.950 . S
H1437 C1464 0.950 . S
H1438 C1467 0.950 . S
H1439 C1468 0.950 . S
H1440 C1470 0.950 . S
H1441 C1471 0.933 1_554 S
C1442 H1424 0.951 . S
C1442 C1443 1.366 . S
C1442 C1444 1.388 . S
C1443 C1442 1.366 . S
C1443 C1447 1.385 . S
C1444 H1425 0.951 . S
C1444 C1442 1.388 . S
C1444 C1445 1.366 . S
C1445 C1444 1.366 . S
C1445 C1446 1.414 . S
C1445 C1448 1.499 . S
C1446 H1426 0.950 . S
C1446 C1445 1.414 . S
C1446 C1447 1.374 . S
C1447 H1427 0.950 . S
C1447 C1443 1.385 . S
C1447 C1446 1.374 . S
C1448 C1445 1.499 . S
C1448 C1449 1.373 . S
C1448 C1450 1.389 . S
C1449 H1428 0.950 . S
C1449 C1448 1.373 . S
C1449 C1465 1.377 1_554 S
C1450 C1448 1.389 . S
C1450 C1451 1.524 . S
C1450 C1464 1.377 1_554 S
C1451 C1450 1.524 . S
C1451 C1452 1.397 . S
C1451 C1456 1.363 . S
C1452 H1429 0.950 . S
C1452 C1451 1.397 . S
C1452 C1453 1.334 . S
C1453 H1430 0.950 . S
C1453 C1452 1.334 . S
C1453 C1454 1.287 . S
C1454 C1453 1.287 . S
C1454 C1455 1.524 . S
C1454 H1473 0.913 . S
C1455 H1431 0.950 . S
C1455 C1454 1.524 . S
C1455 C1456 1.415 . S
C1456 H1432 0.933 1_554 S
C1456 C1451 1.363 . S
C1456 C1455 1.415 . S
C1457 H1433 0.951 . S
C1457 C1458 1.366 . S
C1457 C1459 1.388 . S
C1458 C1457 1.366 . S
C1458 C1462 1.385 . S
C1459 H1434 0.951 . S
C1459 C1457 1.388 . S
C1459 C1460 1.366 . S
C1460 C1459 1.366 . S
C1460 C1461 1.414 . S
C1460 C1463 1.499 . S
C1461 H1435 0.950 . S
C1461 C1460 1.414 . S
C1461 C1462 1.374 . S
C1462 H1436 0.950 . S
C1462 C1458 1.385 . S
C1462 C1461 1.374 . S
C1463 C1460 1.499 . S
C1463 C1464 1.373 . S
C1463 C1465 1.389 . S
C1464 H1437 0.950 . S
C1464 C1450 1.377 1_556 S
C1464 C1463 1.373 . S
C1465 C1449 1.377 1_556 S
C1465 C1463 1.389 . S
C1465 C1466 1.524 . S
C1466 C1465 1.524 . S
C1466 C1467 1.397 . S
C1466 C1471 1.363 . S
C1467 H1438 0.950 . S
C1467 C1466 1.397 . S
C1467 C1468 1.334 . S
C1468 H1439 0.950 . S
C1468 C1467 1.334 . S
C1468 C1469 1.287 . S
C1469 C1468 1.287 . S
C1469 C1470 1.524 . S
C1469 H1472 0.999 . S
C1470 H1440 0.950 . S
C1470 C1469 1.524 . S
C1470 C1471 1.415 . S
C1471 H1441 0.933 1_556 S
C1471 C1466 1.363 . S
C1471 C1470 1.415 . S
H1472 C1469 0.999 . S
H1473 C1454 0.913 . S
H1474 C1492 0.951 . S
H1475 C1494 0.951 . S
H1476 C1496 0.950 . S
H1477 C1497 0.950 . S
H1478 C1499 0.950 . S
H1479 C1502 0.950 . S
H1480 C1503 0.950 . S
H1481 C1505 0.950 . S
H1482 C1506 0.950 . S
H1483 C1507 0.951 . S
H1484 C1509 0.951 . S
H1485 C1511 0.950 . S
H1486 C1512 0.950 . S
H1487 C1514 0.950 . S
H1488 C1517 0.950 . S
H1489 C1518 0.950 . S
H1490 C1520 0.950 . S
H1491 C1521 0.950 . S
C1492 H1474 0.951 . S
C1492 C1493 1.366 . S
C1492 C1494 1.388 . S
C1493 C1492 1.366 . S
C1493 C1497 1.385 . S
C1494 H1475 0.951 . S
C1494 C1492 1.388 . S
C1494 C1495 1.366 . S
C1495 C1494 1.366 . S
C1495 C1496 1.414 . S
C1495 C1498 1.499 . S
C1496 H1476 0.950 . S
C1496 C1495 1.414 . S
C1496 C1497 1.374 . S
C1497 H1477 0.950 . S
C1497 C1493 1.385 . S
C1497 C1496 1.374 . S
C1498 C1495 1.499 . S
C1498 C1499 1.373 . S
C1498 C1500 1.389 . S
C1499 H1478 0.950 . S
C1499 C1498 1.373 . S
C1499 C1515 1.377 . S
C1500 C1498 1.389 . S
C1500 C1501 1.524 . S
C1500 C1514 1.377 . S
C1501 C1500 1.524 . S
C1501 C1502 1.397 . S
C1501 C1506 1.363 . S
C1502 H1479 0.950 . S
C1502 C1501 1.397 . S
C1502 C1503 1.334 . S
C1503 H1480 0.950 . S
C1503 C1502 1.334 . S
C1503 C1504 1.287 . S
C1504 C1503 1.287 . S
C1504 C1505 1.524 . S
C1504 H1523 0.913 . S
C1505 H1481 0.950 . S
C1505 C1504 1.524 . S
C1505 C1506 1.415 . S
C1506 H1482 0.950 . S
C1506 C1501 1.363 . S
C1506 C1505 1.415 . S
C1507 H1483 0.951 . S
C1507 C1508 1.366 . S
C1507 C1509 1.388 . S
C1508 C1507 1.366 . S
C1508 C1512 1.385 . S
C1509 H1484 0.951 . S
C1509 C1507 1.388 . S
C1509 C1510 1.366 . S
C1510 C1509 1.366 . S
C1510 C1511 1.414 . S
C1510 C1513 1.499 . S
C1511 H1485 0.950 . S
C1511 C1510 1.414 . S
C1511 C1512 1.374 . S
C1512 H1486 0.950 . S
C1512 C1508 1.385 . S
C1512 C1511 1.374 . S
C1513 C1510 1.499 . S
C1513 C1514 1.373 . S
C1513 C1515 1.389 . S
C1514 H1487 0.950 . S
C1514 C1500 1.377 . S
C1514 C1513 1.373 . S
C1515 C1499 1.377 . S
C1515 C1513 1.389 . S
C1515 C1516 1.524 . S
C1516 C1515 1.524 . S
C1516 C1517 1.397 . S
C1516 C1521 1.363 . S
C1517 H1488 0.950 . S
C1517 C1516 1.397 . S
C1517 C1518 1.334 . S
C1518 H1489 0.950 . S
C1518 C1517 1.334 . S
C1518 C1519 1.287 . S
C1519 C1518 1.287 . S
C1519 C1520 1.524 . S
C1519 H1522 0.999 . S
C1520 H1490 0.950 . S
C1520 C1519 1.524 . S
C1520 C1521 1.415 . S
C1521 H1491 0.950 . S
C1521 C1516 1.363 . S
C1521 C1520 1.415 . S
H1522 C1519 0.999 . S
H1523 C1504 0.913 . S
H1524 C1542 0.951 . S
H1525 C1544 0.951 . S
H1526 C1546 0.950 . S
H1527 C1547 0.950 . S
H1528 C1549 0.950 . S
H1529 C1552 0.950 . S
H1530 C1553 0.950 . S
H1531 C1555 0.950 . S
H1532 C1556 0.950 1_556 S
H1533 C1557 0.951 . S
H1534 C1559 0.958 . S
H1535 C1561 0.950 . S
H1536 C1562 0.950 . S
H1537 C1564 0.950 . S
H1538 C1567 0.950 . S
H1539 C1568 0.950 . S
H1540 C1570 0.950 . S
H1541 C1571 0.950 1_554 S
C1542 H1524 0.951 . S
C1542 C1543 1.366 . S
C1542 C1544 1.388 . S
C1543 C1542 1.366 . S
C1543 C1547 1.385 . S
C1544 H1525 0.951 . S
C1544 C1542 1.388 . S
C1544 C1545 1.366 . S
C1545 C1544 1.366 . S
C1545 C1546 1.414 . S
C1545 C1548 1.499 . S
C1546 H1526 0.950 . S
C1546 C1545 1.414 . S
C1546 C1547 1.374 . S
C1547 H1527 0.950 . S
C1547 C1543 1.385 . S
C1547 C1546 1.374 . S
C1548 C1545 1.499 . S
C1548 C1549 1.373 1_655 S
C1548 C1550 1.389 . S
C1549 H1528 0.950 . S
C1549 C1548 1.373 1_455 S
C1549 C1565 1.377 1_554 S
C1550 C1548 1.389 . S
C1550 C1551 1.524 . S
C1550 C1564 1.377 1_554 S
C1551 C1550 1.524 . S
C1551 C1552 1.397 . S
C1551 C1556 1.363 . S
C1552 H1529 0.950 . S
C1552 C1551 1.397 . S
C1552 C1553 1.334 . S
C1553 H1530 0.950 . S
C1553 C1552 1.334 . S
C1553 C1554 1.287 . S
C1554 C1553 1.287 . S
C1554 C1555 1.524 . S
C1554 H1573 0.913 . S
C1555 H1531 0.950 . S
C1555 C1554 1.524 . S
C1555 C1556 1.415 . S
C1556 H1532 0.950 1_554 S
C1556 C1551 1.363 . S
C1556 C1555 1.415 . S
C1557 H1533 0.951 . S
C1557 C1558 1.366 . S
C1557 C1559 1.388 . S
C1558 C1557 1.366 . S
C1558 C1562 1.385 . S
C1559 H1534 0.958 . S
C1559 C1557 1.388 . S
C1559 C1560 1.366 . S
C1560 C1559 1.366 . S
C1560 C1561 1.414 . S
C1560 C1563 1.499 . S
C1561 H1535 0.950 . S
C1561 C1560 1.414 . S
C1561 C1562 1.374 . S
C1562 H1536 0.950 . S
C1562 C1558 1.385 . S
C1562 C1561 1.374 . S
C1563 C1560 1.499 . S
C1563 C1564 1.373 . S
C1563 C1565 1.389 1_655 S
C1564 H1537 0.950 . S
C1564 C1550 1.377 1_556 S
C1564 C1563 1.373 . S
C1565 C1549 1.377 1_556 S
C1565 C1563 1.389 1_455 S
C1565 C1566 1.524 . S
C1566 C1565 1.524 . S
C1566 C1567 1.397 . S
C1566 C1571 1.363 . S
C1567 H1538 0.950 . S
C1567 C1566 1.397 . S
C1567 C1568 1.334 . S
C1568 H1539 0.950 . S
C1568 C1567 1.334 . S
C1568 C1569 1.287 . S
C1569 C1568 1.287 . S
C1569 C1570 1.524 . S
C1569 H1572 0.999 . S
C1570 H1540 0.950 . S
C1570 C1569 1.524 . S
C1570 C1571 1.415 . S
C1571 H1541 0.950 1_556 S
C1571 C1566 1.363 . S
C1571 C1570 1.415 . S
H1572 C1569 0.999 . S
H1573 C1554 0.913 . S
H1574 C1592 0.951 . S
H1575 C1594 0.951 . S
H1576 C1596 0.950 . S
H1577 C1597 0.950 . S
H1578 C1599 0.950 . S
H1579 C1602 0.950 . S
H1580 C1603 0.950 . S
H1581 C1605 0.950 . S
H1582 C1606 0.950 . S
H1583 C1607 0.951 . S
H1584 C1609 0.951 . S
H1585 C1611 0.950 . S
H1586 C1612 0.950 . S
H1587 C1614 0.950 . S
H1588 C1617 0.950 . S
H1589 C1618 0.950 . S
H1590 C1620 0.950 . S
H1591 C1621 0.950 . S
C1592 H1574 0.951 . S
C1592 C1593 1.366 1_545 S
C1592 C1594 1.388 . S
C1593 C1592 1.366 1_565 S
C1593 C1597 1.385 . S
C1594 H1575 0.951 . S
C1594 C1592 1.388 . S
C1594 C1595 1.366 1_545 S
C1595 C1594 1.366 1_565 S
C1595 C1596 1.414 . S
C1595 C1598 1.499 . S
C1596 H1576 0.950 . S
C1596 C1595 1.414 . S
C1596 C1597 1.374 . S
C1597 H1577 0.950 . S
C1597 C1593 1.385 . S
C1597 C1596 1.374 . S
C1598 C1595 1.499 . S
C1598 C1599 1.373 . S
C1598 C1600 1.389 . S
C1599 H1578 0.950 . S
C1599 C1598 1.373 . S
C1599 C1615 1.377 . S
C1600 C1598 1.389 . S
C1600 C1601 1.524 . S
C1600 C1614 1.377 . S
C1601 C1600 1.524 . S
C1601 C1602 1.397 . S
C1601 C1606 1.363 1_565 S
C1602 H1579 0.950 . S
C1602 C1601 1.397 . S
C1602 C1603 1.334 . S
C1603 H1580 0.950 . S
C1603 C1602 1.334 . S
C1603 C1604 1.287 . S
C1604 C1603 1.287 . S
C1604 C1605 1.524 1_565 S
C1604 H1623 0.913 . S
C1605 H1581 0.950 . S
C1605 C1604 1.524 1_545 S
C1605 C1606 1.415 . S
C1606 H1582 0.950 . S
C1606 C1601 1.363 1_545 S
C1606 C1605 1.415 . S
C1607 H1583 0.951 . S
C1607 C1608 1.366 . S
C1607 C1609 1.388 . S
C1608 C1607 1.366 . S
C1608 C1612 1.385 1_565 S
C1609 H1584 0.951 . S
C1609 C1607 1.388 . S
C1609 C1610 1.366 . S
C1610 C1609 1.366 . S
C1610 C1611 1.414 1_565 S
C1610 C1613 1.499 . S
C1611 H1585 0.950 . S
C1611 C1610 1.414 1_545 S
C1611 C1612 1.374 . S
C1612 H1586 0.950 . S
C1612 C1608 1.385 1_545 S
C1612 C1611 1.374 . S
C1613 C1610 1.499 . S
C1613 C1614 1.373 . S
C1613 C1615 1.389 . S
C1614 H1587 0.950 . S
C1614 C1600 1.377 . S
C1614 C1613 1.373 . S
C1615 C1599 1.377 . S
C1615 C1613 1.389 . S
C1615 C1616 1.524 . S
C1616 C1615 1.524 . S
C1616 C1617 1.397 1_565 S
C1616 C1621 1.363 . S
C1617 H1588 0.950 . S
C1617 C1616 1.397 1_545 S
C1617 C1618 1.334 . S
C1618 H1589 0.950 . S
C1618 C1617 1.334 . S
C1618 C1619 1.287 1_545 S
C1619 C1618 1.287 1_565 S
C1619 C1620 1.524 . S
C1619 H1622 0.999 . S
C1620 H1590 0.950 . S
C1620 C1619 1.524 . S
C1620 C1621 1.415 . S
C1621 H1591 0.950 . S
C1621 C1616 1.363 . S
C1621 C1620 1.415 . S
H1622 C1619 0.999 . S
H1623 C1604 0.913 . S
H1624 C1642 0.951 . S
H1625 C1644 0.951 . S
H1626 C1646 0.950 . S
H1627 C1647 0.950 . S
H1628 C1649 0.950 . S
H1629 C1652 0.950 . S
H1630 C1653 0.950 . S
H1631 C1655 0.950 . S
H1632 C1656 0.950 1_554 S
H1633 C1657 0.951 . S
H1634 C1659 0.951 . S
H1635 C1661 0.950 . S
H1636 C1662 0.950 . S
H1637 C1664 0.950 . S
H1638 C1667 0.950 . S
H1639 C1668 0.950 . S
H1640 C1670 0.950 . S
H1641 C1671 0.950 1_556 S
C1642 H1624 0.951 . S
C1642 C1643 1.366 . S
C1642 C1644 1.388 . S
C1643 C1642 1.366 . S
C1643 C1647 1.385 . S
C1644 H1625 0.951 . S
C1644 C1642 1.388 . S
C1644 C1645 1.366 . S
C1645 C1644 1.366 . S
C1645 C1646 1.414 . S
C1645 C1648 1.499 . S
C1646 H1626 0.950 . S
C1646 C1645 1.414 . S
C1646 C1647 1.374 . S
C1647 H1627 0.950 . S
C1647 C1643 1.385 . S
C1647 C1646 1.374 . S
C1648 C1645 1.499 . S
C1648 C1649 1.373 . S
C1648 C1650 1.389 . S
C1649 H1628 0.950 . S
C1649 C1648 1.373 . S
C1649 C1665 1.377 1_556 S
C1650 C1648 1.389 . S
C1650 C1651 1.524 . S
C1650 C1664 1.377 1_556 S
C1651 C1650 1.524 . S
C1651 C1652 1.397 . S
C1651 C1656 1.363 . S
C1652 H1629 0.950 . S
C1652 C1651 1.397 . S
C1652 C1653 1.334 . S
C1653 H1630 0.950 . S
C1653 C1652 1.334 . S
C1653 C1654 1.287 . S
C1654 C1653 1.287 . S
C1654 C1655 1.524 . S
C1654 H1673 0.913 . S
C1655 H1631 0.950 . S
C1655 C1654 1.524 . S
C1655 C1656 1.415 . S
C1656 H1632 0.950 1_556 S
C1656 C1651 1.363 . S
C1656 C1655 1.415 . S
C1657 H1633 0.951 . S
C1657 C1658 1.366 . S
C1657 C1659 1.388 . S
C1658 C1657 1.366 . S
C1658 C1662 1.385 . S
C1659 H1634 0.951 . S
C1659 C1657 1.388 . S
C1659 C1660 1.366 . S
C1660 C1659 1.366 . S
C1660 C1661 1.414 . S
C1660 C1663 1.499 . S
C1661 H1635 0.950 . S
C1661 C1660 1.414 . S
C1661 C1662 1.374 . S
C1662 H1636 0.950 . S
C1662 C1658 1.385 . S
C1662 C1661 1.374 . S
C1663 C1660 1.499 . S
C1663 C1664 1.373 . S
C1663 C1665 1.389 . S
C1664 H1637 0.950 . S
C1664 C1650 1.377 1_554 S
C1664 C1663 1.373 . S
C1665 C1649 1.377 1_554 S
C1665 C1663 1.389 . S
C1665 C1666 1.524 . S
C1666 C1665 1.524 . S
C1666 C1667 1.397 . S
C1666 C1671 1.363 . S
C1667 H1638 0.950 . S
C1667 C1666 1.397 . S
C1667 C1668 1.334 . S
C1668 H1639 0.950 . S
C1668 C1667 1.334 . S
C1668 C1669 1.287 . S
C1669 C1668 1.287 . S
C1669 C1670 1.524 . S
C1669 H1672 0.999 . S
C1670 H1640 0.950 . S
C1670 C1669 1.524 . S
C1670 C1671 1.415 . S
C1671 H1641 0.950 1_554 S
C1671 C1666 1.363 . S
C1671 C1670 1.415 . S
H1672 C1669 0.999 . S
H1673 C1654 0.913 . S
H1674 C1692 0.951 . S
H1675 C1694 0.951 . S
H1676 C1696 0.950 . S
H1677 C1697 0.950 . S
H1678 C1699 0.950 . S
H1679 C1702 0.950 . S
H1680 C1703 0.950 . S
H1681 C1705 0.950 . S
H1682 C1706 0.950 . S
H1683 C1707 0.951 . S
H1684 C1709 0.951 . S
H1685 C1711 0.950 . S
H1686 C1712 0.950 . S
H1687 C1714 0.950 . S
H1688 C1717 0.950 . S
H1689 C1718 0.950 . S
H1690 C1720 0.950 . S
H1691 C1721 0.950 . S
C1692 H1674 0.951 . S
C1692 C1693 1.366 . S
C1692 C1694 1.388 . S
C1693 C1692 1.366 . S
C1693 C1697 1.385 . S
C1694 H1675 0.951 . S
C1694 C1692 1.388 . S
C1694 C1695 1.366 . S
C1695 C1694 1.366 . S
C1695 C1696 1.414 . S
C1695 C1698 1.499 . S
C1696 H1676 0.950 . S
C1696 C1695 1.414 . S
C1696 C1697 1.374 . S
C1697 H1677 0.950 . S
C1697 C1693 1.385 . S
C1697 C1696 1.374 . S
C1698 C1695 1.499 . S
C1698 C1699 1.373 . S
C1698 C1700 1.389 . S
C1699 H1678 0.950 . S
C1699 C1698 1.373 . S
C1699 C1715 1.377 . S
C1700 C1698 1.389 . S
C1700 C1701 1.524 . S
C1700 C1714 1.377 . S
C1701 C1700 1.524 . S
C1701 C1702 1.397 . S
C1701 C1706 1.363 . S
C1702 H1679 0.950 . S
C1702 C1701 1.397 . S
C1702 C1703 1.334 . S
C1703 H1680 0.950 . S
C1703 C1702 1.334 . S
C1703 C1704 1.287 . S
C1704 C1703 1.287 . S
C1704 C1705 1.524 . S
C1704 H1723 0.913 . S
C1705 H1681 0.950 . S
C1705 C1704 1.524 . S
C1705 C1706 1.415 . S
C1706 H1682 0.950 . S
C1706 C1701 1.363 . S
C1706 C1705 1.415 . S
C1707 H1683 0.951 . S
C1707 C1708 1.366 . S
C1707 C1709 1.388 . S
C1708 C1707 1.366 . S
C1708 C1712 1.385 . S
C1709 H1684 0.951 . S
C1709 C1707 1.388 . S
C1709 C1710 1.366 . S
C1710 C1709 1.366 . S
C1710 C1711 1.414 . S
C1710 C1713 1.499 . S
C1711 H1685 0.950 . S
C1711 C1710 1.414 . S
C1711 C1712 1.374 . S
C1712 H1686 0.950 . S
C1712 C1708 1.385 . S
C1712 C1711 1.374 . S
C1713 C1710 1.499 . S
C1713 C1714 1.373 . S
C1713 C1715 1.389 . S
C1714 H1687 0.950 . S
C1714 C1700 1.377 . S
C1714 C1713 1.373 . S
C1715 C1699 1.377 . S
C1715 C1713 1.389 . S
C1715 C1716 1.524 . S
C1716 C1715 1.524 . S
C1716 C1717 1.397 . S
C1716 C1721 1.363 . S
C1717 H1688 0.950 . S
C1717 C1716 1.397 . S
C1717 C1718 1.334 . S
C1718 H1689 0.950 . S
C1718 C1717 1.334 . S
C1718 C1719 1.287 . S
C1719 C1718 1.287 . S
C1719 C1720 1.524 . S
C1719 H1722 0.999 . S
C1720 H1690 0.950 . S
C1720 C1719 1.524 . S
C1720 C1721 1.415 . S
C1721 H1691 0.950 . S
C1721 C1716 1.363 . S
C1721 C1720 1.415 . S
H1722 C1719 0.999 . S
H1723 C1704 0.913 . S
H1724 C1742 0.951 1_655 S
H1725 C1744 0.951 1_655 S
H1726 C1746 0.950 . S
H1727 C1747 0.950 . S
H1728 C1749 0.941 1_655 S
H1729 C1752 0.950 . S
H1730 C1753 0.950 . S
H1731 C1755 0.950 . S
H1732 C1756 0.950 . S
H1733 C1757 0.951 . S
H1734 C1759 0.951 . S
H1735 C1761 0.945 1_655 S
H1736 C1762 0.937 1_655 S
H1737 C1764 0.950 . S
H1738 C1767 0.950 . S
H1739 C1768 0.950 . S
H1740 C1770 0.950 . S
H1741 C1771 0.950 1_455 S
C1742 H1724 0.951 1_455 S
C1742 C1743 1.366 . S
C1742 C1744 1.388 . S
C1743 C1742 1.366 . S
C1743 C1747 1.385 . S
C1744 H1725 0.951 1_455 S
C1744 C1742 1.388 . S
C1744 C1745 1.366 . S
C1745 C1744 1.366 . S
C1745 C1746 1.414 . S
C1745 C1748 1.499 . S
C1746 H1726 0.950 . S
C1746 C1745 1.414 . S
C1746 C1747 1.374 . S
C1747 H1727 0.950 . S
C1747 C1743 1.385 . S
C1747 C1746 1.374 . S
C1748 C1745 1.499 . S
C1748 C1749 1.384 . S
C1748 C1750 1.389 . S
C1749 H1728 0.941 1_455 S
C1749 C1748 1.384 . S
C1749 C1765 1.375 1_454 S
C1750 C1748 1.389 . S
C1750 C1751 1.524 . S
C1750 C1764 1.377 1_554 S
C1751 C1750 1.524 . S
C1751 C1752 1.397 . S
C1751 C1756 1.363 . S
C1752 H1729 0.950 . S
C1752 C1751 1.397 . S
C1752 C1753 1.334 . S
C1753 H1730 0.950 . S
C1753 C1752 1.334 . S
C1753 C1754 1.287 . S
C1754 C1753 1.287 . S
C1754 C1755 1.524 . S
C1754 H1773 0.913 . S
C1755 H1731 0.950 . S
C1755 C1754 1.524 . S
C1755 C1756 1.415 . S
C1756 H1732 0.950 . S
C1756 C1751 1.363 . S
C1756 C1755 1.415 . S
C1757 H1733 0.951 . S
C1757 C1758 1.366 . S
C1757 C1759 1.388 . S
C1758 C1757 1.366 . S
C1758 C1762 1.399 . S
C1759 H1734 0.951 . S
C1759 C1757 1.388 . S
C1759 C1760 1.366 . S
C1760 C1759 1.366 . S
C1760 C1761 1.420 . S
C1760 C1763 1.499 . S
C1761 H1735 0.945 1_455 S
C1761 C1760 1.420 . S
C1761 C1762 1.374 . S
C1762 H1736 0.937 1_455 S
C1762 C1758 1.399 . S
C1762 C1761 1.374 . S
C1763 C1760 1.499 . S
C1763 C1764 1.373 . S
C1763 C1765 1.389 1_455 S
C1764 H1737 0.950 . S
C1764 C1750 1.377 1_556 S
C1764 C1763 1.373 . S
C1765 C1749 1.375 1_656 S
C1765 C1763 1.389 1_655 S
C1765 C1766 1.524 . S
C1766 C1765 1.524 . S
C1766 C1767 1.397 . S
C1766 C1771 1.363 . S
C1767 H1738 0.950 . S
C1767 C1766 1.397 . S
C1767 C1768 1.334 . S
C1768 H1739 0.950 . S
C1768 C1767 1.334 . S
C1768 C1769 1.287 . S
C1769 C1768 1.287 . S
C1769 C1770 1.524 . S
C1769 H1772 0.999 . S
C1770 H1740 0.950 . S
C1770 C1769 1.524 . S
C1770 C1771 1.415 . S
C1771 H1741 0.950 1_655 S
C1771 C1766 1.363 . S
C1771 C1770 1.415 . S
H1772 C1769 0.999 . S
H1773 C1754 0.913 . S
H1774 C1792 0.951 . S
H1775 C1794 0.951 . S
H1776 C1796 0.950 . S
H1777 C1797 0.950 . S
H1778 C1799 0.950 . S
H1779 C1802 0.950 . S
H1780 C1803 0.950 . S
H1781 C1805 0.950 . S
H1782 C1806 0.950 . S
H1783 C1807 0.951 . S
H1784 C1809 0.951 . S
H1785 C1811 0.950 . S
H1786 C1812 0.950 . S
H1787 C1814 0.950 . S
H1788 C1817 0.950 . S
H1789 C1818 0.950 . S
H1790 C1820 0.950 . S
H1791 C1821 0.950 . S
C1792 H1774 0.951 . S
C1792 C1793 1.366 . S
C1792 C1794 1.388 . S
C1793 C1792 1.366 . S
C1793 C1797 1.385 . S
C1794 H1775 0.951 . S
C1794 C1792 1.388 . S
C1794 C1795 1.366 . S
C1795 C1794 1.366 . S
C1795 C1796 1.414 . S
C1795 C1798 1.499 . S
C1796 H1776 0.950 . S
C1796 C1795 1.414 . S
C1796 C1797 1.374 . S
C1797 H1777 0.950 . S
C1797 C1793 1.385 . S
C1797 C1796 1.374 . S
C1798 C1795 1.499 . S
C1798 C1799 1.373 . S
C1798 C1800 1.389 1_545 S
C1799 H1778 0.950 . S
C1799 C1798 1.373 . S
C1799 C1815 1.377 . S
C1800 C1798 1.389 1_565 S
C1800 C1801 1.524 . S
C1800 C1814 1.377 . S
C1801 C1800 1.524 . S
C1801 C1802 1.397 . S
C1801 C1806 1.363 . S
C1802 H1779 0.950 . S
C1802 C1801 1.397 . S
C1802 C1803 1.334 . S
C1803 H1780 0.950 . S
C1803 C1802 1.334 . S
C1803 C1804 1.287 . S
C1804 C1803 1.287 . S
C1804 C1805 1.524 . S
C1804 H1823 0.913 . S
C1805 H1781 0.950 . S
C1805 C1804 1.524 . S
C1805 C1806 1.415 . S
C1806 H1782 0.950 . S
C1806 C1801 1.363 . S
C1806 C1805 1.415 . S
C1807 H1783 0.951 . S
C1807 C1808 1.366 . S
C1807 C1809 1.388 . S
C1808 C1807 1.366 . S
C1808 C1812 1.385 . S
C1809 H1784 0.951 . S
C1809 C1807 1.388 . S
C1809 C1810 1.366 . S
C1810 C1809 1.366 . S
C1810 C1811 1.414 . S
C1810 C1813 1.499 . S
C1811 H1785 0.950 . S
C1811 C1810 1.414 . S
C1811 C1812 1.374 . S
C1812 H1786 0.950 . S
C1812 C1808 1.385 . S
C1812 C1811 1.374 . S
C1813 C1810 1.499 . S
C1813 C1814 1.373 1_545 S
C1813 C1815 1.389 . S
C1814 H1787 0.950 . S
C1814 C1800 1.377 . S
C1814 C1813 1.373 1_565 S
C1815 C1799 1.377 . S
C1815 C1813 1.389 . S
C1815 C1816 1.524 . S
C1816 C1815 1.524 . S
C1816 C1817 1.397 . S
C1816 C1821 1.363 . S
C1817 H1788 0.950 . S
C1817 C1816 1.397 . S
C1817 C1818 1.334 . S
C1818 H1789 0.950 . S
C1818 C1817 1.334 . S
C1818 C1819 1.287 . S
C1819 C1818 1.287 . S
C1819 C1820 1.524 . S
C1819 H1822 0.999 . S
C1820 H1790 0.950 . S
C1820 C1819 1.524 . S
C1820 C1821 1.415 . S
C1821 H1791 0.950 . S
C1821 C1816 1.363 . S
C1821 C1820 1.415 . S
H1822 C1819 0.999 . S
H1823 C1804 0.913 . S
C243 C8 1.244 . S
C258 C106 1.244 . S
C293 C22 1.244 . S
C308 C64 1.244 . S
C343 C36 1.244 . S
C358 C78 1.244 . S
C393 C50 1.244 . S
C408 C92 1.244 . S
C443 C120 1.244 . S
C458 C218 1.244 . S
C493 C176 1.244 . S
C508 C134 1.244 . S
C543 C148 1.244 . S
C558 C190 1.244 . S
C593 C162 1.244 . S
C608 C204 1.244 . S
C643 C9 1.408 . S
C658 C133 1.417 . S
C693 C23 1.408 . S
C708 C147 1.416 . S
C743 C161 1.418 . S
C758 C37 1.408 . S
C793 C51 1.408 . S
C808 C119 1.417 . S
C843 C65 1.408 . S
C858 C217 1.417 . S
C893 C175 1.417 . S
C908 C79 1.408 . S
C943 C189 1.417 . S
C958 C93 1.408 . S
C993 C203 1.417 . S
C1008 C107 1.409 . S
C1043 C21 1.417 . S
C1058 C121 1.408 . S
C1093 C35 1.417 . S
C1108 C135 1.408 . S
C1143 C149 1.409 . S
C1158 C49 1.417 . S
C1193 C7 1.417 . S
C1208 C163 1.408 . S
C1243 C177 1.409 . S
C1258 C105 1.417 . S
C1293 C191 1.408 . S
C1308 C63 1.417 . S
C1343 C77 1.417 . S
C1358 C205 1.409 . S
C1393 C91 1.416 . S
C1408 C219 1.409 . S
C1443 C3 1.618 . S
C1458 C59 1.618 . S
C1493 C73 1.618 . S
C1508 C17 1.618 . S
C1543 C31 1.618 . S
C1558 C87 1.618 . S
C1593 C101 1.618 . S
C1608 C45 1.618 . S
C1643 C115 1.618 . S
C1658 C171 1.618 . S
C1693 C185 1.618 . S
C1708 C129 1.618 . S
C1743 C199 1.618 . S
C1758 C143 1.618 . S
C1793 C213 1.618 . S
C1808 C157 1.618 . S
