# Generated by pormake.
# Topology ukk, (4)-cn, num edge types: 1
# Building blocks:
#     Node 0, Type 0, BuildingBlock: KOZSID_clean_sbu_0, # of connection points: 4
#     Node 1, Type 0, BuildingBlock: KOZSID_clean_sbu_0, # of connection points: 4
#     Node 2, Type 0, BuildingBlock: KOZSID_clean_sbu_0, # of connection points: 4
#     Node 3, Type 0, BuildingBlock: KOZSID_clean_sbu_0, # of connection points: 4
#     Node 4, Type 0, BuildingBlock: KOZSID_clean_sbu_0, # of connection points: 4
#     Node 5, Type 0, BuildingBlock: KOZSID_clean_sbu_0, # of connection points: 4
#     Node 6, Type 0, BuildingBlock: KOZSID_clean_sbu_0, # of connection points: 4
#     Node 7, Type 0, BuildingBlock: KOZSID_clean_sbu_0, # of connection points: 4
#     Node 8, Type 0, BuildingBlock: KOZSID_clean_sbu_0, # of connection points: 4
#     Node 9, Type 0, BuildingBlock: KOZSID_clean_sbu_0, # of connection points: 4
#     Node 10, Type 0, BuildingBlock: KOZSID_clean_sbu_0, # of connection points: 4
#     Node 11, Type 0, BuildingBlock: KOZSID_clean_sbu_0, # of connection points: 4
#     Node 12, Type 0, BuildingBlock: KOZSID_clean_sbu_0, # of connection points: 4
#     Node 13, Type 0, BuildingBlock: KOZSID_clean_sbu_0, # of connection points: 4
#     Node 14, Type 0, BuildingBlock: KOZSID_clean_sbu_0, # of connection points: 4
#     Node 15, Type 0, BuildingBlock: KOZSID_clean_sbu_0, # of connection points: 4
#     Edge 16, Type (0, 0), BuildingBlock: CIFDUS_clean_linker_0, # of connection points: 2
#     Edge 17, Type (0, 0), BuildingBlock: CIFDUS_clean_linker_0, # of connection points: 2
#     Edge 18, Type (0, 0), BuildingBlock: CIFDUS_clean_linker_0, # of connection points: 2
#     Edge 19, Type (0, 0), BuildingBlock: CIFDUS_clean_linker_0, # of connection points: 2
#     Edge 20, Type (0, 0), BuildingBlock: CIFDUS_clean_linker_0, # of connection points: 2
#     Edge 21, Type (0, 0), BuildingBlock: CIFDUS_clean_linker_0, # of connection points: 2
#     Edge 22, Type (0, 0), BuildingBlock: CIFDUS_clean_linker_0, # of connection points: 2
#     Edge 23, Type (0, 0), BuildingBlock: CIFDUS_clean_linker_0, # of connection points: 2
#     Edge 24, Type (0, 0), BuildingBlock: CIFDUS_clean_linker_0, # of connection points: 2
#     Edge 25, Type (0, 0), BuildingBlock: CIFDUS_clean_linker_0, # of connection points: 2
#     Edge 26, Type (0, 0), BuildingBlock: CIFDUS_clean_linker_0, # of connection points: 2
#     Edge 27, Type (0, 0), BuildingBlock: CIFDUS_clean_linker_0, # of connection points: 2
#     Edge 28, Type (0, 0), BuildingBlock: CIFDUS_clean_linker_0, # of connection points: 2
#     Edge 29, Type (0, 0), BuildingBlock: CIFDUS_clean_linker_0, # of connection points: 2
#     Edge 30, Type (0, 0), BuildingBlock: CIFDUS_clean_linker_0, # of connection points: 2
#     Edge 31, Type (0, 0), BuildingBlock: CIFDUS_clean_linker_0, # of connection points: 2
#     Edge 32, Type (0, 0), BuildingBlock: CIFDUS_clean_linker_0, # of connection points: 2
#     Edge 33, Type (0, 0), BuildingBlock: CIFDUS_clean_linker_0, # of connection points: 2
#     Edge 34, Type (0, 0), BuildingBlock: CIFDUS_clean_linker_0, # of connection points: 2
#     Edge 35, Type (0, 0), BuildingBlock: CIFDUS_clean_linker_0, # of connection points: 2
#     Edge 36, Type (0, 0), BuildingBlock: CIFDUS_clean_linker_0, # of connection points: 2
#     Edge 37, Type (0, 0), BuildingBlock: CIFDUS_clean_linker_0, # of connection points: 2
#     Edge 38, Type (0, 0), BuildingBlock: CIFDUS_clean_linker_0, # of connection points: 2
#     Edge 39, Type (0, 0), BuildingBlock: CIFDUS_clean_linker_0, # of connection points: 2
#     Edge 40, Type (0, 0), BuildingBlock: CIFDUS_clean_linker_0, # of connection points: 2
#     Edge 41, Type (0, 0), BuildingBlock: CIFDUS_clean_linker_0, # of connection points: 2
#     Edge 42, Type (0, 0), BuildingBlock: CIFDUS_clean_linker_0, # of connection points: 2
#     Edge 43, Type (0, 0), BuildingBlock: CIFDUS_clean_linker_0, # of connection points: 2
#     Edge 44, Type (0, 0), BuildingBlock: CIFDUS_clean_linker_0, # of connection points: 2
#     Edge 45, Type (0, 0), BuildingBlock: CIFDUS_clean_linker_0, # of connection points: 2
#     Edge 46, Type (0, 0), BuildingBlock: CIFDUS_clean_linker_0, # of connection points: 2
#     Edge 47, Type (0, 0), BuildingBlock: CIFDUS_clean_linker_0, # of connection points: 2
# Relax obj value: 0.058
# Max RMSD: 0.204
# Mean RMSD: 0.204
data_MOF--net-ukk--node1-KOZSID_clean_sbu_0--edge1-CIFDUS_clean_linker_0
_symmetry_space_group_name_H-M    P1
_symmetry_Int_Tables_number       1
_symmetry_cell_setting            triclinic
loop_
_symmetry_equiv_pos_as_xyz
'x, y, z'
_cell_length_a     58.216364
_cell_length_b     58.228465
_cell_length_c     23.986088
_cell_angle_alpha  90.012841
_cell_angle_beta   90.029485
_cell_angle_gamma 90.001941
loop_
_atom_site_label
_atom_site_type_symbol
_atom_site_fract_x
_atom_site_fract_y
_atom_site_fract_z
_atom_type_partial_charge
C0 C 0.36667 0.08783 0.19574 0.0
C1 C 0.35227 0.07841 0.23573 0.0
C2 C 0.3376 0.09554 0.25199 0.0
C3 C 0.34384 0.11439 0.22113 0.0
N4 N 0.36156 0.11026 0.18659 0.0
Co5 Co 0.37566 0.13281 0.13456 0.0
N6 N 0.36182 0.15937 0.1746 0.0
C7 C 0.3447 0.15811 0.21228 0.0
C8 C 0.34008 0.17874 0.23735 0.0
C9 C 0.35498 0.19403 0.21358 0.0
C10 C 0.36758 0.18201 0.1739 0.0
N11 N 0.38967 0.15537 0.08258 0.0
C12 C 0.39212 0.17856 0.08705 0.0
C13 C 0.40175 0.18753 0.03876 0.0
C14 C 0.40546 0.16939 1.00332 0.0
C15 C 0.39781 0.15035 0.03147 0.0
N16 N 0.38935 0.10611 0.09482 0.0
C17 C 0.3976 0.10643 0.04249 0.0
C18 C 0.40588 0.08542 0.02576 0.0
C19 C 0.40247 0.07096 0.07033 0.0
C20 C 0.39228 0.08401 0.11184 0.0
N21 N 0.34827 0.13095 0.08516 0.0
C22 C 0.31315 0.12783 1.00299 0.0
C23 C 0.322 0.10817 0.02951 0.0
C24 C 0.33929 0.11008 0.07029 0.0
C25 C 0.32174 0.14919 0.02082 0.0
C26 C 0.33913 0.15037 0.06162 0.0
N27 N 0.40328 0.13471 0.18238 0.0
C28 C 0.44472 0.13447 0.19064 0.0
C29 C 0.44347 0.13899 0.24794 0.0
C30 C 0.42152 0.14106 0.27181 0.0
C31 C 0.4017 0.13858 0.23856 0.0
C32 C 0.42461 0.13266 0.15877 0.0
H33 H 0.38512 0.14001 0.25826 0.0
H34 H 0.42641 0.12985 0.11462 0.0
H35 H 0.34583 0.09449 0.08872 0.0
H36 H 0.34566 0.16707 0.07281 0.0
C37 C 0.33648 0.13686 0.23056 0.0
C38 C 0.38408 0.07466 0.16522 0.0
C39 C 0.38354 0.19281 0.13371 0.0
C40 C 0.40054 0.12741 0.01455 0.0
H41 H 0.35235 0.06099 0.25146 0.0
H42 H 0.32461 0.09461 0.28417 0.0
H43 H 0.32818 0.18205 0.27108 0.0
H44 H 0.35637 0.21193 0.22496 0.0
H45 H 0.40532 0.20535 0.0295 0.0
H46 H 0.4132 0.17 0.96234 0.0
H47 H 0.41413 0.08125 0.98662 0.0
H48 H 0.40677 0.05289 0.07199 0.0
H49 H 0.31573 0.09124 0.01863 0.0
H50 H 0.3157 0.16497 1.00197 0.0
H51 H 0.46122 0.13302 0.17007 0.0
H52 H 0.41964 0.14443 0.31598 0.0
C53 C 0.08104 0.6352 0.91668 0.0
C54 C 0.06936 0.61992 0.95072 0.0
C55 C 0.08564 0.60739 0.97835 0.0
C56 C 0.10631 0.61573 0.95984 0.0
N57 N 0.10427 0.63313 0.9231 0.0
Co58 Co 0.13048 0.64843 0.88331 0.0
N59 N 0.15431 0.63269 0.93027 0.0
C60 C 0.15028 0.61539 0.96622 0.0
C61 C 0.16963 0.60789 0.99331 0.0
C62 C 0.18715 0.62104 0.97277 0.0
C63 C 0.17752 0.63576 0.93371 0.0
N64 N 0.15652 0.6634 0.84256 0.0
C65 C 0.17959 0.6632 0.85219 0.0
C66 C 0.19138 0.67467 0.81019 0.0
C67 C 0.17531 0.68252 0.77347 0.0
C68 C 0.1547 0.67528 0.79455 0.0
N69 N 0.10669 0.66435 0.83639 0.0
C70 C 0.11096 0.67714 0.79074 0.0
C71 C 0.09165 0.68597 0.76614 0.0
C72 C 0.0738 0.67795 0.79738 0.0
C73 C 0.08328 0.66456 0.83943 0.0
N74 N 0.12963 0.67432 0.93785 0.0
C75 C 0.12784 0.71043 0.01832 0.0
C76 C 0.12968 0.71506 0.96081 0.0
C77 C 0.13054 0.69689 0.92155 0.0
C78 C 0.12738 0.68717 0.03394 0.0
C79 C 0.12819 0.66968 0.9937 0.0
N80 N 0.1314 0.62216 0.83027 0.0
C81 C 0.15158 0.58931 0.79184 0.0
C82 C 0.1308 0.57918 0.77526 0.0
C83 C 0.11067 0.59196 0.7826 0.0
C84 C 0.11141 0.61334 0.80921 0.0
C85 C 0.15151 0.61076 0.81908 0.0
H86 H 0.09552 0.62216 0.81453 0.0
H87 H 0.16771 0.61752 0.83302 0.0
H88 H 0.13182 0.70123 0.87803 0.0
H89 H 0.12763 0.65229 0.00844 0.0
C90 C 0.1279 0.60809 0.9771 0.0
C91 C 0.06925 0.64939 0.87464 0.0
C92 C 0.19124 0.65112 0.89802 0.0
C93 C 0.13332 0.68092 0.77277 0.0
H94 H 0.05096 0.61756 0.95371 0.0
H95 H 0.08274 0.59364 0.00786 0.0
H96 H 0.17081 0.59469 0.02494 0.0
H97 H 0.20501 0.61971 0.98478 0.0
H98 H 0.20974 0.67683 0.80572 0.0
H99 H 0.1783 0.69247 0.73606 0.0
H100 H 0.09064 0.69666 0.7293 0.0
H101 H 0.05581 0.6808 0.78852 0.0
H102 H 0.13001 0.73259 0.94587 0.0
H103 H 0.12657 0.68228 0.07742 0.0
H104 H 0.16767 0.58024 0.78649 0.0
H105 H 0.09424 0.58521 0.76911 0.0
C106 C 0.65579 0.93596 0.18349 0.0
C107 C 0.66833 0.94542 0.22712 0.0
C108 C 0.681 0.92799 0.24978 0.0
C109 C 0.67559 0.90893 0.21887 0.0
N110 N 0.6602 0.91315 0.17823 0.0
Co111 Co 0.64828 0.89015 0.12384 0.0
N112 N 0.65906 0.86381 0.17006 0.0
C113 C 0.67375 0.86521 0.21336 0.0
C114 C 0.67654 0.84483 0.24101 0.0
C115 C 0.66301 0.82947 0.21314 0.0
C116 C 0.65308 0.84121 0.16877 0.0
N117 N 0.63659 0.86704 0.06954 0.0
C118 C 0.63359 0.84391 0.0746 0.0
C119 C 0.62638 0.8345 0.02434 0.0
C120 C 0.62481 0.85225 0.98694 0.0
C121 C 0.63125 0.87151 0.01601 0.0
N122 N 0.63751 0.9166 0.07807 0.0
C123 C 0.63172 0.91554 0.02384 0.0
C124 C 0.62529 0.93647 1.00249 0.0
C125 C 0.62739 0.9517 0.04591 0.0
C126 C 0.63507 0.93921 0.09149 0.0
N127 N 0.67803 0.89079 0.08293 0.0
C128 C 0.71612 0.89286 0.0086 0.0
C129 C 0.70685 0.91277 0.03312 0.0
C130 C 0.6881 0.91137 0.06994 0.0
C131 C 0.70628 0.87176 0.02444 0.0
C132 C 0.68751 0.87109 0.06165 0.0
N133 N 0.61826 0.8898 0.16263 0.0
C134 C 0.57687 0.89164 0.15603 0.0
C135 C 0.57447 0.8922 0.21425 0.0
C136 C 0.59476 0.89076 0.24613 0.0
C137 C 0.61641 0.88958 0.21959 0.0
C138 C 0.59861 0.89059 0.1314 0.0
H139 H 0.63165 0.88884 0.24517 0.0
H140 H 0.59942 0.89071 0.08661 0.0
H141 H 0.68127 0.92719 0.08629 0.0
H142 H 0.68027 0.85457 0.07189 0.0
C143 C 0.68147 0.88645 0.23256 0.0
C144 C 0.64152 0.94961 0.14539 0.0
C145 C 0.63955 0.83004 0.12422 0.0
C146 C 0.62978 0.89424 0.99691 0.0
H147 H 0.66848 0.96312 0.24089 0.0
H148 H 0.69218 0.92895 0.28578 0.0
H149 H 0.68635 0.84173 0.27862 0.0
H150 H 0.66075 0.81168 0.22478 0.0
H151 H 0.62305 0.81661 0.01519 0.0
H152 H 0.61924 0.85126 0.94395 0.0
H153 H 0.61926 0.94015 0.96075 0.0
H154 H 0.62393 0.96994 0.04406 0.0
H155 H 0.71346 0.92959 0.02261 0.0
H156 H 0.71295 0.85576 0.00814 0.0
H157 H 0.56196 0.89205 0.12906 0.0
H158 H 0.59402 0.89113 0.29122 0.0
C159 C 0.93879 0.38833 0.91026 0.0
C160 C 0.95129 0.3982 0.95316 0.0
C161 C 0.9363 0.40109 0.99696 0.0
C162 C 0.91551 0.39282 0.97841 0.0
N163 N 0.91655 0.38497 0.92581 0.0
Co164 Co 0.89035 0.3723 0.88236 0.0
N165 N 0.86702 0.38604 0.93309 0.0
C166 C 0.87138 0.3938 0.98495 0.0
C167 C 0.85198 0.4012 0.01206 0.0
C168 C 0.83425 0.39757 0.97532 0.0
C169 C 0.84381 0.38818 0.92746 0.0
N170 N 0.86443 0.35965 0.83783 0.0
C171 C 0.84176 0.36518 0.83777 0.0
C172 C 0.83017 0.35316 0.79629 0.0
C173 C 0.84581 0.33888 0.77169 0.0
C174 C 0.86615 0.34321 0.79845 0.0
N175 N 0.9136 0.35838 0.83192 0.0
C176 C 0.90992 0.34111 0.79577 0.0
C177 C 0.92922 0.33515 0.76623 0.0
C178 C 0.94612 0.34963 0.78487 0.0
C179 C 0.93609 0.36365 0.82479 0.0
N180 N 0.89059 0.3442 0.92987 0.0
C181 C 0.89036 0.30855 0.01121 0.0
C182 C 0.86987 0.31796 0.99019 0.0
C183 C 0.87034 0.33542 0.94975 0.0
C184 C 0.91101 0.31669 0.98796 0.0
C185 C 0.91076 0.33445 0.94768 0.0
N186 N 0.89002 0.40066 0.83679 0.0
C187 C 0.88796 0.42041 0.74805 0.0
C188 C 0.88875 0.44204 0.77438 0.0
C189 C 0.89039 0.44222 0.83273 0.0
C190 C 0.89097 0.42158 0.8628 0.0
C191 C 0.88869 0.40003 0.77983 0.0
H192 H 0.892 0.42268 0.90751 0.0
H193 H 0.88809 0.38378 0.7583 0.0
H194 H 0.85414 0.34229 0.93598 0.0
H195 H 0.92699 0.3408 0.9323 0.0
C196 C 0.8941 0.39598 1.00424 0.0
C197 C 0.94855 0.38121 0.85635 0.0
C198 C 0.83002 0.37912 0.88056 0.0
C199 C 0.88754 0.33456 0.78245 0.0
H200 H 0.96929 0.40285 0.95271 0.0
H201 H 0.93991 0.40922 0.03658 0.0
H202 H 0.85084 0.40856 0.05339 0.0
H203 H 0.81628 0.40094 0.9834 0.0
H204 H 0.81213 0.35414 0.78571 0.0
H205 H 0.84281 0.32719 0.73734 0.0
H206 H 0.93057 0.32268 0.73291 0.0
H207 H 0.96372 0.35 0.77037 0.0
H208 H 0.85339 0.31205 1.0054 0.0
H209 H 0.92735 0.31007 1.00234 0.0
H210 H 0.88693 0.41915 0.70309 0.0
H211 H 0.89066 0.45826 0.85555 0.0
C212 C 0.36725 0.43877 0.08024 0.0
C213 C 0.35357 0.44904 0.03985 0.0
C214 C 0.33931 0.43232 0.01967 0.0
C215 C 0.34499 0.41286 0.04877 0.0
N216 N 0.36199 0.41617 0.08596 0.0
Co217 Co 0.37485 0.39242 0.13702 0.0
N218 N 0.36137 0.36685 0.09251 0.0
C219 C 0.34524 0.36909 0.05254 0.0
C220 C 0.34029 0.3489 0.02578 0.0
C221 C 0.35384 0.33279 0.05092 0.0
C222 C 0.36605 0.34398 0.09273 0.0
N223 N 0.38756 0.36855 0.18809 0.0
C224 C 0.38898 0.34528 0.18245 0.0
C225 C 0.39801 0.33538 0.23033 0.0
C226 C 0.40222 0.35293 0.26706 0.0
C227 C 0.3955 0.37257 0.23993 0.0
N228 N 0.3883 0.41817 0.18101 0.0
C229 C 0.39618 0.41661 0.2336 0.0
C230 C 0.4044 0.43713 0.25368 0.0
C231 C 0.40134 0.45262 0.21118 0.0
C232 C 0.39134 0.44068 0.16741 0.0
N233 N 0.34663 0.39392 0.18366 0.0
C234 C 0.30924 0.39654 0.25987 0.0
C235 C 0.3192 0.41638 0.23668 0.0
C236 C 0.33762 0.41472 0.19894 0.0
C237 C 0.31827 0.37529 0.24251 0.0
C238 C 0.33672 0.37436 0.20452 0.0
N239 N 0.40326 0.39103 0.09187 0.0
C240 C 0.44481 0.39053 0.08741 0.0
C241 C 0.44445 0.38912 0.029 0.0
C242 C 0.42278 0.38879 1.00292 0.0
C243 C 0.40251 0.38982 0.0349 0.0
C244 C 0.42423 0.39141 0.11776 0.0
H245 H 0.38624 0.38963 0.01343 0.0
H246 H 0.42538 0.39232 0.16248 0.0
H247 H 0.34489 0.43044 0.1831 0.0
H248 H 0.34317 0.3577 0.19277 0.0
C249 C 0.33768 0.39073 0.03569 0.0
C250 C 0.38366 0.45149 0.11503 0.0
C251 C 0.3797 0.33182 0.13536 0.0
C252 C 0.39857 0.39511 0.25916 0.0
H253 H 0.35374 0.4668 0.02656 0.0
H254 H 0.32691 0.43398 0.98628 0.0
H255 H 0.32877 0.34632 0.99089 0.0
H256 H 0.35434 0.31475 0.04017 0.0
H257 H 0.4008 0.31732 0.23841 0.0
H258 H 0.40958 0.35154 0.30838 0.0
H259 H 0.41234 0.44031 0.29375 0.0
H260 H 0.40584 0.47065 0.21237 0.0
H261 H 0.31324 0.4333 0.24857 0.0
H262 H 0.31108 0.35936 0.25788 0.0
H263 H 0.46092 0.39047 0.10997 0.0
H264 H 0.4214 0.38794 0.95795 0.0
C265 C 0.43896 0.63687 0.85566 0.0
C266 C 0.45139 0.62897 0.81032 0.0
C267 C 0.43621 0.62752 0.76646 0.0
C268 C 0.41538 0.63458 0.78742 0.0
N269 N 0.41654 0.64029 0.84162 0.0
Co270 Co 0.39031 0.65093 0.88818 0.0
N271 N 0.36698 0.6391 0.83469 0.0
C272 C 0.37125 0.63388 0.78095 0.0
C273 C 0.35184 0.62767 0.75219 0.0
C274 C 0.3342 0.62936 0.78992 0.0
C275 C 0.34382 0.63642 0.8401 0.0
N276 N 0.36429 0.66143 0.93578 0.0
C277 C 0.34165 0.65561 0.93492 0.0
C278 C 0.33014 0.66555 0.97961 0.0
C279 C 0.34571 0.67897 0.00721 0.0
C280 C 0.36596 0.67613 0.97901 0.0
N281 N 0.41357 0.66317 0.94119 0.0
C282 C 0.40972 0.67882 0.98136 0.0
C283 C 0.42906 0.68411 0.01153 0.0
C284 C 0.44619 0.67092 0.98899 0.0
C285 C 0.43624 0.65827 0.94631 0.0
N286 N 0.39013 0.68064 0.84726 0.0
C287 C 0.38936 0.71883 0.77344 0.0
C288 C 0.369 0.70918 0.79451 0.0
C289 C 0.36975 0.6903 0.83096 0.0
C290 C 0.41018 0.70932 0.79219 0.0
C291 C 0.4102 0.69053 0.82936 0.0
N292 N 0.39058 0.62093 0.92687 0.0
C293 C 0.39251 0.5973 0.01001 0.0
C294 C 0.39383 0.57712 0.97774 0.0
C295 C 0.39273 0.57961 0.91964 0.0
C296 C 0.39122 0.60136 0.89537 0.0
C297 C 0.39093 0.619 0.98381 0.0
H298 H 0.39091 0.60224 0.8506 0.0
H299 H 0.39035 0.63419 0.00954 0.0
H300 H 0.35365 0.68307 0.84434 0.0
H301 H 0.42655 0.68362 0.84235 0.0
C302 C 0.39393 0.63258 0.76106 0.0
C303 C 0.44901 0.64241 0.9104 0.0
C304 C 0.33013 0.6427 0.88983 0.0
C305 C 0.38729 0.68436 0.99662 0.0
H306 H 0.4695 0.62482 0.80907 0.0
H307 H 0.43978 0.62123 0.7249 0.0
H308 H 0.35064 0.6223 0.70909 0.0
H309 H 0.31625 0.62632 0.78096 0.0
H310 H 0.31232 0.66355 0.99123 0.0
H311 H 0.34276 0.68896 0.04459 0.0
H312 H 0.43033 0.69527 0.04748 0.0
H313 H 0.4639 0.67051 1.00269 0.0
H314 H 0.35241 0.71566 0.78151 0.0
H315 H 0.42643 0.71633 0.77831 0.0
H316 H 0.39328 0.59642 0.05506 0.0
H317 H 0.39306 0.56474 0.89251 0.0
C318 C 0.65622 0.58509 0.06992 0.0
C319 C 0.66993 0.57515 0.0292 0.0
C320 C 0.68469 0.59189 0.01125 0.0
C321 C 0.6792 0.61102 0.04193 0.0
N322 N 0.6619 0.60743 0.07803 0.0
Co323 Co 0.64891 0.63054 0.13042 0.0
N324 N 0.66259 0.65655 0.08805 0.0
C325 C 0.67913 0.65475 0.04898 0.0
C326 C 0.68451 0.67528 0.02433 0.0
C327 C 0.67077 0.69113 0.0499 0.0
C328 C 0.65795 0.67942 0.08971 0.0
N329 N 0.63608 0.65377 0.1828 0.0
C330 C 0.63447 0.67707 0.17836 0.0
C331 C 0.62526 0.68644 0.22663 0.0
C332 C 0.62119 0.6685 0.26241 0.0
C333 C 0.62813 0.64915 0.23432 0.0
N334 N 0.63531 0.6043 0.17212 0.0
C335 C 0.62751 0.60511 0.22482 0.0
C336 C 0.61893 0.58436 0.24261 0.0
C337 C 0.62162 0.56959 0.19833 0.0
C338 C 0.6317 0.58218 0.15587 0.0
N339 N 0.67701 0.62846 0.17768 0.0
C340 C 0.71389 0.62495 0.25549 0.0
C341 C 0.70493 0.64638 0.23922 0.0
C342 C 0.68675 0.64776 0.20042 0.0
C343 C 0.70415 0.60539 0.23027 0.0
C344 C 0.68596 0.60749 0.19183 0.0
N345 N 0.62055 0.63248 0.08499 0.0
C346 C 0.57899 0.63254 0.08081 0.0
C347 C 0.5792 0.63469 0.02257 0.0
C348 C 0.60083 0.63573 0.99636 0.0
C349 C 0.62121 0.63449 0.02814 0.0
C350 C 0.59961 0.63156 0.11091 0.0
H351 H 0.63748 0.63513 1.00669 0.0
H352 H 0.5985 0.63009 0.15553 0.0
H353 H 0.68034 0.66455 0.18965 0.0
H354 H 0.67878 0.59197 0.17455 0.0
C355 C 0.68677 0.63328 0.03089 0.0
C356 C 0.63891 0.57246 0.10195 0.0
C357 C 0.64366 0.69103 0.13198 0.0
C358 C 0.62512 0.62634 0.25202 0.0
H359 H 0.66931 0.55765 0.01404 0.0
H360 H 0.69721 0.59054 0.97806 0.0
H361 H 0.69646 0.67828 0.99055 0.0
H362 H 0.67053 0.70932 0.04077 0.0
H363 H 0.62225 0.70442 0.23548 0.0
H364 H 0.61372 0.66944 0.30366 0.0
H365 H 0.61088 0.58061 0.28224 0.0
H366 H 0.6168 0.55164 0.19737 0.0
H367 H 0.71195 0.66213 0.25611 0.0
H368 H 0.71008 0.58836 0.24114 0.0
H369 H 0.56292 0.63209 0.10349 0.0
H370 H 0.60208 0.63724 0.95148 0.0
C371 C 0.5824 0.38931 0.85337 0.0
C372 C 0.5693 0.39903 0.8113 0.0
C373 C 0.58368 0.40178 0.76624 0.0
C374 C 0.60472 0.39361 0.78327 0.0
N375 N 0.60442 0.38602 0.83615 0.0
Co376 Co 0.63118 0.37318 0.87719 0.0
N377 N 0.65369 0.38675 0.8245 0.0
C378 C 0.64869 0.394 0.77258 0.0
C379 C 0.66772 0.40145 0.74407 0.0
C380 C 0.68582 0.39853 0.78014 0.0
C381 C 0.67684 0.38956 0.82915 0.0
N382 N 0.65776 0.36037 0.91903 0.0
C383 C 0.68029 0.36654 0.91848 0.0
C384 C 0.69233 0.35475 0.9596 0.0
C385 C 0.6772 0.33989 0.98409 0.0
C386 C 0.65662 0.34374 0.958 0.0
N387 N 0.60871 0.35937 0.92968 0.0
C388 C 0.61289 0.34196 0.96509 0.0
C389 C 0.59402 0.33596 0.99619 0.0
C390 C 0.57688 0.3505 0.97923 0.0
C391 C 0.58633 0.36462 0.9387 0.0
N392 N 0.62993 0.34509 0.82975 0.0
C393 C 0.62767 0.30912 0.74945 0.0
C394 C 0.64884 0.31771 0.76854 0.0
C395 C 0.6496 0.33561 0.80822 0.0
C396 C 0.60773 0.31837 0.77384 0.0
C397 C 0.60921 0.33601 0.81391 0.0
N398 N 0.63234 0.4015 0.92278 0.0
C399 C 0.6351 0.42111 0.01158 0.0
C400 C 0.63364 0.44276 0.98558 0.0
C401 C 0.63149 0.44303 0.92732 0.0
C402 C 0.63094 0.42244 0.89702 0.0
C403 C 0.63433 0.40079 0.97962 0.0
H404 H 0.62943 0.42356 0.85237 0.0
H405 H 0.63535 0.3845 1.00091 0.0
H406 H 0.66619 0.34225 0.82008 0.0
H407 H 0.59343 0.34275 0.83087 0.0
C408 C 0.62572 0.3963 0.7552 0.0
C409 C 0.57333 0.38204 0.90789 0.0
C410 C 0.69103 0.38195 0.87694 0.0
C411 C 0.63544 0.33518 0.9759 0.0
H412 H 0.55129 0.40356 0.81299 0.0
H413 H 0.57947 0.40963 0.72664 0.0
H414 H 0.66835 0.4086 0.70245 0.0
H415 H 0.70363 0.40221 0.7709 0.0
H416 H 0.71016 0.35661 0.97131 0.0
H417 H 0.68057 0.32848 0.01877 0.0
H418 H 0.59313 0.32333 0.02924 0.0
H419 H 0.55947 0.35077 0.99505 0.0
H420 H 0.6648 0.31131 0.75131 0.0
H421 H 0.59092 0.31215 0.76171 0.0
H422 H 0.6366 0.4198 0.05646 0.0
H423 H 0.63072 0.45912 0.90478 0.0
C424 C 0.86408 0.58481 0.68968 0.0
C425 C 0.84955 0.57506 0.72891 0.0
C426 C 0.83511 0.59217 0.74643 0.0
C427 C 0.84159 0.61132 0.71695 0.0
N428 N 0.85919 0.60736 0.68194 0.0
Co429 Co 0.87374 0.6303 0.6317 0.0
N430 N 0.86063 0.65649 0.67446 0.0
C431 C 0.84371 0.65506 0.71266 0.0
C432 C 0.8393 0.67552 0.73876 0.0
C433 C 0.85405 0.69092 0.71492 0.0
C434 C 0.86641 0.67908 0.67447 0.0
N435 N 0.88818 0.65327 0.58125 0.0
C436 C 0.89044 0.67647 0.58647 0.0
C437 C 0.90052 0.68575 0.53911 0.0
C438 C 0.9045 0.66785 0.50316 0.0
C439 C 0.89661 0.64864 0.53019 0.0
N440 N 0.88675 0.60382 0.58978 0.0
C441 C 0.89519 0.6046 0.53768 0.0
C442 C 0.90335 0.58367 0.51991 0.0
C443 C 0.89973 0.56882 0.56361 0.0
C444 C 0.88955 0.58155 0.60568 0.0
N445 N 0.84612 0.63001 0.58246 0.0
C446 C 0.80906 0.6307 0.5047 0.0
C447 C 0.81821 0.60989 0.52481 0.0
C448 C 0.83649 0.60991 0.56378 0.0
C449 C 0.81893 0.65104 0.52526 0.0
C450 C 0.83718 0.65033 0.56354 0.0
N451 N 0.90155 0.63101 0.67938 0.0
C452 C 0.94305 0.63135 0.68698 0.0
C453 C 0.94193 0.63614 0.74418 0.0
C454 C 0.92001 0.63766 0.76848 0.0
C455 C 0.90013 0.63472 0.73567 0.0
C456 C 0.92284 0.6291 0.65548 0.0
H457 H 0.88361 0.63592 0.75575 0.0
H458 H 0.92456 0.62633 0.61131 0.0
H459 H 0.84299 0.59361 0.57831 0.0
H460 H 0.84428 0.66647 0.57697 0.0
C461 C 0.83489 0.63378 0.72894 0.0
C462 C 0.88162 0.57193 0.65902 0.0
C463 C 0.88097 0.69048 0.63238 0.0
C464 C 0.89886 0.62586 0.51163 0.0
H465 H 0.84949 0.55747 0.74353 0.0
H466 H 0.82221 0.59105 0.77881 0.0
H467 H 0.82731 0.67873 0.77236 0.0
H468 H 0.85516 0.70897 0.72535 0.0
H469 H 0.90414 0.70365 0.53079 0.0
H470 H 0.91241 0.66876 0.4624 0.0
H471 H 0.91182 0.57985 0.48084 0.0
H472 H 0.90406 0.55075 0.5645 0.0
H473 H 0.81115 0.59364 0.51109 0.0
H474 H 0.81294 0.66763 0.51101 0.0
H475 H 0.95951 0.63019 0.66609 0.0
H476 H 0.91821 0.64114 0.81262 0.0
C477 C 0.58373 0.13271 0.41508 0.0
C478 C 0.57258 0.11696 0.44894 0.0
C479 C 0.58928 0.10391 0.47347 0.0
C480 C 0.60963 0.11245 0.4535 0.0
N481 N 0.60704 0.1304 0.41865 0.0
Co482 Co 0.63259 0.14659 0.37839 0.0
N483 N 0.65726 0.12954 0.42019 0.0
C484 C 0.65364 0.11113 0.45309 0.0
C485 C 0.67341 0.10118 0.47234 0.0
C486 C 0.69083 0.11381 0.44973 0.0
C487 C 0.6807 0.1311 0.41823 0.0
N488 N 0.65795 0.16295 0.33821 0.0
C489 C 0.68103 0.16334 0.34755 0.0
C490 C 0.69172 0.17977 0.31449 0.0
C491 C 0.6752 0.18896 0.28101 0.0
C492 C 0.6553 0.17818 0.29636 0.0
N493 N 0.60803 0.16348 0.33586 0.0
C494 C 0.61157 0.17774 0.2924 0.0
C495 C 0.59186 0.18685 0.27049 0.0
C496 C 0.57452 0.17757 0.30122 0.0
C497 C 0.58468 0.16326 0.34047 0.0
N498 N 0.6326 0.17112 0.43687 0.0
C499 C 0.63389 0.2054 0.52193 0.0
C500 C 0.63177 0.21128 0.46532 0.0
C501 C 0.63135 0.19405 0.42377 0.0
C502 C 0.63493 0.18188 0.53463 0.0
C503 C 0.63404 0.16524 0.49212 0.0
N504 N 0.6326 0.12155 0.32149 0.0
C505 C 0.61108 0.0912 0.27634 0.0
C506 C 0.63113 0.07866 0.26558 0.0
C507 C 0.65216 0.08926 0.27831 0.0
C508 C 0.65251 0.11069 0.30581 0.0
C509 C 0.61223 0.11252 0.30327 0.0
H510 H 0.66896 0.11781 0.31646 0.0
H511 H 0.59638 0.12103 0.31149 0.0
H512 H 0.6302 0.19951 0.38111 0.0
H513 H 0.63466 0.14755 0.50454 0.0
C514 C 0.63142 0.10408 0.46633 0.0
C515 C 0.57128 0.14753 0.37557 0.0
C516 C 0.69392 0.14699 0.3825 0.0
C517 C 0.63365 0.18366 0.2761 0.0
H518 H 0.55424 0.11461 0.45363 0.0
H519 H 0.58685 0.0896 0.50166 0.0
H520 H 0.67501 0.08626 0.49898 0.0
H521 H 0.70888 0.11 0.45451 0.0
H522 H 0.70972 0.18438 0.3138 0.0
H523 H 0.67737 0.2023 0.25003 0.0
H524 H 0.59029 0.19889 0.23631 0.0
H525 H 0.55641 0.18055 0.29428 0.0
H526 H 0.63103 0.22915 0.45293 0.0
H527 H 0.63625 0.17624 0.57754 0.0
H528 H 0.5944 0.08424 0.26556 0.0
H529 H 0.66822 0.08054 0.26992 0.0
C530 C 0.15818 0.43758 0.68437 0.0
C531 C 0.17262 0.44675 0.72477 0.0
C532 C 0.18571 0.429 0.74446 0.0
C533 C 0.17859 0.41006 0.71513 0.0
N534 N 0.16178 0.4147 0.67828 0.0
Co535 Co 0.14698 0.39216 0.62729 0.0
N536 N 0.15834 0.36559 0.67172 0.0
C537 C 0.17467 0.36645 0.7115 0.0
C538 C 0.17743 0.34607 0.7392 0.0
C539 C 0.16216 0.33131 0.71491 0.0
C540 C 0.15126 0.34336 0.67239 0.0
N541 N 0.13241 0.36957 0.57609 0.0
C542 C 0.12882 0.3466 0.58204 0.0
C543 C 0.11951 0.33739 0.53358 0.0
C544 C 0.1172 0.35514 0.49645 0.0
C545 C 0.12532 0.37417 0.52382 0.0
N546 N 0.13563 0.41887 0.5835 0.0
C547 C 0.12796 0.41808 0.53064 0.0
C548 C 0.12144 0.43922 0.51077 0.0
C549 C 0.1254 0.4543 0.55377 0.0
C550 C 0.13418 0.44146 0.59757 0.0
N551 N 0.17521 0.39126 0.5806 0.0
C552 C 0.21275 0.38954 0.5048 0.0
C553 C 0.20425 0.41057 0.52506 0.0
C554 C 0.18573 0.41105 0.56302 0.0
C555 C 0.20215 0.36945 0.52464 0.0
C556 C 0.18362 0.37065 0.56206 0.0
N557 N 0.11857 0.39288 0.67256 0.0
C558 C 0.07701 0.39372 0.67714 0.0
C559 C 0.07733 0.39115 0.73535 0.0
C560 C 0.099 0.39002 0.76132 0.0
C561 C 0.11927 0.39099 0.72942 0.0
C562 C 0.09762 0.39451 0.64681 0.0
H563 H 0.13553 0.38992 0.7508 0.0
H564 H 0.09653 0.39605 0.60215 0.0
H565 H 0.17973 0.42754 0.57748 0.0
H566 H 0.17581 0.35476 0.57503 0.0
C567 C 0.1841 0.38739 0.72816 0.0
C568 C 0.14248 0.45141 0.6503 0.0
C569 C 0.1361 0.33264 0.63037 0.0
C570 C 0.12414 0.39688 0.50454 0.0
H571 H 0.17362 0.46443 0.73853 0.0
H572 H 0.1982 0.42966 0.77786 0.0
H573 H 0.18846 0.34262 0.77457 0.0
H574 H 0.15953 0.31365 0.72727 0.0
H575 H 0.11528 0.31963 0.52526 0.0
H576 H 0.11013 0.3543 0.45475 0.0
H577 H 0.11403 0.44314 0.47049 0.0
H578 H 0.12238 0.47263 0.55286 0.0
H579 H 0.21195 0.42662 0.51207 0.0
H580 H 0.20774 0.35272 0.51032 0.0
H581 H 0.0609 0.39441 0.65465 0.0
H582 H 0.10036 0.38838 0.80616 0.0
C583 C 0.44128 0.89214 0.41646 0.0
C584 C 0.45464 0.90243 0.45731 0.0
C585 C 0.44036 0.90678 0.50163 0.0
C586 C 0.4191 0.89896 0.48552 0.0
N587 N 0.41908 0.89011 0.43373 0.0
Co588 Co 0.3918 0.87684 0.3952 0.0
N589 N 0.36964 0.89147 0.4475 0.0
C590 C 0.37524 0.90134 0.49645 0.0
C591 C 0.35704 0.91233 0.52099 0.0
C592 C 0.33878 0.90884 0.48587 0.0
C593 C 0.3466 0.89524 0.44217 0.0
N594 N 0.36479 0.86305 0.3567 0.0
C595 C 0.34188 0.86708 0.36243 0.0
C596 C 0.32921 0.85074 0.33318 0.0
C597 C 0.34458 0.83649 0.30762 0.0
C598 C 0.36573 0.84449 0.32317 0.0
N599 N 0.4138 0.8623 0.34233 0.0
C600 C 0.40916 0.84436 0.30885 0.0
C601 C 0.42758 0.83763 0.27719 0.0
C602 C 0.44505 0.85216 0.29189 0.0
C603 C 0.43625 0.867 0.33189 0.0
N604 N 0.39354 0.84957 0.44499 0.0
C605 C 0.39653 0.81317 0.52389 0.0
C606 C 0.41613 0.82171 0.49638 0.0
C607 C 0.41428 0.83968 0.45738 0.0
C608 C 0.37534 0.82321 0.50974 0.0
C609 C 0.37422 0.84119 0.47056 0.0
N610 N 0.39017 0.90445 0.34724 0.0
C611 C 0.38566 0.92314 0.25765 0.0
C612 C 0.38837 0.94503 0.282 0.0
C613 C 0.39188 0.94587 0.33975 0.0
C614 C 0.39267 0.92566 0.37119 0.0
C615 C 0.38671 0.90312 0.29087 0.0
H616 H 0.39526 0.92739 0.41531 0.0
H617 H 0.38475 0.88658 0.27106 0.0
H618 H 0.42981 0.84587 0.43807 0.0
H619 H 0.35762 0.84849 0.46165 0.0
C620 C 0.39829 0.90343 0.51277 0.0
C621 C 0.45038 0.88352 0.36299 0.0
C622 C 0.33148 0.88456 0.39931 0.0
C623 C 0.38672 0.83633 0.30322 0.0
H624 H 0.47276 0.90646 0.45524 0.0
H625 H 0.44478 0.91553 0.53998 0.0
H626 H 0.35723 0.92265 0.55854 0.0
H627 H 0.32173 0.91571 0.49205 0.0
H628 H 0.31079 0.84862 0.33165 0.0
H629 H 0.34076 0.82201 0.28086 0.0
H630 H 0.42812 0.82412 0.24621 0.0
H631 H 0.4624 0.85157 0.27581 0.0
H632 H 0.43302 0.81495 0.50571 0.0
H633 H 0.35956 0.81717 0.5285 0.0
H634 H 0.38298 0.92142 0.21318 0.0
H635 H 0.39356 0.96215 0.36118 0.0
C636 C 0.86445 0.93422 0.57655 0.0
C637 C 0.8498 0.94335 0.5366 0.0
C638 C 0.83648 0.92561 0.51771 0.0
C639 C 0.84368 0.90671 0.54703 0.0
N640 N 0.86078 0.91134 0.58309 0.0
Co641 Co 0.87579 0.88876 0.63371 0.0
N642 N 0.86373 0.86212 0.59051 0.0
C643 C 0.847 0.86303 0.55171 0.0
C644 C 0.8438 0.8426 0.52446 0.0
C645 C 0.85921 0.82777 0.54801 0.0
C646 C 0.87064 0.83983 0.58971 0.0
N647 N 0.89067 0.86619 0.68439 0.0
C648 C 0.89408 0.84318 0.67852 0.0
C649 C 0.9038 0.83405 0.72657 0.0
C650 C 0.90658 0.85188 0.7633 0.0
C651 C 0.89832 0.87089 0.73613 0.0
N652 N 0.88774 0.91556 0.67644 0.0
C653 C 0.89585 0.91481 0.72893 0.0
C654 C 0.90263 0.93596 0.74831 0.0
C655 C 0.89835 0.95099 0.70544 0.0
C656 C 0.88915 0.93814 0.66216 0.0
N657 N 0.84797 0.8882 0.68203 0.0
C658 C 0.81103 0.88664 0.75965 0.0
C659 C 0.81955 0.90765 0.73929 0.0
C660 C 0.83776 0.90805 0.70034 0.0
C661 C 0.82132 0.86651 0.73914 0.0
C662 C 0.83957 0.86764 0.70092 0.0
N663 N 0.90379 0.88895 0.58686 0.0
C664 C 0.94531 0.88956 0.58023 0.0
C665 C 0.94448 0.88487 0.52291 0.0
C666 C 0.92268 0.88295 0.4981 0.0
C667 C 0.90265 0.88536 0.5305 0.0
C668 C 0.92494 0.89131 0.61131 0.0
H669 H 0.88624 0.88382 0.51001 0.0
H670 H 0.92641 0.89403 0.65557 0.0
H671 H 0.84376 0.92451 0.68567 0.0
H672 H 0.84717 0.8517 0.68759 0.0
C673 C 0.83777 0.88404 0.53496 0.0
C674 C 0.88039 0.94814 0.60989 0.0
C675 C 0.88628 0.82913 0.63074 0.0
C676 C 0.89979 0.89364 0.75502 0.0
H677 H 0.84878 0.961 0.52267 0.0
H678 H 0.82371 0.92627 0.48492 0.0
H679 H 0.83245 0.83918 0.48968 0.0
H680 H 0.86163 0.8101 0.53551 0.0
H681 H 0.90799 0.81628 0.73492 0.0
H682 H 0.91405 0.8511 0.80459 0.0
H683 H 0.91039 0.9399 0.7882 0.0
H684 H 0.90144 0.96932 0.70612 0.0
H685 H 0.81208 0.92373 0.75289 0.0
H686 H 0.8157 0.84981 0.75352 0.0
H687 H 0.96167 0.89103 0.60149 0.0
H688 H 0.92109 0.87958 0.45387 0.0
C689 C 0.94349 0.13116 0.34923 0.0
C690 C 0.95489 0.11509 0.31675 0.0
C691 C 0.93837 0.10226 0.29085 0.0
C692 C 0.91787 0.11122 0.30875 0.0
N693 N 0.92022 0.12924 0.34353 0.0
Co694 Co 0.89431 0.14583 0.38151 0.0
N695 N 0.87003 0.12932 0.33718 0.0
C696 C 0.87387 0.11107 0.30388 0.0
C697 C 0.85424 0.10156 0.28252 0.0
C698 C 0.83668 0.1143 0.30413 0.0
C699 C 0.84659 0.13118 0.33728 0.0
N700 N 0.86861 0.16243 0.41991 0.0
C701 C 0.84567 0.16305 0.40894 0.0
C702 C 0.83469 0.1794 0.44169 0.0
C703 C 0.85085 0.18829 0.47666 0.0
C704 C 0.87085 0.17741 0.46248 0.0
N705 N 0.91846 0.1624 0.42609 0.0
C706 C 0.91452 0.1768 0.46905 0.0
C707 C 0.93404 0.18574 0.49238 0.0
C708 C 0.95168 0.17621 0.46309 0.0
C709 C 0.94187 0.16192 0.42327 0.0
N710 N 0.89553 0.17045 0.32332 0.0
C711 C 0.89766 0.20478 0.23844 0.0
C712 C 0.89554 0.21063 0.2951 0.0
C713 C 0.8947 0.19338 0.33654 0.0
C714 C 0.89844 0.18124 0.22569 0.0
C715 C 0.89722 0.16459 0.2681 0.0
N716 N 0.89311 0.1207 0.43802 0.0
C717 C 0.9136 0.08991 0.48427 0.0
C718 C 0.89327 0.07749 0.4925 0.0
C719 C 0.87257 0.08835 0.4781 0.0
C720 C 0.87287 0.10993 0.45137 0.0
C721 C 0.91308 0.11141 0.45804 0.0
H722 H 0.85667 0.11724 0.43935 0.0
H723 H 0.92914 0.11984 0.45172 0.0
H724 H 0.89351 0.19882 0.37921 0.0
H725 H 0.89769 0.1469 0.25562 0.0
C726 C 0.89615 0.10345 0.29323 0.0
C727 C 0.95556 0.14601 0.38936 0.0
C728 C 0.83309 0.14687 0.37295 0.0
C729 C 0.89231 0.18278 0.48409 0.0
H730 H 0.97325 0.11245 0.31373 0.0
H731 H 0.941 0.08789 0.26294 0.0
H732 H 0.85281 0.08677 0.25536 0.0
H733 H 0.81866 0.1108 0.29771 0.0
H734 H 0.81671 0.18409 0.44127 0.0
H735 H 0.84841 0.20151 0.50783 0.0
H736 H 0.9353 0.19778 0.52664 0.0
H737 H 0.96973 0.17898 0.47134 0.0
H738 H 0.89505 0.22849 0.30765 0.0
H739 H 0.89973 0.17558 0.1828 0.0
H740 H 0.93002 0.08275 0.49648 0.0
H741 H 0.8563 0.07973 0.48455 0.0
C742 C 0.16238 0.08831 0.5767 0.0
C743 C 0.17705 0.07875 0.5374 0.0
C744 C 0.19069 0.09619 0.51834 0.0
C745 C 0.18363 0.11534 0.5469 0.0
N746 N 0.16635 0.11114 0.58272 0.0
Co747 Co 0.15134 0.13415 0.63217 0.0
N748 N 0.16396 0.16033 0.58841 0.0
C749 C 0.18078 0.159 0.54995 0.0
C750 C 0.18482 0.1794 0.52321 0.0
C751 C 0.1699 0.19467 0.54682 0.0
C752 C 0.15782 0.18282 0.58773 0.0
N753 N 0.13646 0.15722 0.68175 0.0
C754 C 0.13382 0.18034 0.67573 0.0
C755 C 0.12352 0.18978 0.72263 0.0
C756 C 0.11976 0.17207 0.75918 0.0
C757 C 0.128 0.15282 0.7329 0.0
N758 N 0.1388 0.10774 0.67534 0.0
C759 C 0.13023 0.10885 0.72733 0.0
C760 C 0.12301 0.08788 0.74691 0.0
C761 C 0.12745 0.0726 0.70467 0.0
C762 C 0.13717 0.08513 0.66155 0.0
N763 N 0.17886 0.13458 0.68146 0.0
C764 C 0.21373 0.13591 0.7647 0.0
C765 C 0.20576 0.11495 0.74258 0.0
C766 C 0.18853 0.11467 0.70105 0.0
C767 C 0.20456 0.1561 0.7414 0.0
C768 C 0.18733 0.15508 0.70047 0.0
N769 N 0.12357 0.13398 0.58445 0.0
C770 C 0.08209 0.1332 0.57665 0.0
C771 C 0.08317 0.13722 0.5191 0.0
C772 C 0.10507 0.13902 0.49482 0.0
C773 C 0.12497 0.13705 0.52794 0.0
C774 C 0.10231 0.13186 0.60839 0.0
H775 H 0.14147 0.13842 0.50786 0.0
H776 H 0.10061 0.12956 0.65272 0.0
H777 H 0.18255 0.09824 0.68614 0.0
H778 H 0.18044 0.17108 0.68548 0.0
C779 C 0.18985 0.13783 0.53408 0.0
C780 C 0.14602 0.07485 0.60977 0.0
C781 C 0.14312 0.19421 0.62947 0.0
C782 C 0.12612 0.1302 0.75237 0.0
H783 H 0.17784 0.06103 0.52392 0.0
H784 H 0.20354 0.09519 0.48582 0.0
H785 H 0.19666 0.18262 0.48932 0.0
H786 H 0.16847 0.21265 0.53591 0.0
H787 H 0.11961 0.20767 0.73027 0.0
H788 H 0.11178 0.17311 0.79984 0.0
H789 H 0.11479 0.08424 0.78639 0.0
H790 H 0.12406 0.05433 0.70556 0.0
H791 H 0.21214 0.09877 0.75851 0.0
H792 H 0.21042 0.17282 0.75506 0.0
H793 H 0.06565 0.1319 0.59755 0.0
H794 H 0.10684 0.14194 0.45043 0.0
C795 C 0.08199 0.89092 0.3458 0.0
C796 C 0.0691 0.90603 0.31389 0.0
C797 C 0.08436 0.9196 0.28587 0.0
C798 C 0.10564 0.91198 0.30198 0.0
N799 N 0.10499 0.8941 0.33755 0.0
Co800 Co 0.13252 0.87915 0.37291 0.0
N801 N 0.15487 0.89689 0.32579 0.0
C802 C 0.14938 0.91512 0.29379 0.0
C803 C 0.16797 0.92589 0.27076 0.0
C804 C 0.18659 0.91399 0.28967 0.0
C805 C 0.17832 0.8962 0.32276 0.0
N806 N 0.15987 0.86406 0.40826 0.0
C807 C 0.18257 0.86443 0.39419 0.0
C808 C 0.19498 0.84874 0.42582 0.0
C809 C 0.18005 0.83933 0.4631 0.0
C810 C 0.15926 0.8492 0.45134 0.0
N811 N 0.11017 0.86163 0.42075 0.0
C812 C 0.11576 0.84783 0.46379 0.0
C813 C 0.09722 0.83828 0.49022 0.0
C814 C 0.0785 0.84682 0.46304 0.0
C815 C 0.08672 0.86113 0.42127 0.0
N816 N 0.13152 0.85431 0.31539 0.0
C817 C 0.13201 0.81954 0.23146 0.0
C818 C 0.13255 0.814 0.28852 0.0
C819 C 0.1324 0.83147 0.32942 0.0
C820 C 0.13075 0.84299 0.21789 0.0
C821 C 0.1304 0.85986 0.25992 0.0
N822 N 0.13362 0.90439 0.42893 0.0
C823 C 0.113 0.9343 0.47793 0.0
C824 C 0.13317 0.94699 0.48575 0.0
C825 C 0.15393 0.93679 0.46928 0.0
C826 C 0.15378 0.91551 0.44126 0.0
C827 C 0.11368 0.91308 0.45051 0.0
H828 H 0.16998 0.90873 0.42755 0.0
H829 H 0.09778 0.90433 0.4448 0.0
H830 H 0.13325 0.82629 0.37233 0.0
H831 H 0.12938 0.87749 0.24698 0.0
C832 C 0.12653 0.92122 0.2849 0.0
C833 C 0.07154 0.87606 0.38844 0.0
C834 C 0.19343 0.8806 0.35482 0.0
C835 C 0.13858 0.843 0.47592 0.0
H836 H 0.05058 0.90767 0.3129 0.0
H837 H 0.0804 0.93369 0.25804 0.0
H838 H 0.16802 0.94089 0.24408 0.0
H839 H 0.20422 0.91864 0.28142 0.0
H840 H 0.21303 0.84456 0.42277 0.0
H841 H 0.18377 0.82632 0.49404 0.0
H842 H 0.09731 0.82653 0.52517 0.0
H843 H 0.06079 0.8434 0.47385 0.0
H844 H 0.13368 0.79626 0.30171 0.0
H845 H 0.12987 0.84841 0.17476 0.0
H846 H 0.09659 0.94104 0.49151 0.0
H847 H 0.17006 0.94573 0.47519 0.0
H848 H 0.41382 0.98453 0.29422 0.0
H849 H 0.35935 0.95539 0.19477 0.0
H850 H 0.35447 0.9921 0.1466 0.0
H851 H 0.36371 0.03372 0.13734 0.0
H852 H 0.41728 0.06279 0.23899 0.0
H853 H 0.42436 0.02518 0.28169 0.0
C854 C 0.40083 0.98612 0.26206 0.0
C855 C 0.38686 0.96699 0.24878 0.0
C856 C 0.39791 1.00747 0.23485 0.0
C857 C 0.37051 0.96954 0.20591 0.0
C858 C 0.36758 0.99068 0.1785 0.0
C859 C 0.37721 0.03161 0.16808 0.0
C860 C 0.39019 0.05093 0.18459 0.0
C861 C 0.38094 1.00989 0.19312 0.0
C862 C 0.40732 0.04813 0.22518 0.0
C863 C 0.41125 0.02664 0.24981 0.0
H864 H 0.02817 0.67288 0.88229 0.0
H865 H 0.05758 0.61016 0.81927 0.0
H866 H 0.02131 0.60041 0.77402 0.0
H867 H 0.98147 0.61049 0.74786 0.0
H868 H 0.95099 0.67207 0.81453 0.0
H869 H 0.98694 0.6813 0.86276 0.0
C870 C 0.02648 0.65695 0.85925 0.0
C871 C 0.04577 0.64242 0.85379 0.0
C872 C 1.00527 0.65126 0.83356 0.0
C873 C 0.04323 0.6218 0.82385 0.0
C874 C 0.02241 0.61619 0.79781 0.0
C875 C 0.98266 0.62587 0.77319 0.0
C876 C 0.96346 0.6406 0.77716 0.0
C877 C 1.00339 0.63094 0.80154 0.0
C878 C 0.96534 0.66033 0.81082 0.0
C879 C 0.986 0.66568 0.83829 0.0
H880 H 0.61397 0.97233 0.21893 0.0
H881 H 0.66676 0.98364 0.09653 0.0
H882 H 0.66857 0.02442 0.12216 0.0
H883 H 0.65621 0.05682 0.18296 0.0
H884 H 0.60279 0.04509 0.30418 0.0
H885 H 0.60013 1.00498 0.27569 0.0
C886 C 0.62551 0.98389 0.19716 0.0
C887 C 0.63991 0.97507 0.15516 0.0
C888 C 0.62652 1.00733 0.21245 0.0
C889 C 0.65516 0.99012 0.12814 0.0
C890 C 0.65634 0.01341 0.14322 0.0
C891 C 0.64397 0.04548 0.20303 0.0
C892 C 0.62968 0.05418 0.24572 0.0
C893 C 0.64231 0.02222 0.18589 0.0
C894 C 0.61383 0.03912 0.27086 0.0
C895 C 0.61234 0.01605 0.2547 0.0
H896 H 0.03593 0.41344 0.71977 0.0
H897 H 0.0687 0.36304 0.82502 0.0
H898 H 0.03273 0.3572 0.87528 0.0
H899 H 0.99086 0.36435 0.88574 0.0
H900 H 0.95792 0.41369 0.77876 0.0
H901 H 0.9947 0.42194 0.73315 0.0
C902 C 0.03528 0.40114 0.75364 0.0
C903 C 0.0553 0.38871 0.7681 0.0
C904 C 0.01432 0.39767 0.78238 0.0
C905 C 0.05389 0.37314 0.81297 0.0
C906 C 0.03318 0.36964 0.8417 0.0
C907 C 0.99194 0.37729 0.85335 0.0
C908 C 0.97178 0.38875 0.83633 0.0
C909 C 0.01318 0.38161 0.8265 0.0
C910 C 0.97326 0.405 0.79325 0.0
C911 C 0.99428 0.40956 0.76686 0.0
H912 H 0.4095 0.47153 0.03406 0.0
H913 H 0.36357 0.48769 0.16891 0.0
H914 H 0.36346 0.52827 0.14111 0.0
H915 H 0.37407 0.55877 0.07314 0.0
H916 H 0.42069 0.54201 0.93929 0.0
H917 H 0.42284 0.5025 0.97171 0.0
C918 C 0.39992 0.48409 0.05804 0.0
C919 C 0.38687 0.47669 0.10403 0.0
C920 C 0.39975 0.50737 0.04133 0.0
C921 C 0.37412 0.49304 0.13406 0.0
C922 C 0.3739 0.51623 0.11779 0.0
C923 C 0.38498 0.5466 0.05155 0.0
C924 C 0.39678 0.55355 1.00285 0.0
C925 C 0.38632 0.52359 0.07077 0.0
C926 C 0.41083 0.53727 0.97578 0.0
C927 C 0.41223 0.51456 0.99454 0.0
H928 H 0.4907 0.66001 0.87749 0.0
H929 H 0.46008 0.6097 0.98584 0.0
H930 H 0.49756 0.60196 0.02842 0.0
H931 H 0.53864 0.61134 0.03941 0.0
H932 H 0.56937 0.66246 0.93279 0.0
H933 H 0.53269 0.66773 0.88475 0.0
C934 C 0.49243 0.64695 0.90941 0.0
C935 C 0.47269 0.63509 0.92778 0.0
C936 C 0.51411 0.6429 0.93455 0.0
C937 C 0.47506 0.61869 0.97031 0.0
C938 C 0.49649 0.61443 0.99499 0.0
C939 C 0.5374 0.62366 1.00567 0.0
C940 C 0.55699 0.63656 0.99031 0.0
C941 C 0.51608 0.62675 0.97828 0.0
C942 C 0.55485 0.6521 0.94557 0.0
C943 C 0.53374 0.65525 0.91816 0.0
H944 H 0.60993 0.48314 0.9686 0.0
H945 H 0.66088 0.45266 0.07628 0.0
H946 H 0.66535 0.48915 0.12543 0.0
H947 H 0.65691 0.53091 0.13379 0.0
H948 H 0.60694 0.56145 0.02427 0.0
H949 H 0.60001 0.52408 0.98017 0.0
C950 C 0.62205 0.4844 1.00277 0.0
C951 C 0.63511 0.46491 0.01816 0.0
C952 C 0.62471 0.50564 0.03079 0.0
C953 C 0.65039 0.46707 0.06346 0.0
C954 C 0.65308 0.48808 0.09153 0.0
C955 C 0.64412 0.52917 0.10119 0.0
C956 C 0.63211 0.54884 0.08297 0.0
C957 C 0.64056 0.5076 0.07521 0.0
C958 C 0.61605 0.5465 0.03966 0.0
C959 C 0.61225 0.52516 0.01414 0.0
H960 H 0.48572 0.41107 0.04756 0.0
H961 H 0.45315 0.36289 0.93597 0.0
H962 H 0.48923 0.35813 0.88536 0.0
H963 H 0.53112 0.36559 0.87621 0.0
H964 H 0.56377 0.4127 0.98957 0.0
H965 H 0.5269 0.41987 0.0358 0.0
C966 C 0.48644 0.39947 0.01226 0.0
C967 C 0.46647 0.38732 0.99611 0.0
C968 C 0.50744 0.39663 0.98336 0.0
C969 C 0.46795 0.37271 0.94939 0.0
C970 C 0.48872 0.36985 0.92045 0.0
C971 C 0.52996 0.37782 0.91019 0.0
C972 C 0.55006 0.38897 0.92882 0.0
C973 C 0.50867 0.38152 0.93733 0.0
C974 C 0.54848 0.40427 0.97389 0.0
C975 C 0.52741 0.40822 1.00059 0.0
H976 H 0.91098 0.48309 0.79395 0.0
H977 H 0.86246 0.45144 0.68165 0.0
H978 H 0.85755 0.48794 0.6329 0.0
H979 H 0.86491 0.52996 0.62581 0.0
H980 H 0.91231 0.56162 0.74011 0.0
H981 H 0.91965 0.52437 0.78426 0.0
C982 C 0.89927 0.48409 0.7589 0.0
C983 C 0.88705 0.46424 0.74206 0.0
C984 C 0.8963 0.50534 0.73118 0.0
C985 C 0.87233 0.46611 0.69561 0.0
C986 C 0.86936 0.48714 0.66777 0.0
C987 C 0.87721 0.52851 0.65959 0.0
C988 C 0.88839 0.54847 0.6791 0.0
C989 C 0.88103 0.50697 0.68551 0.0
C990 C 0.90383 0.54648 0.72382 0.0
C991 C 0.90788 0.52518 0.74931 0.0
H992 H 0.5308 0.17163 0.38744 0.0
H993 H 0.5583 0.10886 0.31976 0.0
H994 H 0.5215 0.10039 0.27548 0.0
H995 H 0.48197 0.11194 0.25054 0.0
H996 H 0.45354 0.17384 0.32071 0.0
H997 H 0.48978 0.1814 0.36941 0.0
C998 C 0.52855 0.15594 0.36371 0.0
C999 C 0.54745 0.14104 0.35652 0.0
C1000 C 0.50711 0.15108 0.33829 0.0
C1001 C 0.54423 0.12074 0.32569 0.0
C1002 C 0.52312 0.1159 0.30015 0.0
C1003 C 0.48367 0.12702 0.27675 0.0
C1004 C 0.465 0.14237 0.28152 0.0
C1005 C 0.50455 0.13115 0.30517 0.0
C1006 C 0.46749 0.16167 0.31636 0.0
C1007 C 0.48831 0.16606 0.34408 0.0
H1008 H 0.15688 0.55804 0.69406 0.0
H1009 H 0.10194 0.54553 0.81069 0.0
H1010 H 0.0997 0.50555 0.78054 0.0
H1011 H 0.11428 0.47335 0.7234 0.0
H1012 H 0.16832 0.48564 0.60486 0.0
H1013 H 0.16992 0.5262 0.63264 0.0
C1014 C 0.14441 0.54654 0.71275 0.0
C1015 C 0.1296 0.55489 0.75468 0.0
C1016 C 0.14297 0.52345 0.69455 0.0
C1017 C 0.11342 0.53972 0.77807 0.0
C1018 C 0.11216 0.51677 0.76094 0.0
C1019 C 0.12606 0.48508 0.70303 0.0
C1020 C 0.14093 0.47667 0.6616 0.0
C1021 C 0.12687 0.50838 0.71939 0.0
C1022 C 0.15645 0.49188 0.63616 0.0
C1023 C 0.15748 0.51501 0.65241 0.0
H1024 H 0.46922 0.9077 0.27711 0.0
H1025 H 0.48732 0.86319 0.41333 0.0
H1026 H 0.52742 0.86247 0.38163 0.0
H1027 H 0.55702 0.87261 0.31105 0.0
H1028 H 0.53844 0.91814 0.17629 0.0
H1029 H 0.4993 0.92023 0.21114 0.0
C1030 C 0.48208 0.89822 0.30036 0.0
C1031 C 0.47537 0.88582 0.34803 0.0
C1032 C 0.50511 0.89778 0.28156 0.0
C1033 C 0.49214 0.87323 0.37716 0.0
C1034 C 0.51505 0.87268 0.35872 0.0
C1035 C 0.54454 0.88325 0.28966 0.0
C1036 C 0.55093 0.89478 0.24007 0.0
C1037 C 0.52174 0.88464 0.31042 0.0
C1038 C 0.53419 0.90844 0.21338 0.0
C1039 C 0.51167 0.90984 0.23358 0.0
H1040 H 0.9088 0.97079 0.53804 0.0
H1041 H 0.85404 0.98206 0.65522 0.0
H1042 H 0.85274 0.02289 0.62982 0.0
H1043 H 0.86648 0.05543 0.57141 0.0
H1044 H 0.92203 0.04385 0.45588 0.0
H1045 H 0.9238 1.00356 0.48333 0.0
C1046 C 0.89687 0.98233 0.55854 0.0
C1047 C 0.88173 0.97351 0.59895 0.0
C1048 C 0.89626 1.00583 0.54363 0.0
C1049 C 0.86608 0.98854 0.62461 0.0
C1050 C 0.86525 0.01186 0.60977 0.0
C1051 C 0.87897 0.04409 0.55232 0.0
C1052 C 0.89414 0.05289 0.5116 0.0
C1053 C 0.8801 0.02073 0.56885 0.0
C1054 C 0.91031 0.0378 0.48773 0.0
C1055 C 0.91129 0.01463 0.50326 0.0
H1056 H 0.99637 0.16945 0.37686 0.0
H1057 H 0.96771 0.10814 0.44926 0.0
H1058 H 1.00428 0.09974 0.49486 0.0
H1059 H 0.04405 0.11089 0.51898 0.0
H1060 H 0.07355 0.17132 0.44399 0.0
H1061 H 0.03748 0.17884 0.39467 0.0
C1062 C 0.99831 0.15409 0.40193 0.0
C1063 C 0.97919 0.13954 0.40987 0.0
C1064 C 0.01962 0.14926 0.42806 0.0
C1065 C 0.982 0.1197 0.44258 0.0
C1066 C 1.00296 0.1149 0.46888 0.0
C1067 C 0.04262 0.12565 0.49162 0.0
C1068 C 0.06158 0.14057 0.48561 0.0
C1069 C 0.02181 0.12976 0.4628 0.0
C1070 C 0.0594 0.15945 0.44932 0.0
C1071 C 0.03867 0.16383 0.42122 0.0
H1072 H 0.15942 0.96802 0.56696 0.0
H1073 H 0.10437 0.98077 0.45069 0.0
H1074 H 0.10243 0.02079 0.48063 0.0
H1075 H 0.11741 0.053 0.53725 0.0
H1076 H 0.17156 0.04046 0.65548 0.0
H1077 H 0.17276 0.99984 0.62812 0.0
C1078 C 0.14699 0.97957 0.54834 0.0
C1079 C 0.13206 0.97127 0.50654 0.0
C1080 C 0.14573 1.0027 0.56639 0.0
C1081 C 0.11593 0.98653 0.48323 0.0
C1082 C 0.11485 1.0095 0.50022 0.0
C1083 C 0.12913 0.0412 0.55766 0.0
C1084 C 0.14416 0.04958 0.59882 0.0
C1085 C 0.12971 0.01786 0.54156 0.0
C1086 C 0.15958 0.03427 0.62434 0.0
C1087 C 0.16038 1.0111 0.60834 0.0
H1088 H 0.98364 0.91115 0.52124 0.0
H1089 H 0.95425 0.84972 0.45085 0.0
H1090 H 0.99025 0.84175 0.40169 0.0
H1091 H 0.03114 0.85142 0.3815 0.0
H1092 H 0.05941 0.914 0.44834 0.0
H1093 H 0.02322 0.92228 0.49548 0.0
C1094 C 0.98509 0.89605 0.495 0.0
C1095 C 0.96616 0.88102 0.49013 0.0
C1096 C 1.00584 0.89172 0.4661 0.0
C1097 C 0.96838 0.86169 0.45526 0.0
C1098 C 0.98907 0.85705 0.42725 0.0
C1099 C 0.02922 0.86697 0.40591 0.0
C1100 C 0.04816 0.88193 0.41172 0.0
C1101 C 1.00804 0.87183 0.43263 0.0
C1102 C 0.04534 0.90206 0.44343 0.0
C1103 C 0.02455 0.90682 0.47052 0.0
H1104 H 0.41375 0.29858 0.13358 0.0
H1105 H 0.34047 0.3071 0.14846 0.0
H1106 H 0.33508 0.26558 0.14382 0.0
H1107 H 0.35085 0.22682 0.13151 0.0
H1108 H 0.42414 0.21686 0.13281 0.0
H1109 H 0.42994 0.25868 0.13293 0.0
C1110 C 0.39667 0.29126 0.13638 0.0
C1111 C 0.37747 0.30605 0.13965 0.0
C1112 C 0.39369 0.26707 0.13569 0.0
C1113 C 0.35547 0.29622 0.14445 0.0
C1114 C 0.35237 0.27244 0.14177 0.0
C1115 C 0.36813 0.23371 0.13332 0.0
C1116 C 0.38703 0.21855 0.13336 0.0
C1117 C 0.3713 0.25769 0.13673 0.0
C1118 C 0.40927 0.22804 0.13319 0.0
C1119 C 0.41257 0.25198 0.13357 0.0
H1120 H 0.22342 0.61653 0.88613 0.0
H1121 H 0.21717 0.6891 0.91773 0.0
H1122 H 0.25898 0.69327 0.91389 0.0
H1123 H 0.29739 0.67658 0.89866 0.0
H1124 H 0.30448 0.60343 0.87849 0.0
H1125 H 0.2625 0.59919 0.87931 0.0
C1126 C 0.23127 0.63315 0.89337 0.0
C1127 C 0.21708 0.6525 0.90254 0.0
C1128 C 0.25552 0.63535 0.89223 0.0
C1129 C 0.22761 0.67396 0.91088 0.0
C1130 C 0.25154 0.67636 0.90837 0.0
C1131 C 0.2898 0.65963 0.8955 0.0
C1132 C 0.30424 0.64028 0.88939 0.0
C1133 C 0.26568 0.65723 0.89866 0.0
C1134 C 0.2939 0.61858 0.88351 0.0
C1135 C 0.26986 0.61616 0.88428 0.0
H1136 H 0.67216 0.79614 0.13355 0.0
H1137 H 0.59933 0.80576 0.11277 0.0
H1138 H 0.59362 0.76393 0.11384 0.0
H1139 H 0.60971 0.72409 0.1212 0.0
H1140 H 0.68195 0.71587 0.15494 0.0
H1141 H 0.68739 0.75744 0.151 0.0
C1142 C 0.65494 0.78916 0.1305 0.0
C1143 C 0.63615 0.80426 0.12408 0.0
C1144 C 0.65168 0.76518 0.13411 0.0
C1145 C 0.6141 0.79466 0.11808 0.0
C1146 C 0.61083 0.7707 0.11903 0.0
C1147 C 0.62654 0.73149 0.12839 0.0
C1148 C 0.64551 0.7168 0.13726 0.0
C1149 C 0.62949 0.7557 0.12734 0.0
C1150 C 0.66716 0.72672 0.14724 0.0
C1151 C 0.6703 0.75052 0.14476 0.0
H1152 H 0.72531 0.34957 0.87847 0.0
H1153 H 0.71477 0.42272 0.87262 0.0
H1154 H 0.75655 0.42885 0.87328 0.0
H1155 H 0.7966 0.41299 0.87622 0.0
H1156 H 0.80561 0.34006 0.89758 0.0
H1157 H 0.76412 0.33431 0.89305 0.0
C1158 C 0.73206 0.36692 0.87883 0.0
C1159 C 0.71674 0.38567 0.8767 0.0
C1160 C 0.756 0.37033 0.88256 0.0
C1161 C 0.72606 0.40796 0.87468 0.0
C1162 C 0.74999 0.41147 0.87539 0.0
C1163 C 0.78939 0.39593 0.88058 0.0
C1164 C 0.80429 0.37689 0.88578 0.0
C1165 C 0.76521 0.39276 0.87968 0.0
C1166 C 0.79461 0.35492 0.89237 0.0
C1167 C 0.77086 0.3516 0.88964 0.0
H1168 H 0.91543 0.7232 0.63536 0.0
H1169 H 0.8423 0.71544 0.61427 0.0
H1170 H 0.83734 0.75702 0.61719 0.0
H1171 H 0.85335 0.79556 0.63032 0.0
H1172 H 0.92673 0.80477 0.63436 0.0
H1173 H 0.93208 0.76289 0.63564 0.0
C1174 C 0.89849 0.7307 0.63077 0.0
C1175 C 0.87916 0.71616 0.62639 0.0
C1176 C 0.8958 0.7549 0.63035 0.0
C1177 C 0.85737 0.72618 0.61919 0.0
C1178 C 0.8545 0.74998 0.62089 0.0
C1179 C 0.87057 0.78848 0.63001 0.0
C1180 C 0.88962 0.80342 0.63128 0.0
C1181 C 0.87353 0.7645 0.62724 0.0
C1182 C 0.91176 0.79374 0.63308 0.0
C1183 C 0.91481 0.76977 0.6335 0.0
H1184 H 0.79739 0.14589 0.29611 0.0
H1185 H 0.81097 0.1396 0.47218 0.0
H1186 H 0.76983 0.14039 0.49173 0.0
H1187 H 0.72966 0.14544 0.45895 0.0
H1188 H 0.71599 0.1407 0.28265 0.0
H1189 H 0.75715 0.14144 0.26306 0.0
C1190 C 0.79142 0.14405 0.33867 0.0
C1191 C 0.80755 0.14345 0.38262 0.0
C1192 C 0.76753 0.14281 0.34963 0.0
C1193 C 0.79914 0.14091 0.43745 0.0
C1194 C 0.77552 0.14124 0.44877 0.0
C1195 C 0.73561 0.14394 0.41629 0.0
C1196 C 0.71946 0.1438 0.37236 0.0
C1197 C 0.75948 0.1426 0.40524 0.0
C1198 C 0.72784 0.1417 0.3174 0.0
C1199 C 0.75146 0.14196 0.30606 0.0
H1200 H 0.16943 0.29959 0.63149 0.0
H1201 H 0.09597 0.30784 0.62535 0.0
H1202 H 0.09115 0.26588 0.62403 0.0
H1203 H 0.10831 0.22644 0.62513 0.0
H1204 H 0.18147 0.21963 0.64753 0.0
H1205 H 0.18591 0.26127 0.64454 0.0
C1206 C 0.15231 0.29227 0.63118 0.0
C1207 C 0.13307 0.30693 0.62945 0.0
C1208 C 0.14966 0.26827 0.63381 0.0
C1209 C 0.11106 0.29699 0.62701 0.0
C1210 C 0.10832 0.27299 0.62656 0.0
C1211 C 0.12514 0.23417 0.62995 0.0
C1212 C 0.14463 0.2199 0.63487 0.0
C1213 C 0.12752 0.25839 0.63022 0.0
C1214 C 0.16629 0.23018 0.64228 0.0
C1215 C 0.16885 0.254 0.64053 0.0
H1216 H 0.2233 0.88551 0.4435 0.0
H1217 H 0.22247 0.88164 0.26399 0.0
H1218 H 0.26419 0.88697 0.26204 0.0
H1219 H 0.30145 0.89076 0.31181 0.0
H1220 H 0.30228 0.88051 0.48987 0.0
H1221 H 0.26054 0.88278 0.49234 0.0
C1222 C 0.23218 0.88538 0.4038 0.0
C1223 C 0.21938 0.88343 0.35385 0.0
C1224 C 0.25645 0.88621 0.40306 0.0
C1225 C 0.23155 0.88363 0.3031 0.0
C1226 C 0.25552 0.88649 0.30198 0.0
C1227 C 0.29252 0.8891 0.35127 0.0
C1228 C 0.30546 0.88677 0.40099 0.0
C1229 C 0.26823 0.8876 0.35178 0.0
C1230 C 0.29327 0.88393 0.45129 0.0
C1231 C 0.2692 0.88465 0.45261 0.0
H1232 H 0.25029 0.10687 0.78996 0.0
H1233 H 0.2153 0.16737 0.85021 0.0
H1234 H 0.24247 0.17045 0.92683 0.0
H1235 H 0.27628 0.15614 0.97849 0.0
H1236 H 0.31097 0.09528 0.91995 0.0
H1237 H 0.28375 0.09206 0.84296 0.0
C1238 C 0.24841 0.12066 0.81995 0.0
C1239 C 0.23063 0.13703 0.81284 0.0
C1240 C 0.26413 0.12227 0.86515 0.0
C1241 C 0.22893 0.15477 0.85277 0.0
C1242 C 0.24445 0.15649 0.89735 0.0
C1243 C 0.27804 0.14221 0.94882 0.0
C1244 C 0.29588 0.12595 0.95593 0.0
C1245 C 0.26222 0.14042 0.904 0.0
C1246 C 0.29739 0.10791 0.91681 0.0
C1247 C 0.28183 0.10612 0.87219 0.0
H1248 H 0.11137 0.77668 0.2278 0.0
H1249 H 0.15578 0.82105 0.13244 0.0
H1250 H 0.15809 0.79223 0.05868 0.0
H1251 H 0.14813 0.75379 0.02082 0.0
H1252 H 0.10275 0.71006 0.11557 0.0
H1253 H 0.10063 0.73879 0.18896 0.0
C1254 C 0.12169 0.78006 0.1911 0.0
C1255 C 0.13332 0.80132 0.18635 0.0
C1256 C 0.12292 0.76329 0.14816 0.0
C1257 C 0.14632 0.80518 0.13761 0.0
C1258 C 0.14777 0.78855 0.0952 0.0
C1259 C 0.13758 0.75054 0.05717 0.0
C1260 C 0.12593 0.72925 0.06207 0.0
C1261 C 0.13614 0.76748 0.0998 0.0
C1262 C 0.11249 0.72574 0.11034 0.0
C1263 C 0.11108 0.74236 0.15261 0.0
H1264 H 0.72423 0.86609 0.91503 0.0
H1265 H 0.75263 0.92308 0.0072 0.0
H1266 H 0.78331 0.92686 0.93869 0.0
H1267 H 0.80284 0.91389 0.85229 0.0
H1268 H 0.77486 0.85639 0.76146 0.0
H1269 H 0.74392 0.85287 0.82951 0.0
C1270 C 0.73721 0.87921 0.92072 0.0
C1271 C 0.73566 0.89434 0.96685 0.0
C1272 C 0.75517 0.88126 0.88097 0.0
C1273 C 0.75278 0.91137 0.97215 0.0
C1274 C 0.77057 0.9135 0.93289 0.0
C1275 C 0.7899 0.90069 0.84702 0.0
C1276 C 0.79151 0.8854 0.80129 0.0
C1277 C 0.77196 0.89862 0.88689 0.0
C1278 C 0.7745 0.86827 0.79618 0.0
C1279 C 0.75663 0.86627 0.83519 0.0
H1280 H 0.87358 0.24553 0.22608 0.0
H1281 H 0.92616 0.20475 0.14722 0.0
H1282 H 0.92907 0.23279 0.07182 0.0
H1283 H 0.91635 0.26898 0.02624 0.0
H1284 H 0.86313 0.3092 0.10432 0.0
H1285 H 0.86096 0.28168 0.18079 0.0
C1286 C 0.88582 0.24281 0.19267 0.0
C1287 C 0.89956 0.22275 0.19293 0.0
C1288 C 0.88728 0.25905 0.14854 0.0
C1289 C 0.91509 0.21969 0.1484 0.0
C1290 C 0.91686 0.23586 0.10508 0.0
C1291 C 0.90436 0.27183 0.06009 0.0
C1292 C 0.88983 0.29133 0.05862 0.0
C1293 C 0.90299 0.25561 0.10436 0.0
C1294 C 0.87433 0.29436 0.10321 0.0
C1295 C 0.87313 0.27859 0.14745 0.0
H1296 H 0.22211 0.41763 0.41442 0.0
H1297 H 0.24832 0.35853 0.50229 0.0
H1298 H 0.27964 0.35519 0.43524 0.0
H1299 H 0.30014 0.369 0.35146 0.0
H1300 H 0.27366 0.42778 0.26265 0.0
H1301 H 0.24259 0.43136 0.33019 0.0
C1302 C 0.23475 0.40412 0.41933 0.0
C1303 C 0.2325 0.38831 0.46384 0.0
C1304 C 0.25295 0.4022 0.38016 0.0
C1305 C 0.24914 0.3708 0.46844 0.0
C1306 C 0.26724 0.36891 0.43004 0.0
C1307 C 0.2875 0.38249 0.34632 0.0
C1308 C 0.28967 0.39814 0.30141 0.0
C1309 C 0.26933 0.38443 0.38548 0.0
C1310 C 0.27301 0.41565 0.29679 0.0
C1311 C 0.255 0.41766 0.33546 0.0
H1312 H 0.37088 0.80646 0.61979 0.0
H1313 H 0.42607 0.7761 0.52489 0.0
H1314 H 0.42945 0.7454 0.59352 0.0
H1315 H 0.41629 0.72621 0.68012 0.0
H1316 H 0.36052 0.75616 0.77353 0.0
H1317 H 0.3577 0.78732 0.70588 0.0
C1318 C 0.38354 0.79306 0.61353 0.0
C1319 C 0.39824 0.79401 0.56652 0.0
C1320 C 0.38529 0.77509 0.65322 0.0
C1321 C 0.41471 0.7764 0.56059 0.0
C1322 C 0.41658 0.75859 0.59988 0.0
C1323 C 0.40365 0.73965 0.68608 0.0
C1324 C 0.3886 0.73853 0.73235 0.0
C1325 C 0.40199 0.7577 0.64648 0.0
C1326 C 0.37218 0.75615 0.73836 0.0
C1327 C 0.37059 0.77415 0.6996 0.0
H1328 H 0.72206 0.65135 0.34964 0.0
H1329 H 0.74966 0.59383 0.25811 0.0
H1330 H 0.78037 0.58981 0.3267 0.0
H1331 H 0.80037 0.60298 0.41262 0.0
H1332 H 0.7727 0.66071 0.50321 0.0
H1333 H 0.74174 0.66429 0.43535 0.0
C1334 C 0.73486 0.63802 0.34415 0.0
C1335 C 0.73314 0.62292 0.29801 0.0
C1336 C 0.75278 0.6358 0.384 0.0
C1337 C 0.74999 0.60559 0.29307 0.0
C1338 C 0.76779 0.60332 0.33239 0.0
C1339 C 0.78748 0.61623 0.41793 0.0
C1340 C 0.78931 0.63165 0.46344 0.0
C1341 C 0.76943 0.6183 0.3782 0.0
C1342 C 0.77229 0.64878 0.46859 0.0
C1343 C 0.75437 0.65081 0.42969 0.0
H1344 H 0.6084 0.24514 0.53714 0.0
H1345 H 0.66376 0.20624 0.6102 0.0
H1346 H 0.66709 0.23438 0.68537 0.0
H1347 H 0.65416 0.27018 0.73198 0.0
H1348 H 0.59789 0.30838 0.66078 0.0
H1349 H 0.5951 0.28069 0.58457 0.0
C1350 C 0.62129 0.24286 0.5693 0.0
C1351 C 0.63579 0.22335 0.56745 0.0
C1352 C 0.62292 0.2591 0.61345 0.0
C1353 C 0.65217 0.22079 0.61032 0.0
C1354 C 0.65416 0.237 0.65348 0.0
C1355 C 0.64133 0.27254 0.69973 0.0
C1356 C 0.62622 0.29156 0.7029 0.0
C1357 C 0.6396 0.25624 0.65577 0.0
C1358 C 0.6096 0.29393 0.66048 0.0
C1359 C 0.60805 0.27808 0.6164 0.0
loop_
_geom_bond_atom_site_label_1
_geom_bond_atom_site_label_2
_geom_bond_distance
_geom_bond_site_symmetry_2
_ccdc_geom_bond_type
C0 C1 1.443 . S
C0 N4 1.376 . S
C0 C38 1.389 . S
C1 C0 1.443 . S
C1 C2 1.340 . S
C1 H41 0.951 . S
C2 C1 1.340 . S
C2 C3 1.439 . S
C2 H42 0.950 . S
C3 C2 1.439 . S
C3 N4 1.374 . S
C3 C37 1.395 . S
N4 C0 1.376 . S
N4 C3 1.374 . S
N4 Co5 2.008 . S
Co5 N4 2.008 . S
Co5 N6 1.995 . S
Co5 N11 2.008 . S
Co5 N16 1.995 . S
Co5 N21 2.282 . S
Co5 N27 2.282 . S
N6 Co5 1.995 . S
N6 C7 1.376 . S
N6 C10 1.383 . S
C7 N6 1.376 . S
C7 C8 1.446 . S
C7 C37 1.391 . S
C8 C7 1.446 . S
C8 C9 1.339 . S
C8 H43 0.949 . S
C9 C8 1.339 . S
C9 C10 1.439 . S
C9 H44 0.950 . S
C10 N6 1.383 . S
C10 C9 1.439 . S
C10 C39 1.392 . S
N11 Co5 2.008 . S
N11 C12 1.376 . S
N11 C15 1.374 . S
C12 N11 1.376 . S
C12 C13 1.443 . S
C12 C39 1.389 . S
C13 C12 1.443 . S
C13 C14 1.340 1_554 S
C13 H45 0.951 . S
C14 C13 1.340 1_556 S
C14 C15 1.439 1_556 S
C14 H46 0.950 . S
C15 N11 1.374 . S
C15 C14 1.439 1_554 S
C15 C40 1.395 . S
N16 Co5 1.995 . S
N16 C17 1.376 . S
N16 C20 1.383 . S
C17 N16 1.376 . S
C17 C18 1.446 . S
C17 C40 1.391 . S
C18 C17 1.446 . S
C18 C19 1.339 . S
C18 H47 0.949 . S
C19 C18 1.339 . S
C19 C20 1.439 . S
C19 H48 0.950 . S
C20 N16 1.383 . S
C20 C19 1.439 . S
C20 C38 1.392 . S
N21 Co5 2.282 . S
N21 C24 1.332 . S
N21 C26 1.332 . S
C22 C23 1.386 . S
C22 C25 1.388 . S
C23 C22 1.386 . S
C23 C24 1.382 . S
C23 H49 0.950 1_554 S
C24 N21 1.332 . S
C24 C23 1.382 . S
C24 H35 0.952 . S
C25 C22 1.388 . S
C25 C26 1.382 . S
C25 H50 0.950 . S
C26 N21 1.332 . S
C26 C25 1.382 . S
C26 H36 0.948 . S
N27 Co5 2.282 . S
N27 C31 1.332 . S
N27 C32 1.332 . S
C28 C29 1.388 . S
C28 C32 1.382 . S
C28 H51 0.950 . S
C29 C28 1.388 . S
C29 C30 1.386 . S
C30 C29 1.386 . S
C30 C31 1.382 . S
C30 H52 0.950 . S
C31 N27 1.332 . S
C31 C30 1.382 . S
C31 H33 0.952 . S
C32 N27 1.332 . S
C32 C28 1.382 . S
C32 H34 0.948 . S
H33 C31 0.952 . S
H34 C32 0.948 . S
H35 C24 0.952 . S
H36 C26 0.948 . S
C37 C3 1.395 . S
C37 C7 1.391 . S
C38 C0 1.389 . S
C38 C20 1.392 . S
C39 C10 1.392 . S
C39 C12 1.389 . S
C40 C15 1.395 . S
C40 C17 1.391 . S
H41 C1 0.951 . S
H42 C2 0.950 . S
H43 C8 0.949 . S
H44 C9 0.950 . S
H45 C13 0.951 . S
H46 C14 0.950 . S
H47 C18 0.949 . S
H48 C19 0.950 . S
H49 C23 0.950 1_556 S
H50 C25 0.950 . S
H51 C28 0.950 . S
H52 C30 0.950 . S
C53 C54 1.443 . S
C53 N57 1.376 . S
C53 C91 1.389 . S
C54 C53 1.443 . S
C54 C55 1.340 . S
C54 H94 0.951 . S
C55 C54 1.340 . S
C55 C56 1.439 . S
C55 H95 0.950 . S
C56 C55 1.439 . S
C56 N57 1.374 . S
C56 C90 1.395 . S
N57 C53 1.376 . S
N57 C56 1.374 . S
N57 Co58 2.008 . S
Co58 N57 2.008 . S
Co58 N59 1.995 . S
Co58 N64 2.008 . S
Co58 N69 1.995 . S
Co58 N74 2.282 . S
Co58 N80 2.282 . S
N59 Co58 1.995 . S
N59 C60 1.376 . S
N59 C63 1.383 . S
C60 N59 1.376 . S
C60 C61 1.446 . S
C60 C90 1.391 . S
C61 C60 1.446 . S
C61 C62 1.339 . S
C61 H96 0.949 1_556 S
C62 C61 1.339 . S
C62 C63 1.439 . S
C62 H97 0.950 . S
C63 N59 1.383 . S
C63 C62 1.439 . S
C63 C92 1.392 . S
N64 Co58 2.008 . S
N64 C65 1.376 . S
N64 C68 1.374 . S
C65 N64 1.376 . S
C65 C66 1.443 . S
C65 C92 1.389 . S
C66 C65 1.443 . S
C66 C67 1.340 . S
C66 H98 0.951 . S
C67 C66 1.340 . S
C67 C68 1.439 . S
C67 H99 0.950 . S
C68 N64 1.374 . S
C68 C67 1.439 . S
C68 C93 1.395 . S
N69 Co58 1.995 . S
N69 C70 1.376 . S
N69 C73 1.383 . S
C70 N69 1.376 . S
C70 C71 1.446 . S
C70 C93 1.391 . S
C71 C70 1.446 . S
C71 C72 1.339 . S
C71 H100 0.949 . S
C72 C71 1.339 . S
C72 C73 1.439 . S
C72 H101 0.950 . S
C73 N69 1.383 . S
C73 C72 1.439 . S
C73 C91 1.392 . S
N74 Co58 2.282 . S
N74 C77 1.332 . S
N74 C79 1.332 . S
C75 C76 1.386 . S
C75 C78 1.388 . S
C76 C75 1.386 . S
C76 C77 1.382 . S
C76 H102 0.950 . S
C77 N74 1.332 . S
C77 C76 1.382 . S
C77 H88 0.952 . S
C78 C75 1.388 . S
C78 C79 1.382 . S
C78 H103 0.950 1_556 S
C79 N74 1.332 . S
C79 C78 1.382 . S
C79 H89 0.948 . S
N80 Co58 2.282 . S
N80 C84 1.332 . S
N80 C85 1.332 . S
C81 C82 1.388 . S
C81 C85 1.382 . S
C81 H104 0.950 . S
C82 C81 1.388 . S
C82 C83 1.386 . S
C83 C82 1.386 . S
C83 C84 1.382 . S
C83 H105 0.950 . S
C84 N80 1.332 . S
C84 C83 1.382 . S
C84 H86 0.952 . S
C85 N80 1.332 . S
C85 C81 1.382 . S
C85 H87 0.948 . S
H86 C84 0.952 . S
H87 C85 0.948 . S
H88 C77 0.952 . S
H89 C79 0.948 . S
C90 C56 1.395 . S
C90 C60 1.391 . S
C91 C53 1.389 . S
C91 C73 1.392 . S
C92 C63 1.392 . S
C92 C65 1.389 . S
C93 C68 1.395 . S
C93 C70 1.391 . S
H94 C54 0.951 . S
H95 C55 0.950 . S
H96 C61 0.949 1_554 S
H97 C62 0.950 . S
H98 C66 0.951 . S
H99 C67 0.950 . S
H100 C71 0.949 . S
H101 C72 0.950 . S
H102 C76 0.950 . S
H103 C78 0.950 1_554 S
H104 C81 0.950 . S
H105 C83 0.950 . S
C106 C107 1.443 . S
C106 N110 1.376 . S
C106 C144 1.389 . S
C107 C106 1.443 . S
C107 C108 1.340 . S
C107 H147 0.951 . S
C108 C107 1.340 . S
C108 C109 1.439 . S
C108 H148 0.950 . S
C109 C108 1.439 . S
C109 N110 1.374 . S
C109 C143 1.395 . S
N110 C106 1.376 . S
N110 C109 1.374 . S
N110 Co111 2.008 . S
Co111 N110 2.008 . S
Co111 N112 1.995 . S
Co111 N117 2.008 . S
Co111 N122 1.995 . S
Co111 N127 2.282 . S
Co111 N133 2.282 . S
N112 Co111 1.995 . S
N112 C113 1.376 . S
N112 C116 1.383 . S
C113 N112 1.376 . S
C113 C114 1.446 . S
C113 C143 1.391 . S
C114 C113 1.446 . S
C114 C115 1.339 . S
C114 H149 0.949 . S
C115 C114 1.339 . S
C115 C116 1.439 . S
C115 H150 0.950 . S
C116 N112 1.383 . S
C116 C115 1.439 . S
C116 C145 1.392 . S
N117 Co111 2.008 . S
N117 C118 1.376 . S
N117 C121 1.374 . S
C118 N117 1.376 . S
C118 C119 1.443 . S
C118 C145 1.389 . S
C119 C118 1.443 . S
C119 C120 1.340 1_554 S
C119 H151 0.951 . S
C120 C119 1.340 1_556 S
C120 C121 1.439 1_556 S
C120 H152 0.950 . S
C121 N117 1.374 . S
C121 C120 1.439 1_554 S
C121 C146 1.395 . S
N122 Co111 1.995 . S
N122 C123 1.376 . S
N122 C126 1.383 . S
C123 N122 1.376 . S
C123 C124 1.446 . S
C123 C146 1.391 . S
C124 C123 1.446 . S
C124 C125 1.339 . S
C124 H153 0.949 . S
C125 C124 1.339 . S
C125 C126 1.439 . S
C125 H154 0.950 . S
C126 N122 1.383 . S
C126 C125 1.439 . S
C126 C144 1.392 . S
N127 Co111 2.282 . S
N127 C130 1.332 . S
N127 C132 1.332 . S
C128 C129 1.386 . S
C128 C131 1.388 . S
C129 C128 1.386 . S
C129 C130 1.382 . S
C129 H155 0.950 1_554 S
C130 N127 1.332 . S
C130 C129 1.382 . S
C130 H141 0.952 . S
C131 C128 1.388 . S
C131 C132 1.382 . S
C131 H156 0.950 . S
C132 N127 1.332 . S
C132 C131 1.382 . S
C132 H142 0.948 . S
N133 Co111 2.282 . S
N133 C137 1.332 . S
N133 C138 1.332 . S
C134 C135 1.388 . S
C134 C138 1.382 . S
C134 H157 0.950 . S
C135 C134 1.388 . S
C135 C136 1.386 . S
C136 C135 1.386 . S
C136 C137 1.382 . S
C136 H158 0.950 . S
C137 N133 1.332 . S
C137 C136 1.382 . S
C137 H139 0.952 . S
C138 N133 1.332 . S
C138 C134 1.382 . S
C138 H140 0.948 . S
H139 C137 0.952 . S
H140 C138 0.948 . S
H141 C130 0.952 . S
H142 C132 0.948 . S
C143 C109 1.395 . S
C143 C113 1.391 . S
C144 C106 1.389 . S
C144 C126 1.392 . S
C145 C116 1.392 . S
C145 C118 1.389 . S
C146 C121 1.395 . S
C146 C123 1.391 . S
H147 C107 0.951 . S
H148 C108 0.950 . S
H149 C114 0.949 . S
H150 C115 0.950 . S
H151 C119 0.951 . S
H152 C120 0.950 . S
H153 C124 0.949 . S
H154 C125 0.950 . S
H155 C129 0.950 1_556 S
H156 C131 0.950 . S
H157 C134 0.950 . S
H158 C136 0.950 . S
C159 C160 1.443 . S
C159 N163 1.376 . S
C159 C197 1.389 . S
C160 C159 1.443 . S
C160 C161 1.340 . S
C160 H200 0.951 . S
C161 C160 1.340 . S
C161 C162 1.439 . S
C161 H201 0.950 . S
C162 C161 1.439 . S
C162 N163 1.374 . S
C162 C196 1.395 . S
N163 C159 1.376 . S
N163 C162 1.374 . S
N163 Co164 2.008 . S
Co164 N163 2.008 . S
Co164 N165 1.995 . S
Co164 N170 2.008 . S
Co164 N175 1.995 . S
Co164 N180 2.282 . S
Co164 N186 2.282 . S
N165 Co164 1.995 . S
N165 C166 1.376 . S
N165 C169 1.383 . S
C166 N165 1.376 . S
C166 C167 1.446 . S
C166 C196 1.391 . S
C167 C166 1.446 . S
C167 C168 1.339 . S
C167 H202 0.949 1_556 S
C168 C167 1.339 . S
C168 C169 1.439 . S
C168 H203 0.950 . S
C169 N165 1.383 . S
C169 C168 1.439 . S
C169 C198 1.392 . S
N170 Co164 2.008 . S
N170 C171 1.376 . S
N170 C174 1.374 . S
C171 N170 1.376 . S
C171 C172 1.443 . S
C171 C198 1.389 . S
C172 C171 1.443 . S
C172 C173 1.340 . S
C172 H204 0.951 . S
C173 C172 1.340 . S
C173 C174 1.439 . S
C173 H205 0.950 . S
C174 N170 1.374 . S
C174 C173 1.439 . S
C174 C199 1.395 . S
N175 Co164 1.995 . S
N175 C176 1.376 . S
N175 C179 1.383 . S
C176 N175 1.376 . S
C176 C177 1.446 . S
C176 C199 1.391 . S
C177 C176 1.446 . S
C177 C178 1.339 . S
C177 H206 0.949 . S
C178 C177 1.339 . S
C178 C179 1.439 . S
C178 H207 0.950 . S
C179 N175 1.383 . S
C179 C178 1.439 . S
C179 C197 1.392 . S
N180 Co164 2.282 . S
N180 C183 1.332 . S
N180 C185 1.332 . S
C181 C182 1.386 . S
C181 C184 1.388 . S
C182 C181 1.386 . S
C182 C183 1.382 . S
C182 H208 0.950 . S
C183 N180 1.332 . S
C183 C182 1.382 . S
C183 H194 0.952 . S
C184 C181 1.388 . S
C184 C185 1.382 . S
C184 H209 0.950 1_556 S
C185 N180 1.332 . S
C185 C184 1.382 . S
C185 H195 0.948 . S
N186 Co164 2.282 . S
N186 C190 1.332 . S
N186 C191 1.332 . S
C187 C188 1.388 . S
C187 C191 1.382 . S
C187 H210 0.950 . S
C188 C187 1.388 . S
C188 C189 1.386 . S
C189 C188 1.386 . S
C189 C190 1.382 . S
C189 H211 0.950 . S
C190 N186 1.332 . S
C190 C189 1.382 . S
C190 H192 0.952 . S
C191 N186 1.332 . S
C191 C187 1.382 . S
C191 H193 0.948 . S
H192 C190 0.952 . S
H193 C191 0.948 . S
H194 C183 0.952 . S
H195 C185 0.948 . S
C196 C162 1.395 . S
C196 C166 1.391 . S
C197 C159 1.389 . S
C197 C179 1.392 . S
C198 C169 1.392 . S
C198 C171 1.389 . S
C199 C174 1.395 . S
C199 C176 1.391 . S
H200 C160 0.951 . S
H201 C161 0.950 . S
H202 C167 0.949 1_554 S
H203 C168 0.950 . S
H204 C172 0.951 . S
H205 C173 0.950 . S
H206 C177 0.949 . S
H207 C178 0.950 . S
H208 C182 0.950 . S
H209 C184 0.950 1_554 S
H210 C187 0.950 . S
H211 C189 0.950 . S
C212 C213 1.443 1_554 S
C212 N216 1.376 . S
C212 C250 1.389 . S
C213 C212 1.443 1_556 S
C213 C214 1.340 . S
C213 H253 0.951 . S
C214 C213 1.340 . S
C214 C215 1.439 . S
C214 H254 0.950 . S
C215 C214 1.439 . S
C215 N216 1.374 1_556 S
C215 C249 1.395 . S
N216 C212 1.376 . S
N216 C215 1.374 1_554 S
N216 Co217 2.008 . S
Co217 N216 2.008 . S
Co217 N218 1.995 . S
Co217 N223 2.008 . S
Co217 N228 1.995 . S
Co217 N233 2.282 . S
Co217 N239 2.282 . S
N218 Co217 1.995 . S
N218 C219 1.376 . S
N218 C222 1.383 . S
C219 N218 1.376 . S
C219 C220 1.446 . S
C219 C249 1.391 1_554 S
C220 C219 1.446 . S
C220 C221 1.339 . S
C220 H255 0.949 1_554 S
C221 C220 1.339 . S
C221 C222 1.439 . S
C221 H256 0.950 . S
C222 N218 1.383 . S
C222 C221 1.439 . S
C222 C251 1.392 . S
N223 Co217 2.008 . S
N223 C224 1.376 . S
N223 C227 1.374 . S
C224 N223 1.376 . S
C224 C225 1.443 . S
C224 C251 1.389 . S
C225 C224 1.443 . S
C225 C226 1.340 . S
C225 H257 0.951 . S
C226 C225 1.340 . S
C226 C227 1.439 . S
C226 H258 0.950 . S
C227 N223 1.374 . S
C227 C226 1.439 . S
C227 C252 1.395 . S
N228 Co217 1.995 . S
N228 C229 1.376 . S
N228 C232 1.383 . S
C229 N228 1.376 . S
C229 C230 1.446 . S
C229 C252 1.391 . S
C230 C229 1.446 . S
C230 C231 1.339 . S
C230 H259 0.949 . S
C231 C230 1.339 . S
C231 C232 1.439 . S
C231 H260 0.950 . S
C232 N228 1.383 . S
C232 C231 1.439 . S
C232 C250 1.392 . S
N233 Co217 2.282 . S
N233 C236 1.332 . S
N233 C238 1.332 . S
C234 C235 1.386 . S
C234 C237 1.388 . S
C235 C234 1.386 . S
C235 C236 1.382 . S
C235 H261 0.950 . S
C236 N233 1.332 . S
C236 C235 1.382 . S
C236 H247 0.952 . S
C237 C234 1.388 . S
C237 C238 1.382 . S
C237 H262 0.950 . S
C238 N233 1.332 . S
C238 C237 1.382 . S
C238 H248 0.948 . S
N239 Co217 2.282 . S
N239 C243 1.332 . S
N239 C244 1.332 . S
C240 C241 1.388 1_554 S
C240 C244 1.382 . S
C240 H263 0.950 . S
C241 C240 1.388 1_556 S
C241 C242 1.386 . S
C242 C241 1.386 . S
C242 C243 1.382 1_556 S
C242 H264 0.950 . S
C243 N239 1.332 . S
C243 C242 1.382 1_554 S
C243 H245 0.952 1_554 S
C244 N239 1.332 . S
C244 C240 1.382 . S
C244 H246 0.948 . S
H245 C243 0.952 1_556 S
H246 C244 0.948 . S
H247 C236 0.952 . S
H248 C238 0.948 . S
C249 C215 1.395 . S
C249 C219 1.391 1_556 S
C250 C212 1.389 . S
C250 C232 1.392 . S
C251 C222 1.392 . S
C251 C224 1.389 . S
C252 C227 1.395 . S
C252 C229 1.391 . S
H253 C213 0.951 . S
H254 C214 0.950 . S
H255 C220 0.949 1_556 S
H256 C221 0.950 . S
H257 C225 0.951 . S
H258 C226 0.950 . S
H259 C230 0.949 . S
H260 C231 0.950 . S
H261 C235 0.950 . S
H262 C237 0.950 . S
H263 C240 0.950 . S
H264 C242 0.950 . S
C265 C266 1.443 . S
C265 N269 1.376 . S
C265 C303 1.389 . S
C266 C265 1.443 . S
C266 C267 1.340 . S
C266 H306 0.951 . S
C267 C266 1.340 . S
C267 C268 1.439 . S
C267 H307 0.950 . S
C268 C267 1.439 . S
C268 N269 1.374 . S
C268 C302 1.395 . S
N269 C265 1.376 . S
N269 C268 1.374 . S
N269 Co270 2.008 . S
Co270 N269 2.008 . S
Co270 N271 1.995 . S
Co270 N276 2.008 . S
Co270 N281 1.995 . S
Co270 N286 2.282 . S
Co270 N292 2.282 . S
N271 Co270 1.995 . S
N271 C272 1.376 . S
N271 C275 1.383 . S
C272 N271 1.376 . S
C272 C273 1.446 . S
C272 C302 1.391 . S
C273 C272 1.446 . S
C273 C274 1.339 . S
C273 H308 0.949 . S
C274 C273 1.339 . S
C274 C275 1.439 . S
C274 H309 0.950 . S
C275 N271 1.383 . S
C275 C274 1.439 . S
C275 C304 1.392 . S
N276 Co270 2.008 . S
N276 C277 1.376 . S
N276 C280 1.374 . S
C277 N276 1.376 . S
C277 C278 1.443 . S
C277 C304 1.389 . S
C278 C277 1.443 . S
C278 C279 1.340 . S
C278 H310 0.951 . S
C279 C278 1.340 . S
C279 C280 1.439 . S
C279 H311 0.950 1_556 S
C280 N276 1.374 . S
C280 C279 1.439 . S
C280 C305 1.395 1_556 S
N281 Co270 1.995 . S
N281 C282 1.376 . S
N281 C285 1.383 . S
C282 N281 1.376 . S
C282 C283 1.446 1_556 S
C282 C305 1.391 1_556 S
C283 C282 1.446 1_554 S
C283 C284 1.339 . S
C283 H312 0.949 . S
C284 C283 1.339 . S
C284 C285 1.439 1_554 S
C284 H313 0.950 . S
C285 N281 1.383 . S
C285 C284 1.439 1_556 S
C285 C303 1.392 . S
N286 Co270 2.282 . S
N286 C289 1.332 . S
N286 C291 1.332 . S
C287 C288 1.386 . S
C287 C290 1.388 . S
C288 C287 1.386 . S
C288 C289 1.382 . S
C288 H314 0.950 . S
C289 N286 1.332 . S
C289 C288 1.382 . S
C289 H300 0.952 . S
C290 C287 1.388 . S
C290 C291 1.382 . S
C290 H315 0.950 . S
C291 N286 1.332 . S
C291 C290 1.382 . S
C291 H301 0.948 . S
N292 Co270 2.282 . S
N292 C296 1.332 . S
N292 C297 1.332 . S
C293 C294 1.388 . S
C293 C297 1.382 1_554 S
C293 H316 0.950 . S
C294 C293 1.388 . S
C294 C295 1.386 1_554 S
C295 C294 1.386 1_556 S
C295 C296 1.382 . S
C295 H317 0.950 . S
C296 N292 1.332 . S
C296 C295 1.382 . S
C296 H298 0.952 . S
C297 N292 1.332 . S
C297 C293 1.382 1_556 S
C297 H299 0.948 1_556 S
H298 C296 0.952 . S
H299 C297 0.948 1_554 S
H300 C289 0.952 . S
H301 C291 0.948 . S
C302 C268 1.395 . S
C302 C272 1.391 . S
C303 C265 1.389 . S
C303 C285 1.392 . S
C304 C275 1.392 . S
C304 C277 1.389 . S
C305 C280 1.395 1_554 S
C305 C282 1.391 1_554 S
H306 C266 0.951 . S
H307 C267 0.950 . S
H308 C273 0.949 . S
H309 C274 0.950 . S
H310 C278 0.951 . S
H311 C279 0.950 1_554 S
H312 C283 0.949 . S
H313 C284 0.950 . S
H314 C288 0.950 . S
H315 C290 0.950 . S
H316 C293 0.950 . S
H317 C295 0.950 . S
C318 C319 1.443 1_554 S
C318 N322 1.376 . S
C318 C356 1.389 . S
C319 C318 1.443 1_556 S
C319 C320 1.340 . S
C319 H359 0.951 . S
C320 C319 1.340 . S
C320 C321 1.439 . S
C320 H360 0.950 . S
C321 C320 1.439 . S
C321 N322 1.374 1_556 S
C321 C355 1.395 . S
N322 C318 1.376 . S
N322 C321 1.374 1_554 S
N322 Co323 2.008 . S
Co323 N322 2.008 . S
Co323 N324 1.995 . S
Co323 N329 2.008 . S
Co323 N334 1.995 . S
Co323 N339 2.282 . S
Co323 N345 2.282 . S
N324 Co323 1.995 . S
N324 C325 1.376 . S
N324 C328 1.383 . S
C325 N324 1.376 . S
C325 C326 1.446 . S
C325 C355 1.391 1_554 S
C326 C325 1.446 . S
C326 C327 1.339 . S
C326 H361 0.949 1_554 S
C327 C326 1.339 . S
C327 C328 1.439 . S
C327 H362 0.950 . S
C328 N324 1.383 . S
C328 C327 1.439 . S
C328 C357 1.392 . S
N329 Co323 2.008 . S
N329 C330 1.376 . S
N329 C333 1.374 . S
C330 N329 1.376 . S
C330 C331 1.443 . S
C330 C357 1.389 . S
C331 C330 1.443 . S
C331 C332 1.340 . S
C331 H363 0.951 . S
C332 C331 1.340 . S
C332 C333 1.439 . S
C332 H364 0.950 . S
C333 N329 1.374 . S
C333 C332 1.439 . S
C333 C358 1.395 . S
N334 Co323 1.995 . S
N334 C335 1.376 . S
N334 C338 1.383 . S
C335 N334 1.376 . S
C335 C336 1.446 . S
C335 C358 1.391 . S
C336 C335 1.446 . S
C336 C337 1.339 . S
C336 H365 0.949 . S
C337 C336 1.339 . S
C337 C338 1.439 . S
C337 H366 0.950 . S
C338 N334 1.383 . S
C338 C337 1.439 . S
C338 C356 1.392 . S
N339 Co323 2.282 . S
N339 C342 1.332 . S
N339 C344 1.332 . S
C340 C341 1.386 . S
C340 C343 1.388 . S
C341 C340 1.386 . S
C341 C342 1.382 . S
C341 H367 0.950 . S
C342 N339 1.332 . S
C342 C341 1.382 . S
C342 H353 0.952 . S
C343 C340 1.388 . S
C343 C344 1.382 . S
C343 H368 0.950 . S
C344 N339 1.332 . S
C344 C343 1.382 . S
C344 H354 0.948 . S
N345 Co323 2.282 . S
N345 C349 1.332 . S
N345 C350 1.332 . S
C346 C347 1.388 1_554 S
C346 C350 1.382 . S
C346 H369 0.950 . S
C347 C346 1.388 1_556 S
C347 C348 1.386 . S
C348 C347 1.386 . S
C348 C349 1.382 1_556 S
C348 H370 0.950 . S
C349 N345 1.332 . S
C349 C348 1.382 1_554 S
C349 H351 0.952 1_554 S
C350 N345 1.332 . S
C350 C346 1.382 . S
C350 H352 0.948 . S
H351 C349 0.952 1_556 S
H352 C350 0.948 . S
H353 C342 0.952 . S
H354 C344 0.948 . S
C355 C321 1.395 . S
C355 C325 1.391 1_556 S
C356 C318 1.389 . S
C356 C338 1.392 . S
C357 C328 1.392 . S
C357 C330 1.389 . S
C358 C333 1.395 . S
C358 C335 1.391 . S
H359 C319 0.951 . S
H360 C320 0.950 . S
H361 C326 0.949 1_556 S
H362 C327 0.950 . S
H363 C331 0.951 . S
H364 C332 0.950 . S
H365 C336 0.949 . S
H366 C337 0.950 . S
H367 C341 0.950 . S
H368 C343 0.950 . S
H369 C346 0.950 . S
H370 C348 0.950 . S
C371 C372 1.443 . S
C371 N375 1.376 . S
C371 C409 1.389 . S
C372 C371 1.443 . S
C372 C373 1.340 . S
C372 H412 0.951 . S
C373 C372 1.340 . S
C373 C374 1.439 . S
C373 H413 0.950 . S
C374 C373 1.439 . S
C374 N375 1.374 . S
C374 C408 1.395 . S
N375 C371 1.376 . S
N375 C374 1.374 . S
N375 Co376 2.008 . S
Co376 N375 2.008 . S
Co376 N377 1.995 . S
Co376 N382 2.008 . S
Co376 N387 1.995 . S
Co376 N392 2.282 . S
Co376 N398 2.282 . S
N377 Co376 1.995 . S
N377 C378 1.376 . S
N377 C381 1.383 . S
C378 N377 1.376 . S
C378 C379 1.446 . S
C378 C408 1.391 . S
C379 C378 1.446 . S
C379 C380 1.339 . S
C379 H414 0.949 . S
C380 C379 1.339 . S
C380 C381 1.439 . S
C380 H415 0.950 . S
C381 N377 1.383 . S
C381 C380 1.439 . S
C381 C410 1.392 . S
N382 Co376 2.008 . S
N382 C383 1.376 . S
N382 C386 1.374 . S
C383 N382 1.376 . S
C383 C384 1.443 . S
C383 C410 1.389 . S
C384 C383 1.443 . S
C384 C385 1.340 . S
C384 H416 0.951 . S
C385 C384 1.340 . S
C385 C386 1.439 . S
C385 H417 0.950 1_556 S
C386 N382 1.374 . S
C386 C385 1.439 . S
C386 C411 1.395 1_556 S
N387 Co376 1.995 . S
N387 C388 1.376 . S
N387 C391 1.383 . S
C388 N387 1.376 . S
C388 C389 1.446 1_556 S
C388 C411 1.391 1_556 S
C389 C388 1.446 1_554 S
C389 C390 1.339 . S
C389 H418 0.949 . S
C390 C389 1.339 . S
C390 C391 1.439 1_554 S
C390 H419 0.950 . S
C391 N387 1.383 . S
C391 C390 1.439 1_556 S
C391 C409 1.392 . S
N392 Co376 2.282 . S
N392 C395 1.332 . S
N392 C397 1.332 . S
C393 C394 1.386 . S
C393 C396 1.388 . S
C394 C393 1.386 . S
C394 C395 1.382 . S
C394 H420 0.950 . S
C395 N392 1.332 . S
C395 C394 1.382 . S
C395 H406 0.952 . S
C396 C393 1.388 . S
C396 C397 1.382 . S
C396 H421 0.950 . S
C397 N392 1.332 . S
C397 C396 1.382 . S
C397 H407 0.948 . S
N398 Co376 2.282 . S
N398 C402 1.332 . S
N398 C403 1.332 . S
C399 C400 1.388 . S
C399 C403 1.382 1_554 S
C399 H422 0.950 . S
C400 C399 1.388 . S
C400 C401 1.386 1_554 S
C401 C400 1.386 1_556 S
C401 C402 1.382 . S
C401 H423 0.950 . S
C402 N398 1.332 . S
C402 C401 1.382 . S
C402 H404 0.952 . S
C403 N398 1.332 . S
C403 C399 1.382 1_556 S
C403 H405 0.948 1_556 S
H404 C402 0.952 . S
H405 C403 0.948 1_554 S
H406 C395 0.952 . S
H407 C397 0.948 . S
C408 C374 1.395 . S
C408 C378 1.391 . S
C409 C371 1.389 . S
C409 C391 1.392 . S
C410 C381 1.392 . S
C410 C383 1.389 . S
C411 C386 1.395 1_554 S
C411 C388 1.391 1_554 S
H412 C372 0.951 . S
H413 C373 0.950 . S
H414 C379 0.949 . S
H415 C380 0.950 . S
H416 C384 0.951 . S
H417 C385 0.950 1_554 S
H418 C389 0.949 . S
H419 C390 0.950 . S
H420 C394 0.950 . S
H421 C396 0.950 . S
H422 C399 0.950 . S
H423 C401 0.950 . S
C424 C425 1.443 . S
C424 N428 1.376 . S
C424 C462 1.389 . S
C425 C424 1.443 . S
C425 C426 1.340 . S
C425 H465 0.951 . S
C426 C425 1.340 . S
C426 C427 1.439 . S
C426 H466 0.950 . S
C427 C426 1.439 . S
C427 N428 1.374 . S
C427 C461 1.395 . S
N428 C424 1.376 . S
N428 C427 1.374 . S
N428 Co429 2.008 . S
Co429 N428 2.008 . S
Co429 N430 1.995 . S
Co429 N435 2.008 . S
Co429 N440 1.995 . S
Co429 N445 2.282 . S
Co429 N451 2.282 . S
N430 Co429 1.995 . S
N430 C431 1.376 . S
N430 C434 1.383 . S
C431 N430 1.376 . S
C431 C432 1.446 . S
C431 C461 1.391 . S
C432 C431 1.446 . S
C432 C433 1.339 . S
C432 H467 0.949 . S
C433 C432 1.339 . S
C433 C434 1.439 . S
C433 H468 0.950 . S
C434 N430 1.383 . S
C434 C433 1.439 . S
C434 C463 1.392 . S
N435 Co429 2.008 . S
N435 C436 1.376 . S
N435 C439 1.374 . S
C436 N435 1.376 . S
C436 C437 1.443 . S
C436 C463 1.389 . S
C437 C436 1.443 . S
C437 C438 1.340 . S
C437 H469 0.951 . S
C438 C437 1.340 . S
C438 C439 1.439 . S
C438 H470 0.950 . S
C439 N435 1.374 . S
C439 C438 1.439 . S
C439 C464 1.395 . S
N440 Co429 1.995 . S
N440 C441 1.376 . S
N440 C444 1.383 . S
C441 N440 1.376 . S
C441 C442 1.446 . S
C441 C464 1.391 . S
C442 C441 1.446 . S
C442 C443 1.339 . S
C442 H471 0.949 . S
C443 C442 1.339 . S
C443 C444 1.439 . S
C443 H472 0.950 . S
C444 N440 1.383 . S
C444 C443 1.439 . S
C444 C462 1.392 . S
N445 Co429 2.282 . S
N445 C448 1.332 . S
N445 C450 1.332 . S
C446 C447 1.386 . S
C446 C449 1.388 . S
C447 C446 1.386 . S
C447 C448 1.382 . S
C447 H473 0.950 . S
C448 N445 1.332 . S
C448 C447 1.382 . S
C448 H459 0.952 . S
C449 C446 1.388 . S
C449 C450 1.382 . S
C449 H474 0.950 . S
C450 N445 1.332 . S
C450 C449 1.382 . S
C450 H460 0.948 . S
N451 Co429 2.282 . S
N451 C455 1.332 . S
N451 C456 1.332 . S
C452 C453 1.388 . S
C452 C456 1.382 . S
C452 H475 0.950 . S
C453 C452 1.388 . S
C453 C454 1.386 . S
C454 C453 1.386 . S
C454 C455 1.382 . S
C454 H476 0.950 . S
C455 N451 1.332 . S
C455 C454 1.382 . S
C455 H457 0.952 . S
C456 N451 1.332 . S
C456 C452 1.382 . S
C456 H458 0.948 . S
H457 C455 0.952 . S
H458 C456 0.948 . S
H459 C448 0.952 . S
H460 C450 0.948 . S
C461 C427 1.395 . S
C461 C431 1.391 . S
C462 C424 1.389 . S
C462 C444 1.392 . S
C463 C434 1.392 . S
C463 C436 1.389 . S
C464 C439 1.395 . S
C464 C441 1.391 . S
H465 C425 0.951 . S
H466 C426 0.950 . S
H467 C432 0.949 . S
H468 C433 0.950 . S
H469 C437 0.951 . S
H470 C438 0.950 . S
H471 C442 0.949 . S
H472 C443 0.950 . S
H473 C447 0.950 . S
H474 C449 0.950 . S
H475 C452 0.950 . S
H476 C454 0.950 . S
C477 C478 1.443 . S
C477 N481 1.376 . S
C477 C515 1.389 . S
C478 C477 1.443 . S
C478 C479 1.340 . S
C478 H518 0.951 . S
C479 C478 1.340 . S
C479 C480 1.439 . S
C479 H519 0.950 . S
C480 C479 1.439 . S
C480 N481 1.374 . S
C480 C514 1.395 . S
N481 C477 1.376 . S
N481 C480 1.374 . S
N481 Co482 2.008 . S
Co482 N481 2.008 . S
Co482 N483 1.995 . S
Co482 N488 2.008 . S
Co482 N493 1.995 . S
Co482 N498 2.282 . S
Co482 N504 2.282 . S
N483 Co482 1.995 . S
N483 C484 1.376 . S
N483 C487 1.383 . S
C484 N483 1.376 . S
C484 C485 1.446 . S
C484 C514 1.391 . S
C485 C484 1.446 . S
C485 C486 1.339 . S
C485 H520 0.949 . S
C486 C485 1.339 . S
C486 C487 1.439 . S
C486 H521 0.950 . S
C487 N483 1.383 . S
C487 C486 1.439 . S
C487 C516 1.392 . S
N488 Co482 2.008 . S
N488 C489 1.376 . S
N488 C492 1.374 . S
C489 N488 1.376 . S
C489 C490 1.443 . S
C489 C516 1.389 . S
C490 C489 1.443 . S
C490 C491 1.340 . S
C490 H522 0.951 . S
C491 C490 1.340 . S
C491 C492 1.439 . S
C491 H523 0.950 . S
C492 N488 1.374 . S
C492 C491 1.439 . S
C492 C517 1.395 . S
N493 Co482 1.995 . S
N493 C494 1.376 . S
N493 C497 1.383 . S
C494 N493 1.376 . S
C494 C495 1.446 . S
C494 C517 1.391 . S
C495 C494 1.446 . S
C495 C496 1.339 . S
C495 H524 0.949 . S
C496 C495 1.339 . S
C496 C497 1.439 . S
C496 H525 0.950 . S
C497 N493 1.383 . S
C497 C496 1.439 . S
C497 C515 1.392 . S
N498 Co482 2.282 . S
N498 C501 1.332 . S
N498 C503 1.332 . S
C499 C500 1.386 . S
C499 C502 1.388 . S
C500 C499 1.386 . S
C500 C501 1.382 . S
C500 H526 0.950 . S
C501 N498 1.332 . S
C501 C500 1.382 . S
C501 H512 0.952 . S
C502 C499 1.388 . S
C502 C503 1.382 . S
C502 H527 0.950 . S
C503 N498 1.332 . S
C503 C502 1.382 . S
C503 H513 0.948 . S
N504 Co482 2.282 . S
N504 C508 1.332 . S
N504 C509 1.332 . S
C505 C506 1.388 . S
C505 C509 1.382 . S
C505 H528 0.950 . S
C506 C505 1.388 . S
C506 C507 1.386 . S
C507 C506 1.386 . S
C507 C508 1.382 . S
C507 H529 0.950 . S
C508 N504 1.332 . S
C508 C507 1.382 . S
C508 H510 0.952 . S
C509 N504 1.332 . S
C509 C505 1.382 . S
C509 H511 0.948 . S
H510 C508 0.952 . S
H511 C509 0.948 . S
H512 C501 0.952 . S
H513 C503 0.948 . S
C514 C480 1.395 . S
C514 C484 1.391 . S
C515 C477 1.389 . S
C515 C497 1.392 . S
C516 C487 1.392 . S
C516 C489 1.389 . S
C517 C492 1.395 . S
C517 C494 1.391 . S
H518 C478 0.951 . S
H519 C479 0.950 . S
H520 C485 0.949 . S
H521 C486 0.950 . S
H522 C490 0.951 . S
H523 C491 0.950 . S
H524 C495 0.949 . S
H525 C496 0.950 . S
H526 C500 0.950 . S
H527 C502 0.950 . S
H528 C505 0.950 . S
H529 C507 0.950 . S
C530 C531 1.443 . S
C530 N534 1.376 . S
C530 C568 1.389 . S
C531 C530 1.443 . S
C531 C532 1.340 . S
C531 H571 0.951 . S
C532 C531 1.340 . S
C532 C533 1.439 . S
C532 H572 0.950 . S
C533 C532 1.439 . S
C533 N534 1.374 . S
C533 C567 1.395 . S
N534 C530 1.376 . S
N534 C533 1.374 . S
N534 Co535 2.008 . S
Co535 N534 2.008 . S
Co535 N536 1.995 . S
Co535 N541 2.008 . S
Co535 N546 1.995 . S
Co535 N551 2.282 . S
Co535 N557 2.282 . S
N536 Co535 1.995 . S
N536 C537 1.376 . S
N536 C540 1.383 . S
C537 N536 1.376 . S
C537 C538 1.446 . S
C537 C567 1.391 . S
C538 C537 1.446 . S
C538 C539 1.339 . S
C538 H573 0.949 . S
C539 C538 1.339 . S
C539 C540 1.439 . S
C539 H574 0.950 . S
C540 N536 1.383 . S
C540 C539 1.439 . S
C540 C569 1.392 . S
N541 Co535 2.008 . S
N541 C542 1.376 . S
N541 C545 1.374 . S
C542 N541 1.376 . S
C542 C543 1.443 . S
C542 C569 1.389 . S
C543 C542 1.443 . S
C543 C544 1.340 . S
C543 H575 0.951 . S
C544 C543 1.340 . S
C544 C545 1.439 . S
C544 H576 0.950 . S
C545 N541 1.374 . S
C545 C544 1.439 . S
C545 C570 1.395 . S
N546 Co535 1.995 . S
N546 C547 1.376 . S
N546 C550 1.383 . S
C547 N546 1.376 . S
C547 C548 1.446 . S
C547 C570 1.391 . S
C548 C547 1.446 . S
C548 C549 1.339 . S
C548 H577 0.949 . S
C549 C548 1.339 . S
C549 C550 1.439 . S
C549 H578 0.950 . S
C550 N546 1.383 . S
C550 C549 1.439 . S
C550 C568 1.392 . S
N551 Co535 2.282 . S
N551 C554 1.332 . S
N551 C556 1.332 . S
C552 C553 1.386 . S
C552 C555 1.388 . S
C553 C552 1.386 . S
C553 C554 1.382 . S
C553 H579 0.950 . S
C554 N551 1.332 . S
C554 C553 1.382 . S
C554 H565 0.952 . S
C555 C552 1.388 . S
C555 C556 1.382 . S
C555 H580 0.950 . S
C556 N551 1.332 . S
C556 C555 1.382 . S
C556 H566 0.948 . S
N557 Co535 2.282 . S
N557 C561 1.332 . S
N557 C562 1.332 . S
C558 C559 1.388 . S
C558 C562 1.382 . S
C558 H581 0.950 . S
C559 C558 1.388 . S
C559 C560 1.386 . S
C560 C559 1.386 . S
C560 C561 1.382 . S
C560 H582 0.950 . S
C561 N557 1.332 . S
C561 C560 1.382 . S
C561 H563 0.952 . S
C562 N557 1.332 . S
C562 C558 1.382 . S
C562 H564 0.948 . S
H563 C561 0.952 . S
H564 C562 0.948 . S
H565 C554 0.952 . S
H566 C556 0.948 . S
C567 C533 1.395 . S
C567 C537 1.391 . S
C568 C530 1.389 . S
C568 C550 1.392 . S
C569 C540 1.392 . S
C569 C542 1.389 . S
C570 C545 1.395 . S
C570 C547 1.391 . S
H571 C531 0.951 . S
H572 C532 0.950 . S
H573 C538 0.949 . S
H574 C539 0.950 . S
H575 C543 0.951 . S
H576 C544 0.950 . S
H577 C548 0.949 . S
H578 C549 0.950 . S
H579 C553 0.950 . S
H580 C555 0.950 . S
H581 C558 0.950 . S
H582 C560 0.950 . S
C583 C584 1.443 . S
C583 N587 1.376 . S
C583 C621 1.389 . S
C584 C583 1.443 . S
C584 C585 1.340 . S
C584 H624 0.951 . S
C585 C584 1.340 . S
C585 C586 1.439 . S
C585 H625 0.950 . S
C586 C585 1.439 . S
C586 N587 1.374 . S
C586 C620 1.395 . S
N587 C583 1.376 . S
N587 C586 1.374 . S
N587 Co588 2.008 . S
Co588 N587 2.008 . S
Co588 N589 1.995 . S
Co588 N594 2.008 . S
Co588 N599 1.995 . S
Co588 N604 2.282 . S
Co588 N610 2.282 . S
N589 Co588 1.995 . S
N589 C590 1.376 . S
N589 C593 1.383 . S
C590 N589 1.376 . S
C590 C591 1.446 . S
C590 C620 1.391 . S
C591 C590 1.446 . S
C591 C592 1.339 . S
C591 H626 0.949 . S
C592 C591 1.339 . S
C592 C593 1.439 . S
C592 H627 0.950 . S
C593 N589 1.383 . S
C593 C592 1.439 . S
C593 C622 1.392 . S
N594 Co588 2.008 . S
N594 C595 1.376 . S
N594 C598 1.374 . S
C595 N594 1.376 . S
C595 C596 1.443 . S
C595 C622 1.389 . S
C596 C595 1.443 . S
C596 C597 1.340 . S
C596 H628 0.951 . S
C597 C596 1.340 . S
C597 C598 1.439 . S
C597 H629 0.950 . S
C598 N594 1.374 . S
C598 C597 1.439 . S
C598 C623 1.395 . S
N599 Co588 1.995 . S
N599 C600 1.376 . S
N599 C603 1.383 . S
C600 N599 1.376 . S
C600 C601 1.446 . S
C600 C623 1.391 . S
C601 C600 1.446 . S
C601 C602 1.339 . S
C601 H630 0.949 . S
C602 C601 1.339 . S
C602 C603 1.439 . S
C602 H631 0.950 . S
C603 N599 1.383 . S
C603 C602 1.439 . S
C603 C621 1.392 . S
N604 Co588 2.282 . S
N604 C607 1.332 . S
N604 C609 1.332 . S
C605 C606 1.386 . S
C605 C608 1.388 . S
C606 C605 1.386 . S
C606 C607 1.382 . S
C606 H632 0.950 . S
C607 N604 1.332 . S
C607 C606 1.382 . S
C607 H618 0.952 . S
C608 C605 1.388 . S
C608 C609 1.382 . S
C608 H633 0.950 . S
C609 N604 1.332 . S
C609 C608 1.382 . S
C609 H619 0.948 . S
N610 Co588 2.282 . S
N610 C614 1.332 . S
N610 C615 1.332 . S
C611 C612 1.388 . S
C611 C615 1.382 . S
C611 H634 0.950 . S
C612 C611 1.388 . S
C612 C613 1.386 . S
C613 C612 1.386 . S
C613 C614 1.382 . S
C613 H635 0.950 . S
C614 N610 1.332 . S
C614 C613 1.382 . S
C614 H616 0.952 . S
C615 N610 1.332 . S
C615 C611 1.382 . S
C615 H617 0.948 . S
H616 C614 0.952 . S
H617 C615 0.948 . S
H618 C607 0.952 . S
H619 C609 0.948 . S
C620 C586 1.395 . S
C620 C590 1.391 . S
C621 C583 1.389 . S
C621 C603 1.392 . S
C622 C593 1.392 . S
C622 C595 1.389 . S
C623 C598 1.395 . S
C623 C600 1.391 . S
H624 C584 0.951 . S
H625 C585 0.950 . S
H626 C591 0.949 . S
H627 C592 0.950 . S
H628 C596 0.951 . S
H629 C597 0.950 . S
H630 C601 0.949 . S
H631 C602 0.950 . S
H632 C606 0.950 . S
H633 C608 0.950 . S
H634 C611 0.950 . S
H635 C613 0.950 . S
C636 C637 1.443 . S
C636 N640 1.376 . S
C636 C674 1.389 . S
C637 C636 1.443 . S
C637 C638 1.340 . S
C637 H677 0.951 . S
C638 C637 1.340 . S
C638 C639 1.439 . S
C638 H678 0.950 . S
C639 C638 1.439 . S
C639 N640 1.374 . S
C639 C673 1.395 . S
N640 C636 1.376 . S
N640 C639 1.374 . S
N640 Co641 2.008 . S
Co641 N640 2.008 . S
Co641 N642 1.995 . S
Co641 N647 2.008 . S
Co641 N652 1.995 . S
Co641 N657 2.282 . S
Co641 N663 2.282 . S
N642 Co641 1.995 . S
N642 C643 1.376 . S
N642 C646 1.383 . S
C643 N642 1.376 . S
C643 C644 1.446 . S
C643 C673 1.391 . S
C644 C643 1.446 . S
C644 C645 1.339 . S
C644 H679 0.949 . S
C645 C644 1.339 . S
C645 C646 1.439 . S
C645 H680 0.950 . S
C646 N642 1.383 . S
C646 C645 1.439 . S
C646 C675 1.392 . S
N647 Co641 2.008 . S
N647 C648 1.376 . S
N647 C651 1.374 . S
C648 N647 1.376 . S
C648 C649 1.443 . S
C648 C675 1.389 . S
C649 C648 1.443 . S
C649 C650 1.340 . S
C649 H681 0.951 . S
C650 C649 1.340 . S
C650 C651 1.439 . S
C650 H682 0.950 . S
C651 N647 1.374 . S
C651 C650 1.439 . S
C651 C676 1.395 . S
N652 Co641 1.995 . S
N652 C653 1.376 . S
N652 C656 1.383 . S
C653 N652 1.376 . S
C653 C654 1.446 . S
C653 C676 1.391 . S
C654 C653 1.446 . S
C654 C655 1.339 . S
C654 H683 0.949 . S
C655 C654 1.339 . S
C655 C656 1.439 . S
C655 H684 0.950 . S
C656 N652 1.383 . S
C656 C655 1.439 . S
C656 C674 1.392 . S
N657 Co641 2.282 . S
N657 C660 1.332 . S
N657 C662 1.332 . S
C658 C659 1.386 . S
C658 C661 1.388 . S
C659 C658 1.386 . S
C659 C660 1.382 . S
C659 H685 0.950 . S
C660 N657 1.332 . S
C660 C659 1.382 . S
C660 H671 0.952 . S
C661 C658 1.388 . S
C661 C662 1.382 . S
C661 H686 0.950 . S
C662 N657 1.332 . S
C662 C661 1.382 . S
C662 H672 0.948 . S
N663 Co641 2.282 . S
N663 C667 1.332 . S
N663 C668 1.332 . S
C664 C665 1.388 . S
C664 C668 1.382 . S
C664 H687 0.950 . S
C665 C664 1.388 . S
C665 C666 1.386 . S
C666 C665 1.386 . S
C666 C667 1.382 . S
C666 H688 0.950 . S
C667 N663 1.332 . S
C667 C666 1.382 . S
C667 H669 0.952 . S
C668 N663 1.332 . S
C668 C664 1.382 . S
C668 H670 0.948 . S
H669 C667 0.952 . S
H670 C668 0.948 . S
H671 C660 0.952 . S
H672 C662 0.948 . S
C673 C639 1.395 . S
C673 C643 1.391 . S
C674 C636 1.389 . S
C674 C656 1.392 . S
C675 C646 1.392 . S
C675 C648 1.389 . S
C676 C651 1.395 . S
C676 C653 1.391 . S
H677 C637 0.951 . S
H678 C638 0.950 . S
H679 C644 0.949 . S
H680 C645 0.950 . S
H681 C649 0.951 . S
H682 C650 0.950 . S
H683 C654 0.949 . S
H684 C655 0.950 . S
H685 C659 0.950 . S
H686 C661 0.950 . S
H687 C664 0.950 . S
H688 C666 0.950 . S
C689 C690 1.443 . S
C689 N693 1.376 . S
C689 C727 1.389 . S
C690 C689 1.443 . S
C690 C691 1.340 . S
C690 H730 0.951 . S
C691 C690 1.340 . S
C691 C692 1.439 . S
C691 H731 0.950 . S
C692 C691 1.439 . S
C692 N693 1.374 . S
C692 C726 1.395 . S
N693 C689 1.376 . S
N693 C692 1.374 . S
N693 Co694 2.008 . S
Co694 N693 2.008 . S
Co694 N695 1.995 . S
Co694 N700 2.008 . S
Co694 N705 1.995 . S
Co694 N710 2.282 . S
Co694 N716 2.282 . S
N695 Co694 1.995 . S
N695 C696 1.376 . S
N695 C699 1.383 . S
C696 N695 1.376 . S
C696 C697 1.446 . S
C696 C726 1.391 . S
C697 C696 1.446 . S
C697 C698 1.339 . S
C697 H732 0.949 . S
C698 C697 1.339 . S
C698 C699 1.439 . S
C698 H733 0.950 . S
C699 N695 1.383 . S
C699 C698 1.439 . S
C699 C728 1.392 . S
N700 Co694 2.008 . S
N700 C701 1.376 . S
N700 C704 1.374 . S
C701 N700 1.376 . S
C701 C702 1.443 . S
C701 C728 1.389 . S
C702 C701 1.443 . S
C702 C703 1.340 . S
C702 H734 0.951 . S
C703 C702 1.340 . S
C703 C704 1.439 . S
C703 H735 0.950 . S
C704 N700 1.374 . S
C704 C703 1.439 . S
C704 C729 1.395 . S
N705 Co694 1.995 . S
N705 C706 1.376 . S
N705 C709 1.383 . S
C706 N705 1.376 . S
C706 C707 1.446 . S
C706 C729 1.391 . S
C707 C706 1.446 . S
C707 C708 1.339 . S
C707 H736 0.949 . S
C708 C707 1.339 . S
C708 C709 1.439 . S
C708 H737 0.950 . S
C709 N705 1.383 . S
C709 C708 1.439 . S
C709 C727 1.392 . S
N710 Co694 2.282 . S
N710 C713 1.332 . S
N710 C715 1.332 . S
C711 C712 1.386 . S
C711 C714 1.388 . S
C712 C711 1.386 . S
C712 C713 1.382 . S
C712 H738 0.950 . S
C713 N710 1.332 . S
C713 C712 1.382 . S
C713 H724 0.952 . S
C714 C711 1.388 . S
C714 C715 1.382 . S
C714 H739 0.950 . S
C715 N710 1.332 . S
C715 C714 1.382 . S
C715 H725 0.948 . S
N716 Co694 2.282 . S
N716 C720 1.332 . S
N716 C721 1.332 . S
C717 C718 1.388 . S
C717 C721 1.382 . S
C717 H740 0.950 . S
C718 C717 1.388 . S
C718 C719 1.386 . S
C719 C718 1.386 . S
C719 C720 1.382 . S
C719 H741 0.950 . S
C720 N716 1.332 . S
C720 C719 1.382 . S
C720 H722 0.952 . S
C721 N716 1.332 . S
C721 C717 1.382 . S
C721 H723 0.948 . S
H722 C720 0.952 . S
H723 C721 0.948 . S
H724 C713 0.952 . S
H725 C715 0.948 . S
C726 C692 1.395 . S
C726 C696 1.391 . S
C727 C689 1.389 . S
C727 C709 1.392 . S
C728 C699 1.392 . S
C728 C701 1.389 . S
C729 C704 1.395 . S
C729 C706 1.391 . S
H730 C690 0.951 . S
H731 C691 0.950 . S
H732 C697 0.949 . S
H733 C698 0.950 . S
H734 C702 0.951 . S
H735 C703 0.950 . S
H736 C707 0.949 . S
H737 C708 0.950 . S
H738 C712 0.950 . S
H739 C714 0.950 . S
H740 C717 0.950 . S
H741 C719 0.950 . S
C742 C743 1.443 . S
C742 N746 1.376 . S
C742 C780 1.389 . S
C743 C742 1.443 . S
C743 C744 1.340 . S
C743 H783 0.951 . S
C744 C743 1.340 . S
C744 C745 1.439 . S
C744 H784 0.950 . S
C745 C744 1.439 . S
C745 N746 1.374 . S
C745 C779 1.395 . S
N746 C742 1.376 . S
N746 C745 1.374 . S
N746 Co747 2.008 . S
Co747 N746 2.008 . S
Co747 N748 1.995 . S
Co747 N753 2.008 . S
Co747 N758 1.995 . S
Co747 N763 2.282 . S
Co747 N769 2.282 . S
N748 Co747 1.995 . S
N748 C749 1.376 . S
N748 C752 1.383 . S
C749 N748 1.376 . S
C749 C750 1.446 . S
C749 C779 1.391 . S
C750 C749 1.446 . S
C750 C751 1.339 . S
C750 H785 0.949 . S
C751 C750 1.339 . S
C751 C752 1.439 . S
C751 H786 0.950 . S
C752 N748 1.383 . S
C752 C751 1.439 . S
C752 C781 1.392 . S
N753 Co747 2.008 . S
N753 C754 1.376 . S
N753 C757 1.374 . S
C754 N753 1.376 . S
C754 C755 1.443 . S
C754 C781 1.389 . S
C755 C754 1.443 . S
C755 C756 1.340 . S
C755 H787 0.951 . S
C756 C755 1.340 . S
C756 C757 1.439 . S
C756 H788 0.950 . S
C757 N753 1.374 . S
C757 C756 1.439 . S
C757 C782 1.395 . S
N758 Co747 1.995 . S
N758 C759 1.376 . S
N758 C762 1.383 . S
C759 N758 1.376 . S
C759 C760 1.446 . S
C759 C782 1.391 . S
C760 C759 1.446 . S
C760 C761 1.339 . S
C760 H789 0.949 . S
C761 C760 1.339 . S
C761 C762 1.439 . S
C761 H790 0.950 . S
C762 N758 1.383 . S
C762 C761 1.439 . S
C762 C780 1.392 . S
N763 Co747 2.282 . S
N763 C766 1.332 . S
N763 C768 1.332 . S
C764 C765 1.386 . S
C764 C767 1.388 . S
C765 C764 1.386 . S
C765 C766 1.382 . S
C765 H791 0.950 . S
C766 N763 1.332 . S
C766 C765 1.382 . S
C766 H777 0.952 . S
C767 C764 1.388 . S
C767 C768 1.382 . S
C767 H792 0.950 . S
C768 N763 1.332 . S
C768 C767 1.382 . S
C768 H778 0.948 . S
N769 Co747 2.282 . S
N769 C773 1.332 . S
N769 C774 1.332 . S
C770 C771 1.388 . S
C770 C774 1.382 . S
C770 H793 0.950 . S
C771 C770 1.388 . S
C771 C772 1.386 . S
C772 C771 1.386 . S
C772 C773 1.382 . S
C772 H794 0.950 . S
C773 N769 1.332 . S
C773 C772 1.382 . S
C773 H775 0.952 . S
C774 N769 1.332 . S
C774 C770 1.382 . S
C774 H776 0.948 . S
H775 C773 0.952 . S
H776 C774 0.948 . S
H777 C766 0.952 . S
H778 C768 0.948 . S
C779 C745 1.395 . S
C779 C749 1.391 . S
C780 C742 1.389 . S
C780 C762 1.392 . S
C781 C752 1.392 . S
C781 C754 1.389 . S
C782 C757 1.395 . S
C782 C759 1.391 . S
H783 C743 0.951 . S
H784 C744 0.950 . S
H785 C750 0.949 . S
H786 C751 0.950 . S
H787 C755 0.951 . S
H788 C756 0.950 . S
H789 C760 0.949 . S
H790 C761 0.950 . S
H791 C765 0.950 . S
H792 C767 0.950 . S
H793 C770 0.950 . S
H794 C772 0.950 . S
C795 C796 1.443 . S
C795 N799 1.376 . S
C795 C833 1.389 . S
C796 C795 1.443 . S
C796 C797 1.340 . S
C796 H836 0.951 . S
C797 C796 1.340 . S
C797 C798 1.439 . S
C797 H837 0.950 . S
C798 C797 1.439 . S
C798 N799 1.374 . S
C798 C832 1.395 . S
N799 C795 1.376 . S
N799 C798 1.374 . S
N799 Co800 2.008 . S
Co800 N799 2.008 . S
Co800 N801 1.995 . S
Co800 N806 2.008 . S
Co800 N811 1.995 . S
Co800 N816 2.282 . S
Co800 N822 2.282 . S
N801 Co800 1.995 . S
N801 C802 1.376 . S
N801 C805 1.383 . S
C802 N801 1.376 . S
C802 C803 1.446 . S
C802 C832 1.391 . S
C803 C802 1.446 . S
C803 C804 1.339 . S
C803 H838 0.949 . S
C804 C803 1.339 . S
C804 C805 1.439 . S
C804 H839 0.950 . S
C805 N801 1.383 . S
C805 C804 1.439 . S
C805 C834 1.392 . S
N806 Co800 2.008 . S
N806 C807 1.376 . S
N806 C810 1.374 . S
C807 N806 1.376 . S
C807 C808 1.443 . S
C807 C834 1.389 . S
C808 C807 1.443 . S
C808 C809 1.340 . S
C808 H840 0.951 . S
C809 C808 1.340 . S
C809 C810 1.439 . S
C809 H841 0.950 . S
C810 N806 1.374 . S
C810 C809 1.439 . S
C810 C835 1.395 . S
N811 Co800 1.995 . S
N811 C812 1.376 . S
N811 C815 1.383 . S
C812 N811 1.376 . S
C812 C813 1.446 . S
C812 C835 1.391 . S
C813 C812 1.446 . S
C813 C814 1.339 . S
C813 H842 0.949 . S
C814 C813 1.339 . S
C814 C815 1.439 . S
C814 H843 0.950 . S
C815 N811 1.383 . S
C815 C814 1.439 . S
C815 C833 1.392 . S
N816 Co800 2.282 . S
N816 C819 1.332 . S
N816 C821 1.332 . S
C817 C818 1.386 . S
C817 C820 1.388 . S
C818 C817 1.386 . S
C818 C819 1.382 . S
C818 H844 0.950 . S
C819 N816 1.332 . S
C819 C818 1.382 . S
C819 H830 0.952 . S
C820 C817 1.388 . S
C820 C821 1.382 . S
C820 H845 0.950 . S
C821 N816 1.332 . S
C821 C820 1.382 . S
C821 H831 0.948 . S
N822 Co800 2.282 . S
N822 C826 1.332 . S
N822 C827 1.332 . S
C823 C824 1.388 . S
C823 C827 1.382 . S
C823 H846 0.950 . S
C824 C823 1.388 . S
C824 C825 1.386 . S
C825 C824 1.386 . S
C825 C826 1.382 . S
C825 H847 0.950 . S
C826 N822 1.332 . S
C826 C825 1.382 . S
C826 H828 0.952 . S
C827 N822 1.332 . S
C827 C823 1.382 . S
C827 H829 0.948 . S
H828 C826 0.952 . S
H829 C827 0.948 . S
H830 C819 0.952 . S
H831 C821 0.948 . S
C832 C798 1.395 . S
C832 C802 1.391 . S
C833 C795 1.389 . S
C833 C815 1.392 . S
C834 C805 1.392 . S
C834 C807 1.389 . S
C835 C810 1.395 . S
C835 C812 1.391 . S
H836 C796 0.951 . S
H837 C797 0.950 . S
H838 C803 0.949 . S
H839 C804 0.950 . S
H840 C808 0.951 . S
H841 C809 0.950 . S
H842 C813 0.949 . S
H843 C814 0.950 . S
H844 C818 0.950 . S
H845 C820 0.950 . S
H846 C823 0.950 . S
H847 C825 0.950 . S
H848 C854 0.930 . S
H849 C857 0.930 . S
H850 C858 0.928 1_545 S
H851 C859 0.930 . S
H852 C862 0.930 . S
H853 C863 0.930 . S
C854 H848 0.930 . S
C854 C855 1.355 . S
C854 C856 1.446 . S
C855 C854 1.355 . S
C855 C857 1.419 . S
C856 C854 1.446 . S
C856 C861 1.413 1_565 S
C856 C863 1.390 1_565 S
C857 H849 0.930 . S
C857 C855 1.419 . S
C857 C858 1.362 . S
C858 H850 0.928 1_565 S
C858 C857 1.362 . S
C858 C861 1.409 1_565 S
C859 H851 0.930 . S
C859 C860 1.355 . S
C859 C861 1.415 . S
C860 C859 1.355 . S
C860 C862 1.419 . S
C861 C856 1.413 1_545 S
C861 C858 1.409 1_545 S
C861 C859 1.415 . S
C862 H852 0.930 . S
C862 C860 1.419 . S
C862 C863 1.362 . S
C863 H853 0.930 . S
C863 C856 1.390 1_545 S
C863 C862 1.362 . S
H864 C870 0.930 . S
H865 C873 0.930 . S
H866 C874 0.930 . S
H867 C875 0.930 . S
H868 C878 0.930 . S
H869 C879 0.930 . S
C870 H864 0.930 . S
C870 C871 1.355 . S
C870 C872 1.415 . S
C871 C870 1.355 . S
C871 C873 1.419 . S
C872 C870 1.415 . S
C872 C877 1.429 . S
C872 C879 1.409 1_455 S
C873 H865 0.930 . S
C873 C871 1.419 . S
C873 C874 1.362 . S
C874 H866 0.930 . S
C874 C873 1.362 . S
C874 C877 1.417 . S
C875 H867 0.930 . S
C875 C876 1.355 . S
C875 C877 1.403 1_655 S
C876 C875 1.355 . S
C876 C878 1.419 . S
C877 C872 1.429 . S
C877 C874 1.417 . S
C877 C875 1.403 1_455 S
C878 H868 0.930 . S
C878 C876 1.419 . S
C878 C879 1.362 . S
C879 H869 0.930 . S
C879 C872 1.409 1_655 S
C879 C878 1.362 . S
H880 C886 0.930 . S
H881 C889 0.930 . S
H882 C890 0.930 . S
H883 C891 0.930 . S
H884 C894 0.930 . S
H885 C895 0.930 . S
C886 H880 0.930 . S
C886 C887 1.355 . S
C886 C888 1.415 . S
C887 C886 1.355 . S
C887 C889 1.419 . S
C888 C886 1.415 . S
C888 C893 1.430 . S
C888 C895 1.409 1_565 S
C889 H881 0.930 . S
C889 C887 1.419 . S
C889 C890 1.362 . S
C890 H882 0.930 . S
C890 C889 1.362 . S
C890 C893 1.420 . S
C891 H883 0.930 . S
C891 C892 1.355 . S
C891 C893 1.399 1_545 S
C892 C891 1.355 . S
C892 C894 1.419 . S
C893 C888 1.430 . S
C893 C890 1.420 . S
C893 C891 1.399 1_565 S
C894 H884 0.930 . S
C894 C892 1.419 . S
C894 C895 1.362 . S
C895 H885 0.930 . S
C895 C888 1.409 1_545 S
C895 C894 1.362 . S
H896 C902 0.930 . S
H897 C905 0.930 . S
H898 C906 0.930 . S
H899 C907 0.930 . S
H900 C910 0.930 . S
H901 C911 0.930 . S
C902 H896 0.930 . S
C902 C903 1.355 . S
C902 C904 1.413 . S
C903 C902 1.355 . S
C903 C905 1.419 . S
C904 C902 1.413 . S
C904 C909 1.426 1_455 S
C904 C911 1.410 1_455 S
C905 H897 0.930 . S
C905 C903 1.419 . S
C905 C906 1.362 . S
C906 H898 0.930 . S
C906 C905 1.362 . S
C906 C909 1.409 1_455 S
C907 H899 0.930 . S
C907 C908 1.355 . S
C907 C909 1.415 . S
C908 C907 1.355 . S
C908 C910 1.419 . S
C909 C904 1.426 1_655 S
C909 C906 1.409 1_655 S
C909 C907 1.415 . S
C910 H900 0.930 . S
C910 C908 1.419 . S
C910 C911 1.362 . S
C911 H901 0.930 . S
C911 C904 1.410 1_655 S
C911 C910 1.362 . S
H912 C918 0.930 . S
H913 C921 0.930 . S
H914 C922 0.930 . S
H915 C923 0.930 . S
H916 C926 0.930 1_556 S
H917 C927 0.930 1_556 S
C918 H912 0.930 . S
C918 C919 1.355 . S
C918 C920 1.415 . S
C919 C918 1.355 . S
C919 C921 1.419 . S
C920 C918 1.415 . S
C920 C925 1.425 . S
C920 C927 1.409 . S
C921 H913 0.930 . S
C921 C919 1.419 . S
C921 C922 1.362 . S
C922 H914 0.930 . S
C922 C921 1.362 . S
C922 C925 1.409 . S
C923 H915 0.930 . S
C923 C924 1.355 . S
C923 C925 1.415 . S
C924 C923 1.355 . S
C924 C926 1.419 . S
C925 C920 1.425 . S
C925 C922 1.409 . S
C925 C923 1.415 . S
C926 H916 0.930 1_554 S
C926 C924 1.419 . S
C926 C927 1.362 . S
C927 H917 0.930 1_554 S
C927 C920 1.409 . S
C927 C926 1.362 . S
H928 C934 0.930 . S
H929 C937 0.930 . S
H930 C938 0.930 . S
H931 C939 0.930 . S
H932 C942 0.930 . S
H933 C943 0.930 . S
C934 H928 0.930 . S
C934 C935 1.355 . S
C934 C936 1.415 . S
C935 C934 1.355 . S
C935 C937 1.419 . S
C936 C934 1.415 . S
C936 C941 1.425 . S
C936 C943 1.409 1_556 S
C937 H929 0.930 . S
C937 C935 1.419 . S
C937 C938 1.362 . S
C938 H930 0.930 . S
C938 C937 1.362 . S
C938 C941 1.409 . S
C939 H931 0.930 . S
C939 C940 1.355 . S
C939 C941 1.415 . S
C940 C939 1.355 . S
C940 C942 1.419 1_556 S
C941 C936 1.425 . S
C941 C938 1.409 . S
C941 C939 1.415 . S
C942 H932 0.930 . S
C942 C940 1.419 1_554 S
C942 C943 1.362 . S
C943 H933 0.930 . S
C943 C936 1.409 1_554 S
C943 C942 1.362 . S
H944 C950 0.930 1_556 S
H945 C953 0.930 . S
H946 C954 0.930 . S
H947 C955 0.930 . S
H948 C958 0.930 . S
H949 C959 0.930 1_556 S
C950 H944 0.930 1_554 S
C950 C951 1.355 . S
C950 C952 1.415 . S
C951 C950 1.355 . S
C951 C953 1.419 . S
C952 C950 1.415 . S
C952 C957 1.425 . S
C952 C959 1.409 . S
C953 H945 0.930 . S
C953 C951 1.419 . S
C953 C954 1.362 . S
C954 H946 0.930 . S
C954 C953 1.362 . S
C954 C957 1.409 . S
C955 H947 0.930 . S
C955 C956 1.355 . S
C955 C957 1.415 . S
C956 C955 1.355 . S
C956 C958 1.419 . S
C957 C952 1.425 . S
C957 C954 1.409 . S
C957 C955 1.415 . S
C958 H948 0.930 . S
C958 C956 1.419 . S
C958 C959 1.362 . S
C959 H949 0.930 1_554 S
C959 C952 1.409 . S
C959 C958 1.362 . S
H960 C966 0.930 1_554 S
H961 C969 0.930 . S
H962 C970 0.930 . S
H963 C971 0.930 . S
H964 C974 0.930 . S
H965 C975 0.930 1_554 S
C966 H960 0.930 1_556 S
C966 C967 1.355 . S
C966 C968 1.415 . S
C967 C966 1.355 . S
C967 C969 1.419 . S
C968 C966 1.415 . S
C968 C973 1.425 . S
C968 C975 1.409 . S
C969 H961 0.930 . S
C969 C967 1.419 . S
C969 C970 1.362 . S
C970 H962 0.930 . S
C970 C969 1.362 . S
C970 C973 1.409 . S
C971 H963 0.930 . S
C971 C972 1.355 . S
C971 C973 1.415 . S
C972 C971 1.355 . S
C972 C974 1.419 . S
C973 C968 1.425 . S
C973 C970 1.409 . S
C973 C971 1.415 . S
C974 H964 0.930 . S
C974 C972 1.419 . S
C974 C975 1.362 . S
C975 H965 0.930 1_556 S
C975 C968 1.409 . S
C975 C974 1.362 . S
H976 C982 0.930 . S
H977 C985 0.930 . S
H978 C986 0.930 . S
H979 C987 0.930 . S
H980 C990 0.930 . S
H981 C991 0.930 . S
C982 H976 0.930 . S
C982 C983 1.355 . S
C982 C984 1.415 . S
C983 C982 1.355 . S
C983 C985 1.419 . S
C984 C982 1.415 . S
C984 C989 1.425 . S
C984 C991 1.409 . S
C985 H977 0.930 . S
C985 C983 1.419 . S
C985 C986 1.362 . S
C986 H978 0.930 . S
C986 C985 1.362 . S
C986 C989 1.409 . S
C987 H979 0.930 . S
C987 C988 1.355 . S
C987 C989 1.415 . S
C988 C987 1.355 . S
C988 C990 1.419 . S
C989 C984 1.425 . S
C989 C986 1.409 . S
C989 C987 1.415 . S
C990 H980 0.930 . S
C990 C988 1.419 . S
C990 C991 1.362 . S
C991 H981 0.930 . S
C991 C984 1.409 . S
C991 C990 1.362 . S
H992 C998 0.930 . S
H993 C1001 0.930 . S
H994 C1002 0.930 . S
H995 C1003 0.930 . S
H996 C1006 0.930 . S
H997 C1007 0.930 . S
C998 H992 0.930 . S
C998 C999 1.355 . S
C998 C1000 1.415 . S
C999 C998 1.355 . S
C999 C1001 1.419 . S
C1000 C998 1.415 . S
C1000 C1005 1.425 . S
C1000 C1007 1.409 . S
C1001 H993 0.930 . S
C1001 C999 1.419 . S
C1001 C1002 1.362 . S
C1002 H994 0.930 . S
C1002 C1001 1.362 . S
C1002 C1005 1.409 . S
C1003 H995 0.930 . S
C1003 C1004 1.355 . S
C1003 C1005 1.415 . S
C1004 C1003 1.355 . S
C1004 C1006 1.419 . S
C1005 C1000 1.425 . S
C1005 C1002 1.409 . S
C1005 C1003 1.415 . S
C1006 H996 0.930 . S
C1006 C1004 1.419 . S
C1006 C1007 1.362 . S
C1007 H997 0.930 . S
C1007 C1000 1.409 . S
C1007 C1006 1.362 . S
H1008 C1014 0.930 . S
H1009 C1017 0.930 . S
H1010 C1018 0.930 . S
H1011 C1019 0.930 . S
H1012 C1022 0.930 . S
H1013 C1023 0.930 . S
C1014 H1008 0.930 . S
C1014 C1015 1.355 . S
C1014 C1016 1.415 . S
C1015 C1014 1.355 . S
C1015 C1017 1.419 . S
C1016 C1014 1.415 . S
C1016 C1021 1.425 . S
C1016 C1023 1.409 . S
C1017 H1009 0.930 . S
C1017 C1015 1.419 . S
C1017 C1018 1.362 . S
C1018 H1010 0.930 . S
C1018 C1017 1.362 . S
C1018 C1021 1.409 . S
C1019 H1011 0.930 . S
C1019 C1020 1.355 . S
C1019 C1021 1.415 . S
C1020 C1019 1.355 . S
C1020 C1022 1.419 . S
C1021 C1016 1.425 . S
C1021 C1018 1.409 . S
C1021 C1019 1.415 . S
C1022 H1012 0.930 . S
C1022 C1020 1.419 . S
C1022 C1023 1.362 . S
C1023 H1013 0.930 . S
C1023 C1016 1.409 . S
C1023 C1022 1.362 . S
H1024 C1030 0.930 . S
H1025 C1033 0.930 . S
H1026 C1034 0.930 . S
H1027 C1035 0.930 . S
H1028 C1038 0.930 . S
H1029 C1039 0.930 . S
C1030 H1024 0.930 . S
C1030 C1031 1.355 . S
C1030 C1032 1.415 . S
C1031 C1030 1.355 . S
C1031 C1033 1.419 . S
C1032 C1030 1.415 . S
C1032 C1037 1.425 . S
C1032 C1039 1.409 . S
C1033 H1025 0.930 . S
C1033 C1031 1.419 . S
C1033 C1034 1.362 . S
C1034 H1026 0.930 . S
C1034 C1033 1.362 . S
C1034 C1037 1.409 . S
C1035 H1027 0.930 . S
C1035 C1036 1.355 . S
C1035 C1037 1.415 . S
C1036 C1035 1.355 . S
C1036 C1038 1.419 . S
C1037 C1032 1.425 . S
C1037 C1034 1.409 . S
C1037 C1035 1.415 . S
C1038 H1028 0.930 . S
C1038 C1036 1.419 . S
C1038 C1039 1.362 . S
C1039 H1029 0.930 . S
C1039 C1032 1.409 . S
C1039 C1038 1.362 . S
H1040 C1046 0.930 . S
H1041 C1049 0.930 . S
H1042 C1050 0.930 . S
H1043 C1051 0.930 . S
H1044 C1054 0.930 . S
H1045 C1055 0.930 1_565 S
C1046 H1040 0.930 . S
C1046 C1047 1.355 . S
C1046 C1048 1.415 . S
C1047 C1046 1.355 . S
C1047 C1049 1.419 . S
C1048 C1046 1.415 . S
C1048 C1053 1.425 1_565 S
C1048 C1055 1.409 1_565 S
C1049 H1041 0.930 . S
C1049 C1047 1.419 . S
C1049 C1050 1.362 . S
C1050 H1042 0.930 . S
C1050 C1049 1.362 . S
C1050 C1053 1.409 1_565 S
C1051 H1043 0.930 . S
C1051 C1052 1.355 . S
C1051 C1053 1.415 . S
C1052 C1051 1.355 . S
C1052 C1054 1.419 . S
C1053 C1048 1.425 1_545 S
C1053 C1050 1.409 1_545 S
C1053 C1051 1.415 . S
C1054 H1044 0.930 . S
C1054 C1052 1.419 . S
C1054 C1055 1.362 . S
C1055 H1045 0.930 1_545 S
C1055 C1048 1.409 1_545 S
C1055 C1054 1.362 . S
H1056 C1062 0.930 . S
H1057 C1065 0.930 . S
H1058 C1066 0.930 . S
H1059 C1067 0.930 . S
H1060 C1070 0.930 . S
H1061 C1071 0.930 . S
C1062 H1056 0.930 . S
C1062 C1063 1.355 . S
C1062 C1064 1.415 . S
C1063 C1062 1.355 . S
C1063 C1065 1.419 . S
C1064 C1062 1.415 . S
C1064 C1069 1.425 . S
C1064 C1071 1.409 1_655 S
C1065 H1057 0.930 . S
C1065 C1063 1.419 . S
C1065 C1066 1.362 . S
C1066 H1058 0.930 . S
C1066 C1065 1.362 . S
C1066 C1069 1.409 . S
C1067 H1059 0.930 . S
C1067 C1068 1.355 . S
C1067 C1069 1.415 1_455 S
C1068 C1067 1.355 . S
C1068 C1070 1.419 . S
C1069 C1064 1.425 . S
C1069 C1066 1.409 . S
C1069 C1067 1.415 1_655 S
C1070 H1060 0.930 . S
C1070 C1068 1.419 . S
C1070 C1071 1.362 . S
C1071 H1061 0.930 . S
C1071 C1064 1.409 1_455 S
C1071 C1070 1.362 . S
H1072 C1078 0.930 . S
H1073 C1081 0.930 . S
H1074 C1082 0.930 1_545 S
H1075 C1083 0.930 . S
H1076 C1086 0.930 . S
H1077 C1087 0.930 . S
C1078 H1072 0.930 . S
C1078 C1079 1.355 . S
C1078 C1080 1.467 . S
C1079 C1078 1.355 . S
C1079 C1081 1.419 . S
C1080 C1078 1.467 . S
C1080 C1085 1.404 1_565 S
C1080 C1087 1.379 1_565 S
C1081 H1073 0.930 . S
C1081 C1079 1.419 . S
C1081 C1082 1.362 . S
C1082 H1074 0.930 1_565 S
C1082 C1081 1.362 . S
C1082 C1085 1.409 1_565 S
C1083 H1075 0.930 . S
C1083 C1084 1.355 . S
C1083 C1085 1.415 . S
C1084 C1083 1.355 . S
C1084 C1086 1.419 . S
C1085 C1080 1.404 1_545 S
C1085 C1082 1.409 1_545 S
C1085 C1083 1.415 . S
C1086 H1076 0.930 . S
C1086 C1084 1.419 . S
C1086 C1087 1.362 . S
C1087 H1077 0.930 . S
C1087 C1080 1.379 1_545 S
C1087 C1086 1.362 . S
H1088 C1094 0.930 . S
H1089 C1097 0.930 . S
H1090 C1098 0.930 . S
H1091 C1099 0.930 . S
H1092 C1102 0.930 . S
H1093 C1103 0.930 . S
C1094 H1088 0.930 . S
C1094 C1095 1.355 . S
C1094 C1096 1.415 1_655 S
C1095 C1094 1.355 . S
C1095 C1097 1.419 . S
C1096 C1094 1.415 1_455 S
C1096 C1101 1.425 . S
C1096 C1103 1.409 . S
C1097 H1089 0.930 . S
C1097 C1095 1.419 . S
C1097 C1098 1.362 . S
C1098 H1090 0.930 . S
C1098 C1097 1.362 . S
C1098 C1101 1.409 1_655 S
C1099 H1091 0.930 . S
C1099 C1100 1.355 . S
C1099 C1101 1.415 . S
C1100 C1099 1.355 . S
C1100 C1102 1.419 . S
C1101 C1096 1.425 . S
C1101 C1098 1.409 1_455 S
C1101 C1099 1.415 . S
C1102 H1092 0.930 . S
C1102 C1100 1.419 . S
C1102 C1103 1.362 . S
C1103 H1093 0.930 . S
C1103 C1096 1.409 . S
C1103 C1102 1.362 . S
H1104 C1110 0.930 . S
H1105 C1113 0.930 . S
H1106 C1114 0.930 . S
H1107 C1115 0.930 . S
H1108 C1118 0.930 . S
H1109 C1119 0.930 . S
C1110 H1104 0.930 . S
C1110 C1111 1.355 . S
C1110 C1112 1.415 . S
C1111 C1110 1.355 . S
C1111 C1113 1.419 . S
C1112 C1110 1.415 . S
C1112 C1117 1.425 . S
C1112 C1119 1.409 . S
C1113 H1105 0.930 . S
C1113 C1111 1.419 . S
C1113 C1114 1.362 . S
C1114 H1106 0.930 . S
C1114 C1113 1.362 . S
C1114 C1117 1.409 . S
C1115 H1107 0.930 . S
C1115 C1116 1.355 . S
C1115 C1117 1.415 . S
C1116 C1115 1.355 . S
C1116 C1118 1.419 . S
C1117 C1112 1.425 . S
C1117 C1114 1.409 . S
C1117 C1115 1.415 . S
C1118 H1108 0.930 . S
C1118 C1116 1.419 . S
C1118 C1119 1.362 . S
C1119 H1109 0.930 . S
C1119 C1112 1.409 . S
C1119 C1118 1.362 . S
H1120 C1126 0.930 . S
H1121 C1129 0.930 . S
H1122 C1130 0.930 . S
H1123 C1131 0.930 . S
H1124 C1134 0.930 . S
H1125 C1135 0.930 . S
C1126 H1120 0.930 . S
C1126 C1127 1.355 . S
C1126 C1128 1.415 . S
C1127 C1126 1.355 . S
C1127 C1129 1.419 . S
C1128 C1126 1.415 . S
C1128 C1133 1.425 . S
C1128 C1135 1.409 . S
C1129 H1121 0.930 . S
C1129 C1127 1.419 . S
C1129 C1130 1.362 . S
C1130 H1122 0.930 . S
C1130 C1129 1.362 . S
C1130 C1133 1.409 . S
C1131 H1123 0.930 . S
C1131 C1132 1.355 . S
C1131 C1133 1.415 . S
C1132 C1131 1.355 . S
C1132 C1134 1.419 . S
C1133 C1128 1.425 . S
C1133 C1130 1.409 . S
C1133 C1131 1.415 . S
C1134 H1124 0.930 . S
C1134 C1132 1.419 . S
C1134 C1135 1.362 . S
C1135 H1125 0.930 . S
C1135 C1128 1.409 . S
C1135 C1134 1.362 . S
H1136 C1142 0.930 . S
H1137 C1145 0.930 . S
H1138 C1146 0.930 . S
H1139 C1147 0.930 . S
H1140 C1150 0.930 . S
H1141 C1151 0.930 . S
C1142 H1136 0.930 . S
C1142 C1143 1.355 . S
C1142 C1144 1.415 . S
C1143 C1142 1.355 . S
C1143 C1145 1.419 . S
C1144 C1142 1.415 . S
C1144 C1149 1.425 . S
C1144 C1151 1.409 . S
C1145 H1137 0.930 . S
C1145 C1143 1.419 . S
C1145 C1146 1.362 . S
C1146 H1138 0.930 . S
C1146 C1145 1.362 . S
C1146 C1149 1.409 . S
C1147 H1139 0.930 . S
C1147 C1148 1.355 . S
C1147 C1149 1.415 . S
C1148 C1147 1.355 . S
C1148 C1150 1.419 . S
C1149 C1144 1.425 . S
C1149 C1146 1.409 . S
C1149 C1147 1.415 . S
C1150 H1140 0.930 . S
C1150 C1148 1.419 . S
C1150 C1151 1.362 . S
C1151 H1141 0.930 . S
C1151 C1144 1.409 . S
C1151 C1150 1.362 . S
H1152 C1158 0.930 . S
H1153 C1161 0.930 . S
H1154 C1162 0.930 . S
H1155 C1163 0.930 . S
H1156 C1166 0.930 . S
H1157 C1167 0.930 . S
C1158 H1152 0.930 . S
C1158 C1159 1.355 . S
C1158 C1160 1.415 . S
C1159 C1158 1.355 . S
C1159 C1161 1.419 . S
C1160 C1158 1.415 . S
C1160 C1165 1.425 . S
C1160 C1167 1.409 . S
C1161 H1153 0.930 . S
C1161 C1159 1.419 . S
C1161 C1162 1.362 . S
C1162 H1154 0.930 . S
C1162 C1161 1.362 . S
C1162 C1165 1.409 . S
C1163 H1155 0.930 . S
C1163 C1164 1.355 . S
C1163 C1165 1.415 . S
C1164 C1163 1.355 . S
C1164 C1166 1.419 . S
C1165 C1160 1.425 . S
C1165 C1162 1.409 . S
C1165 C1163 1.415 . S
C1166 H1156 0.930 . S
C1166 C1164 1.419 . S
C1166 C1167 1.362 . S
C1167 H1157 0.930 . S
C1167 C1160 1.409 . S
C1167 C1166 1.362 . S
H1168 C1174 0.930 . S
H1169 C1177 0.930 . S
H1170 C1178 0.930 . S
H1171 C1179 0.930 . S
H1172 C1182 0.930 . S
H1173 C1183 0.930 . S
C1174 H1168 0.930 . S
C1174 C1175 1.355 . S
C1174 C1176 1.415 . S
C1175 C1174 1.355 . S
C1175 C1177 1.419 . S
C1176 C1174 1.415 . S
C1176 C1181 1.425 . S
C1176 C1183 1.409 . S
C1177 H1169 0.930 . S
C1177 C1175 1.419 . S
C1177 C1178 1.362 . S
C1178 H1170 0.930 . S
C1178 C1177 1.362 . S
C1178 C1181 1.409 . S
C1179 H1171 0.930 . S
C1179 C1180 1.355 . S
C1179 C1181 1.415 . S
C1180 C1179 1.355 . S
C1180 C1182 1.419 . S
C1181 C1176 1.425 . S
C1181 C1178 1.409 . S
C1181 C1179 1.415 . S
C1182 H1172 0.930 . S
C1182 C1180 1.419 . S
C1182 C1183 1.362 . S
C1183 H1173 0.930 . S
C1183 C1176 1.409 . S
C1183 C1182 1.362 . S
H1184 C1190 0.930 . S
H1185 C1193 0.930 . S
H1186 C1194 0.930 . S
H1187 C1195 0.930 . S
H1188 C1198 0.930 . S
H1189 C1199 0.930 . S
C1190 H1184 0.930 . S
C1190 C1191 1.355 . S
C1190 C1192 1.415 . S
C1191 C1190 1.355 . S
C1191 C1193 1.419 . S
C1192 C1190 1.415 . S
C1192 C1197 1.425 . S
C1192 C1199 1.409 . S
C1193 H1185 0.930 . S
C1193 C1191 1.419 . S
C1193 C1194 1.362 . S
C1194 H1186 0.930 . S
C1194 C1193 1.362 . S
C1194 C1197 1.409 . S
C1195 H1187 0.930 . S
C1195 C1196 1.355 . S
C1195 C1197 1.415 . S
C1196 C1195 1.355 . S
C1196 C1198 1.419 . S
C1197 C1192 1.425 . S
C1197 C1194 1.409 . S
C1197 C1195 1.415 . S
C1198 H1188 0.930 . S
C1198 C1196 1.419 . S
C1198 C1199 1.362 . S
C1199 H1189 0.930 . S
C1199 C1192 1.409 . S
C1199 C1198 1.362 . S
H1200 C1206 0.930 . S
H1201 C1209 0.930 . S
H1202 C1210 0.930 . S
H1203 C1211 0.930 . S
H1204 C1214 0.930 . S
H1205 C1215 0.930 . S
C1206 H1200 0.930 . S
C1206 C1207 1.355 . S
C1206 C1208 1.415 . S
C1207 C1206 1.355 . S
C1207 C1209 1.419 . S
C1208 C1206 1.415 . S
C1208 C1213 1.425 . S
C1208 C1215 1.409 . S
C1209 H1201 0.930 . S
C1209 C1207 1.419 . S
C1209 C1210 1.362 . S
C1210 H1202 0.930 . S
C1210 C1209 1.362 . S
C1210 C1213 1.409 . S
C1211 H1203 0.930 . S
C1211 C1212 1.355 . S
C1211 C1213 1.415 . S
C1212 C1211 1.355 . S
C1212 C1214 1.419 . S
C1213 C1208 1.425 . S
C1213 C1210 1.409 . S
C1213 C1211 1.415 . S
C1214 H1204 0.930 . S
C1214 C1212 1.419 . S
C1214 C1215 1.362 . S
C1215 H1205 0.930 . S
C1215 C1208 1.409 . S
C1215 C1214 1.362 . S
H1216 C1222 0.930 . S
H1217 C1225 0.930 . S
H1218 C1226 0.930 . S
H1219 C1227 0.930 . S
H1220 C1230 0.930 . S
H1221 C1231 0.930 . S
C1222 H1216 0.930 . S
C1222 C1223 1.355 . S
C1222 C1224 1.415 . S
C1223 C1222 1.355 . S
C1223 C1225 1.419 . S
C1224 C1222 1.415 . S
C1224 C1229 1.425 . S
C1224 C1231 1.409 . S
C1225 H1217 0.930 . S
C1225 C1223 1.419 . S
C1225 C1226 1.362 . S
C1226 H1218 0.930 . S
C1226 C1225 1.362 . S
C1226 C1229 1.409 . S
C1227 H1219 0.930 . S
C1227 C1228 1.355 . S
C1227 C1229 1.415 . S
C1228 C1227 1.355 . S
C1228 C1230 1.419 . S
C1229 C1224 1.425 . S
C1229 C1226 1.409 . S
C1229 C1227 1.415 . S
C1230 H1220 0.930 . S
C1230 C1228 1.419 . S
C1230 C1231 1.362 . S
C1231 H1221 0.930 . S
C1231 C1224 1.409 . S
C1231 C1230 1.362 . S
H1232 C1238 0.930 . S
H1233 C1241 0.930 . S
H1234 C1242 0.930 . S
H1235 C1243 0.930 . S
H1236 C1246 0.930 . S
H1237 C1247 0.930 . S
C1238 H1232 0.930 . S
C1238 C1239 1.355 . S
C1238 C1240 1.415 . S
C1239 C1238 1.355 . S
C1239 C1241 1.419 . S
C1240 C1238 1.415 . S
C1240 C1245 1.425 . S
C1240 C1247 1.409 . S
C1241 H1233 0.930 . S
C1241 C1239 1.419 . S
C1241 C1242 1.362 . S
C1242 H1234 0.930 . S
C1242 C1241 1.362 . S
C1242 C1245 1.409 . S
C1243 H1235 0.930 . S
C1243 C1244 1.355 . S
C1243 C1245 1.415 . S
C1244 C1243 1.355 . S
C1244 C1246 1.419 . S
C1245 C1240 1.425 . S
C1245 C1242 1.409 . S
C1245 C1243 1.415 . S
C1246 H1236 0.930 . S
C1246 C1244 1.419 . S
C1246 C1247 1.362 . S
C1247 H1237 0.930 . S
C1247 C1240 1.409 . S
C1247 C1246 1.362 . S
H1248 C1254 0.930 . S
H1249 C1257 0.930 . S
H1250 C1258 0.930 . S
H1251 C1259 0.930 . S
H1252 C1262 0.930 . S
H1253 C1263 0.930 . S
C1254 H1248 0.930 . S
C1254 C1255 1.355 . S
C1254 C1256 1.415 . S
C1255 C1254 1.355 . S
C1255 C1257 1.419 . S
C1256 C1254 1.415 . S
C1256 C1261 1.425 . S
C1256 C1263 1.409 . S
C1257 H1249 0.930 . S
C1257 C1255 1.419 . S
C1257 C1258 1.362 . S
C1258 H1250 0.930 . S
C1258 C1257 1.362 . S
C1258 C1261 1.409 . S
C1259 H1251 0.930 . S
C1259 C1260 1.355 . S
C1259 C1261 1.415 . S
C1260 C1259 1.355 . S
C1260 C1262 1.419 . S
C1261 C1256 1.425 . S
C1261 C1258 1.409 . S
C1261 C1259 1.415 . S
C1262 H1252 0.930 . S
C1262 C1260 1.419 . S
C1262 C1263 1.362 . S
C1263 H1253 0.930 . S
C1263 C1256 1.409 . S
C1263 C1262 1.362 . S
H1264 C1270 0.930 . S
H1265 C1273 0.930 1_554 S
H1266 C1274 0.930 . S
H1267 C1275 0.930 . S
H1268 C1278 0.930 . S
H1269 C1279 0.930 . S
C1270 H1264 0.930 . S
C1270 C1271 1.355 . S
C1270 C1272 1.415 . S
C1271 C1270 1.355 . S
C1271 C1273 1.419 . S
C1272 C1270 1.415 . S
C1272 C1277 1.425 . S
C1272 C1279 1.409 . S
C1273 H1265 0.930 1_556 S
C1273 C1271 1.419 . S
C1273 C1274 1.362 . S
C1274 H1266 0.930 . S
C1274 C1273 1.362 . S
C1274 C1277 1.409 . S
C1275 H1267 0.930 . S
C1275 C1276 1.355 . S
C1275 C1277 1.415 . S
C1276 C1275 1.355 . S
C1276 C1278 1.419 . S
C1277 C1272 1.425 . S
C1277 C1274 1.409 . S
C1277 C1275 1.415 . S
C1278 H1268 0.930 . S
C1278 C1276 1.419 . S
C1278 C1279 1.362 . S
C1279 H1269 0.930 . S
C1279 C1272 1.409 . S
C1279 C1278 1.362 . S
H1280 C1286 0.930 . S
H1281 C1289 0.930 . S
H1282 C1290 0.930 . S
H1283 C1291 0.930 . S
H1284 C1294 0.930 . S
H1285 C1295 0.930 . S
C1286 H1280 0.930 . S
C1286 C1287 1.355 . S
C1286 C1288 1.415 . S
C1287 C1286 1.355 . S
C1287 C1289 1.419 . S
C1288 C1286 1.415 . S
C1288 C1293 1.425 . S
C1288 C1295 1.409 . S
C1289 H1281 0.930 . S
C1289 C1287 1.419 . S
C1289 C1290 1.362 . S
C1290 H1282 0.930 . S
C1290 C1289 1.362 . S
C1290 C1293 1.409 . S
C1291 H1283 0.930 . S
C1291 C1292 1.355 . S
C1291 C1293 1.415 . S
C1292 C1291 1.355 . S
C1292 C1294 1.419 . S
C1293 C1288 1.425 . S
C1293 C1290 1.409 . S
C1293 C1291 1.415 . S
C1294 H1284 0.930 . S
C1294 C1292 1.419 . S
C1294 C1295 1.362 . S
C1295 H1285 0.930 . S
C1295 C1288 1.409 . S
C1295 C1294 1.362 . S
H1296 C1302 0.930 . S
H1297 C1305 0.930 . S
H1298 C1306 0.930 . S
H1299 C1307 0.930 . S
H1300 C1310 0.930 . S
H1301 C1311 0.930 . S
C1302 H1296 0.930 . S
C1302 C1303 1.355 . S
C1302 C1304 1.415 . S
C1303 C1302 1.355 . S
C1303 C1305 1.419 . S
C1304 C1302 1.415 . S
C1304 C1309 1.425 . S
C1304 C1311 1.409 . S
C1305 H1297 0.930 . S
C1305 C1303 1.419 . S
C1305 C1306 1.362 . S
C1306 H1298 0.930 . S
C1306 C1305 1.362 . S
C1306 C1309 1.409 . S
C1307 H1299 0.930 . S
C1307 C1308 1.355 . S
C1307 C1309 1.415 . S
C1308 C1307 1.355 . S
C1308 C1310 1.419 . S
C1309 C1304 1.425 . S
C1309 C1306 1.409 . S
C1309 C1307 1.415 . S
C1310 H1300 0.930 . S
C1310 C1308 1.419 . S
C1310 C1311 1.362 . S
C1311 H1301 0.930 . S
C1311 C1304 1.409 . S
C1311 C1310 1.362 . S
H1312 C1318 0.930 . S
H1313 C1321 0.930 . S
H1314 C1322 0.930 . S
H1315 C1323 0.930 . S
H1316 C1326 0.930 . S
H1317 C1327 0.930 . S
C1318 H1312 0.930 . S
C1318 C1319 1.355 . S
C1318 C1320 1.415 . S
C1319 C1318 1.355 . S
C1319 C1321 1.419 . S
C1320 C1318 1.415 . S
C1320 C1325 1.425 . S
C1320 C1327 1.409 . S
C1321 H1313 0.930 . S
C1321 C1319 1.419 . S
C1321 C1322 1.362 . S
C1322 H1314 0.930 . S
C1322 C1321 1.362 . S
C1322 C1325 1.409 . S
C1323 H1315 0.930 . S
C1323 C1324 1.355 . S
C1323 C1325 1.415 . S
C1324 C1323 1.355 . S
C1324 C1326 1.419 . S
C1325 C1320 1.425 . S
C1325 C1322 1.409 . S
C1325 C1323 1.415 . S
C1326 H1316 0.930 . S
C1326 C1324 1.419 . S
C1326 C1327 1.362 . S
C1327 H1317 0.930 . S
C1327 C1320 1.409 . S
C1327 C1326 1.362 . S
H1328 C1334 0.930 . S
H1329 C1337 0.930 . S
H1330 C1338 0.930 . S
H1331 C1339 0.930 . S
H1332 C1342 0.930 . S
H1333 C1343 0.930 . S
C1334 H1328 0.930 . S
C1334 C1335 1.355 . S
C1334 C1336 1.415 . S
C1335 C1334 1.355 . S
C1335 C1337 1.419 . S
C1336 C1334 1.415 . S
C1336 C1341 1.425 . S
C1336 C1343 1.409 . S
C1337 H1329 0.930 . S
C1337 C1335 1.419 . S
C1337 C1338 1.362 . S
C1338 H1330 0.930 . S
C1338 C1337 1.362 . S
C1338 C1341 1.409 . S
C1339 H1331 0.930 . S
C1339 C1340 1.355 . S
C1339 C1341 1.415 . S
C1340 C1339 1.355 . S
C1340 C1342 1.419 . S
C1341 C1336 1.425 . S
C1341 C1338 1.409 . S
C1341 C1339 1.415 . S
C1342 H1332 0.930 . S
C1342 C1340 1.419 . S
C1342 C1343 1.362 . S
C1343 H1333 0.930 . S
C1343 C1336 1.409 . S
C1343 C1342 1.362 . S
H1344 C1350 0.930 . S
H1345 C1353 0.930 . S
H1346 C1354 0.930 . S
H1347 C1355 0.930 . S
H1348 C1358 0.930 . S
H1349 C1359 0.930 . S
C1350 H1344 0.930 . S
C1350 C1351 1.355 . S
C1350 C1352 1.415 . S
C1351 C1350 1.355 . S
C1351 C1353 1.419 . S
C1352 C1350 1.415 . S
C1352 C1357 1.425 . S
C1352 C1359 1.409 . S
C1353 H1345 0.930 . S
C1353 C1351 1.419 . S
C1353 C1354 1.362 . S
C1354 H1346 0.930 . S
C1354 C1353 1.362 . S
C1354 C1357 1.409 . S
C1355 H1347 0.930 . S
C1355 C1356 1.355 . S
C1355 C1357 1.415 . S
C1356 C1355 1.355 . S
C1356 C1358 1.419 . S
C1357 C1352 1.425 . S
C1357 C1354 1.409 . S
C1357 C1355 1.415 . S
C1358 H1348 0.930 . S
C1358 C1356 1.419 . S
C1358 C1359 1.362 . S
C1359 H1349 0.930 . S
C1359 C1352 1.409 . S
C1359 C1358 1.362 . S
C855 C612 1.677 . S
C860 C38 1.737 . S
C871 C91 1.737 . S
C876 C453 1.673 . S
C887 C144 1.734 . S
C892 C506 1.718 . S
C903 C559 1.683 . S
C908 C197 1.741 . S
C919 C250 1.731 . S
C924 C294 1.695 . S
C935 C303 1.734 . S
C940 C347 1.670 . S
C951 C400 1.699 . S
C956 C356 1.745 . S
C967 C241 1.711 . S
C972 C409 1.745 . S
C983 C188 1.679 . S
C988 C462 1.739 . S
C999 C515 1.741 . S
C1004 C29 1.683 . S
C1015 C82 1.680 . S
C1020 C568 1.734 . S
C1031 C621 1.730 . S
C1036 C135 1.694 . S
C1047 C674 1.736 . S
C1052 C718 1.677 . S
C1063 C727 1.745 . S
C1068 C771 1.703 . S
C1079 C824 1.718 . S
C1084 C780 1.734 . S
C1095 C665 1.716 . S
C1100 C833 1.745 . S
C1111 C251 1.473 . S
C1116 C39 1.451 . S
C1127 C92 1.447 . S
C1132 C304 1.429 . S
C1143 C145 1.431 . S
C1148 C357 1.449 . S
C1159 C410 1.420 . S
C1164 C198 1.426 . S
C1175 C463 1.461 . S
C1180 C675 1.439 . S
C1191 C728 1.423 . S
C1196 C516 1.420 . S
C1207 C569 1.434 . S
C1212 C781 1.454 . S
C1223 C834 1.475 . S
C1228 C622 1.483 . S
C1239 C764 2.078 . S
C1244 C22 2.078 1_556 S
C1255 C817 2.081 . S
C1260 C75 2.072 1_554 S
C1271 C128 2.123 1_556 S
C1276 C658 2.118 . S
C1287 C711 2.067 . S
C1292 C181 2.069 1_554 S
C1303 C552 2.124 . S
C1308 C234 2.121 . S
C1319 C605 2.112 . S
C1324 C287 2.116 . S
C1335 C340 2.118 . S
C1340 C446 2.123 . S
C1351 C499 2.092 . S
C1356 C393 2.080 . S
