# Generated by pormake.
# Topology ulh, (4)-cn, num edge types: 1
# Building blocks:
#     Node 0, Type 0, BuildingBlock: ESEHIV_clean_sbu_0, # of connection points: 4
#     Node 1, Type 0, BuildingBlock: ESEHIV_clean_sbu_0, # of connection points: 4
#     Node 2, Type 0, BuildingBlock: ESEHIV_clean_sbu_0, # of connection points: 4
#     Node 3, Type 0, BuildingBlock: ESEHIV_clean_sbu_0, # of connection points: 4
#     Node 4, Type 0, BuildingBlock: ESEHIV_clean_sbu_0, # of connection points: 4
#     Node 5, Type 0, BuildingBlock: ESEHIV_clean_sbu_0, # of connection points: 4
#     Node 6, Type 0, BuildingBlock: ESEHIV_clean_sbu_0, # of connection points: 4
#     Node 7, Type 0, BuildingBlock: ESEHIV_clean_sbu_0, # of connection points: 4
#     Node 8, Type 0, BuildingBlock: ESEHIV_clean_sbu_0, # of connection points: 4
#     Node 9, Type 0, BuildingBlock: ESEHIV_clean_sbu_0, # of connection points: 4
#     Node 10, Type 0, BuildingBlock: ESEHIV_clean_sbu_0, # of connection points: 4
#     Node 11, Type 0, BuildingBlock: ESEHIV_clean_sbu_0, # of connection points: 4
#     Node 12, Type 0, BuildingBlock: ESEHIV_clean_sbu_0, # of connection points: 4
#     Node 13, Type 0, BuildingBlock: ESEHIV_clean_sbu_0, # of connection points: 4
#     Node 14, Type 0, BuildingBlock: ESEHIV_clean_sbu_0, # of connection points: 4
#     Node 15, Type 0, BuildingBlock: ESEHIV_clean_sbu_0, # of connection points: 4
#     Node 16, Type 0, BuildingBlock: ESEHIV_clean_sbu_0, # of connection points: 4
#     Node 17, Type 0, BuildingBlock: ESEHIV_clean_sbu_0, # of connection points: 4
#     Node 18, Type 0, BuildingBlock: ESEHIV_clean_sbu_0, # of connection points: 4
#     Node 19, Type 0, BuildingBlock: ESEHIV_clean_sbu_0, # of connection points: 4
#     Node 20, Type 0, BuildingBlock: ESEHIV_clean_sbu_0, # of connection points: 4
#     Node 21, Type 0, BuildingBlock: ESEHIV_clean_sbu_0, # of connection points: 4
#     Node 22, Type 0, BuildingBlock: ESEHIV_clean_sbu_0, # of connection points: 4
#     Node 23, Type 0, BuildingBlock: ESEHIV_clean_sbu_0, # of connection points: 4
#     Node 24, Type 0, BuildingBlock: ESEHIV_clean_sbu_0, # of connection points: 4
#     Node 25, Type 0, BuildingBlock: ESEHIV_clean_sbu_0, # of connection points: 4
#     Node 26, Type 0, BuildingBlock: ESEHIV_clean_sbu_0, # of connection points: 4
#     Node 27, Type 0, BuildingBlock: ESEHIV_clean_sbu_0, # of connection points: 4
#     Node 28, Type 0, BuildingBlock: ESEHIV_clean_sbu_0, # of connection points: 4
#     Node 29, Type 0, BuildingBlock: ESEHIV_clean_sbu_0, # of connection points: 4
#     Node 30, Type 0, BuildingBlock: ESEHIV_clean_sbu_0, # of connection points: 4
#     Node 31, Type 0, BuildingBlock: ESEHIV_clean_sbu_0, # of connection points: 4
#     Node 32, Type 0, BuildingBlock: ESEHIV_clean_sbu_0, # of connection points: 4
#     Node 33, Type 0, BuildingBlock: ESEHIV_clean_sbu_0, # of connection points: 4
#     Node 34, Type 0, BuildingBlock: ESEHIV_clean_sbu_0, # of connection points: 4
#     Node 35, Type 0, BuildingBlock: ESEHIV_clean_sbu_0, # of connection points: 4
#     Node 36, Type 0, BuildingBlock: ESEHIV_clean_sbu_0, # of connection points: 4
#     Node 37, Type 0, BuildingBlock: ESEHIV_clean_sbu_0, # of connection points: 4
#     Node 38, Type 0, BuildingBlock: ESEHIV_clean_sbu_0, # of connection points: 4
#     Node 39, Type 0, BuildingBlock: ESEHIV_clean_sbu_0, # of connection points: 4
#     Node 40, Type 0, BuildingBlock: ESEHIV_clean_sbu_0, # of connection points: 4
#     Node 41, Type 0, BuildingBlock: ESEHIV_clean_sbu_0, # of connection points: 4
#     Node 42, Type 0, BuildingBlock: ESEHIV_clean_sbu_0, # of connection points: 4
#     Node 43, Type 0, BuildingBlock: ESEHIV_clean_sbu_0, # of connection points: 4
#     Node 44, Type 0, BuildingBlock: ESEHIV_clean_sbu_0, # of connection points: 4
#     Node 45, Type 0, BuildingBlock: ESEHIV_clean_sbu_0, # of connection points: 4
#     Node 46, Type 0, BuildingBlock: ESEHIV_clean_sbu_0, # of connection points: 4
#     Node 47, Type 0, BuildingBlock: ESEHIV_clean_sbu_0, # of connection points: 4
#     Node 48, Type 0, BuildingBlock: ESEHIV_clean_sbu_0, # of connection points: 4
#     Node 49, Type 0, BuildingBlock: ESEHIV_clean_sbu_0, # of connection points: 4
#     Node 50, Type 0, BuildingBlock: ESEHIV_clean_sbu_0, # of connection points: 4
#     Node 51, Type 0, BuildingBlock: ESEHIV_clean_sbu_0, # of connection points: 4
#     Node 52, Type 0, BuildingBlock: ESEHIV_clean_sbu_0, # of connection points: 4
#     Node 53, Type 0, BuildingBlock: ESEHIV_clean_sbu_0, # of connection points: 4
#     Node 54, Type 0, BuildingBlock: ESEHIV_clean_sbu_0, # of connection points: 4
#     Node 55, Type 0, BuildingBlock: ESEHIV_clean_sbu_0, # of connection points: 4
#     Node 56, Type 0, BuildingBlock: ESEHIV_clean_sbu_0, # of connection points: 4
#     Node 57, Type 0, BuildingBlock: ESEHIV_clean_sbu_0, # of connection points: 4
#     Node 58, Type 0, BuildingBlock: ESEHIV_clean_sbu_0, # of connection points: 4
#     Node 59, Type 0, BuildingBlock: ESEHIV_clean_sbu_0, # of connection points: 4
#     Node 60, Type 0, BuildingBlock: ESEHIV_clean_sbu_0, # of connection points: 4
#     Node 61, Type 0, BuildingBlock: ESEHIV_clean_sbu_0, # of connection points: 4
#     Node 62, Type 0, BuildingBlock: ESEHIV_clean_sbu_0, # of connection points: 4
#     Node 63, Type 0, BuildingBlock: ESEHIV_clean_sbu_0, # of connection points: 4
#     Node 64, Type 0, BuildingBlock: ESEHIV_clean_sbu_0, # of connection points: 4
#     Node 65, Type 0, BuildingBlock: ESEHIV_clean_sbu_0, # of connection points: 4
#     Node 66, Type 0, BuildingBlock: ESEHIV_clean_sbu_0, # of connection points: 4
#     Node 67, Type 0, BuildingBlock: ESEHIV_clean_sbu_0, # of connection points: 4
#     Node 68, Type 0, BuildingBlock: ESEHIV_clean_sbu_0, # of connection points: 4
#     Node 69, Type 0, BuildingBlock: ESEHIV_clean_sbu_0, # of connection points: 4
#     Node 70, Type 0, BuildingBlock: ESEHIV_clean_sbu_0, # of connection points: 4
#     Node 71, Type 0, BuildingBlock: ESEHIV_clean_sbu_0, # of connection points: 4
#     Node 72, Type 0, BuildingBlock: ESEHIV_clean_sbu_0, # of connection points: 4
#     Node 73, Type 0, BuildingBlock: ESEHIV_clean_sbu_0, # of connection points: 4
#     Node 74, Type 0, BuildingBlock: ESEHIV_clean_sbu_0, # of connection points: 4
#     Node 75, Type 0, BuildingBlock: ESEHIV_clean_sbu_0, # of connection points: 4
#     Node 76, Type 0, BuildingBlock: ESEHIV_clean_sbu_0, # of connection points: 4
#     Node 77, Type 0, BuildingBlock: ESEHIV_clean_sbu_0, # of connection points: 4
#     Node 78, Type 0, BuildingBlock: ESEHIV_clean_sbu_0, # of connection points: 4
#     Node 79, Type 0, BuildingBlock: ESEHIV_clean_sbu_0, # of connection points: 4
#     Node 80, Type 0, BuildingBlock: ESEHIV_clean_sbu_0, # of connection points: 4
#     Node 81, Type 0, BuildingBlock: ESEHIV_clean_sbu_0, # of connection points: 4
#     Node 82, Type 0, BuildingBlock: ESEHIV_clean_sbu_0, # of connection points: 4
#     Node 83, Type 0, BuildingBlock: ESEHIV_clean_sbu_0, # of connection points: 4
#     Node 84, Type 0, BuildingBlock: ESEHIV_clean_sbu_0, # of connection points: 4
#     Node 85, Type 0, BuildingBlock: ESEHIV_clean_sbu_0, # of connection points: 4
#     Node 86, Type 0, BuildingBlock: ESEHIV_clean_sbu_0, # of connection points: 4
#     Node 87, Type 0, BuildingBlock: ESEHIV_clean_sbu_0, # of connection points: 4
#     Node 88, Type 0, BuildingBlock: ESEHIV_clean_sbu_0, # of connection points: 4
#     Node 89, Type 0, BuildingBlock: ESEHIV_clean_sbu_0, # of connection points: 4
#     Node 90, Type 0, BuildingBlock: ESEHIV_clean_sbu_0, # of connection points: 4
#     Node 91, Type 0, BuildingBlock: ESEHIV_clean_sbu_0, # of connection points: 4
#     Node 92, Type 0, BuildingBlock: ESEHIV_clean_sbu_0, # of connection points: 4
#     Node 93, Type 0, BuildingBlock: ESEHIV_clean_sbu_0, # of connection points: 4
#     Node 94, Type 0, BuildingBlock: ESEHIV_clean_sbu_0, # of connection points: 4
#     Node 95, Type 0, BuildingBlock: ESEHIV_clean_sbu_0, # of connection points: 4
#     Edge 96, Type (0, 0), None
#     Edge 97, Type (0, 0), None
#     Edge 98, Type (0, 0), None
#     Edge 99, Type (0, 0), None
#     Edge 100, Type (0, 0), None
#     Edge 101, Type (0, 0), None
#     Edge 102, Type (0, 0), None
#     Edge 103, Type (0, 0), None
#     Edge 104, Type (0, 0), None
#     Edge 105, Type (0, 0), None
#     Edge 106, Type (0, 0), None
#     Edge 107, Type (0, 0), None
#     Edge 108, Type (0, 0), None
#     Edge 109, Type (0, 0), None
#     Edge 110, Type (0, 0), None
#     Edge 111, Type (0, 0), None
#     Edge 112, Type (0, 0), None
#     Edge 113, Type (0, 0), None
#     Edge 114, Type (0, 0), None
#     Edge 115, Type (0, 0), None
#     Edge 116, Type (0, 0), None
#     Edge 117, Type (0, 0), None
#     Edge 118, Type (0, 0), None
#     Edge 119, Type (0, 0), None
#     Edge 120, Type (0, 0), None
#     Edge 121, Type (0, 0), None
#     Edge 122, Type (0, 0), None
#     Edge 123, Type (0, 0), None
#     Edge 124, Type (0, 0), None
#     Edge 125, Type (0, 0), None
#     Edge 126, Type (0, 0), None
#     Edge 127, Type (0, 0), None
#     Edge 128, Type (0, 0), None
#     Edge 129, Type (0, 0), None
#     Edge 130, Type (0, 0), None
#     Edge 131, Type (0, 0), None
#     Edge 132, Type (0, 0), None
#     Edge 133, Type (0, 0), None
#     Edge 134, Type (0, 0), None
#     Edge 135, Type (0, 0), None
#     Edge 136, Type (0, 0), None
#     Edge 137, Type (0, 0), None
#     Edge 138, Type (0, 0), None
#     Edge 139, Type (0, 0), None
#     Edge 140, Type (0, 0), None
#     Edge 141, Type (0, 0), None
#     Edge 142, Type (0, 0), None
#     Edge 143, Type (0, 0), None
#     Edge 144, Type (0, 0), None
#     Edge 145, Type (0, 0), None
#     Edge 146, Type (0, 0), None
#     Edge 147, Type (0, 0), None
#     Edge 148, Type (0, 0), None
#     Edge 149, Type (0, 0), None
#     Edge 150, Type (0, 0), None
#     Edge 151, Type (0, 0), None
#     Edge 152, Type (0, 0), None
#     Edge 153, Type (0, 0), None
#     Edge 154, Type (0, 0), None
#     Edge 155, Type (0, 0), None
#     Edge 156, Type (0, 0), None
#     Edge 157, Type (0, 0), None
#     Edge 158, Type (0, 0), None
#     Edge 159, Type (0, 0), None
#     Edge 160, Type (0, 0), None
#     Edge 161, Type (0, 0), None
#     Edge 162, Type (0, 0), None
#     Edge 163, Type (0, 0), None
#     Edge 164, Type (0, 0), None
#     Edge 165, Type (0, 0), None
#     Edge 166, Type (0, 0), None
#     Edge 167, Type (0, 0), None
#     Edge 168, Type (0, 0), None
#     Edge 169, Type (0, 0), None
#     Edge 170, Type (0, 0), None
#     Edge 171, Type (0, 0), None
#     Edge 172, Type (0, 0), None
#     Edge 173, Type (0, 0), None
#     Edge 174, Type (0, 0), None
#     Edge 175, Type (0, 0), None
#     Edge 176, Type (0, 0), None
#     Edge 177, Type (0, 0), None
#     Edge 178, Type (0, 0), None
#     Edge 179, Type (0, 0), None
#     Edge 180, Type (0, 0), None
#     Edge 181, Type (0, 0), None
#     Edge 182, Type (0, 0), None
#     Edge 183, Type (0, 0), None
#     Edge 184, Type (0, 0), None
#     Edge 185, Type (0, 0), None
#     Edge 186, Type (0, 0), None
#     Edge 187, Type (0, 0), None
#     Edge 188, Type (0, 0), None
#     Edge 189, Type (0, 0), None
#     Edge 190, Type (0, 0), None
#     Edge 191, Type (0, 0), None
#     Edge 192, Type (0, 0), None
#     Edge 193, Type (0, 0), None
#     Edge 194, Type (0, 0), None
#     Edge 195, Type (0, 0), None
#     Edge 196, Type (0, 0), None
#     Edge 197, Type (0, 0), None
#     Edge 198, Type (0, 0), None
#     Edge 199, Type (0, 0), None
#     Edge 200, Type (0, 0), None
#     Edge 201, Type (0, 0), None
#     Edge 202, Type (0, 0), None
#     Edge 203, Type (0, 0), None
#     Edge 204, Type (0, 0), None
#     Edge 205, Type (0, 0), None
#     Edge 206, Type (0, 0), None
#     Edge 207, Type (0, 0), None
#     Edge 208, Type (0, 0), None
#     Edge 209, Type (0, 0), None
#     Edge 210, Type (0, 0), None
#     Edge 211, Type (0, 0), None
#     Edge 212, Type (0, 0), None
#     Edge 213, Type (0, 0), None
#     Edge 214, Type (0, 0), None
#     Edge 215, Type (0, 0), None
#     Edge 216, Type (0, 0), None
#     Edge 217, Type (0, 0), None
#     Edge 218, Type (0, 0), None
#     Edge 219, Type (0, 0), None
#     Edge 220, Type (0, 0), None
#     Edge 221, Type (0, 0), None
#     Edge 222, Type (0, 0), None
#     Edge 223, Type (0, 0), None
#     Edge 224, Type (0, 0), None
#     Edge 225, Type (0, 0), None
#     Edge 226, Type (0, 0), None
#     Edge 227, Type (0, 0), None
#     Edge 228, Type (0, 0), None
#     Edge 229, Type (0, 0), None
#     Edge 230, Type (0, 0), None
#     Edge 231, Type (0, 0), None
#     Edge 232, Type (0, 0), None
#     Edge 233, Type (0, 0), None
#     Edge 234, Type (0, 0), None
#     Edge 235, Type (0, 0), None
#     Edge 236, Type (0, 0), None
#     Edge 237, Type (0, 0), None
#     Edge 238, Type (0, 0), None
#     Edge 239, Type (0, 0), None
#     Edge 240, Type (0, 0), None
#     Edge 241, Type (0, 0), None
#     Edge 242, Type (0, 0), None
#     Edge 243, Type (0, 0), None
#     Edge 244, Type (0, 0), None
#     Edge 245, Type (0, 0), None
#     Edge 246, Type (0, 0), None
#     Edge 247, Type (0, 0), None
#     Edge 248, Type (0, 0), None
#     Edge 249, Type (0, 0), None
#     Edge 250, Type (0, 0), None
#     Edge 251, Type (0, 0), None
#     Edge 252, Type (0, 0), None
#     Edge 253, Type (0, 0), None
#     Edge 254, Type (0, 0), None
#     Edge 255, Type (0, 0), None
#     Edge 256, Type (0, 0), None
#     Edge 257, Type (0, 0), None
#     Edge 258, Type (0, 0), None
#     Edge 259, Type (0, 0), None
#     Edge 260, Type (0, 0), None
#     Edge 261, Type (0, 0), None
#     Edge 262, Type (0, 0), None
#     Edge 263, Type (0, 0), None
#     Edge 264, Type (0, 0), None
#     Edge 265, Type (0, 0), None
#     Edge 266, Type (0, 0), None
#     Edge 267, Type (0, 0), None
#     Edge 268, Type (0, 0), None
#     Edge 269, Type (0, 0), None
#     Edge 270, Type (0, 0), None
#     Edge 271, Type (0, 0), None
#     Edge 272, Type (0, 0), None
#     Edge 273, Type (0, 0), None
#     Edge 274, Type (0, 0), None
#     Edge 275, Type (0, 0), None
#     Edge 276, Type (0, 0), None
#     Edge 277, Type (0, 0), None
#     Edge 278, Type (0, 0), None
#     Edge 279, Type (0, 0), None
#     Edge 280, Type (0, 0), None
#     Edge 281, Type (0, 0), None
#     Edge 282, Type (0, 0), None
#     Edge 283, Type (0, 0), None
#     Edge 284, Type (0, 0), None
#     Edge 285, Type (0, 0), None
#     Edge 286, Type (0, 0), None
#     Edge 287, Type (0, 0), None
# Relax obj value: 0.115
# Max RMSD: 0.207
# Mean RMSD: 0.207
data_MOF--net-ulh--node1-ESEHIV_clean_sbu_0--edge1-none
_symmetry_space_group_name_H-M    P1
_symmetry_Int_Tables_number       1
_symmetry_cell_setting            triclinic
loop_
_symmetry_equiv_pos_as_xyz
'x, y, z'
_cell_length_a     45.287216
_cell_length_b     45.289322
_cell_length_c     45.289527
_cell_angle_alpha  90.002402
_cell_angle_beta   90.001217
_cell_angle_gamma 89.998538
loop_
_atom_site_label
_atom_site_type_symbol
_atom_site_fract_x
_atom_site_fract_y
_atom_site_fract_z
_atom_type_partial_charge
Cu0 Cu 0.05818 0.35743 0.09473 0.0
N1 N 0.09589 0.35894 0.07763 0.0
N2 N 0.13756 0.37767 0.0588 0.0
C3 C 0.11197 0.38362 0.07294 0.0
C4 C 0.13755 0.34818 0.05438 0.0
C5 C 0.11174 0.33673 0.06582 0.0
O6 O 0.05798 0.39058 0.12275 0.0
C7 C 0.03556 0.36255 0.03493 0.0
O8 O 0.06328 0.36291 0.02658 0.0
H9 H 0.10506 0.40544 0.07987 0.0
H10 H 0.10481 0.31389 0.06518 0.0
N11 N 0.05275 0.32144 0.11563 0.0
N12 N 0.03391 0.28396 0.14201 0.0
C13 C 0.02781 0.30904 0.12687 0.0
C14 C 0.07486 0.30346 0.12423 0.0
C15 C 0.06334 0.28024 0.14011 0.0
C16 C 0.05235 0.3881 0.15027 0.0
O17 O 0.04174 0.36313 0.16047 0.0
H18 H 1.0059 0.31817 0.12411 0.0
H19 H 0.09799 0.30725 0.11975 0.0
O20 O 0.029 0.36106 0.06246 0.0
H21 H 0.15493 0.33577 0.04362 0.0
H22 H 0.07564 0.26225 0.14992 0.0
Cu23 Cu 0.94044 0.30832 0.34522 0.0
N24 N 0.93902 0.34607 0.3282 0.0
N25 N 0.92039 0.38782 0.30945 0.0
C26 C 0.91436 0.36213 0.32338 0.0
C27 C 0.94992 0.38789 0.3053 0.0
C28 C 0.96131 0.36203 0.31669 0.0
O29 O 0.90735 0.30824 0.37332 0.0
C30 C 0.9357 0.28579 0.28538 0.0
O31 O 0.93659 0.31349 0.27702 0.0
H32 H 0.89249 0.35515 0.33009 0.0
H33 H 0.98417 0.35516 0.31621 0.0
N34 N 0.97645 0.3027 0.36604 0.0
N35 N 1.01394 0.28368 0.39228 0.0
C36 C 0.98886 0.27768 0.3771 0.0
C37 C 0.99441 0.32475 0.37482 0.0
C38 C 1.01764 0.31312 0.39061 0.0
C39 C 0.90992 0.30284 0.40088 0.0
O40 O 0.93496 0.29242 0.4111 0.0
H41 H 0.97974 0.25579 0.37418 0.0
H42 H 0.9906 0.34791 0.37054 0.0
O43 O 0.93648 0.2792 0.31293 0.0
H44 H 0.96239 0.40536 0.29477 0.0
H45 H 0.03563 0.32535 0.4005 0.0
Cu46 Cu 0.98976 0.19038 0.59492 0.0
N47 N 0.95206 0.18886 0.57779 0.0
N48 N 0.9104 0.17013 0.55895 0.0
C49 C 0.93596 0.16418 0.57313 0.0
C50 C 0.91043 0.19961 0.55448 0.0
C51 C 0.93624 0.21106 0.56593 0.0
O52 O 0.98993 0.15727 0.62298 0.0
C53 C 1.01244 0.18517 0.53517 0.0
O54 O 0.98474 0.18484 0.52678 0.0
H55 H 0.94286 0.14237 0.58009 0.0
H56 H 0.94318 0.23389 0.56525 0.0
N57 N 0.9952 0.2264 0.61576 0.0
N58 N 1.01406 0.26392 0.64206 0.0
C59 C 1.02014 0.2388 0.62699 0.0
C60 C 0.9731 0.24442 0.62431 0.0
C61 C 0.98464 0.26767 0.64015 0.0
C62 C 0.99551 0.15979 0.65051 0.0
O63 O 1.00608 0.18478 0.6607 0.0
H64 H 0.04205 0.22964 0.62427 0.0
H65 H 0.94997 0.24065 0.61982 0.0
O66 O 1.01897 0.18668 0.5627 0.0
H67 H 0.89307 0.21201 0.54368 0.0
H68 H 0.97235 0.28569 0.64991 0.0
Cu69 Cu 0.10782 0.23933 0.84503 0.0
N70 N 0.10925 0.20159 0.82798 0.0
N71 N 0.12787 0.15984 0.80922 0.0
C72 C 0.13391 0.18552 0.82316 0.0
C73 C 0.09835 0.15978 0.80507 0.0
C74 C 0.08696 0.18563 0.81647 0.0
O75 O 0.14085 0.23939 0.87319 0.0
C76 C 0.11247 0.26192 0.78523 0.0
O77 O 0.11124 0.23424 0.77683 0.0
H78 H 0.15578 0.19249 0.82988 0.0
H79 H 0.0641 0.1925 0.816 0.0
N80 N 0.07177 0.24498 0.86579 0.0
N81 N 0.03426 0.26402 0.89198 0.0
C82 C 0.05937 0.27 0.87684 0.0
C83 C 0.05377 0.22294 0.87453 0.0
C84 C 0.03052 0.23459 0.89028 0.0
C85 C 0.13821 0.24464 0.90077 0.0
O86 O 0.11311 0.2549 0.91101 0.0
H87 H 0.06852 0.29188 0.87395 0.0
H88 H 0.05756 0.19977 0.87024 0.0
O89 O 0.11187 0.26847 0.81279 0.0
H90 H 0.08587 0.14231 0.79454 0.0
H91 H 1.0125 0.22237 0.90013 0.0
Cu92 Cu 0.05826 0.68999 0.95198 0.0
N93 N 0.09604 0.68849 0.96896 0.0
N94 N 0.13779 0.66977 0.98762 0.0
C95 C 0.11199 0.66377 0.97389 0.0
C96 C 0.13804 0.69932 0.99154 0.0
C97 C 0.11219 0.71077 0.9802 0.0
O98 O 0.05816 0.65698 0.92381 0.0
C99 C 0.03574 0.68571 1.01181 0.0
O100 O 0.06338 0.68772 1.02018 0.0
H101 H 0.10486 0.6419 0.96736 0.0
H102 H 0.10546 0.73368 0.98051 0.0
N103 N 0.0526 0.72603 0.93122 0.0
N104 N 0.03355 0.76357 0.90508 0.0
C105 C 0.02756 0.73852 0.92032 0.0
C106 C 0.07467 0.7439 0.92227 0.0
C107 C 0.06301 0.76717 0.90655 0.0
C108 C 0.05262 0.65956 0.89628 0.0
O109 O 0.04207 0.68457 0.88613 0.0
H110 H 1.00565 0.7295 0.9234 0.0
H111 H 0.09784 0.74 0.92638 0.0
O112 O 0.02917 0.68583 0.98425 0.0
H113 H 0.15565 0.71179 1.00186 0.0
H114 H 0.07524 0.78511 0.89658 0.0
Cu115 Cu 0.6081 0.30863 0.2029 0.0
N116 N 0.60958 0.34644 0.21982 0.0
N117 N 0.62823 0.38826 0.23838 0.0
C118 C 0.63427 0.36243 0.22473 0.0
C119 C 0.59868 0.38849 0.24228 0.0
C120 C 0.58727 0.3626 0.231 0.0
O121 O 0.64104 0.30854 0.17465 0.0
C122 C 0.61214 0.28618 0.26276 0.0
O123 O 0.60937 0.31377 0.27109 0.0
H124 H 0.65616 0.35531 0.21823 0.0
H125 H 0.56436 0.35586 0.23131 0.0
N126 N 0.57201 0.30284 0.18226 0.0
N127 N 0.53449 0.28365 0.15619 0.0
C128 C 0.55959 0.27775 0.17138 0.0
C129 C 0.55404 0.32484 0.17334 0.0
C130 C 0.53078 0.31309 0.15768 0.0
C131 C 0.63834 0.30323 0.14708 0.0
O132 O 0.61322 0.29294 0.13692 0.0
H133 H 0.56872 0.25588 0.17442 0.0
H134 H 0.55787 0.34803 0.17743 0.0
O135 O 0.61247 0.2796 0.2352 0.0
H136 H 0.58618 0.40612 0.25253 0.0
H137 H 0.51277 0.32526 0.14774 0.0
Cu138 Cu 0.98959 0.85782 0.45218 0.0
N139 N 0.95181 0.85931 0.46913 0.0
N140 N 0.91006 0.87803 0.4878 0.0
C141 C 0.93586 0.88403 0.47408 0.0
C142 C 0.90979 0.84847 0.49169 0.0
C143 C 0.93564 0.83702 0.48034 0.0
O144 O 0.98972 0.89086 0.42405 0.0
C145 C 1.01206 0.86203 0.51205 0.0
O146 O 0.9844 0.86007 0.52038 0.0
H147 H 0.943 0.90591 0.46758 0.0
H148 H 0.94236 0.81411 0.48063 0.0
N149 N 0.99523 0.8218 0.43136 0.0
N150 N 1.01426 0.7843 0.40514 0.0
C151 C 1.02027 0.80931 0.42043 0.0
C152 C 0.97315 0.80396 0.42238 0.0
C153 C 0.98479 0.78071 0.40661 0.0
C154 C 0.99527 0.8883 0.39652 0.0
O155 O 1.00582 0.8633 0.38635 0.0
H156 H 0.04218 0.81831 0.42353 0.0
H157 H 0.94998 0.80787 0.42649 0.0
O158 O 1.01866 0.86191 0.48449 0.0
H159 H 0.89217 0.836 0.50198 0.0
H160 H 0.97255 0.7628 0.39661 0.0
Cu161 Cu 0.44014 0.23941 0.70272 0.0
N162 N 0.43869 0.2016 0.7196 0.0
N163 N 0.42002 0.15977 0.73814 0.0
C164 C 0.41399 0.18561 0.72451 0.0
C165 C 0.44958 0.15953 0.74204 0.0
C166 C 0.461 0.18542 0.73077 0.0
O167 O 0.40715 0.23952 0.67452 0.0
C168 C 0.43602 0.26179 0.76262 0.0
O169 O 0.43845 0.23417 0.77092 0.0
H170 H 0.3921 0.19274 0.71801 0.0
H171 H 0.4839 0.19217 0.73109 0.0
N172 N 0.4762 0.24517 0.68201 0.0
N173 N 0.5137 0.26433 0.65588 0.0
C174 C 0.48863 0.27025 0.67111 0.0
C175 C 0.49412 0.22316 0.67304 0.0
C176 C 0.51737 0.23487 0.65734 0.0
C177 C 0.40978 0.24499 0.64698 0.0
O178 O 0.43483 0.25546 0.63684 0.0
H179 H 0.47954 0.29213 0.67418 0.0
H180 H 0.49027 0.19997 0.67712 0.0
O181 O 0.43588 0.26841 0.73507 0.0
H182 H 0.46207 0.14189 0.75228 0.0
H183 H 0.53534 0.22269 0.64735 0.0
Cu184 Cu 0.09515 0.058 0.35746 0.0
N185 N 0.07826 0.0958 0.35895 0.0
N186 N 0.05967 0.13758 0.37768 0.0
C187 C 0.07347 0.11182 0.38365 0.0
C188 C 0.05556 0.13776 0.34815 0.0
C189 C 0.06686 0.11189 0.3367 0.0
O190 O 0.12328 0.05777 0.3905 0.0
C191 C 0.03524 0.03565 0.36198 0.0
O192 O 0.02695 0.06335 0.36062 0.0
H193 H 0.08012 0.10474 0.40551 0.0
H194 H 0.06639 0.10509 0.31381 0.0
N195 N 0.1159 0.05232 0.32142 0.0
N196 N 0.14206 0.03321 0.28393 0.0
C197 C 0.12689 0.02727 0.30902 0.0
C198 C 0.12472 0.07434 0.30343 0.0
C199 C 0.14045 0.06264 0.28019 0.0
C200 C 0.15082 0.05224 0.38791 0.0
O201 O 0.16098 0.0418 0.36285 0.0
H202 H 0.12393 1.00539 0.31816 0.0
H203 H 0.1205 0.09751 0.30723 0.0
O204 O 0.06278 0.02899 0.36148 0.0
H205 H 0.04513 0.15532 0.33571 0.0
H206 H 0.15036 0.07483 0.26218 0.0
Cu207 Cu 0.23967 0.34459 0.60744 0.0
N208 N 0.20193 0.32756 0.60905 0.0
N209 N 0.16023 0.30889 0.62788 0.0
C210 C 0.18591 0.32289 0.63377 0.0
C211 C 0.16012 0.30454 0.59839 0.0
C212 C 0.18594 0.31588 0.58687 0.0
O213 O 0.23993 0.37273 0.64048 0.0
C214 C 0.26227 0.28478 0.61225 0.0
O215 O 0.23457 0.27639 0.61164 0.0
H216 H 0.19293 0.32975 0.65558 0.0
H217 H 0.19278 0.31526 0.564 0.0
N218 N 0.24516 0.36533 0.57138 0.0
N219 N 0.26408 0.39156 0.53384 0.0
C220 C 0.27012 0.37649 0.55897 0.0
C221 C 0.22307 0.37393 0.55336 0.0
C222 C 0.23465 0.38972 0.53009 0.0
C223 C 0.2456 0.40024 0.63791 0.0
O224 O 0.25615 0.41036 0.61289 0.0
H225 H 0.29202 0.37374 0.56814 0.0
H226 H 0.19993 0.36953 0.55715 0.0
O227 O 0.26883 0.31233 0.61131 0.0
H228 H 0.14263 0.29391 0.58601 0.0
H229 H 0.22239 0.39951 0.51208 0.0
Cu230 Cu 0.95294 0.48964 0.85703 0.0
N231 N 0.9699 0.45186 0.85859 0.0
N232 N 0.98857 0.41015 0.87738 0.0
C233 C 0.97464 0.43586 0.8833 0.0
C234 C 0.99282 0.41 0.84787 0.0
C235 C 0.98147 0.43583 0.83638 0.0
O236 O 0.92476 0.48989 0.89005 0.0
C237 C 1.01279 0.51211 0.8617 0.0
O238 O 1.02114 0.48442 0.86057 0.0
H239 H 0.96787 0.4429 0.90513 0.0
H240 H 0.98204 0.44265 0.8135 0.0
N241 N 0.93225 0.49528 0.82094 0.0
N242 N 0.90604 0.51435 0.78346 0.0
C243 C 0.9211 0.5203 0.80863 0.0
C244 C 0.92366 0.47327 0.80283 0.0
C245 C 0.90789 0.48494 0.7796 0.0
C246 C 0.89718 0.49512 0.88736 0.0
O247 O 0.88695 0.50517 0.86218 0.0
H248 H 0.92383 0.54215 0.81789 0.0
H249 H 0.92803 0.45011 0.80654 0.0
O250 O 0.98524 0.51872 0.86105 0.0
H251 H 1.00339 0.3925 0.83547 0.0
H252 H 0.8981 0.47275 0.76153 0.0
Cu253 Cu 0.80829 0.20338 0.10756 0.0
N254 N 0.84605 0.22036 0.10917 0.0
N255 N 0.88776 0.23901 0.12798 0.0
C256 C 0.86209 0.22499 0.13388 0.0
C257 C 0.88785 0.24341 0.0985 0.0
C258 C 0.86201 0.23208 0.08699 0.0
O259 O 0.808 0.17523 0.14061 0.0
C260 C 0.78578 0.26322 0.11243 0.0
O261 O 0.8135 0.27157 0.11201 0.0
H262 H 0.8551 0.2181 0.15569 0.0
H263 H 0.85515 0.23275 0.06413 0.0
N264 N 0.80278 0.18263 0.07149 0.0
N265 N 0.78385 0.15637 0.03398 0.0
C266 C 0.77781 0.17144 0.05911 0.0
C267 C 0.82485 0.17407 0.05344 0.0
C268 C 0.81326 0.15826 0.03019 0.0
C269 C 0.80246 0.1477 0.13799 0.0
O270 O 0.79205 0.13756 0.11293 0.0
H271 H 0.75593 0.17415 0.06832 0.0
H272 H 0.84799 0.1785 0.0572 0.0
O273 O 0.77918 0.23568 0.11139 0.0
H274 H 0.90531 0.25407 0.08612 0.0
H275 H 0.82552 0.14848 1.01216 0.0
Cu276 Cu 0.0948 0.98935 0.68986 0.0
N277 N 0.0777 0.95164 0.68822 0.0
N278 N 0.05898 0.90996 0.66939 0.0
C279 C 0.073 0.93563 0.66349 0.0
C280 C 0.05463 0.90985 0.69888 0.0
C281 C 0.06601 0.93566 0.7104 0.0
O282 O 0.12303 0.98952 0.65689 0.0
C283 C 0.03504 1.01207 0.68516 0.0
O284 O 0.02658 0.98441 0.68613 0.0
H285 H 0.07988 0.94263 0.64168 0.0
H286 H 0.06541 0.94249 0.73327 0.0
N287 N 0.11549 0.99481 0.72598 0.0
N288 N 0.14171 1.01367 0.76358 0.0
C289 C 0.12666 1.01976 0.73844 0.0
C290 C 0.12405 0.9727 0.74398 0.0
C291 C 0.13983 0.98424 0.76727 0.0
C292 C 0.15058 0.9949 0.65957 0.0
O293 O 0.16074 1.00522 0.68468 0.0
H294 H 0.12395 0.04166 0.72929 0.0
H295 H 0.11965 0.94957 0.74015 0.0
O296 O 0.06261 1.01857 0.68589 0.0
H297 H 0.04399 0.89238 0.71126 0.0
H298 H 0.1496 0.97193 0.78528 0.0
Cu299 Cu 0.30826 0.34439 0.94013 0.0
N300 N 0.34601 0.32736 0.93857 0.0
N301 N 0.38772 0.30864 0.91982 0.0
C302 C 0.3621 0.32273 0.91388 0.0
C303 C 0.38773 0.30419 0.9493 0.0
C304 C 0.36189 0.31557 0.96076 0.0
O305 O 0.30804 0.37254 0.90709 0.0
C306 C 0.28572 0.28455 0.93515 0.0
O307 O 0.31344 0.2762 0.9354 0.0
H308 H 0.35517 0.32966 0.89207 0.0
H309 H 0.35497 0.31488 0.9836 0.0
N310 N 0.30273 0.36513 0.97621 0.0
N311 N 0.2838 0.39142 1.01372 0.0
C312 C 0.27777 0.37637 0.98857 0.0
C313 C 0.3248 0.37366 0.99428 0.0
C314 C 0.31322 0.38948 1.01752 0.0
C315 C 0.30273 0.40012 0.90975 0.0
O316 O 0.2925 0.41031 0.93487 0.0
H317 H 0.25588 0.37368 0.97936 0.0
H318 H 0.34793 0.36919 0.99054 0.0
O319 O 0.27914 0.31209 0.9363 0.0
H320 H 0.40513 0.29347 0.9617 0.0
H321 H 0.32548 0.39923 0.03557 0.0
Cu322 Cu 0.95288 0.55829 0.1894 0.0
N323 N 0.9699 0.59604 0.18784 0.0
N324 N 0.98853 0.63779 0.1691 0.0
C325 C 0.97468 0.61205 0.16313 0.0
C326 C 0.99268 0.63795 0.19862 0.0
C327 C 0.98136 0.6121 0.21008 0.0
O328 O 0.92469 0.55815 0.1564 0.0
C329 C 1.01271 0.53571 0.18491 0.0
O330 O 1.02111 0.56338 0.1863 0.0
H331 H 0.96797 0.605 0.14128 0.0
H332 H 0.98182 0.6053 0.23296 0.0
N333 N 0.93212 0.55276 0.22546 0.0
N334 N 0.90595 0.53385 0.26305 0.0
C335 C 0.92114 0.52777 0.23799 0.0
C336 C 0.92329 0.57487 0.24332 0.0
C337 C 0.90755 0.5633 0.26662 0.0
C338 C 0.89719 0.55248 0.15898 0.0
O339 O 0.8871 0.54177 0.18395 0.0
H340 H 0.92412 0.50584 0.22898 0.0
H341 H 0.9275 0.59803 0.2394 0.0
O342 O 0.98515 0.52915 0.18538 0.0
H343 H 1.00314 0.65549 0.21105 0.0
H344 H 0.89764 0.5756 0.28456 0.0
Cu345 Cu 0.73971 0.20334 0.44023 0.0
N346 N 0.70198 0.22041 0.43866 0.0
N347 N 0.66028 0.23916 0.4199 0.0
C348 C 0.68591 0.22507 0.41397 0.0
C349 C 0.66025 0.24357 0.44938 0.0
C350 C 0.68608 0.23218 0.46086 0.0
O351 O 0.73989 0.17518 0.4072 0.0
C352 C 0.76233 0.26313 0.43529 0.0
O353 O 0.73463 0.27153 0.43568 0.0
H354 H 0.69285 0.21816 0.39215 0.0
H355 H 0.69297 0.23283 0.48371 0.0
N356 N 0.74521 0.1826 0.47631 0.0
N357 N 0.76412 0.15635 0.51385 0.0
C358 C 0.77017 0.1714 0.4887 0.0
C359 C 0.72313 0.17405 0.49436 0.0
C360 C 0.7347 0.15826 0.51762 0.0
C361 C 0.74531 0.14763 0.40983 0.0
O362 O 0.75567 0.13745 0.43491 0.0
H363 H 0.79206 0.1741 0.47951 0.0
H364 H 0.69999 0.1785 0.49059 0.0
O365 O 0.76888 0.23558 0.43637 0.0
H366 H 0.64283 0.25428 0.46179 0.0
H367 H 0.72243 0.1485 0.53565 0.0
Cu368 Cu 0.35787 0.09486 0.05867 0.0
N369 N 0.3593 0.07794 0.09648 0.0
N370 N 0.37791 0.05939 0.13833 0.0
C371 C 0.38397 0.07311 0.11254 0.0
C372 C 0.34837 0.05537 0.13847 0.0
C373 C 0.33699 0.06664 0.11256 0.0
O374 O 0.39082 0.12311 0.05859 0.0
C375 C 0.3621 0.03497 0.03625 0.0
O376 O 0.3597 0.02664 0.06387 0.0
H377 H 0.40585 0.07971 0.10549 0.0
H378 H 0.31411 0.06623 0.10574 0.0
N379 N 0.32177 0.11547 0.05285 0.0
N380 N 0.28426 0.14153 0.03362 0.0
C381 C 0.30942 0.12642 0.02776 0.0
C382 C 0.30371 0.12427 0.07481 0.0
C383 C 0.28046 0.13994 0.06305 0.0
C384 C 0.38805 0.15072 0.05355 0.0
O385 O 0.36284 0.16095 0.04356 0.0
H386 H 0.31862 0.12348 1.0059 0.0
H387 H 0.30746 0.12011 0.098 0.0
O388 O 0.36221 0.06253 0.02966 0.0
H389 H 0.33587 0.04502 0.15603 0.0
H390 H 0.26239 0.14981 0.07519 0.0
Cu391 Cu 0.85769 0.95305 0.48947 0.0
N392 N 0.85918 0.97004 0.45169 0.0
N393 N 0.87787 0.98871 0.40993 0.0
C394 C 0.88386 0.9748 0.43563 0.0
C395 C 0.84835 0.99292 0.40985 0.0
C396 C 0.83693 0.98158 0.43571 0.0
O397 O 0.89067 0.92482 0.48959 0.0
C398 C 0.8623 1.01291 0.51196 0.0
O399 O 0.86089 1.02127 0.48429 0.0
H400 H 0.90572 0.96805 0.44263 0.0
H401 H 0.81406 0.98211 0.44257 0.0
N402 N 0.82158 0.9324 0.49514 0.0
N403 N 0.78405 0.90624 0.5142 0.0
C404 C 0.80921 0.92131 0.52016 0.0
C405 C 0.80353 0.92373 0.47311 0.0
C406 C 0.78027 0.908 0.48477 0.0
C407 C 0.88791 0.89721 0.49463 0.0
O408 O 0.86269 0.88698 0.50461 0.0
H409 H 0.81841 0.92412 0.54203 0.0
H410 H 0.8073 0.92803 0.44995 0.0
O411 O 0.86181 0.98535 0.51855 0.0
H412 H 0.8359 1.00346 0.39236 0.0
H413 H 0.76223 0.89819 0.47255 0.0
Cu414 Cu 0.34506 0.10732 0.73966 0.0
N415 N 0.32815 0.10878 0.70186 0.0
N416 N 0.30953 0.12747 0.66007 0.0
C417 C 0.32338 0.13347 0.68581 0.0
C418 C 0.30537 0.09795 0.65995 0.0
C419 C 0.31668 0.08652 0.68583 0.0
O420 O 0.37325 0.14032 0.73985 0.0
C421 C 0.28515 0.11185 0.76204 0.0
O422 O 0.27684 0.1103 0.73435 0.0
H423 H 0.33008 0.15532 0.69283 0.0
H424 H 0.31615 0.06365 0.69268 0.0
N425 N 0.36571 0.07123 0.74542 0.0
N426 N 0.39186 0.03375 0.7646 0.0
C427 C 0.37678 0.05892 0.77048 0.0
C428 C 0.37439 0.05311 0.72345 0.0
C429 C 0.39011 0.02988 0.73519 0.0
C430 C 0.40087 0.13757 0.74489 0.0
O431 O 0.41113 0.11234 0.75479 0.0
H432 H 0.37396 0.06818 0.79233 0.0
H433 H 0.3701 0.05681 0.70028 0.0
O434 O 0.3127 0.11146 0.76867 0.0
H435 H 0.29488 0.08549 0.64244 0.0
H436 H 0.39992 1.0118 0.72303 0.0
Cu437 Cu 0.19019 0.59476 0.98924 0.0
N438 N 0.18872 0.57779 0.95146 0.0
N439 N 0.17007 0.55918 0.90966 0.0
C440 C 0.16405 0.57306 0.93537 0.0
C441 C 0.19958 0.55495 0.90959 0.0
C442 C 0.21099 0.56627 0.93548 0.0
O443 O 0.1572 0.62298 0.98936 0.0
C444 C 0.18559 0.5349 1.01171 0.0
O445 O 0.18703 0.52654 0.98404 0.0
H446 H 0.1422 0.57981 0.94236 0.0
H447 H 0.23385 0.56572 0.94235 0.0
N448 N 0.22629 0.61542 0.99494 0.0
N449 N 0.26382 0.64155 1.01403 0.0
C450 C 0.23866 0.62648 1.01997 0.0
C451 C 0.24435 0.6241 0.97292 0.0
C452 C 0.26761 0.63981 0.98461 0.0
C453 C 0.15995 0.65059 0.99444 0.0
O454 O 0.18515 0.66082 1.00445 0.0
H455 H 0.22945 0.62365 0.04184 0.0
H456 H 0.24059 0.61981 0.94976 0.0
O457 O 0.18606 0.56246 1.0183 0.0
H458 H 0.21204 0.54443 0.8921 0.0
H459 H 0.28566 0.64963 0.97241 0.0
Cu460 Cu 0.2025 0.9396 0.23956 0.0
N461 N 0.21953 0.93807 0.20182 0.0
N462 N 0.23817 0.91933 0.16007 0.0
C463 C 0.22437 0.91336 0.18583 0.0
C464 C 0.24223 0.94887 0.15987 0.0
C465 C 0.2309 0.96033 0.18572 0.0
O466 O 0.17436 0.90657 0.23968 0.0
C467 C 0.26232 0.93524 0.26217 0.0
O468 O 0.27072 0.93678 0.23451 0.0
H469 H 0.21773 0.8915 0.19291 0.0
H470 H 0.23129 0.98322 0.19248 0.0
N471 N 0.18169 0.97563 0.24508 0.0
N472 N 0.15551 1.0132 0.26402 0.0
C473 C 0.17074 0.98816 0.27008 0.0
C474 C 0.17279 0.99346 0.22297 0.0
C475 C 0.15704 1.01675 0.23455 0.0
C476 C 0.14689 0.90907 0.24553 0.0
O477 O 0.13681 0.93397 0.25642 0.0
H478 H 0.17376 0.97917 0.29201 0.0
H479 H 0.17696 0.98953 0.19981 0.0
O480 O 0.23474 0.9356 0.26871 0.0
H481 H 0.25263 0.96132 0.1423 0.0
H482 H 0.14708 0.03466 0.22227 0.0
Cu483 Cu 0.69019 0.95303 0.05864 0.0
N484 N 0.68869 0.96998 0.09642 0.0
N485 N 0.66998 0.98854 0.13821 0.0
C486 C 0.664 0.97473 0.11245 0.0
C487 C 0.6995 0.9927 0.13836 0.0
C488 C 0.71095 0.98142 0.11248 0.0
O489 O 0.65719 0.92483 0.05846 0.0
C490 C 0.68572 1.01289 0.03616 0.0
O491 O 0.68732 1.02125 0.06383 0.0
H492 H 0.64215 0.96803 0.1054 0.0
H493 H 0.73383 0.98192 0.10566 0.0
N494 N 0.72627 0.93235 0.05298 0.0
N495 N 0.76382 0.90625 0.0339 0.0
C496 C 0.73869 0.92136 0.02795 0.0
C497 C 0.74428 0.9236 0.07501 0.0
C498 C 0.76755 0.9079 0.06334 0.0
C499 C 0.65986 0.89728 0.05308 0.0
O500 O 0.68497 0.88711 0.0428 0.0
H501 H 0.72953 0.92426 1.00607 0.0
H502 H 0.74047 0.92782 0.09818 0.0
O503 O 0.68608 0.98533 0.02957 0.0
H504 H 0.71195 1.00315 0.15591 0.0
H505 H 0.78558 0.89803 0.07554 0.0
Cu506 Cu 0.34534 0.43966 0.80819 0.0
N507 N 0.32826 0.43808 0.84591 0.0
N508 N 0.30954 0.41931 0.88761 0.0
C509 C 0.32345 0.41336 0.86189 0.0
C510 C 0.30539 0.44883 0.88778 0.0
C511 C 0.31677 0.46031 0.86196 0.0
O512 O 0.37347 0.40662 0.80805 0.0
C513 C 0.28554 0.43512 0.78553 0.0
O514 O 0.27713 0.43622 0.81321 0.0
H515 H 0.33016 0.39152 0.85483 0.0
H516 H 0.31632 0.4832 0.85518 0.0
N517 N 0.36616 0.47569 0.80273 0.0
N518 N 0.39241 0.51326 0.78389 0.0
C519 C 0.3772 0.48822 0.77777 0.0
C520 C 0.37497 0.49353 0.82487 0.0
C521 C 0.39076 0.51682 0.81334 0.0
C522 C 0.40096 0.40913 0.80227 0.0
O523 O 0.41105 0.43404 0.79145 0.0
H524 H 0.37426 0.47922 0.75584 0.0
H525 H 0.37071 0.48961 0.84802 0.0
O526 O 0.31311 0.43574 0.779 0.0
H527 H 0.29488 0.46125 0.90531 0.0
H528 H 0.40068 0.53473 0.82566 0.0
Cu529 Cu 0.70266 0.10809 0.3083 0.0
N530 N 0.71976 0.10966 0.346 0.0
N531 N 0.7385 0.12843 0.38768 0.0
C532 C 0.72451 0.13437 0.36201 0.0
C533 C 0.74278 0.09893 0.38779 0.0
C534 C 0.73138 0.08745 0.36198 0.0
O535 O 0.67459 0.14119 0.30812 0.0
C536 C 0.76243 0.11287 0.28561 0.0
O537 O 0.77085 0.11251 0.3133 0.0
H538 H 0.7177 0.1562 0.355 0.0
H539 H 0.7319 0.06457 0.35515 0.0
N540 N 0.68176 0.07209 0.30293 0.0
N541 N 0.65546 0.03452 0.28415 0.0
C542 C 0.67068 0.05954 0.27799 0.0
C543 C 0.67297 0.05428 0.3251 0.0
C544 C 0.65715 0.03099 0.31361 0.0
C545 C 0.64713 0.13875 0.3022 0.0
O546 O 0.63704 0.1139 0.29124 0.0
H547 H 0.67361 0.06851 0.25604 0.0
H548 H 0.6773 0.05822 0.34823 0.0
O549 O 0.73488 0.11182 0.27908 0.0
H550 H 0.75338 0.08652 0.40527 0.0
H551 H 0.64724 1.01309 0.32596 0.0
Cu552 Cu 0.05801 0.85725 0.59458 0.0
N553 N 0.09572 0.85883 0.57748 0.0
N554 N 0.13737 0.87764 0.5587 0.0
C555 C 0.11184 0.88351 0.57298 0.0
C556 C 0.13729 0.8482 0.55401 0.0
C557 C 0.11149 0.8367 0.56542 0.0
O558 O 0.05774 0.89037 0.62266 0.0
C559 C 0.03538 0.86266 0.53481 0.0
O560 O 0.06309 0.86361 0.52648 0.0
H561 H 0.10498 0.90529 0.5801 0.0
H562 H 0.1045 0.81388 0.56457 0.0
N563 N 0.05265 0.8212 0.61539 0.0
N564 N 0.03386 0.78366 0.64172 0.0
C565 C 0.02775 0.80881 0.62672 0.0
C566 C 0.07477 0.80313 0.62379 0.0
C567 C 0.06327 0.77987 0.63965 0.0
C568 C 0.05223 0.88779 0.6502 0.0
O569 O 0.04184 0.86273 0.66038 0.0
H570 H 1.00585 0.81802 0.62414 0.0
H571 H 0.09788 0.80687 0.61919 0.0
O572 O 0.02883 0.8608 0.56231 0.0
H573 H 0.15461 0.83585 0.54308 0.0
H574 H 0.07559 0.76183 0.64933 0.0
Cu575 Cu 0.93994 0.80853 0.84505 0.0
N576 N 0.93846 0.84633 0.82811 0.0
N577 N 0.9198 0.88814 0.80953 0.0
C578 C 0.91377 0.86233 0.82323 0.0
C579 C 0.94935 0.88834 0.80557 0.0
C580 C 0.96076 0.86246 0.81686 0.0
O581 O 0.90699 0.80846 0.8733 0.0
C582 C 0.93572 0.78605 0.7852 0.0
O583 O 0.93812 0.81366 0.77685 0.0
H584 H 0.89189 0.85524 0.82979 0.0
H585 H 0.98366 0.85569 0.81651 0.0
N586 N 0.97603 0.80277 0.86571 0.0
N587 N 1.01358 0.7836 0.89175 0.0
C588 C 0.98846 0.77769 0.8766 0.0
C589 C 0.994 0.82478 0.87459 0.0
C590 C 1.01728 0.81305 0.89025 0.0
C591 C 0.90968 0.80311 0.90086 0.0
O592 O 0.93478 0.79278 0.91101 0.0
H593 H 0.97933 0.75582 0.87358 0.0
H594 H 0.99017 0.84796 0.87049 0.0
O595 O 0.93562 0.77948 0.81277 0.0
H596 H 0.96184 0.90594 0.79526 0.0
H597 H 0.03529 0.82522 0.90018 0.0
Cu598 Cu 0.98966 0.69046 0.09427 0.0
N599 N 0.95199 0.68884 0.07711 0.0
N600 N 0.91037 0.67001 0.05825 0.0
C601 C 0.93586 0.66415 0.07261 0.0
C602 C 0.91048 0.69944 0.0535 0.0
C603 C 0.93626 0.71095 0.06497 0.0
O604 O 0.98995 0.65735 0.12236 0.0
C605 C 1.01239 0.68502 0.03454 0.0
O606 O 0.98469 0.68401 0.02617 0.0
H607 H 0.9427 0.64239 0.07978 0.0
H608 H 0.94326 0.73376 0.06408 0.0
N609 N 0.995 0.72653 0.11505 0.0
N610 N 1.01376 0.76407 0.14139 0.0
C611 C 1.01989 0.73889 0.12644 0.0
C612 C 0.97288 0.74464 0.12335 0.0
C613 C 0.98437 0.76791 0.13921 0.0
C614 C 0.99526 0.65999 0.14994 0.0
O615 O 1.00543 0.68512 0.16017 0.0
H616 H 0.04178 0.72964 0.12395 0.0
H617 H 0.94978 0.74093 0.11867 0.0
O618 O 1.0189 0.68691 0.06205 0.0
H619 H 0.8932 0.71178 0.0425 0.0
H620 H 0.97205 0.78598 0.14884 0.0
Cu621 Cu 0.10778 0.73931 0.34499 0.0
N622 N 0.10924 0.70149 0.32809 0.0
N623 N 0.1279 0.65966 0.30953 0.0
C624 C 0.13394 0.68551 0.32316 0.0
C625 C 0.09835 0.65942 0.30566 0.0
C626 C 0.08693 0.68531 0.31694 0.0
O627 O 0.14075 0.73941 0.3732 0.0
C628 C 0.11182 0.76171 0.2851 0.0
O629 O 0.10919 0.73411 0.27679 0.0
H630 H 0.15583 0.69264 0.32964 0.0
H631 H 0.06402 0.69205 0.31664 0.0
N632 N 0.07171 0.74509 0.36568 0.0
N633 N 0.03421 0.76426 0.39179 0.0
C634 C 0.05929 0.77017 0.37657 0.0
C635 C 0.05376 0.72308 0.37462 0.0
C636 C 0.03052 0.73482 0.39032 0.0
C637 C 0.13808 0.74477 0.40076 0.0
O638 O 0.11299 0.75511 0.41093 0.0
H639 H 0.0684 0.79205 0.37352 0.0
H640 H 0.0576 0.69989 0.37054 0.0
O641 O 0.11208 0.76831 0.31265 0.0
H642 H 0.08585 0.64178 0.29543 0.0
H643 H 1.01254 0.72264 0.4003 0.0
Cu644 Cu 0.05838 0.19005 0.45263 0.0
N645 N 0.09614 0.18845 0.46964 0.0
N646 N 0.13785 0.16965 0.48831 0.0
C647 C 0.11212 0.16372 0.47441 0.0
C648 C 0.13802 0.19916 0.4925 0.0
C649 C 0.1122 0.21066 0.48115 0.0
O650 O 0.05816 0.15705 0.42443 0.0
C651 C 0.03582 0.18552 0.51246 0.0
O652 O 0.06349 0.18685 0.52085 0.0
H653 H 0.10506 0.14189 0.46767 0.0
H654 H 0.10541 0.23355 0.48167 0.0
N655 N 0.05282 0.22614 0.43194 0.0
N656 N 0.03386 0.26373 0.4058 0.0
C657 C 0.02783 0.2386 0.42089 0.0
C658 C 0.07491 0.24411 0.42323 0.0
C659 C 0.0633 0.2674 0.40751 0.0
C660 C 0.05292 0.15975 0.39686 0.0
O661 O 0.04278 0.18491 0.38666 0.0
H662 H 1.00593 0.22949 0.42375 0.0
H663 H 0.09806 0.24026 0.42751 0.0
O664 O 0.02926 0.18603 0.4849 0.0
H665 H 0.15556 0.21157 0.50302 0.0
H666 H 0.07556 0.2854 0.39767 0.0
Cu667 Cu 0.60759 0.80841 0.70271 0.0
N668 N 0.60901 0.84617 0.7197 0.0
N669 N 0.62763 0.88794 0.73842 0.0
C670 C 0.63368 0.86222 0.72457 0.0
C671 C 0.5981 0.88805 0.74249 0.0
C672 C 0.58671 0.86219 0.73111 0.0
O673 O 0.64067 0.80832 0.67461 0.0
C674 C 0.61214 0.78592 0.76257 0.0
O675 O 0.61085 0.81361 0.77092 0.0
H676 H 0.65555 0.8552 0.71793 0.0
H677 H 0.56383 0.85535 0.73153 0.0
N678 N 0.57158 0.80276 0.6819 0.0
N679 N 0.5341 0.78372 0.65566 0.0
C680 C 0.55916 0.77773 0.67087 0.0
C681 C 0.55364 0.82481 0.67306 0.0
C682 C 0.53041 0.81316 0.65727 0.0
C683 C 0.63809 0.80292 0.64704 0.0
O684 O 0.61305 0.79252 0.63682 0.0
H685 H 0.56826 0.75584 0.67384 0.0
H686 H 0.55747 0.84798 0.67729 0.0
O687 O 0.6116 0.77932 0.73502 0.0
H688 H 0.58561 0.90557 0.75294 0.0
H689 H 0.51244 0.82539 0.64735 0.0
Cu690 Cu 0.98976 0.35765 0.95231 0.0
N691 N 0.95198 0.35921 0.96926 0.0
N692 N 0.91023 0.378 0.98787 0.0
C693 C 0.93599 0.38394 0.97404 0.0
C694 C 0.91003 0.34848 0.99201 0.0
C695 C 0.93588 0.33699 0.9807 0.0
O696 O 0.98996 0.39066 0.92413 0.0
C697 C 1.01222 0.36216 1.01218 0.0
O698 O 0.98454 0.3608 1.02053 0.0
H699 H 0.94308 0.40578 0.96736 0.0
H700 H 0.94265 0.31409 0.98118 0.0
N701 N 0.99534 0.32157 0.93159 0.0
N702 N 1.01433 0.28399 0.90546 0.0
C703 C 1.02035 0.30909 0.9206 0.0
C704 C 0.97326 0.30365 0.92279 0.0
C705 C 0.98488 0.28036 0.90707 0.0
C706 C 0.99534 0.388 0.89658 0.0
O707 O 1.00564 0.36289 0.88641 0.0
H708 H 0.04226 0.31817 0.92353 0.0
H709 H 0.9501 0.30752 0.92701 0.0
O710 O 1.01883 0.36167 0.98463 0.0
H711 H 0.89247 0.33606 1.00247 0.0
H712 H 0.97262 0.26239 0.89718 0.0
Cu713 Cu 0.44012 0.73945 0.20267 0.0
N714 N 0.43869 0.70171 0.21972 0.0
N715 N 0.42006 0.65997 0.23846 0.0
C716 C 0.41403 0.68564 0.22451 0.0
C717 C 0.44957 0.65991 0.24266 0.0
C718 C 0.46097 0.68577 0.23126 0.0
O719 O 0.40707 0.73952 0.17454 0.0
C720 C 0.43537 0.76203 0.26248 0.0
O721 O 0.43633 0.73434 0.27087 0.0
H722 H 0.39216 0.69261 0.21777 0.0
H723 H 0.48383 0.69265 0.23175 0.0
N724 N 0.47616 0.74507 0.1819 0.0
N725 N 0.51369 0.76408 0.15572 0.0
C726 C 0.48858 0.77008 0.17086 0.0
C727 C 0.49413 0.72301 0.17314 0.0
C728 C 0.51739 0.73464 0.15739 0.0
C729 C 0.40967 0.7449 0.14698 0.0
O730 O 0.43472 0.75529 0.13677 0.0
H731 H 0.47947 0.79198 0.17377 0.0
H732 H 0.49031 0.69985 0.17742 0.0
O733 O 0.43612 0.76859 0.23493 0.0
H734 H 0.46205 0.64245 0.25321 0.0
H735 H 0.53539 0.72241 0.14753 0.0
Cu736 Cu 0.09533 0.55802 0.85687 0.0
N737 N 0.07827 0.59575 0.85836 0.0
N738 N 0.05947 0.63742 0.8771 0.0
C739 C 0.07359 0.61182 0.88304 0.0
C740 C 0.05504 0.63743 0.84762 0.0
C741 C 0.06647 0.61162 0.83616 0.0
O742 O 0.12338 0.5578 0.89 0.0
C743 C 0.03553 0.53545 0.86198 0.0
O744 O 0.02718 0.56317 0.86213 0.0
H745 H 0.08049 0.60488 0.90486 0.0
H746 H 0.0658 0.60469 0.81332 0.0
N747 N 0.11615 0.55251 0.82085 0.0
N748 N 0.14241 0.53355 0.78336 0.0
C749 C 0.12735 0.52754 0.8085 0.0
C750 C 0.1247 0.57457 0.80279 0.0
C751 C 0.14051 0.56297 0.77955 0.0
C752 C 0.15095 0.55244 0.88743 0.0
O753 O 0.16121 0.5422 0.86233 0.0
H754 H 0.12462 0.50566 0.8177 0.0
H755 H 0.12023 0.59771 0.80652 0.0
O756 O 0.06306 0.52888 0.86059 0.0
H757 H 0.04428 0.65482 0.83522 0.0
H758 H 0.15027 0.57521 0.7615 0.0
Cu759 Cu 0.23948 0.8444 0.10756 0.0
N760 N 0.20175 0.82734 0.10915 0.0
N761 N 0.16005 0.80861 0.12792 0.0
C762 C 0.18567 0.82271 0.13384 0.0
C763 C 0.16003 0.80416 0.09844 0.0
C764 C 0.18585 0.81555 0.08696 0.0
O765 O 0.23971 0.87258 0.14058 0.0
C766 C 0.2621 0.7846 0.11249 0.0
O767 O 0.23439 0.7762 0.11205 0.0
H768 H 0.19261 0.82964 0.15565 0.0
H769 H 0.19276 0.81485 0.06412 0.0
N770 N 0.245 0.86511 0.07146 0.0
N771 N 0.26393 0.89138 0.03394 0.0
C772 C 0.26996 0.87637 0.05912 0.0
C773 C 0.22294 0.87357 0.05335 0.0
C774 C 0.23453 0.88939 0.03011 0.0
C775 C 0.24493 0.90016 0.13789 0.0
O776 O 0.25503 0.91038 0.11272 0.0
H777 H 0.29184 0.87375 0.06837 0.0
H778 H 0.19981 0.86908 0.05707 0.0
O779 O 0.26864 0.81215 0.11144 0.0
H780 H 0.14262 0.79343 0.08605 0.0
H781 H 0.22226 0.89911 1.01205 0.0
Cu782 Cu 0.95261 0.98988 0.35715 0.0
N783 N 0.96963 0.95214 0.35863 0.0
N784 N 0.98842 0.91045 0.37735 0.0
C785 C 0.97429 0.93605 0.3833 0.0
C786 C 0.99285 0.91046 0.34787 0.0
C787 C 0.98143 0.93628 0.33642 0.0
O788 O 0.92457 0.99012 0.39029 0.0
C789 C 1.01245 1.01236 0.36235 0.0
O790 O 1.02074 0.98463 0.36271 0.0
H791 H 0.96738 0.94298 0.40512 0.0
H792 H 0.98211 0.94322 0.31358 0.0
N793 N 0.93176 0.9954 0.32114 0.0
N794 N 0.90548 1.01436 0.28365 0.0
C795 C 0.92057 1.02038 0.30878 0.0
C796 C 0.92317 0.97334 0.3031 0.0
C797 C 0.90735 0.98494 0.27987 0.0
C798 C 0.897 0.99547 0.38772 0.0
O799 O 0.88674 1.00572 0.36263 0.0
H800 H 0.92333 0.04227 0.31796 0.0
H801 H 0.92763 0.9502 0.30684 0.0
O802 O 0.98493 1.01898 0.36083 0.0
H803 H 1.00362 0.89308 0.33546 0.0
H804 H 0.89757 0.97269 0.26183 0.0
Cu805 Cu 0.80813 0.70322 0.60774 0.0
N806 N 0.84588 0.72024 0.60929 0.0
N807 N 0.88761 0.73892 0.62803 0.0
C808 C 0.86194 0.72493 0.63398 0.0
C809 C 0.88768 0.74325 0.59853 0.0
C810 C 0.86183 0.73189 0.58707 0.0
O811 O 0.80794 0.67508 0.64079 0.0
C812 C 0.7856 0.76307 0.61259 0.0
O813 O 0.81331 0.77142 0.61202 0.0
H814 H 0.85497 0.71809 0.65581 0.0
H815 H 0.85496 0.73249 0.56422 0.0
N816 N 0.80259 0.68245 0.57169 0.0
N817 N 0.78366 0.65621 0.53416 0.0
C818 C 0.77761 0.67132 0.55927 0.0
C819 C 0.82467 0.67379 0.5537 0.0
C820 C 0.81309 0.658 0.53044 0.0
C821 C 0.8024 0.64755 0.6382 0.0
O822 O 0.79189 0.6374 0.61317 0.0
H823 H 0.75571 0.67413 0.5684 0.0
H824 H 0.84782 0.67816 0.5575 0.0
O825 O 0.77901 0.73552 0.61162 0.0
H826 H 0.90514 0.75387 0.58611 0.0
H827 H 0.82536 0.64818 0.51244 0.0
Cu828 Cu 0.09518 0.48961 0.18972 0.0
N829 N 0.07802 0.45193 0.18817 0.0
N830 N 0.05918 0.41027 0.16943 0.0
C831 C 0.07337 0.43583 0.16349 0.0
C832 C 0.05468 0.41031 0.1989 0.0
C833 C 0.06614 0.43611 0.21036 0.0
O834 O 0.12327 0.48974 0.15662 0.0
C835 C 0.03542 0.51233 0.18452 0.0
O836 O 0.02702 0.48463 0.18413 0.0
H837 H 0.08035 0.44273 0.14168 0.0
H838 H 0.06546 0.44305 0.2332 0.0
N839 N 0.11603 0.49498 0.22575 0.0
N840 N 0.14232 0.51373 0.26334 0.0
C841 C 0.12722 0.51989 0.23826 0.0
C842 C 0.12463 0.47282 0.24367 0.0
C843 C 0.14045 0.48429 0.26696 0.0
C844 C 0.1508 0.49529 0.15917 0.0
O845 O 0.16097 0.50588 0.18416 0.0
H846 H 0.12445 0.54182 0.2292 0.0
H847 H 0.12017 0.4497 0.2398 0.0
O848 O 0.06296 0.51884 0.18605 0.0
H849 H 0.04387 0.39295 0.2113 0.0
H850 H 0.15023 0.47194 0.28493 0.0
Cu851 Cu 0.30806 0.8446 0.44023 0.0
N852 N 0.34581 0.8276 0.43865 0.0
N853 N 0.38753 0.80895 0.41986 0.0
C854 C 0.36185 0.82293 0.41394 0.0
C855 C 0.38763 0.8046 0.44935 0.0
C856 C 0.36179 0.81594 0.46085 0.0
O857 O 0.30781 0.87272 0.40718 0.0
C858 C 0.28554 0.78476 0.43539 0.0
O859 O 0.31325 0.77641 0.43586 0.0
H860 H 0.35484 0.82978 0.39213 0.0
H861 H 0.35495 0.81532 0.48371 0.0
N862 N 0.30256 0.86538 0.47628 0.0
N863 N 0.28364 0.89161 0.51381 0.0
C864 C 0.27759 0.8765 0.48871 0.0
C865 C 0.32465 0.87404 0.49426 0.0
C866 C 0.31307 0.88982 0.51753 0.0
C867 C 0.30206 0.90022 0.40973 0.0
O868 O 0.29139 0.91031 0.43471 0.0
H869 H 0.25569 0.87368 0.47958 0.0
H870 H 0.3478 0.86967 0.49045 0.0
O871 O 0.27894 0.8123 0.43641 0.0
H872 H 0.40512 0.79399 0.46174 0.0
H873 H 0.32533 0.89965 0.53553 0.0
Cu874 Cu 0.95266 0.05831 0.68999 0.0
N875 N 0.96985 0.09598 0.68843 0.0
N876 N 0.98868 0.13763 0.66968 0.0
C877 C 0.97453 0.11205 0.66374 0.0
C878 C 0.99313 0.13763 0.69916 0.0
C879 C 0.98167 0.11184 0.71062 0.0
O880 O 0.92456 0.05819 0.65691 0.0
C881 C 1.01238 0.03551 0.68494 0.0
O882 O 1.02084 0.06319 0.68496 0.0
H883 H 0.96759 0.10513 0.64193 0.0
H884 H 0.98231 0.10493 0.73347 0.0
N885 N 0.93184 0.05294 0.72603 0.0
N886 N 0.90557 0.03418 0.76362 0.0
C887 C 0.92065 0.02803 0.73852 0.0
C888 C 0.92325 0.07509 0.74396 0.0
C889 C 0.90744 0.06361 0.76725 0.0
C890 C 0.89702 0.05265 0.65946 0.0
O891 O 0.88684 0.04209 0.68445 0.0
H892 H 0.92341 1.0061 0.72944 0.0
H893 H 0.9277 0.09821 0.7401 0.0
O894 O 0.98482 0.02904 0.68624 0.0
H895 H 1.0039 0.15502 0.71156 0.0
H896 H 0.89765 0.07596 0.78523 0.0
Cu897 Cu 0.73955 0.70349 0.94039 0.0
N898 N 0.70181 0.72053 0.93876 0.0
N899 N 0.66013 0.73923 0.91993 0.0
C900 C 0.68576 0.72514 0.91405 0.0
C901 C 0.66007 0.74369 0.94941 0.0
C902 C 0.68589 0.73233 0.96092 0.0
O903 O 0.73982 0.67531 0.90736 0.0
C904 C 0.76216 0.76328 0.93547 0.0
O905 O 0.73445 0.77167 0.93585 0.0
H906 H 0.69273 0.7182 0.89225 0.0
H907 H 0.69277 0.73304 0.98378 0.0
N908 N 0.74504 0.68279 0.97648 0.0
N909 N 0.76397 0.65653 1.014 0.0
C910 C 0.77 0.67153 0.98883 0.0
C911 C 0.72298 0.67433 0.99459 0.0
C912 C 0.73457 0.65852 1.01784 0.0
C913 C 0.74524 0.64776 0.91002 0.0
O914 O 0.7555 0.6376 0.93514 0.0
H915 H 0.79187 0.67416 0.97957 0.0
H916 H 0.69985 0.67882 0.99087 0.0
O917 O 0.76871 0.73574 0.93654 0.0
H918 H 0.64264 0.75442 0.96177 0.0
H919 H 0.72231 0.6488 0.03591 0.0
Cu920 Cu 0.35765 0.59481 0.55839 0.0
N921 N 0.35918 0.57783 0.59616 0.0
N922 N 0.37793 0.5592 0.63791 0.0
C923 C 0.38389 0.57307 0.61218 0.0
C924 C 0.34841 0.55501 0.63805 0.0
C925 C 0.33695 0.56634 0.6122 0.0
O926 O 0.39064 0.62302 0.55822 0.0
C927 C 0.36219 0.53497 0.53588 0.0
O928 O 0.36076 0.52661 0.56355 0.0
H929 H 0.40573 0.5798 0.60513 0.0
H930 H 0.31407 0.56582 0.60539 0.0
N931 N 0.32156 0.61549 0.55278 0.0
N932 N 0.28401 0.64163 0.53374 0.0
C933 C 0.30914 0.62654 0.52776 0.0
C934 C 0.30355 0.6242 0.57482 0.0
C935 C 0.28028 0.63992 0.56318 0.0
C936 C 0.38795 0.65059 0.55291 0.0
O937 O 0.36282 0.66076 0.54267 0.0
H938 H 0.3183 0.62368 0.50587 0.0
H939 H 0.30735 0.61993 0.59798 0.0
O940 O 0.36173 0.56253 0.5293 0.0
H941 H 0.33598 0.54452 0.65558 0.0
H942 H 0.26225 0.64976 0.5754 0.0
Cu943 Cu 0.85784 0.45302 0.98919 0.0
N944 N 0.85933 0.46992 0.95139 0.0
N945 N 0.87802 0.48841 0.90956 0.0
C946 C 0.88402 0.47469 0.93536 0.0
C947 C 0.84849 0.4925 0.90938 0.0
C948 C 0.83706 0.48126 0.93528 0.0
O949 O 0.8908 0.42478 0.98935 0.0
C950 C 0.86207 0.5129 1.01162 0.0
O951 O 0.85988 0.52123 0.98398 0.0
H952 H 0.90588 0.46806 0.94244 0.0
H953 H 0.81417 0.48172 0.94208 0.0
N954 N 0.82174 0.43238 0.99492 0.0
N955 N 0.78421 0.4063 1.01406 0.0
C956 C 0.80935 0.42142 1.01998 0.0
C957 C 0.80371 0.4236 0.97291 0.0
C958 C 0.78045 0.40792 0.98463 0.0
C959 C 0.88808 0.39721 0.99463 0.0
O960 O 0.86292 0.38704 1.00481 0.0
H961 H 0.81853 0.42434 0.04185 0.0
H962 H 0.8075 0.42778 0.94973 0.0
O963 O 0.86207 0.48534 1.01822 0.0
H964 H 0.83603 0.50287 0.8918 0.0
H965 H 0.76241 0.39804 0.97245 0.0
Cu966 Cu 0.34531 0.60721 0.23977 0.0
N967 N 0.32831 0.60865 0.20201 0.0
N968 N 0.30952 0.6273 0.16029 0.0
C969 C 0.32352 0.63331 0.18594 0.0
C970 C 0.3053 0.59779 0.16023 0.0
C971 C 0.31672 0.58638 0.18607 0.0
O972 O 0.37337 0.64033 0.23994 0.0
C973 C 0.28546 0.61211 0.26224 0.0
O974 O 0.27713 0.61165 0.23452 0.0
H975 H 0.33027 0.65517 0.19292 0.0
H976 H 0.31619 0.56353 0.19296 0.0
N977 N 0.36616 0.57121 0.24539 0.0
N978 N 0.39244 0.53375 0.26442 0.0
C979 C 0.37728 0.55885 0.2704 0.0
C980 C 0.37488 0.5532 0.22335 0.0
C981 C 0.39069 0.52998 0.235 0.0
C982 C 0.40094 0.63776 0.24528 0.0
O983 O 0.41121 0.61269 0.25556 0.0
H984 H 0.37441 0.56801 0.29229 0.0
H985 H 0.37052 0.55695 0.20019 0.0
O986 O 0.313 0.61107 0.26886 0.0
H987 H 0.2947 0.58533 0.14279 0.0
H988 H 0.40054 0.51197 0.22277 0.0
Cu989 Cu 0.19037 0.09472 0.48951 0.0
N990 N 0.1888 0.07768 0.45177 0.0
N991 N 0.17001 0.059 0.41007 0.0
C992 C 0.16409 0.07303 0.43572 0.0
C993 C 0.19949 0.0546 0.41 0.0
C994 C 0.21098 0.06596 0.43583 0.0
O995 O 0.15733 0.12289 0.48973 0.0
C996 C 0.18546 0.03491 0.51208 0.0
O997 O 0.18594 0.02653 0.48438 0.0
H998 H 0.14228 0.07992 0.4427 0.0
H999 H 0.23384 0.0653 0.44271 0.0
N1000 N 0.22645 0.11544 0.49501 0.0
N1001 N 0.26402 0.14164 0.51391 0.0
C1002 C 0.23888 0.12659 0.51997 0.0
C1003 C 0.24446 0.12402 0.47292 0.0
C1004 C 0.26774 0.13979 0.48449 0.0
C1005 C 0.16 0.15045 0.49508 0.0
O1006 O 0.18513 0.16063 0.50533 0.0
H1007 H 0.22972 0.12384 0.54187 0.0
H1008 H 0.24066 0.11963 0.44978 0.0
O1009 O 0.18649 0.06245 0.51865 0.0
H1010 H 0.21188 0.04392 0.39256 0.0
H1011 H 0.28576 0.14957 0.47221 0.0
Cu1012 Cu 0.20308 0.43992 0.73944 0.0
N1013 N 0.22019 0.43829 0.70174 0.0
N1014 N 0.23887 0.41945 0.66006 0.0
C1015 C 0.22476 0.41358 0.68568 0.0
C1016 C 0.2434 0.44891 0.66003 0.0
C1017 C 0.23204 0.46043 0.68584 0.0
O1018 O 0.17495 0.40686 0.73968 0.0
C1019 C 0.26285 0.43486 0.76214 0.0
O1020 O 0.27126 0.43475 0.73444 0.0
H1021 H 0.21777 0.39179 0.69263 0.0
H1022 H 0.23276 0.48329 0.69273 0.0
N1023 N 0.18231 0.47598 0.74478 0.0
N1024 N 0.1561 0.51362 0.76353 0.0
C1025 C 0.17115 0.4885 0.76969 0.0
C1026 C 0.17374 0.49392 0.72262 0.0
C1027 C 0.15796 0.51724 0.7341 0.0
C1028 C 0.14745 0.40943 0.74536 0.0
O1029 O 0.13734 0.43443 0.75599 0.0
H1030 H 0.17389 0.47942 0.79162 0.0
H1031 H 0.17817 0.49004 0.6995 0.0
O1032 O 0.2353 0.43622 0.76865 0.0
H1033 H 0.25417 0.46126 0.64261 0.0
H1034 H 0.14818 0.53522 0.72175 0.0
Cu1035 Cu 0.69031 0.45308 0.55834 0.0
N1036 N 0.68881 0.47011 0.59609 0.0
N1037 N 0.67011 0.48884 0.63782 0.0
C1038 C 0.66413 0.47483 0.61217 0.0
C1039 C 0.69961 0.49314 0.63786 0.0
C1040 C 0.71104 0.48176 0.61202 0.0
O1041 O 0.65729 0.42489 0.55821 0.0
C1042 C 0.68545 0.51291 0.5358 0.0
O1043 O 0.68623 0.52128 0.5635 0.0
H1044 H 0.64229 0.468 0.6052 0.0
H1045 H 0.7339 0.48236 0.60513 0.0
N1046 N 0.7264 0.43238 0.55274 0.0
N1047 N 0.76394 0.40619 0.53374 0.0
C1048 C 0.73879 0.42126 0.52774 0.0
C1049 C 0.74443 0.42375 0.57479 0.0
C1050 C 0.7677 0.408 0.56317 0.0
C1051 C 0.66001 0.39729 0.55308 0.0
O1052 O 0.68518 0.38706 0.54302 0.0
H1053 H 0.72961 0.42404 0.50585 0.0
H1054 H 0.74066 0.42811 0.59794 0.0
O1055 O 0.68632 0.48536 0.52922 0.0
H1056 H 0.71204 0.50377 0.65531 0.0
H1057 H 0.78574 0.39821 0.57541 0.0
Cu1058 Cu 0.34475 0.94001 0.30831 0.0
N1059 N 0.3276 0.93833 0.34598 0.0
N1060 N 0.30882 0.91944 0.3876 0.0
C1061 C 0.32304 0.91361 0.36203 0.0
C1062 C 0.30421 0.9489 0.38762 0.0
C1063 C 0.31562 0.96045 0.36184 0.0
O1064 O 0.37287 0.90694 0.30805 0.0
C1065 C 0.28501 0.93479 0.28556 0.0
O1066 O 0.27661 0.93424 0.31325 0.0
H1067 H 0.33011 0.89184 0.35509 0.0
H1068 H 0.31485 0.98329 0.35494 0.0
N1069 N 0.36554 0.97608 0.30305 0.0
N1070 N 0.39183 1.01371 0.28438 0.0
C1071 C 0.3768 0.98859 0.27817 0.0
C1072 C 0.37402 0.99403 0.32523 0.0
C1073 C 0.38985 1.01734 0.31381 0.0
C1074 C 0.40039 0.90953 0.30244 0.0
O1075 O 0.41052 0.93455 0.2919 0.0
H1076 H 0.37414 0.97951 0.25623 0.0
H1077 H 0.36949 0.99016 0.34834 0.0
O1078 O 0.31255 0.9364 0.27906 0.0
H1079 H 0.29334 0.96122 0.405 0.0
H1080 H 0.39958 0.03532 0.32619 0.0
Cu1081 Cu 0.7029 0.60815 0.80838 0.0
N1082 N 0.71992 0.60976 0.84612 0.0
N1083 N 0.73852 0.62856 0.88786 0.0
C1084 C 0.72463 0.63448 0.86213 0.0
C1085 C 0.74279 0.59906 0.88801 0.0
C1086 C 0.73148 0.58756 0.86217 0.0
O1087 O 0.67469 0.64115 0.80819 0.0
C1088 C 0.76271 0.61267 0.78578 0.0
O1089 O 0.77112 0.61142 0.81345 0.0
H1090 H 0.71784 0.6563 0.85508 0.0
H1091 H 0.73203 0.56467 0.85537 0.0
N1092 N 0.68218 0.57206 0.8029 0.0
N1093 N 0.65602 0.53446 0.78401 0.0
C1094 C 0.67113 0.55957 0.77793 0.0
C1095 C 0.67348 0.55414 0.82501 0.0
C1096 C 0.65774 0.53083 0.81345 0.0
C1097 C 0.64717 0.63853 0.8026 0.0
O1098 O 0.63708 0.61349 0.79205 0.0
H1099 H 0.67398 0.56865 0.75601 0.0
H1100 H 0.67777 0.55802 0.84816 0.0
O1101 O 0.73515 0.61213 0.77923 0.0
H1102 H 0.75332 0.58666 0.90554 0.0
H1103 H 0.64789 0.51286 0.82574 0.0
Cu1104 Cu 0.55834 0.35792 0.59561 0.0
N1105 N 0.59611 0.35941 0.57862 0.0
N1106 N 0.63786 0.37812 0.55993 0.0
C1107 C 0.61208 0.38412 0.5737 0.0
C1108 C 0.63808 0.34857 0.55596 0.0
C1109 C 0.61223 0.33713 0.56732 0.0
O1110 O 0.55823 0.39094 0.62376 0.0
C1111 C 0.53581 0.36225 0.53577 0.0
O1112 O 0.56346 0.36043 0.5274 0.0
H1113 H 0.60497 0.406 0.58026 0.0
H1114 H 0.60548 0.31423 0.56698 0.0
N1115 N 0.5527 0.32188 0.61638 0.0
N1116 N 0.53366 0.28434 0.64252 0.0
C1117 C 0.52767 0.3094 0.62731 0.0
C1118 C 0.57477 0.304 0.6253 0.0
C1119 C 0.56312 0.28073 0.64102 0.0
C1120 C 0.55277 0.38835 0.6513 0.0
O1121 O 0.54232 0.36331 0.66149 0.0
H1122 H 0.50576 0.31844 0.62426 0.0
H1123 H 0.59794 0.30788 0.62115 0.0
O1124 O 0.52924 0.36203 0.56334 0.0
H1125 H 0.65566 0.33611 0.54559 0.0
H1126 H 0.57535 0.26278 0.65097 0.0
Cu1127 Cu 0.44063 0.30776 0.84516 0.0
N1128 N 0.43903 0.34544 0.82801 0.0
N1129 N 0.42018 0.38702 0.80912 0.0
C1130 C 0.41433 0.36152 0.82345 0.0
C1131 C 0.44962 0.38696 0.80444 0.0
C1132 C 0.46115 0.3612 0.81593 0.0
O1133 O 0.40744 0.30746 0.87314 0.0
C1134 C 0.43515 0.28509 0.7854 0.0
O1135 O 0.43372 0.31279 0.7771 0.0
H1136 H 0.39255 0.35464 0.83056 0.0
H1137 H 0.48397 0.35424 0.81511 0.0
N1138 N 0.47663 0.3025 0.86608 0.0
N1139 N 0.51416 0.28382 0.89251 0.0
C1140 C 0.48906 0.27763 0.87744 0.0
C1141 C 0.49462 0.32467 0.87452 0.0
C1142 C 0.51787 0.31324 0.89044 0.0
C1143 C 0.40993 0.30189 0.90068 0.0
O1144 O 0.43494 0.29141 0.9109 0.0
H1145 H 0.47993 0.25571 0.87483 0.0
H1146 H 0.49082 0.34776 0.86988 0.0
O1147 O 0.43725 0.27855 0.81289 0.0
H1148 H 0.46195 0.40426 0.79346 0.0
H1149 H 0.53586 0.32561 0.90016 0.0
Cu1150 Cu 0.48977 0.19005 0.09596 0.0
N1151 N 0.45198 0.18859 0.07902 0.0
N1152 N 0.4102 0.1699 0.06039 0.0
C1153 C 0.43601 0.16389 0.07409 0.0
C1154 C 0.40996 0.19946 0.05647 0.0
C1155 C 0.43583 0.21089 0.0678 0.0
O1156 O 0.48987 0.15701 0.12409 0.0
C1157 C 0.51221 0.18573 0.03608 0.0
O1158 O 0.48455 0.18758 0.02775 0.0
H1159 H 0.44315 0.142 0.08059 0.0
H1160 H 0.44256 0.23379 0.0675 0.0
N1161 N 0.49544 0.22607 0.11675 0.0
N1162 N 0.51451 0.26361 0.14289 0.0
C1163 C 0.5205 0.23858 0.12762 0.0
C1164 C 0.47338 0.24391 0.12577 0.0
C1165 C 0.48504 0.26717 0.14149 0.0
C1166 C 0.49548 0.15956 0.1516 0.0
O1167 O 0.50612 0.18453 0.16175 0.0
H1168 H 0.54241 0.22958 0.12449 0.0
H1169 H 0.4502 0.23999 0.1217 0.0
O1170 O 0.51882 0.18593 0.06363 0.0
H1171 H 0.39234 0.21193 0.04617 0.0
H1172 H 0.47281 0.2851 0.1515 0.0
Cu1173 Cu 0.60744 0.24008 0.34519 0.0
N1174 N 0.60906 0.20243 0.32798 0.0
N1175 N 0.62792 0.16087 0.30904 0.0
C1176 C 0.63375 0.18632 0.32348 0.0
C1177 C 0.5985 0.161 0.30423 0.0
C1178 C 0.58697 0.18675 0.31575 0.0
O1179 O 0.6406 0.24036 0.37321 0.0
C1180 C 0.61314 0.26286 0.28551 0.0
O1181 O 0.61489 0.23519 0.27718 0.0
H1182 H 0.65551 0.19314 0.3307 0.0
H1183 H 0.56416 0.19376 0.31485 0.0
N1184 N 0.57141 0.24531 0.36607 0.0
N1185 N 0.53383 0.26397 0.39242 0.0
C1186 C 0.55897 0.27016 0.37744 0.0
C1187 C 0.55339 0.22314 0.37442 0.0
C1188 C 0.5301 0.23456 0.3903 0.0
C1189 C 0.63808 0.24592 0.40075 0.0
O1190 O 0.61306 0.25638 0.41095 0.0
H1191 H 0.56812 0.29209 0.37488 0.0
H1192 H 0.55717 0.20005 0.36973 0.0
O1193 O 0.61081 0.26935 0.31299 0.0
H1194 H 0.58619 0.14376 0.29314 0.0
H1195 H 0.51208 0.22218 0.39994 0.0
Cu1196 Cu 0.55804 0.6904 0.45289 0.0
N1197 N 0.59575 0.68891 0.46997 0.0
N1198 N 0.63744 0.6702 0.48878 0.0
C1199 C 0.61184 0.66424 0.47465 0.0
C1200 C 0.63743 0.69968 0.4932 0.0
C1201 C 0.61161 0.71112 0.48177 0.0
O1202 O 0.55787 0.65728 0.42484 0.0
C1203 C 0.53543 0.68526 0.51268 0.0
O1204 O 0.56315 0.68501 0.52104 0.0
H1205 H 0.60493 0.64241 0.46774 0.0
H1206 H 0.60468 0.73396 0.48241 0.0
N1207 N 0.55257 0.72641 0.43202 0.0
N1208 N 0.53369 0.76391 0.4057 0.0
C1209 C 0.52762 0.73881 0.42082 0.0
C1210 C 0.57467 0.74439 0.42341 0.0
C1211 C 0.56312 0.76763 0.40756 0.0
C1212 C 0.55222 0.65977 0.39732 0.0
O1213 O 0.54156 0.68473 0.38715 0.0
H1214 H 0.50571 0.72968 0.42359 0.0
H1215 H 0.59781 0.74061 0.42786 0.0
O1216 O 0.52887 0.68671 0.48515 0.0
H1217 H 0.65481 0.7121 0.50394 0.0
H1218 H 0.57541 0.78563 0.39775 0.0
Cu1219 Cu 0.10765 0.30796 0.70276 0.0
N1220 N 0.10932 0.34567 0.71985 0.0
N1221 N 0.12821 0.3873 0.7386 0.0
C1222 C 0.13405 0.3617 0.72443 0.0
C1223 C 0.09875 0.38735 0.74315 0.0
C1224 C 0.0872 0.36157 0.73176 0.0
O1225 O 0.1407 0.30766 0.67461 0.0
C1226 C 0.1128 0.28529 0.76253 0.0
O1227 O 0.11303 0.313 0.77092 0.0
H1228 H 0.15583 0.35474 0.71742 0.0
H1229 H 0.06434 0.35469 0.73251 0.0
N1230 N 0.07156 0.30258 0.68202 0.0
N1231 N 0.03395 0.28377 0.65581 0.0
C1232 C 0.05911 0.27766 0.6708 0.0
C1233 C 0.05353 0.32471 0.67354 0.0
C1234 C 0.03023 0.31319 0.65776 0.0
C1235 C 0.13807 0.30217 0.64708 0.0
O1236 O 0.11299 0.2918 0.63692 0.0
H1237 H 0.06827 0.25575 0.67346 0.0
H1238 H 0.05734 0.34783 0.67804 0.0
O1239 O 0.11135 0.27876 0.73499 0.0
H1240 H 0.08642 0.40475 0.75397 0.0
H1241 H 1.0122 0.32551 0.64805 0.0
Cu1242 Cu 0.48961 0.85757 0.95317 0.0
N1243 N 0.45191 0.8591 0.9703 0.0
N1244 N 0.41026 0.87783 0.98917 0.0
C1245 C 0.43583 0.88378 0.97499 0.0
C1246 C 0.41029 0.84835 0.99362 0.0
C1247 C 0.43608 0.8369 0.98215 0.0
O1248 O 0.48978 0.89068 0.9251 0.0
C1249 C 0.51229 0.8627 1.01293 0.0
O1250 O 0.48459 0.86291 1.02132 0.0
H1251 H 0.44273 0.90559 0.96804 0.0
H1252 H 0.44302 0.81406 0.98281 0.0
N1253 N 0.49506 0.82154 0.93233 0.0
N1254 N 0.51392 0.78404 0.906 0.0
C1255 C 0.51999 0.80916 0.92108 0.0
C1256 C 0.47296 0.80351 0.9238 0.0
C1257 C 0.4845 0.78027 0.90795 0.0
C1258 C 0.49525 0.88813 0.89755 0.0
O1259 O 0.50567 0.86309 0.88733 0.0
H1260 H 0.54189 0.81834 0.92377 0.0
H1261 H 0.44983 0.80727 0.92831 0.0
O1262 O 0.51882 0.86128 0.9854 0.0
H1263 H 0.39292 0.83594 1.00441 0.0
H1264 H 0.47221 0.76225 0.89819 0.0
Cu1265 Cu 0.94042 0.23987 0.20282 0.0
N1266 N 0.93877 0.20213 0.21985 0.0
N1267 N 0.91988 0.16049 0.23857 0.0
C1268 C 0.91403 0.18614 0.2245 0.0
C1269 C 0.94937 0.16037 0.24298 0.0
C1270 C 0.96092 0.18616 0.2316 0.0
O1271 O 0.90735 0.24018 0.1747 0.0
C1272 C 0.9355 0.26244 0.26264 0.0
O1273 O 0.9356 0.23472 0.271 0.0
H1274 H 0.89223 0.19316 0.2176 0.0
H1275 H 0.98379 0.19299 0.23227 0.0
N1276 N 0.97649 0.24528 0.18203 0.0
N1277 N 1.01404 0.2641 0.15575 0.0
C1278 C 0.98893 0.27021 0.17082 0.0
C1279 C 0.99447 0.22316 0.17346 0.0
C1280 C 1.01774 0.23468 0.15764 0.0
C1281 C 0.90994 0.24572 0.14717 0.0
O1282 O 0.93501 0.25612 0.13701 0.0
H1283 H 0.97979 0.29212 0.17354 0.0
H1284 H 0.99065 0.20003 0.17791 0.0
O1285 O 0.93671 0.26901 0.23511 0.0
H1286 H 0.96171 0.14291 0.25369 0.0
H1287 H 0.03574 0.22237 0.14785 0.0
Cu1288 Cu 0.59493 0.05829 0.85835 0.0
N1289 N 0.57791 0.09603 0.85995 0.0
N1290 N 0.55924 0.13776 0.87872 0.0
C1291 C 0.57316 0.11205 0.88466 0.0
C1292 C 0.55501 0.1379 0.84921 0.0
C1293 C 0.56635 0.11206 0.83773 0.0
O1294 O 0.62311 0.05811 0.89137 0.0
C1295 C 0.53508 0.03572 0.86298 0.0
O1296 O 0.52671 0.06342 0.86199 0.0
H1297 H 0.57994 0.10502 0.90649 0.0
H1298 H 0.56583 0.10525 0.81485 0.0
N1299 N 0.6157 0.05279 0.82228 0.0
N1300 N 0.64193 0.03393 0.78471 0.0
C1301 C 0.62676 0.02783 0.80977 0.0
C1302 C 0.62446 0.07492 0.80441 0.0
C1303 C 0.64024 0.06338 0.78112 0.0
C1304 C 0.65063 0.05253 0.88876 0.0
O1305 O 0.66073 0.04193 0.86375 0.0
H1306 H 0.62387 1.0059 0.81881 0.0
H1307 H 0.62017 0.09806 0.80831 0.0
O1308 O 0.56264 0.02915 0.86228 0.0
H1309 H 0.54447 0.15541 0.83679 0.0
H1310 H 0.65012 0.07569 0.76318 0.0
Cu1311 Cu 0.73991 0.3458 0.10764 0.0
N1312 N 0.70217 0.32879 0.10914 0.0
N1313 N 0.66046 0.31007 0.12788 0.0
C1314 C 0.68616 0.32399 0.13384 0.0
C1315 C 0.66031 0.30589 0.09837 0.0
C1316 C 0.68614 0.31727 0.0869 0.0
O1317 O 0.74008 0.37387 0.14075 0.0
C1318 C 0.76244 0.28597 0.1124 0.0
O1319 O 0.73473 0.27762 0.11183 0.0
H1320 H 0.69321 0.33071 0.15569 0.0
H1321 H 0.69296 0.31679 0.06402 0.0
N1322 N 0.7454 0.36667 0.07165 0.0
N1323 N 0.76431 0.39286 0.03408 0.0
C1324 C 0.77039 0.37766 0.05912 0.0
C1325 C 0.72328 0.37553 0.05381 0.0
C1326 C 0.73484 0.39129 0.03052 0.0
C1327 C 0.74576 0.40138 0.13825 0.0
O1328 O 0.75643 0.41153 0.1133 0.0
H1329 H 0.79232 0.37465 0.06812 0.0
H1330 H 0.70013 0.37129 0.05772 0.0
O1331 O 0.76904 0.31351 0.11146 0.0
H1332 H 0.6428 0.29535 0.08594 0.0
H1333 H 0.72255 0.40122 1.0126 0.0
Cu1334 Cu 0.45292 0.48948 0.35807 0.0
N1335 N 0.46997 0.45175 0.35966 0.0
N1336 N 0.48863 0.41002 0.37845 0.0
C1337 C 0.47474 0.43575 0.38438 0.0
C1338 C 0.49283 0.40986 0.34893 0.0
C1339 C 0.48149 0.43569 0.33744 0.0
O1340 O 0.42471 0.48963 0.39105 0.0
C1341 C 0.51272 0.51213 0.36257 0.0
O1342 O 0.52115 0.48447 0.36119 0.0
H1343 H 0.46799 0.4428 0.40622 0.0
H1344 H 0.48198 0.44248 0.31456 0.0
N1345 N 0.43219 0.49498 0.32198 0.0
N1346 N 0.406 0.51387 0.28439 0.0
C1347 C 0.42113 0.51995 0.30948 0.0
C1348 C 0.42345 0.47287 0.30407 0.0
C1349 C 0.40769 0.48442 0.28078 0.0
C1350 C 0.39719 0.49519 0.38843 0.0
O1351 O 0.38707 0.50573 0.36341 0.0
H1352 H 0.424 0.54187 0.31855 0.0
H1353 H 0.42772 0.44972 0.30796 0.0
O1354 O 0.48515 0.51865 0.36208 0.0
H1355 H 0.50333 0.39233 0.33652 0.0
H1356 H 0.39782 0.47213 0.26282 0.0
Cu1357 Cu 0.30828 0.20229 0.60742 0.0
N1358 N 0.346 0.21937 0.60898 0.0
N1359 N 0.38766 0.23815 0.62777 0.0
C1360 C 0.36202 0.22409 0.63369 0.0
C1361 C 0.38775 0.24249 0.59828 0.0
C1362 C 0.36195 0.23107 0.58678 0.0
O1363 O 0.30807 0.17418 0.6405 0.0
C1364 C 0.28565 0.26208 0.6123 0.0
O1365 O 0.31335 0.27047 0.61193 0.0
H1366 H 0.35502 0.21725 0.65551 0.0
H1367 H 0.3551 0.23167 0.56392 0.0
N1368 N 0.30281 0.18151 0.57137 0.0
N1369 N 0.28391 0.15529 0.53381 0.0
C1370 C 0.27785 0.17036 0.55894 0.0
C1371 C 0.32491 0.1729 0.55338 0.0
C1372 C 0.31334 0.15711 0.53011 0.0
C1373 C 0.30278 0.14661 0.63787 0.0
O1374 O 0.29258 0.13637 0.61275 0.0
H1375 H 0.25594 0.17314 0.56808 0.0
H1376 H 0.34804 0.1773 0.55719 0.0
O1377 O 0.2791 0.23453 0.61123 0.0
H1378 H 0.4052 0.25317 0.58589 0.0
H1379 H 0.32563 0.14732 0.5121 0.0
Cu1380 Cu 0.59507 0.98971 0.19075 0.0
N1381 N 0.57814 0.95192 0.18921 0.0
N1382 N 0.55951 0.91018 0.17044 0.0
C1383 C 0.57336 0.93593 0.1645 0.0
C1384 C 0.55536 0.91 0.19996 0.0
C1385 C 0.56668 0.93584 0.21144 0.0
O1386 O 0.62325 0.98995 0.15773 0.0
C1387 C 0.53521 1.01215 0.18622 0.0
O1388 O 0.52687 0.98447 0.18767 0.0
H1389 H 0.58004 0.943 0.14265 0.0
H1390 H 0.56619 0.94264 0.23433 0.0
N1391 N 0.61576 0.99539 0.22682 0.0
N1392 N 0.6419 1.01451 0.26432 0.0
C1393 C 0.62682 1.02043 0.23917 0.0
C1394 C 0.62446 0.97339 0.2449 0.0
C1395 C 0.64018 0.98509 0.26814 0.0
C1396 C 0.65082 0.99525 0.16041 0.0
O1397 O 0.66103 1.0054 0.18556 0.0
H1398 H 0.62398 0.04229 0.22994 0.0
H1399 H 0.62018 0.95022 0.24115 0.0
O1400 O 0.56276 1.01876 0.18667 0.0
H1401 H 0.54489 0.89245 0.21239 0.0
H1402 H 0.65002 0.97291 0.28619 0.0
Cu1403 Cu 0.80834 0.34562 0.44021 0.0
N1404 N 0.84607 0.32854 0.43872 0.0
N1405 N 0.88776 0.30972 0.42003 0.0
C1406 C 0.86212 0.32376 0.41404 0.0
C1407 C 0.88781 0.30545 0.44953 0.0
C1408 C 0.86199 0.31689 0.46097 0.0
O1409 O 0.80824 0.37374 0.40714 0.0
C1410 C 0.78572 0.28583 0.43534 0.0
O1411 O 0.81341 0.27743 0.43594 0.0
H1412 H 0.85515 0.33055 0.3922 0.0
H1413 H 0.85511 0.31635 0.48382 0.0
N1414 N 0.80279 0.36641 0.47626 0.0
N1415 N 0.78385 0.39262 0.51381 0.0
C1416 C 0.77781 0.37752 0.48869 0.0
C1417 C 0.82488 0.37508 0.49424 0.0
C1418 C 0.81329 0.39085 0.5175 0.0
C1419 C 0.80309 0.40135 0.4098 0.0
O1420 O 0.79297 0.41162 0.43493 0.0
H1421 H 0.75591 0.3747 0.47956 0.0
H1422 H 0.84802 0.37072 0.49042 0.0
O1423 O 0.77917 0.31339 0.4363 0.0
H1424 H 0.90524 0.2948 0.46197 0.0
H1425 H 0.82556 0.40067 0.53551 0.0
Cu1426 Cu 0.45282 0.55805 0.69047 0.0
N1427 N 0.46972 0.59585 0.68896 0.0
N1428 N 0.48834 0.63761 0.67021 0.0
C1429 C 0.47448 0.61187 0.66425 0.0
C1430 C 0.49251 0.63776 0.69973 0.0
C1431 C 0.48119 0.61191 0.71119 0.0
O1432 O 0.42467 0.5578 0.65743 0.0
C1433 C 0.51273 0.5357 0.68581 0.0
O1434 O 0.52102 0.56341 0.68692 0.0
H1435 H 0.46779 0.60481 0.6424 0.0
H1436 H 0.48171 0.60509 0.73407 0.0
N1437 N 0.4321 0.55237 0.72653 0.0
N1438 N 0.40594 0.53326 0.76402 0.0
C1439 C 0.42105 0.52733 0.73889 0.0
C1440 C 0.42336 0.57438 0.74457 0.0
C1441 C 0.40762 0.56269 0.7678 0.0
C1442 C 0.39711 0.55246 0.66009 0.0
O1443 O 0.3869 0.54226 0.68522 0.0
H1444 H 0.42394 0.50546 0.7297 0.0
H1445 H 0.42762 0.59755 0.7408 0.0
O1446 O 0.48519 0.52904 0.68647 0.0
H1447 H 0.503 0.6553 0.71216 0.0
H1448 H 0.39776 0.57488 0.78584 0.0
Cu1449 Cu 0.23985 0.20197 0.94001 0.0
N1450 N 0.2021 0.219 0.93858 0.0
N1451 N 0.16037 0.23776 0.91992 0.0
C1452 C 0.18607 0.22385 0.9139 0.0
C1453 C 0.16026 0.24188 0.94945 0.0
C1454 C 0.18611 0.23047 0.96086 0.0
O1455 O 0.23993 0.1739 0.90691 0.0
C1456 C 0.26238 0.26181 0.93526 0.0
O1457 O 0.23467 0.27016 0.936 0.0
H1458 H 0.19308 0.21718 0.89203 0.0
H1459 H 0.19295 0.2309 0.98373 0.0
N1460 N 0.2454 0.1811 0.976 0.0
N1461 N 0.26435 0.15491 1.01356 0.0
C1462 C 0.27041 0.17014 0.98853 0.0
C1463 C 0.22329 0.17219 0.99383 0.0
C1464 C 0.23488 0.15644 1.01711 0.0
C1465 C 0.24547 0.14636 0.90943 0.0
O1466 O 0.25607 0.13617 0.9344 0.0
H1467 H 0.29234 0.17319 0.97955 0.0
H1468 H 0.20013 0.17639 0.98991 0.0
O1469 O 0.26897 0.23426 0.93612 0.0
H1470 H 0.14277 0.25239 0.96192 0.0
H1471 H 0.22259 0.14649 0.03503 0.0
Cu1472 Cu 0.85756 0.09543 0.55794 0.0
N1473 N 0.85909 0.07834 0.59565 0.0
N1474 N 0.87784 0.05951 0.63731 0.0
C1475 C 0.88378 0.07365 0.61172 0.0
C1476 C 0.84836 0.05508 0.63731 0.0
C1477 C 0.83689 0.06652 0.61151 0.0
O1478 O 0.8907 0.12346 0.55774 0.0
C1479 C 0.86272 0.03564 0.53531 0.0
O1480 O 0.86313 0.02728 0.56302 0.0
H1481 H 0.9056 0.08057 0.60479 0.0
H1482 H 0.81405 0.06588 0.6046 0.0
N1483 N 0.82156 0.11633 0.55253 0.0
N1484 N 0.78402 0.14265 0.5337 0.0
C1485 C 0.80911 0.12752 0.52759 0.0
C1486 C 0.80361 0.12496 0.57465 0.0
C1487 C 0.78035 0.1408 0.56314 0.0
C1488 C 0.88821 0.15098 0.55213 0.0
O1489 O 0.86323 0.16119 0.54155 0.0
H1490 H 0.81821 0.12474 0.50567 0.0
H1491 H 0.80743 0.1205 0.59778 0.0
O1492 O 0.86118 0.06317 0.52876 0.0
H1493 H 0.83596 0.04431 0.6547 0.0
H1494 H 0.76238 0.15062 0.57545 0.0
Cu1495 Cu 0.35739 0.9525 0.99019 0.0
N1496 N 0.35898 0.9697 0.95253 0.0
N1497 N 0.3778 0.98869 0.91097 0.0
C1498 C 0.38368 0.97433 0.93645 0.0
C1499 C 0.34834 0.9933 0.91103 0.0
C1500 C 0.33684 0.98176 0.93677 0.0
O1501 O 0.39056 0.92451 0.99042 0.0
C1502 C 0.36294 1.01222 1.01293 0.0
O1503 O 0.36433 1.02056 0.98524 0.0
H1504 H 0.40546 0.96725 0.94333 0.0
H1505 H 0.31401 0.98251 0.94373 0.0
N1506 N 0.32139 0.93157 0.99547 0.0
N1507 N 0.28383 0.90519 1.01416 0.0
C1508 C 0.30893 0.92026 1.02035 0.0
C1509 C 0.30343 0.92308 0.9733 0.0
C1510 C 0.28017 0.90719 0.98473 0.0
C1511 C 0.38808 0.89697 0.996 0.0
O1512 O 0.3631 0.88676 1.00657 0.0
H1513 H 0.31802 0.92293 0.04228 0.0
H1514 H 0.30725 0.92768 0.9502 0.0
O1515 O 0.36082 0.98472 1.01944 0.0
H1516 H 0.33599 1.00426 0.89374 0.0
H1517 H 0.26219 0.89746 0.97236 0.0
Cu1518 Cu 0.84492 0.10801 0.23956 0.0
N1519 N 0.82785 0.10965 0.20184 0.0
N1520 N 0.8092 0.12849 0.16015 0.0
C1521 C 0.82321 0.13437 0.18582 0.0
C1522 C 0.8048 0.09901 0.16004 0.0
C1523 C 0.81614 0.08748 0.18586 0.0
O1524 O 0.87312 0.14101 0.23979 0.0
C1525 C 0.78513 0.1128 0.26221 0.0
O1526 O 0.77671 0.11217 0.23452 0.0
H1527 H 0.8301 0.15618 0.19283 0.0
H1528 H 0.8155 0.06461 0.19269 0.0
N1529 N 0.86563 0.07191 0.24498 0.0
N1530 N 0.89182 0.03428 0.2638 0.0
C1531 C 0.87676 0.05941 0.26992 0.0
C1532 C 0.87424 0.05396 0.22285 0.0
C1533 C 0.89 0.03064 0.23436 0.0
C1534 C 0.90064 0.13837 0.24533 0.0
O1535 O 0.91075 0.11331 0.2558 0.0
H1536 H 0.874 0.06851 0.29184 0.0
H1537 H 0.86987 0.05783 0.19971 0.0
O1538 O 0.81269 0.11188 0.26874 0.0
H1539 H 0.79414 0.08664 0.14257 0.0
H1540 H 0.8998 1.01266 0.22204 0.0
Cu1541 Cu 0.69021 0.59545 0.48986 0.0
N1542 N 0.68868 0.57839 0.45213 0.0
N1543 N 0.66994 0.55958 0.41045 0.0
C1544 C 0.66399 0.57363 0.43609 0.0
C1545 C 0.69945 0.55529 0.41038 0.0
C1546 C 0.71091 0.56672 0.4362 0.0
O1547 O 0.6571 0.62351 0.49005 0.0
C1548 C 0.68529 0.53564 0.51244 0.0
O1549 O 0.68551 0.52727 0.48473 0.0
H1550 H 0.64215 0.58045 0.44307 0.0
H1551 H 0.73377 0.56616 0.44306 0.0
N1552 N 0.72622 0.61631 0.49535 0.0
N1553 N 0.76374 0.64258 0.51426 0.0
C1554 C 0.73866 0.62744 0.52032 0.0
C1555 C 0.74417 0.625 0.47325 0.0
C1556 C 0.76742 0.64081 0.48482 0.0
C1557 C 0.65962 0.65105 0.49559 0.0
O1558 O 0.68462 0.66125 0.50611 0.0
H1559 H 0.72955 0.6246 0.54223 0.0
H1560 H 0.74035 0.62062 0.45011 0.0
O1561 O 0.68645 0.56318 0.51901 0.0
H1562 H 0.71187 0.54464 0.39294 0.0
H1563 H 0.7854 0.65066 0.47254 0.0
Cu1564 Cu 0.70247 0.94056 0.7399 0.0
N1565 N 0.71944 0.93912 0.70212 0.0
N1566 N 0.7382 0.92046 0.66039 0.0
C1567 C 0.72429 0.91444 0.68608 0.0
C1568 C 0.74231 0.94998 0.66028 0.0
C1569 C 0.73091 0.9614 0.68612 0.0
O1570 O 0.67435 0.9075 0.74004 0.0
C1571 C 0.76234 0.93587 0.76233 0.0
O1572 O 0.77066 0.93696 0.73463 0.0
H1573 H 0.71762 0.89257 0.6931 0.0
H1574 H 0.73137 0.98427 0.69297 0.0
N1575 N 0.68169 0.9766 0.7456 0.0
N1576 N 0.65547 1.01406 0.76471 0.0
C1577 C 0.67062 0.98894 0.77064 0.0
C1578 C 0.67294 0.99463 0.72359 0.0
C1579 C 0.65717 1.01785 0.73528 0.0
C1580 C 0.64676 0.91013 0.74525 0.0
O1581 O 0.63649 0.93526 0.7554 0.0
H1582 H 0.6735 0.97975 0.79251 0.0
H1583 H 0.67723 0.99088 0.70042 0.0
O1584 O 0.73479 0.93655 0.76896 0.0
H1585 H 0.75283 0.96245 0.64279 0.0
H1586 H 0.6473 0.03588 0.72309 0.0
Cu1587 Cu 0.19018 0.95236 0.55802 0.0
N1588 N 0.1886 0.96939 0.59576 0.0
N1589 N 0.1698 0.98809 0.63745 0.0
C1590 C 0.16388 0.97414 0.61175 0.0
C1591 C 0.19931 0.99234 0.6376 0.0
C1592 C 0.21081 0.98097 0.61178 0.0
O1593 O 0.15707 0.9243 0.55777 0.0
C1594 C 0.18545 1.01218 0.53545 0.0
O1595 O 0.18595 1.02056 0.56315 0.0
H1596 H 0.14205 0.96737 0.6047 0.0
H1597 H 0.23369 0.9815 0.60497 0.0
N1598 N 0.22619 0.9315 0.55258 0.0
N1599 N 0.26372 0.90523 0.5337 0.0
C1600 C 0.23866 0.92041 0.52761 0.0
C1601 C 0.24408 0.92275 0.5747 0.0
C1602 C 0.26735 0.90694 0.56315 0.0
C1603 C 0.15954 0.89682 0.55196 0.0
O1604 O 0.18447 0.88669 0.54121 0.0
H1605 H 0.2296 0.92329 0.50569 0.0
H1606 H 0.24021 0.92708 0.59784 0.0
O1607 O 0.18641 0.98464 0.52887 0.0
H1608 H 0.2117 1.00292 0.6551 0.0
H1609 H 0.28529 0.89705 0.57544 0.0
Cu1610 Cu 0.84558 0.44047 0.30803 0.0
N1611 N 0.82865 0.43908 0.34582 0.0
N1612 N 0.80995 0.42047 0.38761 0.0
C1613 C 0.82376 0.41441 0.36186 0.0
C1614 C 0.80594 0.45001 0.38774 0.0
C1615 C 0.8173 0.46139 0.36187 0.0
O1616 O 0.87369 0.40741 0.30791 0.0
C1617 C 0.78568 0.43598 0.28564 0.0
O1618 O 0.77737 0.43751 0.31332 0.0
H1619 H 0.83034 0.39253 0.35482 0.0
H1620 H 0.8169 0.48427 0.35504 0.0
N1621 N 0.86636 0.47649 0.30227 0.0
N1622 N 0.89252 0.51395 0.28309 0.0
C1623 C 0.87734 0.48885 0.27719 0.0
C1624 C 0.87521 0.4945 0.32426 0.0
C1625 C 0.89095 0.51771 0.31252 0.0
C1626 C 0.90127 0.41001 0.30262 0.0
O1627 O 0.91152 0.4351 0.29236 0.0
H1628 H 0.87435 0.47969 0.25533 0.0
H1629 H 0.87102 0.49073 0.34744 0.0
O1630 O 0.81323 0.43638 0.279 0.0
H1631 H 0.79552 0.46251 0.40527 0.0
H1632 H 0.90087 0.53573 0.32469 0.0
Cu1633 Cu 0.20258 0.10702 0.80791 0.0
N1634 N 0.21966 0.1085 0.84563 0.0
N1635 N 0.23856 0.12721 0.88728 0.0
C1636 C 0.22437 0.13317 0.86172 0.0
C1637 C 0.24299 0.09772 0.88725 0.0
C1638 C 0.2315 0.08628 0.86145 0.0
O1639 O 0.17456 0.14018 0.80771 0.0
C1640 C 0.26238 0.11232 0.78535 0.0
O1641 O 0.2707 0.11287 0.81307 0.0
H1642 H 0.21745 0.15499 0.85481 0.0
H1643 H 0.23217 0.06345 0.8545 0.0
N1644 N 0.18171 0.07102 0.8024 0.0
N1645 N 0.1554 0.03353 0.78348 0.0
C1646 C 0.17049 0.05865 0.77744 0.0
C1647 C 0.17312 0.05299 0.82448 0.0
C1648 C 0.15728 0.02976 0.8129 0.0
C1649 C 0.14698 0.13762 0.8024 0.0
O1650 O 0.13669 0.11254 0.79215 0.0
H1651 H 0.17324 0.06782 0.75555 0.0
H1652 H 0.1776 0.05674 0.84761 0.0
O1653 O 0.23487 0.11067 0.77876 0.0
H1654 H 0.2538 0.08531 0.9046 0.0
H1655 H 0.14751 1.01174 0.82517 0.0
Cu1656 Cu 0.55821 0.85773 0.09547 0.0
N1657 N 0.59597 0.8593 0.07848 0.0
N1658 N 0.63771 0.87808 0.05985 0.0
C1659 C 0.61198 0.88401 0.07375 0.0
C1660 C 0.63785 0.84857 0.0556 0.0
C1661 C 0.61201 0.83708 0.06693 0.0
O1662 O 0.55802 0.89072 0.12368 0.0
C1663 C 0.53566 0.86238 0.03564 0.0
O1664 O 0.56335 0.86118 0.02726 0.0
H1665 H 0.60493 0.90584 0.08051 0.0
H1666 H 0.6052 0.81421 0.06638 0.0
N1667 N 0.55263 0.82164 0.11615 0.0
N1668 N 0.53363 0.78404 0.14223 0.0
C1669 C 0.52762 0.80918 0.12717 0.0
C1670 C 0.57469 0.80365 0.12485 0.0
C1671 C 0.56307 0.78035 0.14054 0.0
C1672 C 0.55274 0.88802 0.15125 0.0
O1673 O 0.54255 0.86288 0.16143 0.0
H1674 H 0.50572 0.81831 0.1243 0.0
H1675 H 0.59785 0.80748 0.12058 0.0
O1676 O 0.5291 0.86177 0.0632 0.0
H1677 H 0.65537 0.83617 0.04506 0.0
H1678 H 0.57532 0.76233 0.15036 0.0
Cu1679 Cu 0.44014 0.80801 0.345 0.0
N1680 N 0.43848 0.84574 0.32794 0.0
N1681 N 0.41961 0.88739 0.30921 0.0
C1682 C 0.41375 0.86176 0.32332 0.0
C1683 C 0.44909 0.88746 0.30473 0.0
C1684 C 0.46063 0.86167 0.31612 0.0
O1685 O 0.40709 0.80771 0.37313 0.0
C1686 C 0.43514 0.78539 0.2852 0.0
O1687 O 0.43516 0.8131 0.27682 0.0
H1688 H 0.39196 0.85478 0.33026 0.0
H1689 H 0.48349 0.8548 0.31542 0.0
N1690 N 0.47622 0.8026 0.36575 0.0
N1691 N 0.51381 0.78377 0.39198 0.0
C1692 C 0.48867 0.77767 0.37695 0.0
C1693 C 0.49422 0.82472 0.37429 0.0
C1694 C 0.51751 0.81319 0.39008 0.0
C1695 C 0.40971 0.80223 0.40067 0.0
O1696 O 0.43479 0.79188 0.41084 0.0
H1697 H 0.47952 0.75576 0.37424 0.0
H1698 H 0.49041 0.84785 0.36983 0.0
O1699 O 0.43641 0.77884 0.31274 0.0
H1700 H 0.46144 0.90489 0.29398 0.0
H1701 H 0.53553 0.8255 0.39984 0.0
Cu1702 Cu 0.48961 0.69012 0.59529 0.0
N1703 N 0.45183 0.68856 0.57832 0.0
N1704 N 0.4101 0.66979 0.55969 0.0
C1705 C 0.43584 0.66385 0.57356 0.0
C1706 C 0.40992 0.6993 0.55551 0.0
C1707 C 0.43577 0.71079 0.56684 0.0
O1708 O 0.48982 0.6571 0.62346 0.0
C1709 C 0.51209 0.68557 0.53542 0.0
O1710 O 0.4844 0.68681 0.52707 0.0
H1711 H 0.44291 0.64201 0.58027 0.0
H1712 H 0.44256 0.73367 0.56633 0.0
N1713 N 0.49519 0.72619 0.61602 0.0
N1714 N 0.51417 0.76376 0.64217 0.0
C1715 C 0.52019 0.73865 0.62705 0.0
C1716 C 0.47311 0.74414 0.62477 0.0
C1717 C 0.48472 0.76742 0.6405 0.0
C1718 C 0.49511 0.65978 0.65103 0.0
O1719 O 0.50531 0.68491 0.66123 0.0
H1720 H 0.54209 0.72955 0.62415 0.0
H1721 H 0.44995 0.74029 0.62051 0.0
O1722 O 0.51869 0.68613 0.56298 0.0
H1723 H 0.39239 0.71172 0.545 0.0
H1724 H 0.47247 0.78542 0.65037 0.0
Cu1725 Cu 0.60741 0.74002 0.84514 0.0
N1726 N 0.60906 0.70229 0.8281 0.0
N1727 N 0.62793 0.66064 0.80938 0.0
C1728 C 0.63379 0.68627 0.82349 0.0
C1729 C 0.59846 0.66056 0.80489 0.0
C1730 C 0.58692 0.68636 0.81627 0.0
O1731 O 0.64051 0.74035 0.87322 0.0
C1732 C 0.6125 0.76259 0.78532 0.0
O1733 O 0.61279 0.73487 0.77698 0.0
H1734 H 0.65558 0.69326 0.83043 0.0
H1735 H 0.56405 0.69322 0.81557 0.0
N1736 N 0.57136 0.7454 0.86596 0.0
N1737 N 0.5338 0.7642 0.89225 0.0
C1738 C 0.55891 0.77032 0.87717 0.0
C1739 C 0.5534 0.72327 0.87453 0.0
C1740 C 0.53012 0.73477 0.89036 0.0
C1741 C 0.63795 0.74595 0.90074 0.0
O1742 O 0.61292 0.75644 0.9109 0.0
H1743 H 0.56802 0.79224 0.87445 0.0
H1744 H 0.55723 0.70014 0.87006 0.0
O1745 O 0.61104 0.76917 0.81285 0.0
H1746 H 0.58612 0.64313 0.79413 0.0
H1747 H 0.51214 0.72244 0.90014 0.0
Cu1748 Cu 0.55816 0.19046 0.95354 0.0
N1749 N 0.59587 0.18886 0.97064 0.0
N1750 N 0.63751 0.17006 0.98945 0.0
C1751 C 0.61198 0.16418 0.97517 0.0
C1752 C 0.63743 0.1995 0.99412 0.0
C1753 C 0.61164 0.211 0.98269 0.0
O1754 O 0.55788 0.15734 0.92545 0.0
C1755 C 0.53554 0.18511 1.01332 0.0
O1756 O 0.56325 0.18426 1.02165 0.0
H1757 H 0.60512 0.1424 0.96806 0.0
H1758 H 0.60466 0.23382 0.98352 0.0
N1759 N 0.55279 0.22651 0.93273 0.0
N1760 N 0.534 0.26404 0.90641 0.0
C1761 C 0.52789 0.23888 0.92139 0.0
C1762 C 0.5749 0.24458 0.92435 0.0
C1763 C 0.5634 0.26784 0.90849 0.0
C1764 C 0.5525 0.15995 0.89789 0.0
O1765 O 0.54224 0.18505 0.88768 0.0
H1766 H 0.50599 0.22966 0.92396 0.0
H1767 H 0.59801 0.24085 0.92895 0.0
O1768 O 0.52898 0.18689 0.98581 0.0
H1769 H 0.65475 0.21185 1.00505 0.0
H1770 H 0.57572 0.28588 0.8988 0.0
Cu1771 Cu 0.10717 0.80774 0.20261 0.0
N1772 N 0.10879 0.8454 0.21978 0.0
N1773 N 0.12766 0.88697 0.23869 0.0
C1774 C 0.13349 0.86149 0.2243 0.0
C1775 C 0.09822 0.88689 0.24343 0.0
C1776 C 0.08669 0.86114 0.23194 0.0
O1777 O 0.14035 0.80744 0.17461 0.0
C1778 C 0.11277 0.78502 0.26233 0.0
O1779 O 0.11439 0.8127 0.27065 0.0
H1780 H 0.15525 0.85463 0.21714 0.0
H1781 H 0.06387 0.85416 0.2328 0.0
N1782 N 0.07115 0.8025 0.1817 0.0
N1783 N 0.03359 0.78384 0.15532 0.0
C1784 C 0.05872 0.77765 0.17033 0.0
C1785 C 0.05315 0.82468 0.17331 0.0
C1786 C 0.02988 0.81326 0.15741 0.0
C1787 C 0.13785 0.80186 0.14708 0.0
O1788 O 0.11284 0.79137 0.13687 0.0
H1789 H 0.06786 0.75572 0.1729 0.0
H1790 H 0.05695 0.84777 0.17797 0.0
O1791 O 0.11053 0.7785 0.23484 0.0
H1792 H 0.08591 0.90417 0.25447 0.0
H1793 H 1.01188 0.82564 0.14772 0.0
Cu1794 Cu 0.48976 0.3574 0.45331 0.0
N1795 N 0.45207 0.359 0.47044 0.0
N1796 N 0.41043 0.3778 0.48924 0.0
C1797 C 0.43594 0.38368 0.47494 0.0
C1798 C 0.41052 0.34837 0.49395 0.0
C1799 C 0.43632 0.33687 0.48252 0.0
O1800 O 0.49002 0.39048 0.42519 0.0
C1801 C 0.51245 0.36283 0.51305 0.0
O1802 O 0.48475 0.36365 0.52142 0.0
H1803 H 0.44279 0.40545 0.4678 0.0
H1804 H 0.44331 0.31405 0.48338 0.0
N1805 N 0.49515 0.32132 0.43256 0.0
N1806 N 0.51397 0.28375 0.40631 0.0
C1807 C 0.52006 0.30895 0.42124 0.0
C1808 C 0.47305 0.30321 0.42421 0.0
C1809 C 0.48457 0.27993 0.40839 0.0
C1810 C 0.49537 0.38784 0.39762 0.0
O1811 O 0.5056 0.36272 0.38742 0.0
H1812 H 0.54195 0.3182 0.42378 0.0
H1813 H 0.44994 0.30693 0.42882 0.0
O1814 O 0.51897 0.36103 0.48553 0.0
H1815 H 0.39322 0.33602 0.50491 0.0
H1816 H 0.47227 0.26186 0.39874 0.0
Cu1817 Cu 0.9404 0.73993 0.70278 0.0
N1818 N 0.93876 0.70227 0.71998 0.0
N1819 N 0.9199 0.66072 0.73892 0.0
C1820 C 0.91406 0.68618 0.72451 0.0
C1821 C 0.94933 0.6608 0.74365 0.0
C1822 C 0.96087 0.68655 0.73214 0.0
O1823 O 0.90726 0.74021 0.67473 0.0
C1824 C 0.93485 0.76271 0.76248 0.0
O1825 O 0.93346 0.73503 0.77084 0.0
H1826 H 0.8923 0.69303 0.71734 0.0
H1827 H 0.98369 0.69353 0.733 0.0
N1828 N 0.97644 0.74518 0.68193 0.0
N1829 N 1.01402 0.76387 0.6556 0.0
C1830 C 0.98887 0.77004 0.67057 0.0
C1831 C 0.99447 0.72302 0.67358 0.0
C1832 C 1.01776 0.73446 0.65771 0.0
C1833 C 0.90982 0.74567 0.64718 0.0
O1834 O 0.93488 0.75603 0.63696 0.0
H1835 H 0.9797 0.79196 0.67313 0.0
H1836 H 0.9907 0.69993 0.67823 0.0
O1837 O 0.93696 0.76919 0.73498 0.0
H1838 H 0.96165 0.64353 0.75468 0.0
H1839 H 0.03579 0.7221 0.64806 0.0
Cu1840 Cu 0.59513 0.55833 0.35777 0.0
N1841 N 0.57793 0.59599 0.35936 0.0
N1842 N 0.55906 0.63762 0.37814 0.0
C1843 C 0.57329 0.61207 0.38405 0.0
C1844 C 0.55454 0.63759 0.34868 0.0
C1845 C 0.56601 0.61181 0.33719 0.0
O1846 O 0.62322 0.55817 0.39087 0.0
C1847 C 0.5354 0.53554 0.36295 0.0
O1848 O 0.52696 0.56323 0.36333 0.0
H1849 H 0.5803 0.60517 0.40585 0.0
H1850 H 0.56531 0.60488 0.31435 0.0
N1851 N 0.61596 0.55299 0.32172 0.0
N1852 N 0.64229 0.53427 0.28415 0.0
C1853 C 0.62723 0.5281 0.30926 0.0
C1854 C 0.62447 0.57515 0.30377 0.0
C1855 C 0.64032 0.5637 0.28049 0.0
C1856 C 0.65078 0.55274 0.38829 0.0
O1857 O 0.66099 0.54233 0.36324 0.0
H1858 H 0.62456 0.50617 0.31836 0.0
H1859 H 0.61994 0.59826 0.3076 0.0
O1860 O 0.56294 0.52906 0.36143 0.0
H1861 H 0.54369 0.65494 0.3363 0.0
H1862 H 0.65007 0.57606 0.26251 0.0
Cu1863 Cu 0.73969 0.84564 0.60773 0.0
N1864 N 0.70196 0.82859 0.6092 0.0
N1865 N 0.66025 0.80979 0.62789 0.0
C1866 C 0.6859 0.82382 0.63388 0.0
C1867 C 0.6602 0.80553 0.59839 0.0
C1868 C 0.68603 0.81695 0.58696 0.0
O1869 O 0.73982 0.87373 0.64083 0.0
C1870 C 0.76225 0.78581 0.61262 0.0
O1871 O 0.73454 0.77745 0.61219 0.0
H1872 H 0.69287 0.83061 0.65573 0.0
H1873 H 0.69291 0.81641 0.5641 0.0
N1874 N 0.74523 0.86646 0.5717 0.0
N1875 N 0.76415 0.89269 0.53416 0.0
C1876 C 0.77021 0.87755 0.55925 0.0
C1877 C 0.72313 0.87519 0.55377 0.0
C1878 C 0.73471 0.89097 0.53051 0.0
C1879 C 0.74507 0.90132 0.63821 0.0
O1880 O 0.7553 0.91157 0.61311 0.0
H1881 H 0.79213 0.87468 0.56834 0.0
H1882 H 0.69999 0.87085 0.55761 0.0
O1883 O 0.76883 0.81335 0.61157 0.0
H1884 H 0.64277 0.79489 0.58595 0.0
H1885 H 0.72242 0.90082 0.51253 0.0
Cu1886 Cu 0.45255 0.98972 0.85821 0.0
N1887 N 0.46965 0.95202 0.85971 0.0
N1888 N 0.48842 0.91031 0.87841 0.0
C1889 C 0.47438 0.93594 0.88439 0.0
C1890 C 0.49275 0.91028 0.84891 0.0
C1891 C 0.48134 0.93611 0.83748 0.0
O1892 O 0.4245 0.98985 0.89133 0.0
C1893 C 0.51236 1.01236 0.86319 0.0
O1894 O 0.52074 0.98465 0.86318 0.0
H1895 H 0.46753 0.94289 0.90623 0.0
H1896 H 0.4819 0.94301 0.81463 0.0
N1897 N 0.43165 0.99513 0.82222 0.0
N1898 N 0.40539 1.01392 0.78463 0.0
C1899 C 0.42058 1.02007 0.80967 0.0
C1900 C 0.42286 0.97296 0.8044 0.0
C1901 C 0.40705 0.98445 0.78111 0.0
C1902 C 0.39699 0.99558 0.88885 0.0
O1903 O 0.38686 1.00639 0.86395 0.0
H1904 H 0.42352 0.04202 0.81864 0.0
H1905 H 0.42718 0.94983 0.80834 0.0
O1906 O 0.48481 1.01891 0.86192 0.0
H1907 H 0.50341 0.89286 0.83648 0.0
H1908 H 0.39716 0.97211 0.7632 0.0
Cu1909 Cu 0.30812 0.70211 0.10761 0.0
N1910 N 0.34584 0.7192 0.1091 0.0
N1911 N 0.38752 0.73802 0.12781 0.0
C1912 C 0.36187 0.724 0.13379 0.0
C1913 C 0.3876 0.74225 0.0983 0.0
C1914 C 0.36178 0.73081 0.08686 0.0
O1915 O 0.30801 0.67401 0.1407 0.0
C1916 C 0.28548 0.76189 0.11246 0.0
O1917 O 0.31318 0.7703 0.11191 0.0
H1918 H 0.35489 0.71722 0.15564 0.0
H1919 H 0.35492 0.73132 0.064 0.0
N1920 N 0.30261 0.68128 0.07159 0.0
N1921 N 0.28371 0.65507 0.03402 0.0
C1922 C 0.27764 0.67021 0.0591 0.0
C1923 C 0.32472 0.67254 0.05367 0.0
C1924 C 0.31316 0.65677 0.03039 0.0
C1925 C 0.30267 0.64644 0.13811 0.0
O1926 O 0.29232 0.6362 0.11305 0.0
H1927 H 0.25571 0.67311 0.06816 0.0
H1928 H 0.34787 0.67686 0.05754 0.0
O1929 O 0.27894 0.73434 0.11148 0.0
H1930 H 0.40504 0.75288 0.08587 0.0
H1931 H 0.32545 0.64691 1.01243 0.0
Cu1932 Cu 0.59538 0.48996 0.69062 0.0
N1933 N 0.57838 0.45221 0.68917 0.0
N1934 N 0.55962 0.4105 0.67047 0.0
C1935 C 0.57367 0.43613 0.6645 0.0
C1936 C 0.55528 0.41048 0.69996 0.0
C1937 C 0.56668 0.43631 0.7114 0.0
O1938 O 0.62341 0.49018 0.65748 0.0
C1939 C 0.53552 0.51241 0.68554 0.0
O1940 O 0.52723 0.48467 0.68543 0.0
H1941 H 0.58051 0.44308 0.64266 0.0
H1942 H 0.56607 0.44323 0.73424 0.0
N1943 N 0.61623 0.49552 0.72661 0.0
N1944 N 0.64245 0.51451 0.76412 0.0
C1945 C 0.62733 0.52051 0.73901 0.0
C1946 C 0.62492 0.47346 0.74461 0.0
C1947 C 0.64071 0.48508 0.76786 0.0
C1948 C 0.65097 0.49562 0.66003 0.0
O1949 O 0.66121 0.50599 0.68507 0.0
H1950 H 0.62448 0.54241 0.72986 0.0
H1951 H 0.62055 0.45031 0.74084 0.0
O1952 O 0.56304 0.51904 0.6869 0.0
H1953 H 0.54459 0.39306 0.71239 0.0
H1954 H 0.65054 0.47284 0.78588 0.0
Cu1955 Cu 0.80815 0.84578 0.94032 0.0
N1956 N 0.84587 0.82872 0.93881 0.0
N1957 N 0.88756 0.80996 0.92006 0.0
C1958 C 0.86187 0.82392 0.91411 0.0
C1959 C 0.88769 0.80575 0.94957 0.0
C1960 C 0.86187 0.81716 0.96104 0.0
O1961 O 0.80799 0.87386 0.90724 0.0
C1962 C 0.78553 0.78599 0.93552 0.0
O1963 O 0.81323 0.7776 0.93613 0.0
H1964 H 0.85484 0.83067 0.89227 0.0
H1965 H 0.85505 0.81666 0.98392 0.0
N1966 N 0.80265 0.8666 0.97634 0.0
N1967 N 0.78373 0.89277 1.01391 0.0
C1968 C 0.77767 0.87762 0.98884 0.0
C1969 C 0.82476 0.87539 0.99423 0.0
C1970 C 0.81318 0.89114 1.01752 0.0
C1971 C 0.8024 0.90139 0.90977 0.0
O1972 O 0.79185 0.91157 0.93476 0.0
H1973 H 0.75575 0.87468 0.97979 0.0
H1974 H 0.84791 0.87111 0.99035 0.0
O1975 O 0.77898 0.81354 0.93647 0.0
H1976 H 0.90519 0.79518 0.96199 0.0
H1977 H 0.82547 0.90102 0.03548 0.0
Cu1978 Cu 0.45268 0.05807 0.19107 0.0
N1979 N 0.46976 0.09579 0.18956 0.0
N1980 N 0.48861 0.13743 0.17079 0.0
C1981 C 0.47441 0.11187 0.16487 0.0
C1982 C 0.49311 0.13741 0.20026 0.0
C1983 C 0.48165 0.11162 0.21174 0.0
O1984 O 0.42462 0.05783 0.15794 0.0
C1985 C 0.51246 0.03548 0.1858 0.0
O1986 O 0.5208 0.0632 0.18535 0.0
H1987 H 0.46744 0.10496 0.14306 0.0
H1988 H 0.48238 0.10467 0.23457 0.0
N1989 N 0.43188 0.05258 0.22711 0.0
N1990 N 0.40561 0.03363 0.2646 0.0
C1991 C 0.42061 0.02762 0.23943 0.0
C1992 C 0.42342 0.07463 0.24523 0.0
C1993 C 0.4076 0.06303 0.26846 0.0
C1994 C 0.39702 0.05266 0.16057 0.0
O1995 O 0.38671 0.04265 0.18574 0.0
H1996 H 0.42325 1.00575 0.23017 0.0
H1997 H 0.42796 0.09776 0.24154 0.0
O1998 O 0.48494 0.02892 0.18738 0.0
H1999 H 0.50396 0.15476 0.21264 0.0
H2000 H 0.39789 0.07528 0.28654 0.0
Cu2001 Cu 0.23966 0.70218 0.44021 0.0
N2002 N 0.20192 0.7192 0.4387 0.0
N2003 N 0.16022 0.73793 0.41996 0.0
C2004 C 0.1859 0.72397 0.414 0.0
C2005 C 0.1601 0.74217 0.44946 0.0
C2006 C 0.18592 0.73078 0.46093 0.0
O2007 O 0.23985 0.6741 0.40712 0.0
C2008 C 0.26219 0.76201 0.43541 0.0
O2009 O 0.23448 0.77037 0.43593 0.0
H2010 H 0.19292 0.71721 0.39216 0.0
H2011 H 0.19276 0.73131 0.48381 0.0
N2012 N 0.24517 0.68136 0.47623 0.0
N2013 N 0.2641 0.65515 0.51378 0.0
C2014 C 0.27016 0.67031 0.48871 0.0
C2015 C 0.22307 0.67259 0.49414 0.0
C2016 C 0.23465 0.65682 0.51741 0.0
C2017 C 0.24534 0.64656 0.40968 0.0
O2018 O 0.25578 0.63636 0.43471 0.0
H2019 H 0.29207 0.67322 0.47964 0.0
H2020 H 0.19992 0.67689 0.49028 0.0
O2021 O 0.26879 0.73447 0.43639 0.0
H2022 H 0.14261 0.75276 0.46188 0.0
H2023 H 0.22237 0.64694 0.53538 0.0
Cu2024 Cu 0.85743 0.59539 0.05765 0.0
N2025 N 0.85907 0.57823 0.09533 0.0
N2026 N 0.87795 0.55934 0.1369 0.0
C2027 C 0.88379 0.5736 0.11135 0.0
C2028 C 0.84848 0.55479 0.13692 0.0
C2029 C 0.83694 0.56627 0.11117 0.0
O2030 O 0.89061 0.62336 0.05736 0.0
C2031 C 0.86282 0.53565 0.03494 0.0
O2032 O 0.86401 0.52731 0.06264 0.0
H2033 H 0.90557 0.58063 0.10441 0.0
H2034 H 0.81409 0.56554 0.10427 0.0
N2035 N 0.82145 0.61634 0.05242 0.0
N2036 N 0.78388 0.64273 0.03377 0.0
C2037 C 0.80894 0.6276 0.02756 0.0
C2038 C 0.80356 0.62491 0.07462 0.0
C2039 C 0.78029 0.64081 0.06321 0.0
C2040 C 0.8882 0.65084 0.05148 0.0
O2041 O 0.86331 0.66098 0.04064 0.0
H2042 H 0.81798 0.62487 1.0056 0.0
H2043 H 0.80744 0.62038 0.09773 0.0
O2044 O 0.86084 0.56316 0.02842 0.0
H2045 H 0.83615 0.5439 0.15428 0.0
H2046 H 0.76235 0.6506 0.0756 0.0
Cu2047 Cu 0.35753 0.45247 0.48988 0.0
N2048 N 0.35913 0.46956 0.45217 0.0
N2049 N 0.37796 0.48835 0.41054 0.0
C2050 C 0.38385 0.47423 0.43615 0.0
C2051 C 0.34848 0.49278 0.41047 0.0
C2052 C 0.33696 0.48136 0.43626 0.0
O2053 O 0.39068 0.42446 0.49015 0.0
C2054 C 0.36263 0.51224 0.51253 0.0
O2055 O 0.36307 0.52061 0.48482 0.0
H2056 H 0.40565 0.46732 0.44313 0.0
H2057 H 0.3141 0.482 0.44312 0.0
N2058 N 0.32154 0.43156 0.49522 0.0
N2059 N 0.28399 0.40526 0.514 0.0
C2060 C 0.30906 0.42039 0.52014 0.0
C2061 C 0.30363 0.42292 0.47307 0.0
C2062 C 0.28036 0.40708 0.48456 0.0
C2063 C 0.38824 0.39698 0.49599 0.0
O2064 O 0.36333 0.38683 0.50676 0.0
H2065 H 0.31812 0.42319 0.54207 0.0
H2066 H 0.30749 0.42736 0.44994 0.0
O2067 O 0.3611 0.48472 0.51907 0.0
H2068 H 0.33612 0.50354 0.39305 0.0
H2069 H 0.2624 0.39725 0.47223 0.0
Cu2070 Cu 0.84516 0.60793 0.73966 0.0
N2071 N 0.82802 0.60954 0.70197 0.0
N2072 N 0.80922 0.62835 0.66033 0.0
C2073 C 0.82333 0.63425 0.68595 0.0
C2074 C 0.80481 0.59887 0.66027 0.0
C2075 C 0.81625 0.58736 0.68606 0.0
O2076 O 0.87322 0.64104 0.73986 0.0
C2077 C 0.78541 0.61299 0.76239 0.0
O2078 O 0.777 0.61324 0.73469 0.0
H2079 H 0.83024 0.65606 0.69292 0.0
H2080 H 0.81563 0.5645 0.69292 0.0
N2081 N 0.86606 0.57192 0.74496 0.0
N2082 N 0.89238 0.53433 0.76367 0.0
C2083 C 0.87722 0.55938 0.76986 0.0
C2084 C 0.87475 0.55409 0.72277 0.0
C2085 C 0.8906 0.5308 0.73421 0.0
C2086 C 0.90069 0.63859 0.74574 0.0
O2087 O 0.91079 0.61371 0.75662 0.0
H2088 H 0.87438 0.56837 0.79182 0.0
H2089 H 0.87035 0.55802 0.69965 0.0
O2090 O 0.81295 0.61156 0.7689 0.0
H2091 H 0.79408 0.58649 0.64284 0.0
H2092 H 0.90045 0.51288 0.72184 0.0
Cu2093 Cu 0.69037 0.09538 0.99013 0.0
N2094 N 0.68874 0.07825 0.95244 0.0
N2095 N 0.66986 0.05939 0.91086 0.0
C2096 C 0.664 0.07357 0.93644 0.0
C2097 C 0.69934 0.05493 0.91078 0.0
C2098 C 0.71088 0.0664 0.93654 0.0
O2099 O 0.65723 0.1234 0.99042 0.0
C2100 C 0.68521 0.03562 1.01281 0.0
O2101 O 0.68461 0.02725 0.98511 0.0
H2102 H 0.64221 0.08051 0.94342 0.0
H2103 H 0.73375 0.06574 0.9434 0.0
N2104 N 0.72637 0.11628 0.99544 0.0
N2105 N 0.76393 0.14263 1.01417 0.0
C2106 C 0.73886 0.1275 1.02034 0.0
C2107 C 0.74428 0.12489 0.97327 0.0
C2108 C 0.76755 0.14075 0.98473 0.0
C2109 C 0.65968 0.15088 0.99621 0.0
O2110 O 0.68462 0.16103 1.00695 0.0
H2111 H 0.72981 0.12474 0.04227 0.0
H2112 H 0.74042 0.1204 0.95015 0.0
O2113 O 0.68684 0.06314 1.01935 0.0
H2114 H 0.71169 0.04414 0.89338 0.0
H2115 H 0.7855 0.15056 0.97237 0.0
Cu2116 Cu 0.70309 0.44088 0.2398 0.0
N2117 N 0.72013 0.43933 0.20207 0.0
N2118 N 0.73893 0.42056 0.16041 0.0
C2119 C 0.72472 0.41465 0.18596 0.0
C2120 C 0.74351 0.45001 0.16046 0.0
C2121 C 0.73208 0.46149 0.18626 0.0
O2122 O 0.67498 0.40778 0.24007 0.0
C2123 C 0.76291 0.43554 0.26233 0.0
O2124 O 0.77122 0.43501 0.23461 0.0
H2125 H 0.7177 0.39285 0.19286 0.0
H2126 H 0.73287 0.48432 0.19323 0.0
N2127 N 0.68233 0.47695 0.24532 0.0
N2128 N 0.65608 0.51447 0.26424 0.0
C2129 C 0.67105 0.48928 0.27027 0.0
C2130 C 0.67391 0.49508 0.22326 0.0
C2131 C 0.6581 0.51832 0.23484 0.0
C2132 C 0.64737 0.41048 0.24513 0.0
O2133 O 0.63708 0.4357 0.25503 0.0
H2134 H 0.67366 0.48001 0.29214 0.0
H2135 H 0.67846 0.49138 0.20013 0.0
O2136 O 0.73539 0.43717 0.26893 0.0
H2137 H 0.75438 0.46238 0.14312 0.0
H2138 H 0.64842 0.53641 0.22259 0.0
Cu2139 Cu 0.19035 0.45239 0.05772 0.0
N2140 N 0.18878 0.46952 0.09542 0.0
N2141 N 0.16999 0.48841 0.13704 0.0
C2142 C 0.16408 0.47423 0.11147 0.0
C2143 C 0.19947 0.49283 0.13706 0.0
C2144 C 0.21096 0.48135 0.11129 0.0
O2145 O 0.15722 0.42435 0.05752 0.0
C2146 C 0.18517 0.51217 0.03507 0.0
O2147 O 0.18473 0.52053 0.06277 0.0
H2148 H 0.14226 0.4673 0.10452 0.0
H2149 H 0.23381 0.482 0.10439 0.0
N2150 N 0.22636 0.43151 0.05234 0.0
N2151 N 0.2639 0.40516 0.03355 0.0
C2152 C 0.23882 0.42027 0.02742 0.0
C2153 C 0.24431 0.42291 0.07448 0.0
C2154 C 0.26756 0.40704 0.06299 0.0
C2155 C 0.15974 0.39681 0.05197 0.0
O2156 O 0.18473 0.38661 0.04144 0.0
H2157 H 0.22972 0.42302 1.00549 0.0
H2158 H 0.24048 0.42739 0.0976 0.0
O2159 O 0.18672 0.48464 0.02852 0.0
H2160 H 0.21186 0.50363 0.15444 0.0
H2161 H 0.28553 0.39724 0.07532 0.0
Cu2162 Cu 0.84495 0.94077 0.80813 0.0
N2163 N 0.82794 0.93927 0.84589 0.0
N2164 N 0.80921 0.92055 0.8876 0.0
C2165 C 0.82332 0.9146 0.86199 0.0
C2166 C 0.80473 0.95002 0.88757 0.0
C2167 C 0.81612 0.96147 0.86174 0.0
O2168 O 0.87306 0.90768 0.8079 0.0
C2169 C 0.78511 0.93561 0.78565 0.0
O2170 O 0.77679 0.93552 0.81338 0.0
H2171 H 0.83026 0.89278 0.85507 0.0
H2172 H 0.8154 0.9843 0.85479 0.0
N2173 N 0.8657 0.97683 0.80256 0.0
N2174 N 0.89189 1.01435 0.78356 0.0
C2175 C 0.87689 0.98917 0.77758 0.0
C2176 C 0.87422 0.99494 0.8246 0.0
C2177 C 0.88999 1.01819 0.81297 0.0
C2178 C 0.90067 0.91036 0.80278 0.0
O2179 O 0.91095 0.93555 0.7928 0.0
H2180 H 0.87419 0.97992 0.75571 0.0
H2181 H 0.86976 0.99123 0.84774 0.0
O2182 O 0.81263 0.93698 0.77904 0.0
H2183 H 0.79396 0.96242 0.90496 0.0
H2184 H 0.89972 0.03627 0.8252 0.0
Cu2185 Cu 0.20283 0.60715 0.30802 0.0
N2186 N 0.21981 0.60866 0.34579 0.0
N2187 N 0.23853 0.62739 0.38751 0.0
C2188 C 0.22449 0.63334 0.36186 0.0
C2189 C 0.2429 0.5979 0.38754 0.0
C2190 C 0.23153 0.58645 0.3617 0.0
O2191 O 0.17467 0.64019 0.3078 0.0
C2192 C 0.2627 0.61209 0.28556 0.0
O2193 O 0.27102 0.61155 0.31328 0.0
H2194 H 0.21764 0.65517 0.3549 0.0
H2195 H 0.23218 0.5636 0.3548 0.0
N2196 N 0.18214 0.57106 0.30238 0.0
N2197 N 0.15597 0.53354 0.28332 0.0
C2198 C 0.17098 0.55874 0.27737 0.0
C2199 C 0.1736 0.55294 0.32439 0.0
C2200 C 0.15785 0.52969 0.31273 0.0
C2201 C 0.14705 0.63746 0.30278 0.0
O2202 O 0.13678 0.61223 0.2929 0.0
H2203 H 0.17369 0.568 0.25551 0.0
H2204 H 0.17801 0.55664 0.34754 0.0
O2205 O 0.23516 0.61108 0.27894 0.0
H2206 H 0.25359 0.58549 0.40497 0.0
H2207 H 0.1481 0.5116 0.32493 0.0
loop_
_geom_bond_atom_site_label_1
_geom_bond_atom_site_label_2
_geom_bond_distance
_geom_bond_site_symmetry_2
_ccdc_geom_bond_type
Cu0 N1 1.999 . S
Cu0 O6 1.974 . S
Cu0 N11 1.985 . S
Cu0 O20 1.959 . S
N1 Cu0 1.999 . S
N1 C3 1.263 . S
N1 C5 1.389 . S
N2 C3 1.358 . S
N2 C4 1.400 . S
C3 N1 1.263 . S
C3 N2 1.358 . S
C3 H9 0.930 . S
C4 N2 1.400 . S
C4 C5 1.351 . S
C4 H21 0.930 . S
C5 N1 1.389 . S
C5 C4 1.351 . S
C5 H10 0.930 . S
O6 Cu0 1.974 . S
O6 C16 1.282 . S
C7 O8 1.261 . S
C7 O20 1.251 . S
O8 C7 1.261 . S
H9 C3 0.930 . S
H10 C5 0.930 . S
N11 Cu0 1.985 . S
N11 C13 1.335 . S
N11 C14 1.390 . S
N12 C13 1.345 1_655 S
N12 C15 1.336 . S
C13 N11 1.335 . S
C13 N12 1.345 1_455 S
C13 H18 0.930 . S
C14 N11 1.390 . S
C14 C15 1.346 1_455 S
C14 H19 0.930 . S
C15 N12 1.336 . S
C15 C14 1.346 1_655 S
C15 H22 0.929 . S
C16 O6 1.282 . S
C16 O17 1.216 . S
O17 C16 1.216 . S
H18 C13 0.930 . S
H19 C14 0.930 . S
O20 Cu0 1.959 . S
O20 C7 1.251 . S
H21 C4 0.930 . S
H22 C15 0.929 . S
Cu23 N24 1.999 . S
Cu23 O29 1.974 . S
Cu23 N34 1.985 . S
Cu23 O43 1.959 . S
N24 Cu23 1.999 . S
N24 C26 1.263 . S
N24 C28 1.389 . S
N25 C26 1.358 . S
N25 C27 1.400 . S
C26 N24 1.263 . S
C26 N25 1.358 . S
C26 H32 0.930 . S
C27 N25 1.400 . S
C27 C28 1.351 . S
C27 H44 0.930 . S
C28 N24 1.389 . S
C28 C27 1.351 . S
C28 H33 0.930 . S
O29 Cu23 1.974 . S
O29 C39 1.282 . S
C30 O31 1.261 . S
C30 O43 1.251 . S
O31 C30 1.261 . S
H32 C26 0.930 . S
H33 C28 0.930 . S
N34 Cu23 1.985 . S
N34 C36 1.335 . S
N34 C37 1.390 . S
N35 C36 1.345 . S
N35 C38 1.336 . S
C36 N34 1.335 . S
C36 N35 1.345 . S
C36 H41 0.930 . S
C37 N34 1.390 . S
C37 C38 1.346 . S
C37 H42 0.930 . S
C38 N35 1.336 . S
C38 C37 1.346 . S
C38 H45 0.929 . S
C39 O29 1.282 . S
C39 O40 1.216 . S
O40 C39 1.216 . S
H41 C36 0.930 . S
H42 C37 0.930 . S
O43 Cu23 1.959 . S
O43 C30 1.251 . S
H44 C27 0.930 . S
H45 C38 0.929 . S
Cu46 N47 1.999 . S
Cu46 O52 1.974 . S
Cu46 N57 1.985 . S
Cu46 O66 1.959 . S
N47 Cu46 1.999 . S
N47 C49 1.263 . S
N47 C51 1.389 . S
N48 C49 1.358 . S
N48 C50 1.400 . S
C49 N47 1.263 . S
C49 N48 1.358 . S
C49 H55 0.930 . S
C50 N48 1.400 . S
C50 C51 1.351 . S
C50 H67 0.930 . S
C51 N47 1.389 . S
C51 C50 1.351 . S
C51 H56 0.930 . S
O52 Cu46 1.974 . S
O52 C62 1.282 . S
C53 O54 1.261 . S
C53 O66 1.251 . S
O54 C53 1.261 . S
H55 C49 0.930 . S
H56 C51 0.930 . S
N57 Cu46 1.985 . S
N57 C59 1.335 . S
N57 C60 1.390 . S
N58 C59 1.345 1_455 S
N58 C61 1.336 . S
C59 N57 1.335 . S
C59 N58 1.345 1_655 S
C59 H64 0.930 . S
C60 N57 1.390 . S
C60 C61 1.346 1_655 S
C60 H65 0.930 . S
C61 N58 1.336 . S
C61 C60 1.346 1_455 S
C61 H68 0.929 . S
C62 O52 1.282 . S
C62 O63 1.216 . S
O63 C62 1.216 . S
H64 C59 0.930 . S
H65 C60 0.930 . S
O66 Cu46 1.959 . S
O66 C53 1.251 . S
H67 C50 0.930 . S
H68 C61 0.929 . S
Cu69 N70 1.999 . S
Cu69 O75 1.974 . S
Cu69 N80 1.985 . S
Cu69 O89 1.959 . S
N70 Cu69 1.999 . S
N70 C72 1.263 . S
N70 C74 1.389 . S
N71 C72 1.358 . S
N71 C73 1.400 . S
C72 N70 1.263 . S
C72 N71 1.358 . S
C72 H78 0.930 . S
C73 N71 1.400 . S
C73 C74 1.351 . S
C73 H90 0.930 . S
C74 N70 1.389 . S
C74 C73 1.351 . S
C74 H79 0.930 . S
O75 Cu69 1.974 . S
O75 C85 1.282 . S
C76 O77 1.261 . S
C76 O89 1.251 . S
O77 C76 1.261 . S
H78 C72 0.930 . S
H79 C74 0.930 . S
N80 Cu69 1.985 . S
N80 C82 1.335 . S
N80 C83 1.390 . S
N81 C82 1.345 . S
N81 C84 1.336 . S
C82 N80 1.335 . S
C82 N81 1.345 . S
C82 H87 0.930 . S
C83 N80 1.390 . S
C83 C84 1.346 . S
C83 H88 0.930 . S
C84 N81 1.336 . S
C84 C83 1.346 . S
C84 H91 0.929 . S
C85 O75 1.282 . S
C85 O86 1.216 . S
O86 C85 1.216 . S
H87 C82 0.930 . S
H88 C83 0.930 . S
O89 Cu69 1.959 . S
O89 C76 1.251 . S
H90 C73 0.930 . S
H91 C84 0.929 . S
Cu92 N93 1.999 . S
Cu92 O98 1.974 . S
Cu92 N103 1.985 . S
Cu92 O112 1.959 . S
N93 Cu92 1.999 . S
N93 C95 1.263 . S
N93 C97 1.389 . S
N94 C95 1.358 . S
N94 C96 1.400 . S
C95 N93 1.263 . S
C95 N94 1.358 . S
C95 H101 0.930 . S
C96 N94 1.400 . S
C96 C97 1.351 . S
C96 H113 0.930 . S
C97 N93 1.389 . S
C97 C96 1.351 . S
C97 H102 0.930 . S
O98 Cu92 1.974 . S
O98 C108 1.282 . S
C99 O100 1.261 . S
C99 O112 1.251 . S
O100 C99 1.261 . S
H101 C95 0.930 . S
H102 C97 0.930 . S
N103 Cu92 1.985 . S
N103 C105 1.335 . S
N103 C106 1.390 . S
N104 C105 1.345 1_655 S
N104 C107 1.336 . S
C105 N103 1.335 . S
C105 N104 1.345 1_455 S
C105 H110 0.930 . S
C106 N103 1.390 . S
C106 C107 1.346 1_455 S
C106 H111 0.930 . S
C107 N104 1.336 . S
C107 C106 1.346 1_655 S
C107 H114 0.929 . S
C108 O98 1.282 . S
C108 O109 1.216 . S
O109 C108 1.216 . S
H110 C105 0.930 . S
H111 C106 0.930 . S
O112 Cu92 1.959 . S
O112 C99 1.251 . S
H113 C96 0.930 . S
H114 C107 0.929 . S
Cu115 N116 1.999 . S
Cu115 O121 1.974 . S
Cu115 N126 1.985 . S
Cu115 O135 1.959 . S
N116 Cu115 1.999 . S
N116 C118 1.263 . S
N116 C120 1.389 . S
N117 C118 1.358 . S
N117 C119 1.400 . S
C118 N116 1.263 . S
C118 N117 1.358 . S
C118 H124 0.930 . S
C119 N117 1.400 . S
C119 C120 1.351 . S
C119 H136 0.930 . S
C120 N116 1.389 . S
C120 C119 1.351 . S
C120 H125 0.930 . S
O121 Cu115 1.974 . S
O121 C131 1.282 . S
C122 O123 1.261 . S
C122 O135 1.251 . S
O123 C122 1.261 . S
H124 C118 0.930 . S
H125 C120 0.930 . S
N126 Cu115 1.985 . S
N126 C128 1.335 . S
N126 C129 1.390 . S
N127 C128 1.345 . S
N127 C130 1.336 . S
C128 N126 1.335 . S
C128 N127 1.345 . S
C128 H133 0.930 . S
C129 N126 1.390 . S
C129 C130 1.346 . S
C129 H134 0.930 . S
C130 N127 1.336 . S
C130 C129 1.346 . S
C130 H137 0.929 . S
C131 O121 1.282 . S
C131 O132 1.216 . S
O132 C131 1.216 . S
H133 C128 0.930 . S
H134 C129 0.930 . S
O135 Cu115 1.959 . S
O135 C122 1.251 . S
H136 C119 0.930 . S
H137 C130 0.929 . S
Cu138 N139 1.999 . S
Cu138 O144 1.974 . S
Cu138 N149 1.985 . S
Cu138 O158 1.959 . S
N139 Cu138 1.999 . S
N139 C141 1.263 . S
N139 C143 1.389 . S
N140 C141 1.358 . S
N140 C142 1.400 . S
C141 N139 1.263 . S
C141 N140 1.358 . S
C141 H147 0.930 . S
C142 N140 1.400 . S
C142 C143 1.351 . S
C142 H159 0.930 . S
C143 N139 1.389 . S
C143 C142 1.351 . S
C143 H148 0.930 . S
O144 Cu138 1.974 . S
O144 C154 1.282 . S
C145 O146 1.261 . S
C145 O158 1.251 . S
O146 C145 1.261 . S
H147 C141 0.930 . S
H148 C143 0.930 . S
N149 Cu138 1.985 . S
N149 C151 1.335 . S
N149 C152 1.390 . S
N150 C151 1.345 1_455 S
N150 C153 1.336 . S
C151 N149 1.335 . S
C151 N150 1.345 1_655 S
C151 H156 0.930 . S
C152 N149 1.390 . S
C152 C153 1.346 1_655 S
C152 H157 0.930 . S
C153 N150 1.336 . S
C153 C152 1.346 1_455 S
C153 H160 0.929 . S
C154 O144 1.282 . S
C154 O155 1.216 . S
O155 C154 1.216 . S
H156 C151 0.930 . S
H157 C152 0.930 . S
O158 Cu138 1.959 . S
O158 C145 1.251 . S
H159 C142 0.930 . S
H160 C153 0.929 . S
Cu161 N162 1.999 . S
Cu161 O167 1.974 . S
Cu161 N172 1.985 . S
Cu161 O181 1.959 . S
N162 Cu161 1.999 . S
N162 C164 1.263 . S
N162 C166 1.389 . S
N163 C164 1.358 . S
N163 C165 1.400 . S
C164 N162 1.263 . S
C164 N163 1.358 . S
C164 H170 0.930 . S
C165 N163 1.400 . S
C165 C166 1.351 . S
C165 H182 0.930 . S
C166 N162 1.389 . S
C166 C165 1.351 . S
C166 H171 0.930 . S
O167 Cu161 1.974 . S
O167 C177 1.282 . S
C168 O169 1.261 . S
C168 O181 1.251 . S
O169 C168 1.261 . S
H170 C164 0.930 . S
H171 C166 0.930 . S
N172 Cu161 1.985 . S
N172 C174 1.335 . S
N172 C175 1.390 . S
N173 C174 1.345 . S
N173 C176 1.336 . S
C174 N172 1.335 . S
C174 N173 1.345 . S
C174 H179 0.930 . S
C175 N172 1.390 . S
C175 C176 1.346 . S
C175 H180 0.930 . S
C176 N173 1.336 . S
C176 C175 1.346 . S
C176 H183 0.929 . S
C177 O167 1.282 . S
C177 O178 1.216 . S
O178 C177 1.216 . S
H179 C174 0.930 . S
H180 C175 0.930 . S
O181 Cu161 1.959 . S
O181 C168 1.251 . S
H182 C165 0.930 . S
H183 C176 0.929 . S
Cu184 N185 1.999 . S
Cu184 O190 1.974 . S
Cu184 N195 1.985 . S
Cu184 O204 1.959 . S
N185 Cu184 1.999 . S
N185 C187 1.263 . S
N185 C189 1.389 . S
N186 C187 1.358 . S
N186 C188 1.400 . S
C187 N185 1.263 . S
C187 N186 1.358 . S
C187 H193 0.930 . S
C188 N186 1.400 . S
C188 C189 1.351 . S
C188 H205 0.930 . S
C189 N185 1.389 . S
C189 C188 1.351 . S
C189 H194 0.930 . S
O190 Cu184 1.974 . S
O190 C200 1.282 . S
C191 O192 1.261 . S
C191 O204 1.251 . S
O192 C191 1.261 . S
H193 C187 0.930 . S
H194 C189 0.930 . S
N195 Cu184 1.985 . S
N195 C197 1.335 . S
N195 C198 1.390 . S
N196 C197 1.345 1_565 S
N196 C199 1.336 . S
C197 N195 1.335 . S
C197 N196 1.345 1_545 S
C197 H202 0.930 . S
C198 N195 1.390 . S
C198 C199 1.346 1_545 S
C198 H203 0.930 . S
C199 N196 1.336 . S
C199 C198 1.346 1_565 S
C199 H206 0.929 . S
C200 O190 1.282 . S
C200 O201 1.216 . S
O201 C200 1.216 . S
H202 C197 0.930 . S
H203 C198 0.930 . S
O204 Cu184 1.959 . S
O204 C191 1.251 . S
H205 C188 0.930 . S
H206 C199 0.929 . S
Cu207 N208 1.999 . S
Cu207 O213 1.974 . S
Cu207 N218 1.985 . S
Cu207 O227 1.959 . S
N208 Cu207 1.999 . S
N208 C210 1.263 . S
N208 C212 1.389 . S
N209 C210 1.358 . S
N209 C211 1.400 . S
C210 N208 1.263 . S
C210 N209 1.358 . S
C210 H216 0.930 . S
C211 N209 1.400 . S
C211 C212 1.351 . S
C211 H228 0.930 . S
C212 N208 1.389 . S
C212 C211 1.351 . S
C212 H217 0.930 . S
O213 Cu207 1.974 . S
O213 C223 1.282 . S
C214 O215 1.261 . S
C214 O227 1.251 . S
O215 C214 1.261 . S
H216 C210 0.930 . S
H217 C212 0.930 . S
N218 Cu207 1.985 . S
N218 C220 1.335 . S
N218 C221 1.390 . S
N219 C220 1.345 . S
N219 C222 1.336 . S
C220 N218 1.335 . S
C220 N219 1.345 . S
C220 H225 0.930 . S
C221 N218 1.390 . S
C221 C222 1.346 . S
C221 H226 0.930 . S
C222 N219 1.336 . S
C222 C221 1.346 . S
C222 H229 0.929 . S
C223 O213 1.282 . S
C223 O224 1.216 . S
O224 C223 1.216 . S
H225 C220 0.930 . S
H226 C221 0.930 . S
O227 Cu207 1.959 . S
O227 C214 1.251 . S
H228 C211 0.930 . S
H229 C222 0.929 . S
Cu230 N231 1.999 . S
Cu230 O236 1.974 . S
Cu230 N241 1.985 . S
Cu230 O250 1.959 . S
N231 Cu230 1.999 . S
N231 C233 1.263 . S
N231 C235 1.389 . S
N232 C233 1.358 . S
N232 C234 1.400 . S
C233 N231 1.263 . S
C233 N232 1.358 . S
C233 H239 0.930 . S
C234 N232 1.400 . S
C234 C235 1.351 . S
C234 H251 0.930 . S
C235 N231 1.389 . S
C235 C234 1.351 . S
C235 H240 0.930 . S
O236 Cu230 1.974 . S
O236 C246 1.282 . S
C237 O238 1.261 . S
C237 O250 1.251 . S
O238 C237 1.261 . S
H239 C233 0.930 . S
H240 C235 0.930 . S
N241 Cu230 1.985 . S
N241 C243 1.335 . S
N241 C244 1.390 . S
N242 C243 1.345 . S
N242 C245 1.336 . S
C243 N241 1.335 . S
C243 N242 1.345 . S
C243 H248 0.930 . S
C244 N241 1.390 . S
C244 C245 1.346 . S
C244 H249 0.930 . S
C245 N242 1.336 . S
C245 C244 1.346 . S
C245 H252 0.929 . S
C246 O236 1.282 . S
C246 O247 1.216 . S
O247 C246 1.216 . S
H248 C243 0.930 . S
H249 C244 0.930 . S
O250 Cu230 1.959 . S
O250 C237 1.251 . S
H251 C234 0.930 . S
H252 C245 0.929 . S
Cu253 N254 1.999 . S
Cu253 O259 1.974 . S
Cu253 N264 1.985 . S
Cu253 O273 1.959 . S
N254 Cu253 1.999 . S
N254 C256 1.263 . S
N254 C258 1.389 . S
N255 C256 1.358 . S
N255 C257 1.400 . S
C256 N254 1.263 . S
C256 N255 1.358 . S
C256 H262 0.930 . S
C257 N255 1.400 . S
C257 C258 1.351 . S
C257 H274 0.930 . S
C258 N254 1.389 . S
C258 C257 1.351 . S
C258 H263 0.930 . S
O259 Cu253 1.974 . S
O259 C269 1.282 . S
C260 O261 1.261 . S
C260 O273 1.251 . S
O261 C260 1.261 . S
H262 C256 0.930 . S
H263 C258 0.930 . S
N264 Cu253 1.985 . S
N264 C266 1.335 . S
N264 C267 1.390 . S
N265 C266 1.345 . S
N265 C268 1.336 . S
C266 N264 1.335 . S
C266 N265 1.345 . S
C266 H271 0.930 . S
C267 N264 1.390 . S
C267 C268 1.346 . S
C267 H272 0.930 . S
C268 N265 1.336 . S
C268 C267 1.346 . S
C268 H275 0.929 . S
C269 O259 1.282 . S
C269 O270 1.216 . S
O270 C269 1.216 . S
H271 C266 0.930 . S
H272 C267 0.930 . S
O273 Cu253 1.959 . S
O273 C260 1.251 . S
H274 C257 0.930 . S
H275 C268 0.929 . S
Cu276 N277 1.999 . S
Cu276 O282 1.974 . S
Cu276 N287 1.985 . S
Cu276 O296 1.959 . S
N277 Cu276 1.999 . S
N277 C279 1.263 . S
N277 C281 1.389 . S
N278 C279 1.358 . S
N278 C280 1.400 . S
C279 N277 1.263 . S
C279 N278 1.358 . S
C279 H285 0.930 . S
C280 N278 1.400 . S
C280 C281 1.351 . S
C280 H297 0.930 . S
C281 N277 1.389 . S
C281 C280 1.351 . S
C281 H286 0.930 . S
O282 Cu276 1.974 . S
O282 C292 1.282 . S
C283 O284 1.261 . S
C283 O296 1.251 . S
O284 C283 1.261 . S
H285 C279 0.930 . S
H286 C281 0.930 . S
N287 Cu276 1.985 . S
N287 C289 1.335 . S
N287 C290 1.390 . S
N288 C289 1.345 1_545 S
N288 C291 1.336 . S
C289 N287 1.335 . S
C289 N288 1.345 1_565 S
C289 H294 0.930 . S
C290 N287 1.390 . S
C290 C291 1.346 1_565 S
C290 H295 0.930 . S
C291 N288 1.336 . S
C291 C290 1.346 1_545 S
C291 H298 0.929 . S
C292 O282 1.282 . S
C292 O293 1.216 . S
O293 C292 1.216 . S
H294 C289 0.930 . S
H295 C290 0.930 . S
O296 Cu276 1.959 . S
O296 C283 1.251 . S
H297 C280 0.930 . S
H298 C291 0.929 . S
Cu299 N300 1.999 . S
Cu299 O305 1.974 . S
Cu299 N310 1.985 . S
Cu299 O319 1.959 . S
N300 Cu299 1.999 . S
N300 C302 1.263 . S
N300 C304 1.389 . S
N301 C302 1.358 . S
N301 C303 1.400 . S
C302 N300 1.263 . S
C302 N301 1.358 . S
C302 H308 0.930 . S
C303 N301 1.400 . S
C303 C304 1.351 . S
C303 H320 0.930 . S
C304 N300 1.389 . S
C304 C303 1.351 . S
C304 H309 0.930 . S
O305 Cu299 1.974 . S
O305 C315 1.282 . S
C306 O307 1.261 . S
C306 O319 1.251 . S
O307 C306 1.261 . S
H308 C302 0.930 . S
H309 C304 0.930 . S
N310 Cu299 1.985 . S
N310 C312 1.335 . S
N310 C313 1.390 . S
N311 C312 1.345 . S
N311 C314 1.336 . S
C312 N310 1.335 . S
C312 N311 1.345 . S
C312 H317 0.930 . S
C313 N310 1.390 . S
C313 C314 1.346 . S
C313 H318 0.930 . S
C314 N311 1.336 . S
C314 C313 1.346 . S
C314 H321 0.929 . S
C315 O305 1.282 . S
C315 O316 1.216 . S
O316 C315 1.216 . S
H317 C312 0.930 . S
H318 C313 0.930 . S
O319 Cu299 1.959 . S
O319 C306 1.251 . S
H320 C303 0.930 . S
H321 C314 0.929 . S
Cu322 N323 1.999 . S
Cu322 O328 1.974 . S
Cu322 N333 1.985 . S
Cu322 O342 1.959 . S
N323 Cu322 1.999 . S
N323 C325 1.263 . S
N323 C327 1.389 . S
N324 C325 1.358 . S
N324 C326 1.400 . S
C325 N323 1.263 . S
C325 N324 1.358 . S
C325 H331 0.930 . S
C326 N324 1.400 . S
C326 C327 1.351 . S
C326 H343 0.930 . S
C327 N323 1.389 . S
C327 C326 1.351 . S
C327 H332 0.930 . S
O328 Cu322 1.974 . S
O328 C338 1.282 . S
C329 O330 1.261 . S
C329 O342 1.251 . S
O330 C329 1.261 . S
H331 C325 0.930 . S
H332 C327 0.930 . S
N333 Cu322 1.985 . S
N333 C335 1.335 . S
N333 C336 1.390 . S
N334 C335 1.345 . S
N334 C337 1.336 . S
C335 N333 1.335 . S
C335 N334 1.345 . S
C335 H340 0.930 . S
C336 N333 1.390 . S
C336 C337 1.346 . S
C336 H341 0.930 . S
C337 N334 1.336 . S
C337 C336 1.346 . S
C337 H344 0.929 . S
C338 O328 1.282 . S
C338 O339 1.216 . S
O339 C338 1.216 . S
H340 C335 0.930 . S
H341 C336 0.930 . S
O342 Cu322 1.959 . S
O342 C329 1.251 . S
H343 C326 0.930 . S
H344 C337 0.929 . S
Cu345 N346 1.999 . S
Cu345 O351 1.974 . S
Cu345 N356 1.985 . S
Cu345 O365 1.959 . S
N346 Cu345 1.999 . S
N346 C348 1.263 . S
N346 C350 1.389 . S
N347 C348 1.358 . S
N347 C349 1.400 . S
C348 N346 1.263 . S
C348 N347 1.358 . S
C348 H354 0.930 . S
C349 N347 1.400 . S
C349 C350 1.351 . S
C349 H366 0.930 . S
C350 N346 1.389 . S
C350 C349 1.351 . S
C350 H355 0.930 . S
O351 Cu345 1.974 . S
O351 C361 1.282 . S
C352 O353 1.261 . S
C352 O365 1.251 . S
O353 C352 1.261 . S
H354 C348 0.930 . S
H355 C350 0.930 . S
N356 Cu345 1.985 . S
N356 C358 1.335 . S
N356 C359 1.390 . S
N357 C358 1.345 . S
N357 C360 1.336 . S
C358 N356 1.335 . S
C358 N357 1.345 . S
C358 H363 0.930 . S
C359 N356 1.390 . S
C359 C360 1.346 . S
C359 H364 0.930 . S
C360 N357 1.336 . S
C360 C359 1.346 . S
C360 H367 0.929 . S
C361 O351 1.282 . S
C361 O362 1.216 . S
O362 C361 1.216 . S
H363 C358 0.930 . S
H364 C359 0.930 . S
O365 Cu345 1.959 . S
O365 C352 1.251 . S
H366 C349 0.930 . S
H367 C360 0.929 . S
Cu368 N369 1.999 . S
Cu368 O374 1.974 . S
Cu368 N379 1.985 . S
Cu368 O388 1.959 . S
N369 Cu368 1.999 . S
N369 C371 1.263 . S
N369 C373 1.389 . S
N370 C371 1.358 . S
N370 C372 1.400 . S
C371 N369 1.263 . S
C371 N370 1.358 . S
C371 H377 0.930 . S
C372 N370 1.400 . S
C372 C373 1.351 . S
C372 H389 0.930 . S
C373 N369 1.389 . S
C373 C372 1.351 . S
C373 H378 0.930 . S
O374 Cu368 1.974 . S
O374 C384 1.282 . S
C375 O376 1.261 . S
C375 O388 1.251 . S
O376 C375 1.261 . S
H377 C371 0.930 . S
H378 C373 0.930 . S
N379 Cu368 1.985 . S
N379 C381 1.335 . S
N379 C382 1.390 . S
N380 C381 1.345 1_556 S
N380 C383 1.336 . S
C381 N379 1.335 . S
C381 N380 1.345 1_554 S
C381 H386 0.930 . S
C382 N379 1.390 . S
C382 C383 1.346 1_554 S
C382 H387 0.930 . S
C383 N380 1.336 . S
C383 C382 1.346 1_556 S
C383 H390 0.929 . S
C384 O374 1.282 . S
C384 O385 1.216 . S
O385 C384 1.216 . S
H386 C381 0.930 . S
H387 C382 0.930 . S
O388 Cu368 1.959 . S
O388 C375 1.251 . S
H389 C372 0.930 . S
H390 C383 0.929 . S
Cu391 N392 1.999 . S
Cu391 O397 1.974 . S
Cu391 N402 1.985 . S
Cu391 O411 1.959 . S
N392 Cu391 1.999 . S
N392 C394 1.263 . S
N392 C396 1.389 . S
N393 C394 1.358 . S
N393 C395 1.400 . S
C394 N392 1.263 . S
C394 N393 1.358 . S
C394 H400 0.930 . S
C395 N393 1.400 . S
C395 C396 1.351 . S
C395 H412 0.930 . S
C396 N392 1.389 . S
C396 C395 1.351 . S
C396 H401 0.930 . S
O397 Cu391 1.974 . S
O397 C407 1.282 . S
C398 O399 1.261 . S
C398 O411 1.251 . S
O399 C398 1.261 . S
H400 C394 0.930 . S
H401 C396 0.930 . S
N402 Cu391 1.985 . S
N402 C404 1.335 . S
N402 C405 1.390 . S
N403 C404 1.345 . S
N403 C406 1.336 . S
C404 N402 1.335 . S
C404 N403 1.345 . S
C404 H409 0.930 . S
C405 N402 1.390 . S
C405 C406 1.346 . S
C405 H410 0.930 . S
C406 N403 1.336 . S
C406 C405 1.346 . S
C406 H413 0.929 . S
C407 O397 1.282 . S
C407 O408 1.216 . S
O408 C407 1.216 . S
H409 C404 0.930 . S
H410 C405 0.930 . S
O411 Cu391 1.959 . S
O411 C398 1.251 . S
H412 C395 0.930 . S
H413 C406 0.929 . S
Cu414 N415 1.999 . S
Cu414 O420 1.974 . S
Cu414 N425 1.985 . S
Cu414 O434 1.959 . S
N415 Cu414 1.999 . S
N415 C417 1.263 . S
N415 C419 1.389 . S
N416 C417 1.358 . S
N416 C418 1.400 . S
C417 N415 1.263 . S
C417 N416 1.358 . S
C417 H423 0.930 . S
C418 N416 1.400 . S
C418 C419 1.351 . S
C418 H435 0.930 . S
C419 N415 1.389 . S
C419 C418 1.351 . S
C419 H424 0.930 . S
O420 Cu414 1.974 . S
O420 C430 1.282 . S
C421 O422 1.261 . S
C421 O434 1.251 . S
O422 C421 1.261 . S
H423 C417 0.930 . S
H424 C419 0.930 . S
N425 Cu414 1.985 . S
N425 C427 1.335 . S
N425 C428 1.390 . S
N426 C427 1.345 . S
N426 C429 1.336 . S
C427 N425 1.335 . S
C427 N426 1.345 . S
C427 H432 0.930 . S
C428 N425 1.390 . S
C428 C429 1.346 . S
C428 H433 0.930 . S
C429 N426 1.336 . S
C429 C428 1.346 . S
C429 H436 0.929 . S
C430 O420 1.282 . S
C430 O431 1.216 . S
O431 C430 1.216 . S
H432 C427 0.930 . S
H433 C428 0.930 . S
O434 Cu414 1.959 . S
O434 C421 1.251 . S
H435 C418 0.930 . S
H436 C429 0.929 . S
Cu437 N438 1.999 . S
Cu437 O443 1.974 . S
Cu437 N448 1.985 . S
Cu437 O457 1.959 . S
N438 Cu437 1.999 . S
N438 C440 1.263 . S
N438 C442 1.389 . S
N439 C440 1.358 . S
N439 C441 1.400 . S
C440 N438 1.263 . S
C440 N439 1.358 . S
C440 H446 0.930 . S
C441 N439 1.400 . S
C441 C442 1.351 . S
C441 H458 0.930 . S
C442 N438 1.389 . S
C442 C441 1.351 . S
C442 H447 0.930 . S
O443 Cu437 1.974 . S
O443 C453 1.282 . S
C444 O445 1.261 . S
C444 O457 1.251 . S
O445 C444 1.261 . S
H446 C440 0.930 . S
H447 C442 0.930 . S
N448 Cu437 1.985 . S
N448 C450 1.335 . S
N448 C451 1.390 . S
N449 C450 1.345 1_554 S
N449 C452 1.336 . S
C450 N448 1.335 . S
C450 N449 1.345 1_556 S
C450 H455 0.930 . S
C451 N448 1.390 . S
C451 C452 1.346 1_556 S
C451 H456 0.930 . S
C452 N449 1.336 . S
C452 C451 1.346 1_554 S
C452 H459 0.929 . S
C453 O443 1.282 . S
C453 O454 1.216 . S
O454 C453 1.216 . S
H455 C450 0.930 . S
H456 C451 0.930 . S
O457 Cu437 1.959 . S
O457 C444 1.251 . S
H458 C441 0.930 . S
H459 C452 0.929 . S
Cu460 N461 1.999 . S
Cu460 O466 1.974 . S
Cu460 N471 1.985 . S
Cu460 O480 1.959 . S
N461 Cu460 1.999 . S
N461 C463 1.263 . S
N461 C465 1.389 . S
N462 C463 1.358 . S
N462 C464 1.400 . S
C463 N461 1.263 . S
C463 N462 1.358 . S
C463 H469 0.930 . S
C464 N462 1.400 . S
C464 C465 1.351 . S
C464 H481 0.930 . S
C465 N461 1.389 . S
C465 C464 1.351 . S
C465 H470 0.930 . S
O466 Cu460 1.974 . S
O466 C476 1.282 . S
C467 O468 1.261 . S
C467 O480 1.251 . S
O468 C467 1.261 . S
H469 C463 0.930 . S
H470 C465 0.930 . S
N471 Cu460 1.985 . S
N471 C473 1.335 . S
N471 C474 1.390 . S
N472 C473 1.345 . S
N472 C475 1.336 . S
C473 N471 1.335 . S
C473 N472 1.345 . S
C473 H478 0.930 . S
C474 N471 1.390 . S
C474 C475 1.346 . S
C474 H479 0.930 . S
C475 N472 1.336 . S
C475 C474 1.346 . S
C475 H482 0.929 . S
C476 O466 1.282 . S
C476 O477 1.216 . S
O477 C476 1.216 . S
H478 C473 0.930 . S
H479 C474 0.930 . S
O480 Cu460 1.959 . S
O480 C467 1.251 . S
H481 C464 0.930 . S
H482 C475 0.929 . S
Cu483 N484 1.999 . S
Cu483 O489 1.974 . S
Cu483 N494 1.985 . S
Cu483 O503 1.959 . S
N484 Cu483 1.999 . S
N484 C486 1.263 . S
N484 C488 1.389 . S
N485 C486 1.358 . S
N485 C487 1.400 . S
C486 N484 1.263 . S
C486 N485 1.358 . S
C486 H492 0.930 . S
C487 N485 1.400 . S
C487 C488 1.351 . S
C487 H504 0.930 . S
C488 N484 1.389 . S
C488 C487 1.351 . S
C488 H493 0.930 . S
O489 Cu483 1.974 . S
O489 C499 1.282 . S
C490 O491 1.261 . S
C490 O503 1.251 . S
O491 C490 1.261 . S
H492 C486 0.930 . S
H493 C488 0.930 . S
N494 Cu483 1.985 . S
N494 C496 1.335 . S
N494 C497 1.390 . S
N495 C496 1.345 1_556 S
N495 C498 1.336 . S
C496 N494 1.335 . S
C496 N495 1.345 1_554 S
C496 H501 0.930 . S
C497 N494 1.390 . S
C497 C498 1.346 1_554 S
C497 H502 0.930 . S
C498 N495 1.336 . S
C498 C497 1.346 1_556 S
C498 H505 0.929 . S
C499 O489 1.282 . S
C499 O500 1.216 . S
O500 C499 1.216 . S
H501 C496 0.930 . S
H502 C497 0.930 . S
O503 Cu483 1.959 . S
O503 C490 1.251 . S
H504 C487 0.930 . S
H505 C498 0.929 . S
Cu506 N507 1.999 . S
Cu506 O512 1.974 . S
Cu506 N517 1.985 . S
Cu506 O526 1.959 . S
N507 Cu506 1.999 . S
N507 C509 1.263 . S
N507 C511 1.389 . S
N508 C509 1.358 . S
N508 C510 1.400 . S
C509 N507 1.263 . S
C509 N508 1.358 . S
C509 H515 0.930 . S
C510 N508 1.400 . S
C510 C511 1.351 . S
C510 H527 0.930 . S
C511 N507 1.389 . S
C511 C510 1.351 . S
C511 H516 0.930 . S
O512 Cu506 1.974 . S
O512 C522 1.282 . S
C513 O514 1.261 . S
C513 O526 1.251 . S
O514 C513 1.261 . S
H515 C509 0.930 . S
H516 C511 0.930 . S
N517 Cu506 1.985 . S
N517 C519 1.335 . S
N517 C520 1.390 . S
N518 C519 1.345 . S
N518 C521 1.336 . S
C519 N517 1.335 . S
C519 N518 1.345 . S
C519 H524 0.930 . S
C520 N517 1.390 . S
C520 C521 1.346 . S
C520 H525 0.930 . S
C521 N518 1.336 . S
C521 C520 1.346 . S
C521 H528 0.929 . S
C522 O512 1.282 . S
C522 O523 1.216 . S
O523 C522 1.216 . S
H524 C519 0.930 . S
H525 C520 0.930 . S
O526 Cu506 1.959 . S
O526 C513 1.251 . S
H527 C510 0.930 . S
H528 C521 0.929 . S
Cu529 N530 1.999 . S
Cu529 O535 1.974 . S
Cu529 N540 1.985 . S
Cu529 O549 1.959 . S
N530 Cu529 1.999 . S
N530 C532 1.263 . S
N530 C534 1.389 . S
N531 C532 1.358 . S
N531 C533 1.400 . S
C532 N530 1.263 . S
C532 N531 1.358 . S
C532 H538 0.930 . S
C533 N531 1.400 . S
C533 C534 1.351 . S
C533 H550 0.930 . S
C534 N530 1.389 . S
C534 C533 1.351 . S
C534 H539 0.930 . S
O535 Cu529 1.974 . S
O535 C545 1.282 . S
C536 O537 1.261 . S
C536 O549 1.251 . S
O537 C536 1.261 . S
H538 C532 0.930 . S
H539 C534 0.930 . S
N540 Cu529 1.985 . S
N540 C542 1.335 . S
N540 C543 1.390 . S
N541 C542 1.345 . S
N541 C544 1.336 . S
C542 N540 1.335 . S
C542 N541 1.345 . S
C542 H547 0.930 . S
C543 N540 1.390 . S
C543 C544 1.346 . S
C543 H548 0.930 . S
C544 N541 1.336 . S
C544 C543 1.346 . S
C544 H551 0.929 . S
C545 O535 1.282 . S
C545 O546 1.216 . S
O546 C545 1.216 . S
H547 C542 0.930 . S
H548 C543 0.930 . S
O549 Cu529 1.959 . S
O549 C536 1.251 . S
H550 C533 0.930 . S
H551 C544 0.929 . S
Cu552 N553 1.999 . S
Cu552 O558 1.974 . S
Cu552 N563 1.985 . S
Cu552 O572 1.959 . S
N553 Cu552 1.999 . S
N553 C555 1.263 . S
N553 C557 1.389 . S
N554 C555 1.358 . S
N554 C556 1.400 . S
C555 N553 1.263 . S
C555 N554 1.358 . S
C555 H561 0.930 . S
C556 N554 1.400 . S
C556 C557 1.351 . S
C556 H573 0.930 . S
C557 N553 1.389 . S
C557 C556 1.351 . S
C557 H562 0.930 . S
O558 Cu552 1.974 . S
O558 C568 1.282 . S
C559 O560 1.261 . S
C559 O572 1.251 . S
O560 C559 1.261 . S
H561 C555 0.930 . S
H562 C557 0.930 . S
N563 Cu552 1.985 . S
N563 C565 1.335 . S
N563 C566 1.390 . S
N564 C565 1.345 1_655 S
N564 C567 1.336 . S
C565 N563 1.335 . S
C565 N564 1.345 1_455 S
C565 H570 0.930 . S
C566 N563 1.390 . S
C566 C567 1.346 1_455 S
C566 H571 0.930 . S
C567 N564 1.336 . S
C567 C566 1.346 1_655 S
C567 H574 0.929 . S
C568 O558 1.282 . S
C568 O569 1.216 . S
O569 C568 1.216 . S
H570 C565 0.930 . S
H571 C566 0.930 . S
O572 Cu552 1.959 . S
O572 C559 1.251 . S
H573 C556 0.930 . S
H574 C567 0.929 . S
Cu575 N576 1.999 . S
Cu575 O581 1.974 . S
Cu575 N586 1.985 . S
Cu575 O595 1.959 . S
N576 Cu575 1.999 . S
N576 C578 1.263 . S
N576 C580 1.389 . S
N577 C578 1.358 . S
N577 C579 1.400 . S
C578 N576 1.263 . S
C578 N577 1.358 . S
C578 H584 0.930 . S
C579 N577 1.400 . S
C579 C580 1.351 . S
C579 H596 0.930 . S
C580 N576 1.389 . S
C580 C579 1.351 . S
C580 H585 0.930 . S
O581 Cu575 1.974 . S
O581 C591 1.282 . S
C582 O583 1.261 . S
C582 O595 1.251 . S
O583 C582 1.261 . S
H584 C578 0.930 . S
H585 C580 0.930 . S
N586 Cu575 1.985 . S
N586 C588 1.335 . S
N586 C589 1.390 . S
N587 C588 1.345 . S
N587 C590 1.336 . S
C588 N586 1.335 . S
C588 N587 1.345 . S
C588 H593 0.930 . S
C589 N586 1.390 . S
C589 C590 1.346 . S
C589 H594 0.930 . S
C590 N587 1.336 . S
C590 C589 1.346 . S
C590 H597 0.929 . S
C591 O581 1.282 . S
C591 O592 1.216 . S
O592 C591 1.216 . S
H593 C588 0.930 . S
H594 C589 0.930 . S
O595 Cu575 1.959 . S
O595 C582 1.251 . S
H596 C579 0.930 . S
H597 C590 0.929 . S
Cu598 N599 1.999 . S
Cu598 O604 1.974 . S
Cu598 N609 1.985 . S
Cu598 O618 1.959 . S
N599 Cu598 1.999 . S
N599 C601 1.263 . S
N599 C603 1.389 . S
N600 C601 1.358 . S
N600 C602 1.400 . S
C601 N599 1.263 . S
C601 N600 1.358 . S
C601 H607 0.930 . S
C602 N600 1.400 . S
C602 C603 1.351 . S
C602 H619 0.930 . S
C603 N599 1.389 . S
C603 C602 1.351 . S
C603 H608 0.930 . S
O604 Cu598 1.974 . S
O604 C614 1.282 . S
C605 O606 1.261 . S
C605 O618 1.251 . S
O606 C605 1.261 . S
H607 C601 0.930 . S
H608 C603 0.930 . S
N609 Cu598 1.985 . S
N609 C611 1.335 . S
N609 C612 1.390 . S
N610 C611 1.345 1_455 S
N610 C613 1.336 . S
C611 N609 1.335 . S
C611 N610 1.345 1_655 S
C611 H616 0.930 . S
C612 N609 1.390 . S
C612 C613 1.346 1_655 S
C612 H617 0.930 . S
C613 N610 1.336 . S
C613 C612 1.346 1_455 S
C613 H620 0.929 . S
C614 O604 1.282 . S
C614 O615 1.216 . S
O615 C614 1.216 . S
H616 C611 0.930 . S
H617 C612 0.930 . S
O618 Cu598 1.959 . S
O618 C605 1.251 . S
H619 C602 0.930 . S
H620 C613 0.929 . S
Cu621 N622 1.999 . S
Cu621 O627 1.974 . S
Cu621 N632 1.985 . S
Cu621 O641 1.959 . S
N622 Cu621 1.999 . S
N622 C624 1.263 . S
N622 C626 1.389 . S
N623 C624 1.358 . S
N623 C625 1.400 . S
C624 N622 1.263 . S
C624 N623 1.358 . S
C624 H630 0.930 . S
C625 N623 1.400 . S
C625 C626 1.351 . S
C625 H642 0.930 . S
C626 N622 1.389 . S
C626 C625 1.351 . S
C626 H631 0.930 . S
O627 Cu621 1.974 . S
O627 C637 1.282 . S
C628 O629 1.261 . S
C628 O641 1.251 . S
O629 C628 1.261 . S
H630 C624 0.930 . S
H631 C626 0.930 . S
N632 Cu621 1.985 . S
N632 C634 1.335 . S
N632 C635 1.390 . S
N633 C634 1.345 . S
N633 C636 1.336 . S
C634 N632 1.335 . S
C634 N633 1.345 . S
C634 H639 0.930 . S
C635 N632 1.390 . S
C635 C636 1.346 . S
C635 H640 0.930 . S
C636 N633 1.336 . S
C636 C635 1.346 . S
C636 H643 0.929 . S
C637 O627 1.282 . S
C637 O638 1.216 . S
O638 C637 1.216 . S
H639 C634 0.930 . S
H640 C635 0.930 . S
O641 Cu621 1.959 . S
O641 C628 1.251 . S
H642 C625 0.930 . S
H643 C636 0.929 . S
Cu644 N645 1.999 . S
Cu644 O650 1.974 . S
Cu644 N655 1.985 . S
Cu644 O664 1.959 . S
N645 Cu644 1.999 . S
N645 C647 1.263 . S
N645 C649 1.389 . S
N646 C647 1.358 . S
N646 C648 1.400 . S
C647 N645 1.263 . S
C647 N646 1.358 . S
C647 H653 0.930 . S
C648 N646 1.400 . S
C648 C649 1.351 . S
C648 H665 0.930 . S
C649 N645 1.389 . S
C649 C648 1.351 . S
C649 H654 0.930 . S
O650 Cu644 1.974 . S
O650 C660 1.282 . S
C651 O652 1.261 . S
C651 O664 1.251 . S
O652 C651 1.261 . S
H653 C647 0.930 . S
H654 C649 0.930 . S
N655 Cu644 1.985 . S
N655 C657 1.335 . S
N655 C658 1.390 . S
N656 C657 1.345 1_655 S
N656 C659 1.336 . S
C657 N655 1.335 . S
C657 N656 1.345 1_455 S
C657 H662 0.930 . S
C658 N655 1.390 . S
C658 C659 1.346 1_455 S
C658 H663 0.930 . S
C659 N656 1.336 . S
C659 C658 1.346 1_655 S
C659 H666 0.929 . S
C660 O650 1.282 . S
C660 O661 1.216 . S
O661 C660 1.216 . S
H662 C657 0.930 . S
H663 C658 0.930 . S
O664 Cu644 1.959 . S
O664 C651 1.251 . S
H665 C648 0.930 . S
H666 C659 0.929 . S
Cu667 N668 1.999 . S
Cu667 O673 1.974 . S
Cu667 N678 1.985 . S
Cu667 O687 1.959 . S
N668 Cu667 1.999 . S
N668 C670 1.263 . S
N668 C672 1.389 . S
N669 C670 1.358 . S
N669 C671 1.400 . S
C670 N668 1.263 . S
C670 N669 1.358 . S
C670 H676 0.930 . S
C671 N669 1.400 . S
C671 C672 1.351 . S
C671 H688 0.930 . S
C672 N668 1.389 . S
C672 C671 1.351 . S
C672 H677 0.930 . S
O673 Cu667 1.974 . S
O673 C683 1.282 . S
C674 O675 1.261 . S
C674 O687 1.251 . S
O675 C674 1.261 . S
H676 C670 0.930 . S
H677 C672 0.930 . S
N678 Cu667 1.985 . S
N678 C680 1.335 . S
N678 C681 1.390 . S
N679 C680 1.345 . S
N679 C682 1.336 . S
C680 N678 1.335 . S
C680 N679 1.345 . S
C680 H685 0.930 . S
C681 N678 1.390 . S
C681 C682 1.346 . S
C681 H686 0.930 . S
C682 N679 1.336 . S
C682 C681 1.346 . S
C682 H689 0.929 . S
C683 O673 1.282 . S
C683 O684 1.216 . S
O684 C683 1.216 . S
H685 C680 0.930 . S
H686 C681 0.930 . S
O687 Cu667 1.959 . S
O687 C674 1.251 . S
H688 C671 0.930 . S
H689 C682 0.929 . S
Cu690 N691 1.999 . S
Cu690 O696 1.974 . S
Cu690 N701 1.985 . S
Cu690 O710 1.959 . S
N691 Cu690 1.999 . S
N691 C693 1.263 . S
N691 C695 1.389 . S
N692 C693 1.358 . S
N692 C694 1.400 . S
C693 N691 1.263 . S
C693 N692 1.358 . S
C693 H699 0.930 . S
C694 N692 1.400 . S
C694 C695 1.351 . S
C694 H711 0.930 . S
C695 N691 1.389 . S
C695 C694 1.351 . S
C695 H700 0.930 . S
O696 Cu690 1.974 . S
O696 C706 1.282 . S
C697 O698 1.261 . S
C697 O710 1.251 . S
O698 C697 1.261 . S
H699 C693 0.930 . S
H700 C695 0.930 . S
N701 Cu690 1.985 . S
N701 C703 1.335 . S
N701 C704 1.390 . S
N702 C703 1.345 1_455 S
N702 C705 1.336 . S
C703 N701 1.335 . S
C703 N702 1.345 1_655 S
C703 H708 0.930 . S
C704 N701 1.390 . S
C704 C705 1.346 1_655 S
C704 H709 0.930 . S
C705 N702 1.336 . S
C705 C704 1.346 1_455 S
C705 H712 0.929 . S
C706 O696 1.282 . S
C706 O707 1.216 . S
O707 C706 1.216 . S
H708 C703 0.930 . S
H709 C704 0.930 . S
O710 Cu690 1.959 . S
O710 C697 1.251 . S
H711 C694 0.930 . S
H712 C705 0.929 . S
Cu713 N714 1.999 . S
Cu713 O719 1.974 . S
Cu713 N724 1.985 . S
Cu713 O733 1.959 . S
N714 Cu713 1.999 . S
N714 C716 1.263 . S
N714 C718 1.389 . S
N715 C716 1.358 . S
N715 C717 1.400 . S
C716 N714 1.263 . S
C716 N715 1.358 . S
C716 H722 0.930 . S
C717 N715 1.400 . S
C717 C718 1.351 . S
C717 H734 0.930 . S
C718 N714 1.389 . S
C718 C717 1.351 . S
C718 H723 0.930 . S
O719 Cu713 1.974 . S
O719 C729 1.282 . S
C720 O721 1.261 . S
C720 O733 1.251 . S
O721 C720 1.261 . S
H722 C716 0.930 . S
H723 C718 0.930 . S
N724 Cu713 1.985 . S
N724 C726 1.335 . S
N724 C727 1.390 . S
N725 C726 1.345 . S
N725 C728 1.336 . S
C726 N724 1.335 . S
C726 N725 1.345 . S
C726 H731 0.930 . S
C727 N724 1.390 . S
C727 C728 1.346 . S
C727 H732 0.930 . S
C728 N725 1.336 . S
C728 C727 1.346 . S
C728 H735 0.929 . S
C729 O719 1.282 . S
C729 O730 1.216 . S
O730 C729 1.216 . S
H731 C726 0.930 . S
H732 C727 0.930 . S
O733 Cu713 1.959 . S
O733 C720 1.251 . S
H734 C717 0.930 . S
H735 C728 0.929 . S
Cu736 N737 1.999 . S
Cu736 O742 1.974 . S
Cu736 N747 1.985 . S
Cu736 O756 1.959 . S
N737 Cu736 1.999 . S
N737 C739 1.263 . S
N737 C741 1.389 . S
N738 C739 1.358 . S
N738 C740 1.400 . S
C739 N737 1.263 . S
C739 N738 1.358 . S
C739 H745 0.930 . S
C740 N738 1.400 . S
C740 C741 1.351 . S
C740 H757 0.930 . S
C741 N737 1.389 . S
C741 C740 1.351 . S
C741 H746 0.930 . S
O742 Cu736 1.974 . S
O742 C752 1.282 . S
C743 O744 1.261 . S
C743 O756 1.251 . S
O744 C743 1.261 . S
H745 C739 0.930 . S
H746 C741 0.930 . S
N747 Cu736 1.985 . S
N747 C749 1.335 . S
N747 C750 1.390 . S
N748 C749 1.345 . S
N748 C751 1.336 . S
C749 N747 1.335 . S
C749 N748 1.345 . S
C749 H754 0.930 . S
C750 N747 1.390 . S
C750 C751 1.346 . S
C750 H755 0.930 . S
C751 N748 1.336 . S
C751 C750 1.346 . S
C751 H758 0.929 . S
C752 O742 1.282 . S
C752 O753 1.216 . S
O753 C752 1.216 . S
H754 C749 0.930 . S
H755 C750 0.930 . S
O756 Cu736 1.959 . S
O756 C743 1.251 . S
H757 C740 0.930 . S
H758 C751 0.929 . S
Cu759 N760 1.999 . S
Cu759 O765 1.974 . S
Cu759 N770 1.985 . S
Cu759 O779 1.959 . S
N760 Cu759 1.999 . S
N760 C762 1.263 . S
N760 C764 1.389 . S
N761 C762 1.358 . S
N761 C763 1.400 . S
C762 N760 1.263 . S
C762 N761 1.358 . S
C762 H768 0.930 . S
C763 N761 1.400 . S
C763 C764 1.351 . S
C763 H780 0.930 . S
C764 N760 1.389 . S
C764 C763 1.351 . S
C764 H769 0.930 . S
O765 Cu759 1.974 . S
O765 C775 1.282 . S
C766 O767 1.261 . S
C766 O779 1.251 . S
O767 C766 1.261 . S
H768 C762 0.930 . S
H769 C764 0.930 . S
N770 Cu759 1.985 . S
N770 C772 1.335 . S
N770 C773 1.390 . S
N771 C772 1.345 . S
N771 C774 1.336 . S
C772 N770 1.335 . S
C772 N771 1.345 . S
C772 H777 0.930 . S
C773 N770 1.390 . S
C773 C774 1.346 . S
C773 H778 0.930 . S
C774 N771 1.336 . S
C774 C773 1.346 . S
C774 H781 0.929 . S
C775 O765 1.282 . S
C775 O776 1.216 . S
O776 C775 1.216 . S
H777 C772 0.930 . S
H778 C773 0.930 . S
O779 Cu759 1.959 . S
O779 C766 1.251 . S
H780 C763 0.930 . S
H781 C774 0.929 . S
Cu782 N783 1.999 . S
Cu782 O788 1.974 . S
Cu782 N793 1.985 . S
Cu782 O802 1.959 . S
N783 Cu782 1.999 . S
N783 C785 1.263 . S
N783 C787 1.389 . S
N784 C785 1.358 . S
N784 C786 1.400 . S
C785 N783 1.263 . S
C785 N784 1.358 . S
C785 H791 0.930 . S
C786 N784 1.400 . S
C786 C787 1.351 . S
C786 H803 0.930 . S
C787 N783 1.389 . S
C787 C786 1.351 . S
C787 H792 0.930 . S
O788 Cu782 1.974 . S
O788 C798 1.282 . S
C789 O790 1.261 . S
C789 O802 1.251 . S
O790 C789 1.261 . S
H791 C785 0.930 . S
H792 C787 0.930 . S
N793 Cu782 1.985 . S
N793 C795 1.335 . S
N793 C796 1.390 . S
N794 C795 1.345 1_545 S
N794 C797 1.336 . S
C795 N793 1.335 . S
C795 N794 1.345 1_565 S
C795 H800 0.930 . S
C796 N793 1.390 . S
C796 C797 1.346 1_565 S
C796 H801 0.930 . S
C797 N794 1.336 . S
C797 C796 1.346 1_545 S
C797 H804 0.929 . S
C798 O788 1.282 . S
C798 O799 1.216 . S
O799 C798 1.216 . S
H800 C795 0.930 . S
H801 C796 0.930 . S
O802 Cu782 1.959 . S
O802 C789 1.251 . S
H803 C786 0.930 . S
H804 C797 0.929 . S
Cu805 N806 1.999 . S
Cu805 O811 1.974 . S
Cu805 N816 1.985 . S
Cu805 O825 1.959 . S
N806 Cu805 1.999 . S
N806 C808 1.263 . S
N806 C810 1.389 . S
N807 C808 1.358 . S
N807 C809 1.400 . S
C808 N806 1.263 . S
C808 N807 1.358 . S
C808 H814 0.930 . S
C809 N807 1.400 . S
C809 C810 1.351 . S
C809 H826 0.930 . S
C810 N806 1.389 . S
C810 C809 1.351 . S
C810 H815 0.930 . S
O811 Cu805 1.974 . S
O811 C821 1.282 . S
C812 O813 1.261 . S
C812 O825 1.251 . S
O813 C812 1.261 . S
H814 C808 0.930 . S
H815 C810 0.930 . S
N816 Cu805 1.985 . S
N816 C818 1.335 . S
N816 C819 1.390 . S
N817 C818 1.345 . S
N817 C820 1.336 . S
C818 N816 1.335 . S
C818 N817 1.345 . S
C818 H823 0.930 . S
C819 N816 1.390 . S
C819 C820 1.346 . S
C819 H824 0.930 . S
C820 N817 1.336 . S
C820 C819 1.346 . S
C820 H827 0.929 . S
C821 O811 1.282 . S
C821 O822 1.216 . S
O822 C821 1.216 . S
H823 C818 0.930 . S
H824 C819 0.930 . S
O825 Cu805 1.959 . S
O825 C812 1.251 . S
H826 C809 0.930 . S
H827 C820 0.929 . S
Cu828 N829 1.999 . S
Cu828 O834 1.974 . S
Cu828 N839 1.985 . S
Cu828 O848 1.959 . S
N829 Cu828 1.999 . S
N829 C831 1.263 . S
N829 C833 1.389 . S
N830 C831 1.358 . S
N830 C832 1.400 . S
C831 N829 1.263 . S
C831 N830 1.358 . S
C831 H837 0.930 . S
C832 N830 1.400 . S
C832 C833 1.351 . S
C832 H849 0.930 . S
C833 N829 1.389 . S
C833 C832 1.351 . S
C833 H838 0.930 . S
O834 Cu828 1.974 . S
O834 C844 1.282 . S
C835 O836 1.261 . S
C835 O848 1.251 . S
O836 C835 1.261 . S
H837 C831 0.930 . S
H838 C833 0.930 . S
N839 Cu828 1.985 . S
N839 C841 1.335 . S
N839 C842 1.390 . S
N840 C841 1.345 . S
N840 C843 1.336 . S
C841 N839 1.335 . S
C841 N840 1.345 . S
C841 H846 0.930 . S
C842 N839 1.390 . S
C842 C843 1.346 . S
C842 H847 0.930 . S
C843 N840 1.336 . S
C843 C842 1.346 . S
C843 H850 0.929 . S
C844 O834 1.282 . S
C844 O845 1.216 . S
O845 C844 1.216 . S
H846 C841 0.930 . S
H847 C842 0.930 . S
O848 Cu828 1.959 . S
O848 C835 1.251 . S
H849 C832 0.930 . S
H850 C843 0.929 . S
Cu851 N852 1.999 . S
Cu851 O857 1.974 . S
Cu851 N862 1.985 . S
Cu851 O871 1.959 . S
N852 Cu851 1.999 . S
N852 C854 1.263 . S
N852 C856 1.389 . S
N853 C854 1.358 . S
N853 C855 1.400 . S
C854 N852 1.263 . S
C854 N853 1.358 . S
C854 H860 0.930 . S
C855 N853 1.400 . S
C855 C856 1.351 . S
C855 H872 0.930 . S
C856 N852 1.389 . S
C856 C855 1.351 . S
C856 H861 0.930 . S
O857 Cu851 1.974 . S
O857 C867 1.282 . S
C858 O859 1.261 . S
C858 O871 1.251 . S
O859 C858 1.261 . S
H860 C854 0.930 . S
H861 C856 0.930 . S
N862 Cu851 1.985 . S
N862 C864 1.335 . S
N862 C865 1.390 . S
N863 C864 1.345 . S
N863 C866 1.336 . S
C864 N862 1.335 . S
C864 N863 1.345 . S
C864 H869 0.930 . S
C865 N862 1.390 . S
C865 C866 1.346 . S
C865 H870 0.930 . S
C866 N863 1.336 . S
C866 C865 1.346 . S
C866 H873 0.929 . S
C867 O857 1.282 . S
C867 O868 1.216 . S
O868 C867 1.216 . S
H869 C864 0.930 . S
H870 C865 0.930 . S
O871 Cu851 1.959 . S
O871 C858 1.251 . S
H872 C855 0.930 . S
H873 C866 0.929 . S
Cu874 N875 1.999 . S
Cu874 O880 1.974 . S
Cu874 N885 1.985 . S
Cu874 O894 1.959 . S
N875 Cu874 1.999 . S
N875 C877 1.263 . S
N875 C879 1.389 . S
N876 C877 1.358 . S
N876 C878 1.400 . S
C877 N875 1.263 . S
C877 N876 1.358 . S
C877 H883 0.930 . S
C878 N876 1.400 . S
C878 C879 1.351 . S
C878 H895 0.930 . S
C879 N875 1.389 . S
C879 C878 1.351 . S
C879 H884 0.930 . S
O880 Cu874 1.974 . S
O880 C890 1.282 . S
C881 O882 1.261 . S
C881 O894 1.251 . S
O882 C881 1.261 . S
H883 C877 0.930 . S
H884 C879 0.930 . S
N885 Cu874 1.985 . S
N885 C887 1.335 . S
N885 C888 1.390 . S
N886 C887 1.345 1_565 S
N886 C889 1.336 . S
C887 N885 1.335 . S
C887 N886 1.345 1_545 S
C887 H892 0.930 . S
C888 N885 1.390 . S
C888 C889 1.346 1_545 S
C888 H893 0.930 . S
C889 N886 1.336 . S
C889 C888 1.346 1_565 S
C889 H896 0.929 . S
C890 O880 1.282 . S
C890 O891 1.216 . S
O891 C890 1.216 . S
H892 C887 0.930 . S
H893 C888 0.930 . S
O894 Cu874 1.959 . S
O894 C881 1.251 . S
H895 C878 0.930 . S
H896 C889 0.929 . S
Cu897 N898 1.999 . S
Cu897 O903 1.974 . S
Cu897 N908 1.985 . S
Cu897 O917 1.959 . S
N898 Cu897 1.999 . S
N898 C900 1.263 . S
N898 C902 1.389 . S
N899 C900 1.358 . S
N899 C901 1.400 . S
C900 N898 1.263 . S
C900 N899 1.358 . S
C900 H906 0.930 . S
C901 N899 1.400 . S
C901 C902 1.351 . S
C901 H918 0.930 . S
C902 N898 1.389 . S
C902 C901 1.351 . S
C902 H907 0.930 . S
O903 Cu897 1.974 . S
O903 C913 1.282 . S
C904 O905 1.261 . S
C904 O917 1.251 . S
O905 C904 1.261 . S
H906 C900 0.930 . S
H907 C902 0.930 . S
N908 Cu897 1.985 . S
N908 C910 1.335 . S
N908 C911 1.390 . S
N909 C910 1.345 . S
N909 C912 1.336 . S
C910 N908 1.335 . S
C910 N909 1.345 . S
C910 H915 0.930 . S
C911 N908 1.390 . S
C911 C912 1.346 . S
C911 H916 0.930 . S
C912 N909 1.336 . S
C912 C911 1.346 . S
C912 H919 0.929 . S
C913 O903 1.282 . S
C913 O914 1.216 . S
O914 C913 1.216 . S
H915 C910 0.930 . S
H916 C911 0.930 . S
O917 Cu897 1.959 . S
O917 C904 1.251 . S
H918 C901 0.930 . S
H919 C912 0.929 . S
Cu920 N921 1.999 . S
Cu920 O926 1.974 . S
Cu920 N931 1.985 . S
Cu920 O940 1.959 . S
N921 Cu920 1.999 . S
N921 C923 1.263 . S
N921 C925 1.389 . S
N922 C923 1.358 . S
N922 C924 1.400 . S
C923 N921 1.263 . S
C923 N922 1.358 . S
C923 H929 0.930 . S
C924 N922 1.400 . S
C924 C925 1.351 . S
C924 H941 0.930 . S
C925 N921 1.389 . S
C925 C924 1.351 . S
C925 H930 0.930 . S
O926 Cu920 1.974 . S
O926 C936 1.282 . S
C927 O928 1.261 . S
C927 O940 1.251 . S
O928 C927 1.261 . S
H929 C923 0.930 . S
H930 C925 0.930 . S
N931 Cu920 1.985 . S
N931 C933 1.335 . S
N931 C934 1.390 . S
N932 C933 1.345 . S
N932 C935 1.336 . S
C933 N931 1.335 . S
C933 N932 1.345 . S
C933 H938 0.930 . S
C934 N931 1.390 . S
C934 C935 1.346 . S
C934 H939 0.930 . S
C935 N932 1.336 . S
C935 C934 1.346 . S
C935 H942 0.929 . S
C936 O926 1.282 . S
C936 O937 1.216 . S
O937 C936 1.216 . S
H938 C933 0.930 . S
H939 C934 0.930 . S
O940 Cu920 1.959 . S
O940 C927 1.251 . S
H941 C924 0.930 . S
H942 C935 0.929 . S
Cu943 N944 1.999 . S
Cu943 O949 1.974 . S
Cu943 N954 1.985 . S
Cu943 O963 1.959 . S
N944 Cu943 1.999 . S
N944 C946 1.263 . S
N944 C948 1.389 . S
N945 C946 1.358 . S
N945 C947 1.400 . S
C946 N944 1.263 . S
C946 N945 1.358 . S
C946 H952 0.930 . S
C947 N945 1.400 . S
C947 C948 1.351 . S
C947 H964 0.930 . S
C948 N944 1.389 . S
C948 C947 1.351 . S
C948 H953 0.930 . S
O949 Cu943 1.974 . S
O949 C959 1.282 . S
C950 O951 1.261 . S
C950 O963 1.251 . S
O951 C950 1.261 . S
H952 C946 0.930 . S
H953 C948 0.930 . S
N954 Cu943 1.985 . S
N954 C956 1.335 . S
N954 C957 1.390 . S
N955 C956 1.345 1_554 S
N955 C958 1.336 . S
C956 N954 1.335 . S
C956 N955 1.345 1_556 S
C956 H961 0.930 . S
C957 N954 1.390 . S
C957 C958 1.346 1_556 S
C957 H962 0.930 . S
C958 N955 1.336 . S
C958 C957 1.346 1_554 S
C958 H965 0.929 . S
C959 O949 1.282 . S
C959 O960 1.216 . S
O960 C959 1.216 . S
H961 C956 0.930 . S
H962 C957 0.930 . S
O963 Cu943 1.959 . S
O963 C950 1.251 . S
H964 C947 0.930 . S
H965 C958 0.929 . S
Cu966 N967 1.999 . S
Cu966 O972 1.974 . S
Cu966 N977 1.985 . S
Cu966 O986 1.959 . S
N967 Cu966 1.999 . S
N967 C969 1.263 . S
N967 C971 1.389 . S
N968 C969 1.358 . S
N968 C970 1.400 . S
C969 N967 1.263 . S
C969 N968 1.358 . S
C969 H975 0.930 . S
C970 N968 1.400 . S
C970 C971 1.351 . S
C970 H987 0.930 . S
C971 N967 1.389 . S
C971 C970 1.351 . S
C971 H976 0.930 . S
O972 Cu966 1.974 . S
O972 C982 1.282 . S
C973 O974 1.261 . S
C973 O986 1.251 . S
O974 C973 1.261 . S
H975 C969 0.930 . S
H976 C971 0.930 . S
N977 Cu966 1.985 . S
N977 C979 1.335 . S
N977 C980 1.390 . S
N978 C979 1.345 . S
N978 C981 1.336 . S
C979 N977 1.335 . S
C979 N978 1.345 . S
C979 H984 0.930 . S
C980 N977 1.390 . S
C980 C981 1.346 . S
C980 H985 0.930 . S
C981 N978 1.336 . S
C981 C980 1.346 . S
C981 H988 0.929 . S
C982 O972 1.282 . S
C982 O983 1.216 . S
O983 C982 1.216 . S
H984 C979 0.930 . S
H985 C980 0.930 . S
O986 Cu966 1.959 . S
O986 C973 1.251 . S
H987 C970 0.930 . S
H988 C981 0.929 . S
Cu989 N990 1.999 . S
Cu989 O995 1.974 . S
Cu989 N1000 1.985 . S
Cu989 O1009 1.959 . S
N990 Cu989 1.999 . S
N990 C992 1.263 . S
N990 C994 1.389 . S
N991 C992 1.358 . S
N991 C993 1.400 . S
C992 N990 1.263 . S
C992 N991 1.358 . S
C992 H998 0.930 . S
C993 N991 1.400 . S
C993 C994 1.351 . S
C993 H1010 0.930 . S
C994 N990 1.389 . S
C994 C993 1.351 . S
C994 H999 0.930 . S
O995 Cu989 1.974 . S
O995 C1005 1.282 . S
C996 O997 1.261 . S
C996 O1009 1.251 . S
O997 C996 1.261 . S
H998 C992 0.930 . S
H999 C994 0.930 . S
N1000 Cu989 1.985 . S
N1000 C1002 1.335 . S
N1000 C1003 1.390 . S
N1001 C1002 1.345 . S
N1001 C1004 1.336 . S
C1002 N1000 1.335 . S
C1002 N1001 1.345 . S
C1002 H1007 0.930 . S
C1003 N1000 1.390 . S
C1003 C1004 1.346 . S
C1003 H1008 0.930 . S
C1004 N1001 1.336 . S
C1004 C1003 1.346 . S
C1004 H1011 0.929 . S
C1005 O995 1.282 . S
C1005 O1006 1.216 . S
O1006 C1005 1.216 . S
H1007 C1002 0.930 . S
H1008 C1003 0.930 . S
O1009 Cu989 1.959 . S
O1009 C996 1.251 . S
H1010 C993 0.930 . S
H1011 C1004 0.929 . S
Cu1012 N1013 1.999 . S
Cu1012 O1018 1.974 . S
Cu1012 N1023 1.985 . S
Cu1012 O1032 1.959 . S
N1013 Cu1012 1.999 . S
N1013 C1015 1.263 . S
N1013 C1017 1.389 . S
N1014 C1015 1.358 . S
N1014 C1016 1.400 . S
C1015 N1013 1.263 . S
C1015 N1014 1.358 . S
C1015 H1021 0.930 . S
C1016 N1014 1.400 . S
C1016 C1017 1.351 . S
C1016 H1033 0.930 . S
C1017 N1013 1.389 . S
C1017 C1016 1.351 . S
C1017 H1022 0.930 . S
O1018 Cu1012 1.974 . S
O1018 C1028 1.282 . S
C1019 O1020 1.261 . S
C1019 O1032 1.251 . S
O1020 C1019 1.261 . S
H1021 C1015 0.930 . S
H1022 C1017 0.930 . S
N1023 Cu1012 1.985 . S
N1023 C1025 1.335 . S
N1023 C1026 1.390 . S
N1024 C1025 1.345 . S
N1024 C1027 1.336 . S
C1025 N1023 1.335 . S
C1025 N1024 1.345 . S
C1025 H1030 0.930 . S
C1026 N1023 1.390 . S
C1026 C1027 1.346 . S
C1026 H1031 0.930 . S
C1027 N1024 1.336 . S
C1027 C1026 1.346 . S
C1027 H1034 0.929 . S
C1028 O1018 1.282 . S
C1028 O1029 1.216 . S
O1029 C1028 1.216 . S
H1030 C1025 0.930 . S
H1031 C1026 0.930 . S
O1032 Cu1012 1.959 . S
O1032 C1019 1.251 . S
H1033 C1016 0.930 . S
H1034 C1027 0.929 . S
Cu1035 N1036 1.999 . S
Cu1035 O1041 1.974 . S
Cu1035 N1046 1.985 . S
Cu1035 O1055 1.959 . S
N1036 Cu1035 1.999 . S
N1036 C1038 1.263 . S
N1036 C1040 1.389 . S
N1037 C1038 1.358 . S
N1037 C1039 1.400 . S
C1038 N1036 1.263 . S
C1038 N1037 1.358 . S
C1038 H1044 0.930 . S
C1039 N1037 1.400 . S
C1039 C1040 1.351 . S
C1039 H1056 0.930 . S
C1040 N1036 1.389 . S
C1040 C1039 1.351 . S
C1040 H1045 0.930 . S
O1041 Cu1035 1.974 . S
O1041 C1051 1.282 . S
C1042 O1043 1.261 . S
C1042 O1055 1.251 . S
O1043 C1042 1.261 . S
H1044 C1038 0.930 . S
H1045 C1040 0.930 . S
N1046 Cu1035 1.985 . S
N1046 C1048 1.335 . S
N1046 C1049 1.390 . S
N1047 C1048 1.345 . S
N1047 C1050 1.336 . S
C1048 N1046 1.335 . S
C1048 N1047 1.345 . S
C1048 H1053 0.930 . S
C1049 N1046 1.390 . S
C1049 C1050 1.346 . S
C1049 H1054 0.930 . S
C1050 N1047 1.336 . S
C1050 C1049 1.346 . S
C1050 H1057 0.929 . S
C1051 O1041 1.282 . S
C1051 O1052 1.216 . S
O1052 C1051 1.216 . S
H1053 C1048 0.930 . S
H1054 C1049 0.930 . S
O1055 Cu1035 1.959 . S
O1055 C1042 1.251 . S
H1056 C1039 0.930 . S
H1057 C1050 0.929 . S
Cu1058 N1059 1.999 . S
Cu1058 O1064 1.974 . S
Cu1058 N1069 1.985 . S
Cu1058 O1078 1.959 . S
N1059 Cu1058 1.999 . S
N1059 C1061 1.263 . S
N1059 C1063 1.389 . S
N1060 C1061 1.358 . S
N1060 C1062 1.400 . S
C1061 N1059 1.263 . S
C1061 N1060 1.358 . S
C1061 H1067 0.930 . S
C1062 N1060 1.400 . S
C1062 C1063 1.351 . S
C1062 H1079 0.930 . S
C1063 N1059 1.389 . S
C1063 C1062 1.351 . S
C1063 H1068 0.930 . S
O1064 Cu1058 1.974 . S
O1064 C1074 1.282 . S
C1065 O1066 1.261 . S
C1065 O1078 1.251 . S
O1066 C1065 1.261 . S
H1067 C1061 0.930 . S
H1068 C1063 0.930 . S
N1069 Cu1058 1.985 . S
N1069 C1071 1.335 . S
N1069 C1072 1.390 . S
N1070 C1071 1.345 . S
N1070 C1073 1.336 . S
C1071 N1069 1.335 . S
C1071 N1070 1.345 . S
C1071 H1076 0.930 . S
C1072 N1069 1.390 . S
C1072 C1073 1.346 . S
C1072 H1077 0.930 . S
C1073 N1070 1.336 . S
C1073 C1072 1.346 . S
C1073 H1080 0.929 . S
C1074 O1064 1.282 . S
C1074 O1075 1.216 . S
O1075 C1074 1.216 . S
H1076 C1071 0.930 . S
H1077 C1072 0.930 . S
O1078 Cu1058 1.959 . S
O1078 C1065 1.251 . S
H1079 C1062 0.930 . S
H1080 C1073 0.929 . S
Cu1081 N1082 1.999 . S
Cu1081 O1087 1.974 . S
Cu1081 N1092 1.985 . S
Cu1081 O1101 1.959 . S
N1082 Cu1081 1.999 . S
N1082 C1084 1.263 . S
N1082 C1086 1.389 . S
N1083 C1084 1.358 . S
N1083 C1085 1.400 . S
C1084 N1082 1.263 . S
C1084 N1083 1.358 . S
C1084 H1090 0.930 . S
C1085 N1083 1.400 . S
C1085 C1086 1.351 . S
C1085 H1102 0.930 . S
C1086 N1082 1.389 . S
C1086 C1085 1.351 . S
C1086 H1091 0.930 . S
O1087 Cu1081 1.974 . S
O1087 C1097 1.282 . S
C1088 O1089 1.261 . S
C1088 O1101 1.251 . S
O1089 C1088 1.261 . S
H1090 C1084 0.930 . S
H1091 C1086 0.930 . S
N1092 Cu1081 1.985 . S
N1092 C1094 1.335 . S
N1092 C1095 1.390 . S
N1093 C1094 1.345 . S
N1093 C1096 1.336 . S
C1094 N1092 1.335 . S
C1094 N1093 1.345 . S
C1094 H1099 0.930 . S
C1095 N1092 1.390 . S
C1095 C1096 1.346 . S
C1095 H1100 0.930 . S
C1096 N1093 1.336 . S
C1096 C1095 1.346 . S
C1096 H1103 0.929 . S
C1097 O1087 1.282 . S
C1097 O1098 1.216 . S
O1098 C1097 1.216 . S
H1099 C1094 0.930 . S
H1100 C1095 0.930 . S
O1101 Cu1081 1.959 . S
O1101 C1088 1.251 . S
H1102 C1085 0.930 . S
H1103 C1096 0.929 . S
Cu1104 N1105 1.999 . S
Cu1104 O1110 1.974 . S
Cu1104 N1115 1.985 . S
Cu1104 O1124 1.959 . S
N1105 Cu1104 1.999 . S
N1105 C1107 1.263 . S
N1105 C1109 1.389 . S
N1106 C1107 1.358 . S
N1106 C1108 1.400 . S
C1107 N1105 1.263 . S
C1107 N1106 1.358 . S
C1107 H1113 0.930 . S
C1108 N1106 1.400 . S
C1108 C1109 1.351 . S
C1108 H1125 0.930 . S
C1109 N1105 1.389 . S
C1109 C1108 1.351 . S
C1109 H1114 0.930 . S
O1110 Cu1104 1.974 . S
O1110 C1120 1.282 . S
C1111 O1112 1.261 . S
C1111 O1124 1.251 . S
O1112 C1111 1.261 . S
H1113 C1107 0.930 . S
H1114 C1109 0.930 . S
N1115 Cu1104 1.985 . S
N1115 C1117 1.335 . S
N1115 C1118 1.390 . S
N1116 C1117 1.345 . S
N1116 C1119 1.336 . S
C1117 N1115 1.335 . S
C1117 N1116 1.345 . S
C1117 H1122 0.930 . S
C1118 N1115 1.390 . S
C1118 C1119 1.346 . S
C1118 H1123 0.930 . S
C1119 N1116 1.336 . S
C1119 C1118 1.346 . S
C1119 H1126 0.929 . S
C1120 O1110 1.282 . S
C1120 O1121 1.216 . S
O1121 C1120 1.216 . S
H1122 C1117 0.930 . S
H1123 C1118 0.930 . S
O1124 Cu1104 1.959 . S
O1124 C1111 1.251 . S
H1125 C1108 0.930 . S
H1126 C1119 0.929 . S
Cu1127 N1128 1.999 . S
Cu1127 O1133 1.974 . S
Cu1127 N1138 1.985 . S
Cu1127 O1147 1.959 . S
N1128 Cu1127 1.999 . S
N1128 C1130 1.263 . S
N1128 C1132 1.389 . S
N1129 C1130 1.358 . S
N1129 C1131 1.400 . S
C1130 N1128 1.263 . S
C1130 N1129 1.358 . S
C1130 H1136 0.930 . S
C1131 N1129 1.400 . S
C1131 C1132 1.351 . S
C1131 H1148 0.930 . S
C1132 N1128 1.389 . S
C1132 C1131 1.351 . S
C1132 H1137 0.930 . S
O1133 Cu1127 1.974 . S
O1133 C1143 1.282 . S
C1134 O1135 1.261 . S
C1134 O1147 1.251 . S
O1135 C1134 1.261 . S
H1136 C1130 0.930 . S
H1137 C1132 0.930 . S
N1138 Cu1127 1.985 . S
N1138 C1140 1.335 . S
N1138 C1141 1.390 . S
N1139 C1140 1.345 . S
N1139 C1142 1.336 . S
C1140 N1138 1.335 . S
C1140 N1139 1.345 . S
C1140 H1145 0.930 . S
C1141 N1138 1.390 . S
C1141 C1142 1.346 . S
C1141 H1146 0.930 . S
C1142 N1139 1.336 . S
C1142 C1141 1.346 . S
C1142 H1149 0.929 . S
C1143 O1133 1.282 . S
C1143 O1144 1.216 . S
O1144 C1143 1.216 . S
H1145 C1140 0.930 . S
H1146 C1141 0.930 . S
O1147 Cu1127 1.959 . S
O1147 C1134 1.251 . S
H1148 C1131 0.930 . S
H1149 C1142 0.929 . S
Cu1150 N1151 1.999 . S
Cu1150 O1156 1.974 . S
Cu1150 N1161 1.985 . S
Cu1150 O1170 1.959 . S
N1151 Cu1150 1.999 . S
N1151 C1153 1.263 . S
N1151 C1155 1.389 . S
N1152 C1153 1.358 . S
N1152 C1154 1.400 . S
C1153 N1151 1.263 . S
C1153 N1152 1.358 . S
C1153 H1159 0.930 . S
C1154 N1152 1.400 . S
C1154 C1155 1.351 . S
C1154 H1171 0.930 . S
C1155 N1151 1.389 . S
C1155 C1154 1.351 . S
C1155 H1160 0.930 . S
O1156 Cu1150 1.974 . S
O1156 C1166 1.282 . S
C1157 O1158 1.261 . S
C1157 O1170 1.251 . S
O1158 C1157 1.261 . S
H1159 C1153 0.930 . S
H1160 C1155 0.930 . S
N1161 Cu1150 1.985 . S
N1161 C1163 1.335 . S
N1161 C1164 1.390 . S
N1162 C1163 1.345 . S
N1162 C1165 1.336 . S
C1163 N1161 1.335 . S
C1163 N1162 1.345 . S
C1163 H1168 0.930 . S
C1164 N1161 1.390 . S
C1164 C1165 1.346 . S
C1164 H1169 0.930 . S
C1165 N1162 1.336 . S
C1165 C1164 1.346 . S
C1165 H1172 0.929 . S
C1166 O1156 1.282 . S
C1166 O1167 1.216 . S
O1167 C1166 1.216 . S
H1168 C1163 0.930 . S
H1169 C1164 0.930 . S
O1170 Cu1150 1.959 . S
O1170 C1157 1.251 . S
H1171 C1154 0.930 . S
H1172 C1165 0.929 . S
Cu1173 N1174 1.999 . S
Cu1173 O1179 1.974 . S
Cu1173 N1184 1.985 . S
Cu1173 O1193 1.959 . S
N1174 Cu1173 1.999 . S
N1174 C1176 1.263 . S
N1174 C1178 1.389 . S
N1175 C1176 1.358 . S
N1175 C1177 1.400 . S
C1176 N1174 1.263 . S
C1176 N1175 1.358 . S
C1176 H1182 0.930 . S
C1177 N1175 1.400 . S
C1177 C1178 1.351 . S
C1177 H1194 0.930 . S
C1178 N1174 1.389 . S
C1178 C1177 1.351 . S
C1178 H1183 0.930 . S
O1179 Cu1173 1.974 . S
O1179 C1189 1.282 . S
C1180 O1181 1.261 . S
C1180 O1193 1.251 . S
O1181 C1180 1.261 . S
H1182 C1176 0.930 . S
H1183 C1178 0.930 . S
N1184 Cu1173 1.985 . S
N1184 C1186 1.335 . S
N1184 C1187 1.390 . S
N1185 C1186 1.345 . S
N1185 C1188 1.336 . S
C1186 N1184 1.335 . S
C1186 N1185 1.345 . S
C1186 H1191 0.930 . S
C1187 N1184 1.390 . S
C1187 C1188 1.346 . S
C1187 H1192 0.930 . S
C1188 N1185 1.336 . S
C1188 C1187 1.346 . S
C1188 H1195 0.929 . S
C1189 O1179 1.282 . S
C1189 O1190 1.216 . S
O1190 C1189 1.216 . S
H1191 C1186 0.930 . S
H1192 C1187 0.930 . S
O1193 Cu1173 1.959 . S
O1193 C1180 1.251 . S
H1194 C1177 0.930 . S
H1195 C1188 0.929 . S
Cu1196 N1197 1.999 . S
Cu1196 O1202 1.974 . S
Cu1196 N1207 1.985 . S
Cu1196 O1216 1.959 . S
N1197 Cu1196 1.999 . S
N1197 C1199 1.263 . S
N1197 C1201 1.389 . S
N1198 C1199 1.358 . S
N1198 C1200 1.400 . S
C1199 N1197 1.263 . S
C1199 N1198 1.358 . S
C1199 H1205 0.930 . S
C1200 N1198 1.400 . S
C1200 C1201 1.351 . S
C1200 H1217 0.930 . S
C1201 N1197 1.389 . S
C1201 C1200 1.351 . S
C1201 H1206 0.930 . S
O1202 Cu1196 1.974 . S
O1202 C1212 1.282 . S
C1203 O1204 1.261 . S
C1203 O1216 1.251 . S
O1204 C1203 1.261 . S
H1205 C1199 0.930 . S
H1206 C1201 0.930 . S
N1207 Cu1196 1.985 . S
N1207 C1209 1.335 . S
N1207 C1210 1.390 . S
N1208 C1209 1.345 . S
N1208 C1211 1.336 . S
C1209 N1207 1.335 . S
C1209 N1208 1.345 . S
C1209 H1214 0.930 . S
C1210 N1207 1.390 . S
C1210 C1211 1.346 . S
C1210 H1215 0.930 . S
C1211 N1208 1.336 . S
C1211 C1210 1.346 . S
C1211 H1218 0.929 . S
C1212 O1202 1.282 . S
C1212 O1213 1.216 . S
O1213 C1212 1.216 . S
H1214 C1209 0.930 . S
H1215 C1210 0.930 . S
O1216 Cu1196 1.959 . S
O1216 C1203 1.251 . S
H1217 C1200 0.930 . S
H1218 C1211 0.929 . S
Cu1219 N1220 1.999 . S
Cu1219 O1225 1.974 . S
Cu1219 N1230 1.985 . S
Cu1219 O1239 1.959 . S
N1220 Cu1219 1.999 . S
N1220 C1222 1.263 . S
N1220 C1224 1.389 . S
N1221 C1222 1.358 . S
N1221 C1223 1.400 . S
C1222 N1220 1.263 . S
C1222 N1221 1.358 . S
C1222 H1228 0.930 . S
C1223 N1221 1.400 . S
C1223 C1224 1.351 . S
C1223 H1240 0.930 . S
C1224 N1220 1.389 . S
C1224 C1223 1.351 . S
C1224 H1229 0.930 . S
O1225 Cu1219 1.974 . S
O1225 C1235 1.282 . S
C1226 O1227 1.261 . S
C1226 O1239 1.251 . S
O1227 C1226 1.261 . S
H1228 C1222 0.930 . S
H1229 C1224 0.930 . S
N1230 Cu1219 1.985 . S
N1230 C1232 1.335 . S
N1230 C1233 1.390 . S
N1231 C1232 1.345 . S
N1231 C1234 1.336 . S
C1232 N1230 1.335 . S
C1232 N1231 1.345 . S
C1232 H1237 0.930 . S
C1233 N1230 1.390 . S
C1233 C1234 1.346 . S
C1233 H1238 0.930 . S
C1234 N1231 1.336 . S
C1234 C1233 1.346 . S
C1234 H1241 0.929 . S
C1235 O1225 1.282 . S
C1235 O1236 1.216 . S
O1236 C1235 1.216 . S
H1237 C1232 0.930 . S
H1238 C1233 0.930 . S
O1239 Cu1219 1.959 . S
O1239 C1226 1.251 . S
H1240 C1223 0.930 . S
H1241 C1234 0.929 . S
Cu1242 N1243 1.999 . S
Cu1242 O1248 1.974 . S
Cu1242 N1253 1.985 . S
Cu1242 O1262 1.959 . S
N1243 Cu1242 1.999 . S
N1243 C1245 1.263 . S
N1243 C1247 1.389 . S
N1244 C1245 1.358 . S
N1244 C1246 1.400 . S
C1245 N1243 1.263 . S
C1245 N1244 1.358 . S
C1245 H1251 0.930 . S
C1246 N1244 1.400 . S
C1246 C1247 1.351 . S
C1246 H1263 0.930 . S
C1247 N1243 1.389 . S
C1247 C1246 1.351 . S
C1247 H1252 0.930 . S
O1248 Cu1242 1.974 . S
O1248 C1258 1.282 . S
C1249 O1250 1.261 . S
C1249 O1262 1.251 . S
O1250 C1249 1.261 . S
H1251 C1245 0.930 . S
H1252 C1247 0.930 . S
N1253 Cu1242 1.985 . S
N1253 C1255 1.335 . S
N1253 C1256 1.390 . S
N1254 C1255 1.345 . S
N1254 C1257 1.336 . S
C1255 N1253 1.335 . S
C1255 N1254 1.345 . S
C1255 H1260 0.930 . S
C1256 N1253 1.390 . S
C1256 C1257 1.346 . S
C1256 H1261 0.930 . S
C1257 N1254 1.336 . S
C1257 C1256 1.346 . S
C1257 H1264 0.929 . S
C1258 O1248 1.282 . S
C1258 O1259 1.216 . S
O1259 C1258 1.216 . S
H1260 C1255 0.930 . S
H1261 C1256 0.930 . S
O1262 Cu1242 1.959 . S
O1262 C1249 1.251 . S
H1263 C1246 0.930 . S
H1264 C1257 0.929 . S
Cu1265 N1266 1.999 . S
Cu1265 O1271 1.974 . S
Cu1265 N1276 1.985 . S
Cu1265 O1285 1.959 . S
N1266 Cu1265 1.999 . S
N1266 C1268 1.263 . S
N1266 C1270 1.389 . S
N1267 C1268 1.358 . S
N1267 C1269 1.400 . S
C1268 N1266 1.263 . S
C1268 N1267 1.358 . S
C1268 H1274 0.930 . S
C1269 N1267 1.400 . S
C1269 C1270 1.351 . S
C1269 H1286 0.930 . S
C1270 N1266 1.389 . S
C1270 C1269 1.351 . S
C1270 H1275 0.930 . S
O1271 Cu1265 1.974 . S
O1271 C1281 1.282 . S
C1272 O1273 1.261 . S
C1272 O1285 1.251 . S
O1273 C1272 1.261 . S
H1274 C1268 0.930 . S
H1275 C1270 0.930 . S
N1276 Cu1265 1.985 . S
N1276 C1278 1.335 . S
N1276 C1279 1.390 . S
N1277 C1278 1.345 . S
N1277 C1280 1.336 . S
C1278 N1276 1.335 . S
C1278 N1277 1.345 . S
C1278 H1283 0.930 . S
C1279 N1276 1.390 . S
C1279 C1280 1.346 . S
C1279 H1284 0.930 . S
C1280 N1277 1.336 . S
C1280 C1279 1.346 . S
C1280 H1287 0.929 . S
C1281 O1271 1.282 . S
C1281 O1282 1.216 . S
O1282 C1281 1.216 . S
H1283 C1278 0.930 . S
H1284 C1279 0.930 . S
O1285 Cu1265 1.959 . S
O1285 C1272 1.251 . S
H1286 C1269 0.930 . S
H1287 C1280 0.929 . S
Cu1288 N1289 1.999 . S
Cu1288 O1294 1.974 . S
Cu1288 N1299 1.985 . S
Cu1288 O1308 1.959 . S
N1289 Cu1288 1.999 . S
N1289 C1291 1.263 . S
N1289 C1293 1.389 . S
N1290 C1291 1.358 . S
N1290 C1292 1.400 . S
C1291 N1289 1.263 . S
C1291 N1290 1.358 . S
C1291 H1297 0.930 . S
C1292 N1290 1.400 . S
C1292 C1293 1.351 . S
C1292 H1309 0.930 . S
C1293 N1289 1.389 . S
C1293 C1292 1.351 . S
C1293 H1298 0.930 . S
O1294 Cu1288 1.974 . S
O1294 C1304 1.282 . S
C1295 O1296 1.261 . S
C1295 O1308 1.251 . S
O1296 C1295 1.261 . S
H1297 C1291 0.930 . S
H1298 C1293 0.930 . S
N1299 Cu1288 1.985 . S
N1299 C1301 1.335 . S
N1299 C1302 1.390 . S
N1300 C1301 1.345 1_565 S
N1300 C1303 1.336 . S
C1301 N1299 1.335 . S
C1301 N1300 1.345 1_545 S
C1301 H1306 0.930 . S
C1302 N1299 1.390 . S
C1302 C1303 1.346 1_545 S
C1302 H1307 0.930 . S
C1303 N1300 1.336 . S
C1303 C1302 1.346 1_565 S
C1303 H1310 0.929 . S
C1304 O1294 1.282 . S
C1304 O1305 1.216 . S
O1305 C1304 1.216 . S
H1306 C1301 0.930 . S
H1307 C1302 0.930 . S
O1308 Cu1288 1.959 . S
O1308 C1295 1.251 . S
H1309 C1292 0.930 . S
H1310 C1303 0.929 . S
Cu1311 N1312 1.999 . S
Cu1311 O1317 1.974 . S
Cu1311 N1322 1.985 . S
Cu1311 O1331 1.959 . S
N1312 Cu1311 1.999 . S
N1312 C1314 1.263 . S
N1312 C1316 1.389 . S
N1313 C1314 1.358 . S
N1313 C1315 1.400 . S
C1314 N1312 1.263 . S
C1314 N1313 1.358 . S
C1314 H1320 0.930 . S
C1315 N1313 1.400 . S
C1315 C1316 1.351 . S
C1315 H1332 0.930 . S
C1316 N1312 1.389 . S
C1316 C1315 1.351 . S
C1316 H1321 0.930 . S
O1317 Cu1311 1.974 . S
O1317 C1327 1.282 . S
C1318 O1319 1.261 . S
C1318 O1331 1.251 . S
O1319 C1318 1.261 . S
H1320 C1314 0.930 . S
H1321 C1316 0.930 . S
N1322 Cu1311 1.985 . S
N1322 C1324 1.335 . S
N1322 C1325 1.390 . S
N1323 C1324 1.345 . S
N1323 C1326 1.336 . S
C1324 N1322 1.335 . S
C1324 N1323 1.345 . S
C1324 H1329 0.930 . S
C1325 N1322 1.390 . S
C1325 C1326 1.346 . S
C1325 H1330 0.930 . S
C1326 N1323 1.336 . S
C1326 C1325 1.346 . S
C1326 H1333 0.929 . S
C1327 O1317 1.282 . S
C1327 O1328 1.216 . S
O1328 C1327 1.216 . S
H1329 C1324 0.930 . S
H1330 C1325 0.930 . S
O1331 Cu1311 1.959 . S
O1331 C1318 1.251 . S
H1332 C1315 0.930 . S
H1333 C1326 0.929 . S
Cu1334 N1335 1.999 . S
Cu1334 O1340 1.974 . S
Cu1334 N1345 1.985 . S
Cu1334 O1354 1.959 . S
N1335 Cu1334 1.999 . S
N1335 C1337 1.263 . S
N1335 C1339 1.389 . S
N1336 C1337 1.358 . S
N1336 C1338 1.400 . S
C1337 N1335 1.263 . S
C1337 N1336 1.358 . S
C1337 H1343 0.930 . S
C1338 N1336 1.400 . S
C1338 C1339 1.351 . S
C1338 H1355 0.930 . S
C1339 N1335 1.389 . S
C1339 C1338 1.351 . S
C1339 H1344 0.930 . S
O1340 Cu1334 1.974 . S
O1340 C1350 1.282 . S
C1341 O1342 1.261 . S
C1341 O1354 1.251 . S
O1342 C1341 1.261 . S
H1343 C1337 0.930 . S
H1344 C1339 0.930 . S
N1345 Cu1334 1.985 . S
N1345 C1347 1.335 . S
N1345 C1348 1.390 . S
N1346 C1347 1.345 . S
N1346 C1349 1.336 . S
C1347 N1345 1.335 . S
C1347 N1346 1.345 . S
C1347 H1352 0.930 . S
C1348 N1345 1.390 . S
C1348 C1349 1.346 . S
C1348 H1353 0.930 . S
C1349 N1346 1.336 . S
C1349 C1348 1.346 . S
C1349 H1356 0.929 . S
C1350 O1340 1.282 . S
C1350 O1351 1.216 . S
O1351 C1350 1.216 . S
H1352 C1347 0.930 . S
H1353 C1348 0.930 . S
O1354 Cu1334 1.959 . S
O1354 C1341 1.251 . S
H1355 C1338 0.930 . S
H1356 C1349 0.929 . S
Cu1357 N1358 1.999 . S
Cu1357 O1363 1.974 . S
Cu1357 N1368 1.985 . S
Cu1357 O1377 1.959 . S
N1358 Cu1357 1.999 . S
N1358 C1360 1.263 . S
N1358 C1362 1.389 . S
N1359 C1360 1.358 . S
N1359 C1361 1.400 . S
C1360 N1358 1.263 . S
C1360 N1359 1.358 . S
C1360 H1366 0.930 . S
C1361 N1359 1.400 . S
C1361 C1362 1.351 . S
C1361 H1378 0.930 . S
C1362 N1358 1.389 . S
C1362 C1361 1.351 . S
C1362 H1367 0.930 . S
O1363 Cu1357 1.974 . S
O1363 C1373 1.282 . S
C1364 O1365 1.261 . S
C1364 O1377 1.251 . S
O1365 C1364 1.261 . S
H1366 C1360 0.930 . S
H1367 C1362 0.930 . S
N1368 Cu1357 1.985 . S
N1368 C1370 1.335 . S
N1368 C1371 1.390 . S
N1369 C1370 1.345 . S
N1369 C1372 1.336 . S
C1370 N1368 1.335 . S
C1370 N1369 1.345 . S
C1370 H1375 0.930 . S
C1371 N1368 1.390 . S
C1371 C1372 1.346 . S
C1371 H1376 0.930 . S
C1372 N1369 1.336 . S
C1372 C1371 1.346 . S
C1372 H1379 0.929 . S
C1373 O1363 1.282 . S
C1373 O1374 1.216 . S
O1374 C1373 1.216 . S
H1375 C1370 0.930 . S
H1376 C1371 0.930 . S
O1377 Cu1357 1.959 . S
O1377 C1364 1.251 . S
H1378 C1361 0.930 . S
H1379 C1372 0.929 . S
Cu1380 N1381 1.999 . S
Cu1380 O1386 1.974 . S
Cu1380 N1391 1.985 . S
Cu1380 O1400 1.959 . S
N1381 Cu1380 1.999 . S
N1381 C1383 1.263 . S
N1381 C1385 1.389 . S
N1382 C1383 1.358 . S
N1382 C1384 1.400 . S
C1383 N1381 1.263 . S
C1383 N1382 1.358 . S
C1383 H1389 0.930 . S
C1384 N1382 1.400 . S
C1384 C1385 1.351 . S
C1384 H1401 0.930 . S
C1385 N1381 1.389 . S
C1385 C1384 1.351 . S
C1385 H1390 0.930 . S
O1386 Cu1380 1.974 . S
O1386 C1396 1.282 . S
C1387 O1388 1.261 . S
C1387 O1400 1.251 . S
O1388 C1387 1.261 . S
H1389 C1383 0.930 . S
H1390 C1385 0.930 . S
N1391 Cu1380 1.985 . S
N1391 C1393 1.335 . S
N1391 C1394 1.390 . S
N1392 C1393 1.345 1_545 S
N1392 C1395 1.336 . S
C1393 N1391 1.335 . S
C1393 N1392 1.345 1_565 S
C1393 H1398 0.930 . S
C1394 N1391 1.390 . S
C1394 C1395 1.346 1_565 S
C1394 H1399 0.930 . S
C1395 N1392 1.336 . S
C1395 C1394 1.346 1_545 S
C1395 H1402 0.929 . S
C1396 O1386 1.282 . S
C1396 O1397 1.216 . S
O1397 C1396 1.216 . S
H1398 C1393 0.930 . S
H1399 C1394 0.930 . S
O1400 Cu1380 1.959 . S
O1400 C1387 1.251 . S
H1401 C1384 0.930 . S
H1402 C1395 0.929 . S
Cu1403 N1404 1.999 . S
Cu1403 O1409 1.974 . S
Cu1403 N1414 1.985 . S
Cu1403 O1423 1.959 . S
N1404 Cu1403 1.999 . S
N1404 C1406 1.263 . S
N1404 C1408 1.389 . S
N1405 C1406 1.358 . S
N1405 C1407 1.400 . S
C1406 N1404 1.263 . S
C1406 N1405 1.358 . S
C1406 H1412 0.930 . S
C1407 N1405 1.400 . S
C1407 C1408 1.351 . S
C1407 H1424 0.930 . S
C1408 N1404 1.389 . S
C1408 C1407 1.351 . S
C1408 H1413 0.930 . S
O1409 Cu1403 1.974 . S
O1409 C1419 1.282 . S
C1410 O1411 1.261 . S
C1410 O1423 1.251 . S
O1411 C1410 1.261 . S
H1412 C1406 0.930 . S
H1413 C1408 0.930 . S
N1414 Cu1403 1.985 . S
N1414 C1416 1.335 . S
N1414 C1417 1.390 . S
N1415 C1416 1.345 . S
N1415 C1418 1.336 . S
C1416 N1414 1.335 . S
C1416 N1415 1.345 . S
C1416 H1421 0.930 . S
C1417 N1414 1.390 . S
C1417 C1418 1.346 . S
C1417 H1422 0.930 . S
C1418 N1415 1.336 . S
C1418 C1417 1.346 . S
C1418 H1425 0.929 . S
C1419 O1409 1.282 . S
C1419 O1420 1.216 . S
O1420 C1419 1.216 . S
H1421 C1416 0.930 . S
H1422 C1417 0.930 . S
O1423 Cu1403 1.959 . S
O1423 C1410 1.251 . S
H1424 C1407 0.930 . S
H1425 C1418 0.929 . S
Cu1426 N1427 1.999 . S
Cu1426 O1432 1.974 . S
Cu1426 N1437 1.985 . S
Cu1426 O1446 1.959 . S
N1427 Cu1426 1.999 . S
N1427 C1429 1.263 . S
N1427 C1431 1.389 . S
N1428 C1429 1.358 . S
N1428 C1430 1.400 . S
C1429 N1427 1.263 . S
C1429 N1428 1.358 . S
C1429 H1435 0.930 . S
C1430 N1428 1.400 . S
C1430 C1431 1.351 . S
C1430 H1447 0.930 . S
C1431 N1427 1.389 . S
C1431 C1430 1.351 . S
C1431 H1436 0.930 . S
O1432 Cu1426 1.974 . S
O1432 C1442 1.282 . S
C1433 O1434 1.261 . S
C1433 O1446 1.251 . S
O1434 C1433 1.261 . S
H1435 C1429 0.930 . S
H1436 C1431 0.930 . S
N1437 Cu1426 1.985 . S
N1437 C1439 1.335 . S
N1437 C1440 1.390 . S
N1438 C1439 1.345 . S
N1438 C1441 1.336 . S
C1439 N1437 1.335 . S
C1439 N1438 1.345 . S
C1439 H1444 0.930 . S
C1440 N1437 1.390 . S
C1440 C1441 1.346 . S
C1440 H1445 0.930 . S
C1441 N1438 1.336 . S
C1441 C1440 1.346 . S
C1441 H1448 0.929 . S
C1442 O1432 1.282 . S
C1442 O1443 1.216 . S
O1443 C1442 1.216 . S
H1444 C1439 0.930 . S
H1445 C1440 0.930 . S
O1446 Cu1426 1.959 . S
O1446 C1433 1.251 . S
H1447 C1430 0.930 . S
H1448 C1441 0.929 . S
Cu1449 N1450 1.999 . S
Cu1449 O1455 1.974 . S
Cu1449 N1460 1.985 . S
Cu1449 O1469 1.959 . S
N1450 Cu1449 1.999 . S
N1450 C1452 1.263 . S
N1450 C1454 1.389 . S
N1451 C1452 1.358 . S
N1451 C1453 1.400 . S
C1452 N1450 1.263 . S
C1452 N1451 1.358 . S
C1452 H1458 0.930 . S
C1453 N1451 1.400 . S
C1453 C1454 1.351 . S
C1453 H1470 0.930 . S
C1454 N1450 1.389 . S
C1454 C1453 1.351 . S
C1454 H1459 0.930 . S
O1455 Cu1449 1.974 . S
O1455 C1465 1.282 . S
C1456 O1457 1.261 . S
C1456 O1469 1.251 . S
O1457 C1456 1.261 . S
H1458 C1452 0.930 . S
H1459 C1454 0.930 . S
N1460 Cu1449 1.985 . S
N1460 C1462 1.335 . S
N1460 C1463 1.390 . S
N1461 C1462 1.345 . S
N1461 C1464 1.336 . S
C1462 N1460 1.335 . S
C1462 N1461 1.345 . S
C1462 H1467 0.930 . S
C1463 N1460 1.390 . S
C1463 C1464 1.346 . S
C1463 H1468 0.930 . S
C1464 N1461 1.336 . S
C1464 C1463 1.346 . S
C1464 H1471 0.929 . S
C1465 O1455 1.282 . S
C1465 O1466 1.216 . S
O1466 C1465 1.216 . S
H1467 C1462 0.930 . S
H1468 C1463 0.930 . S
O1469 Cu1449 1.959 . S
O1469 C1456 1.251 . S
H1470 C1453 0.930 . S
H1471 C1464 0.929 . S
Cu1472 N1473 1.999 . S
Cu1472 O1478 1.974 . S
Cu1472 N1483 1.985 . S
Cu1472 O1492 1.959 . S
N1473 Cu1472 1.999 . S
N1473 C1475 1.263 . S
N1473 C1477 1.389 . S
N1474 C1475 1.358 . S
N1474 C1476 1.400 . S
C1475 N1473 1.263 . S
C1475 N1474 1.358 . S
C1475 H1481 0.930 . S
C1476 N1474 1.400 . S
C1476 C1477 1.351 . S
C1476 H1493 0.930 . S
C1477 N1473 1.389 . S
C1477 C1476 1.351 . S
C1477 H1482 0.930 . S
O1478 Cu1472 1.974 . S
O1478 C1488 1.282 . S
C1479 O1480 1.261 . S
C1479 O1492 1.251 . S
O1480 C1479 1.261 . S
H1481 C1475 0.930 . S
H1482 C1477 0.930 . S
N1483 Cu1472 1.985 . S
N1483 C1485 1.335 . S
N1483 C1486 1.390 . S
N1484 C1485 1.345 . S
N1484 C1487 1.336 . S
C1485 N1483 1.335 . S
C1485 N1484 1.345 . S
C1485 H1490 0.930 . S
C1486 N1483 1.390 . S
C1486 C1487 1.346 . S
C1486 H1491 0.930 . S
C1487 N1484 1.336 . S
C1487 C1486 1.346 . S
C1487 H1494 0.929 . S
C1488 O1478 1.282 . S
C1488 O1489 1.216 . S
O1489 C1488 1.216 . S
H1490 C1485 0.930 . S
H1491 C1486 0.930 . S
O1492 Cu1472 1.959 . S
O1492 C1479 1.251 . S
H1493 C1476 0.930 . S
H1494 C1487 0.929 . S
Cu1495 N1496 1.999 . S
Cu1495 O1501 1.974 . S
Cu1495 N1506 1.985 . S
Cu1495 O1515 1.959 . S
N1496 Cu1495 1.999 . S
N1496 C1498 1.263 . S
N1496 C1500 1.389 . S
N1497 C1498 1.358 . S
N1497 C1499 1.400 . S
C1498 N1496 1.263 . S
C1498 N1497 1.358 . S
C1498 H1504 0.930 . S
C1499 N1497 1.400 . S
C1499 C1500 1.351 . S
C1499 H1516 0.930 . S
C1500 N1496 1.389 . S
C1500 C1499 1.351 . S
C1500 H1505 0.930 . S
O1501 Cu1495 1.974 . S
O1501 C1511 1.282 . S
C1502 O1503 1.261 . S
C1502 O1515 1.251 . S
O1503 C1502 1.261 . S
H1504 C1498 0.930 . S
H1505 C1500 0.930 . S
N1506 Cu1495 1.985 . S
N1506 C1508 1.335 . S
N1506 C1509 1.390 . S
N1507 C1508 1.345 1_554 S
N1507 C1510 1.336 . S
C1508 N1506 1.335 . S
C1508 N1507 1.345 1_556 S
C1508 H1513 0.930 . S
C1509 N1506 1.390 . S
C1509 C1510 1.346 1_556 S
C1509 H1514 0.930 . S
C1510 N1507 1.336 . S
C1510 C1509 1.346 1_554 S
C1510 H1517 0.929 . S
C1511 O1501 1.282 . S
C1511 O1512 1.216 . S
O1512 C1511 1.216 . S
H1513 C1508 0.930 . S
H1514 C1509 0.930 . S
O1515 Cu1495 1.959 . S
O1515 C1502 1.251 . S
H1516 C1499 0.930 . S
H1517 C1510 0.929 . S
Cu1518 N1519 1.999 . S
Cu1518 O1524 1.974 . S
Cu1518 N1529 1.985 . S
Cu1518 O1538 1.959 . S
N1519 Cu1518 1.999 . S
N1519 C1521 1.263 . S
N1519 C1523 1.389 . S
N1520 C1521 1.358 . S
N1520 C1522 1.400 . S
C1521 N1519 1.263 . S
C1521 N1520 1.358 . S
C1521 H1527 0.930 . S
C1522 N1520 1.400 . S
C1522 C1523 1.351 . S
C1522 H1539 0.930 . S
C1523 N1519 1.389 . S
C1523 C1522 1.351 . S
C1523 H1528 0.930 . S
O1524 Cu1518 1.974 . S
O1524 C1534 1.282 . S
C1525 O1526 1.261 . S
C1525 O1538 1.251 . S
O1526 C1525 1.261 . S
H1527 C1521 0.930 . S
H1528 C1523 0.930 . S
N1529 Cu1518 1.985 . S
N1529 C1531 1.335 . S
N1529 C1532 1.390 . S
N1530 C1531 1.345 . S
N1530 C1533 1.336 . S
C1531 N1529 1.335 . S
C1531 N1530 1.345 . S
C1531 H1536 0.930 . S
C1532 N1529 1.390 . S
C1532 C1533 1.346 . S
C1532 H1537 0.930 . S
C1533 N1530 1.336 . S
C1533 C1532 1.346 . S
C1533 H1540 0.929 . S
C1534 O1524 1.282 . S
C1534 O1535 1.216 . S
O1535 C1534 1.216 . S
H1536 C1531 0.930 . S
H1537 C1532 0.930 . S
O1538 Cu1518 1.959 . S
O1538 C1525 1.251 . S
H1539 C1522 0.930 . S
H1540 C1533 0.929 . S
Cu1541 N1542 1.999 . S
Cu1541 O1547 1.974 . S
Cu1541 N1552 1.985 . S
Cu1541 O1561 1.959 . S
N1542 Cu1541 1.999 . S
N1542 C1544 1.263 . S
N1542 C1546 1.389 . S
N1543 C1544 1.358 . S
N1543 C1545 1.400 . S
C1544 N1542 1.263 . S
C1544 N1543 1.358 . S
C1544 H1550 0.930 . S
C1545 N1543 1.400 . S
C1545 C1546 1.351 . S
C1545 H1562 0.930 . S
C1546 N1542 1.389 . S
C1546 C1545 1.351 . S
C1546 H1551 0.930 . S
O1547 Cu1541 1.974 . S
O1547 C1557 1.282 . S
C1548 O1549 1.261 . S
C1548 O1561 1.251 . S
O1549 C1548 1.261 . S
H1550 C1544 0.930 . S
H1551 C1546 0.930 . S
N1552 Cu1541 1.985 . S
N1552 C1554 1.335 . S
N1552 C1555 1.390 . S
N1553 C1554 1.345 . S
N1553 C1556 1.336 . S
C1554 N1552 1.335 . S
C1554 N1553 1.345 . S
C1554 H1559 0.930 . S
C1555 N1552 1.390 . S
C1555 C1556 1.346 . S
C1555 H1560 0.930 . S
C1556 N1553 1.336 . S
C1556 C1555 1.346 . S
C1556 H1563 0.929 . S
C1557 O1547 1.282 . S
C1557 O1558 1.216 . S
O1558 C1557 1.216 . S
H1559 C1554 0.930 . S
H1560 C1555 0.930 . S
O1561 Cu1541 1.959 . S
O1561 C1548 1.251 . S
H1562 C1545 0.930 . S
H1563 C1556 0.929 . S
Cu1564 N1565 1.999 . S
Cu1564 O1570 1.974 . S
Cu1564 N1575 1.985 . S
Cu1564 O1584 1.959 . S
N1565 Cu1564 1.999 . S
N1565 C1567 1.263 . S
N1565 C1569 1.389 . S
N1566 C1567 1.358 . S
N1566 C1568 1.400 . S
C1567 N1565 1.263 . S
C1567 N1566 1.358 . S
C1567 H1573 0.930 . S
C1568 N1566 1.400 . S
C1568 C1569 1.351 . S
C1568 H1585 0.930 . S
C1569 N1565 1.389 . S
C1569 C1568 1.351 . S
C1569 H1574 0.930 . S
O1570 Cu1564 1.974 . S
O1570 C1580 1.282 . S
C1571 O1572 1.261 . S
C1571 O1584 1.251 . S
O1572 C1571 1.261 . S
H1573 C1567 0.930 . S
H1574 C1569 0.930 . S
N1575 Cu1564 1.985 . S
N1575 C1577 1.335 . S
N1575 C1578 1.390 . S
N1576 C1577 1.345 . S
N1576 C1579 1.336 . S
C1577 N1575 1.335 . S
C1577 N1576 1.345 . S
C1577 H1582 0.930 . S
C1578 N1575 1.390 . S
C1578 C1579 1.346 . S
C1578 H1583 0.930 . S
C1579 N1576 1.336 . S
C1579 C1578 1.346 . S
C1579 H1586 0.929 . S
C1580 O1570 1.282 . S
C1580 O1581 1.216 . S
O1581 C1580 1.216 . S
H1582 C1577 0.930 . S
H1583 C1578 0.930 . S
O1584 Cu1564 1.959 . S
O1584 C1571 1.251 . S
H1585 C1568 0.930 . S
H1586 C1579 0.929 . S
Cu1587 N1588 1.999 . S
Cu1587 O1593 1.974 . S
Cu1587 N1598 1.985 . S
Cu1587 O1607 1.959 . S
N1588 Cu1587 1.999 . S
N1588 C1590 1.263 . S
N1588 C1592 1.389 . S
N1589 C1590 1.358 . S
N1589 C1591 1.400 . S
C1590 N1588 1.263 . S
C1590 N1589 1.358 . S
C1590 H1596 0.930 . S
C1591 N1589 1.400 . S
C1591 C1592 1.351 . S
C1591 H1608 0.930 . S
C1592 N1588 1.389 . S
C1592 C1591 1.351 . S
C1592 H1597 0.930 . S
O1593 Cu1587 1.974 . S
O1593 C1603 1.282 . S
C1594 O1595 1.261 . S
C1594 O1607 1.251 . S
O1595 C1594 1.261 . S
H1596 C1590 0.930 . S
H1597 C1592 0.930 . S
N1598 Cu1587 1.985 . S
N1598 C1600 1.335 . S
N1598 C1601 1.390 . S
N1599 C1600 1.345 . S
N1599 C1602 1.336 . S
C1600 N1598 1.335 . S
C1600 N1599 1.345 . S
C1600 H1605 0.930 . S
C1601 N1598 1.390 . S
C1601 C1602 1.346 . S
C1601 H1606 0.930 . S
C1602 N1599 1.336 . S
C1602 C1601 1.346 . S
C1602 H1609 0.929 . S
C1603 O1593 1.282 . S
C1603 O1604 1.216 . S
O1604 C1603 1.216 . S
H1605 C1600 0.930 . S
H1606 C1601 0.930 . S
O1607 Cu1587 1.959 . S
O1607 C1594 1.251 . S
H1608 C1591 0.930 . S
H1609 C1602 0.929 . S
Cu1610 N1611 1.999 . S
Cu1610 O1616 1.974 . S
Cu1610 N1621 1.985 . S
Cu1610 O1630 1.959 . S
N1611 Cu1610 1.999 . S
N1611 C1613 1.263 . S
N1611 C1615 1.389 . S
N1612 C1613 1.358 . S
N1612 C1614 1.400 . S
C1613 N1611 1.263 . S
C1613 N1612 1.358 . S
C1613 H1619 0.930 . S
C1614 N1612 1.400 . S
C1614 C1615 1.351 . S
C1614 H1631 0.930 . S
C1615 N1611 1.389 . S
C1615 C1614 1.351 . S
C1615 H1620 0.930 . S
O1616 Cu1610 1.974 . S
O1616 C1626 1.282 . S
C1617 O1618 1.261 . S
C1617 O1630 1.251 . S
O1618 C1617 1.261 . S
H1619 C1613 0.930 . S
H1620 C1615 0.930 . S
N1621 Cu1610 1.985 . S
N1621 C1623 1.335 . S
N1621 C1624 1.390 . S
N1622 C1623 1.345 . S
N1622 C1625 1.336 . S
C1623 N1621 1.335 . S
C1623 N1622 1.345 . S
C1623 H1628 0.930 . S
C1624 N1621 1.390 . S
C1624 C1625 1.346 . S
C1624 H1629 0.930 . S
C1625 N1622 1.336 . S
C1625 C1624 1.346 . S
C1625 H1632 0.929 . S
C1626 O1616 1.282 . S
C1626 O1627 1.216 . S
O1627 C1626 1.216 . S
H1628 C1623 0.930 . S
H1629 C1624 0.930 . S
O1630 Cu1610 1.959 . S
O1630 C1617 1.251 . S
H1631 C1614 0.930 . S
H1632 C1625 0.929 . S
Cu1633 N1634 1.999 . S
Cu1633 O1639 1.974 . S
Cu1633 N1644 1.985 . S
Cu1633 O1653 1.959 . S
N1634 Cu1633 1.999 . S
N1634 C1636 1.263 . S
N1634 C1638 1.389 . S
N1635 C1636 1.358 . S
N1635 C1637 1.400 . S
C1636 N1634 1.263 . S
C1636 N1635 1.358 . S
C1636 H1642 0.930 . S
C1637 N1635 1.400 . S
C1637 C1638 1.351 . S
C1637 H1654 0.930 . S
C1638 N1634 1.389 . S
C1638 C1637 1.351 . S
C1638 H1643 0.930 . S
O1639 Cu1633 1.974 . S
O1639 C1649 1.282 . S
C1640 O1641 1.261 . S
C1640 O1653 1.251 . S
O1641 C1640 1.261 . S
H1642 C1636 0.930 . S
H1643 C1638 0.930 . S
N1644 Cu1633 1.985 . S
N1644 C1646 1.335 . S
N1644 C1647 1.390 . S
N1645 C1646 1.345 . S
N1645 C1648 1.336 . S
C1646 N1644 1.335 . S
C1646 N1645 1.345 . S
C1646 H1651 0.930 . S
C1647 N1644 1.390 . S
C1647 C1648 1.346 . S
C1647 H1652 0.930 . S
C1648 N1645 1.336 . S
C1648 C1647 1.346 . S
C1648 H1655 0.929 . S
C1649 O1639 1.282 . S
C1649 O1650 1.216 . S
O1650 C1649 1.216 . S
H1651 C1646 0.930 . S
H1652 C1647 0.930 . S
O1653 Cu1633 1.959 . S
O1653 C1640 1.251 . S
H1654 C1637 0.930 . S
H1655 C1648 0.929 . S
Cu1656 N1657 1.999 . S
Cu1656 O1662 1.974 . S
Cu1656 N1667 1.985 . S
Cu1656 O1676 1.959 . S
N1657 Cu1656 1.999 . S
N1657 C1659 1.263 . S
N1657 C1661 1.389 . S
N1658 C1659 1.358 . S
N1658 C1660 1.400 . S
C1659 N1657 1.263 . S
C1659 N1658 1.358 . S
C1659 H1665 0.930 . S
C1660 N1658 1.400 . S
C1660 C1661 1.351 . S
C1660 H1677 0.930 . S
C1661 N1657 1.389 . S
C1661 C1660 1.351 . S
C1661 H1666 0.930 . S
O1662 Cu1656 1.974 . S
O1662 C1672 1.282 . S
C1663 O1664 1.261 . S
C1663 O1676 1.251 . S
O1664 C1663 1.261 . S
H1665 C1659 0.930 . S
H1666 C1661 0.930 . S
N1667 Cu1656 1.985 . S
N1667 C1669 1.335 . S
N1667 C1670 1.390 . S
N1668 C1669 1.345 . S
N1668 C1671 1.336 . S
C1669 N1667 1.335 . S
C1669 N1668 1.345 . S
C1669 H1674 0.930 . S
C1670 N1667 1.390 . S
C1670 C1671 1.346 . S
C1670 H1675 0.930 . S
C1671 N1668 1.336 . S
C1671 C1670 1.346 . S
C1671 H1678 0.929 . S
C1672 O1662 1.282 . S
C1672 O1673 1.216 . S
O1673 C1672 1.216 . S
H1674 C1669 0.930 . S
H1675 C1670 0.930 . S
O1676 Cu1656 1.959 . S
O1676 C1663 1.251 . S
H1677 C1660 0.930 . S
H1678 C1671 0.929 . S
Cu1679 N1680 1.999 . S
Cu1679 O1685 1.974 . S
Cu1679 N1690 1.985 . S
Cu1679 O1699 1.959 . S
N1680 Cu1679 1.999 . S
N1680 C1682 1.263 . S
N1680 C1684 1.389 . S
N1681 C1682 1.358 . S
N1681 C1683 1.400 . S
C1682 N1680 1.263 . S
C1682 N1681 1.358 . S
C1682 H1688 0.930 . S
C1683 N1681 1.400 . S
C1683 C1684 1.351 . S
C1683 H1700 0.930 . S
C1684 N1680 1.389 . S
C1684 C1683 1.351 . S
C1684 H1689 0.930 . S
O1685 Cu1679 1.974 . S
O1685 C1695 1.282 . S
C1686 O1687 1.261 . S
C1686 O1699 1.251 . S
O1687 C1686 1.261 . S
H1688 C1682 0.930 . S
H1689 C1684 0.930 . S
N1690 Cu1679 1.985 . S
N1690 C1692 1.335 . S
N1690 C1693 1.390 . S
N1691 C1692 1.345 . S
N1691 C1694 1.336 . S
C1692 N1690 1.335 . S
C1692 N1691 1.345 . S
C1692 H1697 0.930 . S
C1693 N1690 1.390 . S
C1693 C1694 1.346 . S
C1693 H1698 0.930 . S
C1694 N1691 1.336 . S
C1694 C1693 1.346 . S
C1694 H1701 0.929 . S
C1695 O1685 1.282 . S
C1695 O1696 1.216 . S
O1696 C1695 1.216 . S
H1697 C1692 0.930 . S
H1698 C1693 0.930 . S
O1699 Cu1679 1.959 . S
O1699 C1686 1.251 . S
H1700 C1683 0.930 . S
H1701 C1694 0.929 . S
Cu1702 N1703 1.999 . S
Cu1702 O1708 1.974 . S
Cu1702 N1713 1.985 . S
Cu1702 O1722 1.959 . S
N1703 Cu1702 1.999 . S
N1703 C1705 1.263 . S
N1703 C1707 1.389 . S
N1704 C1705 1.358 . S
N1704 C1706 1.400 . S
C1705 N1703 1.263 . S
C1705 N1704 1.358 . S
C1705 H1711 0.930 . S
C1706 N1704 1.400 . S
C1706 C1707 1.351 . S
C1706 H1723 0.930 . S
C1707 N1703 1.389 . S
C1707 C1706 1.351 . S
C1707 H1712 0.930 . S
O1708 Cu1702 1.974 . S
O1708 C1718 1.282 . S
C1709 O1710 1.261 . S
C1709 O1722 1.251 . S
O1710 C1709 1.261 . S
H1711 C1705 0.930 . S
H1712 C1707 0.930 . S
N1713 Cu1702 1.985 . S
N1713 C1715 1.335 . S
N1713 C1716 1.390 . S
N1714 C1715 1.345 . S
N1714 C1717 1.336 . S
C1715 N1713 1.335 . S
C1715 N1714 1.345 . S
C1715 H1720 0.930 . S
C1716 N1713 1.390 . S
C1716 C1717 1.346 . S
C1716 H1721 0.930 . S
C1717 N1714 1.336 . S
C1717 C1716 1.346 . S
C1717 H1724 0.929 . S
C1718 O1708 1.282 . S
C1718 O1719 1.216 . S
O1719 C1718 1.216 . S
H1720 C1715 0.930 . S
H1721 C1716 0.930 . S
O1722 Cu1702 1.959 . S
O1722 C1709 1.251 . S
H1723 C1706 0.930 . S
H1724 C1717 0.929 . S
Cu1725 N1726 1.999 . S
Cu1725 O1731 1.974 . S
Cu1725 N1736 1.985 . S
Cu1725 O1745 1.959 . S
N1726 Cu1725 1.999 . S
N1726 C1728 1.263 . S
N1726 C1730 1.389 . S
N1727 C1728 1.358 . S
N1727 C1729 1.400 . S
C1728 N1726 1.263 . S
C1728 N1727 1.358 . S
C1728 H1734 0.930 . S
C1729 N1727 1.400 . S
C1729 C1730 1.351 . S
C1729 H1746 0.930 . S
C1730 N1726 1.389 . S
C1730 C1729 1.351 . S
C1730 H1735 0.930 . S
O1731 Cu1725 1.974 . S
O1731 C1741 1.282 . S
C1732 O1733 1.261 . S
C1732 O1745 1.251 . S
O1733 C1732 1.261 . S
H1734 C1728 0.930 . S
H1735 C1730 0.930 . S
N1736 Cu1725 1.985 . S
N1736 C1738 1.335 . S
N1736 C1739 1.390 . S
N1737 C1738 1.345 . S
N1737 C1740 1.336 . S
C1738 N1736 1.335 . S
C1738 N1737 1.345 . S
C1738 H1743 0.930 . S
C1739 N1736 1.390 . S
C1739 C1740 1.346 . S
C1739 H1744 0.930 . S
C1740 N1737 1.336 . S
C1740 C1739 1.346 . S
C1740 H1747 0.929 . S
C1741 O1731 1.282 . S
C1741 O1742 1.216 . S
O1742 C1741 1.216 . S
H1743 C1738 0.930 . S
H1744 C1739 0.930 . S
O1745 Cu1725 1.959 . S
O1745 C1732 1.251 . S
H1746 C1729 0.930 . S
H1747 C1740 0.929 . S
Cu1748 N1749 1.999 . S
Cu1748 O1754 1.974 . S
Cu1748 N1759 1.985 . S
Cu1748 O1768 1.959 . S
N1749 Cu1748 1.999 . S
N1749 C1751 1.263 . S
N1749 C1753 1.389 . S
N1750 C1751 1.358 . S
N1750 C1752 1.400 . S
C1751 N1749 1.263 . S
C1751 N1750 1.358 . S
C1751 H1757 0.930 . S
C1752 N1750 1.400 . S
C1752 C1753 1.351 . S
C1752 H1769 0.930 . S
C1753 N1749 1.389 . S
C1753 C1752 1.351 . S
C1753 H1758 0.930 . S
O1754 Cu1748 1.974 . S
O1754 C1764 1.282 . S
C1755 O1756 1.261 . S
C1755 O1768 1.251 . S
O1756 C1755 1.261 . S
H1757 C1751 0.930 . S
H1758 C1753 0.930 . S
N1759 Cu1748 1.985 . S
N1759 C1761 1.335 . S
N1759 C1762 1.390 . S
N1760 C1761 1.345 . S
N1760 C1763 1.336 . S
C1761 N1759 1.335 . S
C1761 N1760 1.345 . S
C1761 H1766 0.930 . S
C1762 N1759 1.390 . S
C1762 C1763 1.346 . S
C1762 H1767 0.930 . S
C1763 N1760 1.336 . S
C1763 C1762 1.346 . S
C1763 H1770 0.929 . S
C1764 O1754 1.282 . S
C1764 O1765 1.216 . S
O1765 C1764 1.216 . S
H1766 C1761 0.930 . S
H1767 C1762 0.930 . S
O1768 Cu1748 1.959 . S
O1768 C1755 1.251 . S
H1769 C1752 0.930 . S
H1770 C1763 0.929 . S
Cu1771 N1772 1.999 . S
Cu1771 O1777 1.974 . S
Cu1771 N1782 1.985 . S
Cu1771 O1791 1.959 . S
N1772 Cu1771 1.999 . S
N1772 C1774 1.263 . S
N1772 C1776 1.389 . S
N1773 C1774 1.358 . S
N1773 C1775 1.400 . S
C1774 N1772 1.263 . S
C1774 N1773 1.358 . S
C1774 H1780 0.930 . S
C1775 N1773 1.400 . S
C1775 C1776 1.351 . S
C1775 H1792 0.930 . S
C1776 N1772 1.389 . S
C1776 C1775 1.351 . S
C1776 H1781 0.930 . S
O1777 Cu1771 1.974 . S
O1777 C1787 1.282 . S
C1778 O1779 1.261 . S
C1778 O1791 1.251 . S
O1779 C1778 1.261 . S
H1780 C1774 0.930 . S
H1781 C1776 0.930 . S
N1782 Cu1771 1.985 . S
N1782 C1784 1.335 . S
N1782 C1785 1.390 . S
N1783 C1784 1.345 . S
N1783 C1786 1.336 . S
C1784 N1782 1.335 . S
C1784 N1783 1.345 . S
C1784 H1789 0.930 . S
C1785 N1782 1.390 . S
C1785 C1786 1.346 . S
C1785 H1790 0.930 . S
C1786 N1783 1.336 . S
C1786 C1785 1.346 . S
C1786 H1793 0.929 . S
C1787 O1777 1.282 . S
C1787 O1788 1.216 . S
O1788 C1787 1.216 . S
H1789 C1784 0.930 . S
H1790 C1785 0.930 . S
O1791 Cu1771 1.959 . S
O1791 C1778 1.251 . S
H1792 C1775 0.930 . S
H1793 C1786 0.929 . S
Cu1794 N1795 1.999 . S
Cu1794 O1800 1.974 . S
Cu1794 N1805 1.985 . S
Cu1794 O1814 1.959 . S
N1795 Cu1794 1.999 . S
N1795 C1797 1.263 . S
N1795 C1799 1.389 . S
N1796 C1797 1.358 . S
N1796 C1798 1.400 . S
C1797 N1795 1.263 . S
C1797 N1796 1.358 . S
C1797 H1803 0.930 . S
C1798 N1796 1.400 . S
C1798 C1799 1.351 . S
C1798 H1815 0.930 . S
C1799 N1795 1.389 . S
C1799 C1798 1.351 . S
C1799 H1804 0.930 . S
O1800 Cu1794 1.974 . S
O1800 C1810 1.282 . S
C1801 O1802 1.261 . S
C1801 O1814 1.251 . S
O1802 C1801 1.261 . S
H1803 C1797 0.930 . S
H1804 C1799 0.930 . S
N1805 Cu1794 1.985 . S
N1805 C1807 1.335 . S
N1805 C1808 1.390 . S
N1806 C1807 1.345 . S
N1806 C1809 1.336 . S
C1807 N1805 1.335 . S
C1807 N1806 1.345 . S
C1807 H1812 0.930 . S
C1808 N1805 1.390 . S
C1808 C1809 1.346 . S
C1808 H1813 0.930 . S
C1809 N1806 1.336 . S
C1809 C1808 1.346 . S
C1809 H1816 0.929 . S
C1810 O1800 1.282 . S
C1810 O1811 1.216 . S
O1811 C1810 1.216 . S
H1812 C1807 0.930 . S
H1813 C1808 0.930 . S
O1814 Cu1794 1.959 . S
O1814 C1801 1.251 . S
H1815 C1798 0.930 . S
H1816 C1809 0.929 . S
Cu1817 N1818 1.999 . S
Cu1817 O1823 1.974 . S
Cu1817 N1828 1.985 . S
Cu1817 O1837 1.959 . S
N1818 Cu1817 1.999 . S
N1818 C1820 1.263 . S
N1818 C1822 1.389 . S
N1819 C1820 1.358 . S
N1819 C1821 1.400 . S
C1820 N1818 1.263 . S
C1820 N1819 1.358 . S
C1820 H1826 0.930 . S
C1821 N1819 1.400 . S
C1821 C1822 1.351 . S
C1821 H1838 0.930 . S
C1822 N1818 1.389 . S
C1822 C1821 1.351 . S
C1822 H1827 0.930 . S
O1823 Cu1817 1.974 . S
O1823 C1833 1.282 . S
C1824 O1825 1.261 . S
C1824 O1837 1.251 . S
O1825 C1824 1.261 . S
H1826 C1820 0.930 . S
H1827 C1822 0.930 . S
N1828 Cu1817 1.985 . S
N1828 C1830 1.335 . S
N1828 C1831 1.390 . S
N1829 C1830 1.345 . S
N1829 C1832 1.336 . S
C1830 N1828 1.335 . S
C1830 N1829 1.345 . S
C1830 H1835 0.930 . S
C1831 N1828 1.390 . S
C1831 C1832 1.346 . S
C1831 H1836 0.930 . S
C1832 N1829 1.336 . S
C1832 C1831 1.346 . S
C1832 H1839 0.929 . S
C1833 O1823 1.282 . S
C1833 O1834 1.216 . S
O1834 C1833 1.216 . S
H1835 C1830 0.930 . S
H1836 C1831 0.930 . S
O1837 Cu1817 1.959 . S
O1837 C1824 1.251 . S
H1838 C1821 0.930 . S
H1839 C1832 0.929 . S
Cu1840 N1841 1.999 . S
Cu1840 O1846 1.974 . S
Cu1840 N1851 1.985 . S
Cu1840 O1860 1.959 . S
N1841 Cu1840 1.999 . S
N1841 C1843 1.263 . S
N1841 C1845 1.389 . S
N1842 C1843 1.358 . S
N1842 C1844 1.400 . S
C1843 N1841 1.263 . S
C1843 N1842 1.358 . S
C1843 H1849 0.930 . S
C1844 N1842 1.400 . S
C1844 C1845 1.351 . S
C1844 H1861 0.930 . S
C1845 N1841 1.389 . S
C1845 C1844 1.351 . S
C1845 H1850 0.930 . S
O1846 Cu1840 1.974 . S
O1846 C1856 1.282 . S
C1847 O1848 1.261 . S
C1847 O1860 1.251 . S
O1848 C1847 1.261 . S
H1849 C1843 0.930 . S
H1850 C1845 0.930 . S
N1851 Cu1840 1.985 . S
N1851 C1853 1.335 . S
N1851 C1854 1.390 . S
N1852 C1853 1.345 . S
N1852 C1855 1.336 . S
C1853 N1851 1.335 . S
C1853 N1852 1.345 . S
C1853 H1858 0.930 . S
C1854 N1851 1.390 . S
C1854 C1855 1.346 . S
C1854 H1859 0.930 . S
C1855 N1852 1.336 . S
C1855 C1854 1.346 . S
C1855 H1862 0.929 . S
C1856 O1846 1.282 . S
C1856 O1857 1.216 . S
O1857 C1856 1.216 . S
H1858 C1853 0.930 . S
H1859 C1854 0.930 . S
O1860 Cu1840 1.959 . S
O1860 C1847 1.251 . S
H1861 C1844 0.930 . S
H1862 C1855 0.929 . S
Cu1863 N1864 1.999 . S
Cu1863 O1869 1.974 . S
Cu1863 N1874 1.985 . S
Cu1863 O1883 1.959 . S
N1864 Cu1863 1.999 . S
N1864 C1866 1.263 . S
N1864 C1868 1.389 . S
N1865 C1866 1.358 . S
N1865 C1867 1.400 . S
C1866 N1864 1.263 . S
C1866 N1865 1.358 . S
C1866 H1872 0.930 . S
C1867 N1865 1.400 . S
C1867 C1868 1.351 . S
C1867 H1884 0.930 . S
C1868 N1864 1.389 . S
C1868 C1867 1.351 . S
C1868 H1873 0.930 . S
O1869 Cu1863 1.974 . S
O1869 C1879 1.282 . S
C1870 O1871 1.261 . S
C1870 O1883 1.251 . S
O1871 C1870 1.261 . S
H1872 C1866 0.930 . S
H1873 C1868 0.930 . S
N1874 Cu1863 1.985 . S
N1874 C1876 1.335 . S
N1874 C1877 1.390 . S
N1875 C1876 1.345 . S
N1875 C1878 1.336 . S
C1876 N1874 1.335 . S
C1876 N1875 1.345 . S
C1876 H1881 0.930 . S
C1877 N1874 1.390 . S
C1877 C1878 1.346 . S
C1877 H1882 0.930 . S
C1878 N1875 1.336 . S
C1878 C1877 1.346 . S
C1878 H1885 0.929 . S
C1879 O1869 1.282 . S
C1879 O1880 1.216 . S
O1880 C1879 1.216 . S
H1881 C1876 0.930 . S
H1882 C1877 0.930 . S
O1883 Cu1863 1.959 . S
O1883 C1870 1.251 . S
H1884 C1867 0.930 . S
H1885 C1878 0.929 . S
Cu1886 N1887 1.999 . S
Cu1886 O1892 1.974 . S
Cu1886 N1897 1.985 . S
Cu1886 O1906 1.959 . S
N1887 Cu1886 1.999 . S
N1887 C1889 1.263 . S
N1887 C1891 1.389 . S
N1888 C1889 1.358 . S
N1888 C1890 1.400 . S
C1889 N1887 1.263 . S
C1889 N1888 1.358 . S
C1889 H1895 0.930 . S
C1890 N1888 1.400 . S
C1890 C1891 1.351 . S
C1890 H1907 0.930 . S
C1891 N1887 1.389 . S
C1891 C1890 1.351 . S
C1891 H1896 0.930 . S
O1892 Cu1886 1.974 . S
O1892 C1902 1.282 . S
C1893 O1894 1.261 . S
C1893 O1906 1.251 . S
O1894 C1893 1.261 . S
H1895 C1889 0.930 . S
H1896 C1891 0.930 . S
N1897 Cu1886 1.985 . S
N1897 C1899 1.335 . S
N1897 C1900 1.390 . S
N1898 C1899 1.345 1_545 S
N1898 C1901 1.336 . S
C1899 N1897 1.335 . S
C1899 N1898 1.345 1_565 S
C1899 H1904 0.930 . S
C1900 N1897 1.390 . S
C1900 C1901 1.346 1_565 S
C1900 H1905 0.930 . S
C1901 N1898 1.336 . S
C1901 C1900 1.346 1_545 S
C1901 H1908 0.929 . S
C1902 O1892 1.282 . S
C1902 O1903 1.216 . S
O1903 C1902 1.216 . S
H1904 C1899 0.930 . S
H1905 C1900 0.930 . S
O1906 Cu1886 1.959 . S
O1906 C1893 1.251 . S
H1907 C1890 0.930 . S
H1908 C1901 0.929 . S
Cu1909 N1910 1.999 . S
Cu1909 O1915 1.974 . S
Cu1909 N1920 1.985 . S
Cu1909 O1929 1.959 . S
N1910 Cu1909 1.999 . S
N1910 C1912 1.263 . S
N1910 C1914 1.389 . S
N1911 C1912 1.358 . S
N1911 C1913 1.400 . S
C1912 N1910 1.263 . S
C1912 N1911 1.358 . S
C1912 H1918 0.930 . S
C1913 N1911 1.400 . S
C1913 C1914 1.351 . S
C1913 H1930 0.930 . S
C1914 N1910 1.389 . S
C1914 C1913 1.351 . S
C1914 H1919 0.930 . S
O1915 Cu1909 1.974 . S
O1915 C1925 1.282 . S
C1916 O1917 1.261 . S
C1916 O1929 1.251 . S
O1917 C1916 1.261 . S
H1918 C1912 0.930 . S
H1919 C1914 0.930 . S
N1920 Cu1909 1.985 . S
N1920 C1922 1.335 . S
N1920 C1923 1.390 . S
N1921 C1922 1.345 . S
N1921 C1924 1.336 . S
C1922 N1920 1.335 . S
C1922 N1921 1.345 . S
C1922 H1927 0.930 . S
C1923 N1920 1.390 . S
C1923 C1924 1.346 . S
C1923 H1928 0.930 . S
C1924 N1921 1.336 . S
C1924 C1923 1.346 . S
C1924 H1931 0.929 . S
C1925 O1915 1.282 . S
C1925 O1926 1.216 . S
O1926 C1925 1.216 . S
H1927 C1922 0.930 . S
H1928 C1923 0.930 . S
O1929 Cu1909 1.959 . S
O1929 C1916 1.251 . S
H1930 C1913 0.930 . S
H1931 C1924 0.929 . S
Cu1932 N1933 1.999 . S
Cu1932 O1938 1.974 . S
Cu1932 N1943 1.985 . S
Cu1932 O1952 1.959 . S
N1933 Cu1932 1.999 . S
N1933 C1935 1.263 . S
N1933 C1937 1.389 . S
N1934 C1935 1.358 . S
N1934 C1936 1.400 . S
C1935 N1933 1.263 . S
C1935 N1934 1.358 . S
C1935 H1941 0.930 . S
C1936 N1934 1.400 . S
C1936 C1937 1.351 . S
C1936 H1953 0.930 . S
C1937 N1933 1.389 . S
C1937 C1936 1.351 . S
C1937 H1942 0.930 . S
O1938 Cu1932 1.974 . S
O1938 C1948 1.282 . S
C1939 O1940 1.261 . S
C1939 O1952 1.251 . S
O1940 C1939 1.261 . S
H1941 C1935 0.930 . S
H1942 C1937 0.930 . S
N1943 Cu1932 1.985 . S
N1943 C1945 1.335 . S
N1943 C1946 1.390 . S
N1944 C1945 1.345 . S
N1944 C1947 1.336 . S
C1945 N1943 1.335 . S
C1945 N1944 1.345 . S
C1945 H1950 0.930 . S
C1946 N1943 1.390 . S
C1946 C1947 1.346 . S
C1946 H1951 0.930 . S
C1947 N1944 1.336 . S
C1947 C1946 1.346 . S
C1947 H1954 0.929 . S
C1948 O1938 1.282 . S
C1948 O1949 1.216 . S
O1949 C1948 1.216 . S
H1950 C1945 0.930 . S
H1951 C1946 0.930 . S
O1952 Cu1932 1.959 . S
O1952 C1939 1.251 . S
H1953 C1936 0.930 . S
H1954 C1947 0.929 . S
Cu1955 N1956 1.999 . S
Cu1955 O1961 1.974 . S
Cu1955 N1966 1.985 . S
Cu1955 O1975 1.959 . S
N1956 Cu1955 1.999 . S
N1956 C1958 1.263 . S
N1956 C1960 1.389 . S
N1957 C1958 1.358 . S
N1957 C1959 1.400 . S
C1958 N1956 1.263 . S
C1958 N1957 1.358 . S
C1958 H1964 0.930 . S
C1959 N1957 1.400 . S
C1959 C1960 1.351 . S
C1959 H1976 0.930 . S
C1960 N1956 1.389 . S
C1960 C1959 1.351 . S
C1960 H1965 0.930 . S
O1961 Cu1955 1.974 . S
O1961 C1971 1.282 . S
C1962 O1963 1.261 . S
C1962 O1975 1.251 . S
O1963 C1962 1.261 . S
H1964 C1958 0.930 . S
H1965 C1960 0.930 . S
N1966 Cu1955 1.985 . S
N1966 C1968 1.335 . S
N1966 C1969 1.390 . S
N1967 C1968 1.345 . S
N1967 C1970 1.336 . S
C1968 N1966 1.335 . S
C1968 N1967 1.345 . S
C1968 H1973 0.930 . S
C1969 N1966 1.390 . S
C1969 C1970 1.346 . S
C1969 H1974 0.930 . S
C1970 N1967 1.336 . S
C1970 C1969 1.346 . S
C1970 H1977 0.929 . S
C1971 O1961 1.282 . S
C1971 O1972 1.216 . S
O1972 C1971 1.216 . S
H1973 C1968 0.930 . S
H1974 C1969 0.930 . S
O1975 Cu1955 1.959 . S
O1975 C1962 1.251 . S
H1976 C1959 0.930 . S
H1977 C1970 0.929 . S
Cu1978 N1979 1.999 . S
Cu1978 O1984 1.974 . S
Cu1978 N1989 1.985 . S
Cu1978 O1998 1.959 . S
N1979 Cu1978 1.999 . S
N1979 C1981 1.263 . S
N1979 C1983 1.389 . S
N1980 C1981 1.358 . S
N1980 C1982 1.400 . S
C1981 N1979 1.263 . S
C1981 N1980 1.358 . S
C1981 H1987 0.930 . S
C1982 N1980 1.400 . S
C1982 C1983 1.351 . S
C1982 H1999 0.930 . S
C1983 N1979 1.389 . S
C1983 C1982 1.351 . S
C1983 H1988 0.930 . S
O1984 Cu1978 1.974 . S
O1984 C1994 1.282 . S
C1985 O1986 1.261 . S
C1985 O1998 1.251 . S
O1986 C1985 1.261 . S
H1987 C1981 0.930 . S
H1988 C1983 0.930 . S
N1989 Cu1978 1.985 . S
N1989 C1991 1.335 . S
N1989 C1992 1.390 . S
N1990 C1991 1.345 1_565 S
N1990 C1993 1.336 . S
C1991 N1989 1.335 . S
C1991 N1990 1.345 1_545 S
C1991 H1996 0.930 . S
C1992 N1989 1.390 . S
C1992 C1993 1.346 1_545 S
C1992 H1997 0.930 . S
C1993 N1990 1.336 . S
C1993 C1992 1.346 1_565 S
C1993 H2000 0.929 . S
C1994 O1984 1.282 . S
C1994 O1995 1.216 . S
O1995 C1994 1.216 . S
H1996 C1991 0.930 . S
H1997 C1992 0.930 . S
O1998 Cu1978 1.959 . S
O1998 C1985 1.251 . S
H1999 C1982 0.930 . S
H2000 C1993 0.929 . S
Cu2001 N2002 1.999 . S
Cu2001 O2007 1.974 . S
Cu2001 N2012 1.985 . S
Cu2001 O2021 1.959 . S
N2002 Cu2001 1.999 . S
N2002 C2004 1.263 . S
N2002 C2006 1.389 . S
N2003 C2004 1.358 . S
N2003 C2005 1.400 . S
C2004 N2002 1.263 . S
C2004 N2003 1.358 . S
C2004 H2010 0.930 . S
C2005 N2003 1.400 . S
C2005 C2006 1.351 . S
C2005 H2022 0.930 . S
C2006 N2002 1.389 . S
C2006 C2005 1.351 . S
C2006 H2011 0.930 . S
O2007 Cu2001 1.974 . S
O2007 C2017 1.282 . S
C2008 O2009 1.261 . S
C2008 O2021 1.251 . S
O2009 C2008 1.261 . S
H2010 C2004 0.930 . S
H2011 C2006 0.930 . S
N2012 Cu2001 1.985 . S
N2012 C2014 1.335 . S
N2012 C2015 1.390 . S
N2013 C2014 1.345 . S
N2013 C2016 1.336 . S
C2014 N2012 1.335 . S
C2014 N2013 1.345 . S
C2014 H2019 0.930 . S
C2015 N2012 1.390 . S
C2015 C2016 1.346 . S
C2015 H2020 0.930 . S
C2016 N2013 1.336 . S
C2016 C2015 1.346 . S
C2016 H2023 0.929 . S
C2017 O2007 1.282 . S
C2017 O2018 1.216 . S
O2018 C2017 1.216 . S
H2019 C2014 0.930 . S
H2020 C2015 0.930 . S
O2021 Cu2001 1.959 . S
O2021 C2008 1.251 . S
H2022 C2005 0.930 . S
H2023 C2016 0.929 . S
Cu2024 N2025 1.999 . S
Cu2024 O2030 1.974 . S
Cu2024 N2035 1.985 . S
Cu2024 O2044 1.959 . S
N2025 Cu2024 1.999 . S
N2025 C2027 1.263 . S
N2025 C2029 1.389 . S
N2026 C2027 1.358 . S
N2026 C2028 1.400 . S
C2027 N2025 1.263 . S
C2027 N2026 1.358 . S
C2027 H2033 0.930 . S
C2028 N2026 1.400 . S
C2028 C2029 1.351 . S
C2028 H2045 0.930 . S
C2029 N2025 1.389 . S
C2029 C2028 1.351 . S
C2029 H2034 0.930 . S
O2030 Cu2024 1.974 . S
O2030 C2040 1.282 . S
C2031 O2032 1.261 . S
C2031 O2044 1.251 . S
O2032 C2031 1.261 . S
H2033 C2027 0.930 . S
H2034 C2029 0.930 . S
N2035 Cu2024 1.985 . S
N2035 C2037 1.335 . S
N2035 C2038 1.390 . S
N2036 C2037 1.345 1_556 S
N2036 C2039 1.336 . S
C2037 N2035 1.335 . S
C2037 N2036 1.345 1_554 S
C2037 H2042 0.930 . S
C2038 N2035 1.390 . S
C2038 C2039 1.346 1_554 S
C2038 H2043 0.930 . S
C2039 N2036 1.336 . S
C2039 C2038 1.346 1_556 S
C2039 H2046 0.929 . S
C2040 O2030 1.282 . S
C2040 O2041 1.216 . S
O2041 C2040 1.216 . S
H2042 C2037 0.930 . S
H2043 C2038 0.930 . S
O2044 Cu2024 1.959 . S
O2044 C2031 1.251 . S
H2045 C2028 0.930 . S
H2046 C2039 0.929 . S
Cu2047 N2048 1.999 . S
Cu2047 O2053 1.974 . S
Cu2047 N2058 1.985 . S
Cu2047 O2067 1.959 . S
N2048 Cu2047 1.999 . S
N2048 C2050 1.263 . S
N2048 C2052 1.389 . S
N2049 C2050 1.358 . S
N2049 C2051 1.400 . S
C2050 N2048 1.263 . S
C2050 N2049 1.358 . S
C2050 H2056 0.930 . S
C2051 N2049 1.400 . S
C2051 C2052 1.351 . S
C2051 H2068 0.930 . S
C2052 N2048 1.389 . S
C2052 C2051 1.351 . S
C2052 H2057 0.930 . S
O2053 Cu2047 1.974 . S
O2053 C2063 1.282 . S
C2054 O2055 1.261 . S
C2054 O2067 1.251 . S
O2055 C2054 1.261 . S
H2056 C2050 0.930 . S
H2057 C2052 0.930 . S
N2058 Cu2047 1.985 . S
N2058 C2060 1.335 . S
N2058 C2061 1.390 . S
N2059 C2060 1.345 . S
N2059 C2062 1.336 . S
C2060 N2058 1.335 . S
C2060 N2059 1.345 . S
C2060 H2065 0.930 . S
C2061 N2058 1.390 . S
C2061 C2062 1.346 . S
C2061 H2066 0.930 . S
C2062 N2059 1.336 . S
C2062 C2061 1.346 . S
C2062 H2069 0.929 . S
C2063 O2053 1.282 . S
C2063 O2064 1.216 . S
O2064 C2063 1.216 . S
H2065 C2060 0.930 . S
H2066 C2061 0.930 . S
O2067 Cu2047 1.959 . S
O2067 C2054 1.251 . S
H2068 C2051 0.930 . S
H2069 C2062 0.929 . S
Cu2070 N2071 1.999 . S
Cu2070 O2076 1.974 . S
Cu2070 N2081 1.985 . S
Cu2070 O2090 1.959 . S
N2071 Cu2070 1.999 . S
N2071 C2073 1.263 . S
N2071 C2075 1.389 . S
N2072 C2073 1.358 . S
N2072 C2074 1.400 . S
C2073 N2071 1.263 . S
C2073 N2072 1.358 . S
C2073 H2079 0.930 . S
C2074 N2072 1.400 . S
C2074 C2075 1.351 . S
C2074 H2091 0.930 . S
C2075 N2071 1.389 . S
C2075 C2074 1.351 . S
C2075 H2080 0.930 . S
O2076 Cu2070 1.974 . S
O2076 C2086 1.282 . S
C2077 O2078 1.261 . S
C2077 O2090 1.251 . S
O2078 C2077 1.261 . S
H2079 C2073 0.930 . S
H2080 C2075 0.930 . S
N2081 Cu2070 1.985 . S
N2081 C2083 1.335 . S
N2081 C2084 1.390 . S
N2082 C2083 1.345 . S
N2082 C2085 1.336 . S
C2083 N2081 1.335 . S
C2083 N2082 1.345 . S
C2083 H2088 0.930 . S
C2084 N2081 1.390 . S
C2084 C2085 1.346 . S
C2084 H2089 0.930 . S
C2085 N2082 1.336 . S
C2085 C2084 1.346 . S
C2085 H2092 0.929 . S
C2086 O2076 1.282 . S
C2086 O2087 1.216 . S
O2087 C2086 1.216 . S
H2088 C2083 0.930 . S
H2089 C2084 0.930 . S
O2090 Cu2070 1.959 . S
O2090 C2077 1.251 . S
H2091 C2074 0.930 . S
H2092 C2085 0.929 . S
Cu2093 N2094 1.999 . S
Cu2093 O2099 1.974 . S
Cu2093 N2104 1.985 . S
Cu2093 O2113 1.959 . S
N2094 Cu2093 1.999 . S
N2094 C2096 1.263 . S
N2094 C2098 1.389 . S
N2095 C2096 1.358 . S
N2095 C2097 1.400 . S
C2096 N2094 1.263 . S
C2096 N2095 1.358 . S
C2096 H2102 0.930 . S
C2097 N2095 1.400 . S
C2097 C2098 1.351 . S
C2097 H2114 0.930 . S
C2098 N2094 1.389 . S
C2098 C2097 1.351 . S
C2098 H2103 0.930 . S
O2099 Cu2093 1.974 . S
O2099 C2109 1.282 . S
C2100 O2101 1.261 . S
C2100 O2113 1.251 . S
O2101 C2100 1.261 . S
H2102 C2096 0.930 . S
H2103 C2098 0.930 . S
N2104 Cu2093 1.985 . S
N2104 C2106 1.335 . S
N2104 C2107 1.390 . S
N2105 C2106 1.345 1_554 S
N2105 C2108 1.336 . S
C2106 N2104 1.335 . S
C2106 N2105 1.345 1_556 S
C2106 H2111 0.930 . S
C2107 N2104 1.390 . S
C2107 C2108 1.346 1_556 S
C2107 H2112 0.930 . S
C2108 N2105 1.336 . S
C2108 C2107 1.346 1_554 S
C2108 H2115 0.929 . S
C2109 O2099 1.282 . S
C2109 O2110 1.216 . S
O2110 C2109 1.216 . S
H2111 C2106 0.930 . S
H2112 C2107 0.930 . S
O2113 Cu2093 1.959 . S
O2113 C2100 1.251 . S
H2114 C2097 0.930 . S
H2115 C2108 0.929 . S
Cu2116 N2117 1.999 . S
Cu2116 O2122 1.974 . S
Cu2116 N2127 1.985 . S
Cu2116 O2136 1.959 . S
N2117 Cu2116 1.999 . S
N2117 C2119 1.263 . S
N2117 C2121 1.389 . S
N2118 C2119 1.358 . S
N2118 C2120 1.400 . S
C2119 N2117 1.263 . S
C2119 N2118 1.358 . S
C2119 H2125 0.930 . S
C2120 N2118 1.400 . S
C2120 C2121 1.351 . S
C2120 H2137 0.930 . S
C2121 N2117 1.389 . S
C2121 C2120 1.351 . S
C2121 H2126 0.930 . S
O2122 Cu2116 1.974 . S
O2122 C2132 1.282 . S
C2123 O2124 1.261 . S
C2123 O2136 1.251 . S
O2124 C2123 1.261 . S
H2125 C2119 0.930 . S
H2126 C2121 0.930 . S
N2127 Cu2116 1.985 . S
N2127 C2129 1.335 . S
N2127 C2130 1.390 . S
N2128 C2129 1.345 . S
N2128 C2131 1.336 . S
C2129 N2127 1.335 . S
C2129 N2128 1.345 . S
C2129 H2134 0.930 . S
C2130 N2127 1.390 . S
C2130 C2131 1.346 . S
C2130 H2135 0.930 . S
C2131 N2128 1.336 . S
C2131 C2130 1.346 . S
C2131 H2138 0.929 . S
C2132 O2122 1.282 . S
C2132 O2133 1.216 . S
O2133 C2132 1.216 . S
H2134 C2129 0.930 . S
H2135 C2130 0.930 . S
O2136 Cu2116 1.959 . S
O2136 C2123 1.251 . S
H2137 C2120 0.930 . S
H2138 C2131 0.929 . S
Cu2139 N2140 1.999 . S
Cu2139 O2145 1.974 . S
Cu2139 N2150 1.985 . S
Cu2139 O2159 1.959 . S
N2140 Cu2139 1.999 . S
N2140 C2142 1.263 . S
N2140 C2144 1.389 . S
N2141 C2142 1.358 . S
N2141 C2143 1.400 . S
C2142 N2140 1.263 . S
C2142 N2141 1.358 . S
C2142 H2148 0.930 . S
C2143 N2141 1.400 . S
C2143 C2144 1.351 . S
C2143 H2160 0.930 . S
C2144 N2140 1.389 . S
C2144 C2143 1.351 . S
C2144 H2149 0.930 . S
O2145 Cu2139 1.974 . S
O2145 C2155 1.282 . S
C2146 O2147 1.261 . S
C2146 O2159 1.251 . S
O2147 C2146 1.261 . S
H2148 C2142 0.930 . S
H2149 C2144 0.930 . S
N2150 Cu2139 1.985 . S
N2150 C2152 1.335 . S
N2150 C2153 1.390 . S
N2151 C2152 1.345 1_556 S
N2151 C2154 1.336 . S
C2152 N2150 1.335 . S
C2152 N2151 1.345 1_554 S
C2152 H2157 0.930 . S
C2153 N2150 1.390 . S
C2153 C2154 1.346 1_554 S
C2153 H2158 0.930 . S
C2154 N2151 1.336 . S
C2154 C2153 1.346 1_556 S
C2154 H2161 0.929 . S
C2155 O2145 1.282 . S
C2155 O2156 1.216 . S
O2156 C2155 1.216 . S
H2157 C2152 0.930 . S
H2158 C2153 0.930 . S
O2159 Cu2139 1.959 . S
O2159 C2146 1.251 . S
H2160 C2143 0.930 . S
H2161 C2154 0.929 . S
Cu2162 N2163 1.999 . S
Cu2162 O2168 1.974 . S
Cu2162 N2173 1.985 . S
Cu2162 O2182 1.959 . S
N2163 Cu2162 1.999 . S
N2163 C2165 1.263 . S
N2163 C2167 1.389 . S
N2164 C2165 1.358 . S
N2164 C2166 1.400 . S
C2165 N2163 1.263 . S
C2165 N2164 1.358 . S
C2165 H2171 0.930 . S
C2166 N2164 1.400 . S
C2166 C2167 1.351 . S
C2166 H2183 0.930 . S
C2167 N2163 1.389 . S
C2167 C2166 1.351 . S
C2167 H2172 0.930 . S
O2168 Cu2162 1.974 . S
O2168 C2178 1.282 . S
C2169 O2170 1.261 . S
C2169 O2182 1.251 . S
O2170 C2169 1.261 . S
H2171 C2165 0.930 . S
H2172 C2167 0.930 . S
N2173 Cu2162 1.985 . S
N2173 C2175 1.335 . S
N2173 C2176 1.390 . S
N2174 C2175 1.345 . S
N2174 C2177 1.336 . S
C2175 N2173 1.335 . S
C2175 N2174 1.345 . S
C2175 H2180 0.930 . S
C2176 N2173 1.390 . S
C2176 C2177 1.346 . S
C2176 H2181 0.930 . S
C2177 N2174 1.336 . S
C2177 C2176 1.346 . S
C2177 H2184 0.929 . S
C2178 O2168 1.282 . S
C2178 O2179 1.216 . S
O2179 C2178 1.216 . S
H2180 C2175 0.930 . S
H2181 C2176 0.930 . S
O2182 Cu2162 1.959 . S
O2182 C2169 1.251 . S
H2183 C2166 0.930 . S
H2184 C2177 0.929 . S
Cu2185 N2186 1.999 . S
Cu2185 O2191 1.974 . S
Cu2185 N2196 1.985 . S
Cu2185 O2205 1.959 . S
N2186 Cu2185 1.999 . S
N2186 C2188 1.263 . S
N2186 C2190 1.389 . S
N2187 C2188 1.358 . S
N2187 C2189 1.400 . S
C2188 N2186 1.263 . S
C2188 N2187 1.358 . S
C2188 H2194 0.930 . S
C2189 N2187 1.400 . S
C2189 C2190 1.351 . S
C2189 H2206 0.930 . S
C2190 N2186 1.389 . S
C2190 C2189 1.351 . S
C2190 H2195 0.930 . S
O2191 Cu2185 1.974 . S
O2191 C2201 1.282 . S
C2192 O2193 1.261 . S
C2192 O2205 1.251 . S
O2193 C2192 1.261 . S
H2194 C2188 0.930 . S
H2195 C2190 0.930 . S
N2196 Cu2185 1.985 . S
N2196 C2198 1.335 . S
N2196 C2199 1.390 . S
N2197 C2198 1.345 . S
N2197 C2200 1.336 . S
C2198 N2196 1.335 . S
C2198 N2197 1.345 . S
C2198 H2203 0.930 . S
C2199 N2196 1.390 . S
C2199 C2200 1.346 . S
C2199 H2204 0.930 . S
C2200 N2197 1.336 . S
C2200 C2199 1.346 . S
C2200 H2207 0.929 . S
C2201 O2191 1.282 . S
C2201 O2202 1.216 . S
O2202 C2201 1.216 . S
H2203 C2198 0.930 . S
H2204 C2199 0.930 . S
O2205 Cu2185 1.959 . S
O2205 C2192 1.251 . S
H2206 C2189 0.930 . S
H2207 C2200 0.929 . S
C7 C697 2.879 1_454 S
C1272 C30 2.879 . S
C53 C651 2.879 1_655 S
C76 C1226 2.879 . S
C605 C99 2.879 1_654 S
C122 C1180 2.879 . S
C559 C145 2.879 1_455 S
C168 C1134 2.879 . S
C789 C191 2.879 1_665 S
C214 C1364 2.879 . S
C237 C743 2.879 1_655 S
C260 C1318 2.879 . S
C283 C881 2.879 1_465 S
C1456 C306 2.879 . S
C835 C329 2.879 1_455 S
C352 C1410 2.879 . S
C1502 C375 2.879 1_566 S
C1479 C398 2.879 1_545 S
C421 C1640 2.879 . S
C2146 C444 2.879 1_554 S
C1065 C467 2.879 . S
C490 C2100 2.879 1_564 S
C513 C1019 2.879 . S
C536 C1525 2.879 . S
C582 C1824 2.879 . S
C628 C1778 2.879 . S
C674 C1732 2.879 . S
C720 C1686 2.879 . S
C1916 C766 2.879 . S
C812 C1870 2.879 . S
C2008 C858 2.879 . S
C904 C1962 2.879 . S
C927 C2054 2.879 . S
C950 C2031 2.879 1_556 S
C973 C2192 2.879 . S
C1594 C996 2.879 1_565 S
C1548 C1042 2.879 . S
C1088 C2077 2.879 . S
C1111 C1801 2.879 . S
C1755 C1157 2.879 1_556 S
C1203 C1709 2.879 . S
C1249 C1663 2.879 1_556 S
C1893 C1295 2.879 1_565 S
C1847 C1341 2.879 . S
C1387 C1985 2.879 1_565 S
C1939 C1433 2.879 . S
C1571 C2169 2.879 . S
C1617 C2123 2.879 . S
N12 N1277 1.959 . S
N35 N656 1.959 . S
N58 N1231 1.959 . S
N702 N81 1.959 . S
N104 N587 1.959 . S
N127 N1162 1.959 . S
N150 N633 1.959 . S
N1116 N173 1.959 . S
N196 N472 1.959 . S
N219 N2059 1.959 . S
N2082 N242 1.959 . S
N265 N2105 1.959 . S
N1645 N288 1.959 . S
N2151 N311 1.959 . S
N334 N1622 1.959 . S
N1484 N357 1.959 . S
N1461 N380 1.959 . S
N1875 N403 1.959 . S
N426 N1898 1.959 . S
N449 N1921 1.959 . S
N495 N1967 1.959 . S
N518 N1438 1.959 . S
N1392 N541 1.959 . S
N564 N1829 1.959 . S
N1783 N610 1.959 . S
N1714 N679 1.959 . S
N725 N1668 1.959 . S
N748 N1024 1.959 . S
N771 N1507 1.959 . S
N794 N1530 1.959 . S
N817 N1553 1.959 . S
N840 N2197 1.959 . S
N1599 N863 1.959 . S
N2174 N886 1.959 . S
N2036 N909 1.959 . S
N2013 N932 1.959 . S
N955 N1323 1.959 . S
N978 N1346 1.959 . S
N1001 N1369 1.959 . S
N1415 N1047 1.959 . S
N1990 N1070 1.959 . S
N1944 N1093 1.959 . S
N1139 N1760 1.959 . S
N1185 N1806 1.959 . S
N1691 N1208 1.959 . S
N1737 N1254 1.959 . S
N1576 N1300 1.959 . S
N2128 N1852 1.959 . S
N2 C2155 1.868 . S
N25 C1626 1.868 . S
C1488 N48 1.868 . S
C1649 N71 1.868 . S
N94 C453 1.868 . S
N117 C2132 1.868 . S
C407 N140 1.868 . S
C430 N163 1.868 . S
C660 N186 1.868 . S
N209 C1235 1.868 . S
N232 C706 1.868 . S
N255 C1281 1.868 . S
C568 N278 1.868 . S
N301 C1143 1.868 . S
C614 N324 1.868 . S
N347 C1189 1.868 . S
N370 C1994 1.868 . S
C798 N393 1.868 . S
N416 C1373 1.868 . S
C752 N439 1.868 . S
N462 C775 1.868 . S
C1396 N485 1.868 . S
C315 N508 1.868 . S
C361 N531 1.868 . S
C1603 N554 1.868 . S
N577 C2178 1.868 . S
C2040 N600 1.868 . S
N623 C2201 1.868 . S
C1005 N646 1.868 . S
C1580 N669 1.868 . S
N692 C959 1.868 . S
N715 C982 1.868 . S
N738 C108 1.868 . S
N761 C1787 1.868 . S
C154 N784 1.868 . S
N807 C1833 1.868 . S
C16 N830 1.868 . S
N853 C1695 1.868 . S
C62 N876 1.868 . S
C1741 N899 1.868 . S
N922 C1442 1.868 . S
N945 C246 1.868 . S
C1925 N968 1.868 . S
N991 C200 1.868 . S
C223 N1014 1.868 . S
N1037 C1948 1.868 . S
C867 N1060 1.868 . S
N1083 C913 1.868 . S
C1051 N1106 1.868 . S
N1129 C522 1.868 . S
N1152 C384 1.868 . S
N1175 C545 1.868 . S
N1198 C1557 1.868 . S
C1028 N1221 1.868 . S
C1511 N1244 1.868 . S
N1267 C1534 1.868 . S
C1764 N1290 1.868 . S
C131 N1313 1.868 . S
C1810 N1336 1.868 . S
N1359 C177 1.868 . S
C1672 N1382 1.868 . S
N1405 C39 1.868 . S
C1718 N1428 1.868 . S
C85 N1451 1.868 . S
C890 N1474 1.868 . S
N1497 C1902 1.868 . S
N1520 C269 1.868 . S
C1856 N1543 1.868 . S
N1566 C1879 1.868 . S
C292 N1589 1.868 . S
C1419 N1612 1.868 . S
N1635 C1465 1.868 . S
N1658 C499 1.868 . S
C1074 N1681 1.868 . S
C936 N1704 1.868 . S
N1727 C1097 1.868 . S
N1750 C2109 1.868 . S
C476 N1773 1.868 . S
C2063 N1796 1.868 . S
C2086 N1819 1.868 . S
C1212 N1842 1.868 . S
N1865 C683 1.868 . S
N1888 C1258 1.868 . S
N1911 C729 1.868 . S
C1120 N1934 1.868 . S
N1957 C591 1.868 . S
N1980 C1166 1.868 . S
N2003 C637 1.868 . S
C338 N2026 1.868 . S
N2049 C1350 1.868 . S
N2072 C821 1.868 . S
N2095 C1304 1.868 . S
N2118 C1327 1.868 . S
C844 N2141 1.868 . S
C1971 N2164 1.868 . S
C2017 N2187 1.868 . S
