# Generated by pormake.
# Topology wht, (6)-cn, num edge types: 1
# Building blocks:
#     Node 0, Type 0, BuildingBlock: VOLQOD_clean_sbu_1, # of connection points: 6
#     Node 1, Type 0, BuildingBlock: VOLQOD_clean_sbu_1, # of connection points: 6
#     Node 2, Type 0, BuildingBlock: VOLQOD_clean_sbu_1, # of connection points: 6
#     Node 3, Type 0, BuildingBlock: VOLQOD_clean_sbu_1, # of connection points: 6
#     Node 4, Type 0, BuildingBlock: VOLQOD_clean_sbu_1, # of connection points: 6
#     Node 5, Type 0, BuildingBlock: VOLQOD_clean_sbu_1, # of connection points: 6
#     Node 6, Type 0, BuildingBlock: VOLQOD_clean_sbu_1, # of connection points: 6
#     Node 7, Type 0, BuildingBlock: VOLQOD_clean_sbu_1, # of connection points: 6
#     Edge 8, Type (0, 0), BuildingBlock: OJICUG_clean_linker_0, # of connection points: 2
#     Edge 9, Type (0, 0), BuildingBlock: OJICUG_clean_linker_0, # of connection points: 2
#     Edge 10, Type (0, 0), BuildingBlock: OJICUG_clean_linker_0, # of connection points: 2
#     Edge 11, Type (0, 0), BuildingBlock: OJICUG_clean_linker_0, # of connection points: 2
#     Edge 12, Type (0, 0), BuildingBlock: OJICUG_clean_linker_0, # of connection points: 2
#     Edge 13, Type (0, 0), BuildingBlock: OJICUG_clean_linker_0, # of connection points: 2
#     Edge 14, Type (0, 0), BuildingBlock: OJICUG_clean_linker_0, # of connection points: 2
#     Edge 15, Type (0, 0), BuildingBlock: OJICUG_clean_linker_0, # of connection points: 2
#     Edge 16, Type (0, 0), BuildingBlock: OJICUG_clean_linker_0, # of connection points: 2
#     Edge 17, Type (0, 0), BuildingBlock: OJICUG_clean_linker_0, # of connection points: 2
#     Edge 18, Type (0, 0), BuildingBlock: OJICUG_clean_linker_0, # of connection points: 2
#     Edge 19, Type (0, 0), BuildingBlock: OJICUG_clean_linker_0, # of connection points: 2
#     Edge 20, Type (0, 0), BuildingBlock: OJICUG_clean_linker_0, # of connection points: 2
#     Edge 21, Type (0, 0), BuildingBlock: OJICUG_clean_linker_0, # of connection points: 2
#     Edge 22, Type (0, 0), BuildingBlock: OJICUG_clean_linker_0, # of connection points: 2
#     Edge 23, Type (0, 0), BuildingBlock: OJICUG_clean_linker_0, # of connection points: 2
#     Edge 24, Type (0, 0), BuildingBlock: OJICUG_clean_linker_0, # of connection points: 2
#     Edge 25, Type (0, 0), BuildingBlock: OJICUG_clean_linker_0, # of connection points: 2
#     Edge 26, Type (0, 0), BuildingBlock: OJICUG_clean_linker_0, # of connection points: 2
#     Edge 27, Type (0, 0), BuildingBlock: OJICUG_clean_linker_0, # of connection points: 2
#     Edge 28, Type (0, 0), BuildingBlock: OJICUG_clean_linker_0, # of connection points: 2
#     Edge 29, Type (0, 0), BuildingBlock: OJICUG_clean_linker_0, # of connection points: 2
#     Edge 30, Type (0, 0), BuildingBlock: OJICUG_clean_linker_0, # of connection points: 2
#     Edge 31, Type (0, 0), BuildingBlock: OJICUG_clean_linker_0, # of connection points: 2
# Relax obj value: 0.363
# Max RMSD: 0.254
# Mean RMSD: 0.253
data_MOF--net-wht--node1-VOLQOD_clean_sbu_1--edge1-OJICUG_clean_linker_0
_symmetry_space_group_name_H-M    P1
_symmetry_Int_Tables_number       1
_symmetry_cell_setting            triclinic
loop_
_symmetry_equiv_pos_as_xyz
'x, y, z'
_cell_length_a     20.973054
_cell_length_b     20.958775
_cell_length_c     37.681356
_cell_angle_alpha  90.861304
_cell_angle_beta   90.013953
_cell_angle_gamma 89.895044
loop_
_atom_site_label
_atom_site_type_symbol
_atom_site_fract_x
_atom_site_fract_y
_atom_site_fract_z
_atom_type_partial_charge
O0 O 0.14212 0.29236 0.19295 0.0
Zn1 Zn 0.15106 0.26922 0.14104 0.0
O2 O 0.06549 0.26707 0.12276 0.0
Zn3 Zn 0.03753 0.18239 0.11107 0.0
Zn4 Zn 0.0044 0.30538 0.15499 0.0
Zn5 Zn 0.06572 0.31071 0.07945 0.0
O6 O 0.01088 0.17121 0.06027 0.0
O7 O 0.0735 0.24776 0.03979 0.0
O8 O 0.19472 0.18012 0.13339 0.0
O9 O 0.11123 0.12476 0.11374 0.0
O10 O 0.97619 0.15016 0.14711 0.0
O11 O 0.96113 0.23578 0.18141 0.0
O12 O 0.9359 0.35465 0.12675 0.0
O13 O 0.19867 0.34612 0.11961 0.0
O14 O 0.9833 0.35116 0.07385 0.0
O15 O 0.13116 0.37937 0.07845 0.0
C16 C 0.10402 0.33056 0.20923 0.0
C17 C 0.0419 0.19641 0.03504 0.0
C18 C 0.95363 0.17655 0.17507 0.0
C19 C 0.16969 0.12772 0.12212 0.0
C20 C 0.93666 0.36651 0.09354 0.0
C21 C 0.18205 0.38688 0.0963 0.0
O22 O 0.05273 0.35077 0.19464 0.0
O23 O 0.28764 0.61902 0.3073 0.0
Zn24 Zn 0.25124 0.65168 0.35287 0.0
O25 O 0.25441 0.58179 0.38456 0.0
Zn26 Zn 0.17178 0.55018 0.39438 0.0
Zn27 Zn 0.30615 0.51454 0.36473 0.0
Zn28 Zn 0.29355 0.60948 0.4272 0.0
O29 O 0.16531 0.54018 0.44766 0.0
O30 O 0.22789 0.6209 0.46516 0.0
O31 O 0.15834 0.68423 0.34665 0.0
O32 O 0.10629 0.61402 0.3795 0.0
O33 O 0.15345 0.47262 0.36271 0.0
O34 O 0.2487 0.45559 0.33839 0.0
O35 O 0.35152 0.46549 0.40362 0.0
O36 O 0.31906 0.71761 0.36694 0.0
O37 O 0.34288 0.53871 0.44632 0.0
O38 O 0.35622 0.67983 0.41769 0.0
C39 C 0.34205 0.59198 0.30455 0.0
C40 C 0.18639 0.57811 0.47192 0.0
C41 C 0.18939 0.44351 0.34038 0.0
C42 C 0.10628 0.66279 0.35975 0.0
C43 C 0.36116 0.48416 0.43554 0.0
C44 C 0.36067 0.71796 0.39178 0.0
O45 O 0.36326 0.55446 0.3282 0.0
O46 O 0.86053 0.70899 0.70281 0.0
Zn47 Zn 0.8412 0.72819 0.65117 0.0
O48 O 0.92247 0.7283 0.62714 0.0
Zn49 Zn 0.95265 0.81272 0.61713 0.0
Zn50 Zn 0.98467 0.68475 0.65506 0.0
Zn51 Zn 0.91441 0.68387 0.58359 0.0
O52 O 0.97012 0.82439 0.5649 0.0
O53 O 0.9087 0.74536 0.54438 0.0
O54 O 0.79795 0.81773 0.64562 0.0
O55 O 0.88112 0.87237 0.62568 0.0
O56 O 0.02313 0.83962 0.65091 0.0
O57 O 0.03497 0.74951 0.68061 0.0
O58 O 0.04536 0.63021 0.62506 0.0
O59 O 0.78962 0.64991 0.63268 0.0
O60 O 0.9915 0.63427 0.57443 0.0
O61 O 0.84491 0.62031 0.58494 0.0
C62 C 0.89925 0.66738 0.71495 0.0
C63 C 0.94001 0.79662 0.53962 0.0
C64 C 0.04695 0.80813 0.6764 0.0
C65 C 0.82324 0.87023 0.6355 0.0
C66 C 0.03891 0.61552 0.59232 0.0
C67 C 0.79978 0.61099 0.6067 0.0
O68 O 0.94197 0.6415 0.69529 0.0
O69 O 0.77007 0.36157 0.95556 0.0
Zn70 Zn 0.75007 0.34005 0.90358 0.0
O71 O 0.74582 0.42209 0.88137 0.0
Zn72 Zn 0.66054 0.44953 0.87218 0.0
Zn73 Zn 0.78988 0.48816 0.90661 0.0
Zn74 Zn 0.78182 0.41302 0.83632 0.0
O75 O 0.64515 0.46684 0.82045 0.0
O76 O 0.71167 0.38947 0.80393 0.0
O77 O 0.66131 0.29332 0.8959 0.0
O78 O 0.6041 0.3767 0.87859 0.0
O79 O 0.63306 0.51688 0.90712 0.0
O80 O 0.72679 0.5461 0.92942 0.0
O81 O 0.84402 0.54265 0.87345 0.0
O82 O 0.83014 0.2923 0.88317 0.0
O83 O 0.81746 0.49468 0.82233 0.0
O84 O 0.85339 0.35081 0.83629 0.0
C85 C 0.80715 0.40454 0.96863 0.0
C86 C 0.6612 0.42202 0.79901 0.0
C87 C 0.66649 0.55064 0.92841 0.0
C88 C 0.60807 0.31806 0.88598 0.0
C89 C 0.84379 0.53992 0.83956 0.0
C90 C 0.86687 0.30548 0.85702 0.0
O91 O 0.83002 0.44913 0.94957 0.0
O92 O 0.64051 0.20262 0.52726 0.0
Zn93 Zn 0.6499 0.22604 0.57907 0.0
O94 O 0.56434 0.22798 0.59742 0.0
Zn95 Zn 0.53594 0.31255 0.60932 0.0
Zn96 Zn 0.50299 0.18982 0.56534 0.0
Zn97 Zn 0.56505 0.18401 0.64056 0.0
O98 O 0.50953 0.32329 0.66016 0.0
O99 O 0.57252 0.24649 0.68031 0.0
O100 O 0.69273 0.31547 0.58627 0.0
O101 O 0.60918 0.37048 0.6064 0.0
O102 O 0.47411 0.34489 0.57352 0.0
O103 O 0.45963 0.25955 0.53897 0.0
O104 O 0.43452 0.14095 0.59378 0.0
O105 O 0.69872 0.1496 0.60059 0.0
O106 O 0.48297 0.14349 0.64638 0.0
O107 O 0.63103 0.11579 0.64143 0.0
C108 C 0.60236 0.16464 0.51097 0.0
C109 C 0.54054 0.29764 0.68529 0.0
C110 C 0.45179 0.31871 0.54546 0.0
C111 C 0.66749 0.36779 0.59763 0.0
C112 C 0.43587 0.12871 0.62694 0.0
C113 C 0.68225 0.1087 0.62382 0.0
O114 O 0.55118 0.14441 0.52558 0.0
O115 O 0.26973 0.13201 0.76583 0.0
Zn116 Zn 0.25001 0.15119 0.81816 0.0
O117 O 0.24659 0.06873 0.83953 0.0
Zn118 Zn 0.16179 0.03877 0.84856 0.0
Zn119 Zn 0.29292 0.0063 0.81313 0.0
Zn120 Zn 0.28294 0.0761 0.88451 0.0
O121 O 0.14587 0.02375 0.90061 0.0
O122 O 0.21334 0.10007 0.91714 0.0
O123 O 0.16055 0.19586 0.82641 0.0
O124 O 0.10332 0.11073 0.84105 0.0
O125 O 0.13716 0.96774 0.81456 0.0
O126 O 0.23045 0.95252 0.78764 0.0
O127 O 0.34573 0.94876 0.84569 0.0
O128 O 0.33 0.19826 0.83897 0.0
O129 O 0.31821 0.99359 0.89755 0.0
O130 O 0.3547 0.13757 0.88479 0.0
C131 C 0.30943 0.09136 0.75279 0.0
C132 C 0.16243 0.06842 0.92202 0.0
C133 C 0.17127 0.94143 0.79045 0.0
C134 C 0.10712 0.16999 0.83489 0.0
C135 C 0.34489 0.94935 0.87962 0.0
C136 C 0.3675 0.1838 0.86461 0.0
O137 O 0.33514 0.04848 0.77199 0.0
O138 O 0.36381 0.78412 0.01654 0.0
Zn139 Zn 0.34381 0.76645 0.06818 0.0
O140 O 0.42532 0.76555 0.09241 0.0
Zn141 Zn 0.4517 0.68062 0.10371 0.0
Zn142 Zn 0.49124 0.80575 0.06487 0.0
Zn143 Zn 0.41682 0.81085 0.13579 0.0
O144 O 0.4711 0.67031 0.15572 0.0
O145 O 0.4104 0.75051 0.17555 0.0
O146 O 0.29801 0.67807 0.07395 0.0
O147 O 0.37884 0.62329 0.09647 0.0
O148 O 0.51876 0.64923 0.06978 0.0
O149 O 0.54661 0.73915 0.0435 0.0
O150 O 0.54838 0.86426 0.09463 0.0
O151 O 0.29294 0.84587 0.08602 0.0
O152 O 0.49362 0.86053 0.14495 0.0
O153 O 0.34761 0.87487 0.13405 0.0
C154 C 0.40557 0.82114 0.00314 0.0
C155 C 0.44138 0.69912 0.18079 0.0
C156 C 0.55133 0.67922 0.04694 0.0
C157 C 0.32165 0.62583 0.08564 0.0
C158 C 0.54094 0.8797 0.12721 0.0
C159 C 0.30294 0.88469 0.11205 0.0
O160 O 0.45162 0.8438 0.02163 0.0
O161 O 0.78711 0.87769 0.41312 0.0
Zn162 Zn 0.75096 0.84502 0.36746 0.0
O163 O 0.75392 0.91482 0.33566 0.0
Zn164 Zn 0.67108 0.94615 0.32567 0.0
Zn165 Zn 0.80529 0.9822 0.35555 0.0
Zn166 Zn 0.79336 0.88717 0.29307 0.0
O167 O 0.66472 0.9563 0.27238 0.0
O168 O 0.72808 0.87598 0.25492 0.0
O169 O 0.65817 0.81239 0.37363 0.0
O170 O 0.60585 0.88222 0.34052 0.0
O171 O 0.65219 0.02365 0.35726 0.0
O172 O 0.74729 0.04119 0.38162 0.0
O173 O 0.85101 0.0311 0.31677 0.0
O174 O 0.81904 0.77908 0.35344 0.0
O175 O 0.84291 0.95775 0.27411 0.0
O176 O 0.85594 0.81662 0.30261 0.0
C177 C 0.8412 0.90512 0.41602 0.0
C178 C 0.68632 0.91864 0.24811 0.0
C179 C 0.68789 0.05301 0.37956 0.0
C180 C 0.60602 0.83362 0.36041 0.0
C181 C 0.86109 0.01226 0.28491 0.0
C182 C 0.86054 0.77857 0.32855 0.0
O183 O 0.8623 0.94257 0.39235 0.0
C184 C 0.92228 0.06986 0.19713 0.0
C185 C 0.92656 0.13593 0.20294 0.0
H186 H 0.90057 0.97933 0.21866 0.0
C187 C 0.91131 0.16138 0.23672 0.0
H188 H 0.9343 0.04848 0.17164 0.0
C189 C 0.89215 0.12129 0.26411 0.0
C190 C 0.8879 0.05519 0.25809 0.0
H191 H 0.91491 0.21213 0.24218 0.0
H192 H 0.87971 0.14208 0.28967 0.0
C193 C 0.90344 0.03007 0.22433 0.0
C194 C 0.3919 0.37489 0.45625 0.0
C195 C 0.38738 0.44093 0.46244 0.0
H196 H 0.41442 0.2838 0.47804 0.0
C197 C 0.40199 0.46569 0.4964 0.0
H198 H 0.38015 0.35437 0.43052 0.0
C199 C 0.42027 0.42559 0.52361 0.0
C200 C 0.42493 0.35959 0.51761 0.0
H201 H 0.39883 0.51637 0.50222 0.0
H202 H 0.43164 0.4467 0.54925 0.0
C203 C 0.41051 0.3345 0.48364 0.0
C204 C 0.06371 0.82835 0.74051 0.0
C205 C 0.0805 0.8414 0.70519 0.0
H206 H 0.07861 0.85126 0.79558 0.0
C207 C 0.12754 0.88661 0.69818 0.0
H208 H 0.02681 0.79392 0.74636 0.0
C209 C 0.15833 0.91767 0.72631 0.0
C210 C 0.14077 0.90537 0.76161 0.0
H211 H 0.14082 0.89734 0.67114 0.0
H212 H 0.19477 0.95258 0.72046 0.0
C213 C 0.09292 0.86099 0.76857 0.0
C214 C 0.5568 0.58821 0.0045 0.0
C215 C 0.58476 0.6436 0.01887 0.0
H216 H 0.55933 0.5171 0.96325 0.0
C217 C 0.6383 0.67003 0.00232 0.0
H218 H 0.51451 0.56789 0.01634 0.0
C219 C 0.66406 0.64086 0.97204 0.0
C220 C 0.63524 0.58622 0.95728 0.0
H221 H 0.65987 0.7134 0.01268 0.0
H222 H 0.70634 0.66101 0.9601 0.0
C223 C 0.58138 0.56018 0.97368 0.0
C224 C 0.08047 0.39254 0.26557 0.0
C225 C 0.12139 0.3528 0.24551 0.0
H226 H 0.06928 0.45122 0.31229 0.0
C227 C 0.18057 0.3355 0.2601 0.0
H228 H 0.03418 0.40606 0.25535 0.0
C229 C 0.20036 0.36097 0.29266 0.0
C230 C 0.16133 0.40397 0.31162 0.0
H231 H 0.21304 0.30427 0.24574 0.0
H232 H 0.24772 0.34945 0.30216 0.0
C233 C 0.10017 0.41769 0.29844 0.0
C234 C 0.14642 0.6222 0.56694 0.0
C235 C 0.09062 0.58665 0.57165 0.0
H236 H 0.22048 0.64816 0.53095 0.0
C237 C 0.07447 0.53916 0.54662 0.0
H238 H 0.15911 0.65978 0.5857 0.0
C239 C 0.10867 0.53311 0.51506 0.0
C240 C 0.15935 0.57478 0.50806 0.0
H241 H 0.03111 0.5117 0.54967 0.0
H242 H 0.09206 0.49932 0.4951 0.0
C243 C 0.18054 0.61649 0.5352 0.0
C244 C 0.92668 0.57505 0.79878 0.0
C245 C 0.87146 0.59001 0.81806 0.0
H246 H 0.97886 0.58786 0.75082 0.0
C247 C 0.83087 0.63841 0.80613 0.0
H248 H 0.95769 0.53667 0.80716 0.0
C249 C 0.84185 0.66679 0.77337 0.0
C250 C 0.89346 0.64672 0.75215 0.0
H251 H 0.78705 0.64932 0.82022 0.0
H252 H 0.80739 0.70088 0.76363 0.0
C253 C 0.9378 0.60335 0.76612 0.0
C254 C 0.88836 0.44631 0.0555 0.0
C255 C 0.88082 0.38961 0.07431 0.0
H256 H 0.87179 0.49515 0.00704 0.0
C257 C 0.83816 0.34328 0.06127 0.0
H258 H 0.92196 0.48217 0.06467 0.0
C259 C 0.81076 0.34955 0.0276 0.0
C260 C 0.82544 0.40253 0.00666 0.0
H261 H 0.83271 0.29846 0.07492 0.0
H262 H 0.78233 0.31063 0.01697 0.0
C263 C 0.86103 0.45273 0.02195 0.0
C264 C 0.67828 0.16083 0.45982 0.0
C265 C 0.61955 0.14277 0.47459 0.0
H266 H 0.74514 0.1478 0.41754 0.0
C267 C 0.57895 0.10272 0.45461 0.0
H268 H 0.71046 0.19237 0.47411 0.0
C269 C 0.59866 0.07792 0.42165 0.0
C270 C 0.65947 0.09236 0.40831 0.0
H271 H 0.533 0.08863 0.46496 0.0
H272 H 0.56812 0.04407 0.40786 0.0
C273 C 0.69806 0.13574 0.42717 0.0
C274 C 0.36178 0.04306 0.69905 0.0
C275 C 0.32685 0.09352 0.71465 0.0
H276 H 0.42122 0.01303 0.65578 0.0
C277 C 0.31175 0.14661 0.69386 0.0
H278 H 0.37268 0.0005 0.71386 0.0
C279 C 0.33825 0.15269 0.65994 0.0
C280 C 0.38032 0.10599 0.64651 0.0
H281 H 0.2838 0.18573 0.70477 0.0
H282 H 0.33264 0.19759 0.64637 0.0
C283 C 0.38808 0.04921 0.66524 0.0
C284 C 0.34534 0.82233 0.94562 0.0
C285 C 0.39862 0.84123 0.96584 0.0
H286 H 0.28784 0.84102 0.89992 0.0
C287 C 0.44288 0.88349 0.95094 0.0
H288 H 0.31084 0.78908 0.95602 0.0
C289 C 0.43013 0.91207 0.91848 0.0
C290 C 0.37334 0.89846 0.90035 0.0
H291 H 0.48506 0.89819 0.96547 0.0
H292 H 0.46122 0.94981 0.90951 0.0
C293 C 0.33277 0.85093 0.91309 0.0
C294 C 0.57434 0.95647 0.17317 0.0
C295 C 0.59183 0.90958 0.14803 0.0
H296 H 0.59043 0.99594 0.22492 0.0
C297 C 0.6485 0.87524 0.15275 0.0
H298 H 0.53034 0.98304 0.17008 0.0
C299 C 0.68215 0.88121 0.18464 0.0
C300 C 0.65964 0.92205 0.21189 0.0
H301 H 0.66231 0.83817 0.1339 0.0
H302 H 0.72282 0.85033 0.18889 0.0
C303 C 0.60807 0.9628 0.20487 0.0
C304 C 0.09201 0.06097 0.97526 0.0
C305 C 0.11597 0.09572 0.94679 0.0
H306 H 0.04748 0.06674 0.02642 0.0
C307 C 0.10215 0.16097 0.9442 0.0
H308 H 0.10219 0.0105 0.97747 0.0
C309 C 0.07075 0.19282 0.97162 0.0
C310 C 0.05308 0.15987 0.00213 0.0
H311 H 0.11941 0.18822 0.92194 0.0
H312 H 0.06498 0.24413 0.97021 0.0
C313 C 0.06046 0.0931 0.00299 0.0
C314 C 0.43024 0.60234 0.21823 0.0
C315 C 0.43463 0.66909 0.21553 0.0
H316 H 0.39664 0.52441 0.24969 0.0
C317 C 0.42019 0.70784 0.2451 0.0
H318 H 0.44092 0.57156 0.19565 0.0
C319 C 0.39491 0.68108 0.27546 0.0
C320 C 0.38421 0.61524 0.27683 0.0
H321 H 0.42391 0.75933 0.24381 0.0
H322 H 0.37955 0.71236 0.29697 0.0
C323 C 0.40488 0.57538 0.24894 0.0
C324 C 0.90229 0.92151 0.47226 0.0
C325 C 0.8834 0.88203 0.44383 0.0
H326 H 0.93684 0.92456 0.52589 0.0
C327 C 0.89571 0.81638 0.44474 0.0
H328 H 0.89273 0.97231 0.47189 0.0
C329 C 0.92081 0.7893 0.47509 0.0
C330 C 0.93357 0.82751 0.5051 0.0
H331 H 0.88165 0.7854 0.42284 0.0
H332 H 0.92571 0.73785 0.47599 0.0
C333 C 0.92757 0.89422 0.50294 0.0
C334 C 0.55892 0.40011 0.71802 0.0
C335 C 0.55124 0.33339 0.71846 0.0
H336 H 0.60113 0.48176 0.74408 0.0
C337 C 0.56858 0.29962 0.74877 0.0
H338 H 0.54616 0.42705 0.69475 0.0
C339 C 0.60024 0.33056 0.77636 0.0
C340 C 0.61448 0.3957 0.77416 0.0
H341 H 0.56252 0.24833 0.74983 0.0
H342 H 0.6174 0.30265 0.79841 0.0
C343 C 0.59063 0.43133 0.74596 0.0
C344 C 0.1849 0.0188 0.09523 0.0
C345 C 0.20672 0.06741 0.11858 0.0
H346 H 0.19737 0.92346 0.07488 0.0
C347 C 0.26006 0.05516 0.1398 0.0
H348 H 0.14394 0.02669 0.0783 0.0
C349 C 0.28999 0.99527 0.13822 0.0
C350 C 0.26785 0.94644 0.11502 0.0
H351 H 0.27771 0.09121 0.15819 0.0
H352 H 0.33107 0.98756 0.15505 0.0
C353 C 0.21524 0.95932 0.09332 0.0
C354 C 0.47637 0.73772 0.40652 0.0
C355 C 0.42157 0.75347 0.38669 0.0
H356 H 0.57744 0.74914 0.41349 0.0
C357 C 0.42832 0.7963 0.35862 0.0
H358 H 0.47342 0.70425 0.42807 0.0
C359 C 0.48808 0.82163 0.35017 0.0
C360 C 0.54317 0.80459 0.36934 0.0
H361 H 0.3876 0.80919 0.34254 0.0
H362 H 0.49112 0.85408 0.32813 0.0
C363 C 0.5364 0.76269 0.39785 0.0
C364 C 0.69429 -0.00248 0.64794 0.0
C365 C 0.71958 0.04876 0.62844 0.0
H366 H 0.70619 0.90079 0.66522 0.0
C367 C 0.77871 0.04033 0.61171 0.0
H368 H 0.64846 0.00199 0.66098 0.0
C369 C 0.81162 0.9825 0.61429 0.0
C370 C 0.78624 0.93093 0.63342 0.0
H371 H 0.79952 0.07827 0.59634 0.0
H372 H 0.857 0.97814 0.60074 0.0
C373 C 0.72705 0.93918 0.65022 0.0
C374 C 0.47606 0.19344 0.8936 0.0
C375 C 0.42942 0.21768 0.87014 0.0
H376 H 0.56952 0.20481 0.91676 0.0
C377 C 0.44387 0.27281 0.85125 0.0
H378 H 0.46704 0.15044 0.90835 0.0
C379 C 0.50231 0.30367 0.85623 0.0
C380 C 0.54871 0.2802 0.87999 0.0
H381 H 0.40985 0.29253 0.83274 0.0
H382 H 0.51103 0.34654 0.84128 0.0
C383 C 0.53521 0.2241 0.89829 0.0
C384 C 0.7121 0.53679 0.62552 0.0
C385 C 0.76458 0.54943 0.60373 0.0
H386 H 0.64126 0.46953 0.64094 0.0
C387 C 0.78677 0.50037 0.58064 0.0
H388 H 0.6942 0.57282 0.64388 0.0
C389 C 0.75712 0.44043 0.57935 0.0
C390 C 0.70403 0.42835 0.60075 0.0
H391 H 0.82773 0.5079 0.56373 0.0
H392 H 0.77486 0.40417 0.56109 0.0
C393 C 0.68204 0.47725 0.6239 0.0
C394 C 0.03453 0.26463 0.82342 0.0
C395 C 0.04748 0.20758 0.84098 0.0
H396 H 0.96702 0.33948 0.81414 0.0
C397 C 0.00077 0.18356 0.86429 0.0
H398 H 0.06917 0.28441 0.80535 0.0
C399 C 0.94254 0.21501 0.86959 0.0
C400 C 0.92865 0.27113 0.8514 0.0
H401 H 0.0092 0.14 0.87869 0.0
H402 H 0.90821 0.19494 0.88775 0.0
C403 C 0.9756 0.29575 0.82834 0.0
C404 C 0.30836 0.51487 0.10821 0.0
C405 C 0.28419 0.56557 0.08785 0.0
H406 H 0.29612 0.41957 0.12661 0.0
C407 C 0.22663 0.55627 0.06953 0.0
H408 H 0.35246 0.52 0.12295 0.0
C409 C 0.19441 0.49763 0.07147 0.0
C410 C 0.21873 0.44717 0.09203 0.0
H411 H 0.2068 0.59394 0.05352 0.0
H412 H 0.14986 0.49223 0.05721 0.0
C413 C 0.27614 0.45679 0.11033 0.0
C414 C 0.92847 0.70013 0.36164 0.0
C415 C 0.92153 0.743 0.33359 0.0
H416 H 0.99155 0.6423 0.39208 0.0
C417 C 0.97622 0.75873 0.31373 0.0
H418 H 0.88784 0.68726 0.37775 0.0
C419 C 0.03635 0.73373 0.32236 0.0
C420 C 0.04332 0.69181 0.35085 0.0
H421 H 0.97311 0.79223 0.29219 0.0
H422 H 0.07731 0.74729 0.30671 0.0
C423 C 0.98834 0.67476 0.37005 0.0
loop_
_geom_bond_atom_site_label_1
_geom_bond_atom_site_label_2
_geom_bond_distance
_geom_bond_site_symmetry_2
_ccdc_geom_bond_type
O0 Zn1 1.953 . S
O0 C16 1.225 . S
Zn1 O0 1.953 . S
Zn1 O2 1.949 . S
Zn1 O8 1.919 . S
Zn1 O13 1.924 . S
O2 Zn1 1.949 . S
O2 Zn3 1.923 . S
O2 Zn4 1.950 1_455 S
O2 Zn5 1.945 . S
Zn3 O2 1.923 . S
Zn3 O6 1.933 . S
Zn3 O9 1.941 . S
Zn3 O10 1.965 1_455 S
Zn4 O2 1.950 1_655 S
Zn4 O11 1.938 . S
Zn4 O12 1.906 . S
Zn4 O22 1.953 1_655 S
Zn5 O2 1.945 . S
Zn5 O7 1.932 . S
Zn5 O14 1.979 . S
Zn5 O15 1.910 . S
O6 Zn3 1.933 . S
O6 C17 1.226 . S
O7 Zn5 1.932 . S
O7 C17 1.307 . S
O8 Zn1 1.919 . S
O8 C19 1.253 . S
O9 Zn3 1.941 . S
O9 C19 1.283 . S
O10 Zn3 1.965 1_655 S
O10 C18 1.303 . S
O11 Zn4 1.938 . S
O11 C18 1.247 . S
O12 Zn4 1.906 . S
O12 C20 1.304 . S
O13 Zn1 1.924 . S
O13 C21 1.311 . S
O14 Zn5 1.979 . S
O14 C20 1.269 1_455 S
O15 Zn5 1.910 . S
O15 C21 1.231 . S
C16 O0 1.225 . S
C16 O22 1.298 . S
C17 O6 1.226 . S
C17 O7 1.307 . S
C18 O10 1.303 . S
C18 O11 1.247 . S
C19 O8 1.253 . S
C19 O9 1.283 . S
C20 O12 1.304 . S
C20 O14 1.269 1_655 S
C21 O13 1.311 . S
C21 O15 1.231 . S
O22 Zn4 1.953 1_455 S
O22 C16 1.298 . S
O23 Zn24 1.953 . S
O23 C39 1.225 . S
Zn24 O23 1.953 . S
Zn24 O25 1.949 . S
Zn24 O31 1.919 . S
Zn24 O36 1.924 . S
O25 Zn24 1.949 . S
O25 Zn26 1.923 . S
O25 Zn27 1.950 . S
O25 Zn28 1.945 . S
Zn26 O25 1.923 . S
Zn26 O29 1.933 . S
Zn26 O32 1.941 . S
Zn26 O33 1.965 . S
Zn27 O25 1.950 . S
Zn27 O34 1.938 . S
Zn27 O35 1.906 . S
Zn27 O45 1.953 . S
Zn28 O25 1.945 . S
Zn28 O30 1.932 . S
Zn28 O37 1.977 . S
Zn28 O38 1.910 . S
O29 Zn26 1.933 . S
O29 C40 1.226 . S
O30 Zn28 1.932 . S
O30 C40 1.307 . S
O31 Zn24 1.919 . S
O31 C42 1.253 . S
O32 Zn26 1.941 . S
O32 C42 1.283 . S
O33 Zn26 1.965 . S
O33 C41 1.303 . S
O34 Zn27 1.938 . S
O34 C41 1.247 . S
O35 Zn27 1.906 . S
O35 C43 1.304 . S
O36 Zn24 1.924 . S
O36 C44 1.311 . S
O37 Zn28 1.977 . S
O37 C43 1.272 . S
O38 Zn28 1.910 . S
O38 C44 1.231 . S
C39 O23 1.225 . S
C39 O45 1.298 . S
C40 O29 1.226 . S
C40 O30 1.307 . S
C41 O33 1.303 . S
C41 O34 1.247 . S
C42 O31 1.253 . S
C42 O32 1.283 . S
C43 O35 1.304 . S
C43 O37 1.272 . S
C44 O36 1.311 . S
C44 O38 1.231 . S
O45 Zn27 1.953 . S
O45 C39 1.298 . S
O46 Zn47 1.953 . S
O46 C62 1.225 . S
Zn47 O46 1.953 . S
Zn47 O48 1.949 . S
Zn47 O54 1.919 . S
Zn47 O59 1.924 . S
O48 Zn47 1.949 . S
O48 Zn49 1.923 . S
O48 Zn50 1.950 1_655 S
O48 Zn51 1.945 . S
Zn49 O48 1.923 . S
Zn49 O52 1.933 . S
Zn49 O55 1.941 . S
Zn49 O56 1.965 1_655 S
Zn50 O48 1.950 1_455 S
Zn50 O57 1.938 . S
Zn50 O58 1.906 . S
Zn50 O68 1.953 1_455 S
Zn51 O48 1.945 . S
Zn51 O53 1.932 . S
Zn51 O60 1.985 . S
Zn51 O61 1.910 . S
O52 Zn49 1.933 . S
O52 C63 1.226 . S
O53 Zn51 1.932 . S
O53 C63 1.307 . S
O54 Zn47 1.919 . S
O54 C65 1.253 . S
O55 Zn49 1.941 . S
O55 C65 1.283 . S
O56 Zn49 1.965 1_455 S
O56 C64 1.303 . S
O57 Zn50 1.938 . S
O57 C64 1.247 . S
O58 Zn50 1.906 . S
O58 C66 1.304 . S
O59 Zn47 1.924 . S
O59 C67 1.311 . S
O60 Zn51 1.985 . S
O60 C66 1.262 1_655 S
O61 Zn51 1.910 . S
O61 C67 1.231 . S
C62 O46 1.225 . S
C62 O68 1.298 . S
C63 O52 1.226 . S
C63 O53 1.307 . S
C64 O56 1.303 . S
C64 O57 1.247 . S
C65 O54 1.253 . S
C65 O55 1.283 . S
C66 O58 1.304 . S
C66 O60 1.262 1_455 S
C67 O59 1.311 . S
C67 O61 1.231 . S
O68 Zn50 1.953 1_655 S
O68 C62 1.298 . S
O69 Zn70 1.953 . S
O69 C85 1.225 . S
Zn70 O69 1.953 . S
Zn70 O71 1.949 . S
Zn70 O77 1.919 . S
Zn70 O82 1.924 . S
O71 Zn70 1.949 . S
O71 Zn72 1.923 . S
O71 Zn73 1.950 . S
O71 Zn74 1.945 . S
Zn72 O71 1.923 . S
Zn72 O75 1.933 . S
Zn72 O78 1.941 . S
Zn72 O79 1.965 . S
Zn73 O71 1.950 . S
Zn73 O80 1.938 . S
Zn73 O81 1.906 . S
Zn73 O91 1.953 . S
Zn74 O71 1.945 . S
Zn74 O76 1.932 . S
Zn74 O83 1.977 . S
Zn74 O84 1.910 . S
O75 Zn72 1.933 . S
O75 C86 1.226 . S
O76 Zn74 1.932 . S
O76 C86 1.307 . S
O77 Zn70 1.919 . S
O77 C88 1.253 . S
O78 Zn72 1.941 . S
O78 C88 1.283 . S
O79 Zn72 1.965 . S
O79 C87 1.303 . S
O80 Zn73 1.938 . S
O80 C87 1.247 . S
O81 Zn73 1.906 . S
O81 C89 1.304 . S
O82 Zn70 1.924 . S
O82 C90 1.311 . S
O83 Zn74 1.977 . S
O83 C89 1.272 . S
O84 Zn74 1.910 . S
O84 C90 1.231 . S
C85 O69 1.225 . S
C85 O91 1.298 . S
C86 O75 1.226 . S
C86 O76 1.307 . S
C87 O79 1.303 . S
C87 O80 1.247 . S
C88 O77 1.253 . S
C88 O78 1.283 . S
C89 O81 1.304 . S
C89 O83 1.272 . S
C90 O82 1.311 . S
C90 O84 1.231 . S
O91 Zn73 1.953 . S
O91 C85 1.298 . S
O92 Zn93 1.953 . S
O92 C108 1.225 . S
Zn93 O92 1.953 . S
Zn93 O94 1.949 . S
Zn93 O100 1.919 . S
Zn93 O105 1.924 . S
O94 Zn93 1.949 . S
O94 Zn95 1.923 . S
O94 Zn96 1.950 . S
O94 Zn97 1.945 . S
Zn95 O94 1.923 . S
Zn95 O98 1.933 . S
Zn95 O101 1.941 . S
Zn95 O102 1.965 . S
Zn96 O94 1.950 . S
Zn96 O103 1.938 . S
Zn96 O104 1.906 . S
Zn96 O114 1.953 . S
Zn97 O94 1.945 . S
Zn97 O99 1.932 . S
Zn97 O106 1.977 . S
Zn97 O107 1.910 . S
O98 Zn95 1.933 . S
O98 C109 1.226 . S
O99 Zn97 1.932 . S
O99 C109 1.307 . S
O100 Zn93 1.919 . S
O100 C111 1.253 . S
O101 Zn95 1.941 . S
O101 C111 1.283 . S
O102 Zn95 1.965 . S
O102 C110 1.303 . S
O103 Zn96 1.938 . S
O103 C110 1.247 . S
O104 Zn96 1.906 . S
O104 C112 1.304 . S
O105 Zn93 1.924 . S
O105 C113 1.311 . S
O106 Zn97 1.977 . S
O106 C112 1.272 . S
O107 Zn97 1.910 . S
O107 C113 1.231 . S
C108 O92 1.225 . S
C108 O114 1.298 . S
C109 O98 1.226 . S
C109 O99 1.307 . S
C110 O102 1.303 . S
C110 O103 1.247 . S
C111 O100 1.253 . S
C111 O101 1.283 . S
C112 O104 1.304 . S
C112 O106 1.272 . S
C113 O105 1.311 . S
C113 O107 1.231 . S
O114 Zn96 1.953 . S
O114 C108 1.298 . S
O115 Zn116 1.953 . S
O115 C131 1.225 . S
Zn116 O115 1.953 . S
Zn116 O117 1.949 . S
Zn116 O123 1.919 . S
Zn116 O128 1.924 . S
O117 Zn116 1.949 . S
O117 Zn118 1.923 . S
O117 Zn119 1.950 1_545 S
O117 Zn120 1.945 . S
Zn118 O117 1.923 . S
Zn118 O121 1.933 . S
Zn118 O124 1.941 . S
Zn118 O125 1.965 1_545 S
Zn119 O117 1.950 1_565 S
Zn119 O126 1.938 . S
Zn119 O127 1.906 . S
Zn119 O137 1.953 1_565 S
Zn120 O117 1.945 . S
Zn120 O122 1.932 . S
Zn120 O129 1.975 . S
Zn120 O130 1.910 . S
O121 Zn118 1.933 . S
O121 C132 1.226 . S
O122 Zn120 1.932 . S
O122 C132 1.307 . S
O123 Zn116 1.919 . S
O123 C134 1.253 . S
O124 Zn118 1.941 . S
O124 C134 1.283 . S
O125 Zn118 1.965 1_565 S
O125 C133 1.303 . S
O126 Zn119 1.938 . S
O126 C133 1.247 . S
O127 Zn119 1.906 . S
O127 C135 1.304 . S
O128 Zn116 1.924 . S
O128 C136 1.311 . S
O129 Zn120 1.975 . S
O129 C135 1.273 1_545 S
O130 Zn120 1.910 . S
O130 C136 1.231 . S
C131 O115 1.225 . S
C131 O137 1.298 . S
C132 O121 1.226 . S
C132 O122 1.307 . S
C133 O125 1.303 . S
C133 O126 1.247 . S
C134 O123 1.253 . S
C134 O124 1.283 . S
C135 O127 1.304 . S
C135 O129 1.273 1_565 S
C136 O128 1.311 . S
C136 O130 1.231 . S
O137 Zn119 1.953 1_545 S
O137 C131 1.298 . S
O138 Zn139 1.953 . S
O138 C154 1.225 . S
Zn139 O138 1.953 . S
Zn139 O140 1.949 . S
Zn139 O146 1.919 . S
Zn139 O151 1.924 . S
O140 Zn139 1.949 . S
O140 Zn141 1.923 . S
O140 Zn142 1.950 . S
O140 Zn143 1.945 . S
Zn141 O140 1.923 . S
Zn141 O144 1.933 . S
Zn141 O147 1.941 . S
Zn141 O148 1.965 . S
Zn142 O140 1.950 . S
Zn142 O149 1.938 . S
Zn142 O150 1.906 . S
Zn142 O160 1.953 . S
Zn143 O140 1.945 . S
Zn143 O145 1.932 . S
Zn143 O152 1.977 . S
Zn143 O153 1.910 . S
O144 Zn141 1.933 . S
O144 C155 1.226 . S
O145 Zn143 1.932 . S
O145 C155 1.307 . S
O146 Zn139 1.919 . S
O146 C157 1.253 . S
O147 Zn141 1.941 . S
O147 C157 1.283 . S
O148 Zn141 1.965 . S
O148 C156 1.303 . S
O149 Zn142 1.938 . S
O149 C156 1.247 . S
O150 Zn142 1.906 . S
O150 C158 1.304 . S
O151 Zn139 1.924 . S
O151 C159 1.311 . S
O152 Zn143 1.977 . S
O152 C158 1.272 . S
O153 Zn143 1.910 . S
O153 C159 1.231 . S
C154 O138 1.225 . S
C154 O160 1.298 . S
C155 O144 1.226 . S
C155 O145 1.307 . S
C156 O148 1.303 . S
C156 O149 1.247 . S
C157 O146 1.253 . S
C157 O147 1.283 . S
C158 O150 1.304 . S
C158 O152 1.272 . S
C159 O151 1.311 . S
C159 O153 1.231 . S
O160 Zn142 1.953 . S
O160 C154 1.298 . S
O161 Zn162 1.953 . S
O161 C177 1.225 . S
Zn162 O161 1.953 . S
Zn162 O163 1.949 . S
Zn162 O169 1.919 . S
Zn162 O174 1.924 . S
O163 Zn162 1.949 . S
O163 Zn164 1.923 . S
O163 Zn165 1.950 1_565 S
O163 Zn166 1.945 . S
Zn164 O163 1.923 . S
Zn164 O167 1.933 . S
Zn164 O170 1.941 . S
Zn164 O171 1.965 1_565 S
Zn165 O163 1.950 1_545 S
Zn165 O172 1.938 . S
Zn165 O173 1.906 . S
Zn165 O183 1.953 1_545 S
Zn166 O163 1.945 . S
Zn166 O168 1.932 . S
Zn166 O175 1.977 . S
Zn166 O176 1.910 . S
O167 Zn164 1.933 . S
O167 C178 1.226 . S
O168 Zn166 1.932 . S
O168 C178 1.307 . S
O169 Zn162 1.919 . S
O169 C180 1.253 . S
O170 Zn164 1.941 . S
O170 C180 1.283 . S
O171 Zn164 1.965 1_545 S
O171 C179 1.303 . S
O172 Zn165 1.938 . S
O172 C179 1.247 . S
O173 Zn165 1.906 . S
O173 C181 1.304 . S
O174 Zn162 1.924 . S
O174 C182 1.311 . S
O175 Zn166 1.977 . S
O175 C181 1.272 1_565 S
O176 Zn166 1.910 . S
O176 C182 1.231 . S
C177 O161 1.225 . S
C177 O183 1.298 . S
C178 O167 1.226 . S
C178 O168 1.307 . S
C179 O171 1.303 . S
C179 O172 1.247 . S
C180 O169 1.253 . S
C180 O170 1.283 . S
C181 O173 1.304 . S
C181 O175 1.272 1_545 S
C182 O174 1.311 . S
C182 O176 1.231 . S
O183 Zn165 1.953 1_565 S
O183 C177 1.298 . S
C184 C185 1.387 . S
C184 H188 0.950 . S
C184 C193 1.390 . S
C185 C184 1.387 . S
C185 C187 1.387 . S
H186 C193 0.950 1_565 S
C187 C185 1.387 . S
C187 C189 1.390 . S
C187 H191 0.950 . S
H188 C184 0.950 . S
C189 C187 1.390 . S
C189 C190 1.387 . S
C189 H192 0.950 . S
C190 C189 1.387 . S
C190 C193 1.387 . S
H191 C187 0.950 . S
H192 C189 0.950 . S
C193 C184 1.390 . S
C193 H186 0.950 1_545 S
C193 C190 1.387 . S
C194 C195 1.387 . S
C194 H198 0.950 . S
C194 C203 1.390 . S
C195 C194 1.387 . S
C195 C197 1.387 . S
H196 C203 0.950 . S
C197 C195 1.387 . S
C197 C199 1.390 . S
C197 H201 0.950 . S
H198 C194 0.950 . S
C199 C197 1.390 . S
C199 C200 1.387 . S
C199 H202 0.950 . S
C200 C199 1.387 . S
C200 C203 1.387 . S
H201 C197 0.950 . S
H202 C199 0.950 . S
C203 C194 1.390 . S
C203 H196 0.950 . S
C203 C200 1.387 . S
C204 C205 1.387 . S
C204 H208 0.950 . S
C204 C213 1.390 . S
C205 C204 1.387 . S
C205 C207 1.387 . S
H206 C213 0.950 . S
C207 C205 1.387 . S
C207 C209 1.390 . S
C207 H211 0.950 . S
H208 C204 0.950 . S
C209 C207 1.390 . S
C209 C210 1.387 . S
C209 H212 0.950 . S
C210 C209 1.387 . S
C210 C213 1.387 . S
H211 C207 0.950 . S
H212 C209 0.950 . S
C213 C204 1.390 . S
C213 H206 0.950 . S
C213 C210 1.387 . S
C214 C215 1.387 . S
C214 H218 0.950 . S
C214 C223 1.390 1_554 S
C215 C214 1.387 . S
C215 C217 1.387 . S
H216 C223 0.950 . S
C217 C215 1.387 . S
C217 C219 1.390 1_554 S
C217 H221 0.950 . S
H218 C214 0.950 . S
C219 C217 1.390 1_556 S
C219 C220 1.387 . S
C219 H222 0.950 . S
C220 C219 1.387 . S
C220 C223 1.387 . S
H221 C217 0.950 . S
H222 C219 0.950 . S
C223 C214 1.390 1_556 S
C223 H216 0.950 . S
C223 C220 1.387 . S
C224 C225 1.387 . S
C224 H228 0.950 . S
C224 C233 1.390 . S
C225 C224 1.387 . S
C225 C227 1.387 . S
H226 C233 0.950 . S
C227 C225 1.387 . S
C227 C229 1.390 . S
C227 H231 0.950 . S
H228 C224 0.950 . S
C229 C227 1.390 . S
C229 C230 1.387 . S
C229 H232 0.950 . S
C230 C229 1.387 . S
C230 C233 1.387 . S
H231 C227 0.950 . S
H232 C229 0.950 . S
C233 C224 1.390 . S
C233 H226 0.950 . S
C233 C230 1.387 . S
C234 C235 1.387 . S
C234 H238 0.950 . S
C234 C243 1.390 . S
C235 C234 1.387 . S
C235 C237 1.387 . S
H236 C243 0.950 . S
C237 C235 1.387 . S
C237 C239 1.390 . S
C237 H241 0.950 . S
H238 C234 0.950 . S
C239 C237 1.390 . S
C239 C240 1.387 . S
C239 H242 0.950 . S
C240 C239 1.387 . S
C240 C243 1.387 . S
H241 C237 0.950 . S
H242 C239 0.950 . S
C243 C234 1.390 . S
C243 H236 0.950 . S
C243 C240 1.387 . S
C244 C245 1.387 . S
C244 H248 0.950 . S
C244 C253 1.390 . S
C245 C244 1.387 . S
C245 C247 1.387 . S
H246 C253 0.950 . S
C247 C245 1.387 . S
C247 C249 1.390 . S
C247 H251 0.950 . S
H248 C244 0.950 . S
C249 C247 1.390 . S
C249 C250 1.387 . S
C249 H252 0.950 . S
C250 C249 1.387 . S
C250 C253 1.387 . S
H251 C247 0.950 . S
H252 C249 0.950 . S
C253 C244 1.390 . S
C253 H246 0.950 . S
C253 C250 1.387 . S
C254 C255 1.387 . S
C254 H258 0.950 . S
C254 C263 1.390 . S
C255 C254 1.387 . S
C255 C257 1.387 . S
H256 C263 0.950 . S
C257 C255 1.387 . S
C257 C259 1.390 . S
C257 H261 0.950 . S
H258 C254 0.950 . S
C259 C257 1.390 . S
C259 C260 1.387 . S
C259 H262 0.950 1_554 S
C260 C259 1.387 . S
C260 C263 1.387 . S
H261 C257 0.950 . S
H262 C259 0.950 1_556 S
C263 C254 1.390 . S
C263 H256 0.950 . S
C263 C260 1.387 . S
C264 C265 1.387 . S
C264 H268 0.950 . S
C264 C273 1.390 . S
C265 C264 1.387 . S
C265 C267 1.387 . S
H266 C273 0.950 . S
C267 C265 1.387 . S
C267 C269 1.390 . S
C267 H271 0.950 . S
H268 C264 0.950 . S
C269 C267 1.390 . S
C269 C270 1.387 . S
C269 H272 0.950 . S
C270 C269 1.387 . S
C270 C273 1.387 . S
H271 C267 0.950 . S
H272 C269 0.950 . S
C273 C264 1.390 . S
C273 H266 0.950 . S
C273 C270 1.387 . S
C274 C275 1.387 . S
C274 H278 0.950 1_545 S
C274 C283 1.390 . S
C275 C274 1.387 . S
C275 C277 1.387 . S
H276 C283 0.950 . S
C277 C275 1.387 . S
C277 C279 1.390 . S
C277 H281 0.950 . S
H278 C274 0.950 1_565 S
C279 C277 1.390 . S
C279 C280 1.387 . S
C279 H282 0.950 . S
C280 C279 1.387 . S
C280 C283 1.387 . S
H281 C277 0.950 . S
H282 C279 0.950 . S
C283 C274 1.390 . S
C283 H276 0.950 . S
C283 C280 1.387 . S
C284 C285 1.387 . S
C284 H288 0.950 . S
C284 C293 1.390 . S
C285 C284 1.387 . S
C285 C287 1.387 . S
H286 C293 0.950 . S
C287 C285 1.387 . S
C287 C289 1.390 . S
C287 H291 0.950 1_556 S
H288 C284 0.950 . S
C289 C287 1.390 . S
C289 C290 1.387 . S
C289 H292 0.950 . S
C290 C289 1.387 . S
C290 C293 1.387 . S
H291 C287 0.950 1_554 S
H292 C289 0.950 . S
C293 C284 1.390 . S
C293 H286 0.950 . S
C293 C290 1.387 . S
C294 C295 1.387 . S
C294 H298 0.950 . S
C294 C303 1.390 . S
C295 C294 1.387 . S
C295 C297 1.387 . S
H296 C303 0.950 . S
C297 C295 1.387 . S
C297 C299 1.390 . S
C297 H301 0.950 . S
H298 C294 0.950 . S
C299 C297 1.390 . S
C299 C300 1.387 . S
C299 H302 0.950 . S
C300 C299 1.387 . S
C300 C303 1.387 . S
H301 C297 0.950 . S
H302 C299 0.950 . S
C303 C294 1.390 . S
C303 H296 0.950 . S
C303 C300 1.387 . S
C304 C305 1.387 . S
C304 H308 0.950 1_545 S
C304 C313 1.390 1_556 S
C305 C304 1.387 . S
C305 C307 1.387 . S
H306 C313 0.950 . S
C307 C305 1.387 . S
C307 C309 1.390 1_556 S
C307 H311 0.950 . S
H308 C304 0.950 1_565 S
C309 C307 1.390 1_554 S
C309 C310 1.387 . S
C309 H312 0.950 . S
C310 C309 1.387 . S
C310 C313 1.387 . S
H311 C307 0.950 . S
H312 C309 0.950 . S
C313 C304 1.390 1_554 S
C313 H306 0.950 . S
C313 C310 1.387 . S
C314 C315 1.387 . S
C314 H318 0.950 . S
C314 C323 1.390 . S
C315 C314 1.387 . S
C315 C317 1.387 . S
H316 C323 0.950 . S
C317 C315 1.387 . S
C317 C319 1.390 . S
C317 H321 0.950 . S
H318 C314 0.950 . S
C319 C317 1.390 . S
C319 C320 1.387 . S
C319 H322 0.950 . S
C320 C319 1.387 . S
C320 C323 1.387 . S
H321 C317 0.950 . S
H322 C319 0.950 . S
C323 C314 1.390 . S
C323 H316 0.950 . S
C323 C320 1.387 . S
C324 C325 1.387 . S
C324 H328 0.950 . S
C324 C333 1.390 . S
C325 C324 1.387 . S
C325 C327 1.387 . S
H326 C333 0.950 . S
C327 C325 1.387 . S
C327 C329 1.390 . S
C327 H331 0.950 . S
H328 C324 0.950 . S
C329 C327 1.390 . S
C329 C330 1.387 . S
C329 H332 0.950 . S
C330 C329 1.387 . S
C330 C333 1.387 . S
H331 C327 0.950 . S
H332 C329 0.950 . S
C333 C324 1.390 . S
C333 H326 0.950 . S
C333 C330 1.387 . S
C334 C335 1.387 . S
C334 H338 0.950 . S
C334 C343 1.390 . S
C335 C334 1.387 . S
C335 C337 1.387 . S
H336 C343 0.950 . S
C337 C335 1.387 . S
C337 C339 1.390 . S
C337 H341 0.950 . S
H338 C334 0.950 . S
C339 C337 1.390 . S
C339 C340 1.387 . S
C339 H342 0.950 . S
C340 C339 1.387 . S
C340 C343 1.387 . S
H341 C337 0.950 . S
H342 C339 0.950 . S
C343 C334 1.390 . S
C343 H336 0.950 . S
C343 C340 1.387 . S
C344 C345 1.387 . S
C344 H348 0.950 . S
C344 C353 1.390 1_545 S
C345 C344 1.387 . S
C345 C347 1.387 . S
H346 C353 0.950 . S
C347 C345 1.387 . S
C347 C349 1.390 1_545 S
C347 H351 0.950 . S
H348 C344 0.950 . S
C349 C347 1.390 1_565 S
C349 C350 1.387 . S
C349 H352 0.950 . S
C350 C349 1.387 . S
C350 C353 1.387 . S
H351 C347 0.950 . S
H352 C349 0.950 . S
C353 C344 1.390 1_565 S
C353 H346 0.950 . S
C353 C350 1.387 . S
C354 C355 1.387 . S
C354 H358 0.950 . S
C354 C363 1.390 . S
C355 C354 1.387 . S
C355 C357 1.387 . S
H356 C363 0.950 . S
C357 C355 1.387 . S
C357 C359 1.390 . S
C357 H361 0.950 . S
H358 C354 0.950 . S
C359 C357 1.390 . S
C359 C360 1.387 . S
C359 H362 0.950 . S
C360 C359 1.387 . S
C360 C363 1.387 . S
H361 C357 0.950 . S
H362 C359 0.950 . S
C363 C354 1.390 . S
C363 H356 0.950 . S
C363 C360 1.387 . S
C364 C365 1.387 . S
C364 H368 0.950 . S
C364 C373 1.390 1_545 S
C365 C364 1.387 . S
C365 C367 1.387 . S
H366 C373 0.950 . S
C367 C365 1.387 . S
C367 C369 1.390 1_545 S
C367 H371 0.950 . S
H368 C364 0.950 . S
C369 C367 1.390 1_565 S
C369 C370 1.387 . S
C369 H372 0.950 . S
C370 C369 1.387 . S
C370 C373 1.387 . S
H371 C367 0.950 . S
H372 C369 0.950 . S
C373 C364 1.390 1_565 S
C373 H366 0.950 . S
C373 C370 1.387 . S
C374 C375 1.387 . S
C374 H378 0.950 . S
C374 C383 1.390 . S
C375 C374 1.387 . S
C375 C377 1.387 . S
H376 C383 0.950 . S
C377 C375 1.387 . S
C377 C379 1.390 . S
C377 H381 0.950 . S
H378 C374 0.950 . S
C379 C377 1.390 . S
C379 C380 1.387 . S
C379 H382 0.950 . S
C380 C379 1.387 . S
C380 C383 1.387 . S
H381 C377 0.950 . S
H382 C379 0.950 . S
C383 C374 1.390 . S
C383 H376 0.950 . S
C383 C380 1.387 . S
C384 C385 1.387 . S
C384 H388 0.950 . S
C384 C393 1.390 . S
C385 C384 1.387 . S
C385 C387 1.387 . S
H386 C393 0.950 . S
C387 C385 1.387 . S
C387 C389 1.390 . S
C387 H391 0.950 . S
H388 C384 0.950 . S
C389 C387 1.390 . S
C389 C390 1.387 . S
C389 H392 0.950 . S
C390 C389 1.387 . S
C390 C393 1.387 . S
H391 C387 0.950 . S
H392 C389 0.950 . S
C393 C384 1.390 . S
C393 H386 0.950 . S
C393 C390 1.387 . S
C394 C395 1.387 . S
C394 H398 0.950 . S
C394 C403 1.390 1_455 S
C395 C394 1.387 . S
C395 C397 1.387 . S
H396 C403 0.950 . S
C397 C395 1.387 . S
C397 C399 1.390 1_455 S
C397 H401 0.950 . S
H398 C394 0.950 . S
C399 C397 1.390 1_655 S
C399 C400 1.387 . S
C399 H402 0.950 . S
C400 C399 1.387 . S
C400 C403 1.387 . S
H401 C397 0.950 . S
H402 C399 0.950 . S
C403 C394 1.390 1_655 S
C403 H396 0.950 . S
C403 C400 1.387 . S
C404 C405 1.387 . S
C404 H408 0.950 . S
C404 C413 1.390 . S
C405 C404 1.387 . S
C405 C407 1.387 . S
H406 C413 0.950 . S
C407 C405 1.387 . S
C407 C409 1.390 . S
C407 H411 0.950 . S
H408 C404 0.950 . S
C409 C407 1.390 . S
C409 C410 1.387 . S
C409 H412 0.950 . S
C410 C409 1.387 . S
C410 C413 1.387 . S
H411 C407 0.950 . S
H412 C409 0.950 . S
C413 C404 1.390 . S
C413 H406 0.950 . S
C413 C410 1.387 . S
C414 C415 1.387 . S
C414 H418 0.950 . S
C414 C423 1.390 1_655 S
C415 C414 1.387 . S
C415 C417 1.387 . S
H416 C423 0.950 . S
C417 C415 1.387 . S
C417 C419 1.390 1_655 S
C417 H421 0.950 . S
H418 C414 0.950 . S
C419 C417 1.390 1_455 S
C419 C420 1.387 . S
C419 H422 0.950 . S
C420 C419 1.387 . S
C420 C423 1.387 . S
H421 C417 0.950 . S
H422 C419 0.950 . S
C423 C414 1.390 1_455 S
C423 H416 0.950 . S
C423 C420 1.387 . S
C185 C18 1.366 . S
C190 C181 1.332 . S
C195 C43 1.333 . S
C200 C110 1.367 . S
C205 C64 1.376 . S
C210 C133 1.376 . S
C215 C156 1.376 . S
C220 C87 1.377 . S
C225 C16 1.404 . S
C230 C41 1.449 . S
C235 C66 1.352 . S
C240 C40 1.376 . S
C245 C89 1.393 . S
C250 C62 1.394 . S
C255 C20 1.391 . S
C260 C85 1.392 1_554 S
C265 C108 1.406 . S
C270 C179 1.448 . S
C275 C131 1.392 . S
C280 C112 1.391 . S
C285 C154 1.397 1_556 S
C290 C135 1.394 . S
C295 C158 1.354 . S
C300 C178 1.375 . S
C305 C132 1.084 . S
C310 C17 1.083 . S
C315 C155 1.120 . S
C320 C39 1.106 . S
C325 C177 1.107 . S
C330 C63 1.120 . S
C335 C109 1.083 . S
C340 C86 1.084 . S
C345 C19 1.852 . S
C350 C159 1.883 . S
C355 C44 1.860 . S
C360 C180 1.820 . S
C365 C113 1.830 . S
C370 C65 1.803 . S
C375 C136 1.862 . S
C380 C88 1.834 . S
C385 C67 1.882 . S
C390 C111 1.852 . S
C395 C134 1.835 . S
C400 C90 1.863 . S
C405 C157 1.802 . S
C410 C21 1.830 . S
C415 C182 1.859 . S
C420 C42 1.819 . S
