# Generated by pormake.
# Topology ukf, (4)-cn, num edge types: 1
# Building blocks:
#     Node 0, Type 0, BuildingBlock: TATPOV_clean_sbu_0, # of connection points: 4
#     Node 1, Type 0, BuildingBlock: TATPOV_clean_sbu_0, # of connection points: 4
#     Node 2, Type 0, BuildingBlock: TATPOV_clean_sbu_0, # of connection points: 4
#     Node 3, Type 0, BuildingBlock: TATPOV_clean_sbu_0, # of connection points: 4
#     Node 4, Type 0, BuildingBlock: TATPOV_clean_sbu_0, # of connection points: 4
#     Node 5, Type 0, BuildingBlock: TATPOV_clean_sbu_0, # of connection points: 4
#     Node 6, Type 0, BuildingBlock: TATPOV_clean_sbu_0, # of connection points: 4
#     Node 7, Type 0, BuildingBlock: TATPOV_clean_sbu_0, # of connection points: 4
#     Node 8, Type 0, BuildingBlock: TATPOV_clean_sbu_0, # of connection points: 4
#     Node 9, Type 0, BuildingBlock: TATPOV_clean_sbu_0, # of connection points: 4
#     Node 10, Type 0, BuildingBlock: TATPOV_clean_sbu_0, # of connection points: 4
#     Node 11, Type 0, BuildingBlock: TATPOV_clean_sbu_0, # of connection points: 4
#     Edge 12, Type (0, 0), BuildingBlock: TEMPAE_clean_linker_10, # of connection points: 2
#     Edge 13, Type (0, 0), BuildingBlock: TEMPAE_clean_linker_10, # of connection points: 2
#     Edge 14, Type (0, 0), BuildingBlock: TEMPAE_clean_linker_10, # of connection points: 2
#     Edge 15, Type (0, 0), BuildingBlock: TEMPAE_clean_linker_10, # of connection points: 2
#     Edge 16, Type (0, 0), BuildingBlock: TEMPAE_clean_linker_10, # of connection points: 2
#     Edge 17, Type (0, 0), BuildingBlock: TEMPAE_clean_linker_10, # of connection points: 2
#     Edge 18, Type (0, 0), BuildingBlock: TEMPAE_clean_linker_10, # of connection points: 2
#     Edge 19, Type (0, 0), BuildingBlock: TEMPAE_clean_linker_10, # of connection points: 2
#     Edge 20, Type (0, 0), BuildingBlock: TEMPAE_clean_linker_10, # of connection points: 2
#     Edge 21, Type (0, 0), BuildingBlock: TEMPAE_clean_linker_10, # of connection points: 2
#     Edge 22, Type (0, 0), BuildingBlock: TEMPAE_clean_linker_10, # of connection points: 2
#     Edge 23, Type (0, 0), BuildingBlock: TEMPAE_clean_linker_10, # of connection points: 2
#     Edge 24, Type (0, 0), BuildingBlock: TEMPAE_clean_linker_10, # of connection points: 2
#     Edge 25, Type (0, 0), BuildingBlock: TEMPAE_clean_linker_10, # of connection points: 2
#     Edge 26, Type (0, 0), BuildingBlock: TEMPAE_clean_linker_10, # of connection points: 2
#     Edge 27, Type (0, 0), BuildingBlock: TEMPAE_clean_linker_10, # of connection points: 2
#     Edge 28, Type (0, 0), BuildingBlock: TEMPAE_clean_linker_10, # of connection points: 2
#     Edge 29, Type (0, 0), BuildingBlock: TEMPAE_clean_linker_10, # of connection points: 2
#     Edge 30, Type (0, 0), BuildingBlock: TEMPAE_clean_linker_10, # of connection points: 2
#     Edge 31, Type (0, 0), BuildingBlock: TEMPAE_clean_linker_10, # of connection points: 2
#     Edge 32, Type (0, 0), BuildingBlock: TEMPAE_clean_linker_10, # of connection points: 2
#     Edge 33, Type (0, 0), BuildingBlock: TEMPAE_clean_linker_10, # of connection points: 2
#     Edge 34, Type (0, 0), BuildingBlock: TEMPAE_clean_linker_10, # of connection points: 2
#     Edge 35, Type (0, 0), BuildingBlock: TEMPAE_clean_linker_10, # of connection points: 2
# Relax obj value: 0.151
# Max RMSD: 0.164
# Mean RMSD: 0.164
data_MOF--net-ukf--node1-TATPOV_clean_sbu_0--edge1-TEMPAE_clean_linker_10
_symmetry_space_group_name_H-M    P1
_symmetry_Int_Tables_number       1
_symmetry_cell_setting            triclinic
loop_
_symmetry_equiv_pos_as_xyz
'x, y, z'
_cell_length_a     31.605739
_cell_length_b     31.618537
_cell_length_c     66.560218
_cell_angle_alpha  89.98925
_cell_angle_beta   90.027236
_cell_angle_gamma 120.01958
loop_
_atom_site_label
_atom_site_type_symbol
_atom_site_fract_x
_atom_site_fract_y
_atom_site_fract_z
_atom_type_partial_charge
Zn0 Zn 0.37164 0.25437 0.01919 0.0
Zn1 Zn 0.37512 0.22205 0.05653 0.0
O2 O 0.30865 0.17106 0.04513 0.0
O3 O 0.30344 0.19784 0.0152 0.0
O4 O 0.37263 0.20337 0.08564 0.0
O5 O 0.38238 0.31839 0.02983 0.0
O6 O 0.39162 0.29307 0.05938 0.0
C7 C 0.28508 0.16593 0.02891 0.0
C8 C 0.44885 0.22921 0.02612 0.0
O9 O 0.43073 0.21675 0.04367 0.0
O10 O 0.43098 0.24637 0.0136 0.0
C11 C 0.40675 0.23292 0.09719 0.0
O12 O 0.44415 0.2718 0.08935 0.0
C13 C 0.39263 0.32632 0.04831 0.0
Zn14 Zn 0.12594 0.37286 0.34894 0.0
Zn15 Zn 0.16117 0.38163 0.38686 0.0
O16 O 0.14425 0.3125 0.37849 0.0
O17 O 0.11289 0.30374 0.34815 0.0
O18 O 0.17701 0.38742 0.41633 0.0
O19 O 0.07331 0.38637 0.35786 0.0
O20 O 0.1072 0.39899 0.38773 0.0
C21 C 0.12515 0.28668 0.36282 0.0
C22 C 0.22862 0.44951 0.35491 0.0
O23 O 0.22243 0.43399 0.37294 0.0
O24 O 0.19372 0.43036 0.34236 0.0
C25 C 0.20187 0.37306 0.4262 0.0
O26 O 0.22243 0.35148 0.41677 0.0
C27 C 0.07542 0.39898 0.37603 0.0
Zn28 Zn 0.74555 0.12455 0.68382 0.0
Zn29 Zn 0.77528 0.16278 0.72121 0.0
O30 O 0.82802 0.14813 0.71138 0.0
O31 O 0.80312 0.11383 0.68165 0.0
O32 O 0.7918 0.1812 0.75035 0.0
O33 O 0.68139 0.07112 0.69434 0.0
O34 O 0.70504 0.10642 0.72385 0.0
C35 C 0.83422 0.12862 0.69573 0.0
C36 C 0.76797 0.22644 0.68917 0.0
O37 O 0.77931 0.22194 0.7071 0.0
O38 O 0.75262 0.19093 0.67695 0.0
C39 C 0.7604 0.18443 0.76119 0.0
O40 O 0.72117 0.18053 0.75259 0.0
C41 C 0.67269 0.0734 0.71273 0.0
Zn42 Zn 0.61508 0.74889 0.01624 0.0
Zn43 Zn 0.61199 0.78251 0.05345 0.0
O44 O 0.67841 0.83318 0.04197 0.0
O45 O 0.68333 0.80539 0.01223 0.0
O46 O 0.61425 0.80123 0.08257 0.0
O47 O 0.60414 0.685 0.02722 0.0
O48 O 0.59579 0.71171 0.05658 0.0
C49 C 0.70183 0.83775 0.02576 0.0
C50 C 0.53822 0.77472 0.02284 0.0
O51 O 0.5564 0.78757 0.04038 0.0
O52 O 0.55589 0.75706 0.01048 0.0
C53 C 0.57976 0.77136 0.0939 0.0
O54 O 0.5424 0.73297 0.08576 0.0
C55 C 0.59439 0.67792 0.04576 0.0
Zn56 Zn 0.86143 0.61679 0.34754 0.0
Zn57 Zn 0.82784 0.61039 0.38563 0.0
O58 O 0.84388 0.67886 0.37664 0.0
O59 O 0.87397 0.68571 0.34616 0.0
O60 O 0.81319 0.6058 0.41517 0.0
O61 O 0.91471 0.60415 0.35645 0.0
O62 O 0.8822 0.59365 0.3865 0.0
C63 C 0.86219 0.70363 0.36066 0.0
C64 C 0.75919 0.54031 0.3545 0.0
O65 O 0.76616 0.55701 0.37234 0.0
O66 O 0.7935 0.5587 0.34168 0.0
C67 C 0.78609 0.61726 0.42509 0.0
O68 O 0.76203 0.63522 0.41565 0.0
C69 C 0.91352 0.59294 0.37475 0.0
Zn70 Zn 0.24503 0.85862 0.68484 0.0
Zn71 Zn 0.21487 0.82171 0.72209 0.0
O72 O 0.16322 0.83734 0.71159 0.0
O73 O 0.1885 0.87063 0.68176 0.0
O74 O 0.19804 0.80647 0.75131 0.0
O75 O 0.30952 0.91164 0.69526 0.0
O76 O 0.28595 0.87604 0.72473 0.0
C77 C 0.15731 0.85651 0.69576 0.0
C78 C 0.22073 0.75607 0.69091 0.0
O79 O 0.20916 0.76102 0.70875 0.0
O80 O 0.23681 0.79147 0.67861 0.0
C81 C 0.21811 0.7881 0.76202 0.0
O82 O 0.24635 0.77399 0.75335 0.0
C83 C 0.31848 0.90879 0.71357 0.0
Zn84 Zn 0.74432 0.61156 0.65371 0.0
Zn85 Zn 0.77537 0.60577 0.61642 0.0
O86 O 0.8274 0.67229 0.62737 0.0
O87 O 0.80155 0.67963 0.65718 0.0
O88 O 0.79329 0.60765 0.58727 0.0
O89 O 0.68039 0.60134 0.64311 0.0
O90 O 0.70475 0.59055 0.61362 0.0
C91 C 0.8332 0.69685 0.64334 0.0
C92 C 0.76738 0.53259 0.64729 0.0
O93 O 0.77959 0.54976 0.62957 0.0
O94 O 0.75135 0.55178 0.65968 0.0
C95 C 0.76411 0.57317 0.57579 0.0
O96 O 0.72598 0.53512 0.5837 0.0
C97 C 0.67201 0.59058 0.62468 0.0
Zn98 Zn 0.13093 0.75671 0.99047 0.0
Zn99 Zn 0.16535 0.78189 0.95239 0.0
O100 O 0.15095 0.83565 0.96112 0.0
O101 O 0.11921 0.81368 0.99142 0.0
O102 O 0.17828 0.79155 0.92268 0.0
O103 O 0.07698 0.69083 0.98188 0.0
O104 O 0.10987 0.71116 0.95182 0.0
C105 C 0.13229 0.84307 0.97676 0.0
C106 C 0.2328 0.7797 0.98383 0.0
O107 O 0.22651 0.78874 0.96576 0.0
O108 O 0.19841 0.76561 0.99655 0.0
C109 C 0.21865 0.81222 0.91329 0.0
O110 O 0.25986 0.83373 0.92341 0.0
C111 C 0.07805 0.67995 0.96368 0.0
Zn112 Zn 0.37349 0.12861 0.32494 0.0
Zn113 Zn 0.38082 0.1638 0.28702 0.0
O114 O 0.31195 0.14676 0.29582 0.0
O115 O 0.30434 0.11561 0.32613 0.0
O116 O 0.3862 0.18095 0.2577 0.0
O117 O 0.38664 0.07613 0.31542 0.0
O118 O 0.3976 0.10948 0.2855 0.0
C119 C 0.2867 0.12772 0.31163 0.0
C120 C 0.44982 0.23106 0.31891 0.0
O121 O 0.43366 0.22468 0.30098 0.0
O122 O 0.43116 0.19628 0.3315 0.0
C123 C 0.36564 0.2002 0.2479 0.0
O124 O 0.33736 0.21309 0.25735 0.0
C125 C 0.39805 0.0778 0.29711 0.0
Zn126 Zn 0.24663 0.37245 0.65463 0.0
Zn127 Zn 0.21496 0.37883 0.61749 0.0
O128 O 0.16365 0.31173 0.62815 0.0
O129 O 0.18991 0.30398 0.65782 0.0
O130 O 0.19667 0.37785 0.58842 0.0
O131 O 0.31078 0.38388 0.64376 0.0
O132 O 0.28577 0.39489 0.61444 0.0
C133 C 0.1582 0.28682 0.64399 0.0
C134 C 0.22205 0.45051 0.64895 0.0
O135 O 0.21 0.43387 0.63115 0.0
O136 O 0.23863 0.43139 0.66112 0.0
C137 C 0.22573 0.41279 0.57709 0.0
O138 O 0.26391 0.45053 0.58515 0.0
C139 C 0.31885 0.39507 0.62536 0.0
Zn140 Zn 0.85438 0.24593 0.98954 0.0
Zn141 Zn 0.81636 0.22117 0.95184 0.0
O142 O 0.83254 0.16787 0.95928 0.0
O143 O 0.86623 0.18902 0.9893 0.0
O144 O 0.79755 0.21108 0.9226 0.0
O145 O 0.90714 0.31173 0.98029 0.0
O146 O 0.87174 0.29196 0.95065 0.0
C147 C 0.85249 0.16021 0.97443 0.0
C148 C 0.75225 0.22276 0.9852 0.0
O149 O 0.757 0.21394 0.96692 0.0
O150 O 0.78778 0.23702 0.99735 0.0
C151 C 0.78266 0.17245 0.91224 0.0
O152 O 0.77544 0.13215 0.92102 0.0
C153 C 0.90458 0.3229 0.96227 0.0
Zn154 Zn 0.61289 0.8601 0.32265 0.0
Zn155 Zn 0.6042 0.82516 0.28467 0.0
O156 O 0.67335 0.84196 0.29308 0.0
O157 O 0.68201 0.87315 0.32344 0.0
O158 O 0.59807 0.80891 0.2552 0.0
O159 O 0.59956 0.9128 0.3137 0.0
O160 O 0.5873 0.87951 0.28372 0.0
C161 C 0.69913 0.861 0.30877 0.0
C162 C 0.5362 0.75767 0.31669 0.0
O163 O 0.55168 0.76402 0.29866 0.0
O164 O 0.55541 0.79244 0.32928 0.0
C165 C 0.62088 0.79314 0.24475 0.0
O166 O 0.65211 0.78315 0.25352 0.0
C167 C 0.58736 0.91117 0.2955 0.0
C168 C 0.10251 0.89434 0.99308 0.0
C169 C 0.1345 0.89029 0.97966 0.0
C170 C 0.11268 0.94014 1.00034 0.0
C171 C 0.15688 0.98213 0.9947 0.0
C172 C 0.18654 0.97861 0.97957 0.0
C173 C 0.1744 0.93264 0.97195 0.0
C174 C 0.07831 0.94285 0.01531 0.0
C175 C 0.23412 0.02246 0.9731 0.0
C176 C 0.20969 0.11459 0.00871 0.0
C177 C 0.24152 0.11852 0.02423 0.0
C178 C 0.17684 0.06893 1.00037 0.0
C179 C 0.17764 0.02698 0.0072 0.0
C180 C 0.20619 0.03028 0.02419 0.0
C181 C 0.23713 0.07602 0.03275 0.0
C182 C 0.14446 0.06647 0.98322 0.0
C183 C 0.20834 0.98649 0.032 0.0
H184 H 0.07102 0.86155 0.99877 0.0
H185 H 0.19903 0.92957 0.9615 0.0
H186 H 0.08985 0.94006 0.03076 0.0
H187 H 0.07855 0.97798 0.01408 0.0
H188 H 0.04035 0.91227 0.01314 0.0
H189 H 0.25133 0.01398 0.96035 0.0
H190 H 0.22813 0.05277 0.96856 0.0
H191 H 0.26014 0.03555 0.98591 0.0
H192 H 0.21231 0.14739 1.00234 0.0
H193 H 0.26141 0.07885 0.04484 0.0
H194 H 0.11 0.03074 0.98281 0.0
H195 H 0.1639 0.07126 0.9688 0.0
H196 H 0.1354 0.0961 0.98439 0.0
H197 H 0.17109 0.95599 0.03526 0.0
H198 H 0.23062 0.9949 0.0459 0.0
H199 H 0.22451 0.97365 0.02037 0.0
C200 C 0.09609 0.20694 0.34545 0.0
C201 C 0.12668 0.24135 0.35973 0.0
C202 C 0.1071 0.17229 0.33773 0.0
C203 C 0.15068 0.17383 0.34385 0.0
C204 C 0.17842 0.20478 0.35992 0.0
C205 C 0.16546 0.23764 0.36793 0.0
C206 C 0.07453 0.13734 0.32173 0.0
C207 C 0.22517 0.20755 0.36703 0.0
C208 C 0.20724 0.09815 0.32931 0.0
C209 C 0.24129 0.12896 0.31499 0.0
C210 C 0.17229 0.10863 0.33715 0.0
C211 C 0.17321 0.15194 0.3311 0.0
C212 C 0.20393 0.17999 0.31503 0.0
C213 C 0.23706 0.16753 0.3069 0.0
C214 C 0.13764 0.07574 0.35314 0.0
C215 C 0.20609 0.22649 0.30801 0.0
H216 H 0.06537 0.20909 0.33939 0.0
H217 H 0.18893 0.26394 0.37909 0.0
H218 H 0.08702 0.15435 0.30673 0.0
H219 H 0.07555 0.10276 0.32198 0.0
H220 H 0.03613 0.12879 0.32369 0.0
H221 H 0.24079 0.23142 0.38041 0.0
H222 H 0.21864 0.17066 0.37086 0.0
H223 H 0.25272 0.2222 0.35479 0.0
H224 H 0.2098 0.06761 0.33529 0.0
H225 H 0.26313 0.19118 0.29572 0.0
H226 H 0.1029 0.0765 0.35305 0.0
H227 H 0.15482 0.08808 0.36812 0.0
H228 H 0.1293 0.03746 0.35104 0.0
H229 H 0.16904 0.21952 0.30414 0.0
H230 H 0.23002 0.24251 0.29467 0.0
H231 H 0.22034 0.25391 0.3203 0.0
C232 C 0.92404 0.17122 0.70007 0.0
C233 C 0.88168 0.1317 0.69214 0.0
C234 C 0.97002 0.18408 0.69225 0.0
C235 C 0.97363 0.15552 0.67665 0.0
C236 C 0.93167 0.11169 0.67064 0.0
C237 C 0.88581 0.1008 0.67815 0.0
C238 C 0.01381 0.23127 0.69913 0.0
C239 C 0.93443 0.07844 0.6551 0.0
C240 C 0.06838 0.2389 0.63961 0.0
C241 C 0.11072 0.24281 0.64811 0.0
C242 C 0.02238 0.20701 0.64774 0.0
C243 C 0.01869 0.17711 0.66428 0.0
C244 C 0.06056 0.17594 0.67099 0.0
C245 C 0.10646 0.20969 0.6631 0.0
C246 C 0.97868 0.20956 0.64007 0.0
C247 C 0.05767 0.14215 0.6876 0.0
H248 H 0.92098 0.19501 0.71099 0.0
H249 H 0.85307 0.06956 0.67228 0.0
H250 H 0.0441 0.22505 0.70347 0.0
H251 H 0.02704 0.25803 0.6866 0.0
H252 H 0.0052 0.24771 0.71212 0.0
H253 H 0.90425 0.04022 0.65709 0.0
H254 H 0.93084 0.09059 0.63988 0.0
H255 H 0.96986 0.07913 0.65586 0.0
H256 H 0.07146 0.26416 0.62791 0.0
H257 H 0.13913 0.21193 0.66943 0.0
H258 H 0.96551 0.22486 0.65193 0.0
H259 H 0.94832 0.17253 0.6364 0.0
H260 H 0.98736 0.23277 0.62645 0.0
H261 H 0.06127 0.16001 0.70233 0.0
H262 H 0.08778 0.13378 0.68636 0.0
H263 H 0.02219 0.1074 0.68737 0.0
C264 C 0.75032 0.92769 0.02942 0.0
C265 C 0.74538 0.88501 0.02087 0.0
C266 C 0.78109 0.97329 0.02073 0.0
C267 C 0.80892 0.97627 0.00354 0.0
C268 C 0.80922 0.93413 0.99664 0.0
C269 C 0.77656 0.88862 0.00514 0.0
C270 C 0.7795 0.0173 0.02865 0.0
C271 C 0.84084 0.9362 0.97927 0.0
C272 C 0.811 0.07091 0.96888 0.0
C273 C 0.85097 0.11314 0.97664 0.0
C274 C 0.79931 0.0248 0.97618 0.0
C275 C 0.82947 0.02107 0.99103 0.0
C276 C 0.87385 0.06297 0.99656 0.0
C277 C 0.88361 0.1089 0.98963 0.0
C278 C 0.75161 0.981 0.96977 0.0
C279 C 0.90876 0.06002 0.01117 0.0
H280 H 0.72657 0.92514 0.04168 0.0
H281 H 0.77356 0.85569 0.99873 0.0
H282 H 0.81693 0.04762 0.03178 0.0
H283 H 0.76319 0.0303 0.01714 0.0
H284 H 0.75763 0.00908 0.04264 0.0
H285 H 0.85038 0.90692 0.98053 0.0
H286 H 0.8205 0.93041 0.965 0.0
H287 H 0.87503 0.97209 0.97843 0.0
H288 H 0.78592 0.07412 0.95872 0.0
H289 H 0.91519 0.14159 0.99532 0.0
H290 H 0.72587 0.96779 0.98265 0.0
H291 H 0.75752 0.95074 0.96506 0.0
H292 H 0.73414 0.9896 0.95714 0.0
H293 H 0.89763 0.06225 0.02675 0.0
H294 H 0.9466 0.09078 0.00894 0.0
H295 H 0.90864 0.02501 0.00958 0.0
C296 C 0.77932 0.89094 0.32589 0.0
C297 C 0.74459 0.85968 0.31186 0.0
C298 C 0.81436 0.88048 0.33364 0.0
C299 C 0.81288 0.83677 0.32782 0.0
C300 C 0.78145 0.80821 0.312 0.0
C301 C 0.7482 0.82063 0.30394 0.0
C302 C 0.84973 0.91384 0.34935 0.0
C303 C 0.7787 0.76128 0.30523 0.0
C304 C 0.89033 0.7822 0.34246 0.0
C305 C 0.8603 0.74862 0.35709 0.0
C306 C 0.879 0.81636 0.33442 0.0
C307 C 0.83563 0.81516 0.34061 0.0
C308 C 0.8084 0.78502 0.35695 0.0
C309 C 0.8217 0.75266 0.36525 0.0
C310 C 0.91099 0.8504 0.31808 0.0
C311 C 0.76187 0.7826 0.36413 0.0
H312 H 0.77719 0.92183 0.33174 0.0
H313 H 0.72158 0.79661 0.29299 0.0
H314 H 0.83334 0.90173 0.36448 0.0
H315 H 0.88452 0.91322 0.34896 0.0
H316 H 0.8578 0.95201 0.34721 0.0
H317 H 0.75441 0.74497 0.292 0.0
H318 H 0.81554 0.76779 0.30129 0.0
H319 H 0.76454 0.7343 0.31768 0.0
H320 H 0.92089 0.77977 0.33639 0.0
H321 H 0.79863 0.72696 0.37666 0.0
H322 H 0.91 0.885 0.31803 0.0
H323 H 0.89794 0.83256 0.30325 0.0
H324 H 0.94945 0.85903 0.3199 0.0
H325 H 0.76851 0.81967 0.36768 0.0
H326 H 0.74664 0.75936 0.3777 0.0
H327 H 0.73396 0.76739 0.35203 0.0
C328 C 0.88516 0.77429 0.66223 0.0
C329 C 0.88086 0.74056 0.64753 0.0
C330 C 0.93106 0.80817 0.6701 0.0
C331 C 0.97287 0.80648 0.66371 0.0
C332 C 0.96911 0.7757 0.6475 0.0
C333 C 0.92314 0.74373 0.63935 0.0
C334 C 0.93399 0.84281 0.68634 0.0
C335 C 0.0127 0.77246 0.64022 0.0
C336 C 0.1058 0.88346 0.67747 0.0
C337 C 0.1099 0.85339 0.69191 0.0
C338 C 0.05995 0.87216 0.66979 0.0
C339 C 0.01796 0.82873 0.67609 0.0
C340 C 0.02153 0.80109 0.6921 0.0
C341 C 0.0675 0.81438 0.70008 0.0
C342 C 0.0572 0.9045 0.65379 0.0
C343 C 0.97771 0.75433 0.6993 0.0
H344 H 0.85252 0.77255 0.66832 0.0
H345 H 0.91998 0.71791 0.6279 0.0
H346 H 0.92999 0.82553 0.70124 0.0
H347 H 0.96963 0.87739 0.68603 0.0
H348 H 0.90412 0.85143 0.68473 0.0
H349 H 0.00397 0.74844 0.62686 0.0
H350 H 0.0432 0.8092 0.63629 0.0
H351 H 0.02571 0.75775 0.6524 0.0
H352 H 0.13856 0.9143 0.6714 0.0
H353 H 0.0705 0.79123 0.71133 0.0
H354 H 0.02195 0.90419 0.65445 0.0
H355 H 0.06025 0.89116 0.63876 0.0
H356 H 0.08764 0.94274 0.65536 0.0
H357 H 0.94746 0.76086 0.70336 0.0
H358 H 0.98631 0.73862 0.71256 0.0
H359 H 0.96442 0.72686 0.68703 0.0
C360 C 0.66215 0.1894 0.98178 0.0
C361 C 0.70594 0.21881 0.99212 0.0
C362 C 0.61851 0.18729 0.98774 0.0
C363 C 0.61906 0.21626 0.00407 0.0
C364 C 0.66308 0.24555 0.0147 0.0
C365 C 0.70586 0.24602 0.00874 0.0
C366 C 0.57202 0.15476 0.97634 0.0
C367 C 0.6654 0.27776 0.03192 0.0
C368 C 0.52294 0.2546 0.00504 0.0
C369 C 0.49163 0.22482 0.0203 0.0
C370 C 0.5645 0.2521 0.99963 0.0
C371 C 0.57435 0.21816 0.00938 0.0
C372 C 0.5423 0.18723 0.02451 0.0
C373 C 0.5016 0.19137 0.02998 0.0
C374 C 0.59837 0.28647 0.98374 0.0
C375 C 0.55106 0.14985 0.03491 0.0
H376 H 0.66198 0.16801 0.96902 0.0
H377 H 0.73969 0.26907 0.0167 0.0
H378 H 0.54259 0.13071 0.98692 0.0
H379 H 0.55952 0.17741 0.96841 0.0
H380 H 0.57691 0.13159 0.9651 0.0
H381 H 0.70221 0.29742 0.03894 0.0
H382 H 0.65584 0.3051 0.02646 0.0
H383 H 0.63833 0.25563 0.04362 0.0
H384 H 0.51558 0.28076 0.99761 0.0
H385 H 0.47725 0.16803 0.04168 0.0
H386 H 0.60153 0.26537 0.9711 0.0
H387 H 0.63552 0.30933 0.99011 0.0
H388 H 0.58562 0.31095 0.9777 0.0
H389 H 0.55402 0.12563 0.02362 0.0
H390 H 0.5214 0.12696 0.04564 0.0
H391 H 0.58616 0.16843 0.04323 0.0
C392 C 0.27765 0.52163 0.33291 0.0
C393 C 0.27592 0.49159 0.34875 0.0
C394 C 0.3215 0.56359 0.32764 0.0
C395 C 0.36493 0.57509 0.33813 0.0
C396 C 0.36377 0.54394 0.35368 0.0
C397 C 0.31907 0.50285 0.359 0.0
C398 C 0.32101 0.59648 0.31128 0.0
C399 C 0.40958 0.55439 0.36485 0.0
C400 C 0.48282 0.6673 0.31246 0.0
C401 C 0.49418 0.7103 0.32283 0.0
C402 C 0.44184 0.62252 0.31779 0.0
C403 C 0.41089 0.62112 0.33347 0.0
C404 C 0.42249 0.66439 0.34409 0.0
C405 C 0.46434 0.70833 0.3388 0.0
C406 C 0.43128 0.57688 0.30647 0.0
C407 C 0.38983 0.66462 0.3606 0.0
H408 H 0.2443 0.51324 0.32503 0.0
H409 H 0.31791 0.47945 0.37115 0.0
H410 H 0.33262 0.63321 0.31755 0.0
H411 H 0.3474 0.60121 0.2993 0.0
H412 H 0.28429 0.58193 0.30439 0.0
H413 H 0.40318 0.52454 0.37541 0.0
H414 H 0.43857 0.55959 0.35407 0.0
H415 H 0.42356 0.58878 0.37352 0.0
H416 H 0.50606 0.66863 0.30022 0.0
H417 H 0.47281 0.74155 0.34678 0.0
H418 H 0.39674 0.56297 0.2979 0.0
H419 H 0.42626 0.54779 0.31716 0.0
H420 H 0.46099 0.58344 0.29581 0.0
H421 H 0.35298 0.65308 0.35444 0.0
H422 H 0.40446 0.70122 0.36759 0.0
H423 H 0.38529 0.63808 0.37248 0.0
C424 C 0.7429 0.27282 0.66643 0.0
C425 C 0.77132 0.27272 0.6826 0.0
C426 C 0.74395 0.31587 0.66045 0.0
C427 C 0.77503 0.36014 0.67059 0.0
C428 C 0.80482 0.36056 0.68658 0.0
C429 C 0.80215 0.31668 0.69257 0.0
C430 C 0.71083 0.3137 0.64362 0.0
C431 C 0.83917 0.40726 0.69746 0.0
C432 C 0.80226 0.47716 0.64361 0.0
C433 C 0.77055 0.4893 0.65344 0.0
C434 C 0.8051 0.4359 0.64937 0.0
C435 C 0.77462 0.40549 0.66499 0.0
C436 C 0.74247 0.41756 0.67492 0.0
C437 C 0.74124 0.4596 0.66918 0.0
C438 C 0.84058 0.42475 0.63874 0.0
C439 C 0.70861 0.3855 0.69134 0.0
H440 H 0.71876 0.23889 0.65875 0.0
H441 H 0.82448 0.31684 0.70497 0.0
H442 H 0.68517 0.32529 0.64927 0.0
H443 H 0.73267 0.33935 0.63145 0.0
H444 H 0.68923 0.27647 0.63713 0.0
H445 H 0.86212 0.40195 0.70869 0.0
H446 H 0.86348 0.43554 0.68653 0.0
H447 H 0.81796 0.42156 0.70531 0.0
H448 H 0.82523 0.50022 0.63153 0.0
H449 H 0.7164 0.46861 0.67674 0.0
H450 H 0.82034 0.38924 0.6308 0.0
H451 H 0.86492 0.42136 0.64984 0.0
H452 H 0.86349 0.45338 0.62763 0.0
H453 H 0.68413 0.34821 0.68541 0.0
H454 H 0.68573 0.4 0.69752 0.0
H455 H 0.73004 0.38208 0.70378 0.0
C456 C 0.32256 0.81258 0.97908 0.0
C457 C 0.27955 0.78344 0.98994 0.0
C458 C 0.36669 0.81501 0.98453 0.0
C459 C 0.36739 0.78666 1.00086 0.0
C460 C 0.32412 0.75743 0.01193 0.0
C461 C 0.28088 0.75663 0.00647 0.0
C462 C 0.41239 0.84745 0.97267 0.0
C463 C 0.3231 0.72584 0.02916 0.0
C464 C 0.46412 0.74912 1.0017 0.0
C465 C 0.49556 0.7792 0.01687 0.0
C466 C 0.4225 0.75148 0.99625 0.0
C467 C 0.4127 0.78558 0.00588 0.0
C468 C 0.44501 0.81698 0.02085 0.0
C469 C 0.48577 0.81297 0.02636 0.0
C470 C 0.38835 0.7166 0.98054 0.0
C471 C 0.43632 0.85453 0.03112 0.0
H472 H 0.32177 0.83364 0.96638 0.0
H473 H 0.24766 0.73378 0.01483 0.0
H474 H 0.44217 0.87233 0.98295 0.0
H475 H 0.42501 0.82483 0.96482 0.0
H476 H 0.40646 0.86975 0.96133 0.0
H477 H 0.28658 0.70568 0.03639 0.0
H478 H 0.33324 0.69896 0.02368 0.0
H479 H 0.35034 0.74858 0.04072 0.0
H480 H 0.47137 0.72274 0.9944 0.0
H481 H 0.51024 0.83658 0.03798 0.0
H482 H 0.3842 0.73724 0.96796 0.0
H483 H 0.35155 0.69335 0.98716 0.0
H484 H 0.40143 0.69252 0.97439 0.0
H485 H 0.43222 0.87791 0.01974 0.0
H486 H 0.46654 0.87826 0.04149 0.0
H487 H 0.4018 0.83601 0.03982 0.0
C488 C 0.52237 0.28077 0.34068 0.0
C489 C 0.49199 0.27852 0.32486 0.0
C490 C 0.56448 0.32478 0.34568 0.0
C491 C 0.57582 0.36781 0.33492 0.0
C492 C 0.5443 0.36615 0.31943 0.0
C493 C 0.50304 0.32132 0.3144 0.0
C494 C 0.59773 0.32486 0.36201 0.0
C495 C 0.55459 0.41153 0.30797 0.0
C496 C 0.66903 0.48701 0.35945 0.0
C497 C 0.71163 0.49783 0.34887 0.0
C498 C 0.62407 0.44566 0.35461 0.0
C499 C 0.6221 0.41384 0.3392 0.0
C500 C 0.66497 0.42485 0.32839 0.0
C501 C 0.70909 0.46704 0.33319 0.0
C502 C 0.57886 0.43572 0.36612 0.0
C503 C 0.66457 0.39128 0.31215 0.0
H504 H 0.51413 0.24771 0.34873 0.0
H505 H 0.47939 0.31978 0.30228 0.0
H506 H 0.63422 0.33587 0.35561 0.0
H507 H 0.60304 0.35192 0.37377 0.0
H508 H 0.58315 0.28848 0.36921 0.0
H509 H 0.52443 0.40483 0.29753 0.0
H510 H 0.56029 0.44101 0.31858 0.0
H511 H 0.58869 0.42499 0.29914 0.0
H512 H 0.67081 0.51097 0.37148 0.0
H513 H 0.742 0.47509 0.32506 0.0
H514 H 0.56509 0.4015 0.37489 0.0
H515 H 0.54945 0.43043 0.35554 0.0
H516 H 0.58589 0.46586 0.37662 0.0
H517 H 0.653 0.35471 0.3186 0.0
H518 H 0.70098 0.40538 0.30503 0.0
H519 H 0.63776 0.38631 0.30031 0.0
C520 C 0.18613 0.50512 0.64569 0.0
C521 C 0.21811 0.49316 0.65543 0.0
C522 C 0.18285 0.54602 0.65165 0.0
C523 C 0.21315 0.57624 0.66735 0.0
C524 C 0.24538 0.56421 0.67725 0.0
C525 C 0.24706 0.52252 0.67132 0.0
C526 C 0.1473 0.55713 0.64103 0.0
C527 C 0.27907 0.59608 0.69375 0.0
C528 C 0.24549 0.70904 0.66847 0.0
C529 C 0.21709 0.70953 0.68456 0.0
C530 C 0.24424 0.66582 0.66264 0.0
C531 C 0.21299 0.62175 0.67286 0.0
C532 C 0.18326 0.6217 0.68878 0.0
C533 C 0.18612 0.66577 0.69462 0.0
C534 C 0.27729 0.66761 0.64587 0.0
C535 C 0.14875 0.5752 0.69974 0.0
H536 H 0.1634 0.48229 0.63351 0.0
H537 H 0.27207 0.51362 0.67882 0.0
H538 H 0.12327 0.56095 0.65215 0.0
H539 H 0.16754 0.59241 0.63294 0.0
H540 H 0.12408 0.52828 0.63006 0.0
H541 H 0.30157 0.5813 0.70008 0.0
H542 H 0.3039 0.6333 0.68784 0.0
H543 H 0.25757 0.59978 0.70609 0.0
H544 H 0.26976 0.74281 0.66072 0.0
H545 H 0.16384 0.66592 0.70697 0.0
H546 H 0.25536 0.64201 0.6337 0.0
H547 H 0.3027 0.65574 0.65159 0.0
H548 H 0.29918 0.70478 0.63936 0.0
H549 H 0.1243 0.54688 0.68885 0.0
H550 H 0.12595 0.58081 0.71093 0.0
H551 H 0.16981 0.56078 0.70764 0.0
C552 C 0.43682 0.2629 0.13196 0.0
C553 C 0.40209 0.22665 0.11929 0.0
C554 C 0.43132 0.25933 0.15291 0.0
C555 C 0.39023 0.21839 0.16144 0.0
C556 C 0.35542 0.18129 0.14878 0.0
C557 C 0.36171 0.18589 0.12785 0.0
C558 C 0.46925 0.29963 0.16592 0.0
C559 C 0.31132 0.1369 0.15734 0.0
C560 C 0.39868 0.18721 0.21581 0.0
C561 C 0.37235 0.20583 0.22581 0.0
C562 C 0.40463 0.19096 0.1949 0.0
C563 C 0.38401 0.21414 0.18365 0.0
C564 C 0.35767 0.23334 0.19361 0.0
C565 C 0.35203 0.22884 0.21459 0.0
C566 C 0.43283 0.16988 0.18482 0.0
C567 C 0.33543 0.25859 0.1821 0.0
H568 H 0.46805 0.29462 0.1255 0.0
H569 H 0.33468 0.15773 0.11819 0.0
H570 H 0.45182 0.31596 0.17513 0.0
H571 H 0.48552 0.2845 0.17646 0.0
H572 H 0.49908 0.32904 0.15694 0.0
H573 H 0.28788 0.11109 0.14547 0.0
H574 H 0.32315 0.11733 0.16772 0.0
H575 H 0.28902 0.14832 0.16622 0.0
H576 H 0.41445 0.16923 0.22431 0.0
H577 H 0.3317 0.24336 0.22218 0.0
H578 H 0.46452 0.19897 0.17656 0.0
H579 H 0.40926 0.14188 0.17366 0.0
H580 H 0.44643 0.15283 0.19573 0.0
H581 H 0.3643 0.29016 0.17369 0.0
H582 H 0.31636 0.27185 0.19209 0.0
H583 H 0.3089 0.23315 0.1709 0.0
C584 C 0.18087 0.3999 0.45817 0.0
C585 C 0.20598 0.37972 0.44832 0.0
C586 C 0.18335 0.40587 0.47909 0.0
C587 C 0.21177 0.39149 0.49051 0.0
C588 C 0.23747 0.37136 0.48071 0.0
C589 C 0.23421 0.36563 0.45972 0.0
C590 C 0.15536 0.42741 0.48897 0.0
C591 C 0.26829 0.35576 0.49242 0.0
C592 C 0.25355 0.44633 0.54252 0.0
C593 C 0.2201 0.40848 0.55495 0.0
C594 C 0.25114 0.44137 0.52153 0.0
C595 C 0.21444 0.39746 0.51274 0.0
C596 C 0.18007 0.35941 0.52517 0.0
C597 C 0.18325 0.3654 0.54612 0.0
C598 C 0.28825 0.4829 0.50876 0.0
C599 C 0.14031 0.31211 0.51634 0.0
H600 H 0.15887 0.41088 0.44953 0.0
H601 H 0.25375 0.35008 0.45225 0.0
H602 H 0.12886 0.40105 0.49994 0.0
H603 H 0.1808 0.46083 0.49744 0.0
H604 H 0.13511 0.43695 0.47792 0.0
H605 H 0.28628 0.34109 0.48255 0.0
H606 H 0.29691 0.38724 0.50096 0.0
H607 H 0.24526 0.32728 0.50352 0.0
H608 H 0.28217 0.47974 0.54919 0.0
H609 H 0.15733 0.3359 0.5556 0.0
H610 H 0.2694 0.49484 0.49804 0.0
H611 H 0.30947 0.47041 0.49975 0.0
H612 H 0.31413 0.51486 0.51792 0.0
H613 H 0.11761 0.31953 0.50579 0.0
H614 H 0.11614 0.28629 0.52805 0.0
H615 H 0.15684 0.29415 0.5076 0.0
C616 C 0.75877 0.13199 0.87845 0.0
C617 C 0.77729 0.17443 0.89018 0.0
C618 C 0.75561 0.13408 0.85745 0.0
C619 C 0.77171 0.17975 0.84795 0.0
C620 C 0.79007 0.22263 0.85972 0.0
C621 C 0.79245 0.21943 0.88066 0.0
C622 C 0.73539 0.0875 0.84539 0.0
C623 C 0.80783 0.27202 0.85015 0.0
C624 C 0.80668 0.19106 0.79275 0.0
C625 C 0.76484 0.18653 0.78339 0.0
C626 C 0.80961 0.1894 0.81377 0.0
C627 C 0.76963 0.18276 0.82569 0.0
C628 C 0.72761 0.17891 0.81635 0.0
C629 C 0.72579 0.18102 0.79533 0.0
C630 C 0.85524 0.19415 0.82321 0.0
C631 C 0.68419 0.17168 0.82854 0.0
H632 H 0.74691 0.09709 0.88566 0.0
H633 H 0.80698 0.2525 0.88957 0.0
H634 H 0.70379 0.08246 0.83628 0.0
H635 H 0.76355 0.08982 0.83479 0.0
H636 H 0.72342 0.05483 0.85507 0.0
H637 H 0.82078 0.30182 0.86144 0.0
H638 H 0.83823 0.28029 0.83964 0.0
H639 H 0.77803 0.27176 0.84124 0.0
H640 H 0.83702 0.19536 0.78365 0.0
H641 H 0.69321 0.17728 0.78824 0.0
H642 H 0.84606 0.1605 0.83176 0.0
H643 H 0.87093 0.22496 0.83404 0.0
H644 H 0.88356 0.20034 0.81187 0.0
H645 H 0.66939 0.13739 0.83735 0.0
H646 H 0.65448 0.16984 0.81899 0.0
H647 H 0.69561 0.20205 0.83943 0.0
C648 C 0.55013 0.73856 0.12838 0.0
C649 C 0.58418 0.77629 0.11606 0.0
C650 C 0.55563 0.74067 0.14934 0.0
C651 C 0.59596 0.78167 0.15824 0.0
C652 C 0.62999 0.82033 0.14594 0.0
C653 C 0.62377 0.81712 0.12498 0.0
C654 C 0.51862 0.69867 0.16194 0.0
C655 C 0.67319 0.86487 0.1549 0.0
C656 C 0.58618 0.80694 0.21329 0.0
C657 C 0.61394 0.78905 0.22264 0.0
C658 C 0.58027 0.80497 0.19236 0.0
C659 C 0.60229 0.78423 0.18045 0.0
C660 C 0.63 0.76569 0.18977 0.0
C661 C 0.63567 0.7685 0.21076 0.0
C662 C 0.55068 0.82537 0.183 0.0
C663 C 0.65365 0.74291 0.17755 0.0
H664 H 0.51953 0.70675 0.12164 0.0
H665 H 0.65025 0.84642 0.11558 0.0
H666 H 0.53707 0.68259 0.17066 0.0
H667 H 0.50155 0.71199 0.17292 0.0
H668 H 0.4893 0.66944 0.1527 0.0
H669 H 0.69586 0.89212 0.1433 0.0
H670 H 0.6604 0.88259 0.16581 0.0
H671 H 0.69655 0.85393 0.16328 0.0
H672 H 0.56938 0.82309 0.2223 0.0
H673 H 0.6571 0.75455 0.21786 0.0
H674 H 0.51946 0.79634 0.17449 0.0
H675 H 0.57354 0.85464 0.17215 0.0
H676 H 0.53624 0.84061 0.19437 0.0
H677 H 0.62546 0.71161 0.16878 0.0
H678 H 0.67364 0.7298 0.18707 0.0
H679 H 0.67967 0.76987 0.16662 0.0
C680 C 0.80538 0.62236 0.54504 0.0
C681 C 0.76954 0.5784 0.55366 0.0
C682 C 0.80827 0.62914 0.52413 0.0
C683 C 0.77471 0.59096 0.51152 0.0
C684 C 0.73905 0.54618 0.5201 0.0
C685 C 0.73684 0.54047 0.54105 0.0
C686 C 0.84684 0.67739 0.51553 0.0
C687 C 0.70291 0.50446 0.50714 0.0
C688 C 0.7531 0.62267 0.45875 0.0
C689 C 0.78257 0.61049 0.4472 0.0
C690 C 0.75012 0.61646 0.47972 0.0
C691 C 0.77726 0.59766 0.48934 0.0
C692 C 0.80696 0.58523 0.47776 0.0
C693 C 0.80925 0.59177 0.45688 0.0
C694 C 0.71801 0.63009 0.4916 0.0
C695 C 0.83641 0.56503 0.48744 0.0
H696 H 0.83068 0.65194 0.55465 0.0
H697 H 0.70902 0.50638 0.54757 0.0
H698 H 0.87041 0.67147 0.5049 0.0
H699 H 0.82922 0.6945 0.50693 0.0
H700 H 0.87034 0.70331 0.52737 0.0
H701 H 0.6778 0.47181 0.51613 0.0
H702 H 0.68078 0.51613 0.49828 0.0
H703 H 0.72263 0.4939 0.49628 0.0
H704 H 0.73237 0.63711 0.45142 0.0
H705 H 0.83217 0.58221 0.44813 0.0
H706 H 0.74027 0.65844 0.50288 0.0
H707 H 0.69 0.59779 0.49995 0.0
H708 H 0.6992 0.64416 0.48188 0.0
H709 H 0.86226 0.59155 0.49854 0.0
H710 H 0.85755 0.55696 0.47628 0.0
H711 H 0.81181 0.53096 0.49571 0.0
C712 C 0.17522 0.7765 0.88093 0.0
C713 C 0.21851 0.80886 0.89107 0.0
C714 C 0.17422 0.77155 0.85998 0.0
C715 C 0.2174 0.80014 0.84879 0.0
C716 C 0.26119 0.83311 0.85888 0.0
C717 C 0.26131 0.83684 0.87993 0.0
C718 C 0.12696 0.73554 0.84982 0.0
C719 C 0.30782 0.86465 0.8474 0.0
C720 C 0.22742 0.75986 0.79601 0.0
C721 C 0.21506 0.78878 0.78419 0.0
C722 C 0.22772 0.76268 0.81708 0.0
C723 C 0.21643 0.79599 0.8265 0.0
C724 C 0.20376 0.82515 0.81463 0.0
C725 C 0.20272 0.82081 0.79363 0.0
C726 C 0.2403 0.73018 0.82926 0.0
C727 C 0.19215 0.86158 0.82409 0.0
H728 H 0.142 0.7544 0.88941 0.0
H729 H 0.29486 0.86192 0.88764 0.0
H730 H 0.11549 0.75498 0.83921 0.0
H731 H 0.13234 0.70894 0.84092 0.0
H732 H 0.09691 0.71511 0.86074 0.0
H733 H 0.33868 0.88868 0.85746 0.0
H734 H 0.31821 0.84133 0.83868 0.0
H735 H 0.30207 0.88781 0.83648 0.0
H736 H 0.23688 0.73498 0.78879 0.0
H737 H 0.19363 0.84366 0.78458 0.0
H738 H 0.21026 0.70793 0.83992 0.0
H739 H 0.27361 0.75283 0.83833 0.0
H740 H 0.24675 0.7052 0.81967 0.0
H741 H 0.16052 0.84262 0.83439 0.0
H742 H 0.18355 0.88192 0.81272 0.0
H743 H 0.22368 0.88825 0.83321 0.0
C744 C 0.57977 0.59317 0.04367 0.0
C745 C 0.57332 0.62812 0.05394 0.0
C746 C 0.55064 0.54347 0.04811 0.0
C747 C 0.51371 0.52859 0.06292 0.0
C748 C 0.51031 0.56398 0.07469 0.0
C749 C 0.54055 0.61359 0.07014 0.0
C750 C 0.55646 0.50677 0.03565 0.0
C751 C 0.47175 0.54962 0.09072 0.0
C752 C 0.40611 0.41054 0.04574 0.0
C753 C 0.41407 0.37655 0.05602 0.0
C754 C 0.43558 0.46059 0.04942 0.0
C755 C 0.47437 0.47677 0.06344 0.0
C756 C 0.47939 0.44244 0.0753 0.0
C757 C 0.44878 0.39246 0.07154 0.0
C758 C 0.42803 0.49616 0.03693 0.0
C759 C 0.51998 0.45822 0.0905 0.0
H760 H 0.60569 0.60442 0.03137 0.0
H761 H 0.53561 0.64055 0.07823 0.0
H762 H 0.55619 0.47817 0.04539 0.0
H763 H 0.5253 0.48845 0.02504 0.0
H764 H 0.59088 0.5242 0.0268 0.0
H765 H 0.48123 0.57996 0.10147 0.0
H766 H 0.43643 0.54017 0.08351 0.0
H767 H 0.46639 0.51707 0.09917 0.0
H768 H 0.37873 0.39821 0.03398 0.0
H769 H 0.45491 0.36622 0.07961 0.0
H770 H 0.4577 0.51352 0.02562 0.0
H771 H 0.42958 0.52561 0.0465 0.0
H772 H 0.39247 0.47795 0.02887 0.0
H773 H 0.55436 0.46716 0.08258 0.0
H774 H 0.51199 0.42881 0.10156 0.0
H775 H 0.52628 0.49142 0.0987 0.0
C776 C 0.98463 0.58038 0.37076 0.0
C777 C 0.94329 0.57192 0.38166 0.0
C778 C 0.00715 0.55269 0.3744 0.0
C779 C 0.98712 0.51514 0.38903 0.0
C780 C 0.94791 0.50918 0.40122 0.0
C781 C 0.92661 0.53806 0.39749 0.0
C782 C 0.04996 0.56107 0.36149 0.0
C783 C 0.9256 0.46956 0.41695 0.0
C784 C 0.00408 0.41116 0.37207 0.0
C785 C 0.04613 0.42069 0.38271 0.0
C786 C 0.98182 0.43924 0.37534 0.0
C787 C 0.00285 0.47826 0.38929 0.0
C788 C 0.04286 0.48544 0.40126 0.0
C789 C 0.06389 0.45617 0.39793 0.0
C790 C 0.93816 0.42956 0.36271 0.0
C791 C 0.06623 0.52665 0.41627 0.0
H792 H -0.00202 0.60707 0.35872 0.0
H793 H 0.89463 0.53148 0.406 0.0
H794 H 0.07954 0.56227 0.37089 0.0
H795 H 0.03812 0.53032 0.35075 0.0
H796 H 0.06504 0.59558 0.35277 0.0
H797 H 0.90256 0.47605 0.4277 0.0
H798 H 0.90227 0.43391 0.40945 0.0
H799 H 0.95423 0.46668 0.42546 0.0
H800 H 0.98993 0.38325 0.36051 0.0
H801 H 0.09643 0.46359 0.40622 0.0
H802 H 0.94926 0.45919 0.35146 0.0
H803 H 0.90922 0.42932 0.37221 0.0
H804 H 0.92251 0.39419 0.35458 0.0
H805 H 0.08902 0.56149 0.40814 0.0
H806 H 0.09 0.52128 0.42704 0.0
H807 H 0.03818 0.53042 0.42483 0.0
C808 C 0.60572 0.05923 0.73636 0.0
C809 C 0.62259 0.04273 0.72036 0.0
C810 C 0.55561 0.03731 0.74049 0.0
C811 C 0.52212 -0.00225 0.72848 0.0
C812 C 0.5395 0.97767 0.71382 0.0
C813 C 0.58962 0.00071 0.70982 0.0
C814 C 0.53854 0.05947 0.75636 0.0
C815 C 0.50493 0.93452 0.70108 0.0
C816 C 0.38595 0.9206 0.73645 0.0
C817 C 0.36887 0.93848 0.72103 0.0
C818 C 0.43615 0.94196 0.74031 0.0
C819 C 0.4695 0.98231 0.72863 0.0
C820 C 0.45196 0.00357 0.71456 0.0
C821 C 0.40177 0.98108 0.71081 0.0
C822 C 0.4534 0.9185 0.75553 0.0
C823 C 0.4864 0.04755 0.7022 0.0
H824 H 0.63115 0.09159 0.74466 0.0
H825 H 0.6027 0.98739 0.69768 0.0
H826 H 0.52686 0.08348 0.74902 0.0
H827 H 0.50671 0.03085 0.76473 0.0
H828 H 0.56813 0.08186 0.76722 0.0
H829 H 0.52433 0.9194 0.69238 0.0
H830 H 0.4768 0.90509 0.7106 0.0
H831 H 0.48573 0.94602 0.69034 0.0
H832 H 0.36054 0.88768 0.74446 0.0
H833 H 0.38851 -0.00461 0.69911 0.0
H834 H 0.48551 0.9464 0.764 0.0
H835 H 0.46472 0.8949 0.74759 0.0
H836 H 0.42403 0.89545 0.76635 0.0
H837 H 0.51468 0.07631 0.71191 0.0
H838 H 0.46693 0.0633 0.69395 0.0
H839 H 0.50543 0.03677 0.69107 0.0
C840 C 0.58835 0.57868 0.62743 0.0
C841 C 0.62182 0.5702 0.617 0.0
C842 C 0.53823 0.55045 0.62356 0.0
C843 C 0.52141 0.51241 0.60917 0.0
C844 C 0.55532 0.5069 0.59723 0.0
C845 C 0.6054 0.53624 0.60121 0.0
C846 C 0.50317 0.55846 0.6362 0.0
C847 C 0.53884 0.4671 0.58163 0.0
C848 C 0.40287 0.40772 0.62775 0.0
C849 C 0.36896 0.41597 0.61754 0.0
C850 C 0.45285 0.43615 0.62369 0.0
C851 C 0.46913 0.47418 0.60931 0.0
C852 C 0.43478 0.47956 0.59761 0.0
C853 C 0.38483 0.45002 0.60178 0.0
C854 C 0.48839 0.4283 0.63608 0.0
C855 C 0.45065 0.51936 0.58204 0.0
H856 H 0.60108 0.60551 0.63941 0.0
H857 H 0.63123 0.52972 0.59301 0.0
H858 H 0.47441 0.55849 0.62666 0.0
H859 H 0.48482 0.52816 0.64718 0.0
H860 H 0.52202 0.59344 0.64465 0.0
H861 H 0.56837 0.47473 0.57069 0.0
H862 H 0.52843 0.43196 0.58922 0.0
H863 H 0.50634 0.46247 0.57334 0.0
H864 H 0.39056 0.38084 0.6397 0.0
H865 H 0.35867 0.45638 0.59375 0.0
H866 H 0.50712 0.4587 0.64699 0.0
H867 H 0.51682 0.42821 0.62634 0.0
H868 H 0.46988 0.39339 0.64458 0.0
H869 H 0.46114 0.55445 0.58967 0.0
H870 H 0.42079 0.51161 0.57125 0.0
H871 H 0.48297 0.52414 0.57356 0.0
C872 C 0.06236 0.61079 0.94112 0.0
C873 C 0.04703 0.62911 0.957 0.0
C874 C 0.03931 0.56046 0.93741 0.0
C875 C -0.00023 0.5282 0.94971 0.0
C876 C 0.9813 0.54698 0.96448 0.0
C877 C 0.0055 0.5973 0.96807 0.0
C878 C 0.05998 0.54178 0.92153 0.0
C879 C 0.93828 0.51368 0.97754 0.0
C880 C 0.9182 0.39299 0.94072 0.0
C881 C 0.93514 0.37389 0.9557 0.0
C882 C 0.94098 0.4435 0.93749 0.0
C883 C 0.98188 0.47511 0.94934 0.0
C884 C 0.00188 0.45559 0.96306 0.0
C885 C 0.97795 0.40511 0.96621 0.0
C886 C 0.91871 0.463 0.9227 0.0
C887 C 0.04635 0.48819 0.97559 0.0
H888 H 0.09447 0.63534 0.93248 0.0
H889 H -0.00681 0.61152 0.98015 0.0
H890 H 0.08213 0.52787 0.92889 0.0
H891 H 0.03038 0.51106 0.91302 0.0
H892 H 0.08379 0.57099 0.9108 0.0
H893 H 0.92473 0.5342 0.98646 0.0
H894 H 0.90782 0.48614 0.96822 0.0
H895 H 0.94921 0.49369 0.9881 0.0
H896 H 0.88509 0.36888 0.93252 0.0
H897 H 0.99148 0.39028 0.97759 0.0
H898 H 0.9474 0.49409 0.91403 0.0
H899 H 0.8975 0.47663 0.93103 0.0
H900 H 0.89365 0.43434 0.91203 0.0
H901 H 0.07576 0.51624 0.96603 0.0
H902 H 0.06084 0.46722 0.98356 0.0
H903 H 0.03665 0.5076 0.98695 0.0
C904 C 0.53132 0.92431 0.27346 0.0
C905 C 0.56646 0.94121 0.28881 0.0
C906 C 0.50283 0.94622 0.27009 0.0
C907 C 0.51046 0.9862 0.28217 0.0
C908 C 0.54922 0.00634 0.29627 0.0
C909 C 0.57652 0.98325 0.29956 0.0
C910 C 0.46193 0.92383 0.2549 0.0
C911 C 0.55935 0.04989 0.30906 0.0
C912 C 0.45277 0.06451 0.27434 0.0
C913 C 0.4186 0.04774 0.29005 0.0
C914 C 0.48102 0.04257 0.27048 0.0
C915 C 0.47414 0.00268 0.28245 0.0
C916 C 0.43629 0.98267 0.29695 0.0
C917 C 0.40921 0.00579 0.3007 0.0
C918 C 0.52095 0.06482 0.25489 0.0
C919 C 0.42696 0.93922 0.30963 0.0
H920 H 0.52351 0.89179 0.26508 0.0
H921 H 0.60421 -0.00325 0.31122 0.0
H922 H 0.42679 0.9012 0.26286 0.0
H923 H 0.45888 0.95243 0.24645 0.0
H924 H 0.46712 0.9001 0.24406 0.0
H925 H 0.59451 0.0648 0.31732 0.0
H926 H 0.56035 0.07933 0.29965 0.0
H927 H 0.52954 0.03895 0.3202 0.0
H928 H 0.46005 0.09696 0.26602 0.0
H929 H 0.38227 0.99238 0.31264 0.0
H930 H 0.52341 0.03615 0.24624 0.0
H931 H 0.55658 0.08748 0.26251 0.0
H932 H 0.51511 0.08851 0.24425 0.0
H933 H 0.42535 0.9097 0.30008 0.0
H934 H 0.39233 0.92437 0.31827 0.0
H935 H 0.45747 0.95023 0.32044 0.0
loop_
_geom_bond_atom_site_label_1
_geom_bond_atom_site_label_2
_geom_bond_distance
_geom_bond_site_symmetry_2
_ccdc_geom_bond_type
Zn0 O3 2.031 . S
Zn0 O5 2.049 . S
Zn0 O10 2.067 . S
Zn1 O2 1.962 . S
Zn1 O4 1.986 . S
Zn1 O6 1.996 . S
Zn1 O9 1.943 . S
O2 Zn1 1.962 . S
O2 C7 1.254 . S
O3 Zn0 2.031 . S
O3 C7 1.269 . S
O4 Zn1 1.986 . S
O4 C11 1.262 . S
O5 Zn0 2.049 . S
O5 C13 1.260 . S
O6 Zn1 1.996 . S
O6 C13 1.257 . S
C7 O2 1.254 . S
C7 O3 1.269 . S
C8 O9 1.249 . S
C8 O10 1.270 . S
O9 Zn1 1.943 . S
O9 C8 1.249 . S
O10 Zn0 2.067 . S
O10 C8 1.270 . S
C11 O4 1.262 . S
C11 O12 1.232 . S
O12 C11 1.232 . S
C13 O5 1.260 . S
C13 O6 1.257 . S
Zn14 O17 2.031 . S
Zn14 O19 2.049 . S
Zn14 O24 2.067 . S
Zn15 O16 1.962 . S
Zn15 O18 1.986 . S
Zn15 O20 1.996 . S
Zn15 O23 1.943 . S
O16 Zn15 1.962 . S
O16 C21 1.254 . S
O17 Zn14 2.031 . S
O17 C21 1.269 . S
O18 Zn15 1.986 . S
O18 C25 1.262 . S
O19 Zn14 2.049 . S
O19 C27 1.260 . S
O20 Zn15 1.996 . S
O20 C27 1.257 . S
C21 O16 1.254 . S
C21 O17 1.269 . S
C22 O23 1.249 . S
C22 O24 1.270 . S
O23 Zn15 1.943 . S
O23 C22 1.249 . S
O24 Zn14 2.067 . S
O24 C22 1.270 . S
C25 O18 1.262 . S
C25 O26 1.232 . S
O26 C25 1.232 . S
C27 O19 1.260 . S
C27 O20 1.257 . S
Zn28 O31 2.031 . S
Zn28 O33 2.049 . S
Zn28 O38 2.067 . S
Zn29 O30 1.962 . S
Zn29 O32 1.986 . S
Zn29 O34 1.996 . S
Zn29 O37 1.943 . S
O30 Zn29 1.962 . S
O30 C35 1.254 . S
O31 Zn28 2.031 . S
O31 C35 1.269 . S
O32 Zn29 1.986 . S
O32 C39 1.262 . S
O33 Zn28 2.049 . S
O33 C41 1.260 . S
O34 Zn29 1.996 . S
O34 C41 1.257 . S
C35 O30 1.254 . S
C35 O31 1.269 . S
C36 O37 1.249 . S
C36 O38 1.270 . S
O37 Zn29 1.943 . S
O37 C36 1.249 . S
O38 Zn28 2.067 . S
O38 C36 1.270 . S
C39 O32 1.262 . S
C39 O40 1.232 . S
O40 C39 1.232 . S
C41 O33 1.260 . S
C41 O34 1.257 . S
Zn42 O45 2.031 . S
Zn42 O47 2.049 . S
Zn42 O52 2.067 . S
Zn43 O44 1.962 . S
Zn43 O46 1.986 . S
Zn43 O48 1.996 . S
Zn43 O51 1.943 . S
O44 Zn43 1.962 . S
O44 C49 1.254 . S
O45 Zn42 2.031 . S
O45 C49 1.269 . S
O46 Zn43 1.986 . S
O46 C53 1.262 . S
O47 Zn42 2.049 . S
O47 C55 1.260 . S
O48 Zn43 1.996 . S
O48 C55 1.257 . S
C49 O44 1.254 . S
C49 O45 1.269 . S
C50 O51 1.249 . S
C50 O52 1.270 . S
O51 Zn43 1.943 . S
O51 C50 1.249 . S
O52 Zn42 2.067 . S
O52 C50 1.270 . S
C53 O46 1.262 . S
C53 O54 1.232 . S
O54 C53 1.232 . S
C55 O47 1.260 . S
C55 O48 1.257 . S
Zn56 O59 2.031 . S
Zn56 O61 2.049 . S
Zn56 O66 2.067 . S
Zn57 O58 1.962 . S
Zn57 O60 1.986 . S
Zn57 O62 1.996 . S
Zn57 O65 1.943 . S
O58 Zn57 1.962 . S
O58 C63 1.254 . S
O59 Zn56 2.031 . S
O59 C63 1.269 . S
O60 Zn57 1.986 . S
O60 C67 1.262 . S
O61 Zn56 2.049 . S
O61 C69 1.260 . S
O62 Zn57 1.996 . S
O62 C69 1.257 . S
C63 O58 1.254 . S
C63 O59 1.269 . S
C64 O65 1.249 . S
C64 O66 1.270 . S
O65 Zn57 1.943 . S
O65 C64 1.249 . S
O66 Zn56 2.067 . S
O66 C64 1.270 . S
C67 O60 1.262 . S
C67 O68 1.232 . S
O68 C67 1.232 . S
C69 O61 1.260 . S
C69 O62 1.257 . S
Zn70 O73 2.031 . S
Zn70 O75 2.049 . S
Zn70 O80 2.067 . S
Zn71 O72 1.962 . S
Zn71 O74 1.986 . S
Zn71 O76 1.996 . S
Zn71 O79 1.943 . S
O72 Zn71 1.962 . S
O72 C77 1.254 . S
O73 Zn70 2.031 . S
O73 C77 1.269 . S
O74 Zn71 1.986 . S
O74 C81 1.262 . S
O75 Zn70 2.049 . S
O75 C83 1.260 . S
O76 Zn71 1.996 . S
O76 C83 1.257 . S
C77 O72 1.254 . S
C77 O73 1.269 . S
C78 O79 1.249 . S
C78 O80 1.270 . S
O79 Zn71 1.943 . S
O79 C78 1.249 . S
O80 Zn70 2.067 . S
O80 C78 1.270 . S
C81 O74 1.262 . S
C81 O82 1.232 . S
O82 C81 1.232 . S
C83 O75 1.260 . S
C83 O76 1.257 . S
Zn84 O87 2.031 . S
Zn84 O89 2.049 . S
Zn84 O94 2.067 . S
Zn85 O86 1.962 . S
Zn85 O88 1.986 . S
Zn85 O90 1.996 . S
Zn85 O93 1.943 . S
O86 Zn85 1.962 . S
O86 C91 1.254 . S
O87 Zn84 2.031 . S
O87 C91 1.269 . S
O88 Zn85 1.986 . S
O88 C95 1.262 . S
O89 Zn84 2.049 . S
O89 C97 1.260 . S
O90 Zn85 1.996 . S
O90 C97 1.257 . S
C91 O86 1.254 . S
C91 O87 1.269 . S
C92 O93 1.249 . S
C92 O94 1.270 . S
O93 Zn85 1.943 . S
O93 C92 1.249 . S
O94 Zn84 2.067 . S
O94 C92 1.270 . S
C95 O88 1.262 . S
C95 O96 1.232 . S
O96 C95 1.232 . S
C97 O89 1.260 . S
C97 O90 1.257 . S
Zn98 O101 2.031 . S
Zn98 O103 2.049 . S
Zn98 O108 2.067 . S
Zn99 O100 1.962 . S
Zn99 O102 1.986 . S
Zn99 O104 1.996 . S
Zn99 O107 1.943 . S
O100 Zn99 1.962 . S
O100 C105 1.254 . S
O101 Zn98 2.031 . S
O101 C105 1.269 . S
O102 Zn99 1.986 . S
O102 C109 1.262 . S
O103 Zn98 2.049 . S
O103 C111 1.260 . S
O104 Zn99 1.996 . S
O104 C111 1.257 . S
C105 O100 1.254 . S
C105 O101 1.269 . S
C106 O107 1.249 . S
C106 O108 1.270 . S
O107 Zn99 1.943 . S
O107 C106 1.249 . S
O108 Zn98 2.067 . S
O108 C106 1.270 . S
C109 O102 1.262 . S
C109 O110 1.232 . S
O110 C109 1.232 . S
C111 O103 1.260 . S
C111 O104 1.257 . S
Zn112 O115 2.031 . S
Zn112 O117 2.049 . S
Zn112 O122 2.067 . S
Zn113 O114 1.962 . S
Zn113 O116 1.986 . S
Zn113 O118 1.996 . S
Zn113 O121 1.943 . S
O114 Zn113 1.962 . S
O114 C119 1.254 . S
O115 Zn112 2.031 . S
O115 C119 1.269 . S
O116 Zn113 1.986 . S
O116 C123 1.262 . S
O117 Zn112 2.049 . S
O117 C125 1.260 . S
O118 Zn113 1.996 . S
O118 C125 1.257 . S
C119 O114 1.254 . S
C119 O115 1.269 . S
C120 O121 1.249 . S
C120 O122 1.270 . S
O121 Zn113 1.943 . S
O121 C120 1.249 . S
O122 Zn112 2.067 . S
O122 C120 1.270 . S
C123 O116 1.262 . S
C123 O124 1.232 . S
O124 C123 1.232 . S
C125 O117 1.260 . S
C125 O118 1.257 . S
Zn126 O129 2.031 . S
Zn126 O131 2.049 . S
Zn126 O136 2.067 . S
Zn127 O128 1.962 . S
Zn127 O130 1.986 . S
Zn127 O132 1.996 . S
Zn127 O135 1.943 . S
O128 Zn127 1.962 . S
O128 C133 1.254 . S
O129 Zn126 2.031 . S
O129 C133 1.269 . S
O130 Zn127 1.986 . S
O130 C137 1.262 . S
O131 Zn126 2.049 . S
O131 C139 1.260 . S
O132 Zn127 1.996 . S
O132 C139 1.257 . S
C133 O128 1.254 . S
C133 O129 1.269 . S
C134 O135 1.249 . S
C134 O136 1.270 . S
O135 Zn127 1.943 . S
O135 C134 1.249 . S
O136 Zn126 2.067 . S
O136 C134 1.270 . S
C137 O130 1.262 . S
C137 O138 1.232 . S
O138 C137 1.232 . S
C139 O131 1.260 . S
C139 O132 1.257 . S
Zn140 O143 2.031 . S
Zn140 O145 2.049 . S
Zn140 O150 2.067 . S
Zn141 O142 1.962 . S
Zn141 O144 1.986 . S
Zn141 O146 1.996 . S
Zn141 O149 1.943 . S
O142 Zn141 1.962 . S
O142 C147 1.254 . S
O143 Zn140 2.031 . S
O143 C147 1.269 . S
O144 Zn141 1.986 . S
O144 C151 1.262 . S
O145 Zn140 2.049 . S
O145 C153 1.260 . S
O146 Zn141 1.996 . S
O146 C153 1.257 . S
C147 O142 1.254 . S
C147 O143 1.269 . S
C148 O149 1.249 . S
C148 O150 1.270 . S
O149 Zn141 1.943 . S
O149 C148 1.249 . S
O150 Zn140 2.067 . S
O150 C148 1.270 . S
C151 O144 1.262 . S
C151 O152 1.232 . S
O152 C151 1.232 . S
C153 O145 1.260 . S
C153 O146 1.257 . S
Zn154 O157 2.031 . S
Zn154 O159 2.049 . S
Zn154 O164 2.067 . S
Zn155 O156 1.962 . S
Zn155 O158 1.986 . S
Zn155 O160 1.996 . S
Zn155 O163 1.943 . S
O156 Zn155 1.962 . S
O156 C161 1.254 . S
O157 Zn154 2.031 . S
O157 C161 1.269 . S
O158 Zn155 1.986 . S
O158 C165 1.262 . S
O159 Zn154 2.049 . S
O159 C167 1.260 . S
O160 Zn155 1.996 . S
O160 C167 1.257 . S
C161 O156 1.254 . S
C161 O157 1.269 . S
C162 O163 1.249 . S
C162 O164 1.270 . S
O163 Zn155 1.943 . S
O163 C162 1.249 . S
O164 Zn154 2.067 . S
O164 C162 1.270 . S
C165 O158 1.262 . S
C165 O166 1.232 . S
O166 C165 1.232 . S
C167 O159 1.260 . S
C167 O160 1.257 . S
C168 C169 1.414 . S
C168 C170 1.383 1_556 S
C168 H184 0.919 1_556 S
C169 C168 1.414 . S
C169 C173 1.376 . S
C170 C168 1.383 1_554 S
C170 C171 1.369 1_554 S
C170 C174 1.531 . S
C171 C170 1.369 1_556 S
C171 C172 1.410 . S
C171 C179 1.503 1_566 S
C172 C171 1.410 . S
C172 C173 1.392 . S
C172 C175 1.511 . S
C173 C169 1.376 . S
C173 C172 1.392 . S
C173 H185 0.929 . S
C174 C170 1.531 . S
C174 H186 0.960 . S
C174 H187 0.962 . S
C174 H188 0.960 . S
C175 C172 1.511 . S
C175 H189 0.961 . S
C175 H190 0.961 1_565 S
C175 H191 0.961 . S
C176 C177 1.370 . S
C176 C178 1.363 1_554 S
C176 H192 0.931 . S
C177 C176 1.370 . S
C177 C181 1.408 . S
C178 C176 1.363 1_556 S
C178 C179 1.370 1_556 S
C178 C182 1.524 . S
C179 C171 1.503 1_544 S
C179 C178 1.370 1_554 S
C179 C180 1.403 . S
C180 C179 1.403 . S
C180 C181 1.404 . S
C180 C183 1.539 . S
C181 C177 1.408 . S
C181 C180 1.404 . S
C181 H193 0.930 . S
C182 C178 1.524 . S
C182 H194 0.956 . S
C182 H195 0.961 . S
C182 H196 0.961 . S
C183 C180 1.539 . S
C183 H197 0.958 1_545 S
C183 H198 0.961 . S
C183 H199 0.960 1_545 S
H184 C168 0.919 1_554 S
H185 C173 0.929 . S
H186 C174 0.960 . S
H187 C174 0.962 . S
H188 C174 0.960 . S
H189 C175 0.961 . S
H190 C175 0.961 1_545 S
H191 C175 0.961 . S
H192 C176 0.931 . S
H193 C181 0.930 . S
H194 C182 0.956 . S
H195 C182 0.961 . S
H196 C182 0.961 . S
H197 C183 0.958 1_565 S
H198 C183 0.961 . S
H199 C183 0.960 1_565 S
C200 C201 1.391 . S
C200 C202 1.394 . S
C200 H216 0.931 . S
C201 C200 1.391 . S
C201 C205 1.376 . S
C202 C200 1.394 . S
C202 C203 1.369 . S
C202 C206 1.531 . S
C203 C202 1.369 . S
C203 C204 1.410 . S
C203 C211 1.503 . S
C204 C203 1.410 . S
C204 C205 1.392 . S
C204 C207 1.511 . S
C205 C201 1.376 . S
C205 C204 1.392 . S
C205 H217 0.929 . S
C206 C202 1.531 . S
C206 H218 0.960 . S
C206 H219 0.962 . S
C206 H220 0.960 . S
C207 C204 1.511 . S
C207 H221 0.961 . S
C207 H222 0.961 . S
C207 H223 0.961 . S
C208 C209 1.370 . S
C208 C210 1.363 . S
C208 H224 0.931 . S
C209 C208 1.370 . S
C209 C213 1.408 . S
C210 C208 1.363 . S
C210 C211 1.370 . S
C210 C214 1.524 . S
C211 C203 1.503 . S
C211 C210 1.370 . S
C211 C212 1.403 . S
C212 C211 1.403 . S
C212 C213 1.404 . S
C212 C215 1.539 . S
C213 C209 1.408 . S
C213 C212 1.404 . S
C213 H225 0.930 . S
C214 C210 1.524 . S
C214 H226 0.956 . S
C214 H227 0.961 . S
C214 H228 0.961 . S
C215 C212 1.539 . S
C215 H229 0.958 . S
C215 H230 0.961 . S
C215 H231 0.960 . S
H216 C200 0.931 . S
H217 C205 0.929 . S
H218 C206 0.960 . S
H219 C206 0.962 . S
H220 C206 0.960 . S
H221 C207 0.961 . S
H222 C207 0.961 . S
H223 C207 0.961 . S
H224 C208 0.931 . S
H225 C213 0.930 . S
H226 C214 0.956 . S
H227 C214 0.961 . S
H228 C214 0.961 . S
H229 C215 0.958 . S
H230 C215 0.961 . S
H231 C215 0.960 . S
C232 C233 1.391 . S
C232 C234 1.394 . S
C232 H248 0.931 . S
C233 C232 1.391 . S
C233 C237 1.376 . S
C234 C232 1.394 . S
C234 C235 1.369 . S
C234 C238 1.531 1_655 S
C235 C234 1.369 . S
C235 C236 1.410 . S
C235 C243 1.503 1_655 S
C236 C235 1.410 . S
C236 C237 1.392 . S
C236 C239 1.511 . S
C237 C233 1.376 . S
C237 C236 1.392 . S
C237 H249 0.929 . S
C238 C234 1.531 1_455 S
C238 H250 0.960 . S
C238 H251 0.962 . S
C238 H252 0.960 1_455 S
C239 C236 1.511 . S
C239 H253 0.961 . S
C239 H254 0.961 . S
C239 H255 0.961 . S
C240 C241 1.370 . S
C240 C242 1.363 . S
C240 H256 0.931 . S
C241 C240 1.370 . S
C241 C245 1.408 . S
C242 C240 1.363 . S
C242 C243 1.370 . S
C242 C246 1.524 . S
C243 C235 1.503 1_455 S
C243 C242 1.370 . S
C243 C244 1.403 . S
C244 C243 1.403 . S
C244 C245 1.404 . S
C244 C247 1.539 . S
C245 C241 1.408 . S
C245 C244 1.404 . S
C245 H257 0.930 . S
C246 C242 1.524 . S
C246 H258 0.956 . S
C246 H259 0.961 1_455 S
C246 H260 0.961 . S
C247 C244 1.539 . S
C247 H261 0.958 . S
C247 H262 0.961 . S
C247 H263 0.960 1_455 S
H248 C232 0.931 . S
H249 C237 0.929 . S
H250 C238 0.960 . S
H251 C238 0.962 . S
H252 C238 0.960 1_655 S
H253 C239 0.961 . S
H254 C239 0.961 . S
H255 C239 0.961 . S
H256 C240 0.931 . S
H257 C245 0.930 . S
H258 C246 0.956 . S
H259 C246 0.961 1_655 S
H260 C246 0.961 . S
H261 C247 0.958 . S
H262 C247 0.961 . S
H263 C247 0.960 1_655 S
C264 C265 1.391 . S
C264 C266 1.394 . S
C264 H280 0.931 . S
C265 C264 1.391 . S
C265 C269 1.376 . S
C266 C264 1.394 . S
C266 C267 1.369 . S
C266 C270 1.531 . S
C267 C266 1.369 . S
C267 C268 1.410 . S
C267 C275 1.503 1_564 S
C268 C267 1.410 . S
C268 C269 1.392 . S
C268 C271 1.511 1_554 S
C269 C265 1.376 . S
C269 C268 1.392 . S
C269 H281 0.929 . S
C270 C266 1.531 . S
C270 H282 0.960 1_565 S
C270 H283 0.962 . S
C270 H284 0.960 . S
C271 C268 1.511 1_556 S
C271 H285 0.961 . S
C271 H286 0.961 . S
C271 H287 0.961 1_556 S
C272 C273 1.370 . S
C272 C274 1.363 . S
C272 H288 0.931 . S
C273 C272 1.370 . S
C273 C277 1.375 1_556 S
C274 C272 1.363 . S
C274 C275 1.370 . S
C274 C278 1.524 1_545 S
C275 C267 1.503 1_546 S
C275 C274 1.370 . S
C275 C276 1.403 1_556 S
C276 C275 1.403 1_554 S
C276 C277 1.419 . S
C276 C279 1.539 . S
C277 C273 1.375 1_554 S
C277 C276 1.419 . S
C277 H289 0.948 . S
C278 C274 1.524 1_565 S
C278 H290 0.956 . S
C278 H291 0.961 . S
C278 H292 0.961 1_565 S
C279 C276 1.539 . S
C279 H293 0.958 . S
C279 H294 0.961 . S
C279 H295 0.960 . S
H280 C264 0.931 . S
H281 C269 0.929 . S
H282 C270 0.960 1_545 S
H283 C270 0.962 . S
H284 C270 0.960 . S
H285 C271 0.961 . S
H286 C271 0.961 . S
H287 C271 0.961 1_554 S
H288 C272 0.931 . S
H289 C277 0.948 . S
H290 C278 0.956 . S
H291 C278 0.961 . S
H292 C278 0.961 1_545 S
H293 C279 0.958 . S
H294 C279 0.961 . S
H295 C279 0.960 . S
C296 C297 1.391 . S
C296 C298 1.394 . S
C296 H312 0.931 . S
C297 C296 1.391 . S
C297 C301 1.376 . S
C298 C296 1.394 . S
C298 C299 1.369 . S
C298 C302 1.531 . S
C299 C298 1.369 . S
C299 C300 1.410 . S
C299 C307 1.503 . S
C300 C299 1.410 . S
C300 C301 1.392 . S
C300 C303 1.511 . S
C301 C297 1.376 . S
C301 C300 1.392 . S
C301 H313 0.929 . S
C302 C298 1.531 . S
C302 H314 0.960 . S
C302 H315 0.962 . S
C302 H316 0.960 . S
C303 C300 1.511 . S
C303 H317 0.961 . S
C303 H318 0.961 . S
C303 H319 0.961 . S
C304 C305 1.370 . S
C304 C306 1.363 . S
C304 H320 0.931 . S
C305 C304 1.370 . S
C305 C309 1.408 . S
C306 C304 1.363 . S
C306 C307 1.370 . S
C306 C310 1.524 . S
C307 C299 1.503 . S
C307 C306 1.370 . S
C307 C308 1.403 . S
C308 C307 1.403 . S
C308 C309 1.404 . S
C308 C311 1.539 . S
C309 C305 1.408 . S
C309 C308 1.404 . S
C309 H321 0.930 . S
C310 C306 1.524 . S
C310 H322 0.956 . S
C310 H323 0.961 . S
C310 H324 0.961 . S
C311 C308 1.539 . S
C311 H325 0.958 . S
C311 H326 0.961 . S
C311 H327 0.960 . S
H312 C296 0.931 . S
H313 C301 0.929 . S
H314 C302 0.960 . S
H315 C302 0.962 . S
H316 C302 0.960 . S
H317 C303 0.961 . S
H318 C303 0.961 . S
H319 C303 0.961 . S
H320 C304 0.931 . S
H321 C309 0.930 . S
H322 C310 0.956 . S
H323 C310 0.961 . S
H324 C310 0.961 . S
H325 C311 0.958 . S
H326 C311 0.961 . S
H327 C311 0.960 . S
C328 C329 1.391 . S
C328 C330 1.394 . S
C328 H344 0.931 . S
C329 C328 1.391 . S
C329 C333 1.376 . S
C330 C328 1.394 . S
C330 C331 1.369 . S
C330 C334 1.531 . S
C331 C330 1.369 . S
C331 C332 1.410 . S
C331 C339 1.503 1_655 S
C332 C331 1.410 . S
C332 C333 1.392 . S
C332 C335 1.511 . S
C333 C329 1.376 . S
C333 C332 1.392 . S
C333 H345 0.929 . S
C334 C330 1.531 . S
C334 H346 0.960 1_655 S
C334 H347 0.950 1_655 S
C334 H348 0.960 . S
C335 C332 1.511 . S
C335 H349 0.961 . S
C335 H350 0.961 . S
C335 H351 0.961 . S
C336 C337 1.370 . S
C336 C338 1.363 . S
C336 H352 0.931 . S
C337 C336 1.370 . S
C337 C341 1.408 . S
C338 C336 1.363 . S
C338 C339 1.370 . S
C338 C342 1.524 . S
C339 C331 1.503 1_455 S
C339 C338 1.370 . S
C339 C340 1.403 . S
C340 C339 1.403 . S
C340 C341 1.404 . S
C340 C343 1.539 1_455 S
C341 C337 1.408 . S
C341 C340 1.404 . S
C341 H353 0.930 . S
C342 C338 1.524 . S
C342 H354 0.956 . S
C342 H355 0.961 . S
C342 H356 0.961 . S
C343 C340 1.539 1_655 S
C343 H357 0.958 . S
C343 H358 0.961 1_655 S
C343 H359 0.960 . S
H344 C328 0.931 . S
H345 C333 0.929 . S
H346 C334 0.960 1_455 S
H347 C334 0.950 1_455 S
H348 C334 0.960 . S
H349 C335 0.961 . S
H350 C335 0.961 . S
H351 C335 0.961 . S
H352 C336 0.931 . S
H353 C341 0.930 . S
H354 C342 0.956 . S
H355 C342 0.961 . S
H356 C342 0.961 . S
H357 C343 0.958 . S
H358 C343 0.961 1_455 S
H359 C343 0.960 . S
C360 C361 1.391 . S
C360 C362 1.394 . S
C360 H376 0.931 . S
C361 C360 1.391 . S
C361 C365 1.376 . S
C362 C360 1.394 . S
C362 C363 1.369 . S
C362 C366 1.531 . S
C363 C362 1.369 . S
C363 C364 1.410 1_556 S
C363 C371 1.503 1_556 S
C364 C363 1.410 1_554 S
C364 C365 1.392 1_554 S
C364 C367 1.511 . S
C365 C361 1.376 . S
C365 C364 1.392 1_556 S
C365 H377 0.929 . S
C366 C362 1.531 . S
C366 H378 0.960 . S
C366 H379 0.962 . S
C366 H380 0.960 . S
C367 C364 1.511 . S
C367 H381 0.961 . S
C367 H382 0.961 . S
C367 H383 0.961 . S
C368 C369 1.370 . S
C368 C370 1.357 1_554 S
C368 H384 0.931 . S
C369 C368 1.370 . S
C369 C373 1.408 . S
C370 C368 1.357 1_556 S
C370 C371 1.365 1_556 S
C370 C374 1.536 . S
C371 C363 1.503 1_554 S
C371 C370 1.365 1_554 S
C371 C372 1.403 . S
C372 C371 1.403 . S
C372 C373 1.404 . S
C372 C375 1.539 . S
C373 C369 1.408 . S
C373 C372 1.404 . S
C373 H385 0.930 . S
C374 C370 1.536 . S
C374 H386 0.956 . S
C374 H387 0.961 . S
C374 H388 0.961 . S
C375 C372 1.539 . S
C375 H389 0.958 . S
C375 H390 0.961 . S
C375 H391 0.960 . S
H376 C360 0.931 . S
H377 C365 0.929 . S
H378 C366 0.960 . S
H379 C366 0.962 . S
H380 C366 0.960 . S
H381 C367 0.961 . S
H382 C367 0.961 . S
H383 C367 0.961 . S
H384 C368 0.931 . S
H385 C373 0.930 . S
H386 C374 0.956 . S
H387 C374 0.961 . S
H388 C374 0.961 . S
H389 C375 0.958 . S
H390 C375 0.961 . S
H391 C375 0.960 . S
C392 C393 1.391 . S
C392 C394 1.394 . S
C392 H408 0.931 . S
C393 C392 1.391 . S
C393 C397 1.376 . S
C394 C392 1.394 . S
C394 C395 1.369 . S
C394 C398 1.531 . S
C395 C394 1.369 . S
C395 C396 1.410 . S
C395 C403 1.503 . S
C396 C395 1.410 . S
C396 C397 1.392 . S
C396 C399 1.511 . S
C397 C393 1.376 . S
C397 C396 1.392 . S
C397 H409 0.929 . S
C398 C394 1.531 . S
C398 H410 0.960 . S
C398 H411 0.962 . S
C398 H412 0.960 . S
C399 C396 1.511 . S
C399 H413 0.961 . S
C399 H414 0.961 . S
C399 H415 0.961 . S
C400 C401 1.370 . S
C400 C402 1.363 . S
C400 H416 0.931 . S
C401 C400 1.370 . S
C401 C405 1.408 . S
C402 C400 1.363 . S
C402 C403 1.370 . S
C402 C406 1.524 . S
C403 C395 1.503 . S
C403 C402 1.370 . S
C403 C404 1.403 . S
C404 C403 1.403 . S
C404 C405 1.404 . S
C404 C407 1.539 . S
C405 C401 1.408 . S
C405 C404 1.404 . S
C405 H417 0.930 . S
C406 C402 1.524 . S
C406 H418 0.956 . S
C406 H419 0.961 . S
C406 H420 0.961 . S
C407 C404 1.539 . S
C407 H421 0.958 . S
C407 H422 0.961 . S
C407 H423 0.960 . S
H408 C392 0.931 . S
H409 C397 0.929 . S
H410 C398 0.960 . S
H411 C398 0.962 . S
H412 C398 0.960 . S
H413 C399 0.961 . S
H414 C399 0.961 . S
H415 C399 0.961 . S
H416 C400 0.931 . S
H417 C405 0.930 . S
H418 C406 0.956 . S
H419 C406 0.961 . S
H420 C406 0.961 . S
H421 C407 0.958 . S
H422 C407 0.961 . S
H423 C407 0.960 . S
C424 C425 1.391 . S
C424 C426 1.394 . S
C424 H440 0.931 . S
C425 C424 1.391 . S
C425 C429 1.376 . S
C426 C424 1.394 . S
C426 C427 1.369 . S
C426 C430 1.531 . S
C427 C426 1.369 . S
C427 C428 1.410 . S
C427 C435 1.503 . S
C428 C427 1.410 . S
C428 C429 1.392 . S
C428 C431 1.511 . S
C429 C425 1.376 . S
C429 C428 1.392 . S
C429 H441 0.929 . S
C430 C426 1.531 . S
C430 H442 0.960 . S
C430 H443 0.962 . S
C430 H444 0.960 . S
C431 C428 1.511 . S
C431 H445 0.961 . S
C431 H446 0.961 . S
C431 H447 0.961 . S
C432 C433 1.370 . S
C432 C434 1.363 . S
C432 H448 0.931 . S
C433 C432 1.370 . S
C433 C437 1.408 . S
C434 C432 1.363 . S
C434 C435 1.370 . S
C434 C438 1.524 . S
C435 C427 1.503 . S
C435 C434 1.370 . S
C435 C436 1.403 . S
C436 C435 1.403 . S
C436 C437 1.404 . S
C436 C439 1.539 . S
C437 C433 1.408 . S
C437 C436 1.404 . S
C437 H449 0.930 . S
C438 C434 1.524 . S
C438 H450 0.956 . S
C438 H451 0.961 . S
C438 H452 0.961 . S
C439 C436 1.539 . S
C439 H453 0.958 . S
C439 H454 0.961 . S
C439 H455 0.960 . S
H440 C424 0.931 . S
H441 C429 0.929 . S
H442 C430 0.960 . S
H443 C430 0.962 . S
H444 C430 0.960 . S
H445 C431 0.961 . S
H446 C431 0.961 . S
H447 C431 0.961 . S
H448 C432 0.931 . S
H449 C437 0.930 . S
H450 C438 0.956 . S
H451 C438 0.961 . S
H452 C438 0.961 . S
H453 C439 0.958 . S
H454 C439 0.961 . S
H455 C439 0.960 . S
C456 C457 1.391 . S
C456 C458 1.394 . S
C456 H472 0.931 . S
C457 C456 1.391 . S
C457 C461 1.376 . S
C458 C456 1.394 . S
C458 C459 1.369 . S
C458 C462 1.531 . S
C459 C458 1.369 . S
C459 C460 1.410 1_556 S
C459 C467 1.503 1_556 S
C460 C459 1.410 1_554 S
C460 C461 1.392 1_554 S
C460 C463 1.511 . S
C461 C457 1.376 . S
C461 C460 1.392 1_556 S
C461 H473 0.929 1_556 S
C462 C458 1.531 . S
C462 H474 0.960 . S
C462 H475 0.962 . S
C462 H476 0.960 . S
C463 C460 1.511 . S
C463 H477 0.961 . S
C463 H478 0.961 . S
C463 H479 0.961 . S
C464 C465 1.370 . S
C464 C466 1.363 . S
C464 H480 0.931 . S
C465 C464 1.370 . S
C465 C469 1.408 . S
C466 C464 1.363 . S
C466 C467 1.370 . S
C466 C470 1.524 . S
C467 C459 1.503 1_554 S
C467 C466 1.370 . S
C467 C468 1.403 . S
C468 C467 1.403 . S
C468 C469 1.404 . S
C468 C471 1.539 1_554 S
C469 C465 1.408 . S
C469 C468 1.404 . S
C469 H481 0.930 . S
C470 C466 1.524 . S
C470 H482 0.956 1_554 S
C470 H483 0.961 . S
C470 H484 0.961 . S
C471 C468 1.539 1_556 S
C471 H485 0.958 . S
C471 H486 0.961 1_556 S
C471 H487 0.960 . S
H472 C456 0.931 . S
H473 C461 0.929 1_554 S
H474 C462 0.960 . S
H475 C462 0.962 . S
H476 C462 0.960 . S
H477 C463 0.961 . S
H478 C463 0.961 . S
H479 C463 0.961 . S
H480 C464 0.931 . S
H481 C469 0.930 . S
H482 C470 0.956 1_556 S
H483 C470 0.961 . S
H484 C470 0.961 . S
H485 C471 0.958 . S
H486 C471 0.961 1_554 S
H487 C471 0.960 . S
C488 C489 1.391 . S
C488 C490 1.394 . S
C488 H504 0.931 . S
C489 C488 1.391 . S
C489 C493 1.376 . S
C490 C488 1.394 . S
C490 C491 1.369 . S
C490 C494 1.531 . S
C491 C490 1.369 . S
C491 C492 1.410 . S
C491 C499 1.503 . S
C492 C491 1.410 . S
C492 C493 1.392 . S
C492 C495 1.511 . S
C493 C489 1.376 . S
C493 C492 1.392 . S
C493 H505 0.929 . S
C494 C490 1.531 . S
C494 H506 0.960 . S
C494 H507 0.962 . S
C494 H508 0.960 . S
C495 C492 1.511 . S
C495 H509 0.961 . S
C495 H510 0.961 . S
C495 H511 0.961 . S
C496 C497 1.370 . S
C496 C498 1.363 . S
C496 H512 0.931 . S
C497 C496 1.370 . S
C497 C501 1.408 . S
C498 C496 1.363 . S
C498 C499 1.370 . S
C498 C502 1.524 . S
C499 C491 1.503 . S
C499 C498 1.370 . S
C499 C500 1.403 . S
C500 C499 1.403 . S
C500 C501 1.404 . S
C500 C503 1.539 . S
C501 C497 1.408 . S
C501 C500 1.404 . S
C501 H513 0.930 . S
C502 C498 1.524 . S
C502 H514 0.956 . S
C502 H515 0.961 . S
C502 H516 0.961 . S
C503 C500 1.539 . S
C503 H517 0.958 . S
C503 H518 0.961 . S
C503 H519 0.960 . S
H504 C488 0.931 . S
H505 C493 0.929 . S
H506 C494 0.960 . S
H507 C494 0.962 . S
H508 C494 0.960 . S
H509 C495 0.961 . S
H510 C495 0.961 . S
H511 C495 0.961 . S
H512 C496 0.931 . S
H513 C501 0.930 . S
H514 C502 0.956 . S
H515 C502 0.961 . S
H516 C502 0.961 . S
H517 C503 0.958 . S
H518 C503 0.961 . S
H519 C503 0.960 . S
C520 C521 1.391 . S
C520 C522 1.394 . S
C520 H536 0.931 . S
C521 C520 1.391 . S
C521 C525 1.376 . S
C522 C520 1.394 . S
C522 C523 1.369 . S
C522 C526 1.531 . S
C523 C522 1.369 . S
C523 C524 1.410 . S
C523 C531 1.503 . S
C524 C523 1.410 . S
C524 C525 1.392 . S
C524 C527 1.511 . S
C525 C521 1.376 . S
C525 C524 1.392 . S
C525 H537 0.929 . S
C526 C522 1.531 . S
C526 H538 0.960 . S
C526 H539 0.962 . S
C526 H540 0.960 . S
C527 C524 1.511 . S
C527 H541 0.961 . S
C527 H542 0.961 . S
C527 H543 0.961 . S
C528 C529 1.370 . S
C528 C530 1.363 . S
C528 H544 0.931 . S
C529 C528 1.370 . S
C529 C533 1.408 . S
C530 C528 1.363 . S
C530 C531 1.370 . S
C530 C534 1.524 . S
C531 C523 1.503 . S
C531 C530 1.370 . S
C531 C532 1.403 . S
C532 C531 1.403 . S
C532 C533 1.404 . S
C532 C535 1.539 . S
C533 C529 1.408 . S
C533 C532 1.404 . S
C533 H545 0.930 . S
C534 C530 1.524 . S
C534 H546 0.956 . S
C534 H547 0.961 . S
C534 H548 0.961 . S
C535 C532 1.539 . S
C535 H549 0.958 . S
C535 H550 0.961 . S
C535 H551 0.960 . S
H536 C520 0.931 . S
H537 C525 0.929 . S
H538 C526 0.960 . S
H539 C526 0.962 . S
H540 C526 0.960 . S
H541 C527 0.961 . S
H542 C527 0.961 . S
H543 C527 0.961 . S
H544 C528 0.931 . S
H545 C533 0.930 . S
H546 C534 0.956 . S
H547 C534 0.961 . S
H548 C534 0.961 . S
H549 C535 0.958 . S
H550 C535 0.961 . S
H551 C535 0.960 . S
C552 C553 1.391 . S
C552 C554 1.394 . S
C552 H568 0.931 . S
C553 C552 1.391 . S
C553 C557 1.376 . S
C554 C552 1.394 . S
C554 C555 1.369 . S
C554 C558 1.531 . S
C555 C554 1.369 . S
C555 C556 1.410 . S
C555 C563 1.503 . S
C556 C555 1.410 . S
C556 C557 1.392 . S
C556 C559 1.511 . S
C557 C553 1.376 . S
C557 C556 1.392 . S
C557 H569 0.929 . S
C558 C554 1.531 . S
C558 H570 0.960 . S
C558 H571 0.962 . S
C558 H572 0.960 . S
C559 C556 1.511 . S
C559 H573 0.961 . S
C559 H574 0.961 . S
C559 H575 0.961 . S
C560 C561 1.370 . S
C560 C562 1.363 . S
C560 H576 0.931 . S
C561 C560 1.370 . S
C561 C565 1.408 . S
C562 C560 1.363 . S
C562 C563 1.370 . S
C562 C566 1.524 . S
C563 C555 1.503 . S
C563 C562 1.370 . S
C563 C564 1.403 . S
C564 C563 1.403 . S
C564 C565 1.404 . S
C564 C567 1.539 . S
C565 C561 1.408 . S
C565 C564 1.404 . S
C565 H577 0.930 . S
C566 C562 1.524 . S
C566 H578 0.956 . S
C566 H579 0.961 . S
C566 H580 0.961 . S
C567 C564 1.539 . S
C567 H581 0.958 . S
C567 H582 0.961 . S
C567 H583 0.960 . S
H568 C552 0.931 . S
H569 C557 0.929 . S
H570 C558 0.960 . S
H571 C558 0.962 . S
H572 C558 0.960 . S
H573 C559 0.961 . S
H574 C559 0.961 . S
H575 C559 0.961 . S
H576 C560 0.931 . S
H577 C565 0.930 . S
H578 C566 0.956 . S
H579 C566 0.961 . S
H580 C566 0.961 . S
H581 C567 0.958 . S
H582 C567 0.961 . S
H583 C567 0.960 . S
C584 C585 1.391 . S
C584 C586 1.394 . S
C584 H600 0.931 . S
C585 C584 1.391 . S
C585 C589 1.376 . S
C586 C584 1.394 . S
C586 C587 1.369 . S
C586 C590 1.531 . S
C587 C586 1.369 . S
C587 C588 1.410 . S
C587 C595 1.503 . S
C588 C587 1.410 . S
C588 C589 1.392 . S
C588 C591 1.511 . S
C589 C585 1.376 . S
C589 C588 1.392 . S
C589 H601 0.929 . S
C590 C586 1.531 . S
C590 H602 0.960 . S
C590 H603 0.962 . S
C590 H604 0.960 . S
C591 C588 1.511 . S
C591 H605 0.961 . S
C591 H606 0.961 . S
C591 H607 0.961 . S
C592 C593 1.370 . S
C592 C594 1.363 . S
C592 H608 0.931 . S
C593 C592 1.370 . S
C593 C597 1.408 . S
C594 C592 1.363 . S
C594 C595 1.370 . S
C594 C598 1.524 . S
C595 C587 1.503 . S
C595 C594 1.370 . S
C595 C596 1.403 . S
C596 C595 1.403 . S
C596 C597 1.404 . S
C596 C599 1.539 . S
C597 C593 1.408 . S
C597 C596 1.404 . S
C597 H609 0.930 . S
C598 C594 1.524 . S
C598 H610 0.956 . S
C598 H611 0.961 . S
C598 H612 0.961 . S
C599 C596 1.539 . S
C599 H613 0.958 . S
C599 H614 0.961 . S
C599 H615 0.960 . S
H600 C584 0.931 . S
H601 C589 0.929 . S
H602 C590 0.960 . S
H603 C590 0.962 . S
H604 C590 0.960 . S
H605 C591 0.961 . S
H606 C591 0.961 . S
H607 C591 0.961 . S
H608 C592 0.931 . S
H609 C597 0.930 . S
H610 C598 0.956 . S
H611 C598 0.961 . S
H612 C598 0.961 . S
H613 C599 0.958 . S
H614 C599 0.961 . S
H615 C599 0.960 . S
C616 C617 1.391 . S
C616 C618 1.394 . S
C616 H632 0.931 . S
C617 C616 1.391 . S
C617 C621 1.376 . S
C618 C616 1.394 . S
C618 C619 1.369 . S
C618 C622 1.531 . S
C619 C618 1.369 . S
C619 C620 1.410 . S
C619 C627 1.503 . S
C620 C619 1.410 . S
C620 C621 1.392 . S
C620 C623 1.511 . S
C621 C617 1.376 . S
C621 C620 1.392 . S
C621 H633 0.929 . S
C622 C618 1.531 . S
C622 H634 0.960 . S
C622 H635 0.962 . S
C622 H636 0.960 . S
C623 C620 1.511 . S
C623 H637 0.961 . S
C623 H638 0.961 . S
C623 H639 0.961 . S
C624 C625 1.370 . S
C624 C626 1.363 . S
C624 H640 0.931 . S
C625 C624 1.370 . S
C625 C629 1.408 . S
C626 C624 1.363 . S
C626 C627 1.370 . S
C626 C630 1.524 . S
C627 C619 1.503 . S
C627 C626 1.370 . S
C627 C628 1.403 . S
C628 C627 1.403 . S
C628 C629 1.404 . S
C628 C631 1.539 . S
C629 C625 1.408 . S
C629 C628 1.404 . S
C629 H641 0.930 . S
C630 C626 1.524 . S
C630 H642 0.956 . S
C630 H643 0.961 . S
C630 H644 0.961 . S
C631 C628 1.539 . S
C631 H645 0.958 . S
C631 H646 0.961 . S
C631 H647 0.960 . S
H632 C616 0.931 . S
H633 C621 0.929 . S
H634 C622 0.960 . S
H635 C622 0.962 . S
H636 C622 0.960 . S
H637 C623 0.961 . S
H638 C623 0.961 . S
H639 C623 0.961 . S
H640 C624 0.931 . S
H641 C629 0.930 . S
H642 C630 0.956 . S
H643 C630 0.961 . S
H644 C630 0.961 . S
H645 C631 0.958 . S
H646 C631 0.961 . S
H647 C631 0.960 . S
C648 C649 1.391 . S
C648 C650 1.394 . S
C648 H664 0.931 . S
C649 C648 1.391 . S
C649 C653 1.376 . S
C650 C648 1.394 . S
C650 C651 1.369 . S
C650 C654 1.531 . S
C651 C650 1.369 . S
C651 C652 1.410 . S
C651 C659 1.503 . S
C652 C651 1.410 . S
C652 C653 1.392 . S
C652 C655 1.511 . S
C653 C649 1.376 . S
C653 C652 1.392 . S
C653 H665 0.929 . S
C654 C650 1.531 . S
C654 H666 0.960 . S
C654 H667 0.962 . S
C654 H668 0.960 . S
C655 C652 1.511 . S
C655 H669 0.961 . S
C655 H670 0.961 . S
C655 H671 0.961 . S
C656 C657 1.370 . S
C656 C658 1.363 . S
C656 H672 0.931 . S
C657 C656 1.370 . S
C657 C661 1.408 . S
C658 C656 1.363 . S
C658 C659 1.370 . S
C658 C662 1.524 . S
C659 C651 1.503 . S
C659 C658 1.370 . S
C659 C660 1.403 . S
C660 C659 1.403 . S
C660 C661 1.404 . S
C660 C663 1.539 . S
C661 C657 1.408 . S
C661 C660 1.404 . S
C661 H673 0.930 . S
C662 C658 1.524 . S
C662 H674 0.956 . S
C662 H675 0.961 . S
C662 H676 0.961 . S
C663 C660 1.539 . S
C663 H677 0.958 . S
C663 H678 0.961 . S
C663 H679 0.960 . S
H664 C648 0.931 . S
H665 C653 0.929 . S
H666 C654 0.960 . S
H667 C654 0.962 . S
H668 C654 0.960 . S
H669 C655 0.961 . S
H670 C655 0.961 . S
H671 C655 0.961 . S
H672 C656 0.931 . S
H673 C661 0.930 . S
H674 C662 0.956 . S
H675 C662 0.961 . S
H676 C662 0.961 . S
H677 C663 0.958 . S
H678 C663 0.961 . S
H679 C663 0.960 . S
C680 C681 1.391 . S
C680 C682 1.394 . S
C680 H696 0.931 . S
C681 C680 1.391 . S
C681 C685 1.376 . S
C682 C680 1.394 . S
C682 C683 1.369 . S
C682 C686 1.531 . S
C683 C682 1.369 . S
C683 C684 1.410 . S
C683 C691 1.503 . S
C684 C683 1.410 . S
C684 C685 1.392 . S
C684 C687 1.511 . S
C685 C681 1.376 . S
C685 C684 1.392 . S
C685 H697 0.929 . S
C686 C682 1.531 . S
C686 H698 0.960 . S
C686 H699 0.962 . S
C686 H700 0.960 . S
C687 C684 1.511 . S
C687 H701 0.961 . S
C687 H702 0.961 . S
C687 H703 0.961 . S
C688 C689 1.370 . S
C688 C690 1.363 . S
C688 H704 0.931 . S
C689 C688 1.370 . S
C689 C693 1.408 . S
C690 C688 1.363 . S
C690 C691 1.370 . S
C690 C694 1.524 . S
C691 C683 1.503 . S
C691 C690 1.370 . S
C691 C692 1.403 . S
C692 C691 1.403 . S
C692 C693 1.404 . S
C692 C695 1.539 . S
C693 C689 1.408 . S
C693 C692 1.404 . S
C693 H705 0.930 . S
C694 C690 1.524 . S
C694 H706 0.956 . S
C694 H707 0.961 . S
C694 H708 0.961 . S
C695 C692 1.539 . S
C695 H709 0.958 . S
C695 H710 0.961 . S
C695 H711 0.960 . S
H696 C680 0.931 . S
H697 C685 0.929 . S
H698 C686 0.960 . S
H699 C686 0.962 . S
H700 C686 0.960 . S
H701 C687 0.961 . S
H702 C687 0.961 . S
H703 C687 0.961 . S
H704 C688 0.931 . S
H705 C693 0.930 . S
H706 C694 0.956 . S
H707 C694 0.961 . S
H708 C694 0.961 . S
H709 C695 0.958 . S
H710 C695 0.961 . S
H711 C695 0.960 . S
C712 C713 1.391 . S
C712 C714 1.394 . S
C712 H728 0.931 . S
C713 C712 1.391 . S
C713 C717 1.376 . S
C714 C712 1.394 . S
C714 C715 1.369 . S
C714 C718 1.531 . S
C715 C714 1.369 . S
C715 C716 1.410 . S
C715 C723 1.503 . S
C716 C715 1.410 . S
C716 C717 1.392 . S
C716 C719 1.511 . S
C717 C713 1.376 . S
C717 C716 1.392 . S
C717 H729 0.929 . S
C718 C714 1.531 . S
C718 H730 0.960 . S
C718 H731 0.962 . S
C718 H732 0.960 . S
C719 C716 1.511 . S
C719 H733 0.961 . S
C719 H734 0.961 . S
C719 H735 0.961 . S
C720 C721 1.370 . S
C720 C722 1.363 . S
C720 H736 0.931 . S
C721 C720 1.370 . S
C721 C725 1.408 . S
C722 C720 1.363 . S
C722 C723 1.370 . S
C722 C726 1.524 . S
C723 C715 1.503 . S
C723 C722 1.370 . S
C723 C724 1.403 . S
C724 C723 1.403 . S
C724 C725 1.404 . S
C724 C727 1.539 . S
C725 C721 1.408 . S
C725 C724 1.404 . S
C725 H737 0.930 . S
C726 C722 1.524 . S
C726 H738 0.956 . S
C726 H739 0.961 . S
C726 H740 0.961 . S
C727 C724 1.539 . S
C727 H741 0.958 . S
C727 H742 0.961 . S
C727 H743 0.960 . S
H728 C712 0.931 . S
H729 C717 0.929 . S
H730 C718 0.960 . S
H731 C718 0.962 . S
H732 C718 0.960 . S
H733 C719 0.961 . S
H734 C719 0.961 . S
H735 C719 0.961 . S
H736 C720 0.931 . S
H737 C725 0.930 . S
H738 C726 0.956 . S
H739 C726 0.961 . S
H740 C726 0.961 . S
H741 C727 0.958 . S
H742 C727 0.961 . S
H743 C727 0.960 . S
C744 C745 1.391 . S
C744 C746 1.394 . S
C744 H760 0.931 . S
C745 C744 1.391 . S
C745 C749 1.376 . S
C746 C744 1.394 . S
C746 C747 1.369 . S
C746 C750 1.531 . S
C747 C746 1.369 . S
C747 C748 1.410 . S
C747 C755 1.503 . S
C748 C747 1.410 . S
C748 C749 1.392 . S
C748 C751 1.511 . S
C749 C745 1.376 . S
C749 C748 1.392 . S
C749 H761 0.929 . S
C750 C746 1.531 . S
C750 H762 0.960 . S
C750 H763 0.962 . S
C750 H764 0.960 1_554 S
C751 C748 1.511 . S
C751 H765 0.961 . S
C751 H766 0.961 . S
C751 H767 0.961 . S
C752 C753 1.370 . S
C752 C754 1.363 . S
C752 H768 0.931 . S
C753 C752 1.370 . S
C753 C757 1.408 . S
C754 C752 1.363 . S
C754 C755 1.370 . S
C754 C758 1.524 . S
C755 C747 1.503 . S
C755 C754 1.370 . S
C755 C756 1.403 . S
C756 C755 1.403 . S
C756 C757 1.404 . S
C756 C759 1.539 . S
C757 C753 1.408 . S
C757 C756 1.404 . S
C757 H769 0.930 . S
C758 C754 1.524 . S
C758 H770 0.956 . S
C758 H771 0.961 . S
C758 H772 0.961 . S
C759 C756 1.539 . S
C759 H773 0.958 1_554 S
C759 H774 0.961 . S
C759 H775 0.960 . S
H760 C744 0.931 . S
H761 C749 0.929 . S
H762 C750 0.960 . S
H763 C750 0.962 . S
H764 C750 0.960 1_556 S
H765 C751 0.961 . S
H766 C751 0.961 . S
H767 C751 0.961 . S
H768 C752 0.931 . S
H769 C757 0.930 . S
H770 C758 0.956 . S
H771 C758 0.961 . S
H772 C758 0.961 . S
H773 C759 0.958 1_556 S
H774 C759 0.961 . S
H775 C759 0.960 . S
C776 C777 1.391 . S
C776 C778 1.394 . S
C776 H792 0.931 . S
C777 C776 1.391 . S
C777 C781 1.376 . S
C778 C776 1.394 . S
C778 C779 1.369 . S
C778 C782 1.531 . S
C779 C778 1.369 . S
C779 C780 1.410 . S
C779 C787 1.503 1_655 S
C780 C779 1.410 . S
C780 C781 1.392 . S
C780 C783 1.511 1_655 S
C781 C777 1.376 . S
C781 C780 1.392 . S
C781 H793 0.929 . S
C782 C778 1.531 . S
C782 H794 0.960 1_655 S
C782 H795 0.962 . S
C782 H796 0.960 . S
C783 C780 1.511 1_455 S
C783 H797 0.976 . S
C783 H798 0.961 . S
C783 H799 0.961 . S
C784 C785 1.370 . S
C784 C786 1.363 1_455 S
C784 H800 0.931 1_455 S
C785 C784 1.370 . S
C785 C789 1.408 . S
C786 C784 1.363 1_655 S
C786 C787 1.370 1_655 S
C786 C790 1.524 . S
C787 C779 1.503 1_455 S
C787 C786 1.370 1_455 S
C787 C788 1.403 . S
C788 C787 1.403 . S
C788 C789 1.404 . S
C788 C791 1.539 . S
C789 C785 1.408 . S
C789 C788 1.404 . S
C789 H801 0.930 . S
C790 C786 1.524 . S
C790 H802 0.956 . S
C790 H803 0.961 . S
C790 H804 0.961 . S
C791 C788 1.539 . S
C791 H805 0.958 . S
C791 H806 0.961 . S
C791 H807 0.960 . S
H792 C776 0.931 . S
H793 C781 0.929 . S
H794 C782 0.960 1_455 S
H795 C782 0.962 . S
H796 C782 0.960 . S
H797 C783 0.976 . S
H798 C783 0.961 . S
H799 C783 0.961 . S
H800 C784 0.931 1_655 S
H801 C789 0.930 . S
H802 C790 0.956 . S
H803 C790 0.961 . S
H804 C790 0.961 . S
H805 C791 0.958 . S
H806 C791 0.961 . S
H807 C791 0.960 . S
C808 C809 1.391 . S
C808 C810 1.394 . S
C808 H824 0.931 . S
C809 C808 1.391 . S
C809 C813 1.376 . S
C810 C808 1.394 . S
C810 C811 1.369 . S
C810 C814 1.531 . S
C811 C810 1.369 . S
C811 C812 1.410 1_545 S
C811 C819 1.503 1_545 S
C812 C811 1.410 1_565 S
C812 C813 1.392 1_565 S
C812 C815 1.511 . S
C813 C809 1.376 . S
C813 C812 1.392 1_545 S
C813 H825 0.929 1_545 S
C814 C810 1.531 . S
C814 H826 0.960 . S
C814 H827 0.962 . S
C814 H828 0.960 . S
C815 C812 1.511 . S
C815 H829 0.961 . S
C815 H830 0.961 . S
C815 H831 0.961 . S
C816 C817 1.370 . S
C816 C818 1.363 . S
C816 H832 0.931 . S
C817 C816 1.370 . S
C817 C821 1.408 . S
C818 C816 1.363 . S
C818 C819 1.370 . S
C818 C822 1.524 1_565 S
C819 C811 1.503 1_565 S
C819 C818 1.370 . S
C819 C820 1.403 . S
C820 C819 1.403 . S
C820 C821 1.404 . S
C820 C823 1.539 . S
C821 C817 1.408 . S
C821 C820 1.404 . S
C821 H833 0.930 . S
C822 C818 1.524 1_545 S
C822 H834 0.956 . S
C822 H835 0.961 . S
C822 H836 0.961 . S
C823 C820 1.539 . S
C823 H837 0.958 . S
C823 H838 0.961 . S
C823 H839 0.960 . S
H824 C808 0.931 . S
H825 C813 0.929 1_565 S
H826 C814 0.960 . S
H827 C814 0.962 . S
H828 C814 0.960 . S
H829 C815 0.961 . S
H830 C815 0.961 . S
H831 C815 0.961 . S
H832 C816 0.931 . S
H833 C821 0.930 . S
H834 C822 0.956 . S
H835 C822 0.961 . S
H836 C822 0.961 . S
H837 C823 0.958 . S
H838 C823 0.961 . S
H839 C823 0.960 . S
C840 C841 1.391 . S
C840 C842 1.394 . S
C840 H856 0.931 . S
C841 C840 1.391 . S
C841 C845 1.376 . S
C842 C840 1.394 . S
C842 C843 1.369 . S
C842 C846 1.531 . S
C843 C842 1.369 . S
C843 C844 1.410 . S
C843 C851 1.503 . S
C844 C843 1.410 . S
C844 C845 1.392 . S
C844 C847 1.511 . S
C845 C841 1.376 . S
C845 C844 1.392 . S
C845 H857 0.929 . S
C846 C842 1.531 . S
C846 H858 0.960 . S
C846 H859 0.962 . S
C846 H860 0.960 . S
C847 C844 1.511 . S
C847 H861 0.961 . S
C847 H862 0.961 . S
C847 H863 0.961 . S
C848 C849 1.370 . S
C848 C850 1.363 . S
C848 H864 0.931 . S
C849 C848 1.370 . S
C849 C853 1.408 . S
C850 C848 1.363 . S
C850 C851 1.370 . S
C850 C854 1.524 . S
C851 C843 1.503 . S
C851 C850 1.370 . S
C851 C852 1.403 . S
C852 C851 1.403 . S
C852 C853 1.404 . S
C852 C855 1.539 . S
C853 C849 1.408 . S
C853 C852 1.404 . S
C853 H865 0.930 . S
C854 C850 1.524 . S
C854 H866 0.956 . S
C854 H867 0.961 . S
C854 H868 0.961 . S
C855 C852 1.539 . S
C855 H869 0.958 . S
C855 H870 0.961 . S
C855 H871 0.960 . S
H856 C840 0.931 . S
H857 C845 0.929 . S
H858 C846 0.960 . S
H859 C846 0.962 . S
H860 C846 0.960 . S
H861 C847 0.961 . S
H862 C847 0.961 . S
H863 C847 0.961 . S
H864 C848 0.931 . S
H865 C853 0.930 . S
H866 C854 0.956 . S
H867 C854 0.961 . S
H868 C854 0.961 . S
H869 C855 0.958 . S
H870 C855 0.961 . S
H871 C855 0.960 . S
C872 C873 1.391 . S
C872 C874 1.394 . S
C872 H888 0.931 . S
C873 C872 1.391 . S
C873 C877 1.376 . S
C874 C872 1.394 . S
C874 C875 1.369 . S
C874 C878 1.531 1_455 S
C875 C874 1.369 . S
C875 C876 1.410 . S
C875 C883 1.503 1_455 S
C876 C875 1.410 . S
C876 C877 1.392 . S
C876 C879 1.511 . S
C877 C873 1.376 . S
C877 C876 1.392 . S
C877 H889 0.929 . S
C878 C874 1.531 1_655 S
C878 H890 0.960 . S
C878 H891 0.962 . S
C878 H892 0.960 . S
C879 C876 1.511 . S
C879 H893 0.961 1_556 S
C879 H894 0.961 . S
C879 H895 0.961 . S
C880 C881 1.370 . S
C880 C882 1.363 . S
C880 H896 0.931 . S
C881 C880 1.370 . S
C881 C885 1.408 . S
C882 C880 1.363 . S
C882 C883 1.370 . S
C882 C886 1.524 . S
C883 C875 1.503 1_655 S
C883 C882 1.370 . S
C883 C884 1.403 1_655 S
C884 C883 1.403 1_455 S
C884 C885 1.404 1_455 S
C884 C887 1.539 . S
C885 C881 1.408 . S
C885 C884 1.404 1_655 S
C885 H897 0.930 . S
C886 C882 1.524 . S
C886 H898 0.956 . S
C886 H899 0.961 . S
C886 H900 0.961 . S
C887 C884 1.539 . S
C887 H901 0.958 . S
C887 H902 0.961 . S
C887 H903 0.960 . S
H888 C872 0.931 . S
H889 C877 0.929 . S
H890 C878 0.960 . S
H891 C878 0.962 . S
H892 C878 0.960 . S
H893 C879 0.961 1_554 S
H894 C879 0.961 . S
H895 C879 0.961 . S
H896 C880 0.931 . S
H897 C885 0.930 . S
H898 C886 0.956 . S
H899 C886 0.961 . S
H900 C886 0.961 . S
H901 C887 0.958 . S
H902 C887 0.961 . S
H903 C887 0.960 . S
C904 C905 1.391 . S
C904 C906 1.394 . S
C904 H920 0.931 . S
C905 C904 1.391 . S
C905 C909 1.376 . S
C906 C904 1.394 . S
C906 C907 1.369 . S
C906 C910 1.531 . S
C907 C906 1.369 . S
C907 C908 1.410 . S
C907 C915 1.503 1_565 S
C908 C907 1.410 . S
C908 C909 1.392 . S
C908 C911 1.511 . S
C909 C905 1.376 . S
C909 C908 1.392 . S
C909 H921 0.929 . S
C910 C906 1.531 . S
C910 H922 0.960 . S
C910 H923 0.962 1_565 S
C910 H924 0.960 . S
C911 C908 1.511 . S
C911 H925 0.961 . S
C911 H926 0.961 . S
C911 H927 0.961 . S
C912 C913 1.370 . S
C912 C914 1.363 . S
C912 H928 0.931 . S
C913 C912 1.370 . S
C913 C917 1.408 . S
C914 C912 1.363 . S
C914 C915 1.370 . S
C914 C918 1.524 . S
C915 C907 1.503 1_545 S
C915 C914 1.370 . S
C915 C916 1.403 1_545 S
C916 C915 1.403 1_565 S
C916 C917 1.404 1_565 S
C916 C919 1.539 . S
C917 C913 1.408 . S
C917 C916 1.404 1_545 S
C917 H929 0.930 1_545 S
C918 C914 1.524 . S
C918 H930 0.956 . S
C918 H931 0.961 . S
C918 H932 0.961 . S
C919 C916 1.539 . S
C919 H933 0.958 . S
C919 H934 0.961 . S
C919 H935 0.960 . S
H920 C904 0.931 . S
H921 C909 0.929 . S
H922 C910 0.960 . S
H923 C910 0.962 1_545 S
H924 C910 0.960 . S
H925 C911 0.961 . S
H926 C911 0.961 . S
H927 C911 0.961 . S
H928 C912 0.931 . S
H929 C917 0.930 1_565 S
H930 C918 0.956 . S
H931 C918 0.961 . S
H932 C918 0.961 . S
H933 C919 0.958 . S
H934 C919 0.961 . S
H935 C919 0.960 . S
C169 C105 1.262 . S
C177 C7 1.275 . S
C201 C21 1.266 . S
C209 C119 1.277 . S
C233 C35 1.299 . S
C241 C133 1.291 . S
C265 C49 1.290 . S
C273 C147 1.287 . S
C297 C161 1.288 . S
C305 C63 1.287 . S
C329 C91 1.283 . S
C337 C77 1.284 . S
C361 C148 1.285 . S
C369 C8 1.301 . S
C393 C22 1.306 . S
C401 C162 1.282 . S
C425 C36 1.270 . S
C433 C92 1.280 . S
C457 C106 1.309 . S
C465 C50 1.296 . S
C489 C120 1.312 . S
C497 C64 1.287 . S
C521 C134 1.261 . S
C529 C78 1.293 . S
C553 C11 1.588 . S
C561 C123 1.584 . S
C585 C25 1.577 . S
C593 C137 1.587 . S
C617 C151 1.587 . S
C625 C39 1.587 . S
C649 C53 1.588 . S
C657 C165 1.584 . S
C681 C95 1.576 . S
C689 C67 1.588 . S
C713 C109 1.576 . S
C721 C81 1.587 . S
C745 C55 1.212 . S
C753 C13 1.208 . S
C777 C69 1.239 . S
C785 C27 1.214 . S
C809 C41 1.198 . S
C817 C83 1.207 . S
C841 C97 1.265 . S
C849 C139 1.239 . S
C873 C111 1.220 . S
C881 C153 1.241 . S
C905 C167 1.201 . S
C913 C125 1.234 . S
