# Generated by pormake.
# Topology mon, (4)-cn, num edge types: 1
# Building blocks:
#     Node 0, Type 0, BuildingBlock: QUQFOY_clean_sbu_1, # of connection points: 4
#     Node 1, Type 0, BuildingBlock: QUQFOY_clean_sbu_1, # of connection points: 4
#     Node 2, Type 0, BuildingBlock: QUQFOY_clean_sbu_1, # of connection points: 4
#     Node 3, Type 0, BuildingBlock: QUQFOY_clean_sbu_1, # of connection points: 4
#     Node 4, Type 0, BuildingBlock: QUQFOY_clean_sbu_1, # of connection points: 4
#     Node 5, Type 0, BuildingBlock: QUQFOY_clean_sbu_1, # of connection points: 4
#     Node 6, Type 0, BuildingBlock: QUQFOY_clean_sbu_1, # of connection points: 4
#     Node 7, Type 0, BuildingBlock: QUQFOY_clean_sbu_1, # of connection points: 4
#     Node 8, Type 0, BuildingBlock: QUQFOY_clean_sbu_1, # of connection points: 4
#     Node 9, Type 0, BuildingBlock: QUQFOY_clean_sbu_1, # of connection points: 4
#     Node 10, Type 0, BuildingBlock: QUQFOY_clean_sbu_1, # of connection points: 4
#     Node 11, Type 0, BuildingBlock: QUQFOY_clean_sbu_1, # of connection points: 4
#     Node 12, Type 0, BuildingBlock: QUQFOY_clean_sbu_1, # of connection points: 4
#     Node 13, Type 0, BuildingBlock: QUQFOY_clean_sbu_1, # of connection points: 4
#     Node 14, Type 0, BuildingBlock: QUQFOY_clean_sbu_1, # of connection points: 4
#     Node 15, Type 0, BuildingBlock: QUQFOY_clean_sbu_1, # of connection points: 4
#     Edge 16, Type (0, 0), BuildingBlock: EZIPEK_clean_linker_0, # of connection points: 2
#     Edge 17, Type (0, 0), BuildingBlock: EZIPEK_clean_linker_0, # of connection points: 2
#     Edge 18, Type (0, 0), BuildingBlock: EZIPEK_clean_linker_0, # of connection points: 2
#     Edge 19, Type (0, 0), BuildingBlock: EZIPEK_clean_linker_0, # of connection points: 2
#     Edge 20, Type (0, 0), BuildingBlock: EZIPEK_clean_linker_0, # of connection points: 2
#     Edge 21, Type (0, 0), BuildingBlock: EZIPEK_clean_linker_0, # of connection points: 2
#     Edge 22, Type (0, 0), BuildingBlock: EZIPEK_clean_linker_0, # of connection points: 2
#     Edge 23, Type (0, 0), BuildingBlock: EZIPEK_clean_linker_0, # of connection points: 2
#     Edge 24, Type (0, 0), BuildingBlock: EZIPEK_clean_linker_0, # of connection points: 2
#     Edge 25, Type (0, 0), BuildingBlock: EZIPEK_clean_linker_0, # of connection points: 2
#     Edge 26, Type (0, 0), BuildingBlock: EZIPEK_clean_linker_0, # of connection points: 2
#     Edge 27, Type (0, 0), BuildingBlock: EZIPEK_clean_linker_0, # of connection points: 2
#     Edge 28, Type (0, 0), BuildingBlock: EZIPEK_clean_linker_0, # of connection points: 2
#     Edge 29, Type (0, 0), BuildingBlock: EZIPEK_clean_linker_0, # of connection points: 2
#     Edge 30, Type (0, 0), BuildingBlock: EZIPEK_clean_linker_0, # of connection points: 2
#     Edge 31, Type (0, 0), BuildingBlock: EZIPEK_clean_linker_0, # of connection points: 2
#     Edge 32, Type (0, 0), BuildingBlock: EZIPEK_clean_linker_0, # of connection points: 2
#     Edge 33, Type (0, 0), BuildingBlock: EZIPEK_clean_linker_0, # of connection points: 2
#     Edge 34, Type (0, 0), BuildingBlock: EZIPEK_clean_linker_0, # of connection points: 2
#     Edge 35, Type (0, 0), BuildingBlock: EZIPEK_clean_linker_0, # of connection points: 2
#     Edge 36, Type (0, 0), BuildingBlock: EZIPEK_clean_linker_0, # of connection points: 2
#     Edge 37, Type (0, 0), BuildingBlock: EZIPEK_clean_linker_0, # of connection points: 2
#     Edge 38, Type (0, 0), BuildingBlock: EZIPEK_clean_linker_0, # of connection points: 2
#     Edge 39, Type (0, 0), BuildingBlock: EZIPEK_clean_linker_0, # of connection points: 2
#     Edge 40, Type (0, 0), BuildingBlock: EZIPEK_clean_linker_0, # of connection points: 2
#     Edge 41, Type (0, 0), BuildingBlock: EZIPEK_clean_linker_0, # of connection points: 2
#     Edge 42, Type (0, 0), BuildingBlock: EZIPEK_clean_linker_0, # of connection points: 2
#     Edge 43, Type (0, 0), BuildingBlock: EZIPEK_clean_linker_0, # of connection points: 2
#     Edge 44, Type (0, 0), BuildingBlock: EZIPEK_clean_linker_0, # of connection points: 2
#     Edge 45, Type (0, 0), BuildingBlock: EZIPEK_clean_linker_0, # of connection points: 2
#     Edge 46, Type (0, 0), BuildingBlock: EZIPEK_clean_linker_0, # of connection points: 2
#     Edge 47, Type (0, 0), BuildingBlock: EZIPEK_clean_linker_0, # of connection points: 2
# Relax obj value: 0.197
# Max RMSD: 0.215
# Mean RMSD: 0.215
data_MOF--net-mon--node1-QUQFOY_clean_sbu_1--edge1-EZIPEK_clean_linker_0
_symmetry_space_group_name_H-M    P1
_symmetry_Int_Tables_number       1
_symmetry_cell_setting            triclinic
loop_
_symmetry_equiv_pos_as_xyz
'x, y, z'
_cell_length_a     27.07678
_cell_length_b     26.99008
_cell_length_c     62.878536
_cell_angle_alpha  89.705476
_cell_angle_beta   89.791519
_cell_angle_gamma 89.993737
loop_
_atom_site_label
_atom_site_type_symbol
_atom_site_fract_x
_atom_site_fract_y
_atom_site_fract_z
_atom_type_partial_charge
O0 O 0.0306 0.04925 0.54101 0.0
Cd1 Cd 0.02771 0.07092 0.5723 0.0
Cd2 Cd 0.08873 0.9923 0.57743 0.0
O3 O 0.09044 0.99443 0.54489 0.0
O4 O 0.00983 0.1422 0.57187 0.0
O5 O 0.08175 0.11376 0.58377 0.0
C6 C 0.05324 0.15082 0.57937 0.0
C7 C 0.16198 0.96697 0.59366 0.0
C8 C 0.06063 0.01815 0.53314 0.0
C9 C 0.98444 0.98736 0.59546 0.0
O10 O 0.02447 0.96523 0.59089 0.0
O11 O 0.97831 0.03282 0.59096 0.0
O12 O 0.13494 0.93682 0.58308 0.0
O13 O 0.14794 0.01255 0.59503 0.0
O14 O 0.27936 0.69422 0.78942 0.0
Cd15 Cd 0.2591 0.69368 0.82095 0.0
Cd16 Cd 0.33581 0.75905 0.82403 0.0
O17 O 0.33061 0.75767 0.79156 0.0
O18 O 0.18974 0.67018 0.8217 0.0
O19 O 0.21231 0.74615 0.83101 0.0
C20 C 0.17762 0.71423 0.82766 0.0
C21 C 0.36077 0.83418 0.83886 0.0
C22 C 0.3079 0.7256 0.78064 0.0
C23 C 0.34528 0.6567 0.84405 0.0
O24 O 0.36574 0.69685 0.83817 0.0
O25 O 0.29997 0.64856 0.8404 0.0
O26 O 0.39046 0.80711 0.82796 0.0
O27 O 0.31571 0.81939 0.84109 0.0
O28 O 0.62006 0.96258 0.03628 0.0
Cd29 Cd 0.62412 0.94259 0.06779 0.0
Cd30 Cd 0.55883 0.02067 0.0721 0.0
O31 O 0.55786 0.01497 0.03961 0.0
O32 O 0.64862 0.87337 0.06795 0.0
O33 O 0.57391 0.89499 0.07935 0.0
C34 C 0.60585 0.86068 0.07526 0.0
C35 C 0.48508 0.04651 0.08782 0.0
C36 C 0.58834 0.99149 0.02808 0.0
C37 C 0.66206 0.02873 0.09084 0.0
O38 O 0.62156 0.04952 0.08596 0.0
O39 O 0.67017 0.98365 0.08645 0.0
O40 O 0.51179 0.07602 0.07654 0.0
O41 O 0.49942 1.00115 0.08994 0.0
O42 O 0.37173 0.31072 0.28626 0.0
Cd43 Cd 0.39256 0.31425 0.3176 0.0
Cd44 Cd 0.31663 0.24693 0.32131 0.0
O45 O 0.33272 0.23933 0.28964 0.0
O46 O 0.46155 0.33858 0.3181 0.0
O47 O 0.4393 0.26301 0.32863 0.0
C48 C 0.47379 0.29512 0.32494 0.0
C49 C 0.27514 0.18055 0.33742 0.0
C50 C 0.34996 0.27387 0.27806 0.0
C51 C 0.30442 0.35215 0.33784 0.0
O52 O 0.28479 0.31262 0.33102 0.0
O53 O 0.35063 0.35903 0.3365 0.0
O54 O 0.25642 0.20519 0.32192 0.0
O55 O 0.31943 0.19143 0.34326 0.0
O56 O 0.01703 0.95236 0.43569 0.0
Cd57 Cd 0.01245 0.9329 0.40423 0.0
Cd58 Cd 0.0751 0.01024 0.3993 0.0
O59 O 0.08434 0.99724 0.43118 0.0
O60 O 0.99859 0.86108 0.40301 0.0
O61 O 0.0685 0.89549 0.39133 0.0
C62 C 0.04224 0.85628 0.39495 0.0
C63 C 0.1408 0.05011 0.38211 0.0
C64 C 0.05261 0.97706 0.44331 0.0
C65 C 0.96866 0.01811 0.38377 0.0
O66 O 0.00841 0.03939 0.38928 0.0
O67 O 0.96295 0.97186 0.38636 0.0
O68 O 0.13012 0.00493 0.37735 0.0
O69 O 0.11588 0.07095 0.39698 0.0
O70 O 0.37285 0.69291 0.68152 0.0
Cd71 Cd 0.39348 0.69494 0.65001 0.0
Cd72 Cd 0.31796 0.75959 0.6469 0.0
O73 O 0.32324 0.75761 0.67939 0.0
O74 O 0.46512 0.67994 0.64866 0.0
O75 O 0.43287 0.75303 0.63978 0.0
C76 C 0.47128 0.72531 0.64263 0.0
C77 C 0.29346 0.83492 0.63193 0.0
C78 C 0.34506 0.72469 0.69034 0.0
C79 C 0.30903 0.65833 0.62622 0.0
O80 O 0.28836 0.69812 0.63225 0.0
O81 O 0.35434 0.65018 0.62997 0.0
O82 O 0.26357 0.80791 0.64287 0.0
O83 O 0.33851 0.82005 0.62981 0.0
O84 O 0.62457 0.04946 0.92942 0.0
Cd85 Cd 0.63115 0.06965 0.89804 0.0
Cd86 Cd 0.56473 0.99295 0.89289 0.0
O87 O 0.56121 0.99889 0.92537 0.0
O88 O 0.6573 0.13824 0.89841 0.0
O89 O 0.58269 0.11882 0.88645 0.0
C90 C 0.61505 0.15224 0.89111 0.0
C91 C 0.49163 0.96727 0.87665 0.0
C92 C 0.59151 0.02141 0.93724 0.0
C93 C 0.6697 0.98273 0.8757 0.0
O94 O 0.62839 0.96279 0.88014 0.0
O95 O 0.67822 0.02772 0.8801 0.0
O96 O 0.51754 0.93786 0.88823 0.0
O97 O 0.50658 0.01239 0.87437 0.0
O98 O 0.27303 0.306 0.18149 0.0
Cd99 Cd 0.25058 0.31173 0.15037 0.0
Cd100 Cd 0.32968 0.25212 0.14344 0.0
O101 O 0.32994 0.24887 0.17596 0.0
O102 O 0.17891 0.32685 0.15101 0.0
O103 O 0.21017 0.25706 0.13793 0.0
C104 C 0.17211 0.28378 0.14271 0.0
C105 C 0.35518 0.17942 0.12673 0.0
C106 C 0.30568 0.2764 0.18848 0.0
C107 C 0.33158 0.35801 0.12662 0.0
O108 O 0.35429 0.31757 0.13001 0.0
O109 O 0.28693 0.36365 0.13229 0.0
O110 O 0.38549 0.20707 0.13693 0.0
O111 O 0.30944 0.19269 0.1259 0.0
O112 O 0.86739 0.19894 0.18217 0.0
Cd113 Cd 0.88722 0.19983 0.15057 0.0
Cd114 Cd 0.81078 0.26558 0.14813 0.0
O115 O 0.81758 0.26368 0.18054 0.0
O116 O 0.9566 0.17638 0.14941 0.0
O117 O 0.93378 0.25282 0.1406 0.0
C118 C 0.96856 0.22072 0.14361 0.0
C119 C 0.78507 0.34028 0.13289 0.0
C120 C 0.83989 0.23061 0.19123 0.0
C121 C 0.80036 0.16434 0.12774 0.0
O122 O 0.78006 0.20394 0.13418 0.0
O123 O 0.84589 0.15614 0.13089 0.0
O124 O 0.75601 0.31368 0.14442 0.0
O125 O 0.8301 0.32559 0.13048 0.0
O126 O 0.77706 0.80601 0.68265 0.0
Cd127 Cd 0.75561 0.81077 0.65139 0.0
Cd128 Cd 0.83254 0.74595 0.64586 0.0
O129 O 0.82791 0.74281 0.67837 0.0
O130 O 0.68585 0.83323 0.65162 0.0
O131 O 0.70948 0.75902 0.64032 0.0
C132 C 0.67434 0.78994 0.64456 0.0
C133 C 0.85859 0.67321 0.62922 0.0
C134 C 0.80578 0.77339 0.69033 0.0
C135 C 0.84073 0.85091 0.62824 0.0
O136 O 0.86145 0.81 0.63275 0.0
O137 O 0.79556 0.8584 0.63258 0.0
O138 O 0.88792 0.69936 0.6406 0.0
O139 O 0.8133 0.68754 0.62749 0.0
O140 O 0.77443 0.19532 0.29023 0.0
Cd141 Cd 0.75293 0.19753 0.32158 0.0
Cd142 Cd 0.83091 0.25838 0.32544 0.0
O143 O 0.82743 0.25702 0.29286 0.0
O144 O 0.68096 0.18498 0.32233 0.0
O145 O 0.7153 0.25663 0.33162 0.0
C146 C 0.67613 0.23031 0.32843 0.0
C147 C 0.85621 0.3332 0.34025 0.0
C148 C 0.8042 0.22583 0.28167 0.0
C149 C 0.83377 0.15665 0.34647 0.0
O150 O 0.8567 0.19561 0.34078 0.0
O151 O 0.78858 0.15054 0.34195 0.0
O152 O 0.88629 0.30514 0.33003 0.0
O153 O 0.81069 0.31946 0.3419 0.0
O154 O 0.87487 0.80207 0.78828 0.0
Cd155 Cd 0.89563 0.80452 0.81965 0.0
Cd156 Cd 0.81993 0.74045 0.82475 0.0
O157 O 0.82344 0.7392 0.79217 0.0
O158 O 0.96704 0.82062 0.8203 0.0
O159 O 0.93577 0.74868 0.83142 0.0
C160 C 0.97379 0.77646 0.82769 0.0
C161 C 0.79568 0.66669 0.84125 0.0
C162 C 0.84575 0.7703 0.78038 0.0
C163 C 0.81153 0.8443 0.84305 0.0
O164 O 0.79093 0.80347 0.83848 0.0
O165 O 0.85645 0.85235 0.83839 0.0
O166 O 0.76551 0.69287 0.83018 0.0
O167 O 0.84084 0.68152 0.8427 0.0
O168 O 0.53094 0.55551 0.03903 0.0
Cd169 Cd 0.52262 0.5757 0.07027 0.0
Cd170 Cd 0.57763 0.49239 0.07703 0.0
O171 O 0.57909 0.49073 0.0445 0.0
O172 O 0.50536 0.64694 0.06897 0.0
O173 O 0.57462 0.61842 0.08345 0.0
C174 C 0.54727 0.6555 0.07788 0.0
C175 C 0.65053 0.46802 0.09366 0.0
C176 C 0.55628 0.51959 0.03197 0.0
C177 C 0.47263 0.49502 0.09377 0.0
O178 O 0.51244 0.47084 0.09127 0.0
O179 O 0.46874 0.53957 0.08743 0.0
O180 O 0.62253 0.43679 0.08414 0.0
O181 O 0.63744 0.51401 0.09387 0.0
O182 O 0.12262 0.45851 0.53631 0.0
Cd183 Cd 0.12683 0.43907 0.56789 0.0
Cd184 Cd 0.06298 0.51774 0.5721 0.0
O185 O 0.06092 0.5115 0.53964 0.0
O186 O 0.15147 0.36986 0.56829 0.0
O187 O 0.07674 0.39133 0.5796 0.0
C188 C 0.10876 0.35703 0.57562 0.0
C189 C 0.98983 0.54345 0.58848 0.0
C190 C 0.09105 0.48758 0.5281 0.0
C191 C 0.16688 0.52569 0.59002 0.0
O192 O 0.1266 0.54686 0.58508 0.0
O193 O 0.17402 0.48021 0.58606 0.0
O194 O 0.01593 0.57299 0.57695 0.0
O195 O 0.00446 0.49815 0.59048 0.0
O196 O 0.53453 0.45161 0.93322 0.0
Cd197 Cd 0.53054 0.43566 0.90136 0.0
Cd198 Cd 0.58875 0.51664 0.89776 0.0
O199 O 0.58746 0.51353 0.93028 0.0
O200 O 0.51357 0.3644 0.89997 0.0
O201 O 0.5849 0.39554 0.88839 0.0
C202 C 0.55697 0.35755 0.892 0.0
C203 C 0.66326 0.53936 0.88187 0.0
C204 C 0.56111 0.48486 0.94163 0.0
C205 C 0.48608 0.52062 0.879 0.0
O206 O 0.52595 0.54316 0.88327 0.0
O207 O 0.48026 0.47525 0.88379 0.0
O208 O 0.63666 0.57066 0.89217 0.0
O209 O 0.64822 0.49405 0.88083 0.0
O210 O 0.12296 0.54795 0.42907 0.0
Cd211 Cd 0.12467 0.57041 0.39782 0.0
Cd212 Cd 0.06021 0.49267 0.39331 0.0
O213 O 0.05935 0.4974 0.42586 0.0
O214 O 0.14904 0.6396 0.39821 0.0
O215 O 0.07326 0.61873 0.3882 0.0
C216 C 0.10545 0.65278 0.39221 0.0
C217 C 0.98652 0.46701 0.37773 0.0
C218 C 0.09082 0.51947 0.43732 0.0
C219 C 0.16266 0.48634 0.37358 0.0
O220 O 0.12305 0.46452 0.37909 0.0
O221 O 0.16983 0.53161 0.37785 0.0
O222 O 0.01334 0.43733 0.38879 0.0
O223 O 1.00076 0.51243 0.3757 0.0
C224 C 0.09514 0.22134 0.56136 0.0
C225 C 0.07189 0.2022 0.57985 0.0
C226 C 0.07782 0.28358 0.59681 0.0
C227 C 0.09566 0.30386 0.57735 0.0
N228 N 0.11072 0.29376 0.53967 0.0
N229 N 0.03644 0.21488 0.61455 0.0
C230 C 0.10173 0.27318 0.55924 0.0
C231 C 0.06184 0.23327 0.59744 0.0
N232 N 0.11117 0.18991 0.54581 0.0
N233 N 0.07793 0.31172 0.61482 0.0
H234 H 0.02614 0.17772 0.61581 0.0
H235 H 0.02305 0.23692 0.62684 0.0
H236 H 0.09015 0.34836 0.61501 0.0
H237 H 0.06997 0.29762 0.62989 0.0
H238 H 0.13284 0.20136 0.53298 0.0
H239 H 0.10699 0.15158 0.54684 0.0
H240 H 0.11019 0.2735 0.52561 0.0
H241 H 0.11334 0.33184 0.53705 0.0
C242 C 0.04364 0.73025 0.81147 0.0
C243 C 0.02438 0.75639 0.82912 0.0
C244 C 0.10429 0.74984 0.84716 0.0
C245 C 0.12489 0.72881 0.82847 0.0
N246 N 0.11643 0.70921 0.79115 0.0
N247 N 0.03636 0.79569 0.863 0.0
C248 C 0.09514 0.72145 0.81019 0.0
C249 C 0.05473 0.76759 0.84678 0.0
N250 N 0.01271 0.7138 0.79588 0.0
N251 N 0.13136 0.75112 0.86545 0.0
H252 H 0.99961 0.80731 0.8636 0.0
H253 H 0.0581 0.80991 0.87515 0.0
H254 H 0.16742 0.7377 0.86638 0.0
H255 H 0.11682 0.76148 0.88012 0.0
H256 H 0.02399 0.69002 0.78381 0.0
H257 H 0.97472 0.72008 0.7961 0.0
H258 H 0.09715 0.70873 0.77685 0.0
H259 H 0.15437 0.70471 0.78909 0.0
C260 C 0.58597 0.72688 0.05932 0.0
C261 C 0.56639 0.70661 0.07837 0.0
C262 C 0.57781 0.78615 0.09634 0.0
C263 C 0.5923 0.80767 0.07663 0.0
N264 N 0.60128 0.80077 0.03848 0.0
N265 N 0.53931 0.71645 0.1146 0.0
C266 C 0.59428 0.7786 0.05788 0.0
C267 C 0.56118 0.73606 0.09683 0.0
N268 N 0.59725 0.69651 0.04263 0.0
N269 N 0.58153 0.81304 0.11463 0.0
H270 H 0.52835 0.67944 0.11561 0.0
H271 H 0.52936 0.73736 0.1278 0.0
H272 H 0.59383 0.84966 0.11482 0.0
H273 H 0.57625 0.79806 0.12975 0.0
H274 H 0.6167 0.70838 0.02922 0.0
H275 H 0.59127 0.65832 0.04298 0.0
H276 H 0.59741 0.7822 0.0241 0.0
H277 H 0.60617 0.83881 0.0365 0.0
C278 C 0.59447 0.24289 0.3466 0.0
C279 C 0.6265 0.25271 0.32921 0.0
C280 C 0.55819 0.28805 0.3089 0.0
C281 C 0.52655 0.28139 0.32677 0.0
N282 N 0.51659 0.26161 0.364 0.0
N283 N 0.64211 0.29443 0.29584 0.0
C284 C 0.54522 0.26134 0.34606 0.0
C285 C 0.60942 0.27878 0.31108 0.0
N286 N 0.61094 0.2154 0.36345 0.0
N287 N 0.539 0.29988 0.28942 0.0
H288 H 0.67998 0.28783 0.29675 0.0
H289 H 0.63233 0.31801 0.28338 0.0
H290 H 0.50136 0.30464 0.2867 0.0
H291 H 0.55975 0.29977 0.27544 0.0
H292 H 0.58787 0.20206 0.37546 0.0
H293 H 0.64748 0.20351 0.36477 0.0
H294 H 0.52972 0.25193 0.379 0.0
H295 H 0.48078 0.27584 0.36428 0.0
C296 C 0.08999 0.78606 0.40999 0.0
C297 C 0.06357 0.80637 0.39264 0.0
C298 C 0.07088 0.72783 0.37351 0.0
C299 C 0.09163 0.70584 0.392 0.0
N300 N 0.11153 0.71184 0.4294 0.0
N301 N 0.02486 0.79684 0.3585 0.0
C302 C 0.09906 0.73441 0.41064 0.0
C303 C 0.05286 0.77734 0.37452 0.0
N304 N 0.10636 0.81614 0.42592 0.0
N305 N 0.07006 0.70212 0.35484 0.0
H306 H 0.01306 0.83365 0.35838 0.0
H307 H 0.01099 0.77591 0.346 0.0
H308 H 0.08383 0.66618 0.35345 0.0
H309 H 0.05982 0.71778 0.34035 0.0
H310 H 0.13023 0.80416 0.43784 0.0
H311 H 0.09998 0.85424 0.42611 0.0
H312 H 0.11201 0.73021 0.44393 0.0
H313 H 0.11632 0.67371 0.43102 0.0
C314 C 0.53998 0.77067 0.65998 0.0
C315 C 0.5216 0.74632 0.64175 0.0
C316 C 0.60196 0.75599 0.6241 0.0
C317 C 0.62178 0.77491 0.6433 0.0
N318 N 0.61189 0.78986 0.68098 0.0
N319 N 0.53516 0.71121 0.60709 0.0
C320 C 0.59135 0.77977 0.66163 0.0
C321 C 0.55265 0.73758 0.62396 0.0
N322 N 0.50836 0.78508 0.67578 0.0
N323 N 0.62951 0.75742 0.60585 0.0
H324 H 0.49859 0.69926 0.60612 0.0
H325 H 0.55749 0.6987 0.59472 0.0
H326 H 0.66536 0.77152 0.60528 0.0
H327 H 0.61548 0.74872 0.59093 0.0
H328 H 0.51903 0.80753 0.68839 0.0
H329 H 0.47042 0.77864 0.67528 0.0
H330 H 0.5921 0.78847 0.69521 0.0
H331 H 0.64973 0.79433 0.68327 0.0
C332 C 0.59757 0.28522 0.90892 0.0
C333 C 0.57661 0.30677 0.89048 0.0
C334 C 0.58667 0.22849 0.87133 0.0
C335 C 0.60232 0.20557 0.89054 0.0
N336 N 0.61323 0.20995 0.92867 0.0
N337 N 0.54692 0.29936 0.85461 0.0
C338 C 0.60561 0.23339 0.90961 0.0
C339 C 0.57 0.27856 0.87176 0.0
N340 N 0.60996 0.31438 0.92582 0.0
N341 N 0.58935 0.20299 0.85264 0.0
H342 H 0.53609 0.33647 0.85421 0.0
H343 H 0.53594 0.27931 0.84134 0.0
H344 H 0.60191 0.16651 0.85177 0.0
H345 H 0.58307 0.21907 0.83782 0.0
H346 H 0.63039 0.30156 0.93873 0.0
H347 H 0.60382 0.35254 0.92611 0.0
H348 H 0.6103 0.22768 0.94329 0.0
H349 H 0.6175 0.17173 0.93019 0.0
C350 C 0.10304 0.23639 0.15909 0.0
C351 C 0.12163 0.2634 0.14145 0.0
C352 C 0.04125 0.25718 0.12381 0.0
C353 C 0.02127 0.23533 0.14255 0.0
N354 N 0.031 0.2139 0.17972 0.0
N355 N 0.10852 0.30397 0.10775 0.0
C356 C 0.05162 0.22724 0.16063 0.0
C357 C 0.09075 0.27512 0.12398 0.0
N358 N 0.13456 0.21938 0.17442 0.0
N359 N 0.01362 0.25909 0.10568 0.0
H360 H 0.14517 0.31584 0.10702 0.0
H361 H 0.08638 0.31855 0.09575 0.0
H362 H 0.9776 0.24556 0.1049 0.0
H363 H 0.02768 0.27011 0.09096 0.0
H364 H 0.1238 0.19504 0.18648 0.0
H365 H 0.17252 0.22577 0.17394 0.0
H366 H 0.05071 0.21284 0.19391 0.0
H367 H 0.99316 0.20897 0.18197 0.0
C368 C 0.05572 0.0369 0.47343 0.0
C369 C 0.0545 0.98705 0.46634 0.0
C370 C 0.05125 0.95805 0.5032 0.0
C371 C 0.05908 0.00742 0.51017 0.0
N372 N 0.07859 0.09255 0.5017 0.0
N373 N 0.05954 0.89962 0.47435 0.0
C374 C 0.06413 0.04655 0.49523 0.0
C375 C 0.05463 0.94736 0.48118 0.0
N376 N 0.04645 0.07505 0.45961 0.0
N377 N 0.03822 0.9218 0.51742 0.0
H378 H 0.06261 0.89031 0.45833 0.0
H379 H 0.06516 0.86979 0.48464 0.0
H380 H 0.03345 0.92829 0.53363 0.0
H381 H 0.02718 0.88647 0.51284 0.0
H382 H 0.04207 0.11162 0.4645 0.0
H383 H 0.03772 0.06974 0.44364 0.0
H384 H 0.08774 0.121 0.49113 0.0
H385 H 0.08634 0.10078 0.51751 0.0
C386 C 0.27721 0.7269 0.74312 0.0
C387 C 0.3171 0.72324 0.75755 0.0
C388 C 0.37594 0.72283 0.72794 0.0
C389 C 0.33586 0.72226 0.71348 0.0
N390 N 0.24846 0.71078 0.70747 0.0
N391 N 0.40332 0.70521 0.76374 0.0
C392 C 0.28644 0.72051 0.7211 0.0
C393 C 0.36622 0.71754 0.74999 0.0
N394 N 0.23091 0.73847 0.75027 0.0
N395 N 0.42305 0.73056 0.72079 0.0
H396 H 0.39754 0.69942 0.77997 0.0
H397 H 0.43876 0.69568 0.75871 0.0
H398 H 0.43184 0.73548 0.70478 0.0
H399 H 0.45278 0.73673 0.73091 0.0
H400 H 0.20163 0.74664 0.74013 0.0
H401 H 0.2228 0.74466 0.76626 0.0
H402 H 0.21238 0.70433 0.71259 0.0
H403 H 0.25378 0.70381 0.69133 0.0
C404 C 0.59134 0.04786 -0.00366 0.0
C405 C 0.58784 0.99914 0.00484 0.0
C406 C 0.59144 0.96492 0.96897 0.0
C407 C 0.58919 0.01368 0.96046 0.0
N408 N 0.57553 0.10107 0.96607 0.0
N409 N 0.57311 0.91198 -0.0009 0.0
C410 C 0.58579 0.0551 0.97414 0.0
C411 C 0.58457 0.95777 -0.00888 0.0
N412 N 0.60223 0.08698 0.00923 0.0
N413 N 0.60237 0.92563 0.95613 0.0
H414 H 0.56588 0.9056 0.01519 0.0
H415 H 0.56565 0.88155 -0.0105 0.0
H416 H 0.60957 0.9293 0.9399 0.0
H417 H 0.60933 0.89015 0.96201 0.0
H418 H 0.61004 0.12234 0.0034 0.0
H419 H 0.60861 0.08321 0.0255 0.0
H420 H 0.56801 0.13163 0.97561 0.0
H421 H 0.56931 0.10753 0.94994 0.0
C422 C 0.36626 0.28432 0.21827 0.0
C423 C 0.31716 0.27532 0.21139 0.0
C424 C 0.28922 0.27121 0.24831 0.0
C425 C 0.33911 0.27392 0.25511 0.0
N426 N 0.42601 0.2743 0.24653 0.0
N427 N 0.23372 0.25016 0.21975 0.0
C428 C 0.37799 0.278 0.24008 0.0
C429 C 0.27908 0.26588 0.22637 0.0
N430 N 0.40116 0.30113 0.20421 0.0
N431 N 0.25137 0.27618 0.26261 0.0
H432 H 0.22515 0.24466 0.20379 0.0
H433 H 0.20631 0.23783 0.23018 0.0
H434 H 0.25687 0.28238 0.27878 0.0
H435 H 0.21453 0.27949 0.25808 0.0
H436 H 0.43607 0.31302 0.20886 0.0
H437 H 0.39375 0.30807 0.18821 0.0
H438 H 0.45563 0.272 0.23596 0.0
H439 H 0.43593 0.26871 0.26237 0.0
C440 C 0.78196 0.22296 0.22207 0.0
C441 C 0.83109 0.22729 0.21435 0.0
C442 C 0.86227 0.2214 0.25068 0.0
C443 C 0.81309 0.22454 0.25849 0.0
N444 N 0.72623 0.23725 0.25147 0.0
N445 N 0.91789 0.23904 0.22143 0.0
C446 C 0.77284 0.22763 0.24416 0.0
C447 C 0.87134 0.22871 0.22867 0.0
N448 N 0.74418 0.21251 0.20843 0.0
N449 N 0.90011 0.20951 0.26412 0.0
H450 H 0.92589 0.24594 0.20545 0.0
H451 H 0.94763 0.24552 0.2315 0.0
H452 H 0.8948 0.20183 0.28024 0.0
H453 H 0.93585 0.20205 0.25883 0.0
H454 H 0.70854 0.20405 0.21358 0.0
H455 H 0.74944 0.20706 0.19216 0.0
H456 H 0.69668 0.24513 0.24143 0.0
H457 H 0.7179 0.24219 0.2675 0.0
C458 C 0.77622 0.76909 0.72809 0.0
C459 C 0.81583 0.77258 0.71337 0.0
C460 C 0.87523 0.76894 0.74256 0.0
C461 C 0.83562 0.77103 0.75732 0.0
N462 N 0.74866 0.78499 0.76399 0.0
N463 N 0.90265 0.78761 0.70681 0.0
C464 C 0.78608 0.7744 0.75008 0.0
C465 C 0.86532 0.77578 0.72063 0.0
N466 N 0.72949 0.75897 0.72119 0.0
N467 N 0.92206 0.75865 0.74932 0.0
H468 H 0.89689 0.79496 0.69071 0.0
H469 H 0.93853 0.79529 0.71174 0.0
H470 H 0.93074 0.7522 0.76522 0.0
H471 H 0.95128 0.75164 0.73893 0.0
H472 H 0.70027 0.75111 0.7315 0.0
H473 H 0.72093 0.75346 0.70522 0.0
H474 H 0.71272 0.7927 0.75911 0.0
H475 H 0.75437 0.79137 0.78014 0.0
C476 C 0.51406 0.50113 0.97519 0.0
C477 C 0.5598 0.49198 0.96485 0.0
C478 C 0.6037 0.5061 -0.0018 0.0
C479 C 0.55767 0.50997 0.00891 0.0
N480 N 0.46903 0.49915 0.00841 0.0
N481 N 0.64725 0.47547 0.96727 0.0
C482 C 0.51276 0.50404 -0.00234 0.0
C483 C 0.60446 0.49148 0.97657 0.0
N484 N 0.4722 0.50935 0.96359 0.0
N485 N 0.64652 0.51833 0.00836 0.0
H486 H 0.64904 0.46324 0.95157 0.0
H487 H 0.67979 0.46964 0.97571 0.0
H488 H 0.6475 0.53062 0.02405 0.0
H489 H 0.68049 0.52099 0.0006 0.0
H490 H 0.43914 0.52131 0.97037 0.0
H491 H 0.4716 0.50926 0.94701 0.0
H492 H 0.43603 0.48971 0.00098 0.0
H493 H 0.46649 0.49929 0.02496 0.0
C494 C 0.08682 0.45449 0.49099 0.0
C495 C 0.09074 0.49552 0.50487 0.0
C496 C 0.08831 0.5523 0.47445 0.0
C497 C 0.09045 0.5112 0.46054 0.0
N498 N 0.10258 0.42319 0.45567 0.0
N499 N 0.10683 0.58297 0.50955 0.0
C500 C 0.09269 0.4622 0.46881 0.0
C501 C 0.09473 0.54438 0.49656 0.0
N502 N 0.07568 0.4085 0.49886 0.0
N503 N 0.07823 0.59863 0.46672 0.0
H504 H 0.11393 0.57863 0.52574 0.0
H505 H 0.11498 0.61834 0.50382 0.0
H506 H 0.0713 0.60572 0.45069 0.0
H507 H 0.07155 0.62898 0.4765 0.0
H508 H 0.06756 0.37838 0.48919 0.0
H509 H 0.06958 0.40156 0.51499 0.0
H510 H 0.1095 0.38747 0.46127 0.0
H511 H 0.10897 0.42729 0.43939 0.0
C512 C 0.2493 0.91516 0.6351 0.0
C513 C 0.27469 0.88099 0.62197 0.0
C514 C 0.24198 0.9229 0.59047 0.0
C515 C 0.2078 0.9482 0.60361 0.0
N516 N 0.17933 0.97044 0.63871 0.0
N517 N 0.29657 0.85246 0.5868 0.0
C518 C 0.21236 0.94607 0.62605 0.0
C519 C 0.27261 0.8857 0.59951 0.0
N520 N 0.2604 0.91739 0.65625 0.0
N521 N 0.24446 0.9343 0.5693 0.0
H522 H 0.31993 0.82501 0.59267 0.0
H523 H 0.29113 0.85028 0.57045 0.0
H524 H 0.22245 0.96185 0.56247 0.0
H525 H 0.2714 0.9203 0.5591 0.0
H526 H 0.24625 0.94421 0.66644 0.0
H527 H 0.2878 0.89524 0.66306 0.0
H528 H 0.17701 0.96519 0.6551 0.0
H529 H 0.15232 0.99413 0.63273 0.0
C530 C 0.38085 0.88612 0.8709 0.0
C531 C 0.37967 0.88042 0.84848 0.0
C532 C 0.44265 0.94488 0.8441 0.0
C533 C 0.44621 0.9481 0.86654 0.0
N534 N 0.40773 0.93613 0.90068 0.0
N535 N 0.3954 0.91559 0.81392 0.0
C536 C 0.41124 0.92363 0.8797 0.0
C537 C 0.40578 0.91394 0.83515 0.0
N538 N 0.35622 0.85358 0.88384 0.0
N539 N 0.47651 0.96819 0.83136 0.0
H540 H 0.36802 0.8935 0.80716 0.0
H541 H 0.41008 0.94202 0.80356 0.0
H542 H 0.50362 0.99179 0.8372 0.0
H543 H 0.47946 0.96198 0.81508 0.0
H544 H 0.36097 0.85217 0.90026 0.0
H545 H 0.33304 0.82592 0.87815 0.0
H546 H 0.38018 0.9228 0.9108 0.0
H547 H 0.42949 0.96395 0.90733 0.0
C548 C 0.43635 0.06853 0.12059 0.0
C549 C 0.43988 0.06601 0.0981 0.0
C550 C 0.37491 0.12862 0.09435 0.0
C551 C 0.37386 0.13351 0.11678 0.0
N552 N 0.3895 0.09736 0.15111 0.0
N553 N 0.402 0.07999 0.06408 0.0
C554 C 0.39977 0.09947 0.12983 0.0
C555 C 0.40526 0.0914 0.08517 0.0
N556 N 0.47011 0.04467 0.13309 0.0
N557 N 0.34996 0.16156 0.0818 0.0
H558 H 0.42368 0.05237 0.05717 0.0
H559 H 0.37481 0.0941 0.05407 0.0
H560 H 0.32667 0.18876 0.08791 0.0
H561 H 0.35434 0.16366 0.06536 0.0
H562 H 0.47313 0.05041 0.1494 0.0
H563 H 0.49715 0.02113 0.12706 0.0
H564 H 0.40397 0.0705 0.16128 0.0
H565 H 0.36242 0.11956 0.15811 0.0
C566 C 0.16008 0.12743 0.3623 0.0
C567 C 0.17605 0.08027 0.36948 0.0
C568 C 0.258 0.09643 0.3541 0.0
C569 C 0.24329 0.14592 0.34962 0.0
N570 N 0.1843 0.21182 0.35557 0.0
N571 N 0.24266 0.02219 0.37506 0.0
C572 C 0.19549 0.16241 0.35551 0.0
C573 C 0.22574 0.06516 0.36614 0.0
N574 N 0.11084 0.13842 0.3612 0.0
N575 N 0.30168 0.07876 0.3463 0.0
H576 H 0.22029 0.99869 0.38411 0.0
H577 H 0.27977 0.01202 0.37497 0.0
H578 H 0.32587 0.1004 0.33726 0.0
H579 H 0.31186 0.0416 0.34726 0.0
H580 H 0.09757 0.17094 0.35427 0.0
H581 H 0.08322 0.11273 0.3648 0.0
H582 H 0.15111 0.22558 0.36158 0.0
H583 H 0.21017 0.23938 0.35212 0.0
C584 C 0.90756 0.08641 0.38795 0.0
C585 C 0.92826 0.04865 0.37507 0.0
C586 C 0.87696 0.07507 0.34511 0.0
C587 C 0.86159 0.11678 0.35712 0.0
N588 N 0.86304 0.1643 0.38944 0.0
N589 N 0.93648 0.00864 0.34103 0.0
C590 C 0.87693 0.12295 0.37845 0.0
C591 C 0.91344 0.04283 0.35363 0.0
N592 N 0.91623 0.08639 0.40938 0.0
N593 N 0.85719 0.0667 0.32547 0.0
H594 H 0.96338 0.98429 0.34666 0.0
H595 H 0.93173 0.00662 0.32464 0.0
H596 H 0.83214 0.0907 0.31821 0.0
H597 H 0.86268 0.03414 0.31697 0.0
H598 H 0.89855 0.11001 0.41999 0.0
H599 H 0.93789 0.0596 0.4169 0.0
H600 H 0.87789 0.17415 0.40407 0.0
H601 H 0.83835 0.19044 0.38338 0.0
C602 C 0.74022 0.07747 0.08809 0.0
C603 C 0.701 0.05865 0.10084 0.0
C604 C 0.73331 0.10193 0.13189 0.0
C605 C 0.76892 0.12534 0.11861 0.0
N606 N 0.80492 0.13914 0.084 0.0
N607 N 0.65736 0.05459 0.13427 0.0
C608 C 0.77247 0.11371 0.09671 0.0
C609 C 0.69681 0.07122 0.12261 0.0
N610 N 0.74638 0.06086 0.06774 0.0
N611 N 0.73546 0.10795 0.15347 0.0
H612 H 0.63125 0.02993 0.1283 0.0
H613 H 0.6488 0.06733 0.14945 0.0
H614 H 0.7621 0.12977 0.16087 0.0
H615 H 0.71378 0.08805 0.16422 0.0
H616 H 0.77714 0.06901 0.05839 0.0
H617 H 0.72229 0.0359 0.06057 0.0
H618 H 0.80547 0.13671 0.06749 0.0
H619 H 0.82947 0.16549 0.08986 0.0
C620 C 0.76467 0.8797 0.8736 0.0
C621 C 0.78101 0.8841 0.85224 0.0
C622 C 0.72813 0.957 0.84676 0.0
C623 C 0.71016 0.95106 0.86782 0.0
N624 N 0.71798 0.91507 0.90285 0.0
N625 N 0.77798 0.92408 0.81787 0.0
C626 C 0.73029 0.91466 0.8817 0.0
C627 C 0.76334 0.92258 0.83873 0.0
N628 N 0.78098 0.84104 0.88587 0.0
N629 N 0.71146 0.99563 0.83456 0.0
H630 H 0.8041 0.89993 0.81147 0.0
H631 H 0.76305 0.94757 0.80643 0.0
H632 H 0.68401 0.02 0.83964 0.0
H633 H 0.72611 0.00549 0.81984 0.0
H634 H 0.7661 0.8316 0.90062 0.0
H635 H 0.80839 0.81651 0.88085 0.0
H636 H 0.73473 0.89291 0.91432 0.0
H637 H 0.69342 0.94058 0.90943 0.0
C638 C 0.8878 0.93001 0.63207 0.0
C639 C 0.87105 0.89088 0.61889 0.0
C640 C 0.92079 0.92265 0.58927 0.0
C641 C 0.94238 0.95759 0.60324 0.0
N642 N 0.94903 0.99432 0.63791 0.0
N643 N 0.87201 0.84791 0.58539 0.0
C644 C 0.92609 0.96178 0.62458 0.0
C645 C 0.88746 0.88679 0.59755 0.0
N646 N 0.86746 0.93634 0.65182 0.0
N647 N 0.93128 0.92474 0.56797 0.0
H648 H 0.84532 0.8226 0.59052 0.0
H649 H 0.88733 0.83911 0.57068 0.0
H650 H 0.95519 0.95092 0.56131 0.0
H651 H 0.9132 0.90358 0.55661 0.0
H652 H 0.87423 0.96699 0.66135 0.0
H653 H 0.8409 0.91256 0.65823 0.0
H654 H 0.9431 0.99538 0.65426 0.0
H655 H 0.97658 0.01866 0.63279 0.0
C656 C 0.73963 0.42002 0.13524 0.0
C657 C 0.76522 0.38532 0.12244 0.0
C658 C 0.73074 0.42428 0.09057 0.0
C659 C 0.6967 0.45011 0.10357 0.0
N660 N 0.66909 0.4748 0.13846 0.0
N661 N 0.78634 0.35449 0.08752 0.0
C662 C 0.702 0.44975 0.12598 0.0
C663 C 0.7623 0.38829 0.09993 0.0
N664 N 0.75125 0.42392 0.15629 0.0
N665 N 0.73224 0.43401 0.06923 0.0
H666 H 0.81039 0.3279 0.09359 0.0
H667 H 0.78033 0.35095 0.07126 0.0
H668 H 0.70951 0.46059 0.06214 0.0
H669 H 0.75905 0.41967 0.05906 0.0
H670 H 0.73692 0.45119 0.16621 0.0
H671 H 0.77918 0.4027 0.16324 0.0
H672 H 0.66732 0.47093 0.15493 0.0
H673 H 0.64165 0.49769 0.13224 0.0
C674 C 0.90122 0.41285 0.33634 0.0
C675 C 0.87507 0.37954 0.34973 0.0
C676 C 0.90634 0.42312 0.3809 0.0
C677 C 0.94114 0.4477 0.3677 0.0
N678 N 0.97157 0.4676 0.33253 0.0
N679 N 0.85122 0.35309 0.38507 0.0
C680 C 0.93776 0.44418 0.34526 0.0
C681 C 0.87603 0.3855 0.37213 0.0
N682 N 0.8912 0.41391 0.31506 0.0
N683 N 0.90296 0.43561 0.40189 0.0
H684 H 0.8281 0.32542 0.37934 0.0
H685 H 0.85569 0.35183 0.4015 0.0
H686 H 0.92473 0.46346 0.4085 0.0
H687 H 0.87558 0.42217 0.41206 0.0
H688 H 0.90591 0.44015 0.30462 0.0
H689 H 0.86411 0.39146 0.3083 0.0
H690 H 0.97477 0.46123 0.31627 0.0
H691 H 0.99841 0.49153 0.33838 0.0
C692 C 0.91024 0.58905 0.58643 0.0
C693 C 0.9448 0.56272 0.59905 0.0
C694 C 0.90393 0.59338 0.63115 0.0
C695 C 0.87809 0.62844 0.61857 0.0
N696 N 0.85587 0.65999 0.58386 0.0
N697 N 0.97487 0.53924 0.63383 0.0
C698 C 0.87991 0.62564 0.59606 0.0
C699 C 0.94101 0.56358 0.62156 0.0
N700 N 0.90691 0.57909 0.5652 0.0
N701 N 0.89311 0.58912 0.65232 0.0
H702 H 1.00246 0.51668 0.62758 0.0
H703 H 0.97753 0.54383 0.65022 0.0
H704 H 0.86561 0.61036 0.65956 0.0
H705 H 0.90752 0.56138 0.66206 0.0
H706 H 0.87962 0.5939 0.55542 0.0
H707 H 0.92846 0.55189 0.55792 0.0
H708 H 0.86108 0.66346 0.5675 0.0
H709 H 0.83284 0.68712 0.59018 0.0
C710 C 0.77499 0.61869 0.87452 0.0
C711 C 0.7771 0.62145 0.852 0.0
C712 C 0.71413 0.55678 0.8491 0.0
C713 C 0.70938 0.5567 0.87158 0.0
N714 N 0.74601 0.5732 0.90556 0.0
N715 N 0.76279 0.5821 0.8184 0.0
C716 C 0.74382 0.58272 0.88423 0.0
C717 C 0.75153 0.58636 0.8395 0.0
N718 N 0.79953 0.6526 0.88659 0.0
N719 N 0.68082 0.53189 0.83687 0.0
H720 H 0.79048 0.60335 0.8112 0.0
H721 H 0.74851 0.55447 0.80869 0.0
H722 H 0.6533 0.50922 0.8432 0.0
H723 H 0.67872 0.53584 0.82041 0.0
H724 H 0.79421 0.6563 0.90292 0.0
H725 H 0.82343 0.679 0.88018 0.0
H726 H 0.77302 0.5878 0.91548 0.0
H727 H 0.72362 0.54654 0.91287 0.0
C728 C 0.44871 0.56303 0.84761 0.0
C729 C 0.4454 0.54896 0.8693 0.0
C730 C 0.37341 0.6029 0.8743 0.0
C731 C 0.37663 0.61666 0.85257 0.0
N732 N 0.40905 0.60215 0.81737 0.0
N733 N 0.40072 0.54788 0.90258 0.0
C734 C 0.41184 0.59435 0.83885 0.0
C735 C 0.4062 0.56623 0.88239 0.0
N736 N 0.48779 0.54734 0.83555 0.0
N737 N 0.34077 0.62673 0.88738 0.0
H738 H 0.42508 0.52238 0.90931 0.0
H739 H 0.37021 0.55506 0.91219 0.0
H740 H 0.31577 0.65322 0.88187 0.0
H741 H 0.3403 0.62274 0.90385 0.0
H742 H 0.49585 0.56123 0.82046 0.0
H743 H 0.51397 0.52207 0.84111 0.0
H744 H 0.43047 0.58322 0.80629 0.0
H745 H 0.38214 0.6245 0.81035 0.0
C746 C 0.22401 0.54815 0.61976 0.0
C747 C 0.20749 0.55591 0.59864 0.0
C748 C 0.26121 0.62853 0.59492 0.0
C749 C 0.27849 0.62026 0.61588 0.0
N750 N 0.28336 0.56838 0.64719 0.0
N751 N 0.2177 0.59569 0.56445 0.0
C752 C 0.26237 0.57855 0.6279 0.0
C753 C 0.22828 0.59387 0.58571 0.0
N754 N 0.20112 0.5136 0.63237 0.0
N755 N 0.2756 0.67007 0.58398 0.0
H756 H 0.19425 0.57045 0.55706 0.0
H757 H 0.23541 0.61929 0.55373 0.0
H758 H 0.302 0.69474 0.58972 0.0
H759 H 0.25955 0.6816 0.56978 0.0
H760 H 0.20732 0.50995 0.64863 0.0
H761 H 0.17302 0.49056 0.62691 0.0
H762 H 0.2772 0.53572 0.65566 0.0
H763 H 0.30992 0.59099 0.65416 0.0
C764 C 0.19842 0.44289 0.34212 0.0
C765 C 0.20239 0.45711 0.36369 0.0
C766 C 0.27517 0.40421 0.36824 0.0
C767 C 0.27211 0.3912 0.34647 0.0
N768 N 0.23831 0.40564 0.31154 0.0
N769 N 0.24833 0.45876 0.39653 0.0
C770 C 0.23588 0.41278 0.33305 0.0
C771 C 0.24225 0.44039 0.37647 0.0
N772 N 0.15836 0.4574 0.33046 0.0
N773 N 0.30745 0.37986 0.38132 0.0
H774 H 0.22369 0.48352 0.40355 0.0
H775 H 0.27965 0.45235 0.40569 0.0
H776 H 0.33215 0.35304 0.37591 0.0
H777 H 0.30739 0.38333 0.3978 0.0
H778 H 0.15018 0.44336 0.31549 0.0
H779 H 0.13146 0.48152 0.33628 0.0
H780 H 0.21596 0.42418 0.30067 0.0
H781 H 0.26582 0.38446 0.3043 0.0
C782 C 0.39346 0.44923 0.08894 0.0
C783 C 0.42957 0.46899 0.10287 0.0
C784 C 0.39134 0.42605 0.13306 0.0
C785 C 0.36012 0.40073 0.11867 0.0
N786 N 0.33006 0.38694 0.08325 0.0
N787 N 0.46387 0.47758 0.13792 0.0
C788 C 0.36017 0.41254 0.09671 0.0
C789 C 0.42843 0.45823 0.12493 0.0
N790 N 0.39155 0.46517 0.06828 0.0
N791 N 0.38505 0.41943 0.15449 0.0
H792 H 0.48986 0.50345 0.13263 0.0
H793 H 0.46907 0.46663 0.15365 0.0
H794 H 0.35823 0.3959 0.16092 0.0
H795 H 0.40343 0.43999 0.16596 0.0
H796 H 0.36352 0.45578 0.05777 0.0
H797 H 0.41627 0.49095 0.06192 0.0
H798 H 0.33207 0.38934 0.06675 0.0
H799 H 0.30416 0.36109 0.08863 0.0
loop_
_geom_bond_atom_site_label_1
_geom_bond_atom_site_label_2
_geom_bond_distance
_geom_bond_site_symmetry_2
_ccdc_geom_bond_type
O0 Cd1 2.223 . S
O0 C8 1.315 1_655 S
Cd1 O0 2.223 . S
Cd1 O4 2.297 1_655 S
Cd1 O5 2.439 1_655 S
Cd1 O11 2.240 1_545 S
Cd2 O3 2.240 1_565 S
Cd2 O10 2.222 . S
Cd2 O12 2.297 . S
Cd2 O13 2.439 . S
O3 Cd2 2.240 1_545 S
O3 C8 1.279 . S
O4 Cd1 2.297 1_455 S
O4 C6 1.247 . S
O5 Cd1 2.439 1_455 S
O5 C6 1.208 . S
C6 O4 1.247 . S
C6 O5 1.208 . S
C7 O12 1.247 . S
C7 O13 1.208 . S
C8 O0 1.315 1_455 S
C8 O3 1.279 . S
C9 O10 1.316 1_655 S
C9 O11 1.279 . S
O10 Cd2 2.222 . S
O10 C9 1.316 1_455 S
O11 Cd1 2.240 1_565 S
O11 C9 1.279 . S
O12 Cd2 2.297 . S
O12 C7 1.247 . S
O13 Cd2 2.439 . S
O13 C7 1.208 . S
O14 Cd15 2.223 . S
O14 C22 1.315 . S
Cd15 O14 2.223 . S
Cd15 O18 2.297 . S
Cd15 O19 2.439 . S
Cd15 O25 2.240 . S
Cd16 O17 2.240 . S
Cd16 O24 2.223 . S
Cd16 O26 2.297 . S
Cd16 O27 2.439 . S
O17 Cd16 2.240 . S
O17 C22 1.279 . S
O18 Cd15 2.297 . S
O18 C20 1.247 . S
O19 Cd15 2.439 . S
O19 C20 1.208 . S
C20 O18 1.247 . S
C20 O19 1.208 . S
C21 O26 1.247 . S
C21 O27 1.208 . S
C22 O14 1.315 . S
C22 O17 1.279 . S
C23 O24 1.315 . S
C23 O25 1.279 . S
O24 Cd16 2.223 . S
O24 C23 1.315 . S
O25 Cd15 2.240 . S
O25 C23 1.279 . S
O26 Cd16 2.297 . S
O26 C21 1.247 . S
O27 Cd16 2.439 . S
O27 C21 1.208 . S
O28 Cd29 2.223 . S
O28 C36 1.315 . S
Cd29 O28 2.223 . S
Cd29 O32 2.297 . S
Cd29 O33 2.439 . S
Cd29 O39 2.240 1_565 S
Cd30 O31 2.240 1_545 S
Cd30 O38 2.223 . S
Cd30 O40 2.297 . S
Cd30 O41 2.439 . S
O31 Cd30 2.240 1_565 S
O31 C36 1.279 . S
O32 Cd29 2.297 . S
O32 C34 1.247 . S
O33 Cd29 2.439 . S
O33 C34 1.208 . S
C34 O32 1.247 . S
C34 O33 1.208 . S
C35 O40 1.247 . S
C35 O41 1.208 . S
C36 O28 1.315 . S
C36 O31 1.279 . S
C37 O38 1.315 . S
C37 O39 1.279 . S
O38 Cd30 2.223 . S
O38 C37 1.315 . S
O39 Cd29 2.240 1_545 S
O39 C37 1.279 . S
O40 Cd30 2.297 . S
O40 C35 1.247 . S
O41 Cd30 2.439 . S
O41 C35 1.208 . S
O42 Cd43 2.223 . S
O42 C50 1.315 . S
Cd43 O42 2.223 . S
Cd43 O46 2.297 . S
Cd43 O47 2.439 . S
Cd43 O53 2.240 . S
Cd44 O45 2.240 . S
Cd44 O52 2.223 . S
Cd44 O54 2.297 . S
Cd44 O55 2.439 . S
O45 Cd44 2.240 . S
O45 C50 1.279 . S
O46 Cd43 2.297 . S
O46 C48 1.247 . S
O47 Cd43 2.439 . S
O47 C48 1.208 . S
C48 O46 1.247 . S
C48 O47 1.208 . S
C49 O54 1.247 . S
C49 O55 1.208 . S
C50 O42 1.315 . S
C50 O45 1.279 . S
C51 O52 1.315 . S
C51 O53 1.279 . S
O52 Cd44 2.223 . S
O52 C51 1.315 . S
O53 Cd43 2.240 . S
O53 C51 1.279 . S
O54 Cd44 2.297 . S
O54 C49 1.247 . S
O55 Cd44 2.439 . S
O55 C49 1.208 . S
O56 Cd57 2.223 . S
O56 C64 1.315 1_655 S
Cd57 O56 2.223 . S
Cd57 O60 2.297 1_655 S
Cd57 O61 2.439 1_655 S
Cd57 O67 2.240 1_565 S
Cd58 O59 2.240 1_545 S
Cd58 O66 2.222 . S
Cd58 O68 2.297 . S
Cd58 O69 2.439 . S
O59 Cd58 2.240 1_565 S
O59 C64 1.279 . S
O60 Cd57 2.297 1_455 S
O60 C62 1.247 . S
O61 Cd57 2.439 1_455 S
O61 C62 1.208 . S
C62 O60 1.247 . S
C62 O61 1.208 . S
C63 O68 1.247 . S
C63 O69 1.208 . S
C64 O56 1.315 1_455 S
C64 O59 1.279 . S
C65 O66 1.316 1_655 S
C65 O67 1.279 . S
O66 Cd58 2.222 . S
O66 C65 1.316 1_455 S
O67 Cd57 2.240 1_545 S
O67 C65 1.279 . S
O68 Cd58 2.297 . S
O68 C63 1.247 . S
O69 Cd58 2.439 . S
O69 C63 1.208 . S
O70 Cd71 2.223 . S
O70 C78 1.315 . S
Cd71 O70 2.223 . S
Cd71 O74 2.297 . S
Cd71 O75 2.439 . S
Cd71 O81 2.240 . S
Cd72 O73 2.240 . S
Cd72 O80 2.223 . S
Cd72 O82 2.297 . S
Cd72 O83 2.439 . S
O73 Cd72 2.240 . S
O73 C78 1.279 . S
O74 Cd71 2.297 . S
O74 C76 1.247 . S
O75 Cd71 2.439 . S
O75 C76 1.208 . S
C76 O74 1.247 . S
C76 O75 1.208 . S
C77 O82 1.247 . S
C77 O83 1.208 . S
C78 O70 1.315 . S
C78 O73 1.279 . S
C79 O80 1.315 . S
C79 O81 1.279 . S
O80 Cd72 2.223 . S
O80 C79 1.315 . S
O81 Cd71 2.240 . S
O81 C79 1.279 . S
O82 Cd72 2.297 . S
O82 C77 1.247 . S
O83 Cd72 2.439 . S
O83 C77 1.208 . S
O84 Cd85 2.223 . S
O84 C92 1.315 . S
Cd85 O84 2.223 . S
Cd85 O88 2.297 . S
Cd85 O89 2.439 . S
Cd85 O95 2.240 1_545 S
Cd86 O87 2.240 1_565 S
Cd86 O94 2.223 . S
Cd86 O96 2.297 . S
Cd86 O97 2.439 . S
O87 Cd86 2.240 1_545 S
O87 C92 1.279 . S
O88 Cd85 2.297 . S
O88 C90 1.247 . S
O89 Cd85 2.439 . S
O89 C90 1.208 . S
C90 O88 1.247 . S
C90 O89 1.208 . S
C91 O96 1.247 . S
C91 O97 1.208 . S
C92 O84 1.315 . S
C92 O87 1.279 . S
C93 O94 1.315 . S
C93 O95 1.279 . S
O94 Cd86 2.223 . S
O94 C93 1.315 . S
O95 Cd85 2.240 1_565 S
O95 C93 1.279 . S
O96 Cd86 2.297 . S
O96 C91 1.247 . S
O97 Cd86 2.439 . S
O97 C91 1.208 . S
O98 Cd99 2.223 . S
O98 C106 1.315 . S
Cd99 O98 2.223 . S
Cd99 O102 2.297 . S
Cd99 O103 2.439 . S
Cd99 O109 2.240 . S
Cd100 O101 2.240 . S
Cd100 O108 2.223 . S
Cd100 O110 2.297 . S
Cd100 O111 2.439 . S
O101 Cd100 2.240 . S
O101 C106 1.279 . S
O102 Cd99 2.297 . S
O102 C104 1.247 . S
O103 Cd99 2.439 . S
O103 C104 1.208 . S
C104 O102 1.247 . S
C104 O103 1.208 . S
C105 O110 1.247 . S
C105 O111 1.208 . S
C106 O98 1.315 . S
C106 O101 1.279 . S
C107 O108 1.315 . S
C107 O109 1.279 . S
O108 Cd100 2.223 . S
O108 C107 1.315 . S
O109 Cd99 2.240 . S
O109 C107 1.279 . S
O110 Cd100 2.297 . S
O110 C105 1.247 . S
O111 Cd100 2.439 . S
O111 C105 1.208 . S
O112 Cd113 2.223 . S
O112 C120 1.315 . S
Cd113 O112 2.223 . S
Cd113 O116 2.297 . S
Cd113 O117 2.439 . S
Cd113 O123 2.240 . S
Cd114 O115 2.240 . S
Cd114 O122 2.223 . S
Cd114 O124 2.297 . S
Cd114 O125 2.439 . S
O115 Cd114 2.240 . S
O115 C120 1.279 . S
O116 Cd113 2.297 . S
O116 C118 1.247 . S
O117 Cd113 2.439 . S
O117 C118 1.208 . S
C118 O116 1.247 . S
C118 O117 1.208 . S
C119 O124 1.247 . S
C119 O125 1.208 . S
C120 O112 1.315 . S
C120 O115 1.279 . S
C121 O122 1.315 . S
C121 O123 1.279 . S
O122 Cd114 2.223 . S
O122 C121 1.315 . S
O123 Cd113 2.240 . S
O123 C121 1.279 . S
O124 Cd114 2.297 . S
O124 C119 1.247 . S
O125 Cd114 2.439 . S
O125 C119 1.208 . S
O126 Cd127 2.223 . S
O126 C134 1.315 . S
Cd127 O126 2.223 . S
Cd127 O130 2.297 . S
Cd127 O131 2.439 . S
Cd127 O137 2.240 . S
Cd128 O129 2.240 . S
Cd128 O136 2.223 . S
Cd128 O138 2.297 . S
Cd128 O139 2.439 . S
O129 Cd128 2.240 . S
O129 C134 1.279 . S
O130 Cd127 2.297 . S
O130 C132 1.247 . S
O131 Cd127 2.439 . S
O131 C132 1.208 . S
C132 O130 1.247 . S
C132 O131 1.208 . S
C133 O138 1.247 . S
C133 O139 1.208 . S
C134 O126 1.315 . S
C134 O129 1.279 . S
C135 O136 1.315 . S
C135 O137 1.279 . S
O136 Cd128 2.223 . S
O136 C135 1.315 . S
O137 Cd127 2.240 . S
O137 C135 1.279 . S
O138 Cd128 2.297 . S
O138 C133 1.247 . S
O139 Cd128 2.439 . S
O139 C133 1.208 . S
O140 Cd141 2.223 . S
O140 C148 1.315 . S
Cd141 O140 2.223 . S
Cd141 O144 2.297 . S
Cd141 O145 2.439 . S
Cd141 O151 2.240 . S
Cd142 O143 2.240 . S
Cd142 O150 2.223 . S
Cd142 O152 2.297 . S
Cd142 O153 2.439 . S
O143 Cd142 2.240 . S
O143 C148 1.279 . S
O144 Cd141 2.297 . S
O144 C146 1.247 . S
O145 Cd141 2.439 . S
O145 C146 1.208 . S
C146 O144 1.247 . S
C146 O145 1.208 . S
C147 O152 1.247 . S
C147 O153 1.208 . S
C148 O140 1.315 . S
C148 O143 1.279 . S
C149 O150 1.315 . S
C149 O151 1.279 . S
O150 Cd142 2.223 . S
O150 C149 1.315 . S
O151 Cd141 2.240 . S
O151 C149 1.279 . S
O152 Cd142 2.297 . S
O152 C147 1.247 . S
O153 Cd142 2.439 . S
O153 C147 1.208 . S
O154 Cd155 2.223 . S
O154 C162 1.315 . S
Cd155 O154 2.223 . S
Cd155 O158 2.297 . S
Cd155 O159 2.439 . S
Cd155 O165 2.240 . S
Cd156 O157 2.240 . S
Cd156 O164 2.223 . S
Cd156 O166 2.297 . S
Cd156 O167 2.439 . S
O157 Cd156 2.240 . S
O157 C162 1.279 . S
O158 Cd155 2.297 . S
O158 C160 1.247 . S
O159 Cd155 2.439 . S
O159 C160 1.208 . S
C160 O158 1.247 . S
C160 O159 1.208 . S
C161 O166 1.247 . S
C161 O167 1.208 . S
C162 O154 1.315 . S
C162 O157 1.279 . S
C163 O164 1.315 . S
C163 O165 1.279 . S
O164 Cd156 2.223 . S
O164 C163 1.315 . S
O165 Cd155 2.240 . S
O165 C163 1.279 . S
O166 Cd156 2.297 . S
O166 C161 1.247 . S
O167 Cd156 2.439 . S
O167 C161 1.208 . S
O168 Cd169 2.223 . S
O168 C176 1.315 . S
Cd169 O168 2.223 . S
Cd169 O172 2.297 . S
Cd169 O173 2.439 . S
Cd169 O179 2.240 . S
Cd170 O171 2.240 . S
Cd170 O178 2.223 . S
Cd170 O180 2.297 . S
Cd170 O181 2.439 . S
O171 Cd170 2.240 . S
O171 C176 1.279 . S
O172 Cd169 2.297 . S
O172 C174 1.247 . S
O173 Cd169 2.439 . S
O173 C174 1.208 . S
C174 O172 1.247 . S
C174 O173 1.208 . S
C175 O180 1.247 . S
C175 O181 1.208 . S
C176 O168 1.315 . S
C176 O171 1.279 . S
C177 O178 1.315 . S
C177 O179 1.279 . S
O178 Cd170 2.223 . S
O178 C177 1.315 . S
O179 Cd169 2.240 . S
O179 C177 1.279 . S
O180 Cd170 2.297 . S
O180 C175 1.247 . S
O181 Cd170 2.439 . S
O181 C175 1.208 . S
O182 Cd183 2.223 . S
O182 C190 1.315 . S
Cd183 O182 2.223 . S
Cd183 O186 2.297 . S
Cd183 O187 2.439 . S
Cd183 O193 2.240 . S
Cd184 O185 2.240 . S
Cd184 O192 2.223 . S
Cd184 O194 2.297 . S
Cd184 O195 2.439 . S
O185 Cd184 2.240 . S
O185 C190 1.279 . S
O186 Cd183 2.297 . S
O186 C188 1.247 . S
O187 Cd183 2.439 . S
O187 C188 1.208 . S
C188 O186 1.247 . S
C188 O187 1.208 . S
C189 O194 1.247 . S
C189 O195 1.208 . S
C190 O182 1.315 . S
C190 O185 1.279 . S
C191 O192 1.315 . S
C191 O193 1.279 . S
O192 Cd184 2.223 . S
O192 C191 1.315 . S
O193 Cd183 2.240 . S
O193 C191 1.279 . S
O194 Cd184 2.297 . S
O194 C189 1.247 . S
O195 Cd184 2.439 . S
O195 C189 1.208 . S
O196 Cd197 2.223 . S
O196 C204 1.315 . S
Cd197 O196 2.223 . S
Cd197 O200 2.297 . S
Cd197 O201 2.439 . S
Cd197 O207 2.240 . S
Cd198 O199 2.240 . S
Cd198 O206 2.223 . S
Cd198 O208 2.297 . S
Cd198 O209 2.439 . S
O199 Cd198 2.240 . S
O199 C204 1.279 . S
O200 Cd197 2.297 . S
O200 C202 1.247 . S
O201 Cd197 2.439 . S
O201 C202 1.208 . S
C202 O200 1.247 . S
C202 O201 1.208 . S
C203 O208 1.247 . S
C203 O209 1.208 . S
C204 O196 1.315 . S
C204 O199 1.279 . S
C205 O206 1.315 . S
C205 O207 1.279 . S
O206 Cd198 2.223 . S
O206 C205 1.315 . S
O207 Cd197 2.240 . S
O207 C205 1.279 . S
O208 Cd198 2.297 . S
O208 C203 1.247 . S
O209 Cd198 2.439 . S
O209 C203 1.208 . S
O210 Cd211 2.223 . S
O210 C218 1.315 . S
Cd211 O210 2.223 . S
Cd211 O214 2.297 . S
Cd211 O215 2.439 . S
Cd211 O221 2.240 . S
Cd212 O213 2.240 . S
Cd212 O220 2.223 . S
Cd212 O222 2.297 . S
Cd212 O223 2.439 . S
O213 Cd212 2.240 . S
O213 C218 1.279 . S
O214 Cd211 2.297 . S
O214 C216 1.247 . S
O215 Cd211 2.439 . S
O215 C216 1.208 . S
C216 O214 1.247 . S
C216 O215 1.208 . S
C217 O222 1.247 . S
C217 O223 1.208 . S
C218 O210 1.315 . S
C218 O213 1.279 . S
C219 O220 1.315 . S
C219 O221 1.279 . S
O220 Cd212 2.223 . S
O220 C219 1.315 . S
O221 Cd211 2.240 . S
O221 C219 1.279 . S
O222 Cd212 2.297 . S
O222 C217 1.247 . S
O223 Cd212 2.439 . S
O223 C217 1.208 . S
C224 C225 1.363 . S
C224 C230 1.379 . S
C224 N232 1.356 . S
C225 C224 1.363 . S
C225 C231 1.363 . S
C226 C227 1.363 . S
C226 C231 1.379 . S
C226 N233 1.356 . S
C227 C226 1.363 . S
C227 C230 1.363 . S
N228 C230 1.356 . S
N228 H240 0.984 . S
N228 H241 0.985 . S
N229 C231 1.356 . S
N229 H234 0.984 . S
N229 H235 0.985 . S
C230 C224 1.379 . S
C230 C227 1.363 . S
C230 N228 1.356 . S
C231 C225 1.363 . S
C231 C226 1.379 . S
C231 N229 1.356 . S
N232 C224 1.356 . S
N232 H238 0.984 . S
N232 H239 0.984 . S
N233 C226 1.356 . S
N233 H236 0.984 . S
N233 H237 0.985 . S
H234 N229 0.984 . S
H235 N229 0.985 . S
H236 N233 0.984 . S
H237 N233 0.985 . S
H238 N232 0.984 . S
H239 N232 0.984 . S
H240 N228 0.984 . S
H241 N228 0.985 . S
C242 C243 1.363 . S
C242 C248 1.379 . S
C242 N250 1.356 . S
C243 C242 1.363 . S
C243 C249 1.363 . S
C244 C245 1.363 . S
C244 C249 1.379 . S
C244 N251 1.356 . S
C245 C244 1.363 . S
C245 C248 1.363 . S
N246 C248 1.356 . S
N246 H258 0.984 . S
N246 H259 0.985 . S
N247 C249 1.356 . S
N247 H252 0.984 1_455 S
N247 H253 0.985 . S
C248 C242 1.379 . S
C248 C245 1.363 . S
C248 N246 1.356 . S
C249 C243 1.363 . S
C249 C244 1.379 . S
C249 N247 1.356 . S
N250 C242 1.356 . S
N250 H256 0.984 . S
N250 H257 0.984 1_455 S
N251 C244 1.356 . S
N251 H254 0.984 . S
N251 H255 0.985 . S
H252 N247 0.984 1_655 S
H253 N247 0.985 . S
H254 N251 0.984 . S
H255 N251 0.985 . S
H256 N250 0.984 . S
H257 N250 0.984 1_655 S
H258 N246 0.984 . S
H259 N246 0.985 . S
C260 C261 1.363 . S
C260 C266 1.379 . S
C260 N268 1.356 . S
C261 C260 1.363 . S
C261 C267 1.363 . S
C262 C263 1.363 . S
C262 C267 1.379 . S
C262 N269 1.356 . S
C263 C262 1.363 . S
C263 C266 1.363 . S
N264 C266 1.356 . S
N264 H276 0.984 . S
N264 H277 0.985 . S
N265 C267 1.356 . S
N265 H270 0.984 . S
N265 H271 0.985 . S
C266 C260 1.379 . S
C266 C263 1.363 . S
C266 N264 1.356 . S
C267 C261 1.363 . S
C267 C262 1.379 . S
C267 N265 1.356 . S
N268 C260 1.356 . S
N268 H274 0.984 . S
N268 H275 0.984 . S
N269 C262 1.356 . S
N269 H272 0.984 . S
N269 H273 0.985 . S
H270 N265 0.984 . S
H271 N265 0.985 . S
H272 N269 0.984 . S
H273 N269 0.985 . S
H274 N268 0.984 . S
H275 N268 0.984 . S
H276 N264 0.984 . S
H277 N264 0.985 . S
C278 C279 1.363 . S
C278 C284 1.379 . S
C278 N286 1.356 . S
C279 C278 1.363 . S
C279 C285 1.363 . S
C280 C281 1.363 . S
C280 C285 1.379 . S
C280 N287 1.356 . S
C281 C280 1.363 . S
C281 C284 1.363 . S
N282 C284 1.356 . S
N282 H294 0.984 . S
N282 H295 0.985 . S
N283 C285 1.356 . S
N283 H288 0.984 . S
N283 H289 0.985 . S
C284 C278 1.379 . S
C284 C281 1.363 . S
C284 N282 1.356 . S
C285 C279 1.363 . S
C285 C280 1.379 . S
C285 N283 1.356 . S
N286 C278 1.356 . S
N286 H292 0.984 . S
N286 H293 0.984 . S
N287 C280 1.356 . S
N287 H290 0.984 . S
N287 H291 0.985 . S
H288 N283 0.984 . S
H289 N283 0.985 . S
H290 N287 0.984 . S
H291 N287 0.985 . S
H292 N286 0.984 . S
H293 N286 0.984 . S
H294 N282 0.984 . S
H295 N282 0.985 . S
C296 C297 1.363 . S
C296 C302 1.379 . S
C296 N304 1.356 . S
C297 C296 1.363 . S
C297 C303 1.363 . S
C298 C299 1.363 . S
C298 C303 1.379 . S
C298 N305 1.356 . S
C299 C298 1.363 . S
C299 C302 1.363 . S
N300 C302 1.356 . S
N300 H312 0.984 . S
N300 H313 0.985 . S
N301 C303 1.356 . S
N301 H306 0.984 . S
N301 H307 0.985 . S
C302 C296 1.379 . S
C302 C299 1.363 . S
C302 N300 1.356 . S
C303 C297 1.363 . S
C303 C298 1.379 . S
C303 N301 1.356 . S
N304 C296 1.356 . S
N304 H310 0.984 . S
N304 H311 0.984 . S
N305 C298 1.356 . S
N305 H308 0.984 . S
N305 H309 0.985 . S
H306 N301 0.984 . S
H307 N301 0.985 . S
H308 N305 0.984 . S
H309 N305 0.985 . S
H310 N304 0.984 . S
H311 N304 0.984 . S
H312 N300 0.984 . S
H313 N300 0.985 . S
C314 C315 1.363 . S
C314 C320 1.379 . S
C314 N322 1.356 . S
C315 C314 1.363 . S
C315 C321 1.363 . S
C316 C317 1.363 . S
C316 C321 1.379 . S
C316 N323 1.356 . S
C317 C316 1.363 . S
C317 C320 1.363 . S
N318 C320 1.356 . S
N318 H330 0.984 . S
N318 H331 0.985 . S
N319 C321 1.356 . S
N319 H324 0.984 . S
N319 H325 0.985 . S
C320 C314 1.379 . S
C320 C317 1.363 . S
C320 N318 1.356 . S
C321 C315 1.363 . S
C321 C316 1.379 . S
C321 N319 1.356 . S
N322 C314 1.356 . S
N322 H328 0.984 . S
N322 H329 0.984 . S
N323 C316 1.356 . S
N323 H326 0.984 . S
N323 H327 0.985 . S
H324 N319 0.984 . S
H325 N319 0.985 . S
H326 N323 0.984 . S
H327 N323 0.985 . S
H328 N322 0.984 . S
H329 N322 0.984 . S
H330 N318 0.984 . S
H331 N318 0.985 . S
C332 C333 1.363 . S
C332 C338 1.379 . S
C332 N340 1.356 . S
C333 C332 1.363 . S
C333 C339 1.363 . S
C334 C335 1.363 . S
C334 C339 1.379 . S
C334 N341 1.356 . S
C335 C334 1.363 . S
C335 C338 1.363 . S
N336 C338 1.356 . S
N336 H348 0.984 . S
N336 H349 0.985 . S
N337 C339 1.356 . S
N337 H342 0.984 . S
N337 H343 0.985 . S
C338 C332 1.379 . S
C338 C335 1.363 . S
C338 N336 1.356 . S
C339 C333 1.363 . S
C339 C334 1.379 . S
C339 N337 1.356 . S
N340 C332 1.356 . S
N340 H346 0.984 . S
N340 H347 0.984 . S
N341 C334 1.356 . S
N341 H344 0.984 . S
N341 H345 0.985 . S
H342 N337 0.984 . S
H343 N337 0.985 . S
H344 N341 0.984 . S
H345 N341 0.985 . S
H346 N340 0.984 . S
H347 N340 0.984 . S
H348 N336 0.984 . S
H349 N336 0.985 . S
C350 C351 1.363 . S
C350 C356 1.379 . S
C350 N358 1.356 . S
C351 C350 1.363 . S
C351 C357 1.363 . S
C352 C353 1.363 . S
C352 C357 1.379 . S
C352 N359 1.356 . S
C353 C352 1.363 . S
C353 C356 1.363 . S
N354 C356 1.356 . S
N354 H366 0.984 . S
N354 H367 0.985 1_455 S
N355 C357 1.356 . S
N355 H360 0.984 . S
N355 H361 0.985 . S
C356 C350 1.379 . S
C356 C353 1.363 . S
C356 N354 1.356 . S
C357 C351 1.363 . S
C357 C352 1.379 . S
C357 N355 1.356 . S
N358 C350 1.356 . S
N358 H364 0.984 . S
N358 H365 0.984 . S
N359 C352 1.356 . S
N359 H362 0.984 1_455 S
N359 H363 0.985 . S
H360 N355 0.984 . S
H361 N355 0.985 . S
H362 N359 0.984 1_655 S
H363 N359 0.985 . S
H364 N358 0.984 . S
H365 N358 0.984 . S
H366 N354 0.984 . S
H367 N354 0.985 1_655 S
C368 C369 1.364 1_645 S
C368 C374 1.379 . S
C368 N376 1.356 . S
C369 C368 1.364 1_465 S
C369 C375 1.362 . S
C370 C371 1.362 1_565 S
C370 C375 1.379 . S
C370 N377 1.356 . S
C371 C370 1.362 1_545 S
C371 C374 1.364 1_455 S
N372 C374 1.356 . S
N372 H384 0.984 . S
N372 H385 0.985 . S
N373 C375 1.356 . S
N373 H378 0.984 . S
N373 H379 0.985 . S
C374 C368 1.379 . S
C374 C371 1.364 1_655 S
C374 N372 1.356 . S
C375 C369 1.362 . S
C375 C370 1.379 . S
C375 N373 1.356 . S
N376 C368 1.356 . S
N376 H382 0.984 . S
N376 H383 0.984 . S
N377 C370 1.356 . S
N377 H380 0.984 . S
N377 H381 0.985 . S
H378 N373 0.984 . S
H379 N373 0.985 . S
H380 N377 0.984 . S
H381 N377 0.985 . S
H382 N376 0.984 . S
H383 N376 0.984 . S
H384 N372 0.984 . S
H385 N372 0.985 . S
C386 C387 1.363 . S
C386 C392 1.379 . S
C386 N394 1.356 . S
C387 C386 1.363 . S
C387 C393 1.363 . S
C388 C389 1.363 . S
C388 C393 1.379 . S
C388 N395 1.356 . S
C389 C388 1.363 . S
C389 C392 1.363 . S
N390 C392 1.356 . S
N390 H402 0.984 . S
N390 H403 0.985 . S
N391 C393 1.356 . S
N391 H396 0.984 . S
N391 H397 0.985 . S
C392 C386 1.379 . S
C392 C389 1.363 . S
C392 N390 1.356 . S
C393 C387 1.363 . S
C393 C388 1.379 . S
C393 N391 1.356 . S
N394 C386 1.356 . S
N394 H400 0.984 . S
N394 H401 0.984 . S
N395 C388 1.356 . S
N395 H398 0.984 . S
N395 H399 0.985 . S
H396 N391 0.984 . S
H397 N391 0.985 . S
H398 N395 0.984 . S
H399 N395 0.985 . S
H400 N394 0.984 . S
H401 N394 0.984 . S
H402 N390 0.984 . S
H403 N390 0.985 . S
C404 C405 1.363 1_545 S
C404 C410 1.379 1_554 S
C404 N412 1.356 . S
C405 C404 1.363 1_565 S
C405 C411 1.363 . S
C406 C407 1.363 1_565 S
C406 C411 1.379 1_556 S
C406 N413 1.356 . S
C407 C406 1.363 1_545 S
C407 C410 1.363 . S
N408 C410 1.356 . S
N408 H420 0.984 . S
N408 H421 0.985 . S
N409 C411 1.356 . S
N409 H414 0.984 . S
N409 H415 0.985 . S
C410 C404 1.379 1_556 S
C410 C407 1.363 . S
C410 N408 1.356 . S
C411 C405 1.363 . S
C411 C406 1.379 1_554 S
C411 N409 1.356 . S
N412 C404 1.356 . S
N412 H418 0.984 . S
N412 H419 0.984 . S
N413 C406 1.356 . S
N413 H416 0.984 . S
N413 H417 0.985 . S
H414 N409 0.984 . S
H415 N409 0.985 . S
H416 N413 0.984 . S
H417 N413 0.985 . S
H418 N412 0.984 . S
H419 N412 0.984 . S
H420 N408 0.984 . S
H421 N408 0.985 . S
C422 C423 1.363 . S
C422 C428 1.379 . S
C422 N430 1.356 . S
C423 C422 1.363 . S
C423 C429 1.363 . S
C424 C425 1.363 . S
C424 C429 1.379 . S
C424 N431 1.356 . S
C425 C424 1.363 . S
C425 C428 1.363 . S
N426 C428 1.356 . S
N426 H438 0.984 . S
N426 H439 0.985 . S
N427 C429 1.356 . S
N427 H432 0.984 . S
N427 H433 0.985 . S
C428 C422 1.379 . S
C428 C425 1.363 . S
C428 N426 1.356 . S
C429 C423 1.363 . S
C429 C424 1.379 . S
C429 N427 1.356 . S
N430 C422 1.356 . S
N430 H436 0.984 . S
N430 H437 0.984 . S
N431 C424 1.356 . S
N431 H434 0.984 . S
N431 H435 0.985 . S
H432 N427 0.984 . S
H433 N427 0.985 . S
H434 N431 0.984 . S
H435 N431 0.985 . S
H436 N430 0.984 . S
H437 N430 0.984 . S
H438 N426 0.984 . S
H439 N426 0.985 . S
C440 C441 1.363 . S
C440 C446 1.379 . S
C440 N448 1.356 . S
C441 C440 1.363 . S
C441 C447 1.363 . S
C442 C443 1.363 . S
C442 C447 1.379 . S
C442 N449 1.356 . S
C443 C442 1.363 . S
C443 C446 1.363 . S
N444 C446 1.356 . S
N444 H456 0.984 . S
N444 H457 0.985 . S
N445 C447 1.356 . S
N445 H450 0.984 . S
N445 H451 0.985 . S
C446 C440 1.379 . S
C446 C443 1.363 . S
C446 N444 1.356 . S
C447 C441 1.363 . S
C447 C442 1.379 . S
C447 N445 1.356 . S
N448 C440 1.356 . S
N448 H454 0.984 . S
N448 H455 0.984 . S
N449 C442 1.356 . S
N449 H452 0.984 . S
N449 H453 0.985 . S
H450 N445 0.984 . S
H451 N445 0.985 . S
H452 N449 0.984 . S
H453 N449 0.985 . S
H454 N448 0.984 . S
H455 N448 0.984 . S
H456 N444 0.984 . S
H457 N444 0.985 . S
C458 C459 1.363 . S
C458 C464 1.379 . S
C458 N466 1.356 . S
C459 C458 1.363 . S
C459 C465 1.363 . S
C460 C461 1.363 . S
C460 C465 1.379 . S
C460 N467 1.356 . S
C461 C460 1.363 . S
C461 C464 1.363 . S
N462 C464 1.356 . S
N462 H474 0.984 . S
N462 H475 0.985 . S
N463 C465 1.356 . S
N463 H468 0.984 . S
N463 H469 0.985 . S
C464 C458 1.379 . S
C464 C461 1.363 . S
C464 N462 1.356 . S
C465 C459 1.363 . S
C465 C460 1.379 . S
C465 N463 1.356 . S
N466 C458 1.356 . S
N466 H472 0.984 . S
N466 H473 0.984 . S
N467 C460 1.356 . S
N467 H470 0.984 . S
N467 H471 0.985 . S
H468 N463 0.984 . S
H469 N463 0.985 . S
H470 N467 0.984 . S
H471 N467 0.985 . S
H472 N466 0.984 . S
H473 N466 0.984 . S
H474 N462 0.984 . S
H475 N462 0.985 . S
C476 C477 1.363 . S
C476 C482 1.379 1_556 S
C476 N484 1.356 . S
C477 C476 1.363 . S
C477 C483 1.363 . S
C478 C479 1.363 . S
C478 C483 1.379 1_554 S
C478 N485 1.356 . S
C479 C478 1.363 . S
C479 C482 1.363 . S
N480 C482 1.356 . S
N480 H492 0.984 . S
N480 H493 0.985 . S
N481 C483 1.356 . S
N481 H486 0.984 . S
N481 H487 0.985 . S
C482 C476 1.379 1_554 S
C482 C479 1.363 . S
C482 N480 1.356 . S
C483 C477 1.363 . S
C483 C478 1.379 1_556 S
C483 N481 1.356 . S
N484 C476 1.356 . S
N484 H490 0.984 . S
N484 H491 0.984 . S
N485 C478 1.356 . S
N485 H488 0.984 . S
N485 H489 0.985 . S
H486 N481 0.984 . S
H487 N481 0.985 . S
H488 N485 0.984 . S
H489 N485 0.985 . S
H490 N484 0.984 . S
H491 N484 0.984 . S
H492 N480 0.984 . S
H493 N480 0.985 . S
C494 C495 1.363 . S
C494 C500 1.379 . S
C494 N502 1.356 . S
C495 C494 1.363 . S
C495 C501 1.363 . S
C496 C497 1.363 . S
C496 C501 1.379 . S
C496 N503 1.356 . S
C497 C496 1.363 . S
C497 C500 1.363 . S
N498 C500 1.356 . S
N498 H510 0.984 . S
N498 H511 0.985 . S
N499 C501 1.356 . S
N499 H504 0.984 . S
N499 H505 0.985 . S
C500 C494 1.379 . S
C500 C497 1.363 . S
C500 N498 1.356 . S
C501 C495 1.363 . S
C501 C496 1.379 . S
C501 N499 1.356 . S
N502 C494 1.356 . S
N502 H508 0.984 . S
N502 H509 0.984 . S
N503 C496 1.356 . S
N503 H506 0.984 . S
N503 H507 0.985 . S
H504 N499 0.984 . S
H505 N499 0.985 . S
H506 N503 0.984 . S
H507 N503 0.985 . S
H508 N502 0.984 . S
H509 N502 0.984 . S
H510 N498 0.984 . S
H511 N498 0.985 . S
C512 C513 1.363 . S
C512 C518 1.379 . S
C512 N520 1.356 . S
C513 C512 1.363 . S
C513 C519 1.363 . S
C514 C515 1.363 . S
C514 C519 1.379 . S
C514 N521 1.356 . S
C515 C514 1.363 . S
C515 C518 1.363 . S
N516 C518 1.356 . S
N516 H528 0.984 . S
N516 H529 0.985 . S
N517 C519 1.356 . S
N517 H522 0.984 . S
N517 H523 0.985 . S
C518 C512 1.379 . S
C518 C515 1.363 . S
C518 N516 1.356 . S
C519 C513 1.363 . S
C519 C514 1.379 . S
C519 N517 1.356 . S
N520 C512 1.356 . S
N520 H526 0.984 . S
N520 H527 0.984 . S
N521 C514 1.356 . S
N521 H524 0.984 . S
N521 H525 0.985 . S
H522 N517 0.984 . S
H523 N517 0.985 . S
H524 N521 0.984 . S
H525 N521 0.985 . S
H526 N520 0.984 . S
H527 N520 0.984 . S
H528 N516 0.984 . S
H529 N516 0.985 . S
C530 C531 1.363 . S
C530 C536 1.379 . S
C530 N538 1.356 . S
C531 C530 1.363 . S
C531 C537 1.363 . S
C532 C533 1.363 . S
C532 C537 1.379 . S
C532 N539 1.356 . S
C533 C532 1.363 . S
C533 C536 1.363 . S
N534 C536 1.356 . S
N534 H546 0.984 . S
N534 H547 0.985 . S
N535 C537 1.356 . S
N535 H540 0.984 . S
N535 H541 0.985 . S
C536 C530 1.379 . S
C536 C533 1.363 . S
C536 N534 1.356 . S
C537 C531 1.363 . S
C537 C532 1.379 . S
C537 N535 1.356 . S
N538 C530 1.356 . S
N538 H544 0.984 . S
N538 H545 0.984 . S
N539 C532 1.356 . S
N539 H542 0.984 . S
N539 H543 0.985 . S
H540 N535 0.984 . S
H541 N535 0.985 . S
H542 N539 0.984 . S
H543 N539 0.985 . S
H544 N538 0.984 . S
H545 N538 0.984 . S
H546 N534 0.984 . S
H547 N534 0.985 . S
C548 C549 1.363 . S
C548 C554 1.379 . S
C548 N556 1.356 . S
C549 C548 1.363 . S
C549 C555 1.363 . S
C550 C551 1.363 . S
C550 C555 1.379 . S
C550 N557 1.356 . S
C551 C550 1.363 . S
C551 C554 1.363 . S
N552 C554 1.356 . S
N552 H564 0.984 . S
N552 H565 0.985 . S
N553 C555 1.356 . S
N553 H558 0.984 . S
N553 H559 0.985 . S
C554 C548 1.379 . S
C554 C551 1.363 . S
C554 N552 1.356 . S
C555 C549 1.363 . S
C555 C550 1.379 . S
C555 N553 1.356 . S
N556 C548 1.356 . S
N556 H562 0.984 . S
N556 H563 0.984 . S
N557 C550 1.356 . S
N557 H560 0.984 . S
N557 H561 0.985 . S
H558 N553 0.984 . S
H559 N553 0.985 . S
H560 N557 0.984 . S
H561 N557 0.985 . S
H562 N556 0.984 . S
H563 N556 0.984 . S
H564 N552 0.984 . S
H565 N552 0.985 . S
C566 C567 1.363 . S
C566 C572 1.379 . S
C566 N574 1.356 . S
C567 C566 1.363 . S
C567 C573 1.363 . S
C568 C569 1.363 . S
C568 C573 1.379 . S
C568 N575 1.356 . S
C569 C568 1.363 . S
C569 C572 1.363 . S
N570 C572 1.356 . S
N570 H582 0.984 . S
N570 H583 0.985 . S
N571 C573 1.356 . S
N571 H576 0.984 . S
N571 H577 0.985 . S
C572 C566 1.379 . S
C572 C569 1.363 . S
C572 N570 1.356 . S
C573 C567 1.363 . S
C573 C568 1.379 . S
C573 N571 1.356 . S
N574 C566 1.356 . S
N574 H580 0.984 . S
N574 H581 0.984 . S
N575 C568 1.356 . S
N575 H578 0.984 . S
N575 H579 0.985 . S
H576 N571 0.984 . S
H577 N571 0.985 . S
H578 N575 0.984 . S
H579 N575 0.985 . S
H580 N574 0.984 . S
H581 N574 0.984 . S
H582 N570 0.984 . S
H583 N570 0.985 . S
C584 C585 1.363 . S
C584 C590 1.379 . S
C584 N592 1.356 . S
C585 C584 1.363 . S
C585 C591 1.363 . S
C586 C587 1.363 . S
C586 C591 1.379 . S
C586 N593 1.356 . S
C587 C586 1.363 . S
C587 C590 1.363 . S
N588 C590 1.356 . S
N588 H600 0.984 . S
N588 H601 0.985 . S
N589 C591 1.356 . S
N589 H594 0.984 1_545 S
N589 H595 0.985 1_545 S
C590 C584 1.379 . S
C590 C587 1.363 . S
C590 N588 1.356 . S
C591 C585 1.363 . S
C591 C586 1.379 . S
C591 N589 1.356 . S
N592 C584 1.356 . S
N592 H598 0.984 . S
N592 H599 0.984 . S
N593 C586 1.356 . S
N593 H596 0.984 . S
N593 H597 0.985 . S
H594 N589 0.984 1_565 S
H595 N589 0.985 1_565 S
H596 N593 0.984 . S
H597 N593 0.985 . S
H598 N592 0.984 . S
H599 N592 0.984 . S
H600 N588 0.984 . S
H601 N588 0.985 . S
C602 C603 1.363 . S
C602 C608 1.379 . S
C602 N610 1.356 . S
C603 C602 1.363 . S
C603 C609 1.363 . S
C604 C605 1.363 . S
C604 C609 1.379 . S
C604 N611 1.356 . S
C605 C604 1.363 . S
C605 C608 1.363 . S
N606 C608 1.356 . S
N606 H618 0.984 . S
N606 H619 0.985 . S
N607 C609 1.356 . S
N607 H612 0.984 . S
N607 H613 0.985 . S
C608 C602 1.379 . S
C608 C605 1.363 . S
C608 N606 1.356 . S
C609 C603 1.363 . S
C609 C604 1.379 . S
C609 N607 1.356 . S
N610 C602 1.356 . S
N610 H616 0.984 . S
N610 H617 0.984 . S
N611 C604 1.356 . S
N611 H614 0.984 . S
N611 H615 0.985 . S
H612 N607 0.984 . S
H613 N607 0.985 . S
H614 N611 0.984 . S
H615 N611 0.985 . S
H616 N610 0.984 . S
H617 N610 0.984 . S
H618 N606 0.984 . S
H619 N606 0.985 . S
C620 C621 1.363 . S
C620 C626 1.379 . S
C620 N628 1.356 . S
C621 C620 1.363 . S
C621 C627 1.363 . S
C622 C623 1.363 . S
C622 C627 1.379 . S
C622 N629 1.356 1_565 S
C623 C622 1.363 . S
C623 C626 1.363 . S
N624 C626 1.356 . S
N624 H636 0.984 . S
N624 H637 0.985 . S
N625 C627 1.356 . S
N625 H630 0.984 . S
N625 H631 0.985 . S
C626 C620 1.379 . S
C626 C623 1.363 . S
C626 N624 1.356 . S
C627 C621 1.363 . S
C627 C622 1.379 . S
C627 N625 1.356 . S
N628 C620 1.356 . S
N628 H634 0.984 . S
N628 H635 0.984 . S
N629 C622 1.356 1_545 S
N629 H632 0.984 . S
N629 H633 0.985 . S
H630 N625 0.984 . S
H631 N625 0.985 . S
H632 N629 0.984 . S
H633 N629 0.985 . S
H634 N628 0.984 . S
H635 N628 0.984 . S
H636 N624 0.984 . S
H637 N624 0.985 . S
C638 C639 1.363 . S
C638 C644 1.379 . S
C638 N646 1.356 . S
C639 C638 1.363 . S
C639 C645 1.363 . S
C640 C641 1.363 . S
C640 C645 1.379 . S
C640 N647 1.356 . S
C641 C640 1.363 . S
C641 C644 1.363 . S
N642 C644 1.356 . S
N642 H654 0.984 1_565 S
N642 H655 0.985 1_565 S
N643 C645 1.356 . S
N643 H648 0.984 . S
N643 H649 0.985 . S
C644 C638 1.379 . S
C644 C641 1.363 . S
C644 N642 1.356 . S
C645 C639 1.363 . S
C645 C640 1.379 . S
C645 N643 1.356 . S
N646 C638 1.356 . S
N646 H652 0.984 . S
N646 H653 0.984 . S
N647 C640 1.356 . S
N647 H650 0.984 . S
N647 H651 0.985 . S
H648 N643 0.984 . S
H649 N643 0.985 . S
H650 N647 0.984 . S
H651 N647 0.985 . S
H652 N646 0.984 . S
H653 N646 0.984 . S
H654 N642 0.984 1_545 S
H655 N642 0.985 1_545 S
C656 C657 1.363 . S
C656 C662 1.379 . S
C656 N664 1.356 . S
C657 C656 1.363 . S
C657 C663 1.363 . S
C658 C659 1.363 . S
C658 C663 1.379 . S
C658 N665 1.356 . S
C659 C658 1.363 . S
C659 C662 1.363 . S
N660 C662 1.356 . S
N660 H672 0.984 . S
N660 H673 0.985 . S
N661 C663 1.356 . S
N661 H666 0.984 . S
N661 H667 0.985 . S
C662 C656 1.379 . S
C662 C659 1.363 . S
C662 N660 1.356 . S
C663 C657 1.363 . S
C663 C658 1.379 . S
C663 N661 1.356 . S
N664 C656 1.356 . S
N664 H670 0.984 . S
N664 H671 0.984 . S
N665 C658 1.356 . S
N665 H668 0.984 . S
N665 H669 0.985 . S
H666 N661 0.984 . S
H667 N661 0.985 . S
H668 N665 0.984 . S
H669 N665 0.985 . S
H670 N664 0.984 . S
H671 N664 0.984 . S
H672 N660 0.984 . S
H673 N660 0.985 . S
C674 C675 1.363 . S
C674 C680 1.379 . S
C674 N682 1.356 . S
C675 C674 1.363 . S
C675 C681 1.363 . S
C676 C677 1.363 . S
C676 C681 1.379 . S
C676 N683 1.356 . S
C677 C676 1.363 . S
C677 C680 1.363 . S
N678 C680 1.356 1_455 S
N678 H690 0.984 . S
N678 H691 0.985 . S
N679 C681 1.356 . S
N679 H684 0.984 . S
N679 H685 0.985 . S
C680 C674 1.379 . S
C680 C677 1.363 . S
C680 N678 1.356 1_655 S
C681 C675 1.363 . S
C681 C676 1.379 . S
C681 N679 1.356 . S
N682 C674 1.356 . S
N682 H688 0.984 . S
N682 H689 0.984 . S
N683 C676 1.356 . S
N683 H686 0.984 . S
N683 H687 0.985 . S
H684 N679 0.984 . S
H685 N679 0.985 . S
H686 N683 0.984 . S
H687 N683 0.985 . S
H688 N682 0.984 . S
H689 N682 0.984 . S
H690 N678 0.984 . S
H691 N678 0.985 . S
C692 C693 1.363 . S
C692 C698 1.379 . S
C692 N700 1.356 1_655 S
C693 C692 1.363 . S
C693 C699 1.363 . S
C694 C695 1.363 . S
C694 C699 1.379 . S
C694 N701 1.356 . S
C695 C694 1.363 . S
C695 C698 1.363 . S
N696 C698 1.356 . S
N696 H708 0.984 . S
N696 H709 0.985 . S
N697 C699 1.356 . S
N697 H702 0.984 . S
N697 H703 0.985 . S
C698 C692 1.379 . S
C698 C695 1.363 . S
C698 N696 1.356 . S
C699 C693 1.363 . S
C699 C694 1.379 . S
C699 N697 1.356 . S
N700 C692 1.356 1_455 S
N700 H706 0.984 . S
N700 H707 0.984 . S
N701 C694 1.356 . S
N701 H704 0.984 . S
N701 H705 0.985 . S
H702 N697 0.984 . S
H703 N697 0.985 . S
H704 N701 0.984 . S
H705 N701 0.985 . S
H706 N700 0.984 . S
H707 N700 0.984 . S
H708 N696 0.984 . S
H709 N696 0.985 . S
C710 C711 1.363 . S
C710 C716 1.379 . S
C710 N718 1.356 . S
C711 C710 1.363 . S
C711 C717 1.363 . S
C712 C713 1.363 . S
C712 C717 1.379 . S
C712 N719 1.356 . S
C713 C712 1.363 . S
C713 C716 1.363 . S
N714 C716 1.356 . S
N714 H726 0.984 . S
N714 H727 0.985 . S
N715 C717 1.356 . S
N715 H720 0.984 . S
N715 H721 0.985 . S
C716 C710 1.379 . S
C716 C713 1.363 . S
C716 N714 1.356 . S
C717 C711 1.363 . S
C717 C712 1.379 . S
C717 N715 1.356 . S
N718 C710 1.356 . S
N718 H724 0.984 . S
N718 H725 0.984 . S
N719 C712 1.356 . S
N719 H722 0.984 . S
N719 H723 0.985 . S
H720 N715 0.984 . S
H721 N715 0.985 . S
H722 N719 0.984 . S
H723 N719 0.985 . S
H724 N718 0.984 . S
H725 N718 0.984 . S
H726 N714 0.984 . S
H727 N714 0.985 . S
C728 C729 1.363 . S
C728 C734 1.379 . S
C728 N736 1.356 . S
C729 C728 1.363 . S
C729 C735 1.363 . S
C730 C731 1.363 . S
C730 C735 1.379 . S
C730 N737 1.356 . S
C731 C730 1.363 . S
C731 C734 1.363 . S
N732 C734 1.356 . S
N732 H744 0.984 . S
N732 H745 0.985 . S
N733 C735 1.356 . S
N733 H738 0.984 . S
N733 H739 0.985 . S
C734 C728 1.379 . S
C734 C731 1.363 . S
C734 N732 1.356 . S
C735 C729 1.363 . S
C735 C730 1.379 . S
C735 N733 1.356 . S
N736 C728 1.356 . S
N736 H742 0.984 . S
N736 H743 0.984 . S
N737 C730 1.356 . S
N737 H740 0.984 . S
N737 H741 0.985 . S
H738 N733 0.984 . S
H739 N733 0.985 . S
H740 N737 0.984 . S
H741 N737 0.985 . S
H742 N736 0.984 . S
H743 N736 0.984 . S
H744 N732 0.984 . S
H745 N732 0.985 . S
C746 C747 1.363 . S
C746 C752 1.379 . S
C746 N754 1.356 . S
C747 C746 1.363 . S
C747 C753 1.363 . S
C748 C749 1.363 . S
C748 C753 1.379 . S
C748 N755 1.356 . S
C749 C748 1.363 . S
C749 C752 1.363 . S
N750 C752 1.356 . S
N750 H762 0.984 . S
N750 H763 0.985 . S
N751 C753 1.356 . S
N751 H756 0.984 . S
N751 H757 0.985 . S
C752 C746 1.379 . S
C752 C749 1.363 . S
C752 N750 1.356 . S
C753 C747 1.363 . S
C753 C748 1.379 . S
C753 N751 1.356 . S
N754 C746 1.356 . S
N754 H760 0.984 . S
N754 H761 0.984 . S
N755 C748 1.356 . S
N755 H758 0.984 . S
N755 H759 0.985 . S
H756 N751 0.984 . S
H757 N751 0.985 . S
H758 N755 0.984 . S
H759 N755 0.985 . S
H760 N754 0.984 . S
H761 N754 0.984 . S
H762 N750 0.984 . S
H763 N750 0.985 . S
C764 C765 1.363 . S
C764 C770 1.379 . S
C764 N772 1.356 . S
C765 C764 1.363 . S
C765 C771 1.363 . S
C766 C767 1.363 . S
C766 C771 1.379 . S
C766 N773 1.356 . S
C767 C766 1.363 . S
C767 C770 1.363 . S
N768 C770 1.356 . S
N768 H780 0.984 . S
N768 H781 0.985 . S
N769 C771 1.356 . S
N769 H774 0.984 . S
N769 H775 0.985 . S
C770 C764 1.379 . S
C770 C767 1.363 . S
C770 N768 1.356 . S
C771 C765 1.363 . S
C771 C766 1.379 . S
C771 N769 1.356 . S
N772 C764 1.356 . S
N772 H778 0.984 . S
N772 H779 0.984 . S
N773 C766 1.356 . S
N773 H776 0.984 . S
N773 H777 0.985 . S
H774 N769 0.984 . S
H775 N769 0.985 . S
H776 N773 0.984 . S
H777 N773 0.985 . S
H778 N772 0.984 . S
H779 N772 0.984 . S
H780 N768 0.984 . S
H781 N768 0.985 . S
C782 C783 1.363 . S
C782 C788 1.379 . S
C782 N790 1.356 . S
C783 C782 1.363 . S
C783 C789 1.363 . S
C784 C785 1.363 . S
C784 C789 1.379 . S
C784 N791 1.356 . S
C785 C784 1.363 . S
C785 C788 1.363 . S
N786 C788 1.356 . S
N786 H798 0.984 . S
N786 H799 0.985 . S
N787 C789 1.356 . S
N787 H792 0.984 . S
N787 H793 0.985 . S
C788 C782 1.379 . S
C788 C785 1.363 . S
C788 N786 1.356 . S
C789 C783 1.363 . S
C789 C784 1.379 . S
C789 N787 1.356 . S
N790 C782 1.356 . S
N790 H796 0.984 . S
N790 H797 0.984 . S
N791 C784 1.356 . S
N791 H794 0.984 . S
N791 H795 0.985 . S
H792 N787 0.984 . S
H793 N787 0.985 . S
H794 N791 0.984 . S
H795 N791 0.985 . S
H796 N790 0.984 . S
H797 N790 0.984 . S
H798 N786 0.984 . S
H799 N786 0.985 . S
C225 C6 1.412 . S
C227 C188 1.412 . S
C243 C160 1.412 1_455 S
C245 C20 1.412 . S
C261 C174 1.412 . S
C263 C34 1.412 . S
C279 C146 1.412 . S
C281 C48 1.412 . S
C297 C62 1.412 . S
C299 C216 1.412 . S
C315 C76 1.412 . S
C317 C132 1.412 . S
C333 C202 1.412 . S
C335 C90 1.412 . S
C351 C104 1.412 . S
C353 C118 1.412 1_455 S
C369 C64 1.767 . S
C371 C8 1.767 . S
C387 C22 1.767 . S
C389 C78 1.767 . S
C405 C36 1.767 . S
C407 C92 1.767 . S
C423 C106 1.767 . S
C425 C50 1.767 . S
C441 C120 1.767 . S
C443 C148 1.767 . S
C459 C134 1.767 . S
C461 C162 1.767 . S
C477 C204 1.767 . S
C479 C176 1.767 . S
C495 C190 1.767 . S
C497 C218 1.767 . S
C513 C77 1.486 . S
C515 C7 1.486 . S
C531 C21 1.487 . S
C533 C91 1.487 . S
C549 C35 1.487 . S
C551 C105 1.487 . S
C567 C63 1.486 . S
C569 C49 1.486 . S
C585 C65 1.416 . S
C587 C149 1.416 . S
C603 C37 1.417 . S
C605 C121 1.417 . S
C621 C163 1.417 . S
C623 C93 1.417 . S
C639 C135 1.416 . S
C641 C9 1.416 . S
C657 C119 1.487 . S
C659 C175 1.487 . S
C675 C147 1.486 . S
C677 C217 1.486 1_655 S
C693 C189 1.486 1_655 S
C695 C133 1.486 . S
C711 C161 1.487 . S
C713 C203 1.487 . S
C729 C205 1.416 . S
C731 C23 1.416 . S
C747 C191 1.417 . S
C749 C79 1.417 . S
C765 C219 1.417 . S
C767 C51 1.417 . S
C783 C177 1.416 . S
C785 C107 1.416 . S
