# Generated by pormake.
# Topology why, (6)-cn, num edge types: 1
# Building blocks:
#     Node 0, Type 0, BuildingBlock: MIDCAF_clean_sbu_0, # of connection points: 6
#     Node 1, Type 0, BuildingBlock: MIDCAF_clean_sbu_0, # of connection points: 6
#     Node 2, Type 0, BuildingBlock: MIDCAF_clean_sbu_0, # of connection points: 6
#     Node 3, Type 0, BuildingBlock: MIDCAF_clean_sbu_0, # of connection points: 6
#     Node 4, Type 0, BuildingBlock: MIDCAF_clean_sbu_0, # of connection points: 6
#     Node 5, Type 0, BuildingBlock: MIDCAF_clean_sbu_0, # of connection points: 6
#     Node 6, Type 0, BuildingBlock: MIDCAF_clean_sbu_0, # of connection points: 6
#     Node 7, Type 0, BuildingBlock: MIDCAF_clean_sbu_0, # of connection points: 6
#     Node 8, Type 0, BuildingBlock: MIDCAF_clean_sbu_0, # of connection points: 6
#     Node 9, Type 0, BuildingBlock: MIDCAF_clean_sbu_0, # of connection points: 6
#     Node 10, Type 0, BuildingBlock: MIDCAF_clean_sbu_0, # of connection points: 6
#     Node 11, Type 0, BuildingBlock: MIDCAF_clean_sbu_0, # of connection points: 6
#     Node 12, Type 0, BuildingBlock: MIDCAF_clean_sbu_0, # of connection points: 6
#     Node 13, Type 0, BuildingBlock: MIDCAF_clean_sbu_0, # of connection points: 6
#     Node 14, Type 0, BuildingBlock: MIDCAF_clean_sbu_0, # of connection points: 6
#     Node 15, Type 0, BuildingBlock: MIDCAF_clean_sbu_0, # of connection points: 6
#     Edge 16, Type (0, 0), BuildingBlock: ZUJKAS_clean_linker_0, # of connection points: 2
#     Edge 17, Type (0, 0), BuildingBlock: ZUJKAS_clean_linker_0, # of connection points: 2
#     Edge 18, Type (0, 0), BuildingBlock: ZUJKAS_clean_linker_0, # of connection points: 2
#     Edge 19, Type (0, 0), BuildingBlock: ZUJKAS_clean_linker_0, # of connection points: 2
#     Edge 20, Type (0, 0), BuildingBlock: ZUJKAS_clean_linker_0, # of connection points: 2
#     Edge 21, Type (0, 0), BuildingBlock: ZUJKAS_clean_linker_0, # of connection points: 2
#     Edge 22, Type (0, 0), BuildingBlock: ZUJKAS_clean_linker_0, # of connection points: 2
#     Edge 23, Type (0, 0), BuildingBlock: ZUJKAS_clean_linker_0, # of connection points: 2
#     Edge 24, Type (0, 0), BuildingBlock: ZUJKAS_clean_linker_0, # of connection points: 2
#     Edge 25, Type (0, 0), BuildingBlock: ZUJKAS_clean_linker_0, # of connection points: 2
#     Edge 26, Type (0, 0), BuildingBlock: ZUJKAS_clean_linker_0, # of connection points: 2
#     Edge 27, Type (0, 0), BuildingBlock: ZUJKAS_clean_linker_0, # of connection points: 2
#     Edge 28, Type (0, 0), BuildingBlock: ZUJKAS_clean_linker_0, # of connection points: 2
#     Edge 29, Type (0, 0), BuildingBlock: ZUJKAS_clean_linker_0, # of connection points: 2
#     Edge 30, Type (0, 0), BuildingBlock: ZUJKAS_clean_linker_0, # of connection points: 2
#     Edge 31, Type (0, 0), BuildingBlock: ZUJKAS_clean_linker_0, # of connection points: 2
#     Edge 32, Type (0, 0), BuildingBlock: ZUJKAS_clean_linker_0, # of connection points: 2
#     Edge 33, Type (0, 0), BuildingBlock: ZUJKAS_clean_linker_0, # of connection points: 2
#     Edge 34, Type (0, 0), BuildingBlock: ZUJKAS_clean_linker_0, # of connection points: 2
#     Edge 35, Type (0, 0), BuildingBlock: ZUJKAS_clean_linker_0, # of connection points: 2
#     Edge 36, Type (0, 0), BuildingBlock: ZUJKAS_clean_linker_0, # of connection points: 2
#     Edge 37, Type (0, 0), BuildingBlock: ZUJKAS_clean_linker_0, # of connection points: 2
#     Edge 38, Type (0, 0), BuildingBlock: ZUJKAS_clean_linker_0, # of connection points: 2
#     Edge 39, Type (0, 0), BuildingBlock: ZUJKAS_clean_linker_0, # of connection points: 2
#     Edge 40, Type (0, 0), BuildingBlock: ZUJKAS_clean_linker_0, # of connection points: 2
#     Edge 41, Type (0, 0), BuildingBlock: ZUJKAS_clean_linker_0, # of connection points: 2
#     Edge 42, Type (0, 0), BuildingBlock: ZUJKAS_clean_linker_0, # of connection points: 2
#     Edge 43, Type (0, 0), BuildingBlock: ZUJKAS_clean_linker_0, # of connection points: 2
#     Edge 44, Type (0, 0), BuildingBlock: ZUJKAS_clean_linker_0, # of connection points: 2
#     Edge 45, Type (0, 0), BuildingBlock: ZUJKAS_clean_linker_0, # of connection points: 2
#     Edge 46, Type (0, 0), BuildingBlock: ZUJKAS_clean_linker_0, # of connection points: 2
#     Edge 47, Type (0, 0), BuildingBlock: ZUJKAS_clean_linker_0, # of connection points: 2
#     Edge 48, Type (0, 0), BuildingBlock: ZUJKAS_clean_linker_0, # of connection points: 2
#     Edge 49, Type (0, 0), BuildingBlock: ZUJKAS_clean_linker_0, # of connection points: 2
#     Edge 50, Type (0, 0), BuildingBlock: ZUJKAS_clean_linker_0, # of connection points: 2
#     Edge 51, Type (0, 0), BuildingBlock: ZUJKAS_clean_linker_0, # of connection points: 2
#     Edge 52, Type (0, 0), BuildingBlock: ZUJKAS_clean_linker_0, # of connection points: 2
#     Edge 53, Type (0, 0), BuildingBlock: ZUJKAS_clean_linker_0, # of connection points: 2
#     Edge 54, Type (0, 0), BuildingBlock: ZUJKAS_clean_linker_0, # of connection points: 2
#     Edge 55, Type (0, 0), BuildingBlock: ZUJKAS_clean_linker_0, # of connection points: 2
#     Edge 56, Type (0, 0), BuildingBlock: ZUJKAS_clean_linker_0, # of connection points: 2
#     Edge 57, Type (0, 0), BuildingBlock: ZUJKAS_clean_linker_0, # of connection points: 2
#     Edge 58, Type (0, 0), BuildingBlock: ZUJKAS_clean_linker_0, # of connection points: 2
#     Edge 59, Type (0, 0), BuildingBlock: ZUJKAS_clean_linker_0, # of connection points: 2
#     Edge 60, Type (0, 0), BuildingBlock: ZUJKAS_clean_linker_0, # of connection points: 2
#     Edge 61, Type (0, 0), BuildingBlock: ZUJKAS_clean_linker_0, # of connection points: 2
#     Edge 62, Type (0, 0), BuildingBlock: ZUJKAS_clean_linker_0, # of connection points: 2
#     Edge 63, Type (0, 0), BuildingBlock: ZUJKAS_clean_linker_0, # of connection points: 2
# Relax obj value: 0.310
# Max RMSD: 0.221
# Mean RMSD: 0.221
data_MOF--net-why--node1-MIDCAF_clean_sbu_0--edge1-ZUJKAS_clean_linker_0
_symmetry_space_group_name_H-M    P1
_symmetry_Int_Tables_number       1
_symmetry_cell_setting            triclinic
loop_
_symmetry_equiv_pos_as_xyz
'x, y, z'
_cell_length_a     59.018937
_cell_length_b     59.0727
_cell_length_c     34.808549
_cell_angle_alpha  90.001882
_cell_angle_beta   90.055932
_cell_angle_gamma 89.9879
loop_
_atom_site_label
_atom_site_type_symbol
_atom_site_fract_x
_atom_site_fract_y
_atom_site_fract_z
_atom_type_partial_charge
Zn0 Zn 0.37961 0.20501 0.15314 0.0
Zn1 Zn 0.33835 0.20045 0.04479 0.0
Zn2 Zn 0.36136 0.19672 0.09467 0.0
C3 C 0.37728 0.17649 0.02063 0.0
C4 C 0.36866 0.23207 0.03051 0.0
O5 O 0.34087 0.22407 0.11682 0.0
O6 O 0.36189 0.2327 0.16677 0.0
C7 C 0.36314 0.15969 0.15648 0.0
O8 O 0.38405 0.19087 0.04612 0.0
O9 O 0.35608 0.17442 0.01562 0.0
O10 O 0.34731 0.23281 0.03337 0.0
O11 O 0.3793 0.21606 0.04825 0.0
O12 O 0.37107 0.17545 0.17709 0.0
O13 O 0.35841 0.16348 0.12109 0.0
O14 O 0.39681 0.20396 0.07533 0.0
O15 O 0.41116 0.20812 0.1336 0.0
C16 C 0.41398 0.2075 0.09765 0.0
O17 O 0.3378 0.16736 0.08911 0.0
O18 O 0.31148 0.19243 0.07701 0.0
C19 C 0.34461 0.23642 0.14626 0.0
C20 C 0.31665 0.17232 0.08563 0.0
Zn21 Zn 0.559 0.62918 0.34187 0.0
Zn22 Zn 0.55694 0.5848 0.21094 0.0
Zn23 Zn 0.56177 0.60435 0.27909 0.0
C24 C 0.59985 0.60637 0.21331 0.0
C25 C 0.52151 0.61334 0.21539 0.0
O26 O 0.55394 0.58001 0.32599 0.0
O27 O 0.54987 0.60355 0.37499 0.0
C28 C 0.60408 0.6306 0.31408 0.0
O29 O 0.59395 0.61072 0.2482 0.0
O30 O 0.58674 0.5953 0.19158 0.0
O31 O 0.52905 0.59923 0.19141 0.0
O32 O 0.53225 0.61716 0.247 0.0
O33 O 0.59136 0.63762 0.34068 0.0
O34 O 0.59614 0.61798 0.28709 0.0
O35 O 0.53786 0.63374 0.27458 0.0
O36 O 0.53707 0.65322 0.32878 0.0
C37 C 0.53093 0.65094 0.2943 0.0
O38 O 0.5574 0.56763 0.29109 0.0
O39 O 0.55426 0.55411 0.23195 0.0
C40 C 0.54934 0.58365 0.36168 0.0
C41 C 0.55505 0.55083 0.26775 0.0
Zn42 Zn 0.14044 0.83193 0.50177 0.0
Zn43 Zn 0.13724 0.81634 0.63233 0.0
Zn44 Zn 0.13354 0.82013 0.56758 0.0
C45 C 0.0919 0.80838 0.6109 0.0
C46 C 0.11963 0.85814 0.62074 0.0
O47 O 0.16445 0.83806 0.57513 0.0
O48 O 0.16844 0.84932 0.51537 0.0
C49 C 0.13775 0.78328 0.50526 0.0
O50 O 0.09901 0.8238 0.58762 0.0
O51 O 0.10622 0.79893 0.63285 0.0
O52 O 0.13662 0.85047 0.6388 0.0
O53 O 0.11094 0.84592 0.5938 0.0
O54 O 0.14239 0.79943 0.48262 0.0
O55 O 0.13353 0.78746 0.54062 0.0
O56 O 0.10149 0.83688 0.55219 0.0
O57 O 0.11106 0.84808 0.49372 0.0
C58 C 0.09656 0.8468 0.5203 0.0
O59 O 0.14138 0.78491 0.5825 0.0
O60 O 0.16565 0.7983 0.62444 0.0
C61 C 0.17561 0.84873 0.54963 0.0
C62 C 0.15864 0.7819 0.60437 0.0
Zn63 Zn 0.95521 0.39237 0.86995 0.0
Zn64 Zn 0.91772 0.41926 0.73803 0.0
Zn65 Zn 0.93657 0.40753 0.80477 0.0
C66 C 0.9199 0.37326 0.73685 0.0
C67 C 0.96273 0.43648 0.74134 0.0
O68 O 0.96781 0.42726 0.81502 0.0
O69 O 0.98067 0.41412 0.87039 0.0
C70 C 0.91158 0.41062 0.88628 0.0
O71 O 0.93086 0.37758 0.76807 0.0
O72 O 0.91035 0.38888 0.71821 0.0
O73 O 0.9458 0.43481 0.71924 0.0
O74 O 0.96199 0.42822 0.77555 0.0
O75 O 0.92802 0.40021 0.90151 0.0
O76 O 0.9119 0.41553 0.85022 0.0
O77 O 0.94198 0.37015 0.80147 0.0
O78 O 0.96075 0.36055 0.85413 0.0
C79 C 0.95209 0.35515 0.82228 0.0
O80 O 0.90582 0.42811 0.8171 0.0
O81 O 0.89319 0.4375 0.75941 0.0
C82 C 0.98208 0.42809 0.84304 0.0
C83 C 0.89176 0.43895 0.79547 0.0
Zn84 Zn 0.6485 0.8133 0.98847 0.0
Zn85 Zn 0.60667 0.79665 0.85886 0.0
Zn86 Zn 0.63125 0.80536 0.92071 0.0
C87 C 0.57596 0.79636 0.91654 0.0
C88 C 0.62847 0.83947 0.84963 0.0
O89 O 0.65419 0.83496 0.91297 0.0
O90 O 0.66697 0.83898 0.97239 0.0
C91 C 0.66178 0.76935 0.96632 0.0
O92 O 0.59446 0.80195 0.93396 0.0
O93 O 0.57601 0.79271 0.88085 0.0
O94 O 0.61444 0.826 0.83443 0.0
O95 O 0.63792 0.83446 0.88196 0.0
O96 O 0.66337 0.7835 0.99338 0.0
O97 O 0.65102 0.77462 0.93532 0.0
O98 O 0.60529 0.81209 0.96538 0.0
O99 O 0.62198 0.81952 0.02096 0.0
C100 C 0.60419 0.81775 1.00116 0.0
O101 O 0.64489 0.77363 0.89571 0.0
O102 O 0.62392 0.76951 0.84344 0.0
C103 C 0.66703 0.84503 0.93765 0.0
C104 C 0.64012 0.76295 0.8644 0.0
Zn105 Zn 0.41679 0.41193 0.75959 0.0
Zn106 Zn 0.46656 0.38428 0.65128 0.0
Zn107 Zn 0.44255 0.39983 0.70591 0.0
C108 C 0.48243 0.36393 0.71781 0.0
C109 C 0.42225 0.37194 0.63408 0.0
O110 O 0.43716 0.43715 0.70153 0.0
O111 O 0.40542 0.43964 0.73475 0.0
C112 C 0.45876 0.40318 0.79304 0.0
O113 O 0.46986 0.37955 0.73241 0.0
O114 O 0.48334 0.36151 0.68181 0.0
O115 O 0.44112 0.37379 0.61726 0.0
O116 O 0.42026 0.37875 0.66914 0.0
O117 O 0.44091 0.41421 0.80032 0.0
O118 O 0.46158 0.39452 0.7594 0.0
O119 O 0.4133 0.37673 0.70676 0.0
O120 O 0.39742 0.38499 0.76236 0.0
C121 C 0.39938 0.37185 0.73403 0.0
O122 O 0.45243 0.42942 0.67035 0.0
O123 O 0.48103 0.41369 0.63934 0.0
C124 C 0.42 0.44875 0.71328 0.0
C125 C 0.4696 0.43108 0.6477 0.0
Zn126 Zn 0.86025 0.13036 0.50555 0.0
Zn127 Zn 0.88747 0.17845 0.38761 0.0
Zn128 Zn 0.87265 0.15413 0.44561 0.0
C129 C 0.90942 0.19551 0.45142 0.0
C130 C 0.89961 0.13275 0.37442 0.0
O131 O 0.83491 0.15127 0.44558 0.0
O132 O 0.82928 0.12374 0.48758 0.0
C133 C 0.87599 0.17223 0.53206 0.0
O134 O 0.89528 0.18164 0.46707 0.0
O135 O 0.90982 0.19763 0.41534 0.0
O136 O 0.89922 0.1518 0.35785 0.0
O137 O 0.89176 0.13072 0.40879 0.0
O138 O 0.86535 0.15516 0.54447 0.0
O139 O 0.88121 0.17374 0.49625 0.0
O140 O 0.89336 0.12311 0.44692 0.0
O141 O 0.88427 0.10741 0.50233 0.0
C142 C 0.89728 0.10852 0.47366 0.0
O143 O 0.84227 0.16391 0.41195 0.0
O144 O 0.85678 0.19023 0.37406 0.0
C145 C 0.82153 0.13734 0.46287 0.0
C146 C 0.83975 0.17939 0.38621 0.0
Zn147 Zn 0.09566 0.62717 0.1199 0.0
Zn148 Zn 0.06673 0.5756 0.20681 0.0
Zn149 Zn 0.08512 0.60151 0.16967 0.0
C150 C 0.08791 0.60738 0.25528 0.0
C151 C 0.03843 0.60945 0.2107 0.0
O152 O 0.06374 0.5886 0.12544 0.0
O153 O 0.07668 0.61095 0.08009 0.0
C154 C 0.13532 0.60348 0.14576 0.0
O155 O 0.08235 0.61847 0.22467 0.0
O156 O 0.0847 0.58616 0.2557 0.0
O157 O 0.03504 0.589 0.20129 0.0
O158 O 0.05845 0.61782 0.2059 0.0
O159 O 0.12872 0.61949 0.12432 0.0
O160 O 0.12095 0.5929 0.16668 0.0
O161 O 0.07713 0.63561 0.19495 0.0
O162 O 0.08458 0.656 0.14331 0.0
C163 C 0.07779 0.65501 0.1777 0.0
O164 O 0.10762 0.57378 0.18709 0.0
O165 O 0.08008 0.54958 0.17716 0.0
C166 C 0.06409 0.59466 0.09027 0.0
C167 C 0.10084 0.55315 0.18425 0.0
Zn168 Zn 0.85202 0.69117 0.61903 0.0
Zn169 Zn 0.83653 0.6435 0.51801 0.0
Zn170 Zn 0.84264 0.67019 0.56249 0.0
C171 C 0.88029 0.65132 0.50988 0.0
C172 C 0.83949 0.68507 0.47885 0.0
O173 O 0.80974 0.68461 0.57803 0.0
O174 O 0.82151 0.70446 0.62778 0.0
C175 C 0.85949 0.6437 0.63231 0.0
O176 O 0.87126 0.67012 0.52101 0.0
O177 O 0.8694 0.63309 0.51539 0.0
O178 O 0.82733 0.66745 0.47689 0.0
O179 O 0.85279 0.68718 0.50821 0.0
O180 O 0.86041 0.66287 0.64857 0.0
O181 O 0.85373 0.64248 0.59702 0.0
O182 O 0.86846 0.69393 0.5401 0.0
O183 O 0.87547 0.7109 0.5956 0.0
C184 C 0.87926 0.70886 0.56007 0.0
O185 O 0.80667 0.66529 0.5497 0.0
O186 O 0.81006 0.62841 0.54344 0.0
C187 C 0.80559 0.69812 0.60601 0.0
C188 C 0.7974 0.64574 0.54502 0.0
Zn189 Zn 0.1055 0.08479 0.78506 0.0
Zn190 Zn 0.06546 0.12126 0.89642 0.0
Zn191 Zn 0.07944 0.10227 0.83323 0.0
C192 C 0.04097 0.1398 0.83312 0.0
C193 C 0.11147 0.12639 0.89994 0.0
O194 O 0.07581 0.06476 0.83217 0.0
O195 O 0.10717 0.05323 0.80364 0.0
C196 C 0.06585 0.10472 0.74823 0.0
O197 O 0.05265 0.12547 0.81362 0.0
O198 O 0.04388 0.14162 0.86901 0.0
O199 O 0.09443 0.13223 0.9195 0.0
O200 O 0.10846 0.11651 0.86721 0.0
O201 O 0.0825 0.09146 0.74371 0.0
O202 O 0.06157 0.11289 0.78166 0.0
O203 O 0.11262 0.11987 0.82614 0.0
O204 O 0.13259 0.10395 0.78 0.0
C205 C 0.12956 0.12031 0.80267 0.0
O206 O 0.06554 0.07419 0.86782 0.0
O207 O 0.05349 0.09288 0.91886 0.0
C208 C 0.08875 0.04862 0.8203 0.0
C209 C 0.05587 0.07445 0.90092 0.0
Zn210 Zn 0.68449 0.3199 0.01862 0.0
Zn211 Zn 0.6728 0.31441 0.14952 0.0
Zn212 Zn 0.67488 0.31698 0.08462 0.0
C213 C 0.63021 0.30501 0.11343 0.0
C214 C 0.65636 0.35544 0.13564 0.0
O215 O 0.70591 0.33671 0.08722 0.0
O216 O 0.71581 0.33087 0.02713 0.0
C217 C 0.67435 0.27417 0.03201 0.0
O218 O 0.63888 0.32098 0.09284 0.0
O219 O 0.64227 0.29669 0.14015 0.0
O220 O 0.67167 0.34795 0.15763 0.0
O221 O 0.65045 0.34334 0.10646 0.0
O222 O 0.67956 0.28756 1.00515 0.0
O223 O 0.67284 0.28154 0.06663 0.0
O224 O 0.64516 0.33563 0.06198 0.0
O225 O 0.65979 0.34188 1.00461 0.0
C226 C 0.64381 0.34473 0.02833 0.0
O227 O 0.68315 0.28226 0.10602 0.0
O228 O 0.70183 0.29733 0.15408 0.0
C229 C 0.72035 0.3386 0.06007 0.0
C230 C 0.69796 0.28041 0.13297 0.0
Zn231 Zn 0.42766 0.8699 0.36942 0.0
Zn232 Zn 0.38218 0.91047 0.26177 0.0
Zn233 Zn 0.40582 0.89213 0.31666 0.0
C234 C 0.35645 0.87482 0.28518 0.0
C235 C 0.4218 0.89351 0.22908 0.0
O236 O 0.4185 0.91846 0.35747 0.0
O237 O 0.43943 0.89701 0.39566 0.0
C238 C 0.38191 0.8601 0.37936 0.0
O239 O 0.37262 0.87435 0.3102 0.0
O240 O 0.35586 0.89037 0.2604 0.0
O241 O 0.40516 0.90586 0.22002 0.0
O242 O 0.42393 0.88604 0.26361 0.0
O243 O 0.40092 0.85582 0.39434 0.0
O244 O 0.38075 0.87225 0.34866 0.0
O245 O 0.4322 0.87019 0.29006 0.0
O246 O 0.4479 0.85104 0.33767 0.0
C247 C 0.44603 0.85486 0.30215 0.0
O248 O 0.40627 0.92944 0.3264 0.0
O249 O 0.37938 0.94023 0.28591 0.0
C250 C 0.43192 0.9163 0.38653 0.0
C251 C 0.39333 0.94492 0.31218 0.0
Zn252 Zn 0.17384 0.35182 0.53932 0.0
Zn253 Zn 0.13324 0.31685 0.42185 0.0
Zn254 Zn 0.1539 0.33163 0.48218 0.0
C255 C 0.11413 0.29362 0.48299 0.0
C256 C 0.12734 0.36354 0.42174 0.0
O257 O 0.19131 0.3286 0.47421 0.0
O258 O 0.20495 0.35126 0.51939 0.0
C259 C 0.15248 0.31115 0.56607 0.0
O260 O 0.1299 0.3043 0.50124 0.0
O261 O 0.11148 0.29679 0.44742 0.0
O262 O 0.12305 0.34655 0.40096 0.0
O263 O 0.13728 0.36081 0.45439 0.0
O264 O 0.16521 0.32733 0.57614 0.0
O265 O 0.14511 0.31001 0.53127 0.0
O266 O 0.13961 0.36607 0.494 0.0
O267 O 0.15777 0.38092 0.54354 0.0
C268 C 0.14216 0.38211 0.5189 0.0
O269 O 0.18015 0.32062 0.4402 0.0
O270 O 0.15966 0.30294 0.39631 0.0
C271 C 0.20817 0.33826 0.4912 0.0
C272 C 0.17879 0.30891 0.409 0.0
Zn273 Zn 0.88199 0.89603 0.21415 0.0
Zn274 Zn 0.92065 0.85522 0.10735 0.0
Zn275 Zn 0.90706 0.87715 0.16736 0.0
C276 C 0.9436 0.83751 0.17219 0.0
C277 C 0.8745 0.85306 0.10266 0.0
O278 O 0.91044 0.91477 0.16505 0.0
O279 O 0.87814 0.92616 0.19041 0.0
C280 C 0.92258 0.87921 0.2508 0.0
O281 O 0.93336 0.8539 0.18926 0.0
O282 O 0.94015 0.83383 0.13686 0.0
O283 O 0.89132 0.84606 0.08371 0.0
O284 O 0.87769 0.86307 0.13519 0.0
O285 O 0.90649 0.89323 0.25447 0.0
O286 O 0.9252 0.86858 0.21894 0.0
O287 O 0.87433 0.85896 0.17644 0.0
O288 O 0.85617 0.87569 0.22384 0.0
C289 C 0.85849 0.85882 0.20201 0.0
O290 O 0.92124 0.90374 0.13025 0.0
O291 O 0.93477 0.88233 0.08351 0.0
C292 C 0.89678 0.93089 0.17452 0.0
C293 C 0.932 0.90166 0.09833 0.0
Zn294 Zn 0.29583 0.68288 0.9736 0.0
Zn295 Zn 0.34303 0.70275 0.87648 0.0
Zn296 Zn 0.32528 0.6862 0.93001 0.0
C297 C 0.36585 0.72157 0.93928 0.0
C298 C 0.35233 0.65475 0.87746 0.0
O299 O 0.3176 0.65055 0.93695 0.0
O300 O 0.28194 0.66072 0.9359 0.0
C301 C 0.31123 0.72409 0.98788 0.0
O302 O 0.35227 0.70789 0.95701 0.0
O303 O 0.36422 0.7237 0.90324 0.0
O304 O 0.35602 0.67298 0.85941 0.0
O305 O 0.33984 0.65509 0.90754 0.0
O306 O 0.29135 0.71722 0.9802 0.0
O307 O 0.32818 0.71247 0.97524 0.0
O308 O 0.34133 0.69056 0.98555 0.0
O309 O 0.31661 0.66878 0.01519 0.0
C310 C 0.33627 0.67736 0.01386 0.0
O311 O 0.29648 0.69979 0.90079 0.0
O312 O 0.31459 0.71395 0.85136 0.0
C313 C 0.29659 0.64498 0.93535 0.0
C314 C 0.29613 0.70976 0.86836 0.0
Zn315 Zn 0.59142 0.08887 0.73048 0.0
Zn316 Zn 0.55463 0.12525 0.63068 0.0
Zn317 Zn 0.57023 0.10473 0.68378 0.0
C318 C 0.54184 0.15088 0.69455 0.0
C319 C 0.60266 0.12325 0.62173 0.0
O320 O 0.5669 0.06708 0.68543 0.0
O321 O 0.60336 0.06447 0.69632 0.0
C322 C 0.54824 0.09894 0.76144 0.0
O323 O 0.55186 0.13402 0.71129 0.0
O324 O 0.54089 0.15143 0.6583 0.0
O325 O 0.58477 0.12958 0.60476 0.0
O326 O 0.60115 0.11342 0.65433 0.0
O327 O 0.56205 0.08253 0.76401 0.0
O328 O 0.55251 0.11442 0.7362 0.0
O329 O 0.57443 0.12848 0.73358 0.0
O330 O 0.60944 0.11707 0.7427 0.0
C331 C 0.5941 0.13155 0.74892 0.0
O332 O 0.54852 0.07825 0.65937 0.0
O333 O 0.53416 0.10012 0.61418 0.0
C334 C 0.58499 0.05491 0.68724 0.0
C335 C 0.53496 0.08113 0.63092 0.0
H336 H 0.42582 0.23385 0.03604 0.0
H337 H 0.46383 0.24852 0.02164 0.0
H338 H 0.49118 0.20875 0.11476 0.0
H339 H 0.45363 0.19372 0.12813 0.0
H340 H 0.4871 0.27424 0.07101 0.0
H341 H 0.54004 0.20019 0.03673 0.0
H342 H 0.50947 0.19901 0.03538 0.0
H343 H 0.52451 0.19497 0.08 0.0
C344 C 0.44015 0.22746 0.05204 0.0
C345 C 0.43686 0.21243 0.08277 0.0
C346 C 0.46182 0.23603 0.04417 0.0
C347 C 0.4805 0.22953 0.06679 0.0
C348 C 0.47728 0.2136 0.09618 0.0
H349 H 0.60262 0.2798 0.15987 0.0
H350 H 0.56625 0.26232 0.14281 0.0
C351 C 0.45573 0.20512 0.10401 0.0
C352 C 0.50262 0.24147 0.06389 0.0
H353 H 0.55973 0.23201 0.06692 0.0
C354 C 0.50298 0.26507 0.06909 0.0
C355 C 0.5234 0.22957 0.06126 0.0
C356 C 0.52431 0.20457 0.0526 0.0
C357 C 0.52347 0.27678 0.07441 0.0
C358 C 0.54402 0.26456 0.07477 0.0
C359 C 0.54383 0.24123 0.06734 0.0
C360 C 0.56575 0.27554 0.08489 0.0
C361 C 0.52306 0.30196 0.08151 0.0
C362 C 0.57742 0.28867 0.05787 0.0
C363 C 0.59819 0.29855 0.06747 0.0
C364 C 0.6075 0.29576 0.10442 0.0
C365 C 0.59574 0.28254 0.13138 0.0
C366 C 0.57503 0.27251 0.12166 0.0
H367 H 0.50557 0.3089 0.08178 0.0
H368 H 0.53131 0.30583 0.10944 0.0
H369 H 0.53287 0.31073 0.05874 0.0
H370 H 0.57063 0.29096 0.02919 0.0
H371 H 0.60727 0.30777 0.0455 0.0
H372 H 0.50031 0.67884 0.32835 0.0
H373 H 0.48249 0.71238 0.3008 0.0
H374 H 0.51387 0.69822 0.1915 0.0
H375 H 0.53228 0.66481 0.2194 0.0
H376 H 0.52212 0.74069 0.21363 0.0
H377 H 0.43116 0.72505 0.22734 0.0
H378 H 0.44333 0.7206 0.27387 0.0
H379 H 0.45158 0.70266 0.23433 0.0
C380 C 0.50305 0.68261 0.29825 0.0
C381 C 0.51752 0.66912 0.27597 0.0
C382 C 0.49267 0.70167 0.28237 0.0
C383 C 0.49652 0.70766 0.24385 0.0
C384 C 0.51044 0.6938 0.22114 0.0
H385 H 0.42959 0.83852 0.23411 0.0
H386 H 0.44295 0.80449 0.20067 0.0
C387 C 0.52085 0.67467 0.23707 0.0
C388 C 0.48847 0.72998 0.2297 0.0
H389 H 0.4432 0.76535 0.2386 0.0
C390 C 0.50469 0.74594 0.21787 0.0
C391 C 0.46565 0.73684 0.23378 0.0
C392 C 0.44697 0.72021 0.2426 0.0
C393 C 0.49921 0.76902 0.21498 0.0
C394 C 0.47717 0.77627 0.22502 0.0
C395 C 0.4603 0.75996 0.23176 0.0
C396 C 0.47247 0.79999 0.2368 0.0
C397 C 0.51743 0.78556 0.20344 0.0
C398 C 0.48512 0.80933 0.26711 0.0
C399 C 0.47756 0.82868 0.28611 0.0
C400 C 0.45719 0.8391 0.27523 0.0
C401 C 0.44552 0.83097 0.2428 0.0
C402 C 0.45307 0.81146 0.22379 0.0
H403 H 0.52907 0.7778 0.18212 0.0
H404 H 0.51012 0.80128 0.19104 0.0
H405 H 0.52767 0.79009 0.22907 0.0
H406 H 0.49982 0.80058 0.27839 0.0
H407 H 0.4868 0.83452 0.31113 0.0
H408 H 0.07441 0.76765 0.63303 0.0
H409 H 0.03659 0.75293 0.61771 0.0
H410 H 0.01837 0.81719 0.56766 0.0
H411 H 0.05585 0.83216 0.58375 0.0
H412 H 0.99091 0.77169 0.6361 0.0
H413 H 0.01086 0.76779 0.47991 0.0
H414 H 0.03261 0.76887 0.51647 0.0
H415 H 0.01694 0.79388 0.50453 0.0
C416 C 0.06214 0.77878 0.61962 0.0
C417 C 0.06812 0.80091 0.60895 0.0
C418 C 0.04067 0.77031 0.61062 0.0
C419 C 0.02501 0.78385 0.59077 0.0
C420 C 0.03045 0.80638 0.58228 0.0
H421 H 0.8834 0.75428 0.55619 0.0
H422 H 0.91954 0.7747 0.55572 0.0
C423 C 0.05182 0.81488 0.59148 0.0
C424 C 0.00317 0.77423 0.57813 0.0
H425 H 0.97367 0.75757 0.49844 0.0
C426 C 0.98707 0.76867 0.60605 0.0
C427 C -0.00155 0.77015 0.53887 0.0
C428 C 0.01563 0.77529 0.50805 0.0
C429 C 0.96617 0.75923 0.59571 0.0
C430 C 0.96128 0.75545 0.5564 0.0
C431 C 0.97745 0.76081 0.52844 0.0
C432 C 0.93973 0.74485 0.54472 0.0
C433 C 0.94954 0.753 0.6269 0.0
C434 C 0.93919 0.72166 0.53617 0.0
C435 C 0.91857 0.71004 0.5362 0.0
C436 C 0.89838 0.72159 0.54434 0.0
C437 C 0.89877 0.74517 0.54903 0.0
C438 C 0.91936 0.75679 0.54902 0.0
H439 H 0.95729 0.75379 0.65597 0.0
H440 H 0.935 0.76492 0.62611 0.0
H441 H 0.94282 0.73566 0.62217 0.0
H442 H 0.95481 0.71219 0.53318 0.0
H443 H 0.91876 0.69175 0.53422 0.0
H444 H 0.99101 0.34021 0.7915 0.0
H445 H 0.00119 0.30115 0.77562 0.0
H446 H 0.93391 0.27925 0.80659 0.0
H447 H 0.92348 0.3187 0.82124 0.0
H448 H -0.0007 0.26987 0.83533 0.0
H449 H 0.94597 0.23807 0.71433 0.0
H450 H 0.95882 0.26567 0.71188 0.0
H451 H 0.93593 0.26065 0.74465 0.0
C452 C 0.97823 0.32711 0.79377 0.0
C453 C 0.95649 0.33229 0.80734 0.0
C454 C 0.984 0.30484 0.78456 0.0
C455 C 0.96825 0.28726 0.78934 0.0
C456 C 0.94617 0.29257 0.80165 0.0
H457 H 0.00042 0.15339 0.86042 0.0
H458 H 0.97984 0.18755 0.84188 0.0
C459 C 0.94028 0.31501 0.81038 0.0
C460 C 0.97636 0.26345 0.78843 0.0
H461 H 0.9708 0.21209 0.74374 0.0
C462 C 0.99311 0.25732 0.81511 0.0
C463 C 0.96826 0.24704 0.7621 0.0
C464 C 0.95123 0.25302 0.73154 0.0
C465 C 0.00187 0.23533 0.81644 0.0
C466 C 0.99355 0.21883 0.79065 0.0
C467 C 0.97699 0.22483 0.76358 0.0
C468 C 0.00149 0.19514 0.79354 0.0
C469 C 0.01988 0.22973 0.8458 0.0
C470 C 0.01968 0.18745 0.77101 0.0
C471 C 0.03138 0.16767 0.78135 0.0
C472 C 0.02514 0.15575 0.81462 0.0
C473 C 0.00561 0.16238 0.83476 0.0
C474 C 0.9938 0.18184 0.82415 0.0
H475 H 0.02686 0.24514 0.85979 0.0
H476 H 0.01249 0.21875 0.86842 0.0
H477 H 0.03402 0.22028 0.83218 0.0
H478 H 0.02591 0.19764 0.74741 0.0
H479 H 0.04646 0.16296 0.76552 0.0
H480 H 0.53386 0.80947 0.89486 0.0
H481 H 0.49809 0.80187 0.92768 0.0
H482 H 0.53426 0.7683 0.0192 0.0
H483 H 0.57023 0.7759 0.98613 0.0
H484 H 0.50088 0.74246 0.99021 0.0
H485 H 0.46629 0.82627 0.02248 0.0
H486 H 0.47306 0.82572 0.97231 0.0
H487 H 0.49531 0.82253 0.00741 0.0
C488 C 0.53417 0.80081 0.92229 0.0
C489 C 0.55471 0.79341 0.93817 0.0
C490 C 0.51378 0.79671 0.94129 0.0
C491 C 0.51349 0.78497 0.97639 0.0
C492 C 0.53409 0.77774 0.99253 0.0
H493 H 0.38303 0.71569 0.01251 0.0
H494 H 0.41744 0.73297 0.03904 0.0
C495 C 0.55457 0.78204 0.97363 0.0
C496 C 0.49145 0.77762 0.99262 0.0
H497 H 0.43743 0.79681 1.00461 0.0
C498 C 0.48709 0.7543 0.99477 0.0
C499 C 0.47358 0.79308 0.99932 0.0
C500 C 0.47745 0.81829 1.00065 0.0
C501 C 0.46488 0.74605 0.99825 0.0
C502 C 0.44666 0.76162 1.00006 0.0
C503 C 0.45136 0.78488 1.0027 0.0
C504 C 0.4233 0.75455 0.98981 0.0
C505 C 0.46095 0.72083 0.99591 0.0
C506 C 0.4144 0.76196 0.95465 0.0
C507 C 0.39483 0.75219 0.93969 0.0
C508 C 0.38363 0.73473 0.95952 0.0
C509 C 0.39141 0.72874 0.99631 0.0
C510 C 0.41113 0.73858 0.01143 0.0
H511 H 0.47693 0.71123 0.99162 0.0
H512 H 0.45299 0.71484 0.02292 0.0
H513 H 0.44926 0.71683 0.97183 0.0
H514 H 0.42341 0.77433 0.93748 0.0
H515 H 0.38914 0.7576 0.91155 0.0
H516 H 0.51941 0.33876 0.70096 0.0
H517 H 0.52902 0.30223 0.72854 0.0
H518 H 0.47873 0.31187 0.81697 0.0
H519 H 0.46842 0.34843 0.78834 0.0
H520 H 0.54189 0.28217 0.79519 0.0
H521 H 0.45265 0.2587 0.75969 0.0
H522 H 0.46406 0.28581 0.7461 0.0
H523 H 0.45739 0.28005 0.7955 0.0
C524 C 0.51084 0.33344 0.72695 0.0
C525 C 0.49291 0.34625 0.74206 0.0
C526 C 0.51639 0.31253 0.74283 0.0
C527 C 0.50415 0.30395 0.77418 0.0
C528 C 0.48801 0.31788 0.79217 0.0
H529 H 0.5442 0.15933 0.77243 0.0
H530 H 0.53286 0.19398 0.80621 0.0
C531 C 0.48234 0.33891 0.77608 0.0
C532 C 0.50627 0.27941 0.78297 0.0
H533 H 0.47917 0.2297 0.76293 0.0
C534 C 0.52805 0.27058 0.78945 0.0
C535 C 0.48811 0.26428 0.7757 0.0
C536 C 0.46423 0.27255 0.7687 0.0
C537 C 0.53268 0.24743 0.78439 0.0
C538 C 0.51495 0.23274 0.77319 0.0
C539 C 0.49273 0.24111 0.77121 0.0
C540 C 0.51973 0.21045 0.75527 0.0
C541 C 0.55685 0.2393 0.78726 0.0
C542 C 0.5154 0.20781 0.71591 0.0
C543 C 0.52184 0.18812 0.69679 0.0
C544 C 0.53284 0.17049 0.71654 0.0
C545 C 0.53622 0.17271 0.75636 0.0
C546 C 0.52971 0.19251 0.77566 0.0
H547 H 0.56883 0.25318 0.79439 0.0
H548 H 0.55811 0.22618 0.80993 0.0
H549 H 0.56217 0.23146 0.7597 0.0
H550 H 0.50769 0.2214 0.69955 0.0
H551 H 0.51873 0.18706 0.66618 0.0
H552 H 0.93304 0.23339 0.43253 0.0
H553 H 0.96723 0.24785 0.46299 0.0
H554 H 0.96067 0.19816 0.55317 0.0
H555 H 0.927 0.18276 0.52143 0.0
H556 H 0.97893 0.26609 0.52819 0.0
H557 H 0.02231 0.18262 0.51736 0.0
H558 H 0.99467 0.18732 0.49696 0.0
H559 H 0.99793 0.18355 0.54798 0.0
C560 C 0.93868 0.2257 0.45913 0.0
C561 C 0.92723 0.20693 0.4745 0.0
C562 C 0.95826 0.23403 0.47666 0.0
C563 C 0.96696 0.22384 0.51005 0.0
C564 C 0.95475 0.20597 0.52689 0.0
H565 H 0.09529 0.29757 0.55539 0.0
H566 H 0.06069 0.27824 0.57767 0.0
C567 C 0.93518 0.19745 0.5091 0.0
C568 C 0.98952 0.23131 0.52483 0.0
H569 H 0.04452 0.21381 0.53338 0.0
C570 C 0.99324 0.25462 0.53005 0.0
C571 C 0.00821 0.2163 0.5277 0.0
C572 C 0.00572 0.19108 0.52198 0.0
C573 C 0.0152 0.26354 0.53424 0.0
C574 C 0.03404 0.24865 0.53444 0.0
C575 C 0.0301 0.2252 0.53312 0.0
C576 C 0.05752 0.25698 0.52719 0.0
C577 C 0.01808 0.28893 0.53494 0.0
C578 C 0.06827 0.25021 0.49314 0.0
C579 C 0.08804 0.26084 0.4809 0.0
C580 C 0.09763 0.27857 0.50233 0.0
C581 C 0.08824 0.28396 0.53829 0.0
C582 C 0.06829 0.27315 0.55074 0.0
H583 H 0.0019 0.29801 0.52949 0.0
H584 H 0.02447 0.29422 0.56354 0.0
H585 H 0.03058 0.29435 0.51297 0.0
H586 H 0.06052 0.23772 0.4745 0.0
H587 H 0.09501 0.25617 0.45322 0.0
H588 H 0.06204 0.69201 0.14024 0.0
H589 H 0.04246 0.72464 0.1669 0.0
H590 H 0.05074 0.69777 0.28117 0.0
H591 H 0.07174 0.66537 0.25453 0.0
H592 H 0.00082 0.71269 0.24106 0.0
H593 H 0.07035 0.77564 0.25046 0.0
H594 H 0.07154 0.75661 0.21009 0.0
H595 H 0.07472 0.74562 0.25789 0.0
C596 C 0.06009 0.69307 0.17113 0.0
C597 C 0.0679 0.67564 0.19527 0.0
C598 C 0.04881 0.71174 0.18628 0.0
C599 C 0.04502 0.71347 0.22587 0.0
C600 C 0.05336 0.69659 0.25044 0.0
H601 H 0.94118 0.82098 0.24616 0.0
H602 H 0.96646 0.79255 0.27551 0.0
C603 C 0.06504 0.67793 0.23519 0.0
C604 C 0.03126 0.73263 0.23998 0.0
H605 H 0.03286 0.79027 0.23993 0.0
C606 C 0.00774 0.72968 0.24244 0.0
C607 C 0.04046 0.75464 0.2418 0.0
C608 C 0.06569 0.75844 0.24023 0.0
C609 C 0.993 0.74839 0.24214 0.0
C610 C 0.0022 0.77049 0.23969 0.0
C611 C 0.02581 0.77335 0.24168 0.0
C612 C 0.98835 0.7898 0.22582 0.0
C613 C 0.96779 0.74429 0.24032 0.0
C614 C 0.99275 0.79822 0.18891 0.0
C615 C 0.97859 0.81437 0.17245 0.0
C616 C 0.95975 0.82266 0.19258 0.0
C617 C 0.95575 0.815 0.23022 0.0
C618 C 0.97004 0.79867 0.24683 0.0
H619 H 0.96353 0.72597 0.24007 0.0
H620 H 0.95952 0.75215 0.26563 0.0
H621 H 0.96057 0.75225 0.21412 0.0
H622 H 0.0067 0.7916 0.17208 0.0
H623 H 0.98209 0.82001 0.14342 0.0
H624 H 0.15187 0.10871 0.87391 0.0
H625 H 0.18868 0.10943 0.90658 0.0
H626 H 0.16018 0.15056 0.99666 0.0
H627 H 0.12347 0.15001 0.96435 0.0
H628 H 0.21693 0.14567 0.93032 0.0
H629 H 0.18673 0.09626 0.05538 0.0
H630 H 0.17106 0.09797 0.01087 0.0
H631 H 0.1696 0.12067 0.04524 0.0
C632 C 0.15349 0.11826 0.9003 0.0
C633 C 0.1346 0.12929 0.91644 0.0
C634 C 0.17454 0.11849 0.91912 0.0
C635 C 0.17707 0.12956 0.9546 0.0
C636 C 0.15852 0.1414 0.96985 0.0
H637 H 0.27425 0.17337 0.11453 0.0
H638 H 0.24103 0.15724 0.08297 0.0
C639 C 0.13755 0.14123 0.95109 0.0
C640 C 0.19899 0.1289 0.97587 0.0
H641 H 0.22219 0.11543 0.06304 0.0
C642 C 0.21822 0.13872 0.95908 0.0
C643 C 0.2007 0.11972 0.01336 0.0
C644 C 0.18099 0.10785 0.03219 0.0
C645 C 0.2387 0.14083 0.97957 0.0
C646 C 0.24016 0.13242 0.01768 0.0
C647 C 0.22116 0.12178 0.03386 0.0
C648 C 0.26023 0.13712 0.04254 0.0
C649 C 0.25818 0.15324 0.96098 0.0
C650 C 0.28212 0.12978 0.03245 0.0
C651 C 0.30125 0.1388 0.05102 0.0
C652 C 0.29867 0.15528 0.07982 0.0
C653 C 0.27673 0.1605 0.09275 0.0
C654 C 0.2577 0.15145 0.07439 0.0
H655 H 0.25293 0.1622 0.93437 0.0
H656 H 0.26559 0.16579 0.98115 0.0
H657 H 0.27163 0.14092 0.95326 0.0
H658 H 0.28448 0.11834 0.00848 0.0
H659 H 0.31793 0.13476 0.03999 0.0
H660 H 0.61211 0.3676 0.12098 0.0
H661 H 0.59123 0.39938 0.15 0.0
H662 H 0.65206 0.42045 0.20873 0.0
H663 H 0.67287 0.38941 0.17935 0.0
H664 H 0.58511 0.40747 0.22972 0.0
H665 H 0.62989 0.47911 0.16087 0.0
H666 H 0.63159 0.45055 0.14269 0.0
H667 H 0.649 0.45924 0.18254 0.0
C668 C 0.6211 0.37946 0.13908 0.0
C669 C 0.64416 0.37617 0.14751 0.0
C670 C 0.60913 0.3974 0.15606 0.0
C671 C 0.62015 0.41239 0.18133 0.0
C672 C 0.64327 0.40937 0.18888 0.0
H673 H 0.58938 0.53272 0.30938 0.0
H674 H 0.60397 0.49459 0.29712 0.0
C675 C 0.65514 0.39155 0.17209 0.0
C676 C 0.60763 0.43076 0.20128 0.0
H677 H 0.6084 0.48777 0.21686 0.0
C678 C 0.59004 0.42507 0.22672 0.0
C679 C 0.61414 0.45368 0.19745 0.0
C680 C 0.63203 0.46106 0.16912 0.0
C681 C 0.57916 0.4417 0.24909 0.0
C682 C 0.58607 0.46452 0.24582 0.0
C683 C 0.60347 0.47017 0.22005 0.0
C684 C 0.57435 0.4834 0.26574 0.0
C685 C 0.56064 0.43474 0.27643 0.0
C686 C 0.55219 0.4891 0.25484 0.0
C687 C 0.54384 0.51082 0.26202 0.0
C688 C 0.55757 0.52714 0.27999 0.0
C689 C 0.57834 0.52038 0.29594 0.0
C690 C 0.58681 0.49866 0.28848 0.0
H691 H 0.56142 0.41637 0.28316 0.0
H692 H 0.5617 0.4445 0.30365 0.0
H693 H 0.54394 0.43831 0.26304 0.0
H694 H 0.54235 0.47776 0.23695 0.0
H695 H 0.52786 0.51573 0.24909 0.0
H696 H 0.37826 0.83153 0.44069 0.0
H697 H 0.3462 0.82859 0.48482 0.0
H698 H 0.30691 0.87247 0.41158 0.0
H699 H 0.33884 0.87567 0.36732 0.0
H700 H 0.31406 0.88578 0.49557 0.0
H701 H 0.28121 0.79833 0.47186 0.0
H702 H 0.31135 0.80271 0.47559 0.0
H703 H 0.29631 0.81347 0.43475 0.0
C704 C 0.36262 0.84012 0.43343 0.0
C705 C 0.36115 0.85396 0.40058 0.0
C706 C 0.34437 0.83843 0.45874 0.0
C707 C 0.32439 0.85048 0.45147 0.0
C708 C 0.32233 0.86315 0.4176 0.0
H709 H 0.1969 0.88426 0.51664 0.0
H710 H 0.23756 0.88691 0.5069 0.0
C711 C 0.34053 0.86479 0.39218 0.0
C712 C 0.3062 0.8513 0.48039 0.0
H713 H 0.26127 0.8215 0.51476 0.0
C714 C 0.30264 0.87166 0.50026 0.0
C715 C 0.29179 0.83268 0.48694 0.0
C716 C 0.29516 0.81051 0.4662 0.0
C717 C 0.28417 0.87427 0.52514 0.0
C718 C 0.26871 0.85619 0.52951 0.0
C719 C 0.2732 0.83534 0.51156 0.0
C720 C 0.24587 0.85958 0.54598 0.0
C721 C 0.28101 0.89656 0.54555 0.0
C722 C 0.23704 0.84417 0.57281 0.0
C723 C 0.21363 0.84269 0.5785 0.0
C724 C 0.19891 0.85636 0.55683 0.0
C725 C 0.20795 0.87355 0.53364 0.0
C726 C 0.23125 0.87513 0.5282 0.0
H727 H 0.29763 0.90451 0.55205 0.0
H728 H 0.27153 0.90832 0.52656 0.0
H729 H 0.27141 0.89448 0.57275 0.0
H730 H 0.24805 0.83198 0.5867 0.0
H731 H 0.20705 0.82918 0.59633 0.0
H732 H 0.85607 0.59918 0.60983 0.0
H733 H 0.85788 0.56556 0.6512 0.0
H734 H 0.8718 0.6079 0.74925 0.0
H735 H 0.87015 0.64144 0.70849 0.0
H736 H 0.89511 0.55141 0.70132 0.0
H737 H 0.81534 0.56897 0.78094 0.0
H738 H 0.82168 0.58172 0.735 0.0
H739 H 0.83528 0.59193 0.77775 0.0
C740 C 0.85973 0.60131 0.64011 0.0
C741 C 0.86289 0.62302 0.6558 0.0
C742 C 0.86064 0.58212 0.66372 0.0
C743 C 0.8645 0.58435 0.70338 0.0
C744 C 0.86833 0.60588 0.71888 0.0
H745 H 0.90579 0.47175 0.84433 0.0
H746 H 0.89584 0.51126 0.83219 0.0
C747 C 0.86756 0.62501 0.69537 0.0
C748 C 0.86501 0.56413 0.72852 0.0
H749 H 0.83692 0.53741 0.80155 0.0
C750 C 0.88248 0.54839 0.72336 0.0
C751 C 0.84842 0.56029 0.75716 0.0
C752 C 0.82898 0.57649 0.76305 0.0
C753 C 0.8838 0.5288 0.74598 0.0
C754 C 0.86729 0.52495 0.77479 0.0
C755 C 0.84977 0.54067 0.77999 0.0
C756 C 0.86701 0.50333 0.79627 0.0
C757 C 0.90252 0.51197 0.73814 0.0
C758 C 0.85257 0.48603 0.78364 0.0
C759 C 0.85816 0.46343 0.79074 0.0
C760 C 0.87836 0.45806 0.81017 0.0
C761 C 0.89015 0.47541 0.82921 0.0
C762 C 0.88465 0.49806 0.82187 0.0
H763 H 0.91203 0.51603 0.71148 0.0
H764 H 0.91464 0.51199 0.76252 0.0
H765 H 0.8955 0.4946 0.73545 0.0
H766 H 0.83876 0.48977 0.76411 0.0
H767 H 0.84874 0.45033 0.77591 0.0
H768 H 0.67668 0.88703 0.96396 0.0
H769 H 0.7154 0.89615 0.98293 0.0
H770 H 0.74031 0.84264 0.91015 0.0
H771 H 0.70161 0.8338 0.89072 0.0
H772 H 0.73245 0.8582 0.02213 0.0
H773 H 0.79401 0.88745 0.91245 0.0
H774 H 0.76386 0.89229 0.90815 0.0
H775 H 0.77557 0.865 0.89701 0.0
C776 C 0.69053 0.87844 0.94962 0.0
C777 C 0.68616 0.85948 0.92638 0.0
C778 C 0.71269 0.88342 0.961 0.0
C779 C 0.73073 0.86976 0.94866 0.0
C780 C 0.72671 0.8535 0.91999 0.0
H781 H 0.86102 0.829 0.03951 0.0
H782 H 0.82563 0.83314 1.00366 0.0
C783 C 0.70449 0.84862 0.90844 0.0
C784 C 0.75163 0.86837 0.9724 0.0
H785 H 0.80938 0.8711 0.96957 0.0
C786 C 0.74927 0.86136 0.01078 0.0
C787 C 0.77354 0.87198 0.95736 0.0
C788 C 0.777 0.87977 0.91656 0.0
C789 C 0.76818 0.85739 0.03431 0.0
C790 C 0.79015 0.86107 0.0194 0.0
C791 C 0.79254 0.86828 0.98105 0.0
C792 C 0.81087 0.85736 0.04299 0.0
C793 C 0.76438 0.84843 0.07442 0.0
C794 C 0.81418 0.86917 0.07759 0.0
C795 C 0.83427 0.86653 0.09856 0.0
C796 C 0.85163 0.85232 0.08497 0.0
C797 C 0.84798 0.84001 0.0509 0.0
C798 C 0.82782 0.84251 0.03016 0.0
H799 H 0.74751 0.84027 0.0773 0.0
H800 H 0.7776 0.83593 0.08252 0.0
H801 H 0.76508 0.8627 0.09512 0.0
H802 H 0.80157 0.88105 0.08776 0.0
H803 H 0.83663 0.87655 0.12431 0.0
H804 H 0.34002 0.61026 0.89119 0.0
H805 H 0.35497 0.57641 0.85848 0.0
H806 H 0.40235 0.61813 0.79628 0.0
H807 H 0.38757 0.65161 0.82807 0.0
H808 H 0.37796 0.59003 0.74875 0.0
H809 H 0.41538 0.54233 0.87087 0.0
H810 H 0.38629 0.55054 0.87713 0.0
H811 H 0.40787 0.5719 0.8743 0.0
C812 C 0.35385 0.61209 0.87099 0.0
C813 C 0.36247 0.63364 0.86205 0.0
C814 C 0.36241 0.59277 0.85236 0.0
C815 C 0.37983 0.59476 0.82492 0.0
C816 C 0.38886 0.61617 0.81712 0.0
H817 H 0.45299 0.47957 0.72879 0.0
H818 H 0.44553 0.51839 0.75066 0.0
C819 C 0.38034 0.63533 0.83542 0.0
C820 C 0.38803 0.57497 0.80252 0.0
H821 H 0.41411 0.5236 0.8106 0.0
C822 C 0.38594 0.57554 0.76228 0.0
C823 C 0.3988 0.55626 0.82008 0.0
C824 C 0.40245 0.55519 0.86293 0.0
C825 C 0.39385 0.55768 0.73924 0.0
C826 C 0.40392 0.53863 0.75688 0.0
C827 C 0.40647 0.53828 0.79705 0.0
C828 C 0.41005 0.51797 0.73487 0.0
C829 C 0.3914 0.55939 0.6962 0.0
C830 C 0.39294 0.5054 0.71677 0.0
C831 C 0.39721 0.48337 0.70419 0.0
C832 C 0.41866 0.47353 0.70946 0.0
C833 C 0.43643 0.48692 0.72371 0.0
C834 C 0.43209 0.50897 0.73673 0.0
H835 H 0.39 0.57729 0.6867 0.0
H836 H 0.40598 0.5514 0.6813 0.0
H837 H 0.37572 0.55047 0.6872 0.0
H838 H 0.37576 0.51182 0.71544 0.0
H839 H 0.38316 0.47325 0.69386 0.0
H840 H 0.64524 0.10926 0.64453 0.0
H841 H 0.68114 0.11494 0.61013 0.0
H842 H 0.64588 0.15198 0.52163 0.0
H843 H 0.61022 0.14623 0.55518 0.0
H844 H 0.67426 0.11969 0.49199 0.0
H845 H 0.71914 0.17264 0.5995 0.0
H846 H 0.70857 0.14637 0.61827 0.0
H847 H 0.68901 0.16752 0.60153 0.0
C848 C 0.6452 0.11875 0.61791 0.0
C849 C 0.62482 0.12725 0.60268 0.0
C850 C 0.66572 0.12208 0.59836 0.0
C851 C 0.66622 0.1341 0.56345 0.0
C852 C 0.64594 0.14269 0.54848 0.0
H853 H 0.79501 0.17523 0.45911 0.0
H854 H 0.75464 0.17682 0.47642 0.0
C855 C 0.62553 0.13937 0.56784 0.0
C856 C 0.68762 0.13706 0.54152 0.0
H857 H 0.74118 0.15864 0.54735 0.0
C858 C 0.68884 0.12836 0.504 0.0
C859 C 0.70647 0.14877 0.55685 0.0
C860 C 0.70575 0.15957 0.5961 0.0
C861 C 0.70869 0.1303 0.48199 0.0
C862 C 0.72791 0.14101 0.49804 0.0
C863 C 0.72642 0.15045 0.535 0.0
C864 C 0.75042 0.14045 0.479 0.0
C865 C 0.70896 0.12071 0.44182 0.0
C866 C 0.7611 0.11954 0.47305 0.0
C867 C 0.78399 0.11864 0.46326 0.0
C868 C 0.79667 0.13862 0.45917 0.0
C869 C 0.78554 0.15959 0.46159 0.0
C870 C 0.76257 0.1605 0.47187 0.0
H871 H 0.69162 0.11989 0.42948 0.0
H872 H 0.71984 0.13099 0.42251 0.0
H873 H 0.71583 0.10323 0.4427 0.0
H874 H 0.75223 0.10386 0.4789 0.0
H875 H 0.79223 0.10226 0.46185 0.0
H876 H 0.14833 0.40325 0.44195 0.0
H877 H 0.14751 0.43904 0.4063 0.0
H878 H 0.09831 0.4109 0.3281 0.0
H879 H 0.09883 0.37533 0.36362 0.0
H880 H 0.15956 0.44284 0.32767 0.0
H881 H 0.07213 0.47337 0.35247 0.0
H882 H 0.08547 0.45245 0.38286 0.0
H883 H 0.07295 0.44426 0.33778 0.0
C884 C 0.13678 0.40493 0.41795 0.0
C885 C 0.12354 0.38646 0.40573 0.0
C886 C 0.13652 0.42533 0.39737 0.0
C887 C 0.12279 0.42766 0.36465 0.0
C888 C 0.1088 0.4096 0.35357 0.0
H889 H 0.09561 0.50818 0.17061 0.0
H890 H 0.1059 0.47787 0.21499 0.0
C891 C 0.10914 0.38925 0.37389 0.0
C892 C 0.12417 0.44811 0.34003 0.0
H893 H 0.09113 0.48806 0.29675 0.0
C894 C 0.14473 0.45304 0.3214 0.0
C895 C 0.10483 0.4614 0.33198 0.0
C896 C 0.08266 0.45777 0.35262 0.0
C897 C 0.14606 0.47015 0.29334 0.0
C898 C 0.12638 0.48252 0.28389 0.0
C899 C 0.10614 0.47828 0.30376 0.0
C900 C 0.12579 0.49933 0.25234 0.0
C901 C 0.16811 0.47429 0.2727 0.0
C902 C 0.13474 0.52113 0.25746 0.0
C903 C 0.12902 0.53854 0.23184 0.0
C904 C 0.11401 0.53433 0.20121 0.0
C905 C 0.10714 0.51195 0.194 0.0
C906 C 0.1129 0.49462 0.21945 0.0
H907 H 0.18154 0.4622 0.28161 0.0
H908 H 0.16551 0.47287 0.24119 0.0
H909 H 0.17404 0.49176 0.27874 0.0
H910 H 0.14462 0.5251 0.28282 0.0
H911 H 0.13445 0.55564 0.23832 0.0
H912 H 0.6377 0.59928 0.31354 0.0
H913 H 0.67314 0.60321 0.34984 0.0
H914 H 0.66023 0.67458 0.36387 0.0
H915 H 0.62457 0.67055 0.32872 0.0
H916 H 0.7133 0.63112 0.35327 0.0
H917 H 0.65316 0.64765 0.47283 0.0
H918 H 0.64404 0.63738 0.42653 0.0
H919 H 0.65068 0.66684 0.43304 0.0
C920 C 0.64305 0.61598 0.32269 0.0
C921 C 0.62845 0.63459 0.31876 0.0
C922 C 0.66315 0.61818 0.34374 0.0
C923 C 0.66882 0.63904 0.36054 0.0
C924 C 0.65582 0.65824 0.35187 0.0
H925 H 0.76798 0.68042 0.52949 0.0
H926 H 0.73512 0.67839 0.48675 0.0
C927 C 0.63563 0.65599 0.3314 0.0
C928 C 0.68607 0.6401 0.39138 0.0
H929 H 0.69219 0.65011 0.4876 0.0
C930 C 0.70872 0.63524 0.38262 0.0
C931 C 0.67993 0.64526 0.42978 0.0
C932 C 0.65561 0.64938 0.44132 0.0
C933 C 0.72552 0.63588 0.4112 0.0
C934 C 0.71936 0.64122 0.44944 0.0
C935 C 0.69675 0.64605 0.45821 0.0
C936 C 0.73638 0.642 0.48053 0.0
C937 C 0.74981 0.63115 0.40033 0.0
C938 C 0.7469 0.62205 0.49302 0.0
C939 C 0.7655 0.62309 0.51775 0.0
C940 C 0.77397 0.64414 0.53008 0.0
C941 C 0.76197 0.66394 0.52042 0.0
C942 C 0.74329 0.66285 0.49578 0.0
H943 H 0.75233 0.63126 0.3687 0.0
H944 H 0.76129 0.64388 0.41349 0.0
H945 H 0.75476 0.61424 0.4114 0.0
H946 H 0.74145 0.60577 0.48204 0.0
H947 H 0.77421 0.6075 0.52486 0.0
H948 H 0.0468 0.03498 0.7987 0.0
H949 H 0.03748 -0.00199 0.77114 0.0
H950 H 0.10363 0.9733 0.80322 0.0
H951 H 0.11279 0.01003 0.83112 0.0
H952 H 0.06256 0.98493 0.7097 0.0
H953 H 0.06562 0.91705 0.81811 0.0
H954 H 0.06094 0.94634 0.83088 0.0
H955 H 0.08929 0.93573 0.82395 0.0
C956 C 0.05878 0.02122 0.80197 0.0
C957 C 0.08041 0.02521 0.8175 0.0
C958 C 0.05353 0.00018 0.7858 0.0
C959 C 0.06978 0.98282 0.78526 0.0
C960 C 0.0906 0.98621 0.804 0.0
H961 H 0.13894 0.89181 0.66163 0.0
H962 H 0.11983 0.9213 0.69825 0.0
C963 C 0.09588 0.00724 0.81992 0.0
C964 C 0.0673 0.96324 0.75893 0.0
H965 H 0.07952 0.90693 0.75367 0.0
C966 C 0.06538 0.9677 0.71936 0.0
C967 C 0.07089 0.94077 0.77145 0.0
C968 C 0.07155 0.93469 0.81349 0.0
C969 C 0.0694 0.95069 0.69201 0.0
C970 C 0.07535 0.92882 0.70468 0.0
C971 C 0.07508 0.92384 0.7441 0.0
C972 C 0.08624 0.9124 0.67858 0.0
C973 C 0.06932 0.95658 0.64988 0.0
C974 C 0.07364 0.89821 0.65426 0.0
C975 C 0.08462 0.88132 0.63285 0.0
C976 C 0.10821 0.87843 0.63602 0.0
C977 C 0.12074 0.89354 0.65883 0.0
C978 C 0.10985 0.91033 0.67987 0.0
H979 H 0.06279 0.97394 0.64451 0.0
H980 H 0.08683 0.95539 0.63842 0.0
H981 H 0.05872 0.94428 0.63378 0.0
H982 H 0.05536 0.89967 0.65292 0.0
H983 H 0.07457 0.86979 0.61562 0.0
H984 H 0.76104 0.32219 0.04072 0.0
H985 H 0.79498 0.34412 0.02745 0.0
H986 H 0.76268 0.40395 0.07284 0.0
H987 H 0.7282 0.38172 0.08584 0.0
H988 H 0.77833 0.41091 1.00113 0.0
H989 H 0.84682 0.37151 0.08473 0.0
H990 H 0.83132 0.34982 0.06023 0.0
H991 H 0.81733 0.36688 0.09609 0.0
C992 C 0.76154 0.3398 0.04945 0.0
C993 C 0.7422 0.35023 0.06473 0.0
C994 C 0.78098 0.35236 0.04189 0.0
C995 C 0.78156 0.37568 0.0495 0.0
C996 C 0.76269 0.38594 0.06705 0.0
H997 H 0.91092 0.42311 0.96125 0.0
H998 H 0.87846 0.42237 1.0047 0.0
C999 C 0.74312 0.37322 0.07489 0.0
C1000 C 0.80061 0.38931 0.03385 0.0
H1001 H 0.85781 0.38674 0.02194 0.0
C1002 C 0.7958 0.40611 1.00643 0.0
C1003 C 0.82344 0.38348 0.04116 0.0
C1004 C 0.82999 0.3671 0.07251 0.0
C1005 C 0.81305 0.41579 0.98392 0.0
C1006 C 0.8356 0.40796 0.98819 0.0
C1007 C 0.84055 0.39258 0.01789 0.0
C1008 C 0.85402 0.41377 0.9606 0.0
C1009 C 0.80677 0.43397 0.95542 0.0
C1010 C 0.85107 0.41028 0.92086 0.0
C1011 C 0.86959 0.41137 0.89577 0.0
C1012 C 0.89146 0.41524 0.91019 0.0
C1013 C 0.89421 0.42001 0.94945 0.0
C1014 C 0.87566 0.41951 0.97432 0.0
H1015 H 0.79231 0.44422 0.96615 0.0
H1016 H 0.82122 0.44545 0.9494 0.0
H1017 H 0.8013 0.42592 0.92813 0.0
H1018 H 0.83478 0.4052 0.90947 0.0
H1019 H 0.86707 0.40736 0.86569 0.0
H1020 H 0.36283 0.97274 0.34532 0.0
H1021 H 0.35843 0.0124 0.32656 0.0
H1022 H 0.42425 0.01083 0.27303 0.0
H1023 H 0.42885 0.97127 0.29258 0.0
H1024 H 0.4113 0.05456 0.30226 0.0
H1025 H 0.34564 0.01519 0.20939 0.0
H1026 H 0.34139 0.01094 0.25997 0.0
H1027 H 0.3657 -0.00127 0.23679 0.0
C1028 C 0.37695 0.98133 0.33178 0.0
C1029 C 0.39621 0.96907 0.32053 0.0
C1030 C 0.37426 0.00385 0.32043 0.0
C1031 C 0.39069 0.01425 0.29729 0.0
C1032 C 0.41128 0.00302 0.29058 0.0
H1033 H 0.36898 0.1182 0.12212 0.0
H1034 H 0.37511 0.082 0.15565 0.0
C1035 C 0.41405 0.98051 0.30226 0.0
C1036 C 0.385 0.03499 0.27532 0.0
H1037 H 0.34925 0.05501 0.20576 0.0
C1038 C 0.39772 0.05471 0.28126 0.0
C1039 C 0.36767 0.03492 0.24705 0.0
C1040 C 0.35443 0.01378 0.23753 0.0
C1041 C 0.39314 0.07458 0.26043 0.0
C1042 C 0.37514 0.07478 0.23343 0.0
C1043 C 0.36283 0.05489 0.22677 0.0
C1044 C 0.36869 0.09564 0.21236 0.0
C1045 C 0.40787 0.09509 0.26712 0.0
C1046 C 0.36178 0.11483 0.23287 0.0
C1047 C 0.35831 0.13531 0.21391 0.0
C1048 C 0.36137 0.13698 0.17395 0.0
C1049 C 0.36642 0.11734 0.15289 0.0
C1050 C 0.3701 0.09675 0.17205 0.0
H1051 H 0.42442 0.09041 0.28014 0.0
H1052 H 0.41107 0.1043 0.23985 0.0
H1053 H 0.39914 0.10677 0.2872 0.0
H1054 H 0.3599 0.11418 0.26381 0.0
H1055 H 0.35418 0.15015 0.23083 0.0
H1056 H 0.23637 0.36468 0.44967 0.0
H1057 H 0.27763 0.36498 0.45628 0.0
H1058 H 0.27417 0.30349 0.52299 0.0
H1059 H 0.23313 0.30264 0.51442 0.0
H1060 H 0.29232 0.37227 0.5246 0.0
H1061 H 0.33456 0.2944 0.47462 0.0
H1062 H 0.30645 0.30217 0.45885 0.0
H1063 H 0.31053 0.28752 0.50377 0.0
C1064 C 0.24465 0.35049 0.46354 0.0
C1065 C 0.23177 0.33343 0.481 0.0
C1066 C 0.2682 0.35076 0.46768 0.0
C1067 C 0.27913 0.33431 0.4903 0.0
C1068 C 0.26637 0.3161 0.50469 0.0
H1069 H 0.37883 0.36555 0.66044 0.0
H1070 H 0.34558 0.35468 0.62332 0.0
C1071 C 0.24285 0.31559 0.4998 0.0
C1072 C 0.30218 0.33887 0.50583 0.0
H1073 H 0.35314 0.31438 0.52726 0.0
C1074 C 0.30572 0.35971 0.5244 0.0
C1075 C 0.31981 0.32261 0.50572 0.0
C1076 C 0.31771 0.30054 0.48428 0.0
C1077 C 0.32591 0.3644 0.54399 0.0
C1078 C 0.34287 0.34755 0.54621 0.0
C1079 C 0.33989 0.32709 0.52624 0.0
C1080 C 0.36361 0.35107 0.56957 0.0
C1081 C 0.32879 0.3874 0.56231 0.0
C1082 C 0.385 0.35152 0.55212 0.0
C1083 C 0.40421 0.35745 0.57348 0.0
C1084 C 0.40235 0.36305 0.61271 0.0
C1085 C 0.38101 0.36146 0.63042 0.0
C1086 C 0.36189 0.35537 0.60912 0.0
H1087 H 0.31759 0.40024 0.54873 0.0
H1088 H 0.32419 0.38632 0.59316 0.0
H1089 H 0.34659 0.39333 0.56018 0.0
H1090 H 0.38672 0.34813 0.52167 0.0
H1091 H 0.42038 0.35838 0.55889 0.0
H1092 H 0.89015 0.08823 0.38848 0.0
H1093 H 0.89844 0.05598 0.347 0.0
H1094 H 0.93573 0.09957 0.27026 0.0
H1095 H 0.92667 0.13208 0.31089 0.0
H1096 H 0.90781 0.07538 0.23065 0.0
H1097 H 0.95225 0.01727 0.32892 0.0
H1098 H 0.92562 0.02536 0.34936 0.0
H1099 H 0.94714 0.0465 0.34117 0.0
C1100 C 0.90054 0.09087 0.36325 0.0
C1101 C 0.90772 0.11271 0.35294 0.0
C1102 C 0.90539 0.07236 0.33958 0.0
C1103 C 0.918 0.07522 0.30566 0.0
C1104 C 0.926 0.0969 0.29625 0.0
H1105 H 0.93927 0.9464 0.18928 0.0
H1106 H 0.94929 0.98431 0.21142 0.0
C1107 C 0.92085 0.11546 0.31956 0.0
C1108 C 0.92092 0.05606 0.27835 0.0
H1109 H 0.93343 -0.00023 0.27446 0.0
C1110 C 0.91386 0.05895 0.24007 0.0
C1111 C 0.92933 0.03472 0.29008 0.0
C1112 C 0.93925 0.03088 0.32952 0.0
C1113 C 0.9136 0.04079 0.21404 0.0
C1114 C 0.91986 0.01895 0.22693 0.0
C1115 C 0.92831 0.01639 0.26447 0.0
C1116 C 0.91561 -0.00183 0.20382 0.0
C1117 C 0.90638 0.04524 0.17315 0.0
C1118 C 0.89367 0.99356 0.19019 0.0
C1119 C 0.88817 0.9721 0.17614 0.0
C1120 C 0.90438 0.95469 0.17602 0.0
C1121 C 0.92669 0.95969 0.18727 0.0
C1122 C 0.9323 0.98128 0.20078 0.0
H1123 H 0.91131 0.06259 0.16406 0.0
H1124 H 0.91396 0.03287 0.15288 0.0
H1125 H 0.88765 0.04411 0.17114 0.0
H1126 H 0.88027 0.00594 0.19315 0.0
H1127 H 0.87074 0.96861 0.16836 0.0
H1128 H 0.15256 0.56022 0.14494 0.0
H1129 H 0.18992 0.54921 0.11953 0.0
H1130 H 0.20806 0.61978 0.11011 0.0
H1131 H 0.17147 0.63056 0.13574 0.0
H1132 H 0.20295 0.55797 0.0492 0.0
H1133 H 0.26762 0.59549 0.14169 0.0
H1134 H 0.23894 0.59133 0.15838 0.0
H1135 H 0.24686 0.61704 0.13365 0.0
C1136 C 0.16501 0.57324 0.13908 0.0
C1137 C 0.15919 0.59624 0.14227 0.0
C1138 C 0.18627 0.56697 0.12428 0.0
C1139 C 0.20203 0.58362 0.11319 0.0
C1140 C 0.19665 0.6065 0.11933 0.0
H1141 H 0.25553 0.62614 0.92189 0.0
H1142 H 0.23697 0.59977 0.96458 0.0
C1143 C 0.17556 0.61271 0.13379 0.0
C1144 C 0.22224 0.5781 0.08932 0.0
H1145 H 0.27448 0.59997 0.07099 0.0
C1146 C 0.21893 0.56646 0.05454 0.0
C1147 C 0.24357 0.5882 0.09646 0.0
C1148 C 0.24946 0.59844 0.13487 0.0
C1149 C 0.23507 0.56753 0.02488 0.0
C1150 C 0.25456 0.58124 0.02964 0.0
C1151 C 0.25929 0.59 0.06638 0.0
C1152 C 0.26733 0.59072 0.99626 0.0
C1153 C 0.23041 0.55484 0.98813 0.0
C1154 C 0.29096 0.5939 0.99801 0.0
C1155 C 0.30165 0.60952 0.97364 0.0
C1156 C 0.28879 0.62224 0.94731 0.0
C1157 C 0.26587 0.61666 0.94198 0.0
C1158 C 0.2552 0.60132 0.96646 0.0
H1159 H 0.22325 0.53788 0.99464 0.0
H1160 H 0.21751 0.56413 0.97108 0.0
H1161 H 0.24595 0.55265 0.97056 0.0
H1162 H 0.30081 0.58588 0.02049 0.0
H1163 H 0.31935 0.61344 0.97852 0.0
H1164 H 0.61649 0.02612 0.65919 0.0
H1165 H 0.62379 0.98776 0.68229 0.0
H1166 H 0.56168 0.98963 0.74739 0.0
H1167 H 0.55406 0.02793 0.7234 0.0
H1168 H 0.63127 0.9801 0.75784 0.0
H1169 H 0.56107 0.92524 0.7072 0.0
H1170 H 0.56679 0.95263 0.68632 0.0
H1171 H 0.55179 0.95052 0.73111 0.0
C1172 C 0.60386 0.01792 0.67698 0.0
C1173 C 0.58462 0.02993 0.68925 0.0
C1174 C 0.60819 0.99609 0.69057 0.0
C1175 C 0.59342 0.98579 0.71686 0.0
C1176 C 0.57321 0.99703 0.72675 0.0
H1177 H 0.63271 0.8812 0.8837 0.0
H1178 H 0.6259 0.91786 0.85232 0.0
C1179 C 0.56875 0.01889 0.71278 0.0
C1180 C 0.60056 0.96464 0.73692 0.0
H1181 H 0.58527 0.90996 0.75526 0.0
C1182 C 0.62124 0.96472 0.75712 0.0
C1183 C 0.58754 0.94457 0.73603 0.0
C1184 C 0.56567 0.94308 0.71373 0.0
C1185 C 0.62927 0.94533 0.77627 0.0
C1186 C 0.61609 0.92535 0.77585 0.0
C1187 C 0.59538 0.92529 0.75574 0.0
C1188 C 0.62363 0.904 0.7948 0.0
C1189 C 0.65202 0.94628 0.79597 0.0
C1190 C 0.62526 0.88411 0.77299 0.0
C1191 C 0.62902 0.86329 0.79084 0.0
C1192 C 0.63134 0.86181 0.83098 0.0
C1193 C 0.63138 0.88188 0.85268 0.0
C1194 C 0.62736 0.90282 0.83474 0.0
H1195 H 0.66246 0.96062 0.78536 0.0
H1196 H 0.64944 0.94863 0.82729 0.0
H1197 H 0.6616 0.9303 0.79161 0.0
H1198 H 0.62263 0.88455 0.74218 0.0
H1199 H 0.62885 0.8481 0.77338 0.0
H1200 H 0.37008 0.13978 0.97401 0.0
H1201 H 0.39793 0.12001 0.93404 0.0
H1202 H 0.44923 0.16782 0.96918 0.0
H1203 H 0.42208 0.18632 0.01115 0.0
H1204 H 0.41966 0.13096 0.87517 0.0
H1205 H 0.48489 0.11275 0.98381 0.0
H1206 H 0.45732 0.12333 0.9969 0.0
H1207 H 0.47967 0.14258 0.98319 0.0
C1208 C 0.38737 0.14589 0.97344 0.0
C1209 C 0.39383 0.16466 0.9957 0.0
C1210 C 0.40331 0.13458 0.95059 0.0
C1211 C 0.42596 0.142 0.94912 0.0
C1212 C 0.43221 0.16108 0.9708 0.0
H1213 H 0.51449 0.13011 0.75761 0.0
H1214 H 0.48498 0.1378 0.80405 0.0
C1215 C 0.41649 0.17194 0.99441 0.0
C1216 C 0.44272 0.13079 0.92326 0.0
H1217 H 0.49805 0.11401 0.91772 0.0
C1218 C 0.43667 0.1269 0.88478 0.0
C1219 C 0.46483 0.12474 0.93563 0.0
C1220 C 0.47191 0.12583 0.97726 0.0
C1221 C 0.45233 0.1184 0.85806 0.0
C1222 C 0.47508 0.1147 0.86956 0.0
C1223 C 0.48081 0.11731 0.90849 0.0
C1224 C 0.49341 0.10967 0.84136 0.0
C1225 C 0.44415 0.11345 0.81784 0.0
C1226 C 0.50893 0.09191 0.84743 0.0
C1227 C 0.52673 0.08813 0.82146 0.0
C1228 C 0.52928 0.10203 0.78895 0.0
C1229 C 0.51349 0.11946 0.78277 0.0
C1230 C 0.49614 0.12355 0.80899 0.0
H1231 H 0.42606 0.10821 0.81796 0.0
H1232 H 0.44539 0.12905 0.80021 0.0
H1233 H 0.45425 0.09986 0.80399 0.0
H1234 H 0.50732 0.08102 0.8723 0.0
H1235 H 0.53855 0.07449 0.82699 0.0
H1236 H 0.62345 0.59191 0.15104 0.0
H1237 H 0.64527 0.61577 0.10771 0.0
H1238 H 0.64201 0.6705 0.18952 0.0
H1239 H 0.61965 0.64674 0.23283 0.0
H1240 H 0.62203 0.68082 0.12193 0.0
H1241 H 0.70668 0.64475 0.09184 0.0
H1242 H 0.68449 0.62413 0.0878 0.0
H1243 H 0.69031 0.63696 0.13365 0.0
C1244 C 0.62819 0.60873 0.16056 0.0
C1245 C 0.6196 0.61752 0.1952 0.0
C1246 C 0.64081 0.62235 0.13574 0.0
C1247 C 0.64527 0.64498 0.14521 0.0
C1248 C 0.63878 0.65306 0.18162 0.0
H1249 H 0.69654 0.75498 0.01121 0.0
H1250 H 0.69559 0.72059 0.05001 0.0
C1251 C 0.62614 0.63939 0.20656 0.0
C1252 C 0.65237 0.66104 0.11461 0.0
H1253 H 0.69192 0.67078 0.0447 0.0
C1254 C 0.63744 0.67871 0.10536 0.0
C1255 C 0.6724 0.65824 0.09274 0.0
C1256 C 0.6895 0.64011 0.10223 0.0
C1257 C 0.64175 0.69344 0.07467 0.0
C1258 C 0.66134 0.69019 0.05191 0.0
C1259 C 0.67662 0.67286 0.06156 0.0
C1260 C 0.66683 0.70616 0.02036 0.0
C1261 C 0.62538 0.71261 0.06723 0.0
C1262 C 0.65224 0.70848 0.98863 0.0
C1263 C 0.65284 0.72816 0.96613 0.0
C1264 C 0.66793 0.74571 0.97546 0.0
C1265 C 0.68463 0.74176 1.00357 0.0
C1266 C 0.68407 0.72213 0.02589 0.0
H1267 H 0.61365 0.71535 0.09176 0.0
H1268 H 0.63463 0.72864 0.06164 0.0
H1269 H 0.61504 0.70863 0.04146 0.0
H1270 H 0.63898 0.69616 0.98362 0.0
H1271 H 0.63974 0.73072 0.94475 0.0
H1272 H 0.96475 0.85982 0.25003 0.0
H1273 H 0.99038 0.85447 0.30448 0.0
H1274 H 0.94252 0.88814 0.37872 0.0
H1275 H 0.91621 0.89196 0.32517 0.0
H1276 H 0.01056 0.88552 0.34572 0.0
H1277 H 0.95716 0.83418 0.44318 0.0
H1278 H 0.94973 0.83907 0.3936 0.0
H1279 H 0.94374 0.86019 0.42948 0.0
C1280 C 0.95936 0.86531 0.2782 0.0
C1281 C 0.9382 0.87568 0.28345 0.0
C1282 C 0.97413 0.86255 0.30922 0.0
C1283 C 0.96816 0.87048 0.34591 0.0
C1284 C 0.94721 0.88123 0.35104 0.0
H1285 H 0.07883 0.88891 0.51029 0.0
H1286 H 0.04396 0.89742 0.4744 0.0
C1287 C 0.93229 0.88362 0.32021 0.0
C1288 C 0.98445 0.86878 0.37818 0.0
H1289 H 0.99087 0.84963 0.47011 0.0
C1290 C 0.00627 0.87764 0.37291 0.0
C1291 C 0.97883 0.85837 0.41356 0.0
C1292 C 0.95617 0.84721 0.42021 0.0
C1293 C 0.02278 0.87608 0.4017 0.0
C1294 C 0.01701 0.86625 0.43751 0.0
C1295 C 0.99509 0.85762 0.44299 0.0
C1296 C 0.0343 0.86226 0.46761 0.0
C1297 C 0.04653 0.884 0.39262 0.0
C1298 C 0.03918 0.83995 0.47865 0.0
C1299 C 0.05848 0.83523 0.5003 0.0
C1300 C 0.0732 0.85275 0.51092 0.0
C1301 C 0.06743 0.87524 0.50271 0.0
C1302 C 0.04777 0.88002 0.4818 0.0
H1303 H 0.04927 0.88592 0.36121 0.0
H1304 H 0.04944 0.90074 0.40617 0.0
H1305 H 0.05935 0.87194 0.4039 0.0
H1306 H 0.0291 0.82601 0.46788 0.0
H1307 H 0.06297 0.81772 0.50568 0.0
H1308 H 0.88049 0.21689 0.51591 0.0
H1309 H 0.89357 0.24685 0.55863 0.0
H1310 H 0.90071 0.19849 0.65077 0.0
H1311 H 0.88718 0.16831 0.60796 0.0
H1312 H 0.87993 0.23589 0.6748 0.0
H1313 H 0.9566 0.26135 0.59513 0.0
H1314 H 0.93265 0.25938 0.56352 0.0
H1315 H 0.9427 0.23447 0.58809 0.0
C1316 C 0.88502 0.2126 0.54518 0.0
C1317 C 0.88305 0.1903 0.5586 0.0
C1318 C 0.89269 0.22969 0.56947 0.0
C1319 C 0.89875 0.22477 0.60755 0.0
C1320 C 0.89639 0.20256 0.62132 0.0
H1321 H 0.95403 0.34309 0.72771 0.0
H1322 H 0.9512 0.30437 0.70311 0.0
C1323 C 0.88855 0.18542 0.59699 0.0
C1324 C 0.90599 0.24333 0.63331 0.0
H1325 H 0.93991 0.28998 0.6356 0.0
C1326 C 0.89333 0.24751 0.66665 0.0
C1327 C 0.92397 0.25805 0.6235 0.0
C1328 C 0.93993 0.25297 0.59083 0.0
C1329 C 0.89702 0.26701 0.68869 0.0
C1330 C 0.91318 0.28308 0.67614 0.0
C1331 C 0.92705 0.27799 0.64459 0.0
C1332 C 0.91491 0.30582 0.69363 0.0
C1333 C 0.88345 0.27026 0.72499 0.0
C1334 C 0.89563 0.3197 0.69563 0.0
C1335 C 0.89726 0.34163 0.7101 0.0
C1336 C 0.9182 0.35001 0.72265 0.0
C1337 C 0.93758 0.33645 0.71978 0.0
C1338 C 0.93597 0.31446 0.70543 0.0
H1339 H 0.87883 0.2537 0.73793 0.0
H1340 H 0.89297 0.2803 0.74663 0.0
H1341 H 0.86747 0.27927 0.71804 0.0
H1342 H 0.87939 0.31376 0.68523 0.0
H1343 H 0.88218 0.35207 0.7114 0.0
H1344 H 0.59131 0.80928 0.07462 0.0
H1345 H 0.55545 0.81964 0.10508 0.0
H1346 H 0.53184 0.84802 0.998 0.0
H1347 H 0.5681 0.83855 0.96793 0.0
H1348 H 0.52669 0.87674 0.05611 0.0
H1349 H 0.49246 0.79348 0.09976 0.0
H1350 H 0.52113 0.7972 0.11574 0.0
H1351 H 0.51503 0.79639 0.06516 0.0
C1352 C 0.57835 0.81755 0.05759 0.0
C1353 C 0.58221 0.82283 0.01887 0.0
C1354 C 0.55778 0.82316 0.0748 0.0
C1355 C 0.54078 0.83405 0.0535 0.0
C1356 C 0.54463 0.8393 0.01475 0.0
H1357 H 0.41426 0.88744 0.15246 0.0
H1358 H 0.44124 0.87274 0.10481 0.0
C1359 C 0.56526 0.83384 0.99762 0.0
C1360 C 0.52013 0.84223 0.07294 0.0
H1361 H 0.47813 0.82602 0.13435 0.0
C1362 C 0.51576 0.86559 0.07249 0.0
C1363 C 0.50584 0.82761 0.09413 0.0
C1364 C 0.50869 0.80225 0.09343 0.0
C1365 C 0.49828 0.87488 0.09457 0.0
C1366 C 0.48501 0.86042 0.11755 0.0
C1367 C 0.48857 0.83698 0.11668 0.0
C1368 C 0.46882 0.86963 0.14539 0.0
C1369 C 0.49473 0.90016 0.09486 0.0
C1370 C 0.47578 0.87299 0.1834 0.0
C1371 C 0.46064 0.88157 0.21034 0.0
C1372 C 0.43825 0.88657 0.1997 0.0
C1373 C 0.43147 0.88371 0.1613 0.0
C1374 C 0.44671 0.8752 0.13424 0.0
H1375 H 0.50616 0.90906 0.0745 0.0
H1376 H 0.4769 0.90411 0.08714 0.0
H1377 H 0.49777 0.90683 0.12424 0.0
H1378 H 0.49292 0.86891 0.1922 0.0
H1379 H 0.46639 0.88407 0.23958 0.0
H1380 H 0.42085 0.3329 0.7141 0.0
H1381 H 0.41734 0.29776 0.75068 0.0
H1382 H 0.35703 0.32372 0.80508 0.0
H1383 H 0.36043 0.35858 0.76857 0.0
H1384 H 0.42318 0.30303 0.82623 0.0
H1385 H 0.34283 0.25761 0.80505 0.0
H1386 H 0.3539 0.27694 0.76947 0.0
H1387 H 0.33714 0.28729 0.80911 0.0
C1388 C 0.40602 0.3305 0.73197 0.0
C1389 C 0.39103 0.34854 0.73894 0.0
C1390 C 0.40419 0.31047 0.75323 0.0
C1391 C 0.38705 0.30813 0.78093 0.0
C1392 C 0.37023 0.32489 0.78359 0.0
H1393 H 0.35673 0.27359 1.00435 0.0
H1394 H 0.36553 0.28939 0.94117 0.0
C1395 C 0.37215 0.3449 0.76261 0.0
C1396 C 0.38939 0.29155 0.81271 0.0
H1397 H 0.35733 0.25841 0.87161 0.0
C1398 C 0.40908 0.29262 0.83551 0.0
C1399 C 0.37105 0.27797 0.82489 0.0
C1400 C 0.35017 0.27472 0.80051 0.0
C1401 C 0.41002 0.28218 0.87172 0.0
C1402 C 0.39082 0.27047 0.88532 0.0
C1403 C 0.37189 0.26781 0.86129 0.0
C1404 C 0.38897 0.26279 0.92561 0.0
C1405 C 0.43083 0.28504 0.89641 0.0
C1406 C 0.4 0.24313 0.93827 0.0
C1407 C 0.39511 0.23417 0.97456 0.0
C1408 C 0.3791 0.24472 0.99854 0.0
C1409 C 0.36929 0.26522 0.98665 0.0
C1410 C 0.37417 0.27416 0.9505 0.0
H1411 H 0.44421 0.29512 0.88187 0.0
H1412 H 0.4262 0.29354 0.92375 0.0
H1413 H 0.43789 0.26817 0.90375 0.0
H1414 H 0.41135 0.23405 0.9193 0.0
H1415 H 0.4025 0.21811 0.9825 0.0
H1416 H 0.02063 0.11633 0.74666 0.0
H1417 H 0.99586 0.11671 0.68973 0.0
H1418 H 0.05366 0.10416 0.61708 0.0
H1419 H 0.07821 0.10329 0.67338 0.0
H1420 H 0.99483 0.14087 0.6198 0.0
H1421 H 0.01291 0.04978 0.59533 0.0
H1422 H 0.02056 0.06415 0.63918 0.0
H1423 H 0.03772 0.06734 0.59685 0.0
C1424 C 0.02804 0.11406 0.71847 0.0
C1425 C 0.05127 0.10938 0.71452 0.0
C1426 C 0.01391 0.1142 0.686 0.0
C1427 C 0.02287 0.1098 0.64929 0.0
C1428 C 0.04629 0.10693 0.64518 0.0
H1429 H 0.93709 0.12578 0.44627 0.0
H1430 H 0.97234 0.1243 0.48304 0.0
C1431 C 0.06031 0.10655 0.67743 0.0
C1432 C 0.00775 0.10693 0.61552 0.0
H1433 H 0.99089 0.06831 0.54812 0.0
C1434 C 0.99401 0.12507 0.60397 0.0
C1435 C 0.0066 0.08618 0.59516 0.0
C1436 C 0.02006 0.06566 0.60739 0.0
C1437 C 0.979 0.12299 0.57279 0.0
C1438 C 0.97809 0.1023 0.55207 0.0
C1439 C 0.99197 0.08425 0.56349 0.0
C1440 C 0.96068 0.09826 0.522 0.0
C1441 C 0.9635 0.1426 0.5635 0.0
C1442 C 0.94367 0.08216 0.5287 0.0
C1443 C 0.92371 0.08258 0.50716 0.0
C1444 C 0.92038 0.09937 0.47905 0.0
C1445 C 0.93898 0.11279 0.46802 0.0
C1446 C 0.95902 0.1123 0.48956 0.0
H1447 H 0.96352 0.15565 0.58649 0.0
H1448 H 0.96916 0.15079 0.53649 0.0
H1449 H 0.94583 0.13664 0.55922 0.0
H1450 H 0.94478 0.07081 0.55308 0.0
H1451 H 0.90979 0.07181 0.51598 0.0
H1452 H 0.12026 0.74564 0.5407 0.0
H1453 H 0.11467 0.70802 0.51227 0.0
H1454 H 0.14647 0.73077 0.40767 0.0
H1455 H 0.1521 0.76814 0.43557 0.0
H1456 H 0.08898 0.70056 0.44455 0.0
H1457 H 0.17659 0.66917 0.42698 0.0
H1458 H 0.16933 0.69157 0.46015 0.0
H1459 H 0.17342 0.69766 0.40994 0.0
C1460 C 0.12642 0.74248 0.51189 0.0
C1461 C 0.13654 0.75989 0.49029 0.0
C1462 C 0.1232 0.721 0.49574 0.0
C1463 C 0.13044 0.71655 0.4581 0.0
C1464 C 0.14118 0.7337 0.43705 0.0
H1465 H 0.11095 0.64677 0.25723 0.0
H1466 H 0.12136 0.66912 0.31354 0.0
C1467 C 0.14423 0.75513 0.45296 0.0
C1468 C 0.12487 0.69495 0.43879 0.0
H1469 H 0.14868 0.65417 0.38241 0.0
C1470 C 0.10197 0.68993 0.43189 0.0
C1471 C 0.14188 0.68116 0.42242 0.0
C1472 C 0.16668 0.68502 0.43057 0.0
C1473 C 0.09571 0.67265 0.40631 0.0
C1474 C 0.11282 0.66004 0.38768 0.0
C1475 C 0.13564 0.66396 0.39675 0.0
C1476 C 0.10753 0.64535 0.35457 0.0
C1477 C 0.07098 0.66913 0.397 0.0
C1478 C 0.09658 0.62444 0.35919 0.0
C1479 C 0.0906 0.61158 0.32691 0.0
C1480 C 0.09531 0.6197 0.28981 0.0
C1481 C 0.10683 0.64032 0.28551 0.0
C1482 C 0.11289 0.65302 0.3176 0.0
H1483 H 0.05983 0.6812 0.41252 0.0
H1484 H 0.06813 0.67112 0.36563 0.0
H1485 H 0.06593 0.65164 0.40491 0.0
H1486 H 0.09244 0.61825 0.38762 0.0
H1487 H 0.08178 0.59568 0.33089 0.0
H1488 H 0.90616 0.61509 0.48901 0.0
H1489 H 0.93471 0.61356 0.43841 0.0
H1490 H 0.92746 0.68541 0.41995 0.0
H1491 H 0.89818 0.68686 0.46954 0.0
H1492 H 0.92587 0.66292 0.35339 0.0
H1493 H -0.00011 0.63268 0.43595 0.0
H1494 H 0.97599 0.61437 0.44253 0.0
H1495 H 0.97465 0.64326 0.459 0.0
C1496 C 0.91093 0.63065 0.4747 0.0
C1497 C 0.90011 0.65117 0.48376 0.0
C1498 C 0.92737 0.62978 0.44587 0.0
C1499 C 0.93355 0.64944 0.42573 0.0
C1500 C 0.92312 0.67005 0.43528 0.0
H1501 H 0.04763 0.6381 0.26935 0.0
H1502 H 0.0219 0.65274 0.31778 0.0
C1503 C 0.90655 0.6709 0.46396 0.0
C1504 C 0.94969 0.64804 0.39303 0.0
H1505 H 0.00145 0.62722 0.36756 0.0
C1506 C 0.94253 0.6554 0.35657 0.0
C1507 C 0.97159 0.63861 0.39717 0.0
C1508 C 0.98107 0.63202 0.43587 0.0
C1509 C 0.95631 0.6527 0.32394 0.0
C1510 C 0.97755 0.6418 0.32771 0.0
C1511 C 0.98504 0.63531 0.36444 0.0
C1512 C 0.99217 0.63639 0.29415 0.0
C1513 C 0.94801 0.66168 0.28588 0.0
C1514 C 0.98407 0.6228 0.26391 0.0
C1515 C -0.00119 0.61514 0.23514 0.0
C1516 C 0.02193 0.62082 0.23625 0.0
C1517 C 0.0298 0.63472 0.26613 0.0
C1518 C 0.0151 0.64262 0.29449 0.0
H1519 H 0.93568 0.6757 0.28988 0.0
H1520 H 0.96227 0.66792 0.26796 0.0
H1521 H 0.93927 0.64791 0.27005 0.0
H1522 H 0.96662 0.61717 0.26353 0.0
H1523 H 0.99234 0.604 0.21299 0.0
H1524 H 0.16443 0.12829 0.7527 0.0
H1525 H 0.17124 0.16421 0.72023 0.0
H1526 H 0.12638 0.19787 0.79944 0.0
H1527 H 0.11937 0.16203 0.83213 0.0
H1528 H 0.11244 0.19956 0.72165 0.0
H1529 H 0.20223 0.22581 0.73757 0.0
H1530 H 0.19842 0.19655 0.72503 0.0
H1531 H 0.18854 0.20667 0.77073 0.0
C1532 C 0.15679 0.14348 0.76439 0.0
C1533 C 0.14097 0.14214 0.79455 0.0
C1534 C 0.16069 0.16405 0.74567 0.0
C1535 C 0.14907 0.18364 0.75711 0.0
C1536 C 0.13538 0.18288 0.79002 0.0
H1537 H 0.15723 0.31377 0.64358 0.0
H1538 H 0.15476 0.28313 0.69026 0.0
C1539 C 0.13156 0.16234 0.80889 0.0
C1540 C 0.14829 0.2036 0.73134 0.0
H1541 H 0.1812 0.24317 0.68688 0.0
C1542 C 0.12743 0.20927 0.71434 0.0
C1543 C 0.16786 0.21613 0.72174 0.0
C1544 C 0.19052 0.21116 0.73994 0.0
C1545 C 0.1257 0.2269 0.68745 0.0
C1546 C 0.14538 0.23904 0.6771 0.0
C1547 C 0.16616 0.23367 0.69465 0.0
C1548 C 0.14477 0.25778 0.64881 0.0
C1549 C 0.10283 0.23251 0.67051 0.0
C1550 C 0.13954 0.25376 0.60999 0.0
C1551 C 0.14095 0.27132 0.58301 0.0
C1552 C 0.14766 0.29313 0.59451 0.0
C1553 C 0.15208 0.29716 0.63367 0.0
C1554 C 0.15073 0.27967 0.66046 0.0
H1555 H 0.08877 0.22502 0.68749 0.0
H1556 H 0.10034 0.25112 0.66892 0.0
H1557 H 0.10185 0.22566 0.64087 0.0
H1558 H 0.13518 0.23688 0.60034 0.0
H1559 H 0.1378 0.26756 0.55305 0.0
H1560 H 0.45404 0.41085 0.87012 0.0
H1561 H 0.48214 0.40434 0.92084 0.0
H1562 H 0.53003 0.38101 0.83628 0.0
H1563 H 0.5024 0.38797 0.78531 0.0
H1564 H 0.51699 0.3526 0.91555 0.0
H1565 H 0.54884 0.44131 0.92494 0.0
H1566 H 0.51903 0.43556 0.91835 0.0
H1567 H 0.53846 0.43012 0.87995 0.0
C1568 C 0.47058 0.40442 0.86225 0.0
C1569 C 0.47587 0.39967 0.82363 0.0
C1570 C 0.48654 0.40066 0.89128 0.0
C1571 C 0.508 0.39213 0.88214 0.0
C1572 C 0.51343 0.38749 0.84376 0.0
H1573 H 0.6383 0.36883 0.96246 0.0
H1574 H 0.60301 0.38253 0.93484 0.0
C1575 C 0.49756 0.39136 0.81471 0.0
C1576 C 0.525 0.38805 0.91244 0.0
H1577 H 0.56877 0.41348 0.95971 0.0
C1578 C 0.5281 0.36591 0.92589 0.0
C1579 C 0.53931 0.40555 0.92558 0.0
C1580 C 0.53641 0.42955 0.91165 0.0
C1581 C 0.54593 0.36058 0.95105 0.0
C1582 C 0.56088 0.37795 0.96302 0.0
C1583 C 0.55715 0.40028 0.95072 0.0
C1584 C 0.58229 0.37265 0.98323 0.0
C1585 C 0.54946 0.33623 0.96281 0.0
C1586 C 0.58247 0.36339 0.02037 0.0
C1587 C 0.60278 0.35555 0.03644 0.0
C1588 C 0.62308 0.35667 0.01539 0.0
C1589 C 0.62295 0.36739 0.97931 0.0
C1590 C 0.60277 0.37531 0.96346 0.0
H1591 H 0.53808 0.32447 0.94703 0.0
H1592 H 0.56729 0.33104 0.95763 0.0
H1593 H 0.54604 0.33441 0.994 0.0
H1594 H 0.56683 0.3615 0.03631 0.0
H1595 H 0.60231 0.34762 0.06441 0.0
H1596 H 0.28191 0.75696 0.01352 0.0
H1597 H 0.28636 0.78097 0.07068 0.0
H1598 H 0.35179 0.75095 0.09217 0.0
H1599 H 0.34771 0.72775 0.03508 0.0
H1600 H 0.29046 0.7694 0.14466 0.0
H1601 H 0.36781 0.81601 0.10237 0.0
H1602 H 0.35187 0.7992 0.06863 0.0
H1603 H 0.37208 0.78601 0.10038 0.0
C1604 C 0.29747 0.75595 0.02996 0.0
C1605 C 0.31473 0.74085 0.01909 0.0
C1606 C 0.29993 0.76954 0.06277 0.0
C1607 C 0.31961 0.76813 0.08548 0.0
C1608 C 0.33679 0.75301 0.07459 0.0
H1609 H 0.36986 0.83101 0.29251 0.0
H1610 H 0.35754 0.80093 0.24904 0.0
C1611 C 0.33447 0.73975 0.04164 0.0
C1612 C 0.32197 0.78171 0.12134 0.0
H1613 H 0.35768 0.81774 0.16858 0.0
C1614 C 0.30509 0.78009 0.14976 0.0
C1615 C 0.34106 0.79569 0.12815 0.0
C1616 C 0.35909 0.79953 0.09809 0.0
C1617 C 0.30698 0.79179 0.18488 0.0
C1618 C 0.32627 0.80531 0.19181 0.0
C1619 C 0.34309 0.80697 0.16347 0.0
C1620 C 0.32884 0.81951 0.22671 0.0
C1621 C 0.28853 0.78953 0.21452 0.0
C1622 C 0.31585 0.83927 0.23049 0.0
C1623 C 0.3229 0.85653 0.2553 0.0
C1624 C 0.34307 0.85429 0.27654 0.0
C1625 C 0.35415 0.83321 0.2768 0.0
C1626 C 0.34727 0.81606 0.25159 0.0
H1627 H 0.27691 0.77524 0.20801 0.0
H1628 H 0.29597 0.78698 0.24353 0.0
H1629 H 0.27845 0.80538 0.21526 0.0
H1630 H 0.30167 0.84237 0.21142 0.0
H1631 H 0.31407 0.87261 0.25439 0.0
H1632 H 0.14677 0.42625 0.54125 0.0
H1633 H 0.1172 0.44911 0.57186 0.0
H1634 H 0.06804 0.39723 0.54564 0.0
H1635 H 0.09701 0.37554 0.51222 0.0
H1636 H 0.04728 0.43443 0.54893 0.0
H1637 H 0.10292 0.43156 0.67772 0.0
H1638 H 0.11429 0.44788 0.63891 0.0
H1639 H 0.11044 0.41777 0.63352 0.0
C1640 C 0.12941 0.42029 0.54064 0.0
C1641 C 0.12417 0.39904 0.52483 0.0
C1642 C 0.1126 0.43313 0.55878 0.0
C1643 C 0.0906 0.42437 0.563 0.0
C1644 C 0.08492 0.4043 0.54344 0.0
H1645 H 0.00391 0.41748 0.75288 0.0
H1646 H 0.03627 0.4203 0.70975 0.0
C1647 C 0.10151 0.3919 0.52407 0.0
C1648 C 0.07412 0.43433 0.59074 0.0
H1649 H 0.06675 0.4466 0.68594 0.0
C1650 C 0.05157 0.43724 0.57886 0.0
C1651 C 0.07965 0.43785 0.63002 0.0
C1652 C 0.10306 0.43342 0.64596 0.0
C1653 C 0.0342 0.44198 0.60524 0.0
C1654 C 0.03972 0.44543 0.64453 0.0
C1655 C 0.0625 0.44407 0.65592 0.0
C1656 C 0.02201 0.44725 0.67494 0.0
C1657 C 0.01003 0.44144 0.59092 0.0
C1658 C 0.00379 0.46246 0.67165 0.0
C1659 C 0.9849 0.46032 0.69566 0.0
C1660 C 0.98446 0.44369 0.72451 0.0
C1661 C 0.00386 0.43052 0.73098 0.0
C1662 C 0.02236 0.43208 0.70612 0.0
H1663 H 0.0086 0.43298 0.5625 0.0
H1664 H -0.00116 0.43238 0.6114 0.0
H1665 H 0.00373 0.45902 0.58752 0.0
H1666 H 0.00353 0.47506 0.6491 0.0
H1667 H 0.97017 0.47081 0.69035 0.0
H1668 H 0.81942 0.85235 0.24292 0.0
H1669 H 0.81149 0.81944 0.28341 0.0
H1670 H 0.86787 0.78404 0.2325 0.0
H1671 H 0.87513 0.81634 0.19068 0.0
H1672 H 0.83643 0.75457 0.25453 0.0
H1673 H 0.85327 0.81432 0.374 0.0
H1674 H 0.82895 0.82206 0.34604 0.0
H1675 H 0.85665 0.82219 0.32435 0.0
C1676 C 0.82948 0.83717 0.23915 0.0
C1677 C 0.84811 0.83711 0.214 0.0
C1678 C 0.82517 0.81849 0.26278 0.0
C1679 C 0.83976 0.79968 0.26232 0.0
C1680 C 0.8566 0.7985 0.2339 0.0
H1681 H 0.87044 0.71875 0.46474 0.0
H1682 H 0.87094 0.74521 0.41065 0.0
C1683 C 0.86062 0.81698 0.20969 0.0
C1684 C 0.83921 0.78257 0.2938 0.0
H1685 H 0.8431 0.77709 0.39136 0.0
C1686 C 0.83783 0.75948 0.28446 0.0
C1687 C 0.84178 0.7889 0.33288 0.0
C1688 C 0.8455 0.81318 0.34498 0.0
C1689 C 0.83866 0.74262 0.31302 0.0
C1690 C 0.84016 0.74904 0.35222 0.0
C1691 C 0.84172 0.77211 0.36145 0.0
C1692 C 0.84033 0.73222 0.3842 0.0
C1693 C 0.83869 0.71814 0.30068 0.0
C1694 C 0.8229 0.71618 0.38776 0.0
C1695 C 0.82284 0.70077 0.41825 0.0
C1696 C 0.83994 0.70136 0.44644 0.0
C1697 C 0.85713 0.71771 0.44339 0.0
C1698 C 0.85738 0.7329 0.41247 0.0
H1699 H 0.84499 0.7162 0.27078 0.0
H1700 H 0.84938 0.70762 0.31993 0.0
H1701 H 0.8211 0.71152 0.30152 0.0
H1702 H 0.80911 0.71576 0.36725 0.0
H1703 H 0.80915 0.6886 0.42007 0.0
H1704 H 0.326 0.67564 0.0904 0.0
H1705 H 0.35315 0.67409 0.14412 0.0
H1706 H 0.40847 0.67278 0.06311 0.0
H1707 H 0.38158 0.67406 0.00992 0.0
H1708 H 0.38434 0.64034 0.15785 0.0
H1709 H 0.42875 0.72138 0.13905 0.0
H1710 H 0.40163 0.71575 0.11677 0.0
H1711 H 0.42758 0.70686 0.09391 0.0
C1712 C 0.34399 0.67499 0.08434 0.0
C1713 C 0.3519 0.67527 0.04631 0.0
C1714 C 0.3594 0.67437 0.11488 0.0
C1715 C 0.38277 0.67412 0.1075 0.0
C1716 C 0.39052 0.67384 0.06942 0.0
H1717 H 0.5065 0.62732 0.14577 0.0
H1718 H 0.47096 0.64684 0.13143 0.0
C1719 C 0.3752 0.67435 0.03911 0.0
C1720 C 0.39941 0.67155 0.13877 0.0
H1721 H 0.45242 0.68952 0.16254 0.0
C1722 C 0.39888 0.65148 0.16024 0.0
C1723 C 0.41816 0.68631 0.14209 0.0
C1724 C 0.41889 0.7089 0.12195 0.0
C1725 C 0.41792 0.64435 0.18101 0.0
C1726 C 0.43769 0.65785 0.18035 0.0
C1727 C 0.43725 0.67913 0.16257 0.0
C1728 C 0.45984 0.64821 0.19065 0.0
C1729 C 0.4176 0.62143 0.20014 0.0
C1730 C 0.46525 0.64271 0.2287 0.0
C1731 C 0.4854 0.63128 0.23684 0.0
C1732 C 0.50044 0.62559 0.20706 0.0
C1733 C 0.49512 0.63148 0.16914 0.0
C1734 C 0.475 0.64281 0.16103 0.0
H1735 H 0.40119 0.61252 0.19607 0.0
H1736 H 0.43136 0.61064 0.18842 0.0
H1737 H 0.42062 0.62344 0.23142 0.0
H1738 H 0.45372 0.64683 0.25186 0.0
H1739 H 0.48908 0.62663 0.26629 0.0
H1740 H 0.63621 0.25188 0.0542 0.0
H1741 H 0.61821 0.22102 0.01797 0.0
H1742 H 0.67785 0.21549 0.94697 0.0
H1743 H 0.69564 0.24611 0.9828 0.0
H1744 H 0.60973 0.22814 0.94108 0.0
H1745 H 0.65969 0.14976 0.9574 0.0
H1746 H 0.66124 0.1727 0.99166 0.0
H1747 H 0.67779 0.17351 0.9482 0.0
C1748 C 0.64586 0.24318 0.03221 0.0
C1749 C 0.66734 0.25116 0.02133 0.0
C1750 C 0.6355 0.22575 0.01128 0.0
C1751 C 0.64672 0.21586 0.97986 0.0
C1752 C 0.66901 0.22248 0.97151 0.0
H1753 H 0.63023 0.15904 0.76023 0.0
H1754 H 0.63981 0.17958 0.81935 0.0
C1755 C 0.6792 0.24 0.992 0.0
C1756 C 0.63428 0.20181 0.95152 0.0
H1757 H 0.64014 0.15448 0.89619 0.0
C1758 C 0.61593 0.21171 0.93195 0.0
C1759 C 0.64248 0.18048 0.93946 0.0
C1760 C 0.66124 0.16842 0.96059 0.0
C1761 C 0.60665 0.20156 0.89901 0.0
C1762 C 0.6159 0.18101 0.88557 0.0
C1763 C 0.63331 0.17044 0.90638 0.0
C1764 C 0.60873 0.17083 0.84871 0.0
C1765 C 0.58806 0.2135 0.87725 0.0
C1766 C 0.58795 0.15949 0.8456 0.0
C1767 C 0.58248 0.14781 0.81189 0.0
C1768 C 0.59756 0.14761 0.78067 0.0
C1769 C 0.61809 0.15947 0.78355 0.0
C1770 C 0.62361 0.17104 0.81729 0.0
H1771 H 0.5835 0.23003 0.89039 0.0
H1772 H 0.5935 0.21642 0.84713 0.0
H1773 H 0.5727 0.20267 0.87643 0.0
H1774 H 0.57646 0.15879 0.86983 0.0
H1775 H 0.56717 0.13772 0.81124 0.0
H1776 H 0.29864 0.23269 0.14138 0.0
H1777 H 0.27126 0.25168 0.18305 0.0
H1778 H 0.32441 0.29435 0.22788 0.0
H1779 H 0.35194 0.27479 0.18733 0.0
H1780 H 0.30394 0.27324 0.28402 0.0
H1781 H 0.23783 0.31018 0.19072 0.0
H1782 H 0.24229 0.28089 0.17964 0.0
H1783 H 0.26485 0.30097 0.17212 0.0
C1784 C 0.30429 0.24675 0.15895 0.0
C1785 C 0.32739 0.25226 0.1612 0.0
C1786 C 0.28861 0.25762 0.18285 0.0
C1787 C 0.29573 0.27453 0.20866 0.0
C1788 C 0.31851 0.28133 0.20836 0.0
H1789 H 0.21811 0.33323 0.4016 0.0
H1790 H 0.24874 0.32658 0.35512 0.0
C1791 C 0.3342 0.27024 0.185 0.0
C1792 C 0.28032 0.28272 0.23948 0.0
H1793 H 0.22694 0.30262 0.25649 0.0
C1794 C 0.28727 0.28011 0.27793 0.0
C1795 C 0.25856 0.29168 0.23167 0.0
C1796 C 0.25055 0.29632 0.19127 0.0
C1797 C 0.27271 0.2852 0.30861 0.0
C1798 C 0.25064 0.29307 0.30066 0.0
C1799 C 0.2439 0.29644 0.26239 0.0
C1800 C 0.23367 0.29623 0.33145 0.0
C1801 C 0.28058 0.28122 0.34931 0.0
C1802 C 0.21545 0.28112 0.33401 0.0
C1803 C 0.1983 0.28466 0.36087 0.0
C1804 C 0.19897 0.30345 0.38565 0.0
C1805 C 0.21759 0.31822 0.38387 0.0
C1806 C 0.23489 0.31461 0.35697 0.0
H1807 H 0.29755 0.27312 0.35052 0.0
H1808 H 0.28143 0.29762 0.36479 0.0
H1809 H 0.26825 0.2703 0.36473 0.0
H1810 H 0.21427 0.26682 0.31462 0.0
H1811 H 0.18412 0.27302 0.36145 0.0
H1812 H 0.52556 0.54452 0.34548 0.0
H1813 H 0.5082 0.5188 0.39281 0.0
H1814 H 0.53989 0.55621 0.48468 0.0
H1815 H 0.55678 0.58187 0.43813 0.0
H1816 H 0.52494 0.49112 0.45048 0.0
H1817 H 0.47342 0.55951 0.51439 0.0
H1818 H 0.48792 0.56269 0.46906 0.0
H1819 H 0.50293 0.56672 0.51362 0.0
C1820 C 0.52911 0.54693 0.37573 0.0
C1821 C 0.54231 0.56534 0.38815 0.0
C1822 C 0.51904 0.53239 0.40275 0.0
C1823 C 0.5221 0.53611 0.44237 0.0
C1824 C 0.5366 0.5535 0.45441 0.0
H1825 H 0.5114 0.44751 0.63361 0.0
H1826 H 0.52174 0.47444 0.58343 0.0
C1827 C 0.54643 0.56803 0.42769 0.0
C1828 C 0.51034 0.52207 0.47166 0.0
H1829 H 0.47844 0.52614 0.5534 0.0
C1830 C 0.51452 0.49872 0.47265 0.0
C1831 C 0.49628 0.53187 0.50019 0.0
C1832 C 0.48966 0.55654 0.49906 0.0
C1833 C 0.50616 0.48518 0.50264 0.0
C1834 C 0.49373 0.49536 0.53293 0.0
C1835 C 0.48836 0.51843 0.53068 0.0
C1836 C 0.48717 0.48238 0.56776 0.0
C1837 C 0.51092 0.46008 0.50175 0.0
C1838 C 0.46429 0.47943 0.57793 0.0
C1839 C 0.45831 0.46438 0.60748 0.0
C1840 C 0.47519 0.4521 0.62692 0.0
C1841 C 0.49806 0.45672 0.61896 0.0
C1842 C 0.50398 0.47185 0.58993 0.0
H1843 H 0.51407 0.45405 0.47199 0.0
H1844 H 0.52633 0.45649 0.51899 0.0
H1845 H 0.4966 0.45028 0.51405 0.0
H1846 H 0.45104 0.48768 0.56153 0.0
H1847 H 0.44057 0.46094 0.61284 0.0
H1848 H 0.13486 0.74458 0.62586 0.0
H1849 H 0.15 0.71583 0.66994 0.0
H1850 H 0.21753 0.74129 0.6505 0.0
H1851 H 0.20251 0.76974 0.60682 0.0
H1852 H 0.21636 0.69465 0.67071 0.0
H1853 H 0.16625 0.74945 0.77016 0.0
H1854 H 0.15157 0.73387 0.7334 0.0
H1855 H 0.16982 0.75694 0.72035 0.0
C1856 C 0.15304 0.74306 0.6293 0.0
C1857 C 0.16759 0.7594 0.6135 0.0
C1858 C 0.16164 0.72684 0.65483 0.0
C1859 C 0.18478 0.72694 0.66434 0.0
C1860 C 0.1996 0.74102 0.6438 0.0
H1861 H 0.28914 0.73697 0.80672 0.0
H1862 H 0.25734 0.73555 0.76209 0.0
C1863 C 0.19103 0.75723 0.61867 0.0
C1864 C 0.19326 0.71674 0.70045 0.0
H1865 H 0.19744 0.7305 0.79559 0.0
C1866 C 0.21166 0.70175 0.69832 0.0
C1867 C 0.18717 0.72615 0.73652 0.0
C1868 C 0.16769 0.74256 0.74057 0.0
C1869 C 0.22541 0.69769 0.73046 0.0
C1870 C 0.22064 0.70897 0.76532 0.0
C1871 C 0.20095 0.72198 0.76864 0.0
C1872 C 0.23821 0.71122 0.79523 0.0
C1873 C 0.24609 0.68292 0.72618 0.0
C1874 C 0.2373 0.69886 0.82957 0.0
C1875 C 0.2555 0.69974 0.85546 0.0
C1876 C 0.27471 0.71298 0.84708 0.0
C1877 C 0.27467 0.72651 0.81389 0.0
C1878 C 0.25659 0.72562 0.78824 0.0
H1879 H 0.24449 0.67124 0.70131 0.0
H1880 H 0.26116 0.69382 0.72147 0.0
H1881 H 0.24904 0.67284 0.75266 0.0
H1882 H 0.22306 0.68784 0.83548 0.0
H1883 H 0.25511 0.68902 0.8807 0.0
H1884 H 0.04314 0.55337 0.09753 0.0
H1885 H 0.02952 0.52904 0.0453 0.0
H1886 H 0.04496 0.58134 0.96303 0.0
H1887 H 0.05866 0.60568 0.01473 0.0
H1888 H 0.99601 0.53562 0.98578 0.0
H1889 H 0.08335 0.52615 0.92801 0.0
H1890 H 0.07773 0.53701 0.97553 0.0
H1891 H 0.07353 0.55472 0.93422 0.0
C1892 C 0.04325 0.55985 0.06842 0.0
C1893 C 0.05221 0.58137 0.06028 0.0
C1894 C 0.03554 0.54591 0.03861 0.0
C1895 C 0.03672 0.55325 1.00028 0.0
C1896 C 0.04436 0.5752 0.99234 0.0
H1897 H 0.97501 0.47136 0.81796 0.0
H1898 H 0.99043 0.50529 0.84897 0.0
C1899 C 0.05206 0.58912 0.02201 0.0
C1900 C 0.03091 0.53759 0.96851 0.0
H1901 H 0.05408 0.50764 0.89425 0.0
C1902 C 0.00861 0.52965 0.9655 0.0
C1903 C 0.04751 0.52976 0.94233 0.0
C1904 C 0.07193 0.53715 0.94517 0.0
C1905 C 0.00249 0.51378 0.93732 0.0
C1906 C 0.0191 0.50587 0.91118 0.0
C1907 C 0.04134 0.51406 0.91386 0.0
C1908 C 0.01422 0.48691 0.88457 0.0
C1909 C 0.97854 0.5048 0.93688 0.0
C1910 C 0.02387 0.46567 0.89198 0.0
C1911 C 0.01523 0.44634 0.87421 0.0
C1912 C 0.99684 0.44799 0.84866 0.0
C1913 C 0.9892 0.46956 0.8375 0.0
C1914 C 0.9978 0.48894 0.85554 0.0
H1915 H 0.96885 0.50996 0.9628 0.0
H1916 H 0.96956 0.51141 0.91121 0.0
H1917 H 0.97854 0.48602 0.93514 0.0
H1918 H 0.03672 0.46377 0.91401 0.0
H1919 H 0.02153 0.42994 0.88316 0.0
H1920 H 0.68611 0.76006 0.8725 0.0
H1921 H 0.71155 0.74176 0.82625 0.0
H1922 H 0.65433 0.70969 0.77181 0.0
H1923 H 0.62886 0.728 0.81755 0.0
H1924 H 0.71859 0.69467 0.79201 0.0
H1925 H 0.68026 0.75891 0.69449 0.0
H1926 H 0.67788 0.76065 0.7461 0.0
H1927 H 0.66095 0.74071 0.71984 0.0
C1928 C 0.67907 0.74827 0.85183 0.0
C1929 C 0.6555 0.74571 0.84819 0.0
C1930 C 0.69361 0.73795 0.82525 0.0
C1931 C 0.68469 0.72484 0.79514 0.0
C1932 C 0.66146 0.72001 0.79453 0.0
H1933 H 0.76963 0.6692 0.60985 0.0
H1934 H 0.73653 0.67409 0.65176 0.0
C1935 C 0.64696 0.73039 0.82083 0.0
C1936 C 0.69887 0.71935 0.76132 0.0
H1937 H 0.70843 0.73542 0.6684 0.0
C1938 C 0.71625 0.70333 0.76483 0.0
C1939 C 0.69584 0.73094 0.72606 0.0
C1940 C 0.67785 0.74889 0.7212 0.0
C1941 C 0.73092 0.69875 0.73397 0.0
C1942 C 0.72795 0.71045 0.69877 0.0
C1943 C 0.71038 0.72625 0.6952 0.0
C1944 C 0.74472 0.7086 0.66729 0.0
C1945 C 0.75008 0.68218 0.73967 0.0
C1946 C 0.75929 0.72686 0.66022 0.0
C1947 C 0.77801 0.72416 0.63624 0.0
C1948 C 0.78232 0.70322 0.61857 0.0
C1949 C 0.76647 0.68563 0.62256 0.0
C1950 C 0.74779 0.68828 0.64697 0.0
H1951 H 0.75183 0.67686 0.77014 0.0
H1952 H 0.74695 0.66687 0.72198 0.0
H1953 H 0.76636 0.68974 0.7301 0.0
H1954 H 0.75712 0.74272 0.67544 0.0
H1955 H 0.79009 0.7379 0.63385 0.0
H1956 H 0.67667 0.24173 0.15581 0.0
H1957 H 0.69363 0.21279 0.19787 0.0
H1958 H 0.75941 0.24292 0.18103 0.0
H1959 H 0.74253 0.27176 0.13964 0.0
H1960 H 0.75913 0.19326 0.18886 0.0
H1961 H 0.71328 0.23968 0.3047 0.0
H1962 H 0.69711 0.2284 0.26522 0.0
H1963 H 0.71637 0.25138 0.25712 0.0
C1964 C 0.69489 0.2414 0.15961 0.0
C1965 C 0.70838 0.25878 0.14431 0.0
C1966 C 0.70452 0.22507 0.18401 0.0
C1967 C 0.72773 0.22593 0.19303 0.0
C1968 C 0.74148 0.24191 0.17448 0.0
H1969 H 0.82462 0.21957 0.35925 0.0
H1970 H 0.7926 0.22612 0.31631 0.0
C1971 C 0.73187 0.2583 0.15061 0.0
C1972 C 0.73745 0.21289 0.22564 0.0
H1973 H 0.74239 0.21521 0.32346 0.0
C1974 C 0.75502 0.19746 0.21838 0.0
C1975 C 0.73222 0.21866 0.26414 0.0
C1976 C 0.71381 0.23549 0.27359 0.0
C1977 C 0.7683 0.18863 0.24844 0.0
C1978 C 0.76392 0.19548 0.28668 0.0
C1979 C 0.74553 0.20984 0.29415 0.0
C1980 C 0.78075 0.1915 0.31768 0.0
C1981 C 0.78805 0.17342 0.23899 0.0
C1982 C 0.78413 0.17001 0.33407 0.0
C1983 C 0.80239 0.16626 0.35926 0.0
C1984 C 0.81759 0.18391 0.3678 0.0
C1985 C 0.81324 0.20563 0.35309 0.0
C1986 C 0.79495 0.20941 0.32852 0.0
H1987 H 0.78952 0.17011 0.20767 0.0
H1988 H 0.80407 0.18124 0.24923 0.0
H1989 H 0.78606 0.15699 0.25408 0.0
H1990 H 0.77325 0.15599 0.32619 0.0
H1991 H 0.80545 0.14932 0.36997 0.0
H1992 H 0.03522 0.03819 0.86609 0.0
H1993 H 0.01412 0.00764 0.89815 0.0
H1994 H 0.03346 0.03467 0.00848 0.0
H1995 H 0.05454 0.06487 0.97674 0.0
H1996 H 0.0269 0.97428 0.95695 0.0
H1997 H 0.96313 0.03635 0.00851 0.0
H1998 H 0.98297 0.04271 0.97055 0.0
H1999 H 0.99195 0.0435 0.01989 0.0
C2000 C 0.03555 0.0371 0.89707 0.0
C2001 C 0.04656 0.0538 0.91888 0.0
C2002 C 0.0233 0.01985 0.91538 0.0
C2003 C 0.02186 0.01924 0.95568 0.0
C2004 C 0.03398 0.03513 0.97738 0.0
H2005 H 0.95311 0.93887 0.12882 0.0
H2006 H 0.97398 0.96825 0.0936 0.0
C2007 C 0.0461 0.05229 0.95918 0.0
C2008 C 0.00697 0.00275 0.97542 0.0
H2009 H 0.96085 -0.00076 0.03445 0.0
C2010 C 0.01235 0.97967 0.97364 0.0
C2011 C 0.98806 0.00991 0.99729 0.0
C2012 C 0.981 0.03444 0.99901 0.0
C2013 C -0.00038 0.96355 0.99401 0.0
C2014 C 0.98079 0.97073 0.0161 0.0
C2015 C 0.97533 0.99381 0.01762 0.0
C2016 C 0.96641 0.95444 0.03742 0.0
C2017 C 0.00681 0.93905 0.99253 0.0
C2018 C 0.95453 0.93758 0.0175 0.0
C2019 C 0.94247 0.92108 0.03757 0.0
C2020 C 0.94177 0.92128 0.07795 0.0
C2021 C 0.95278 0.93877 0.09783 0.0
C2022 C 0.96495 0.95532 0.0777 0.0
H2023 H 0.02463 0.93719 0.98276 0.0
H2024 H 0.00506 0.93092 0.02114 0.0
H2025 H 0.9958 0.92982 0.97197 0.0
H2026 H 0.95501 0.93688 0.98641 0.0
H2027 H 0.93408 0.9078 0.02147 0.0
H2028 H 0.49418 0.08534 0.59646 0.0
H2029 H 0.47414 0.05717 0.55823 0.0
H2030 H 0.52425 0.00711 0.5885 0.0
H2031 H 0.5446 0.03553 0.62725 0.0
H2032 H 0.51591 0.01304 0.50666 0.0
H2033 H 0.43606 0.00126 0.58836 0.0
H2034 H 0.44381 0.03028 0.58029 0.0
H2035 H 0.46147 0.01267 0.6099 0.0
C2036 C 0.5007 0.06819 0.59575 0.0
C2037 C 0.52096 0.06262 0.61487 0.0
C2038 C 0.48917 0.0521 0.57392 0.0
C2039 C 0.49763 0.03004 0.57058 0.0
C2040 C 0.51741 0.02407 0.59084 0.0
H2041 H 0.43902 0.91428 0.46278 0.0
H2042 H 0.45372 0.94351 0.50517 0.0
C2043 C 0.5289 0.04022 0.6132 0.0
C2044 C 0.48665 0.01401 0.54348 0.0
H2045 H 0.43675 0.9869 0.52458 0.0
C2046 C 0.49864 0.00722 0.51062 0.0
C2047 C 0.46407 0.0066 0.5486 0.0
C2048 C 0.45061 0.01289 0.58383 0.0
C2049 C 0.48862 0.99323 0.48267 0.0
C2050 C 0.46594 0.98604 0.48755 0.0
C2051 C 0.454 0.99277 0.52052 0.0
C2052 C 0.45526 0.96933 0.46127 0.0
C2053 C 0.50251 0.98577 0.44859 0.0
C2054 C 0.45063 0.97429 0.42245 0.0
C2055 C 0.442 0.95746 0.39786 0.0
C2056 C 0.43814 0.93548 0.41184 0.0
C2057 C 0.44204 0.93099 0.45099 0.0
C2058 C 0.45039 0.9477 0.47538 0.0
H2059 H 0.52075 0.98996 0.45206 0.0
H2060 H 0.50084 0.96723 0.44413 0.0
H2061 H 0.49616 0.99436 0.42235 0.0
H2062 H 0.45404 0.99101 0.41109 0.0
H2063 H 0.4393 0.96132 0.36783 0.0
loop_
_geom_bond_atom_site_label_1
_geom_bond_atom_site_label_2
_geom_bond_distance
_geom_bond_site_symmetry_2
_ccdc_geom_bond_type
Zn0 O6 1.920 . S
Zn0 O12 1.898 . S
Zn0 O15 1.905 . S
Zn1 O9 1.905 . S
Zn1 O10 1.898 . S
Zn1 O18 1.920 . S
Zn2 O5 2.080 . S
Zn2 O8 2.114 . S
Zn2 O11 2.120 . S
Zn2 O13 2.120 . S
Zn2 O14 2.114 . S
Zn2 O17 2.080 . S
C3 O8 1.166 1_556 S
C3 O9 1.182 . S
C4 O10 1.167 . S
C4 O11 1.299 1_556 S
O5 Zn2 2.080 . S
O5 C19 1.305 . S
O6 Zn0 1.920 . S
O6 C19 1.234 . S
C7 O12 1.167 . S
C7 O13 1.299 . S
O8 Zn2 2.114 . S
O8 C3 1.166 1_554 S
O9 Zn1 1.905 . S
O9 C3 1.182 . S
O10 Zn1 1.898 . S
O10 C4 1.167 . S
O11 Zn2 2.120 . S
O11 C4 1.299 1_554 S
O12 Zn0 1.898 . S
O12 C7 1.167 . S
O13 Zn2 2.120 . S
O13 C7 1.299 . S
O14 Zn2 2.114 . S
O14 C16 1.166 . S
O15 Zn0 1.905 . S
O15 C16 1.182 . S
C16 O14 1.166 . S
C16 O15 1.182 . S
O17 Zn2 2.080 . S
O17 C20 1.305 . S
O18 Zn1 1.920 . S
O18 C20 1.234 1_556 S
C19 O5 1.305 . S
C19 O6 1.234 . S
C20 O17 1.305 . S
C20 O18 1.234 1_554 S
Zn21 O27 1.920 . S
Zn21 O33 1.898 . S
Zn21 O36 1.905 . S
Zn22 O30 1.905 . S
Zn22 O31 1.898 . S
Zn22 O39 1.920 . S
Zn23 O26 2.080 . S
Zn23 O29 2.114 . S
Zn23 O32 2.120 . S
Zn23 O34 2.120 . S
Zn23 O35 2.114 . S
Zn23 O38 2.080 . S
C24 O29 1.166 . S
C24 O30 1.182 . S
C25 O31 1.167 . S
C25 O32 1.299 . S
O26 Zn23 2.080 . S
O26 C40 1.305 . S
O27 Zn21 1.920 . S
O27 C40 1.234 . S
C28 O33 1.167 . S
C28 O34 1.299 . S
O29 Zn23 2.114 . S
O29 C24 1.166 . S
O30 Zn22 1.905 . S
O30 C24 1.182 . S
O31 Zn22 1.898 . S
O31 C25 1.167 . S
O32 Zn23 2.120 . S
O32 C25 1.299 . S
O33 Zn21 1.898 . S
O33 C28 1.167 . S
O34 Zn23 2.120 . S
O34 C28 1.299 . S
O35 Zn23 2.114 . S
O35 C37 1.166 . S
O36 Zn21 1.905 . S
O36 C37 1.182 . S
C37 O35 1.166 . S
C37 O36 1.182 . S
O38 Zn23 2.080 . S
O38 C41 1.305 . S
O39 Zn22 1.920 . S
O39 C41 1.234 . S
C40 O26 1.305 . S
C40 O27 1.234 . S
C41 O38 1.305 . S
C41 O39 1.234 . S
Zn42 O48 1.920 . S
Zn42 O54 1.898 . S
Zn42 O57 1.905 . S
Zn43 O51 1.905 . S
Zn43 O52 1.898 . S
Zn43 O60 1.920 . S
Zn44 O47 2.080 . S
Zn44 O50 2.114 . S
Zn44 O53 2.120 . S
Zn44 O55 2.120 . S
Zn44 O56 2.114 . S
Zn44 O59 2.080 . S
C45 O50 1.166 . S
C45 O51 1.182 . S
C46 O52 1.167 . S
C46 O53 1.299 . S
O47 Zn44 2.080 . S
O47 C61 1.305 . S
O48 Zn42 1.920 . S
O48 C61 1.234 . S
C49 O54 1.167 . S
C49 O55 1.299 . S
O50 Zn44 2.114 . S
O50 C45 1.166 . S
O51 Zn43 1.905 . S
O51 C45 1.182 . S
O52 Zn43 1.898 . S
O52 C46 1.167 . S
O53 Zn44 2.120 . S
O53 C46 1.299 . S
O54 Zn42 1.898 . S
O54 C49 1.167 . S
O55 Zn44 2.120 . S
O55 C49 1.299 . S
O56 Zn44 2.114 . S
O56 C58 1.166 . S
O57 Zn42 1.905 . S
O57 C58 1.182 . S
C58 O56 1.166 . S
C58 O57 1.182 . S
O59 Zn44 2.080 . S
O59 C62 1.305 . S
O60 Zn43 1.920 . S
O60 C62 1.234 . S
C61 O47 1.305 . S
C61 O48 1.234 . S
C62 O59 1.305 . S
C62 O60 1.234 . S
Zn63 O69 1.920 . S
Zn63 O75 1.898 . S
Zn63 O78 1.905 . S
Zn64 O72 1.905 . S
Zn64 O73 1.898 . S
Zn64 O81 1.920 . S
Zn65 O68 2.080 . S
Zn65 O71 2.114 . S
Zn65 O74 2.120 . S
Zn65 O76 2.120 . S
Zn65 O77 2.114 . S
Zn65 O80 2.080 . S
C66 O71 1.166 . S
C66 O72 1.182 . S
C67 O73 1.167 . S
C67 O74 1.299 . S
O68 Zn65 2.080 . S
O68 C82 1.305 . S
O69 Zn63 1.920 . S
O69 C82 1.234 . S
C70 O75 1.167 . S
C70 O76 1.299 . S
O71 Zn65 2.114 . S
O71 C66 1.166 . S
O72 Zn64 1.905 . S
O72 C66 1.182 . S
O73 Zn64 1.898 . S
O73 C67 1.167 . S
O74 Zn65 2.120 . S
O74 C67 1.299 . S
O75 Zn63 1.898 . S
O75 C70 1.167 . S
O76 Zn65 2.120 . S
O76 C70 1.299 . S
O77 Zn65 2.114 . S
O77 C79 1.166 . S
O78 Zn63 1.905 . S
O78 C79 1.182 . S
C79 O77 1.166 . S
C79 O78 1.182 . S
O80 Zn65 2.080 . S
O80 C83 1.305 . S
O81 Zn64 1.920 . S
O81 C83 1.234 . S
C82 O68 1.305 . S
C82 O69 1.234 . S
C83 O80 1.305 . S
C83 O81 1.234 . S
Zn84 O90 1.920 . S
Zn84 O96 1.898 . S
Zn84 O99 1.905 . S
Zn85 O93 1.905 . S
Zn85 O94 1.898 . S
Zn85 O102 1.920 . S
Zn86 O89 2.080 . S
Zn86 O92 2.114 . S
Zn86 O95 2.120 . S
Zn86 O97 2.120 . S
Zn86 O98 2.114 . S
Zn86 O101 2.080 . S
C87 O92 1.166 . S
C87 O93 1.182 . S
C88 O94 1.167 . S
C88 O95 1.299 . S
O89 Zn86 2.080 . S
O89 C103 1.305 . S
O90 Zn84 1.920 . S
O90 C103 1.234 1_554 S
C91 O96 1.167 . S
C91 O97 1.299 1_554 S
O92 Zn86 2.114 . S
O92 C87 1.166 . S
O93 Zn85 1.905 . S
O93 C87 1.182 . S
O94 Zn85 1.898 . S
O94 C88 1.167 . S
O95 Zn86 2.120 . S
O95 C88 1.299 . S
O96 Zn84 1.898 . S
O96 C91 1.167 . S
O97 Zn86 2.120 . S
O97 C91 1.299 1_556 S
O98 Zn86 2.114 . S
O98 C100 1.166 1_556 S
O99 Zn84 1.905 . S
O99 C100 1.182 . S
C100 O98 1.166 1_554 S
C100 O99 1.182 . S
O101 Zn86 2.080 . S
O101 C104 1.305 . S
O102 Zn85 1.920 . S
O102 C104 1.234 . S
C103 O89 1.305 . S
C103 O90 1.234 1_556 S
C104 O101 1.305 . S
C104 O102 1.234 . S
Zn105 O111 1.920 . S
Zn105 O117 1.898 . S
Zn105 O120 1.905 . S
Zn106 O114 1.905 . S
Zn106 O115 1.898 . S
Zn106 O123 1.920 . S
Zn107 O110 2.080 . S
Zn107 O113 2.114 . S
Zn107 O116 2.120 . S
Zn107 O118 2.120 . S
Zn107 O119 2.114 . S
Zn107 O122 2.080 . S
C108 O113 1.166 . S
C108 O114 1.182 . S
C109 O115 1.167 . S
C109 O116 1.299 . S
O110 Zn107 2.080 . S
O110 C124 1.305 . S
O111 Zn105 1.920 . S
O111 C124 1.234 . S
C112 O117 1.167 . S
C112 O118 1.299 . S
O113 Zn107 2.114 . S
O113 C108 1.166 . S
O114 Zn106 1.905 . S
O114 C108 1.182 . S
O115 Zn106 1.898 . S
O115 C109 1.167 . S
O116 Zn107 2.120 . S
O116 C109 1.299 . S
O117 Zn105 1.898 . S
O117 C112 1.167 . S
O118 Zn107 2.120 . S
O118 C112 1.299 . S
O119 Zn107 2.114 . S
O119 C121 1.166 . S
O120 Zn105 1.905 . S
O120 C121 1.182 . S
C121 O119 1.166 . S
C121 O120 1.182 . S
O122 Zn107 2.080 . S
O122 C125 1.305 . S
O123 Zn106 1.920 . S
O123 C125 1.234 . S
C124 O110 1.305 . S
C124 O111 1.234 . S
C125 O122 1.305 . S
C125 O123 1.234 . S
Zn126 O132 1.920 . S
Zn126 O138 1.898 . S
Zn126 O141 1.905 . S
Zn127 O135 1.905 . S
Zn127 O136 1.898 . S
Zn127 O144 1.920 . S
Zn128 O131 2.080 . S
Zn128 O134 2.114 . S
Zn128 O137 2.120 . S
Zn128 O139 2.120 . S
Zn128 O140 2.114 . S
Zn128 O143 2.080 . S
C129 O134 1.166 . S
C129 O135 1.182 . S
C130 O136 1.167 . S
C130 O137 1.299 . S
O131 Zn128 2.080 . S
O131 C145 1.305 . S
O132 Zn126 1.920 . S
O132 C145 1.234 . S
C133 O138 1.167 . S
C133 O139 1.299 . S
O134 Zn128 2.114 . S
O134 C129 1.166 . S
O135 Zn127 1.905 . S
O135 C129 1.182 . S
O136 Zn127 1.898 . S
O136 C130 1.167 . S
O137 Zn128 2.120 . S
O137 C130 1.299 . S
O138 Zn126 1.898 . S
O138 C133 1.167 . S
O139 Zn128 2.120 . S
O139 C133 1.299 . S
O140 Zn128 2.114 . S
O140 C142 1.166 . S
O141 Zn126 1.905 . S
O141 C142 1.182 . S
C142 O140 1.166 . S
C142 O141 1.182 . S
O143 Zn128 2.080 . S
O143 C146 1.305 . S
O144 Zn127 1.920 . S
O144 C146 1.234 . S
C145 O131 1.305 . S
C145 O132 1.234 . S
C146 O143 1.305 . S
C146 O144 1.234 . S
Zn147 O153 1.920 . S
Zn147 O159 1.898 . S
Zn147 O162 1.905 . S
Zn148 O156 1.905 . S
Zn148 O157 1.898 . S
Zn148 O165 1.920 . S
Zn149 O152 2.080 . S
Zn149 O155 2.114 . S
Zn149 O158 2.120 . S
Zn149 O160 2.120 . S
Zn149 O161 2.114 . S
Zn149 O164 2.080 . S
C150 O155 1.166 . S
C150 O156 1.182 . S
C151 O157 1.167 . S
C151 O158 1.299 . S
O152 Zn149 2.080 . S
O152 C166 1.305 . S
O153 Zn147 1.920 . S
O153 C166 1.234 . S
C154 O159 1.167 . S
C154 O160 1.299 . S
O155 Zn149 2.114 . S
O155 C150 1.166 . S
O156 Zn148 1.905 . S
O156 C150 1.182 . S
O157 Zn148 1.898 . S
O157 C151 1.167 . S
O158 Zn149 2.120 . S
O158 C151 1.299 . S
O159 Zn147 1.898 . S
O159 C154 1.167 . S
O160 Zn149 2.120 . S
O160 C154 1.299 . S
O161 Zn149 2.114 . S
O161 C163 1.166 . S
O162 Zn147 1.905 . S
O162 C163 1.182 . S
C163 O161 1.166 . S
C163 O162 1.182 . S
O164 Zn149 2.080 . S
O164 C167 1.305 . S
O165 Zn148 1.920 . S
O165 C167 1.234 . S
C166 O152 1.305 . S
C166 O153 1.234 . S
C167 O164 1.305 . S
C167 O165 1.234 . S
Zn168 O174 1.920 . S
Zn168 O180 1.898 . S
Zn168 O183 1.905 . S
Zn169 O177 1.905 . S
Zn169 O178 1.898 . S
Zn169 O186 1.920 . S
Zn170 O173 2.080 . S
Zn170 O176 2.114 . S
Zn170 O179 2.120 . S
Zn170 O181 2.120 . S
Zn170 O182 2.114 . S
Zn170 O185 2.080 . S
C171 O176 1.166 . S
C171 O177 1.182 . S
C172 O178 1.167 . S
C172 O179 1.299 . S
O173 Zn170 2.080 . S
O173 C187 1.305 . S
O174 Zn168 1.920 . S
O174 C187 1.234 . S
C175 O180 1.167 . S
C175 O181 1.299 . S
O176 Zn170 2.114 . S
O176 C171 1.166 . S
O177 Zn169 1.905 . S
O177 C171 1.182 . S
O178 Zn169 1.898 . S
O178 C172 1.167 . S
O179 Zn170 2.120 . S
O179 C172 1.299 . S
O180 Zn168 1.898 . S
O180 C175 1.167 . S
O181 Zn170 2.120 . S
O181 C175 1.299 . S
O182 Zn170 2.114 . S
O182 C184 1.166 . S
O183 Zn168 1.905 . S
O183 C184 1.182 . S
C184 O182 1.166 . S
C184 O183 1.182 . S
O185 Zn170 2.080 . S
O185 C188 1.305 . S
O186 Zn169 1.920 . S
O186 C188 1.234 . S
C187 O173 1.305 . S
C187 O174 1.234 . S
C188 O185 1.305 . S
C188 O186 1.234 . S
Zn189 O195 1.920 . S
Zn189 O201 1.898 . S
Zn189 O204 1.905 . S
Zn190 O198 1.905 . S
Zn190 O199 1.898 . S
Zn190 O207 1.920 . S
Zn191 O194 2.080 . S
Zn191 O197 2.114 . S
Zn191 O200 2.120 . S
Zn191 O202 2.120 . S
Zn191 O203 2.114 . S
Zn191 O206 2.080 . S
C192 O197 1.166 . S
C192 O198 1.182 . S
C193 O199 1.167 . S
C193 O200 1.299 . S
O194 Zn191 2.080 . S
O194 C208 1.305 . S
O195 Zn189 1.920 . S
O195 C208 1.234 . S
C196 O201 1.167 . S
C196 O202 1.299 . S
O197 Zn191 2.114 . S
O197 C192 1.166 . S
O198 Zn190 1.905 . S
O198 C192 1.182 . S
O199 Zn190 1.898 . S
O199 C193 1.167 . S
O200 Zn191 2.120 . S
O200 C193 1.299 . S
O201 Zn189 1.898 . S
O201 C196 1.167 . S
O202 Zn191 2.120 . S
O202 C196 1.299 . S
O203 Zn191 2.114 . S
O203 C205 1.166 . S
O204 Zn189 1.905 . S
O204 C205 1.182 . S
C205 O203 1.166 . S
C205 O204 1.182 . S
O206 Zn191 2.080 . S
O206 C209 1.305 . S
O207 Zn190 1.920 . S
O207 C209 1.234 . S
C208 O194 1.305 . S
C208 O195 1.234 . S
C209 O206 1.305 . S
C209 O207 1.234 . S
Zn210 O216 1.920 . S
Zn210 O222 1.898 . S
Zn210 O225 1.905 . S
Zn211 O219 1.905 . S
Zn211 O220 1.898 . S
Zn211 O228 1.920 . S
Zn212 O215 2.080 . S
Zn212 O218 2.114 . S
Zn212 O221 2.120 . S
Zn212 O223 2.120 . S
Zn212 O224 2.114 . S
Zn212 O227 2.080 . S
C213 O218 1.166 . S
C213 O219 1.182 . S
C214 O220 1.167 . S
C214 O221 1.299 . S
O215 Zn212 2.080 . S
O215 C229 1.305 . S
O216 Zn210 1.920 . S
O216 C229 1.234 1_556 S
C217 O222 1.167 . S
C217 O223 1.299 1_556 S
O218 Zn212 2.114 . S
O218 C213 1.166 . S
O219 Zn211 1.905 . S
O219 C213 1.182 . S
O220 Zn211 1.898 . S
O220 C214 1.167 . S
O221 Zn212 2.120 . S
O221 C214 1.299 . S
O222 Zn210 1.898 . S
O222 C217 1.167 . S
O223 Zn212 2.120 . S
O223 C217 1.299 1_554 S
O224 Zn212 2.114 . S
O224 C226 1.166 1_554 S
O225 Zn210 1.905 . S
O225 C226 1.182 . S
C226 O224 1.166 1_556 S
C226 O225 1.182 . S
O227 Zn212 2.080 . S
O227 C230 1.305 . S
O228 Zn211 1.920 . S
O228 C230 1.234 . S
C229 O215 1.305 . S
C229 O216 1.234 1_554 S
C230 O227 1.305 . S
C230 O228 1.234 . S
Zn231 O237 1.920 . S
Zn231 O243 1.898 . S
Zn231 O246 1.905 . S
Zn232 O240 1.905 . S
Zn232 O241 1.898 . S
Zn232 O249 1.920 . S
Zn233 O236 2.080 . S
Zn233 O239 2.114 . S
Zn233 O242 2.120 . S
Zn233 O244 2.120 . S
Zn233 O245 2.114 . S
Zn233 O248 2.080 . S
C234 O239 1.166 . S
C234 O240 1.182 . S
C235 O241 1.167 . S
C235 O242 1.299 . S
O236 Zn233 2.080 . S
O236 C250 1.305 . S
O237 Zn231 1.920 . S
O237 C250 1.234 . S
C238 O243 1.167 . S
C238 O244 1.299 . S
O239 Zn233 2.114 . S
O239 C234 1.166 . S
O240 Zn232 1.905 . S
O240 C234 1.182 . S
O241 Zn232 1.898 . S
O241 C235 1.167 . S
O242 Zn233 2.120 . S
O242 C235 1.299 . S
O243 Zn231 1.898 . S
O243 C238 1.167 . S
O244 Zn233 2.120 . S
O244 C238 1.299 . S
O245 Zn233 2.114 . S
O245 C247 1.166 . S
O246 Zn231 1.905 . S
O246 C247 1.182 . S
C247 O245 1.166 . S
C247 O246 1.182 . S
O248 Zn233 2.080 . S
O248 C251 1.305 . S
O249 Zn232 1.920 . S
O249 C251 1.234 . S
C250 O236 1.305 . S
C250 O237 1.234 . S
C251 O248 1.305 . S
C251 O249 1.234 . S
Zn252 O258 1.920 . S
Zn252 O264 1.898 . S
Zn252 O267 1.905 . S
Zn253 O261 1.905 . S
Zn253 O262 1.898 . S
Zn253 O270 1.920 . S
Zn254 O257 2.080 . S
Zn254 O260 2.114 . S
Zn254 O263 2.120 . S
Zn254 O265 2.120 . S
Zn254 O266 2.114 . S
Zn254 O269 2.080 . S
C255 O260 1.166 . S
C255 O261 1.182 . S
C256 O262 1.167 . S
C256 O263 1.299 . S
O257 Zn254 2.080 . S
O257 C271 1.305 . S
O258 Zn252 1.920 . S
O258 C271 1.234 . S
C259 O264 1.167 . S
C259 O265 1.299 . S
O260 Zn254 2.114 . S
O260 C255 1.166 . S
O261 Zn253 1.905 . S
O261 C255 1.182 . S
O262 Zn253 1.898 . S
O262 C256 1.167 . S
O263 Zn254 2.120 . S
O263 C256 1.299 . S
O264 Zn252 1.898 . S
O264 C259 1.167 . S
O265 Zn254 2.120 . S
O265 C259 1.299 . S
O266 Zn254 2.114 . S
O266 C268 1.166 . S
O267 Zn252 1.905 . S
O267 C268 1.182 . S
C268 O266 1.166 . S
C268 O267 1.182 . S
O269 Zn254 2.080 . S
O269 C272 1.305 . S
O270 Zn253 1.920 . S
O270 C272 1.234 . S
C271 O257 1.305 . S
C271 O258 1.234 . S
C272 O269 1.305 . S
C272 O270 1.234 . S
Zn273 O279 1.920 . S
Zn273 O285 1.898 . S
Zn273 O288 1.905 . S
Zn274 O282 1.905 . S
Zn274 O283 1.898 . S
Zn274 O291 1.920 . S
Zn275 O278 2.080 . S
Zn275 O281 2.114 . S
Zn275 O284 2.120 . S
Zn275 O286 2.120 . S
Zn275 O287 2.114 . S
Zn275 O290 2.080 . S
C276 O281 1.166 . S
C276 O282 1.182 . S
C277 O283 1.167 . S
C277 O284 1.299 . S
O278 Zn275 2.080 . S
O278 C292 1.305 . S
O279 Zn273 1.920 . S
O279 C292 1.234 . S
C280 O285 1.167 . S
C280 O286 1.299 . S
O281 Zn275 2.114 . S
O281 C276 1.166 . S
O282 Zn274 1.905 . S
O282 C276 1.182 . S
O283 Zn274 1.898 . S
O283 C277 1.167 . S
O284 Zn275 2.120 . S
O284 C277 1.299 . S
O285 Zn273 1.898 . S
O285 C280 1.167 . S
O286 Zn275 2.120 . S
O286 C280 1.299 . S
O287 Zn275 2.114 . S
O287 C289 1.166 . S
O288 Zn273 1.905 . S
O288 C289 1.182 . S
C289 O287 1.166 . S
C289 O288 1.182 . S
O290 Zn275 2.080 . S
O290 C293 1.305 . S
O291 Zn274 1.920 . S
O291 C293 1.234 . S
C292 O278 1.305 . S
C292 O279 1.234 . S
C293 O290 1.305 . S
C293 O291 1.234 . S
Zn294 O300 1.920 . S
Zn294 O306 1.898 . S
Zn294 O309 1.905 . S
Zn295 O303 1.905 . S
Zn295 O304 1.898 . S
Zn295 O312 1.920 . S
Zn296 O299 2.080 . S
Zn296 O302 2.114 . S
Zn296 O305 2.120 . S
Zn296 O307 2.120 . S
Zn296 O308 2.114 . S
Zn296 O311 2.080 . S
C297 O302 1.166 . S
C297 O303 1.182 . S
C298 O304 1.167 . S
C298 O305 1.299 . S
O299 Zn296 2.080 . S
O299 C313 1.305 . S
O300 Zn294 1.920 . S
O300 C313 1.234 1_554 S
C301 O306 1.167 . S
C301 O307 1.299 1_554 S
O302 Zn296 2.114 . S
O302 C297 1.166 . S
O303 Zn295 1.905 . S
O303 C297 1.182 . S
O304 Zn295 1.898 . S
O304 C298 1.167 . S
O305 Zn296 2.120 . S
O305 C298 1.299 . S
O306 Zn294 1.898 . S
O306 C301 1.167 . S
O307 Zn296 2.120 . S
O307 C301 1.299 1_556 S
O308 Zn296 2.114 . S
O308 C310 1.166 1_556 S
O309 Zn294 1.905 . S
O309 C310 1.182 . S
C310 O308 1.166 1_554 S
C310 O309 1.182 . S
O311 Zn296 2.080 . S
O311 C314 1.305 . S
O312 Zn295 1.920 . S
O312 C314 1.234 . S
C313 O299 1.305 . S
C313 O300 1.234 1_556 S
C314 O311 1.305 . S
C314 O312 1.234 . S
Zn315 O321 1.920 . S
Zn315 O327 1.898 . S
Zn315 O330 1.905 . S
Zn316 O324 1.905 . S
Zn316 O325 1.898 . S
Zn316 O333 1.920 . S
Zn317 O320 2.080 . S
Zn317 O323 2.114 . S
Zn317 O326 2.120 . S
Zn317 O328 2.120 . S
Zn317 O329 2.114 . S
Zn317 O332 2.080 . S
C318 O323 1.166 . S
C318 O324 1.182 . S
C319 O325 1.167 . S
C319 O326 1.299 . S
O320 Zn317 2.080 . S
O320 C334 1.305 . S
O321 Zn315 1.920 . S
O321 C334 1.234 . S
C322 O327 1.167 . S
C322 O328 1.299 . S
O323 Zn317 2.114 . S
O323 C318 1.166 . S
O324 Zn316 1.905 . S
O324 C318 1.182 . S
O325 Zn316 1.898 . S
O325 C319 1.167 . S
O326 Zn317 2.120 . S
O326 C319 1.299 . S
O327 Zn315 1.898 . S
O327 C322 1.167 . S
O328 Zn317 2.120 . S
O328 C322 1.299 . S
O329 Zn317 2.114 . S
O329 C331 1.166 . S
O330 Zn315 1.905 . S
O330 C331 1.182 . S
C331 O329 1.166 . S
C331 O330 1.182 . S
O332 Zn317 2.080 . S
O332 C335 1.305 . S
O333 Zn316 1.920 . S
O333 C335 1.234 . S
C334 O320 1.305 . S
C334 O321 1.234 . S
C335 O332 1.305 . S
C335 O333 1.234 . S
H336 C344 0.929 . S
H337 C346 0.930 . S
H338 C348 0.930 . S
H339 C351 0.929 . S
H340 C354 0.930 . S
H341 C356 0.960 . S
H342 C356 0.960 . S
H343 C356 0.960 . S
C344 H336 0.929 . S
C344 C345 1.377 . S
C344 C346 1.384 . S
C345 C344 1.377 . S
C345 C351 1.390 . S
C346 H337 0.930 . S
C346 C344 1.384 . S
C346 C347 1.372 . S
C347 C346 1.372 . S
C347 C348 1.400 . S
C347 C352 1.490 . S
C348 H338 0.930 . S
C348 C347 1.400 . S
C348 C351 1.386 . S
H349 C365 0.930 . S
H350 C366 0.931 . S
C351 H339 0.929 . S
C351 C345 1.390 . S
C351 C348 1.386 . S
C352 C347 1.490 . S
C352 C354 1.395 . S
C352 C355 1.403 . S
H353 C359 0.930 . S
C354 H340 0.930 . S
C354 C352 1.395 . S
C354 C357 1.403 . S
C355 C352 1.403 . S
C355 C356 1.524 . S
C355 C359 1.400 . S
C356 H341 0.960 . S
C356 H342 0.960 . S
C356 H343 0.960 . S
C356 C355 1.524 . S
C357 C354 1.403 . S
C357 C358 1.392 . S
C357 C361 1.495 . S
C358 C357 1.392 . S
C358 C359 1.385 . S
C358 C360 1.478 . S
C359 H353 0.930 . S
C359 C355 1.400 . S
C359 C358 1.385 . S
C360 C358 1.478 . S
C360 C362 1.381 . S
C360 C366 1.383 . S
C361 C357 1.495 . S
C361 H367 0.959 . S
C361 H368 0.961 . S
C361 H369 0.960 . S
C362 C360 1.381 . S
C362 C363 1.394 . S
C362 H370 0.930 . S
C363 C362 1.394 . S
C363 C364 1.383 . S
C363 H371 0.929 . S
C364 C363 1.383 . S
C364 C365 1.377 . S
C365 H349 0.930 . S
C365 C364 1.377 . S
C365 C366 1.379 . S
C366 H350 0.931 . S
C366 C360 1.383 . S
C366 C365 1.379 . S
H367 C361 0.959 . S
H368 C361 0.961 . S
H369 C361 0.960 . S
H370 C362 0.930 . S
H371 C363 0.929 . S
H372 C380 0.929 . S
H373 C382 0.930 . S
H374 C384 0.930 . S
H375 C387 0.929 . S
H376 C390 0.930 . S
H377 C392 0.960 . S
H378 C392 0.960 . S
H379 C392 0.960 . S
C380 H372 0.929 . S
C380 C381 1.377 . S
C380 C382 1.384 . S
C381 C380 1.377 . S
C381 C387 1.390 . S
C382 H373 0.930 . S
C382 C380 1.384 . S
C382 C383 1.372 . S
C383 C382 1.372 . S
C383 C384 1.400 . S
C383 C388 1.490 . S
C384 H374 0.930 . S
C384 C383 1.400 . S
C384 C387 1.386 . S
H385 C401 0.930 . S
H386 C402 0.931 . S
C387 H375 0.929 . S
C387 C381 1.390 . S
C387 C384 1.386 . S
C388 C383 1.490 . S
C388 C390 1.395 . S
C388 C391 1.403 . S
H389 C395 0.930 . S
C390 H376 0.930 . S
C390 C388 1.395 . S
C390 C393 1.403 . S
C391 C388 1.403 . S
C391 C392 1.524 . S
C391 C395 1.400 . S
C392 H377 0.960 . S
C392 H378 0.960 . S
C392 H379 0.960 . S
C392 C391 1.524 . S
C393 C390 1.403 . S
C393 C394 1.392 . S
C393 C397 1.495 . S
C394 C393 1.392 . S
C394 C395 1.385 . S
C394 C396 1.478 . S
C395 H389 0.930 . S
C395 C391 1.400 . S
C395 C394 1.385 . S
C396 C394 1.478 . S
C396 C398 1.381 . S
C396 C402 1.383 . S
C397 C393 1.495 . S
C397 H403 0.959 . S
C397 H404 0.961 . S
C397 H405 0.960 . S
C398 C396 1.381 . S
C398 C399 1.394 . S
C398 H406 0.930 . S
C399 C398 1.394 . S
C399 C400 1.383 . S
C399 H407 0.929 . S
C400 C399 1.383 . S
C400 C401 1.377 . S
C401 H385 0.930 . S
C401 C400 1.377 . S
C401 C402 1.379 . S
C402 H386 0.931 . S
C402 C396 1.383 . S
C402 C401 1.379 . S
H403 C397 0.959 . S
H404 C397 0.961 . S
H405 C397 0.960 . S
H406 C398 0.930 . S
H407 C399 0.929 . S
H408 C416 0.929 . S
H409 C418 0.930 . S
H410 C420 0.930 . S
H411 C423 0.929 . S
H412 C426 0.930 . S
H413 C428 0.960 1_655 S
H414 C428 0.960 . S
H415 C428 0.960 . S
C416 H408 0.929 . S
C416 C417 1.377 . S
C416 C418 1.384 . S
C417 C416 1.377 . S
C417 C423 1.390 . S
C418 H409 0.930 . S
C418 C416 1.384 . S
C418 C419 1.372 . S
C419 C418 1.372 . S
C419 C420 1.400 . S
C419 C424 1.490 . S
C420 H410 0.930 . S
C420 C419 1.400 . S
C420 C423 1.386 . S
H421 C437 0.930 . S
H422 C438 0.931 . S
C423 H411 0.929 . S
C423 C417 1.390 . S
C423 C420 1.386 . S
C424 C419 1.490 . S
C424 C426 1.395 . S
C424 C427 1.403 . S
H425 C431 0.930 . S
C426 H412 0.930 . S
C426 C424 1.395 . S
C426 C429 1.403 1_455 S
C427 C424 1.403 . S
C427 C428 1.524 . S
C427 C431 1.400 1_455 S
C428 H413 0.960 1_455 S
C428 H414 0.960 . S
C428 H415 0.960 . S
C428 C427 1.524 . S
C429 C426 1.403 1_655 S
C429 C430 1.392 . S
C429 C433 1.495 . S
C430 C429 1.392 . S
C430 C431 1.385 . S
C430 C432 1.478 . S
C431 H425 0.930 . S
C431 C427 1.400 1_655 S
C431 C430 1.385 . S
C432 C430 1.478 . S
C432 C434 1.381 . S
C432 C438 1.383 . S
C433 C429 1.495 . S
C433 H439 0.959 1_655 S
C433 H440 0.961 . S
C433 H441 0.960 . S
C434 C432 1.381 . S
C434 C435 1.394 . S
C434 H442 0.930 . S
C435 C434 1.394 . S
C435 C436 1.383 . S
C435 H443 0.929 . S
C436 C435 1.383 . S
C436 C437 1.377 . S
C437 H421 0.930 . S
C437 C436 1.377 . S
C437 C438 1.379 . S
C438 H422 0.931 . S
C438 C432 1.383 . S
C438 C437 1.379 . S
H439 C433 0.959 1_455 S
H440 C433 0.961 . S
H441 C433 0.960 . S
H442 C434 0.930 . S
H443 C435 0.929 . S
H444 C452 0.929 1_455 S
H445 C454 0.930 . S
H446 C456 0.930 . S
H447 C459 0.929 . S
H448 C462 0.930 . S
H449 C464 0.960 . S
H450 C464 0.960 . S
H451 C464 0.960 . S
C452 H444 0.929 1_655 S
C452 C453 1.377 . S
C452 C454 1.384 1_655 S
C453 C452 1.377 . S
C453 C459 1.390 . S
C454 H445 0.930 . S
C454 C452 1.384 1_455 S
C454 C455 1.372 1_455 S
C455 C454 1.372 1_655 S
C455 C456 1.400 . S
C455 C460 1.490 . S
C456 H446 0.930 . S
C456 C455 1.400 . S
C456 C459 1.386 . S
H457 C473 0.930 1_655 S
H458 C474 0.931 1_655 S
C459 H447 0.929 . S
C459 C453 1.390 . S
C459 C456 1.386 . S
C460 C455 1.490 . S
C460 C462 1.395 1_655 S
C460 C463 1.403 . S
H461 C467 0.930 . S
C462 H448 0.930 . S
C462 C460 1.395 1_455 S
C462 C465 1.403 . S
C463 C460 1.403 . S
C463 C464 1.524 . S
C463 C467 1.400 . S
C464 H449 0.960 . S
C464 H450 0.960 . S
C464 H451 0.960 . S
C464 C463 1.524 . S
C465 C462 1.403 . S
C465 C466 1.392 . S
C465 C469 1.495 . S
C466 C465 1.392 . S
C466 C467 1.385 1_455 S
C466 C468 1.478 . S
C467 H461 0.930 . S
C467 C463 1.400 . S
C467 C466 1.385 1_655 S
C468 C466 1.478 . S
C468 C470 1.381 . S
C468 C474 1.383 . S
C469 C465 1.495 . S
C469 H475 0.959 . S
C469 H476 0.961 . S
C469 H477 0.960 . S
C470 C468 1.381 . S
C470 C471 1.394 . S
C470 H478 0.930 . S
C471 C470 1.394 . S
C471 C472 1.383 . S
C471 H479 0.929 . S
C472 C471 1.383 . S
C472 C473 1.377 . S
C473 H457 0.930 1_455 S
C473 C472 1.377 . S
C473 C474 1.379 . S
C474 H458 0.931 1_455 S
C474 C468 1.383 . S
C474 C473 1.379 . S
H475 C469 0.959 . S
H476 C469 0.961 . S
H477 C469 0.960 . S
H478 C470 0.930 . S
H479 C471 0.929 . S
H480 C488 0.929 . S
H481 C490 0.930 . S
H482 C492 0.930 . S
H483 C495 0.929 . S
H484 C498 0.930 . S
H485 C500 0.960 . S
H486 C500 0.960 . S
H487 C500 0.960 . S
C488 H480 0.929 . S
C488 C489 1.377 . S
C488 C490 1.384 . S
C489 C488 1.377 . S
C489 C495 1.390 . S
C490 H481 0.930 . S
C490 C488 1.384 . S
C490 C491 1.372 . S
C491 C490 1.372 . S
C491 C492 1.400 . S
C491 C496 1.490 . S
C492 H482 0.930 . S
C492 C491 1.400 . S
C492 C495 1.386 . S
H493 C509 0.930 . S
H494 C510 0.931 . S
C495 H483 0.929 . S
C495 C489 1.390 . S
C495 C492 1.386 . S
C496 C491 1.490 . S
C496 C498 1.395 . S
C496 C499 1.403 . S
H497 C503 0.930 . S
C498 H484 0.930 . S
C498 C496 1.395 . S
C498 C501 1.403 . S
C499 C496 1.403 . S
C499 C500 1.524 . S
C499 C503 1.400 . S
C500 H485 0.960 . S
C500 H486 0.960 . S
C500 H487 0.960 . S
C500 C499 1.524 . S
C501 C498 1.403 . S
C501 C502 1.392 . S
C501 C505 1.495 . S
C502 C501 1.392 . S
C502 C503 1.385 . S
C502 C504 1.478 . S
C503 H497 0.930 . S
C503 C499 1.400 . S
C503 C502 1.385 . S
C504 C502 1.478 . S
C504 C506 1.381 . S
C504 C510 1.383 . S
C505 C501 1.495 . S
C505 H511 0.959 . S
C505 H512 0.961 . S
C505 H513 0.960 . S
C506 C504 1.381 . S
C506 C507 1.394 . S
C506 H514 0.930 . S
C507 C506 1.394 . S
C507 C508 1.383 . S
C507 H515 0.929 . S
C508 C507 1.383 . S
C508 C509 1.377 . S
C509 H493 0.930 . S
C509 C508 1.377 . S
C509 C510 1.379 . S
C510 H494 0.931 . S
C510 C504 1.383 . S
C510 C509 1.379 . S
H511 C505 0.959 . S
H512 C505 0.961 . S
H513 C505 0.960 . S
H514 C506 0.930 . S
H515 C507 0.929 . S
H516 C524 0.929 . S
H517 C526 0.930 . S
H518 C528 0.930 . S
H519 C531 0.929 . S
H520 C534 0.930 . S
H521 C536 0.960 . S
H522 C536 0.960 . S
H523 C536 0.960 . S
C524 H516 0.929 . S
C524 C525 1.377 . S
C524 C526 1.384 . S
C525 C524 1.377 . S
C525 C531 1.390 . S
C526 H517 0.930 . S
C526 C524 1.384 . S
C526 C527 1.372 . S
C527 C526 1.372 . S
C527 C528 1.400 . S
C527 C532 1.490 . S
C528 H518 0.930 . S
C528 C527 1.400 . S
C528 C531 1.386 . S
H529 C545 0.930 . S
H530 C546 0.931 . S
C531 H519 0.929 . S
C531 C525 1.390 . S
C531 C528 1.386 . S
C532 C527 1.490 . S
C532 C534 1.395 . S
C532 C535 1.403 . S
H533 C539 0.930 . S
C534 H520 0.930 . S
C534 C532 1.395 . S
C534 C537 1.403 . S
C535 C532 1.403 . S
C535 C536 1.524 . S
C535 C539 1.400 . S
C536 H521 0.960 . S
C536 H522 0.960 . S
C536 H523 0.960 . S
C536 C535 1.524 . S
C537 C534 1.403 . S
C537 C538 1.392 . S
C537 C541 1.495 . S
C538 C537 1.392 . S
C538 C539 1.385 . S
C538 C540 1.478 . S
C539 H533 0.930 . S
C539 C535 1.400 . S
C539 C538 1.385 . S
C540 C538 1.478 . S
C540 C542 1.381 . S
C540 C546 1.383 . S
C541 C537 1.495 . S
C541 H547 0.959 . S
C541 H548 0.961 . S
C541 H549 0.960 . S
C542 C540 1.381 . S
C542 C543 1.394 . S
C542 H550 0.930 . S
C543 C542 1.394 . S
C543 C544 1.383 . S
C543 H551 0.929 . S
C544 C543 1.383 . S
C544 C545 1.377 . S
C545 H529 0.930 . S
C545 C544 1.377 . S
C545 C546 1.379 . S
C546 H530 0.931 . S
C546 C540 1.383 . S
C546 C545 1.379 . S
H547 C541 0.959 . S
H548 C541 0.961 . S
H549 C541 0.960 . S
H550 C542 0.930 . S
H551 C543 0.929 . S
H552 C560 0.929 . S
H553 C562 0.930 . S
H554 C564 0.930 . S
H555 C567 0.929 . S
H556 C570 0.930 . S
H557 C572 0.960 1_455 S
H558 C572 0.960 . S
H559 C572 0.960 . S
C560 H552 0.929 . S
C560 C561 1.377 . S
C560 C562 1.384 . S
C561 C560 1.377 . S
C561 C567 1.390 . S
C562 H553 0.930 . S
C562 C560 1.384 . S
C562 C563 1.372 . S
C563 C562 1.372 . S
C563 C564 1.400 . S
C563 C568 1.490 . S
C564 H554 0.930 . S
C564 C563 1.400 . S
C564 C567 1.386 . S
H565 C581 0.930 . S
H566 C582 0.931 . S
C567 H555 0.929 . S
C567 C561 1.390 . S
C567 C564 1.386 . S
C568 C563 1.490 . S
C568 C570 1.395 . S
C568 C571 1.403 . S
H569 C575 0.930 . S
C570 H556 0.930 . S
C570 C568 1.395 . S
C570 C573 1.403 1_655 S
C571 C568 1.403 . S
C571 C572 1.524 . S
C571 C575 1.400 1_655 S
C572 H557 0.960 1_655 S
C572 H558 0.960 . S
C572 H559 0.960 . S
C572 C571 1.524 . S
C573 C570 1.403 1_455 S
C573 C574 1.392 . S
C573 C577 1.495 . S
C574 C573 1.392 . S
C574 C575 1.385 . S
C574 C576 1.478 . S
C575 H569 0.930 . S
C575 C571 1.400 1_455 S
C575 C574 1.385 . S
C576 C574 1.478 . S
C576 C578 1.381 . S
C576 C582 1.383 . S
C577 C573 1.495 . S
C577 H583 0.959 1_455 S
C577 H584 0.961 . S
C577 H585 0.960 . S
C578 C576 1.381 . S
C578 C579 1.394 . S
C578 H586 0.930 . S
C579 C578 1.394 . S
C579 C580 1.383 . S
C579 H587 0.929 . S
C580 C579 1.383 . S
C580 C581 1.377 . S
C581 H565 0.930 . S
C581 C580 1.377 . S
C581 C582 1.379 . S
C582 H566 0.931 . S
C582 C576 1.383 . S
C582 C581 1.379 . S
H583 C577 0.959 1_655 S
H584 C577 0.961 . S
H585 C577 0.960 . S
H586 C578 0.930 . S
H587 C579 0.929 . S
H588 C596 0.929 . S
H589 C598 0.930 . S
H590 C600 0.930 . S
H591 C603 0.929 . S
H592 C606 0.930 . S
H593 C608 0.960 . S
H594 C608 0.960 . S
H595 C608 0.960 . S
C596 H588 0.929 . S
C596 C597 1.377 . S
C596 C598 1.384 . S
C597 C596 1.377 . S
C597 C603 1.390 . S
C598 H589 0.930 . S
C598 C596 1.384 . S
C598 C599 1.372 . S
C599 C598 1.372 . S
C599 C600 1.400 . S
C599 C604 1.490 . S
C600 H590 0.930 . S
C600 C599 1.400 . S
C600 C603 1.386 . S
H601 C617 0.930 . S
H602 C618 0.931 . S
C603 H591 0.929 . S
C603 C597 1.390 . S
C603 C600 1.386 . S
C604 C599 1.490 . S
C604 C606 1.395 1_455 S
C604 C607 1.403 . S
H605 C611 0.930 . S
C606 H592 0.930 . S
C606 C604 1.395 1_655 S
C606 C609 1.403 . S
C607 C604 1.403 . S
C607 C608 1.524 . S
C607 C611 1.400 . S
C608 H593 0.960 . S
C608 H594 0.960 . S
C608 H595 0.960 . S
C608 C607 1.524 . S
C609 C606 1.403 . S
C609 C610 1.392 . S
C609 C613 1.495 . S
C610 C609 1.392 . S
C610 C611 1.385 1_655 S
C610 C612 1.478 . S
C611 H605 0.930 . S
C611 C607 1.400 . S
C611 C610 1.385 1_455 S
C612 C610 1.478 . S
C612 C614 1.381 . S
C612 C618 1.383 . S
C613 C609 1.495 . S
C613 H619 0.959 . S
C613 H620 0.961 . S
C613 H621 0.960 . S
C614 C612 1.381 . S
C614 C615 1.394 . S
C614 H622 0.930 . S
C615 C614 1.394 . S
C615 C616 1.383 . S
C615 H623 0.929 . S
C616 C615 1.383 . S
C616 C617 1.377 . S
C617 H601 0.930 . S
C617 C616 1.377 . S
C617 C618 1.379 . S
C618 H602 0.931 . S
C618 C612 1.383 . S
C618 C617 1.379 . S
H619 C613 0.959 . S
H620 C613 0.961 . S
H621 C613 0.960 . S
H622 C614 0.930 . S
H623 C615 0.929 . S
H624 C632 0.929 . S
H625 C634 0.930 . S
H626 C636 0.930 . S
H627 C639 0.929 . S
H628 C642 0.930 . S
H629 C644 0.960 1_554 S
H630 C644 0.960 . S
H631 C644 0.960 . S
C632 H624 0.929 . S
C632 C633 1.377 . S
C632 C634 1.384 . S
C633 C632 1.377 . S
C633 C639 1.390 . S
C634 H625 0.930 . S
C634 C632 1.384 . S
C634 C635 1.372 . S
C635 C634 1.372 . S
C635 C636 1.400 . S
C635 C640 1.490 . S
C636 H626 0.930 . S
C636 C635 1.400 . S
C636 C639 1.386 . S
H637 C653 0.930 . S
H638 C654 0.934 . S
C639 H627 0.929 . S
C639 C633 1.390 . S
C639 C636 1.386 . S
C640 C635 1.490 . S
C640 C642 1.395 . S
C640 C643 1.403 . S
H641 C647 0.930 . S
C642 H628 0.930 . S
C642 C640 1.395 . S
C642 C645 1.403 . S
C643 C640 1.403 . S
C643 C644 1.524 . S
C643 C647 1.400 . S
C644 H629 0.960 1_556 S
C644 H630 0.960 . S
C644 H631 0.960 . S
C644 C643 1.524 . S
C645 C642 1.403 . S
C645 C646 1.392 . S
C645 C649 1.495 . S
C646 C645 1.392 . S
C646 C647 1.385 . S
C646 C648 1.478 . S
C647 H641 0.930 . S
C647 C643 1.400 . S
C647 C646 1.385 . S
C648 C646 1.478 . S
C648 C650 1.381 . S
C648 C654 1.383 . S
C649 C645 1.495 . S
C649 H655 0.959 . S
C649 H656 0.961 . S
C649 H657 0.960 . S
C650 C648 1.381 . S
C650 C651 1.394 . S
C650 H658 0.930 . S
C651 C650 1.394 . S
C651 C652 1.383 1_556 S
C651 H659 0.929 . S
C652 C651 1.383 1_554 S
C652 C653 1.377 . S
C653 H637 0.930 . S
C653 C652 1.377 . S
C653 C654 1.379 1_554 S
C654 H638 0.934 . S
C654 C648 1.383 . S
C654 C653 1.379 1_556 S
H655 C649 0.959 . S
H656 C649 0.961 . S
H657 C649 0.960 . S
H658 C650 0.930 . S
H659 C651 0.929 . S
H660 C668 0.929 . S
H661 C670 0.930 . S
H662 C672 0.930 . S
H663 C675 0.929 . S
H664 C678 0.930 . S
H665 C680 0.960 . S
H666 C680 0.960 . S
H667 C680 0.960 . S
C668 H660 0.929 . S
C668 C669 1.377 . S
C668 C670 1.384 . S
C669 C668 1.377 . S
C669 C675 1.390 . S
C670 H661 0.930 . S
C670 C668 1.384 . S
C670 C671 1.372 . S
C671 C670 1.372 . S
C671 C672 1.400 . S
C671 C676 1.490 . S
C672 H662 0.930 . S
C672 C671 1.400 . S
C672 C675 1.386 . S
H673 C689 0.930 . S
H674 C690 0.931 . S
C675 H663 0.929 . S
C675 C669 1.390 . S
C675 C672 1.386 . S
C676 C671 1.490 . S
C676 C678 1.395 . S
C676 C679 1.403 . S
H677 C683 0.930 . S
C678 H664 0.930 . S
C678 C676 1.395 . S
C678 C681 1.403 . S
C679 C676 1.403 . S
C679 C680 1.524 . S
C679 C683 1.400 . S
C680 H665 0.960 . S
C680 H666 0.960 . S
C680 H667 0.960 . S
C680 C679 1.524 . S
C681 C678 1.403 . S
C681 C682 1.392 . S
C681 C685 1.495 . S
C682 C681 1.392 . S
C682 C683 1.385 . S
C682 C684 1.478 . S
C683 H677 0.930 . S
C683 C679 1.400 . S
C683 C682 1.385 . S
C684 C682 1.478 . S
C684 C686 1.381 . S
C684 C690 1.383 . S
C685 C681 1.495 . S
C685 H691 0.959 . S
C685 H692 0.961 . S
C685 H693 0.960 . S
C686 C684 1.381 . S
C686 C687 1.394 . S
C686 H694 0.930 . S
C687 C686 1.394 . S
C687 C688 1.383 . S
C687 H695 0.929 . S
C688 C687 1.383 . S
C688 C689 1.377 . S
C689 H673 0.930 . S
C689 C688 1.377 . S
C689 C690 1.379 . S
C690 H674 0.931 . S
C690 C684 1.383 . S
C690 C689 1.379 . S
H691 C685 0.959 . S
H692 C685 0.961 . S
H693 C685 0.960 . S
H694 C686 0.930 . S
H695 C687 0.929 . S
H696 C704 0.929 . S
H697 C706 0.930 . S
H698 C708 0.930 . S
H699 C711 0.929 . S
H700 C714 0.930 . S
H701 C716 0.960 . S
H702 C716 0.960 . S
H703 C716 0.960 . S
C704 H696 0.929 . S
C704 C705 1.377 . S
C704 C706 1.384 . S
C705 C704 1.377 . S
C705 C711 1.390 . S
C706 H697 0.930 . S
C706 C704 1.384 . S
C706 C707 1.372 . S
C707 C706 1.372 . S
C707 C708 1.400 . S
C707 C712 1.490 . S
C708 H698 0.930 . S
C708 C707 1.400 . S
C708 C711 1.386 . S
H709 C725 0.930 . S
H710 C726 0.931 . S
C711 H699 0.929 . S
C711 C705 1.390 . S
C711 C708 1.386 . S
C712 C707 1.490 . S
C712 C714 1.395 . S
C712 C715 1.403 . S
H713 C719 0.930 . S
C714 H700 0.930 . S
C714 C712 1.395 . S
C714 C717 1.403 . S
C715 C712 1.403 . S
C715 C716 1.524 . S
C715 C719 1.400 . S
C716 H701 0.960 . S
C716 H702 0.960 . S
C716 H703 0.960 . S
C716 C715 1.524 . S
C717 C714 1.403 . S
C717 C718 1.392 . S
C717 C721 1.495 . S
C718 C717 1.392 . S
C718 C719 1.385 . S
C718 C720 1.478 . S
C719 H713 0.930 . S
C719 C715 1.400 . S
C719 C718 1.385 . S
C720 C718 1.478 . S
C720 C722 1.381 . S
C720 C726 1.383 . S
C721 C717 1.495 . S
C721 H727 0.959 . S
C721 H728 0.961 . S
C721 H729 0.960 . S
C722 C720 1.381 . S
C722 C723 1.394 . S
C722 H730 0.930 . S
C723 C722 1.394 . S
C723 C724 1.383 . S
C723 H731 0.929 . S
C724 C723 1.383 . S
C724 C725 1.377 . S
C725 H709 0.930 . S
C725 C724 1.377 . S
C725 C726 1.379 . S
C726 H710 0.931 . S
C726 C720 1.383 . S
C726 C725 1.379 . S
H727 C721 0.959 . S
H728 C721 0.961 . S
H729 C721 0.960 . S
H730 C722 0.930 . S
H731 C723 0.929 . S
H732 C740 0.929 . S
H733 C742 0.930 . S
H734 C744 0.930 . S
H735 C747 0.929 . S
H736 C750 0.930 . S
H737 C752 0.960 . S
H738 C752 0.960 . S
H739 C752 0.960 . S
C740 H732 0.929 . S
C740 C741 1.377 . S
C740 C742 1.384 . S
C741 C740 1.377 . S
C741 C747 1.390 . S
C742 H733 0.930 . S
C742 C740 1.384 . S
C742 C743 1.372 . S
C743 C742 1.372 . S
C743 C744 1.400 . S
C743 C748 1.490 . S
C744 H734 0.930 . S
C744 C743 1.400 . S
C744 C747 1.386 . S
H745 C761 0.930 . S
H746 C762 0.931 . S
C747 H735 0.929 . S
C747 C741 1.390 . S
C747 C744 1.386 . S
C748 C743 1.490 . S
C748 C750 1.395 . S
C748 C751 1.403 . S
H749 C755 0.930 . S
C750 H736 0.930 . S
C750 C748 1.395 . S
C750 C753 1.403 . S
C751 C748 1.403 . S
C751 C752 1.524 . S
C751 C755 1.400 . S
C752 H737 0.960 . S
C752 H738 0.960 . S
C752 H739 0.960 . S
C752 C751 1.524 . S
C753 C750 1.403 . S
C753 C754 1.392 . S
C753 C757 1.495 . S
C754 C753 1.392 . S
C754 C755 1.385 . S
C754 C756 1.478 . S
C755 H749 0.930 . S
C755 C751 1.400 . S
C755 C754 1.385 . S
C756 C754 1.478 . S
C756 C758 1.381 . S
C756 C762 1.383 . S
C757 C753 1.495 . S
C757 H763 0.959 . S
C757 H764 0.961 . S
C757 H765 0.960 . S
C758 C756 1.381 . S
C758 C759 1.394 . S
C758 H766 0.930 . S
C759 C758 1.394 . S
C759 C760 1.383 . S
C759 H767 0.929 . S
C760 C759 1.383 . S
C760 C761 1.377 . S
C761 H745 0.930 . S
C761 C760 1.377 . S
C761 C762 1.379 . S
C762 H746 0.931 . S
C762 C756 1.383 . S
C762 C761 1.379 . S
H763 C757 0.959 . S
H764 C757 0.961 . S
H765 C757 0.960 . S
H766 C758 0.930 . S
H767 C759 0.929 . S
H768 C776 0.928 1_556 S
H769 C778 0.930 . S
H770 C780 0.930 . S
H771 C783 0.927 1_556 S
H772 C786 0.930 . S
H773 C788 0.960 . S
H774 C788 0.960 . S
H775 C788 0.960 . S
C776 H768 0.928 1_554 S
C776 C777 1.376 1_554 S
C776 C778 1.387 . S
C777 C776 1.376 1_556 S
C777 C783 1.387 1_556 S
C778 H769 0.930 . S
C778 C776 1.387 . S
C778 C779 1.372 . S
C779 C778 1.372 . S
C779 C780 1.400 . S
C779 C784 1.490 . S
C780 H770 0.930 . S
C780 C779 1.400 . S
C780 C783 1.392 . S
H781 C797 0.930 . S
H782 C798 0.931 . S
C783 H771 0.927 1_554 S
C783 C777 1.387 1_554 S
C783 C780 1.392 . S
C784 C779 1.490 . S
C784 C786 1.395 . S
C784 C787 1.403 . S
H785 C791 0.930 . S
C786 H772 0.930 . S
C786 C784 1.395 . S
C786 C789 1.403 . S
C787 C784 1.403 . S
C787 C788 1.524 1_554 S
C787 C791 1.400 . S
C788 H773 0.960 . S
C788 H774 0.960 . S
C788 H775 0.960 . S
C788 C787 1.524 1_556 S
C789 C786 1.403 . S
C789 C790 1.392 . S
C789 C793 1.495 . S
C790 C789 1.392 . S
C790 C791 1.385 . S
C790 C792 1.478 . S
C791 H785 0.930 . S
C791 C787 1.400 . S
C791 C790 1.385 . S
C792 C790 1.478 . S
C792 C794 1.381 . S
C792 C798 1.383 . S
C793 C789 1.495 . S
C793 H799 0.959 . S
C793 H800 0.961 . S
C793 H801 0.960 . S
C794 C792 1.381 . S
C794 C795 1.394 . S
C794 H802 0.930 . S
C795 C794 1.394 . S
C795 C796 1.383 . S
C795 H803 0.929 . S
C796 C795 1.383 . S
C796 C797 1.377 . S
C797 H781 0.930 . S
C797 C796 1.377 . S
C797 C798 1.379 . S
C798 H782 0.931 . S
C798 C792 1.383 . S
C798 C797 1.379 . S
H799 C793 0.959 . S
H800 C793 0.961 . S
H801 C793 0.960 . S
H802 C794 0.930 . S
H803 C795 0.929 . S
H804 C812 0.929 . S
H805 C814 0.930 . S
H806 C816 0.930 . S
H807 C819 0.929 . S
H808 C822 0.930 . S
H809 C824 0.960 . S
H810 C824 0.960 . S
H811 C824 0.960 . S
C812 H804 0.929 . S
C812 C813 1.377 . S
C812 C814 1.384 . S
C813 C812 1.377 . S
C813 C819 1.390 . S
C814 H805 0.930 . S
C814 C812 1.384 . S
C814 C815 1.372 . S
C815 C814 1.372 . S
C815 C816 1.400 . S
C815 C820 1.490 . S
C816 H806 0.930 . S
C816 C815 1.400 . S
C816 C819 1.386 . S
H817 C833 0.930 . S
H818 C834 0.931 . S
C819 H807 0.929 . S
C819 C813 1.390 . S
C819 C816 1.386 . S
C820 C815 1.490 . S
C820 C822 1.395 . S
C820 C823 1.403 . S
H821 C827 0.930 . S
C822 H808 0.930 . S
C822 C820 1.395 . S
C822 C825 1.403 . S
C823 C820 1.403 . S
C823 C824 1.524 . S
C823 C827 1.400 . S
C824 H809 0.960 . S
C824 H810 0.960 . S
C824 H811 0.960 . S
C824 C823 1.524 . S
C825 C822 1.403 . S
C825 C826 1.392 . S
C825 C829 1.495 . S
C826 C825 1.392 . S
C826 C827 1.385 . S
C826 C828 1.478 . S
C827 H821 0.930 . S
C827 C823 1.400 . S
C827 C826 1.385 . S
C828 C826 1.478 . S
C828 C830 1.381 . S
C828 C834 1.383 . S
C829 C825 1.495 . S
C829 H835 0.959 . S
C829 H836 0.961 . S
C829 H837 0.960 . S
C830 C828 1.381 . S
C830 C831 1.394 . S
C830 H838 0.930 . S
C831 C830 1.394 . S
C831 C832 1.383 . S
C831 H839 0.929 . S
C832 C831 1.383 . S
C832 C833 1.377 . S
C833 H817 0.930 . S
C833 C832 1.377 . S
C833 C834 1.379 . S
C834 H818 0.931 . S
C834 C828 1.383 . S
C834 C833 1.379 . S
H835 C829 0.959 . S
H836 C829 0.961 . S
H837 C829 0.960 . S
H838 C830 0.930 . S
H839 C831 0.929 . S
H840 C848 0.929 . S
H841 C850 0.930 . S
H842 C852 0.930 . S
H843 C855 0.929 . S
H844 C858 0.930 . S
H845 C860 0.960 . S
H846 C860 0.960 . S
H847 C860 0.960 . S
C848 H840 0.929 . S
C848 C849 1.377 . S
C848 C850 1.384 . S
C849 C848 1.377 . S
C849 C855 1.390 . S
C850 H841 0.930 . S
C850 C848 1.384 . S
C850 C851 1.372 . S
C851 C850 1.372 . S
C851 C852 1.400 . S
C851 C856 1.490 . S
C852 H842 0.930 . S
C852 C851 1.400 . S
C852 C855 1.386 . S
H853 C869 0.930 . S
H854 C870 0.931 . S
C855 H843 0.929 . S
C855 C849 1.390 . S
C855 C852 1.386 . S
C856 C851 1.490 . S
C856 C858 1.395 . S
C856 C859 1.403 . S
H857 C863 0.930 . S
C858 H844 0.930 . S
C858 C856 1.395 . S
C858 C861 1.403 . S
C859 C856 1.403 . S
C859 C860 1.524 . S
C859 C863 1.400 . S
C860 H845 0.960 . S
C860 H846 0.960 . S
C860 H847 0.960 . S
C860 C859 1.524 . S
C861 C858 1.403 . S
C861 C862 1.392 . S
C861 C865 1.495 . S
C862 C861 1.392 . S
C862 C863 1.385 . S
C862 C864 1.478 . S
C863 H857 0.930 . S
C863 C859 1.400 . S
C863 C862 1.385 . S
C864 C862 1.478 . S
C864 C866 1.381 . S
C864 C870 1.383 . S
C865 C861 1.495 . S
C865 H871 0.959 . S
C865 H872 0.961 . S
C865 H873 0.960 . S
C866 C864 1.381 . S
C866 C867 1.394 . S
C866 H874 0.930 . S
C867 C866 1.394 . S
C867 C868 1.383 . S
C867 H875 0.929 . S
C868 C867 1.383 . S
C868 C869 1.377 . S
C869 H853 0.930 . S
C869 C868 1.377 . S
C869 C870 1.379 . S
C870 H854 0.931 . S
C870 C864 1.383 . S
C870 C869 1.379 . S
H871 C865 0.959 . S
H872 C865 0.961 . S
H873 C865 0.960 . S
H874 C866 0.930 . S
H875 C867 0.929 . S
H876 C884 0.929 . S
H877 C886 0.930 . S
H878 C888 0.930 . S
H879 C891 0.929 . S
H880 C894 0.930 . S
H881 C896 0.960 . S
H882 C896 0.960 . S
H883 C896 0.960 . S
C884 H876 0.929 . S
C884 C885 1.377 . S
C884 C886 1.384 . S
C885 C884 1.377 . S
C885 C891 1.390 . S
C886 H877 0.930 . S
C886 C884 1.384 . S
C886 C887 1.372 . S
C887 C886 1.372 . S
C887 C888 1.400 . S
C887 C892 1.490 . S
C888 H878 0.930 . S
C888 C887 1.400 . S
C888 C891 1.386 . S
H889 C905 0.930 . S
H890 C906 0.931 . S
C891 H879 0.929 . S
C891 C885 1.390 . S
C891 C888 1.386 . S
C892 C887 1.490 . S
C892 C894 1.395 . S
C892 C895 1.403 . S
H893 C899 0.930 . S
C894 H880 0.930 . S
C894 C892 1.395 . S
C894 C897 1.403 . S
C895 C892 1.403 . S
C895 C896 1.524 . S
C895 C899 1.400 . S
C896 H881 0.960 . S
C896 H882 0.960 . S
C896 H883 0.960 . S
C896 C895 1.524 . S
C897 C894 1.403 . S
C897 C898 1.392 . S
C897 C901 1.495 . S
C898 C897 1.392 . S
C898 C899 1.385 . S
C898 C900 1.478 . S
C899 H893 0.930 . S
C899 C895 1.400 . S
C899 C898 1.385 . S
C900 C898 1.478 . S
C900 C902 1.381 . S
C900 C906 1.383 . S
C901 C897 1.495 . S
C901 H907 0.959 . S
C901 H908 0.961 . S
C901 H909 0.960 . S
C902 C900 1.381 . S
C902 C903 1.394 . S
C902 H910 0.930 . S
C903 C902 1.394 . S
C903 C904 1.383 . S
C903 H911 0.929 . S
C904 C903 1.383 . S
C904 C905 1.377 . S
C905 H889 0.930 . S
C905 C904 1.377 . S
C905 C906 1.379 . S
C906 H890 0.931 . S
C906 C900 1.383 . S
C906 C905 1.379 . S
H907 C901 0.959 . S
H908 C901 0.961 . S
H909 C901 0.960 . S
H910 C902 0.930 . S
H911 C903 0.929 . S
H912 C920 0.929 . S
H913 C922 0.930 . S
H914 C924 0.930 . S
H915 C927 0.929 . S
H916 C930 0.930 . S
H917 C932 0.960 . S
H918 C932 0.960 . S
H919 C932 0.960 . S
C920 H912 0.929 . S
C920 C921 1.377 . S
C920 C922 1.384 . S
C921 C920 1.377 . S
C921 C927 1.390 . S
C922 H913 0.930 . S
C922 C920 1.384 . S
C922 C923 1.372 . S
C923 C922 1.372 . S
C923 C924 1.400 . S
C923 C928 1.490 . S
C924 H914 0.930 . S
C924 C923 1.400 . S
C924 C927 1.386 . S
H925 C941 0.930 . S
H926 C942 0.931 . S
C927 H915 0.929 . S
C927 C921 1.390 . S
C927 C924 1.386 . S
C928 C923 1.490 . S
C928 C930 1.395 . S
C928 C931 1.403 . S
H929 C935 0.930 . S
C930 H916 0.930 . S
C930 C928 1.395 . S
C930 C933 1.403 . S
C931 C928 1.403 . S
C931 C932 1.524 . S
C931 C935 1.400 . S
C932 H917 0.960 . S
C932 H918 0.960 . S
C932 H919 0.960 . S
C932 C931 1.524 . S
C933 C930 1.403 . S
C933 C934 1.392 . S
C933 C937 1.495 . S
C934 C933 1.392 . S
C934 C935 1.385 . S
C934 C936 1.478 . S
C935 H929 0.930 . S
C935 C931 1.400 . S
C935 C934 1.385 . S
C936 C934 1.478 . S
C936 C938 1.381 . S
C936 C942 1.383 . S
C937 C933 1.495 . S
C937 H943 0.959 . S
C937 H944 0.961 . S
C937 H945 0.960 . S
C938 C936 1.381 . S
C938 C939 1.394 . S
C938 H946 0.930 . S
C939 C938 1.394 . S
C939 C940 1.383 . S
C939 H947 0.929 . S
C940 C939 1.383 . S
C940 C941 1.377 . S
C941 H925 0.930 . S
C941 C940 1.377 . S
C941 C942 1.379 . S
C942 H926 0.931 . S
C942 C936 1.383 . S
C942 C941 1.379 . S
H943 C937 0.959 . S
H944 C937 0.961 . S
H945 C937 0.960 . S
H946 C938 0.930 . S
H947 C939 0.929 . S
H948 C956 0.929 . S
H949 C958 0.930 1_565 S
H950 C960 0.930 . S
H951 C963 0.929 . S
H952 C966 0.930 . S
H953 C968 0.960 . S
H954 C968 0.960 . S
H955 C968 0.960 . S
C956 H948 0.929 . S
C956 C957 1.377 . S
C956 C958 1.384 . S
C957 C956 1.377 . S
C957 C963 1.390 . S
C958 H949 0.930 1_545 S
C958 C956 1.384 . S
C958 C959 1.372 1_545 S
C959 C958 1.372 1_565 S
C959 C960 1.400 1_565 S
C959 C964 1.490 . S
C960 H950 0.930 . S
C960 C959 1.400 1_545 S
C960 C963 1.386 . S
H961 C977 0.930 . S
H962 C978 0.931 . S
C963 H951 0.929 . S
C963 C957 1.390 . S
C963 C960 1.386 . S
C964 C959 1.490 . S
C964 C966 1.395 . S
C964 C967 1.403 . S
H965 C971 0.930 . S
C966 H952 0.930 . S
C966 C964 1.395 . S
C966 C969 1.403 . S
C967 C964 1.403 . S
C967 C968 1.524 . S
C967 C971 1.400 . S
C968 H953 0.960 . S
C968 H954 0.960 . S
C968 H955 0.960 . S
C968 C967 1.524 . S
C969 C966 1.403 . S
C969 C970 1.392 . S
C969 C973 1.495 . S
C970 C969 1.392 . S
C970 C971 1.385 . S
C970 C972 1.478 . S
C971 H965 0.930 . S
C971 C967 1.400 . S
C971 C970 1.385 . S
C972 C970 1.478 . S
C972 C974 1.381 . S
C972 C978 1.383 . S
C973 C969 1.495 . S
C973 H979 0.959 . S
C973 H980 0.961 . S
C973 H981 0.960 . S
C974 C972 1.381 . S
C974 C975 1.394 . S
C974 H982 0.930 . S
C975 C974 1.394 . S
C975 C976 1.383 . S
C975 H983 0.929 . S
C976 C975 1.383 . S
C976 C977 1.377 . S
C977 H961 0.930 . S
C977 C976 1.377 . S
C977 C978 1.379 . S
C978 H962 0.931 . S
C978 C972 1.383 . S
C978 C977 1.379 . S
H979 C973 0.959 . S
H980 C973 0.961 . S
H981 C973 0.960 . S
H982 C974 0.930 . S
H983 C975 0.929 . S
H984 C992 0.929 . S
H985 C994 0.930 . S
H986 C996 0.930 . S
H987 C999 0.929 . S
H988 C1002 0.930 . S
H989 C1004 0.960 . S
H990 C1004 0.960 . S
H991 C1004 0.960 1_554 S
C992 H984 0.929 . S
C992 C993 1.377 1_556 S
C992 C994 1.384 . S
C993 C992 1.377 1_554 S
C993 C999 1.390 . S
C994 H985 0.930 . S
C994 C992 1.384 . S
C994 C995 1.372 . S
C995 C994 1.372 . S
C995 C996 1.400 1_556 S
C995 C1000 1.490 . S
C996 H986 0.930 . S
C996 C995 1.400 1_554 S
C996 C999 1.386 . S
H997 C1013 0.930 . S
H998 C1014 0.931 . S
C999 H987 0.929 . S
C999 C993 1.390 . S
C999 C996 1.386 . S
C1000 C995 1.490 . S
C1000 C1002 1.395 . S
C1000 C1003 1.403 . S
H1001 C1007 0.930 . S
C1002 H988 0.930 . S
C1002 C1000 1.395 . S
C1002 C1005 1.403 . S
C1003 C1000 1.403 . S
C1003 C1004 1.524 . S
C1003 C1007 1.400 . S
C1004 H989 0.960 . S
C1004 H990 0.960 . S
C1004 H991 0.960 1_556 S
C1004 C1003 1.524 . S
C1005 C1002 1.403 . S
C1005 C1006 1.392 . S
C1005 C1009 1.495 . S
C1006 C1005 1.392 . S
C1006 C1007 1.385 . S
C1006 C1008 1.478 . S
C1007 H1001 0.930 . S
C1007 C1003 1.400 . S
C1007 C1006 1.385 . S
C1008 C1006 1.478 . S
C1008 C1010 1.381 . S
C1008 C1014 1.383 . S
C1009 C1005 1.495 . S
C1009 H1015 0.959 . S
C1009 H1016 0.961 . S
C1009 H1017 0.960 . S
C1010 C1008 1.381 . S
C1010 C1011 1.394 . S
C1010 H1018 0.930 . S
C1011 C1010 1.394 . S
C1011 C1012 1.383 . S
C1011 H1019 0.929 . S
C1012 C1011 1.383 . S
C1012 C1013 1.377 . S
C1013 H997 0.930 . S
C1013 C1012 1.377 . S
C1013 C1014 1.379 . S
C1014 H998 0.931 . S
C1014 C1008 1.383 . S
C1014 C1013 1.379 . S
H1015 C1009 0.959 . S
H1016 C1009 0.961 . S
H1017 C1009 0.960 . S
H1018 C1010 0.930 . S
H1019 C1011 0.929 . S
H1020 C1028 0.929 . S
H1021 C1030 0.930 1_545 S
H1022 C1032 0.930 . S
H1023 C1035 0.929 . S
H1024 C1038 0.930 . S
H1025 C1040 0.960 . S
H1026 C1040 0.960 1_565 S
H1027 C1040 0.960 1_565 S
C1028 H1020 0.929 . S
C1028 C1029 1.377 . S
C1028 C1030 1.384 . S
C1029 C1028 1.377 . S
C1029 C1035 1.390 . S
C1030 H1021 0.930 1_565 S
C1030 C1028 1.384 . S
C1030 C1031 1.372 1_565 S
C1031 C1030 1.372 1_545 S
C1031 C1032 1.400 1_545 S
C1031 C1036 1.490 . S
C1032 H1022 0.930 . S
C1032 C1031 1.400 1_565 S
C1032 C1035 1.386 . S
H1033 C1049 0.930 . S
H1034 C1050 0.931 . S
C1035 H1023 0.929 . S
C1035 C1029 1.390 . S
C1035 C1032 1.386 . S
C1036 C1031 1.490 . S
C1036 C1038 1.395 . S
C1036 C1039 1.403 . S
H1037 C1043 0.930 . S
C1038 H1024 0.930 . S
C1038 C1036 1.395 . S
C1038 C1041 1.403 . S
C1039 C1036 1.403 . S
C1039 C1040 1.524 . S
C1039 C1043 1.400 . S
C1040 H1025 0.960 . S
C1040 H1026 0.960 1_545 S
C1040 H1027 0.960 1_545 S
C1040 C1039 1.524 . S
C1041 C1038 1.403 . S
C1041 C1042 1.392 . S
C1041 C1045 1.495 . S
C1042 C1041 1.392 . S
C1042 C1043 1.385 . S
C1042 C1044 1.478 . S
C1043 H1037 0.930 . S
C1043 C1039 1.400 . S
C1043 C1042 1.385 . S
C1044 C1042 1.478 . S
C1044 C1046 1.381 . S
C1044 C1050 1.383 . S
C1045 C1041 1.495 . S
C1045 H1051 0.959 . S
C1045 H1052 0.961 . S
C1045 H1053 0.960 . S
C1046 C1044 1.381 . S
C1046 C1047 1.394 . S
C1046 H1054 0.930 . S
C1047 C1046 1.394 . S
C1047 C1048 1.383 . S
C1047 H1055 0.929 . S
C1048 C1047 1.383 . S
C1048 C1049 1.377 . S
C1049 H1033 0.930 . S
C1049 C1048 1.377 . S
C1049 C1050 1.379 . S
C1050 H1034 0.931 . S
C1050 C1044 1.383 . S
C1050 C1049 1.379 . S
H1051 C1045 0.959 . S
H1052 C1045 0.961 . S
H1053 C1045 0.960 . S
H1054 C1046 0.930 . S
H1055 C1047 0.929 . S
H1056 C1064 0.929 . S
H1057 C1066 0.930 . S
H1058 C1068 0.930 . S
H1059 C1071 0.929 . S
H1060 C1074 0.930 . S
H1061 C1076 0.960 . S
H1062 C1076 0.960 . S
H1063 C1076 0.960 . S
C1064 H1056 0.929 . S
C1064 C1065 1.377 . S
C1064 C1066 1.384 . S
C1065 C1064 1.377 . S
C1065 C1071 1.390 . S
C1066 H1057 0.930 . S
C1066 C1064 1.384 . S
C1066 C1067 1.372 . S
C1067 C1066 1.372 . S
C1067 C1068 1.400 . S
C1067 C1072 1.490 . S
C1068 H1058 0.930 . S
C1068 C1067 1.400 . S
C1068 C1071 1.386 . S
H1069 C1085 0.930 . S
H1070 C1086 0.931 . S
C1071 H1059 0.929 . S
C1071 C1065 1.390 . S
C1071 C1068 1.386 . S
C1072 C1067 1.490 . S
C1072 C1074 1.395 . S
C1072 C1075 1.403 . S
H1073 C1079 0.930 . S
C1074 H1060 0.930 . S
C1074 C1072 1.395 . S
C1074 C1077 1.403 . S
C1075 C1072 1.403 . S
C1075 C1076 1.524 . S
C1075 C1079 1.400 . S
C1076 H1061 0.960 . S
C1076 H1062 0.960 . S
C1076 H1063 0.960 . S
C1076 C1075 1.524 . S
C1077 C1074 1.403 . S
C1077 C1078 1.392 . S
C1077 C1081 1.495 . S
C1078 C1077 1.392 . S
C1078 C1079 1.385 . S
C1078 C1080 1.478 . S
C1079 H1073 0.930 . S
C1079 C1075 1.400 . S
C1079 C1078 1.385 . S
C1080 C1078 1.478 . S
C1080 C1082 1.381 . S
C1080 C1086 1.383 . S
C1081 C1077 1.495 . S
C1081 H1087 0.959 . S
C1081 H1088 0.961 . S
C1081 H1089 0.960 . S
C1082 C1080 1.381 . S
C1082 C1083 1.394 . S
C1082 H1090 0.930 . S
C1083 C1082 1.394 . S
C1083 C1084 1.383 . S
C1083 H1091 0.929 . S
C1084 C1083 1.383 . S
C1084 C1085 1.377 . S
C1085 H1069 0.930 . S
C1085 C1084 1.377 . S
C1085 C1086 1.379 . S
C1086 H1070 0.931 . S
C1086 C1080 1.383 . S
C1086 C1085 1.379 . S
H1087 C1081 0.959 . S
H1088 C1081 0.961 . S
H1089 C1081 0.960 . S
H1090 C1082 0.930 . S
H1091 C1083 0.929 . S
H1092 C1100 0.929 . S
H1093 C1102 0.930 . S
H1094 C1104 0.930 . S
H1095 C1107 0.929 . S
H1096 C1110 0.930 . S
H1097 C1112 0.960 . S
H1098 C1112 0.960 . S
H1099 C1112 0.960 . S
C1100 H1092 0.929 . S
C1100 C1101 1.377 . S
C1100 C1102 1.384 . S
C1101 C1100 1.377 . S
C1101 C1107 1.390 . S
C1102 H1093 0.930 . S
C1102 C1100 1.384 . S
C1102 C1103 1.372 . S
C1103 C1102 1.372 . S
C1103 C1104 1.400 . S
C1103 C1108 1.490 . S
C1104 H1094 0.930 . S
C1104 C1103 1.400 . S
C1104 C1107 1.386 . S
H1105 C1121 0.930 . S
H1106 C1122 0.932 . S
C1107 H1095 0.929 . S
C1107 C1101 1.390 . S
C1107 C1104 1.386 . S
C1108 C1103 1.490 . S
C1108 C1110 1.395 . S
C1108 C1111 1.403 . S
H1109 C1115 0.930 . S
C1110 H1096 0.930 . S
C1110 C1108 1.395 . S
C1110 C1113 1.403 . S
C1111 C1108 1.403 . S
C1111 C1112 1.524 . S
C1111 C1115 1.400 . S
C1112 H1097 0.960 . S
C1112 H1098 0.960 . S
C1112 H1099 0.960 . S
C1112 C1111 1.524 . S
C1113 C1110 1.403 . S
C1113 C1114 1.392 . S
C1113 C1117 1.495 . S
C1114 C1113 1.392 . S
C1114 C1115 1.385 . S
C1114 C1116 1.478 . S
C1115 H1109 0.930 . S
C1115 C1111 1.400 . S
C1115 C1114 1.385 . S
C1116 C1114 1.478 . S
C1116 C1118 1.381 1_545 S
C1116 C1122 1.383 1_545 S
C1117 C1113 1.495 . S
C1117 H1123 0.959 . S
C1117 H1124 0.961 . S
C1117 H1125 0.960 . S
C1118 C1116 1.381 1_565 S
C1118 C1119 1.394 . S
C1118 H1126 0.930 1_565 S
C1119 C1118 1.394 . S
C1119 C1120 1.383 . S
C1119 H1127 0.929 . S
C1120 C1119 1.383 . S
C1120 C1121 1.377 . S
C1121 H1105 0.930 . S
C1121 C1120 1.377 . S
C1121 C1122 1.379 . S
C1122 H1106 0.932 . S
C1122 C1116 1.383 1_565 S
C1122 C1121 1.379 . S
H1123 C1117 0.959 . S
H1124 C1117 0.961 . S
H1125 C1117 0.960 . S
H1126 C1118 0.930 1_545 S
H1127 C1119 0.929 . S
H1128 C1136 0.929 . S
H1129 C1138 0.930 . S
H1130 C1140 0.930 . S
H1131 C1143 0.929 . S
H1132 C1146 0.930 . S
H1133 C1148 0.960 . S
H1134 C1148 0.960 . S
H1135 C1148 0.960 . S
C1136 H1128 0.929 . S
C1136 C1137 1.377 . S
C1136 C1138 1.384 . S
C1137 C1136 1.377 . S
C1137 C1143 1.390 . S
C1138 H1129 0.930 . S
C1138 C1136 1.384 . S
C1138 C1139 1.372 . S
C1139 C1138 1.372 . S
C1139 C1140 1.400 . S
C1139 C1144 1.490 . S
C1140 H1130 0.930 . S
C1140 C1139 1.400 . S
C1140 C1143 1.386 . S
H1141 C1157 0.930 . S
H1142 C1158 0.931 . S
C1143 H1131 0.929 . S
C1143 C1137 1.390 . S
C1143 C1140 1.386 . S
C1144 C1139 1.490 . S
C1144 C1146 1.395 . S
C1144 C1147 1.403 . S
H1145 C1151 0.930 . S
C1146 H1132 0.930 . S
C1146 C1144 1.395 . S
C1146 C1149 1.403 . S
C1147 C1144 1.403 . S
C1147 C1148 1.524 . S
C1147 C1151 1.400 . S
C1148 H1133 0.960 . S
C1148 H1134 0.960 . S
C1148 H1135 0.960 . S
C1148 C1147 1.524 . S
C1149 C1146 1.403 . S
C1149 C1150 1.392 . S
C1149 C1153 1.495 1_554 S
C1150 C1149 1.392 . S
C1150 C1151 1.385 . S
C1150 C1152 1.478 . S
C1151 H1145 0.930 . S
C1151 C1147 1.400 . S
C1151 C1150 1.385 . S
C1152 C1150 1.478 . S
C1152 C1154 1.381 . S
C1152 C1158 1.383 . S
C1153 C1149 1.495 1_556 S
C1153 H1159 0.959 . S
C1153 H1160 0.961 . S
C1153 H1161 0.957 1_556 S
C1154 C1152 1.381 . S
C1154 C1155 1.394 . S
C1154 H1162 0.930 . S
C1155 C1154 1.394 . S
C1155 C1156 1.383 1_554 S
C1155 H1163 0.929 . S
C1156 C1155 1.383 1_556 S
C1156 C1157 1.377 . S
C1157 H1141 0.930 . S
C1157 C1156 1.377 . S
C1157 C1158 1.379 1_556 S
C1158 H1142 0.931 . S
C1158 C1152 1.383 . S
C1158 C1157 1.379 1_554 S
H1159 C1153 0.959 . S
H1160 C1153 0.961 . S
H1161 C1153 0.957 1_554 S
H1162 C1154 0.930 . S
H1163 C1155 0.929 . S
H1164 C1172 0.929 . S
H1165 C1174 0.930 . S
H1166 C1176 0.930 1_565 S
H1167 C1179 0.929 . S
H1168 C1182 0.930 . S
H1169 C1184 0.960 . S
H1170 C1184 0.960 . S
H1171 C1184 0.960 . S
C1172 H1164 0.929 . S
C1172 C1173 1.377 . S
C1172 C1174 1.384 . S
C1173 C1172 1.377 . S
C1173 C1179 1.390 . S
C1174 H1165 0.930 . S
C1174 C1172 1.384 . S
C1174 C1175 1.372 1_545 S
C1175 C1174 1.372 1_565 S
C1175 C1176 1.400 1_565 S
C1175 C1180 1.490 . S
C1176 H1166 0.930 1_545 S
C1176 C1175 1.400 1_545 S
C1176 C1179 1.386 . S
H1177 C1193 0.930 . S
H1178 C1194 0.931 . S
C1179 H1167 0.929 . S
C1179 C1173 1.390 . S
C1179 C1176 1.386 . S
C1180 C1175 1.490 . S
C1180 C1182 1.395 . S
C1180 C1183 1.403 . S
H1181 C1187 0.930 . S
C1182 H1168 0.930 . S
C1182 C1180 1.395 . S
C1182 C1185 1.403 . S
C1183 C1180 1.403 . S
C1183 C1184 1.524 . S
C1183 C1187 1.400 . S
C1184 H1169 0.960 . S
C1184 H1170 0.960 . S
C1184 H1171 0.960 . S
C1184 C1183 1.524 . S
C1185 C1182 1.403 . S
C1185 C1186 1.392 . S
C1185 C1189 1.495 . S
C1186 C1185 1.392 . S
C1186 C1187 1.385 . S
C1186 C1188 1.478 . S
C1187 H1181 0.930 . S
C1187 C1183 1.400 . S
C1187 C1186 1.385 . S
C1188 C1186 1.478 . S
C1188 C1190 1.381 . S
C1188 C1194 1.383 . S
C1189 C1185 1.495 . S
C1189 H1195 0.959 . S
C1189 H1196 0.961 . S
C1189 H1197 0.960 . S
C1190 C1188 1.381 . S
C1190 C1191 1.394 . S
C1190 H1198 0.930 . S
C1191 C1190 1.394 . S
C1191 C1192 1.383 . S
C1191 H1199 0.929 . S
C1192 C1191 1.383 . S
C1192 C1193 1.377 . S
C1193 H1177 0.930 . S
C1193 C1192 1.377 . S
C1193 C1194 1.379 . S
C1194 H1178 0.931 . S
C1194 C1188 1.383 . S
C1194 C1193 1.379 . S
H1195 C1189 0.959 . S
H1196 C1189 0.961 . S
H1197 C1189 0.960 . S
H1198 C1190 0.930 . S
H1199 C1191 0.929 . S
H1200 C1208 0.929 . S
H1201 C1210 0.930 . S
H1202 C1212 0.930 . S
H1203 C1215 0.924 1_554 S
H1204 C1218 0.930 . S
H1205 C1220 0.960 . S
H1206 C1220 0.960 . S
H1207 C1220 0.960 . S
C1208 H1200 0.929 . S
C1208 C1209 1.377 . S
C1208 C1210 1.384 . S
C1209 C1208 1.377 . S
C1209 C1215 1.390 . S
C1210 H1201 0.930 . S
C1210 C1208 1.384 . S
C1210 C1211 1.372 . S
C1211 C1210 1.372 . S
C1211 C1212 1.400 . S
C1211 C1216 1.490 . S
C1212 H1202 0.930 . S
C1212 C1211 1.400 . S
C1212 C1215 1.386 . S
H1213 C1229 0.930 . S
H1214 C1230 0.931 . S
C1215 H1203 0.924 1_556 S
C1215 C1209 1.390 . S
C1215 C1212 1.386 . S
C1216 C1211 1.490 . S
C1216 C1218 1.395 . S
C1216 C1219 1.403 . S
H1217 C1223 0.930 . S
C1218 H1204 0.930 . S
C1218 C1216 1.395 . S
C1218 C1221 1.403 . S
C1219 C1216 1.403 . S
C1219 C1220 1.524 . S
C1219 C1223 1.400 . S
C1220 H1205 0.960 . S
C1220 H1206 0.960 . S
C1220 H1207 0.960 . S
C1220 C1219 1.524 . S
C1221 C1218 1.403 . S
C1221 C1222 1.392 . S
C1221 C1225 1.495 . S
C1222 C1221 1.392 . S
C1222 C1223 1.385 . S
C1222 C1224 1.478 . S
C1223 H1217 0.930 . S
C1223 C1219 1.400 . S
C1223 C1222 1.385 . S
C1224 C1222 1.478 . S
C1224 C1226 1.381 . S
C1224 C1230 1.383 . S
C1225 C1221 1.495 . S
C1225 H1231 0.959 . S
C1225 H1232 0.961 . S
C1225 H1233 0.960 . S
C1226 C1224 1.381 . S
C1226 C1227 1.394 . S
C1226 H1234 0.930 . S
C1227 C1226 1.394 . S
C1227 C1228 1.383 . S
C1227 H1235 0.929 . S
C1228 C1227 1.383 . S
C1228 C1229 1.377 . S
C1229 H1213 0.930 . S
C1229 C1228 1.377 . S
C1229 C1230 1.379 . S
C1230 H1214 0.931 . S
C1230 C1224 1.383 . S
C1230 C1229 1.379 . S
H1231 C1225 0.959 . S
H1232 C1225 0.961 . S
H1233 C1225 0.960 . S
H1234 C1226 0.930 . S
H1235 C1227 0.929 . S
H1236 C1244 0.929 . S
H1237 C1246 0.930 . S
H1238 C1248 0.930 . S
H1239 C1251 0.929 . S
H1240 C1254 0.930 . S
H1241 C1256 0.960 . S
H1242 C1256 0.960 . S
H1243 C1256 0.960 . S
C1244 H1236 0.929 . S
C1244 C1245 1.377 . S
C1244 C1246 1.384 . S
C1245 C1244 1.377 . S
C1245 C1251 1.390 . S
C1246 H1237 0.930 . S
C1246 C1244 1.384 . S
C1246 C1247 1.372 . S
C1247 C1246 1.372 . S
C1247 C1248 1.400 . S
C1247 C1252 1.490 . S
C1248 H1238 0.930 . S
C1248 C1247 1.400 . S
C1248 C1251 1.386 . S
H1249 C1265 0.930 . S
H1250 C1266 0.931 . S
C1251 H1239 0.929 . S
C1251 C1245 1.390 . S
C1251 C1248 1.386 . S
C1252 C1247 1.490 . S
C1252 C1254 1.395 . S
C1252 C1255 1.403 . S
H1253 C1259 0.930 . S
C1254 H1240 0.930 . S
C1254 C1252 1.395 . S
C1254 C1257 1.403 . S
C1255 C1252 1.403 . S
C1255 C1256 1.524 . S
C1255 C1259 1.400 . S
C1256 H1241 0.960 . S
C1256 H1242 0.960 . S
C1256 H1243 0.960 . S
C1256 C1255 1.524 . S
C1257 C1254 1.403 . S
C1257 C1258 1.392 . S
C1257 C1261 1.495 . S
C1258 C1257 1.392 . S
C1258 C1259 1.385 . S
C1258 C1260 1.478 . S
C1259 H1253 0.930 . S
C1259 C1255 1.400 . S
C1259 C1258 1.385 . S
C1260 C1258 1.478 . S
C1260 C1262 1.381 . S
C1260 C1266 1.383 . S
C1261 C1257 1.495 . S
C1261 H1267 0.959 . S
C1261 H1268 0.961 . S
C1261 H1269 0.960 . S
C1262 C1260 1.381 . S
C1262 C1263 1.394 . S
C1262 H1270 0.930 . S
C1263 C1262 1.394 . S
C1263 C1264 1.383 . S
C1263 H1271 0.929 1_554 S
C1264 C1263 1.383 . S
C1264 C1265 1.377 . S
C1265 H1249 0.930 . S
C1265 C1264 1.377 . S
C1265 C1266 1.379 . S
C1266 H1250 0.931 . S
C1266 C1260 1.383 . S
C1266 C1265 1.379 . S
H1267 C1261 0.959 . S
H1268 C1261 0.961 . S
H1269 C1261 0.960 . S
H1270 C1262 0.930 . S
H1271 C1263 0.929 1_556 S
H1272 C1280 0.929 . S
H1273 C1282 0.930 . S
H1274 C1284 0.930 . S
H1275 C1287 0.929 . S
H1276 C1290 0.930 . S
H1277 C1292 0.960 . S
H1278 C1292 0.960 . S
H1279 C1292 0.957 1_655 S
C1280 H1272 0.929 . S
C1280 C1281 1.377 1_455 S
C1280 C1282 1.384 . S
C1281 C1280 1.377 1_655 S
C1281 C1287 1.390 . S
C1282 H1273 0.930 . S
C1282 C1280 1.384 . S
C1282 C1283 1.372 . S
C1283 C1282 1.372 . S
C1283 C1284 1.400 . S
C1283 C1288 1.490 . S
C1284 H1274 0.930 . S
C1284 C1283 1.400 . S
C1284 C1287 1.386 1_455 S
H1285 C1301 0.930 . S
H1286 C1302 0.931 . S
C1287 H1275 0.929 . S
C1287 C1281 1.390 . S
C1287 C1284 1.386 1_655 S
C1288 C1283 1.490 . S
C1288 C1290 1.395 . S
C1288 C1291 1.403 . S
H1289 C1295 0.930 . S
C1290 H1276 0.930 . S
C1290 C1288 1.395 . S
C1290 C1293 1.403 . S
C1291 C1288 1.403 . S
C1291 C1292 1.524 . S
C1291 C1295 1.400 . S
C1292 H1277 0.960 . S
C1292 H1278 0.960 . S
C1292 H1279 0.957 1_455 S
C1292 C1291 1.524 . S
C1293 C1290 1.403 . S
C1293 C1294 1.392 . S
C1293 C1297 1.495 . S
C1294 C1293 1.392 . S
C1294 C1295 1.385 . S
C1294 C1296 1.478 . S
C1295 H1289 0.930 . S
C1295 C1291 1.400 . S
C1295 C1294 1.385 . S
C1296 C1294 1.478 . S
C1296 C1298 1.381 . S
C1296 C1302 1.383 . S
C1297 C1293 1.495 . S
C1297 H1303 0.959 . S
C1297 H1304 0.961 . S
C1297 H1305 0.960 . S
C1298 C1296 1.381 . S
C1298 C1299 1.394 . S
C1298 H1306 0.930 . S
C1299 C1298 1.394 . S
C1299 C1300 1.383 . S
C1299 H1307 0.929 . S
C1300 C1299 1.383 . S
C1300 C1301 1.377 . S
C1301 H1285 0.930 . S
C1301 C1300 1.377 . S
C1301 C1302 1.379 . S
C1302 H1286 0.931 . S
C1302 C1296 1.383 . S
C1302 C1301 1.379 . S
H1303 C1297 0.959 . S
H1304 C1297 0.961 . S
H1305 C1297 0.960 . S
H1306 C1298 0.930 . S
H1307 C1299 0.929 . S
H1308 C1316 0.929 . S
H1309 C1318 0.930 . S
H1310 C1320 0.930 . S
H1311 C1323 0.929 . S
H1312 C1326 0.930 . S
H1313 C1328 0.960 . S
H1314 C1328 0.960 . S
H1315 C1328 0.960 . S
C1316 H1308 0.929 . S
C1316 C1317 1.377 . S
C1316 C1318 1.384 . S
C1317 C1316 1.377 . S
C1317 C1323 1.390 . S
C1318 H1309 0.930 . S
C1318 C1316 1.384 . S
C1318 C1319 1.372 . S
C1319 C1318 1.372 . S
C1319 C1320 1.400 . S
C1319 C1324 1.490 . S
C1320 H1310 0.930 . S
C1320 C1319 1.400 . S
C1320 C1323 1.386 . S
H1321 C1337 0.930 . S
H1322 C1338 0.931 . S
C1323 H1311 0.929 . S
C1323 C1317 1.390 . S
C1323 C1320 1.386 . S
C1324 C1319 1.490 . S
C1324 C1326 1.395 . S
C1324 C1327 1.403 . S
H1325 C1331 0.930 . S
C1326 H1312 0.930 . S
C1326 C1324 1.395 . S
C1326 C1329 1.403 . S
C1327 C1324 1.403 . S
C1327 C1328 1.524 . S
C1327 C1331 1.400 . S
C1328 H1313 0.960 . S
C1328 H1314 0.960 . S
C1328 H1315 0.960 . S
C1328 C1327 1.524 . S
C1329 C1326 1.403 . S
C1329 C1330 1.392 . S
C1329 C1333 1.495 . S
C1330 C1329 1.392 . S
C1330 C1331 1.385 . S
C1330 C1332 1.478 . S
C1331 H1325 0.930 . S
C1331 C1327 1.400 . S
C1331 C1330 1.385 . S
C1332 C1330 1.478 . S
C1332 C1334 1.381 . S
C1332 C1338 1.383 . S
C1333 C1329 1.495 . S
C1333 H1339 0.959 . S
C1333 H1340 0.961 . S
C1333 H1341 0.960 . S
C1334 C1332 1.381 . S
C1334 C1335 1.394 . S
C1334 H1342 0.930 . S
C1335 C1334 1.394 . S
C1335 C1336 1.383 . S
C1335 H1343 0.929 . S
C1336 C1335 1.383 . S
C1336 C1337 1.377 . S
C1337 H1321 0.930 . S
C1337 C1336 1.377 . S
C1337 C1338 1.379 . S
C1338 H1322 0.931 . S
C1338 C1332 1.383 . S
C1338 C1337 1.379 . S
H1339 C1333 0.959 . S
H1340 C1333 0.961 . S
H1341 C1333 0.960 . S
H1342 C1334 0.930 . S
H1343 C1335 0.929 . S
H1344 C1352 0.929 1_556 S
H1345 C1354 0.930 . S
H1346 C1356 0.930 . S
H1347 C1359 0.929 . S
H1348 C1362 0.930 . S
H1349 C1364 0.960 . S
H1350 C1364 0.960 . S
H1351 C1364 0.960 . S
C1352 H1344 0.929 1_554 S
C1352 C1353 1.377 . S
C1352 C1354 1.384 . S
C1353 C1352 1.377 . S
C1353 C1359 1.390 . S
C1354 H1345 0.930 . S
C1354 C1352 1.384 . S
C1354 C1355 1.372 . S
C1355 C1354 1.372 . S
C1355 C1356 1.400 . S
C1355 C1360 1.490 . S
C1356 H1346 0.930 . S
C1356 C1355 1.400 . S
C1356 C1359 1.386 . S
H1357 C1373 0.930 . S
H1358 C1374 0.931 . S
C1359 H1347 0.929 . S
C1359 C1353 1.390 . S
C1359 C1356 1.386 . S
C1360 C1355 1.490 . S
C1360 C1362 1.395 . S
C1360 C1363 1.403 . S
H1361 C1367 0.930 . S
C1362 H1348 0.930 . S
C1362 C1360 1.395 . S
C1362 C1365 1.403 . S
C1363 C1360 1.403 . S
C1363 C1364 1.524 . S
C1363 C1367 1.400 . S
C1364 H1349 0.960 . S
C1364 H1350 0.960 . S
C1364 H1351 0.960 . S
C1364 C1363 1.524 . S
C1365 C1362 1.403 . S
C1365 C1366 1.392 . S
C1365 C1369 1.495 . S
C1366 C1365 1.392 . S
C1366 C1367 1.385 . S
C1366 C1368 1.478 . S
C1367 H1361 0.930 . S
C1367 C1363 1.400 . S
C1367 C1366 1.385 . S
C1368 C1366 1.478 . S
C1368 C1370 1.381 . S
C1368 C1374 1.383 . S
C1369 C1365 1.495 . S
C1369 H1375 0.959 . S
C1369 H1376 0.961 . S
C1369 H1377 0.960 . S
C1370 C1368 1.381 . S
C1370 C1371 1.394 . S
C1370 H1378 0.930 . S
C1371 C1370 1.394 . S
C1371 C1372 1.383 . S
C1371 H1379 0.929 . S
C1372 C1371 1.383 . S
C1372 C1373 1.377 . S
C1373 H1357 0.930 . S
C1373 C1372 1.377 . S
C1373 C1374 1.379 . S
C1374 H1358 0.931 . S
C1374 C1368 1.383 . S
C1374 C1373 1.379 . S
H1375 C1369 0.959 . S
H1376 C1369 0.961 . S
H1377 C1369 0.960 . S
H1378 C1370 0.930 . S
H1379 C1371 0.929 . S
H1380 C1388 0.929 . S
H1381 C1390 0.930 . S
H1382 C1392 0.930 . S
H1383 C1395 0.929 . S
H1384 C1398 0.930 . S
H1385 C1400 0.960 . S
H1386 C1400 0.960 . S
H1387 C1400 0.960 . S
C1388 H1380 0.929 . S
C1388 C1389 1.377 . S
C1388 C1390 1.384 . S
C1389 C1388 1.377 . S
C1389 C1395 1.390 . S
C1390 H1381 0.930 . S
C1390 C1388 1.384 . S
C1390 C1391 1.372 . S
C1391 C1390 1.372 . S
C1391 C1392 1.400 . S
C1391 C1396 1.490 . S
C1392 H1382 0.930 . S
C1392 C1391 1.400 . S
C1392 C1395 1.386 . S
H1393 C1409 0.930 . S
H1394 C1410 0.931 . S
C1395 H1383 0.929 . S
C1395 C1389 1.390 . S
C1395 C1392 1.386 . S
C1396 C1391 1.490 . S
C1396 C1398 1.395 . S
C1396 C1399 1.403 . S
H1397 C1403 0.930 . S
C1398 H1384 0.930 . S
C1398 C1396 1.395 . S
C1398 C1401 1.403 . S
C1399 C1396 1.403 . S
C1399 C1400 1.524 . S
C1399 C1403 1.400 . S
C1400 H1385 0.960 . S
C1400 H1386 0.960 . S
C1400 H1387 0.960 . S
C1400 C1399 1.524 . S
C1401 C1398 1.403 . S
C1401 C1402 1.392 . S
C1401 C1405 1.495 . S
C1402 C1401 1.392 . S
C1402 C1403 1.385 . S
C1402 C1404 1.478 . S
C1403 H1397 0.930 . S
C1403 C1399 1.400 . S
C1403 C1402 1.385 . S
C1404 C1402 1.478 . S
C1404 C1406 1.381 . S
C1404 C1410 1.383 . S
C1405 C1401 1.495 . S
C1405 H1411 0.959 . S
C1405 H1412 0.961 . S
C1405 H1413 0.960 . S
C1406 C1404 1.381 . S
C1406 C1407 1.394 . S
C1406 H1414 0.930 . S
C1407 C1406 1.394 . S
C1407 C1408 1.383 . S
C1407 H1415 0.929 1_556 S
C1408 C1407 1.383 . S
C1408 C1409 1.377 . S
C1409 H1393 0.930 . S
C1409 C1408 1.377 . S
C1409 C1410 1.379 . S
C1410 H1394 0.931 . S
C1410 C1404 1.383 . S
C1410 C1409 1.379 . S
H1411 C1405 0.959 . S
H1412 C1405 0.961 . S
H1413 C1405 0.960 . S
H1414 C1406 0.930 . S
H1415 C1407 0.929 1_554 S
H1416 C1424 0.929 . S
H1417 C1426 0.930 . S
H1418 C1428 0.930 . S
H1419 C1431 0.929 . S
H1420 C1434 0.930 . S
H1421 C1436 0.960 . S
H1422 C1436 0.960 . S
H1423 C1436 0.951 1_455 S
C1424 H1416 0.929 . S
C1424 C1425 1.377 1_655 S
C1424 C1426 1.384 . S
C1425 C1424 1.377 1_455 S
C1425 C1431 1.390 . S
C1426 H1417 0.930 . S
C1426 C1424 1.384 . S
C1426 C1427 1.372 . S
C1427 C1426 1.372 . S
C1427 C1428 1.400 . S
C1427 C1432 1.490 . S
C1428 H1418 0.930 . S
C1428 C1427 1.400 . S
C1428 C1431 1.386 1_655 S
H1429 C1445 0.930 . S
H1430 C1446 0.931 . S
C1431 H1419 0.929 . S
C1431 C1425 1.390 . S
C1431 C1428 1.386 1_455 S
C1432 C1427 1.490 . S
C1432 C1434 1.395 . S
C1432 C1435 1.403 . S
H1433 C1439 0.930 . S
C1434 H1420 0.930 . S
C1434 C1432 1.395 . S
C1434 C1437 1.403 . S
C1435 C1432 1.403 . S
C1435 C1436 1.524 . S
C1435 C1439 1.400 . S
C1436 H1421 0.960 . S
C1436 H1422 0.960 . S
C1436 H1423 0.951 1_655 S
C1436 C1435 1.524 . S
C1437 C1434 1.403 . S
C1437 C1438 1.392 . S
C1437 C1441 1.495 . S
C1438 C1437 1.392 . S
C1438 C1439 1.385 . S
C1438 C1440 1.478 . S
C1439 H1433 0.930 . S
C1439 C1435 1.400 . S
C1439 C1438 1.385 . S
C1440 C1438 1.478 . S
C1440 C1442 1.381 . S
C1440 C1446 1.383 . S
C1441 C1437 1.495 . S
C1441 H1447 0.959 . S
C1441 H1448 0.961 . S
C1441 H1449 0.960 . S
C1442 C1440 1.381 . S
C1442 C1443 1.394 . S
C1442 H1450 0.930 . S
C1443 C1442 1.394 . S
C1443 C1444 1.383 . S
C1443 H1451 0.929 . S
C1444 C1443 1.383 . S
C1444 C1445 1.377 . S
C1445 H1429 0.930 . S
C1445 C1444 1.377 . S
C1445 C1446 1.379 . S
C1446 H1430 0.931 . S
C1446 C1440 1.383 . S
C1446 C1445 1.379 . S
H1447 C1441 0.959 . S
H1448 C1441 0.961 . S
H1449 C1441 0.960 . S
H1450 C1442 0.930 . S
H1451 C1443 0.929 . S
H1452 C1460 0.929 . S
H1453 C1462 0.930 . S
H1454 C1464 0.930 . S
H1455 C1467 0.929 . S
H1456 C1470 0.930 . S
H1457 C1472 0.960 . S
H1458 C1472 0.960 . S
H1459 C1472 0.960 . S
C1460 H1452 0.929 . S
C1460 C1461 1.377 . S
C1460 C1462 1.384 . S
C1461 C1460 1.377 . S
C1461 C1467 1.390 . S
C1462 H1453 0.930 . S
C1462 C1460 1.384 . S
C1462 C1463 1.372 . S
C1463 C1462 1.372 . S
C1463 C1464 1.400 . S
C1463 C1468 1.490 . S
C1464 H1454 0.930 . S
C1464 C1463 1.400 . S
C1464 C1467 1.386 . S
H1465 C1481 0.930 . S
H1466 C1482 0.931 . S
C1467 H1455 0.929 . S
C1467 C1461 1.390 . S
C1467 C1464 1.386 . S
C1468 C1463 1.490 . S
C1468 C1470 1.395 . S
C1468 C1471 1.403 . S
H1469 C1475 0.930 . S
C1470 H1456 0.930 . S
C1470 C1468 1.395 . S
C1470 C1473 1.403 . S
C1471 C1468 1.403 . S
C1471 C1472 1.524 . S
C1471 C1475 1.400 . S
C1472 H1457 0.960 . S
C1472 H1458 0.960 . S
C1472 H1459 0.960 . S
C1472 C1471 1.524 . S
C1473 C1470 1.403 . S
C1473 C1474 1.392 . S
C1473 C1477 1.495 . S
C1474 C1473 1.392 . S
C1474 C1475 1.385 . S
C1474 C1476 1.478 . S
C1475 H1469 0.930 . S
C1475 C1471 1.400 . S
C1475 C1474 1.385 . S
C1476 C1474 1.478 . S
C1476 C1478 1.381 . S
C1476 C1482 1.383 . S
C1477 C1473 1.495 . S
C1477 H1483 0.959 . S
C1477 H1484 0.961 . S
C1477 H1485 0.960 . S
C1478 C1476 1.381 . S
C1478 C1479 1.394 . S
C1478 H1486 0.930 . S
C1479 C1478 1.394 . S
C1479 C1480 1.383 . S
C1479 H1487 0.929 . S
C1480 C1479 1.383 . S
C1480 C1481 1.377 . S
C1481 H1465 0.930 . S
C1481 C1480 1.377 . S
C1481 C1482 1.379 . S
C1482 H1466 0.931 . S
C1482 C1476 1.383 . S
C1482 C1481 1.379 . S
H1483 C1477 0.959 . S
H1484 C1477 0.961 . S
H1485 C1477 0.960 . S
H1486 C1478 0.930 . S
H1487 C1479 0.929 . S
H1488 C1496 0.929 . S
H1489 C1498 0.930 . S
H1490 C1500 0.930 . S
H1491 C1503 0.929 . S
H1492 C1506 0.930 . S
H1493 C1508 0.960 . S
H1494 C1508 0.960 . S
H1495 C1508 0.960 . S
C1496 H1488 0.929 . S
C1496 C1497 1.377 . S
C1496 C1498 1.384 . S
C1497 C1496 1.377 . S
C1497 C1503 1.390 . S
C1498 H1489 0.930 . S
C1498 C1496 1.384 . S
C1498 C1499 1.372 . S
C1499 C1498 1.372 . S
C1499 C1500 1.400 . S
C1499 C1504 1.490 . S
C1500 H1490 0.930 . S
C1500 C1499 1.400 . S
C1500 C1503 1.386 . S
H1501 C1517 0.930 . S
H1502 C1518 0.931 . S
C1503 H1491 0.929 . S
C1503 C1497 1.390 . S
C1503 C1500 1.386 . S
C1504 C1499 1.490 . S
C1504 C1506 1.395 . S
C1504 C1507 1.403 . S
H1505 C1511 0.930 . S
C1506 H1492 0.930 . S
C1506 C1504 1.395 . S
C1506 C1509 1.403 . S
C1507 C1504 1.403 . S
C1507 C1508 1.524 . S
C1507 C1511 1.400 . S
C1508 H1493 0.960 . S
C1508 H1494 0.960 . S
C1508 H1495 0.960 . S
C1508 C1507 1.524 . S
C1509 C1506 1.403 . S
C1509 C1510 1.392 . S
C1509 C1513 1.495 . S
C1510 C1509 1.392 . S
C1510 C1511 1.385 . S
C1510 C1512 1.478 . S
C1511 H1505 0.930 . S
C1511 C1507 1.400 . S
C1511 C1510 1.385 . S
C1512 C1510 1.478 . S
C1512 C1514 1.381 . S
C1512 C1518 1.383 . S
C1513 C1509 1.495 . S
C1513 H1519 0.959 . S
C1513 H1520 0.961 . S
C1513 H1521 0.960 . S
C1514 C1512 1.381 . S
C1514 C1515 1.394 . S
C1514 H1522 0.930 . S
C1515 C1514 1.394 . S
C1515 C1516 1.383 1_655 S
C1515 H1523 0.929 1_655 S
C1516 C1515 1.383 1_455 S
C1516 C1517 1.377 . S
C1517 H1501 0.930 . S
C1517 C1516 1.377 . S
C1517 C1518 1.379 1_455 S
C1518 H1502 0.931 . S
C1518 C1512 1.383 . S
C1518 C1517 1.379 1_655 S
H1519 C1513 0.959 . S
H1520 C1513 0.961 . S
H1521 C1513 0.960 . S
H1522 C1514 0.930 . S
H1523 C1515 0.929 1_455 S
H1524 C1532 0.929 . S
H1525 C1534 0.930 . S
H1526 C1536 0.930 . S
H1527 C1539 0.929 . S
H1528 C1542 0.930 . S
H1529 C1544 0.960 . S
H1530 C1544 0.960 . S
H1531 C1544 0.960 . S
C1532 H1524 0.929 . S
C1532 C1533 1.377 . S
C1532 C1534 1.384 . S
C1533 C1532 1.377 . S
C1533 C1539 1.390 . S
C1534 H1525 0.930 . S
C1534 C1532 1.384 . S
C1534 C1535 1.372 . S
C1535 C1534 1.372 . S
C1535 C1536 1.400 . S
C1535 C1540 1.490 . S
C1536 H1526 0.930 . S
C1536 C1535 1.400 . S
C1536 C1539 1.386 . S
H1537 C1553 0.930 . S
H1538 C1554 0.931 . S
C1539 H1527 0.929 . S
C1539 C1533 1.390 . S
C1539 C1536 1.386 . S
C1540 C1535 1.490 . S
C1540 C1542 1.395 . S
C1540 C1543 1.403 . S
H1541 C1547 0.930 . S
C1542 H1528 0.930 . S
C1542 C1540 1.395 . S
C1542 C1545 1.403 . S
C1543 C1540 1.403 . S
C1543 C1544 1.524 . S
C1543 C1547 1.400 . S
C1544 H1529 0.960 . S
C1544 H1530 0.960 . S
C1544 H1531 0.960 . S
C1544 C1543 1.524 . S
C1545 C1542 1.403 . S
C1545 C1546 1.392 . S
C1545 C1549 1.495 . S
C1546 C1545 1.392 . S
C1546 C1547 1.385 . S
C1546 C1548 1.478 . S
C1547 H1541 0.930 . S
C1547 C1543 1.400 . S
C1547 C1546 1.385 . S
C1548 C1546 1.478 . S
C1548 C1550 1.381 . S
C1548 C1554 1.383 . S
C1549 C1545 1.495 . S
C1549 H1555 0.959 . S
C1549 H1556 0.961 . S
C1549 H1557 0.960 . S
C1550 C1548 1.381 . S
C1550 C1551 1.394 . S
C1550 H1558 0.930 . S
C1551 C1550 1.394 . S
C1551 C1552 1.383 . S
C1551 H1559 0.929 . S
C1552 C1551 1.383 . S
C1552 C1553 1.377 . S
C1553 H1537 0.930 . S
C1553 C1552 1.377 . S
C1553 C1554 1.379 . S
C1554 H1538 0.931 . S
C1554 C1548 1.383 . S
C1554 C1553 1.379 . S
H1555 C1549 0.959 . S
H1556 C1549 0.961 . S
H1557 C1549 0.960 . S
H1558 C1550 0.930 . S
H1559 C1551 0.929 . S
H1560 C1568 0.929 . S
H1561 C1570 0.930 . S
H1562 C1572 0.930 . S
H1563 C1575 0.929 . S
H1564 C1578 0.930 . S
H1565 C1580 0.960 . S
H1566 C1580 0.960 . S
H1567 C1580 0.960 . S
C1568 H1560 0.929 . S
C1568 C1569 1.377 . S
C1568 C1570 1.384 . S
C1569 C1568 1.377 . S
C1569 C1575 1.390 . S
C1570 H1561 0.930 . S
C1570 C1568 1.384 . S
C1570 C1571 1.372 . S
C1571 C1570 1.372 . S
C1571 C1572 1.400 . S
C1571 C1576 1.490 . S
C1572 H1562 0.930 . S
C1572 C1571 1.400 . S
C1572 C1575 1.386 . S
H1573 C1589 0.930 . S
H1574 C1590 0.931 . S
C1575 H1563 0.929 . S
C1575 C1569 1.390 . S
C1575 C1572 1.386 . S
C1576 C1571 1.490 . S
C1576 C1578 1.395 . S
C1576 C1579 1.403 . S
H1577 C1583 0.930 . S
C1578 H1564 0.930 . S
C1578 C1576 1.395 . S
C1578 C1581 1.403 . S
C1579 C1576 1.403 . S
C1579 C1580 1.524 . S
C1579 C1583 1.400 . S
C1580 H1565 0.960 . S
C1580 H1566 0.960 . S
C1580 H1567 0.960 . S
C1580 C1579 1.524 . S
C1581 C1578 1.403 . S
C1581 C1582 1.392 . S
C1581 C1585 1.495 . S
C1582 C1581 1.392 . S
C1582 C1583 1.385 . S
C1582 C1584 1.478 . S
C1583 H1577 0.930 . S
C1583 C1579 1.400 . S
C1583 C1582 1.385 . S
C1584 C1582 1.478 . S
C1584 C1586 1.381 . S
C1584 C1590 1.383 . S
C1585 C1581 1.495 . S
C1585 H1591 0.959 . S
C1585 H1592 0.961 . S
C1585 H1593 0.960 . S
C1586 C1584 1.381 . S
C1586 C1587 1.394 . S
C1586 H1594 0.930 . S
C1587 C1586 1.394 . S
C1587 C1588 1.383 . S
C1587 H1595 0.929 1_556 S
C1588 C1587 1.383 . S
C1588 C1589 1.377 . S
C1589 H1573 0.930 . S
C1589 C1588 1.377 . S
C1589 C1590 1.379 . S
C1590 H1574 0.931 . S
C1590 C1584 1.383 . S
C1590 C1589 1.379 . S
H1591 C1585 0.959 . S
H1592 C1585 0.961 . S
H1593 C1585 0.960 . S
H1594 C1586 0.930 . S
H1595 C1587 0.929 1_554 S
H1596 C1604 0.929 1_556 S
H1597 C1606 0.930 . S
H1598 C1608 0.930 . S
H1599 C1611 0.929 . S
H1600 C1614 0.930 . S
H1601 C1616 0.960 . S
H1602 C1616 0.960 . S
H1603 C1616 0.960 . S
C1604 H1596 0.929 1_554 S
C1604 C1605 1.377 . S
C1604 C1606 1.384 . S
C1605 C1604 1.377 . S
C1605 C1611 1.390 . S
C1606 H1597 0.930 . S
C1606 C1604 1.384 . S
C1606 C1607 1.372 . S
C1607 C1606 1.372 . S
C1607 C1608 1.400 . S
C1607 C1612 1.490 . S
C1608 H1598 0.930 . S
C1608 C1607 1.400 . S
C1608 C1611 1.386 . S
H1609 C1625 0.930 . S
H1610 C1626 0.931 . S
C1611 H1599 0.929 . S
C1611 C1605 1.390 . S
C1611 C1608 1.386 . S
C1612 C1607 1.490 . S
C1612 C1614 1.395 . S
C1612 C1615 1.403 . S
H1613 C1619 0.930 . S
C1614 H1600 0.930 . S
C1614 C1612 1.395 . S
C1614 C1617 1.403 . S
C1615 C1612 1.403 . S
C1615 C1616 1.524 . S
C1615 C1619 1.400 . S
C1616 H1601 0.960 . S
C1616 H1602 0.960 . S
C1616 H1603 0.960 . S
C1616 C1615 1.524 . S
C1617 C1614 1.403 . S
C1617 C1618 1.392 . S
C1617 C1621 1.495 . S
C1618 C1617 1.392 . S
C1618 C1619 1.385 . S
C1618 C1620 1.478 . S
C1619 H1613 0.930 . S
C1619 C1615 1.400 . S
C1619 C1618 1.385 . S
C1620 C1618 1.478 . S
C1620 C1622 1.381 . S
C1620 C1626 1.383 . S
C1621 C1617 1.495 . S
C1621 H1627 0.959 . S
C1621 H1628 0.961 . S
C1621 H1629 0.960 . S
C1622 C1620 1.381 . S
C1622 C1623 1.394 . S
C1622 H1630 0.930 . S
C1623 C1622 1.394 . S
C1623 C1624 1.383 . S
C1623 H1631 0.929 . S
C1624 C1623 1.383 . S
C1624 C1625 1.377 . S
C1625 H1609 0.930 . S
C1625 C1624 1.377 . S
C1625 C1626 1.379 . S
C1626 H1610 0.931 . S
C1626 C1620 1.383 . S
C1626 C1625 1.379 . S
H1627 C1621 0.959 . S
H1628 C1621 0.961 . S
H1629 C1621 0.960 . S
H1630 C1622 0.930 . S
H1631 C1623 0.929 . S
H1632 C1640 0.929 . S
H1633 C1642 0.930 . S
H1634 C1644 0.930 . S
H1635 C1647 0.929 . S
H1636 C1650 0.930 . S
H1637 C1652 0.960 . S
H1638 C1652 0.960 . S
H1639 C1652 0.960 . S
C1640 H1632 0.929 . S
C1640 C1641 1.377 . S
C1640 C1642 1.384 . S
C1641 C1640 1.377 . S
C1641 C1647 1.390 . S
C1642 H1633 0.930 . S
C1642 C1640 1.384 . S
C1642 C1643 1.372 . S
C1643 C1642 1.372 . S
C1643 C1644 1.400 . S
C1643 C1648 1.490 . S
C1644 H1634 0.930 . S
C1644 C1643 1.400 . S
C1644 C1647 1.386 . S
H1645 C1661 0.930 . S
H1646 C1662 0.931 . S
C1647 H1635 0.929 . S
C1647 C1641 1.390 . S
C1647 C1644 1.386 . S
C1648 C1643 1.490 . S
C1648 C1650 1.395 . S
C1648 C1651 1.403 . S
H1649 C1655 0.930 . S
C1650 H1636 0.930 . S
C1650 C1648 1.395 . S
C1650 C1653 1.403 . S
C1651 C1648 1.403 . S
C1651 C1652 1.524 . S
C1651 C1655 1.400 . S
C1652 H1637 0.960 . S
C1652 H1638 0.960 . S
C1652 H1639 0.960 . S
C1652 C1651 1.524 . S
C1653 C1650 1.403 . S
C1653 C1654 1.392 . S
C1653 C1657 1.495 . S
C1654 C1653 1.392 . S
C1654 C1655 1.385 . S
C1654 C1656 1.478 . S
C1655 H1649 0.930 . S
C1655 C1651 1.400 . S
C1655 C1654 1.385 . S
C1656 C1654 1.478 . S
C1656 C1658 1.381 . S
C1656 C1662 1.383 . S
C1657 C1653 1.495 . S
C1657 H1663 0.959 . S
C1657 H1664 0.961 1_455 S
C1657 H1665 0.960 . S
C1658 C1656 1.381 . S
C1658 C1659 1.394 1_455 S
C1658 H1666 0.930 . S
C1659 C1658 1.394 1_655 S
C1659 C1660 1.383 . S
C1659 H1667 0.929 . S
C1660 C1659 1.383 . S
C1660 C1661 1.377 . S
C1661 H1645 0.930 . S
C1661 C1660 1.377 . S
C1661 C1662 1.379 1_655 S
C1662 H1646 0.931 . S
C1662 C1656 1.383 . S
C1662 C1661 1.379 1_455 S
H1663 C1657 0.959 . S
H1664 C1657 0.961 1_655 S
H1665 C1657 0.960 . S
H1666 C1658 0.930 . S
H1667 C1659 0.929 . S
H1668 C1676 0.929 . S
H1669 C1678 0.930 . S
H1670 C1680 0.930 . S
H1671 C1683 0.929 . S
H1672 C1686 0.930 . S
H1673 C1688 0.960 . S
H1674 C1688 0.960 . S
H1675 C1688 0.960 . S
C1676 H1668 0.929 . S
C1676 C1677 1.377 . S
C1676 C1678 1.384 . S
C1677 C1676 1.377 . S
C1677 C1683 1.390 . S
C1678 H1669 0.930 . S
C1678 C1676 1.384 . S
C1678 C1679 1.372 . S
C1679 C1678 1.372 . S
C1679 C1680 1.400 . S
C1679 C1684 1.490 . S
C1680 H1670 0.930 . S
C1680 C1679 1.400 . S
C1680 C1683 1.386 . S
H1681 C1697 0.930 . S
H1682 C1698 0.931 . S
C1683 H1671 0.929 . S
C1683 C1677 1.390 . S
C1683 C1680 1.386 . S
C1684 C1679 1.490 . S
C1684 C1686 1.395 . S
C1684 C1687 1.403 . S
H1685 C1691 0.930 . S
C1686 H1672 0.930 . S
C1686 C1684 1.395 . S
C1686 C1689 1.403 . S
C1687 C1684 1.403 . S
C1687 C1688 1.524 . S
C1687 C1691 1.400 . S
C1688 H1673 0.960 . S
C1688 H1674 0.960 . S
C1688 H1675 0.960 . S
C1688 C1687 1.524 . S
C1689 C1686 1.403 . S
C1689 C1690 1.392 . S
C1689 C1693 1.495 . S
C1690 C1689 1.392 . S
C1690 C1691 1.385 . S
C1690 C1692 1.478 . S
C1691 H1685 0.930 . S
C1691 C1687 1.400 . S
C1691 C1690 1.385 . S
C1692 C1690 1.478 . S
C1692 C1694 1.381 . S
C1692 C1698 1.383 . S
C1693 C1689 1.495 . S
C1693 H1699 0.959 . S
C1693 H1700 0.961 . S
C1693 H1701 0.960 . S
C1694 C1692 1.381 . S
C1694 C1695 1.394 . S
C1694 H1702 0.930 . S
C1695 C1694 1.394 . S
C1695 C1696 1.383 . S
C1695 H1703 0.929 . S
C1696 C1695 1.383 . S
C1696 C1697 1.377 . S
C1697 H1681 0.930 . S
C1697 C1696 1.377 . S
C1697 C1698 1.379 . S
C1698 H1682 0.931 . S
C1698 C1692 1.383 . S
C1698 C1697 1.379 . S
H1699 C1693 0.959 . S
H1700 C1693 0.961 . S
H1701 C1693 0.960 . S
H1702 C1694 0.930 . S
H1703 C1695 0.929 . S
H1704 C1712 0.929 . S
H1705 C1714 0.930 . S
H1706 C1716 0.930 . S
H1707 C1719 0.929 1_556 S
H1708 C1722 0.930 . S
H1709 C1724 0.960 . S
H1710 C1724 0.960 . S
H1711 C1724 0.960 . S
C1712 H1704 0.929 . S
C1712 C1713 1.377 . S
C1712 C1714 1.384 . S
C1713 C1712 1.377 . S
C1713 C1719 1.390 . S
C1714 H1705 0.930 . S
C1714 C1712 1.384 . S
C1714 C1715 1.372 . S
C1715 C1714 1.372 . S
C1715 C1716 1.400 . S
C1715 C1720 1.490 . S
C1716 H1706 0.930 . S
C1716 C1715 1.400 . S
C1716 C1719 1.386 . S
H1717 C1733 0.930 . S
H1718 C1734 0.931 . S
C1719 H1707 0.929 1_554 S
C1719 C1713 1.390 . S
C1719 C1716 1.386 . S
C1720 C1715 1.490 . S
C1720 C1722 1.395 . S
C1720 C1723 1.403 . S
H1721 C1727 0.930 . S
C1722 H1708 0.930 . S
C1722 C1720 1.395 . S
C1722 C1725 1.403 . S
C1723 C1720 1.403 . S
C1723 C1724 1.524 . S
C1723 C1727 1.400 . S
C1724 H1709 0.960 . S
C1724 H1710 0.960 . S
C1724 H1711 0.960 . S
C1724 C1723 1.524 . S
C1725 C1722 1.403 . S
C1725 C1726 1.392 . S
C1725 C1729 1.495 . S
C1726 C1725 1.392 . S
C1726 C1727 1.385 . S
C1726 C1728 1.478 . S
C1727 H1721 0.930 . S
C1727 C1723 1.400 . S
C1727 C1726 1.385 . S
C1728 C1726 1.478 . S
C1728 C1730 1.381 . S
C1728 C1734 1.383 . S
C1729 C1725 1.495 . S
C1729 H1735 0.959 . S
C1729 H1736 0.961 . S
C1729 H1737 0.960 . S
C1730 C1728 1.381 . S
C1730 C1731 1.394 . S
C1730 H1738 0.930 . S
C1731 C1730 1.394 . S
C1731 C1732 1.383 . S
C1731 H1739 0.929 . S
C1732 C1731 1.383 . S
C1732 C1733 1.377 . S
C1733 H1717 0.930 . S
C1733 C1732 1.377 . S
C1733 C1734 1.379 . S
C1734 H1718 0.931 . S
C1734 C1728 1.383 . S
C1734 C1733 1.379 . S
H1735 C1729 0.959 . S
H1736 C1729 0.961 . S
H1737 C1729 0.960 . S
H1738 C1730 0.930 . S
H1739 C1731 0.929 . S
H1740 C1748 0.949 . S
H1741 C1750 0.930 . S
H1742 C1752 0.930 . S
H1743 C1755 0.929 . S
H1744 C1758 0.930 . S
H1745 C1760 0.960 . S
H1746 C1760 0.960 . S
H1747 C1760 0.960 . S
C1748 H1740 0.949 . S
C1748 C1749 1.373 1_554 S
C1748 C1750 1.369 1_554 S
C1749 C1748 1.373 1_556 S
C1749 C1755 1.390 . S
C1750 H1741 0.930 . S
C1750 C1748 1.369 1_556 S
C1750 C1751 1.372 . S
C1751 C1750 1.372 . S
C1751 C1752 1.400 . S
C1751 C1756 1.490 . S
C1752 H1742 0.930 . S
C1752 C1751 1.400 . S
C1752 C1755 1.386 . S
H1753 C1769 0.930 . S
H1754 C1770 0.931 . S
C1755 H1743 0.929 . S
C1755 C1749 1.390 . S
C1755 C1752 1.386 . S
C1756 C1751 1.490 . S
C1756 C1758 1.395 . S
C1756 C1759 1.403 . S
H1757 C1763 0.930 . S
C1758 H1744 0.930 . S
C1758 C1756 1.395 . S
C1758 C1761 1.403 . S
C1759 C1756 1.403 . S
C1759 C1760 1.524 . S
C1759 C1763 1.400 . S
C1760 H1745 0.960 . S
C1760 H1746 0.960 . S
C1760 H1747 0.960 . S
C1760 C1759 1.524 . S
C1761 C1758 1.403 . S
C1761 C1762 1.392 . S
C1761 C1765 1.495 . S
C1762 C1761 1.392 . S
C1762 C1763 1.385 . S
C1762 C1764 1.478 . S
C1763 H1757 0.930 . S
C1763 C1759 1.400 . S
C1763 C1762 1.385 . S
C1764 C1762 1.478 . S
C1764 C1766 1.381 . S
C1764 C1770 1.383 . S
C1765 C1761 1.495 . S
C1765 H1771 0.959 . S
C1765 H1772 0.961 . S
C1765 H1773 0.960 . S
C1766 C1764 1.381 . S
C1766 C1767 1.394 . S
C1766 H1774 0.930 . S
C1767 C1766 1.394 . S
C1767 C1768 1.383 . S
C1767 H1775 0.929 . S
C1768 C1767 1.383 . S
C1768 C1769 1.377 . S
C1769 H1753 0.930 . S
C1769 C1768 1.377 . S
C1769 C1770 1.379 . S
C1770 H1754 0.931 . S
C1770 C1764 1.383 . S
C1770 C1769 1.379 . S
H1771 C1765 0.959 . S
H1772 C1765 0.961 . S
H1773 C1765 0.960 . S
H1774 C1766 0.930 . S
H1775 C1767 0.929 . S
H1776 C1784 0.929 . S
H1777 C1786 0.930 . S
H1778 C1788 0.930 . S
H1779 C1791 0.929 . S
H1780 C1794 0.930 . S
H1781 C1796 0.960 . S
H1782 C1796 0.960 . S
H1783 C1796 0.960 . S
C1784 H1776 0.929 . S
C1784 C1785 1.377 . S
C1784 C1786 1.384 . S
C1785 C1784 1.377 . S
C1785 C1791 1.390 . S
C1786 H1777 0.930 . S
C1786 C1784 1.384 . S
C1786 C1787 1.372 . S
C1787 C1786 1.372 . S
C1787 C1788 1.400 . S
C1787 C1792 1.490 . S
C1788 H1778 0.930 . S
C1788 C1787 1.400 . S
C1788 C1791 1.386 . S
H1789 C1805 0.930 . S
H1790 C1806 0.931 . S
C1791 H1779 0.929 . S
C1791 C1785 1.390 . S
C1791 C1788 1.386 . S
C1792 C1787 1.490 . S
C1792 C1794 1.395 . S
C1792 C1795 1.403 . S
H1793 C1799 0.930 . S
C1794 H1780 0.930 . S
C1794 C1792 1.395 . S
C1794 C1797 1.403 . S
C1795 C1792 1.403 . S
C1795 C1796 1.524 . S
C1795 C1799 1.400 . S
C1796 H1781 0.960 . S
C1796 H1782 0.960 . S
C1796 H1783 0.960 . S
C1796 C1795 1.524 . S
C1797 C1794 1.403 . S
C1797 C1798 1.392 . S
C1797 C1801 1.495 . S
C1798 C1797 1.392 . S
C1798 C1799 1.385 . S
C1798 C1800 1.478 . S
C1799 H1793 0.930 . S
C1799 C1795 1.400 . S
C1799 C1798 1.385 . S
C1800 C1798 1.478 . S
C1800 C1802 1.381 . S
C1800 C1806 1.383 . S
C1801 C1797 1.495 . S
C1801 H1807 0.959 . S
C1801 H1808 0.961 . S
C1801 H1809 0.960 . S
C1802 C1800 1.381 . S
C1802 C1803 1.394 . S
C1802 H1810 0.930 . S
C1803 C1802 1.394 . S
C1803 C1804 1.383 . S
C1803 H1811 0.929 . S
C1804 C1803 1.383 . S
C1804 C1805 1.377 . S
C1805 H1789 0.930 . S
C1805 C1804 1.377 . S
C1805 C1806 1.379 . S
C1806 H1790 0.931 . S
C1806 C1800 1.383 . S
C1806 C1805 1.379 . S
H1807 C1801 0.959 . S
H1808 C1801 0.961 . S
H1809 C1801 0.960 . S
H1810 C1802 0.930 . S
H1811 C1803 0.929 . S
H1812 C1820 0.929 . S
H1813 C1822 0.930 . S
H1814 C1824 0.930 . S
H1815 C1827 0.929 . S
H1816 C1830 0.930 . S
H1817 C1832 0.960 . S
H1818 C1832 0.960 . S
H1819 C1832 0.960 . S
C1820 H1812 0.929 . S
C1820 C1821 1.377 . S
C1820 C1822 1.384 . S
C1821 C1820 1.377 . S
C1821 C1827 1.390 . S
C1822 H1813 0.930 . S
C1822 C1820 1.384 . S
C1822 C1823 1.372 . S
C1823 C1822 1.372 . S
C1823 C1824 1.400 . S
C1823 C1828 1.490 . S
C1824 H1814 0.930 . S
C1824 C1823 1.400 . S
C1824 C1827 1.386 . S
H1825 C1841 0.930 . S
H1826 C1842 0.931 . S
C1827 H1815 0.929 . S
C1827 C1821 1.390 . S
C1827 C1824 1.386 . S
C1828 C1823 1.490 . S
C1828 C1830 1.395 . S
C1828 C1831 1.403 . S
H1829 C1835 0.930 . S
C1830 H1816 0.930 . S
C1830 C1828 1.395 . S
C1830 C1833 1.403 . S
C1831 C1828 1.403 . S
C1831 C1832 1.524 . S
C1831 C1835 1.400 . S
C1832 H1817 0.960 . S
C1832 H1818 0.960 . S
C1832 H1819 0.960 . S
C1832 C1831 1.524 . S
C1833 C1830 1.403 . S
C1833 C1834 1.392 . S
C1833 C1837 1.495 . S
C1834 C1833 1.392 . S
C1834 C1835 1.385 . S
C1834 C1836 1.478 . S
C1835 H1829 0.930 . S
C1835 C1831 1.400 . S
C1835 C1834 1.385 . S
C1836 C1834 1.478 . S
C1836 C1838 1.381 . S
C1836 C1842 1.383 . S
C1837 C1833 1.495 . S
C1837 H1843 0.959 . S
C1837 H1844 0.961 . S
C1837 H1845 0.960 . S
C1838 C1836 1.381 . S
C1838 C1839 1.394 . S
C1838 H1846 0.930 . S
C1839 C1838 1.394 . S
C1839 C1840 1.383 . S
C1839 H1847 0.929 . S
C1840 C1839 1.383 . S
C1840 C1841 1.377 . S
C1841 H1825 0.930 . S
C1841 C1840 1.377 . S
C1841 C1842 1.379 . S
C1842 H1826 0.931 . S
C1842 C1836 1.383 . S
C1842 C1841 1.379 . S
H1843 C1837 0.959 . S
H1844 C1837 0.961 . S
H1845 C1837 0.960 . S
H1846 C1838 0.930 . S
H1847 C1839 0.929 . S
H1848 C1856 0.929 . S
H1849 C1858 0.930 . S
H1850 C1860 0.930 . S
H1851 C1863 0.929 . S
H1852 C1866 0.930 . S
H1853 C1868 0.960 . S
H1854 C1868 0.960 . S
H1855 C1868 0.960 . S
C1856 H1848 0.929 . S
C1856 C1857 1.377 . S
C1856 C1858 1.384 . S
C1857 C1856 1.377 . S
C1857 C1863 1.390 . S
C1858 H1849 0.930 . S
C1858 C1856 1.384 . S
C1858 C1859 1.372 . S
C1859 C1858 1.372 . S
C1859 C1860 1.400 . S
C1859 C1864 1.490 . S
C1860 H1850 0.930 . S
C1860 C1859 1.400 . S
C1860 C1863 1.386 . S
H1861 C1877 0.930 . S
H1862 C1878 0.931 . S
C1863 H1851 0.929 . S
C1863 C1857 1.390 . S
C1863 C1860 1.386 . S
C1864 C1859 1.490 . S
C1864 C1866 1.395 . S
C1864 C1867 1.403 . S
H1865 C1871 0.930 . S
C1866 H1852 0.930 . S
C1866 C1864 1.395 . S
C1866 C1869 1.403 . S
C1867 C1864 1.403 . S
C1867 C1868 1.524 . S
C1867 C1871 1.400 . S
C1868 H1853 0.960 . S
C1868 H1854 0.960 . S
C1868 H1855 0.960 . S
C1868 C1867 1.524 . S
C1869 C1866 1.403 . S
C1869 C1870 1.392 . S
C1869 C1873 1.495 . S
C1870 C1869 1.392 . S
C1870 C1871 1.385 . S
C1870 C1872 1.478 . S
C1871 H1865 0.930 . S
C1871 C1867 1.400 . S
C1871 C1870 1.385 . S
C1872 C1870 1.478 . S
C1872 C1874 1.381 . S
C1872 C1878 1.383 . S
C1873 C1869 1.495 . S
C1873 H1879 0.959 . S
C1873 H1880 0.961 . S
C1873 H1881 0.960 . S
C1874 C1872 1.381 . S
C1874 C1875 1.394 . S
C1874 H1882 0.930 . S
C1875 C1874 1.394 . S
C1875 C1876 1.383 . S
C1875 H1883 0.929 . S
C1876 C1875 1.383 . S
C1876 C1877 1.377 . S
C1877 H1861 0.930 . S
C1877 C1876 1.377 . S
C1877 C1878 1.379 . S
C1878 H1862 0.931 . S
C1878 C1872 1.383 . S
C1878 C1877 1.379 . S
H1879 C1873 0.959 . S
H1880 C1873 0.961 . S
H1881 C1873 0.960 . S
H1882 C1874 0.930 . S
H1883 C1875 0.929 . S
H1884 C1892 0.929 . S
H1885 C1894 0.930 . S
H1886 C1896 0.930 . S
H1887 C1899 0.929 . S
H1888 C1902 0.930 . S
H1889 C1904 0.960 . S
H1890 C1904 0.960 . S
H1891 C1904 0.960 . S
C1892 H1884 0.929 . S
C1892 C1893 1.377 . S
C1892 C1894 1.384 . S
C1893 C1892 1.377 . S
C1893 C1899 1.390 . S
C1894 H1885 0.930 . S
C1894 C1892 1.384 . S
C1894 C1895 1.372 . S
C1895 C1894 1.372 . S
C1895 C1896 1.400 . S
C1895 C1900 1.490 . S
C1896 H1886 0.930 . S
C1896 C1895 1.400 . S
C1896 C1899 1.386 . S
H1897 C1913 0.930 . S
H1898 C1914 0.931 . S
C1899 H1887 0.929 . S
C1899 C1893 1.390 . S
C1899 C1896 1.386 . S
C1900 C1895 1.490 . S
C1900 C1902 1.395 1_455 S
C1900 C1903 1.403 1_554 S
H1901 C1907 0.930 . S
C1902 H1888 0.930 . S
C1902 C1900 1.395 1_655 S
C1902 C1905 1.403 . S
C1903 C1900 1.403 1_556 S
C1903 C1904 1.524 . S
C1903 C1907 1.400 . S
C1904 H1889 0.960 . S
C1904 H1890 0.960 . S
C1904 H1891 0.960 . S
C1904 C1903 1.524 . S
C1905 C1902 1.403 . S
C1905 C1906 1.392 1_554 S
C1905 C1909 1.495 . S
C1906 C1905 1.392 1_556 S
C1906 C1907 1.385 1_655 S
C1906 C1908 1.478 . S
C1907 H1901 0.930 . S
C1907 C1903 1.400 . S
C1907 C1906 1.385 1_455 S
C1908 C1906 1.478 . S
C1908 C1910 1.381 . S
C1908 C1914 1.383 . S
C1909 C1905 1.495 . S
C1909 H1915 0.959 . S
C1909 H1916 0.961 . S
C1909 H1917 0.960 . S
C1910 C1908 1.381 . S
C1910 C1911 1.394 . S
C1910 H1918 0.930 . S
C1911 C1910 1.394 . S
C1911 C1912 1.383 . S
C1911 H1919 0.929 . S
C1912 C1911 1.383 . S
C1912 C1913 1.377 . S
C1913 H1897 0.930 . S
C1913 C1912 1.377 . S
C1913 C1914 1.379 . S
C1914 H1898 0.931 . S
C1914 C1908 1.383 . S
C1914 C1913 1.379 . S
H1915 C1909 0.959 . S
H1916 C1909 0.961 . S
H1917 C1909 0.960 . S
H1918 C1910 0.930 . S
H1919 C1911 0.929 . S
H1920 C1928 0.929 . S
H1921 C1930 0.930 . S
H1922 C1932 0.930 . S
H1923 C1935 0.929 . S
H1924 C1938 0.930 . S
H1925 C1940 0.960 . S
H1926 C1940 0.960 . S
H1927 C1940 0.960 . S
C1928 H1920 0.929 . S
C1928 C1929 1.377 . S
C1928 C1930 1.384 . S
C1929 C1928 1.377 . S
C1929 C1935 1.390 . S
C1930 H1921 0.930 . S
C1930 C1928 1.384 . S
C1930 C1931 1.372 . S
C1931 C1930 1.372 . S
C1931 C1932 1.400 . S
C1931 C1936 1.490 . S
C1932 H1922 0.930 . S
C1932 C1931 1.400 . S
C1932 C1935 1.386 . S
H1933 C1949 0.930 . S
H1934 C1950 0.931 . S
C1935 H1923 0.929 . S
C1935 C1929 1.390 . S
C1935 C1932 1.386 . S
C1936 C1931 1.490 . S
C1936 C1938 1.395 . S
C1936 C1939 1.403 . S
H1937 C1943 0.930 . S
C1938 H1924 0.930 . S
C1938 C1936 1.395 . S
C1938 C1941 1.403 . S
C1939 C1936 1.403 . S
C1939 C1940 1.524 . S
C1939 C1943 1.400 . S
C1940 H1925 0.960 . S
C1940 H1926 0.960 . S
C1940 H1927 0.960 . S
C1940 C1939 1.524 . S
C1941 C1938 1.403 . S
C1941 C1942 1.392 . S
C1941 C1945 1.495 . S
C1942 C1941 1.392 . S
C1942 C1943 1.385 . S
C1942 C1944 1.478 . S
C1943 H1937 0.930 . S
C1943 C1939 1.400 . S
C1943 C1942 1.385 . S
C1944 C1942 1.478 . S
C1944 C1946 1.381 . S
C1944 C1950 1.383 . S
C1945 C1941 1.495 . S
C1945 H1951 0.959 . S
C1945 H1952 0.961 . S
C1945 H1953 0.960 . S
C1946 C1944 1.381 . S
C1946 C1947 1.394 . S
C1946 H1954 0.930 . S
C1947 C1946 1.394 . S
C1947 C1948 1.383 . S
C1947 H1955 0.929 . S
C1948 C1947 1.383 . S
C1948 C1949 1.377 . S
C1949 H1933 0.930 . S
C1949 C1948 1.377 . S
C1949 C1950 1.379 . S
C1950 H1934 0.931 . S
C1950 C1944 1.383 . S
C1950 C1949 1.379 . S
H1951 C1945 0.959 . S
H1952 C1945 0.961 . S
H1953 C1945 0.960 . S
H1954 C1946 0.930 . S
H1955 C1947 0.929 . S
H1956 C1964 0.929 . S
H1957 C1966 0.930 . S
H1958 C1968 0.930 . S
H1959 C1971 0.929 . S
H1960 C1974 0.930 . S
H1961 C1976 0.960 . S
H1962 C1976 0.960 . S
H1963 C1976 0.960 . S
C1964 H1956 0.929 . S
C1964 C1965 1.377 . S
C1964 C1966 1.384 . S
C1965 C1964 1.377 . S
C1965 C1971 1.390 . S
C1966 H1957 0.930 . S
C1966 C1964 1.384 . S
C1966 C1967 1.372 . S
C1967 C1966 1.372 . S
C1967 C1968 1.400 . S
C1967 C1972 1.490 . S
C1968 H1958 0.930 . S
C1968 C1967 1.400 . S
C1968 C1971 1.386 . S
H1969 C1985 0.930 . S
H1970 C1986 0.931 . S
C1971 H1959 0.929 . S
C1971 C1965 1.390 . S
C1971 C1968 1.386 . S
C1972 C1967 1.490 . S
C1972 C1974 1.395 . S
C1972 C1975 1.403 . S
H1973 C1979 0.930 . S
C1974 H1960 0.930 . S
C1974 C1972 1.395 . S
C1974 C1977 1.403 . S
C1975 C1972 1.403 . S
C1975 C1976 1.524 . S
C1975 C1979 1.400 . S
C1976 H1961 0.960 . S
C1976 H1962 0.960 . S
C1976 H1963 0.960 . S
C1976 C1975 1.524 . S
C1977 C1974 1.403 . S
C1977 C1978 1.392 . S
C1977 C1981 1.495 . S
C1978 C1977 1.392 . S
C1978 C1979 1.385 . S
C1978 C1980 1.478 . S
C1979 H1973 0.930 . S
C1979 C1975 1.400 . S
C1979 C1978 1.385 . S
C1980 C1978 1.478 . S
C1980 C1982 1.381 . S
C1980 C1986 1.383 . S
C1981 C1977 1.495 . S
C1981 H1987 0.959 . S
C1981 H1988 0.961 . S
C1981 H1989 0.960 . S
C1982 C1980 1.381 . S
C1982 C1983 1.394 . S
C1982 H1990 0.930 . S
C1983 C1982 1.394 . S
C1983 C1984 1.383 . S
C1983 H1991 0.929 . S
C1984 C1983 1.383 . S
C1984 C1985 1.377 . S
C1985 H1969 0.930 . S
C1985 C1984 1.377 . S
C1985 C1986 1.379 . S
C1986 H1970 0.931 . S
C1986 C1980 1.383 . S
C1986 C1985 1.379 . S
H1987 C1981 0.959 . S
H1988 C1981 0.961 . S
H1989 C1981 0.960 . S
H1990 C1982 0.930 . S
H1991 C1983 0.929 . S
H1992 C2000 0.929 . S
H1993 C2002 0.930 1_655 S
H1994 C2004 0.930 . S
H1995 C2007 0.929 . S
H1996 C2010 0.930 . S
H1997 C2012 0.960 . S
H1998 C2012 0.960 . S
H1999 C2012 0.960 . S
C2000 H1992 0.929 . S
C2000 C2001 1.377 . S
C2000 C2002 1.384 . S
C2001 C2000 1.377 . S
C2001 C2007 1.390 . S
C2002 H1993 0.930 1_455 S
C2002 C2000 1.384 . S
C2002 C2003 1.372 . S
C2003 C2002 1.372 . S
C2003 C2004 1.400 . S
C2003 C2008 1.490 . S
C2004 H1994 0.930 . S
C2004 C2003 1.400 . S
C2004 C2007 1.386 . S
H2005 C2021 0.930 . S
H2006 C2022 0.931 1_455 S
C2007 H1995 0.929 . S
C2007 C2001 1.390 . S
C2007 C2004 1.386 . S
C2008 C2003 1.490 . S
C2008 C2010 1.395 1_455 S
C2008 C2011 1.403 1_556 S
H2009 C2015 0.930 . S
C2010 H1996 0.930 . S
C2010 C2008 1.395 1_655 S
C2010 C2013 1.403 1_545 S
C2011 C2008 1.403 1_554 S
C2011 C2012 1.524 . S
C2011 C2015 1.400 1_545 S
C2012 H1997 0.960 . S
C2012 H1998 0.960 . S
C2012 H1999 0.960 . S
C2012 C2011 1.524 . S
C2013 C2010 1.403 1_565 S
C2013 C2014 1.392 1_556 S
C2013 C2017 1.495 . S
C2014 C2013 1.392 1_554 S
C2014 C2015 1.385 1_655 S
C2014 C2016 1.478 . S
C2015 H2009 0.930 . S
C2015 C2011 1.400 1_565 S
C2015 C2014 1.385 1_455 S
C2016 C2014 1.478 . S
C2016 C2018 1.381 . S
C2016 C2022 1.383 . S
C2017 C2013 1.495 . S
C2017 H2023 0.959 . S
C2017 H2024 0.961 . S
C2017 H2025 0.960 . S
C2018 C2016 1.381 . S
C2018 C2019 1.394 . S
C2018 H2026 0.930 . S
C2019 C2018 1.394 . S
C2019 C2020 1.383 . S
C2019 H2027 0.929 . S
C2020 C2019 1.383 . S
C2020 C2021 1.377 . S
C2021 H2005 0.930 . S
C2021 C2020 1.377 . S
C2021 C2022 1.379 . S
C2022 H2006 0.931 1_655 S
C2022 C2016 1.383 . S
C2022 C2021 1.379 . S
H2023 C2017 0.959 . S
H2024 C2017 0.961 . S
H2025 C2017 0.960 . S
H2026 C2018 0.930 . S
H2027 C2019 0.929 . S
H2028 C2036 0.929 . S
H2029 C2038 0.930 . S
H2030 C2040 0.930 . S
H2031 C2043 0.929 . S
H2032 C2046 0.930 . S
H2033 C2048 0.960 . S
H2034 C2048 0.960 . S
H2035 C2048 0.960 . S
C2036 H2028 0.929 . S
C2036 C2037 1.377 . S
C2036 C2038 1.384 . S
C2037 C2036 1.377 . S
C2037 C2043 1.390 . S
C2038 H2029 0.930 . S
C2038 C2036 1.384 . S
C2038 C2039 1.372 . S
C2039 C2038 1.372 . S
C2039 C2040 1.400 . S
C2039 C2044 1.490 . S
C2040 H2030 0.930 . S
C2040 C2039 1.400 . S
C2040 C2043 1.386 . S
H2041 C2057 0.930 . S
H2042 C2058 0.931 . S
C2043 H2031 0.929 . S
C2043 C2037 1.390 . S
C2043 C2040 1.386 . S
C2044 C2039 1.490 . S
C2044 C2046 1.395 1_545 S
C2044 C2047 1.403 . S
H2045 C2051 0.931 . S
C2046 H2032 0.930 . S
C2046 C2044 1.395 1_565 S
C2046 C2049 1.403 . S
C2047 C2044 1.403 . S
C2047 C2048 1.524 . S
C2047 C2051 1.412 . S
C2048 H2033 0.960 . S
C2048 H2034 0.960 . S
C2048 H2035 0.960 . S
C2048 C2047 1.524 . S
C2049 C2046 1.403 . S
C2049 C2050 1.392 . S
C2049 C2053 1.495 . S
C2050 C2049 1.392 . S
C2050 C2051 1.372 1_565 S
C2050 C2052 1.478 . S
C2051 H2045 0.931 . S
C2051 C2047 1.412 . S
C2051 C2050 1.372 1_545 S
C2052 C2050 1.478 . S
C2052 C2054 1.381 . S
C2052 C2058 1.383 . S
C2053 C2049 1.495 . S
C2053 H2059 0.959 . S
C2053 H2060 0.961 . S
C2053 H2061 0.960 . S
C2054 C2052 1.381 . S
C2054 C2055 1.394 . S
C2054 H2062 0.930 . S
C2055 C2054 1.394 . S
C2055 C2056 1.383 . S
C2055 H2063 0.929 . S
C2056 C2055 1.383 . S
C2056 C2057 1.377 . S
C2057 H2041 0.930 . S
C2057 C2056 1.377 . S
C2057 C2058 1.379 . S
C2058 H2042 0.931 . S
C2058 C2052 1.383 . S
C2058 C2057 1.379 . S
H2059 C2053 0.959 . S
H2060 C2053 0.961 . S
H2061 C2053 0.960 . S
H2062 C2054 0.930 . S
H2063 C2055 0.929 . S
C345 C16 1.058 . S
C364 C213 1.037 . S
C381 C37 1.067 . S
C400 C247 1.039 . S
C417 C45 1.066 . S
C436 C184 1.014 . S
C453 C79 1.067 . S
C472 C192 1.014 . S
C489 C87 1.050 . S
C508 C297 1.025 . S
C525 C108 1.052 . S
C544 C318 1.040 . S
C561 C129 1.051 . S
C580 C255 1.028 . S
C597 C163 1.050 . S
C616 C276 1.019 . S
C633 C193 1.410 . S
C652 C20 1.312 . S
C669 C214 1.417 . S
C688 C41 1.345 . S
C705 C238 1.413 . S
C724 C61 1.398 . S
C741 C175 1.406 . S
C760 C83 1.307 . S
C777 C103 1.362 . S
C796 C277 1.444 . S
C813 C298 1.418 . S
C832 C124 1.381 . S
C849 C319 1.418 . S
C868 C145 1.364 . S
C885 C256 1.418 . S
C904 C167 1.364 . S
C921 C28 1.402 . S
C940 C188 1.341 . S
C957 C208 1.362 . S
C976 C46 1.443 . S
C993 C229 1.352 . S
C1012 C70 1.433 . S
C1029 C251 1.354 . S
C1048 C7 1.370 . S
C1065 C271 1.357 . S
C1084 C109 1.380 . S
C1101 C130 1.412 . S
C1120 C292 1.396 . S
C1137 C154 1.418 . S
C1156 C313 1.386 . S
C1173 C334 1.365 . S
C1192 C88 1.435 . S
C1209 C3 0.760 . S
C1228 C322 0.825 . S
C1245 C24 0.732 . S
C1264 C91 0.730 . S
C1281 C280 0.746 . S
C1300 C58 0.715 . S
C1317 C133 0.760 . S
C1336 C66 0.808 . S
C1353 C100 0.753 . S
C1372 C235 0.668 . S
C1389 C121 0.738 . S
C1408 C4 0.821 . S
C1425 C196 0.730 . S
C1444 C142 0.696 . S
C1461 C49 0.759 . S
C1480 C150 0.702 . S
C1497 C171 0.762 . S
C1516 C151 0.814 . S
C1533 C205 0.751 . S
C1552 C259 0.811 . S
C1569 C112 0.727 . S
C1588 C226 0.685 . S
C1605 C301 0.760 . S
C1624 C234 0.827 . S
C1641 C268 0.750 . S
C1660 C67 0.663 . S
C1677 C289 0.737 . S
C1696 C172 0.666 . S
C1713 C310 0.730 . S
C1732 C25 0.692 . S
C1749 C217 0.756 . S
C1768 C331 0.682 . S
C1785 C19 1.337 . S
C1804 C272 1.353 . S
C1821 C40 1.329 . S
C1840 C125 1.289 . S
C1857 C62 1.326 . S
C1876 C314 1.356 . S
C1893 C166 1.330 . S
C1912 C82 1.293 . S
C1929 C104 1.324 . S
C1948 C187 1.285 . S
C1965 C230 1.326 . S
C1984 C146 1.285 . S
C2001 C209 1.321 . S
C2020 C293 1.297 . S
C2037 C335 1.320 . S
C2056 C250 1.311 . S
