# Generated by pormake.
# Topology sma, (6)-cn, num edge types: 1
# Building blocks:
#     Node 0, Type 0, BuildingBlock: BETDIP_clean_sbu_0, # of connection points: 6
#     Node 1, Type 0, BuildingBlock: BETDIP_clean_sbu_0, # of connection points: 6
#     Node 2, Type 0, BuildingBlock: BETDIP_clean_sbu_0, # of connection points: 6
#     Edge 3, Type (0, 0), BuildingBlock: TEMPAE_clean_linker_10, # of connection points: 2
#     Edge 4, Type (0, 0), BuildingBlock: TEMPAE_clean_linker_10, # of connection points: 2
#     Edge 5, Type (0, 0), BuildingBlock: TEMPAE_clean_linker_10, # of connection points: 2
#     Edge 6, Type (0, 0), BuildingBlock: TEMPAE_clean_linker_10, # of connection points: 2
#     Edge 7, Type (0, 0), BuildingBlock: TEMPAE_clean_linker_10, # of connection points: 2
#     Edge 8, Type (0, 0), BuildingBlock: TEMPAE_clean_linker_10, # of connection points: 2
#     Edge 9, Type (0, 0), BuildingBlock: TEMPAE_clean_linker_10, # of connection points: 2
#     Edge 10, Type (0, 0), BuildingBlock: TEMPAE_clean_linker_10, # of connection points: 2
#     Edge 11, Type (0, 0), BuildingBlock: TEMPAE_clean_linker_10, # of connection points: 2
# Relax obj value: 0.073
# Max RMSD: 0.174
# Mean RMSD: 0.174
data_MOF--net-sma--node1-BETDIP_clean_sbu_0--edge1-TEMPAE_clean_linker_10
_symmetry_space_group_name_H-M    P1
_symmetry_Int_Tables_number       1
_symmetry_cell_setting            triclinic
loop_
_symmetry_equiv_pos_as_xyz
'x, y, z'
_cell_length_a     39.618627
_cell_length_b     39.762796
_cell_length_c     13.908259
_cell_angle_alpha  89.402242
_cell_angle_beta   90.272828
_cell_angle_gamma 120.21924
loop_
_atom_site_label
_atom_site_type_symbol
_atom_site_fract_x
_atom_site_fract_y
_atom_site_fract_z
_atom_type_partial_charge
Tb0 Tb 0.08086 0.58092 0.11424 0.0
Tb1 Tb 1.02736 0.49504 0.05817 0.0
C2 C 0.11567 0.64424 0.20303 0.0
C3 C 0.15528 0.67759 0.2185 0.0
C4 C 0.18887 0.67468 0.20612 0.0
C5 C 0.22598 0.70673 0.2249 0.0
C6 C 0.2301 0.74219 0.25647 0.0
C7 C 0.19624 0.74489 0.26729 0.0
C8 C 0.1593 0.71294 0.2486 0.0
C9 C 0.08727 0.56505 0.93524 0.0
C10 C 0.11638 0.52613 0.07915 0.0
C11 C 0.97226 0.42947 0.00813 0.0
C12 C 0.94936 0.38986 0.04911 0.0
C13 C 0.91544 0.36268 0.0012 0.0
C14 C 0.88753 0.32872 0.04821 0.0
C15 C 0.89292 0.32114 0.14457 0.0
C16 C 0.92824 0.34739 0.19036 0.0
C17 C 0.95611 0.38149 0.14321 0.0
C18 C 1.04348 0.50952 0.24161 0.0
C19 C 0.99561 0.55424 0.04051 0.0
O20 O 0.10814 0.61068 0.24032 0.0
O21 O 0.10084 0.64082 0.11669 0.0
O22 O 1.05695 0.54969 -0.01432 0.0
O23 O 0.11525 0.59383 -0.01849 0.0
O24 O 0.11807 0.55477 0.13193 0.0
O25 O 0.08446 0.50171 0.03046 0.0
O26 O 1.00879 0.44262 -0.01714 0.0
O27 O 0.96776 0.45538 0.05437 0.0
O28 O 1.03707 0.52954 0.18257 0.0
O29 O 1.03859 0.47862 0.20017 0.0
O30 O 0.9946 0.52255 0.00824 0.0
O31 O 1.02531 0.58002 0.09294 0.0
H32 H 0.18638 0.64759 0.18292 0.0
H33 H 0.25136 0.7035 0.21647 0.0
H34 H 0.19825 0.77184 0.2897 0.0
H35 H 0.13374 0.71581 0.25824 0.0
H36 H 0.90927 0.36891 0.92929 0.0
H37 H 0.86063 0.30968 0.01068 0.0
H38 H 0.93376 0.3423 0.26388 0.0
H39 H 0.98187 0.40229 0.18207 0.0
Tb40 Tb 0.57966 1.02071 0.46565 0.0
Tb41 Tb 0.54703 0.07386 0.40206 0.0
C42 C 0.60627 0.98589 0.5645 0.0
C43 C 0.59579 0.94529 0.58815 0.0
C44 C 0.59029 0.93279 0.68457 0.0
C45 C 0.5831 0.89547 0.70916 0.0
C46 C 0.58144 0.86979 0.63783 0.0
C47 C 0.58626 0.8822 0.54109 0.0
C48 C 0.59327 0.91941 0.51653 0.0
C49 C 0.57006 1.02331 0.28198 0.0
C50 C 0.49231 0.98099 0.40184 0.0
C51 C 0.51524 0.11146 0.34455 0.0
C52 C 0.5188 0.14847 0.37649 0.0
C53 C 0.48746 0.1551 0.36407 0.0
C54 C 0.48908 0.18842 0.40205 0.0
C55 C 0.5221 0.21583 0.45366 0.0
C56 C 0.55371 0.20925 0.46459 0.0
C57 C 0.55202 0.17591 0.42674 0.0
C58 C 0.55846 0.06904 0.58509 0.0
C59 C 0.63768 0.11221 0.42249 0.0
O60 O 0.58383 0.9982 0.59994 0.0
O61 O 0.61705 0.99794 0.47584 0.0
O62 O 0.57971 0.05074 0.3395 0.0
O63 O 0.5704 0.99418 0.32431 0.0
O64 O 0.51798 0.97728 0.45586 0.0
O65 O 0.50008 1.015 0.36359 0.0
O66 O 0.54595 0.11361 0.30297 0.0
O67 O 0.49939 0.083 0.4076 0.0
O68 O 0.5455 0.04221 0.52576 0.0
O69 O 0.56432 0.10081 0.54427 0.0
O70 O 0.60867 0.11463 0.38171 0.0
O71 O 0.63174 0.08015 0.46902 0.0
H72 H 0.59211 0.95213 0.74123 0.0
H73 H 0.57897 0.88682 0.78422 0.0
H74 H 0.58576 0.86357 0.4842 0.0
H75 H 0.59745 0.92808 0.44146 0.0
H76 H 0.46133 0.13404 0.32672 0.0
H77 H 0.464 0.19216 0.3931 0.0
H78 H 0.57986 0.2299 0.50248 0.0
H79 H 0.57646 0.17127 0.43803 0.0
Tb80 Tb 0.51832 0.51843 0.79207 0.0
Tb81 Tb 0.60338 0.55767 0.72422 0.0
C82 C 0.45954 0.49714 0.89847 0.0
C83 C 0.42871 0.50677 0.91876 0.0
C84 C 0.41738 0.50653 0.01429 0.0
C85 C 0.38562 0.51149 0.03536 0.0
C86 C 0.36424 0.51661 0.96117 0.0
C87 C 0.37651 0.51806 0.86548 0.0
C88 C 0.4084 0.51326 0.84451 0.0
C89 C 0.52641 0.52618 0.60577 0.0
C90 C 0.56764 0.61127 0.75418 0.0
C91 C 0.6703 0.57887 0.65686 0.0
C92 C 0.70627 0.58259 0.69973 0.0
C93 C 0.73251 0.57775 0.64242 0.0
C94 C 0.76565 0.57921 0.68327 0.0
C95 C 0.77321 0.58548 0.78256 0.0
C96 C 0.74697 0.59077 0.83947 0.0
C97 C 0.71387 0.58925 0.79858 0.0
C98 C 0.59133 0.54677 0.91043 0.0
C99 C 0.5492 0.46589 0.71355 0.0
O100 O 0.49527 0.52234 0.92504 0.0
O101 O 0.45837 0.48196 0.81451 0.0
O102 O 0.54984 0.54889 0.66703 0.0
O103 O 0.49397 0.50121 0.64726 0.0
O104 O 0.53823 0.58154 0.80075 0.0
O105 O 0.59302 0.60617 0.70339 0.0
O106 O 0.64074 0.54343 0.65063 0.0
O107 O 0.65952 0.60302 0.68747 0.0
O108 O 0.57114 0.52408 0.8457 0.0
O109 O 0.62101 0.5765 0.87267 0.0
O110 O 0.57781 0.49787 0.67336 0.0
O111 O 0.52562 0.46762 0.77838 0.0
H112 H 0.4326 0.50161 0.07276 0.0
H113 H 0.37762 0.51095 0.10993 0.0
H114 H 0.36066 0.52159 0.80632 0.0
H115 H 0.41649 0.51361 0.77006 0.0
H116 H 0.72706 0.57225 0.56618 0.0
H117 H 0.78482 0.57444 0.63736 0.0
H118 H 0.75202 0.59613 0.91581 0.0
H119 H 0.69407 0.593 0.84455 0.0
C120 C 0.18639 0.54818 0.12005 0.0
C121 C 0.15231 0.52334 0.06861 0.0
C122 C 0.22123 0.54752 0.10612 0.0
C123 C 0.2222 0.5215 0.03887 0.0
C124 C 0.18779 0.49601 -0.01232 0.0
C125 C 0.15334 0.49718 0.00325 0.0
C126 C 0.25715 0.57505 0.16259 0.0
C127 C 0.18752 0.46788 0.91515 0.0
C128 C 0.31993 0.54416 0.93098 0.0
C129 C 0.32852 0.51895 -0.01679 0.0
C130 C 0.28568 0.54551 0.94884 0.0
C131 C 0.25928 0.5212 0.02104 0.0
C132 C 0.26798 0.49609 0.07488 0.0
C133 C 0.30231 0.49517 0.05518 0.0
C134 C 0.27757 0.57274 0.88976 0.0
C135 C 0.24071 0.46971 0.15252 0.0
H136 H 0.18607 0.56854 0.17071 0.0
H137 H 0.12734 0.47796 -0.03732 0.0
H138 H 0.26811 0.55841 0.20364 0.0
H139 H 0.28075 0.59488 0.11266 0.0
H140 H 0.2514 0.59289 0.21366 0.0
H141 H 0.15824 0.44949 0.88255 0.0
H142 H 0.20873 0.48418 0.85684 0.0
H143 H 0.19681 0.4486 0.94983 0.0
H144 H 0.34012 0.56307 0.8762 0.0
H145 H 0.30817 0.4751 0.09501 0.0
H146 H 0.27425 0.59304 0.93761 0.0
H147 H 0.24967 0.55585 0.85016 0.0
H148 H 0.30117 0.59006 0.83704 0.0
H149 H 0.23559 0.4871 0.20626 0.0
H150 H 0.2523 0.45288 0.19024 0.0
H151 H 0.21197 0.44895 0.12068 0.0
C152 C 0.68406 0.17786 0.35287 0.0
C153 C 0.67823 0.14438 0.40252 0.0
C154 C 0.72116 0.20607 0.31952 0.0
C155 C 0.75367 0.20116 0.33682 0.0
C156 C 0.74848 0.1685 0.39112 0.0
C157 C 0.71081 0.14042 0.4231 0.0
C158 C 0.72519 0.24037 0.26205 0.0
C159 C 0.78246 0.16248 0.41235 0.0
C160 C 0.83538 0.25267 0.15316 0.0
C161 C 0.8603 0.28809 0.19879 0.0
C162 C 0.80155 0.22342 0.19897 0.0
C163 C 0.7924 0.22936 0.29338 0.0
C164 C 0.81852 0.26405 0.34193 0.0
C165 C 0.85195 0.29302 0.29404 0.0
C166 C 0.77455 0.18692 0.14434 0.0
C167 C 0.81012 0.2715 0.4428 0.0
H168 H 0.65929 0.18153 0.33691 0.0
H169 H 0.70675 0.11475 0.46128 0.0
H170 H 0.748 0.26802 0.29405 0.0
H171 H 0.73455 0.23927 0.18763 0.0
H172 H 0.69742 0.24086 0.25848 0.0
H173 H 0.77445 0.13787 0.46322 0.0
H174 H 0.79297 0.15641 0.34453 0.0
H175 H 0.80714 0.18928 0.4431 0.0
H176 H 0.84182 0.24813 0.08041 0.0
H177 H 0.87055 0.32031 0.33001 0.0
H178 H 0.74653 0.186 0.12991 0.0
H179 H 0.76776 0.16074 0.18793 0.0
H180 H 0.78723 0.18533 0.07462 0.0
H181 H 0.78496 0.27647 0.44168 0.0
H182 H 0.83554 0.29733 0.47506 0.0
H183 H 0.802 0.24579 0.48971 0.0
C184 C 0.59491 0.82633 0.74496 0.0
C185 C 0.57613 0.83082 0.66399 0.0
C186 C 0.59216 0.79042 0.767 0.0
C187 C 0.57036 0.75812 0.70636 0.0
C188 C 0.55053 0.76214 0.62597 0.0
C189 C 0.55353 0.7983 0.60602 0.0
C190 C 0.61366 0.7874 0.85356 0.0
C191 C 0.52699 0.72849 0.55935 0.0
C192 C 0.59857 0.67989 0.69242 0.0
C193 C 0.56919 0.64941 0.74716 0.0
C194 C 0.59947 0.71541 0.67972 0.0
C195 C 0.57037 0.72092 0.72308 0.0
C196 C 0.54106 0.69064 0.78015 0.0
C197 C 0.54078 0.65525 0.79146 0.0
C198 C 0.63126 0.74685 0.61827 0.0
C199 C 0.50965 0.69543 0.82807 0.0
H200 H 0.61285 0.85125 0.7897 0.0
H201 H 0.53829 0.80113 0.54435 0.0
H202 H 0.5936 0.76224 0.89942 0.0
H203 H 0.63739 0.7823 0.8297 0.0
H204 H 0.6267 0.81416 0.89779 0.0
H205 H 0.51176 0.73576 0.5027 0.0
H206 H 0.54651 0.71987 0.524 0.0
H207 H 0.50492 0.70287 0.6008 0.0
H208 H 0.62077 0.67589 0.658 0.0
H209 H 0.51798 0.63199 0.83404 0.0
H210 H 0.64765 0.77403 0.66007 0.0
H211 H 0.61807 0.75351 0.55567 0.0
H212 H 0.65223 0.73834 0.59129 0.0
H213 H 0.5231 0.72162 0.87416 0.0
H214 H 0.48979 0.66974 0.87293 0.0
H215 H 0.49202 0.69994 0.77271 0.0
C216 C 0.80405 0.56687 0.91614 0.0
C217 C 0.80761 0.58532 0.82697 0.0
C218 C 0.83551 0.56469 0.95659 0.0
C219 C 0.87156 0.58122 0.90677 0.0
C220 C 0.87573 0.60082 0.81809 0.0
C221 C 0.84379 0.60264 0.77937 0.0
C222 C 0.82968 0.54337 0.05103 0.0
C223 C 0.91359 0.61882 0.7625 0.0
C224 C 0.9628 0.59484 0.03766 0.0
C225 C 0.96391 0.56167 0.00888 0.0
C226 C 0.9329 0.60166 0.00544 0.0
C227 C 0.90355 0.57479 0.94276 0.0
C228 C 0.90455 0.5413 0.91385 0.0
C229 C 0.93449 0.53515 0.94727 0.0
C230 C 0.93273 0.63762 0.03826 0.0
C231 C 0.87399 0.51188 0.84702 0.0
H232 H 0.77618 0.55295 0.95314 0.0
H233 H 0.84713 0.61753 0.71132 0.0
H234 H 0.83091 0.51646 0.03916 0.0
H235 H 0.85344 0.56161 0.10193 0.0
H236 H 0.80119 0.5352 0.08492 0.0
H237 H 0.9131 0.63547 0.69838 0.0
H238 H 0.93831 0.63861 0.8093 0.0
H239 H 0.91931 0.59565 0.73831 0.0
H240 H 0.98528 0.61551 0.08518 0.0
H241 H 0.93483 0.50937 0.92418 0.0
H242 H 0.90491 0.62923 0.07582 0.0
H243 H 0.93452 0.65572 -0.02491 0.0
H244 H 0.95741 0.65556 0.08743 0.0
H245 H 0.84454 0.49986 0.87927 0.0
H246 H 0.87892 0.48734 0.83127 0.0
H247 H 0.87402 0.5262 0.77811 0.0
C248 C 0.44501 0.90919 0.41923 0.0
C249 C 0.45412 0.94558 0.38048 0.0
C250 C 0.40917 0.87547 0.39924 0.0
C251 C 0.38161 0.87802 0.339 0.0
C252 C 0.39063 0.91459 0.29941 0.0
C253 C 0.42669 0.94786 0.32055 0.0
C254 C 0.40075 0.83709 0.44297 0.0
C255 C 0.36206 0.91861 0.23495 0.0
C256 C 0.30165 0.78617 0.21945 0.0
C257 C 0.26933 0.7763 0.27879 0.0
C258 C 0.33838 0.81898 0.23845 0.0
C259 C 0.34303 0.84258 0.3188 0.0
C260 C 0.31067 0.83252 0.37958 0.0
C261 C 0.27435 0.79957 0.35899 0.0
C262 C 0.37212 0.82867 0.17188 0.0
C263 C 0.31435 0.85671 0.46623 0.0
H264 H 0.46588 0.90694 0.46549 0.0
H265 H 0.43333 0.9757 0.28992 0.0
H266 H 0.37432 0.82515 0.48896 0.0
H267 H 0.39459 0.81564 0.38541 0.0
H268 H 0.42543 0.83986 0.48723 0.0
H269 H 0.37365 0.94896 0.2088 0.0
H270 H 0.35486 0.89932 0.17187 0.0
H271 H 0.33441 0.90929 0.27436 0.0
H272 H 0.29804 0.76867 0.15683 0.0
H273 H 0.24981 0.79187 0.40631 0.0
H274 H 0.39682 0.83007 0.21316 0.0
H275 H 0.38272 0.85777 0.13858 0.0
H276 H 0.36398 0.80697 0.11375 0.0
H277 H 0.33717 0.85818 0.51543 0.0
H278 H 0.2865 0.84482 0.50677 0.0
H279 H 0.32363 0.88695 0.44329 0.0
C280 C 0.51037 0.39244 0.70789 0.0
C281 C 0.54384 0.42771 0.68273 0.0
C282 C 0.50479 0.35661 0.67442 0.0
C283 C 0.53347 0.35599 0.61496 0.0
C284 C 0.56754 0.39147 0.59073 0.0
C285 C 0.57222 0.42673 0.62451 0.0
C286 C 0.46797 0.31946 0.70152 0.0
C287 C 0.59905 0.39228 0.52829 0.0
C288 C 0.54009 0.26409 0.58796 0.0
C289 C 0.52348 0.25086 0.49678 0.0
C290 C 0.54258 0.29758 0.62835 0.0
C291 C 0.528 0.31849 0.57674 0.0
C292 C 0.51043 0.30486 0.48568 0.0
C293 C 0.50844 0.27135 0.44683 0.0
C294 C 0.56158 0.31105 0.72552 0.0
C295 C 0.49456 0.32625 0.42808 0.0
H296 H 0.4882 0.39282 0.75243 0.0
H297 H 0.59833 0.45368 0.60475 0.0
H298 H 0.45131 0.30483 0.6357 0.0
H299 H 0.47542 0.2991 0.73804 0.0
H300 H 0.44885 0.32471 0.74973 0.0
H301 H 0.62417 0.42221 0.51766 0.0
H302 H 0.60993 0.37399 0.56116 0.0
H303 H 0.58685 0.37988 0.45681 0.0
H304 H 0.55112 0.24816 0.62818 0.0
H305 H 0.4959 0.26174 0.37605 0.0
H306 H 0.54155 0.31425 0.77512 0.0
H307 H 0.58829 0.34008 0.71825 0.0
H308 H 0.56979 0.2906 0.75851 0.0
H309 H 0.47369 0.3304 0.47217 0.0
H310 H 0.47952 0.31058 0.36149 0.0
H311 H 0.51879 0.35559 0.40773 0.0
C312 C 1.05457 0.52471 0.79413 0.0
C313 C 0.08808 0.55567 0.83439 0.0
C314 C 1.05241 0.51775 0.69568 0.0
C315 C 0.08472 0.54234 0.63677 0.0
C316 C 0.11958 0.57223 0.6779 0.0
C317 C 0.12084 0.57864 0.77705 0.0
C318 C 1.01476 0.48544 0.65425 0.0
C319 C 0.15468 0.59851 0.61677 0.0
C320 C 0.07534 0.50255 0.38767 0.0
C321 C 1.0578 0.52088 0.3395 0.0
C322 C 0.08698 0.51131 0.48355 0.0
C323 C 0.08022 0.53851 0.53163 0.0
C324 C 0.06408 0.55834 0.48171 0.0
C325 C 1.05302 0.54922 0.3857 0.0
C326 C 0.10455 0.49003 0.5346 0.0
C327 C 1.05632 0.58743 0.53117 0.0
H328 H 1.02941 0.50668 0.83911 0.0
H329 H 0.14686 0.60238 0.80897 0.0
H330 H 1.00117 0.49807 0.60725 0.0
H331 H 1.02065 0.4661 0.60921 0.0
H332 H 0.9934 0.46749 0.71098 0.0
H333 H 0.18099 0.61678 0.66101 0.0
H334 H 0.16133 0.58112 0.56651 0.0
H335 H 0.14824 0.618 0.57259 0.0
H336 H 0.07936 0.4809 0.35091 0.0
H337 H 1.0394 0.56326 0.34777 0.0
H338 H 0.08289 0.46843 0.58573 0.0
H339 H 0.13051 0.51057 0.57697 0.0
H340 H 0.11327 0.47443 0.4836 0.0
H341 H 1.03278 0.57214 0.58527 0.0
H342 H 1.04724 0.60296 0.47975 0.0
H343 H 0.08276 0.60922 0.56993 0.0
C344 C 0.54846 0.04603 0.1439 0.0
C345 C 0.56849 1.02806 0.17932 0.0
C346 C 0.54869 0.05359 0.04594 0.0
C347 C 0.57057 0.04391 -0.01624 0.0
C348 C 0.59137 1.02618 0.01969 0.0
C349 C 0.58948 1.01775 0.11789 0.0
C350 C 0.52507 0.07128 0.00898 0.0
C351 C 0.61573 1.01653 0.95477 0.0
C352 C 0.53778 1.02673 0.7272 0.0
C353 C 0.56252 0.06332 0.68644 0.0
C354 C 0.54057 1.01984 0.82427 0.0
C355 C 0.56946 0.05017 0.88026 0.0
C356 C 0.59533 0.08696 0.83871 0.0
C357 C 0.59107 0.09336 0.74156 0.0
C358 C 0.5119 0.98059 0.86731 0.0
C359 C 0.62711 0.11939 0.89688 0.0
H360 H 0.53223 0.05367 0.19276 0.0
H361 H 0.60544 1.00441 0.1471 0.0
H362 H 0.54435 0.09915 -0.02893 0.0
H363 H 0.50311 0.05147 0.95622 0.0
H364 H 0.50961 0.07687 0.06759 0.0
H365 H 0.63209 1.00512 -0.00447 0.0
H366 H 0.59675 0.99444 0.90149 0.0
H367 H 0.63688 0.04287 0.91386 0.0
H368 H 0.51567 1.00368 0.68338 0.0
H369 H 0.61034 0.12144 0.7084 0.0
H370 H 0.49465 0.98424 0.92468 0.0
H371 H 0.52773 0.96714 0.90104 0.0
H372 H 0.49137 0.9602 0.81292 0.0
H373 H 0.61389 0.12905 0.95236 0.0
H374 H 0.64691 0.14491 0.85145 0.0
H375 H 0.64471 0.10881 0.93504 0.0
C376 C 0.57182 0.54384 0.46977 0.0
C377 C 0.53376 0.52966 0.50279 0.0
C378 C 0.57954 0.54589 0.37151 0.0
C379 C 0.5486 0.5354 0.30555 0.0
C380 C 0.51024 0.5224 0.33871 0.0
C381 C 0.50306 0.51874 0.43776 0.0
C382 C 0.62057 0.55855 0.33853 0.0
C383 C 0.47705 0.51275 0.26981 0.0
C384 C 0.58348 0.57639 0.05705 0.0
C385 C 0.57907 0.5436 0.00984 0.0
C386 C 0.57149 0.5736 0.15253 0.0
C387 C 0.55662 0.5376 0.20185 0.0
C388 C 0.55198 0.50435 0.15378 0.0
C389 C 0.56251 0.50761 0.05696 0.0
C390 C 0.57521 0.60916 0.20084 0.0
C391 C 0.5375 0.46589 0.20547 0.0
H392 H 0.59539 0.55231 0.5209 0.0
H393 H 0.4737 0.50822 0.46438 0.0
H394 H 0.63237 0.58575 0.29535 0.0
H395 H 0.6407 0.5637 0.39971 0.0
H396 H 0.62028 0.53599 0.29164 0.0
H397 H 0.4495 0.5053 0.30771 0.0
H398 H 0.48489 0.53786 0.22088 0.0
H399 H 0.47173 0.48782 0.22431 0.0
H400 H 0.59569 0.60397 0.01878 0.0
H401 H 0.55917 0.48241 0.01899 0.0
H402 H 0.59811 0.61935 0.25712 0.0
H403 H 0.54737 0.60188 0.23685 0.0
H404 H 0.58299 0.63346 0.1491 0.0
H405 H 0.55768 0.4695 0.26529 0.0
H406 H 0.5353 0.44284 0.15699 0.0
H407 H 0.50838 0.45593 0.2376 0.0
loop_
_geom_bond_atom_site_label_1
_geom_bond_atom_site_label_2
_geom_bond_distance
_geom_bond_site_symmetry_2
_ccdc_geom_bond_type
Tb0 C2 2.809 . S
Tb0 O20 2.484 . S
Tb0 O21 2.440 . S
Tb0 O22 2.658 1_455 S
Tb0 O23 2.409 1_554 S
Tb0 O24 2.378 . S
Tb0 O28 2.325 . S
Tb0 O31 2.341 1_455 S
Tb1 C11 2.809 . S
Tb1 O22 2.325 . S
Tb1 O25 2.341 1_655 S
Tb1 O26 2.484 . S
Tb1 O27 2.440 . S
Tb1 O28 2.658 1_655 S
Tb1 O29 2.409 . S
Tb1 O30 2.378 . S
C2 Tb0 2.809 . S
C2 C3 1.514 . S
C2 O20 1.248 . S
C2 O21 1.266 . S
C3 C2 1.514 . S
C3 C4 1.359 . S
C3 C8 1.348 . S
C4 C3 1.359 . S
C4 C5 1.380 . S
C4 H32 0.929 . S
C5 C4 1.380 . S
C5 C6 1.347 . S
C5 H33 0.931 . S
C6 C5 1.347 . S
C6 C7 1.369 . S
C7 C6 1.369 . S
C7 C8 1.408 . S
C7 H34 0.930 . S
C8 C3 1.348 . S
C8 C7 1.408 . S
C8 H35 0.930 . S
C9 O22 1.281 1_456 S
C9 O23 1.254 . S
C10 O24 1.236 . S
C10 O25 1.266 . S
C11 Tb1 2.809 . S
C11 C12 1.514 . S
C11 O26 1.248 . S
C11 O27 1.266 . S
C12 C11 1.514 . S
C12 C13 1.359 . S
C12 C17 1.348 . S
C13 C12 1.359 . S
C13 C14 1.380 . S
C13 H36 0.937 . S
C14 C13 1.380 . S
C14 C15 1.347 . S
C14 H37 0.931 1_554 S
C15 C14 1.347 . S
C15 C16 1.369 . S
C16 C15 1.369 . S
C16 C17 1.408 . S
C16 H38 0.930 . S
C17 C12 1.348 . S
C17 C16 1.408 . S
C17 H39 0.930 . S
C18 O28 1.277 1_655 S
C18 O29 1.256 . S
C19 O30 1.236 . S
C19 O31 1.266 . S
O20 Tb0 2.484 . S
O20 C2 1.248 . S
O21 Tb0 2.440 . S
O21 C2 1.266 . S
O22 Tb0 2.658 1_655 S
O22 Tb1 2.325 . S
O22 C9 1.281 1_654 S
O23 Tb0 2.409 1_556 S
O23 C9 1.254 . S
O24 Tb0 2.378 . S
O24 C10 1.236 . S
O25 Tb1 2.341 1_455 S
O25 C10 1.266 . S
O26 Tb1 2.484 . S
O26 C11 1.248 . S
O27 Tb1 2.440 . S
O27 C11 1.266 . S
O28 Tb0 2.325 . S
O28 Tb1 2.658 1_455 S
O28 C18 1.277 1_455 S
O29 Tb1 2.409 . S
O29 C18 1.256 . S
O30 Tb1 2.378 . S
O30 C19 1.236 . S
O31 Tb0 2.341 1_655 S
O31 C19 1.266 . S
H32 C4 0.929 . S
H33 C5 0.931 . S
H34 C7 0.930 . S
H35 C8 0.930 . S
H36 C13 0.937 . S
H37 C14 0.931 1_556 S
H38 C16 0.930 . S
H39 C17 0.930 . S
Tb40 C42 2.809 . S
Tb40 O60 2.484 . S
Tb40 O61 2.440 . S
Tb40 O62 2.658 1_565 S
Tb40 O63 2.409 . S
Tb40 O64 2.378 . S
Tb40 O68 2.325 . S
Tb40 O71 2.341 1_565 S
Tb41 C51 2.809 . S
Tb41 O62 2.325 . S
Tb41 O65 2.341 1_545 S
Tb41 O66 2.484 . S
Tb41 O67 2.440 . S
Tb41 O68 2.658 1_545 S
Tb41 O69 2.409 . S
Tb41 O70 2.378 . S
C42 Tb40 2.809 . S
C42 C43 1.514 . S
C42 O60 1.248 . S
C42 O61 1.266 . S
C43 C42 1.514 . S
C43 C44 1.359 . S
C43 C48 1.348 . S
C44 C43 1.359 . S
C44 C45 1.380 . S
C44 H72 0.929 . S
C45 C44 1.380 . S
C45 C46 1.347 . S
C45 H73 0.931 . S
C46 C45 1.347 . S
C46 C47 1.369 . S
C47 C46 1.369 . S
C47 C48 1.408 . S
C47 H74 0.930 . S
C48 C43 1.348 . S
C48 C47 1.408 . S
C48 H75 0.930 . S
C49 O62 1.276 1_565 S
C49 O63 1.263 . S
C50 O64 1.236 . S
C50 O65 1.266 . S
C51 Tb41 2.809 . S
C51 C52 1.514 . S
C51 O66 1.248 . S
C51 O67 1.266 . S
C52 C51 1.514 . S
C52 C53 1.359 . S
C52 C57 1.348 . S
C53 C52 1.359 . S
C53 C54 1.380 . S
C53 H76 0.929 . S
C54 C53 1.380 . S
C54 C55 1.347 . S
C54 H77 0.931 . S
C55 C54 1.347 . S
C55 C56 1.369 . S
C56 C55 1.369 . S
C56 C57 1.408 . S
C56 H78 0.930 . S
C57 C52 1.348 . S
C57 C56 1.408 . S
C57 H79 0.930 . S
C58 O68 1.281 1_545 S
C58 O69 1.254 . S
C59 O70 1.236 . S
C59 O71 1.266 . S
O60 Tb40 2.484 . S
O60 C42 1.248 . S
O61 Tb40 2.440 . S
O61 C42 1.266 . S
O62 Tb40 2.658 1_545 S
O62 Tb41 2.325 . S
O62 C49 1.276 1_545 S
O63 Tb40 2.409 . S
O63 C49 1.263 . S
O64 Tb40 2.378 . S
O64 C50 1.236 . S
O65 Tb41 2.341 1_565 S
O65 C50 1.266 . S
O66 Tb41 2.484 . S
O66 C51 1.248 . S
O67 Tb41 2.440 . S
O67 C51 1.266 . S
O68 Tb40 2.325 . S
O68 Tb41 2.658 1_565 S
O68 C58 1.281 1_565 S
O69 Tb41 2.409 . S
O69 C58 1.254 . S
O70 Tb41 2.378 . S
O70 C59 1.236 . S
O71 Tb40 2.341 1_545 S
O71 C59 1.266 . S
H72 C44 0.929 . S
H73 C45 0.931 . S
H74 C47 0.930 . S
H75 C48 0.930 . S
H76 C53 0.929 . S
H77 C54 0.931 . S
H78 C56 0.930 . S
H79 C57 0.930 . S
Tb80 C82 2.809 . S
Tb80 O100 2.484 . S
Tb80 O101 2.440 . S
Tb80 O102 2.658 . S
Tb80 O103 2.409 . S
Tb80 O104 2.378 . S
Tb80 O108 2.325 . S
Tb80 O111 2.341 . S
Tb81 C91 2.809 . S
Tb81 O102 2.325 . S
Tb81 O105 2.341 . S
Tb81 O106 2.484 . S
Tb81 O107 2.440 . S
Tb81 O108 2.658 . S
Tb81 O109 2.409 1_556 S
Tb81 O110 2.378 . S
C82 Tb80 2.809 . S
C82 C83 1.514 . S
C82 O100 1.248 . S
C82 O101 1.266 . S
C83 C82 1.514 . S
C83 C84 1.359 . S
C83 C88 1.348 . S
C84 C83 1.359 . S
C84 C85 1.380 . S
C84 H112 0.937 . S
C85 C84 1.380 . S
C85 C86 1.347 . S
C85 H113 0.931 1_556 S
C86 C85 1.347 . S
C86 C87 1.369 . S
C87 C86 1.369 . S
C87 C88 1.408 . S
C87 H114 0.930 . S
C88 C83 1.348 . S
C88 C87 1.408 . S
C88 H115 0.930 . S
C89 O102 1.281 . S
C89 O103 1.254 . S
C90 O104 1.236 . S
C90 O105 1.266 . S
C91 Tb81 2.809 . S
C91 C92 1.514 . S
C91 O106 1.248 . S
C91 O107 1.266 . S
C92 C91 1.514 . S
C92 C93 1.359 . S
C92 C97 1.348 . S
C93 C92 1.359 . S
C93 C94 1.380 . S
C93 H116 0.929 . S
C94 C93 1.380 . S
C94 C95 1.347 . S
C94 H117 0.931 . S
C95 C94 1.347 . S
C95 C96 1.369 . S
C96 C95 1.369 . S
C96 C97 1.408 . S
C96 H118 0.930 . S
C97 C92 1.348 . S
C97 C96 1.408 . S
C97 H119 0.930 . S
C98 O108 1.281 1_554 S
C98 O109 1.254 . S
C99 O110 1.236 . S
C99 O111 1.266 . S
O100 Tb80 2.484 . S
O100 C82 1.248 . S
O101 Tb80 2.440 . S
O101 C82 1.266 . S
O102 Tb80 2.658 . S
O102 Tb81 2.325 . S
O102 C89 1.281 . S
O103 Tb80 2.409 . S
O103 C89 1.254 . S
O104 Tb80 2.378 . S
O104 C90 1.236 . S
O105 Tb81 2.341 . S
O105 C90 1.266 . S
O106 Tb81 2.484 . S
O106 C91 1.248 . S
O107 Tb81 2.440 . S
O107 C91 1.266 . S
O108 Tb80 2.325 . S
O108 Tb81 2.658 . S
O108 C98 1.281 1_556 S
O109 Tb81 2.409 1_554 S
O109 C98 1.254 . S
O110 Tb81 2.378 . S
O110 C99 1.236 . S
O111 Tb80 2.341 . S
O111 C99 1.266 . S
H112 C84 0.937 . S
H113 C85 0.931 1_554 S
H114 C87 0.930 . S
H115 C88 0.930 . S
H116 C93 0.929 . S
H117 C94 0.931 . S
H118 C96 0.930 . S
H119 C97 0.930 . S
C120 C121 1.391 . S
C120 C122 1.394 . S
C120 H136 0.931 . S
C121 C120 1.391 . S
C121 C125 1.376 . S
C122 C120 1.394 . S
C122 C123 1.369 . S
C122 C126 1.531 . S
C123 C122 1.369 . S
C123 C124 1.410 . S
C123 C131 1.503 . S
C124 C123 1.410 . S
C124 C125 1.392 . S
C124 C127 1.511 . S
C125 C121 1.376 . S
C125 C124 1.392 . S
C125 H137 0.929 . S
C126 C122 1.531 . S
C126 H138 0.960 . S
C126 H139 0.962 . S
C126 H140 0.960 . S
C127 C124 1.511 . S
C127 H141 0.961 . S
C127 H142 0.961 1_554 S
C127 H143 0.961 . S
C128 C129 1.370 . S
C128 C130 1.363 . S
C128 H144 0.931 . S
C129 C128 1.370 . S
C129 C133 1.408 1_556 S
C130 C128 1.363 . S
C130 C131 1.370 1_556 S
C130 C134 1.524 . S
C131 C123 1.503 . S
C131 C130 1.370 1_554 S
C131 C132 1.403 . S
C132 C131 1.403 . S
C132 C133 1.404 . S
C132 C135 1.539 . S
C133 C129 1.408 1_554 S
C133 C132 1.404 . S
C133 H145 0.930 . S
C134 C130 1.524 . S
C134 H146 0.956 . S
C134 H147 0.961 . S
C134 H148 0.961 . S
C135 C132 1.539 . S
C135 H149 0.958 . S
C135 H150 0.961 . S
C135 H151 0.960 . S
H136 C120 0.931 . S
H137 C125 0.929 . S
H138 C126 0.960 . S
H139 C126 0.962 . S
H140 C126 0.960 . S
H141 C127 0.961 . S
H142 C127 0.961 1_556 S
H143 C127 0.961 . S
H144 C128 0.931 . S
H145 C133 0.930 . S
H146 C134 0.956 . S
H147 C134 0.961 . S
H148 C134 0.961 . S
H149 C135 0.958 . S
H150 C135 0.961 . S
H151 C135 0.960 . S
C152 C153 1.391 . S
C152 C154 1.394 . S
C152 H168 0.931 . S
C153 C152 1.391 . S
C153 C157 1.376 . S
C154 C152 1.394 . S
C154 C155 1.369 . S
C154 C158 1.531 . S
C155 C154 1.369 . S
C155 C156 1.410 . S
C155 C163 1.503 . S
C156 C155 1.410 . S
C156 C157 1.392 . S
C156 C159 1.511 . S
C157 C153 1.376 . S
C157 C156 1.392 . S
C157 H169 0.929 . S
C158 C154 1.531 . S
C158 H170 0.960 . S
C158 H171 0.962 . S
C158 H172 0.960 . S
C159 C156 1.511 . S
C159 H173 0.961 . S
C159 H174 0.961 . S
C159 H175 0.961 . S
C160 C161 1.370 . S
C160 C162 1.363 . S
C160 H176 0.931 . S
C161 C160 1.370 . S
C161 C165 1.408 . S
C162 C160 1.363 . S
C162 C163 1.370 . S
C162 C166 1.524 . S
C163 C155 1.503 . S
C163 C162 1.370 . S
C163 C164 1.403 . S
C164 C163 1.403 . S
C164 C165 1.404 . S
C164 C167 1.539 . S
C165 C161 1.408 . S
C165 C164 1.404 . S
C165 H177 0.930 . S
C166 C162 1.524 . S
C166 H178 0.956 . S
C166 H179 0.961 . S
C166 H180 0.961 . S
C167 C164 1.539 . S
C167 H181 0.958 . S
C167 H182 0.961 . S
C167 H183 0.960 . S
H168 C152 0.931 . S
H169 C157 0.929 . S
H170 C158 0.960 . S
H171 C158 0.962 . S
H172 C158 0.960 . S
H173 C159 0.961 . S
H174 C159 0.961 . S
H175 C159 0.961 . S
H176 C160 0.931 . S
H177 C165 0.930 . S
H178 C166 0.956 . S
H179 C166 0.961 . S
H180 C166 0.961 . S
H181 C167 0.958 . S
H182 C167 0.961 . S
H183 C167 0.960 . S
C184 C185 1.391 . S
C184 C186 1.394 . S
C184 H200 0.931 . S
C185 C184 1.391 . S
C185 C189 1.376 . S
C186 C184 1.394 . S
C186 C187 1.369 . S
C186 C190 1.531 . S
C187 C186 1.369 . S
C187 C188 1.410 . S
C187 C195 1.503 . S
C188 C187 1.410 . S
C188 C189 1.392 . S
C188 C191 1.511 . S
C189 C185 1.376 . S
C189 C188 1.392 . S
C189 H201 0.929 . S
C190 C186 1.531 . S
C190 H202 0.960 . S
C190 H203 0.962 . S
C190 H204 0.960 . S
C191 C188 1.511 . S
C191 H205 0.961 . S
C191 H206 0.961 . S
C191 H207 0.961 . S
C192 C193 1.370 . S
C192 C194 1.363 . S
C192 H208 0.931 . S
C193 C192 1.370 . S
C193 C197 1.408 . S
C194 C192 1.363 . S
C194 C195 1.370 . S
C194 C198 1.524 . S
C195 C187 1.503 . S
C195 C194 1.370 . S
C195 C196 1.403 . S
C196 C195 1.403 . S
C196 C197 1.404 . S
C196 C199 1.539 . S
C197 C193 1.408 . S
C197 C196 1.404 . S
C197 H209 0.930 . S
C198 C194 1.524 . S
C198 H210 0.956 . S
C198 H211 0.961 . S
C198 H212 0.961 . S
C199 C196 1.539 . S
C199 H213 0.958 . S
C199 H214 0.961 . S
C199 H215 0.960 . S
H200 C184 0.931 . S
H201 C189 0.929 . S
H202 C190 0.960 . S
H203 C190 0.962 . S
H204 C190 0.960 . S
H205 C191 0.961 . S
H206 C191 0.961 . S
H207 C191 0.961 . S
H208 C192 0.931 . S
H209 C197 0.930 . S
H210 C198 0.956 . S
H211 C198 0.961 . S
H212 C198 0.961 . S
H213 C199 0.958 . S
H214 C199 0.961 . S
H215 C199 0.960 . S
C216 C217 1.391 . S
C216 C218 1.394 . S
C216 H232 0.931 . S
C217 C216 1.391 . S
C217 C221 1.376 . S
C218 C216 1.394 . S
C218 C219 1.369 . S
C218 C222 1.531 1_556 S
C219 C218 1.369 . S
C219 C220 1.410 . S
C219 C227 1.503 . S
C220 C219 1.410 . S
C220 C221 1.392 . S
C220 C223 1.511 . S
C221 C217 1.376 . S
C221 C220 1.392 . S
C221 H233 0.929 . S
C222 C218 1.531 1_554 S
C222 H234 0.960 . S
C222 H235 0.962 . S
C222 H236 0.960 . S
C223 C220 1.511 . S
C223 H237 0.961 . S
C223 H238 0.961 . S
C223 H239 0.961 . S
C224 C225 1.370 . S
C224 C226 1.363 . S
C224 H240 0.931 . S
C225 C224 1.370 . S
C225 C229 1.408 . S
C226 C224 1.363 . S
C226 C227 1.370 1_554 S
C226 C230 1.524 . S
C227 C219 1.503 . S
C227 C226 1.370 1_556 S
C227 C228 1.403 . S
C228 C227 1.403 . S
C228 C229 1.404 1_556 S
C228 C231 1.539 . S
C229 C225 1.408 . S
C229 C228 1.404 1_554 S
C229 H241 0.930 . S
C230 C226 1.524 . S
C230 H242 0.956 . S
C230 H243 0.961 . S
C230 H244 0.961 . S
C231 C228 1.539 . S
C231 H245 0.958 . S
C231 H246 0.961 . S
C231 H247 0.960 . S
H232 C216 0.931 . S
H233 C221 0.929 . S
H234 C222 0.960 . S
H235 C222 0.962 . S
H236 C222 0.960 . S
H237 C223 0.961 . S
H238 C223 0.961 . S
H239 C223 0.961 . S
H240 C224 0.931 . S
H241 C229 0.930 . S
H242 C230 0.956 . S
H243 C230 0.961 . S
H244 C230 0.961 . S
H245 C231 0.958 . S
H246 C231 0.961 . S
H247 C231 0.960 . S
C248 C249 1.391 . S
C248 C250 1.394 . S
C248 H264 0.931 . S
C249 C248 1.391 . S
C249 C253 1.376 . S
C250 C248 1.394 . S
C250 C251 1.369 . S
C250 C254 1.531 . S
C251 C250 1.369 . S
C251 C252 1.410 . S
C251 C259 1.503 . S
C252 C251 1.410 . S
C252 C253 1.392 . S
C252 C255 1.511 . S
C253 C249 1.376 . S
C253 C252 1.392 . S
C253 H265 0.929 . S
C254 C250 1.531 . S
C254 H266 0.960 . S
C254 H267 0.962 . S
C254 H268 0.960 . S
C255 C252 1.511 . S
C255 H269 0.961 . S
C255 H270 0.961 . S
C255 H271 0.961 . S
C256 C257 1.370 . S
C256 C258 1.363 . S
C256 H272 0.931 . S
C257 C256 1.370 . S
C257 C261 1.408 . S
C258 C256 1.363 . S
C258 C259 1.370 . S
C258 C262 1.524 . S
C259 C251 1.503 . S
C259 C258 1.370 . S
C259 C260 1.403 . S
C260 C259 1.403 . S
C260 C261 1.404 . S
C260 C263 1.539 . S
C261 C257 1.408 . S
C261 C260 1.404 . S
C261 H273 0.930 . S
C262 C258 1.524 . S
C262 H274 0.956 . S
C262 H275 0.961 . S
C262 H276 0.961 . S
C263 C260 1.539 . S
C263 H277 0.958 . S
C263 H278 0.961 . S
C263 H279 0.960 . S
H264 C248 0.931 . S
H265 C253 0.929 . S
H266 C254 0.960 . S
H267 C254 0.962 . S
H268 C254 0.960 . S
H269 C255 0.961 . S
H270 C255 0.961 . S
H271 C255 0.961 . S
H272 C256 0.931 . S
H273 C261 0.930 . S
H274 C262 0.956 . S
H275 C262 0.961 . S
H276 C262 0.961 . S
H277 C263 0.958 . S
H278 C263 0.961 . S
H279 C263 0.960 . S
C280 C281 1.391 . S
C280 C282 1.394 . S
C280 H296 0.931 . S
C281 C280 1.391 . S
C281 C285 1.376 . S
C282 C280 1.394 . S
C282 C283 1.369 . S
C282 C286 1.531 . S
C283 C282 1.369 . S
C283 C284 1.410 . S
C283 C291 1.503 . S
C284 C283 1.410 . S
C284 C285 1.392 . S
C284 C287 1.511 . S
C285 C281 1.376 . S
C285 C284 1.392 . S
C285 H297 0.929 . S
C286 C282 1.531 . S
C286 H298 0.960 . S
C286 H299 0.962 . S
C286 H300 0.960 . S
C287 C284 1.511 . S
C287 H301 0.961 . S
C287 H302 0.961 . S
C287 H303 0.961 . S
C288 C289 1.370 . S
C288 C290 1.363 . S
C288 H304 0.931 . S
C289 C288 1.370 . S
C289 C293 1.408 . S
C290 C288 1.363 . S
C290 C291 1.370 . S
C290 C294 1.524 . S
C291 C283 1.503 . S
C291 C290 1.370 . S
C291 C292 1.403 . S
C292 C291 1.403 . S
C292 C293 1.404 . S
C292 C295 1.539 . S
C293 C289 1.408 . S
C293 C292 1.404 . S
C293 H305 0.930 . S
C294 C290 1.524 . S
C294 H306 0.956 . S
C294 H307 0.961 . S
C294 H308 0.961 . S
C295 C292 1.539 . S
C295 H309 0.958 . S
C295 H310 0.961 . S
C295 H311 0.960 . S
H296 C280 0.931 . S
H297 C285 0.929 . S
H298 C286 0.960 . S
H299 C286 0.962 . S
H300 C286 0.960 . S
H301 C287 0.961 . S
H302 C287 0.961 . S
H303 C287 0.961 . S
H304 C288 0.931 . S
H305 C293 0.930 . S
H306 C294 0.956 . S
H307 C294 0.961 . S
H308 C294 0.961 . S
H309 C295 0.958 . S
H310 C295 0.961 . S
H311 C295 0.960 . S
C312 C313 1.389 . S
C312 C314 1.394 . S
C312 H328 0.931 . S
C313 C312 1.389 . S
C313 C317 1.378 1_655 S
C314 C312 1.394 . S
C314 C315 1.369 1_655 S
C314 C318 1.531 . S
C315 C314 1.369 1_455 S
C315 C316 1.410 . S
C315 C323 1.503 . S
C316 C315 1.410 . S
C316 C317 1.392 . S
C316 C319 1.511 . S
C317 C313 1.378 1_455 S
C317 C316 1.392 . S
C317 H329 0.929 . S
C318 C314 1.531 . S
C318 H330 0.960 1_655 S
C318 H331 0.962 . S
C318 H332 0.960 . S
C319 C316 1.511 . S
C319 H333 0.961 . S
C319 H334 0.961 . S
C319 H335 0.961 . S
C320 C321 1.370 1_655 S
C320 C322 1.363 . S
C320 H336 0.931 . S
C321 C320 1.370 1_455 S
C321 C325 1.408 . S
C322 C320 1.363 . S
C322 C323 1.370 1_655 S
C322 C326 1.524 . S
C323 C315 1.503 . S
C323 C322 1.370 1_455 S
C323 C324 1.403 . S
C324 C323 1.403 . S
C324 C325 1.404 . S
C324 C327 1.539 . S
C325 C321 1.408 . S
C325 C324 1.404 . S
C325 H337 0.930 . S
C326 C322 1.524 . S
C326 H338 0.956 . S
C326 H339 0.961 . S
C326 H340 0.961 . S
C327 C324 1.539 . S
C327 H341 0.958 . S
C327 H342 0.961 . S
C327 H343 0.960 . S
H328 C312 0.931 . S
H329 C317 0.929 . S
H330 C318 0.960 1_455 S
H331 C318 0.962 . S
H332 C318 0.960 . S
H333 C319 0.961 . S
H334 C319 0.961 . S
H335 C319 0.961 . S
H336 C320 0.931 . S
H337 C325 0.930 . S
H338 C326 0.956 . S
H339 C326 0.961 . S
H340 C326 0.961 . S
H341 C327 0.958 . S
H342 C327 0.961 . S
H343 C327 0.960 . S
C344 C345 1.391 . S
C344 C346 1.394 . S
C344 H360 0.931 . S
C345 C344 1.391 . S
C345 C349 1.383 . S
C346 C344 1.394 . S
C346 C347 1.369 . S
C346 C350 1.531 . S
C347 C346 1.369 . S
C347 C348 1.410 . S
C347 C355 1.503 1_554 S
C348 C347 1.410 . S
C348 C349 1.392 . S
C348 C351 1.511 1_545 S
C349 C345 1.383 . S
C349 C348 1.392 . S
C349 H361 0.922 1_545 S
C350 C346 1.531 . S
C350 H362 0.960 1_554 S
C350 H363 0.962 . S
C350 H364 0.960 . S
C351 C348 1.511 1_565 S
C351 H365 0.961 . S
C351 H366 0.961 1_554 S
C351 H367 0.961 1_565 S
C352 C353 1.370 . S
C352 C354 1.363 . S
C352 H368 0.931 . S
C353 C352 1.370 . S
C353 C357 1.408 1_565 S
C354 C352 1.363 . S
C354 C355 1.370 1_565 S
C354 C358 1.524 . S
C355 C347 1.503 1_556 S
C355 C354 1.370 1_545 S
C355 C356 1.403 . S
C356 C355 1.403 . S
C356 C357 1.404 . S
C356 C359 1.539 . S
C357 C353 1.408 1_545 S
C357 C356 1.404 . S
C357 H369 0.930 . S
C358 C354 1.524 . S
C358 H370 0.956 . S
C358 H371 0.961 1_556 S
C358 H372 0.961 . S
C359 C356 1.539 . S
C359 H373 0.958 . S
C359 H374 0.961 . S
C359 H375 0.960 . S
H360 C344 0.931 . S
H361 C349 0.922 1_565 S
H362 C350 0.960 1_556 S
H363 C350 0.962 . S
H364 C350 0.960 . S
H365 C351 0.961 . S
H366 C351 0.961 1_556 S
H367 C351 0.961 1_545 S
H368 C352 0.931 . S
H369 C357 0.930 . S
H370 C358 0.956 . S
H371 C358 0.961 1_554 S
H372 C358 0.961 . S
H373 C359 0.958 . S
H374 C359 0.961 . S
H375 C359 0.960 . S
C376 C377 1.391 . S
C376 C378 1.394 . S
C376 H392 0.931 . S
C377 C376 1.391 . S
C377 C381 1.376 . S
C378 C376 1.394 . S
C378 C379 1.369 . S
C378 C382 1.531 . S
C379 C378 1.369 . S
C379 C380 1.410 . S
C379 C387 1.503 . S
C380 C379 1.410 . S
C380 C381 1.392 . S
C380 C383 1.511 . S
C381 C377 1.376 . S
C381 C380 1.392 . S
C381 H393 0.929 . S
C382 C378 1.531 . S
C382 H394 0.960 . S
C382 H395 0.962 . S
C382 H396 0.960 . S
C383 C380 1.511 . S
C383 H397 0.961 . S
C383 H398 0.961 . S
C383 H399 0.961 . S
C384 C385 1.370 . S
C384 C386 1.363 . S
C384 H400 0.931 . S
C385 C384 1.370 . S
C385 C389 1.408 . S
C386 C384 1.363 . S
C386 C387 1.370 . S
C386 C390 1.524 . S
C387 C379 1.503 . S
C387 C386 1.370 . S
C387 C388 1.403 . S
C388 C387 1.403 . S
C388 C389 1.404 . S
C388 C391 1.539 . S
C389 C385 1.408 . S
C389 C388 1.404 . S
C389 H401 0.930 . S
C390 C386 1.524 . S
C390 H402 0.956 . S
C390 H403 0.961 . S
C390 H404 0.961 . S
C391 C388 1.539 . S
C391 H405 0.958 . S
C391 H406 0.961 . S
C391 H407 0.960 . S
H392 C376 0.931 . S
H393 C381 0.929 . S
H394 C382 0.960 . S
H395 C382 0.962 . S
H396 C382 0.960 . S
H397 C383 0.961 . S
H398 C383 0.961 . S
H399 C383 0.961 . S
H400 C384 0.931 . S
H401 C389 0.930 . S
H402 C390 0.956 . S
H403 C390 0.961 . S
H404 C390 0.961 . S
H405 C391 0.958 . S
H406 C391 0.961 . S
H407 C391 0.960 . S
C121 C10 1.911 . S
C129 C86 1.939 . S
C153 C59 2.225 . S
C161 C15 2.144 . S
C185 C46 1.937 . S
C193 C90 1.897 . S
C217 C95 2.170 . S
C225 C19 2.215 . S
C249 C50 1.875 . S
C257 C6 1.945 . S
C281 C99 2.211 . S
C289 C55 2.159 . S
C313 C9 0.502 1_655 S
C321 C18 0.581 1_455 S
C345 C49 0.573 1_545 S
C353 C58 0.560 1_565 S
C377 C89 0.489 . S
C385 C98 0.593 . S
