# Generated by pormake.
# Topology yfh, (5)-cn, num edge types: 1
# Building blocks:
#     Node 0, Type 0, BuildingBlock: BEQFEK_clean_sbu_0, # of connection points: 5
#     Node 1, Type 0, BuildingBlock: BEQFEK_clean_sbu_0, # of connection points: 5
#     Node 2, Type 0, BuildingBlock: BEQFEK_clean_sbu_0, # of connection points: 5
#     Node 3, Type 0, BuildingBlock: BEQFEK_clean_sbu_0, # of connection points: 5
#     Node 4, Type 0, BuildingBlock: BEQFEK_clean_sbu_0, # of connection points: 5
#     Node 5, Type 0, BuildingBlock: BEQFEK_clean_sbu_0, # of connection points: 5
#     Node 6, Type 0, BuildingBlock: BEQFEK_clean_sbu_0, # of connection points: 5
#     Node 7, Type 0, BuildingBlock: BEQFEK_clean_sbu_0, # of connection points: 5
#     Edge 8, Type (0, 0), BuildingBlock: AJUNOK_clean_linker_0, # of connection points: 2
#     Edge 9, Type (0, 0), BuildingBlock: AJUNOK_clean_linker_0, # of connection points: 2
#     Edge 10, Type (0, 0), BuildingBlock: AJUNOK_clean_linker_0, # of connection points: 2
#     Edge 11, Type (0, 0), BuildingBlock: AJUNOK_clean_linker_0, # of connection points: 2
#     Edge 12, Type (0, 0), BuildingBlock: AJUNOK_clean_linker_0, # of connection points: 2
#     Edge 13, Type (0, 0), BuildingBlock: AJUNOK_clean_linker_0, # of connection points: 2
#     Edge 14, Type (0, 0), BuildingBlock: AJUNOK_clean_linker_0, # of connection points: 2
#     Edge 15, Type (0, 0), BuildingBlock: AJUNOK_clean_linker_0, # of connection points: 2
#     Edge 16, Type (0, 0), BuildingBlock: AJUNOK_clean_linker_0, # of connection points: 2
#     Edge 17, Type (0, 0), BuildingBlock: AJUNOK_clean_linker_0, # of connection points: 2
#     Edge 18, Type (0, 0), BuildingBlock: AJUNOK_clean_linker_0, # of connection points: 2
#     Edge 19, Type (0, 0), BuildingBlock: AJUNOK_clean_linker_0, # of connection points: 2
#     Edge 20, Type (0, 0), BuildingBlock: AJUNOK_clean_linker_0, # of connection points: 2
#     Edge 21, Type (0, 0), BuildingBlock: AJUNOK_clean_linker_0, # of connection points: 2
#     Edge 22, Type (0, 0), BuildingBlock: AJUNOK_clean_linker_0, # of connection points: 2
#     Edge 23, Type (0, 0), BuildingBlock: AJUNOK_clean_linker_0, # of connection points: 2
#     Edge 24, Type (0, 0), BuildingBlock: AJUNOK_clean_linker_0, # of connection points: 2
#     Edge 25, Type (0, 0), BuildingBlock: AJUNOK_clean_linker_0, # of connection points: 2
#     Edge 26, Type (0, 0), BuildingBlock: AJUNOK_clean_linker_0, # of connection points: 2
#     Edge 27, Type (0, 0), BuildingBlock: AJUNOK_clean_linker_0, # of connection points: 2
# Relax obj value: 0.489
# Max RMSD: 0.268
# Mean RMSD: 0.268
data_MOF--net-yfh--node1-BEQFEK_clean_sbu_0--edge1-AJUNOK_clean_linker_0
_symmetry_space_group_name_H-M    P1
_symmetry_Int_Tables_number       1
_symmetry_cell_setting            triclinic
loop_
_symmetry_equiv_pos_as_xyz
'x, y, z'
_cell_length_a     22.374323
_cell_length_b     22.34575
_cell_length_c     46.041565
_cell_angle_alpha  90.261548
_cell_angle_beta   89.721229
_cell_angle_gamma 90.080628
loop_
_atom_site_label
_atom_site_type_symbol
_atom_site_fract_x
_atom_site_fract_y
_atom_site_fract_z
_atom_type_partial_charge
Co0 Co 0.26638 0.00946 0.04723 0.0
Co1 Co 0.3717 0.00543 0.09101 0.0
C2 C 0.28664 0.11044 0.08666 0.0
O3 O 0.2523 0.08425 0.06883 0.0
O4 O 0.33422 0.08573 0.09554 0.0
C5 C 0.14768 0.01708 0.02612 0.0
O6 O 0.13567 0.02948 0.05345 0.0
C7 C 0.40607 0.00917 0.15115 0.0
C8 C 0.4946 0.96587 0.15129 0.0
C9 C 0.45014 0.9881 0.16945 0.0
N10 N 0.42285 -0.00164 0.12359 0.0
N11 N 0.47659 0.97398 0.1237 0.0
C12 C 0.34682 0.03535 0.15954 0.0
H13 H 0.34448 0.08204 0.15158 0.0
H14 H 0.31041 0.00966 0.14891 0.0
H15 H 0.34015 0.03607 0.18343 0.0
C16 C 0.24043 0.89084 0.07192 0.0
N17 N 0.27072 0.94293 0.07184 0.0
N18 N 0.31524 0.94018 0.09037 0.0
C19 C 0.3146 0.88552 0.10283 0.0
C20 C 0.26684 0.85279 0.0918 0.0
C21 C 0.19302 0.87512 0.05034 0.0
H22 H 0.20716 0.88971 0.02837 0.0
H23 H 0.15122 0.89911 0.05612 0.0
H24 H 0.18405 0.8263 0.04974 0.0
O25 O 0.34136 0.01567 0.02444 0.0
O26 O 0.41841 0.00447 0.05448 0.0
H27 H 0.40104 0.84826 0.11008 0.0
H28 H 0.34498 0.82463 0.13607 0.0
C29 C 0.36156 0.86277 0.12296 0.0
H30 H 0.37591 0.89835 0.13783 0.0
H31 H 0.49929 0.95958 0.10508 0.0
O32 O 0.2008 0.00294 0.01912 0.0
C33 C 0.39726 0.01131 0.02909 0.0
Co34 Co 0.45815 0.76055 0.30677 0.0
Co35 Co 0.46422 0.87519 0.3452 0.0
C36 C 0.36108 0.78512 0.34677 0.0
O37 O 0.38638 0.74735 0.33016 0.0
O38 O 0.38556 0.8351 0.35279 0.0
C39 C 0.44998 0.641 0.28416 0.0
O40 O 0.42908 0.62825 0.31013 0.0
C41 C 0.48251 0.90777 0.40459 0.0
C42 C 0.50168 0.00463 0.40368 0.0
C43 C 0.49928 0.95548 0.42194 0.0
N44 N 0.47642 0.92725 0.37726 0.0
N45 N 0.48689 0.98548 0.37681 0.0
C46 C 0.47324 0.84403 0.41355 0.0
H47 H 0.43129 0.82659 0.40402 0.0
H48 H 0.51042 0.81616 0.40502 0.0
H49 H 0.471 0.83975 0.43753 0.0
C50 C 0.57825 0.74164 0.331 0.0
N51 N 0.5259 0.77099 0.32969 0.0
N52 N 0.53071 0.82251 0.34328 0.0
C53 C 0.58749 0.8294 0.35219 0.0
C54 C 0.61936 0.77802 0.34519 0.0
C55 C 0.58774 0.67996 0.3191 0.0
H56 H 0.5932 0.68238 0.29517 0.0
H57 H 0.54797 0.65195 0.3238 0.0
H58 H 0.62777 0.65861 0.32868 0.0
O59 O 0.44722 0.83335 0.28253 0.0
O60 O 0.4594 0.91739 0.30818 0.0
H61 H 0.5896 0.92544 0.35191 0.0
H62 H 0.6616 0.89052 0.35768 0.0
C63 C 0.61301 0.88766 0.36246 0.0
H64 H 0.60649 0.89182 0.38614 0.0
H65 H 0.48639 0.01148 0.35808 0.0
O66 O 0.46758 0.69392 0.27901 0.0
C67 C 0.4497 0.89032 0.28429 0.0
Co68 Co 0.72922 0.97541 0.56223 0.0
Co69 Co 0.61111 0.97052 0.59855 0.0
C70 C 0.70561 0.8733 0.59977 0.0
O71 O 0.74163 0.90157 0.58351 0.0
O72 O 0.65432 0.89426 0.60614 0.0
C73 C 0.85029 0.9663 0.54306 0.0
O74 O 0.85872 0.94381 0.56904 0.0
C75 C 0.55899 0.97573 0.65583 0.0
C76 C 0.463 0.9893 0.64743 0.0
C77 C 0.50463 0.98541 0.6696 0.0
N78 N 0.54991 0.97401 0.62708 0.0
N79 N 0.49221 0.98061 0.62211 0.0
C80 C 0.61978 0.97561 0.66935 0.0
H81 H 0.65518 0.98102 0.65264 0.0
H82 H 0.62344 0.01181 0.68584 0.0
H83 H 0.62695 0.93223 0.68039 0.0
C84 C 0.74042 0.09196 0.59112 0.0
N85 N 0.71274 0.03924 0.58732 0.0
N86 N 0.66143 0.03947 0.60138 0.0
C87 C 0.65384 0.09364 0.61389 0.0
C88 C 0.70395 0.12851 0.60796 0.0
C89 C 0.80026 0.10676 0.57837 0.0
H90 H 0.83028 0.06757 0.5802 0.0
H91 H 0.82106 0.14559 0.58953 0.0
H92 H 0.79495 0.11711 0.55497 0.0
O93 O 0.66193 0.96448 0.53519 0.0
O94 O 0.57581 0.96744 0.55952 0.0
H95 H 0.59196 0.1635 0.62638 0.0
H96 H 0.59621 0.10119 0.6509 0.0
C97 C 0.59663 0.11414 0.62769 0.0
H98 H 0.55797 0.0926 0.61686 0.0
H99 H 0.47333 0.9823 0.60147 0.0
O100 O 0.79957 0.98833 0.53706 0.0
C101 C 0.60506 0.96316 0.53586 0.0
Co102 Co 0.5204 0.23347 0.80168 0.0
Co103 Co 0.5236 0.12408 0.84374 0.0
C104 C 0.62896 0.20505 0.83593 0.0
O105 O 0.602 0.2363 0.81719 0.0
O106 O 0.60389 0.16075 0.84824 0.0
C107 C 0.52802 0.35642 0.78817 0.0
O108 O 0.54486 0.3605 0.81541 0.0
C109 C 0.52922 0.07152 0.90124 0.0
C110 C 0.47931 0.98712 0.89599 0.0
C111 C 0.50581 0.02371 0.91669 0.0
N112 N 0.51571 0.06444 0.87305 0.0
N113 N 0.4874 0.01294 0.86987 0.0
C114 C 0.56255 0.12438 0.91292 0.0
H115 H 0.60812 0.1239 0.90343 0.0
H116 H 0.54041 0.16635 0.90601 0.0
H117 H 0.56676 0.12315 0.9369 0.0
C118 C 0.41068 0.25968 0.83395 0.0
N119 N 0.46184 0.22886 0.83067 0.0
N120 N 0.46206 0.18297 0.8485 0.0
C121 C 0.41099 0.18398 0.8642 0.0
C122 C 0.37698 0.23267 0.85554 0.0
C123 C 0.39021 0.30691 0.81325 0.0
H124 H 0.40199 0.2938 0.7907 0.0
H125 H 0.41322 0.34961 0.81842 0.0
H126 H 0.34124 0.3141 0.81453 0.0
O127 O 0.51107 0.16484 0.77601 0.0
O128 O 0.51539 0.08508 0.80462 0.0
H129 H 0.39096 0.09318 0.87518 0.0
H130 H 0.35046 0.14787 0.89677 0.0
C131 C 0.39362 0.13757 0.88596 0.0
H132 H 0.42826 0.1357 0.90288 0.0
H133 H 0.4703 -0.0027 0.85019 0.0
O134 O 0.51214 0.30583 0.77821 0.0
C135 C 0.50964 0.10846 0.77955 0.0
Co136 Co 0.76284 0.4772 0.67612 0.0
Co137 Co 0.85713 0.46956 0.62582 0.0
C138 C 0.76532 0.37351 0.6359 0.0
O139 O 0.742 0.4016 0.65707 0.0
O140 O 0.80959 0.39483 0.62192 0.0
C141 C 0.64668 0.48235 0.69918 0.0
O142 O 0.63306 0.47435 0.67171 0.0
C143 C 0.88827 0.46707 0.56459 0.0
C144 C 0.98249 0.49616 0.56425 0.0
C145 C 0.93528 0.48138 0.54615 0.0
N146 N 0.90647 0.47407 0.59214 0.0
N147 N 0.96332 0.49005 0.59186 0.0
C148 C 0.82652 0.44742 0.55647 0.0
H149 H 0.82112 0.39981 0.56255 0.0
H150 H 0.79286 0.4734 0.569 0.0
H151 H 0.81825 0.45133 0.53284 0.0
C152 C 0.74273 0.59579 0.65107 0.0
N153 N 0.76828 0.54141 0.65032 0.0
N154 N 0.80738 0.53897 0.62889 0.0
C155 C 0.80728 0.59204 0.61502 0.0
C156 C 0.76635 0.62958 0.6287 0.0
C157 C 0.70179 0.61714 0.67475 0.0
H158 H 0.71754 0.60057 0.69603 0.0
H159 H 0.65627 0.59925 0.67085 0.0
H160 H 0.69947 0.66671 0.67558 0.0
O161 O 0.83914 0.46676 0.69559 0.0
O162 O 0.90897 0.46427 0.66087 0.0
H163 H 0.89305 0.59944 0.59449 0.0
H164 H 0.83833 0.6525 0.58128 0.0
C165 C 0.84528 0.60624 0.58913 0.0
H166 H 0.8334 0.57538 0.57128 0.0
H167 H 0.98817 0.49951 0.61046 0.0
O168 O 0.70118 0.48953 0.70592 0.0
C169 C 0.89341 0.46295 0.68752 0.0
Co170 Co 0.02162 0.25474 0.91377 0.0
Co171 Co 0.02338 0.36659 0.87343 0.0
C172 C 0.1289 0.28328 0.88072 0.0
O173 O 0.10034 0.24587 0.89604 0.0
O174 O 0.10477 0.33124 0.87187 0.0
C175 C 0.03193 0.13515 0.9329 0.0
O176 O 0.0533 0.12747 0.90651 0.0
C177 C 0.02555 0.40229 0.81369 0.0
C178 C 0.00101 0.49781 0.81491 0.0
C179 C 0.01264 0.45056 0.79603 0.0
N180 N 0.02051 0.41973 0.8415 0.0
N181 N 0.00728 0.47726 0.8422 0.0
C182 C 0.04083 0.33969 0.80452 0.0
H183 H 0.07724 0.32202 0.81823 0.0
H184 H 0.00136 0.31031 0.80768 0.0
H185 H 0.05502 0.33797 0.7814 0.0
C186 C 0.91128 0.22917 0.88204 0.0
N187 N 0.96186 0.26063 0.88582 0.0
N188 N 0.96031 0.30924 0.86984 0.0
C189 C 0.9074 0.31111 0.85595 0.0
C190 C 0.87482 0.26034 0.86317 0.0
C191 C 0.8973 0.17193 0.89742 0.0
H192 H 0.93454 0.14 0.89403 0.0
H193 H 0.85546 0.15117 0.88934 0.0
H194 H 0.89321 0.18075 0.92109 0.0
O195 O 0.02131 0.32768 0.93839 0.0
O196 O 0.01521 0.40915 0.91071 0.0
H197 H 0.83511 0.36601 0.84008 0.0
H198 H 0.89987 0.36178 0.81697 0.0
C199 C 0.88469 0.36445 0.83986 0.0
H200 H 0.90247 0.40619 0.84966 0.0
H201 H -0.00035 0.50176 0.86126 0.0
O202 O 0.01088 0.18599 0.93989 0.0
C203 C 0.0172 0.38422 0.93548 0.0
Co204 Co 0.23151 0.51108 0.16436 0.0
Co205 Co 0.11964 0.50557 0.12437 0.0
C206 C 0.20695 0.60947 0.12436 0.0
O207 O 0.24346 0.58406 0.14132 0.0
O208 O 0.15775 0.58485 0.11743 0.0
C209 C 0.35093 0.5238 0.18553 0.0
O210 O 0.36273 0.54152 0.15895 0.0
C211 C 0.06921 0.51026 0.0666 0.0
C212 C 0.99033 0.45143 0.07026 0.0
C213 C 0.02527 0.48221 0.05033 0.0
N214 N 0.06194 0.49489 0.09456 0.0
N215 N 0.01354 0.46128 0.0968 0.0
C216 C 0.11903 0.54917 0.05574 0.0
H217 H 0.11533 0.59395 0.06607 0.0
H218 H 0.16262 0.52968 0.06211 0.0
H219 H 0.11723 0.55514 0.03185 0.0
C220 C 0.25316 0.39155 0.13945 0.0
N221 N 0.22246 0.4432 0.14082 0.0
N222 N 0.17611 0.44043 0.12338 0.0
C223 C 0.1765 0.38655 0.10995 0.0
C224 C 0.22542 0.35388 0.11958 0.0
C225 C 0.30353 0.37654 0.15942 0.0
H226 H 0.29192 0.39056 0.18188 0.0
H227 H 0.34401 0.4017 0.15265 0.0
H228 H 0.31345 0.32792 0.15935 0.0
O229 O 0.16052 0.52089 0.18923 0.0
O230 O 0.07879 0.50853 0.16266 0.0
H231 H 0.08819 0.35621 0.10032 0.0
H232 H 0.14511 0.32612 0.07629 0.0
C233 C 0.13046 0.36627 0.08863 0.0
H234 H 0.12185 0.40238 0.07304 0.0
H235 H -0.00114 0.44165 0.11609 0.0
O236 O 0.29887 0.5046 0.19142 0.0
C237 C 0.10394 0.5177 0.18703 0.0
Co238 Co 0.958 0.72933 0.42159 0.0
Co239 Co 0.9612 0.62789 0.37447 0.0
C240 C 0.86168 0.71852 0.37808 0.0
O241 O 0.8854 0.74595 0.39932 0.0
O242 O 0.88616 0.67261 0.36676 0.0
C243 C 0.9535 0.84745 0.44539 0.0
O244 O 0.94118 0.86229 0.41851 0.0
C245 C 0.97273 0.58905 0.31436 0.0
C246 C 0.99074 0.49242 0.3182 0.0
C247 C 0.98525 0.53818 0.2982 0.0
N248 N 0.97099 0.57428 0.34257 0.0
N249 N 0.98052 0.51612 0.34473 0.0
C250 C 0.96315 0.65108 0.30314 0.0
H251 H 0.96217 0.68406 0.32122 0.0
H252 H -0.00142 0.66343 0.28735 0.0
H253 H 0.92 0.65243 0.29139 0.0
C254 C 0.07961 0.75118 0.39908 0.0
N255 N 0.02665 0.72266 0.39803 0.0
N256 N 0.02893 0.68001 0.37823 0.0
C257 C 0.0839 0.68017 0.36601 0.0
C258 C 0.11759 0.72561 0.37866 0.0
C259 C 0.09515 0.79781 0.42124 0.0
H260 H 0.07975 0.78313 0.44301 0.0
H261 H 0.07175 0.84005 0.4159 0.0
H262 H 0.14398 0.80633 0.42198 0.0
O263 O 0.94562 0.65465 0.44284 0.0
O264 O 0.95214 0.58018 0.41068 0.0
H265 H 0.08818 0.59225 0.34718 0.0
H266 H 0.15214 0.63857 0.33879 0.0
C267 C 0.10321 0.6384 0.3423 0.0
H268 H 0.08231 0.65306 0.32184 0.0
H269 H 0.98236 0.49307 0.36437 0.0
O270 O 0.96543 0.79318 0.45101 0.0
C271 C 0.94505 0.59917 0.43659 0.0
C272 C 0.12048 0.02038 0.97375 0.0
C273 C 0.10536 0.03333 0.00282 0.0
C274 C 0.09187 0.04917 0.95079 0.0
C275 C 0.04728 0.0922 0.95607 0.0
H276 H 0.15764 0.99105 0.96867 0.0
H277 H 0.10842 0.04111 0.92897 0.0
S278 S 0.9803 0.13015 0.02771 0.0
N279 N 0.03466 0.08294 0.03529 0.0
N280 N 0.98092 0.13718 -0.00796 0.0
C281 C 0.02655 0.09982 0.98476 0.0
C282 C 0.05559 0.07028 0.00819 0.0
C283 C 0.37442 0.52346 0.23839 0.0
C284 C 0.39036 0.54079 0.21001 0.0
C285 C 0.39855 0.55234 0.26268 0.0
C286 C 0.43944 0.59968 0.25947 0.0
H287 H 0.33971 0.4904 0.24194 0.0
H288 H 0.38127 0.54055 0.28392 0.0
S289 S 0.50789 0.65101 0.1903 0.0
N290 N 0.45856 0.59996 0.18036 0.0
N291 N 0.50407 0.65416 0.22609 0.0
C292 C 0.46145 0.61215 0.23144 0.0
C293 C 0.43692 0.58262 0.20665 0.0
C294 C 0.95487 0.87145 0.49834 0.0
C295 C 0.94118 0.88915 0.46983 0.0
C296 C 0.93023 0.90107 0.5224 0.0
C297 C 0.89065 0.94929 0.51882 0.0
H298 H 0.98154 0.83185 0.50218 0.0
H299 H 0.93841 0.8827 0.54375 0.0
S300 S 0.85256 0.02257 0.44916 0.0
N301 N 0.89475 0.96511 0.43965 0.0
N302 N 0.84828 0.0207 0.48494 0.0
C303 C 0.8825 0.97196 0.49064 0.0
C304 C 0.90782 0.94189 0.4661 0.0
C305 C 0.62059 0.47406 0.75162 0.0
C306 C 0.60344 0.46715 0.7224 0.0
C307 C 0.59104 0.44309 0.77378 0.0
C308 C 0.54359 0.40403 0.76738 0.0
H309 H 0.66018 0.49952 0.7572 0.0
H310 H 0.6093 0.44546 0.7955 0.0
S311 S 0.47041 0.38423 0.69589 0.0
N312 N 0.52759 0.42903 0.68931 0.0
N313 N 0.47231 0.37051 0.73108 0.0
C314 C 0.52078 0.40341 0.73899 0.0
C315 C 0.55065 0.43519 0.71642 0.0
C316 C 0.46519 0.07314 0.96116 0.0
C317 C 0.49074 0.0222 0.94797 0.0
C318 C 0.43863 0.07001 -0.01139 0.0
C319 C 0.43732 0.01612 0.00401 0.0
H320 H 0.46194 0.11494 0.94956 0.0
H321 H 0.41624 0.10929 -0.00276 0.0
S322 S 0.50119 0.8711 0.98036 0.0
N323 N 0.51554 0.91697 0.95312 0.0
N324 N 0.46614 0.91152 0.00529 0.0
C325 C 0.46541 0.96566 -0.008 0.0
C326 C 0.49188 0.96858 0.96377 0.0
C327 C 0.48791 0.96467 0.24856 0.0
C328 C 0.44321 0.92431 0.25735 0.0
C329 C 0.48856 0.9876 0.22022 0.0
C330 C 0.44367 0.972 0.20031 0.0
H331 H 0.52448 0.97553 0.263 0.0
H332 H 0.52534 0.01603 0.21353 0.0
S333 S 0.31459 0.87111 0.21401 0.0
N334 N 0.35173 0.87205 0.24489 0.0
N335 N 0.35196 0.91577 0.19198 0.0
C336 C 0.39709 0.93412 0.20955 0.0
C337 C 0.39707 0.91017 0.23807 0.0
C338 C 0.50087 0.99296 0.47313 0.0
C339 C 0.52257 0.95322 0.45181 0.0
C340 C 0.52549 0.99393 0.50113 0.0
C341 C 0.57353 0.95633 0.50818 0.0
H342 H 0.46514 0.02379 0.46802 0.0
H343 H 0.50868 0.02597 0.51689 0.0
S344 S 0.6459 0.84374 0.46038 0.0
N345 N 0.59391 0.87453 0.44005 0.0
N346 N 0.64057 0.87728 0.49228 0.0
C347 C 0.59481 0.91583 0.48725 0.0
C348 C 0.56927 0.9141 0.45909 0.0
C349 C 0.4733 0.09655 0.72904 0.0
C350 C 0.50089 0.07089 0.75342 0.0
C351 C 0.471 0.06633 0.7025 0.0
C352 C 0.49657 0.00944 0.69922 0.0
H353 H 0.45495 0.14136 0.73013 0.0
H354 H 0.45215 0.08926 0.68399 0.0
S355 S 0.56645 0.91881 0.75704 0.0
N356 N 0.54879 0.98249 0.77331 0.0
N357 N 0.5441 0.92534 0.72305 0.0
C358 C 0.52067 0.98137 0.72376 0.0
C359 C 0.5228 0.01214 0.751 0.0
C360 C 0.95867 0.40143 0.75526 0.0
C361 C 0.9949 0.44875 0.76516 0.0
C362 C 0.93049 0.40407 0.72836 0.0
C363 C 0.93756 0.45396 0.71036 0.0
H364 H 0.94784 0.36405 0.76913 0.0
H365 H 0.89958 0.36867 0.72248 0.0
S366 S 0.03118 0.58732 0.72476 0.0
N367 N 0.03958 0.54517 0.75387 0.0
N368 N 0.98597 0.54993 0.70292 0.0
C369 C 0.97645 0.49989 0.71893 0.0
C370 C 0.00509 0.49743 0.74654 0.0
C371 C 0.97125 0.4469 0.97442 0.0
C372 C 0.02208 0.4207 0.96175 0.0
C373 C 0.97344 0.47016 0.00279 0.0
C374 C 0.02663 0.46839 0.01895 0.0
H375 H 0.92898 0.44624 0.96305 0.0
H376 H 0.9328 0.4874 0.01258 0.0
S377 S 0.17184 0.40464 -0.00559 0.0
N378 N 0.12675 0.39532 0.9665 0.0
N379 N 0.13136 0.43832 0.01965 0.0
C380 C 0.07823 0.44417 0.00579 0.0
C381 C 0.07578 0.42048 0.97714 0.0
C382 C 0.09189 0.56218 0.23601 0.0
C383 C 0.06826 0.52607 0.21375 0.0
C384 C 0.06327 0.56719 0.26285 0.0
C385 C 0.0099 0.53639 0.26855 0.0
H386 H 0.13363 0.58603 0.23289 0.0
H387 H 0.08437 0.59376 0.2796 0.0
S388 S 0.92858 0.43692 0.21775 0.0
N389 N 0.98735 0.45992 0.19895 0.0
N390 N 0.93367 0.46911 0.25005 0.0
C391 C 0.98495 0.50088 0.24651 0.0
C392 C 0.01391 0.49611 0.21886 0.0
C393 C 0.88918 0.56839 0.48024 0.0
C394 C 0.93614 0.55735 0.46067 0.0
C395 C 0.88675 0.53969 0.50707 0.0
C396 C 0.9316 0.49935 0.51541 0.0
H397 H 0.85579 0.60197 0.47542 0.0
H398 H 0.8517 0.55259 0.52207 0.0
S399 S 0.06185 0.45216 0.47096 0.0
N400 N 0.02629 0.50064 0.45028 0.0
N401 N 0.02243 0.44711 0.50131 0.0
C402 C 0.97722 0.48562 0.49541 0.0
C403 C 0.97918 0.51433 0.46778 0.0
C404 C 0.27919 0.68605 0.10627 0.0
C405 C 0.22041 0.67039 0.11402 0.0
C406 C 0.29357 0.74475 0.09818 0.0
C407 C 0.25007 0.79014 0.09849 0.0
H408 H 0.31426 0.65266 0.10642 0.0
H409 H 0.3392 0.75473 0.09192 0.0
S410 S 0.09016 0.77252 0.11817 0.0
N411 N 0.11834 0.7046 0.12129 0.0
N412 N 0.14618 0.81569 0.10775 0.0
C413 C 0.19114 0.77496 0.10612 0.0
C414 C 0.17613 0.71489 0.11355 0.0
C415 C 0.76129 0.76158 0.38857 0.0
C416 C 0.80179 0.73708 0.36831 0.0
C417 C 0.70256 0.77507 0.38069 0.0
C418 C 0.68243 0.76531 0.35222 0.0
H419 H 0.77439 0.7686 0.41096 0.0
H420 H 0.67226 0.79205 0.39718 0.0
S421 S 0.77309 0.70991 0.29011 0.0
N422 N 0.819 0.70774 0.31807 0.0
N423 N 0.70907 0.73581 0.30296 0.0
C424 C 0.72309 0.74345 0.33142 0.0
C425 C 0.7827 0.72865 0.33955 0.0
C426 C 0.73213 0.23214 0.59347 0.0
C427 C 0.71411 0.19207 0.61528 0.0
C428 C 0.74729 0.29133 0.6002 0.0
C429 C 0.74371 0.3128 0.62887 0.0
H430 H 0.73547 0.21737 0.57109 0.0
H431 H 0.76226 0.32029 0.58285 0.0
S432 S 0.69713 0.22594 0.69373 0.0
N433 N 0.69289 0.17769 0.66655 0.0
N434 N 0.71904 0.28978 0.67918 0.0
C435 C 0.7234 0.27376 0.65073 0.0
C436 C 0.70905 0.21315 0.64392 0.0
C437 C 0.27051 0.20111 0.86066 0.0
C438 C 0.31425 0.24603 0.86303 0.0
C439 C 0.21039 0.21351 0.86655 0.0
C440 C 0.19201 0.27163 0.87407 0.0
H441 H 0.28271 0.15625 0.8539 0.0
H442 H 0.17794 0.17766 0.86472 0.0
S443 S 0.28945 0.40436 0.88394 0.0
N444 N 0.33571 0.35003 0.8745 0.0
N445 N 0.22201 0.37417 0.88426 0.0
C446 C 0.2352 0.31702 0.87632 0.0
C447 C 0.29657 0.30401 0.87107 0.0
C448 C 0.69247 0.7091 0.61772 0.0
C449 C 0.75219 0.69241 0.62217 0.0
C450 C 0.67746 0.76842 0.61156 0.0
C451 C 0.72187 0.81273 0.6093 0.0
H452 H 0.65721 0.67586 0.61867 0.0
H453 H 0.63101 0.77921 0.60762 0.0
S454 S 0.8841 0.79279 0.62229 0.0
N455 N 0.85522 0.72539 0.62679 0.0
N456 N 0.8275 0.83673 0.6139 0.0
C457 C 0.78164 0.7968 0.61445 0.0
C458 C 0.79671 0.7366 0.62122 0.0
C459 C 0.73313 0.22994 0.82104 0.0
C460 C 0.69089 0.22048 0.84327 0.0
C461 C 0.79279 0.24329 0.82762 0.0
C462 C 0.81159 0.24803 0.85659 0.0
H463 H 0.72018 0.22586 0.79847 0.0
H464 H 0.82456 0.24917 0.81002 0.0
S465 S 0.71607 0.23694 0.92234 0.0
N466 N 0.67042 0.22282 0.89507 0.0
N467 N 0.7823 0.24902 0.90749 0.0
C468 C 0.76919 0.24138 0.87892 0.0
C469 C 0.70878 0.2272 0.87223 0.0
C470 C 0.19905 0.24583 0.11226 0.0
C471 C 0.24221 0.29169 0.11172 0.0
C472 C 0.21371 0.18708 0.10414 0.0
C473 C 0.27243 0.1719 0.0961 0.0
H474 H 0.15358 0.25543 0.11896 0.0
H475 H 0.17904 0.15318 0.10441 0.0
S476 S 0.40133 0.27556 0.09023 0.0
N477 N 0.34534 0.31835 0.10111 0.0
N478 N 0.37373 0.20717 0.08761 0.0
C479 C 0.31618 0.21702 0.09589 0.0
C480 C 0.30087 0.27711 0.10332 0.0
C481 C 0.28463 0.71368 0.36558 0.0
C482 C 0.30024 0.77223 0.35745 0.0
C483 C 0.22573 0.69929 0.37335 0.0
C484 C 0.1802 0.74246 0.37227 0.0
H485 H 0.31815 0.67874 0.36585 0.0
H486 H 0.21558 0.65386 0.37986 0.0
S487 S 0.19772 0.90191 0.35211 0.0
N488 N 0.26583 0.87395 0.34942 0.0
N489 N 0.15448 0.846 0.3626 0.0
C490 C 0.19534 0.80128 0.36456 0.0
C491 C 0.25555 0.81636 0.35741 0.0
loop_
_geom_bond_atom_site_label_1
_geom_bond_atom_site_label_2
_geom_bond_distance
_geom_bond_site_symmetry_2
_ccdc_geom_bond_type
Co0 O3 1.970 . S
Co0 N17 1.993 . S
Co0 O25 1.967 . S
Co0 O32 1.920 . S
Co1 O4 1.966 . S
Co1 N10 2.022 . S
Co1 N18 1.993 1_545 S
Co1 O26 1.941 . S
C2 O3 1.258 . S
C2 O4 1.263 . S
O3 Co0 1.970 . S
O3 C2 1.258 . S
O4 Co1 1.966 . S
O4 C2 1.263 . S
C5 O6 1.235 . S
C5 O32 1.289 . S
O6 C5 1.235 . S
C7 C9 1.400 1_545 S
C7 N10 1.351 . S
C7 C12 1.501 . S
C8 C9 1.387 . S
C8 N11 1.341 . S
C9 C7 1.400 1_565 S
C9 C8 1.387 . S
N10 Co1 2.022 . S
N10 C7 1.351 . S
N10 N11 1.365 1_545 S
N11 C8 1.341 . S
N11 N10 1.365 1_565 S
N11 H31 0.862 . S
C12 C7 1.501 . S
C12 H13 0.961 . S
C12 H14 0.961 . S
C12 H15 0.960 . S
H13 C12 0.961 . S
H14 C12 0.961 . S
H15 C12 0.960 . S
C16 N17 1.338 1_565 S
C16 C20 1.401 . S
C16 C21 1.499 . S
N17 Co0 1.993 . S
N17 C16 1.338 1_545 S
N17 N18 1.387 1_545 S
N18 Co1 1.993 1_565 S
N18 N17 1.387 1_565 S
N18 C19 1.346 . S
C19 N18 1.346 . S
C19 C20 1.396 . S
C19 C29 1.510 . S
C20 C16 1.401 . S
C20 C19 1.396 . S
C21 C16 1.499 . S
C21 H22 0.959 . S
C21 H23 0.960 . S
C21 H24 0.961 . S
H22 C21 0.959 . S
H23 C21 0.960 . S
H24 C21 0.961 . S
O25 Co0 1.967 . S
O25 C33 1.258 . S
O26 Co1 1.941 . S
O26 C33 1.266 . S
H27 C29 0.959 . S
H28 C29 0.961 . S
C29 C19 1.510 . S
C29 H27 0.959 . S
C29 H28 0.961 . S
C29 H30 0.960 . S
H30 C29 0.960 . S
H31 N11 0.862 . S
O32 Co0 1.920 . S
O32 C5 1.289 . S
C33 O25 1.258 . S
C33 O26 1.266 . S
Co34 O37 1.970 . S
Co34 N51 1.989 . S
Co34 O59 1.967 . S
Co34 O66 1.920 . S
Co35 O38 1.966 . S
Co35 N44 2.022 . S
Co35 N52 1.993 . S
Co35 O60 1.941 . S
C36 O37 1.258 . S
C36 O38 1.263 . S
O37 Co34 1.970 . S
O37 C36 1.258 . S
O38 Co35 1.966 . S
O38 C36 1.263 . S
C39 O40 1.235 . S
C39 O66 1.289 . S
O40 C39 1.235 . S
C41 C43 1.400 . S
C41 N44 1.351 . S
C41 C46 1.501 . S
C42 C43 1.387 . S
C42 N45 1.341 . S
C43 C41 1.400 . S
C43 C42 1.387 . S
N44 Co35 2.022 . S
N44 C41 1.351 . S
N44 N45 1.365 . S
N45 C42 1.341 . S
N45 N44 1.365 . S
N45 H65 0.862 . S
C46 C41 1.501 . S
C46 H47 0.961 . S
C46 H48 0.961 . S
C46 H49 0.960 . S
H47 C46 0.961 . S
H48 C46 0.961 . S
H49 C46 0.960 . S
C50 N51 1.342 . S
C50 C54 1.401 . S
C50 C55 1.499 . S
N51 Co34 1.989 . S
N51 C50 1.342 . S
N51 N52 1.388 . S
N52 Co35 1.993 . S
N52 N51 1.388 . S
N52 C53 1.346 . S
C53 N52 1.346 . S
C53 C54 1.396 . S
C53 C63 1.510 . S
C54 C50 1.401 . S
C54 C53 1.396 . S
C55 C50 1.499 . S
C55 H56 0.959 . S
C55 H57 0.960 . S
C55 H58 0.961 . S
H56 C55 0.959 . S
H57 C55 0.960 . S
H58 C55 0.961 . S
O59 Co34 1.967 . S
O59 C67 1.258 . S
O60 Co35 1.941 . S
O60 C67 1.266 . S
H61 C63 0.959 . S
H62 C63 0.961 . S
C63 C53 1.510 . S
C63 H61 0.959 . S
C63 H62 0.961 . S
C63 H64 0.960 . S
H64 C63 0.960 . S
H65 N45 0.862 . S
O66 Co34 1.920 . S
O66 C39 1.289 . S
C67 O59 1.258 . S
C67 O60 1.266 . S
Co68 O71 1.970 . S
Co68 N85 1.989 . S
Co68 O93 1.967 . S
Co68 O100 1.920 . S
Co69 O72 1.966 . S
Co69 N78 2.022 . S
Co69 N86 1.993 1_565 S
Co69 O94 1.941 . S
C70 O71 1.258 . S
C70 O72 1.263 . S
O71 Co68 1.970 . S
O71 C70 1.258 . S
O72 Co69 1.966 . S
O72 C70 1.263 . S
C73 O74 1.235 . S
C73 O100 1.289 . S
O74 C73 1.235 . S
C75 C77 1.400 1_565 S
C75 N78 1.351 . S
C75 C80 1.501 . S
C76 C77 1.387 . S
C76 N79 1.341 . S
C77 C75 1.400 1_545 S
C77 C76 1.387 . S
N78 Co69 2.022 . S
N78 C75 1.351 . S
N78 N79 1.365 1_565 S
N79 C76 1.341 . S
N79 N78 1.365 1_545 S
N79 H99 0.862 . S
C80 C75 1.501 . S
C80 H81 0.961 . S
C80 H82 0.961 . S
C80 H83 0.960 . S
H81 C80 0.961 . S
H82 C80 0.961 . S
H83 C80 0.960 . S
C84 N85 1.342 1_545 S
C84 C88 1.401 . S
C84 C89 1.499 . S
N85 Co68 1.989 . S
N85 C84 1.342 1_565 S
N85 N86 1.388 1_565 S
N86 Co69 1.993 1_545 S
N86 N85 1.388 1_545 S
N86 C87 1.346 . S
C87 N86 1.346 . S
C87 C88 1.396 . S
C87 C97 1.510 . S
C88 C84 1.401 . S
C88 C87 1.396 . S
C89 C84 1.499 . S
C89 H90 0.959 . S
C89 H91 0.960 . S
C89 H92 0.961 . S
H90 C89 0.959 . S
H91 C89 0.960 . S
H92 C89 0.961 . S
O93 Co68 1.967 . S
O93 C101 1.258 . S
O94 Co69 1.941 . S
O94 C101 1.266 . S
H95 C97 0.959 . S
H96 C97 0.961 . S
C97 C87 1.510 . S
C97 H95 0.959 . S
C97 H96 0.961 . S
C97 H98 0.960 . S
H98 C97 0.960 . S
H99 N79 0.862 . S
O100 Co68 1.920 . S
O100 C73 1.289 . S
C101 O93 1.258 . S
C101 O94 1.266 . S
Co102 O105 1.970 . S
Co102 N119 1.989 . S
Co102 O127 1.967 . S
Co102 O134 1.920 . S
Co103 O106 1.966 . S
Co103 N112 2.022 . S
Co103 N120 1.993 . S
Co103 O128 1.941 . S
C104 O105 1.258 . S
C104 O106 1.263 . S
O105 Co102 1.970 . S
O105 C104 1.258 . S
O106 Co103 1.966 . S
O106 C104 1.263 . S
C107 O108 1.235 . S
C107 O134 1.289 . S
O108 C107 1.235 . S
C109 C111 1.400 . S
C109 N112 1.351 . S
C109 C114 1.501 . S
C110 C111 1.387 . S
C110 N113 1.341 . S
C111 C109 1.400 . S
C111 C110 1.387 . S
N112 Co103 2.022 . S
N112 C109 1.351 . S
N112 N113 1.365 . S
N113 C110 1.341 . S
N113 N112 1.365 . S
N113 H133 0.862 . S
C114 C109 1.501 . S
C114 H115 0.961 . S
C114 H116 0.961 . S
C114 H117 0.960 . S
H115 C114 0.961 . S
H116 C114 0.961 . S
H117 C114 0.960 . S
C118 N119 1.342 . S
C118 C122 1.401 . S
C118 C123 1.499 . S
N119 Co102 1.989 . S
N119 C118 1.342 . S
N119 N120 1.388 . S
N120 Co103 1.993 . S
N120 N119 1.388 . S
N120 C121 1.346 . S
C121 N120 1.346 . S
C121 C122 1.396 . S
C121 C131 1.510 . S
C122 C118 1.401 . S
C122 C121 1.396 . S
C123 C118 1.499 . S
C123 H124 0.959 . S
C123 H125 0.960 . S
C123 H126 0.961 . S
H124 C123 0.959 . S
H125 C123 0.960 . S
H126 C123 0.961 . S
O127 Co102 1.967 . S
O127 C135 1.258 . S
O128 Co103 1.941 . S
O128 C135 1.266 . S
H129 C131 0.959 . S
H130 C131 0.961 . S
C131 C121 1.510 . S
C131 H129 0.959 . S
C131 H130 0.961 . S
C131 H132 0.960 . S
H132 C131 0.960 . S
H133 N113 0.862 . S
O134 Co102 1.920 . S
O134 C107 1.289 . S
C135 O127 1.258 . S
C135 O128 1.266 . S
Co136 O139 1.970 . S
Co136 N153 1.989 . S
Co136 O161 1.967 . S
Co136 O168 1.920 . S
Co137 O140 1.966 . S
Co137 N146 2.022 . S
Co137 N154 1.993 . S
Co137 O162 1.941 . S
C138 O139 1.258 . S
C138 O140 1.263 . S
O139 Co136 1.970 . S
O139 C138 1.258 . S
O140 Co137 1.966 . S
O140 C138 1.263 . S
C141 O142 1.235 . S
C141 O168 1.289 . S
O142 C141 1.235 . S
C143 C145 1.400 . S
C143 N146 1.351 . S
C143 C148 1.501 . S
C144 C145 1.387 . S
C144 N147 1.341 . S
C145 C143 1.400 . S
C145 C144 1.387 . S
N146 Co137 2.022 . S
N146 C143 1.351 . S
N146 N147 1.365 . S
N147 C144 1.341 . S
N147 N146 1.365 . S
N147 H167 0.862 . S
C148 C143 1.501 . S
C148 H149 0.961 . S
C148 H150 0.961 . S
C148 H151 0.960 . S
H149 C148 0.961 . S
H150 C148 0.961 . S
H151 C148 0.960 . S
C152 N153 1.342 . S
C152 C156 1.401 . S
C152 C157 1.499 . S
N153 Co136 1.989 . S
N153 C152 1.342 . S
N153 N154 1.388 . S
N154 Co137 1.993 . S
N154 N153 1.388 . S
N154 C155 1.346 . S
C155 N154 1.346 . S
C155 C156 1.396 . S
C155 C165 1.510 . S
C156 C152 1.401 . S
C156 C155 1.396 . S
C157 C152 1.499 . S
C157 H158 0.959 . S
C157 H159 0.960 . S
C157 H160 0.961 . S
H158 C157 0.959 . S
H159 C157 0.960 . S
H160 C157 0.961 . S
O161 Co136 1.967 . S
O161 C169 1.258 . S
O162 Co137 1.941 . S
O162 C169 1.266 . S
H163 C165 0.959 . S
H164 C165 0.961 . S
C165 C155 1.510 . S
C165 H163 0.959 . S
C165 H164 0.961 . S
C165 H166 0.960 . S
H166 C165 0.960 . S
H167 N147 0.862 . S
O168 Co136 1.920 . S
O168 C141 1.289 . S
C169 O161 1.258 . S
C169 O162 1.266 . S
Co170 O173 1.970 . S
Co170 N187 1.993 . S
Co170 O195 1.967 . S
Co170 O202 1.920 . S
Co171 O174 1.966 . S
Co171 N180 2.022 . S
Co171 N188 1.993 1_455 S
Co171 O196 1.941 . S
C172 O173 1.258 . S
C172 O174 1.263 . S
O173 Co170 1.970 . S
O173 C172 1.258 . S
O174 Co171 1.966 . S
O174 C172 1.263 . S
C175 O176 1.235 . S
C175 O202 1.289 . S
O176 C175 1.235 . S
C177 C179 1.400 1_455 S
C177 N180 1.351 . S
C177 C182 1.501 . S
C178 C179 1.387 . S
C178 N181 1.341 . S
C179 C177 1.400 1_655 S
C179 C178 1.387 . S
N180 Co171 2.022 . S
N180 C177 1.351 . S
N180 N181 1.365 1_455 S
N181 C178 1.341 . S
N181 N180 1.365 1_655 S
N181 H201 0.862 . S
C182 C177 1.501 . S
C182 H183 0.961 . S
C182 H184 0.961 . S
C182 H185 0.960 . S
H183 C182 0.961 . S
H184 C182 0.961 . S
H185 C182 0.960 . S
C186 N187 1.338 1_655 S
C186 C190 1.401 . S
C186 C191 1.499 . S
N187 Co170 1.993 . S
N187 C186 1.338 1_455 S
N187 N188 1.387 1_455 S
N188 Co171 1.993 1_655 S
N188 N187 1.387 1_655 S
N188 C189 1.346 . S
C189 N188 1.346 . S
C189 C190 1.396 . S
C189 C199 1.510 . S
C190 C186 1.401 . S
C190 C189 1.396 . S
C191 C186 1.499 . S
C191 H192 0.959 . S
C191 H193 0.960 . S
C191 H194 0.961 . S
H192 C191 0.959 . S
H193 C191 0.960 . S
H194 C191 0.961 . S
O195 Co170 1.967 . S
O195 C203 1.258 . S
O196 Co171 1.941 . S
O196 C203 1.266 . S
H197 C199 0.959 . S
H198 C199 0.961 . S
C199 C189 1.510 . S
C199 H197 0.959 . S
C199 H198 0.961 . S
C199 H200 0.960 . S
H200 C199 0.960 . S
H201 N181 0.862 . S
O202 Co170 1.920 . S
O202 C175 1.289 . S
C203 O195 1.258 . S
C203 O196 1.266 . S
Co204 O207 1.970 . S
Co204 N221 1.989 . S
Co204 O229 1.967 . S
Co204 O236 1.920 . S
Co205 O208 1.966 . S
Co205 N214 2.022 . S
Co205 N222 1.993 . S
Co205 O230 1.941 . S
C206 O207 1.258 . S
C206 O208 1.263 . S
O207 Co204 1.970 . S
O207 C206 1.258 . S
O208 Co205 1.966 . S
O208 C206 1.263 . S
C209 O210 1.235 . S
C209 O236 1.289 . S
O210 C209 1.235 . S
C211 C213 1.400 . S
C211 N214 1.351 . S
C211 C216 1.501 . S
C212 C213 1.387 . S
C212 N215 1.341 . S
C213 C211 1.400 . S
C213 C212 1.387 . S
N214 Co205 2.022 . S
N214 C211 1.351 . S
N214 N215 1.365 . S
N215 C212 1.341 . S
N215 N214 1.365 . S
N215 H235 0.862 . S
C216 C211 1.501 . S
C216 H217 0.961 . S
C216 H218 0.961 . S
C216 H219 0.960 . S
H217 C216 0.961 . S
H218 C216 0.961 . S
H219 C216 0.960 . S
C220 N221 1.342 . S
C220 C224 1.401 . S
C220 C225 1.499 . S
N221 Co204 1.989 . S
N221 C220 1.342 . S
N221 N222 1.388 . S
N222 Co205 1.993 . S
N222 N221 1.388 . S
N222 C223 1.346 . S
C223 N222 1.346 . S
C223 C224 1.396 . S
C223 C233 1.510 . S
C224 C220 1.401 . S
C224 C223 1.396 . S
C225 C220 1.499 . S
C225 H226 0.959 . S
C225 H227 0.960 . S
C225 H228 0.961 . S
H226 C225 0.959 . S
H227 C225 0.960 . S
H228 C225 0.961 . S
O229 Co204 1.967 . S
O229 C237 1.258 . S
O230 Co205 1.941 . S
O230 C237 1.266 . S
H231 C233 0.959 . S
H232 C233 0.961 . S
C233 C223 1.510 . S
C233 H231 0.959 . S
C233 H232 0.961 . S
C233 H234 0.960 . S
H234 C233 0.960 . S
H235 N215 0.862 . S
O236 Co204 1.920 . S
O236 C209 1.289 . S
C237 O229 1.258 . S
C237 O230 1.266 . S
Co238 O241 1.970 . S
Co238 N255 1.989 . S
Co238 O263 1.967 . S
Co238 O270 1.920 . S
Co239 O242 1.966 . S
Co239 N248 2.022 . S
Co239 N256 1.993 1_655 S
Co239 O264 1.941 . S
C240 O241 1.258 . S
C240 O242 1.263 . S
O241 Co238 1.970 . S
O241 C240 1.258 . S
O242 Co239 1.966 . S
O242 C240 1.263 . S
C243 O244 1.235 . S
C243 O270 1.289 . S
O244 C243 1.235 . S
C245 C247 1.400 1_655 S
C245 N248 1.351 . S
C245 C250 1.501 . S
C246 C247 1.387 . S
C246 N249 1.341 . S
C247 C245 1.400 1_455 S
C247 C246 1.387 . S
N248 Co239 2.022 . S
N248 C245 1.351 . S
N248 N249 1.365 1_655 S
N249 C246 1.341 . S
N249 N248 1.365 1_455 S
N249 H269 0.862 . S
C250 C245 1.501 . S
C250 H251 0.961 . S
C250 H252 0.961 . S
C250 H253 0.960 . S
H251 C250 0.961 . S
H252 C250 0.961 . S
H253 C250 0.960 . S
C254 N255 1.342 1_455 S
C254 C258 1.401 . S
C254 C259 1.499 . S
N255 Co238 1.989 . S
N255 C254 1.342 1_655 S
N255 N256 1.388 1_655 S
N256 Co239 1.993 1_455 S
N256 N255 1.388 1_455 S
N256 C257 1.346 . S
C257 N256 1.346 . S
C257 C258 1.396 . S
C257 C267 1.510 . S
C258 C254 1.401 . S
C258 C257 1.396 . S
C259 C254 1.499 . S
C259 H260 0.959 . S
C259 H261 0.960 . S
C259 H262 0.961 . S
H260 C259 0.959 . S
H261 C259 0.960 . S
H262 C259 0.961 . S
O263 Co238 1.967 . S
O263 C271 1.258 . S
O264 Co239 1.941 . S
O264 C271 1.266 . S
H265 C267 0.959 . S
H266 C267 0.961 . S
C267 C257 1.510 . S
C267 H265 0.959 . S
C267 H266 0.961 . S
C267 H268 0.960 . S
H268 C267 0.960 . S
H269 N249 0.862 . S
O270 Co238 1.920 . S
O270 C243 1.289 . S
C271 O263 1.258 . S
C271 O264 1.266 . S
C272 C273 1.369 . S
C272 C274 1.419 1_554 S
C272 H276 0.930 . S
C273 C272 1.369 . S
C273 C282 1.429 . S
C274 C272 1.419 1_556 S
C274 C275 1.363 . S
C274 H277 0.929 . S
C275 C274 1.363 . S
C275 C281 1.428 . S
H276 C272 0.930 . S
H277 C274 0.929 . S
S278 N279 1.613 . S
S278 N280 1.610 1_554 S
N279 S278 1.613 . S
N279 C282 1.350 . S
N280 S278 1.610 1_556 S
N280 C281 1.351 . S
C281 C275 1.428 . S
C281 N280 1.351 . S
C281 C282 1.434 1_556 S
C282 C273 1.429 . S
C282 N279 1.350 . S
C282 C281 1.434 1_554 S
C283 C284 1.369 . S
C283 C285 1.419 . S
C283 H287 0.930 . S
C284 C283 1.369 . S
C284 C293 1.429 . S
C285 C283 1.419 . S
C285 C286 1.363 . S
C285 H288 0.929 . S
C286 C285 1.363 . S
C286 C292 1.428 . S
H287 C283 0.930 . S
H288 C285 0.929 . S
S289 N290 1.613 . S
S289 N291 1.610 . S
N290 S289 1.613 . S
N290 C293 1.350 . S
N291 S289 1.610 . S
N291 C292 1.351 . S
C292 C286 1.428 . S
C292 N291 1.351 . S
C292 C293 1.434 . S
C293 C284 1.429 . S
C293 N290 1.350 . S
C293 C292 1.434 . S
C294 C295 1.369 . S
C294 C296 1.419 . S
C294 H298 0.930 . S
C295 C294 1.369 . S
C295 C304 1.429 . S
C296 C294 1.419 . S
C296 C297 1.363 . S
C296 H299 0.929 . S
C297 C296 1.363 . S
C297 C303 1.428 . S
H298 C294 0.930 . S
H299 C296 0.929 . S
S300 N301 1.613 . S
S300 N302 1.610 . S
N301 S300 1.613 . S
N301 C304 1.350 . S
N302 S300 1.610 . S
N302 C303 1.351 . S
C303 C297 1.428 . S
C303 N302 1.351 . S
C303 C304 1.434 . S
C304 C295 1.429 . S
C304 N301 1.350 . S
C304 C303 1.434 . S
C305 C306 1.369 . S
C305 C307 1.419 . S
C305 H309 0.930 . S
C306 C305 1.369 . S
C306 C315 1.429 . S
C307 C305 1.419 . S
C307 C308 1.363 . S
C307 H310 0.929 . S
C308 C307 1.363 . S
C308 C314 1.428 . S
H309 C305 0.930 . S
H310 C307 0.929 . S
S311 N312 1.613 . S
S311 N313 1.610 . S
N312 S311 1.613 . S
N312 C315 1.350 . S
N313 S311 1.610 . S
N313 C314 1.351 . S
C314 C308 1.428 . S
C314 N313 1.351 . S
C314 C315 1.434 . S
C315 C306 1.429 . S
C315 N312 1.350 . S
C315 C314 1.434 . S
C316 C317 1.369 1_554 S
C316 C318 1.419 . S
C316 H320 0.930 1_554 S
C317 C316 1.369 1_556 S
C317 C326 1.429 1_556 S
C318 C316 1.419 . S
C318 C319 1.363 . S
C318 H321 0.929 . S
C319 C318 1.363 . S
C319 C325 1.428 . S
H320 C316 0.930 1_556 S
H321 C318 0.929 . S
S322 N323 1.613 . S
S322 N324 1.610 . S
N323 S322 1.613 . S
N323 C326 1.350 1_565 S
N324 S322 1.610 . S
N324 C325 1.351 1_565 S
C325 C319 1.428 . S
C325 N324 1.351 1_545 S
C325 C326 1.434 . S
C326 C317 1.429 1_554 S
C326 N323 1.350 1_545 S
C326 C325 1.434 . S
C327 C328 1.369 . S
C327 C329 1.419 1_565 S
C327 H331 0.930 1_565 S
C328 C327 1.369 . S
C328 C337 1.429 . S
C329 C327 1.419 1_545 S
C329 C330 1.363 1_545 S
C329 H332 0.929 . S
C330 C329 1.363 1_565 S
C330 C336 1.428 . S
H331 C327 0.930 1_545 S
H332 C329 0.929 . S
S333 N334 1.613 . S
S333 N335 1.610 . S
N334 S333 1.613 . S
N334 C337 1.350 . S
N335 S333 1.610 . S
N335 C336 1.351 . S
C336 C330 1.428 . S
C336 N335 1.351 . S
C336 C337 1.434 . S
C337 C328 1.429 . S
C337 N334 1.350 . S
C337 C336 1.434 . S
C338 C339 1.369 . S
C338 C340 1.419 . S
C338 H342 0.930 . S
C339 C338 1.369 . S
C339 C348 1.429 . S
C340 C338 1.419 . S
C340 C341 1.363 . S
C340 H343 0.929 . S
C341 C340 1.363 . S
C341 C347 1.428 . S
H342 C338 0.930 . S
H343 C340 0.929 . S
S344 N345 1.613 . S
S344 N346 1.610 . S
N345 S344 1.613 . S
N345 C348 1.350 . S
N346 S344 1.610 . S
N346 C347 1.351 . S
C347 C341 1.428 . S
C347 N346 1.351 . S
C347 C348 1.434 . S
C348 C339 1.429 . S
C348 N345 1.350 . S
C348 C347 1.434 . S
C349 C350 1.369 . S
C349 C351 1.419 . S
C349 H353 0.930 . S
C350 C349 1.369 . S
C350 C359 1.429 1_545 S
C351 C349 1.419 . S
C351 C352 1.363 . S
C351 H354 0.929 . S
C352 C351 1.363 . S
C352 C358 1.428 1_545 S
H353 C349 0.930 . S
H354 C351 0.929 . S
S355 N356 1.613 . S
S355 N357 1.610 . S
N356 S355 1.613 . S
N356 C359 1.350 . S
N357 S355 1.610 . S
N357 C358 1.351 . S
C358 C352 1.428 1_565 S
C358 N357 1.351 . S
C358 C359 1.434 . S
C359 C350 1.429 1_565 S
C359 N356 1.350 . S
C359 C358 1.434 . S
C360 C361 1.369 . S
C360 C362 1.419 . S
C360 H364 0.930 . S
C361 C360 1.369 . S
C361 C370 1.429 1_655 S
C362 C360 1.419 . S
C362 C363 1.363 . S
C362 H365 0.929 . S
C363 C362 1.363 . S
C363 C369 1.428 . S
H364 C360 0.930 . S
H365 C362 0.929 . S
S366 N367 1.613 . S
S366 N368 1.610 . S
N367 S366 1.613 . S
N367 C370 1.350 . S
N368 S366 1.610 . S
N368 C369 1.351 1_455 S
C369 C363 1.428 . S
C369 N368 1.351 1_655 S
C369 C370 1.434 1_655 S
C370 C361 1.429 1_455 S
C370 N367 1.350 . S
C370 C369 1.434 1_455 S
C371 C372 1.369 . S
C371 C373 1.419 . S
C371 H375 0.930 . S
C372 C371 1.369 . S
C372 C381 1.429 . S
C373 C371 1.419 . S
C373 C374 1.363 1_556 S
C373 H376 0.929 1_455 S
C374 C373 1.363 1_554 S
C374 C380 1.434 . S
H375 C371 0.930 . S
H376 C373 0.929 1_655 S
S377 N378 1.614 1_554 S
S377 N379 1.610 . S
N378 S377 1.614 1_556 S
N378 C381 1.350 . S
N379 S377 1.610 . S
N379 C380 1.366 . S
C380 C374 1.434 . S
C380 N379 1.366 . S
C380 C381 1.411 1_554 S
C381 C372 1.429 . S
C381 N378 1.350 . S
C381 C380 1.411 1_556 S
C382 C383 1.369 . S
C382 C384 1.419 . S
C382 H386 0.930 . S
C383 C382 1.369 . S
C383 C392 1.429 1_455 S
C384 C382 1.419 . S
C384 C385 1.363 . S
C384 H387 0.929 . S
C385 C384 1.363 . S
C385 C391 1.428 1_455 S
H386 C382 0.930 . S
H387 C384 0.929 . S
S388 N389 1.613 . S
S388 N390 1.610 . S
N389 S388 1.613 . S
N389 C392 1.350 . S
N390 S388 1.610 . S
N390 C391 1.351 . S
C391 C385 1.428 1_655 S
C391 N390 1.351 . S
C391 C392 1.434 . S
C392 C383 1.429 1_655 S
C392 N389 1.350 . S
C392 C391 1.434 . S
C393 C394 1.369 . S
C393 C395 1.419 . S
C393 H397 0.930 . S
C394 C393 1.369 . S
C394 C403 1.429 . S
C395 C393 1.419 . S
C395 C396 1.363 . S
C395 H398 0.929 . S
C396 C395 1.363 . S
C396 C402 1.428 . S
H397 C393 0.930 . S
H398 C395 0.929 . S
S399 N400 1.613 . S
S399 N401 1.610 . S
N400 S399 1.613 . S
N400 C403 1.350 1_455 S
N401 S399 1.610 . S
N401 C402 1.351 1_455 S
C402 C396 1.428 . S
C402 N401 1.351 1_655 S
C402 C403 1.434 . S
C403 C394 1.429 . S
C403 N400 1.350 1_655 S
C403 C402 1.434 . S
C404 C405 1.369 . S
C404 C406 1.419 . S
C404 H408 0.930 . S
C405 C404 1.369 . S
C405 C414 1.429 . S
C406 C404 1.419 . S
C406 C407 1.363 . S
C406 H409 0.929 . S
C407 C406 1.363 . S
C407 C413 1.428 . S
H408 C404 0.930 . S
H409 C406 0.929 . S
S410 N411 1.613 . S
S410 N412 1.610 . S
N411 S410 1.613 . S
N411 C414 1.350 . S
N412 S410 1.610 . S
N412 C413 1.351 . S
C413 C407 1.428 . S
C413 N412 1.351 . S
C413 C414 1.434 . S
C414 C405 1.429 . S
C414 N411 1.350 . S
C414 C413 1.434 . S
C415 C416 1.369 . S
C415 C417 1.419 . S
C415 H419 0.930 . S
C416 C415 1.369 . S
C416 C425 1.429 . S
C417 C415 1.419 . S
C417 C418 1.363 . S
C417 H420 0.929 . S
C418 C417 1.363 . S
C418 C424 1.428 . S
H419 C415 0.930 . S
H420 C417 0.929 . S
S421 N422 1.613 . S
S421 N423 1.610 . S
N422 S421 1.613 . S
N422 C425 1.350 . S
N423 S421 1.610 . S
N423 C424 1.351 . S
C424 C418 1.428 . S
C424 N423 1.351 . S
C424 C425 1.434 . S
C425 C416 1.429 . S
C425 N422 1.350 . S
C425 C424 1.434 . S
C426 C427 1.369 . S
C426 C428 1.419 . S
C426 H430 0.930 . S
C427 C426 1.369 . S
C427 C436 1.429 . S
C428 C426 1.419 . S
C428 C429 1.363 . S
C428 H431 0.929 . S
C429 C428 1.363 . S
C429 C435 1.428 . S
H430 C426 0.930 . S
H431 C428 0.929 . S
S432 N433 1.613 . S
S432 N434 1.610 . S
N433 S432 1.613 . S
N433 C436 1.350 . S
N434 S432 1.610 . S
N434 C435 1.351 . S
C435 C429 1.428 . S
C435 N434 1.351 . S
C435 C436 1.434 . S
C436 C427 1.429 . S
C436 N433 1.350 . S
C436 C435 1.434 . S
C437 C438 1.369 . S
C437 C439 1.419 . S
C437 H441 0.930 . S
C438 C437 1.369 . S
C438 C447 1.429 . S
C439 C437 1.419 . S
C439 C440 1.363 . S
C439 H442 0.929 . S
C440 C439 1.363 . S
C440 C446 1.428 . S
H441 C437 0.930 . S
H442 C439 0.929 . S
S443 N444 1.613 . S
S443 N445 1.610 . S
N444 S443 1.613 . S
N444 C447 1.350 . S
N445 S443 1.610 . S
N445 C446 1.351 . S
C446 C440 1.428 . S
C446 N445 1.351 . S
C446 C447 1.434 . S
C447 C438 1.429 . S
C447 N444 1.350 . S
C447 C446 1.434 . S
C448 C449 1.369 . S
C448 C450 1.419 . S
C448 H452 0.930 . S
C449 C448 1.369 . S
C449 C458 1.429 . S
C450 C448 1.419 . S
C450 C451 1.363 . S
C450 H453 0.929 . S
C451 C450 1.363 . S
C451 C457 1.428 . S
H452 C448 0.930 . S
H453 C450 0.929 . S
S454 N455 1.613 . S
S454 N456 1.610 . S
N455 S454 1.613 . S
N455 C458 1.350 . S
N456 S454 1.610 . S
N456 C457 1.351 . S
C457 C451 1.428 . S
C457 N456 1.351 . S
C457 C458 1.434 . S
C458 C449 1.429 . S
C458 N455 1.350 . S
C458 C457 1.434 . S
C459 C460 1.369 . S
C459 C461 1.419 . S
C459 H463 0.930 . S
C460 C459 1.369 . S
C460 C469 1.429 . S
C461 C459 1.419 . S
C461 C462 1.363 . S
C461 H464 0.929 . S
C462 C461 1.363 . S
C462 C468 1.428 . S
H463 C459 0.930 . S
H464 C461 0.929 . S
S465 N466 1.613 . S
S465 N467 1.610 . S
N466 S465 1.613 . S
N466 C469 1.350 . S
N467 S465 1.610 . S
N467 C468 1.351 . S
C468 C462 1.428 . S
C468 N467 1.351 . S
C468 C469 1.434 . S
C469 C460 1.429 . S
C469 N466 1.350 . S
C469 C468 1.434 . S
C470 C471 1.369 . S
C470 C472 1.419 . S
C470 H474 0.930 . S
C471 C470 1.369 . S
C471 C480 1.429 . S
C472 C470 1.419 . S
C472 C473 1.363 . S
C472 H475 0.929 . S
C473 C472 1.363 . S
C473 C479 1.428 . S
H474 C470 0.930 . S
H475 C472 0.929 . S
S476 N477 1.613 . S
S476 N478 1.610 . S
N477 S476 1.613 . S
N477 C480 1.350 . S
N478 S476 1.610 . S
N478 C479 1.351 . S
C479 C473 1.428 . S
C479 N478 1.351 . S
C479 C480 1.434 . S
C480 C471 1.429 . S
C480 N477 1.350 . S
C480 C479 1.434 . S
C481 C482 1.369 . S
C481 C483 1.419 . S
C481 H485 0.930 . S
C482 C481 1.369 . S
C482 C491 1.429 . S
C483 C481 1.419 . S
C483 C484 1.363 . S
C483 H486 0.929 . S
C484 C483 1.363 . S
C484 C490 1.428 . S
H485 C481 0.930 . S
H486 C483 0.929 . S
S487 N488 1.613 . S
S487 N489 1.610 . S
N488 S487 1.613 . S
N488 C491 1.350 . S
N489 S487 1.610 . S
N489 C490 1.351 . S
C490 C484 1.428 . S
C490 N489 1.351 . S
C490 C491 1.434 . S
C491 C482 1.429 . S
C491 N488 1.350 . S
C491 C490 1.434 . S
C273 C5 0.915 . S
C275 C175 0.918 . S
C284 C209 0.915 . S
C286 C39 0.917 . S
C295 C243 0.917 . S
C297 C73 0.920 . S
C306 C141 0.919 . S
C308 C107 0.921 . S
C317 C111 1.202 . S
C319 C33 1.150 . S
C328 C67 1.149 . S
C330 C9 1.198 . S
C339 C43 1.198 . S
C341 C101 1.153 . S
C350 C135 1.160 . S
C352 C77 1.202 . S
C361 C179 1.203 . S
C363 C169 1.152 . S
C372 C203 1.150 . S
C374 C213 1.198 . S
C383 C237 1.159 . S
C385 C247 1.203 . S
C394 C271 1.156 . S
C396 C145 1.203 . S
C405 C206 1.352 . S
C407 C20 1.381 . S
C416 C240 1.349 . S
C418 C54 1.381 . S
C427 C88 1.381 . S
C429 C138 1.345 . S
C438 C122 1.381 . S
C440 C172 1.348 . S
C449 C156 1.380 . S
C451 C70 1.347 . S
C460 C104 1.351 . S
C462 C190 1.381 . S
C471 C224 1.381 . S
C473 C2 1.348 . S
C482 C36 1.348 . S
C484 C258 1.381 . S
