# Generated by pormake.
# Topology whh, (6)-cn, num edge types: 1
# Building blocks:
#     Node 0, Type 0, BuildingBlock: VOLQOD_clean_sbu_1, # of connection points: 6
#     Node 1, Type 0, BuildingBlock: VOLQOD_clean_sbu_1, # of connection points: 6
#     Node 2, Type 0, BuildingBlock: VOLQOD_clean_sbu_1, # of connection points: 6
#     Node 3, Type 0, BuildingBlock: VOLQOD_clean_sbu_1, # of connection points: 6
#     Node 4, Type 0, BuildingBlock: VOLQOD_clean_sbu_1, # of connection points: 6
#     Node 5, Type 0, BuildingBlock: VOLQOD_clean_sbu_1, # of connection points: 6
#     Node 6, Type 0, BuildingBlock: VOLQOD_clean_sbu_1, # of connection points: 6
#     Node 7, Type 0, BuildingBlock: VOLQOD_clean_sbu_1, # of connection points: 6
#     Node 8, Type 0, BuildingBlock: VOLQOD_clean_sbu_1, # of connection points: 6
#     Node 9, Type 0, BuildingBlock: VOLQOD_clean_sbu_1, # of connection points: 6
#     Node 10, Type 0, BuildingBlock: VOLQOD_clean_sbu_1, # of connection points: 6
#     Node 11, Type 0, BuildingBlock: VOLQOD_clean_sbu_1, # of connection points: 6
#     Node 12, Type 0, BuildingBlock: VOLQOD_clean_sbu_1, # of connection points: 6
#     Node 13, Type 0, BuildingBlock: VOLQOD_clean_sbu_1, # of connection points: 6
#     Node 14, Type 0, BuildingBlock: VOLQOD_clean_sbu_1, # of connection points: 6
#     Node 15, Type 0, BuildingBlock: VOLQOD_clean_sbu_1, # of connection points: 6
#     Edge 16, Type (0, 0), BuildingBlock: AJUNOK_clean_linker_0, # of connection points: 2
#     Edge 17, Type (0, 0), BuildingBlock: AJUNOK_clean_linker_0, # of connection points: 2
#     Edge 18, Type (0, 0), BuildingBlock: AJUNOK_clean_linker_0, # of connection points: 2
#     Edge 19, Type (0, 0), BuildingBlock: AJUNOK_clean_linker_0, # of connection points: 2
#     Edge 20, Type (0, 0), BuildingBlock: AJUNOK_clean_linker_0, # of connection points: 2
#     Edge 21, Type (0, 0), BuildingBlock: AJUNOK_clean_linker_0, # of connection points: 2
#     Edge 22, Type (0, 0), BuildingBlock: AJUNOK_clean_linker_0, # of connection points: 2
#     Edge 23, Type (0, 0), BuildingBlock: AJUNOK_clean_linker_0, # of connection points: 2
#     Edge 24, Type (0, 0), BuildingBlock: AJUNOK_clean_linker_0, # of connection points: 2
#     Edge 25, Type (0, 0), BuildingBlock: AJUNOK_clean_linker_0, # of connection points: 2
#     Edge 26, Type (0, 0), BuildingBlock: AJUNOK_clean_linker_0, # of connection points: 2
#     Edge 27, Type (0, 0), BuildingBlock: AJUNOK_clean_linker_0, # of connection points: 2
#     Edge 28, Type (0, 0), BuildingBlock: AJUNOK_clean_linker_0, # of connection points: 2
#     Edge 29, Type (0, 0), BuildingBlock: AJUNOK_clean_linker_0, # of connection points: 2
#     Edge 30, Type (0, 0), BuildingBlock: AJUNOK_clean_linker_0, # of connection points: 2
#     Edge 31, Type (0, 0), BuildingBlock: AJUNOK_clean_linker_0, # of connection points: 2
#     Edge 32, Type (0, 0), BuildingBlock: AJUNOK_clean_linker_0, # of connection points: 2
#     Edge 33, Type (0, 0), BuildingBlock: AJUNOK_clean_linker_0, # of connection points: 2
#     Edge 34, Type (0, 0), BuildingBlock: AJUNOK_clean_linker_0, # of connection points: 2
#     Edge 35, Type (0, 0), BuildingBlock: AJUNOK_clean_linker_0, # of connection points: 2
#     Edge 36, Type (0, 0), BuildingBlock: AJUNOK_clean_linker_0, # of connection points: 2
#     Edge 37, Type (0, 0), BuildingBlock: AJUNOK_clean_linker_0, # of connection points: 2
#     Edge 38, Type (0, 0), BuildingBlock: AJUNOK_clean_linker_0, # of connection points: 2
#     Edge 39, Type (0, 0), BuildingBlock: AJUNOK_clean_linker_0, # of connection points: 2
#     Edge 40, Type (0, 0), BuildingBlock: AJUNOK_clean_linker_0, # of connection points: 2
#     Edge 41, Type (0, 0), BuildingBlock: AJUNOK_clean_linker_0, # of connection points: 2
#     Edge 42, Type (0, 0), BuildingBlock: AJUNOK_clean_linker_0, # of connection points: 2
#     Edge 43, Type (0, 0), BuildingBlock: AJUNOK_clean_linker_0, # of connection points: 2
#     Edge 44, Type (0, 0), BuildingBlock: AJUNOK_clean_linker_0, # of connection points: 2
#     Edge 45, Type (0, 0), BuildingBlock: AJUNOK_clean_linker_0, # of connection points: 2
#     Edge 46, Type (0, 0), BuildingBlock: AJUNOK_clean_linker_0, # of connection points: 2
#     Edge 47, Type (0, 0), BuildingBlock: AJUNOK_clean_linker_0, # of connection points: 2
#     Edge 48, Type (0, 0), BuildingBlock: AJUNOK_clean_linker_0, # of connection points: 2
#     Edge 49, Type (0, 0), BuildingBlock: AJUNOK_clean_linker_0, # of connection points: 2
#     Edge 50, Type (0, 0), BuildingBlock: AJUNOK_clean_linker_0, # of connection points: 2
#     Edge 51, Type (0, 0), BuildingBlock: AJUNOK_clean_linker_0, # of connection points: 2
#     Edge 52, Type (0, 0), BuildingBlock: AJUNOK_clean_linker_0, # of connection points: 2
#     Edge 53, Type (0, 0), BuildingBlock: AJUNOK_clean_linker_0, # of connection points: 2
#     Edge 54, Type (0, 0), BuildingBlock: AJUNOK_clean_linker_0, # of connection points: 2
#     Edge 55, Type (0, 0), BuildingBlock: AJUNOK_clean_linker_0, # of connection points: 2
#     Edge 56, Type (0, 0), BuildingBlock: AJUNOK_clean_linker_0, # of connection points: 2
#     Edge 57, Type (0, 0), BuildingBlock: AJUNOK_clean_linker_0, # of connection points: 2
#     Edge 58, Type (0, 0), BuildingBlock: AJUNOK_clean_linker_0, # of connection points: 2
#     Edge 59, Type (0, 0), BuildingBlock: AJUNOK_clean_linker_0, # of connection points: 2
#     Edge 60, Type (0, 0), BuildingBlock: AJUNOK_clean_linker_0, # of connection points: 2
#     Edge 61, Type (0, 0), BuildingBlock: AJUNOK_clean_linker_0, # of connection points: 2
#     Edge 62, Type (0, 0), BuildingBlock: AJUNOK_clean_linker_0, # of connection points: 2
#     Edge 63, Type (0, 0), BuildingBlock: AJUNOK_clean_linker_0, # of connection points: 2
# Relax obj value: 0.569
# Max RMSD: 0.276
# Mean RMSD: 0.276
data_MOF--net-whh--node1-VOLQOD_clean_sbu_1--edge1-AJUNOK_clean_linker_0
_symmetry_space_group_name_H-M    P1
_symmetry_Int_Tables_number       1
_symmetry_cell_setting            triclinic
loop_
_symmetry_equiv_pos_as_xyz
'x, y, z'
_cell_length_a     26.432558
_cell_length_b     26.423245
_cell_length_c     37.099293
_cell_angle_alpha  90.100665
_cell_angle_beta   89.981972
_cell_angle_gamma 89.972608
loop_
_atom_site_label
_atom_site_type_symbol
_atom_site_fract_x
_atom_site_fract_y
_atom_site_fract_z
_atom_type_partial_charge
O0 O 0.06593 0.53499 0.13857 0.0
Zn1 Zn 0.07938 0.58691 0.18048 0.0
O2 O 0.02382 0.63344 0.17169 0.0
Zn3 Zn 0.96428 0.61005 0.19605 0.0
Zn4 Zn 0.01317 0.63666 0.11914 0.0
Zn5 Zn 0.04029 0.69869 0.18807 0.0
O6 O 0.93251 0.66456 0.22754 0.0
O7 O -0.00657 0.72243 0.22628 0.0
O8 O 0.06545 0.54902 0.22964 0.0
O9 O 0.98136 0.55399 0.23006 0.0
O10 O 0.91705 0.58269 0.15933 0.0
O11 O 0.94699 0.60624 0.10572 0.0
O12 O 0.01687 0.70581 0.09791 0.0
O13 O 0.14571 0.63399 0.18013 0.0
O14 O 0.03526 0.74714 0.14813 0.0
O15 O 0.11105 0.70336 0.20344 0.0
C16 C 0.05795 0.54686 0.10558 0.0
C17 C 0.95103 0.70669 0.2379 0.0
C18 C 0.91422 0.58424 0.1251 0.0
C19 C 0.02231 0.53619 0.24281 0.0
C20 C 0.02729 0.74656 0.11439 0.0
C21 C 0.14986 0.67958 0.19256 0.0
O22 O 0.06442 0.59265 0.09658 0.0
O23 O 0.95444 0.07641 0.12828 0.0
Zn24 Zn 0.90604 0.08391 0.17313 0.0
O25 O 0.86287 0.02439 0.16622 0.0
Zn26 Zn 0.89042 0.96765 0.19152 0.0
Zn27 Zn 0.86051 0.01072 0.11427 0.0
Zn28 Zn 0.79571 0.03555 0.18127 0.0
O29 O 0.83873 0.93424 0.2243 0.0
O30 O 0.77939 -0.0059 0.22438 0.0
O31 O 0.94872 0.07403 0.22104 0.0
O32 O 0.94428 0.99021 0.22506 0.0
O33 O 0.92403 0.92197 0.15625 0.0
O34 O 0.90403 0.95203 0.10199 0.0
O35 O 0.7922 -0.00348 0.09424 0.0
O36 O 0.85563 0.14695 0.17499 0.0
O37 O 0.74789 0.01455 0.14328 0.0
O38 O 0.78327 0.10827 0.18878 0.0
C39 C 0.93833 0.06828 0.09619 0.0
C40 C 0.79761 0.9529 0.2365 0.0
C41 C 0.92744 0.92113 0.12202 0.0
C42 C 0.96227 0.03214 0.23577 0.0
C43 C 0.75029 0.00071 0.11053 0.0
C44 C 0.8081 0.14865 0.18309 0.0
O45 O 0.89098 0.07033 0.09127 0.0
O46 O 0.42067 0.94185 0.13056 0.0
Zn47 Zn 0.40929 0.89095 0.17362 0.0
O48 O 0.46551 0.84467 0.1651 0.0
Zn49 Zn 0.52441 0.87001 0.18938 0.0
Zn50 Zn 0.47613 0.84104 0.11266 0.0
Zn51 Zn 0.45121 0.77873 0.18115 0.0
O52 O 0.55407 0.8183 0.22364 0.0
O53 O 0.49347 0.75989 0.2235 0.0
O54 O 0.42288 0.92954 0.22234 0.0
O55 O 0.50701 0.92789 0.22191 0.0
O56 O 0.57324 0.89511 0.15286 0.0
O57 O 0.54129 0.87386 0.09932 0.0
O58 O 0.47549 0.77201 0.09124 0.0
O59 O 0.34336 0.84406 0.17549 0.0
O60 O 0.46357 0.73024 0.14225 0.0
O61 O 0.37862 0.77021 0.19027 0.0
C62 C 0.4279 0.92739 0.09796 0.0
C63 C 0.5346 0.77775 0.236 0.0
C64 C 0.57518 0.89437 0.11858 0.0
C65 C 0.46567 0.94407 0.23511 0.0
C66 C 0.46971 0.73098 0.10831 0.0
C67 C 0.33959 0.79678 0.18405 0.0
O68 O 0.42126 0.88099 0.09109 0.0
O69 O 0.53499 0.4029 0.13211 0.0
Zn70 Zn 0.58384 0.39629 0.17671 0.0
O71 O 0.62618 0.45561 0.16867 0.0
Zn72 Zn 0.59701 0.51315 0.19209 0.0
Zn73 Zn 0.63053 0.46573 0.1164 0.0
Zn74 Zn 0.69244 0.44651 0.18545 0.0
O75 O 0.64655 0.54792 0.2258 0.0
O76 O 0.70525 0.48763 0.22933 0.0
O77 O 0.54261 0.40816 0.22525 0.0
O78 O 0.5417 0.49234 0.22511 0.0
O79 O 0.56602 0.55727 0.15496 0.0
O80 O 0.58981 0.52511 0.10199 0.0
O81 O 0.69981 0.47664 0.09693 0.0
O82 O 0.63534 0.33392 0.17764 0.0
O83 O 0.74105 0.46843 0.1486 0.0
O84 O 0.70683 0.3742 0.19171 0.0
C85 C 0.55069 0.40951 0.09973 0.0
C86 C 0.68614 0.52916 0.24021 0.0
C87 C 0.56535 0.55696 0.12064 0.0
C88 C 0.52652 0.45056 0.23802 0.0
C89 C 0.74047 0.47719 0.11497 0.0
C90 C 0.68317 0.33351 0.18488 0.0
O91 O 0.59792 0.40641 0.09434 0.0
O92 O 0.08018 0.95415 0.47702 0.0
Zn93 Zn 0.08675 0.9053 0.43245 0.0
O94 O 0.0265 0.86413 0.43993 0.0
Zn95 Zn 0.97003 0.89502 0.41615 0.0
Zn96 Zn 0.01441 0.85938 0.49213 0.0
Zn97 Zn 0.0355 0.79814 0.42221 0.0
O98 O 0.93338 0.84603 0.38294 0.0
O99 O 0.99116 0.78482 0.38014 0.0
O100 O 0.07673 0.94684 0.3841 0.0
O101 O -0.00734 0.9494 0.38296 0.0
O102 O 0.92656 0.9276 0.45299 0.0
O103 O 0.95423 0.89994 0.50616 0.0
O104 O 0.00473 0.78934 0.511 0.0
O105 O 0.14839 0.85305 0.4307 0.0
O106 O 0.01757 0.74865 0.45953 0.0
O107 O 0.10724 0.78425 0.41235 0.0
C108 C 0.07169 0.93942 0.5094 0.0
C109 C 0.95011 0.80491 0.36939 0.0
C110 C 0.92479 0.92688 0.48727 0.0
C111 C 0.03513 0.96362 0.37064 0.0
C112 C 0.0079 0.74861 0.49304 0.0
C113 C 0.14836 0.8063 0.4204 0.0
O114 O 0.07284 0.89223 0.51544 0.0
O115 O 0.53593 0.06267 0.47504 0.0
Zn116 Zn 0.58717 0.07542 0.43257 0.0
O117 O 0.63435 0.02019 0.44096 0.0
Zn118 Zn 0.61078 0.9605 0.41695 0.0
Zn119 Zn 0.63778 0.01007 0.49342 0.0
Zn120 Zn 0.69951 0.03637 0.42428 0.0
O121 O 0.66365 0.9304 0.38358 0.0
O122 O 0.72001 -0.0071 0.38285 0.0
O123 O 0.5495 0.06129 0.38341 0.0
O124 O 0.55391 0.97718 0.38375 0.0
O125 O 0.58453 0.91263 0.45367 0.0
O126 O 0.60545 0.94495 0.50718 0.0
O127 O 0.70701 0.01196 0.51449 0.0
O128 O 0.63314 0.14205 0.43284 0.0
O129 O 0.74823 0.02654 0.46353 0.0
O130 O 0.70573 0.10896 0.41345 0.0
C131 C 0.54982 0.05628 0.5078 0.0
C132 C 0.70373 0.95068 0.37107 0.0
C133 C 0.58484 0.91103 0.48797 0.0
C134 C 0.53642 0.01798 0.37062 0.0
C135 C 0.74779 0.0196 0.4974 0.0
C136 C 0.67953 0.14727 0.42241 0.0
O137 O 0.596 0.06374 0.51509 0.0
O138 O 0.4042 0.53352 0.47685 0.0
Zn139 Zn 0.39793 0.58318 0.4328 0.0
O140 O 0.45611 0.62651 0.4422 0.0
Zn141 Zn 0.51467 0.59812 0.41925 0.0
Zn142 Zn 0.46429 0.63045 0.49475 0.0
Zn143 Zn 0.44608 0.69323 0.42629 0.0
O144 O 0.54803 0.64864 0.3854 0.0
O145 O 0.48831 0.70806 0.38351 0.0
O146 O 0.41167 0.54235 0.38458 0.0
O147 O 0.49573 0.54093 0.38655 0.0
O148 O 0.56011 0.57047 0.45732 0.0
O149 O 0.52506 0.59262 0.50974 0.0
O150 O 0.47261 0.69952 0.51531 0.0
O151 O 0.33477 0.63341 0.4302 0.0
O152 O 0.46617 0.74155 0.46393 0.0
O153 O 0.37384 0.70634 0.41844 0.0
C154 C 0.4102 0.54837 0.5095 0.0
C155 C 0.52972 0.68928 0.3722 0.0
C156 C 0.55911 0.57045 0.49166 0.0
C157 C 0.45438 0.52594 0.37269 0.0
C158 C 0.47362 0.74051 0.49771 0.0
C159 C 0.33341 0.6813 0.42317 0.0
O160 O 0.40575 0.59532 0.51567 0.0
O161 O 0.94307 0.41619 0.48162 0.0
Zn162 Zn 0.89274 0.40556 0.43798 0.0
O163 O 0.84675 0.46284 0.4459 0.0
Zn164 Zn 0.87004 0.52105 0.42014 0.0
Zn165 Zn 0.84545 0.47607 0.49812 0.0
Zn166 Zn 0.77991 0.44852 0.43169 0.0
O167 O 0.81645 0.55059 0.38731 0.0
O168 O 0.75868 0.48953 0.38929 0.0
O169 O 0.9333 0.41835 0.3896 0.0
O170 O 0.92599 0.50218 0.38681 0.0
O171 O 0.89854 0.57027 0.45493 0.0
O172 O 0.8839 0.53891 0.5097 0.0
O173 O 0.77723 0.48231 0.5202 0.0
O174 O 0.8451 0.33967 0.43677 0.0
O175 O 0.73312 0.46401 0.47119 0.0
O176 O 0.77089 0.37577 0.42405 0.0
C177 C 0.92803 0.42379 0.51404 0.0
C178 C 0.77524 0.53088 0.37631 0.0
C179 C 0.90256 0.57226 0.48909 0.0
C180 C 0.94535 0.46111 0.3755 0.0
C181 C 0.73537 0.47518 0.50443 0.0
C182 C 0.79727 0.33647 0.42976 0.0
O183 O 0.88124 0.41879 0.5201 0.0
O184 O 0.90594 0.44806 0.98316 0.0
Zn185 Zn 0.89916 0.40038 0.93783 0.0
O186 O 0.95928 0.3584 0.94465 0.0
Zn187 Zn 0.01614 0.38859 0.92097 0.0
Zn188 Zn 0.97106 0.35294 0.99678 0.0
Zn189 Zn 0.95009 0.29244 0.92699 0.0
O190 O 0.05087 0.33989 0.88631 0.0
O191 O -0.00823 0.28 0.88341 0.0
O192 O 0.90968 0.44366 0.89023 0.0
O193 O -0.00618 0.44453 0.88903 0.0
O194 O 0.06084 0.41933 0.95809 0.0
O195 O 0.03039 0.394 1.01113 0.0
O196 O 0.98288 0.28311 1.01514 0.0
O197 O 0.83703 0.34844 0.93567 0.0
O198 O 0.97135 0.24287 0.96335 0.0
O199 O 0.87797 0.27825 0.91952 0.0
C200 C 0.91394 0.43175 1.01521 0.0
C201 C 0.03276 0.29971 0.87222 0.0
C202 C 0.06144 0.41927 0.99242 0.0
C203 C 0.95161 0.46027 0.87716 0.0
C204 C 0.98169 0.24269 0.99675 0.0
C205 C 0.83698 0.30109 0.92681 0.0
O206 O 0.91193 0.38434 1.02001 0.0
O207 O 0.03875 0.91365 0.9735 0.0
Zn208 Zn 0.08909 0.90079 0.93076 0.0
O209 O 0.13535 0.95687 0.93868 0.0
Zn210 Zn 0.11113 0.0161 0.91451 0.0
Zn211 Zn 0.14021 0.96825 0.9912 0.0
Zn212 Zn 0.19992 0.94058 0.92102 0.0
O213 O 0.16439 0.048 0.8821 0.0
O214 O 0.22244 0.98721 0.88235 0.0
O215 O 0.04893 0.91416 0.88248 0.0
O216 O 0.05416 -0.00172 0.88164 0.0
O217 O 0.08445 0.06348 0.95137 0.0
O218 O 0.10924 0.03431 1.00491 0.0
O219 O 0.21026 0.96524 1.01122 0.0
O220 O 0.13644 0.83478 0.93033 0.0
O221 O 0.24918 0.94632 0.96015 0.0
O222 O 0.20491 0.86959 0.90603 0.0
C223 C 0.05154 0.92223 1.00625 0.0
C224 C 0.20621 0.02958 0.87103 0.0
C225 C 0.08655 0.0667 0.98557 0.0
C226 C 0.03556 0.95727 0.86955 0.0
C227 C 0.25021 0.95462 0.99384 0.0
C228 C 0.18161 0.83072 0.91722 0.0
O229 O 0.09769 0.91658 1.01458 0.0
O230 O 0.58041 0.02819 0.97557 0.0
Zn231 Zn 0.58698 0.07799 0.9317 0.0
O232 O 0.52763 0.1206 0.94017 0.0
Zn233 Zn 0.47033 0.09384 0.91497 0.0
Zn234 Zn 0.51471 0.12115 0.99226 0.0
Zn235 Zn 0.53825 0.18822 0.92602 0.0
O236 O 0.4369 0.14604 0.88288 0.0
O237 O 0.49712 0.20497 0.88269 0.0
O238 O 0.57579 0.03685 0.88303 0.0
O239 O 0.49183 0.04062 0.88068 0.0
O240 O 0.42474 0.05962 0.94974 0.0
O241 O 0.45584 0.07784 1.00401 0.0
O242 O 0.50078 0.18885 1.01343 0.0
O243 O 0.64992 0.1285 0.9307 0.0
O244 O 0.51619 0.23454 0.96462 0.0
O245 O 0.61109 0.20167 0.91948 0.0
C246 C 0.57248 0.04211 1.00823 0.0
C247 C 0.45576 0.18696 0.87062 0.0
C248 C 0.42444 0.05523 0.9839 0.0
C249 C 0.53344 0.02326 0.86893 0.0
C250 C 0.50343 0.23113 0.99752 0.0
C251 C 0.65152 0.17655 0.92432 0.0
O252 O 0.57389 0.08913 1.01494 0.0
O253 O 0.44667 0.5597 0.97578 0.0
Zn254 Zn 0.39352 0.57134 0.93437 0.0
O255 O 0.34765 0.51572 0.9447 0.0
Zn256 Zn 0.37192 0.45632 0.92026 0.0
Zn257 Zn 0.34617 0.50614 0.99735 0.0
Zn258 Zn 0.28123 0.52997 0.92979 0.0
O259 O 0.3195 0.42743 0.8862 0.0
O260 O 0.26094 0.48787 0.88771 0.0
O261 O 0.42933 0.55653 0.88489 0.0
O262 O 0.42988 0.47247 0.88736 0.0
O263 O 0.39594 0.40697 0.95676 0.0
O264 O 0.37741 0.44025 1.01047 0.0
O265 O 0.27774 0.50878 1.02005 0.0
O266 O 0.34728 0.63777 0.93307 0.0
O267 O 0.23412 0.51787 0.96947 0.0
O268 O 0.27262 0.60248 0.92067 0.0
C269 C 0.4353 0.55246 1.00897 0.0
C270 C 0.27853 0.44695 0.87462 0.0
C271 C 0.39592 0.40533 0.99106 0.0
C272 C 0.44441 0.5135 0.87281 0.0
C273 C 0.23608 0.51325 1.00349 0.0
C274 C 0.29962 0.64154 0.92571 0.0
O275 O 0.38964 0.55903 1.01826 0.0
O276 O 0.91896 0.03813 0.63231 0.0
Zn277 Zn 0.9036 0.08742 0.67574 0.0
O278 O 0.95902 0.13501 0.66984 0.0
Zn279 Zn 0.01786 0.11077 0.69441 0.0
Zn280 Zn 0.97135 0.14107 0.61778 0.0
Zn281 Zn 0.94123 0.19921 0.68774 0.0
O282 O 0.04886 0.16422 0.72714 0.0
O283 O 0.98732 0.22158 0.72701 0.0
O284 O 0.91549 0.04719 0.72421 0.0
O285 O -0.00063 0.05409 0.72725 0.0
O286 O 0.06571 0.08371 0.6579 0.0
O287 O 0.03782 0.11071 0.60459 0.0
O288 O 0.96799 0.21084 0.59838 0.0
O289 O 0.83753 0.13465 0.67477 0.0
O290 O 0.94638 0.24959 0.64895 0.0
O291 O 0.86991 0.20215 0.70238 0.0
C292 C 0.92706 0.05333 0.60004 0.0
C293 C 0.02978 0.20564 0.73846 0.0
C294 C 0.06952 0.08687 0.62377 0.0
C295 C 0.95816 0.0349 0.7384 0.0
C296 C 0.95604 0.25066 0.61542 0.0
C297 C 0.83238 0.17941 0.68846 0.0
O298 O 0.91972 0.09972 0.5935 0.0
O299 O 0.44828 0.90438 0.63069 0.0
Zn300 Zn 0.3987 0.8985 0.6746 0.0
O301 O 0.35762 0.95836 0.66587 0.0
Zn302 Zn 0.38895 0.01555 0.68878 0.0
Zn303 Zn 0.35265 0.96771 0.61341 0.0
Zn304 Zn 0.2914 0.95042 0.6832 0.0
O305 O 0.34102 0.0504 0.72394 0.0
O306 O 0.27946 -0.007 0.72638 0.0
O307 O 0.43995 0.91034 0.72278 0.0
O308 O 0.44628 -0.00582 0.72037 0.0
O309 O 0.41703 0.06063 0.65072 0.0
O310 O 0.39029 0.0286 0.59844 0.0
O311 O 0.28285 0.97666 0.59415 0.0
O312 O 0.34675 0.83666 0.67672 0.0
O313 O 0.24234 0.97162 0.64634 0.0
O314 O 0.27654 0.87852 0.69139 0.0
C315 C 0.4347 0.9124 0.59802 0.0
C316 C 0.30024 0.03339 0.73777 0.0
C317 C 0.41497 0.06098 0.61641 0.0
C318 C 0.4589 0.95216 0.73436 0.0
C319 C 0.24249 0.97869 0.61251 0.0
C320 C 0.29928 0.83712 0.68505 0.0
O321 O 0.38783 0.91004 0.59089 0.0
O322 O 0.56214 0.44533 0.63268 0.0
Zn323 Zn 0.57297 0.39215 0.67413 0.0
O324 O 0.51668 0.34685 0.6638 0.0
Zn325 Zn 0.4575 0.37063 0.68859 0.0
Zn326 Zn 0.50614 0.34674 0.61128 0.0
Zn327 Zn 0.53065 0.27998 0.67806 0.0
O328 O 0.42935 0.31832 0.72291 0.0
O329 O 0.48987 0.2599 0.72092 0.0
O330 O 0.55832 0.42852 0.72366 0.0
O331 O 0.47424 0.42834 0.72126 0.0
O332 O 0.40734 0.39531 0.65285 0.0
O333 O 0.44123 0.38066 0.59879 0.0
O334 O 0.50505 0.27864 0.58835 0.0
O335 O 0.6392 0.3453 0.67489 0.0
O336 O 0.51569 0.23359 0.63816 0.0
O337 O 0.60344 0.2707 0.68626 0.0
C338 C 0.55481 0.43387 0.5995 0.0
C339 C 0.44928 0.27755 0.73447 0.0
C340 C 0.40599 0.39763 0.6186 0.0
C341 C 0.51519 0.44356 0.73557 0.0
C342 C 0.50888 0.2365 0.60433 0.0
C343 C 0.6428 0.29742 0.68161 0.0
O344 O 0.56063 0.38802 0.5904 0.0
O345 O 0.02653 0.57936 0.63634 0.0
Zn346 Zn 0.07677 0.587 0.67988 0.0
O347 O 0.11953 0.52792 0.67134 0.0
Zn348 Zn 0.09193 0.47081 0.69624 0.0
Zn349 Zn 0.12092 0.5155 0.61914 0.0
Zn350 Zn 0.18691 0.53847 0.68589 0.0
O351 O 0.14432 0.43624 0.72766 0.0
O352 O 0.20344 0.4963 0.7286 0.0
O353 O 0.03636 0.57627 0.72874 0.0
O354 O 0.03895 0.49227 0.73097 0.0
O355 O 0.05746 0.42629 0.66083 0.0
O356 O 0.07925 0.45591 0.60686 0.0
O357 O 0.18901 0.50315 0.59802 0.0
O358 O 0.12716 0.64989 0.68075 0.0
O359 O 0.23387 0.51727 0.64745 0.0
O360 O 0.20006 0.61122 0.69317 0.0
C361 C 0.04016 0.57105 0.60369 0.0
C362 C 0.18545 0.4546 0.74 0.0
C363 C 0.05499 0.42535 0.62658 0.0
C364 C 0.02242 0.53414 0.74294 0.0
C365 C 0.23103 0.50539 0.61434 0.0
C366 C 0.175 0.65159 0.68779 0.0
O367 O 0.08701 0.57375 0.59663 0.0
C368 C 0.83211 0.47279 0.11101 0.0
C369 C 0.78731 0.49591 0.09925 0.0
C370 C 0.87555 0.5015 0.1161 0.0
C371 C 0.87578 0.55325 0.10799 0.0
H372 H 0.83154 0.43439 0.12128 0.0
H373 H 0.90741 0.48435 0.1298 0.0
S374 S 0.77228 0.62771 0.06733 0.0
N375 N 0.74812 0.5706 0.07312 0.0
N376 N 0.83162 0.62433 0.08118 0.0
C377 C 0.83403 0.57477 0.09068 0.0
C378 C 0.78917 0.54572 0.0862 0.0
C379 C 0.97136 0.80162 0.0793 0.0
C380 C 0.01771 0.79554 0.09745 0.0
C381 C 0.94348 0.84628 0.08363 0.0
C382 C 0.96208 0.88498 0.10583 0.0
H383 H 0.95295 0.76946 0.06677 0.0
H384 H 0.9051 0.84787 0.07345 0.0
S385 S 0.08928 0.89391 0.14674 0.0
N386 N 0.08749 0.83711 0.12812 0.0
N387 N 0.03404 0.92021 0.1378 0.0
C388 C 0.01205 0.88279 0.1181 0.0
C389 C 0.04074 0.8382 0.11284 0.0
C390 C 0.61435 0.97652 0.10815 0.0
C391 C 0.61435 0.92435 0.10143 0.0
C392 C 0.65849 0.0046 0.10422 0.0
C393 C 0.70394 0.98063 0.09467 0.0
H394 H 0.58156 -0.00539 0.12008 0.0
H395 H 0.65857 0.04355 0.11347 0.0
S396 S 0.72009 0.84699 0.06665 0.0
N397 N 0.65988 0.85155 0.07825 0.0
N398 N 0.74427 0.90422 0.07185 0.0
C399 C 0.70258 0.93011 0.08282 0.0
C400 C 0.65721 0.90162 0.08638 0.0
C401 C 0.52643 0.67535 0.07467 0.0
C402 C 0.47892 0.68238 0.09095 0.0
C403 C 0.55326 0.63044 0.08054 0.0
C404 C 0.53249 0.59278 0.10261 0.0
H405 H 0.54622 0.70709 0.06274 0.0
H406 H 0.59235 0.62806 0.07189 0.0
S407 S 0.4026 0.58738 0.13953 0.0
N408 N 0.40633 0.64298 0.11945 0.0
N409 N 0.45807 0.56005 0.13308 0.0
C410 C 0.48174 0.59601 0.11305 0.0
C411 C 0.454 0.6405 0.10574 0.0
C412 C 0.85033 0.93853 0.52672 0.0
C413 C 0.88818 0.95962 0.50493 0.0
C414 C 0.80453 0.96431 0.53153 0.0
C415 C 0.79672 0.01116 0.51451 0.0
H416 H 0.85337 0.89973 0.53588 0.0
H417 H 0.77303 0.94405 0.54338 0.0
S418 S 0.89105 0.08835 0.46598 0.0
N419 N 0.91988 0.03407 0.47403 0.0
N420 N 0.8349 0.08368 0.48517 0.0
C421 C 0.8383 0.03664 0.49979 0.0
C422 C 0.88392 0.01002 0.49382 0.0
C423 C 0.50108 0.87472 0.49684 0.0
C424 C 0.55276 0.87356 0.50511 0.0
C425 C 0.47109 0.83218 0.50206 0.0
C426 C 0.49286 0.78682 0.51402 0.0
H427 H 0.48491 0.90693 0.48294 0.0
H428 H 0.43281 0.83257 0.49156 0.0
S429 S 0.62397 0.76844 0.54659 0.0
N430 N 0.62237 0.8277 0.53243 0.0
N431 N 0.56624 0.74586 0.5407 0.0
C432 C 0.5426 0.78747 0.52733 0.0
C433 C 0.57297 0.83142 0.52271 0.0
C434 C 0.60025 0.48925 0.50272 0.0
C435 C 0.59696 0.54098 0.5105 0.0
C436 C 0.64472 0.4629 0.50954 0.0
C437 C 0.68778 0.48894 0.5217 0.0
H438 H 0.57026 0.47038 0.48801 0.0
H439 H 0.64799 0.42457 0.49933 0.0
S440 S 0.69292 0.62085 0.55522 0.0
N441 N 0.63486 0.61415 0.53941 0.0
N442 N 0.72078 0.56532 0.54982 0.0
C443 C 0.68213 0.53821 0.53532 0.0
C444 C 0.63601 0.56462 0.52955 0.0
C445 C 0.9442 0.69727 0.52477 0.0
C446 C -0.00775 0.70043 0.50863 0.0
C447 C 0.91612 0.6524 0.52239 0.0
C448 C 0.936 0.61057 0.50389 0.0
H449 H 0.92565 0.73104 0.53482 0.0
H450 H 0.87708 0.65235 0.53129 0.0
S451 S 0.06457 0.59665 0.46582 0.0
N452 N 0.06253 0.65523 0.48132 0.0
N453 N 0.00882 0.57182 0.47514 0.0
C454 C 0.9864 0.61132 0.49243 0.0
C455 C 0.01514 0.6562 0.49559 0.0
C456 C 0.13595 0.43023 1.03185 0.0
C457 C 0.09785 0.45166 1.01046 0.0
C458 C 0.18114 0.45669 1.03755 0.0
C459 C 0.18808 0.50448 1.02174 0.0
H460 H 0.13358 0.39097 1.04007 0.0
H461 H 0.21305 0.43642 1.04884 0.0
S462 S 0.09237 0.58235 0.9751 0.0
N463 N 0.06485 0.52695 0.98127 0.0
N464 N 0.14844 0.57784 0.99446 0.0
C465 C 0.14599 0.52994 1.00771 0.0
C466 C 0.10114 0.50262 1.00059 0.0
C467 C 0.97637 0.15086 0.99913 0.0
C468 C -2e-05 0.19507 1.01162 0.0
C469 C 0.0044 0.10696 0.99395 0.0
C470 C 0.05592 0.10556 1.00268 0.0
H471 H 0.93817 0.15224 0.98852 0.0
H472 H 0.98696 0.07563 0.97977 0.0
S473 S 0.13135 0.20707 1.04514 0.0
N474 N 0.07484 0.23243 1.03892 0.0
N475 N 0.12718 0.148 1.0307 0.0
C476 C 0.07781 0.14668 1.0206 0.0
C477 C 0.0495 0.19207 1.02516 0.0
C478 C 0.30721 0.00924 1.02869 0.0
C479 C 0.30009 0.96374 1.0096 0.0
C480 C 0.35154 0.03737 1.02374 0.0
C481 C 0.38878 0.01996 0.99984 0.0
H482 H 0.27585 0.02697 1.04268 0.0
H483 H 0.3538 0.0752 1.03495 0.0
S484 S 0.39462 0.89534 0.95455 0.0
N485 N 0.33958 0.89573 0.9756 0.0
N486 N 0.42157 0.95002 0.96435 0.0
C487 C 0.38581 0.97066 0.98625 0.0
C488 C 0.34179 0.94153 0.99231 0.0
C489 C 0.50644 0.32255 1.00571 0.0
C490 C 0.48271 0.27662 1.01417 0.0
C491 C 0.47796 0.36646 1.00194 0.0
C492 C 0.42567 0.36582 1.00793 0.0
H493 H 0.5456 0.32308 0.997 0.0
H494 H 0.4959 0.39956 0.99047 0.0
S495 S 0.34835 0.25809 1.03917 0.0
N496 N 0.40604 0.23471 1.03472 0.0
N497 N 0.35261 0.31875 1.02879 0.0
C498 C 0.40292 0.32223 1.02174 0.0
C499 C 0.43181 0.27706 1.02507 0.0
C500 C 0.10748 0.00385 0.6136 0.0
C501 C 0.10779 0.05587 0.60632 0.0
C502 C 0.1508 0.97489 0.60832 0.0
C503 C 0.1958 -0.00215 0.59681 0.0
H504 H 0.07522 0.98655 0.62675 0.0
H505 H 0.15108 0.93628 0.61818 0.0
S506 S 0.21191 0.13026 0.56642 0.0
N507 N 0.15256 0.12713 0.58029 0.0
N508 N 0.23557 0.07279 0.57152 0.0
C509 C 0.19431 0.04798 0.58433 0.0
C510 C 0.14971 0.07738 0.58922 0.0
C511 C 0.52248 0.14639 0.59787 0.0
C512 C 0.49634 0.18946 0.58593 0.0
C513 C 0.49614 0.10196 0.60486 0.0
C514 C 0.44436 0.09874 0.59737 0.0
H515 H 0.56077 0.14975 0.60807 0.0
H516 H 0.51503 0.07204 0.61957 0.0
S517 S 0.36427 0.19491 0.55316 0.0
N518 N 0.41989 0.2226 0.55821 0.0
N519 N 0.37103 0.13679 0.56885 0.0
C520 C 0.42065 0.13777 0.57836 0.0
C521 C 0.44708 0.18382 0.57244 0.0
C522 C 0.32267 0.50859 0.60715 0.0
C523 C 0.27686 0.48524 0.59779 0.0
C524 C 0.36669 0.48008 0.61016 0.0
C525 C 0.36632 0.42816 0.60259 0.0
H526 H 0.32305 0.54726 0.61696 0.0
H527 H 0.39971 0.49751 0.62218 0.0
S528 S 0.25894 0.35216 0.56896 0.0
N529 N 0.23533 0.40949 0.57501 0.0
N530 N 0.31954 0.35608 0.5796 0.0
C531 C 0.32281 0.406 0.5881 0.0
C532 C 0.27753 0.4349 0.58551 0.0
C533 C 0.97168 0.38523 0.62395 0.0
C534 C 0.02066 0.38944 0.6099 0.0
C535 C 0.94324 0.3419 0.61765 0.0
C536 C 0.96515 0.30053 0.59962 0.0
H537 H 0.9572 0.41341 0.64255 0.0
H538 H 0.90806 0.33743 0.63232 0.0
S539 S 0.08439 0.30144 0.54713 0.0
N540 N 0.08339 0.35661 0.56816 0.0
N541 N 0.03122 0.27257 0.55834 0.0
C542 C 0.00957 0.30849 0.57958 0.0
C543 C 0.0378 0.35362 0.58494 0.0
C544 C 0.91929 0.70688 0.30062 0.0
C545 C 0.9289 0.73388 0.26875 0.0
C546 C 0.91951 0.73162 0.33407 0.0
C547 C 0.92776 0.78409 0.33635 0.0
H548 H 0.91786 0.66589 0.30023 0.0
H549 H 0.9182 0.70898 0.35838 0.0
S550 S 0.94391 0.87274 0.26009 0.0
N551 N 0.93908 0.81644 0.24096 0.0
N552 N 0.93766 0.86313 0.30385 0.0
C553 C 0.93031 0.81222 0.30439 0.0
C554 C 0.93132 0.78696 0.27044 0.0
C555 C 0.77977 0.92948 0.33474 0.0
C556 C 0.72675 0.93106 0.33778 0.0
C557 C 0.80325 0.92917 0.30084 0.0
C558 C 0.77423 0.93201 0.26918 0.0
H559 H 0.80317 0.93279 0.35861 0.0
H560 H 0.84407 0.93257 0.29958 0.0
S561 S 0.63441 0.92975 0.26266 0.0
N562 N 0.64611 0.92872 0.3064 0.0
N563 N 0.69028 0.93001 0.24269 0.0
C564 C 0.72137 0.9286 0.27186 0.0
C565 C 0.69752 0.92764 0.30628 0.0
C566 C 0.55545 0.70332 0.27399 0.0
C567 C 0.55339 0.7562 0.26995 0.0
C568 C 0.55521 0.68119 0.30831 0.0
C569 C 0.55141 0.71144 0.33938 0.0
H570 H 0.55294 0.67894 0.25054 0.0
H571 H 0.55212 0.64039 0.3103 0.0
S572 S 0.55181 0.85153 0.34333 0.0
N573 N 0.55401 0.83811 0.29985 0.0
N574 N 0.55185 0.79644 0.36432 0.0
C575 C 0.55434 0.76423 0.33575 0.0
C576 C 0.55577 0.78672 0.30092 0.0
C577 C 0.75851 0.55571 0.27807 0.0
C578 C 0.70595 0.5501 0.27403 0.0
C579 C 0.78069 0.55656 0.31235 0.0
C580 C 0.75095 0.55012 0.34341 0.0
H581 H 0.78292 0.55504 0.25459 0.0
H582 H 0.82161 0.55648 0.31425 0.0
S583 S 0.61114 0.54225 0.34729 0.0
N584 N 0.62423 0.54565 0.30381 0.0
N585 N 0.66614 0.54506 0.36835 0.0
C586 C 0.69807 0.54963 0.33983 0.0
C587 C 0.67543 0.55019 0.30498 0.0
C588 C 0.06044 0.20323 0.80144 0.0
C589 C 0.05147 0.2315 0.77004 0.0
C590 C 0.06078 0.22682 0.8353 0.0
C591 C 0.05377 0.27939 0.83853 0.0
H592 H 0.06117 0.16224 0.80032 0.0
H593 H 0.0618 0.20334 0.85922 0.0
S594 S 0.03953 0.37096 0.76381 0.0
N595 N 0.04293 0.31519 0.74371 0.0
N596 N 0.04556 0.35972 0.80739 0.0
C597 C 0.05163 0.30863 0.80705 0.0
C598 C 0.04996 0.28454 0.77267 0.0
C599 C 0.22798 0.06266 0.77471 0.0
C600 C 0.2804 0.0547 0.7715 0.0
C601 C 0.20433 0.06207 0.80852 0.0
C602 C 0.23238 0.05192 0.83986 0.0
H603 H 0.20457 0.06447 0.75077 0.0
H604 H 0.16337 0.06342 0.80956 0.0
S605 S 0.3716 0.03774 0.84622 0.0
N606 N 0.36052 0.04469 0.80269 0.0
N607 N 0.31589 0.0417 0.86625 0.0
C608 C 0.2854 0.04973 0.83731 0.0
C609 C 0.30956 0.0516 0.803 0.0
C610 C 0.4309 0.18 0.80653 0.0
C611 C 0.43496 0.20988 0.83777 0.0
C612 C 0.43013 0.20251 0.77234 0.0
C613 C 0.43179 0.25544 0.76861 0.0
H614 H 0.43389 0.13916 0.80826 0.0
H615 H 0.43227 0.17841 0.74873 0.0
S616 S 0.43352 0.34989 0.84258 0.0
N617 N 0.43439 0.29456 0.86324 0.0
N618 N 0.43091 0.337 0.79903 0.0
C619 C 0.42977 0.28558 0.7998 0.0
C620 C 0.4319 0.26268 0.83449 0.0
C621 C 0.17982 0.42767 0.80366 0.0
C622 C 0.209 0.43258 0.7722 0.0
C623 C 0.20307 0.42649 0.8376 0.0
C624 C 0.25604 0.42867 0.84082 0.0
H625 H 0.13896 0.43056 0.80238 0.0
H626 H 0.17948 0.42824 0.86146 0.0
S627 S 0.34887 0.43238 0.76599 0.0
N628 N 0.29311 0.43302 0.74589 0.0
N629 N 0.33693 0.42895 0.80963 0.0
C630 C 0.28553 0.42726 0.80934 0.0
C631 C 0.26188 0.42972 0.77492 0.0
C632 C 0.24436 0.68736 0.18054 0.0
C633 C 0.19845 0.70961 0.19123 0.0
C634 C 0.28913 0.7162 0.17787 0.0
C635 C 0.2902 0.76892 0.18519 0.0
H636 H 0.24588 0.64737 0.17419 0.0
H637 H 0.32342 0.69679 0.16976 0.0
S638 S 0.1811 0.84645 0.21414 0.0
N639 N 0.15762 0.78899 0.20937 0.0
N640 N 0.24152 0.84188 0.20358 0.0
C641 C 0.24479 0.79184 0.19545 0.0
C642 C 0.19921 0.7626 0.19873 0.0
C643 C 0.72566 0.19541 0.19257 0.0
C644 C 0.77802 0.19703 0.18391 0.0
C645 C 0.69478 0.23889 0.19204 0.0
C646 C 0.71478 0.28639 0.18326 0.0
H647 H 0.70781 0.15996 0.19979 0.0
H648 H 0.65522 0.23534 0.19923 0.0
S649 S 0.84833 0.31204 0.15635 0.0
N650 N 0.84743 0.25074 0.16483 0.0
N651 N 0.7902 0.33228 0.16394 0.0
C652 C 0.76692 0.28869 0.17413 0.0
C653 C 0.79825 0.24428 0.17448 0.0
C654 C 0.28721 0.7648 0.42649 0.0
C655 C 0.28524 0.71141 0.42241 0.0
C656 C 0.24344 0.79522 0.42564 0.0
C657 C 0.19537 0.77398 0.42027 0.0
H658 H 0.3231 0.78362 0.43076 0.0
H659 H 0.24745 0.83573 0.42922 0.0
S660 S 0.16915 0.63607 0.40786 0.0
N661 N 0.23105 0.63893 0.41283 0.0
N662 N 0.14879 0.69497 0.41081 0.0
C663 C 0.19287 0.72042 0.41604 0.0
C664 C 0.2376 0.68956 0.41728 0.0
C665 C 0.78872 0.24293 0.41562 0.0
C666 C 0.76844 0.28758 0.43005 0.0
C667 C 0.75903 0.19881 0.41242 0.0
C668 C 0.70766 0.19686 0.42382 0.0
H669 H 0.82735 0.24236 0.40588 0.0
H670 H 0.777 0.16569 0.4009 0.0
S671 S 0.63769 0.30312 0.46614 0.0
N672 N 0.69425 0.32669 0.45755 0.0
N673 N 0.63925 0.24399 0.45173 0.0
C674 C 0.68734 0.24115 0.43894 0.0
C675 C 0.71746 0.28619 0.44204 0.0
C676 C 0.69794 0.2602 0.92167 0.0
C677 C 0.69994 0.2066 0.92461 0.0
C678 C 0.7417 0.29063 0.92292 0.0
C679 C 0.78988 0.26911 0.92677 0.0
H680 H 0.66199 0.27933 0.91856 0.0
H681 H 0.73767 0.33128 0.92038 0.0
S682 S 0.81685 0.13112 0.93722 0.0
N683 N 0.75481 0.13394 0.93265 0.0
N684 N 0.83683 0.1902 0.93494 0.0
C685 C 0.79256 0.21552 0.93007 0.0
C686 C 0.74785 0.18465 0.92899 0.0
C687 C 0.21982 0.69244 0.93397 0.0
C688 C 0.27183 0.69097 0.9246 0.0
C689 C 0.19065 0.73696 0.93113 0.0
C690 C 0.2118 0.78221 0.91823 0.0
H691 H 0.20124 0.65864 0.94383 0.0
H692 H 0.15128 0.7358 0.93918 0.0
S693 S 0.34632 0.79819 0.88905 0.0
N694 N 0.34293 0.73849 0.90169 0.0
N695 N 0.28926 0.82191 0.89548 0.0
C696 C 0.26404 0.78103 0.90856 0.0
C697 C 0.29369 0.73572 0.91203 0.0
C698 C 0.73685 0.18639 0.68282 0.0
C699 C 0.7843 0.20971 0.68567 0.0
C700 C 0.69204 0.21531 0.68147 0.0
C701 C 0.69227 0.26911 0.68241 0.0
H702 H 0.73415 0.14549 0.68223 0.0
H703 H 0.65665 0.19483 0.6796 0.0
S704 S 0.80709 0.34923 0.68657 0.0
N705 N 0.82896 0.29071 0.68719 0.0
N706 N 0.74493 0.34406 0.68455 0.0
C707 C 0.73956 0.29292 0.68418 0.0
C708 C 0.78529 0.26358 0.68585 0.0
C709 C 0.28893 0.7418 0.68831 0.0
C710 C 0.26721 0.79009 0.68558 0.0
C711 C 0.25863 0.69797 0.68947 0.0
C712 C 0.205 0.69998 0.68757 0.0
H713 H 0.32964 0.73774 0.68991 0.0
H714 H 0.27793 0.66192 0.6916 0.0
S715 S 0.12882 0.81707 0.67859 0.0
N716 N 0.1879 0.83713 0.67992 0.0
N717 N 0.13195 0.75489 0.68202 0.0
C718 C 0.18278 0.74797 0.68443 0.0
C719 C 0.21353 0.79276 0.68346 0.0
C720 C 0.96381 0.51078 1.03092 0.0
C721 C 0.94703 0.46206 1.04044 0.0
C722 C 0.00043 0.5367 1.05149 0.0
C723 C 0.02248 0.51549 0.08279 0.0
H724 H 0.94941 0.52887 1.00685 0.0
H725 H 0.0113 0.57418 1.04266 0.0
S726 S 0.99007 0.38988 0.12104 0.0
N727 N 0.95417 0.39443 0.0848 0.0
N728 N 0.02299 0.44288 0.12278 0.0
C729 C 0.0055 0.46712 0.09302 0.0
C730 C 0.96786 0.44072 0.0722 0.0
C731 C 0.04141 0.97854 0.06106 0.0
C732 C 0.02048 0.95781 1.02917 0.0
C733 C 0.01617 0.01587 0.08148 0.0
C734 C 0.9684 0.03455 0.07124 0.0
H735 H 0.07815 0.96611 0.07044 0.0
H736 H 0.03394 0.02929 0.10599 0.0
S737 S 0.89713 -0.00506 0.98925 0.0
N738 N 0.94906 0.96029 0.98805 0.0
N739 N 0.90183 0.03018 1.02586 0.0
C740 C 0.94726 0.01476 1.03905 0.0
C741 C 0.97299 0.97653 1.01835 0.0
C742 C 0.51624 0.03174 0.06304 0.0
C743 C 0.53951 0.01005 1.03226 0.0
C744 C 0.47926 0.00579 0.08324 0.0
C745 C 0.46359 0.95658 0.07394 0.0
H746 H 0.5258 0.06986 0.07134 0.0
H747 H 0.46308 0.02452 0.10653 0.0
S748 S 0.51676 0.87987 0.99833 0.0
N749 N 0.54676 0.93444 0.99547 0.0
N750 N 0.47719 0.88595 1.03248 0.0
C751 C 0.48729 0.93398 1.04354 0.0
C752 C 0.52535 0.96034 1.02323 0.0
C753 C 0.47167 0.45918 0.08394 0.0
C754 C 0.52038 0.44235 0.0744 0.0
C755 C 0.44568 0.49554 0.06326 0.0
C756 C 0.46677 0.51724 1.03179 0.0
H757 H 0.45364 0.44501 0.10812 0.0
H758 H 0.40822 0.50648 0.07216 0.0
S759 S 0.59245 0.48485 0.99355 0.0
N760 N 0.58801 0.44926 1.02992 0.0
N761 N 0.53932 0.51757 0.9917 0.0
C762 C 0.51514 0.50026 1.02155 0.0
C763 C 0.54166 0.4629 1.0425 0.0
C764 C 0.97775 0.97476 0.58431 0.0
C765 C 0.96337 0.02469 0.57605 0.0
C766 C 0.01468 0.94886 0.56394 0.0
C767 C 0.03902 0.97125 0.53391 0.0
H768 H 0.96047 0.95536 0.60686 0.0
H769 H 0.02316 0.91017 0.5714 0.0
S770 S 0.02036 0.1035 0.50323 0.0
N771 N 0.97998 0.09695 0.53683 0.0
N772 N 0.04901 0.04831 0.49922 0.0
C773 C 0.02638 0.02173 0.52608 0.0
C774 C 0.98858 0.04817 0.5467 0.0
C775 C 0.44607 0.96687 0.54243 0.0
C776 C 0.4668 0.94577 0.57424 0.0
C777 C 0.47205 0.00351 0.52191 0.0
C778 C 0.52032 0.02104 0.53195 0.0
H779 H 0.40879 0.95558 0.53339 0.0
H780 H 0.45415 0.01782 0.49773 0.0
S781 S 0.59277 0.97744 0.61235 0.0
N782 N 0.53959 0.94489 0.61413 0.0
N783 N 0.58816 0.01339 0.5762 0.0
C784 C 0.54174 -1e-05 0.56362 0.0
C785 C 0.5153 0.9625 0.5844 0.0
C786 C 0.49995 0.44525 0.54421 0.0
C787 C 0.51968 0.46544 0.57668 0.0
C788 C 0.46319 0.47088 0.52365 0.0
C789 C 0.44393 0.51826 0.53435 0.0
H790 H 0.51284 0.40883 0.53442 0.0
H791 H 0.45054 0.45362 0.49875 0.0
S792 S 0.48161 0.58804 0.61752 0.0
N793 N 0.51621 0.53606 0.61855 0.0
N794 N 0.44716 0.58398 0.58054 0.0
C795 C 0.46285 0.53877 0.56703 0.0
C796 C 0.50063 0.51268 0.58785 0.0
C797 C 0.02988 0.51557 0.54842 0.0
C798 C 0.0087 0.53659 0.58017 0.0
C799 C 0.00498 0.47779 0.5282 0.0
C800 C 0.95721 0.45915 0.53837 0.0
H801 H 0.06684 0.52768 0.53927 0.0
H802 H 0.02318 0.4637 0.50403 0.0
S803 S 0.88411 0.50138 0.619 0.0
N804 N 0.93628 0.53557 0.62044 0.0
N805 N 0.88956 0.46515 0.58295 0.0
C806 C 0.93546 0.47982 0.57013 0.0
C807 C 0.96087 0.5184 0.59065 0.0
C808 C 0.96144 0.44652 0.30967 0.0
C809 C 0.97825 0.46563 0.34297 0.0
C810 C 0.98015 0.46598 0.27684 0.0
C811 C 0.01713 0.50458 0.27595 0.0
H812 H 0.93013 0.42009 0.30887 0.0
H813 H 0.96274 0.45342 0.25195 0.0
S814 S 0.07711 0.56368 0.35575 0.0
N815 N 0.0367 0.52263 0.37297 0.0
N816 N 0.07259 0.5579 0.31152 0.0
C817 C 0.03738 0.52065 0.30902 0.0
C818 C 0.01772 0.50154 0.34241 0.0
C819 C -0.00228 0.03431 0.33438 0.0
C820 C 0.03288 -0.00591 0.33678 0.0
C821 C 0.97964 0.05196 0.30085 0.0
C822 C -0.00467 0.02942 0.26835 0.0
H823 H 0.98081 0.04939 0.35875 0.0
H824 H 0.94939 0.07964 0.30065 0.0
S825 S 0.08997 0.92639 0.25937 0.0
N826 N 0.08583 0.93573 0.3033 0.0
N827 N 0.05145 0.96791 0.2406 0.0
C828 C 0.03349 -0.00785 0.2703 0.0
C829 C 0.0524 0.97475 0.30437 0.0
C830 C 0.5234 0.03255 0.30446 0.0
C831 C 0.50564 0.01237 0.33715 0.0
C832 C 0.50632 0.01353 0.27103 0.0
C833 C 0.46996 0.97446 0.26892 0.0
H834 H 0.55412 0.05967 0.30463 0.0
H835 H 0.52434 0.02705 0.24665 0.0
S836 S 0.4084 0.91195 0.34671 0.0
N837 N 0.44735 0.95337 0.36525 0.0
N838 N 0.41443 0.919 0.30268 0.0
C839 C 0.44897 0.95701 0.30137 0.0
C840 C 0.46705 0.97559 0.33537 0.0
C841 C 0.4972 0.45663 0.33762 0.0
C842 C 0.45911 0.49418 0.33936 0.0
C843 C 0.51459 0.43694 0.30442 0.0
C844 C 0.4952 0.45463 0.27147 0.0
H845 H 0.51644 0.44509 0.36205 0.0
H846 H 0.54681 0.41159 0.30454 0.0
S847 S 0.39217 0.54903 0.26085 0.0
N848 N 0.39968 0.54465 0.30495 0.0
N849 N 0.43293 0.50887 0.24283 0.0
C850 C 0.45457 0.48928 0.27296 0.0
C851 C 0.43633 0.50868 0.30676 0.0
C852 C 0.9525 0.49393 0.77831 0.0
C853 C 0.99109 0.53089 0.7764 0.0
C854 C 0.93419 0.4757 0.81161 0.0
C855 C 0.95444 0.49303 0.84442 0.0
H856 H 0.93931 0.47587 0.75381 0.0
H857 H 0.90798 0.4442 0.81148 0.0
S858 S 0.05219 0.59294 0.85467 0.0
N859 N 0.04516 0.58736 0.81058 0.0
N860 N 0.01187 0.55266 0.87291 0.0
C861 C 0.98999 0.53286 0.84289 0.0
C862 C 0.008 0.55193 0.80901 0.0
C863 C -0.0009 0.96319 0.77129 0.0
C864 C 0.96238 0.00208 0.77094 0.0
C865 C 0.01825 0.94332 0.80384 0.0
C866 C 0.00216 0.96234 0.83735 0.0
H867 H 0.01618 0.95093 0.7462 0.0
H868 H 0.04944 0.91675 0.80263 0.0
S869 S 0.90336 0.06029 0.85154 0.0
N870 N 0.90741 0.0551 0.80723 0.0
N871 N 0.94403 0.01897 0.86818 0.0
C872 C 0.96266 -0.00172 0.83735 0.0
C873 C 0.94257 0.01782 0.80424 0.0
C874 C 0.52976 -0.00838 0.7697 0.0
C875 C 0.49034 0.9555 0.76784 0.0
C876 C 0.54924 0.00884 0.80299 0.0
C877 C 0.52952 0.99121 0.83585 0.0
H878 H 0.54295 0.00967 0.74524 0.0
H879 H 0.57612 0.03977 0.80292 0.0
S880 S 0.42974 0.8935 0.84621 0.0
N881 N 0.43585 0.89965 0.80212 0.0
N882 N 0.47145 0.93245 0.86437 0.0
C883 C 0.49307 0.95224 0.83429 0.0
C884 C 0.47378 0.93423 0.80044 0.0
C885 C 0.51194 0.47154 0.83567 0.0
C886 C 0.47341 0.50842 0.83844 0.0
C887 C 0.53016 0.45476 0.80193 0.0
C888 C 0.5097 0.47336 0.76956 0.0
H889 H 0.5258 0.45307 0.85978 0.0
H890 H 0.55699 0.42376 0.80127 0.0
S891 S 0.41067 0.57241 0.7617 0.0
N892 N 0.41824 0.56542 0.80562 0.0
N893 N 0.45117 0.5331 0.74248 0.0
C894 C 0.47345 0.51241 0.772 0.0
C895 C 0.45567 0.53017 0.80631 0.0
loop_
_geom_bond_atom_site_label_1
_geom_bond_atom_site_label_2
_geom_bond_distance
_geom_bond_site_symmetry_2
_ccdc_geom_bond_type
O0 Zn1 1.953 . S
O0 C16 1.225 . S
Zn1 O0 1.953 . S
Zn1 O2 1.949 . S
Zn1 O8 1.919 . S
Zn1 O13 1.924 . S
O2 Zn1 1.949 . S
O2 Zn3 1.923 1_455 S
O2 Zn4 1.950 1_455 S
O2 Zn5 1.945 . S
Zn3 O2 1.923 1_655 S
Zn3 O6 1.933 . S
Zn3 O9 1.941 1_655 S
Zn3 O10 1.965 . S
Zn4 O2 1.950 1_655 S
Zn4 O11 1.938 . S
Zn4 O12 1.906 . S
Zn4 O22 1.953 1_655 S
Zn5 O2 1.945 . S
Zn5 O7 1.932 . S
Zn5 O14 1.977 . S
Zn5 O15 1.910 . S
O6 Zn3 1.933 . S
O6 C17 1.226 1_655 S
O7 Zn5 1.932 . S
O7 C17 1.307 . S
O8 Zn1 1.919 . S
O8 C19 1.253 . S
O9 Zn3 1.941 1_455 S
O9 C19 1.283 . S
O10 Zn3 1.965 . S
O10 C18 1.303 . S
O11 Zn4 1.938 . S
O11 C18 1.247 . S
O12 Zn4 1.906 . S
O12 C20 1.304 1_655 S
O13 Zn1 1.924 . S
O13 C21 1.311 . S
O14 Zn5 1.977 . S
O14 C20 1.272 . S
O15 Zn5 1.910 . S
O15 C21 1.231 . S
C16 O0 1.225 . S
C16 O22 1.298 . S
C17 O6 1.226 1_455 S
C17 O7 1.307 . S
C18 O10 1.303 . S
C18 O11 1.247 . S
C19 O8 1.253 . S
C19 O9 1.283 . S
C20 O12 1.304 1_455 S
C20 O14 1.272 . S
C21 O13 1.311 . S
C21 O15 1.231 . S
O22 Zn4 1.953 1_455 S
O22 C16 1.298 . S
O23 Zn24 1.953 . S
O23 C39 1.225 . S
Zn24 O23 1.953 . S
Zn24 O25 1.949 . S
Zn24 O31 1.919 . S
Zn24 O36 1.924 . S
O25 Zn24 1.949 . S
O25 Zn26 1.923 1_545 S
O25 Zn27 1.950 1_545 S
O25 Zn28 1.945 . S
Zn26 O25 1.923 1_565 S
Zn26 O29 1.933 . S
Zn26 O32 1.941 1_565 S
Zn26 O33 1.965 . S
Zn27 O25 1.950 1_565 S
Zn27 O34 1.938 . S
Zn27 O35 1.906 . S
Zn27 O45 1.953 1_565 S
Zn28 O25 1.945 . S
Zn28 O30 1.932 . S
Zn28 O37 1.977 . S
Zn28 O38 1.910 . S
O29 Zn26 1.933 . S
O29 C40 1.226 1_565 S
O30 Zn28 1.932 . S
O30 C40 1.307 . S
O31 Zn24 1.919 . S
O31 C42 1.253 . S
O32 Zn26 1.941 1_545 S
O32 C42 1.283 . S
O33 Zn26 1.965 . S
O33 C41 1.303 . S
O34 Zn27 1.938 . S
O34 C41 1.247 . S
O35 Zn27 1.906 . S
O35 C43 1.304 1_565 S
O36 Zn24 1.924 . S
O36 C44 1.311 . S
O37 Zn28 1.977 . S
O37 C43 1.272 . S
O38 Zn28 1.910 . S
O38 C44 1.231 . S
C39 O23 1.225 . S
C39 O45 1.298 . S
C40 O29 1.226 1_545 S
C40 O30 1.307 . S
C41 O33 1.303 . S
C41 O34 1.247 . S
C42 O31 1.253 . S
C42 O32 1.283 . S
C43 O35 1.304 1_545 S
C43 O37 1.272 . S
C44 O36 1.311 . S
C44 O38 1.231 . S
O45 Zn27 1.953 1_545 S
O45 C39 1.298 . S
O46 Zn47 1.953 . S
O46 C62 1.225 . S
Zn47 O46 1.953 . S
Zn47 O48 1.949 . S
Zn47 O54 1.919 . S
Zn47 O59 1.924 . S
O48 Zn47 1.949 . S
O48 Zn49 1.923 . S
O48 Zn50 1.950 . S
O48 Zn51 1.945 . S
Zn49 O48 1.923 . S
Zn49 O52 1.933 . S
Zn49 O55 1.941 . S
Zn49 O56 1.965 . S
Zn50 O48 1.950 . S
Zn50 O57 1.938 . S
Zn50 O58 1.906 . S
Zn50 O68 1.953 . S
Zn51 O48 1.945 . S
Zn51 O53 1.932 . S
Zn51 O60 1.977 . S
Zn51 O61 1.910 . S
O52 Zn49 1.933 . S
O52 C63 1.226 . S
O53 Zn51 1.932 . S
O53 C63 1.307 . S
O54 Zn47 1.919 . S
O54 C65 1.253 . S
O55 Zn49 1.941 . S
O55 C65 1.283 . S
O56 Zn49 1.965 . S
O56 C64 1.303 . S
O57 Zn50 1.938 . S
O57 C64 1.247 . S
O58 Zn50 1.906 . S
O58 C66 1.304 . S
O59 Zn47 1.924 . S
O59 C67 1.311 . S
O60 Zn51 1.977 . S
O60 C66 1.272 . S
O61 Zn51 1.910 . S
O61 C67 1.231 . S
C62 O46 1.225 . S
C62 O68 1.298 . S
C63 O52 1.226 . S
C63 O53 1.307 . S
C64 O56 1.303 . S
C64 O57 1.247 . S
C65 O54 1.253 . S
C65 O55 1.283 . S
C66 O58 1.304 . S
C66 O60 1.272 . S
C67 O59 1.311 . S
C67 O61 1.231 . S
O68 Zn50 1.953 . S
O68 C62 1.298 . S
O69 Zn70 1.953 . S
O69 C85 1.225 . S
Zn70 O69 1.953 . S
Zn70 O71 1.949 . S
Zn70 O77 1.919 . S
Zn70 O82 1.924 . S
O71 Zn70 1.949 . S
O71 Zn72 1.923 . S
O71 Zn73 1.950 . S
O71 Zn74 1.945 . S
Zn72 O71 1.923 . S
Zn72 O75 1.933 . S
Zn72 O78 1.941 . S
Zn72 O79 1.965 . S
Zn73 O71 1.950 . S
Zn73 O80 1.938 . S
Zn73 O81 1.906 . S
Zn73 O91 1.953 . S
Zn74 O71 1.945 . S
Zn74 O76 1.932 . S
Zn74 O83 1.977 . S
Zn74 O84 1.910 . S
O75 Zn72 1.933 . S
O75 C86 1.226 . S
O76 Zn74 1.932 . S
O76 C86 1.307 . S
O77 Zn70 1.919 . S
O77 C88 1.253 . S
O78 Zn72 1.941 . S
O78 C88 1.283 . S
O79 Zn72 1.965 . S
O79 C87 1.303 . S
O80 Zn73 1.938 . S
O80 C87 1.247 . S
O81 Zn73 1.906 . S
O81 C89 1.304 . S
O82 Zn70 1.924 . S
O82 C90 1.311 . S
O83 Zn74 1.977 . S
O83 C89 1.272 . S
O84 Zn74 1.910 . S
O84 C90 1.231 . S
C85 O69 1.225 . S
C85 O91 1.298 . S
C86 O75 1.226 . S
C86 O76 1.307 . S
C87 O79 1.303 . S
C87 O80 1.247 . S
C88 O77 1.253 . S
C88 O78 1.283 . S
C89 O81 1.304 . S
C89 O83 1.272 . S
C90 O82 1.311 . S
C90 O84 1.231 . S
O91 Zn73 1.953 . S
O91 C85 1.298 . S
O92 Zn93 1.953 . S
O92 C108 1.225 . S
Zn93 O92 1.953 . S
Zn93 O94 1.949 . S
Zn93 O100 1.919 . S
Zn93 O105 1.924 . S
O94 Zn93 1.949 . S
O94 Zn95 1.923 1_455 S
O94 Zn96 1.950 1_455 S
O94 Zn97 1.945 . S
Zn95 O94 1.923 1_655 S
Zn95 O98 1.933 . S
Zn95 O101 1.941 1_655 S
Zn95 O102 1.965 . S
Zn96 O94 1.950 1_655 S
Zn96 O103 1.938 . S
Zn96 O104 1.906 . S
Zn96 O114 1.953 1_655 S
Zn97 O94 1.945 . S
Zn97 O99 1.932 . S
Zn97 O106 1.977 . S
Zn97 O107 1.910 . S
O98 Zn95 1.933 . S
O98 C109 1.226 1_655 S
O99 Zn97 1.932 . S
O99 C109 1.307 . S
O100 Zn93 1.919 . S
O100 C111 1.253 . S
O101 Zn95 1.941 1_455 S
O101 C111 1.283 . S
O102 Zn95 1.965 . S
O102 C110 1.303 . S
O103 Zn96 1.938 . S
O103 C110 1.247 . S
O104 Zn96 1.906 . S
O104 C112 1.304 1_655 S
O105 Zn93 1.924 . S
O105 C113 1.311 . S
O106 Zn97 1.977 . S
O106 C112 1.272 . S
O107 Zn97 1.910 . S
O107 C113 1.231 . S
C108 O92 1.225 . S
C108 O114 1.298 . S
C109 O98 1.226 1_455 S
C109 O99 1.307 . S
C110 O102 1.303 . S
C110 O103 1.247 . S
C111 O100 1.253 . S
C111 O101 1.283 . S
C112 O104 1.304 1_455 S
C112 O106 1.272 . S
C113 O105 1.311 . S
C113 O107 1.231 . S
O114 Zn96 1.953 1_455 S
O114 C108 1.298 . S
O115 Zn116 1.953 . S
O115 C131 1.225 . S
Zn116 O115 1.953 . S
Zn116 O117 1.949 . S
Zn116 O123 1.919 . S
Zn116 O128 1.924 . S
O117 Zn116 1.949 . S
O117 Zn118 1.923 1_545 S
O117 Zn119 1.950 1_545 S
O117 Zn120 1.945 . S
Zn118 O117 1.923 1_565 S
Zn118 O121 1.933 . S
Zn118 O124 1.941 1_565 S
Zn118 O125 1.965 . S
Zn119 O117 1.950 1_565 S
Zn119 O126 1.938 . S
Zn119 O127 1.906 . S
Zn119 O137 1.953 1_565 S
Zn120 O117 1.945 . S
Zn120 O122 1.932 . S
Zn120 O129 1.977 . S
Zn120 O130 1.910 . S
O121 Zn118 1.933 . S
O121 C132 1.226 1_565 S
O122 Zn120 1.932 . S
O122 C132 1.307 . S
O123 Zn116 1.919 . S
O123 C134 1.253 . S
O124 Zn118 1.941 1_545 S
O124 C134 1.283 . S
O125 Zn118 1.965 . S
O125 C133 1.303 . S
O126 Zn119 1.938 . S
O126 C133 1.247 . S
O127 Zn119 1.906 . S
O127 C135 1.304 1_565 S
O128 Zn116 1.924 . S
O128 C136 1.311 . S
O129 Zn120 1.977 . S
O129 C135 1.272 . S
O130 Zn120 1.910 . S
O130 C136 1.231 . S
C131 O115 1.225 . S
C131 O137 1.298 . S
C132 O121 1.226 1_545 S
C132 O122 1.307 . S
C133 O125 1.303 . S
C133 O126 1.247 . S
C134 O123 1.253 . S
C134 O124 1.283 . S
C135 O127 1.304 1_545 S
C135 O129 1.272 . S
C136 O128 1.311 . S
C136 O130 1.231 . S
O137 Zn119 1.953 1_545 S
O137 C131 1.298 . S
O138 Zn139 1.953 . S
O138 C154 1.225 . S
Zn139 O138 1.953 . S
Zn139 O140 1.949 . S
Zn139 O146 1.919 . S
Zn139 O151 1.924 . S
O140 Zn139 1.949 . S
O140 Zn141 1.923 . S
O140 Zn142 1.950 . S
O140 Zn143 1.945 . S
Zn141 O140 1.923 . S
Zn141 O144 1.933 . S
Zn141 O147 1.941 . S
Zn141 O148 1.965 . S
Zn142 O140 1.950 . S
Zn142 O149 1.938 . S
Zn142 O150 1.906 . S
Zn142 O160 1.953 . S
Zn143 O140 1.945 . S
Zn143 O145 1.932 . S
Zn143 O152 1.977 . S
Zn143 O153 1.910 . S
O144 Zn141 1.933 . S
O144 C155 1.226 . S
O145 Zn143 1.932 . S
O145 C155 1.307 . S
O146 Zn139 1.919 . S
O146 C157 1.253 . S
O147 Zn141 1.941 . S
O147 C157 1.283 . S
O148 Zn141 1.965 . S
O148 C156 1.303 . S
O149 Zn142 1.938 . S
O149 C156 1.247 . S
O150 Zn142 1.906 . S
O150 C158 1.304 . S
O151 Zn139 1.924 . S
O151 C159 1.311 . S
O152 Zn143 1.977 . S
O152 C158 1.272 . S
O153 Zn143 1.910 . S
O153 C159 1.231 . S
C154 O138 1.225 . S
C154 O160 1.298 . S
C155 O144 1.226 . S
C155 O145 1.307 . S
C156 O148 1.303 . S
C156 O149 1.247 . S
C157 O146 1.253 . S
C157 O147 1.283 . S
C158 O150 1.304 . S
C158 O152 1.272 . S
C159 O151 1.311 . S
C159 O153 1.231 . S
O160 Zn142 1.953 . S
O160 C154 1.298 . S
O161 Zn162 1.953 . S
O161 C177 1.225 . S
Zn162 O161 1.953 . S
Zn162 O163 1.949 . S
Zn162 O169 1.919 . S
Zn162 O174 1.924 . S
O163 Zn162 1.949 . S
O163 Zn164 1.923 . S
O163 Zn165 1.950 . S
O163 Zn166 1.945 . S
Zn164 O163 1.923 . S
Zn164 O167 1.933 . S
Zn164 O170 1.941 . S
Zn164 O171 1.965 . S
Zn165 O163 1.950 . S
Zn165 O172 1.938 . S
Zn165 O173 1.906 . S
Zn165 O183 1.953 . S
Zn166 O163 1.945 . S
Zn166 O168 1.932 . S
Zn166 O175 1.977 . S
Zn166 O176 1.910 . S
O167 Zn164 1.933 . S
O167 C178 1.226 . S
O168 Zn166 1.932 . S
O168 C178 1.307 . S
O169 Zn162 1.919 . S
O169 C180 1.253 . S
O170 Zn164 1.941 . S
O170 C180 1.283 . S
O171 Zn164 1.965 . S
O171 C179 1.303 . S
O172 Zn165 1.938 . S
O172 C179 1.247 . S
O173 Zn165 1.906 . S
O173 C181 1.304 . S
O174 Zn162 1.924 . S
O174 C182 1.311 . S
O175 Zn166 1.977 . S
O175 C181 1.272 . S
O176 Zn166 1.910 . S
O176 C182 1.231 . S
C177 O161 1.225 . S
C177 O183 1.298 . S
C178 O167 1.226 . S
C178 O168 1.307 . S
C179 O171 1.303 . S
C179 O172 1.247 . S
C180 O169 1.253 . S
C180 O170 1.283 . S
C181 O173 1.304 . S
C181 O175 1.272 . S
C182 O174 1.311 . S
C182 O176 1.231 . S
O183 Zn165 1.953 . S
O183 C177 1.298 . S
O184 Zn185 1.953 . S
O184 C200 1.225 . S
Zn185 O184 1.953 . S
Zn185 O186 1.949 . S
Zn185 O192 1.919 . S
Zn185 O197 1.924 . S
O186 Zn185 1.949 . S
O186 Zn187 1.923 1_655 S
O186 Zn188 1.950 1_655 S
O186 Zn189 1.945 . S
Zn187 O186 1.923 1_455 S
Zn187 O190 1.933 . S
Zn187 O193 1.941 1_455 S
Zn187 O194 1.965 . S
Zn188 O186 1.950 1_455 S
Zn188 O195 1.938 . S
Zn188 O196 1.906 . S
Zn188 O206 1.953 1_455 S
Zn189 O186 1.945 . S
Zn189 O191 1.932 . S
Zn189 O198 1.977 . S
Zn189 O199 1.910 . S
O190 Zn187 1.933 . S
O190 C201 1.226 1_455 S
O191 Zn189 1.932 . S
O191 C201 1.307 . S
O192 Zn185 1.919 . S
O192 C203 1.253 . S
O193 Zn187 1.941 1_655 S
O193 C203 1.283 . S
O194 Zn187 1.965 . S
O194 C202 1.303 . S
O195 Zn188 1.938 . S
O195 C202 1.247 . S
O196 Zn188 1.906 . S
O196 C204 1.304 1_455 S
O197 Zn185 1.924 . S
O197 C205 1.311 . S
O198 Zn189 1.977 . S
O198 C204 1.272 . S
O199 Zn189 1.910 . S
O199 C205 1.231 . S
C200 O184 1.225 . S
C200 O206 1.298 . S
C201 O190 1.226 1_655 S
C201 O191 1.307 . S
C202 O194 1.303 . S
C202 O195 1.247 . S
C203 O192 1.253 . S
C203 O193 1.283 . S
C204 O196 1.304 1_655 S
C204 O198 1.272 . S
C205 O197 1.311 . S
C205 O199 1.231 . S
O206 Zn188 1.953 1_655 S
O206 C200 1.298 . S
O207 Zn208 1.953 . S
O207 C223 1.225 . S
Zn208 O207 1.953 . S
Zn208 O209 1.949 . S
Zn208 O215 1.919 . S
Zn208 O220 1.924 . S
O209 Zn208 1.949 . S
O209 Zn210 1.923 1_565 S
O209 Zn211 1.950 1_565 S
O209 Zn212 1.945 . S
Zn210 O209 1.923 1_545 S
Zn210 O213 1.933 . S
Zn210 O216 1.941 1_545 S
Zn210 O217 1.965 . S
Zn211 O209 1.950 1_545 S
Zn211 O218 1.938 . S
Zn211 O219 1.906 . S
Zn211 O229 1.953 1_545 S
Zn212 O209 1.945 . S
Zn212 O214 1.932 . S
Zn212 O221 1.977 . S
Zn212 O222 1.910 . S
O213 Zn210 1.933 . S
O213 C224 1.226 1_545 S
O214 Zn212 1.932 . S
O214 C224 1.307 . S
O215 Zn208 1.919 . S
O215 C226 1.253 . S
O216 Zn210 1.941 1_565 S
O216 C226 1.283 . S
O217 Zn210 1.965 . S
O217 C225 1.303 . S
O218 Zn211 1.938 . S
O218 C225 1.247 . S
O219 Zn211 1.906 . S
O219 C227 1.304 1_545 S
O220 Zn208 1.924 . S
O220 C228 1.311 . S
O221 Zn212 1.977 . S
O221 C227 1.272 . S
O222 Zn212 1.910 . S
O222 C228 1.231 . S
C223 O207 1.225 . S
C223 O229 1.298 . S
C224 O213 1.226 1_565 S
C224 O214 1.307 . S
C225 O217 1.303 . S
C225 O218 1.247 . S
C226 O215 1.253 . S
C226 O216 1.283 . S
C227 O219 1.304 1_565 S
C227 O221 1.272 . S
C228 O220 1.311 . S
C228 O222 1.231 . S
O229 Zn211 1.953 1_565 S
O229 C223 1.298 . S
O230 Zn231 1.953 . S
O230 C246 1.225 . S
Zn231 O230 1.953 . S
Zn231 O232 1.949 . S
Zn231 O238 1.919 . S
Zn231 O243 1.924 . S
O232 Zn231 1.949 . S
O232 Zn233 1.923 . S
O232 Zn234 1.950 . S
O232 Zn235 1.945 . S
Zn233 O232 1.923 . S
Zn233 O236 1.933 . S
Zn233 O239 1.941 . S
Zn233 O240 1.965 . S
Zn234 O232 1.950 . S
Zn234 O241 1.938 . S
Zn234 O242 1.906 . S
Zn234 O252 1.953 . S
Zn235 O232 1.945 . S
Zn235 O237 1.932 . S
Zn235 O244 1.977 . S
Zn235 O245 1.910 . S
O236 Zn233 1.933 . S
O236 C247 1.226 . S
O237 Zn235 1.932 . S
O237 C247 1.307 . S
O238 Zn231 1.919 . S
O238 C249 1.253 . S
O239 Zn233 1.941 . S
O239 C249 1.283 . S
O240 Zn233 1.965 . S
O240 C248 1.303 . S
O241 Zn234 1.938 . S
O241 C248 1.247 . S
O242 Zn234 1.906 . S
O242 C250 1.304 . S
O243 Zn231 1.924 . S
O243 C251 1.311 . S
O244 Zn235 1.977 . S
O244 C250 1.272 . S
O245 Zn235 1.910 . S
O245 C251 1.231 . S
C246 O230 1.225 . S
C246 O252 1.298 . S
C247 O236 1.226 . S
C247 O237 1.307 . S
C248 O240 1.303 . S
C248 O241 1.247 . S
C249 O238 1.253 . S
C249 O239 1.283 . S
C250 O242 1.304 . S
C250 O244 1.272 . S
C251 O243 1.311 . S
C251 O245 1.231 . S
O252 Zn234 1.953 . S
O252 C246 1.298 . S
O253 Zn254 1.953 . S
O253 C269 1.225 . S
Zn254 O253 1.953 . S
Zn254 O255 1.949 . S
Zn254 O261 1.919 . S
Zn254 O266 1.924 . S
O255 Zn254 1.949 . S
O255 Zn256 1.923 . S
O255 Zn257 1.950 . S
O255 Zn258 1.945 . S
Zn256 O255 1.923 . S
Zn256 O259 1.933 . S
Zn256 O262 1.941 . S
Zn256 O263 1.965 . S
Zn257 O255 1.950 . S
Zn257 O264 1.938 . S
Zn257 O265 1.906 . S
Zn257 O275 1.953 . S
Zn258 O255 1.945 . S
Zn258 O260 1.932 . S
Zn258 O267 1.977 . S
Zn258 O268 1.910 . S
O259 Zn256 1.933 . S
O259 C270 1.226 . S
O260 Zn258 1.932 . S
O260 C270 1.307 . S
O261 Zn254 1.919 . S
O261 C272 1.253 . S
O262 Zn256 1.941 . S
O262 C272 1.283 . S
O263 Zn256 1.965 . S
O263 C271 1.303 . S
O264 Zn257 1.938 . S
O264 C271 1.247 . S
O265 Zn257 1.906 . S
O265 C273 1.304 . S
O266 Zn254 1.924 . S
O266 C274 1.311 . S
O267 Zn258 1.977 . S
O267 C273 1.272 . S
O268 Zn258 1.910 . S
O268 C274 1.231 . S
C269 O253 1.225 . S
C269 O275 1.298 . S
C270 O259 1.226 . S
C270 O260 1.307 . S
C271 O263 1.303 . S
C271 O264 1.247 . S
C272 O261 1.253 . S
C272 O262 1.283 . S
C273 O265 1.304 . S
C273 O267 1.272 . S
C274 O266 1.311 . S
C274 O268 1.231 . S
O275 Zn257 1.953 . S
O275 C269 1.298 . S
O276 Zn277 1.953 . S
O276 C292 1.225 . S
Zn277 O276 1.953 . S
Zn277 O278 1.949 . S
Zn277 O284 1.919 . S
Zn277 O289 1.924 . S
O278 Zn277 1.949 . S
O278 Zn279 1.923 1_655 S
O278 Zn280 1.950 1_655 S
O278 Zn281 1.945 . S
Zn279 O278 1.923 1_455 S
Zn279 O282 1.933 . S
Zn279 O285 1.941 1_455 S
Zn279 O286 1.965 . S
Zn280 O278 1.950 1_455 S
Zn280 O287 1.938 . S
Zn280 O288 1.906 . S
Zn280 O298 1.953 1_455 S
Zn281 O278 1.945 . S
Zn281 O283 1.932 . S
Zn281 O290 1.977 . S
Zn281 O291 1.910 . S
O282 Zn279 1.933 . S
O282 C293 1.226 1_455 S
O283 Zn281 1.932 . S
O283 C293 1.307 . S
O284 Zn277 1.919 . S
O284 C295 1.253 . S
O285 Zn279 1.941 1_655 S
O285 C295 1.283 . S
O286 Zn279 1.965 . S
O286 C294 1.303 . S
O287 Zn280 1.938 . S
O287 C294 1.247 . S
O288 Zn280 1.906 . S
O288 C296 1.304 1_455 S
O289 Zn277 1.924 . S
O289 C297 1.311 . S
O290 Zn281 1.977 . S
O290 C296 1.272 . S
O291 Zn281 1.910 . S
O291 C297 1.231 . S
C292 O276 1.225 . S
C292 O298 1.298 . S
C293 O282 1.226 1_655 S
C293 O283 1.307 . S
C294 O286 1.303 . S
C294 O287 1.247 . S
C295 O284 1.253 . S
C295 O285 1.283 . S
C296 O288 1.304 1_655 S
C296 O290 1.272 . S
C297 O289 1.311 . S
C297 O291 1.231 . S
O298 Zn280 1.953 1_655 S
O298 C292 1.298 . S
O299 Zn300 1.953 . S
O299 C315 1.225 . S
Zn300 O299 1.953 . S
Zn300 O301 1.949 . S
Zn300 O307 1.919 . S
Zn300 O312 1.924 . S
O301 Zn300 1.949 . S
O301 Zn302 1.923 1_565 S
O301 Zn303 1.950 1_565 S
O301 Zn304 1.945 . S
Zn302 O301 1.923 1_545 S
Zn302 O305 1.933 . S
Zn302 O308 1.941 1_545 S
Zn302 O309 1.965 . S
Zn303 O301 1.950 1_545 S
Zn303 O310 1.938 . S
Zn303 O311 1.906 . S
Zn303 O321 1.953 1_545 S
Zn304 O301 1.945 . S
Zn304 O306 1.932 . S
Zn304 O313 1.977 . S
Zn304 O314 1.910 . S
O305 Zn302 1.933 . S
O305 C316 1.226 1_545 S
O306 Zn304 1.932 . S
O306 C316 1.307 . S
O307 Zn300 1.919 . S
O307 C318 1.253 . S
O308 Zn302 1.941 1_565 S
O308 C318 1.283 . S
O309 Zn302 1.965 . S
O309 C317 1.303 . S
O310 Zn303 1.938 . S
O310 C317 1.247 . S
O311 Zn303 1.906 . S
O311 C319 1.304 1_545 S
O312 Zn300 1.924 . S
O312 C320 1.311 . S
O313 Zn304 1.977 . S
O313 C319 1.272 . S
O314 Zn304 1.910 . S
O314 C320 1.231 . S
C315 O299 1.225 . S
C315 O321 1.298 . S
C316 O305 1.226 1_565 S
C316 O306 1.307 . S
C317 O309 1.303 . S
C317 O310 1.247 . S
C318 O307 1.253 . S
C318 O308 1.283 . S
C319 O311 1.304 1_565 S
C319 O313 1.272 . S
C320 O312 1.311 . S
C320 O314 1.231 . S
O321 Zn303 1.953 1_565 S
O321 C315 1.298 . S
O322 Zn323 1.953 . S
O322 C338 1.225 . S
Zn323 O322 1.953 . S
Zn323 O324 1.949 . S
Zn323 O330 1.919 . S
Zn323 O335 1.924 . S
O324 Zn323 1.949 . S
O324 Zn325 1.923 . S
O324 Zn326 1.950 . S
O324 Zn327 1.945 . S
Zn325 O324 1.923 . S
Zn325 O328 1.933 . S
Zn325 O331 1.941 . S
Zn325 O332 1.965 . S
Zn326 O324 1.950 . S
Zn326 O333 1.938 . S
Zn326 O334 1.906 . S
Zn326 O344 1.953 . S
Zn327 O324 1.945 . S
Zn327 O329 1.932 . S
Zn327 O336 1.977 . S
Zn327 O337 1.910 . S
O328 Zn325 1.933 . S
O328 C339 1.226 . S
O329 Zn327 1.932 . S
O329 C339 1.307 . S
O330 Zn323 1.919 . S
O330 C341 1.253 . S
O331 Zn325 1.941 . S
O331 C341 1.283 . S
O332 Zn325 1.965 . S
O332 C340 1.303 . S
O333 Zn326 1.938 . S
O333 C340 1.247 . S
O334 Zn326 1.906 . S
O334 C342 1.304 . S
O335 Zn323 1.924 . S
O335 C343 1.311 . S
O336 Zn327 1.977 . S
O336 C342 1.272 . S
O337 Zn327 1.910 . S
O337 C343 1.231 . S
C338 O322 1.225 . S
C338 O344 1.298 . S
C339 O328 1.226 . S
C339 O329 1.307 . S
C340 O332 1.303 . S
C340 O333 1.247 . S
C341 O330 1.253 . S
C341 O331 1.283 . S
C342 O334 1.304 . S
C342 O336 1.272 . S
C343 O335 1.311 . S
C343 O337 1.231 . S
O344 Zn326 1.953 . S
O344 C338 1.298 . S
O345 Zn346 1.953 . S
O345 C361 1.225 . S
Zn346 O345 1.953 . S
Zn346 O347 1.949 . S
Zn346 O353 1.919 . S
Zn346 O358 1.924 . S
O347 Zn346 1.949 . S
O347 Zn348 1.923 . S
O347 Zn349 1.950 . S
O347 Zn350 1.945 . S
Zn348 O347 1.923 . S
Zn348 O351 1.933 . S
Zn348 O354 1.941 . S
Zn348 O355 1.965 . S
Zn349 O347 1.950 . S
Zn349 O356 1.938 . S
Zn349 O357 1.906 . S
Zn349 O367 1.953 . S
Zn350 O347 1.945 . S
Zn350 O352 1.932 . S
Zn350 O359 1.977 . S
Zn350 O360 1.910 . S
O351 Zn348 1.933 . S
O351 C362 1.226 . S
O352 Zn350 1.932 . S
O352 C362 1.307 . S
O353 Zn346 1.919 . S
O353 C364 1.253 . S
O354 Zn348 1.941 . S
O354 C364 1.283 . S
O355 Zn348 1.965 . S
O355 C363 1.303 . S
O356 Zn349 1.938 . S
O356 C363 1.247 . S
O357 Zn349 1.906 . S
O357 C365 1.304 . S
O358 Zn346 1.924 . S
O358 C366 1.311 . S
O359 Zn350 1.977 . S
O359 C365 1.272 . S
O360 Zn350 1.910 . S
O360 C366 1.231 . S
C361 O345 1.225 . S
C361 O367 1.298 . S
C362 O351 1.226 . S
C362 O352 1.307 . S
C363 O355 1.303 . S
C363 O356 1.247 . S
C364 O353 1.253 . S
C364 O354 1.283 . S
C365 O357 1.304 . S
C365 O359 1.272 . S
C366 O358 1.311 . S
C366 O360 1.231 . S
O367 Zn349 1.953 . S
O367 C361 1.298 . S
C368 C369 1.369 . S
C368 C370 1.419 . S
C368 H372 0.930 . S
C369 C368 1.369 . S
C369 C378 1.429 . S
C370 C368 1.419 . S
C370 C371 1.363 . S
C370 H373 0.929 . S
C371 C370 1.363 . S
C371 C377 1.428 . S
H372 C368 0.930 . S
H373 C370 0.929 . S
S374 N375 1.613 . S
S374 N376 1.610 . S
N375 S374 1.613 . S
N375 C378 1.350 . S
N376 S374 1.610 . S
N376 C377 1.351 . S
C377 C371 1.428 . S
C377 N376 1.351 . S
C377 C378 1.434 . S
C378 C369 1.429 . S
C378 N375 1.350 . S
C378 C377 1.434 . S
C379 C380 1.369 . S
C379 C381 1.419 . S
C379 H383 0.930 . S
C380 C379 1.369 . S
C380 C389 1.429 1_655 S
C381 C379 1.419 . S
C381 C382 1.363 . S
C381 H384 0.929 . S
C382 C381 1.363 . S
C382 C388 1.428 . S
H383 C379 0.930 . S
H384 C381 0.929 . S
S385 N386 1.613 . S
S385 N387 1.610 1_455 S
N386 S385 1.613 . S
N386 C389 1.350 . S
N387 S385 1.610 1_655 S
N387 C388 1.351 . S
C388 C382 1.428 . S
C388 N387 1.351 . S
C388 C389 1.434 1_655 S
C389 C380 1.429 1_455 S
C389 N386 1.350 . S
C389 C388 1.434 1_455 S
C390 C391 1.369 . S
C390 C392 1.419 1_565 S
C390 H394 0.930 . S
C391 C390 1.369 . S
C391 C400 1.429 . S
C392 C390 1.419 1_545 S
C392 C393 1.363 1_545 S
C392 H395 0.929 . S
C393 C392 1.363 1_565 S
C393 C399 1.428 . S
H394 C390 0.930 . S
H395 C392 0.929 . S
S396 N397 1.613 . S
S396 N398 1.610 . S
N397 S396 1.613 . S
N397 C400 1.350 . S
N398 S396 1.610 . S
N398 C399 1.351 . S
C399 C393 1.428 . S
C399 N398 1.351 . S
C399 C400 1.434 . S
C400 C391 1.429 . S
C400 N397 1.350 . S
C400 C399 1.434 . S
C401 C402 1.369 . S
C401 C403 1.419 . S
C401 H405 0.930 . S
C402 C401 1.369 . S
C402 C411 1.429 . S
C403 C401 1.419 . S
C403 C404 1.363 . S
C403 H406 0.929 . S
C404 C403 1.363 . S
C404 C410 1.428 . S
H405 C401 0.930 . S
H406 C403 0.929 . S
S407 N408 1.613 . S
S407 N409 1.610 . S
N408 S407 1.613 . S
N408 C411 1.350 . S
N409 S407 1.610 . S
N409 C410 1.351 . S
C410 C404 1.428 . S
C410 N409 1.351 . S
C410 C411 1.434 . S
C411 C402 1.429 . S
C411 N408 1.350 . S
C411 C410 1.434 . S
C412 C413 1.369 . S
C412 C414 1.419 . S
C412 H416 0.930 . S
C413 C412 1.369 . S
C413 C422 1.429 . S
C414 C412 1.419 . S
C414 C415 1.363 . S
C414 H417 0.929 . S
C415 C414 1.363 . S
C415 C421 1.428 1_565 S
H416 C412 0.930 . S
H417 C414 0.929 . S
S418 N419 1.613 . S
S418 N420 1.610 . S
N419 S418 1.613 . S
N419 C422 1.350 1_545 S
N420 S418 1.610 . S
N420 C421 1.351 . S
C421 C415 1.428 1_545 S
C421 N420 1.351 . S
C421 C422 1.434 1_545 S
C422 C413 1.429 . S
C422 N419 1.350 1_565 S
C422 C421 1.434 1_565 S
C423 C424 1.369 . S
C423 C425 1.419 . S
C423 H427 0.930 . S
C424 C423 1.369 . S
C424 C433 1.429 . S
C425 C423 1.419 . S
C425 C426 1.363 . S
C425 H428 0.929 . S
C426 C425 1.363 . S
C426 C432 1.428 . S
H427 C423 0.930 . S
H428 C425 0.929 . S
S429 N430 1.613 . S
S429 N431 1.610 . S
N430 S429 1.613 . S
N430 C433 1.350 . S
N431 S429 1.610 . S
N431 C432 1.351 . S
C432 C426 1.428 . S
C432 N431 1.351 . S
C432 C433 1.434 . S
C433 C424 1.429 . S
C433 N430 1.350 . S
C433 C432 1.434 . S
C434 C435 1.369 . S
C434 C436 1.419 . S
C434 H438 0.930 . S
C435 C434 1.369 . S
C435 C444 1.429 . S
C436 C434 1.419 . S
C436 C437 1.363 . S
C436 H439 0.929 . S
C437 C436 1.363 . S
C437 C443 1.428 . S
H438 C434 0.930 . S
H439 C436 0.929 . S
S440 N441 1.613 . S
S440 N442 1.610 . S
N441 S440 1.613 . S
N441 C444 1.350 . S
N442 S440 1.610 . S
N442 C443 1.351 . S
C443 C437 1.428 . S
C443 N442 1.351 . S
C443 C444 1.434 . S
C444 C435 1.429 . S
C444 N441 1.350 . S
C444 C443 1.434 . S
C445 C446 1.369 . S
C445 C447 1.419 . S
C445 H449 0.930 . S
C446 C445 1.369 . S
C446 C455 1.429 . S
C447 C445 1.419 . S
C447 C448 1.363 . S
C447 H450 0.929 . S
C448 C447 1.363 . S
C448 C454 1.428 . S
H449 C445 0.930 . S
H450 C447 0.929 . S
S451 N452 1.613 . S
S451 N453 1.610 1_455 S
N452 S451 1.613 . S
N452 C455 1.350 1_455 S
N453 S451 1.610 1_655 S
N453 C454 1.351 . S
C454 C448 1.428 . S
C454 N453 1.351 . S
C454 C455 1.434 . S
C455 C446 1.429 . S
C455 N452 1.350 1_655 S
C455 C454 1.434 . S
C456 C457 1.369 . S
C456 C458 1.419 . S
C456 H460 0.930 . S
C457 C456 1.369 . S
C457 C466 1.429 . S
C458 C456 1.419 . S
C458 C459 1.363 . S
C458 H461 0.929 . S
C459 C458 1.363 . S
C459 C465 1.428 . S
H460 C456 0.930 . S
H461 C458 0.929 . S
S462 N463 1.613 . S
S462 N464 1.610 . S
N463 S462 1.613 . S
N463 C466 1.350 . S
N464 S462 1.610 . S
N464 C465 1.351 . S
C465 C459 1.428 . S
C465 N464 1.351 . S
C465 C466 1.434 . S
C466 C457 1.429 . S
C466 N463 1.350 . S
C466 C465 1.434 . S
C467 C468 1.369 . S
C467 C469 1.419 . S
C467 H471 0.930 1_455 S
C468 C467 1.369 . S
C468 C477 1.429 . S
C469 C467 1.419 . S
C469 C470 1.363 . S
C469 H472 0.929 . S
C470 C469 1.363 . S
C470 C476 1.428 . S
H471 C467 0.930 1_655 S
H472 C469 0.929 . S
S473 N474 1.613 . S
S473 N475 1.610 . S
N474 S473 1.613 . S
N474 C477 1.350 . S
N475 S473 1.610 . S
N475 C476 1.351 . S
C476 C470 1.428 . S
C476 N475 1.351 . S
C476 C477 1.434 . S
C477 C468 1.429 . S
C477 N474 1.350 . S
C477 C476 1.434 . S
C478 C479 1.369 . S
C478 C480 1.419 . S
C478 H482 0.930 . S
C479 C478 1.369 . S
C479 C488 1.429 1_545 S
C480 C478 1.419 . S
C480 C481 1.363 . S
C480 H483 0.929 . S
C481 C480 1.363 . S
C481 C487 1.428 . S
H482 C478 0.930 . S
H483 C480 0.929 . S
S484 N485 1.613 . S
S484 N486 1.610 1_565 S
N485 S484 1.613 . S
N485 C488 1.350 . S
N486 S484 1.610 1_545 S
N486 C487 1.351 . S
C487 C481 1.428 . S
C487 N486 1.351 . S
C487 C488 1.434 1_545 S
C488 C479 1.429 1_565 S
C488 N485 1.350 . S
C488 C487 1.434 1_565 S
C489 C490 1.369 . S
C489 C491 1.419 . S
C489 H493 0.930 . S
C490 C489 1.369 . S
C490 C499 1.429 . S
C491 C489 1.419 . S
C491 C492 1.363 . S
C491 H494 0.929 . S
C492 C491 1.363 . S
C492 C498 1.428 . S
H493 C489 0.930 . S
H494 C491 0.929 . S
S495 N496 1.613 . S
S495 N497 1.610 . S
N496 S495 1.613 . S
N496 C499 1.350 . S
N497 S495 1.610 . S
N497 C498 1.351 . S
C498 C492 1.428 . S
C498 N497 1.351 . S
C498 C499 1.434 . S
C499 C490 1.429 . S
C499 N496 1.350 . S
C499 C498 1.434 . S
C500 C501 1.369 . S
C500 C502 1.419 1_545 S
C500 H504 0.930 . S
C501 C500 1.369 . S
C501 C510 1.429 . S
C502 C500 1.419 1_565 S
C502 C503 1.363 1_565 S
C502 H505 0.929 . S
C503 C502 1.363 1_545 S
C503 C509 1.428 . S
H504 C500 0.930 . S
H505 C502 0.929 . S
S506 N507 1.613 . S
S506 N508 1.610 . S
N507 S506 1.613 . S
N507 C510 1.350 . S
N508 S506 1.610 . S
N508 C509 1.351 . S
C509 C503 1.428 . S
C509 N508 1.351 . S
C509 C510 1.434 . S
C510 C501 1.429 . S
C510 N507 1.350 . S
C510 C509 1.434 . S
C511 C512 1.369 . S
C511 C513 1.419 . S
C511 H515 0.930 . S
C512 C511 1.369 . S
C512 C521 1.429 . S
C513 C511 1.419 . S
C513 C514 1.363 . S
C513 H516 0.929 . S
C514 C513 1.363 . S
C514 C520 1.428 . S
H515 C511 0.930 . S
H516 C513 0.929 . S
S517 N518 1.613 . S
S517 N519 1.610 . S
N518 S517 1.613 . S
N518 C521 1.350 . S
N519 S517 1.610 . S
N519 C520 1.351 . S
C520 C514 1.428 . S
C520 N519 1.351 . S
C520 C521 1.434 . S
C521 C512 1.429 . S
C521 N518 1.350 . S
C521 C520 1.434 . S
C522 C523 1.369 . S
C522 C524 1.419 . S
C522 H526 0.930 . S
C523 C522 1.369 . S
C523 C532 1.429 . S
C524 C522 1.419 . S
C524 C525 1.363 . S
C524 H527 0.929 . S
C525 C524 1.363 . S
C525 C531 1.428 . S
H526 C522 0.930 . S
H527 C524 0.929 . S
S528 N529 1.613 . S
S528 N530 1.610 . S
N529 S528 1.613 . S
N529 C532 1.350 . S
N530 S528 1.610 . S
N530 C531 1.351 . S
C531 C525 1.428 . S
C531 N530 1.351 . S
C531 C532 1.434 . S
C532 C523 1.429 . S
C532 N529 1.350 . S
C532 C531 1.434 . S
C533 C534 1.369 . S
C533 C535 1.419 . S
C533 H537 0.930 . S
C534 C533 1.369 . S
C534 C543 1.429 . S
C535 C533 1.419 . S
C535 C536 1.363 . S
C535 H538 0.929 . S
C536 C535 1.363 . S
C536 C542 1.428 . S
H537 C533 0.930 . S
H538 C535 0.929 . S
S539 N540 1.613 . S
S539 N541 1.610 . S
N540 S539 1.613 . S
N540 C543 1.350 . S
N541 S539 1.610 . S
N541 C542 1.351 . S
C542 C536 1.428 . S
C542 N541 1.351 . S
C542 C543 1.434 . S
C543 C534 1.429 . S
C543 N540 1.350 . S
C543 C542 1.434 . S
C544 C545 1.369 . S
C544 C546 1.419 . S
C544 H548 0.930 . S
C545 C544 1.369 . S
C545 C554 1.429 1_455 S
C546 C544 1.419 . S
C546 C547 1.363 . S
C546 H549 0.929 . S
C547 C546 1.363 . S
C547 C553 1.428 1_455 S
H548 C544 0.930 . S
H549 C546 0.929 . S
S550 N551 1.613 . S
S550 N552 1.610 . S
N551 S550 1.613 . S
N551 C554 1.350 . S
N552 S550 1.610 . S
N552 C553 1.351 . S
C553 C547 1.428 1_655 S
C553 N552 1.351 . S
C553 C554 1.434 . S
C554 C545 1.429 1_655 S
C554 N551 1.350 . S
C554 C553 1.434 . S
C555 C556 1.369 . S
C555 C557 1.419 . S
C555 H559 0.930 . S
C556 C555 1.369 . S
C556 C565 1.429 1_545 S
C557 C555 1.419 . S
C557 C558 1.363 . S
C557 H560 0.929 . S
C558 C557 1.363 . S
C558 C564 1.428 1_545 S
H559 C555 0.930 . S
H560 C557 0.929 . S
S561 N562 1.613 . S
S561 N563 1.610 . S
N562 S561 1.613 . S
N562 C565 1.350 . S
N563 S561 1.610 . S
N563 C564 1.351 . S
C564 C558 1.428 1_565 S
C564 N563 1.351 . S
C564 C565 1.434 . S
C565 C556 1.429 1_565 S
C565 N562 1.350 . S
C565 C564 1.434 . S
C566 C567 1.369 . S
C566 C568 1.419 . S
C566 H570 0.930 . S
C567 C566 1.369 . S
C567 C576 1.429 . S
C568 C566 1.419 . S
C568 C569 1.363 . S
C568 H571 0.929 . S
C569 C568 1.363 . S
C569 C575 1.428 . S
H570 C566 0.930 . S
H571 C568 0.929 . S
S572 N573 1.613 . S
S572 N574 1.610 . S
N573 S572 1.613 . S
N573 C576 1.350 . S
N574 S572 1.610 . S
N574 C575 1.351 . S
C575 C569 1.428 . S
C575 N574 1.351 . S
C575 C576 1.434 . S
C576 C567 1.429 . S
C576 N573 1.350 . S
C576 C575 1.434 . S
C577 C578 1.369 . S
C577 C579 1.419 . S
C577 H581 0.930 . S
C578 C577 1.369 . S
C578 C587 1.429 . S
C579 C577 1.419 . S
C579 C580 1.363 . S
C579 H582 0.929 . S
C580 C579 1.363 . S
C580 C586 1.428 . S
H581 C577 0.930 . S
H582 C579 0.929 . S
S583 N584 1.613 . S
S583 N585 1.610 . S
N584 S583 1.613 . S
N584 C587 1.350 . S
N585 S583 1.610 . S
N585 C586 1.351 . S
C586 C580 1.428 . S
C586 N585 1.351 . S
C586 C587 1.434 . S
C587 C578 1.429 . S
C587 N584 1.350 . S
C587 C586 1.434 . S
C588 C589 1.369 1_455 S
C588 C590 1.419 . S
C588 H592 0.930 . S
C589 C588 1.369 1_655 S
C589 C598 1.429 . S
C590 C588 1.419 . S
C590 C591 1.363 1_455 S
C590 H593 0.929 . S
C591 C590 1.363 1_655 S
C591 C597 1.428 . S
H592 C588 0.930 . S
H593 C590 0.929 . S
S594 N595 1.613 . S
S594 N596 1.610 . S
N595 S594 1.613 . S
N595 C598 1.350 . S
N596 S594 1.610 . S
N596 C597 1.351 . S
C597 C591 1.428 . S
C597 N596 1.351 . S
C597 C598 1.434 . S
C598 C589 1.429 . S
C598 N595 1.350 . S
C598 C597 1.434 . S
C599 C600 1.369 . S
C599 C601 1.419 . S
C599 H603 0.930 1_565 S
C600 C599 1.369 . S
C600 C609 1.429 . S
C601 C599 1.419 . S
C601 C602 1.363 . S
C601 H604 0.929 1_565 S
C602 C601 1.363 . S
C602 C608 1.428 . S
H603 C599 0.930 1_545 S
H604 C601 0.929 1_545 S
S605 N606 1.613 . S
S605 N607 1.610 . S
N606 S605 1.613 . S
N606 C609 1.350 . S
N607 S605 1.610 . S
N607 C608 1.351 . S
C608 C602 1.428 . S
C608 N607 1.351 . S
C608 C609 1.434 . S
C609 C600 1.429 . S
C609 N606 1.350 . S
C609 C608 1.434 . S
C610 C611 1.369 . S
C610 C612 1.419 . S
C610 H614 0.930 . S
C611 C610 1.369 . S
C611 C620 1.429 . S
C612 C610 1.419 . S
C612 C613 1.363 . S
C612 H615 0.929 . S
C613 C612 1.363 . S
C613 C619 1.428 . S
H614 C610 0.930 . S
H615 C612 0.929 . S
S616 N617 1.613 . S
S616 N618 1.610 . S
N617 S616 1.613 . S
N617 C620 1.350 . S
N618 S616 1.610 . S
N618 C619 1.351 . S
C619 C613 1.428 . S
C619 N618 1.351 . S
C619 C620 1.434 . S
C620 C611 1.429 . S
C620 N617 1.350 . S
C620 C619 1.434 . S
C621 C622 1.369 . S
C621 C623 1.419 . S
C621 H625 0.930 . S
C622 C621 1.369 . S
C622 C631 1.429 . S
C623 C621 1.419 . S
C623 C624 1.363 . S
C623 H626 0.929 . S
C624 C623 1.363 . S
C624 C630 1.428 . S
H625 C621 0.930 . S
H626 C623 0.929 . S
S627 N628 1.613 . S
S627 N629 1.610 . S
N628 S627 1.613 . S
N628 C631 1.350 . S
N629 S627 1.610 . S
N629 C630 1.351 . S
C630 C624 1.428 . S
C630 N629 1.351 . S
C630 C631 1.434 . S
C631 C622 1.429 . S
C631 N628 1.350 . S
C631 C630 1.434 . S
C632 C633 1.369 . S
C632 C634 1.419 . S
C632 H636 0.930 . S
C633 C632 1.369 . S
C633 C642 1.429 . S
C634 C632 1.419 . S
C634 C635 1.363 . S
C634 H637 0.929 . S
C635 C634 1.363 . S
C635 C641 1.428 . S
H636 C632 0.930 . S
H637 C634 0.929 . S
S638 N639 1.613 . S
S638 N640 1.610 . S
N639 S638 1.613 . S
N639 C642 1.350 . S
N640 S638 1.610 . S
N640 C641 1.351 . S
C641 C635 1.428 . S
C641 N640 1.351 . S
C641 C642 1.434 . S
C642 C633 1.429 . S
C642 N639 1.350 . S
C642 C641 1.434 . S
C643 C644 1.369 . S
C643 C645 1.419 . S
C643 H647 0.930 . S
C644 C643 1.369 . S
C644 C653 1.429 . S
C645 C643 1.419 . S
C645 C646 1.363 . S
C645 H648 0.929 . S
C646 C645 1.363 . S
C646 C652 1.428 . S
H647 C643 0.930 . S
H648 C645 0.929 . S
S649 N650 1.613 . S
S649 N651 1.610 . S
N650 S649 1.613 . S
N650 C653 1.350 . S
N651 S649 1.610 . S
N651 C652 1.351 . S
C652 C646 1.428 . S
C652 N651 1.351 . S
C652 C653 1.434 . S
C653 C644 1.429 . S
C653 N650 1.350 . S
C653 C652 1.434 . S
C654 C655 1.369 . S
C654 C656 1.419 . S
C654 H658 0.930 . S
C655 C654 1.369 . S
C655 C664 1.429 . S
C656 C654 1.419 . S
C656 C657 1.363 . S
C656 H659 0.929 . S
C657 C656 1.363 . S
C657 C663 1.428 . S
H658 C654 0.930 . S
H659 C656 0.929 . S
S660 N661 1.613 . S
S660 N662 1.610 . S
N661 S660 1.613 . S
N661 C664 1.350 . S
N662 S660 1.610 . S
N662 C663 1.351 . S
C663 C657 1.428 . S
C663 N662 1.351 . S
C663 C664 1.434 . S
C664 C655 1.429 . S
C664 N661 1.350 . S
C664 C663 1.434 . S
C665 C666 1.369 . S
C665 C667 1.419 . S
C665 H669 0.930 . S
C666 C665 1.369 . S
C666 C675 1.429 . S
C667 C665 1.419 . S
C667 C668 1.363 . S
C667 H670 0.929 . S
C668 C667 1.363 . S
C668 C674 1.428 . S
H669 C665 0.930 . S
H670 C667 0.929 . S
S671 N672 1.613 . S
S671 N673 1.610 . S
N672 S671 1.613 . S
N672 C675 1.350 . S
N673 S671 1.610 . S
N673 C674 1.351 . S
C674 C668 1.428 . S
C674 N673 1.351 . S
C674 C675 1.434 . S
C675 C666 1.429 . S
C675 N672 1.350 . S
C675 C674 1.434 . S
C676 C677 1.369 . S
C676 C678 1.419 . S
C676 H680 0.930 . S
C677 C676 1.369 . S
C677 C686 1.429 . S
C678 C676 1.419 . S
C678 C679 1.363 . S
C678 H681 0.929 . S
C679 C678 1.363 . S
C679 C685 1.428 . S
H680 C676 0.930 . S
H681 C678 0.929 . S
S682 N683 1.613 . S
S682 N684 1.610 . S
N683 S682 1.613 . S
N683 C686 1.350 . S
N684 S682 1.610 . S
N684 C685 1.351 . S
C685 C679 1.428 . S
C685 N684 1.351 . S
C685 C686 1.434 . S
C686 C677 1.429 . S
C686 N683 1.350 . S
C686 C685 1.434 . S
C687 C688 1.369 . S
C687 C689 1.419 . S
C687 H691 0.930 . S
C688 C687 1.369 . S
C688 C697 1.429 . S
C689 C687 1.419 . S
C689 C690 1.363 . S
C689 H692 0.929 . S
C690 C689 1.363 . S
C690 C696 1.428 . S
H691 C687 0.930 . S
H692 C689 0.929 . S
S693 N694 1.613 . S
S693 N695 1.610 . S
N694 S693 1.613 . S
N694 C697 1.350 . S
N695 S693 1.610 . S
N695 C696 1.351 . S
C696 C690 1.428 . S
C696 N695 1.351 . S
C696 C697 1.434 . S
C697 C688 1.429 . S
C697 N694 1.350 . S
C697 C696 1.434 . S
C698 C699 1.369 . S
C698 C700 1.419 . S
C698 H702 0.930 . S
C699 C698 1.369 . S
C699 C708 1.429 . S
C700 C698 1.419 . S
C700 C701 1.363 . S
C700 H703 0.929 . S
C701 C700 1.363 . S
C701 C707 1.428 . S
H702 C698 0.930 . S
H703 C700 0.929 . S
S704 N705 1.613 . S
S704 N706 1.610 . S
N705 S704 1.613 . S
N705 C708 1.350 . S
N706 S704 1.610 . S
N706 C707 1.351 . S
C707 C701 1.428 . S
C707 N706 1.351 . S
C707 C708 1.434 . S
C708 C699 1.429 . S
C708 N705 1.350 . S
C708 C707 1.434 . S
C709 C710 1.369 . S
C709 C711 1.419 . S
C709 H713 0.930 . S
C710 C709 1.369 . S
C710 C719 1.429 . S
C711 C709 1.419 . S
C711 C712 1.363 . S
C711 H714 0.929 . S
C712 C711 1.363 . S
C712 C718 1.428 . S
H713 C709 0.930 . S
H714 C711 0.929 . S
S715 N716 1.613 . S
S715 N717 1.610 . S
N716 S715 1.613 . S
N716 C719 1.350 . S
N717 S715 1.610 . S
N717 C718 1.351 . S
C718 C712 1.428 . S
C718 N717 1.351 . S
C718 C719 1.434 . S
C719 C710 1.429 . S
C719 N716 1.350 . S
C719 C718 1.434 . S
C720 C721 1.369 . S
C720 C722 1.419 1_556 S
C720 H724 0.930 . S
C721 C720 1.369 . S
C721 C730 1.429 1_655 S
C722 C720 1.419 1_554 S
C722 C723 1.363 1_655 S
C722 H725 0.929 . S
C723 C722 1.363 1_455 S
C723 C729 1.428 . S
H724 C720 0.930 . S
H725 C722 0.929 . S
S726 N727 1.613 . S
S726 N728 1.610 1_556 S
N727 S726 1.613 . S
N727 C730 1.350 . S
N728 S726 1.610 1_554 S
N728 C729 1.351 . S
C729 C723 1.428 . S
C729 N728 1.351 . S
C729 C730 1.434 1_554 S
C730 C721 1.429 1_455 S
C730 N727 1.350 . S
C730 C729 1.434 1_556 S
C731 C732 1.369 1_545 S
C731 C733 1.419 1_556 S
C731 H735 0.930 . S
C732 C731 1.369 1_565 S
C732 C741 1.429 1_455 S
C733 C731 1.419 1_554 S
C733 C734 1.363 1_455 S
C733 H736 0.929 . S
C734 C733 1.363 1_655 S
C734 C740 1.428 1_545 S
H735 C731 0.930 . S
H736 C733 0.929 . S
S737 N738 1.613 1_554 S
S737 N739 1.610 . S
N738 S737 1.613 1_556 S
N738 C741 1.350 . S
N739 S737 1.610 . S
N739 C740 1.351 . S
C740 C734 1.428 1_565 S
C740 N739 1.351 . S
C740 C741 1.434 1_554 S
C741 C732 1.429 1_655 S
C741 N738 1.350 . S
C741 C740 1.434 1_556 S
C742 C743 1.369 . S
C742 C744 1.419 1_556 S
C742 H746 0.930 . S
C743 C742 1.369 . S
C743 C752 1.429 1_545 S
C744 C742 1.419 1_554 S
C744 C745 1.363 1_545 S
C744 H747 0.929 . S
C745 C744 1.363 1_565 S
C745 C751 1.428 . S
H746 C742 0.930 . S
H747 C744 0.929 . S
S748 N749 1.613 1_554 S
S748 N750 1.610 . S
N749 S748 1.613 1_556 S
N749 C752 1.350 . S
N750 S748 1.610 . S
N750 C751 1.351 . S
C751 C745 1.428 . S
C751 N750 1.351 . S
C751 C752 1.434 1_554 S
C752 C743 1.429 1_565 S
C752 N749 1.350 . S
C752 C751 1.434 1_556 S
C753 C754 1.369 . S
C753 C755 1.419 . S
C753 H757 0.930 . S
C754 C753 1.369 . S
C754 C763 1.429 1_554 S
C755 C753 1.419 . S
C755 C756 1.363 1_554 S
C755 H758 0.929 . S
C756 C755 1.363 1_556 S
C756 C762 1.428 . S
H757 C753 0.930 . S
H758 C755 0.929 . S
S759 N760 1.613 . S
S759 N761 1.610 . S
N760 S759 1.613 . S
N760 C763 1.350 . S
N761 S759 1.610 . S
N761 C762 1.351 . S
C762 C756 1.428 . S
C762 N761 1.351 . S
C762 C763 1.434 . S
C763 C754 1.429 1_556 S
C763 N760 1.350 . S
C763 C762 1.434 . S
C764 C765 1.369 1_455 S
C764 C766 1.419 1_545 S
C764 H768 0.930 . S
C765 C764 1.369 1_655 S
C765 C774 1.429 . S
C766 C764 1.419 1_565 S
C766 C767 1.363 . S
C766 H769 0.929 . S
C767 C766 1.363 . S
C767 C773 1.428 1_455 S
H768 C764 0.930 . S
H769 C766 0.929 . S
S770 N771 1.613 . S
S770 N772 1.610 1_545 S
N771 S770 1.613 . S
N771 C774 1.350 . S
N772 S770 1.610 1_565 S
N772 C773 1.351 . S
C773 C767 1.428 1_655 S
C773 N772 1.351 . S
C773 C774 1.434 1_565 S
C774 C765 1.429 . S
C774 N771 1.350 . S
C774 C773 1.434 1_545 S
C775 C776 1.369 . S
C775 C777 1.419 1_565 S
C775 H779 0.930 . S
C776 C775 1.369 . S
C776 C785 1.429 . S
C777 C775 1.419 1_545 S
C777 C778 1.363 . S
C777 H780 0.929 . S
C778 C777 1.363 . S
C778 C784 1.428 . S
H779 C775 0.930 . S
H780 C777 0.929 . S
S781 N782 1.613 1_545 S
S781 N783 1.610 . S
N782 S781 1.613 1_565 S
N782 C785 1.350 . S
N783 S781 1.610 . S
N783 C784 1.351 . S
C784 C778 1.428 . S
C784 N783 1.351 . S
C784 C785 1.434 1_545 S
C785 C776 1.429 . S
C785 N782 1.350 . S
C785 C784 1.434 1_565 S
C786 C787 1.369 . S
C786 C788 1.419 . S
C786 H790 0.930 . S
C787 C786 1.369 . S
C787 C796 1.429 . S
C788 C786 1.419 . S
C788 C789 1.363 . S
C788 H791 0.929 . S
C789 C788 1.363 . S
C789 C795 1.428 . S
H790 C786 0.930 . S
H791 C788 0.929 . S
S792 N793 1.613 . S
S792 N794 1.610 . S
N793 S792 1.613 . S
N793 C796 1.350 . S
N794 S792 1.610 . S
N794 C795 1.351 . S
C795 C789 1.428 . S
C795 N794 1.351 . S
C795 C796 1.434 . S
C796 C787 1.429 . S
C796 N793 1.350 . S
C796 C795 1.434 . S
C797 C798 1.369 . S
C797 C799 1.419 . S
C797 H801 0.930 . S
C798 C797 1.369 . S
C798 C807 1.429 1_455 S
C799 C797 1.419 . S
C799 C800 1.363 1_455 S
C799 H802 0.929 . S
C800 C799 1.363 1_655 S
C800 C806 1.428 . S
H801 C797 0.930 . S
H802 C799 0.929 . S
S803 N804 1.613 . S
S803 N805 1.610 . S
N804 S803 1.613 . S
N804 C807 1.350 . S
N805 S803 1.610 . S
N805 C806 1.351 . S
C806 C800 1.428 . S
C806 N805 1.351 . S
C806 C807 1.434 . S
C807 C798 1.429 1_655 S
C807 N804 1.350 . S
C807 C806 1.434 . S
C808 C809 1.361 1_655 S
C808 C810 1.419 . S
C808 H812 0.930 . S
C809 C808 1.361 1_455 S
C809 C818 1.442 . S
C810 C808 1.419 . S
C810 C811 1.363 1_655 S
C810 H813 0.929 . S
C811 C810 1.363 1_455 S
C811 C817 1.428 . S
H812 C808 0.930 . S
H813 C810 0.929 . S
S814 N815 1.613 . S
S814 N816 1.610 . S
N815 S814 1.613 . S
N815 C818 1.350 . S
N816 S814 1.610 . S
N816 C817 1.351 . S
C817 C811 1.428 . S
C817 N816 1.351 . S
C817 C818 1.434 . S
C818 C809 1.442 . S
C818 N815 1.350 . S
C818 C817 1.434 . S
C819 C820 1.369 1_655 S
C819 C821 1.419 . S
C819 H823 0.930 1_545 S
C820 C819 1.369 1_455 S
C820 C829 1.432 . S
C821 C819 1.419 . S
C821 C822 1.357 1_655 S
C821 H824 0.929 . S
C822 C821 1.357 1_455 S
C822 C828 1.439 . S
H823 C819 0.930 1_565 S
H824 C821 0.929 . S
S825 N826 1.613 . S
S825 N827 1.610 . S
N826 S825 1.613 . S
N826 C829 1.350 . S
N827 S825 1.610 . S
N827 C828 1.351 . S
C828 C822 1.439 . S
C828 N827 1.351 . S
C828 C829 1.434 . S
C829 C820 1.432 . S
C829 N826 1.350 . S
C829 C828 1.434 . S
C830 C831 1.369 . S
C830 C832 1.419 . S
C830 H834 0.930 . S
C831 C830 1.369 . S
C831 C840 1.429 . S
C832 C830 1.419 . S
C832 C833 1.363 . S
C832 H835 0.929 1_545 S
C833 C832 1.363 . S
C833 C839 1.428 . S
H834 C830 0.930 . S
H835 C832 0.929 1_565 S
S836 N837 1.613 . S
S836 N838 1.610 . S
N837 S836 1.613 . S
N837 C840 1.350 . S
N838 S836 1.610 . S
N838 C839 1.351 . S
C839 C833 1.428 . S
C839 N838 1.351 . S
C839 C840 1.434 . S
C840 C831 1.429 . S
C840 N837 1.350 . S
C840 C839 1.434 . S
C841 C842 1.369 . S
C841 C843 1.419 . S
C841 H845 0.930 . S
C842 C841 1.369 . S
C842 C851 1.429 . S
C843 C841 1.419 . S
C843 C844 1.363 . S
C843 H846 0.929 . S
C844 C843 1.363 . S
C844 C850 1.428 . S
H845 C841 0.930 . S
H846 C843 0.929 . S
S847 N848 1.613 . S
S847 N849 1.610 . S
N848 S847 1.613 . S
N848 C851 1.350 . S
N849 S847 1.610 . S
N849 C850 1.351 . S
C850 C844 1.428 . S
C850 N849 1.351 . S
C850 C851 1.434 . S
C851 C842 1.429 . S
C851 N848 1.350 . S
C851 C850 1.434 . S
C852 C853 1.362 1_655 S
C852 C854 1.419 . S
C852 H856 0.930 . S
C853 C852 1.362 1_455 S
C853 C862 1.433 . S
C854 C852 1.419 . S
C854 C855 1.363 . S
C854 H857 0.929 . S
C855 C854 1.363 . S
C855 C861 1.428 1_655 S
H856 C852 0.930 . S
H857 C854 0.929 . S
S858 N859 1.613 . S
S858 N860 1.610 . S
N859 S858 1.613 . S
N859 C862 1.350 . S
N860 S858 1.610 . S
N860 C861 1.351 . S
C861 C855 1.428 1_455 S
C861 N860 1.351 . S
C861 C862 1.434 . S
C862 C853 1.433 . S
C862 N859 1.350 . S
C862 C861 1.434 . S
C863 C864 1.364 1_565 S
C863 C865 1.419 . S
C863 H867 0.930 . S
C864 C863 1.364 1_545 S
C864 C873 1.431 . S
C865 C863 1.419 . S
C865 C866 1.360 1_655 S
C865 H868 0.929 . S
C866 C865 1.360 1_455 S
C866 C872 1.430 1_565 S
H867 C863 0.930 . S
H868 C865 0.929 . S
S869 N870 1.613 . S
S869 N871 1.610 . S
N870 S869 1.613 . S
N870 C873 1.350 1_455 S
N871 S869 1.610 . S
N871 C872 1.351 . S
C872 C866 1.430 1_545 S
C872 N871 1.351 . S
C872 C873 1.434 1_455 S
C873 C864 1.431 . S
C873 N870 1.350 1_655 S
C873 C872 1.434 1_655 S
C874 C875 1.369 1_545 S
C874 C876 1.419 . S
C874 H878 0.930 . S
C875 C874 1.369 1_565 S
C875 C884 1.429 . S
C876 C874 1.419 . S
C876 C877 1.356 1_545 S
C876 H879 0.929 . S
C877 C876 1.356 1_565 S
C877 C883 1.440 . S
H878 C874 0.930 . S
H879 C876 0.929 . S
S880 N881 1.613 . S
S880 N882 1.610 . S
N881 S880 1.613 . S
N881 C884 1.350 . S
N882 S880 1.610 . S
N882 C883 1.351 . S
C883 C877 1.440 . S
C883 N882 1.351 . S
C883 C884 1.434 . S
C884 C875 1.429 . S
C884 N881 1.350 . S
C884 C883 1.434 . S
C885 C886 1.369 . S
C885 C887 1.419 . S
C885 H889 0.930 . S
C886 C885 1.369 . S
C886 C895 1.429 . S
C887 C885 1.419 . S
C887 C888 1.363 . S
C887 H890 0.929 . S
C888 C887 1.363 . S
C888 C894 1.428 . S
H889 C885 0.930 . S
H890 C887 0.929 . S
S891 N892 1.613 . S
S891 N893 1.610 . S
N892 S891 1.613 . S
N892 C895 1.350 . S
N893 S891 1.610 . S
N893 C894 1.351 . S
C894 C888 1.428 . S
C894 N893 1.351 . S
C894 C895 1.434 . S
C895 C886 1.429 . S
C895 N892 1.350 . S
C895 C894 1.434 . S
C369 C89 1.006 . S
C371 C18 1.037 . S
C380 C20 1.004 1_655 S
C382 C41 1.039 . S
C391 C64 1.036 . S
C393 C43 1.009 1_565 S
C402 C66 1.010 . S
C404 C87 1.038 . S
C413 C110 1.038 . S
C415 C135 1.012 1_565 S
C424 C133 1.036 . S
C426 C158 1.008 . S
C435 C156 1.038 . S
C437 C181 1.005 . S
C446 C112 1.015 1_655 S
C448 C179 1.037 . S
C457 C202 1.037 . S
C459 C273 1.014 . S
C468 C204 1.011 1_455 S
C470 C225 1.036 . S
C479 C227 1.009 1_545 S
C481 C248 1.039 . S
C490 C250 1.003 . S
C492 C271 1.039 . S
C501 C294 1.035 . S
C503 C319 1.014 1_545 S
C512 C342 1.002 . S
C514 C317 1.039 . S
C523 C365 1.002 . S
C525 C340 1.039 . S
C534 C363 1.036 . S
C536 C296 1.015 1_455 S
C545 C17 0.852 . S
C547 C109 0.852 . S
C556 C132 0.852 . S
C558 C40 0.852 . S
C567 C63 0.852 . S
C569 C155 0.852 . S
C578 C86 0.852 . S
C580 C178 0.852 . S
C589 C293 0.852 . S
C591 C201 0.852 . S
C600 C316 0.851 . S
C602 C224 0.852 . S
C611 C247 0.852 . S
C613 C339 0.851 . S
C622 C362 0.852 . S
C624 C270 0.852 . S
C633 C21 1.893 . S
C635 C67 1.898 . S
C644 C44 1.900 . S
C646 C90 1.893 . S
C655 C159 1.900 . S
C657 C113 1.893 . S
C666 C182 1.895 . S
C668 C136 1.902 . S
C677 C251 1.899 . S
C679 C205 1.894 . S
C688 C274 1.893 . S
C690 C228 1.897 . S
C699 C297 1.899 . S
C701 C343 1.893 . S
C710 C320 1.894 . S
C712 C366 1.896 . S
C721 C200 1.609 . S
C723 C16 1.613 . S
C732 C223 1.614 . S
C734 C39 1.608 . S
C743 C246 1.614 . S
C745 C62 1.608 . S
C754 C85 1.609 . S
C756 C269 1.612 . S
C765 C292 1.616 . S
C767 C108 1.607 . S
C776 C315 1.608 . S
C778 C131 1.614 . S
C787 C338 1.608 . S
C789 C154 1.613 . S
C798 C361 1.611 . S
C800 C177 1.611 . S
C809 C180 1.844 1_455 S
C811 C19 1.854 . S
C820 C111 1.851 1_545 S
C822 C42 1.848 1_455 S
C831 C134 1.851 . S
C833 C65 1.854 1_545 S
C842 C157 1.851 . S
C844 C88 1.848 . S
C853 C364 1.851 . S
C855 C203 1.848 . S
C864 C295 1.849 . S
C866 C226 1.850 . S
C875 C318 1.855 . S
C877 C249 1.846 1_565 S
C886 C272 1.855 . S
C888 C341 1.852 . S
