# Generated by pormake.
# Topology zfw, (5)-cn, num edge types: 1
# Building blocks:
#     Node 0, Type 0, BuildingBlock: XOMCOT_clean_sbu_1, # of connection points: 5
#     Node 1, Type 0, BuildingBlock: XOMCOT_clean_sbu_1, # of connection points: 5
#     Node 2, Type 0, BuildingBlock: XOMCOT_clean_sbu_1, # of connection points: 5
#     Node 3, Type 0, BuildingBlock: XOMCOT_clean_sbu_1, # of connection points: 5
#     Node 4, Type 0, BuildingBlock: XOMCOT_clean_sbu_1, # of connection points: 5
#     Node 5, Type 0, BuildingBlock: XOMCOT_clean_sbu_1, # of connection points: 5
#     Node 6, Type 0, BuildingBlock: XOMCOT_clean_sbu_1, # of connection points: 5
#     Node 7, Type 0, BuildingBlock: XOMCOT_clean_sbu_1, # of connection points: 5
#     Node 8, Type 0, BuildingBlock: XOMCOT_clean_sbu_1, # of connection points: 5
#     Node 9, Type 0, BuildingBlock: XOMCOT_clean_sbu_1, # of connection points: 5
#     Node 10, Type 0, BuildingBlock: XOMCOT_clean_sbu_1, # of connection points: 5
#     Node 11, Type 0, BuildingBlock: XOMCOT_clean_sbu_1, # of connection points: 5
#     Node 12, Type 0, BuildingBlock: XOMCOT_clean_sbu_1, # of connection points: 5
#     Node 13, Type 0, BuildingBlock: XOMCOT_clean_sbu_1, # of connection points: 5
#     Node 14, Type 0, BuildingBlock: XOMCOT_clean_sbu_1, # of connection points: 5
#     Node 15, Type 0, BuildingBlock: XOMCOT_clean_sbu_1, # of connection points: 5
#     Edge 16, Type (0, 0), BuildingBlock: XUDNAN_clean_linker_2, # of connection points: 2
#     Edge 17, Type (0, 0), BuildingBlock: XUDNAN_clean_linker_2, # of connection points: 2
#     Edge 18, Type (0, 0), BuildingBlock: XUDNAN_clean_linker_2, # of connection points: 2
#     Edge 19, Type (0, 0), BuildingBlock: XUDNAN_clean_linker_2, # of connection points: 2
#     Edge 20, Type (0, 0), BuildingBlock: XUDNAN_clean_linker_2, # of connection points: 2
#     Edge 21, Type (0, 0), BuildingBlock: XUDNAN_clean_linker_2, # of connection points: 2
#     Edge 22, Type (0, 0), BuildingBlock: XUDNAN_clean_linker_2, # of connection points: 2
#     Edge 23, Type (0, 0), BuildingBlock: XUDNAN_clean_linker_2, # of connection points: 2
#     Edge 24, Type (0, 0), BuildingBlock: XUDNAN_clean_linker_2, # of connection points: 2
#     Edge 25, Type (0, 0), BuildingBlock: XUDNAN_clean_linker_2, # of connection points: 2
#     Edge 26, Type (0, 0), BuildingBlock: XUDNAN_clean_linker_2, # of connection points: 2
#     Edge 27, Type (0, 0), BuildingBlock: XUDNAN_clean_linker_2, # of connection points: 2
#     Edge 28, Type (0, 0), BuildingBlock: XUDNAN_clean_linker_2, # of connection points: 2
#     Edge 29, Type (0, 0), BuildingBlock: XUDNAN_clean_linker_2, # of connection points: 2
#     Edge 30, Type (0, 0), BuildingBlock: XUDNAN_clean_linker_2, # of connection points: 2
#     Edge 31, Type (0, 0), BuildingBlock: XUDNAN_clean_linker_2, # of connection points: 2
#     Edge 32, Type (0, 0), BuildingBlock: XUDNAN_clean_linker_2, # of connection points: 2
#     Edge 33, Type (0, 0), BuildingBlock: XUDNAN_clean_linker_2, # of connection points: 2
#     Edge 34, Type (0, 0), BuildingBlock: XUDNAN_clean_linker_2, # of connection points: 2
#     Edge 35, Type (0, 0), BuildingBlock: XUDNAN_clean_linker_2, # of connection points: 2
#     Edge 36, Type (0, 0), BuildingBlock: XUDNAN_clean_linker_2, # of connection points: 2
#     Edge 37, Type (0, 0), BuildingBlock: XUDNAN_clean_linker_2, # of connection points: 2
#     Edge 38, Type (0, 0), BuildingBlock: XUDNAN_clean_linker_2, # of connection points: 2
#     Edge 39, Type (0, 0), BuildingBlock: XUDNAN_clean_linker_2, # of connection points: 2
#     Edge 40, Type (0, 0), BuildingBlock: XUDNAN_clean_linker_2, # of connection points: 2
#     Edge 41, Type (0, 0), BuildingBlock: XUDNAN_clean_linker_2, # of connection points: 2
#     Edge 42, Type (0, 0), BuildingBlock: XUDNAN_clean_linker_2, # of connection points: 2
#     Edge 43, Type (0, 0), BuildingBlock: XUDNAN_clean_linker_2, # of connection points: 2
#     Edge 44, Type (0, 0), BuildingBlock: XUDNAN_clean_linker_2, # of connection points: 2
#     Edge 45, Type (0, 0), BuildingBlock: XUDNAN_clean_linker_2, # of connection points: 2
#     Edge 46, Type (0, 0), BuildingBlock: XUDNAN_clean_linker_2, # of connection points: 2
#     Edge 47, Type (0, 0), BuildingBlock: XUDNAN_clean_linker_2, # of connection points: 2
#     Edge 48, Type (0, 0), BuildingBlock: XUDNAN_clean_linker_2, # of connection points: 2
#     Edge 49, Type (0, 0), BuildingBlock: XUDNAN_clean_linker_2, # of connection points: 2
#     Edge 50, Type (0, 0), BuildingBlock: XUDNAN_clean_linker_2, # of connection points: 2
#     Edge 51, Type (0, 0), BuildingBlock: XUDNAN_clean_linker_2, # of connection points: 2
#     Edge 52, Type (0, 0), BuildingBlock: XUDNAN_clean_linker_2, # of connection points: 2
#     Edge 53, Type (0, 0), BuildingBlock: XUDNAN_clean_linker_2, # of connection points: 2
#     Edge 54, Type (0, 0), BuildingBlock: XUDNAN_clean_linker_2, # of connection points: 2
#     Edge 55, Type (0, 0), BuildingBlock: XUDNAN_clean_linker_2, # of connection points: 2
# Relax obj value: 0.246
# Max RMSD: 0.199
# Mean RMSD: 0.187
data_MOF--net-zfw--node1-XOMCOT_clean_sbu_1--edge1-XUDNAN_clean_linker_2
_symmetry_space_group_name_H-M    P1
_symmetry_Int_Tables_number       1
_symmetry_cell_setting            triclinic
loop_
_symmetry_equiv_pos_as_xyz
'x, y, z'
_cell_length_a     70.688066
_cell_length_b     70.177538
_cell_length_c     16.999627
_cell_angle_alpha  89.991013
_cell_angle_beta   89.984734
_cell_angle_gamma 90.009312
loop_
_atom_site_label
_atom_site_type_symbol
_atom_site_fract_x
_atom_site_fract_y
_atom_site_fract_z
_atom_type_partial_charge
C0 C 0.09928 0.07269 0.28344 0.0
C1 C 0.10105 0.06824 0.36191 0.0
N2 N 0.11099 0.08224 0.39682 0.0
N3 N 0.10826 0.0893 0.2693 0.0
C4 C 0.11509 0.09485 0.33965 0.0
H5 H 0.09189 0.06435 0.23972 0.0
Co6 Co 0.11101 0.1016 0.17383 0.0
C7 C 0.15126 0.11686 0.18006 0.0
O8 O 0.15096 0.1253 0.11116 0.0
N9 N 0.1134 0.11362 0.07608 0.0
C10 C 0.10469 0.12739 0.96401 0.0
C11 C 0.10142 0.12639 0.04374 0.0
C12 C 0.12388 0.10728 0.01506 0.0
N13 N 0.11864 0.11507 0.94606 0.0
O14 O 0.11973 0.07811 0.12875 0.0
H15 H 0.08979 0.13312 0.07431 0.0
H16 H 0.13431 0.09608 0.02021 0.0
O17 O 0.13671 0.10798 0.20509 0.0
C18 C 0.10746 0.06908 0.08857 0.0
O19 O 0.09045 0.07644 0.08139 0.0
N20 N 0.10136 0.12408 0.21868 0.0
C21 C 0.08332 0.15536 0.28738 0.0
C22 C 0.10202 0.15679 0.26013 0.0
C23 C 0.11079 0.14099 0.22567 0.0
C24 C 0.08309 0.12253 0.24336 0.0
C25 C 0.07387 0.13789 0.27853 0.0
H26 H 0.12494 0.14259 0.20336 0.0
H27 H 0.07566 0.10917 0.23615 0.0
H28 H 0.12308 0.10783 0.34865 0.0
H29 H 0.0952 0.05588 0.39127 0.0
H30 H 0.09609 0.13501 0.92172 0.0
H31 H 0.10974 0.17009 0.26398 0.0
H32 H 0.05952 0.13597 0.29933 0.0
C33 C 0.26798 0.77229 0.54595 0.0
C34 C 0.27204 0.77442 0.62462 0.0
N35 N 0.25685 0.78224 0.65987 0.0
N36 N 0.25041 0.77897 0.53185 0.0
C37 C 0.24394 0.78471 0.6026 0.0
H38 H 0.27729 0.76624 0.50217 0.0
Co39 Co 0.23776 0.78053 0.43637 0.0
C40 C 0.21894 0.81977 0.44651 0.0
O41 O 0.21175 0.82024 0.37537 0.0
N42 N 0.22536 0.78189 0.33915 0.0
C43 C 0.21244 0.77192 0.22723 0.0
C44 C 0.21388 0.76865 0.3069 0.0
C45 C 0.23046 0.79311 0.27821 0.0
N46 N 0.2232 0.78714 0.2092 0.0
O47 O 0.26016 0.79142 0.39003 0.0
H48 H 0.20846 0.75628 0.33742 0.0
H49 H 0.24057 0.80461 0.28331 0.0
O50 O 0.22869 0.80545 0.46888 0.0
C51 C 0.26965 0.779 0.35217 0.0
O52 O 0.26297 0.76153 0.3487 0.0
N53 N 0.21661 0.76863 0.48222 0.0
C54 C 0.18836 0.74881 0.56309 0.0
C55 C 0.18473 0.76683 0.53026 0.0
C56 C 0.19904 0.7765 0.48982 0.0
C57 C 0.22013 0.75079 0.51021 0.0
C58 C 0.20634 0.74075 0.5517 0.0
H59 H 0.19589 0.79021 0.46445 0.0
H60 H 0.23399 0.74455 0.50231 0.0
H61 H 0.23003 0.79073 0.6118 0.0
H62 H 0.28502 0.77028 0.65379 0.0
H63 H 0.20573 0.76257 0.18497 0.0
H64 H 0.17092 0.77339 0.53528 0.0
H65 H 0.20996 0.72699 0.57619 0.0
C66 C 0.5697 0.94359 0.81998 0.0
C67 C 0.56659 0.94732 0.89842 0.0
N68 N 0.56177 0.93086 0.93374 0.0
N69 N 0.56662 0.92491 0.80625 0.0
C70 C 0.56187 0.91754 0.87678 0.0
H71 H 0.57415 0.95382 0.77619 0.0
Co72 Co 0.56887 0.91207 0.71173 0.0
C73 C 0.53643 0.88404 0.71127 0.0
O74 O 0.54362 0.87376 0.65407 0.0
N75 N 0.5714 0.89953 0.61502 0.0
C76 C 0.58488 0.88991 0.50377 0.0
C77 C 0.58718 0.89175 0.58389 0.0
C78 C 0.55965 0.90181 0.55316 0.0
N79 N 0.56764 0.89664 0.48449 0.0
O80 O 0.55498 0.93216 0.66035 0.0
H81 H 0.60024 0.88943 0.61548 0.0
H82 H 0.54599 0.90867 0.55769 0.0
O83 O 0.54528 0.89872 0.73637 0.0
C84 C 0.56605 0.94277 0.62051 0.0
O85 O 0.58432 0.93931 0.62344 0.0
N86 N 0.584 0.89362 0.76149 0.0
C87 C 0.61139 0.87113 0.83502 0.0
C88 C 0.59301 0.86415 0.82293 0.0
C89 C 0.57945 0.87566 0.78617 0.0
C90 C 0.60178 0.90057 0.77272 0.0
C91 C 0.61568 0.88961 0.80915 0.0
H92 H 0.56545 0.87 0.77891 0.0
H93 H 0.60518 0.91479 0.75266 0.0
H94 H 0.55858 0.90265 0.88629 0.0
H95 H 0.56831 0.96092 0.92768 0.0
H96 H 0.59581 0.88593 0.46232 0.0
H97 H 0.58904 0.85005 0.84279 0.0
H98 H 0.62974 0.8955 0.81598 0.0
C99 C 0.40536 0.26102 0.08826 0.0
C100 C 0.40406 0.26464 0.16775 0.0
N101 N 0.4102 0.24911 0.20589 0.0
N102 N 0.41309 0.2436 0.07657 0.0
C103 C 0.41461 0.23638 0.14979 0.0
H104 H 0.40203 0.27107 0.0421 0.0
Co105 Co 0.42114 0.23352 0.97889 0.0
C106 C 0.4438 0.20651 0.0798 0.0
O107 O 0.4525 0.22068 0.11521 0.0
N108 N 0.42808 0.22403 0.88224 0.0
C109 C 0.43793 0.20652 0.78159 0.0
C110 C 0.43445 0.2066 0.8611 0.0
C111 C 0.42735 0.2341 0.81503 0.0
N112 N 0.43334 0.22379 0.75329 0.0
O113 O 0.39684 0.22212 0.96524 0.0
H114 H 0.43653 0.19469 0.90044 0.0
H115 H 0.42268 0.24877 0.81162 0.0
O116 O 0.43079 0.20996 0.02919 0.0
C117 C 0.38549 0.23378 0.93257 0.0
O118 O 0.39142 0.2512 0.91859 0.0
N119 N 0.4451 0.2459 0.98667 0.0
C120 C 0.47943 0.2652 0.00415 0.0
C121 C 0.47913 0.2459 0.98326 0.0
C122 C 0.46182 0.23667 0.97246 0.0
C123 C 0.44526 0.26515 -0.00194 0.0
C124 C 0.46222 0.27502 0.00858 0.0
H125 H 0.46197 0.22182 0.95593 0.0
H126 H 0.43228 0.27311 -0.00134 0.0
H127 H 0.41944 0.22227 0.1638 0.0
H128 H 0.40047 0.2781 0.19506 0.0
H129 H 0.4431 0.19467 0.74694 0.0
H130 H 0.49215 0.23795 0.97605 0.0
H131 H 0.4618 0.29009 0.0221 0.0
C132 C 0.07241 0.90726 0.75437 0.0
C133 C 0.07055 0.91179 0.67581 0.0
N134 N 0.08798 0.91483 0.64629 0.0
N135 N 0.09095 0.90709 0.77317 0.0
C136 C 0.10001 0.912 0.70655 0.0
H137 H 0.06107 0.90391 0.79482 0.0
Co138 Co 0.10213 0.90146 0.869 0.0
C139 C 0.13223 0.87444 0.82321 0.0
O140 O 0.12676 0.86284 0.8795 0.0
N141 N 0.11359 0.89709 0.96703 0.0
C142 C 0.13544 0.89864 0.06139 0.0
C143 C 0.13234 0.89583 0.98271 0.0
C144 C 0.1058 0.90165 0.03726 0.0
N145 N 0.11873 0.9024 0.09548 0.0
O146 O 0.11377 0.92601 0.8697 0.0
H147 H 0.14348 0.89511 0.9395 0.0
H148 H 0.09136 0.90648 0.04415 0.0
O149 O 0.12392 0.89045 0.81345 0.0
C150 C 0.1022 0.93898 0.89029 0.0
O151 O 0.08449 0.93424 0.90342 0.0
N152 N 0.08929 0.87757 0.86959 0.0
C153 C 0.06218 0.84853 0.85646 0.0
C154 C 0.07521 0.85192 0.79571 0.0
C155 C 0.08865 0.86643 0.8035 0.0
C156 C 0.07727 0.87387 0.93042 0.0
C157 C 0.06402 0.85917 0.92595 0.0
H158 H 0.09747 0.86972 0.75335 0.0
H159 H 0.07678 0.88306 0.9808 0.0
H160 H 0.11525 0.91296 0.70176 0.0
H161 H 0.05747 0.91269 0.64297 0.0
H162 H 0.14908 0.8992 0.09025 0.0
H163 H 0.07427 0.84444 0.74019 0.0
H164 H 0.05462 0.85693 0.97535 0.0
C165 C 0.41888 0.74467 0.00016 0.0
C166 C 0.41612 0.7401 0.92255 0.0
N167 N 0.42125 0.7552 0.87855 0.0
N168 N 0.42572 0.76255 0.00502 0.0
C169 C 0.42668 0.76876 0.93005 0.0
H170 H 0.4172 0.73514 0.04965 0.0
Co171 Co 0.43482 0.7726 0.09786 0.0
C172 C 0.46019 0.80375 0.04782 0.0
O173 O 0.47328 0.79705 0.09514 0.0
N174 N 0.44296 0.78214 0.19479 0.0
C175 C 0.44745 0.80004 0.30153 0.0
C176 C 0.44571 0.80015 0.22083 0.0
C177 C 0.442 0.77167 0.26105 0.0
N178 N 0.44515 0.78199 0.3264 0.0
O179 O 0.41085 0.78462 0.11628 0.0
H180 H 0.44503 0.81283 0.18495 0.0
H181 H 0.437 0.75714 0.26232 0.0
O182 O 0.44406 0.79555 0.04292 0.0
C183 C 0.3992 0.77354 0.15056 0.0
O184 O 0.40479 0.75621 0.16834 0.0
N185 N 0.45809 0.75929 0.0799 0.0
C186 C 0.48893 0.73547 0.04714 0.0
C187 C 0.48355 0.7497 0.99409 0.0
C188 C 0.46805 0.76132 0.01119 0.0
C189 C 0.46281 0.74491 0.13037 0.0
C190 C 0.47843 0.7332 0.11625 0.0
H191 H 0.46378 0.77153 0.96739 0.0
H192 H 0.45396 0.74158 0.17977 0.0
H193 H 0.43287 0.78224 0.91296 0.0
H194 H 0.41167 0.72638 0.90013 0.0
H195 H 0.4493 0.81237 0.33897 0.0
H196 H 0.4911 0.75167 0.9392 0.0
H197 H 0.48169 0.72183 0.1572 0.0
C198 C 0.55443 0.05465 0.04739 0.0
C199 C 0.55099 0.05517 0.96756 0.0
N200 N 0.54441 0.07263 0.94904 0.0
N201 N 0.54995 0.0717 0.07877 0.0
C202 C 0.54347 0.08211 0.01783 0.0
H203 H 0.56135 0.04322 0.07875 0.0
Co204 Co 0.55692 0.08173 0.17583 0.0
C205 C 0.51645 0.0902 0.17048 0.0
O206 O 0.51298 0.07214 0.15611 0.0
N207 N 0.56406 0.09176 0.27194 0.0
C208 C 0.58037 0.10499 0.36919 0.0
C209 C 0.5807 0.09998 0.29103 0.0
C210 C 0.55397 0.09163 0.33926 0.0
N211 N 0.56359 0.0996 0.3991 0.0
O212 O 0.5458 0.06044 0.22927 0.0
H213 H 0.59247 0.10191 0.25121 0.0
H214 H 0.53994 0.08557 0.34462 0.0
O215 O 0.53344 0.09577 0.18103 0.0
C216 C 0.55784 0.04773 0.24768 0.0
O217 O 0.57546 0.05001 0.2248 0.0
N218 N 0.56908 0.10195 0.1242 0.0
C219 C 0.59079 0.12885 0.04355 0.0
C220 C 0.57435 0.13435 0.08414 0.0
C221 C 0.56368 0.12065 0.12462 0.0
C222 C 0.58512 0.09642 0.08633 0.0
C223 C 0.59616 0.10958 0.04575 0.0
H224 H 0.55125 0.12513 0.15653 0.0
H225 H 0.5894 0.08163 0.08822 0.0
H226 H 0.53969 0.09699 0.02301 0.0
H227 H 0.55486 0.04424 0.92561 0.0
H228 H 0.59182 0.11138 0.40228 0.0
H229 H 0.56967 0.14904 0.08422 0.0
H230 H 0.60899 0.10469 0.01744 0.0
C231 C 0.25965 0.24654 0.43693 0.0
C232 C 0.25985 0.24909 0.3562 0.0
N233 N 0.24708 0.23711 0.32468 0.0
N234 N 0.2469 0.23291 0.45535 0.0
C235 C 0.23986 0.2273 0.38547 0.0
H236 H 0.26711 0.25524 0.47912 0.0
Co237 Co 0.23537 0.22673 0.55082 0.0
C238 C 0.23406 0.18446 0.53548 0.0
O239 O 0.24176 0.18142 0.60468 0.0
N240 N 0.22349 0.22077 0.64528 0.0
C241 C 0.20422 0.20924 0.73697 0.0
C242 C 0.20874 0.20894 0.65834 0.0
C243 C 0.22751 0.22822 0.71643 0.0
N244 N 0.21612 0.22135 0.77325 0.0
O245 O 0.25915 0.21878 0.59394 0.0
H246 H 0.20168 0.20056 0.61387 0.0
H247 H 0.23831 0.23882 0.72655 0.0
O248 O 0.23112 0.2014 0.51165 0.0
C249 C 0.26879 0.23168 0.62799 0.0
O250 O 0.26252 0.24931 0.62617 0.0
N251 N 0.21221 0.23543 0.51022 0.0
C252 C 0.18155 0.25276 0.4361 0.0
C253 C 0.18309 0.23285 0.43847 0.0
C254 C 0.19846 0.22442 0.47644 0.0
C255 C 0.21056 0.25475 0.51123 0.0
C256 C 0.19531 0.26374 0.47457 0.0
H257 H 0.19951 0.20908 0.47575 0.0
H258 H 0.22157 0.26323 0.53818 0.0
H259 H 0.22828 0.2174 0.37944 0.0
H260 H 0.26745 0.26003 0.32423 0.0
H261 H 0.19323 0.20098 0.76537 0.0
H262 H 0.17262 0.22388 0.4103 0.0
H263 H 0.19471 0.27916 0.47369 0.0
C264 C 0.91431 0.25874 0.46528 0.0
C265 C 0.91514 0.25485 0.38564 0.0
N266 N 0.9307 0.26334 0.35637 0.0
N267 N 0.92918 0.26981 0.4852 0.0
C268 C 0.93871 0.27242 0.41744 0.0
H269 H 0.90388 0.25328 0.50588 0.0
Co270 Co 0.93826 0.27816 0.58236 0.0
C271 C 0.93482 0.31441 0.4969 0.0
O272 O 0.91657 0.31145 0.48877 0.0
N273 N 0.94756 0.28632 0.67815 0.0
C274 C 0.96292 0.3012 0.77418 0.0
C275 C 0.95841 0.30161 0.6955 0.0
C276 C 0.94557 0.27693 0.74674 0.0
N277 N 0.95472 0.28571 0.80588 0.0
O278 O 0.91367 0.28748 0.61085 0.0
H279 H 0.96305 0.31227 0.65385 0.0
H280 H 0.93799 0.26364 0.75306 0.0
O281 O 0.94492 0.30238 0.53433 0.0
C282 C 0.90373 0.27506 0.64653 0.0
O283 O 0.91092 0.25796 0.65665 0.0
N284 N 0.96191 0.26768 0.55842 0.0
C285 C 0.99423 0.24794 0.51209 0.0
C286 C 0.99454 0.26787 0.51955 0.0
C287 C 0.97816 0.27752 0.54309 0.0
C288 C 0.96166 0.2483 0.55561 0.0
C289 C 0.9776 0.23815 0.5319 0.0
H290 H 0.97853 0.29283 0.54776 0.0
H291 H 0.94876 0.24073 0.56967 0.0
H292 H 0.95161 0.28065 0.41331 0.0
H293 H 0.90548 0.24595 0.35263 0.0
H294 H 0.97138 0.31151 0.80585 0.0
H295 H 0.00714 0.27594 0.50527 0.0
H296 H 0.97688 0.22275 0.52873 0.0
C297 C 0.77173 0.75471 0.92485 0.0
C298 C 0.7776 0.75544 0.84775 0.0
N299 N 0.77335 0.73865 0.81384 0.0
N300 N 0.76393 0.73751 0.93909 0.0
C301 C 0.76523 0.728 0.8704 0.0
H302 H 0.77265 0.76611 0.96748 0.0
Co303 Co 0.75347 0.72991 0.03401 0.0
C304 C 0.72226 0.70583 0.97069 0.0
O305 O 0.70934 0.71644 0.00485 0.0
N306 N 0.74415 0.72227 0.13151 0.0
C307 C 0.73501 0.70595 0.23712 0.0
C308 C 0.73282 0.70803 0.15705 0.0
C309 C 0.75316 0.72834 0.19664 0.0
N310 N 0.74802 0.71864 0.26155 0.0
O311 O 0.77443 0.71317 0.05209 0.0
H312 H 0.72474 0.6985 0.12048 0.0
H313 H 0.76399 0.73922 0.19522 0.0
O314 O 0.73984 0.70932 0.9805 0.0
C315 C 0.78977 0.72145 0.0715 0.0
O316 O 0.79055 0.74013 0.06851 0.0
N317 N 0.73338 0.74765 0.01901 0.0
C318 C 0.70708 0.77716 -0.0015 0.0
C319 C 0.71158 0.76484 0.93628 0.0
C320 C 0.72487 0.75033 0.94747 0.0
C321 C 0.72939 0.75977 0.07955 0.0
C322 C 0.7161 0.77432 0.07105 0.0
H323 H 0.72839 0.7413 0.89813 0.0
H324 H 0.73685 0.75865 0.1346 0.0
H325 H 0.75998 0.71369 0.86119 0.0
H326 H 0.78368 0.76762 0.81797 0.0
H327 H 0.72856 0.69505 0.27331 0.0
H328 H 0.70537 0.7667 0.87858 0.0
H329 H 0.71313 0.78342 0.12098 0.0
C330 C 0.74757 0.23679 0.95406 0.0
C331 C 0.75064 0.23212 0.03138 0.0
N332 N 0.74742 0.24773 0.07568 0.0
N333 N 0.74255 0.25525 0.94947 0.0
C334 C 0.74286 0.26164 0.02425 0.0
H335 H 0.74823 0.22716 0.90446 0.0
Co336 Co 0.73525 0.26693 0.85689 0.0
C337 C 0.70939 0.29672 0.91827 0.0
O338 O 0.69572 0.29032 0.87301 0.0
N339 N 0.72915 0.27813 0.76084 0.0
C340 C 0.72218 0.29481 0.65302 0.0
C341 C 0.72196 0.29482 0.73436 0.0
C342 C 0.73462 0.26897 0.6953 0.0
N343 N 0.72994 0.27829 0.62919 0.0
O344 O 0.75965 0.27877 0.8493 0.0
H345 H 0.71725 0.3065 0.77063 0.0
H346 H 0.74174 0.25532 0.69635 0.0
O347 O 0.72571 0.28893 0.91548 0.0
C348 C 0.7725 0.26768 0.82359 0.0
O349 O 0.76804 0.24993 0.80751 0.0
N350 N 0.71135 0.25381 0.86293 0.0
C351 C 0.68103 0.22787 0.87624 0.0
C352 C 0.68679 0.239 0.94073 0.0
C353 C 0.70176 0.25197 0.93259 0.0
C354 C 0.70558 0.24337 0.79955 0.0
C355 C 0.69018 0.23104 0.80411 0.0
H356 H 0.70613 0.25991 0.98382 0.0
H357 H 0.71327 0.24357 0.74529 0.0
H358 H 0.73853 0.27583 0.04115 0.0
H359 H 0.75434 0.21812 0.05314 0.0
H360 H 0.71682 0.30587 0.61466 0.0
H361 H 0.68051 0.2372 -0.00174 0.0
H362 H 0.68608 0.22353 0.75125 0.0
C363 C 0.88699 0.73102 0.64584 0.0
C364 C 0.8837 0.73305 0.72508 0.0
N365 N 0.89951 0.72803 0.76393 0.0
N366 N 0.90484 0.72478 0.63446 0.0
C367 C 0.912 0.72283 0.70788 0.0
H368 H 0.87718 0.73494 0.60013 0.0
Co369 Co 0.91835 0.72345 0.53974 0.0
C370 C 0.93077 0.68337 0.54832 0.0
O371 O 0.92391 0.67955 0.47827 0.0
N372 N 0.93184 0.72255 0.44476 0.0
C373 C 0.95022 0.71548 0.34239 0.0
C374 C 0.94749 0.71294 0.42214 0.0
C375 C 0.926 0.7315 0.37895 0.0
N376 N 0.93655 0.72714 0.31545 0.0
O377 O 0.8981 0.70933 0.49121 0.0
H378 H 0.95609 0.70414 0.46014 0.0
H379 H 0.91373 0.74056 0.3767 0.0
O380 O 0.92961 0.70012 0.57667 0.0
C381 C 0.88582 0.71931 0.45514 0.0
O382 O 0.88661 0.73797 0.46056 0.0
N383 N 0.93766 0.73808 0.58432 0.0
C384 C 0.96274 0.7629 0.65869 0.0
C385 C 0.96776 0.74382 0.64519 0.0
C386 C 0.95501 0.7316 0.60755 0.0
C387 C 0.93287 0.75671 0.59382 0.0
C388 C 0.94515 0.76936 0.63109 0.0
H389 H 0.95903 0.71692 0.59858 0.0
H390 H 0.91919 0.76164 0.5738 0.0
H391 H 0.92658 0.71911 0.71982 0.0
H392 H 0.87096 0.73862 0.75185 0.0
H393 H 0.96116 0.70895 0.30691 0.0
H394 H 0.98119 0.73824 0.66542 0.0
H395 H 0.94085 0.78406 0.63846 0.0
C396 C 0.6078 0.56967 0.81893 0.0
C397 C 0.61187 0.56894 0.89807 0.0
N398 N 0.62342 0.58362 0.91563 0.0
N399 N 0.61682 0.5847 0.78693 0.0
C400 C 0.62656 0.59259 0.84674 0.0
H401 H 0.59756 0.56092 0.78858 0.0
Co402 Co 0.6117 0.59573 0.69057 0.0
C403 C 0.64417 0.6222 0.65803 0.0
O404 O 0.63418 0.63225 0.6079 0.0
N405 N 0.60606 0.60666 0.5922 0.0
C406 C 0.59448 0.62436 0.49463 0.0
C407 C 0.59325 0.62027 0.57348 0.0
C408 C 0.61458 0.60249 0.52305 0.0
N409 N 0.60789 0.61313 0.4634 0.0
O410 O 0.62217 0.57381 0.63911 0.0
H411 H 0.58372 0.6272 0.61389 0.0
H412 H 0.62606 0.59241 0.5167 0.0
O413 O 0.63677 0.60773 0.69193 0.0
C414 C 0.60978 0.56162 0.61859 0.0
O415 O 0.59191 0.56531 0.63359 0.0
N416 N 0.60019 0.61632 0.74409 0.0
C417 C 0.57901 0.64268 0.83004 0.0
C418 C 0.59845 0.64531 0.81896 0.0
C419 C 0.60881 0.632 0.77577 0.0
C420 C 0.58137 0.61326 0.75657 0.0
C421 C 0.57041 0.62644 0.79808 0.0
H422 H 0.6238 0.6342 0.77106 0.0
H423 H 0.57481 0.60052 0.7333 0.0
H424 H 0.6345 0.60567 0.84126 0.0
H425 H 0.60523 0.55958 0.94052 0.0
H426 H 0.5861 0.63469 0.4626 0.0
H427 H 0.60562 0.65759 0.84358 0.0
H428 H 0.55546 0.62377 0.80652 0.0
C429 C 0.08837 0.40793 0.2635 0.0
C430 C 0.09068 0.41304 0.341 0.0
N431 N 0.07351 0.41307 0.37514 0.0
N432 N 0.06984 0.40492 0.24941 0.0
C433 C 0.06113 0.4082 0.31856 0.0
H434 H 0.09948 0.40614 0.22041 0.0
Co435 Co 0.05989 0.39764 0.154 0.0
C436 C 0.01919 0.39835 0.19711 0.0
O437 O 0.01582 0.41247 0.14834 0.0
N438 N 0.05043 0.3908 0.05693 0.0
C439 C 0.03345 0.38284 0.95218 0.0
C440 C 0.03536 0.3806 0.03253 0.0
C441 C 0.05772 0.39845 0.99129 0.0
N442 N 0.04747 0.39436 0.92688 0.0
O443 O 0.05218 0.42348 0.13473 0.0
H444 H 0.02595 0.37269 0.07061 0.0
H445 H 0.07032 0.40713 0.99134 0.0
O446 O 0.03585 0.39152 0.2029 0.0
C447 C 0.0653 0.4344 0.11013 0.0
O448 O 0.08256 0.42756 0.10531 0.0
N449 N 0.06859 0.37281 0.17127 0.0
C450 C 0.08791 0.33914 0.20458 0.0
C451 C 0.07371 0.34581 0.25518 0.0
C452 C 0.06421 0.36271 0.23751 0.0
C453 C 0.082 0.3663 0.12036 0.0
C454 C 0.0917 0.34935 0.13543 0.0
H455 H 0.0542 0.36821 0.27962 0.0
H456 H 0.08585 0.37475 0.06964 0.0
H457 H 0.04606 0.40682 0.32802 0.0
H458 H 0.10395 0.41576 0.37075 0.0
H459 H 0.02221 0.37708 0.9161 0.0
H460 H 0.07042 0.33836 0.3093 0.0
H461 H 0.10281 0.34487 0.09559 0.0
C462 C 0.6054 0.43613 0.13778 0.0
C463 C 0.60846 0.43935 0.05884 0.0
N464 N 0.6185 0.42459 0.03007 0.0
N465 N 0.61341 0.4194 0.15803 0.0
C466 C 0.62121 0.41273 0.09119 0.0
H467 H 0.5974 0.44512 0.17724 0.0
Co468 Co 0.61226 0.40735 0.25453 0.0
C469 C 0.65431 0.39705 0.24934 0.0
O470 O 0.66106 0.40978 0.29849 0.0
N471 N 0.61079 0.39543 0.35187 0.0
C472 C 0.59746 0.38355 0.45935 0.0
C473 C 0.59522 0.38666 0.38025 0.0
C474 C 0.62236 0.39734 0.41453 0.0
N475 N 0.6145 0.39031 0.4806 0.0
O476 O 0.6232 0.42946 0.30306 0.0
H477 H 0.58237 0.38422 0.34728 0.0
H478 H 0.63526 0.40564 0.41381 0.0
O479 O 0.63667 0.39637 0.23468 0.0
C480 C 0.61086 0.4395 0.33863 0.0
O481 O 0.59317 0.43373 0.33739 0.0
N482 N 0.60059 0.38615 0.20762 0.0
C483 C 0.57945 0.35516 0.15324 0.0
C484 C 0.59815 0.35276 0.17943 0.0
C485 C 0.6083 0.36831 0.208 0.0
C486 C 0.58275 0.389 0.17974 0.0
C487 C 0.57189 0.3737 0.15269 0.0
H488 H 0.62205 0.36574 0.23343 0.0
H489 H 0.57664 0.40312 0.18175 0.0
H490 H 0.62779 0.39891 0.08621 0.0
H491 H 0.60337 0.45135 0.02492 0.0
H492 H 0.58676 0.37832 0.49952 0.0
H493 H 0.60483 0.33889 0.17999 0.0
H494 H 0.55744 0.37637 0.1348 0.0
C495 C 0.09576 0.59514 0.72687 0.0
C496 C 0.09512 0.58936 0.64971 0.0
N497 N 0.07754 0.58304 0.63384 0.0
N498 N 0.07851 0.59297 0.75977 0.0
C499 C 0.06816 0.58441 0.70294 0.0
H500 H 0.10799 0.60124 0.75496 0.0
Co501 Co 0.06928 0.60113 0.85885 0.0
C502 C 0.04073 0.6167 0.74499 0.0
O503 O 0.05396 0.62132 0.69407 0.0
N504 N 0.06025 0.6085 0.95689 0.0
C505 C 0.04301 0.62102 0.05306 0.0
C506 C 0.04721 0.6219 0.97427 0.0
C507 C 0.06393 0.59981 0.02611 0.0
N508 N 0.05345 0.60703 0.0855 0.0
O509 O 0.05884 0.57633 0.87584 0.0
H510 H 0.04061 0.63133 0.9323 0.0
H511 H 0.07343 0.58781 0.03207 0.0
O512 O 0.04522 0.6092 0.81105 0.0
C513 C 0.07083 0.56342 0.89241 0.0
O514 O 0.0889 0.56782 0.89206 0.0
N515 N 0.08058 0.62545 0.84643 0.0
C516 C 0.10202 0.65825 0.82055 0.0
C517 C 0.08229 0.65871 0.81342 0.0
C518 C 0.07178 0.64221 0.8277 0.0
C519 C 0.09944 0.62547 0.86307 0.0
C520 C 0.11056 0.64154 0.84827 0.0
H521 H 0.05664 0.64316 0.82296 0.0
H522 H 0.10606 0.61256 0.88437 0.0
H523 H 0.05347 0.58058 0.71079 0.0
H524 H 0.10639 0.59122 0.60729 0.0
H525 H 0.03286 0.62984 0.08386 0.0
H526 H 0.07507 0.67152 0.79436 0.0
H527 H 0.12571 0.64081 0.85732 0.0
H528 H 0.22622 0.18461 0.37908 0.0
H529 H 0.22317 0.14893 0.58685 0.0
H530 H 0.20471 0.1251 0.51156 0.0
H531 H 0.18036 0.17852 0.32159 0.0
H532 H 0.18496 0.17861 0.21729 0.0
H533 H 0.20066 0.19096 0.28296 0.0
H534 H 0.22903 0.17159 0.22949 0.0
H535 H 0.21347 0.15919 0.16292 0.0
H536 H 0.22814 0.14591 0.23018 0.0
H537 H 0.18244 0.1079 0.41929 0.0
H538 H 0.15944 0.09819 0.31747 0.0
H539 H 0.17745 0.14544 0.17078 0.0
C540 C 0.22204 0.17163 0.40846 0.0
C541 C 0.22608 0.16863 0.4888 0.0
C542 C 0.22038 0.15141 0.52506 0.0
C543 C 0.20986 0.13784 0.48277 0.0
C544 C 0.20546 0.14165 0.40423 0.0
C545 C 0.21161 0.15805 0.36727 0.0
C546 C 0.20365 0.15979 0.285 0.0
C547 C 0.1917 0.17804 0.27627 0.0
C548 C 0.21952 0.15907 0.22326 0.0
C549 C 0.19151 0.14206 0.28201 0.0
C550 C 0.19284 0.13168 0.351 0.0
C551 C 0.18161 0.11568 0.36442 0.0
C552 C 0.16855 0.11031 0.30635 0.0
C553 C 0.16679 0.12094 0.23582 0.0
C554 C 0.17875 0.13676 0.22317 0.0
H555 H 0.18771 0.84316 0.43939 0.0
H556 H 0.23332 0.82535 0.59373 0.0
H557 H 0.21727 0.84058 0.70573 0.0
H558 H 0.17803 0.8901 0.54359 0.0
H559 H 0.15294 0.88788 0.52697 0.0
H560 H 0.16944 0.87828 0.45647 0.0
H561 H 0.1533 0.84529 0.46878 0.0
H562 H 0.13699 0.85467 0.54005 0.0
H563 H 0.15133 0.83425 0.56424 0.0
H564 H 0.19372 0.85162 0.80357 0.0
H565 H 0.16575 0.86192 0.87981 0.0
H566 H 0.13629 0.87533 0.6633 0.0
C567 C 0.1947 0.84312 0.49607 0.0
C568 C 0.21169 0.83285 0.50792 0.0
C569 C 0.22018 0.83287 0.58339 0.0
C570 C 0.21122 0.84158 0.64739 0.0
C571 C 0.194 0.8507 0.63464 0.0
C572 C 0.18602 0.85201 0.56058 0.0
C573 C 0.1667 0.86143 0.56427 0.0
C574 C 0.16679 0.88056 0.52022 0.0
C575 C 0.15118 0.84811 0.53248 0.0
C576 C 0.16475 0.86439 0.65225 0.0
C577 C 0.1807 0.8581 0.69163 0.0
C578 C 0.18142 0.85719 0.77347 0.0
C579 C 0.16547 0.86292 0.81622 0.0
C580 C 0.14916 0.86969 0.77711 0.0
C581 C 0.14887 0.87071 0.69424 0.0
H582 H 0.52265 0.84766 0.70987 0.0
H583 H 0.51473 0.90278 0.82056 0.0
H584 H 0.49051 0.88879 0.90839 0.0
H585 H 0.47329 0.83012 0.72619 0.0
H586 H 0.48106 0.80628 0.7491 0.0
H587 H 0.49529 0.82131 0.68667 0.0
H588 H 0.52391 0.81627 0.77981 0.0
H589 H 0.5097 0.80132 0.84212 0.0
H590 H 0.52148 0.82184 0.88285 0.0
H591 H 0.46977 0.86793 0.99376 0.0
H592 H 0.45555 0.84175 0.07227 0.0
H593 H 0.47784 0.80047 0.90749 0.0
C594 C 0.51544 0.85695 0.75091 0.0
C595 C 0.52038 0.87639 0.75755 0.0
C596 C 0.51102 0.88789 0.8139 0.0
C597 C 0.49721 0.88008 0.86387 0.0
C598 C 0.49296 0.86074 0.85686 0.0
C599 C 0.50184 0.84934 0.80176 0.0
C600 C 0.49643 0.82861 0.81181 0.0
C601 C 0.48588 0.82116 0.73907 0.0
C602 C 0.51392 0.8163 0.83027 0.0
C603 C 0.48337 0.83003 0.88204 0.0
C604 C 0.4813 0.8487 0.90664 0.0
C605 C 0.47098 0.85332 0.97403 0.0
C606 C 0.4629 0.83844 0.01806 0.0
C607 C 0.46528 0.81931 0.99434 0.0
C608 C 0.47539 0.81509 0.92515 0.0
H609 H 0.51784 0.12783 0.21194 0.0
H610 H 0.48074 0.08508 0.11076 0.0
H611 H 0.45677 0.10993 0.08459 0.0
H612 H 0.48044 0.15699 0.30304 0.0
H613 H 0.49261 0.17894 0.28122 0.0
H614 H 0.50592 0.15744 0.29857 0.0
H615 H 0.52258 0.1615 0.16368 0.0
H616 H 0.5093 0.18293 0.14579 0.0
H617 H 0.50846 0.16365 0.07585 0.0
H618 H 0.43834 0.14023 0.05641 0.0
H619 H 0.42648 0.17305 0.03548 0.0
H620 H 0.47552 0.19536 0.15841 0.0
C621 C 0.50456 0.12361 0.18537 0.0
C622 C 0.50118 0.10451 0.16331 0.0
C623 C 0.48361 0.09961 0.12861 0.0
C624 C 0.46992 0.11363 0.11337 0.0
C625 C 0.47392 0.13242 0.13408 0.0
C626 C 0.49074 0.13736 0.17024 0.0
C627 C 0.49203 0.15863 0.1835 0.0
C628 C 0.49279 0.16327 0.27183 0.0
C629 C 0.5091 0.16717 0.13957 0.0
C630 C 0.47352 0.16497 0.14743 0.0
C631 C 0.4632 0.1497 0.11937 0.0
C632 C 0.44616 0.15227 0.07932 0.0
C633 C 0.43955 0.17095 0.06753 0.0
C634 C 0.44996 0.18675 0.09596 0.0
C635 C 0.46705 0.18359 0.13704 0.0
H636 H 0.00157 0.76637 0.64744 0.0
H637 H 0.9526 0.78899 0.77027 0.0
H638 H 0.97309 0.8119 0.83951 0.0
H639 H 0.03473 0.77097 0.81364 0.0
H640 H 0.05427 0.77764 0.75129 0.0
H641 H 0.03593 0.76225 0.71402 0.0
H642 H 0.03024 0.78555 0.5982 0.0
H643 H 0.04849 0.80103 0.63519 0.0
H644 H 0.02501 0.8102 0.61868 0.0
H645 H 0.99808 0.83379 0.88755 0.0
H646 H 0.02615 0.8532 0.91391 0.0
H647 H 0.05987 0.81534 0.76763 0.0
C648 C 0.99521 0.77593 0.68986 0.0
C649 C 0.97543 0.77597 0.7029 0.0
C650 C 0.96765 0.78891 0.75815 0.0
C651 C 0.97919 0.80187 0.79833 0.0
C652 C 0.99854 0.80164 0.78329 0.0
C653 C 0.00656 0.78897 0.73084 0.0
C654 C 0.02772 0.79224 0.72374 0.0
C655 C 0.03881 0.77473 0.7524 0.0
C656 C 0.03318 0.79758 0.63892 0.0
C657 C 0.03021 0.80899 0.77918 0.0
C658 C 0.01319 0.81408 0.81304 0.0
C659 C 0.01159 0.82971 0.86277 0.0
C660 C 0.02778 0.84058 0.87801 0.0
C661 C 0.04553 0.83573 0.84427 0.0
C662 C 0.04665 0.81953 0.79467 0.0
H663 H 0.99449 0.21941 0.40296 0.0
H664 H 0.03152 0.25238 0.55415 0.0
H665 H 0.05889 0.23329 0.50862 0.0
H666 H 0.01598 0.17467 0.4348 0.0
H667 H 0.01295 0.16655 0.33501 0.0
H668 H 0.99666 0.18357 0.37608 0.0
H669 H 0.00365 0.20685 0.26124 0.0
H670 H 0.01992 0.18986 0.21959 0.0
H671 H 0.02773 0.21374 0.24107 0.0
H672 H 0.08181 0.20892 0.45233 0.0
H673 H 0.09838 0.18213 0.38793 0.0
H674 H 0.04613 0.16605 0.27123 0.0
C675 C 0.00837 0.22263 0.42649 0.0
C676 C 0.0109 0.2373 0.4824 0.0
C677 C 0.02931 0.24128 0.51089 0.0
C678 C 0.0449 0.23047 0.48557 0.0
C679 C 0.04184 0.2159 0.43121 0.0
C680 C 0.02402 0.2121 0.4016 0.0
C681 C 0.02435 0.19549 0.34494 0.0
C682 C 0.01174 0.17911 0.37451 0.0
C683 C 0.01857 0.20187 0.26179 0.0
C684 C 0.04507 0.19023 0.34841 0.0
C685 C 0.05498 0.20218 0.39817 0.0
C686 C 0.07422 0.19962 0.41254 0.0
C687 C 0.08354 0.18441 0.37533 0.0
C688 C 0.0736 0.17193 0.32433 0.0
C689 C 0.05414 0.17512 0.31048 0.0
H690 H 0.59972 0.16592 0.08543 0.0
H691 H 0.60878 0.12362 0.90267 0.0
H692 H 0.63148 0.14502 0.83777 0.0
H693 H 0.60306 0.20783 0.95105 0.0
H694 H 0.61477 0.22224 0.02407 0.0
H695 H 0.5982 0.20411 0.05402 0.0
H696 H 0.62391 0.18903 0.14295 0.0
H697 H 0.64061 0.20695 0.11264 0.0
H698 H 0.64623 0.18208 0.10041 0.0
H699 H 0.65602 0.16861 0.80295 0.0
H700 H 0.67868 0.19458 0.79013 0.0
H701 H 0.65142 0.22423 0.98464 0.0
C702 C 0.60612 0.16134 0.03076 0.0
C703 C 0.60264 0.1429 -2e-05 0.0
C704 C 0.61152 0.13743 0.92867 0.0
C705 C 0.62435 0.14956 0.8909 0.0
C706 C 0.6279 0.16732 0.92408 0.0
C707 C 0.61882 0.17342 0.99144 0.0
C708 C 0.62565 0.19312 0.01527 0.0
C709 C 0.60946 0.20769 0.01081 0.0
C710 C 0.63463 0.19276 0.0977 0.0
C711 C 0.6404 0.19681 0.95207 0.0
C712 C 0.64142 0.18167 0.90042 0.0
C713 C 0.65494 0.18087 0.84127 0.0
C714 C 0.66771 0.19599 0.83404 0.0
C715 C 0.66676 0.21213 0.88453 0.0
C716 C 0.65273 0.21239 0.94436 0.0
H717 H 0.61878 0.83293 0.81368 0.0
H718 H 0.63745 0.88267 0.94415 0.0
H719 H 0.66334 0.86382 0.00241 0.0
H720 H 0.62916 0.79809 0.96871 0.0
H721 H 0.63691 0.78018 0.8999 0.0
H722 H 0.61933 0.79739 0.87092 0.0
H723 H 0.64016 0.80719 0.75217 0.0
H724 H 0.65785 0.79013 0.78109 0.0
H725 H 0.66417 0.81484 0.76891 0.0
H726 H 0.68817 0.84026 0.04062 0.0
H727 H 0.70985 0.81323 0.05986 0.0
H728 H 0.67437 0.77815 0.90957 0.0
C729 C 0.62811 0.83977 0.85553 0.0
C730 C 0.62614 0.85933 0.87398 0.0
C731 C 0.63885 0.8678 0.92815 0.0
C732 C 0.65353 0.85719 0.96194 0.0
C733 C 0.65527 0.83806 0.94146 0.0
C734 C 0.64285 0.82936 0.89001 0.0
C735 C 0.64818 0.80869 0.87658 0.0
C736 C 0.63246 0.7953 0.90579 0.0
C737 C 0.65287 0.80501 0.78952 0.0
C738 C 0.66569 0.80722 0.92768 0.0
C739 C 0.66948 0.82432 0.96468 0.0
C740 C 0.68521 0.82671 0.0129 0.0
C741 C 0.69739 0.81118 0.02386 0.0
C742 C 0.69378 0.7934 0.98706 0.0
C743 C 0.67764 0.79151 0.93837 0.0
H744 H 0.69738 0.70875 0.85099 0.0
H745 H 0.73331 0.66851 0.97309 0.0
H746 H 0.71987 0.64213 0.89314 0.0
H747 H 0.65732 0.68148 0.83912 0.0
H748 H 0.65054 0.68891 0.74165 0.0
H749 H 0.66456 0.70444 0.80214 0.0
H750 H 0.69023 0.70618 0.69298 0.0
H751 H 0.67611 0.69071 0.63198 0.0
H752 H 0.70022 0.68445 0.65468 0.0
H753 H 0.69825 0.61999 0.81592 0.0
H754 H 0.67261 0.6044 0.74012 0.0
H755 H 0.65347 0.65977 0.6597 0.0
C756 C 0.70263 0.6944 0.85959 0.0
C757 C 0.7162 0.69045 0.91795 0.0
C758 C 0.72292 0.67165 0.92809 0.0
C759 C 0.71538 0.65666 0.88301 0.0
C760 C 0.70164 0.66095 0.8267 0.0
C761 C 0.69569 0.67946 0.81368 0.0
C762 C 0.68028 0.68032 0.75218 0.0
C763 C 0.66211 0.68931 0.78583 0.0
C764 C 0.68713 0.69105 0.6786 0.0
C765 C 0.67771 0.65932 0.73553 0.0
C766 C 0.69017 0.64831 0.77873 0.0
C767 C 0.68883 0.62847 0.77995 0.0
C768 C 0.67423 0.61973 0.73687 0.0
C769 C 0.66133 0.63084 0.69266 0.0
C770 C 0.66348 0.65083 0.69073 0.0
H771 H 0.64474 0.37332 0.12894 0.0
H772 H 0.69231 0.38957 0.27559 0.0
H773 H 0.71231 0.36587 0.20569 0.0
H774 H 0.65378 0.32413 0.12112 0.0
H775 H 0.64629 0.32177 0.02024 0.0
H776 H 0.6363 0.34015 0.08125 0.0
H777 H 0.64642 0.36572 0.98 0.0
H778 H 0.65652 0.34755 0.91818 0.0
H779 H 0.67085 0.36732 0.95028 0.0
H780 H 0.72656 0.3391 0.1196 0.0
H781 H 0.73374 0.31312 0.02554 0.0
H782 H 0.67626 0.31616 0.93665 0.0
C783 C 0.65935 0.37214 0.14668 0.0
C784 C 0.6669 0.38339 0.20801 0.0
C785 C 0.68619 0.38114 0.2287 0.0
C786 C 0.69763 0.36771 0.18934 0.0
C787 C 0.68957 0.35684 0.12913 0.0
C788 C 0.67086 0.35909 0.10789 0.0
C789 C 0.66528 0.34591 0.04166 0.0
C790 C 0.64949 0.33218 0.06767 0.0
C791 C 0.65944 0.3573 0.96819 0.0
C792 C 0.68376 0.33557 0.029 0.0
C793 C 0.69766 0.34199 0.07976 0.0
C794 C 0.71578 0.33411 0.07934 0.0
C795 C 0.71973 0.31935 0.02571 0.0
C796 C 0.70559 0.31263 0.9734 0.0
C797 C 0.68744 0.32098 0.9754 0.0
H798 H 0.02164 0.36968 0.30616 0.0
H799 H 0.98122 0.40661 0.18916 0.0
H800 H 0.95511 0.39037 0.25913 0.0
H801 H 0.99458 0.3277 0.29509 0.0
H802 H 0.00178 0.31878 0.3899 0.0
H803 H 0.01729 0.33422 0.33522 0.0
H804 H 0.0187 0.35802 0.45319 0.0
H805 H 0.0038 0.34192 0.50788 0.0
H806 H 0.9968 0.3664 0.49545 0.0
H807 H 0.93329 0.36866 0.33681 0.0
H808 H 0.91773 0.34349 0.41543 0.0
H809 H 0.97283 0.32126 0.48081 0.0
C810 C 0.00735 0.37452 0.29547 0.0
C811 C 0.00352 0.38944 0.24192 0.0
C812 C 0.98454 0.39525 0.22996 0.0
C813 C 0.96961 0.38611 0.26948 0.0
C814 C 0.97392 0.37128 0.32105 0.0
C815 C 0.99236 0.36559 0.33431 0.0
C816 C 0.99324 0.34882 0.39015 0.0
C817 C 0.00225 0.33135 0.35017 0.0
C818 C 0.00378 0.35412 0.46616 0.0
C819 C 0.97239 0.34576 0.40551 0.0
C820 C 0.96145 0.35889 0.36553 0.0
C821 C 0.94174 0.35842 0.36887 0.0
C822 C 0.93304 0.34406 0.41371 0.0
C823 C 0.94403 0.33039 0.45465 0.0
C824 C 0.96396 0.3315 0.4509 0.0
H825 H 0.95903 0.66194 0.48558 0.0
H826 H 0.93031 0.67498 0.70412 0.0
H827 H 0.95323 0.65497 0.77684 0.0
H828 H 0.97573 0.61269 0.53566 0.0
H829 H 0.99827 0.6166 0.4888 0.0
H830 H 0.97743 0.62843 0.45214 0.0
H831 H 0.9942 0.66107 0.46741 0.0
H832 H 0.01498 0.64935 0.50438 0.0
H833 H 0.00375 0.66774 0.56182 0.0
H834 H 0.98071 0.63596 0.82674 0.0
H835 H 0.01233 0.62233 0.85219 0.0
H836 H 0.02472 0.62427 0.60228 0.0
C837 C 0.9572 0.6599 0.54829 0.0
C838 C 0.94268 0.66942 0.58937 0.0
C839 C 0.94118 0.66739 0.67186 0.0
C840 C 0.95407 0.65604 0.71343 0.0
C841 C 0.96854 0.64711 0.67157 0.0
C842 C 0.97027 0.64905 0.59085 0.0
C843 C 0.98861 0.64042 0.56156 0.0
C844 C 0.98477 0.62353 0.50627 0.0
C845 C 0.00112 0.65555 0.52148 0.0
C846 C 0.99712 0.63379 0.63853 0.0
C847 C 0.98511 0.63731 0.701 0.0
C848 C 0.99019 0.63302 0.77824 0.0
C849 C 0.00818 0.62529 0.79214 0.0
C850 C 0.021 0.6224 0.72928 0.0
C851 C 0.01521 0.62638 0.6515 0.0
H852 H 0.49163 0.30084 0.95946 0.0
H853 H 0.50754 0.25143 0.09798 0.0
H854 H 0.53611 0.26832 0.14383 0.0
H855 H 0.54024 0.31485 0.90389 0.0
H856 H 0.53502 0.33994 0.9108 0.0
H857 H 0.51668 0.32336 0.88355 0.0
H858 H 0.49583 0.33575 -0.00192 0.0
H859 H 0.51413 0.35225 0.02597 0.0
H860 H 0.50508 0.33547 0.09691 0.0
H861 H 0.56067 0.29166 0.18632 0.0
H862 H 0.58086 0.3191 0.2168 0.0
H863 H 0.55043 0.35298 0.04392 0.0
C864 C 0.50126 0.29352 -0.00129 0.0
C865 C 0.49743 0.2748 0.02498 0.0
C866 C 0.51036 0.26566 0.07622 0.0
C867 C 0.52657 0.27517 0.10286 0.0
C868 C 0.52976 0.29372 0.07694 0.0
C869 C 0.51762 0.30274 0.02525 0.0
C870 C 0.52402 0.32295 0.00868 0.0
C871 C 0.52931 0.32542 0.92155 0.0
C872 C 0.50886 0.33745 0.03394 0.0
C873 C 0.54134 0.32406 0.06097 0.0
C874 C 0.54439 0.30703 0.09962 0.0
C875 C 0.55873 0.30493 0.15496 0.0
C876 C 0.57026 0.32066 0.17136 0.0
C877 C 0.5676 0.33831 0.13199 0.0
C878 C 0.55296 0.33983 0.07547 0.0
H879 H 0.49428 0.71531 0.91132 0.0
H880 H 0.51873 0.72566 0.14125 0.0
H881 H 0.54475 0.7032 0.11051 0.0
H882 H 0.50428 0.66524 0.9067 0.0
H883 H 0.50932 0.66477 0.80277 0.0
H884 H 0.49312 0.68217 0.84182 0.0
H885 H 0.51314 0.70933 0.78057 0.0
H886 H 0.52937 0.69201 0.74111 0.0
H887 H 0.538 0.71091 0.80326 0.0
H888 H 0.56838 0.68008 0.05309 0.0
H889 H 0.58693 0.65663 0.97628 0.0
H890 H 0.54607 0.66026 0.78668 0.0
C891 C 0.50523 0.71297 0.9548 0.0
C892 C 0.50467 0.7223 0.02836 0.0
C893 C 0.51898 0.71862 0.08456 0.0
C894 C 0.5338 0.70595 0.06752 0.0
C895 C 0.53392 0.69694 0.99442 0.0
C896 C 0.51993 0.70017 0.93921 0.0
C897 C 0.52297 0.68819 0.8662 0.0
C898 C 0.50644 0.67427 0.85368 0.0
C899 C 0.52606 0.70087 0.7935 0.0
C900 C 0.54091 0.67775 0.88874 0.0
C901 C 0.5471 0.68312 0.96265 0.0
C902 C 0.56363 0.67572 0.99533 0.0
C903 C 0.57408 0.66248 0.95131 0.0
C904 C 0.56784 0.65664 0.87594 0.0
C905 C 0.55102 0.66435 0.84458 0.0
H906 H 0.18156 0.71017 0.56806 0.0
H907 H 0.16188 0.764 0.6641 0.0
H908 H 0.13784 0.7468 0.7419 0.0
H909 H 0.13677 0.68719 0.55441 0.0
H910 H 0.14569 0.66419 0.58363 0.0
H911 H 0.16102 0.68085 0.53438 0.0
H912 H 0.18489 0.67864 0.64973 0.0
H913 H 0.1696 0.662 0.6995 0.0
H914 H 0.17699 0.68353 0.74853 0.0
H915 H 0.11541 0.72353 0.80765 0.0
H916 H 0.09698 0.696 0.8574 0.0
H917 H 0.13283 0.65764 0.72413 0.0
C918 C 0.17238 0.71841 0.606 0.0
C919 C 0.17365 0.73851 0.60945 0.0
C920 C 0.16102 0.74864 0.65905 0.0
C921 C 0.14741 0.73899 0.7041 0.0
C922 C 0.14667 0.71917 0.69952 0.0
C923 C 0.15889 0.70901 0.65195 0.0
C924 C 0.15532 0.6878 0.65787 0.0
C925 C 0.14934 0.67953 0.57782 0.0
C926 C 0.17274 0.67738 0.69089 0.0
C927 C 0.13911 0.68758 0.71594 0.0
C928 C 0.13424 0.70581 0.73911 0.0
C929 C 0.1192 0.70918 0.79035 0.0
C930 C 0.1088 0.69351 0.81817 0.0
C931 C 0.11364 0.67473 0.79522 0.0
C932 C 0.12907 0.67181 0.7439 0.0
H933 H 0.15948 0.28293 0.48157 0.0
H934 H 0.16922 0.24384 0.28808 0.0
H935 H 0.14478 0.26043 0.20975 0.0
H936 H 0.10841 0.2876 0.45416 0.0
H937 H 0.10834 0.31253 0.47958 0.0
H938 H 0.12577 0.29684 0.52179 0.0
H939 H 0.15258 0.31868 0.46962 0.0
H940 H 0.13524 0.33443 0.42743 0.0
H941 H 0.15351 0.32435 0.36625 0.0
H942 H 0.12096 0.28293 0.14911 0.0
H943 H 0.09895 0.30895 0.1128 0.0
H944 H 0.10459 0.3328 0.34695 0.0
C945 C 0.15637 0.2778 0.42289 0.0
C946 C 0.16616 0.26206 0.39096 0.0
C947 C 0.16167 0.25571 0.31406 0.0
C948 C 0.14788 0.26509 0.26905 0.0
C949 C 0.13859 0.28067 0.3021 0.0
C950 C 0.14257 0.28689 0.37748 0.0
C951 C 0.13099 0.30429 0.39853 0.0
C952 C 0.11758 0.30005 0.46761 0.0
C953 C 0.14385 0.32145 0.41648 0.0
C954 C 0.12013 0.30712 0.32274 0.0
C955 C 0.12467 0.29335 0.26779 0.0
C956 C 0.11713 0.29365 0.19199 0.0
C957 C 0.10471 0.30848 0.1718 0.0
C958 C 0.09991 0.32272 0.22735 0.0
C959 C 0.10764 0.32186 0.30387 0.0
H960 H 0.08293 0.04575 0.0116 0.0
H961 H 0.14165 0.05018 0.08348 0.0
H962 H 0.14788 0.0182 0.02715 0.0
H963 H 0.07693 0.99817 0.06223 0.0
H964 H 0.06151 0.99266 0.98093 0.0
H965 H 0.0625 0.01655 0.01878 0.0
H966 H 0.07085 0.02921 0.87969 0.0
H967 H 0.06994 0.00529 0.84132 0.0
H968 H 0.09095 0.01951 0.82812 0.0
H969 H 0.14677 0.98437 0.9701 0.0
H970 H 0.13805 0.9519 0.92503 0.0
H971 H 0.08001 0.97045 0.89435 0.0
C972 C 0.0972 0.04018 0.01462 0.0
C973 C 0.11182 0.05047 0.05182 0.0
C974 C 0.13023 0.04253 0.05516 0.0
C975 C 0.1339 0.02442 0.02303 0.0
C976 C 0.11903 0.01453 0.98762 0.0
C977 C 0.10105 0.02221 0.98337 0.0
C978 C 0.08712 0.00837 0.94771 0.0
C979 C 0.07108 0.00366 0.0059 0.0
C980 C 0.07926 0.01606 0.86956 0.0
C981 C 0.09989 0.99143 0.93438 0.0
C982 C 0.11833 0.99526 0.95637 0.0
C983 C 0.13241 0.98132 0.95202 0.0
C984 C 0.12736 0.96296 0.92612 0.0
C985 C 0.10838 0.95872 0.90617 0.0
C986 C 0.09465 0.97329 0.90906 0.0
H987 H 0.36937 0.75029 0.17727 0.0
H988 H 0.38512 0.80997 0.17139 0.0
H989 H 0.35287 0.81869 0.21754 0.0
H990 H 0.32083 0.75657 0.11031 0.0
H991 H 0.31219 0.73776 0.17292 0.0
H992 H 0.336 0.73684 0.13544 0.0
H993 H 0.34883 0.73381 0.27789 0.0
H994 H 0.32509 0.73482 0.31577 0.0
H995 H 0.34257 0.75161 0.34979 0.0
H996 H 0.31891 0.82006 0.27575 0.0
H997 H 0.28699 0.81405 0.33188 0.0
H998 H 0.29468 0.75345 0.29314 0.0
C999 C 0.36605 0.76524 0.18495 0.0
C1000 C 0.37974 0.77947 0.17109 0.0
C1001 C 0.37477 0.79886 0.18137 0.0
C1002 C 0.35652 0.80391 0.20775 0.0
C1003 C 0.34343 0.78939 0.22227 0.0
C1004 C 0.34801 0.77047 0.21012 0.0
C1005 C 0.33183 0.75737 0.23098 0.0
C1006 C 0.3248 0.7465 0.15806 0.0
C1007 C 0.33742 0.7436 0.29756 0.0
C1008 C 0.31743 0.77177 0.25849 0.0
C1009 C 0.32422 0.7902 0.25326 0.0
C1010 C 0.31344 0.80568 0.27914 0.0
C1011 C 0.29537 0.80215 0.31112 0.0
C1012 C 0.2883 0.7833 0.31659 0.0
C1013 C 0.29953 0.76806 0.28919 0.0
H1014 H 0.57846 0.01562 0.27057 0.0
H1015 H 0.52666 0.04355 0.34386 0.0
H1016 H 0.52113 0.01783 0.44149 0.0
H1017 H 0.56183 0.96661 0.29473 0.0
H1018 H 0.58421 0.95814 0.33158 0.0
H1019 H 0.58349 0.97754 0.26215 0.0
H1020 H 0.60214 0.99942 0.3561 0.0
H1021 H 0.60382 0.98021 0.4257 0.0
H1022 H 0.59391 0.00275 0.45553 0.0
H1023 H 0.52312 0.98986 0.53969 0.0
H1024 H 0.53282 0.9634 0.62832 0.0
H1025 H 0.58349 0.95523 0.48876 0.0
C1026 C 0.56574 0.01619 0.30605 0.0
C1027 C 0.55294 0.03151 0.29942 0.0
C1028 C 0.53654 0.03178 0.34735 0.0
C1029 C 0.53331 0.01726 0.40299 0.0
C1030 C 0.5465 0.00251 0.40906 0.0
C1031 C 0.56232 0.00188 0.36122 0.0
C1032 C 0.57509 0.98538 0.38195 0.0
C1033 C 0.57622 0.97106 0.31359 0.0
C1034 C 0.5949 0.99237 0.40629 0.0
C1035 C 0.56442 0.97716 0.45098 0.0
C1036 C 0.54779 0.98691 0.46531 0.0
C1037 C 0.53604 0.98207 0.52842 0.0
C1038 C 0.54163 0.96706 0.57846 0.0
C1039 C 0.55897 0.95746 0.56572 0.0
C1040 C 0.57025 0.96246 0.50047 0.0
H1041 H 0.3556 0.25671 0.90347 0.0
H1042 H 0.37381 0.19786 0.88824 0.0
H1043 H 0.34456 0.18994 0.81421 0.0
H1044 H 0.30409 0.24676 0.92126 0.0
H1045 H 0.29822 0.26748 0.86356 0.0
H1046 H 0.31916 0.26748 0.92398 0.0
H1047 H 0.33936 0.2761 0.80154 0.0
H1048 H 0.3186 0.2758 0.74055 0.0
H1049 H 0.33852 0.2609 0.71609 0.0
H1050 H 0.31466 0.18974 0.72775 0.0
H1051 H 0.28653 0.19686 0.64552 0.0
H1052 H 0.2891 0.25597 0.71968 0.0
C1053 C 0.35324 0.24205 0.88623 0.0
C1054 C 0.36688 0.22788 0.90162 0.0
C1055 C 0.36337 0.20887 0.8778 0.0
C1056 C 0.34686 0.20429 0.83544 0.0
C1057 C 0.33398 0.21884 0.81868 0.0
C1058 C 0.3369 0.23727 0.84473 0.0
C1059 C 0.32166 0.25063 0.81596 0.0
C1060 C 0.3101 0.25855 0.88532 0.0
C1061 C 0.33004 0.2668 0.76554 0.0
C1062 C 0.31003 0.23708 0.76689 0.0
C1063 C 0.31712 0.21874 0.76958 0.0
C1064 C 0.3089 0.20403 0.72609 0.0
C1065 C 0.29301 0.20821 0.67924 0.0
C1066 C 0.28566 0.22698 0.67584 0.0
C1067 C 0.29434 0.24147 0.72064 0.0
H1068 H 0.80405 0.24595 0.82132 0.0
H1069 H 0.78477 0.304 0.78776 0.0
H1070 H 0.81705 0.31326 0.74399 0.0
H1071 H 0.85178 0.25799 0.8921 0.0
H1072 H 0.86209 0.23773 0.84305 0.0
H1073 H 0.83805 0.23661 0.87799 0.0
H1074 H 0.82679 0.22752 0.73768 0.0
H1075 H 0.85071 0.22882 0.70215 0.0
H1076 H 0.8325 0.24293 0.65619 0.0
H1077 H 0.85131 0.31486 0.69064 0.0
H1078 H 0.884 0.30912 0.64252 0.0
H1079 H 0.87961 0.25006 0.71577 0.0
C1080 C 0.80666 0.2607 0.80598 0.0
C1081 C 0.79198 0.27428 0.80775 0.0
C1082 C 0.79593 0.29343 0.78738 0.0
C1083 C 0.81418 0.29877 0.76219 0.0
C1084 C 0.82827 0.28482 0.75909 0.0
C1085 C 0.82469 0.26624 0.78179 0.0
C1086 C 0.84182 0.25366 0.77114 0.0
C1087 C 0.84885 0.24605 0.85081 0.0
C1088 C 0.8377 0.23728 0.71335 0.0
C1089 C 0.85553 0.26785 0.73662 0.0
C1090 C 0.84764 0.2858 0.73018 0.0
C1091 C 0.85766 0.3009 0.69645 0.0
C1092 C 0.87618 0.29751 0.66903 0.0
C1093 C 0.8844 0.27916 0.67553 0.0
C1094 C 0.87386 0.26429 0.7102 0.0
H1095 H 0.82696 0.73009 0.0716 0.0
H1096 H 0.78595 0.69147 0.17339 0.0
H1097 H 0.80951 0.68151 0.27287 0.0
H1098 H 0.87094 0.70004 0.12124 0.0
H1099 H 0.8845 0.72106 0.14327 0.0
H1100 H 0.86683 0.7217 0.06683 0.0
H1101 H 0.85009 0.75006 0.13351 0.0
H1102 H 0.86779 0.7502 0.20892 0.0
H1103 H 0.84315 0.74824 0.23537 0.0
H1104 H 0.83501 0.68125 0.37755 0.0
H1105 H 0.85976 0.69061 0.47408 0.0
H1106 H 0.88332 0.72984 0.30385 0.0
C1107 C 0.82331 0.71883 0.11248 0.0
C1108 C 0.80483 0.71131 0.11434 0.0
C1109 C 0.80024 0.69701 0.16981 0.0
C1110 C 0.81352 0.69134 0.22674 0.0
C1111 C 0.83141 0.69982 0.22604 0.0
C1112 C 0.83643 0.71299 0.16899 0.0
C1113 C 0.8554 0.72201 0.18667 0.0
C1114 C 0.87028 0.71583 0.12583 0.0
C1115 C 0.85399 0.7439 0.19148 0.0
C1116 C 0.85944 0.71323 0.26604 0.0
C1117 C 0.84588 0.69994 0.28684 0.0
C1118 C 0.84595 0.69127 0.36096 0.0
C1119 C 0.85997 0.69664 0.41544 0.0
C1120 C 0.8733 0.71086 0.39571 0.0
C1121 C 0.87328 0.71882 0.31971 0.0
H1122 H 0.58691 0.5312 0.5915 0.0
H1123 H 0.64408 0.55161 0.5525 0.0
H1124 H 0.65153 0.52183 0.47994 0.0
H1125 H 0.59897 0.48164 0.62053 0.0
H1126 H 0.57798 0.47322 0.57141 0.0
H1127 H 0.57767 0.49574 0.62218 0.0
H1128 H 0.56655 0.51266 0.49468 0.0
H1129 H 0.56673 0.49023 0.44348 0.0
H1130 H 0.58022 0.51002 0.4058 0.0
H1131 H 0.65187 0.48956 0.40654 0.0
H1132 H 0.645 0.45876 0.34046 0.0
H1133 H 0.58765 0.46071 0.43108 0.0
C1134 C 0.60106 0.52945 0.56813 0.0
C1135 C 0.61492 0.54373 0.57764 0.0
C1136 C 0.63326 0.54079 0.54619 0.0
C1137 C 0.6376 0.52394 0.50489 0.0
C1138 C 0.62347 0.51017 0.49624 0.0
C1139 C 0.6056 0.5128 0.52746 0.0
C1140 C 0.5927 0.49623 0.50939 0.0
C1141 C 0.58647 0.48611 0.5854 0.0
C1142 C 0.57554 0.50267 0.46041 0.0
C1143 C 0.60593 0.4839 0.46176 0.0
C1144 C 0.62367 0.49199 0.45493 0.0
C1145 C 0.63803 0.48311 0.41192 0.0
C1146 C 0.63402 0.46563 0.37463 0.0
C1147 C 0.61578 0.45735 0.38034 0.0
C1148 C 0.60173 0.46663 0.42519 0.0
H1149 H 0.09274 0.53171 0.9025 0.0
H1150 H 0.03563 0.55197 0.94363 0.0
H1151 H 0.02714 0.52057 0.00073 0.0
H1152 H 0.07975 0.48255 0.8519 0.0
H1153 H 0.10048 0.47298 0.89919 0.0
H1154 H 0.10118 0.49643 0.85621 0.0
H1155 H 0.11221 0.51035 0.99 0.0
H1156 H 0.11132 0.48701 0.03354 0.0
H1157 H 0.09806 0.5063 0.07669 0.0
H1158 H 0.02591 0.48702 0.06192 0.0
H1159 H 0.03181 0.4547 0.11612 0.0
H1160 H 0.08983 0.45774 0.0336 0.0
C1161 C 0.07836 0.52951 0.92254 0.0
C1162 C 0.06484 0.54425 0.91866 0.0
C1163 C 0.04618 0.54078 0.94552 0.0
C1164 C 0.04126 0.52303 0.97824 0.0
C1165 C 0.05512 0.5089 0.98274 0.0
C1166 C 0.07323 0.51196 0.95466 0.0
C1167 C 0.08579 0.49485 0.96794 0.0
C1168 C 0.09217 0.4862 0.88912 0.0
C1169 C 0.10284 0.49994 0.02016 0.0
C1170 C 0.07214 0.48184 0.01015 0.0
C1171 C 0.05445 0.49 0.01768 0.0
C1172 C 0.0397 0.48049 0.05586 0.0
C1173 C 0.04318 0.46219 0.08666 0.0
C1174 C 0.0613 0.45373 0.07957 0.0
C1175 C 0.07584 0.46379 0.04062 0.0
H1176 H 0.11793 0.1343 0.8077 0.0
H1177 H 0.12749 0.07845 0.91 0.0
H1178 H 0.13005 0.06459 0.77801 0.0
H1179 H 0.08823 0.11943 0.65988 0.0
H1180 H 0.09678 0.13549 0.58513 0.0
H1181 H 0.09881 0.14185 0.68723 0.0
H1182 H 0.135 0.14644 0.67082 0.0
H1183 H 0.13303 0.14024 0.56823 0.0
H1184 H 0.14908 0.12732 0.63097 0.0
H1185 H 0.12671 0.05583 0.63745 0.0
H1186 H 0.11977 0.05332 0.49525 0.0
H1187 H 0.11265 0.11459 0.48285 0.0
C1188 C 0.12102 0.11926 0.80206 0.0
C1189 C 0.12275 0.10757 0.86922 0.0
C1190 C 0.12659 0.08785 0.85973 0.0
C1191 C 0.12796 0.07978 0.7848 0.0
C1192 C 0.12567 0.0916 0.71988 0.0
C1193 C 0.12254 0.11096 0.72753 0.0
C1194 C 0.11915 0.12019 0.64829 0.0
C1195 C 0.09958 0.1298 0.64499 0.0
C1196 C 0.13501 0.13439 0.62842 0.0
C1197 C 0.12001 0.10284 0.5956 0.0
C1198 C 0.12396 0.08652 0.63797 0.0
C1199 C 0.12399 0.06854 0.60323 0.0
C1200 C 0.11987 0.06722 0.52285 0.0
C1201 C 0.11584 0.08377 0.47846 0.0
C1202 C 0.11612 0.10179 0.51526 0.0
H1203 H 0.20429 0.78446 0.07058 0.0
H1204 H 0.25848 0.79969 0.17289 0.0
H1205 H 0.27195 0.80354 0.04096 0.0
H1206 H 0.22175 0.75611 0.92315 0.0
H1207 H 0.20517 0.76312 0.84796 0.0
H1208 H 0.19858 0.7647 0.94991 0.0
H1209 H 0.19076 0.80056 0.93262 0.0
H1210 H 0.1972 0.79903 0.83018 0.0
H1211 H 0.20842 0.81639 0.89275 0.0
H1212 H 0.28102 0.80097 0.90075 0.0
H1213 H 0.28438 0.79411 0.7589 0.0
H1214 H 0.22458 0.78069 0.74569 0.0
C1215 C 0.21884 0.78907 0.06495 0.0
C1216 C 0.23019 0.792 0.13221 0.0
C1217 C 0.24928 0.79782 0.12265 0.0
C1218 C 0.25715 0.79995 0.04772 0.0
C1219 C 0.24573 0.79643 0.98276 0.0
C1220 C 0.2269 0.79139 0.99034 0.0
C1221 C 0.21818 0.78703 0.91093 0.0
C1222 C 0.21048 0.76652 0.90786 0.0
C1223 C 0.20273 0.80163 0.89043 0.0
C1224 C 0.23532 0.78945 0.8584 0.0
C1225 C 0.25099 0.7951 0.90092 0.0
C1226 C 0.26878 0.79688 0.86644 0.0
C1227 C 0.2706 0.79278 0.78619 0.0
C1228 C 0.25474 0.78696 0.74156 0.0
C1229 C 0.23686 0.78549 0.77815 0.0
H1230 H 0.57315 0.90058 0.01964 0.0
H1231 H 0.54364 0.95458 0.0336 0.0
H1232 H 0.5391 0.9499 0.17676 0.0
H1233 H 0.54556 0.87493 0.16941 0.0
H1234 H 0.56605 0.86282 0.20783 0.0
H1235 H 0.56517 0.86947 0.10547 0.0
H1236 H 0.59667 0.888 0.12087 0.0
H1237 H 0.59767 0.88142 0.22307 0.0
H1238 H 0.59857 0.90619 0.19534 0.0
H1239 H 0.53889 0.93993 0.31746 0.0
H1240 H 0.5459 0.92744 0.44882 0.0
H1241 H 0.57644 0.88004 0.34481 0.0
C1242 C 0.56537 0.91118 0.05273 0.0
C1243 C 0.5585 0.92783 0.01602 0.0
C1244 C 0.54894 0.94174 0.06115 0.0
C1245 C 0.54619 0.93912 0.14207 0.0
C1246 C 0.55321 0.92256 0.17661 0.0
C1247 C 0.56275 0.90889 0.13359 0.0
C1248 C 0.57039 0.89325 0.18603 0.0
C1249 C 0.56124 0.87398 0.16598 0.0
C1250 C 0.59211 0.89217 0.18102 0.0
C1251 C 0.56392 0.90041 0.26555 0.0
C1252 C 0.55374 0.91714 0.25849 0.0
C1253 C 0.54676 0.92679 0.32371 0.0
C1254 C 0.55071 0.91944 0.39834 0.0
C1255 C 0.56164 0.90261 0.40737 0.0
C1256 C 0.56804 0.89287 0.33976 0.0
H1257 H 0.39104 0.25501 0.34224 0.0
H1258 H 0.44606 0.24163 0.24474 0.0
H1259 H 0.45885 0.23673 0.37791 0.0
H1260 H 0.40923 0.27948 0.52382 0.0
H1261 H 0.39067 0.26975 0.58449 0.0
H1262 H 0.3863 0.27461 0.48194 0.0
H1263 H 0.37566 0.23961 0.46174 0.0
H1264 H 0.38008 0.23465 0.56391 0.0
H1265 H 0.39144 0.22054 0.48897 0.0
H1266 H 0.46447 0.22873 0.51608 0.0
H1267 H 0.4632 0.22016 0.65725 0.0
H1268 H 0.40535 0.24014 0.66967 0.0
C1269 C 0.40585 0.25151 0.34977 0.0
C1270 C 0.41761 0.24847 0.28411 0.0
C1271 C 0.43687 0.24368 0.29493 0.0
C1272 C 0.44427 0.24104 0.37011 0.0
C1273 C 0.43223 0.24349 0.43388 0.0
C1274 C 0.4135 0.24884 0.42502 0.0
C1275 C 0.40343 0.24916 0.50369 0.0
C1276 C 0.39703 0.26946 0.52472 0.0
C1277 C 0.38667 0.23515 0.50458 0.0
C1278 C 0.41926 0.24252 0.55713 0.0
C1279 C 0.43576 0.23943 0.51545 0.0
C1280 C 0.45182 0.23152 0.55001 0.0
C1281 C 0.45098 0.2266 0.62958 0.0
C1282 C 0.43431 0.22981 0.67326 0.0
C1283 C 0.41836 0.23808 0.63711 0.0
H1284 H 0.07025 0.90204 0.51498 0.0
H1285 H 0.11796 0.93545 0.59659 0.0
H1286 H 0.1296 0.93824 0.4603 0.0
H1287 H 0.09489 0.87532 0.37874 0.0
H1288 H 0.07653 0.87461 0.30522 0.0
H1289 H 0.0704 0.87736 0.40728 0.0
H1290 H 0.05207 0.90837 0.37515 0.0
H1291 H 0.05798 0.90562 0.27261 0.0
H1292 H 0.06387 0.92738 0.32335 0.0
H1293 H 0.13798 0.93429 0.31972 0.0
H1294 H 0.1421 0.92476 0.18107 0.0
H1295 H 0.08881 0.89426 0.18885 0.0
C1296 C 0.08279 0.91045 0.5037 0.0
C1297 C 0.09321 0.91856 0.56611 0.0
C1298 C 0.10988 0.92901 0.54952 0.0
C1299 C 0.11652 0.93077 0.47235 0.0
C1300 C 0.10623 0.92213 0.4124 0.0
C1301 C 0.08963 0.91232 0.42687 0.0
C1302 C 0.08211 0.90311 0.35258 0.0
C1303 C 0.08093 0.88131 0.36153 0.0
C1304 C 0.06287 0.91164 0.32956 0.0
C1305 C 0.09739 0.90882 0.29475 0.0
C1306 C 0.11107 0.91991 0.33046 0.0
C1307 C 0.12724 0.92585 0.29071 0.0
C1308 C 0.12955 0.92023 0.21235 0.0
C1309 C 0.11576 0.90878 0.17471 0.0
C1310 C 0.09937 0.90325 0.21619 0.0
H1311 H 0.41913 0.78573 0.78111 0.0
H1312 H 0.4314 0.72516 0.78792 0.0
H1313 H 0.43946 0.72584 0.64708 0.0
H1314 H 0.39814 0.7861 0.58692 0.0
H1315 H 0.40814 0.80885 0.56058 0.0
H1316 H 0.403 0.80356 0.66203 0.0
H1317 H 0.438 0.81085 0.69971 0.0
H1318 H 0.44288 0.81638 0.59819 0.0
H1319 H 0.45671 0.79858 0.64834 0.0
H1320 H 0.4476 0.73318 0.50863 0.0
H1321 H 0.45271 0.74623 0.37588 0.0
H1322 H 0.43442 0.80194 0.45678 0.0
C1323 C 0.42344 0.77263 0.75269 0.0
C1324 C 0.42451 0.75538 0.7952 0.0
C1325 C 0.43012 0.73846 0.75619 0.0
C1326 C 0.43492 0.73874 0.67641 0.0
C1327 C 0.43395 0.75601 0.63655 0.0
C1328 C 0.42817 0.77262 0.6729 0.0
C1329 C 0.42821 0.78923 0.61601 0.0
C1330 C 0.40818 0.79741 0.60578 0.0
C1331 C 0.44228 0.80468 0.64219 0.0
C1332 C 0.43495 0.77931 0.54209 0.0
C1333 C 0.43831 0.7602 0.55562 0.0
C1334 C 0.44484 0.74808 0.49695 0.0
C1335 C 0.44763 0.75561 0.42176 0.0
C1336 C 0.44376 0.77504 0.40571 0.0
C1337 C 0.43761 0.78708 0.46719 0.0
H1338 H 0.54758 0.07127 0.4834 0.0
H1339 H 0.56805 0.12933 0.49712 0.0
H1340 H 0.56125 0.12983 0.63994 0.0
H1341 H 0.51024 0.07491 0.63802 0.0
H1342 H 0.51526 0.05142 0.67544 0.0
H1343 H 0.5188 0.05662 0.57262 0.0
H1344 H 0.55351 0.04527 0.58327 0.0
H1345 H 0.5502 0.04011 0.68598 0.0
H1346 H 0.56888 0.05597 0.6555 0.0
H1347 H 0.55541 0.12312 0.7802 0.0
H1348 H 0.55259 0.10938 0.91207 0.0
H1349 H 0.53649 0.05496 0.81041 0.0
C1350 C 0.55005 0.08422 0.51645 0.0
C1351 C 0.55803 0.1004 0.47999 0.0
C1352 C 0.56181 0.11692 0.52471 0.0
C1353 C 0.5579 0.11733 0.60538 0.0
C1354 C 0.55034 0.10104 0.64012 0.0
C1355 C 0.54651 0.08474 0.59732 0.0
C1356 C 0.54046 0.0685 0.65051 0.0
C1357 C 0.51997 0.06252 0.6331 0.0
C1358 C 0.55408 0.05147 0.64338 0.0
C1359 C 0.54205 0.07808 0.7301 0.0
C1360 C 0.54739 0.09694 0.72235 0.0
C1361 C 0.55085 0.10849 0.78716 0.0
C1362 C 0.54907 0.10053 0.86211 0.0
C1363 C 0.54399 0.0811 0.87189 0.0
C1364 C 0.54022 0.06986 0.80476 0.0
H1365 H 0.2474 0.22989 0.85893 0.0
H1366 H 0.1866 0.22232 0.8743 0.0
H1367 H 0.18797 0.2283 0.01726 0.0
H1368 H 0.25871 0.20619 0.03388 0.0
H1369 H 0.27772 0.22191 0.06195 0.0
H1370 H 0.27188 0.21891 0.95969 0.0
H1371 H 0.26713 0.25534 0.94462 0.0
H1372 H 0.27336 0.25842 0.04665 0.0
H1373 H 0.25124 0.26763 0.01018 0.0
H1374 H 0.19588 0.23317 0.15714 0.0
H1375 H 0.20999 0.23557 0.28892 0.0
H1376 H 0.26595 0.23972 0.18561 0.0
C1377 C 0.23435 0.22989 0.89222 0.0
C1378 C 0.21686 0.22572 0.85573 0.0
C1379 C 0.20012 0.22535 0.90137 0.0
C1380 C 0.20075 0.22888 0.98233 0.0
C1381 C 0.21823 0.23276 0.01657 0.0
C1382 C 0.23474 0.23329 0.97322 0.0
C1383 C 0.25181 0.23661 0.02557 0.0
C1384 C 0.26585 0.2199 0.01993 0.0
C1385 C 0.26145 0.25564 0.00558 0.0
C1386 C 0.2423 0.23736 0.10545 0.0
C1387 C 0.2229 0.23535 0.09839 0.0
C1388 C 0.21102 0.23482 0.16349 0.0
C1389 C 0.21919 0.23605 0.23804 0.0
C1390 C 0.23906 0.23761 0.24711 0.0
C1391 C 0.25073 0.23868 0.17991 0.0
H1392 H 0.91066 0.26064 0.22037 0.0
H1393 H 0.96759 0.26471 0.31429 0.0
H1394 H 0.98024 0.26834 0.18039 0.0
H1395 H 0.92435 0.23411 0.03705 0.0
H1396 H 0.90701 0.24658 0.97878 0.0
H1397 H 0.90258 0.24205 0.08154 0.0
H1398 H 0.89706 0.27815 0.10405 0.0
H1399 H 0.90166 0.28279 0.00176 0.0
H1400 H 0.91525 0.29487 0.07633 0.0
H1401 H 0.98623 0.27635 0.04077 0.0
H1402 H 0.9854 0.28514 0.89969 0.0
H1403 H 0.9252 0.2738 0.89349 0.0
C1404 C 0.92581 0.26174 0.21238 0.0
C1405 C 0.9381 0.26268 0.27766 0.0
C1406 C 0.95786 0.26441 0.26517 0.0
C1407 C 0.96521 0.2663 0.18931 0.0
C1408 C 0.95267 0.26607 0.12638 0.0
C1409 C 0.93343 0.26349 0.1367 0.0
C1410 C 0.923 0.26488 0.05909 0.0
C1411 C 0.91369 0.24576 0.03787 0.0
C1412 C 0.90839 0.28114 0.06044 0.0
C1413 C 0.93931 0.26936 0.00438 0.0
C1414 C 0.95631 0.26993 0.04445 0.0
C1415 C 0.97311 0.2755 0.00818 0.0
C1416 C 0.97251 0.28059 0.92859 0.0
C1417 C 0.95531 0.27986 0.88646 0.0
C1418 C 0.93857 0.27399 0.92455 0.0
H1419 H 0.74708 0.72037 0.72702 0.0
H1420 H 0.80201 0.7476 0.71554 0.0
H1421 H 0.80287 0.7423 0.57149 0.0
H1422 H 0.75479 0.68483 0.56762 0.0
H1423 H 0.73081 0.6873 0.5331 0.0
H1424 H 0.73616 0.6907 0.63582 0.0
H1425 H 0.72056 0.72414 0.62968 0.0
H1426 H 0.7155 0.72082 0.52695 0.0
H1427 H 0.72894 0.74126 0.55864 0.0
H1428 H 0.79672 0.73605 0.4293 0.0
H1429 H 0.78345 0.73105 0.29717 0.0
H1430 H 0.73149 0.70964 0.40099 0.0
C1431 C 0.75951 0.72469 0.69429 0.0
C1432 C 0.77463 0.73414 0.73182 0.0
C1433 C 0.79038 0.74027 0.68726 0.0
C1434 C 0.79101 0.73721 0.60585 0.0
C1435 C 0.77569 0.72813 0.5703 0.0
C1436 C 0.76021 0.722 0.61302 0.0
C1437 C 0.74479 0.71437 0.55988 0.0
C1438 C 0.74145 0.69303 0.57499 0.0
C1439 C 0.72637 0.72584 0.56935 0.0
C1440 C 0.75381 0.7177 0.48032 0.0
C1441 C 0.77177 0.72528 0.48779 0.0
C1442 C 0.78267 0.73013 0.42265 0.0
C1443 C 0.7749 0.72744 0.34779 0.0
C1444 C 0.75627 0.72024 0.33866 0.0
C1445 C 0.74578 0.71503 0.40601 0.0
H1446 H 0.73693 0.29797 0.49387 0.0
H1447 H 0.72622 0.24147 0.58771 0.0
H1448 H 0.73069 0.22763 0.45634 0.0
H1449 H 0.71277 0.29042 0.30729 0.0
H1450 H 0.72961 0.30406 0.25103 0.0
H1451 H 0.72544 0.30979 0.35286 0.0
H1452 H 0.76126 0.30608 0.38166 0.0
H1453 H 0.76551 0.3002 0.28002 0.0
H1454 H 0.77302 0.28411 0.35654 0.0
H1455 H 0.73639 0.21966 0.31779 0.0
H1456 H 0.74152 0.21802 0.17537 0.0
H1457 H 0.74922 0.27947 0.16828 0.0
C1458 C 0.73539 0.28274 0.48626 0.0
C1459 C 0.73151 0.27075 0.55099 0.0
C1460 C 0.72962 0.25085 0.53919 0.0
C1461 C 0.73203 0.24285 0.46478 0.0
C1462 C 0.73625 0.25494 0.40257 0.0
C1463 C 0.7378 0.27445 0.41195 0.0
C1464 C 0.74245 0.28406 0.33445 0.0
C1465 C 0.72662 0.29789 0.30998 0.0
C1466 C 0.76171 0.29421 0.33844 0.0
C1467 C 0.74321 0.26686 0.28062 0.0
C1468 C 0.73963 0.25025 0.32143 0.0
C1469 C 0.7393 0.23254 0.28492 0.0
C1470 C 0.74242 0.23175 0.20385 0.0
C1471 C 0.74586 0.2486 0.16005 0.0
C1472 C 0.74647 0.26634 0.19959 0.0
H1473 H 0.94419 0.70616 0.18407 0.0
H1474 H 0.91793 0.75857 0.26444 0.0
H1475 H 0.90588 0.76448 0.13086 0.0
H1476 H 0.9581 0.72408 0.98796 0.0
H1477 H 0.95313 0.70164 0.94071 0.0
H1478 H 0.96072 0.70212 0.04188 0.0
H1479 H 0.93083 0.68298 0.08157 0.0
H1480 H 0.92301 0.6827 0.98079 0.0
H1481 H 0.90777 0.69212 0.05642 0.0
H1482 H 0.89438 0.76343 0.99272 0.0
H1483 H 0.88674 0.75712 0.85356 0.0
H1484 H 0.92139 0.70616 0.85944 0.0
C1485 C 0.93637 0.71914 0.17315 0.0
C1486 C 0.93196 0.73186 0.23509 0.0
C1487 C 0.9213 0.74848 0.2184 0.0
C1488 C 0.91446 0.75204 0.14255 0.0
C1489 C 0.91859 0.73896 0.08352 0.0
C1490 C 0.92951 0.72298 0.09743 0.0
C1491 C 0.93131 0.71091 0.02378 0.0
C1492 C 0.95205 0.70962 -0.003 0.0
C1493 C 0.92272 0.691 0.03644 0.0
C1494 C 0.91957 0.72254 0.9667 0.0
C1495 C 0.91224 0.73856 0.00275 0.0
C1496 C 0.90022 0.75106 0.96348 0.0
C1497 C 0.89581 0.74726 0.88474 0.0
C1498 C 0.90349 0.73117 0.84591 0.0
C1499 C 0.91552 0.71866 0.88762 0.0
H1500 H 0.61629 0.58178 0.37837 0.0
H1501 H 0.6125 0.64332 0.3672 0.0
H1502 H 0.62104 0.64241 0.22616 0.0
H1503 H 0.6553 0.5757 0.23231 0.0
H1504 H 0.6447 0.55455 0.19133 0.0
H1505 H 0.64135 0.56019 0.29387 0.0
H1506 H 0.60503 0.55877 0.27503 0.0
H1507 H 0.60822 0.55313 0.17273 0.0
H1508 H 0.59408 0.57341 0.20067 0.0
H1509 H 0.62663 0.63478 0.08628 0.0
H1510 H 0.62646 0.62113 0.95373 0.0
H1511 H 0.62619 0.56412 0.0531 0.0
C1512 C 0.61778 0.59504 0.34637 0.0
C1513 C 0.61395 0.61264 0.38303 0.0
C1514 C 0.61539 0.62974 0.33951 0.0
C1515 C 0.6204 0.62935 0.25988 0.0
C1516 C 0.62383 0.61173 0.22496 0.0
C1517 C 0.62251 0.59486 0.26659 0.0
C1518 C 0.62469 0.57775 0.21304 0.0
C1519 C 0.64258 0.56638 0.23389 0.0
C1520 C 0.60695 0.56503 0.21552 0.0
C1521 C 0.62675 0.58766 0.13438 0.0
C1522 C 0.62668 0.60724 0.14301 0.0
C1523 C 0.62709 0.61948 0.07872 0.0
C1524 C 0.62712 0.61152 0.00337 0.0
C1525 C 0.62654 0.59147 0.99278 0.0
C1526 C 0.62678 0.57945 0.05942 0.0
H1527 H 0.03484 0.37987 0.78763 0.0
H1528 H 0.0668 0.42669 0.88942 0.0
H1529 H 0.07503 0.43795 0.75749 0.0
H1530 H 0.06436 0.36938 0.63252 0.0
H1531 H 0.04604 0.36525 0.56075 0.0
H1532 H 0.04122 0.36157 0.66347 0.0
H1533 H 0.01297 0.38454 0.6532 0.0
H1534 H 0.01793 0.38958 0.55117 0.0
H1535 H 0.01666 0.40875 0.62112 0.0
H1536 H 0.0835 0.44163 0.61652 0.0
H1537 H 0.08898 0.43901 0.47293 0.0
H1538 H 0.04951 0.39187 0.46166 0.0
C1539 C 0.04325 0.39268 0.78228 0.0
C1540 C 0.05056 0.402 0.8493 0.0
C1541 C 0.06155 0.41879 0.83942 0.0
C1542 C 0.06613 0.42551 0.7645 0.0
C1543 C 0.05923 0.41563 0.69986 0.0
C1544 C 0.04771 0.39982 0.70775 0.0
C1545 C 0.04256 0.39162 0.62832 0.0
C1546 C 0.04894 0.37072 0.62088 0.0
C1547 C 0.02125 0.39374 0.61262 0.0
C1548 C 0.05391 0.4046 0.57525 0.0
C1549 C 0.06328 0.41848 0.61762 0.0
C1550 C 0.07589 0.43113 0.58227 0.0
C1551 C 0.07902 0.42949 0.50121 0.0
C1552 C 0.06945 0.41544 0.45696 0.0
C1553 C 0.05659 0.40304 0.49429 0.0
H1554 H 0.59449 0.41173 0.58074 0.0
H1555 H 0.64665 0.38013 0.55534 0.0
H1556 H 0.65507 0.38771 0.69409 0.0
H1557 H 0.61394 0.44955 0.706 0.0
H1558 H 0.59249 0.45154 0.76278 0.0
H1559 H 0.59143 0.44433 0.66114 0.0
H1560 H 0.57334 0.41368 0.70083 0.0
H1561 H 0.57429 0.42076 0.80241 0.0
H1562 H 0.58351 0.3979 0.77306 0.0
H1563 H 0.65566 0.3961 0.8391 0.0
H1564 H 0.64946 0.40599 0.97646 0.0
H1565 H 0.59757 0.43352 0.90239 0.0
C1566 C 0.6077 0.40653 0.60475 0.0
C1567 C 0.6199 0.39519 0.55904 0.0
C1568 C 0.63722 0.38877 0.59066 0.0
C1569 C 0.64206 0.39304 0.66884 0.0
C1570 C 0.62954 0.4041 0.71307 0.0
C1571 C 0.61283 0.41095 0.68168 0.0
C1572 C 0.60158 0.42216 0.74136 0.0
C1573 C 0.59977 0.44314 0.71634 0.0
C1574 C 0.58203 0.41307 0.75523 0.0
C1575 C 0.61422 0.42004 0.81239 0.0
C1576 C 0.63032 0.40963 0.79503 0.0
C1577 C 0.64331 0.40457 0.85298 0.0
C1578 C 0.63965 0.41015 0.93069 0.0
C1579 C 0.62316 0.4207 0.94948 0.0
C1580 C 0.61052 0.42594 0.88922 0.0
H1581 H 0.09595 0.57582 0.49589 0.0
H1582 H 0.0403 0.58718 0.59403 0.0
H1583 H 0.02746 0.59059 0.46117 0.0
H1584 H 0.09423 0.61058 0.35568 0.0
H1585 H 0.10646 0.59765 0.27949 0.0
H1586 H 0.11082 0.59207 0.38109 0.0
H1587 H 0.10185 0.55679 0.35612 0.0
H1588 H 0.09766 0.5622 0.2539 0.0
H1589 H 0.07934 0.55117 0.31198 0.0
H1590 H 0.02155 0.59807 0.32064 0.0
H1591 H 0.02277 0.60734 0.18083 0.0
H1592 H 0.08218 0.59211 0.17208 0.0
C1593 C 0.08098 0.57856 0.48965 0.0
C1594 C 0.06927 0.58118 0.55638 0.0
C1595 C 0.04969 0.58476 0.54486 0.0
C1596 C 0.04219 0.58684 0.46912 0.0
C1597 C 0.05433 0.58509 0.40509 0.0
C1598 C 0.07326 0.58078 0.41435 0.0
C1599 C 0.08364 0.58156 0.3363 0.0
C1600 C 0.09973 0.59635 0.33831 0.0
C1601 C 0.09105 0.56175 0.31322 0.0
C1602 C 0.06774 0.58783 0.28244 0.0
C1603 C 0.05091 0.58952 0.32323 0.0
C1604 C 0.03456 0.59648 0.28774 0.0
C1605 C 0.03544 0.60191 0.20854 0.0
C1606 C 0.05257 0.60045 0.16565 0.0
C1607 C 0.06883 0.59305 0.20304 0.0
loop_
_geom_bond_atom_site_label_1
_geom_bond_atom_site_label_2
_geom_bond_distance
_geom_bond_site_symmetry_2
_ccdc_geom_bond_type
C0 C1 1.351 . S
C0 N3 1.368 . S
C0 H5 0.931 . S
C1 C0 1.351 . S
C1 N2 1.373 . S
C1 H29 0.930 . S
N2 C1 1.373 . S
N2 C4 1.340 . S
N3 C0 1.368 . S
N3 C4 1.321 . S
N3 Co6 2.135 . S
C4 N2 1.340 . S
C4 N3 1.321 . S
C4 H28 0.930 . S
H5 C0 0.931 . S
Co6 N3 2.135 . S
Co6 N9 2.121 . S
Co6 O14 2.055 . S
Co6 O17 2.039 . S
Co6 N20 2.140 . S
C7 O8 1.227 . S
C7 O17 1.265 . S
O8 C7 1.227 . S
N9 Co6 2.121 . S
N9 C11 1.375 . S
N9 C12 1.313 . S
C10 C11 1.338 . S
C10 N13 1.377 . S
C10 H30 0.930 . S
C11 N9 1.375 . S
C11 C10 1.338 . S
C11 H15 0.931 . S
C12 N9 1.313 . S
C12 N13 1.344 . S
C12 H16 0.930 . S
N13 C10 1.377 . S
N13 C12 1.344 . S
O14 Co6 2.055 . S
O14 C18 1.253 . S
H15 C11 0.931 . S
H16 C12 0.930 . S
O17 Co6 2.039 . S
O17 C7 1.265 . S
C18 O14 1.253 . S
C18 O19 1.227 . S
O19 C18 1.227 . S
N20 Co6 2.140 . S
N20 C23 1.346 . S
N20 C24 1.345 . S
C21 C22 1.387 . S
C21 C25 1.391 . S
C22 C21 1.387 . S
C22 C23 1.369 . S
C22 H31 0.929 . S
C23 N20 1.346 . S
C23 C22 1.369 . S
C23 H26 0.928 . S
C24 N20 1.345 . S
C24 C25 1.371 . S
C24 H27 0.931 . S
C25 C21 1.391 . S
C25 C24 1.371 . S
C25 H32 0.930 . S
H26 C23 0.928 . S
H27 C24 0.931 . S
H28 C4 0.930 . S
H29 C1 0.930 . S
H30 C10 0.930 . S
H31 C22 0.929 . S
H32 C25 0.930 . S
C33 C34 1.351 . S
C33 N36 1.368 . S
C33 H38 0.931 . S
C34 C33 1.351 . S
C34 N35 1.373 . S
C34 H62 0.930 . S
N35 C34 1.373 . S
N35 C37 1.340 . S
N36 C33 1.368 . S
N36 C37 1.321 . S
N36 Co39 2.135 . S
C37 N35 1.340 . S
C37 N36 1.321 . S
C37 H61 0.930 . S
H38 C33 0.931 . S
Co39 N36 2.135 . S
Co39 N42 2.121 . S
Co39 O47 2.055 . S
Co39 O50 2.039 . S
Co39 N53 2.140 . S
C40 O41 1.227 . S
C40 O50 1.265 . S
O41 C40 1.227 . S
N42 Co39 2.121 . S
N42 C44 1.375 . S
N42 C45 1.313 . S
C43 C44 1.338 . S
C43 N46 1.377 . S
C43 H63 0.930 . S
C44 N42 1.375 . S
C44 C43 1.338 . S
C44 H48 0.931 . S
C45 N42 1.313 . S
C45 N46 1.344 . S
C45 H49 0.930 . S
N46 C43 1.377 . S
N46 C45 1.344 . S
O47 Co39 2.055 . S
O47 C51 1.253 . S
H48 C44 0.931 . S
H49 C45 0.930 . S
O50 Co39 2.039 . S
O50 C40 1.265 . S
C51 O47 1.253 . S
C51 O52 1.227 . S
O52 C51 1.227 . S
N53 Co39 2.140 . S
N53 C56 1.346 . S
N53 C57 1.345 . S
C54 C55 1.387 . S
C54 C58 1.391 . S
C55 C54 1.387 . S
C55 C56 1.369 . S
C55 H64 0.929 . S
C56 N53 1.346 . S
C56 C55 1.369 . S
C56 H59 0.928 . S
C57 N53 1.345 . S
C57 C58 1.371 . S
C57 H60 0.931 . S
C58 C54 1.391 . S
C58 C57 1.371 . S
C58 H65 0.930 . S
H59 C56 0.928 . S
H60 C57 0.931 . S
H61 C37 0.930 . S
H62 C34 0.930 . S
H63 C43 0.930 . S
H64 C55 0.929 . S
H65 C58 0.930 . S
C66 C67 1.351 1_556 S
C66 N69 1.368 . S
C66 H71 0.931 . S
C67 C66 1.351 1_554 S
C67 N68 1.373 . S
C67 H95 0.930 . S
N68 C67 1.373 . S
N68 C70 1.340 1_554 S
N69 C66 1.368 . S
N69 C70 1.321 . S
N69 Co72 2.135 . S
C70 N68 1.340 1_556 S
C70 N69 1.321 . S
C70 H94 0.930 . S
H71 C66 0.931 . S
Co72 N69 2.135 . S
Co72 N75 2.121 . S
Co72 O80 2.055 . S
Co72 O83 2.039 . S
Co72 N86 2.140 . S
C73 O74 1.227 . S
C73 O83 1.265 . S
O74 C73 1.227 . S
N75 Co72 2.121 . S
N75 C77 1.375 . S
N75 C78 1.313 . S
C76 C77 1.338 . S
C76 N79 1.377 . S
C76 H96 0.930 . S
C77 N75 1.375 . S
C77 C76 1.338 . S
C77 H81 0.931 . S
C78 N75 1.313 . S
C78 N79 1.344 . S
C78 H82 0.930 . S
N79 C76 1.377 . S
N79 C78 1.344 . S
O80 Co72 2.055 . S
O80 C84 1.253 . S
H81 C77 0.931 . S
H82 C78 0.930 . S
O83 Co72 2.039 . S
O83 C73 1.265 . S
C84 O80 1.253 . S
C84 O85 1.227 . S
O85 C84 1.227 . S
N86 Co72 2.140 . S
N86 C89 1.346 . S
N86 C90 1.345 . S
C87 C88 1.387 . S
C87 C91 1.391 . S
C88 C87 1.387 . S
C88 C89 1.369 . S
C88 H97 0.929 . S
C89 N86 1.346 . S
C89 C88 1.369 . S
C89 H92 0.928 . S
C90 N86 1.345 . S
C90 C91 1.371 . S
C90 H93 0.931 . S
C91 C87 1.391 . S
C91 C90 1.371 . S
C91 H98 0.930 . S
H92 C89 0.928 . S
H93 C90 0.931 . S
H94 C70 0.930 . S
H95 C67 0.930 . S
H96 C76 0.930 . S
H97 C88 0.929 . S
H98 C91 0.930 . S
C99 C100 1.351 . S
C99 N102 1.368 . S
C99 H104 0.931 . S
C100 C99 1.351 . S
C100 N101 1.373 . S
C100 H128 0.930 . S
N101 C100 1.373 . S
N101 C103 1.340 . S
N102 C99 1.368 . S
N102 C103 1.321 . S
N102 Co105 2.135 1_554 S
C103 N101 1.340 . S
C103 N102 1.321 . S
C103 H127 0.930 . S
H104 C99 0.931 . S
Co105 N102 2.135 1_556 S
Co105 N108 2.121 . S
Co105 O113 2.055 . S
Co105 O116 2.039 1_556 S
Co105 N119 2.140 1_556 S
C106 O107 1.227 . S
C106 O116 1.265 . S
O107 C106 1.227 . S
N108 Co105 2.121 . S
N108 C110 1.375 . S
N108 C111 1.313 . S
C109 C110 1.338 . S
C109 N112 1.377 . S
C109 H129 0.930 . S
C110 N108 1.375 . S
C110 C109 1.338 . S
C110 H114 0.931 . S
C111 N108 1.313 . S
C111 N112 1.344 . S
C111 H115 0.930 . S
N112 C109 1.377 . S
N112 C111 1.344 . S
O113 Co105 2.055 . S
O113 C117 1.253 . S
H114 C110 0.931 . S
H115 C111 0.930 . S
O116 Co105 2.039 1_554 S
O116 C106 1.265 . S
C117 O113 1.253 . S
C117 O118 1.227 . S
O118 C117 1.227 . S
N119 Co105 2.140 1_554 S
N119 C122 1.346 . S
N119 C123 1.345 1_554 S
C120 C121 1.387 . S
C120 C124 1.391 1_554 S
C121 C120 1.387 . S
C121 C122 1.369 . S
C121 H130 0.929 . S
C122 N119 1.346 . S
C122 C121 1.369 . S
C122 H125 0.928 . S
C123 N119 1.345 1_556 S
C123 C124 1.371 . S
C123 H126 0.931 . S
C124 C120 1.391 1_556 S
C124 C123 1.371 . S
C124 H131 0.930 . S
H125 C122 0.928 . S
H126 C123 0.931 . S
H127 C103 0.930 . S
H128 C100 0.930 . S
H129 C109 0.930 . S
H130 C121 0.929 . S
H131 C124 0.930 . S
C132 C133 1.351 . S
C132 N135 1.368 . S
C132 H137 0.931 . S
C133 C132 1.351 . S
C133 N134 1.373 . S
C133 H161 0.930 . S
N134 C133 1.373 . S
N134 C136 1.340 . S
N135 C132 1.368 . S
N135 C136 1.321 . S
N135 Co138 2.135 . S
C136 N134 1.340 . S
C136 N135 1.321 . S
C136 H160 0.930 . S
H137 C132 0.931 . S
Co138 N135 2.135 . S
Co138 N141 2.121 . S
Co138 O146 2.055 . S
Co138 O149 2.039 . S
Co138 N152 2.140 . S
C139 O140 1.227 . S
C139 O149 1.265 . S
O140 C139 1.227 . S
N141 Co138 2.121 . S
N141 C143 1.375 . S
N141 C144 1.313 . S
C142 C143 1.338 . S
C142 N145 1.377 . S
C142 H162 0.930 . S
C143 N141 1.375 . S
C143 C142 1.338 . S
C143 H147 0.931 . S
C144 N141 1.313 . S
C144 N145 1.344 . S
C144 H148 0.930 . S
N145 C142 1.377 . S
N145 C144 1.344 . S
O146 Co138 2.055 . S
O146 C150 1.253 . S
H147 C143 0.931 . S
H148 C144 0.930 . S
O149 Co138 2.039 . S
O149 C139 1.265 . S
C150 O146 1.253 . S
C150 O151 1.227 . S
O151 C150 1.227 . S
N152 Co138 2.140 . S
N152 C155 1.346 . S
N152 C156 1.345 . S
C153 C154 1.387 . S
C153 C157 1.391 . S
C154 C153 1.387 . S
C154 C155 1.369 . S
C154 H163 0.929 . S
C155 N152 1.346 . S
C155 C154 1.369 . S
C155 H158 0.928 . S
C156 N152 1.345 . S
C156 C157 1.371 . S
C156 H159 0.931 . S
C157 C153 1.391 . S
C157 C156 1.371 . S
C157 H164 0.930 . S
H158 C155 0.928 . S
H159 C156 0.931 . S
H160 C136 0.930 . S
H161 C133 0.930 . S
H162 C142 0.930 . S
H163 C154 0.929 . S
H164 C157 0.930 . S
C165 C166 1.351 . S
C165 N168 1.368 . S
C165 H170 0.931 . S
C166 C165 1.351 . S
C166 N167 1.373 . S
C166 H194 0.930 . S
N167 C166 1.373 . S
N167 C169 1.340 . S
N168 C165 1.368 . S
N168 C169 1.321 . S
N168 Co171 2.135 1_556 S
C169 N167 1.340 . S
C169 N168 1.321 . S
C169 H193 0.930 . S
H170 C165 0.931 . S
Co171 N168 2.135 1_554 S
Co171 N174 2.121 . S
Co171 O179 2.055 . S
Co171 O182 2.039 1_554 S
Co171 N185 2.140 1_554 S
C172 O173 1.227 . S
C172 O182 1.265 . S
O173 C172 1.227 . S
N174 Co171 2.121 . S
N174 C176 1.375 . S
N174 C177 1.313 . S
C175 C176 1.338 . S
C175 N178 1.377 . S
C175 H195 0.930 . S
C176 N174 1.375 . S
C176 C175 1.338 . S
C176 H180 0.931 . S
C177 N174 1.313 . S
C177 N178 1.344 . S
C177 H181 0.930 . S
N178 C175 1.377 . S
N178 C177 1.344 . S
O179 Co171 2.055 . S
O179 C183 1.253 . S
H180 C176 0.931 . S
H181 C177 0.930 . S
O182 Co171 2.039 1_556 S
O182 C172 1.265 . S
C183 O179 1.253 . S
C183 O184 1.227 . S
O184 C183 1.227 . S
N185 Co171 2.140 1_556 S
N185 C188 1.346 . S
N185 C189 1.345 1_556 S
C186 C187 1.387 . S
C186 C190 1.391 1_556 S
C187 C186 1.387 . S
C187 C188 1.369 . S
C187 H196 0.929 . S
C188 N185 1.346 . S
C188 C187 1.369 . S
C188 H191 0.928 . S
C189 N185 1.345 1_554 S
C189 C190 1.371 . S
C189 H192 0.931 . S
C190 C186 1.391 1_554 S
C190 C189 1.371 . S
C190 H197 0.930 . S
H191 C188 0.928 . S
H192 C189 0.931 . S
H193 C169 0.930 . S
H194 C166 0.930 . S
H195 C175 0.930 . S
H196 C187 0.929 . S
H197 C190 0.930 . S
C198 C199 1.351 1_554 S
C198 N201 1.368 . S
C198 H203 0.931 . S
C199 C198 1.351 1_556 S
C199 N200 1.373 . S
C199 H227 0.930 . S
N200 C199 1.373 . S
N200 C202 1.340 1_556 S
N201 C198 1.368 . S
N201 C202 1.321 . S
N201 Co204 2.135 . S
C202 N200 1.340 1_554 S
C202 N201 1.321 . S
C202 H226 0.930 . S
H203 C198 0.931 . S
Co204 N201 2.135 . S
Co204 N207 2.121 . S
Co204 O212 2.055 . S
Co204 O215 2.039 . S
Co204 N218 2.140 . S
C205 O206 1.227 . S
C205 O215 1.265 . S
O206 C205 1.227 . S
N207 Co204 2.121 . S
N207 C209 1.375 . S
N207 C210 1.313 . S
C208 C209 1.338 . S
C208 N211 1.377 . S
C208 H228 0.930 . S
C209 N207 1.375 . S
C209 C208 1.338 . S
C209 H213 0.931 . S
C210 N207 1.313 . S
C210 N211 1.344 . S
C210 H214 0.930 . S
N211 C208 1.377 . S
N211 C210 1.344 . S
O212 Co204 2.055 . S
O212 C216 1.253 . S
H213 C209 0.931 . S
H214 C210 0.930 . S
O215 Co204 2.039 . S
O215 C205 1.265 . S
C216 O212 1.253 . S
C216 O217 1.227 . S
O217 C216 1.227 . S
N218 Co204 2.140 . S
N218 C221 1.346 . S
N218 C222 1.345 . S
C219 C220 1.387 . S
C219 C223 1.391 . S
C220 C219 1.387 . S
C220 C221 1.369 . S
C220 H229 0.929 . S
C221 N218 1.346 . S
C221 C220 1.369 . S
C221 H224 0.928 . S
C222 N218 1.345 . S
C222 C223 1.371 . S
C222 H225 0.931 . S
C223 C219 1.391 . S
C223 C222 1.371 . S
C223 H230 0.930 . S
H224 C221 0.928 . S
H225 C222 0.931 . S
H226 C202 0.930 . S
H227 C199 0.930 . S
H228 C208 0.930 . S
H229 C220 0.929 . S
H230 C223 0.930 . S
C231 C232 1.351 . S
C231 N234 1.368 . S
C231 H236 0.931 . S
C232 C231 1.351 . S
C232 N233 1.373 . S
C232 H260 0.930 . S
N233 C232 1.373 . S
N233 C235 1.340 . S
N234 C231 1.368 . S
N234 C235 1.321 . S
N234 Co237 2.135 . S
C235 N233 1.340 . S
C235 N234 1.321 . S
C235 H259 0.930 . S
H236 C231 0.931 . S
Co237 N234 2.135 . S
Co237 N240 2.121 . S
Co237 O245 2.055 . S
Co237 O248 2.039 . S
Co237 N251 2.140 . S
C238 O239 1.227 . S
C238 O248 1.265 . S
O239 C238 1.227 . S
N240 Co237 2.121 . S
N240 C242 1.375 . S
N240 C243 1.313 . S
C241 C242 1.338 . S
C241 N244 1.377 . S
C241 H261 0.930 . S
C242 N240 1.375 . S
C242 C241 1.338 . S
C242 H246 0.931 . S
C243 N240 1.313 . S
C243 N244 1.344 . S
C243 H247 0.930 . S
N244 C241 1.377 . S
N244 C243 1.344 . S
O245 Co237 2.055 . S
O245 C249 1.253 . S
H246 C242 0.931 . S
H247 C243 0.930 . S
O248 Co237 2.039 . S
O248 C238 1.265 . S
C249 O245 1.253 . S
C249 O250 1.227 . S
O250 C249 1.227 . S
N251 Co237 2.140 . S
N251 C254 1.346 . S
N251 C255 1.345 . S
C252 C253 1.387 . S
C252 C256 1.391 . S
C253 C252 1.387 . S
C253 C254 1.369 . S
C253 H262 0.929 . S
C254 N251 1.346 . S
C254 C253 1.369 . S
C254 H257 0.928 . S
C255 N251 1.345 . S
C255 C256 1.371 . S
C255 H258 0.931 . S
C256 C252 1.391 . S
C256 C255 1.371 . S
C256 H263 0.930 . S
H257 C254 0.928 . S
H258 C255 0.931 . S
H259 C235 0.930 . S
H260 C232 0.930 . S
H261 C241 0.930 . S
H262 C253 0.929 . S
H263 C256 0.930 . S
C264 C265 1.351 . S
C264 N267 1.368 . S
C264 H269 0.931 . S
C265 C264 1.351 . S
C265 N266 1.373 . S
C265 H293 0.930 . S
N266 C265 1.373 . S
N266 C268 1.340 . S
N267 C264 1.368 . S
N267 C268 1.321 . S
N267 Co270 2.135 . S
C268 N266 1.340 . S
C268 N267 1.321 . S
C268 H292 0.930 . S
H269 C264 0.931 . S
Co270 N267 2.135 . S
Co270 N273 2.121 . S
Co270 O278 2.055 . S
Co270 O281 2.039 . S
Co270 N284 2.140 . S
C271 O272 1.227 . S
C271 O281 1.265 . S
O272 C271 1.227 . S
N273 Co270 2.121 . S
N273 C275 1.375 . S
N273 C276 1.313 . S
C274 C275 1.338 . S
C274 N277 1.377 . S
C274 H294 0.930 . S
C275 N273 1.375 . S
C275 C274 1.338 . S
C275 H279 0.931 . S
C276 N273 1.313 . S
C276 N277 1.344 . S
C276 H280 0.930 . S
N277 C274 1.377 . S
N277 C276 1.344 . S
O278 Co270 2.055 . S
O278 C282 1.253 . S
H279 C275 0.931 . S
H280 C276 0.930 . S
O281 Co270 2.039 . S
O281 C271 1.265 . S
C282 O278 1.253 . S
C282 O283 1.227 . S
O283 C282 1.227 . S
N284 Co270 2.140 . S
N284 C287 1.346 . S
N284 C288 1.345 . S
C285 C286 1.387 . S
C285 C289 1.391 . S
C286 C285 1.387 . S
C286 C287 1.369 . S
C286 H295 0.929 . S
C287 N284 1.346 . S
C287 C286 1.369 . S
C287 H290 0.928 . S
C288 N284 1.345 . S
C288 C289 1.371 . S
C288 H291 0.931 . S
C289 C285 1.391 . S
C289 C288 1.371 . S
C289 H296 0.930 . S
H290 C287 0.928 . S
H291 C288 0.931 . S
H292 C268 0.930 . S
H293 C265 0.930 . S
H294 C274 0.930 . S
H295 C286 0.929 . S
H296 C289 0.930 . S
C297 C298 1.351 . S
C297 N300 1.368 . S
C297 H302 0.931 . S
C298 C297 1.351 . S
C298 N299 1.373 . S
C298 H326 0.930 . S
N299 C298 1.373 . S
N299 C301 1.340 . S
N300 C297 1.368 . S
N300 C301 1.321 . S
N300 Co303 2.135 1_556 S
C301 N299 1.340 . S
C301 N300 1.321 . S
C301 H325 0.930 . S
H302 C297 0.931 . S
Co303 N300 2.135 1_554 S
Co303 N306 2.121 . S
Co303 O311 2.055 . S
Co303 O314 2.039 1_554 S
Co303 N317 2.140 1_554 S
C304 O305 1.227 . S
C304 O314 1.265 . S
O305 C304 1.227 . S
N306 Co303 2.121 . S
N306 C308 1.375 . S
N306 C309 1.313 . S
C307 C308 1.338 . S
C307 N310 1.377 . S
C307 H327 0.930 . S
C308 N306 1.375 . S
C308 C307 1.338 . S
C308 H312 0.931 . S
C309 N306 1.313 . S
C309 N310 1.344 . S
C309 H313 0.930 . S
N310 C307 1.377 . S
N310 C309 1.344 . S
O311 Co303 2.055 . S
O311 C315 1.253 . S
H312 C308 0.931 . S
H313 C309 0.930 . S
O314 Co303 2.039 1_556 S
O314 C304 1.265 . S
C315 O311 1.253 . S
C315 O316 1.227 . S
O316 C315 1.227 . S
N317 Co303 2.140 1_556 S
N317 C320 1.346 . S
N317 C321 1.345 1_556 S
C318 C319 1.387 . S
C318 C322 1.391 1_556 S
C319 C318 1.387 . S
C319 C320 1.369 . S
C319 H328 0.929 . S
C320 N317 1.346 . S
C320 C319 1.369 . S
C320 H323 0.928 . S
C321 N317 1.345 1_554 S
C321 C322 1.371 . S
C321 H324 0.931 . S
C322 C318 1.391 1_554 S
C322 C321 1.371 . S
C322 H329 0.930 . S
H323 C320 0.928 . S
H324 C321 0.931 . S
H325 C301 0.930 . S
H326 C298 0.930 . S
H327 C307 0.930 . S
H328 C319 0.929 . S
H329 C322 0.930 . S
C330 C331 1.351 . S
C330 N333 1.368 . S
C330 H335 0.931 . S
C331 C330 1.351 . S
C331 N332 1.373 . S
C331 H359 0.930 . S
N332 C331 1.373 . S
N332 C334 1.340 . S
N333 C330 1.368 . S
N333 C334 1.321 . S
N333 Co336 2.135 1_554 S
C334 N332 1.340 . S
C334 N333 1.321 . S
C334 H358 0.930 . S
H335 C330 0.931 . S
Co336 N333 2.135 1_556 S
Co336 N339 2.121 . S
Co336 O344 2.055 . S
Co336 O347 2.039 1_556 S
Co336 N350 2.140 1_556 S
C337 O338 1.227 . S
C337 O347 1.265 . S
O338 C337 1.227 . S
N339 Co336 2.121 . S
N339 C341 1.375 . S
N339 C342 1.313 . S
C340 C341 1.338 . S
C340 N343 1.377 . S
C340 H360 0.930 . S
C341 N339 1.375 . S
C341 C340 1.338 . S
C341 H345 0.931 . S
C342 N339 1.313 . S
C342 N343 1.344 . S
C342 H346 0.930 . S
N343 C340 1.377 . S
N343 C342 1.344 . S
O344 Co336 2.055 . S
O344 C348 1.253 . S
H345 C341 0.931 . S
H346 C342 0.930 . S
O347 Co336 2.039 1_554 S
O347 C337 1.265 . S
C348 O344 1.253 . S
C348 O349 1.227 . S
O349 C348 1.227 . S
N350 Co336 2.140 1_554 S
N350 C353 1.346 . S
N350 C354 1.345 1_554 S
C351 C352 1.387 . S
C351 C355 1.391 1_554 S
C352 C351 1.387 . S
C352 C353 1.369 . S
C352 H361 0.929 . S
C353 N350 1.346 . S
C353 C352 1.369 . S
C353 H356 0.928 . S
C354 N350 1.345 1_556 S
C354 C355 1.371 . S
C354 H357 0.931 . S
C355 C351 1.391 1_556 S
C355 C354 1.371 . S
C355 H362 0.930 . S
H356 C353 0.928 . S
H357 C354 0.931 . S
H358 C334 0.930 . S
H359 C331 0.930 . S
H360 C340 0.930 . S
H361 C352 0.929 . S
H362 C355 0.930 . S
C363 C364 1.351 . S
C363 N366 1.368 . S
C363 H368 0.931 . S
C364 C363 1.351 . S
C364 N365 1.373 . S
C364 H392 0.930 . S
N365 C364 1.373 . S
N365 C367 1.340 . S
N366 C363 1.368 . S
N366 C367 1.321 . S
N366 Co369 2.135 . S
C367 N365 1.340 . S
C367 N366 1.321 . S
C367 H391 0.930 . S
H368 C363 0.931 . S
Co369 N366 2.135 . S
Co369 N372 2.121 . S
Co369 O377 2.055 . S
Co369 O380 2.039 . S
Co369 N383 2.140 . S
C370 O371 1.227 . S
C370 O380 1.265 . S
O371 C370 1.227 . S
N372 Co369 2.121 . S
N372 C374 1.375 . S
N372 C375 1.313 . S
C373 C374 1.338 . S
C373 N376 1.377 . S
C373 H393 0.930 . S
C374 N372 1.375 . S
C374 C373 1.338 . S
C374 H378 0.931 . S
C375 N372 1.313 . S
C375 N376 1.344 . S
C375 H379 0.930 . S
N376 C373 1.377 . S
N376 C375 1.344 . S
O377 Co369 2.055 . S
O377 C381 1.253 . S
H378 C374 0.931 . S
H379 C375 0.930 . S
O380 Co369 2.039 . S
O380 C370 1.265 . S
C381 O377 1.253 . S
C381 O382 1.227 . S
O382 C381 1.227 . S
N383 Co369 2.140 . S
N383 C386 1.346 . S
N383 C387 1.345 . S
C384 C385 1.387 . S
C384 C388 1.391 . S
C385 C384 1.387 . S
C385 C386 1.369 . S
C385 H394 0.929 . S
C386 N383 1.346 . S
C386 C385 1.369 . S
C386 H389 0.928 . S
C387 N383 1.345 . S
C387 C388 1.371 . S
C387 H390 0.931 . S
C388 C384 1.391 . S
C388 C387 1.371 . S
C388 H395 0.930 . S
H389 C386 0.928 . S
H390 C387 0.931 . S
H391 C367 0.930 . S
H392 C364 0.930 . S
H393 C373 0.930 . S
H394 C385 0.929 . S
H395 C388 0.930 . S
C396 C397 1.351 1_556 S
C396 N399 1.368 . S
C396 H401 0.931 . S
C397 C396 1.351 1_554 S
C397 N398 1.373 . S
C397 H425 0.930 . S
N398 C397 1.373 . S
N398 C400 1.340 1_554 S
N399 C396 1.368 . S
N399 C400 1.321 . S
N399 Co402 2.135 . S
C400 N398 1.340 1_556 S
C400 N399 1.321 . S
C400 H424 0.930 . S
H401 C396 0.931 . S
Co402 N399 2.135 . S
Co402 N405 2.121 . S
Co402 O410 2.055 . S
Co402 O413 2.039 . S
Co402 N416 2.140 . S
C403 O404 1.227 . S
C403 O413 1.265 . S
O404 C403 1.227 . S
N405 Co402 2.121 . S
N405 C407 1.375 . S
N405 C408 1.313 . S
C406 C407 1.338 . S
C406 N409 1.377 . S
C406 H426 0.930 . S
C407 N405 1.375 . S
C407 C406 1.338 . S
C407 H411 0.931 . S
C408 N405 1.313 . S
C408 N409 1.344 . S
C408 H412 0.930 . S
N409 C406 1.377 . S
N409 C408 1.344 . S
O410 Co402 2.055 . S
O410 C414 1.253 . S
H411 C407 0.931 . S
H412 C408 0.930 . S
O413 Co402 2.039 . S
O413 C403 1.265 . S
C414 O410 1.253 . S
C414 O415 1.227 . S
O415 C414 1.227 . S
N416 Co402 2.140 . S
N416 C419 1.346 . S
N416 C420 1.345 . S
C417 C418 1.387 . S
C417 C421 1.391 . S
C418 C417 1.387 . S
C418 C419 1.369 . S
C418 H427 0.929 . S
C419 N416 1.346 . S
C419 C418 1.369 . S
C419 H422 0.928 . S
C420 N416 1.345 . S
C420 C421 1.371 . S
C420 H423 0.931 . S
C421 C417 1.391 . S
C421 C420 1.371 . S
C421 H428 0.930 . S
H422 C419 0.928 . S
H423 C420 0.931 . S
H424 C400 0.930 . S
H425 C397 0.930 . S
H426 C406 0.930 . S
H427 C418 0.929 . S
H428 C421 0.930 . S
C429 C430 1.351 . S
C429 N432 1.368 . S
C429 H434 0.931 . S
C430 C429 1.351 . S
C430 N431 1.373 . S
C430 H458 0.930 . S
N431 C430 1.373 . S
N431 C433 1.340 . S
N432 C429 1.368 . S
N432 C433 1.321 . S
N432 Co435 2.135 . S
C433 N431 1.340 . S
C433 N432 1.321 . S
C433 H457 0.930 . S
H434 C429 0.931 . S
Co435 N432 2.135 . S
Co435 N438 2.121 . S
Co435 O443 2.055 . S
Co435 O446 2.039 . S
Co435 N449 2.140 . S
C436 O437 1.227 . S
C436 O446 1.265 . S
O437 C436 1.227 . S
N438 Co435 2.121 . S
N438 C440 1.375 . S
N438 C441 1.313 . S
C439 C440 1.338 . S
C439 N442 1.377 . S
C439 H459 0.930 . S
C440 N438 1.375 . S
C440 C439 1.338 . S
C440 H444 0.931 . S
C441 N438 1.313 . S
C441 N442 1.344 . S
C441 H445 0.930 . S
N442 C439 1.377 . S
N442 C441 1.344 . S
O443 Co435 2.055 . S
O443 C447 1.253 . S
H444 C440 0.931 . S
H445 C441 0.930 . S
O446 Co435 2.039 . S
O446 C436 1.265 . S
C447 O443 1.253 . S
C447 O448 1.227 . S
O448 C447 1.227 . S
N449 Co435 2.140 . S
N449 C452 1.346 . S
N449 C453 1.345 . S
C450 C451 1.387 . S
C450 C454 1.391 . S
C451 C450 1.387 . S
C451 C452 1.369 . S
C451 H460 0.929 . S
C452 N449 1.346 . S
C452 C451 1.369 . S
C452 H455 0.928 . S
C453 N449 1.345 . S
C453 C454 1.371 . S
C453 H456 0.931 . S
C454 C450 1.391 . S
C454 C453 1.371 . S
C454 H461 0.930 . S
H455 C452 0.928 . S
H456 C453 0.931 . S
H457 C433 0.930 . S
H458 C430 0.930 . S
H459 C439 0.930 . S
H460 C451 0.929 . S
H461 C454 0.930 . S
C462 C463 1.351 1_554 S
C462 N465 1.368 . S
C462 H467 0.931 . S
C463 C462 1.351 1_556 S
C463 N464 1.373 . S
C463 H491 0.930 . S
N464 C463 1.373 . S
N464 C466 1.340 1_556 S
N465 C462 1.368 . S
N465 C466 1.321 . S
N465 Co468 2.135 . S
C466 N464 1.340 1_554 S
C466 N465 1.321 . S
C466 H490 0.930 . S
H467 C462 0.931 . S
Co468 N465 2.135 . S
Co468 N471 2.121 . S
Co468 O476 2.055 . S
Co468 O479 2.039 . S
Co468 N482 2.140 . S
C469 O470 1.227 . S
C469 O479 1.265 . S
O470 C469 1.227 . S
N471 Co468 2.121 . S
N471 C473 1.375 . S
N471 C474 1.313 . S
C472 C473 1.338 . S
C472 N475 1.377 . S
C472 H492 0.930 . S
C473 N471 1.375 . S
C473 C472 1.338 . S
C473 H477 0.931 . S
C474 N471 1.313 . S
C474 N475 1.344 . S
C474 H478 0.930 . S
N475 C472 1.377 . S
N475 C474 1.344 . S
O476 Co468 2.055 . S
O476 C480 1.253 . S
H477 C473 0.931 . S
H478 C474 0.930 . S
O479 Co468 2.039 . S
O479 C469 1.265 . S
C480 O476 1.253 . S
C480 O481 1.227 . S
O481 C480 1.227 . S
N482 Co468 2.140 . S
N482 C485 1.346 . S
N482 C486 1.345 . S
C483 C484 1.387 . S
C483 C487 1.391 . S
C484 C483 1.387 . S
C484 C485 1.369 . S
C484 H493 0.929 . S
C485 N482 1.346 . S
C485 C484 1.369 . S
C485 H488 0.928 . S
C486 N482 1.345 . S
C486 C487 1.371 . S
C486 H489 0.931 . S
C487 C483 1.391 . S
C487 C486 1.371 . S
C487 H494 0.930 . S
H488 C485 0.928 . S
H489 C486 0.931 . S
H490 C466 0.930 . S
H491 C463 0.930 . S
H492 C472 0.930 . S
H493 C484 0.929 . S
H494 C487 0.930 . S
C495 C496 1.351 . S
C495 N498 1.368 . S
C495 H500 0.931 . S
C496 C495 1.351 . S
C496 N497 1.373 . S
C496 H524 0.930 . S
N497 C496 1.373 . S
N497 C499 1.340 . S
N498 C495 1.368 . S
N498 C499 1.321 . S
N498 Co501 2.135 . S
C499 N497 1.340 . S
C499 N498 1.321 . S
C499 H523 0.930 . S
H500 C495 0.931 . S
Co501 N498 2.135 . S
Co501 N504 2.121 . S
Co501 O509 2.055 . S
Co501 O512 2.039 . S
Co501 N515 2.140 . S
C502 O503 1.227 . S
C502 O512 1.265 . S
O503 C502 1.227 . S
N504 Co501 2.121 . S
N504 C506 1.375 . S
N504 C507 1.313 . S
C505 C506 1.338 . S
C505 N508 1.377 . S
C505 H525 0.930 . S
C506 N504 1.375 . S
C506 C505 1.338 . S
C506 H510 0.931 . S
C507 N504 1.313 . S
C507 N508 1.344 . S
C507 H511 0.930 . S
N508 C505 1.377 . S
N508 C507 1.344 . S
O509 Co501 2.055 . S
O509 C513 1.253 . S
H510 C506 0.931 . S
H511 C507 0.930 . S
O512 Co501 2.039 . S
O512 C502 1.265 . S
C513 O509 1.253 . S
C513 O514 1.227 . S
O514 C513 1.227 . S
N515 Co501 2.140 . S
N515 C518 1.346 . S
N515 C519 1.345 . S
C516 C517 1.387 . S
C516 C520 1.391 . S
C517 C516 1.387 . S
C517 C518 1.369 . S
C517 H526 0.929 . S
C518 N515 1.346 . S
C518 C517 1.369 . S
C518 H521 0.928 . S
C519 N515 1.345 . S
C519 C520 1.371 . S
C519 H522 0.931 . S
C520 C516 1.391 . S
C520 C519 1.371 . S
C520 H527 0.930 . S
H521 C518 0.928 . S
H522 C519 0.931 . S
H523 C499 0.930 . S
H524 C496 0.930 . S
H525 C505 0.930 . S
H526 C517 0.929 . S
H527 C520 0.930 . S
H528 C540 0.930 . S
H529 C542 0.930 . S
H530 C543 0.930 . S
H531 C547 0.959 . S
H532 C547 0.959 . S
H533 C547 0.961 . S
H534 C548 0.960 . S
H535 C548 0.961 . S
H536 C548 0.959 . S
H537 C551 0.929 . S
H538 C552 0.931 . S
H539 C554 0.930 . S
C540 H528 0.930 . S
C540 C541 1.399 . S
C540 C545 1.399 . S
C541 C540 1.399 . S
C541 C542 1.376 . S
C542 H529 0.930 . S
C542 C541 1.376 . S
C542 C543 1.388 . S
C543 H530 0.930 . S
C543 C542 1.388 . S
C543 C544 1.390 . S
C544 C543 1.390 . S
C544 C545 1.394 . S
C544 C550 1.465 . S
C545 C540 1.399 . S
C545 C544 1.394 . S
C545 C546 1.516 . S
C546 C545 1.516 . S
C546 C547 1.502 . S
C546 C548 1.561 . S
C546 C549 1.526 . S
C547 H531 0.959 . S
C547 H532 0.959 . S
C547 H533 0.961 . S
C547 C546 1.502 . S
C548 H534 0.960 . S
C548 H535 0.961 . S
C548 H536 0.959 . S
C548 C546 1.561 . S
C549 C546 1.526 . S
C549 C550 1.396 . S
C549 C554 1.390 . S
C550 C544 1.465 . S
C550 C549 1.396 . S
C550 C551 1.399 . S
C551 H537 0.929 . S
C551 C550 1.399 . S
C551 C552 1.385 . S
C552 H538 0.931 . S
C552 C551 1.385 . S
C552 C553 1.389 . S
C553 C552 1.389 . S
C553 C554 1.387 . S
C554 H539 0.930 . S
C554 C549 1.390 . S
C554 C553 1.387 . S
H555 C567 0.930 . S
H556 C569 0.930 . S
H557 C570 0.930 . S
H558 C574 0.959 . S
H559 C574 0.959 . S
H560 C574 0.961 . S
H561 C575 0.960 . S
H562 C575 0.961 . S
H563 C575 0.959 . S
H564 C578 0.929 . S
H565 C579 0.931 . S
H566 C581 0.930 . S
C567 H555 0.930 . S
C567 C568 1.399 . S
C567 C572 1.399 . S
C568 C567 1.399 . S
C568 C569 1.376 . S
C569 H556 0.930 . S
C569 C568 1.376 . S
C569 C570 1.388 . S
C570 H557 0.930 . S
C570 C569 1.388 . S
C570 C571 1.390 . S
C571 C570 1.390 . S
C571 C572 1.394 . S
C571 C577 1.465 . S
C572 C567 1.399 . S
C572 C571 1.394 . S
C572 C573 1.516 . S
C573 C572 1.516 . S
C573 C574 1.502 . S
C573 C575 1.561 . S
C573 C576 1.526 . S
C574 H558 0.959 . S
C574 H559 0.959 . S
C574 H560 0.961 . S
C574 C573 1.502 . S
C575 H561 0.960 . S
C575 H562 0.961 . S
C575 H563 0.959 . S
C575 C573 1.561 . S
C576 C573 1.526 . S
C576 C577 1.396 . S
C576 C581 1.390 . S
C577 C571 1.465 . S
C577 C576 1.396 . S
C577 C578 1.399 . S
C578 H564 0.929 . S
C578 C577 1.399 . S
C578 C579 1.385 . S
C579 H565 0.931 . S
C579 C578 1.385 . S
C579 C580 1.389 . S
C580 C579 1.389 . S
C580 C581 1.387 . S
C581 H566 0.930 . S
C581 C576 1.390 . S
C581 C580 1.387 . S
H582 C594 0.930 . S
H583 C596 0.930 . S
H584 C597 0.930 . S
H585 C601 0.959 . S
H586 C601 0.959 . S
H587 C601 0.961 . S
H588 C602 0.960 . S
H589 C602 0.961 . S
H590 C602 0.959 . S
H591 C605 0.929 . S
H592 C606 0.931 . S
H593 C608 0.930 . S
C594 H582 0.930 . S
C594 C595 1.399 . S
C594 C599 1.399 . S
C595 C594 1.399 . S
C595 C596 1.376 . S
C596 H583 0.930 . S
C596 C595 1.376 . S
C596 C597 1.388 . S
C597 H584 0.930 . S
C597 C596 1.388 . S
C597 C598 1.390 . S
C598 C597 1.390 . S
C598 C599 1.394 . S
C598 C604 1.465 . S
C599 C594 1.399 . S
C599 C598 1.394 . S
C599 C600 1.516 . S
C600 C599 1.516 . S
C600 C601 1.502 . S
C600 C602 1.561 1_556 S
C600 C603 1.526 . S
C601 H585 0.959 . S
C601 H586 0.959 . S
C601 H587 0.961 . S
C601 C600 1.502 . S
C602 H588 0.960 . S
C602 H589 0.961 . S
C602 H590 0.959 . S
C602 C600 1.561 1_554 S
C603 C600 1.526 . S
C603 C604 1.396 . S
C603 C608 1.390 . S
C604 C598 1.465 . S
C604 C603 1.396 . S
C604 C605 1.399 . S
C605 H591 0.929 . S
C605 C604 1.399 . S
C605 C606 1.385 . S
C606 H592 0.931 . S
C606 C605 1.385 . S
C606 C607 1.389 . S
C607 C606 1.389 . S
C607 C608 1.387 . S
C608 H593 0.930 . S
C608 C603 1.390 . S
C608 C607 1.387 . S
H609 C621 0.930 . S
H610 C623 0.930 . S
H611 C624 0.930 . S
H612 C628 0.959 . S
H613 C628 0.959 . S
H614 C628 0.961 . S
H615 C629 0.960 . S
H616 C629 0.961 . S
H617 C629 0.959 . S
H618 C632 0.929 . S
H619 C633 0.931 1_556 S
H620 C635 0.930 . S
C621 H609 0.930 . S
C621 C622 1.399 . S
C621 C626 1.399 . S
C622 C621 1.399 . S
C622 C623 1.376 . S
C623 H610 0.930 . S
C623 C622 1.376 . S
C623 C624 1.388 . S
C624 H611 0.930 . S
C624 C623 1.388 . S
C624 C625 1.390 . S
C625 C624 1.390 . S
C625 C626 1.394 . S
C625 C631 1.465 . S
C626 C621 1.399 . S
C626 C625 1.394 . S
C626 C627 1.516 . S
C627 C626 1.516 . S
C627 C628 1.502 . S
C627 C629 1.561 . S
C627 C630 1.526 . S
C628 H612 0.959 . S
C628 H613 0.959 . S
C628 H614 0.961 . S
C628 C627 1.502 . S
C629 H615 0.960 . S
C629 H616 0.961 . S
C629 H617 0.959 . S
C629 C627 1.561 . S
C630 C627 1.526 . S
C630 C631 1.396 . S
C630 C635 1.390 . S
C631 C625 1.465 . S
C631 C630 1.396 . S
C631 C632 1.399 . S
C632 H618 0.929 . S
C632 C631 1.399 . S
C632 C633 1.385 . S
C633 H619 0.931 1_554 S
C633 C632 1.385 . S
C633 C634 1.389 . S
C634 C633 1.389 . S
C634 C635 1.387 . S
C635 H620 0.930 . S
C635 C630 1.390 . S
C635 C634 1.387 . S
H636 C648 0.930 . S
H637 C650 0.930 . S
H638 C651 0.930 . S
H639 C655 0.959 . S
H640 C655 0.959 . S
H641 C655 0.961 . S
H642 C656 0.960 . S
H643 C656 0.961 . S
H644 C656 0.959 . S
H645 C659 0.929 . S
H646 C660 0.931 . S
H647 C662 0.930 . S
C648 H636 0.930 . S
C648 C649 1.399 . S
C648 C653 1.399 . S
C649 C648 1.399 . S
C649 C650 1.376 . S
C650 H637 0.930 . S
C650 C649 1.376 . S
C650 C651 1.388 . S
C651 H638 0.930 . S
C651 C650 1.388 . S
C651 C652 1.390 . S
C652 C651 1.390 . S
C652 C653 1.394 . S
C652 C658 1.465 . S
C653 C648 1.399 . S
C653 C652 1.394 . S
C653 C654 1.516 1_655 S
C654 C653 1.516 1_455 S
C654 C655 1.502 . S
C654 C656 1.561 . S
C654 C657 1.526 . S
C655 H639 0.959 . S
C655 H640 0.959 . S
C655 H641 0.961 . S
C655 C654 1.502 . S
C656 H642 0.960 . S
C656 H643 0.961 . S
C656 H644 0.959 . S
C656 C654 1.561 . S
C657 C654 1.526 . S
C657 C658 1.396 1_455 S
C657 C662 1.390 . S
C658 C652 1.465 . S
C658 C657 1.396 1_655 S
C658 C659 1.399 . S
C659 H645 0.929 . S
C659 C658 1.399 . S
C659 C660 1.385 1_655 S
C660 H646 0.931 . S
C660 C659 1.385 1_455 S
C660 C661 1.389 . S
C661 C660 1.389 . S
C661 C662 1.387 . S
C662 H647 0.930 . S
C662 C657 1.390 . S
C662 C661 1.387 . S
H663 C675 0.930 . S
H664 C677 0.930 . S
H665 C678 0.930 . S
H666 C682 0.959 . S
H667 C682 0.959 . S
H668 C682 0.961 . S
H669 C683 0.960 . S
H670 C683 0.961 . S
H671 C683 0.959 . S
H672 C686 0.929 . S
H673 C687 0.931 . S
H674 C689 0.930 . S
C675 H663 0.930 . S
C675 C676 1.399 . S
C675 C680 1.399 . S
C676 C675 1.399 . S
C676 C677 1.376 . S
C677 H664 0.930 . S
C677 C676 1.376 . S
C677 C678 1.388 . S
C678 H665 0.930 . S
C678 C677 1.388 . S
C678 C679 1.390 . S
C679 C678 1.390 . S
C679 C680 1.394 . S
C679 C685 1.465 1_655 S
C680 C675 1.399 . S
C680 C679 1.394 . S
C680 C681 1.516 . S
C681 C680 1.516 . S
C681 C682 1.502 . S
C681 C683 1.561 1_655 S
C681 C684 1.526 1_655 S
C682 H666 0.959 . S
C682 H667 0.959 . S
C682 H668 0.961 . S
C682 C681 1.502 . S
C683 H669 0.960 . S
C683 H670 0.961 . S
C683 H671 0.959 . S
C683 C681 1.561 1_455 S
C684 C681 1.526 1_455 S
C684 C685 1.396 . S
C684 C689 1.390 . S
C685 C679 1.465 1_455 S
C685 C684 1.396 . S
C685 C686 1.399 . S
C686 H672 0.929 . S
C686 C685 1.399 . S
C686 C687 1.385 . S
C687 H673 0.931 . S
C687 C686 1.385 . S
C687 C688 1.389 . S
C688 C687 1.389 . S
C688 C689 1.387 . S
C689 H674 0.930 . S
C689 C684 1.390 . S
C689 C688 1.387 . S
H690 C702 0.930 . S
H691 C704 0.930 . S
H692 C705 0.930 . S
H693 C709 0.959 . S
H694 C709 0.959 . S
H695 C709 0.961 . S
H696 C710 0.960 . S
H697 C710 0.961 . S
H698 C710 0.959 . S
H699 C713 0.929 1_556 S
H700 C714 0.931 . S
H701 C716 0.930 . S
C702 H690 0.930 . S
C702 C703 1.399 . S
C702 C707 1.399 . S
C703 C702 1.399 . S
C703 C704 1.376 . S
C704 H691 0.930 . S
C704 C703 1.376 . S
C704 C705 1.388 . S
C705 H692 0.930 . S
C705 C704 1.388 . S
C705 C706 1.390 . S
C706 C705 1.390 . S
C706 C707 1.394 . S
C706 C712 1.465 . S
C707 C702 1.399 . S
C707 C706 1.394 . S
C707 C708 1.516 . S
C708 C707 1.516 . S
C708 C709 1.502 . S
C708 C710 1.561 . S
C708 C711 1.526 . S
C709 H693 0.959 . S
C709 H694 0.959 . S
C709 H695 0.961 . S
C709 C708 1.502 . S
C710 H696 0.960 . S
C710 H697 0.961 . S
C710 H698 0.959 . S
C710 C708 1.561 . S
C711 C708 1.526 . S
C711 C712 1.396 . S
C711 C716 1.390 . S
C712 C706 1.465 . S
C712 C711 1.396 . S
C712 C713 1.399 . S
C713 H699 0.929 1_554 S
C713 C712 1.399 . S
C713 C714 1.385 1_554 S
C714 H700 0.931 . S
C714 C713 1.385 1_556 S
C714 C715 1.389 1_556 S
C715 C714 1.389 1_554 S
C715 C716 1.387 . S
C716 H701 0.930 . S
C716 C711 1.390 . S
C716 C715 1.387 . S
H717 C729 0.930 . S
H718 C731 0.930 . S
H719 C732 0.930 . S
H720 C736 0.959 . S
H721 C736 0.959 . S
H722 C736 0.961 . S
H723 C737 0.960 . S
H724 C737 0.961 . S
H725 C737 0.959 . S
H726 C740 0.929 1_554 S
H727 C741 0.931 . S
H728 C743 0.930 . S
C729 H717 0.930 . S
C729 C730 1.399 . S
C729 C734 1.399 . S
C730 C729 1.399 . S
C730 C731 1.376 . S
C731 H718 0.930 . S
C731 C730 1.376 . S
C731 C732 1.388 . S
C732 H719 0.930 . S
C732 C731 1.388 . S
C732 C733 1.390 . S
C733 C732 1.390 . S
C733 C734 1.394 . S
C733 C739 1.465 . S
C734 C729 1.399 . S
C734 C733 1.394 . S
C734 C735 1.516 . S
C735 C734 1.516 . S
C735 C736 1.502 . S
C735 C737 1.561 . S
C735 C738 1.526 . S
C736 H720 0.959 . S
C736 H721 0.959 . S
C736 H722 0.961 . S
C736 C735 1.502 . S
C737 H723 0.960 . S
C737 H724 0.961 . S
C737 H725 0.959 . S
C737 C735 1.561 . S
C738 C735 1.526 . S
C738 C739 1.396 . S
C738 C743 1.390 . S
C739 C733 1.465 . S
C739 C738 1.396 . S
C739 C740 1.399 . S
C740 H726 0.929 1_556 S
C740 C739 1.399 . S
C740 C741 1.385 1_556 S
C741 H727 0.931 . S
C741 C740 1.385 1_554 S
C741 C742 1.389 1_554 S
C742 C741 1.389 1_556 S
C742 C743 1.387 . S
C743 H728 0.930 . S
C743 C738 1.390 . S
C743 C742 1.387 . S
H744 C756 0.930 . S
H745 C758 0.930 . S
H746 C759 0.930 . S
H747 C763 0.959 . S
H748 C763 0.959 . S
H749 C763 0.961 . S
H750 C764 0.960 . S
H751 C764 0.961 . S
H752 C764 0.959 . S
H753 C767 0.929 . S
H754 C768 0.931 . S
H755 C770 0.930 . S
C756 H744 0.930 . S
C756 C757 1.399 . S
C756 C761 1.399 . S
C757 C756 1.399 . S
C757 C758 1.376 . S
C758 H745 0.930 . S
C758 C757 1.376 . S
C758 C759 1.388 . S
C759 H746 0.930 . S
C759 C758 1.388 . S
C759 C760 1.390 . S
C760 C759 1.390 . S
C760 C761 1.394 . S
C760 C766 1.465 . S
C761 C756 1.399 . S
C761 C760 1.394 . S
C761 C762 1.516 . S
C762 C761 1.516 . S
C762 C763 1.502 . S
C762 C764 1.561 . S
C762 C765 1.526 . S
C763 H747 0.959 . S
C763 H748 0.959 . S
C763 H749 0.961 . S
C763 C762 1.502 . S
C764 H750 0.960 . S
C764 H751 0.961 . S
C764 H752 0.959 . S
C764 C762 1.561 . S
C765 C762 1.526 . S
C765 C766 1.396 . S
C765 C770 1.390 . S
C766 C760 1.465 . S
C766 C765 1.396 . S
C766 C767 1.399 . S
C767 H753 0.929 . S
C767 C766 1.399 . S
C767 C768 1.385 . S
C768 H754 0.931 . S
C768 C767 1.385 . S
C768 C769 1.389 . S
C769 C768 1.389 . S
C769 C770 1.387 . S
C770 H755 0.930 . S
C770 C765 1.390 . S
C770 C769 1.387 . S
H771 C783 0.930 . S
H772 C785 0.930 . S
H773 C786 0.930 . S
H774 C790 0.959 . S
H775 C790 0.959 . S
H776 C790 0.961 . S
H777 C791 0.960 . S
H778 C791 0.961 . S
H779 C791 0.959 . S
H780 C794 0.929 . S
H781 C795 0.931 . S
H782 C797 0.930 1_556 S
C783 H771 0.930 . S
C783 C784 1.399 . S
C783 C788 1.399 . S
C784 C783 1.399 . S
C784 C785 1.376 . S
C785 H772 0.930 . S
C785 C784 1.376 . S
C785 C786 1.388 . S
C786 H773 0.930 . S
C786 C785 1.388 . S
C786 C787 1.390 . S
C787 C786 1.390 . S
C787 C788 1.394 . S
C787 C793 1.465 . S
C788 C783 1.399 . S
C788 C787 1.394 . S
C788 C789 1.516 . S
C789 C788 1.516 . S
C789 C790 1.502 1_554 S
C789 C791 1.561 . S
C789 C792 1.526 . S
C790 H774 0.959 . S
C790 H775 0.959 . S
C790 H776 0.961 . S
C790 C789 1.502 1_556 S
C791 H777 0.960 . S
C791 H778 0.961 . S
C791 H779 0.959 . S
C791 C789 1.561 . S
C792 C789 1.526 . S
C792 C793 1.396 . S
C792 C797 1.390 . S
C793 C787 1.465 . S
C793 C792 1.396 . S
C793 C794 1.399 . S
C794 H780 0.929 . S
C794 C793 1.399 . S
C794 C795 1.385 . S
C795 H781 0.931 . S
C795 C794 1.385 . S
C795 C796 1.389 . S
C796 C795 1.389 . S
C796 C797 1.387 . S
C797 H782 0.930 1_554 S
C797 C792 1.390 . S
C797 C796 1.387 . S
H798 C810 0.930 . S
H799 C812 0.930 . S
H800 C813 0.930 . S
H801 C817 0.959 . S
H802 C817 0.959 . S
H803 C817 0.961 . S
H804 C818 0.960 . S
H805 C818 0.961 . S
H806 C818 0.959 . S
H807 C821 0.929 . S
H808 C822 0.931 . S
H809 C824 0.930 . S
C810 H798 0.930 . S
C810 C811 1.399 . S
C810 C815 1.399 1_455 S
C811 C810 1.399 . S
C811 C812 1.376 . S
C812 H799 0.930 . S
C812 C811 1.376 . S
C812 C813 1.388 . S
C813 H800 0.930 . S
C813 C812 1.388 . S
C813 C814 1.340 1_455 S
C814 C813 1.340 1_655 S
C814 C815 1.409 . S
C814 C820 1.510 . S
C815 C810 1.399 1_655 S
C815 C814 1.409 . S
C815 C816 1.516 . S
C816 C815 1.516 . S
C816 C817 1.502 . S
C816 C818 1.561 . S
C816 C819 1.526 . S
C817 H801 0.959 . S
C817 H802 0.959 . S
C817 H803 0.961 . S
C817 C816 1.502 . S
C818 H804 0.960 . S
C818 H805 0.961 . S
C818 H806 0.959 . S
C818 C816 1.561 . S
C819 C816 1.526 . S
C819 C820 1.396 . S
C819 C824 1.390 . S
C820 C814 1.510 . S
C820 C819 1.396 . S
C820 C821 1.399 . S
C821 H807 0.929 . S
C821 C820 1.399 . S
C821 C822 1.385 . S
C822 H808 0.931 . S
C822 C821 1.385 . S
C822 C823 1.389 . S
C823 C822 1.389 . S
C823 C824 1.387 . S
C824 H809 0.930 . S
C824 C819 1.390 . S
C824 C823 1.387 . S
H825 C837 0.930 . S
H826 C839 0.930 . S
H827 C840 0.930 . S
H828 C844 0.959 . S
H829 C844 0.959 . S
H830 C844 0.961 . S
H831 C845 0.960 . S
H832 C845 0.961 . S
H833 C845 0.959 1_455 S
H834 C848 0.929 . S
H835 C849 0.931 . S
H836 C851 0.930 . S
C837 H825 0.930 . S
C837 C838 1.399 . S
C837 C842 1.399 . S
C838 C837 1.399 . S
C838 C839 1.376 . S
C839 H826 0.930 . S
C839 C838 1.376 . S
C839 C840 1.388 . S
C840 H827 0.930 . S
C840 C839 1.388 . S
C840 C841 1.390 . S
C841 C840 1.390 . S
C841 C842 1.394 . S
C841 C847 1.465 . S
C842 C837 1.399 . S
C842 C841 1.394 . S
C842 C843 1.516 . S
C843 C842 1.516 . S
C843 C844 1.502 . S
C843 C845 1.561 . S
C843 C846 1.526 . S
C844 H828 0.959 . S
C844 H829 0.959 . S
C844 H830 0.961 . S
C844 C843 1.502 . S
C845 H831 0.960 . S
C845 H832 0.961 . S
C845 H833 0.959 1_655 S
C845 C843 1.561 . S
C846 C843 1.526 . S
C846 C847 1.396 . S
C846 C851 1.390 1_655 S
C847 C841 1.465 . S
C847 C846 1.396 . S
C847 C848 1.399 1_655 S
C848 H834 0.929 . S
C848 C847 1.399 1_455 S
C848 C849 1.385 . S
C849 H835 0.931 . S
C849 C848 1.385 . S
C849 C850 1.389 . S
C850 C849 1.389 . S
C850 C851 1.387 . S
C851 H836 0.930 . S
C851 C846 1.390 1_455 S
C851 C850 1.387 . S
H852 C864 0.930 1_556 S
H853 C866 0.930 . S
H854 C867 0.930 . S
H855 C871 0.959 1_554 S
H856 C871 0.959 . S
H857 C871 0.961 . S
H858 C872 0.960 . S
H859 C872 0.961 . S
H860 C872 0.959 . S
H861 C875 0.929 . S
H862 C876 0.931 . S
H863 C878 0.930 . S
C864 H852 0.930 1_554 S
C864 C865 1.399 . S
C864 C869 1.399 . S
C865 C864 1.399 . S
C865 C866 1.376 . S
C866 H853 0.930 . S
C866 C865 1.376 . S
C866 C867 1.388 . S
C867 H854 0.930 . S
C867 C866 1.388 . S
C867 C868 1.390 . S
C868 C867 1.390 . S
C868 C869 1.394 . S
C868 C874 1.465 . S
C869 C864 1.399 . S
C869 C868 1.394 . S
C869 C870 1.516 . S
C870 C869 1.516 . S
C870 C871 1.502 1_554 S
C870 C872 1.561 1_554 S
C870 C873 1.526 . S
C871 H855 0.959 1_556 S
C871 H856 0.959 . S
C871 H857 0.961 . S
C871 C870 1.502 1_556 S
C872 H858 0.960 . S
C872 H859 0.961 . S
C872 H860 0.959 . S
C872 C870 1.561 1_556 S
C873 C870 1.526 . S
C873 C874 1.396 . S
C873 C878 1.390 . S
C874 C868 1.465 . S
C874 C873 1.396 . S
C874 C875 1.399 . S
C875 H861 0.929 . S
C875 C874 1.399 . S
C875 C876 1.385 . S
C876 H862 0.931 . S
C876 C875 1.385 . S
C876 C877 1.389 . S
C877 C876 1.389 . S
C877 C878 1.387 . S
C878 H863 0.930 . S
C878 C873 1.390 . S
C878 C877 1.387 . S
H879 C891 0.930 . S
H880 C893 0.930 . S
H881 C894 0.930 . S
H882 C898 0.959 . S
H883 C898 0.959 . S
H884 C898 0.961 . S
H885 C899 0.960 . S
H886 C899 0.961 . S
H887 C899 0.959 . S
H888 C902 0.929 1_554 S
H889 C903 0.931 . S
H890 C905 0.930 . S
C891 H879 0.930 . S
C891 C892 1.399 . S
C891 C896 1.399 . S
C892 C891 1.399 . S
C892 C893 1.376 1_556 S
C893 H880 0.930 . S
C893 C892 1.376 1_554 S
C893 C894 1.388 . S
C894 H881 0.930 . S
C894 C893 1.388 . S
C894 C895 1.390 1_554 S
C895 C894 1.390 1_556 S
C895 C896 1.394 . S
C895 C901 1.465 . S
C896 C891 1.399 . S
C896 C895 1.394 . S
C896 C897 1.516 . S
C897 C896 1.516 . S
C897 C898 1.502 . S
C897 C899 1.561 . S
C897 C900 1.526 . S
C898 H882 0.959 . S
C898 H883 0.959 . S
C898 H884 0.961 . S
C898 C897 1.502 . S
C899 H885 0.960 . S
C899 H886 0.961 . S
C899 H887 0.959 . S
C899 C897 1.561 . S
C900 C897 1.526 . S
C900 C901 1.396 . S
C900 C905 1.390 . S
C901 C895 1.465 . S
C901 C900 1.396 . S
C901 C902 1.399 . S
C902 H888 0.929 1_556 S
C902 C901 1.399 . S
C902 C903 1.385 . S
C903 H889 0.931 . S
C903 C902 1.385 . S
C903 C904 1.389 . S
C904 C903 1.389 . S
C904 C905 1.387 . S
C905 H890 0.930 . S
C905 C900 1.390 . S
C905 C904 1.387 . S
H906 C918 0.930 . S
H907 C920 0.930 . S
H908 C921 0.930 . S
H909 C925 0.959 . S
H910 C925 0.959 . S
H911 C925 0.961 . S
H912 C926 0.960 . S
H913 C926 0.961 . S
H914 C926 0.959 . S
H915 C929 0.929 . S
H916 C930 0.931 . S
H917 C932 0.930 . S
C918 H906 0.930 . S
C918 C919 1.399 . S
C918 C923 1.399 . S
C919 C918 1.399 . S
C919 C920 1.376 . S
C920 H907 0.930 . S
C920 C919 1.376 . S
C920 C921 1.388 . S
C921 H908 0.930 . S
C921 C920 1.388 . S
C921 C922 1.390 . S
C922 C921 1.390 . S
C922 C923 1.394 . S
C922 C928 1.465 . S
C923 C918 1.399 . S
C923 C922 1.394 . S
C923 C924 1.516 . S
C924 C923 1.516 . S
C924 C925 1.502 . S
C924 C926 1.561 . S
C924 C927 1.526 . S
C925 H909 0.959 . S
C925 H910 0.959 . S
C925 H911 0.961 . S
C925 C924 1.502 . S
C926 H912 0.960 . S
C926 H913 0.961 . S
C926 H914 0.959 . S
C926 C924 1.561 . S
C927 C924 1.526 . S
C927 C928 1.396 . S
C927 C932 1.390 . S
C928 C922 1.465 . S
C928 C927 1.396 . S
C928 C929 1.399 . S
C929 H915 0.929 . S
C929 C928 1.399 . S
C929 C930 1.385 . S
C930 H916 0.931 . S
C930 C929 1.385 . S
C930 C931 1.389 . S
C931 C930 1.389 . S
C931 C932 1.387 . S
C932 H917 0.930 . S
C932 C927 1.390 . S
C932 C931 1.387 . S
H933 C945 0.930 . S
H934 C947 0.930 . S
H935 C948 0.930 . S
H936 C952 0.959 . S
H937 C952 0.959 . S
H938 C952 0.961 . S
H939 C953 0.960 . S
H940 C953 0.961 . S
H941 C953 0.959 . S
H942 C956 0.929 . S
H943 C957 0.931 . S
H944 C959 0.930 . S
C945 H933 0.930 . S
C945 C946 1.399 . S
C945 C950 1.399 . S
C946 C945 1.399 . S
C946 C947 1.376 . S
C947 H934 0.930 . S
C947 C946 1.376 . S
C947 C948 1.388 . S
C948 H935 0.930 . S
C948 C947 1.388 . S
C948 C949 1.390 . S
C949 C948 1.390 . S
C949 C950 1.394 . S
C949 C955 1.465 . S
C950 C945 1.399 . S
C950 C949 1.394 . S
C950 C951 1.516 . S
C951 C950 1.516 . S
C951 C952 1.502 . S
C951 C953 1.561 . S
C951 C954 1.526 . S
C952 H936 0.959 . S
C952 H937 0.959 . S
C952 H938 0.961 . S
C952 C951 1.502 . S
C953 H939 0.960 . S
C953 H940 0.961 . S
C953 H941 0.959 . S
C953 C951 1.561 . S
C954 C951 1.526 . S
C954 C955 1.396 . S
C954 C959 1.390 . S
C955 C949 1.465 . S
C955 C954 1.396 . S
C955 C956 1.399 . S
C956 H942 0.929 . S
C956 C955 1.399 . S
C956 C957 1.385 . S
C957 H943 0.931 . S
C957 C956 1.385 . S
C957 C958 1.389 . S
C958 C957 1.389 . S
C958 C959 1.387 . S
C959 H944 0.930 . S
C959 C954 1.390 . S
C959 C958 1.387 . S
H960 C972 0.930 . S
H961 C974 0.930 . S
H962 C975 0.930 . S
H963 C979 0.959 . S
H964 C979 0.959 . S
H965 C979 0.961 . S
H966 C980 0.960 . S
H967 C980 0.961 . S
H968 C980 0.959 . S
H969 C983 0.929 . S
H970 C984 0.931 . S
H971 C986 0.930 . S
C972 H960 0.930 . S
C972 C973 1.399 . S
C972 C977 1.399 . S
C973 C972 1.399 . S
C973 C974 1.376 . S
C974 H961 0.930 . S
C974 C973 1.376 . S
C974 C975 1.388 . S
C975 H962 0.930 . S
C975 C974 1.388 . S
C975 C976 1.390 . S
C976 C975 1.390 . S
C976 C977 1.394 . S
C976 C982 1.459 1_544 S
C977 C972 1.399 . S
C977 C976 1.394 . S
C977 C978 1.516 1_545 S
C978 C977 1.516 1_565 S
C978 C979 1.502 . S
C978 C980 1.561 . S
C978 C981 1.526 1_554 S
C979 H963 0.959 . S
C979 H964 0.959 . S
C979 H965 0.961 . S
C979 C978 1.502 . S
C980 H966 0.960 . S
C980 H967 0.961 . S
C980 H968 0.959 . S
C980 C978 1.561 . S
C981 C978 1.526 1_556 S
C981 C982 1.406 . S
C981 C986 1.390 . S
C982 C976 1.459 1_566 S
C982 C981 1.406 . S
C982 C983 1.397 1_565 S
C983 H969 0.929 . S
C983 C982 1.397 1_545 S
C983 C984 1.385 1_545 S
C984 H970 0.931 . S
C984 C983 1.385 1_565 S
C984 C985 1.389 . S
C985 C984 1.389 . S
C985 C986 1.387 . S
C986 H971 0.930 . S
C986 C981 1.390 . S
C986 C985 1.387 . S
H987 C999 0.930 . S
H988 C1001 0.930 . S
H989 C1002 0.930 . S
H990 C1006 0.959 . S
H991 C1006 0.959 . S
H992 C1006 0.961 . S
H993 C1007 0.960 . S
H994 C1007 0.961 . S
H995 C1007 0.959 . S
H996 C1010 0.929 . S
H997 C1011 0.931 . S
H998 C1013 0.930 . S
C999 H987 0.930 . S
C999 C1000 1.399 . S
C999 C1004 1.399 . S
C1000 C999 1.399 . S
C1000 C1001 1.376 . S
C1001 H988 0.930 . S
C1001 C1000 1.376 . S
C1001 C1002 1.388 . S
C1002 H989 0.930 . S
C1002 C1001 1.388 . S
C1002 C1003 1.390 . S
C1003 C1002 1.390 . S
C1003 C1004 1.394 . S
C1003 C1009 1.465 . S
C1004 C999 1.399 . S
C1004 C1003 1.394 . S
C1004 C1005 1.516 . S
C1005 C1004 1.516 . S
C1005 C1006 1.502 . S
C1005 C1007 1.561 . S
C1005 C1008 1.526 . S
C1006 H990 0.959 . S
C1006 H991 0.959 . S
C1006 H992 0.961 . S
C1006 C1005 1.502 . S
C1007 H993 0.960 . S
C1007 H994 0.961 . S
C1007 H995 0.959 . S
C1007 C1005 1.561 . S
C1008 C1005 1.526 . S
C1008 C1009 1.396 . S
C1008 C1013 1.390 . S
C1009 C1003 1.465 . S
C1009 C1008 1.396 . S
C1009 C1010 1.399 . S
C1010 H996 0.929 . S
C1010 C1009 1.399 . S
C1010 C1011 1.385 . S
C1011 H997 0.931 . S
C1011 C1010 1.385 . S
C1011 C1012 1.389 . S
C1012 C1011 1.389 . S
C1012 C1013 1.387 . S
C1013 H998 0.930 . S
C1013 C1008 1.390 . S
C1013 C1012 1.387 . S
H1014 C1026 0.931 1_565 S
H1015 C1028 0.930 . S
H1016 C1029 0.930 . S
H1017 C1033 0.959 . S
H1018 C1033 0.959 . S
H1019 C1033 0.961 . S
H1020 C1034 0.960 . S
H1021 C1034 0.961 . S
H1022 C1034 0.959 . S
H1023 C1037 0.929 . S
H1024 C1038 0.931 . S
H1025 C1040 0.930 . S
C1026 H1014 0.931 1_545 S
C1026 C1027 1.399 . S
C1026 C1031 1.415 . S
C1027 C1026 1.399 . S
C1027 C1028 1.376 . S
C1028 H1015 0.930 . S
C1028 C1027 1.376 . S
C1028 C1029 1.388 . S
C1029 H1016 0.930 . S
C1029 C1028 1.388 . S
C1029 C1030 1.390 . S
C1030 C1029 1.390 . S
C1030 C1031 1.421 . S
C1030 C1036 1.465 . S
C1031 C1026 1.415 . S
C1031 C1030 1.421 . S
C1031 C1032 1.475 1_545 S
C1032 C1031 1.475 1_565 S
C1032 C1033 1.502 . S
C1032 C1034 1.561 . S
C1032 C1035 1.526 . S
C1033 H1017 0.959 . S
C1033 H1018 0.959 . S
C1033 H1019 0.961 . S
C1033 C1032 1.502 . S
C1034 H1020 0.960 . S
C1034 H1021 0.961 . S
C1034 H1022 0.959 . S
C1034 C1032 1.561 . S
C1035 C1032 1.526 . S
C1035 C1036 1.396 1_565 S
C1035 C1040 1.390 . S
C1036 C1030 1.465 . S
C1036 C1035 1.396 1_545 S
C1036 C1037 1.399 . S
C1037 H1023 0.929 . S
C1037 C1036 1.399 . S
C1037 C1038 1.385 1_545 S
C1038 H1024 0.931 . S
C1038 C1037 1.385 1_565 S
C1038 C1039 1.389 . S
C1039 C1038 1.389 . S
C1039 C1040 1.387 . S
C1040 H1025 0.930 . S
C1040 C1035 1.390 . S
C1040 C1039 1.387 . S
H1041 C1053 0.930 . S
H1042 C1055 0.930 . S
H1043 C1056 0.930 . S
H1044 C1060 0.959 . S
H1045 C1060 0.959 . S
H1046 C1060 0.961 . S
H1047 C1061 0.960 . S
H1048 C1061 0.961 . S
H1049 C1061 0.959 . S
H1050 C1064 0.929 . S
H1051 C1065 0.931 . S
H1052 C1067 0.930 . S
C1053 H1041 0.930 . S
C1053 C1054 1.399 . S
C1053 C1058 1.399 . S
C1054 C1053 1.399 . S
C1054 C1055 1.376 . S
C1055 H1042 0.930 . S
C1055 C1054 1.376 . S
C1055 C1056 1.388 . S
C1056 H1043 0.930 . S
C1056 C1055 1.388 . S
C1056 C1057 1.390 . S
C1057 C1056 1.390 . S
C1057 C1058 1.394 . S
C1057 C1063 1.465 . S
C1058 C1053 1.399 . S
C1058 C1057 1.394 . S
C1058 C1059 1.516 . S
C1059 C1058 1.516 . S
C1059 C1060 1.502 . S
C1059 C1061 1.561 . S
C1059 C1062 1.526 . S
C1060 H1044 0.959 . S
C1060 H1045 0.959 . S
C1060 H1046 0.961 . S
C1060 C1059 1.502 . S
C1061 H1047 0.960 . S
C1061 H1048 0.961 . S
C1061 H1049 0.959 . S
C1061 C1059 1.561 . S
C1062 C1059 1.526 . S
C1062 C1063 1.396 . S
C1062 C1067 1.390 . S
C1063 C1057 1.465 . S
C1063 C1062 1.396 . S
C1063 C1064 1.399 . S
C1064 H1050 0.929 . S
C1064 C1063 1.399 . S
C1064 C1065 1.385 . S
C1065 H1051 0.931 . S
C1065 C1064 1.385 . S
C1065 C1066 1.389 . S
C1066 C1065 1.389 . S
C1066 C1067 1.387 . S
C1067 H1052 0.930 . S
C1067 C1062 1.390 . S
C1067 C1066 1.387 . S
H1068 C1080 0.930 . S
H1069 C1082 0.930 . S
H1070 C1083 0.930 . S
H1071 C1087 0.959 . S
H1072 C1087 0.959 . S
H1073 C1087 0.961 . S
H1074 C1088 0.960 . S
H1075 C1088 0.961 . S
H1076 C1088 0.959 . S
H1077 C1091 0.929 . S
H1078 C1092 0.931 . S
H1079 C1094 0.930 . S
C1080 H1068 0.930 . S
C1080 C1081 1.399 . S
C1080 C1085 1.399 . S
C1081 C1080 1.399 . S
C1081 C1082 1.376 . S
C1082 H1069 0.930 . S
C1082 C1081 1.376 . S
C1082 C1083 1.388 . S
C1083 H1070 0.930 . S
C1083 C1082 1.388 . S
C1083 C1084 1.390 . S
C1084 C1083 1.390 . S
C1084 C1085 1.394 . S
C1084 C1090 1.465 . S
C1085 C1080 1.399 . S
C1085 C1084 1.394 . S
C1085 C1086 1.516 . S
C1086 C1085 1.516 . S
C1086 C1087 1.502 . S
C1086 C1088 1.561 . S
C1086 C1089 1.526 . S
C1087 H1071 0.959 . S
C1087 H1072 0.959 . S
C1087 H1073 0.961 . S
C1087 C1086 1.502 . S
C1088 H1074 0.960 . S
C1088 H1075 0.961 . S
C1088 H1076 0.959 . S
C1088 C1086 1.561 . S
C1089 C1086 1.526 . S
C1089 C1090 1.396 . S
C1089 C1094 1.390 . S
C1090 C1084 1.465 . S
C1090 C1089 1.396 . S
C1090 C1091 1.399 . S
C1091 H1077 0.929 . S
C1091 C1090 1.399 . S
C1091 C1092 1.385 . S
C1092 H1078 0.931 . S
C1092 C1091 1.385 . S
C1092 C1093 1.389 . S
C1093 C1092 1.389 . S
C1093 C1094 1.387 . S
C1094 H1079 0.930 . S
C1094 C1089 1.390 . S
C1094 C1093 1.387 . S
H1095 C1107 0.930 . S
H1096 C1109 0.930 . S
H1097 C1110 0.930 . S
H1098 C1114 0.959 . S
H1099 C1114 0.959 . S
H1100 C1114 0.961 . S
H1101 C1115 0.960 . S
H1102 C1115 0.961 . S
H1103 C1115 0.959 . S
H1104 C1118 0.929 . S
H1105 C1119 0.931 . S
H1106 C1121 0.930 . S
C1107 H1095 0.930 . S
C1107 C1108 1.399 . S
C1107 C1112 1.399 . S
C1108 C1107 1.399 . S
C1108 C1109 1.376 . S
C1109 H1096 0.930 . S
C1109 C1108 1.376 . S
C1109 C1110 1.388 . S
C1110 H1097 0.930 . S
C1110 C1109 1.388 . S
C1110 C1111 1.390 . S
C1111 C1110 1.390 . S
C1111 C1112 1.394 . S
C1111 C1117 1.465 . S
C1112 C1107 1.399 . S
C1112 C1111 1.394 . S
C1112 C1113 1.516 . S
C1113 C1112 1.516 . S
C1113 C1114 1.502 . S
C1113 C1115 1.561 . S
C1113 C1116 1.526 . S
C1114 H1098 0.959 . S
C1114 H1099 0.959 . S
C1114 H1100 0.961 . S
C1114 C1113 1.502 . S
C1115 H1101 0.960 . S
C1115 H1102 0.961 . S
C1115 H1103 0.959 . S
C1115 C1113 1.561 . S
C1116 C1113 1.526 . S
C1116 C1117 1.396 . S
C1116 C1121 1.390 . S
C1117 C1111 1.465 . S
C1117 C1116 1.396 . S
C1117 C1118 1.399 . S
C1118 H1104 0.929 . S
C1118 C1117 1.399 . S
C1118 C1119 1.385 . S
C1119 H1105 0.931 . S
C1119 C1118 1.385 . S
C1119 C1120 1.389 . S
C1120 C1119 1.389 . S
C1120 C1121 1.387 . S
C1121 H1106 0.930 . S
C1121 C1116 1.390 . S
C1121 C1120 1.387 . S
H1122 C1134 0.930 . S
H1123 C1136 0.930 . S
H1124 C1137 0.930 . S
H1125 C1141 0.959 . S
H1126 C1141 0.959 . S
H1127 C1141 0.961 . S
H1128 C1142 0.960 . S
H1129 C1142 0.961 . S
H1130 C1142 0.959 . S
H1131 C1145 0.929 . S
H1132 C1146 0.931 . S
H1133 C1148 0.930 . S
C1134 H1122 0.930 . S
C1134 C1135 1.399 . S
C1134 C1139 1.399 . S
C1135 C1134 1.399 . S
C1135 C1136 1.376 . S
C1136 H1123 0.930 . S
C1136 C1135 1.376 . S
C1136 C1137 1.388 . S
C1137 H1124 0.930 . S
C1137 C1136 1.388 . S
C1137 C1138 1.390 . S
C1138 C1137 1.390 . S
C1138 C1139 1.394 . S
C1138 C1144 1.465 . S
C1139 C1134 1.399 . S
C1139 C1138 1.394 . S
C1139 C1140 1.516 . S
C1140 C1139 1.516 . S
C1140 C1141 1.502 . S
C1140 C1142 1.561 . S
C1140 C1143 1.526 . S
C1141 H1125 0.959 . S
C1141 H1126 0.959 . S
C1141 H1127 0.961 . S
C1141 C1140 1.502 . S
C1142 H1128 0.960 . S
C1142 H1129 0.961 . S
C1142 H1130 0.959 . S
C1142 C1140 1.561 . S
C1143 C1140 1.526 . S
C1143 C1144 1.396 . S
C1143 C1148 1.390 . S
C1144 C1138 1.465 . S
C1144 C1143 1.396 . S
C1144 C1145 1.399 . S
C1145 H1131 0.929 . S
C1145 C1144 1.399 . S
C1145 C1146 1.385 . S
C1146 H1132 0.931 . S
C1146 C1145 1.385 . S
C1146 C1147 1.389 . S
C1147 C1146 1.389 . S
C1147 C1148 1.387 . S
C1148 H1133 0.930 . S
C1148 C1143 1.390 . S
C1148 C1147 1.387 . S
H1149 C1161 0.930 . S
H1150 C1163 0.930 . S
H1151 C1164 0.930 1_554 S
H1152 C1168 0.959 . S
H1153 C1168 0.959 . S
H1154 C1168 0.961 . S
H1155 C1169 0.960 . S
H1156 C1169 0.961 . S
H1157 C1169 0.959 . S
H1158 C1172 0.929 . S
H1159 C1173 0.931 . S
H1160 C1175 0.930 . S
C1161 H1149 0.930 . S
C1161 C1162 1.399 . S
C1161 C1166 1.399 . S
C1162 C1161 1.399 . S
C1162 C1163 1.376 . S
C1163 H1150 0.930 . S
C1163 C1162 1.376 . S
C1163 C1164 1.388 . S
C1164 H1151 0.930 1_556 S
C1164 C1163 1.388 . S
C1164 C1165 1.390 . S
C1165 C1164 1.390 . S
C1165 C1166 1.394 . S
C1165 C1171 1.465 1_556 S
C1166 C1161 1.399 . S
C1166 C1165 1.394 . S
C1166 C1167 1.516 . S
C1167 C1166 1.516 . S
C1167 C1168 1.502 . S
C1167 C1169 1.561 . S
C1167 C1170 1.526 1_556 S
C1168 H1152 0.959 . S
C1168 H1153 0.959 . S
C1168 H1154 0.961 . S
C1168 C1167 1.502 . S
C1169 H1155 0.960 . S
C1169 H1156 0.961 . S
C1169 H1157 0.959 . S
C1169 C1167 1.561 . S
C1170 C1167 1.526 1_554 S
C1170 C1171 1.396 . S
C1170 C1175 1.390 . S
C1171 C1165 1.465 1_554 S
C1171 C1170 1.396 . S
C1171 C1172 1.399 . S
C1172 H1158 0.929 . S
C1172 C1171 1.399 . S
C1172 C1173 1.385 . S
C1173 H1159 0.931 . S
C1173 C1172 1.385 . S
C1173 C1174 1.389 . S
C1174 C1173 1.389 . S
C1174 C1175 1.387 . S
C1175 H1160 0.930 . S
C1175 C1170 1.390 . S
C1175 C1174 1.387 . S
H1176 C1188 0.930 . S
H1177 C1190 0.921 1_554 S
H1178 C1191 0.930 . S
H1179 C1195 0.959 . S
H1180 C1195 0.959 . S
H1181 C1195 0.961 . S
H1182 C1196 0.960 . S
H1183 C1196 0.961 . S
H1184 C1196 0.959 . S
H1185 C1199 0.929 . S
H1186 C1200 0.931 . S
H1187 C1202 0.930 . S
C1188 H1176 0.930 . S
C1188 C1189 1.399 . S
C1188 C1193 1.399 . S
C1189 C1188 1.399 . S
C1189 C1190 1.376 . S
C1190 H1177 0.921 1_556 S
C1190 C1189 1.376 . S
C1190 C1191 1.388 . S
C1191 H1178 0.930 . S
C1191 C1190 1.388 . S
C1191 C1192 1.390 . S
C1192 C1191 1.390 . S
C1192 C1193 1.394 . S
C1192 C1198 1.465 . S
C1193 C1188 1.399 . S
C1193 C1192 1.394 . S
C1193 C1194 1.516 . S
C1194 C1193 1.516 . S
C1194 C1195 1.502 . S
C1194 C1196 1.561 . S
C1194 C1197 1.526 . S
C1195 H1179 0.959 . S
C1195 H1180 0.959 . S
C1195 H1181 0.961 . S
C1195 C1194 1.502 . S
C1196 H1182 0.960 . S
C1196 H1183 0.961 . S
C1196 H1184 0.959 . S
C1196 C1194 1.561 . S
C1197 C1194 1.526 . S
C1197 C1198 1.396 . S
C1197 C1202 1.390 . S
C1198 C1192 1.465 . S
C1198 C1197 1.396 . S
C1198 C1199 1.399 . S
C1199 H1185 0.929 . S
C1199 C1198 1.399 . S
C1199 C1200 1.385 . S
C1200 H1186 0.931 . S
C1200 C1199 1.385 . S
C1200 C1201 1.389 . S
C1201 C1200 1.389 . S
C1201 C1202 1.387 . S
C1202 H1187 0.930 . S
C1202 C1197 1.390 . S
C1202 C1201 1.387 . S
H1203 C1215 0.930 . S
H1204 C1217 0.930 . S
H1205 C1218 0.930 . S
H1206 C1222 0.960 . S
H1207 C1222 0.969 . S
H1208 C1222 0.952 1_554 S
H1209 C1223 0.960 . S
H1210 C1223 0.961 1_556 S
H1211 C1223 0.959 . S
H1212 C1226 0.929 . S
H1213 C1227 0.931 . S
H1214 C1229 0.930 . S
C1215 H1203 0.930 . S
C1215 C1216 1.399 . S
C1215 C1220 1.399 . S
C1216 C1215 1.399 . S
C1216 C1217 1.376 . S
C1217 H1204 0.930 . S
C1217 C1216 1.376 . S
C1217 C1218 1.388 . S
C1218 H1205 0.930 . S
C1218 C1217 1.388 . S
C1218 C1219 1.390 . S
C1219 C1218 1.390 . S
C1219 C1220 1.394 . S
C1219 C1225 1.465 1_554 S
C1220 C1215 1.399 . S
C1220 C1219 1.394 . S
C1220 C1221 1.516 . S
C1221 C1220 1.516 . S
C1221 C1222 1.499 1_554 S
C1221 C1223 1.561 . S
C1221 C1224 1.526 1_554 S
C1222 H1206 0.960 . S
C1222 H1207 0.969 . S
C1222 H1208 0.952 1_556 S
C1222 C1221 1.499 1_556 S
C1223 H1209 0.960 . S
C1223 H1210 0.961 1_554 S
C1223 H1211 0.959 . S
C1223 C1221 1.561 . S
C1224 C1221 1.526 1_556 S
C1224 C1225 1.396 . S
C1224 C1229 1.390 . S
C1225 C1219 1.465 1_556 S
C1225 C1224 1.396 . S
C1225 C1226 1.399 . S
C1226 H1212 0.929 . S
C1226 C1225 1.399 . S
C1226 C1227 1.385 . S
C1227 H1213 0.931 . S
C1227 C1226 1.385 . S
C1227 C1228 1.389 . S
C1228 C1227 1.389 . S
C1228 C1229 1.387 . S
C1229 H1214 0.930 . S
C1229 C1224 1.390 . S
C1229 C1228 1.387 . S
H1230 C1242 0.930 . S
H1231 C1244 0.930 . S
H1232 C1245 0.930 . S
H1233 C1249 0.959 . S
H1234 C1249 0.959 . S
H1235 C1249 0.961 . S
H1236 C1250 0.960 . S
H1237 C1250 0.961 . S
H1238 C1250 0.959 . S
H1239 C1253 0.929 . S
H1240 C1254 0.931 . S
H1241 C1256 0.930 . S
C1242 H1230 0.930 . S
C1242 C1243 1.399 . S
C1242 C1247 1.399 . S
C1243 C1242 1.399 . S
C1243 C1244 1.376 . S
C1244 H1231 0.930 . S
C1244 C1243 1.376 . S
C1244 C1245 1.388 . S
C1245 H1232 0.930 . S
C1245 C1244 1.388 . S
C1245 C1246 1.390 . S
C1246 C1245 1.390 . S
C1246 C1247 1.394 . S
C1246 C1252 1.465 . S
C1247 C1242 1.399 . S
C1247 C1246 1.394 . S
C1247 C1248 1.516 . S
C1248 C1247 1.516 . S
C1248 C1249 1.502 . S
C1248 C1250 1.561 . S
C1248 C1251 1.526 . S
C1249 H1233 0.959 . S
C1249 H1234 0.959 . S
C1249 H1235 0.961 . S
C1249 C1248 1.502 . S
C1250 H1236 0.960 . S
C1250 H1237 0.961 . S
C1250 H1238 0.959 . S
C1250 C1248 1.561 . S
C1251 C1248 1.526 . S
C1251 C1252 1.396 . S
C1251 C1256 1.390 . S
C1252 C1246 1.465 . S
C1252 C1251 1.396 . S
C1252 C1253 1.399 . S
C1253 H1239 0.929 . S
C1253 C1252 1.399 . S
C1253 C1254 1.385 . S
C1254 H1240 0.931 . S
C1254 C1253 1.385 . S
C1254 C1255 1.389 . S
C1255 C1254 1.389 . S
C1255 C1256 1.387 . S
C1256 H1241 0.930 . S
C1256 C1251 1.390 . S
C1256 C1255 1.387 . S
H1257 C1269 0.930 . S
H1258 C1271 0.930 . S
H1259 C1272 0.930 . S
H1260 C1276 0.959 . S
H1261 C1276 0.959 . S
H1262 C1276 0.961 . S
H1263 C1277 0.960 . S
H1264 C1277 0.961 . S
H1265 C1277 0.959 . S
H1266 C1280 0.929 . S
H1267 C1281 0.931 . S
H1268 C1283 0.930 . S
C1269 H1257 0.930 . S
C1269 C1270 1.399 . S
C1269 C1274 1.399 . S
C1270 C1269 1.399 . S
C1270 C1271 1.376 . S
C1271 H1258 0.930 . S
C1271 C1270 1.376 . S
C1271 C1272 1.388 . S
C1272 H1259 0.930 . S
C1272 C1271 1.388 . S
C1272 C1273 1.390 . S
C1273 C1272 1.390 . S
C1273 C1274 1.394 . S
C1273 C1279 1.465 . S
C1274 C1269 1.399 . S
C1274 C1273 1.394 . S
C1274 C1275 1.516 . S
C1275 C1274 1.516 . S
C1275 C1276 1.502 . S
C1275 C1277 1.561 . S
C1275 C1278 1.526 . S
C1276 H1260 0.959 . S
C1276 H1261 0.959 . S
C1276 H1262 0.961 . S
C1276 C1275 1.502 . S
C1277 H1263 0.960 . S
C1277 H1264 0.961 . S
C1277 H1265 0.959 . S
C1277 C1275 1.561 . S
C1278 C1275 1.526 . S
C1278 C1279 1.396 . S
C1278 C1283 1.390 . S
C1279 C1273 1.465 . S
C1279 C1278 1.396 . S
C1279 C1280 1.399 . S
C1280 H1266 0.929 . S
C1280 C1279 1.399 . S
C1280 C1281 1.385 . S
C1281 H1267 0.931 . S
C1281 C1280 1.385 . S
C1281 C1282 1.389 . S
C1282 C1281 1.389 . S
C1282 C1283 1.387 . S
C1283 H1268 0.930 . S
C1283 C1278 1.390 . S
C1283 C1282 1.387 . S
H1284 C1296 0.930 . S
H1285 C1298 0.930 . S
H1286 C1299 0.930 . S
H1287 C1303 0.959 . S
H1288 C1303 0.959 . S
H1289 C1303 0.961 . S
H1290 C1304 0.960 . S
H1291 C1304 0.961 . S
H1292 C1304 0.959 . S
H1293 C1307 0.929 . S
H1294 C1308 0.931 . S
H1295 C1310 0.930 . S
C1296 H1284 0.930 . S
C1296 C1297 1.399 . S
C1296 C1301 1.399 . S
C1297 C1296 1.399 . S
C1297 C1298 1.376 . S
C1298 H1285 0.930 . S
C1298 C1297 1.376 . S
C1298 C1299 1.388 . S
C1299 H1286 0.930 . S
C1299 C1298 1.388 . S
C1299 C1300 1.390 . S
C1300 C1299 1.390 . S
C1300 C1301 1.394 . S
C1300 C1306 1.465 . S
C1301 C1296 1.399 . S
C1301 C1300 1.394 . S
C1301 C1302 1.516 . S
C1302 C1301 1.516 . S
C1302 C1303 1.502 . S
C1302 C1304 1.561 . S
C1302 C1305 1.526 . S
C1303 H1287 0.959 . S
C1303 H1288 0.959 . S
C1303 H1289 0.961 . S
C1303 C1302 1.502 . S
C1304 H1290 0.960 . S
C1304 H1291 0.961 . S
C1304 H1292 0.959 . S
C1304 C1302 1.561 . S
C1305 C1302 1.526 . S
C1305 C1306 1.396 . S
C1305 C1310 1.390 . S
C1306 C1300 1.465 . S
C1306 C1305 1.396 . S
C1306 C1307 1.399 . S
C1307 H1293 0.929 . S
C1307 C1306 1.399 . S
C1307 C1308 1.385 . S
C1308 H1294 0.931 . S
C1308 C1307 1.385 . S
C1308 C1309 1.389 . S
C1309 C1308 1.389 . S
C1309 C1310 1.387 . S
C1310 H1295 0.930 . S
C1310 C1305 1.390 . S
C1310 C1309 1.387 . S
H1311 C1323 0.930 . S
H1312 C1325 0.930 . S
H1313 C1326 0.930 . S
H1314 C1330 0.959 . S
H1315 C1330 0.959 . S
H1316 C1330 0.961 . S
H1317 C1331 0.960 . S
H1318 C1331 0.961 . S
H1319 C1331 0.959 . S
H1320 C1334 0.929 . S
H1321 C1335 0.931 . S
H1322 C1337 0.930 . S
C1323 H1311 0.930 . S
C1323 C1324 1.399 . S
C1323 C1328 1.399 . S
C1324 C1323 1.399 . S
C1324 C1325 1.376 . S
C1325 H1312 0.930 . S
C1325 C1324 1.376 . S
C1325 C1326 1.388 . S
C1326 H1313 0.930 . S
C1326 C1325 1.388 . S
C1326 C1327 1.390 . S
C1327 C1326 1.390 . S
C1327 C1328 1.394 . S
C1327 C1333 1.465 . S
C1328 C1323 1.399 . S
C1328 C1327 1.394 . S
C1328 C1329 1.516 . S
C1329 C1328 1.516 . S
C1329 C1330 1.502 . S
C1329 C1331 1.561 . S
C1329 C1332 1.526 . S
C1330 H1314 0.959 . S
C1330 H1315 0.959 . S
C1330 H1316 0.961 . S
C1330 C1329 1.502 . S
C1331 H1317 0.960 . S
C1331 H1318 0.961 . S
C1331 H1319 0.959 . S
C1331 C1329 1.561 . S
C1332 C1329 1.526 . S
C1332 C1333 1.396 . S
C1332 C1337 1.390 . S
C1333 C1327 1.465 . S
C1333 C1332 1.396 . S
C1333 C1334 1.399 . S
C1334 H1320 0.929 . S
C1334 C1333 1.399 . S
C1334 C1335 1.385 . S
C1335 H1321 0.931 . S
C1335 C1334 1.385 . S
C1335 C1336 1.389 . S
C1336 C1335 1.389 . S
C1336 C1337 1.387 . S
C1337 H1322 0.930 . S
C1337 C1332 1.390 . S
C1337 C1336 1.387 . S
H1338 C1350 0.930 . S
H1339 C1352 0.930 . S
H1340 C1353 0.930 . S
H1341 C1357 0.959 . S
H1342 C1357 0.959 . S
H1343 C1357 0.961 . S
H1344 C1358 0.960 . S
H1345 C1358 0.961 . S
H1346 C1358 0.959 . S
H1347 C1361 0.929 . S
H1348 C1362 0.931 . S
H1349 C1364 0.930 . S
C1350 H1338 0.930 . S
C1350 C1351 1.399 . S
C1350 C1355 1.399 . S
C1351 C1350 1.399 . S
C1351 C1352 1.376 . S
C1352 H1339 0.930 . S
C1352 C1351 1.376 . S
C1352 C1353 1.388 . S
C1353 H1340 0.930 . S
C1353 C1352 1.388 . S
C1353 C1354 1.390 . S
C1354 C1353 1.390 . S
C1354 C1355 1.394 . S
C1354 C1360 1.465 . S
C1355 C1350 1.399 . S
C1355 C1354 1.394 . S
C1355 C1356 1.516 . S
C1356 C1355 1.516 . S
C1356 C1357 1.502 . S
C1356 C1358 1.561 . S
C1356 C1359 1.526 . S
C1357 H1341 0.959 . S
C1357 H1342 0.959 . S
C1357 H1343 0.961 . S
C1357 C1356 1.502 . S
C1358 H1344 0.960 . S
C1358 H1345 0.961 . S
C1358 H1346 0.959 . S
C1358 C1356 1.561 . S
C1359 C1356 1.526 . S
C1359 C1360 1.396 . S
C1359 C1364 1.390 . S
C1360 C1354 1.465 . S
C1360 C1359 1.396 . S
C1360 C1361 1.399 . S
C1361 H1347 0.929 . S
C1361 C1360 1.399 . S
C1361 C1362 1.385 . S
C1362 H1348 0.931 . S
C1362 C1361 1.385 . S
C1362 C1363 1.389 . S
C1363 C1362 1.389 . S
C1363 C1364 1.387 . S
C1364 H1349 0.930 . S
C1364 C1359 1.390 . S
C1364 C1363 1.387 . S
H1365 C1377 0.930 . S
H1366 C1379 0.930 . S
H1367 C1380 0.930 . S
H1368 C1384 0.959 . S
H1369 C1384 0.959 . S
H1370 C1384 0.961 . S
H1371 C1385 0.960 . S
H1372 C1385 0.961 . S
H1373 C1385 0.959 . S
H1374 C1388 0.929 . S
H1375 C1389 0.931 . S
H1376 C1391 0.930 . S
C1377 H1365 0.930 . S
C1377 C1378 1.399 . S
C1377 C1382 1.399 . S
C1378 C1377 1.399 . S
C1378 C1379 1.376 . S
C1379 H1366 0.930 . S
C1379 C1378 1.376 . S
C1379 C1380 1.388 . S
C1380 H1367 0.930 . S
C1380 C1379 1.388 . S
C1380 C1381 1.390 . S
C1381 C1380 1.390 . S
C1381 C1382 1.394 . S
C1381 C1387 1.465 1_556 S
C1382 C1377 1.399 . S
C1382 C1381 1.394 . S
C1382 C1383 1.516 . S
C1383 C1382 1.516 . S
C1383 C1384 1.502 . S
C1383 C1385 1.561 . S
C1383 C1386 1.526 1_556 S
C1384 H1368 0.959 . S
C1384 H1369 0.959 . S
C1384 H1370 0.961 . S
C1384 C1383 1.502 . S
C1385 H1371 0.960 . S
C1385 H1372 0.961 . S
C1385 H1373 0.959 . S
C1385 C1383 1.561 . S
C1386 C1383 1.526 1_554 S
C1386 C1387 1.396 . S
C1386 C1391 1.390 . S
C1387 C1381 1.465 1_554 S
C1387 C1386 1.396 . S
C1387 C1388 1.399 . S
C1388 H1374 0.929 . S
C1388 C1387 1.399 . S
C1388 C1389 1.385 . S
C1389 H1375 0.931 . S
C1389 C1388 1.385 . S
C1389 C1390 1.389 . S
C1390 C1389 1.389 . S
C1390 C1391 1.387 . S
C1391 H1376 0.930 . S
C1391 C1386 1.390 . S
C1391 C1390 1.387 . S
H1392 C1404 0.930 . S
H1393 C1406 0.930 . S
H1394 C1407 0.930 . S
H1395 C1411 0.959 . S
H1396 C1411 0.959 . S
H1397 C1411 0.961 . S
H1398 C1412 0.960 1_554 S
H1399 C1412 0.961 . S
H1400 C1412 0.959 . S
H1401 C1415 0.929 . S
H1402 C1416 0.931 . S
H1403 C1418 0.930 . S
C1404 H1392 0.930 . S
C1404 C1405 1.399 . S
C1404 C1409 1.399 . S
C1405 C1404 1.399 . S
C1405 C1406 1.376 . S
C1406 H1393 0.930 . S
C1406 C1405 1.376 . S
C1406 C1407 1.388 . S
C1407 H1394 0.930 . S
C1407 C1406 1.388 . S
C1407 C1408 1.390 . S
C1408 C1407 1.390 . S
C1408 C1409 1.394 . S
C1408 C1414 1.465 1_554 S
C1409 C1404 1.399 . S
C1409 C1408 1.394 . S
C1409 C1410 1.516 1_554 S
C1410 C1409 1.516 1_556 S
C1410 C1411 1.502 . S
C1410 C1412 1.561 . S
C1410 C1413 1.526 . S
C1411 H1395 0.959 . S
C1411 H1396 0.959 . S
C1411 H1397 0.961 . S
C1411 C1410 1.502 . S
C1412 H1398 0.960 1_556 S
C1412 H1399 0.961 . S
C1412 H1400 0.959 . S
C1412 C1410 1.561 . S
C1413 C1410 1.526 . S
C1413 C1414 1.396 . S
C1413 C1418 1.390 . S
C1414 C1408 1.465 1_556 S
C1414 C1413 1.396 . S
C1414 C1415 1.399 . S
C1415 H1401 0.929 . S
C1415 C1414 1.399 . S
C1415 C1416 1.385 . S
C1416 H1402 0.931 . S
C1416 C1415 1.385 . S
C1416 C1417 1.389 . S
C1417 C1416 1.389 . S
C1417 C1418 1.387 . S
C1418 H1403 0.930 . S
C1418 C1413 1.390 . S
C1418 C1417 1.387 . S
H1419 C1431 0.930 . S
H1420 C1433 0.930 . S
H1421 C1434 0.930 . S
H1422 C1438 0.959 . S
H1423 C1438 0.959 . S
H1424 C1438 0.961 . S
H1425 C1439 0.960 . S
H1426 C1439 0.961 . S
H1427 C1439 0.959 . S
H1428 C1442 0.929 . S
H1429 C1443 0.931 . S
H1430 C1445 0.930 . S
C1431 H1419 0.930 . S
C1431 C1432 1.399 . S
C1431 C1436 1.399 . S
C1432 C1431 1.399 . S
C1432 C1433 1.376 . S
C1433 H1420 0.930 . S
C1433 C1432 1.376 . S
C1433 C1434 1.388 . S
C1434 H1421 0.930 . S
C1434 C1433 1.388 . S
C1434 C1435 1.390 . S
C1435 C1434 1.390 . S
C1435 C1436 1.394 . S
C1435 C1441 1.465 . S
C1436 C1431 1.399 . S
C1436 C1435 1.394 . S
C1436 C1437 1.516 . S
C1437 C1436 1.516 . S
C1437 C1438 1.502 . S
C1437 C1439 1.561 . S
C1437 C1440 1.526 . S
C1438 H1422 0.959 . S
C1438 H1423 0.959 . S
C1438 H1424 0.961 . S
C1438 C1437 1.502 . S
C1439 H1425 0.960 . S
C1439 H1426 0.961 . S
C1439 H1427 0.959 . S
C1439 C1437 1.561 . S
C1440 C1437 1.526 . S
C1440 C1441 1.396 . S
C1440 C1445 1.390 . S
C1441 C1435 1.465 . S
C1441 C1440 1.396 . S
C1441 C1442 1.399 . S
C1442 H1428 0.929 . S
C1442 C1441 1.399 . S
C1442 C1443 1.385 . S
C1443 H1429 0.931 . S
C1443 C1442 1.385 . S
C1443 C1444 1.389 . S
C1444 C1443 1.389 . S
C1444 C1445 1.387 . S
C1445 H1430 0.930 . S
C1445 C1440 1.390 . S
C1445 C1444 1.387 . S
H1446 C1458 0.930 . S
H1447 C1460 0.930 . S
H1448 C1461 0.930 . S
H1449 C1465 0.959 . S
H1450 C1465 0.959 . S
H1451 C1465 0.961 . S
H1452 C1466 0.960 . S
H1453 C1466 0.961 . S
H1454 C1466 0.959 . S
H1455 C1469 0.929 . S
H1456 C1470 0.931 . S
H1457 C1472 0.930 . S
C1458 H1446 0.930 . S
C1458 C1459 1.399 . S
C1458 C1463 1.399 . S
C1459 C1458 1.399 . S
C1459 C1460 1.376 . S
C1460 H1447 0.930 . S
C1460 C1459 1.376 . S
C1460 C1461 1.388 . S
C1461 H1448 0.930 . S
C1461 C1460 1.388 . S
C1461 C1462 1.390 . S
C1462 C1461 1.390 . S
C1462 C1463 1.394 . S
C1462 C1468 1.465 . S
C1463 C1458 1.399 . S
C1463 C1462 1.394 . S
C1463 C1464 1.516 . S
C1464 C1463 1.516 . S
C1464 C1465 1.502 . S
C1464 C1466 1.561 . S
C1464 C1467 1.526 . S
C1465 H1449 0.959 . S
C1465 H1450 0.959 . S
C1465 H1451 0.961 . S
C1465 C1464 1.502 . S
C1466 H1452 0.960 . S
C1466 H1453 0.961 . S
C1466 H1454 0.959 . S
C1466 C1464 1.561 . S
C1467 C1464 1.526 . S
C1467 C1468 1.396 . S
C1467 C1472 1.390 . S
C1468 C1462 1.465 . S
C1468 C1467 1.396 . S
C1468 C1469 1.399 . S
C1469 H1455 0.929 . S
C1469 C1468 1.399 . S
C1469 C1470 1.385 . S
C1470 H1456 0.931 . S
C1470 C1469 1.385 . S
C1470 C1471 1.389 . S
C1471 C1470 1.389 . S
C1471 C1472 1.387 . S
C1472 H1457 0.930 . S
C1472 C1467 1.390 . S
C1472 C1471 1.387 . S
H1473 C1485 0.930 . S
H1474 C1487 0.930 . S
H1475 C1488 0.930 . S
H1476 C1492 0.959 1_556 S
H1477 C1492 0.959 1_556 S
H1478 C1492 0.961 . S
H1479 C1493 0.960 . S
H1480 C1493 0.961 1_556 S
H1481 C1493 0.959 . S
H1482 C1496 0.929 . S
H1483 C1497 0.931 . S
H1484 C1499 0.930 . S
C1485 H1473 0.930 . S
C1485 C1486 1.399 . S
C1485 C1490 1.399 . S
C1486 C1485 1.399 . S
C1486 C1487 1.376 . S
C1487 H1474 0.930 . S
C1487 C1486 1.376 . S
C1487 C1488 1.388 . S
C1488 H1475 0.930 . S
C1488 C1487 1.388 . S
C1488 C1489 1.390 . S
C1489 C1488 1.390 . S
C1489 C1490 1.394 . S
C1489 C1495 1.465 1_554 S
C1490 C1485 1.399 . S
C1490 C1489 1.394 . S
C1490 C1491 1.516 . S
C1491 C1490 1.516 . S
C1491 C1492 1.502 . S
C1491 C1493 1.561 . S
C1491 C1494 1.526 1_554 S
C1492 H1476 0.959 1_554 S
C1492 H1477 0.959 1_554 S
C1492 H1478 0.961 . S
C1492 C1491 1.502 . S
C1493 H1479 0.960 . S
C1493 H1480 0.961 1_554 S
C1493 H1481 0.959 . S
C1493 C1491 1.561 . S
C1494 C1491 1.526 1_556 S
C1494 C1495 1.396 . S
C1494 C1499 1.390 . S
C1495 C1489 1.465 1_556 S
C1495 C1494 1.396 . S
C1495 C1496 1.399 . S
C1496 H1482 0.929 . S
C1496 C1495 1.399 . S
C1496 C1497 1.385 . S
C1497 H1483 0.931 . S
C1497 C1496 1.385 . S
C1497 C1498 1.389 . S
C1498 C1497 1.389 . S
C1498 C1499 1.387 . S
C1499 H1484 0.930 . S
C1499 C1494 1.390 . S
C1499 C1498 1.387 . S
H1500 C1512 0.930 . S
H1501 C1514 0.930 . S
H1502 C1515 0.930 . S
H1503 C1519 0.959 . S
H1504 C1519 0.959 . S
H1505 C1519 0.961 . S
H1506 C1520 0.960 . S
H1507 C1520 0.961 . S
H1508 C1520 0.959 . S
H1509 C1523 0.929 . S
H1510 C1524 0.931 . S
H1511 C1526 0.930 . S
C1512 H1500 0.930 . S
C1512 C1513 1.399 . S
C1512 C1517 1.399 . S
C1513 C1512 1.399 . S
C1513 C1514 1.376 . S
C1514 H1501 0.930 . S
C1514 C1513 1.376 . S
C1514 C1515 1.388 . S
C1515 H1502 0.930 . S
C1515 C1514 1.388 . S
C1515 C1516 1.390 . S
C1516 C1515 1.390 . S
C1516 C1517 1.394 . S
C1516 C1522 1.465 . S
C1517 C1512 1.399 . S
C1517 C1516 1.394 . S
C1517 C1518 1.516 . S
C1518 C1517 1.516 . S
C1518 C1519 1.502 . S
C1518 C1520 1.561 . S
C1518 C1521 1.526 . S
C1519 H1503 0.959 . S
C1519 H1504 0.959 . S
C1519 H1505 0.961 . S
C1519 C1518 1.502 . S
C1520 H1506 0.960 . S
C1520 H1507 0.961 . S
C1520 H1508 0.959 . S
C1520 C1518 1.561 . S
C1521 C1518 1.526 . S
C1521 C1522 1.396 . S
C1521 C1526 1.390 . S
C1522 C1516 1.465 . S
C1522 C1521 1.396 . S
C1522 C1523 1.399 . S
C1523 H1509 0.929 . S
C1523 C1522 1.399 . S
C1523 C1524 1.385 . S
C1524 H1510 0.931 . S
C1524 C1523 1.385 . S
C1524 C1525 1.389 . S
C1525 C1524 1.389 . S
C1525 C1526 1.387 . S
C1526 H1511 0.930 . S
C1526 C1521 1.390 . S
C1526 C1525 1.387 . S
H1527 C1539 0.930 . S
H1528 C1541 0.930 1_554 S
H1529 C1542 0.930 . S
H1530 C1546 0.959 . S
H1531 C1546 0.959 . S
H1532 C1546 0.961 . S
H1533 C1547 0.960 . S
H1534 C1547 0.961 . S
H1535 C1547 0.959 . S
H1536 C1550 0.929 . S
H1537 C1551 0.931 . S
H1538 C1553 0.930 . S
C1539 H1527 0.930 . S
C1539 C1540 1.399 . S
C1539 C1544 1.399 . S
C1540 C1539 1.399 . S
C1540 C1541 1.376 . S
C1541 H1528 0.930 1_556 S
C1541 C1540 1.376 . S
C1541 C1542 1.388 . S
C1542 H1529 0.930 . S
C1542 C1541 1.388 . S
C1542 C1543 1.390 . S
C1543 C1542 1.390 . S
C1543 C1544 1.394 . S
C1543 C1549 1.465 . S
C1544 C1539 1.399 . S
C1544 C1543 1.394 . S
C1544 C1545 1.516 . S
C1545 C1544 1.516 . S
C1545 C1546 1.502 . S
C1545 C1547 1.561 . S
C1545 C1548 1.526 . S
C1546 H1530 0.959 . S
C1546 H1531 0.959 . S
C1546 H1532 0.961 . S
C1546 C1545 1.502 . S
C1547 H1533 0.960 . S
C1547 H1534 0.961 . S
C1547 H1535 0.959 . S
C1547 C1545 1.561 . S
C1548 C1545 1.526 . S
C1548 C1549 1.396 . S
C1548 C1553 1.390 . S
C1549 C1543 1.465 . S
C1549 C1548 1.396 . S
C1549 C1550 1.399 . S
C1550 H1536 0.929 . S
C1550 C1549 1.399 . S
C1550 C1551 1.385 . S
C1551 H1537 0.931 . S
C1551 C1550 1.385 . S
C1551 C1552 1.389 . S
C1552 C1551 1.389 . S
C1552 C1553 1.387 . S
C1553 H1538 0.930 . S
C1553 C1548 1.390 . S
C1553 C1552 1.387 . S
H1554 C1566 0.930 . S
H1555 C1568 0.930 . S
H1556 C1569 0.930 . S
H1557 C1573 0.959 . S
H1558 C1573 0.959 . S
H1559 C1573 0.961 . S
H1560 C1574 0.960 . S
H1561 C1574 0.961 . S
H1562 C1574 0.959 . S
H1563 C1577 0.929 . S
H1564 C1578 0.931 . S
H1565 C1580 0.930 . S
C1566 H1554 0.930 . S
C1566 C1567 1.399 . S
C1566 C1571 1.399 . S
C1567 C1566 1.399 . S
C1567 C1568 1.376 . S
C1568 H1555 0.930 . S
C1568 C1567 1.376 . S
C1568 C1569 1.388 . S
C1569 H1556 0.930 . S
C1569 C1568 1.388 . S
C1569 C1570 1.390 . S
C1570 C1569 1.390 . S
C1570 C1571 1.394 . S
C1570 C1576 1.465 . S
C1571 C1566 1.399 . S
C1571 C1570 1.394 . S
C1571 C1572 1.516 . S
C1572 C1571 1.516 . S
C1572 C1573 1.502 . S
C1572 C1574 1.561 . S
C1572 C1575 1.526 . S
C1573 H1557 0.959 . S
C1573 H1558 0.959 . S
C1573 H1559 0.961 . S
C1573 C1572 1.502 . S
C1574 H1560 0.960 . S
C1574 H1561 0.961 . S
C1574 H1562 0.959 . S
C1574 C1572 1.561 . S
C1575 C1572 1.526 . S
C1575 C1576 1.396 . S
C1575 C1580 1.390 . S
C1576 C1570 1.465 . S
C1576 C1575 1.396 . S
C1576 C1577 1.399 . S
C1577 H1563 0.929 . S
C1577 C1576 1.399 . S
C1577 C1578 1.385 . S
C1578 H1564 0.931 . S
C1578 C1577 1.385 . S
C1578 C1579 1.389 . S
C1579 C1578 1.389 . S
C1579 C1580 1.387 . S
C1580 H1565 0.930 . S
C1580 C1575 1.390 . S
C1580 C1579 1.387 . S
H1581 C1593 0.930 . S
H1582 C1595 0.930 . S
H1583 C1596 0.930 . S
H1584 C1600 0.959 . S
H1585 C1600 0.959 . S
H1586 C1600 0.961 . S
H1587 C1601 0.960 . S
H1588 C1601 0.961 . S
H1589 C1601 0.959 . S
H1590 C1604 0.929 . S
H1591 C1605 0.931 . S
H1592 C1607 0.930 . S
C1593 H1581 0.930 . S
C1593 C1594 1.399 . S
C1593 C1598 1.399 . S
C1594 C1593 1.399 . S
C1594 C1595 1.376 . S
C1595 H1582 0.930 . S
C1595 C1594 1.376 . S
C1595 C1596 1.388 . S
C1596 H1583 0.930 . S
C1596 C1595 1.388 . S
C1596 C1597 1.390 . S
C1597 C1596 1.390 . S
C1597 C1598 1.394 . S
C1597 C1603 1.465 . S
C1598 C1593 1.399 . S
C1598 C1597 1.394 . S
C1598 C1599 1.516 . S
C1599 C1598 1.516 . S
C1599 C1600 1.502 . S
C1599 C1601 1.561 . S
C1599 C1602 1.526 . S
C1600 H1584 0.959 . S
C1600 H1585 0.959 . S
C1600 H1586 0.961 . S
C1600 C1599 1.502 . S
C1601 H1587 0.960 . S
C1601 H1588 0.961 . S
C1601 H1589 0.959 . S
C1601 C1599 1.561 . S
C1602 C1599 1.526 . S
C1602 C1603 1.396 . S
C1602 C1607 1.390 . S
C1603 C1597 1.465 . S
C1603 C1602 1.396 . S
C1603 C1604 1.399 . S
C1604 H1590 0.929 . S
C1604 C1603 1.399 . S
C1604 C1605 1.385 . S
C1605 H1591 0.931 . S
C1605 C1604 1.385 . S
C1605 C1606 1.389 . S
C1606 C1605 1.389 . S
C1606 C1607 1.387 . S
C1607 H1592 0.930 . S
C1607 C1602 1.390 . S
C1607 C1606 1.387 . S
C541 C238 1.489 . S
C553 C7 1.481 . S
C568 C40 1.442 . S
C580 C139 1.476 . S
C595 C73 1.525 . S
C607 C172 1.524 . S
C622 C205 1.479 . S
C634 C106 1.491 . S
C649 C384 1.526 . S
C661 C153 1.531 . S
C676 C285 1.515 . S
C688 C21 1.504 . S
C703 C219 1.558 . S
C715 C351 1.567 . S
C730 C87 1.558 . S
C742 C318 1.567 . S
C757 C304 1.524 . S
C769 C403 1.525 . S
C784 C469 1.510 . S
C796 C337 1.482 . S
C811 C436 1.440 . S
C823 C271 1.462 . S
C838 C370 1.437 . S
C850 C502 1.462 . S
C865 C120 1.552 . S
C877 C483 1.564 . S
C892 C186 1.550 . S
C904 C417 1.533 . S
C919 C54 1.505 . S
C931 C516 1.520 . S
C946 C252 1.503 . S
C958 C450 1.518 . S
C973 C18 1.348 . S
C985 C150 1.409 . S
C1000 C183 1.418 . S
C1012 C51 1.360 . S
C1027 C216 1.487 . S
C1039 C84 1.566 . S
C1054 C117 1.354 . S
C1066 C249 1.394 . S
C1081 C348 1.338 . S
C1093 C282 1.415 . S
C1108 C315 1.347 . S
C1120 C381 1.403 . S
C1135 C414 1.480 . S
C1147 C480 1.569 . S
C1162 C513 1.345 . S
C1174 C447 1.412 . S
C1189 N13 0.898 1_556 S
C1201 N2 0.916 . S
C1216 N46 0.911 . S
C1228 N35 0.889 . S
C1243 N68 0.924 . S
C1255 N79 0.941 . S
C1270 N101 0.905 . S
C1282 N112 0.928 . S
C1297 N134 0.933 . S
C1309 N145 0.893 1_554 S
C1324 N167 0.898 . S
C1336 N178 0.933 . S
C1351 N211 0.950 . S
C1363 N200 0.929 . S
C1378 N244 0.923 . S
C1390 N233 0.890 . S
C1405 N266 0.896 . S
C1417 N277 0.919 . S
C1432 N299 0.921 . S
C1444 N310 0.899 . S
C1459 N343 0.932 . S
C1471 N332 0.891 . S
C1486 N376 0.923 . S
C1498 N365 0.881 . S
C1513 N409 0.946 . S
C1525 N398 0.934 . S
C1540 N442 0.900 1_556 S
C1552 N431 0.914 . S
C1567 N475 0.943 . S
C1579 N464 0.937 . S
C1594 N497 0.930 . S
C1606 N508 0.897 1_554 S
