# Generated by pormake.
# Topology smu, (6)-cn, num edge types: 1
# Building blocks:
#     Node 0, Type 0, BuildingBlock: NUHQIS_clean_sbu_0, # of connection points: 6
#     Node 1, Type 0, BuildingBlock: NUHQIS_clean_sbu_0, # of connection points: 6
#     Node 2, Type 0, BuildingBlock: NUHQIS_clean_sbu_0, # of connection points: 6
#     Node 3, Type 0, BuildingBlock: NUHQIS_clean_sbu_0, # of connection points: 6
#     Node 4, Type 0, BuildingBlock: NUHQIS_clean_sbu_0, # of connection points: 6
#     Node 5, Type 0, BuildingBlock: NUHQIS_clean_sbu_0, # of connection points: 6
#     Edge 6, Type (0, 0), BuildingBlock: AJUNOK_clean_linker_0, # of connection points: 2
#     Edge 7, Type (0, 0), BuildingBlock: AJUNOK_clean_linker_0, # of connection points: 2
#     Edge 8, Type (0, 0), BuildingBlock: AJUNOK_clean_linker_0, # of connection points: 2
#     Edge 9, Type (0, 0), BuildingBlock: AJUNOK_clean_linker_0, # of connection points: 2
#     Edge 10, Type (0, 0), BuildingBlock: AJUNOK_clean_linker_0, # of connection points: 2
#     Edge 11, Type (0, 0), BuildingBlock: AJUNOK_clean_linker_0, # of connection points: 2
#     Edge 12, Type (0, 0), BuildingBlock: AJUNOK_clean_linker_0, # of connection points: 2
#     Edge 13, Type (0, 0), BuildingBlock: AJUNOK_clean_linker_0, # of connection points: 2
#     Edge 14, Type (0, 0), BuildingBlock: AJUNOK_clean_linker_0, # of connection points: 2
#     Edge 15, Type (0, 0), BuildingBlock: AJUNOK_clean_linker_0, # of connection points: 2
#     Edge 16, Type (0, 0), BuildingBlock: AJUNOK_clean_linker_0, # of connection points: 2
#     Edge 17, Type (0, 0), BuildingBlock: AJUNOK_clean_linker_0, # of connection points: 2
#     Edge 18, Type (0, 0), BuildingBlock: AJUNOK_clean_linker_0, # of connection points: 2
#     Edge 19, Type (0, 0), BuildingBlock: AJUNOK_clean_linker_0, # of connection points: 2
#     Edge 20, Type (0, 0), BuildingBlock: AJUNOK_clean_linker_0, # of connection points: 2
#     Edge 21, Type (0, 0), BuildingBlock: AJUNOK_clean_linker_0, # of connection points: 2
#     Edge 22, Type (0, 0), BuildingBlock: AJUNOK_clean_linker_0, # of connection points: 2
#     Edge 23, Type (0, 0), BuildingBlock: AJUNOK_clean_linker_0, # of connection points: 2
# Relax obj value: 0.232
# Max RMSD: 0.335
# Mean RMSD: 0.335
data_MOF--net-smu--node1-NUHQIS_clean_sbu_0--edge1-AJUNOK_clean_linker_0
_symmetry_space_group_name_H-M    P1
_symmetry_Int_Tables_number       1
_symmetry_cell_setting            triclinic
loop_
_symmetry_equiv_pos_as_xyz
'x, y, z'
_cell_length_a     31.974606
_cell_length_b     32.045695
_cell_length_c     19.998011
_cell_angle_alpha  90.149596
_cell_angle_beta   89.913635
_cell_angle_gamma 120.1166
loop_
_atom_site_label
_atom_site_type_symbol
_atom_site_fract_x
_atom_site_fract_y
_atom_site_fract_z
_atom_type_partial_charge
Tb0 Tb 0.31768 0.12355 0.27499 0.0
Eu1 Eu 0.40427 0.09523 0.27278 0.0
C2 C 0.33673 0.07437 0.40451 0.0
C3 C 0.42887 0.20659 0.27235 0.0
C4 C 0.22347 0.17 0.27621 0.0
C5 C 0.19595 0.22043 0.32804 0.0
C6 C 0.22373 0.19816 0.33009 0.0
C7 C 0.19289 0.16236 0.22152 0.0
C8 C 0.16425 0.184 0.21999 0.0
C9 C 0.16659 0.21453 0.27246 0.0
C10 C 0.25817 0.15257 0.27511 0.0
O11 O 0.31075 0.09109 0.17514 0.0
O12 O 0.38128 0.08853 0.16558 0.0
O13 O 0.33206 0.02448 0.25878 0.0
O14 O 0.27721 0.04784 0.29211 0.0
C15 C 0.33948 0.07992 0.14164 0.0
O16 O 0.45607 0.0828 0.21775 0.0
O17 O 0.45373 0.07811 0.32551 0.0
O18 O 0.37266 0.07342 0.37453 0.0
O19 O 0.31467 0.09615 0.37806 0.0
O20 O 0.38379 0.1916 0.2568 0.0
O21 O 0.44345 0.17616 0.28728 0.0
C22 C 0.2877 1.01505 0.27348 0.0
O23 O 0.28905 0.16182 0.32344 0.0
O24 O 0.26012 0.12602 0.22706 0.0
C25 C 0.53069 0.10656 0.27272 0.0
C26 C 0.63315 0.15386 0.2738 0.0
C27 C 0.60713 0.13407 0.2144 0.0
C28 C 0.55661 0.1107 0.21391 0.0
C29 C 0.55666 0.12666 0.33224 0.0
C30 C 0.60734 0.14994 0.33275 0.0
C31 C 0.47694 0.07896 0.2714 0.0
H32 H 0.19856 0.24339 0.36953 0.0
H33 H 0.2467 0.20441 0.37311 0.0
H34 H 0.19177 0.14046 0.17943 0.0
H35 H 0.14042 0.17677 0.17775 0.0
H36 H 0.6258 0.13547 0.16849 0.0
H37 H 0.5377 0.09505 0.16749 0.0
H38 H 0.53792 0.12391 0.37863 0.0
H39 H 0.62639 0.16481 0.37932 0.0
Tb40 Tb 0.84755 0.72934 0.27162 0.0
Eu41 Eu 0.73209 0.64546 0.27004 0.0
C42 C 0.78248 0.7104 0.40405 0.0
C43 C 0.81802 0.61822 0.27458 0.0
C44 C 0.98746 0.82532 0.26024 0.0
C45 C 0.06372 0.87699 0.31579 0.0
C46 C 1.01352 0.8483 0.31823 0.0
C47 C 1.01188 0.83339 0.19916 0.0
C48 C 0.06217 0.86128 0.19695 0.0
C49 C 0.08874 0.88195 0.25569 0.0
C50 C 0.93577 0.78986 0.26441 0.0
O51 O 0.82043 0.73436 0.17112 0.0
O52 O 0.74687 0.6648 0.16195 0.0
O53 O 0.73801 0.72024 0.25342 0.0
O54 O 0.81329 0.76861 0.29924 0.0
C55 C 0.78071 0.70572 0.13693 0.0
O56 O 0.66343 0.5963 0.2202 0.0
O57 O 0.66866 0.59451 0.32753 0.0
O58 O 0.74564 0.6731 0.37579 0.0
O59 O 0.82427 0.73678 0.37301 0.0
O60 O 0.85013 0.66377 0.28132 0.0
O61 O 0.77201 0.60352 0.26554 0.0
C62 C 0.77405 0.76326 0.27211 0.0
O63 O 0.91476 0.76871 0.32008 0.0
O64 O 0.90722 0.77678 0.21263 0.0
C65 C 0.6161 0.51955 0.27273 0.0
C66 C 0.55995 0.41697 0.27138 0.0
C67 C 0.55106 0.44478 0.22536 0.0
C68 C 0.57879 0.49529 0.22599 0.0
C69 C 0.62579 0.49188 0.31818 0.0
C70 C 0.59801 0.44118 0.31748 0.0
C71 C 0.64245 0.57334 0.27494 0.0
H72 H 0.08292 0.89463 0.36122 0.0
H73 H 0.99522 0.84329 0.3657 0.0
H74 H 0.99235 0.81633 0.15364 0.0
H75 H 0.0803 0.8651 0.14967 0.0
H76 H 0.5223 0.42738 0.18892 0.0
H77 H 0.57049 0.51554 0.19041 0.0
H78 H 0.65425 0.50933 0.35503 0.0
H79 H 0.60545 0.421 0.35426 0.0
Tb80 Tb 0.91835 0.20157 0.27595 0.0
Eu81 Eu 0.95079 0.31419 0.27637 0.0
C82 C 0.96511 0.26365 0.4048 0.0
C83 C 0.84296 0.23414 0.27528 0.0
C84 C 0.86699 0.06219 0.27305 0.0
C85 C 0.83465 0.98277 0.32247 0.0
C86 C 0.85266 0.03215 0.32944 0.0
C87 C 0.86542 0.04262 0.20965 0.0
C88 C 0.84766 0.99312 0.20272 0.0
C89 C 0.83087 0.96273 0.25892 0.0
C90 C 0.87509 0.11113 0.28162 0.0
O91 O 0.93966 0.22318 0.16924 0.0
O92 O 0.97613 0.30599 0.17715 0.0
O93 O 1.02149 0.31191 0.28243 0.0
O94 O 0.99369 0.23117 0.25658 0.0
C95 C 0.96643 0.26715 0.14336 0.0
O96 O 0.97092 0.38341 0.22929 0.0
O97 O 0.95794 0.37478 0.33569 0.0
O98 O 0.94603 0.28909 0.38308 0.0
O99 O 0.96103 0.22764 0.36837 0.0
O100 O 0.86065 0.21318 0.31194 0.0
O101 O 0.87328 0.27208 0.2416 0.0
C102 C 0.02871 0.27559 0.26709 0.0
O103 O 0.90485 0.13903 0.32762 0.0
O104 O 0.87216 0.13479 0.23041 0.0
C105 C 0.93641 0.42706 0.27895 0.0
C106 C 0.88947 0.48205 0.27353 0.0
C107 C 0.91935 0.4838 0.22086 0.0
C108 C 0.94249 0.45651 0.22346 0.0
C109 C 0.9054 0.42451 0.33094 0.0
C110 C 0.8822 0.45179 0.3282 0.0
C111 C 0.96508 0.40219 0.28387 0.0
H112 H 0.82322 0.96016 0.3666 0.0
H113 H 0.85339 0.04659 0.37878 0.0
H114 H 0.87617 0.06511 0.16544 0.0
H115 H 0.84575 0.97832 0.15331 0.0
H116 H 0.92593 0.50742 0.17862 0.0
H117 H 0.96631 0.45952 0.18284 0.0
H118 H 0.9 0.40247 0.37464 0.0
H119 H 0.85987 0.45052 0.36982 0.0
Tb120 Tb 0.14068 0.31514 0.77374 0.0
Eu121 Eu 0.10464 0.39176 0.77808 0.0
C122 C 0.08972 0.33234 0.64393 0.0
C123 C 0.21361 0.42208 0.77851 0.0
C124 C 0.18827 0.22529 0.77004 0.0
C125 C 0.2181 0.17836 0.71284 0.0
C126 C 0.20373 0.21296 0.71125 0.0
C127 C 0.18491 0.20057 0.82956 0.0
C128 C 0.19958 0.16644 0.8312 0.0
C129 C 0.2174 0.15596 0.77329 0.0
C130 C 0.18684 0.27043 0.77335 0.0
O131 O 0.09704 0.29455 0.86572 0.0
O132 O 0.10591 0.36882 0.88428 0.0
O133 O 0.03443 0.31681 0.77777 0.0
O134 O 0.06597 0.26546 0.76612 0.0
C135 C 0.08994 0.3241 0.90359 0.0
O136 O 0.09132 0.44179 0.83709 0.0
O137 O 0.08642 0.4413 0.72926 0.0
O138 O 0.07556 0.35607 0.68174 0.0
O139 O 0.12028 0.31883 0.6669 0.0
O140 O 0.19488 0.38341 0.81453 0.0
O141 O 0.18359 0.43044 0.7452 0.0
C142 C 0.02951 0.27324 0.7692 0.0
O143 O 0.17918 0.28847 0.71944 0.0
O144 O 0.16775 0.27784 0.82626 0.0
C145 C 0.1137 0.51676 0.78398 0.0
C146 C 0.1603 0.61903 0.78225 0.0
C147 C 0.12618 0.59215 0.83201 0.0
C148 C 0.10334 0.54171 0.83292 0.0
C149 C 0.1478 0.54344 0.73401 0.0
C150 C 0.1707 0.59399 0.73308 0.0
C151 C 0.08681 0.46318 0.78444 0.0
H152 H 0.23063 0.16978 0.6673 0.0
H153 H 0.20708 0.23177 0.66485 0.0
H154 H 0.17376 0.20958 0.876 0.0
H155 H 0.19855 0.1494 0.8784 0.0
H156 H 0.11623 0.61001 0.86954 0.0
H157 H 0.07687 0.52203 0.87149 0.0
H158 H 0.15655 0.52532 0.69535 0.0
H159 H 0.19672 0.61356 0.69399 0.0
Tb160 Tb 0.20659 0.89902 0.77041 0.0
Eu161 Eu 0.32008 0.93914 0.772 0.0
C162 C 0.26592 0.94832 0.6387 0.0
C163 C 0.24331 0.82823 0.77133 0.0
C164 C 0.06947 0.85243 0.79203 0.0
C165 C 0.99454 0.83791 0.74051 0.0
C166 C 0.04355 0.85258 0.73537 0.0
C167 C 0.04616 0.84055 0.8546 0.0
C168 C 0.99701 0.82565 0.85959 0.0
C169 C 0.97068 0.82249 0.80212 0.0
C170 C 0.11576 0.85324 0.78393 0.0
O171 O 0.23227 0.93427 0.8718 0.0
O172 O 0.31343 0.95857 0.87577 0.0
O173 O 0.31021 1.00675 0.77861 0.0
O174 O 0.22994 0.97107 0.74692 0.0
C175 C 0.27489 0.95554 0.90311 0.0
O176 O 0.39279 0.96508 0.81334 0.0
O177 O 0.37809 0.94272 0.71015 0.0
O178 O 0.30179 0.94483 0.66454 0.0
O179 O 0.22546 0.93478 0.67215 0.0
O180 O 0.2193 0.84256 0.73551 0.0
O181 O 0.28042 0.86054 0.80498 0.0
C182 C 0.27014 1.00863 0.76585 0.0
O183 O 0.13786 0.8661 0.72656 0.0
O184 O 0.14588 0.86661 0.83399 0.0
C185 C 0.43492 0.9271 0.76626 0.0
C186 C 0.49292 0.8826 0.77379 0.0
C187 C 0.49199 0.91134 0.82666 0.0
C188 C 0.4637 0.9335 0.82275 0.0
C189 C 0.43428 0.89674 0.71455 0.0
C190 C 0.46274 0.87471 0.71838 0.0
C191 C 0.40869 0.95465 0.75936 0.0
H192 H 0.97478 0.83682 0.69593 0.0
H193 H 0.06027 0.86131 0.68639 0.0
H194 H 0.06515 0.83998 0.89908 0.0
H195 H 0.97924 0.81527 0.90781 0.0
H196 H 0.51373 0.91728 0.87096 0.0
H197 H 0.46514 0.95649 0.86354 0.0
H198 H 0.4127 0.89086 0.67009 0.0
H199 H 0.46242 0.85287 0.67675 0.0
Tb200 Tb 0.73415 0.83393 0.77048 0.0
Eu201 Eu 0.65261 0.72114 0.77753 0.0
C202 C 0.71004 0.76434 0.63898 0.0
C203 C 0.62578 0.80488 0.77748 0.0
C204 C 0.82481 0.97471 0.77056 0.0
C205 C 0.855 0.05165 0.71589 0.0
C206 C 0.82655 1.00175 0.71478 0.0
C207 C 0.85259 0.99824 0.82746 0.0
C208 C 0.88156 0.04853 0.82838 0.0
C209 C 0.88293 0.07547 0.77236 0.0
C210 C 0.79126 0.92259 0.77056 0.0
O211 O 0.74785 0.80975 0.86703 0.0
O212 O 0.67271 0.74503 0.88447 0.0
O213 O 0.72837 0.72805 0.79334 0.0
O214 O 0.77098 0.79853 0.73604 0.0
C215 C 0.71708 0.77394 0.90521 0.0
O216 O 0.60019 0.66019 0.83708 0.0
O217 O 0.60501 0.65092 0.73096 0.0
O218 O 0.67909 0.7271 0.67374 0.0
O219 O 0.73037 0.80897 0.66414 0.0
O220 O 0.6681 0.83016 0.80521 0.0
O221 O 0.61365 0.76246 0.75236 0.0
C222 C 0.76987 0.76298 0.76837 0.0
O223 O 0.75567 0.9015 0.7278 0.0
O224 O 0.79541 0.89358 0.81211 0.0
C225 C 0.52663 0.60636 0.78171 0.0
C226 C 0.42415 0.55066 0.77756 0.0
C227 C 0.44917 0.56129 0.83871 0.0
C228 C 0.49961 0.58829 0.84066 0.0
C229 C 0.5017 0.59763 0.72051 0.0
C230 C 0.45092 0.57012 0.71853 0.0
C231 C 0.58037 0.63216 0.78552 0.0
H232 H 0.8555 0.07175 0.67211 0.0
H233 H 0.80556 0.98439 0.67036 0.0
H234 H 0.85145 0.97791 0.87131 0.0
H235 H 0.90341 0.06621 0.87206 0.0
H236 H 0.42968 0.548 0.88533 0.0
H237 H 0.51758 0.59441 0.88856 0.0
H238 H 0.52133 0.61116 0.67404 0.0
H239 H 0.43272 0.56273 0.67066 0.0
C240 C 0.31897 0.98349 1.01213 0.0
C241 C 0.28353 0.98195 0.96867 0.0
C242 C 0.33694 1.01555 0.06666 0.0
C243 C 0.3208 0.04833 0.08072 0.0
H244 H 0.33402 0.96032 1.00293 0.0
H245 H 0.36383 1.01438 0.09824 0.0
S246 S 0.2282 0.05957 0.9842 0.0
N247 N 0.23238 1.01614 0.94562 0.0
N248 N 0.26645 0.07658 0.0474 0.0
C249 C 0.28456 0.04658 0.03912 0.0
C250 C 0.26592 1.01348 0.98352 0.0
C251 C 0.7592 0.78671 0.53009 0.0
C252 C 0.73149 0.75253 0.57956 0.0
C253 C 0.7789 0.77418 0.47512 0.0
C254 C 0.77212 0.72724 0.46814 0.0
H255 H 0.76469 0.82287 0.53289 0.0
H256 H 0.79764 0.80072 0.43636 0.0
S257 S 0.70962 0.62651 0.58755 0.0
N258 N 0.70392 0.67067 0.62018 0.0
N259 N 0.73992 0.64834 0.51743 0.0
C260 C 0.74683 0.69382 0.51847 0.0
C261 C 0.72692 0.70614 0.57396 0.0
C262 C 1.01772 0.32477 0.05431 0.0
C263 C 0.99307 0.27674 0.07793 0.0
C264 C 0.04952 0.33915 1.00008 0.0
C265 C 0.05829 0.30639 0.96465 0.0
H266 H 1.01342 0.35258 0.07876 0.0
H267 H 0.06717 0.37679 0.98578 0.0
S268 S 1.00131 0.17534 1.00173 0.0
N269 N 0.97908 0.19568 0.05971 0.0
N270 N 0.03754 0.22234 0.95512 0.0
C271 C 0.03295 0.25768 0.98579 0.0
C272 C 1.00068 0.24297 0.04261 0.0
C273 C 0.28782 0.04741 0.51321 0.0
C274 C 0.31548 0.04111 0.4634 0.0
C275 C 0.2688 1.01542 0.5683 0.0
C276 C 0.27607 0.97557 0.57479 0.0
H277 H 0.28208 0.07793 0.51075 0.0
H278 H 0.2502 0.02316 0.60745 0.0
S279 S 0.33931 0.93856 0.45414 0.0
N280 N 0.34457 0.98836 0.4222 0.0
N281 N 0.30876 0.92943 0.52426 0.0
C282 C 0.30143 0.96773 0.52395 0.0
C283 C 0.32106 1.00007 0.46874 0.0
C284 C 0.70491 0.71374 0.99493 0.0
C285 C 0.73481 0.75918 0.96547 0.0
C286 C 0.72114 0.69634 0.04741 0.0
C287 C 0.76833 0.72328 0.07399 0.0
H288 H 0.66837 0.69073 0.97699 0.0
H289 H 0.69564 0.66144 0.06806 0.0
S290 S 0.86294 0.84317 1.01125 0.0
N291 N 0.8152 0.83004 0.96493 0.0
N292 N 0.84596 0.79712 0.06261 0.0
C293 C 0.79925 0.76835 0.04378 0.0
C294 C 0.7825 0.78626 0.99011 0.0
C295 C 1.02148 0.25674 0.48936 0.0
C296 C 0.99725 0.28065 0.4658 0.0
C297 C 0.05555 0.2757 0.54245 0.0
C298 C 0.06486 0.318 0.57674 0.0
H299 H 1.01432 0.22313 0.46644 0.0
H300 H 0.07297 0.25593 0.55854 0.0
S301 S 1.01464 0.39702 0.53144 0.0
N302 N 0.98849 0.35132 0.47898 0.0
N303 N 0.05045 0.38581 0.57764 0.0
C304 C 0.04217 0.343 0.5517 0.0
C305 C 1.00846 0.32432 0.49752 0.0
C306 C 0.70942 0.16234 0.32264 0.0
C307 C 0.6869 0.17658 0.2747 0.0
C308 C 0.75972 0.18133 0.3225 0.0
C309 C 0.78983 0.21588 0.27493 0.0
H310 H 0.68786 0.13545 0.35974 0.0
H311 H 0.77503 0.1686 0.36005 0.0
S312 S 0.74875 0.2662 0.13975 0.0
N313 N 0.69857 0.22806 0.17927 0.0
N314 N 0.79293 0.26376 0.17886 0.0
C315 C 0.76775 0.23088 0.22723 0.0
C316 C 0.71643 0.21122 0.22711 0.0
C317 C 0.47731 0.3427 0.27177 0.0
C318 C 0.5279 0.36315 0.27269 0.0
C319 C 0.44604 0.29245 0.27185 0.0
C320 C 0.46374 0.25998 0.27279 0.0
H321 H 0.46162 0.36582 0.27151 0.0
H322 H 0.40748 0.27907 0.27154 0.0
S323 S 0.59347 0.29488 0.27253 0.0
N324 N 0.59439 0.34688 0.27273 0.0
N325 N 0.53582 0.25259 0.27315 0.0
C326 C 0.51436 0.27997 0.27371 0.0
C327 C 0.54628 0.33134 0.27366 0.0
C328 C 0.8235 0.50198 0.25412 0.0
C329 C 0.87075 0.51608 0.27507 0.0
C330 C 0.80625 0.53479 0.25492 0.0
C331 C 0.83572 0.58289 0.27667 0.0
H332 H 0.79992 0.4655 0.23652 0.0
H333 H 0.76984 0.52252 0.23749 0.0
S334 S 0.96206 0.63609 0.33958 0.0
N335 N 0.94619 0.58003 0.31978 0.0
N336 N 0.91467 0.64168 0.32218 0.0
C337 C 0.88304 0.59681 0.29869 0.0
C338 C 0.90031 0.56344 0.29765 0.0
C339 C 0.18607 0.69647 0.72011 0.0
C340 C 0.1839 0.67286 0.78044 0.0
C341 C 0.20628 0.74679 0.71757 0.0
C342 C 0.22616 0.77579 0.77485 0.0
H343 H 0.17089 0.67577 0.67474 0.0
H344 H 0.20607 0.76314 0.67029 0.0
S345 S 0.22883 0.73222 0.94534 0.0
N346 N 0.2032 0.68277 0.89913 0.0
N347 N 0.24124 0.77722 0.8939 0.0
C348 C 0.22463 0.75289 0.8353 0.0
C349 C 0.20344 0.70153 0.8382 0.0
C350 C 0.51136 0.81475 0.75657 0.0
C351 C 0.52691 0.86294 0.77501 0.0
C352 C 0.54316 0.79612 0.7574 0.0
C353 C 0.592 0.82485 0.77658 0.0
H354 H 0.47411 0.79101 0.74203 0.0
H355 H 0.52921 0.7588 0.74323 0.0
S356 S 0.6521 0.95503 0.82273 0.0
N357 N 0.59544 0.93985 0.80815 0.0
N358 N 0.65471 0.90544 0.81057 0.0
C359 C 0.60813 0.87348 0.79375 0.0
C360 C 0.57581 0.89229 0.79279 0.0
C361 C 0.28912 0.49826 0.74123 0.0
C362 C 0.26733 0.45473 0.77754 0.0
C363 C 0.3398 0.5289 0.74033 0.0
C364 C 0.37063 0.51727 0.77592 0.0
H365 H 0.2669 0.50891 0.71356 0.0
H366 H 0.3549 0.56233 0.71254 0.0
S367 S 0.33279 0.40557 0.87362 0.0
N368 N 0.28169 0.40058 0.84693 0.0
N369 N 0.3759 0.45749 0.84409 0.0
C370 C 0.34942 0.4733 0.81076 0.0
C371 C 0.29816 0.44227 0.81188 0.0
C372 C 0.11557 0.24243 0.33026 0.0
C373 C 0.13786 0.23941 0.27112 0.0
C374 C 0.08598 0.26287 0.33037 0.0
C375 C 0.07624 0.2799 0.27143 0.0
H376 H 0.11869 0.22648 0.37631 0.0
H377 H 0.06673 0.26088 0.37557 0.0
S378 S 0.12879 0.28542 0.1046 0.0
N379 N 0.15226 0.2607 0.15298 0.0
N380 N 0.09325 0.29582 0.15333 0.0
C381 C 0.09998 0.2796 0.21273 0.0
C382 C 0.13128 0.25983 0.21248 0.0
C383 C 0.16687 0.94109 0.20181 0.0
C384 C 0.14235 0.90861 0.25406 0.0
C385 C 0.21713 0.97044 0.20294 0.0
C386 C 0.24471 0.96918 0.25686 0.0
H387 H 0.147 0.94627 0.16197 0.0
H388 H 0.23378 0.99813 0.16511 0.0
S389 S 0.19894 0.88604 0.40104 0.0
N390 N 0.15022 0.87207 0.35641 0.0
N391 N 0.24463 0.93008 0.3602 0.0
C392 C 0.22118 0.93462 0.30672 0.0
C393 C 0.16999 0.90386 0.30511 0.0
C394 C 0.76634 0.87654 0.27892 0.0
C395 C 0.81169 0.91039 0.25189 0.0
C396 C 0.75041 0.8268 0.27869 0.0
C397 C 0.77951 0.80983 0.25129 0.0
H398 H 0.74399 0.88885 0.30271 0.0
H399 H 0.71722 0.80221 0.30441 0.0
S400 S 0.90329 0.88495 0.18055 0.0
N401 N 0.88608 0.92396 0.20061 0.0
N402 N 0.85673 0.83164 0.19877 0.0
C403 C 0.82432 0.84375 0.22232 0.0
C404 C 0.84042 0.89379 0.22322 0.0
C405 C 0.27973 0.1312 0.75299 0.0
C406 C 0.23359 0.12029 0.77623 0.0
C407 C 0.29446 0.09645 0.75462 0.0
C408 C 0.26311 0.05002 0.7792 0.0
H409 H 0.30414 0.16651 0.73251 0.0
H410 H 0.329 0.10503 0.73327 0.0
S411 S 0.13739 1.00349 0.84293 0.0
N412 N 0.15675 0.06015 0.82297 0.0
N413 N 0.18307 0.99508 0.82627 0.0
C414 C 0.21704 0.03947 0.80354 0.0
C415 C 0.20253 0.07446 0.80188 0.0
C416 C 0.90325 0.83852 0.8019 0.0
C417 C 0.91854 0.80489 0.80587 0.0
C418 C 0.85448 0.82343 0.79533 0.0
C419 C 0.81867 0.77394 0.79029 0.0
H420 H 0.92935 0.87684 0.80156 0.0
H421 H 0.8453 0.85151 0.791 0.0
S422 S 0.84077 0.67181 0.80717 0.0
N423 N 0.89518 0.72024 0.81226 0.0
N424 N 0.80225 0.69152 0.79747 0.0
C425 C 0.83328 0.73981 0.79883 0.0
C426 C 0.8836 0.75543 0.80671 0.0
C427 C 0.95082 0.20953 0.81539 0.0
C428 C 0.98292 0.22873 0.76116 0.0
C429 C 0.91769 0.15962 0.8191 0.0
C430 C 0.91652 0.12793 0.76911 0.0
H431 H 0.95377 0.23241 0.85722 0.0
H432 H 0.89393 0.14557 0.86201 0.0
S433 S 0.997 0.15996 0.62179 0.0
N434 N 1.01212 0.2118 0.65834 0.0
N435 N 0.95271 0.11878 0.66755 0.0
C436 C 0.94841 0.14689 0.71512 0.0
C437 C 0.98054 0.19715 0.7103 0.0
loop_
_geom_bond_atom_site_label_1
_geom_bond_atom_site_label_2
_geom_bond_distance
_geom_bond_site_symmetry_2
_ccdc_geom_bond_type
Tb0 C10 2.825 . S
Tb0 O11 2.347 . S
Tb0 O14 2.366 . S
Tb0 O19 2.418 . S
Tb0 O20 2.384 . S
Tb0 O23 2.479 . S
Tb0 O24 2.471 . S
Eu1 O12 2.418 . S
Eu1 O13 2.384 . S
Eu1 O16 2.479 . S
Eu1 O17 2.471 . S
Eu1 O18 2.347 . S
Eu1 O21 2.366 . S
Eu1 C31 2.825 . S
C2 O18 1.259 . S
C2 O19 1.265 . S
C3 O20 1.255 . S
C3 O21 1.265 . S
C4 C6 1.380 . S
C4 C7 1.374 . S
C4 C10 1.507 . S
C5 C6 1.384 . S
C5 C9 1.387 . S
C5 H32 0.930 . S
C6 C4 1.380 . S
C6 C5 1.384 . S
C6 H33 0.931 . S
C7 C4 1.374 . S
C7 C8 1.390 . S
C7 H34 0.930 . S
C8 C7 1.390 . S
C8 C9 1.391 . S
C8 H35 0.930 . S
C9 C5 1.387 . S
C9 C8 1.391 . S
C10 Tb0 2.825 . S
C10 C4 1.507 . S
C10 O23 1.238 . S
C10 O24 1.247 . S
O11 Tb0 2.347 . S
O11 C15 1.259 . S
O12 Eu1 2.418 . S
O12 C15 1.265 . S
O13 Eu1 2.384 . S
O13 C22 1.255 . S
O14 Tb0 2.366 . S
O14 C22 1.265 . S
C15 O11 1.259 . S
C15 O12 1.265 . S
O16 Eu1 2.479 . S
O16 C31 1.238 . S
O17 Eu1 2.471 . S
O17 C31 1.247 . S
O18 Eu1 2.347 . S
O18 C2 1.259 . S
O19 Tb0 2.418 . S
O19 C2 1.265 . S
O20 Tb0 2.384 . S
O20 C3 1.255 . S
O21 Eu1 2.366 . S
O21 C3 1.265 . S
C22 O13 1.255 . S
C22 O14 1.265 . S
O23 Tb0 2.479 . S
O23 C10 1.238 . S
O24 Tb0 2.471 . S
O24 C10 1.247 . S
C25 C28 1.380 . S
C25 C29 1.374 . S
C25 C31 1.507 . S
C26 C27 1.387 . S
C26 C30 1.391 . S
C27 C26 1.387 . S
C27 C28 1.384 . S
C27 H36 0.930 . S
C28 C25 1.380 . S
C28 C27 1.384 . S
C28 H37 0.931 . S
C29 C25 1.374 . S
C29 C30 1.390 . S
C29 H38 0.930 . S
C30 C26 1.391 . S
C30 C29 1.390 . S
C30 H39 0.930 . S
C31 Eu1 2.825 . S
C31 O16 1.238 . S
C31 O17 1.247 . S
C31 C25 1.507 . S
H32 C5 0.930 . S
H33 C6 0.931 . S
H34 C7 0.930 . S
H35 C8 0.930 . S
H36 C27 0.930 . S
H37 C28 0.931 . S
H38 C29 0.930 . S
H39 C30 0.930 . S
Tb40 C50 2.825 . S
Tb40 O51 2.347 . S
Tb40 O54 2.366 . S
Tb40 O59 2.418 . S
Tb40 O60 2.384 . S
Tb40 O63 2.479 . S
Tb40 O64 2.471 . S
Eu41 O52 2.418 . S
Eu41 O53 2.384 . S
Eu41 O56 2.479 . S
Eu41 O57 2.471 . S
Eu41 O58 2.347 . S
Eu41 O61 2.366 . S
Eu41 C71 2.825 . S
C42 O58 1.259 . S
C42 O59 1.265 . S
C43 O60 1.255 . S
C43 O61 1.265 . S
C44 C46 1.379 1_655 S
C44 C47 1.374 . S
C44 C50 1.507 . S
C45 C46 1.385 . S
C45 C49 1.387 . S
C45 H72 0.930 . S
C46 C44 1.379 1_455 S
C46 C45 1.385 . S
C46 H73 0.931 1_455 S
C47 C44 1.374 . S
C47 C48 1.390 1_655 S
C47 H74 0.930 . S
C48 C47 1.390 1_455 S
C48 C49 1.391 . S
C48 H75 0.930 . S
C49 C45 1.387 . S
C49 C48 1.391 . S
C50 Tb40 2.825 . S
C50 C44 1.507 . S
C50 O63 1.238 . S
C50 O64 1.247 . S
O51 Tb40 2.347 . S
O51 C55 1.259 . S
O52 Eu41 2.418 . S
O52 C55 1.265 . S
O53 Eu41 2.384 . S
O53 C62 1.255 . S
O54 Tb40 2.366 . S
O54 C62 1.265 . S
C55 O51 1.259 . S
C55 O52 1.265 . S
O56 Eu41 2.479 . S
O56 C71 1.238 . S
O57 Eu41 2.471 . S
O57 C71 1.247 . S
O58 Eu41 2.347 . S
O58 C42 1.259 . S
O59 Tb40 2.418 . S
O59 C42 1.265 . S
O60 Tb40 2.384 . S
O60 C43 1.255 . S
O61 Eu41 2.366 . S
O61 C43 1.265 . S
C62 O53 1.255 . S
C62 O54 1.265 . S
O63 Tb40 2.479 . S
O63 C50 1.238 . S
O64 Tb40 2.471 . S
O64 C50 1.247 . S
C65 C68 1.380 . S
C65 C69 1.374 . S
C65 C71 1.507 . S
C66 C67 1.387 . S
C66 C70 1.391 . S
C67 C66 1.387 . S
C67 C68 1.384 . S
C67 H76 0.930 . S
C68 C65 1.380 . S
C68 C67 1.384 . S
C68 H77 0.931 . S
C69 C65 1.374 . S
C69 C70 1.390 . S
C69 H78 0.930 . S
C70 C66 1.391 . S
C70 C69 1.390 . S
C70 H79 0.930 . S
C71 Eu41 2.825 . S
C71 O56 1.238 . S
C71 O57 1.247 . S
C71 C65 1.507 . S
H72 C45 0.930 . S
H73 C46 0.931 1_655 S
H74 C47 0.930 . S
H75 C48 0.930 . S
H76 C67 0.930 . S
H77 C68 0.931 . S
H78 C69 0.930 . S
H79 C70 0.930 . S
Tb80 C90 2.825 . S
Tb80 O91 2.347 . S
Tb80 O94 2.366 . S
Tb80 O99 2.418 . S
Tb80 O100 2.384 . S
Tb80 O103 2.479 . S
Tb80 O104 2.471 . S
Eu81 O92 2.418 . S
Eu81 O93 2.384 . S
Eu81 O96 2.479 . S
Eu81 O97 2.471 . S
Eu81 O98 2.347 . S
Eu81 O101 2.366 . S
Eu81 C111 2.825 . S
C82 O98 1.259 . S
C82 O99 1.265 . S
C83 O100 1.255 . S
C83 O101 1.265 . S
C84 C86 1.379 1_545 S
C84 C87 1.374 . S
C84 C90 1.507 . S
C85 C86 1.386 . S
C85 C89 1.387 . S
C85 H112 0.930 . S
C86 C84 1.379 1_565 S
C86 C85 1.386 . S
C86 H113 0.930 1_565 S
C87 C84 1.374 . S
C87 C88 1.390 1_545 S
C87 H114 0.930 . S
C88 C87 1.390 1_565 S
C88 C89 1.391 . S
C88 H115 0.930 . S
C89 C85 1.387 . S
C89 C88 1.391 . S
C90 Tb80 2.825 . S
C90 C84 1.507 . S
C90 O103 1.238 . S
C90 O104 1.247 . S
O91 Tb80 2.347 . S
O91 C95 1.259 . S
O92 Eu81 2.418 . S
O92 C95 1.265 . S
O93 Eu81 2.384 . S
O93 C102 1.255 . S
O94 Tb80 2.366 . S
O94 C102 1.265 . S
C95 O91 1.259 . S
C95 O92 1.265 . S
O96 Eu81 2.479 . S
O96 C111 1.238 . S
O97 Eu81 2.471 . S
O97 C111 1.247 . S
O98 Eu81 2.347 . S
O98 C82 1.259 . S
O99 Tb80 2.418 . S
O99 C82 1.265 . S
O100 Tb80 2.384 . S
O100 C83 1.255 . S
O101 Eu81 2.366 . S
O101 C83 1.265 . S
C102 O93 1.255 . S
C102 O94 1.265 . S
O103 Tb80 2.479 . S
O103 C90 1.238 . S
O104 Tb80 2.471 . S
O104 C90 1.247 . S
C105 C108 1.380 . S
C105 C109 1.374 . S
C105 C111 1.507 . S
C106 C107 1.387 . S
C106 C110 1.391 . S
C107 C106 1.387 . S
C107 C108 1.384 . S
C107 H116 0.930 . S
C108 C105 1.380 . S
C108 C107 1.384 . S
C108 H117 0.931 . S
C109 C105 1.374 . S
C109 C110 1.390 . S
C109 H118 0.930 . S
C110 C106 1.391 . S
C110 C109 1.390 . S
C110 H119 0.930 . S
C111 Eu81 2.825 . S
C111 O96 1.238 . S
C111 O97 1.247 . S
C111 C105 1.507 . S
H112 C85 0.930 . S
H113 C86 0.930 1_545 S
H114 C87 0.930 . S
H115 C88 0.930 . S
H116 C107 0.930 . S
H117 C108 0.931 . S
H118 C109 0.930 . S
H119 C110 0.930 . S
Tb120 C130 2.825 . S
Tb120 O131 2.347 . S
Tb120 O134 2.366 . S
Tb120 O139 2.418 . S
Tb120 O140 2.384 . S
Tb120 O143 2.479 . S
Tb120 O144 2.471 . S
Eu121 O132 2.418 . S
Eu121 O133 2.384 . S
Eu121 O136 2.479 . S
Eu121 O137 2.471 . S
Eu121 O138 2.347 . S
Eu121 O141 2.366 . S
Eu121 C151 2.825 . S
C122 O138 1.259 . S
C122 O139 1.265 . S
C123 O140 1.255 . S
C123 O141 1.265 . S
C124 C126 1.380 . S
C124 C127 1.374 . S
C124 C130 1.507 . S
C125 C126 1.384 . S
C125 C129 1.387 . S
C125 H152 0.930 . S
C126 C124 1.380 . S
C126 C125 1.384 . S
C126 H153 0.931 . S
C127 C124 1.374 . S
C127 C128 1.390 . S
C127 H154 0.930 . S
C128 C127 1.390 . S
C128 C129 1.391 . S
C128 H155 0.930 . S
C129 C125 1.387 . S
C129 C128 1.391 . S
C130 Tb120 2.825 . S
C130 C124 1.507 . S
C130 O143 1.238 . S
C130 O144 1.247 . S
O131 Tb120 2.347 . S
O131 C135 1.259 . S
O132 Eu121 2.418 . S
O132 C135 1.265 . S
O133 Eu121 2.384 . S
O133 C142 1.255 . S
O134 Tb120 2.366 . S
O134 C142 1.265 . S
C135 O131 1.259 . S
C135 O132 1.265 . S
O136 Eu121 2.479 . S
O136 C151 1.238 . S
O137 Eu121 2.471 . S
O137 C151 1.247 . S
O138 Eu121 2.347 . S
O138 C122 1.259 . S
O139 Tb120 2.418 . S
O139 C122 1.265 . S
O140 Tb120 2.384 . S
O140 C123 1.255 . S
O141 Eu121 2.366 . S
O141 C123 1.265 . S
C142 O133 1.255 . S
C142 O134 1.265 . S
O143 Tb120 2.479 . S
O143 C130 1.238 . S
O144 Tb120 2.471 . S
O144 C130 1.247 . S
C145 C148 1.380 . S
C145 C149 1.374 . S
C145 C151 1.507 . S
C146 C147 1.387 . S
C146 C150 1.391 . S
C147 C146 1.387 . S
C147 C148 1.384 . S
C147 H156 0.930 . S
C148 C145 1.380 . S
C148 C147 1.384 . S
C148 H157 0.931 . S
C149 C145 1.374 . S
C149 C150 1.390 . S
C149 H158 0.930 . S
C150 C146 1.391 . S
C150 C149 1.390 . S
C150 H159 0.930 . S
C151 Eu121 2.825 . S
C151 O136 1.238 . S
C151 O137 1.247 . S
C151 C145 1.507 . S
H152 C125 0.930 . S
H153 C126 0.931 . S
H154 C127 0.930 . S
H155 C128 0.930 . S
H156 C147 0.930 . S
H157 C148 0.931 . S
H158 C149 0.930 . S
H159 C150 0.930 . S
Tb160 C170 2.825 . S
Tb160 O171 2.347 . S
Tb160 O174 2.366 . S
Tb160 O179 2.418 . S
Tb160 O180 2.384 . S
Tb160 O183 2.479 . S
Tb160 O184 2.471 . S
Eu161 O172 2.418 . S
Eu161 O173 2.384 . S
Eu161 O176 2.479 . S
Eu161 O177 2.471 . S
Eu161 O178 2.347 . S
Eu161 O181 2.366 . S
Eu161 C191 2.825 . S
C162 O178 1.259 . S
C162 O179 1.265 . S
C163 O180 1.255 . S
C163 O181 1.265 . S
C164 C166 1.379 1_455 S
C164 C167 1.374 . S
C164 C170 1.507 . S
C165 C166 1.386 . S
C165 C169 1.387 . S
C165 H192 0.930 . S
C166 C164 1.379 1_655 S
C166 C165 1.386 . S
C166 H193 0.930 1_655 S
C167 C164 1.374 . S
C167 C168 1.390 1_455 S
C167 H194 0.930 . S
C168 C167 1.390 1_655 S
C168 C169 1.391 . S
C168 H195 0.930 . S
C169 C165 1.387 . S
C169 C168 1.391 . S
C170 Tb160 2.825 . S
C170 C164 1.507 . S
C170 O183 1.238 . S
C170 O184 1.247 . S
O171 Tb160 2.347 . S
O171 C175 1.259 . S
O172 Eu161 2.418 . S
O172 C175 1.265 . S
O173 Eu161 2.384 . S
O173 C182 1.255 . S
O174 Tb160 2.366 . S
O174 C182 1.265 . S
C175 O171 1.259 . S
C175 O172 1.265 . S
O176 Eu161 2.479 . S
O176 C191 1.238 . S
O177 Eu161 2.471 . S
O177 C191 1.247 . S
O178 Eu161 2.347 . S
O178 C162 1.259 . S
O179 Tb160 2.418 . S
O179 C162 1.265 . S
O180 Tb160 2.384 . S
O180 C163 1.255 . S
O181 Eu161 2.366 . S
O181 C163 1.265 . S
C182 O173 1.255 . S
C182 O174 1.265 . S
O183 Tb160 2.479 . S
O183 C170 1.238 . S
O184 Tb160 2.471 . S
O184 C170 1.247 . S
C185 C188 1.380 . S
C185 C189 1.374 . S
C185 C191 1.507 . S
C186 C187 1.387 . S
C186 C190 1.391 . S
C187 C186 1.387 . S
C187 C188 1.384 . S
C187 H196 0.930 . S
C188 C185 1.380 . S
C188 C187 1.384 . S
C188 H197 0.931 . S
C189 C185 1.374 . S
C189 C190 1.390 . S
C189 H198 0.930 . S
C190 C186 1.391 . S
C190 C189 1.390 . S
C190 H199 0.930 . S
C191 Eu161 2.825 . S
C191 O176 1.238 . S
C191 O177 1.247 . S
C191 C185 1.507 . S
H192 C165 0.930 . S
H193 C166 0.930 1_455 S
H194 C167 0.930 . S
H195 C168 0.930 . S
H196 C187 0.930 . S
H197 C188 0.931 . S
H198 C189 0.930 . S
H199 C190 0.930 . S
Tb200 C210 2.825 . S
Tb200 O211 2.347 . S
Tb200 O214 2.366 . S
Tb200 O219 2.418 . S
Tb200 O220 2.384 . S
Tb200 O223 2.479 . S
Tb200 O224 2.471 . S
Eu201 O212 2.418 . S
Eu201 O213 2.384 . S
Eu201 O216 2.479 . S
Eu201 O217 2.471 . S
Eu201 O218 2.347 . S
Eu201 O221 2.366 . S
Eu201 C231 2.825 . S
C202 O218 1.259 . S
C202 O219 1.265 . S
C203 O220 1.255 . S
C203 O221 1.265 . S
C204 C206 1.379 1_565 S
C204 C207 1.374 . S
C204 C210 1.507 . S
C205 C206 1.385 . S
C205 C209 1.387 . S
C205 H232 0.930 . S
C206 C204 1.379 1_545 S
C206 C205 1.385 . S
C206 H233 0.931 1_545 S
C207 C204 1.374 . S
C207 C208 1.390 1_565 S
C207 H234 0.930 . S
C208 C207 1.390 1_545 S
C208 C209 1.391 . S
C208 H235 0.930 . S
C209 C205 1.387 . S
C209 C208 1.391 . S
C210 Tb200 2.825 . S
C210 C204 1.507 . S
C210 O223 1.238 . S
C210 O224 1.247 . S
O211 Tb200 2.347 . S
O211 C215 1.259 . S
O212 Eu201 2.418 . S
O212 C215 1.265 . S
O213 Eu201 2.384 . S
O213 C222 1.255 . S
O214 Tb200 2.366 . S
O214 C222 1.265 . S
C215 O211 1.259 . S
C215 O212 1.265 . S
O216 Eu201 2.479 . S
O216 C231 1.238 . S
O217 Eu201 2.471 . S
O217 C231 1.247 . S
O218 Eu201 2.347 . S
O218 C202 1.259 . S
O219 Tb200 2.418 . S
O219 C202 1.265 . S
O220 Tb200 2.384 . S
O220 C203 1.255 . S
O221 Eu201 2.366 . S
O221 C203 1.265 . S
C222 O213 1.255 . S
C222 O214 1.265 . S
O223 Tb200 2.479 . S
O223 C210 1.238 . S
O224 Tb200 2.471 . S
O224 C210 1.247 . S
C225 C228 1.380 . S
C225 C229 1.374 . S
C225 C231 1.507 . S
C226 C227 1.387 . S
C226 C230 1.391 . S
C227 C226 1.387 . S
C227 C228 1.384 . S
C227 H236 0.930 . S
C228 C225 1.380 . S
C228 C227 1.384 . S
C228 H237 0.931 . S
C229 C225 1.374 . S
C229 C230 1.390 . S
C229 H238 0.930 . S
C230 C226 1.391 . S
C230 C229 1.390 . S
C230 H239 0.930 . S
C231 Eu201 2.825 . S
C231 O216 1.238 . S
C231 O217 1.247 . S
C231 C225 1.507 . S
H232 C205 0.930 . S
H233 C206 0.931 1_565 S
H234 C207 0.930 . S
H235 C208 0.930 . S
H236 C227 0.930 . S
H237 C228 0.931 . S
H238 C229 0.930 . S
H239 C230 0.930 . S
C240 C241 1.369 1_554 S
C240 C242 1.419 1_565 S
C240 H244 0.930 . S
C241 C240 1.369 1_556 S
C241 C250 1.429 . S
C242 C240 1.419 1_545 S
C242 C243 1.363 . S
C242 H245 0.929 . S
C243 C242 1.363 . S
C243 C249 1.428 1_554 S
H244 C240 0.930 . S
H245 C242 0.929 . S
S246 N247 1.613 1_545 S
S246 N248 1.610 . S
N247 S246 1.613 1_565 S
N247 C250 1.350 . S
N248 S246 1.610 . S
N248 C249 1.351 . S
C249 C243 1.428 1_556 S
C249 N248 1.351 . S
C249 C250 1.434 1_545 S
C250 C241 1.429 . S
C250 N247 1.350 . S
C250 C249 1.434 1_565 S
C251 C252 1.369 . S
C251 C253 1.419 . S
C251 H255 0.930 . S
C252 C251 1.369 . S
C252 C261 1.429 . S
C253 C251 1.419 . S
C253 C254 1.363 . S
C253 H256 0.929 . S
C254 C253 1.363 . S
C254 C260 1.428 . S
H255 C251 0.930 . S
H256 C253 0.929 . S
S257 N258 1.613 . S
S257 N259 1.610 . S
N258 S257 1.613 . S
N258 C261 1.350 . S
N259 S257 1.610 . S
N259 C260 1.351 . S
C260 C254 1.428 . S
C260 N259 1.351 . S
C260 C261 1.434 . S
C261 C252 1.429 . S
C261 N258 1.350 . S
C261 C260 1.434 . S
C262 C263 1.369 . S
C262 C264 1.419 1_654 S
C262 H266 0.930 . S
C263 C262 1.369 . S
C263 C272 1.429 . S
C264 C262 1.419 1_456 S
C264 C265 1.363 . S
C264 H267 0.929 . S
C265 C264 1.363 . S
C265 C271 1.428 . S
H266 C262 0.930 . S
H267 C264 0.929 . S
S268 N269 1.613 1_556 S
S268 N270 1.610 1_655 S
N269 S268 1.613 1_554 S
N269 C272 1.350 . S
N270 S268 1.610 1_455 S
N270 C271 1.351 . S
C271 C265 1.428 . S
C271 N270 1.351 . S
C271 C272 1.434 1_456 S
C272 C263 1.429 . S
C272 N269 1.350 . S
C272 C271 1.434 1_654 S
C273 C274 1.369 . S
C273 C275 1.405 1_545 S
C273 H277 0.930 . S
C274 C273 1.369 . S
C274 C283 1.429 1_545 S
C275 C273 1.405 1_565 S
C275 C276 1.382 . S
C275 H278 0.920 1_565 S
C276 C275 1.382 . S
C276 C282 1.428 . S
H277 C273 0.930 . S
H278 C275 0.920 1_545 S
S279 N280 1.613 . S
S279 N281 1.610 . S
N280 S279 1.613 . S
N280 C283 1.350 . S
N281 S279 1.610 . S
N281 C282 1.351 . S
C282 C276 1.428 . S
C282 N281 1.351 . S
C282 C283 1.434 . S
C283 C274 1.429 1_565 S
C283 N280 1.350 . S
C283 C282 1.434 . S
C284 C285 1.369 . S
C284 C286 1.419 1_556 S
C284 H288 0.930 . S
C285 C284 1.369 . S
C285 C294 1.429 . S
C286 C284 1.419 1_554 S
C286 C287 1.363 . S
C286 H289 0.929 . S
C287 C286 1.363 . S
C287 C293 1.428 . S
H288 C284 0.930 . S
H289 C286 0.929 . S
S290 N291 1.613 1_554 S
S290 N292 1.610 . S
N291 S290 1.613 1_556 S
N291 C294 1.350 . S
N292 S290 1.610 . S
N292 C293 1.351 . S
C293 C287 1.428 . S
C293 N292 1.351 . S
C293 C294 1.434 1_554 S
C294 C285 1.429 . S
C294 N291 1.350 . S
C294 C293 1.434 1_556 S
C295 C296 1.369 . S
C295 C297 1.419 1_655 S
C295 H299 0.930 . S
C296 C295 1.369 . S
C296 C305 1.429 . S
C297 C295 1.419 1_455 S
C297 C298 1.363 . S
C297 H300 0.929 . S
C298 C297 1.363 . S
C298 C304 1.428 . S
H299 C295 0.930 . S
H300 C297 0.929 . S
S301 N302 1.613 . S
S301 N303 1.610 1_655 S
N302 S301 1.613 . S
N302 C305 1.350 . S
N303 S301 1.610 1_455 S
N303 C304 1.351 . S
C304 C298 1.428 . S
C304 N303 1.351 . S
C304 C305 1.434 1_455 S
C305 C296 1.429 . S
C305 N302 1.350 . S
C305 C304 1.434 1_655 S
C306 C307 1.369 . S
C306 C308 1.419 . S
C306 H310 0.930 . S
C307 C306 1.369 . S
C307 C316 1.429 . S
C308 C306 1.419 . S
C308 C309 1.363 . S
C308 H311 0.929 . S
C309 C308 1.363 . S
C309 C315 1.428 . S
H310 C306 0.930 . S
H311 C308 0.929 . S
S312 N313 1.613 . S
S312 N314 1.610 . S
N313 S312 1.613 . S
N313 C316 1.350 . S
N314 S312 1.610 . S
N314 C315 1.351 . S
C315 C309 1.428 . S
C315 N314 1.351 . S
C315 C316 1.434 . S
C316 C307 1.429 . S
C316 N313 1.350 . S
C316 C315 1.434 . S
C317 C318 1.369 . S
C317 C319 1.419 . S
C317 H321 0.930 . S
C318 C317 1.369 . S
C318 C327 1.429 . S
C319 C317 1.419 . S
C319 C320 1.363 . S
C319 H322 0.929 . S
C320 C319 1.363 . S
C320 C326 1.428 . S
H321 C317 0.930 . S
H322 C319 0.929 . S
S323 N324 1.613 . S
S323 N325 1.610 . S
N324 S323 1.613 . S
N324 C327 1.350 . S
N325 S323 1.610 . S
N325 C326 1.351 . S
C326 C320 1.428 . S
C326 N325 1.351 . S
C326 C327 1.434 . S
C327 C318 1.429 . S
C327 N324 1.350 . S
C327 C326 1.434 . S
C328 C329 1.369 . S
C328 C330 1.419 . S
C328 H332 0.930 . S
C329 C328 1.369 . S
C329 C338 1.429 . S
C330 C328 1.419 . S
C330 C331 1.363 . S
C330 H333 0.929 . S
C331 C330 1.363 . S
C331 C337 1.428 . S
H332 C328 0.930 . S
H333 C330 0.929 . S
S334 N335 1.613 . S
S334 N336 1.610 . S
N335 S334 1.613 . S
N335 C338 1.350 . S
N336 S334 1.610 . S
N336 C337 1.351 . S
C337 C331 1.428 . S
C337 N336 1.351 . S
C337 C338 1.434 . S
C338 C329 1.429 . S
C338 N335 1.350 . S
C338 C337 1.434 . S
C339 C340 1.369 . S
C339 C341 1.419 . S
C339 H343 0.930 . S
C340 C339 1.369 . S
C340 C349 1.429 . S
C341 C339 1.419 . S
C341 C342 1.363 . S
C341 H344 0.929 . S
C342 C341 1.363 . S
C342 C348 1.428 . S
H343 C339 0.930 . S
H344 C341 0.929 . S
S345 N346 1.613 . S
S345 N347 1.610 . S
N346 S345 1.613 . S
N346 C349 1.350 . S
N347 S345 1.610 . S
N347 C348 1.351 . S
C348 C342 1.428 . S
C348 N347 1.351 . S
C348 C349 1.434 . S
C349 C340 1.429 . S
C349 N346 1.350 . S
C349 C348 1.434 . S
C350 C351 1.369 . S
C350 C352 1.419 . S
C350 H354 0.930 . S
C351 C350 1.369 . S
C351 C360 1.429 . S
C352 C350 1.419 . S
C352 C353 1.363 . S
C352 H355 0.929 . S
C353 C352 1.363 . S
C353 C359 1.428 . S
H354 C350 0.930 . S
H355 C352 0.929 . S
S356 N357 1.613 . S
S356 N358 1.610 . S
N357 S356 1.613 . S
N357 C360 1.350 . S
N358 S356 1.610 . S
N358 C359 1.351 . S
C359 C353 1.428 . S
C359 N358 1.351 . S
C359 C360 1.434 . S
C360 C351 1.429 . S
C360 N357 1.350 . S
C360 C359 1.434 . S
C361 C362 1.369 . S
C361 C363 1.419 . S
C361 H365 0.930 . S
C362 C361 1.369 . S
C362 C371 1.429 . S
C363 C361 1.419 . S
C363 C364 1.363 . S
C363 H366 0.929 . S
C364 C363 1.363 . S
C364 C370 1.428 . S
H365 C361 0.930 . S
H366 C363 0.929 . S
S367 N368 1.613 . S
S367 N369 1.610 . S
N368 S367 1.613 . S
N368 C371 1.350 . S
N369 S367 1.610 . S
N369 C370 1.351 . S
C370 C364 1.428 . S
C370 N369 1.351 . S
C370 C371 1.434 . S
C371 C362 1.429 . S
C371 N368 1.350 . S
C371 C370 1.434 . S
C372 C373 1.369 . S
C372 C374 1.419 . S
C372 H376 0.930 . S
C373 C372 1.369 . S
C373 C382 1.429 . S
C374 C372 1.419 . S
C374 C375 1.363 . S
C374 H377 0.929 1_455 S
C375 C374 1.363 . S
C375 C381 1.428 . S
H376 C372 0.930 . S
H377 C374 0.929 1_655 S
S378 N379 1.613 . S
S378 N380 1.610 . S
N379 S378 1.613 . S
N379 C382 1.350 . S
N380 S378 1.610 . S
N380 C381 1.351 . S
C381 C375 1.428 . S
C381 N380 1.351 . S
C381 C382 1.434 . S
C382 C373 1.429 . S
C382 N379 1.350 . S
C382 C381 1.434 . S
C383 C384 1.369 1_545 S
C383 C385 1.419 . S
C383 H387 0.930 . S
C384 C383 1.369 1_565 S
C384 C393 1.429 . S
C385 C383 1.419 . S
C385 C386 1.363 1_545 S
C385 H388 0.929 . S
C386 C385 1.363 1_565 S
C386 C392 1.428 . S
H387 C383 0.930 . S
H388 C385 0.929 . S
S389 N390 1.613 . S
S389 N391 1.610 . S
N390 S389 1.613 . S
N390 C393 1.350 . S
N391 S389 1.610 . S
N391 C392 1.351 . S
C392 C386 1.428 . S
C392 N391 1.351 . S
C392 C393 1.434 . S
C393 C384 1.429 . S
C393 N390 1.350 . S
C393 C392 1.434 . S
C394 C395 1.369 . S
C394 C396 1.419 . S
C394 H398 0.930 . S
C395 C394 1.369 . S
C395 C404 1.429 . S
C396 C394 1.419 . S
C396 C397 1.363 . S
C396 H399 0.929 . S
C397 C396 1.363 . S
C397 C403 1.428 . S
H398 C394 0.930 . S
H399 C396 0.929 . S
S400 N401 1.613 . S
S400 N402 1.610 . S
N401 S400 1.613 . S
N401 C404 1.350 . S
N402 S400 1.610 . S
N402 C403 1.351 . S
C403 C397 1.428 . S
C403 N402 1.351 . S
C403 C404 1.434 . S
C404 C395 1.429 . S
C404 N401 1.350 . S
C404 C403 1.434 . S
C405 C406 1.369 . S
C405 C407 1.419 . S
C405 H409 0.930 . S
C406 C405 1.369 . S
C406 C415 1.429 1_545 S
C407 C405 1.419 . S
C407 C408 1.363 . S
C407 H410 0.929 . S
C408 C407 1.363 . S
C408 C414 1.428 1_545 S
H409 C405 0.930 . S
H410 C407 0.929 . S
S411 N412 1.613 . S
S411 N413 1.610 . S
N412 S411 1.613 . S
N412 C415 1.350 . S
N413 S411 1.610 . S
N413 C414 1.351 . S
C414 C408 1.428 1_565 S
C414 N413 1.351 . S
C414 C415 1.434 . S
C415 C406 1.429 1_565 S
C415 N412 1.350 . S
C415 C414 1.434 . S
C416 C417 1.369 . S
C416 C418 1.419 . S
C416 H420 0.930 . S
C417 C416 1.369 . S
C417 C426 1.429 . S
C418 C416 1.419 . S
C418 C419 1.363 . S
C418 H421 0.929 . S
C419 C418 1.363 . S
C419 C425 1.428 . S
H420 C416 0.930 . S
H421 C418 0.929 . S
S422 N423 1.613 . S
S422 N424 1.610 . S
N423 S422 1.613 . S
N423 C426 1.350 . S
N424 S422 1.610 . S
N424 C425 1.351 . S
C425 C419 1.428 . S
C425 N424 1.351 . S
C425 C426 1.434 . S
C426 C417 1.429 . S
C426 N423 1.350 . S
C426 C425 1.434 . S
C427 C428 1.369 . S
C427 C429 1.419 . S
C427 H431 0.930 . S
C428 C427 1.369 . S
C428 C437 1.429 1_655 S
C429 C427 1.419 . S
C429 C430 1.363 . S
C429 H432 0.929 . S
C430 C429 1.363 . S
C430 C436 1.428 1_655 S
H431 C427 0.930 . S
H432 C429 0.929 . S
S433 N434 1.613 . S
S433 N435 1.610 . S
N434 S433 1.613 . S
N434 C437 1.350 . S
N435 S433 1.610 . S
N435 C436 1.351 . S
C436 C430 1.428 1_455 S
C436 N435 1.351 . S
C436 C437 1.434 . S
C437 C428 1.429 1_455 S
C437 N434 1.350 . S
C437 C436 1.434 . S
C241 C175 2.474 . S
C243 C15 2.480 . S
C252 C202 2.548 . S
C254 C42 2.553 . S
C263 C95 2.479 . S
C265 C135 2.478 . S
C274 C2 2.547 . S
C276 C162 2.553 . S
C285 C215 2.478 . S
C287 C55 2.479 . S
C296 C82 2.552 . S
C298 C122 2.552 . S
C307 C26 1.977 . S
C309 C83 1.910 . S
C318 C66 1.976 . S
C320 C3 1.911 . S
C329 C106 1.982 . S
C331 C43 1.905 . S
C340 C146 1.978 . S
C342 C163 1.908 . S
C351 C186 1.982 . S
C353 C203 1.905 . S
C362 C123 1.908 . S
C364 C226 1.978 . S
C373 C9 1.386 . S
C375 C102 1.511 1_455 S
C384 C49 1.383 . S
C386 C22 1.513 1_565 S
C395 C89 1.397 . S
C397 C62 1.505 . S
C406 C129 1.394 . S
C408 C182 1.506 1_545 S
C417 C169 1.382 . S
C419 C222 1.514 . S
C428 C142 1.507 1_655 S
C430 C209 1.393 . S
