# Generated by pormake.
# Topology vcq, (7)-cn, num edge types: 1
# Building blocks:
#     Node 0, Type 0, BuildingBlock: HICVOG_clean_sbu_0, # of connection points: 7
#     Node 1, Type 0, BuildingBlock: HICVOG_clean_sbu_0, # of connection points: 7
#     Node 2, Type 0, BuildingBlock: HICVOG_clean_sbu_0, # of connection points: 7
#     Node 3, Type 0, BuildingBlock: HICVOG_clean_sbu_0, # of connection points: 7
#     Node 4, Type 0, BuildingBlock: HICVOG_clean_sbu_0, # of connection points: 7
#     Node 5, Type 0, BuildingBlock: HICVOG_clean_sbu_0, # of connection points: 7
#     Node 6, Type 0, BuildingBlock: HICVOG_clean_sbu_0, # of connection points: 7
#     Node 7, Type 0, BuildingBlock: HICVOG_clean_sbu_0, # of connection points: 7
#     Node 8, Type 0, BuildingBlock: HICVOG_clean_sbu_0, # of connection points: 7
#     Node 9, Type 0, BuildingBlock: HICVOG_clean_sbu_0, # of connection points: 7
#     Node 10, Type 0, BuildingBlock: HICVOG_clean_sbu_0, # of connection points: 7
#     Node 11, Type 0, BuildingBlock: HICVOG_clean_sbu_0, # of connection points: 7
#     Node 12, Type 0, BuildingBlock: HICVOG_clean_sbu_0, # of connection points: 7
#     Node 13, Type 0, BuildingBlock: HICVOG_clean_sbu_0, # of connection points: 7
#     Node 14, Type 0, BuildingBlock: HICVOG_clean_sbu_0, # of connection points: 7
#     Node 15, Type 0, BuildingBlock: HICVOG_clean_sbu_0, # of connection points: 7
#     Edge 16, Type (0, 0), BuildingBlock: UVAHIK_clean_linker_0, # of connection points: 2
#     Edge 17, Type (0, 0), BuildingBlock: UVAHIK_clean_linker_0, # of connection points: 2
#     Edge 18, Type (0, 0), BuildingBlock: UVAHIK_clean_linker_0, # of connection points: 2
#     Edge 19, Type (0, 0), BuildingBlock: UVAHIK_clean_linker_0, # of connection points: 2
#     Edge 20, Type (0, 0), BuildingBlock: UVAHIK_clean_linker_0, # of connection points: 2
#     Edge 21, Type (0, 0), BuildingBlock: UVAHIK_clean_linker_0, # of connection points: 2
#     Edge 22, Type (0, 0), BuildingBlock: UVAHIK_clean_linker_0, # of connection points: 2
#     Edge 23, Type (0, 0), BuildingBlock: UVAHIK_clean_linker_0, # of connection points: 2
#     Edge 24, Type (0, 0), BuildingBlock: UVAHIK_clean_linker_0, # of connection points: 2
#     Edge 25, Type (0, 0), BuildingBlock: UVAHIK_clean_linker_0, # of connection points: 2
#     Edge 26, Type (0, 0), BuildingBlock: UVAHIK_clean_linker_0, # of connection points: 2
#     Edge 27, Type (0, 0), BuildingBlock: UVAHIK_clean_linker_0, # of connection points: 2
#     Edge 28, Type (0, 0), BuildingBlock: UVAHIK_clean_linker_0, # of connection points: 2
#     Edge 29, Type (0, 0), BuildingBlock: UVAHIK_clean_linker_0, # of connection points: 2
#     Edge 30, Type (0, 0), BuildingBlock: UVAHIK_clean_linker_0, # of connection points: 2
#     Edge 31, Type (0, 0), BuildingBlock: UVAHIK_clean_linker_0, # of connection points: 2
#     Edge 32, Type (0, 0), BuildingBlock: UVAHIK_clean_linker_0, # of connection points: 2
#     Edge 33, Type (0, 0), BuildingBlock: UVAHIK_clean_linker_0, # of connection points: 2
#     Edge 34, Type (0, 0), BuildingBlock: UVAHIK_clean_linker_0, # of connection points: 2
#     Edge 35, Type (0, 0), BuildingBlock: UVAHIK_clean_linker_0, # of connection points: 2
#     Edge 36, Type (0, 0), BuildingBlock: UVAHIK_clean_linker_0, # of connection points: 2
#     Edge 37, Type (0, 0), BuildingBlock: UVAHIK_clean_linker_0, # of connection points: 2
#     Edge 38, Type (0, 0), BuildingBlock: UVAHIK_clean_linker_0, # of connection points: 2
#     Edge 39, Type (0, 0), BuildingBlock: UVAHIK_clean_linker_0, # of connection points: 2
#     Edge 40, Type (0, 0), BuildingBlock: UVAHIK_clean_linker_0, # of connection points: 2
#     Edge 41, Type (0, 0), BuildingBlock: UVAHIK_clean_linker_0, # of connection points: 2
#     Edge 42, Type (0, 0), BuildingBlock: UVAHIK_clean_linker_0, # of connection points: 2
#     Edge 43, Type (0, 0), BuildingBlock: UVAHIK_clean_linker_0, # of connection points: 2
#     Edge 44, Type (0, 0), BuildingBlock: UVAHIK_clean_linker_0, # of connection points: 2
#     Edge 45, Type (0, 0), BuildingBlock: UVAHIK_clean_linker_0, # of connection points: 2
#     Edge 46, Type (0, 0), BuildingBlock: UVAHIK_clean_linker_0, # of connection points: 2
#     Edge 47, Type (0, 0), BuildingBlock: UVAHIK_clean_linker_0, # of connection points: 2
#     Edge 48, Type (0, 0), BuildingBlock: UVAHIK_clean_linker_0, # of connection points: 2
#     Edge 49, Type (0, 0), BuildingBlock: UVAHIK_clean_linker_0, # of connection points: 2
#     Edge 50, Type (0, 0), BuildingBlock: UVAHIK_clean_linker_0, # of connection points: 2
#     Edge 51, Type (0, 0), BuildingBlock: UVAHIK_clean_linker_0, # of connection points: 2
#     Edge 52, Type (0, 0), BuildingBlock: UVAHIK_clean_linker_0, # of connection points: 2
#     Edge 53, Type (0, 0), BuildingBlock: UVAHIK_clean_linker_0, # of connection points: 2
#     Edge 54, Type (0, 0), BuildingBlock: UVAHIK_clean_linker_0, # of connection points: 2
#     Edge 55, Type (0, 0), BuildingBlock: UVAHIK_clean_linker_0, # of connection points: 2
#     Edge 56, Type (0, 0), BuildingBlock: UVAHIK_clean_linker_0, # of connection points: 2
#     Edge 57, Type (0, 0), BuildingBlock: UVAHIK_clean_linker_0, # of connection points: 2
#     Edge 58, Type (0, 0), BuildingBlock: UVAHIK_clean_linker_0, # of connection points: 2
#     Edge 59, Type (0, 0), BuildingBlock: UVAHIK_clean_linker_0, # of connection points: 2
#     Edge 60, Type (0, 0), BuildingBlock: UVAHIK_clean_linker_0, # of connection points: 2
#     Edge 61, Type (0, 0), BuildingBlock: UVAHIK_clean_linker_0, # of connection points: 2
#     Edge 62, Type (0, 0), BuildingBlock: UVAHIK_clean_linker_0, # of connection points: 2
#     Edge 63, Type (0, 0), BuildingBlock: UVAHIK_clean_linker_0, # of connection points: 2
#     Edge 64, Type (0, 0), BuildingBlock: UVAHIK_clean_linker_0, # of connection points: 2
#     Edge 65, Type (0, 0), BuildingBlock: UVAHIK_clean_linker_0, # of connection points: 2
#     Edge 66, Type (0, 0), BuildingBlock: UVAHIK_clean_linker_0, # of connection points: 2
#     Edge 67, Type (0, 0), BuildingBlock: UVAHIK_clean_linker_0, # of connection points: 2
#     Edge 68, Type (0, 0), BuildingBlock: UVAHIK_clean_linker_0, # of connection points: 2
#     Edge 69, Type (0, 0), BuildingBlock: UVAHIK_clean_linker_0, # of connection points: 2
#     Edge 70, Type (0, 0), BuildingBlock: UVAHIK_clean_linker_0, # of connection points: 2
#     Edge 71, Type (0, 0), BuildingBlock: UVAHIK_clean_linker_0, # of connection points: 2
# Relax obj value: 0.267
# Max RMSD: 0.259
# Mean RMSD: 0.259
data_MOF--net-vcq--node1-HICVOG_clean_sbu_0--edge1-UVAHIK_clean_linker_0
_symmetry_space_group_name_H-M    P1
_symmetry_Int_Tables_number       1
_symmetry_cell_setting            triclinic
loop_
_symmetry_equiv_pos_as_xyz
'x, y, z'
_cell_length_a     98.303848
_cell_length_b     41.965425
_cell_length_c     35.275845
_cell_angle_alpha  90.008914
_cell_angle_beta   90.019052
_cell_angle_gamma 90.004059
loop_
_atom_site_label
_atom_site_type_symbol
_atom_site_fract_x
_atom_site_fract_y
_atom_site_fract_z
_atom_type_partial_charge
Zn0 Zn 0.14734 0.36113 0.32718 0.0
C1 C 0.13143 0.31804 0.41796 0.0
N2 N 0.13907 0.33936 0.43667 0.0
C3 C 0.14321 0.35881 0.40871 0.0
N4 N 0.13842 0.34968 0.37446 0.0
N5 N 0.13084 0.32407 0.38053 0.0
C6 C 0.12913 0.24412 0.34308 0.0
O7 O 0.13952 0.26263 0.33509 0.0
O8 O 0.14707 0.4086 0.31833 0.0
Zn9 Zn 0.11766 0.30487 0.34711 0.0
N10 N 0.16594 0.34593 0.33256 0.0
C11 C 0.17998 0.30677 0.36178 0.0
C12 C 0.16715 0.31857 0.35293 0.0
C13 C 0.17717 0.36164 0.31958 0.0
N14 N 0.19115 0.32263 0.34958 0.0
C15 C 0.19018 0.34968 0.32849 0.0
O16 O 0.121 0.31231 0.29165 0.0
C17 C 0.12916 0.32519 0.26827 0.0
O18 O 0.13917 0.34209 0.27931 0.0
H19 H 0.15819 0.30625 0.36288 0.0
H20 H 0.176 0.38344 0.30351 0.0
C21 C 0.08811 0.30658 0.35993 0.0
C22 C 0.07617 0.32187 0.37254 0.0
C23 C 0.08893 0.36881 0.38482 0.0
C24 C 0.10068 0.35371 0.3723 0.0
N25 N 0.10013 0.32287 0.3606 0.0
N26 N 0.07702 0.35257 0.38482 0.0
H27 H 0.08793 0.28202 0.35059 0.0
C28 C 0.13597 0.42018 0.30589 0.0
O29 O 0.12538 0.40131 0.30239 0.0
O30 O 0.1179 0.25702 0.35232 0.0
H31 H 0.11024 0.36642 0.37228 0.0
H32 H 0.18106 0.28525 0.37838 0.0
H33 H 0.08926 0.39323 0.39458 0.0
Zn34 Zn 0.36393 0.64191 0.8272 0.0
C35 C 0.37798 0.68852 0.9178 0.0
N36 N 0.37018 0.66749 0.93643 0.0
C37 C 0.36677 0.64677 0.90899 0.0
N38 N 0.37215 0.65487 0.87505 0.0
N39 N 0.37939 0.68109 0.88087 0.0
C40 C 0.38222 0.76071 0.84249 0.0
O41 O 0.37179 0.74252 0.83383 0.0
O42 O 0.36446 0.59418 0.81925 0.0
Zn43 Zn 0.39307 0.69942 0.84824 0.0
N44 N 0.34523 0.65679 0.83048 0.0
C45 C 0.33091 0.6972 0.85597 0.0
C46 C 0.34382 0.68521 0.84858 0.0
C47 C 0.33413 0.64015 0.81832 0.0
N48 N 0.31986 0.68046 0.84461 0.0
C49 C 0.32104 0.65232 0.82574 0.0
O50 O 0.39008 0.69181 0.79266 0.0
C51 C 0.38225 0.67824 0.76893 0.0
O52 O 0.37239 0.66072 0.77959 0.0
H53 H 0.35269 0.69825 0.85786 0.0
H54 H 0.33546 0.61753 0.80404 0.0
C55 C 0.42248 0.69562 0.8641 0.0
C56 C 0.43398 0.67921 0.8778 0.0
C57 C 0.42044 0.63307 0.8873 0.0
C58 C 0.40911 0.64926 0.87375 0.0
N59 N 0.41025 0.68025 0.86296 0.0
N60 N 0.43254 0.64841 0.88919 0.0
H61 H 0.42317 0.72029 0.85537 0.0
C62 C 0.37564 0.58225 0.80782 0.0
O63 O 0.38631 0.60093 0.80473 0.0
O64 O 0.39325 0.74744 0.85291 0.0
H65 H 0.3994 0.63726 0.87223 0.0
H66 H 0.32967 0.71958 0.87079 0.0
H67 H 0.41963 0.60852 0.89636 0.0
Zn68 Zn 0.14667 0.63977 0.67827 0.0
C69 C 0.12967 0.68381 0.58889 0.0
N70 N 0.13692 0.66224 0.56942 0.0
C71 C 0.14159 0.64311 0.59703 0.0
N72 N 0.13747 0.65259 0.63179 0.0
N73 N 0.12983 0.67826 0.62649 0.0
C74 C 0.12843 0.75941 0.6635 0.0
O75 O 0.13911 0.74145 0.67026 0.0
O76 O 0.14591 0.59218 0.68639 0.0
Zn77 Zn 0.11741 0.69805 0.66177 0.0
N78 N 0.16542 0.65366 0.67212 0.0
C79 C 0.18009 0.69092 0.64184 0.0
C80 C 0.16708 0.68005 0.65021 0.0
C81 C 0.17637 0.63813 0.68709 0.0
N82 N 0.19099 0.67532 0.65626 0.0
C83 C 0.18959 0.64929 0.67895 0.0
O84 O 0.12208 0.69168 0.71662 0.0
C85 C 0.13013 0.67741 0.73911 0.0
O86 O 0.13936 0.65867 0.72715 0.0
H87 H 0.15834 0.69244 0.63894 0.0
H88 H 0.1748 0.6172 0.70445 0.0
C89 C 0.08762 0.69351 0.66186 0.0
C90 C 0.07541 0.67618 0.65807 0.0
C91 C 0.08797 0.63144 0.63635 0.0
C92 C 0.10001 0.64838 0.64074 0.0
N93 N 0.09966 0.67898 0.65343 0.0
N94 N 0.07601 0.64557 0.6454 0.0
H95 H 0.08761 0.71764 0.67269 0.0
C96 C 0.13488 0.58094 0.69967 0.0
O97 O 0.1245 0.60026 0.70455 0.0
O98 O 0.11719 0.74588 0.65563 0.0
H99 H 0.10961 0.63693 0.63474 0.0
H100 H 0.18153 0.71165 0.62407 0.0
H101 H 0.08812 0.60704 0.62646 0.0
Zn102 Zn 0.36542 0.36393 0.1829 0.0
C103 C 0.38135 0.32332 0.08994 0.0
N104 N 0.37408 0.34582 0.07209 0.0
C105 C 0.36969 0.36398 0.10094 0.0
N106 N 0.37405 0.35313 0.13494 0.0
N107 N 0.38148 0.32745 0.12782 0.0
C108 C 0.38253 0.24773 0.1712 0.0
O109 O 0.37294 0.26743 0.18232 0.0
O110 O 0.36532 0.41154 0.19181 0.0
Zn111 Zn 0.39474 0.30729 0.16045 0.0
N112 N 0.34694 0.34777 0.17885 0.0
C113 C 0.33293 0.30781 0.15113 0.0
C114 C 0.34573 0.32044 0.15842 0.0
C115 C 0.33574 0.36276 0.19316 0.0
N116 N 0.32178 0.32285 0.16486 0.0
C117 C 0.32273 0.34995 0.18591 0.0
O118 O 0.39252 0.31638 0.21602 0.0
C119 C 0.38462 0.32911 0.24021 0.0
O120 O 0.37424 0.34524 0.23018 0.0
H121 H 0.35467 0.30874 0.14733 0.0
H122 H 0.33695 0.38461 0.20912 0.0
C123 C 0.42429 0.30587 0.14698 0.0
C124 C 0.4364 0.31919 0.13249 0.0
C125 C 0.42417 0.36552 0.11432 0.0
C126 C 0.41227 0.35242 0.12877 0.0
N127 N 0.41246 0.32275 0.14427 0.0
N128 N 0.43588 0.34863 0.11637 0.0
H129 H 0.42422 0.28232 0.15949 0.0
C130 C 0.37641 0.42378 0.20345 0.0
O131 O 0.38722 0.40549 0.20622 0.0
O132 O 0.39343 0.25929 0.15739 0.0
H133 H 0.4029 0.3658 0.12738 0.0
H134 H 0.33184 0.28626 0.13458 0.0
H135 H 0.42411 0.38896 0.10155 0.0
Zn136 Zn 0.86449 0.64142 0.68296 0.0
C137 C 0.88114 0.68352 0.59162 0.0
N138 N 0.87405 0.66112 0.57304 0.0
C139 C 0.86946 0.64267 0.60138 0.0
N140 N 0.8735 0.65327 0.63577 0.0
N141 N 0.88096 0.67908 0.62946 0.0
C142 C 0.88272 0.75982 0.66995 0.0
O143 O 0.87243 0.74141 0.67922 0.0
O144 O 0.86502 0.59383 0.69165 0.0
Zn145 Zn 0.89378 0.69886 0.66374 0.0
N146 N 0.84582 0.65584 0.67725 0.0
C147 C 0.83131 0.69388 0.64776 0.0
C148 C 0.84428 0.68258 0.65591 0.0
C149 C 0.8348 0.64028 0.69178 0.0
N150 N 0.82035 0.67827 0.66174 0.0
C151 C 0.82163 0.65182 0.6838 0.0
O152 O 0.88989 0.69174 0.71886 0.0
C153 C 0.88192 0.67844 0.74237 0.0
O154 O 0.87219 0.66063 0.73143 0.0
H155 H 0.85308 0.69489 0.64488 0.0
H156 H 0.83629 0.619 0.70861 0.0
C157 C 0.92356 0.69477 0.66227 0.0
C158 C 0.9358 0.67783 0.65706 0.0
C159 C 0.92329 0.6339 0.63296 0.0
C160 C 0.91121 0.65042 0.63875 0.0
N161 N 0.91152 0.68043 0.65331 0.0
N162 N 0.93523 0.64781 0.64254 0.0
H163 H 0.92356 0.71838 0.67462 0.0
C164 C 0.87613 0.58228 0.70407 0.0
O165 O 0.88669 0.60125 0.70777 0.0
O166 O 0.89369 0.7468 0.65874 0.0
H167 H 0.90163 0.63903 0.63239 0.0
H168 H 0.82996 0.71492 0.63045 0.0
H169 H 0.92316 0.60996 0.62159 0.0
Zn170 Zn 0.61773 0.30663 0.16185 0.0
C171 C 0.64401 0.36067 0.10263 0.0
N172 N 0.64064 0.34036 0.0747 0.0
C173 C 0.63278 0.31912 0.09276 0.0
N174 N 0.6313 0.32604 0.12979 0.0
N175 N 0.63855 0.35211 0.13632 0.0
C176 C 0.63546 0.42358 0.2046 0.0
O177 O 0.62474 0.40505 0.2076 0.0
O178 O 0.61857 0.2586 0.15799 0.0
Zn179 Zn 0.64683 0.36391 0.18449 0.0
N180 N 0.60019 0.32306 0.14567 0.0
C181 C 0.58873 0.36641 0.11619 0.0
C182 C 0.60056 0.35283 0.1305 0.0
C183 C 0.58827 0.30652 0.14816 0.0
N184 N 0.57692 0.34985 0.11802 0.0
C185 C 0.57624 0.32029 0.13381 0.0
O186 O 0.63803 0.34501 0.2317 0.0
C187 C 0.6278 0.32837 0.24165 0.0
O188 O 0.62002 0.31529 0.21741 0.0
H189 H 0.61003 0.36586 0.12916 0.0
H190 H 0.58823 0.28286 0.16038 0.0
C191 C 0.67663 0.3646 0.19361 0.0
C192 C 0.68967 0.35219 0.18593 0.0
C193 C 0.67958 0.30799 0.15485 0.0
C194 C 0.66673 0.32025 0.16242 0.0
N195 N 0.66545 0.34843 0.18111 0.0
N196 N 0.69071 0.32428 0.16654 0.0
H197 H 0.67542 0.38707 0.20827 0.0
C198 C 0.62953 0.24625 0.17034 0.0
O199 O 0.63947 0.26526 0.18078 0.0
O200 O 0.64659 0.41156 0.193 0.0
H201 H 0.6578 0.30766 0.15272 0.0
H202 H 0.58892 0.38993 0.10366 0.0
H203 H 0.68071 0.28579 0.13958 0.0
Zn204 Zn 0.86518 0.36377 0.32815 0.0
C205 C 0.87943 0.31907 0.41988 0.0
N206 N 0.87146 0.34005 0.43801 0.0
C207 C 0.86793 0.36021 0.41009 0.0
N208 N 0.87339 0.35179 0.37636 0.0
N209 N 0.88082 0.32599 0.38283 0.0
C210 C 0.88275 0.24676 0.34269 0.0
O211 O 0.87275 0.26588 0.33302 0.0
O212 O 0.86542 0.41144 0.3198 0.0
Zn213 Zn 0.89449 0.30702 0.35073 0.0
N214 N 0.84656 0.34822 0.33105 0.0
C215 C 0.83229 0.30782 0.35678 0.0
C216 C 0.84517 0.32026 0.35013 0.0
C217 C 0.83545 0.36403 0.31739 0.0
N218 N 0.82124 0.32367 0.34375 0.0
C219 C 0.82236 0.35141 0.324 0.0
O220 O 0.89215 0.3156 0.29516 0.0
C221 C 0.88431 0.32855 0.27097 0.0
O222 O 0.87404 0.34503 0.28099 0.0
H223 H 0.85403 0.30792 0.36071 0.0
H224 H 0.83679 0.38634 0.30246 0.0
C225 C 0.92393 0.30774 0.36489 0.0
C226 C 0.93588 0.32209 0.37903 0.0
C227 C 0.92312 0.36809 0.39561 0.0
C228 C 0.91138 0.35395 0.38148 0.0
N229 N 0.91192 0.32398 0.36691 0.0
N230 N 0.93502 0.35186 0.39418 0.0
H231 H 0.92411 0.28391 0.35316 0.0
C232 C 0.87658 0.42353 0.30856 0.0
O233 O 0.88733 0.40505 0.30586 0.0
O234 O 0.89381 0.259 0.3545 0.0
H235 H 0.90184 0.36671 0.38245 0.0
H236 H 0.83107 0.28577 0.3723 0.0
H237 H 0.92279 0.39178 0.40764 0.0
Zn238 Zn 0.61782 0.69822 0.84946 0.0
C239 C 0.64385 0.64491 0.91038 0.0
N240 N 0.6404 0.66547 0.93793 0.0
C241 C 0.63266 0.68665 0.91934 0.0
N242 N 0.63134 0.67946 0.88232 0.0
N243 N 0.63856 0.65323 0.8764 0.0
C244 C 0.63537 0.58103 0.8085 0.0
O245 O 0.62471 0.5997 0.80506 0.0
O246 O 0.61773 0.74622 0.85446 0.0
Zn247 Zn 0.64696 0.64065 0.82865 0.0
N248 N 0.60056 0.6792 0.86354 0.0
C249 C 0.59017 0.63191 0.88693 0.0
C250 C 0.60157 0.64807 0.87386 0.0
C251 C 0.58836 0.69476 0.86471 0.0
N252 N 0.57811 0.64743 0.88886 0.0
C253 C 0.57679 0.67838 0.87794 0.0
O254 O 0.63864 0.65969 0.78095 0.0
C255 C 0.62883 0.67735 0.77023 0.0
O256 O 0.62097 0.69085 0.7939 0.0
H257 H 0.61125 0.63594 0.87232 0.0
H258 H 0.58777 0.71953 0.85636 0.0
C259 C 0.67677 0.63919 0.82029 0.0
C260 C 0.68984 0.65131 0.82817 0.0
C261 C 0.67988 0.69569 0.85918 0.0
C262 C 0.66699 0.68376 0.85131 0.0
N263 N 0.66563 0.65559 0.83262 0.0
N264 N 0.69096 0.67917 0.84765 0.0
H265 H 0.67549 0.61679 0.80551 0.0
C266 C 0.62879 0.7595 0.84436 0.0
O267 O 0.63924 0.74132 0.83586 0.0
O268 O 0.64649 0.59294 0.82038 0.0
H269 H 0.6581 0.69664 0.8607 0.0
H270 H 0.59089 0.60725 0.89562 0.0
H271 H 0.68107 0.71786 0.87448 0.0
Zn272 Zn 0.64748 0.86342 0.32799 0.0
C273 C 0.63157 0.82269 0.42094 0.0
N274 N 0.6389 0.84508 0.43882 0.0
C275 C 0.64331 0.86325 0.40999 0.0
N276 N 0.63889 0.85254 0.376 0.0
N277 N 0.63142 0.82692 0.38307 0.0
C278 C 0.62942 0.74696 0.34076 0.0
O279 O 0.63928 0.76591 0.32956 0.0
O280 O 0.64749 0.91104 0.31901 0.0
Zn281 Zn 0.61798 0.8074 0.35053 0.0
N282 N 0.66596 0.84739 0.3323 0.0
C283 C 0.67979 0.80709 0.36009 0.0
C284 C 0.66703 0.8196 0.3519 0.0
C285 C 0.67727 0.86291 0.31954 0.0
N286 N 0.69104 0.82274 0.34811 0.0
C287 C 0.69022 0.85025 0.32783 0.0
O288 O 0.62041 0.81591 0.29493 0.0
C289 C 0.62836 0.82838 0.27068 0.0
O290 O 0.63874 0.84451 0.28065 0.0
H291 H 0.658 0.80751 0.36178 0.0
H292 H 0.67622 0.88509 0.30416 0.0
C293 C 0.58855 0.80789 0.36604 0.0
C294 C 0.57677 0.82242 0.38079 0.0
C295 C 0.5895 0.8691 0.3943 0.0
C296 C 0.60111 0.85479 0.37967 0.0
N297 N 0.60052 0.82438 0.36641 0.0
N298 N 0.57766 0.85259 0.39472 0.0
H299 H 0.58828 0.78374 0.35529 0.0
C300 C 0.63635 0.92316 0.30756 0.0
O301 O 0.62557 0.90475 0.30501 0.0
O302 O 0.61865 0.75938 0.35424 0.0
H303 H 0.6106 0.86777 0.37926 0.0
H304 H 0.68075 0.7852 0.37606 0.0
H305 H 0.58988 0.89313 0.40535 0.0
Zn306 Zn 0.86494 0.14203 0.82797 0.0
C307 C 0.87876 0.18735 0.91972 0.0
N308 N 0.87077 0.16634 0.93776 0.0
C309 C 0.86742 0.14594 0.90991 0.0
N310 N 0.87301 0.15422 0.8763 0.0
N311 N 0.88033 0.18019 0.88279 0.0
C312 C 0.88261 0.25968 0.84258 0.0
O313 O 0.87259 0.24087 0.83223 0.0
O314 O 0.8653 0.09437 0.8196 0.0
Zn315 Zn 0.89407 0.19907 0.85091 0.0
N316 N 0.84628 0.15728 0.83081 0.0
C317 C 0.83203 0.19792 0.85611 0.0
C318 C 0.84492 0.18572 0.84889 0.0
C319 C 0.83514 0.14077 0.8186 0.0
N320 N 0.82094 0.18131 0.84471 0.0
C321 C 0.82208 0.15311 0.82593 0.0
O322 O 0.8918 0.19058 0.79533 0.0
C323 C 0.88404 0.17756 0.771 0.0
O324 O 0.87379 0.16091 0.78085 0.0
H325 H 0.85381 0.19856 0.85838 0.0
H326 H 0.83643 0.11809 0.80443 0.0
C327 C 0.92346 0.19817 0.86496 0.0
C328 C 0.9354 0.18396 0.87926 0.0
C329 C 0.92265 0.13812 0.89644 0.0
C330 C 0.91091 0.15213 0.88215 0.0
N331 N 0.91146 0.18197 0.86722 0.0
N332 N 0.93455 0.15433 0.8948 0.0
H333 H 0.92364 0.22189 0.85293 0.0
C334 C 0.87651 0.08236 0.80858 0.0
O335 O 0.88725 0.1009 0.80615 0.0
O336 O 0.89353 0.24709 0.85486 0.0
H337 H 0.90137 0.13939 0.88332 0.0
H338 H 0.83083 0.22032 0.87091 0.0
H339 H 0.92232 0.11454 0.90878 0.0
Zn340 Zn 0.64676 0.14105 0.68384 0.0
C341 C 0.63261 0.1866 0.59251 0.0
N342 N 0.64062 0.16579 0.57426 0.0
C343 C 0.64406 0.14532 0.60194 0.0
N344 N 0.63851 0.1534 0.63569 0.0
N345 N 0.6311 0.17927 0.62942 0.0
C346 C 0.62874 0.2587 0.66811 0.0
O347 O 0.63902 0.23998 0.67657 0.0
O348 O 0.6463 0.09336 0.69228 0.0
Zn349 Zn 0.61741 0.19793 0.66181 0.0
N350 N 0.66545 0.15608 0.68066 0.0
C351 C 0.67985 0.19614 0.65478 0.0
C352 C 0.66693 0.18401 0.66156 0.0
C353 C 0.6765 0.14006 0.69431 0.0
N354 N 0.69085 0.18008 0.6678 0.0
C355 C 0.68963 0.1524 0.68763 0.0
O356 O 0.62029 0.19011 0.71724 0.0
C357 C 0.6281 0.17707 0.74139 0.0
O358 O 0.6382 0.16005 0.73131 0.0
H359 H 0.65811 0.19659 0.65111 0.0
H360 H 0.67509 0.11782 0.70934 0.0
C361 C 0.58774 0.19244 0.65859 0.0
C362 C 0.57565 0.17575 0.65045 0.0
C363 C 0.58857 0.13527 0.62026 0.0
C364 C 0.60051 0.15147 0.62894 0.0
N365 N 0.59992 0.17966 0.64791 0.0
N366 N 0.57649 0.14757 0.63147 0.0
H367 H 0.58753 0.21452 0.67445 0.0
C368 C 0.63508 0.08141 0.70335 0.0
O369 O 0.62436 0.10001 0.70574 0.0
O370 O 0.61761 0.24599 0.65755 0.0
H371 H 0.61019 0.14126 0.62113 0.0
H372 H 0.68116 0.21814 0.63923 0.0
H373 H 0.58891 0.11278 0.6053 0.0
Zn374 Zn 0.86549 0.86428 0.18326 0.0
C375 C 0.88229 0.82293 0.09187 0.0
N376 N 0.87523 0.84543 0.07338 0.0
C377 C 0.87061 0.86376 0.10179 0.0
N378 N 0.87459 0.85298 0.13614 0.0
N379 N 0.88204 0.82718 0.12975 0.0
C380 C 0.8832 0.74668 0.17182 0.0
O381 O 0.87316 0.76558 0.18182 0.0
O382 O 0.86557 0.91189 0.19189 0.0
Zn383 Zn 0.89488 0.80711 0.1638 0.0
N384 N 0.84695 0.84878 0.17772 0.0
C385 C 0.83282 0.81 0.14814 0.0
C386 C 0.84568 0.822 0.1563 0.0
C387 C 0.83579 0.86372 0.19229 0.0
N388 N 0.82171 0.82501 0.16214 0.0
C389 C 0.82273 0.85149 0.18425 0.0
O390 O 0.89158 0.81529 0.21916 0.0
C391 C 0.88353 0.82853 0.24254 0.0
O392 O 0.87358 0.84558 0.23144 0.0
H393 H 0.85459 0.81021 0.14519 0.0
H394 H 0.83706 0.88506 0.20914 0.0
C395 C 0.9246 0.80718 0.15279 0.0
C396 C 0.93674 0.82161 0.14029 0.0
C397 C 0.92445 0.86862 0.12521 0.0
C398 C 0.91249 0.85437 0.1376 0.0
N399 N 0.9127 0.82387 0.15059 0.0
N400 N 0.93623 0.85192 0.12663 0.0
H401 H 0.92454 0.78293 0.16326 0.0
C402 C 0.8766 0.92398 0.20414 0.0
O403 O 0.88732 0.90552 0.2077 0.0
O404 O 0.89416 0.75914 0.15964 0.0
H405 H 0.90305 0.86751 0.13655 0.0
H406 H 0.83168 0.78892 0.13078 0.0
H407 H 0.92439 0.89275 0.11443 0.0
Zn408 Zn 0.36424 0.14207 0.68177 0.0
C409 C 0.37906 0.18785 0.59128 0.0
N410 N 0.37125 0.1669 0.57254 0.0
C411 C 0.36756 0.14654 0.60007 0.0
N412 N 0.37278 0.15478 0.63417 0.0
N413 N 0.3802 0.18071 0.62836 0.0
C414 C 0.38249 0.26036 0.66638 0.0
O415 O 0.37203 0.24189 0.6739 0.0
O416 O 0.36484 0.09439 0.69006 0.0
Zn417 Zn 0.39361 0.19936 0.66168 0.0
N418 N 0.34552 0.15668 0.67742 0.0
C419 C 0.33119 0.19626 0.65012 0.0
C420 C 0.3441 0.1846 0.65824 0.0
C421 C 0.33441 0.14029 0.69 0.0
N422 N 0.32013 0.17974 0.66189 0.0
C423 C 0.32131 0.15214 0.68185 0.0
O424 O 0.3901 0.19207 0.71699 0.0
C425 C 0.38218 0.17871 0.74059 0.0
O426 O 0.37237 0.16109 0.72978 0.0
H427 H 0.35297 0.19749 0.64869 0.0
H428 H 0.33573 0.1181 0.70519 0.0
C429 C 0.42333 0.19329 0.65981 0.0
C430 C 0.43539 0.17612 0.65263 0.0
C431 C 0.42239 0.13505 0.6238 0.0
C432 C 0.4105 0.15175 0.63151 0.0
N433 N 0.41113 0.18046 0.64934 0.0
N434 N 0.43449 0.14743 0.63479 0.0
H435 H 0.42358 0.21582 0.67472 0.0
C436 C 0.37603 0.08266 0.70165 0.0
O437 O 0.38666 0.10148 0.70466 0.0
O438 O 0.39368 0.24737 0.65694 0.0
H439 H 0.40081 0.14151 0.62386 0.0
H440 H 0.32995 0.21822 0.63443 0.0
H441 H 0.42201 0.11215 0.60976 0.0
Zn442 Zn 0.14597 0.86127 0.18594 0.0
C443 C 0.13714 0.81401 0.09319 0.0
N444 N 0.14517 0.83641 0.07777 0.0
C445 C 0.14591 0.85841 0.10528 0.0
N446 N 0.13885 0.84974 0.13642 0.0
N447 N 0.133 0.82205 0.12843 0.0
C448 C 0.12991 0.74251 0.16819 0.0
O449 O 0.13925 0.76175 0.18177 0.0
O450 O 0.14584 0.90884 0.19462 0.0
Zn451 Zn 0.11837 0.8025 0.15707 0.0
N452 N 0.16458 0.84541 0.18601 0.0
C453 C 0.179 0.80355 0.16461 0.0
C454 C 0.16609 0.81636 0.16947 0.0
C455 C 0.17559 0.86206 0.19879 0.0
N456 N 0.18997 0.82021 0.17671 0.0
C457 C 0.18872 0.84911 0.19388 0.0
O458 O 0.11905 0.81061 0.21335 0.0
C459 C 0.12596 0.82446 0.23901 0.0
O460 O 0.13608 0.84214 0.23097 0.0
H461 H 0.15731 0.8035 0.15937 0.0
H462 H 0.17418 0.88527 0.21157 0.0
C463 C 0.089 0.80407 0.14309 0.0
C464 C 0.07716 0.81707 0.1266 0.0
C465 C 0.09042 0.85903 0.1006 0.0
C466 C 0.10206 0.8462 0.11696 0.0
N467 N 0.10121 0.81883 0.13747 0.0
N468 N 0.07833 0.84418 0.10566 0.0
H469 H 0.0886 0.78228 0.15946 0.0
C470 C 0.1347 0.9214 0.20523 0.0
O471 O 0.12378 0.90343 0.20724 0.0
O472 O 0.11937 0.75459 0.153 0.0
H473 H 0.11173 0.85793 0.11302 0.0
H474 H 0.18032 0.78062 0.15109 0.0
H475 H 0.09099 0.88063 0.08394 0.0
Zn476 Zn 0.36419 0.8642 0.32711 0.0
C477 C 0.38012 0.82311 0.41982 0.0
N478 N 0.37286 0.84557 0.43778 0.0
C479 C 0.36845 0.8638 0.40901 0.0
N480 N 0.37281 0.85306 0.37498 0.0
N481 N 0.38023 0.82734 0.38195 0.0
C482 C 0.3821 0.74726 0.33956 0.0
O483 O 0.37222 0.76619 0.32848 0.0
O484 O 0.36428 0.91183 0.31834 0.0
Zn485 Zn 0.39357 0.80773 0.34923 0.0
N486 N 0.34566 0.8486 0.33163 0.0
C487 C 0.33167 0.80864 0.35943 0.0
C488 C 0.34449 0.82072 0.35101 0.0
C489 C 0.33442 0.86461 0.31932 0.0
N490 N 0.32047 0.8248 0.3479 0.0
C491 C 0.32143 0.85241 0.32786 0.0
O492 O 0.39103 0.81629 0.29368 0.0
C493 C 0.38309 0.82893 0.26952 0.0
O494 O 0.37278 0.84525 0.27961 0.0
H495 H 0.35347 0.80826 0.36056 0.0
H496 H 0.33557 0.88686 0.30413 0.0
C497 C 0.42301 0.8081 0.36473 0.0
C498 C 0.43481 0.82272 0.37922 0.0
C499 C 0.42217 0.86968 0.39185 0.0
C500 C 0.41053 0.85528 0.37749 0.0
N501 N 0.41107 0.8247 0.36479 0.0
N502 N 0.43398 0.85308 0.39258 0.0
H503 H 0.42323 0.78381 0.35444 0.0
C504 C 0.37532 0.92396 0.30628 0.0
O505 O 0.38606 0.90553 0.30284 0.0
O506 O 0.39289 0.7597 0.35293 0.0
H507 H 0.40106 0.86833 0.37685 0.0
H508 H 0.33061 0.7867 0.37524 0.0
H509 H 0.42183 0.89386 0.40245 0.0
Zn510 Zn 0.11682 0.19809 0.84814 0.0
C511 C 0.14264 0.14245 0.90613 0.0
N512 N 0.13877 0.16132 0.93494 0.0
C513 C 0.13137 0.18369 0.91731 0.0
N514 N 0.13057 0.17868 0.87966 0.0
N515 N 0.13776 0.15267 0.87241 0.0
C516 C 0.13469 0.08137 0.80422 0.0
O517 O 0.12384 0.09959 0.80237 0.0
O518 O 0.11775 0.24607 0.85139 0.0
Zn519 Zn 0.1459 0.14129 0.82397 0.0
N520 N 0.09941 0.18187 0.86565 0.0
C521 C 0.08823 0.13895 0.8968 0.0
C522 C 0.09993 0.15238 0.88157 0.0
C523 C 0.08745 0.19826 0.86336 0.0
N524 N 0.07638 0.15535 0.89511 0.0
C525 C 0.07554 0.18462 0.87863 0.0
O526 O 0.13671 0.15994 0.7773 0.0
C527 C 0.12631 0.17622 0.76785 0.0
O528 O 0.11863 0.18912 0.79245 0.0
H529 H 0.10941 0.1394 0.8827 0.0
H530 H 0.08729 0.22169 0.85055 0.0
C531 C 0.17559 0.14167 0.81314 0.0
C532 C 0.18863 0.15467 0.81956 0.0
C533 C 0.17852 0.1984 0.85165 0.0
C534 C 0.16569 0.18555 0.84524 0.0
N535 N 0.16443 0.15737 0.82656 0.0
N536 N 0.18964 0.18267 0.83886 0.0
H537 H 0.17435 0.11915 0.7986 0.0
C538 C 0.12843 0.25812 0.83691 0.0
O539 O 0.13804 0.23885 0.82489 0.0
O540 O 0.14587 0.09364 0.8151 0.0
H541 H 0.15677 0.19775 0.8557 0.0
H542 H 0.08854 0.11565 0.90989 0.0
H543 H 0.17965 0.22064 0.86683 0.0
C544 C 0.11582 0.20279 0.96728 0.0
C545 C 0.12509 0.21 0.93836 0.0
C546 C 0.11345 0.22452 0.99655 0.0
C547 C 0.13335 0.28256 0.04859 0.0
H548 H 0.10048 0.29175 0.10819 0.0
C549 C 0.13487 0.33571 0.19977 0.0
C550 C 0.12705 0.31957 0.22709 0.0
C551 C 0.13311 0.32937 0.16107 0.0
C552 C 0.10977 0.28932 0.09197 0.0
H553 H 0.13862 0.24591 0.91583 0.0
H554 H 0.13439 0.2843 0.96682 0.0
H555 H 0.09918 0.26945 0.04434 0.0
H556 H 0.11109 0.28441 0.23487 0.0
H557 H 0.1083 0.27286 0.16793 0.0
H558 H 0.14408 0.30071 0.09666 0.0
C559 C 0.1289 0.26193 0.96688 0.0
C560 C 0.10899 0.27673 0.05528 0.0
C561 C 0.13116 0.24022 0.93739 0.0
C562 C 0.11728 0.2974 0.21471 0.0
C563 C 0.11558 0.29096 0.17614 0.0
C564 C 0.13414 0.29494 0.08532 0.0
C565 C 0.12053 0.25366 0.99773 0.0
C566 C 0.12083 0.27243 0.03353 0.0
C567 C 0.12355 0.30663 0.14876 0.0
C568 C 0.12241 0.29766 0.10792 0.0
H569 H 0.11126 0.17932 0.96889 0.0
H570 H 0.10704 0.21724 0.01995 0.0
H571 H 0.14271 0.27912 0.03289 0.0
H572 H 0.14241 0.35314 0.20824 0.0
H573 H 0.13931 0.34222 0.14081 0.0
C574 C 0.39564 0.80376 0.46979 0.0
C575 C 0.38643 0.79669 0.44065 0.0
C576 C 0.39802 0.7818 0.49882 0.0
C577 C 0.37826 0.72282 0.54986 0.0
H578 H 0.41112 0.71365 0.60959 0.0
C579 C 0.37681 0.66793 0.70017 0.0
C580 C 0.3845 0.68403 0.72783 0.0
C581 C 0.3786 0.67467 0.66158 0.0
C582 C 0.40184 0.71606 0.59333 0.0
H583 H 0.37297 0.76084 0.41764 0.0
H584 H 0.37725 0.72204 0.46811 0.0
H585 H 0.41239 0.73672 0.54613 0.0
H586 H 0.4003 0.7195 0.73629 0.0
H587 H 0.40316 0.73169 0.66956 0.0
H588 H 0.36757 0.70384 0.59753 0.0
C589 C 0.3827 0.74447 0.46852 0.0
C590 C 0.40259 0.72911 0.55686 0.0
C591 C 0.38042 0.76641 0.43928 0.0
C592 C 0.39421 0.70652 0.71587 0.0
C593 C 0.39594 0.71335 0.67741 0.0
C594 C 0.37749 0.70997 0.58637 0.0
C595 C 0.39102 0.75257 0.49955 0.0
C596 C 0.39076 0.73341 0.53508 0.0
C597 C 0.38808 0.69777 0.64971 0.0
C598 C 0.38921 0.70724 0.60903 0.0
H599 H 0.40016 0.82726 0.47173 0.0
H600 H 0.4044 0.78896 0.52237 0.0
H601 H 0.36891 0.72624 0.53414 0.0
H602 H 0.36932 0.65029 0.7083 0.0
H603 H 0.37248 0.6619 0.64106 0.0
C604 C 0.12053 0.77545 0.06429 0.0
C605 C 0.13395 0.78455 0.07233 0.0
C606 C 0.11789 0.75347 0.03515 0.0
C607 C 0.11557 0.73309 0.95273 0.0
H608 H 0.14301 0.67442 0.91612 0.0
C609 C 0.12297 0.71165 0.79355 0.0
C610 C 0.12866 0.68305 0.78036 0.0
C611 C 0.12169 0.71745 0.83238 0.0
C612 C 0.13503 0.69017 0.92586 0.0
H613 H 0.15511 0.77627 0.05884 0.0
H614 H 0.15068 0.73886 0.00835 0.0
H615 H 0.14355 0.69175 0.98155 0.0
H616 H 0.13705 0.63755 0.79749 0.0
H617 H 0.13429 0.64694 0.86531 0.0
H618 H 0.10679 0.73075 0.89741 0.0
C619 C 0.14208 0.74778 0.02426 0.0
C620 C 0.13547 0.70055 0.96352 0.0
C621 C 0.14466 0.76948 0.05322 0.0
C622 C 0.13278 0.66001 0.80686 0.0
C623 C 0.13123 0.66551 0.84581 0.0
C624 C 0.11495 0.72215 0.9153 0.0
C625 C 0.12865 0.74049 0.01355 0.0
C626 C 0.12615 0.72339 0.97699 0.0
C627 C 0.12578 0.69449 0.85922 0.0
C628 C 0.12505 0.70171 0.90075 0.0
H629 H 0.1121 0.78701 0.0783 0.0
H630 H 0.10742 0.74799 0.02826 0.0
H631 H 0.10818 0.75063 0.96177 0.0
H632 H 0.11979 0.72999 0.77382 0.0
H633 H 0.1178 0.7404 0.8412 0.0
C634 C 0.37677 0.24087 0.56223 0.0
C635 C 0.3852 0.21519 0.57188 0.0
C636 C 0.38016 0.26085 0.53197 0.0
C637 C 0.39807 0.25218 0.44163 0.0
H638 H 0.38568 0.33876 0.42495 0.0
C639 C 0.39917 0.30731 0.2926 0.0
C640 C 0.3873 0.3234 0.28114 0.0
C641 C 0.40127 0.29946 0.33065 0.0
C642 C 0.38916 0.31454 0.42916 0.0
H643 H 0.4042 0.19139 0.55984 0.0
H644 H 0.41048 0.22698 0.50775 0.0
H645 H 0.38619 0.31712 0.48931 0.0
H646 H 0.36858 0.34495 0.30124 0.0
H647 H 0.37215 0.33075 0.3676 0.0
H648 H 0.40062 0.24908 0.38164 0.0
C649 C 0.40113 0.23152 0.52304 0.0
C650 C 0.3895 0.30216 0.46606 0.0
C651 C 0.39768 0.21146 0.55326 0.0
C652 C 0.37783 0.33251 0.30899 0.0
C653 C 0.37992 0.32454 0.34713 0.0
C654 C 0.39776 0.26454 0.40489 0.0
C655 C 0.39203 0.2553 0.51062 0.0
C656 C 0.3937 0.27057 0.47269 0.0
C657 C 0.39154 0.30735 0.35832 0.0
C658 C 0.39306 0.29566 0.39803 0.0
H659 H 0.36696 0.24369 0.5758 0.0
H660 H 0.37285 0.27869 0.52325 0.0
H661 H 0.40106 0.22755 0.44531 0.0
H662 H 0.40678 0.3002 0.27208 0.0
H663 H 0.41045 0.28674 0.33831 0.0
C664 C 0.87608 0.66903 0.81112 0.0
C665 C 0.88399 0.68454 0.7835 0.0
C666 C 0.87793 0.6757 0.84973 0.0
C667 C 0.90191 0.7147 0.91792 0.0
H668 H 0.86935 0.72756 0.97787 0.0
C669 C 0.89764 0.80208 0.0424 0.0
C670 C 0.88831 0.79587 0.07152 0.0
C671 C 0.89957 0.78002 0.01321 0.0
C672 C 0.8786 0.72337 0.96194 0.0
H673 H 0.90021 0.719 0.77515 0.0
H674 H 0.90319 0.731 0.84187 0.0
H675 H 0.86746 0.70568 0.9143 0.0
H676 H 0.87419 0.76135 0.0943 0.0
H677 H 0.87772 0.72234 0.04364 0.0
H678 H 0.91295 0.734 0.96509 0.0
C679 C 0.89574 0.71319 0.83397 0.0
C680 C 0.8775 0.71083 0.92532 0.0
C681 C 0.89393 0.70648 0.79552 0.0
C682 C 0.88175 0.76621 0.07274 0.0
C683 C 0.88359 0.74418 0.04335 0.0
C684 C 0.90299 0.72741 0.9545 0.0
C685 C 0.88772 0.69807 0.86165 0.0
C686 C 0.8891 0.70718 0.90239 0.0
C687 C 0.89201 0.75156 0.01229 0.0
C688 C 0.89131 0.73267 0.97657 0.0
H689 H 0.86839 0.65185 0.80294 0.0
H690 H 0.87166 0.66334 0.87024 0.0
H691 H 0.9111 0.71153 0.90144 0.0
H692 H 0.90256 0.82514 0.04051 0.0
H693 H 0.90605 0.78665 0.98966 0.0
C694 C 0.63523 0.23942 0.56316 0.0
C695 C 0.62665 0.21403 0.57286 0.0
C696 C 0.63192 0.25957 0.533 0.0
C697 C 0.61391 0.25161 0.44283 0.0
H698 H 0.62668 0.33791 0.42637 0.0
C699 C 0.61316 0.30676 0.29389 0.0
C700 C 0.62509 0.32264 0.28254 0.0
C701 C 0.611 0.29897 0.33191 0.0
C702 C 0.62309 0.31377 0.43051 0.0
H703 H 0.60748 0.19091 0.56094 0.0
H704 H 0.60136 0.22678 0.50899 0.0
H705 H 0.62607 0.31618 0.49068 0.0
H706 H 0.64385 0.34389 0.30277 0.0
H707 H 0.64018 0.32976 0.36911 0.0
H708 H 0.61137 0.24863 0.38283 0.0
C709 C 0.61076 0.23098 0.52422 0.0
C710 C 0.6227 0.30134 0.46738 0.0
C711 C 0.61412 0.21075 0.55435 0.0
C712 C 0.63456 0.33161 0.31046 0.0
C713 C 0.63241 0.32368 0.34858 0.0
C714 C 0.61429 0.264 0.40612 0.0
C715 C 0.61998 0.25447 0.51179 0.0
C716 C 0.61836 0.26985 0.47392 0.0
C717 C 0.62072 0.3067 0.35966 0.0
C718 C 0.61913 0.29501 0.39934 0.0
H719 H 0.64508 0.2419 0.57667 0.0
H720 H 0.63933 0.27718 0.52424 0.0
H721 H 0.61081 0.22704 0.44647 0.0
H722 H 0.60554 0.29979 0.2733 0.0
H723 H 0.60176 0.28643 0.33949 0.0
C724 C 0.89889 0.30696 0.21858 0.0
C725 C 0.88698 0.32285 0.23006 0.0
C726 C 0.90101 0.2992 0.18052 0.0
C727 C 0.88877 0.31414 0.08208 0.0
H728 H 0.90098 0.22741 0.06574 0.0
C729 C 0.87617 0.23994 0.94971 0.0
C730 C 0.88473 0.21463 0.93963 0.0
C731 C 0.87959 0.26001 0.97986 0.0
C732 C 0.8979 0.25198 0.06948 0.0
H733 H 0.8682 0.34413 0.21002 0.0
H734 H 0.87179 0.33005 0.14364 0.0
H735 H 0.90058 0.24894 0.12943 0.0
H736 H 0.90395 0.19152 0.9509 0.0
H737 H 0.91025 0.22724 1.00287 0.0
H738 H 0.88564 0.31661 0.02198 0.0
C739 C 0.87958 0.32395 0.16409 0.0
C740 C 0.89762 0.26434 0.10622 0.0
C741 C 0.87748 0.33185 0.20223 0.0
C742 C 0.89733 0.21131 0.95778 0.0
C743 C 0.90079 0.23145 0.98793 0.0
C744 C 0.88907 0.30175 0.04519 0.0
C745 C 0.89126 0.30697 0.15287 0.0
C746 C 0.89279 0.29534 0.11315 0.0
C747 C 0.8916 0.2549 1.00069 0.0
C748 C 0.89337 0.27025 0.03852 0.0
H749 H 0.90653 0.29996 0.2391 0.0
H750 H 0.91024 0.28666 0.17283 0.0
H751 H 0.8852 0.33829 0.08633 0.0
H752 H 0.86628 0.24245 0.93647 0.0
H753 H 0.8722 0.27758 0.98889 0.0
C754 C 0.63117 0.76605 0.4406 0.0
C755 C 0.62521 0.79638 0.44186 0.0
C756 C 0.62885 0.7442 0.4699 0.0
C757 C 0.60888 0.72912 0.55812 0.0
H758 H 0.64381 0.7034 0.59904 0.0
C759 C 0.61703 0.706 0.71715 0.0
C760 C 0.62667 0.68335 0.72912 0.0
C761 C 0.61537 0.713 0.67871 0.0
C762 C 0.63391 0.70966 0.58781 0.0
H763 H 0.61153 0.82715 0.47281 0.0
H764 H 0.60721 0.78899 0.52354 0.0
H765 H 0.64257 0.72588 0.53567 0.0
H766 H 0.64182 0.64953 0.70962 0.0
H767 H 0.63878 0.66143 0.6424 0.0
H768 H 0.60027 0.71368 0.61074 0.0
C769 C 0.61359 0.78172 0.50004 0.0
C770 C 0.6332 0.72255 0.55131 0.0
C771 C 0.61601 0.8036 0.47095 0.0
C772 C 0.63437 0.66728 0.70148 0.0
C773 C 0.63266 0.6742 0.6629 0.0
C774 C 0.60958 0.71602 0.59457 0.0
C775 C 0.62054 0.75243 0.50088 0.0
C776 C 0.62074 0.73329 0.53643 0.0
C777 C 0.62324 0.69743 0.65102 0.0
C778 C 0.62217 0.70702 0.61036 0.0
H779 H 0.63861 0.76036 0.41899 0.0
H780 H 0.63426 0.72171 0.46957 0.0
H781 H 0.59911 0.73684 0.54732 0.0
H782 H 0.61093 0.71895 0.73756 0.0
H783 H 0.6082 0.73144 0.67086 0.0
C784 C 0.63518 0.83123 0.20186 0.0
C785 C 0.62568 0.82246 0.22979 0.0
C786 C 0.63303 0.82321 0.16375 0.0
C787 C 0.61475 0.76377 0.10606 0.0
H788 H 0.62653 0.81603 0.02162 0.0
C789 C 0.61423 0.71099 0.95743 0.0
C790 C 0.62674 0.71421 0.93883 0.0
C791 C 0.61095 0.73113 0.98776 0.0
C792 C 0.62316 0.80116 0.04488 0.0
H793 H 0.6061 0.79976 0.239 0.0
H794 H 0.60232 0.78624 0.17283 0.0
H795 H 0.62729 0.83757 0.08601 0.0
H796 H 0.6452 0.74192 0.93496 0.0
H797 H 0.6396 0.77707 0.98762 0.0
H798 H 0.61111 0.72698 0.06556 0.0
C799 C 0.61157 0.79872 0.18041 0.0
C800 C 0.62364 0.81348 0.08181 0.0
C801 C 0.61373 0.80661 0.21842 0.0
C802 C 0.63537 0.7395 0.94855 0.0
C803 C 0.63214 0.75956 0.97887 0.0
C804 C 0.61428 0.75149 0.06928 0.0
C805 C 0.62131 0.80631 0.15266 0.0
C806 C 0.61967 0.7947 0.11294 0.0
C807 C 0.62025 0.75448 1.00023 0.0
C808 C 0.61873 0.76975 0.03822 0.0
H809 H 0.64448 0.84347 0.20954 0.0
H810 H 0.64081 0.82919 0.14323 0.0
H811 H 0.61182 0.74838 0.1293 0.0
H812 H 0.60754 0.69125 0.95074 0.0
H813 H 0.60157 0.72696 1.00307 0.0
C814 C 0.87738 0.17426 0.70211 0.0
C815 C 0.88679 0.18334 0.73015 0.0
C816 C 0.87958 0.18222 0.66402 0.0
C817 C 0.89761 0.24218 0.60674 0.0
H818 H 0.88622 0.18974 0.522 0.0
C819 C 0.8979 0.29544 0.45853 0.0
C820 C 0.88544 0.29181 0.43974 0.0
C821 C 0.90128 0.2753 0.48873 0.0
C822 C 0.88948 0.20465 0.54534 0.0
H823 H 0.90627 0.20645 0.73964 0.0
H824 H 0.91012 0.21989 0.67349 0.0
H825 H 0.88553 0.16802 0.58631 0.0
H826 H 0.86717 0.26344 0.43548 0.0
H827 H 0.87293 0.22834 0.48807 0.0
H828 H 0.90105 0.2792 0.56645 0.0
C829 C 0.9009 0.20722 0.68096 0.0
C830 C 0.88904 0.19223 0.58221 0.0
C831 C 0.8987 0.19939 0.71895 0.0
C832 C 0.87696 0.26619 0.44923 0.0
C833 C 0.88028 0.24615 0.47948 0.0
C834 C 0.89803 0.25457 0.57003 0.0
C835 C 0.89124 0.19937 0.65309 0.0
C836 C 0.89287 0.21108 0.61344 0.0
C837 C 0.89213 0.25157 0.50096 0.0
C838 C 0.89372 0.23623 0.53886 0.0
H839 H 0.86811 0.16185 0.70968 0.0
H840 H 0.87186 0.17604 0.64338 0.0
H841 H 0.90043 0.25761 0.63007 0.0
H842 H 0.90446 0.31545 0.45206 0.0
H843 H 0.91062 0.27974 0.50414 0.0
C844 C 0.61362 0.19901 0.79373 0.0
C845 C 0.62552 0.18307 0.78227 0.0
C846 C 0.61152 0.20689 0.83175 0.0
C847 C 0.6237 0.19214 0.93022 0.0
H848 H 0.61131 0.27877 0.94628 0.0
C849 C 0.63557 0.26642 0.06319 0.0
C850 C 0.62693 0.29169 0.07286 0.0
C851 C 0.63234 0.2463 0.03293 0.0
C852 C 0.61444 0.25423 0.94261 0.0
H853 H 0.64432 0.16187 0.80231 0.0
H854 H 0.64076 0.17618 0.86867 0.0
H855 H 0.61194 0.25726 0.88262 0.0
H856 H 0.60773 0.31463 0.06082 0.0
H857 H 0.60174 0.27878 0.0087 0.0
H858 H 0.62664 0.18968 0.99041 0.0
C859 C 0.63296 0.18222 0.84822 0.0
C860 C 0.61486 0.24188 0.90589 0.0
C861 C 0.63505 0.17419 0.81009 0.0
C862 C 0.61442 0.29488 0.05423 0.0
C863 C 0.61113 0.27466 0.02401 0.0
C864 C 0.62327 0.20452 0.96712 0.0
C865 C 0.62128 0.19921 0.8594 0.0
C866 C 0.61972 0.2109 0.89907 0.0
C867 C 0.62043 0.2513 0.01161 0.0
C868 C 0.61888 0.23597 0.9737 0.0
H869 H 0.60596 0.20589 0.77322 0.0
H870 H 0.60229 0.21942 0.8394 0.0
H871 H 0.62731 0.16801 0.92605 0.0
H872 H 0.6454 0.26402 0.07681 0.0
H873 H 0.6398 0.22878 0.0242 0.0
C874 C 0.87755 0.83834 0.31106 0.0
C875 C 0.8856 0.82283 0.28374 0.0
C876 C 0.87918 0.83163 0.34971 0.0
C877 C 0.90252 0.79182 0.41903 0.0
H878 H 0.86939 0.77926 0.47664 0.0
C879 C 0.89683 0.70404 0.54277 0.0
C880 C 0.88732 0.71043 0.57136 0.0
C881 C 0.89908 0.72608 0.51374 0.0
C882 C 0.87879 0.78336 0.46137 0.0
H883 H 0.90188 0.78847 0.27599 0.0
H884 H 0.90448 0.77634 0.34282 0.0
H885 H 0.86814 0.80152 0.41317 0.0
H886 H 0.87313 0.74519 0.59329 0.0
H887 H 0.87721 0.78417 0.54295 0.0
H888 H 0.91306 0.772 0.46677 0.0
C889 C 0.89709 0.79419 0.33465 0.0
C890 C 0.87807 0.79612 0.42481 0.0
C891 C 0.8955 0.80098 0.29613 0.0
C892 C 0.88084 0.74019 0.57219 0.0
C893 C 0.883 0.76221 0.54297 0.0
C894 C 0.90323 0.77886 0.45555 0.0
C895 C 0.88887 0.80917 0.362 0.0
C896 C 0.88988 0.79972 0.40272 0.0
C897 C 0.89165 0.75471 0.51244 0.0
C898 C 0.89133 0.77372 0.47679 0.0
H899 H 0.86989 0.85547 0.3026 0.0
H900 H 0.87278 0.84394 0.36996 0.0
H901 H 0.91186 0.79491 0.40321 0.0
H902 H 0.90169 0.68089 0.54116 0.0
H903 H 0.90572 0.71935 0.49057 0.0
C904 C 0.39665 0.30361 0.03968 0.0
C905 C 0.38751 0.29675 0.06904 0.0
C906 C 0.39884 0.28159 0.0106 0.0
C907 C 0.37866 0.22319 0.95997 0.0
H908 H 0.4113 0.21315 0.89958 0.0
C909 C 0.37661 0.16871 0.80935 0.0
C910 C 0.38436 0.18463 0.7817 0.0
C911 C 0.37846 0.17536 0.84795 0.0
C912 C 0.40207 0.2158 0.91603 0.0
H913 H 0.37399 0.26119 0.09241 0.0
H914 H 0.37794 0.2223 0.04183 0.0
H915 H 0.41287 0.23604 0.96308 0.0
H916 H 0.40029 0.21976 0.77325 0.0
H917 H 0.40326 0.2318 0.83995 0.0
H918 H 0.36773 0.20466 0.91243 0.0
C919 C 0.38348 0.2446 0.04129 0.0
C920 C 0.403 0.22875 0.95252 0.0
C921 C 0.38139 0.26659 0.07059 0.0
C922 C 0.39415 0.20692 0.79365 0.0
C923 C 0.39595 0.21366 0.83211 0.0
C924 C 0.37772 0.21045 0.92342 0.0
C925 C 0.39172 0.25251 0.01005 0.0
C926 C 0.39125 0.23337 0.97453 0.0
C927 C 0.38807 0.19818 0.85982 0.0
C928 C 0.38936 0.20744 0.90053 0.0
H929 H 0.40124 0.32702 0.0376 0.0
H930 H 0.40517 0.2886 0.98689 0.0
H931 H 0.36937 0.22686 0.97588 0.0
H932 H 0.36904 0.15123 0.80121 0.0
H933 H 0.37232 0.1627 0.86848 0.0
C934 C 0.13047 0.73782 0.56167 0.0
C935 C 0.12287 0.71037 0.56967 0.0
C936 C 0.1269 0.7574 0.53115 0.0
C937 C 0.11102 0.74559 0.43832 0.0
H938 H 0.12058 0.83428 0.42317 0.0
C939 C 0.11102 0.80007 0.28893 0.0
C940 C 0.12251 0.81836 0.2794 0.0
C941 C 0.10836 0.79198 0.32665 0.0
C942 C 0.11789 0.80946 0.42695 0.0
H943 H 0.10503 0.68308 0.55473 0.0
H944 H 0.09836 0.71796 0.50239 0.0
H945 H 0.11972 0.8125 0.48745 0.0
H946 H 0.13991 0.84357 0.30253 0.0
H947 H 0.1354 0.82897 0.36821 0.0
H948 H 0.10966 0.74207 0.37807 0.0
C949 C 0.10725 0.72415 0.51898 0.0
C950 C 0.11736 0.797 0.4638 0.0
C951 C 0.11091 0.70446 0.54931 0.0
C952 C 0.13098 0.8294 0.30876 0.0
C953 C 0.12834 0.8212 0.34654 0.0
C954 C 0.11153 0.75801 0.40164 0.0
C955 C 0.11568 0.7497 0.50805 0.0
C956 C 0.11417 0.7647 0.46991 0.0
C957 C 0.11714 0.80184 0.35588 0.0
C958 C 0.11523 0.78993 0.39536 0.0
H959 H 0.13991 0.74237 0.57658 0.0
H960 H 0.13369 0.77671 0.52363 0.0
H961 H 0.10885 0.72044 0.44161 0.0
H962 H 0.10418 0.79141 0.26717 0.0
H963 H 0.09951 0.77753 0.33285 0.0
C964 C 0.39657 0.7127 0.95552 0.0
C965 C 0.38399 0.716 0.93725 0.0
C966 C 0.39995 0.73273 0.98586 0.0
C967 C 0.38798 0.8026 0.04357 0.0
H968 H 0.39938 0.74935 0.12754 0.0
C969 C 0.3762 0.83207 0.20078 0.0
C970 C 0.38571 0.82308 0.22859 0.0
C971 C 0.3783 0.82419 0.16261 0.0
C972 C 0.39644 0.76487 0.10442 0.0
H973 H 0.36553 0.74378 0.93395 0.0
H974 H 0.37134 0.77877 0.9866 0.0
H975 H 0.39996 0.72823 0.06365 0.0
H976 H 0.40525 0.80014 0.23758 0.0
H977 H 0.40895 0.78687 0.17131 0.0
H978 H 0.38397 0.83885 0.08497 0.0
C979 C 0.37875 0.76126 0.97759 0.0
C980 C 0.39683 0.75275 0.06756 0.0
C981 C 0.37541 0.74129 0.94728 0.0
C982 C 0.39761 0.80715 0.21708 0.0
C983 C 0.39972 0.7994 0.17901 0.0
C984 C 0.38758 0.81475 0.08057 0.0
C985 C 0.39071 0.75607 0.99864 0.0
C986 C 0.39236 0.77118 0.03667 0.0
C987 C 0.38998 0.80723 0.15135 0.0
C988 C 0.39156 0.79579 0.11155 0.0
H989 H 0.40322 0.69294 0.9486 0.0
H990 H 0.40938 0.72848 1.00094 0.0
H991 H 0.38459 0.81759 0.02044 0.0
H992 H 0.36693 0.84438 0.20857 0.0
H993 H 0.37051 0.83034 0.14216 0.0
C994 C 0.11274 0.2956 0.45663 0.0
C995 C 0.12508 0.29109 0.43753 0.0
C996 C 0.10914 0.27547 0.48664 0.0
C997 C 0.12015 0.20363 0.54244 0.0
H998 H 0.11006 0.2569 0.62769 0.0
C999 C 0.13258 0.17247 0.69874 0.0
C1000 C 0.12336 0.18194 0.72709 0.0
C1001 C 0.13028 0.18049 0.66072 0.0
C1002 C 0.11262 0.2414 0.60421 0.0
H1003 H 0.14288 0.26123 0.43243 0.0
H1004 H 0.13676 0.22621 0.48477 0.0
H1005 H 0.10953 0.27881 0.56424 0.0
H1006 H 0.1041 0.20578 0.73719 0.0
H1007 H 0.10006 0.21937 0.67114 0.0
H1008 H 0.1238 0.1666 0.58314 0.0
C1009 C 0.12966 0.24468 0.47656 0.0
C1010 C 0.11226 0.25397 0.56759 0.0
C1011 C 0.13318 0.26468 0.44645 0.0
C1012 C 0.11151 0.19839 0.71626 0.0
C1013 C 0.1092 0.20631 0.67833 0.0
C1014 C 0.12055 0.19104 0.57923 0.0
C1015 C 0.11797 0.25092 0.4984 0.0
C1016 C 0.11628 0.23551 0.53623 0.0
C1017 C 0.11869 0.19809 0.65017 0.0
C1018 C 0.11703 0.21 0.61064 0.0
H1019 H 0.10646 0.31618 0.45048 0.0
H1020 H 0.09992 0.28054 0.50227 0.0
H1021 H 0.12318 0.1886 0.51895 0.0
H1022 H 0.1418 0.15973 0.70601 0.0
H1023 H 0.13787 0.17402 0.63985 0.0
C1024 C 0.05396 0.31186 0.40398 0.0
C1025 C 0.06269 0.30611 0.37324 0.0
C1026 C 0.04048 0.30157 0.40312 0.0
C1027 C 0.01297 0.28776 0.33636 0.0
H1028 H 0.9939 0.26067 0.42701 0.0
C1029 C 0.95403 0.28977 0.34602 0.0
C1030 C 0.94939 0.30638 0.37815 0.0
C1031 C 0.96764 0.27978 0.34365 0.0
C1032 C 0.99907 0.26808 0.40136 0.0
H1033 H 0.06423 0.28432 0.31773 0.0
H1034 H 0.04041 0.26652 0.31595 0.0
H1035 H 0.01872 0.26067 0.42603 0.0
H1036 H 0.95512 0.32402 0.43361 0.0
H1037 H 0.97861 0.3065 0.42974 0.0
H1038 H 0.9933 0.29674 0.31239 0.0
C1039 C 0.04412 0.27882 0.34088 0.0
C1040 C 0.01328 0.26805 0.4008 0.0
C1041 C 0.05776 0.28874 0.34203 0.0
C1042 C 0.95839 0.3113 0.40849 0.0
C1043 C 0.97186 0.30102 0.40636 0.0
C1044 C 0.99871 0.28784 0.33695 0.0
C1045 C 0.03527 0.28562 0.37122 0.0
C1046 C 0.02041 0.27908 0.36884 0.0
C1047 C 0.97677 0.28581 0.3736 0.0
C1048 C 0.99161 0.27921 0.37001 0.0
H1049 H 0.05748 0.32524 0.42837 0.0
H1050 H 0.03393 0.30761 0.42675 0.0
H1051 H 0.01814 0.29659 0.31137 0.0
H1052 H 0.94736 0.28597 0.32199 0.0
H1053 H 0.97111 0.26803 0.31809 0.0
C1054 C 0.55679 0.70687 0.84906 0.0
C1055 C 0.56317 0.69312 0.88075 0.0
C1056 C 0.54279 0.71355 0.84983 0.0
C1057 C 0.51248 0.68273 0.89851 0.0
H1058 H 0.49296 0.75214 0.8505 0.0
C1059 C 0.45519 0.68912 0.91386 0.0
C1060 C 0.44765 0.69374 0.88058 0.0
C1061 C 0.46906 0.69598 0.91483 0.0
C1062 C 0.49829 0.73256 0.86388 0.0
H1063 H 0.56031 0.6781 0.93887 0.0
H1064 H 0.53617 0.69081 0.94082 0.0
H1065 H 0.51798 0.75201 0.85056 0.0
H1066 H 0.44846 0.71084 0.82273 0.0
H1067 H 0.47297 0.72236 0.82408 0.0
H1068 H 0.49308 0.66279 0.91128 0.0
C1069 C 0.54175 0.69554 0.91495 0.0
C1070 C 0.5126 0.73249 0.86391 0.0
C1071 C 0.55561 0.68851 0.914 0.0
C1072 C 0.45406 0.70737 0.84887 0.0
C1073 C 0.46808 0.71389 0.84967 0.0
C1074 C 0.49831 0.6828 0.89848 0.0
C1075 C 0.53501 0.7067 0.88238 0.0
C1076 C 0.51985 0.70768 0.88167 0.0
C1077 C 0.47583 0.70701 0.88225 0.0
C1078 C 0.491 0.70782 0.8816 0.0
H1079 H 0.5624 0.71031 0.82295 0.0
H1080 H 0.53791 0.72211 0.82425 0.0
H1081 H 0.51767 0.66266 0.91133 0.0
H1082 H 0.45046 0.67881 0.93875 0.0
H1083 H 0.47463 0.69122 0.94073 0.0
C1084 C 0.95372 0.72085 0.65677 0.0
C1085 C 0.94924 0.69056 0.66831 0.0
C1086 C 0.96729 0.73009 0.66274 0.0
C1087 C 0.99851 0.70913 0.71685 0.0
H1088 H 0.01811 0.7323 0.62555 0.0
C1089 C 0.05281 0.66947 0.6883 0.0
C1090 C 0.06196 0.68921 0.6688 0.0
C1091 C 0.03944 0.67914 0.69461 0.0
C1092 C 0.01279 0.72664 0.65158 0.0
H1093 H 0.95512 0.64693 0.69666 0.0
H1094 H 0.97853 0.66309 0.70772 0.0
H1095 H 0.99324 0.73263 0.62553 0.0
H1096 H 0.0644 0.73499 0.64127 0.0
H1097 H 0.04072 0.75191 0.65183 0.0
H1098 H 0.018 0.70148 0.74231 0.0
C1099 C 0.97171 0.6798 0.69407 0.0
C1100 C 0.99853 0.72683 0.65157 0.0
C1101 C 0.95831 0.67043 0.68753 0.0
C1102 C 0.05757 0.71945 0.65674 0.0
C1103 C 0.04403 0.72899 0.66253 0.0
C1104 C 0.01272 0.70896 0.71687 0.0
C1105 C 0.97647 0.70941 0.68102 0.0
C1106 C 0.99125 0.7167 0.68371 0.0
C1107 C 0.03478 0.70869 0.68112 0.0
C1108 C 0.02002 0.71633 0.68374 0.0
H1109 H 0.94694 0.73667 0.64152 0.0
H1110 H 0.97068 0.75304 0.65237 0.0
H1111 H 0.99318 0.70176 0.74225 0.0
H1112 H 0.05591 0.64604 0.69789 0.0
H1113 H 0.03256 0.6627 0.7085 0.0
C1114 C 0.45445 0.28801 0.16727 0.0
C1115 C 0.44974 0.30278 0.13399 0.0
C1116 C 0.46805 0.27795 0.17005 0.0
C1117 C 0.49929 0.26276 0.11273 0.0
H1118 H 0.51862 0.29752 0.19917 0.0
C1119 C 0.55397 0.30744 0.10413 0.0
C1120 C 0.56284 0.30416 0.13509 0.0
C1121 C 0.54055 0.29686 0.10641 0.0
C1122 C 0.51339 0.28695 0.17525 0.0
H1123 H 0.45525 0.31696 0.07701 0.0
H1124 H 0.4787 0.29921 0.08155 0.0
H1125 H 0.49378 0.29709 0.19895 0.0
H1126 H 0.56469 0.28642 0.19253 0.0
H1127 H 0.54099 0.26809 0.19676 0.0
H1128 H 0.51887 0.25415 0.08819 0.0
C1129 C 0.47204 0.29524 0.10555 0.0
C1130 C 0.49913 0.28669 0.17513 0.0
C1131 C 0.4586 0.30563 0.10299 0.0
C1132 C 0.55812 0.28892 0.16806 0.0
C1133 C 0.54455 0.2787 0.17058 0.0
C1134 C 0.51351 0.26306 0.11284 0.0
C1135 C 0.47706 0.28204 0.13939 0.0
C1136 C 0.49192 0.27579 0.14319 0.0
C1137 C 0.53555 0.28307 0.13994 0.0
C1138 C 0.52072 0.27633 0.14343 0.0
H1139 H 0.44788 0.28586 0.19178 0.0
H1140 H 0.4716 0.26777 0.19646 0.0
H1141 H 0.49405 0.25362 0.088 0.0
H1142 H 0.55732 0.31914 0.07839 0.0
H1143 H 0.53388 0.30103 0.08246 0.0
C1144 C 0.45475 0.79648 0.34764 0.0
C1145 C 0.44817 0.8067 0.38081 0.0
C1146 C 0.46869 0.78909 0.34833 0.0
C1147 C 0.49867 0.81276 0.40386 0.0
H1148 H 0.5183 0.75059 0.34375 0.0
C1149 C 0.55607 0.80678 0.41614 0.0
C1150 C 0.56338 0.80652 0.38204 0.0
C1151 C 0.54228 0.79905 0.41665 0.0
C1152 C 0.51294 0.76812 0.36059 0.0
H1153 H 0.4505 0.81471 0.44102 0.0
H1154 H 0.47452 0.80057 0.4427 0.0
H1155 H 0.4933 0.75061 0.3435 0.0
H1156 H 0.56229 0.79635 0.32198 0.0
H1157 H 0.53792 0.78344 0.32255 0.0
H1158 H 0.51802 0.83092 0.42032 0.0
C1159 C 0.46918 0.79917 0.41589 0.0
C1160 C 0.49864 0.76813 0.36045 0.0
C1161 C 0.45539 0.80697 0.41507 0.0
C1162 C 0.55687 0.79635 0.34871 0.0
C1163 C 0.54293 0.78902 0.34909 0.0
C1164 C 0.51283 0.81274 0.404 0.0
C1165 C 0.47617 0.79169 0.38226 0.0
C1166 C 0.49134 0.79038 0.38235 0.0
C1167 C 0.53536 0.79161 0.38286 0.0
C1168 C 0.5202 0.79035 0.38263 0.0
H1169 H 0.4494 0.79649 0.32079 0.0
H1170 H 0.47376 0.78347 0.3219 0.0
H1171 H 0.49345 0.83095 0.42008 0.0
H1172 H 0.5609 0.81446 0.44221 0.0
H1173 H 0.53687 0.80043 0.44334 0.0
C1174 C 0.9578 0.19569 0.90886 0.0
C1175 C 0.94889 0.19972 0.87814 0.0
C1176 C 0.97125 0.20609 0.90667 0.0
C1177 C 0.99831 0.21699 0.83774 0.0
H1178 H 0.01786 0.24855 0.92555 0.0
C1179 C 0.05726 0.2158 0.84471 0.0
C1180 C 0.06209 0.20054 0.87756 0.0
C1181 C 0.04365 0.22577 0.8424 0.0
C1182 C 0.01256 0.2399 0.90067 0.0
H1183 H 0.94699 0.21858 0.8212 0.0
H1184 H 0.97073 0.23659 0.81713 0.0
H1185 H 0.99304 0.24819 0.92574 0.0
H1186 H 0.05671 0.18534 0.93429 0.0
H1187 H 0.03321 0.20285 0.93051 0.0
H1188 H 0.01785 0.20717 0.81347 0.0
C1189 C 0.96719 0.22554 0.84306 0.0
C1190 C 0.99834 0.23971 0.90078 0.0
C1191 C 0.95359 0.21549 0.8455 0.0
C1192 C 0.05329 0.19702 0.90861 0.0
C1193 C 0.03982 0.20729 0.90651 0.0
C1194 C 0.01257 0.21715 0.83765 0.0
C1195 C 0.97623 0.22044 0.87345 0.0
C1196 C 0.99106 0.22707 0.86995 0.0
C1197 C 0.03471 0.22107 0.8731 0.0
C1198 C 0.01985 0.22741 0.86975 0.0
H1199 H 0.95447 0.1836 0.93436 0.0
H1200 H 0.97795 0.20136 0.9304 0.0
H1201 H 0.99301 0.20692 0.81362 0.0
H1202 H 0.06377 0.21849 0.82016 0.0
H1203 H 0.04002 0.2364 0.81631 0.0
C1204 C 0.45356 0.2184 0.65857 0.0
C1205 C 0.449 0.18711 0.66505 0.0
C1206 C 0.4672 0.22658 0.66553 0.0
C1207 C 0.49856 0.19852 0.71447 0.0
H1208 H 0.51794 0.234 0.62856 0.0
C1209 C 0.55295 0.16411 0.67793 0.0
C1210 C 0.56207 0.18664 0.66315 0.0
C1211 C 0.53952 0.17242 0.68585 0.0
C1212 C 0.51267 0.22479 0.65321 0.0
H1213 H 0.45486 0.14044 0.68553 0.0
H1214 H 0.47838 0.15465 0.69814 0.0
H1215 H 0.49305 0.23413 0.629 0.0
H1216 H 0.56437 0.23582 0.64567 0.0
H1217 H 0.54058 0.25039 0.65895 0.0
H1218 H 0.51812 0.18759 0.73775 0.0
C1219 C 0.47156 0.17297 0.68775 0.0
C1220 C 0.49841 0.22487 0.65347 0.0
C1221 C 0.4581 0.16473 0.68026 0.0
C1222 C 0.55757 0.21808 0.65743 0.0
C1223 C 0.54396 0.22633 0.66477 0.0
C1224 C 0.51277 0.19841 0.71419 0.0
C1225 C 0.47639 0.20376 0.67976 0.0
C1226 C 0.49121 0.21048 0.68337 0.0
C1227 C 0.53476 0.20341 0.67867 0.0
C1228 C 0.51999 0.2103 0.68284 0.0
H1229 H 0.44679 0.23603 0.64647 0.0
H1230 H 0.47063 0.25051 0.65912 0.0
H1231 H 0.49331 0.18781 0.73827 0.0
H1232 H 0.55614 0.13971 0.68259 0.0
H1233 H 0.53268 0.15406 0.69599 0.0
C1234 C 0.95509 0.79072 0.17399 0.0
C1235 C 0.95009 0.80532 0.14094 0.0
C1236 C 0.96873 0.7808 0.17598 0.0
C1237 C 0.99925 0.76404 0.117 0.0
H1238 H 0.01977 0.8014 0.19971 0.0
C1239 C 0.05428 0.80448 0.10044 0.0
C1240 C 0.06346 0.80262 0.13085 0.0
C1241 C 0.04076 0.79514 0.1048 0.0
C1242 C 0.01421 0.7901 0.17686 0.0
H1243 H 0.95511 0.81954 0.08365 0.0
H1244 H 0.97863 0.8017 0.08669 0.0
H1245 H 0.99493 0.80161 0.2018 0.0
H1246 H 0.0657 0.78869 0.1897 0.0
H1247 H 0.04187 0.77234 0.19748 0.0
H1248 H 0.01846 0.75371 0.09128 0.0
C1249 C 0.97216 0.79786 0.11112 0.0
C1250 C 0.99995 0.79023 0.17807 0.0
C1251 C 0.9587 0.80823 0.1094 0.0
C1252 C 0.0589 0.79007 0.16558 0.0
C1253 C 0.04524 0.781 0.17013 0.0
C1254 C 0.01346 0.76382 0.11585 0.0
C1255 C 0.97746 0.78478 0.14469 0.0
C1256 C 0.99233 0.77835 0.14742 0.0
C1257 C 0.03596 0.78389 0.13988 0.0
C1258 C 0.02112 0.77802 0.14501 0.0
H1259 H 0.94871 0.7886 0.19888 0.0
H1260 H 0.97253 0.77077 0.20221 0.0
H1261 H 0.99366 0.75421 0.09325 0.0
H1262 H 0.05747 0.81402 0.07332 0.0
H1263 H 0.0339 0.79819 0.08104 0.0
C1264 C 0.30901 0.37543 0.23806 0.0
C1265 C 0.31 0.36435 0.20056 0.0
C1266 C 0.29631 0.38355 0.25335 0.0
C1267 C 0.26026 0.40129 0.22959 0.0
H1268 H 0.25235 0.35503 0.32199 0.0
C1269 C 0.20541 0.37032 0.27707 0.0
C1270 C 0.20291 0.36499 0.3157 0.0
C1271 C 0.21854 0.37813 0.26459 0.0
C1272 C 0.25436 0.36886 0.29671 0.0
H1273 H 0.29866 0.35498 0.14907 0.0
H1274 H 0.27662 0.36958 0.17548 0.0
H1275 H 0.27541 0.35592 0.29767 0.0
H1276 H 0.21175 0.36588 0.37184 0.0
H1277 H 0.23438 0.38129 0.3506 0.0
H1278 H 0.23916 0.414 0.22838 0.0
C1279 C 0.28558 0.37195 0.19314 0.0
C1280 C 0.26765 0.36927 0.28271 0.0
C1281 C 0.2982 0.3634 0.17808 0.0
C1282 C 0.21347 0.36975 0.34184 0.0
C1283 C 0.22648 0.3782 0.32954 0.0
C1284 C 0.24696 0.40125 0.24386 0.0
C1285 C 0.28442 0.38119 0.23126 0.0
C1286 C 0.27071 0.3849 0.24859 0.0
C1287 C 0.22937 0.38118 0.29062 0.0
C1288 C 0.24375 0.38446 0.27725 0.0
H1289 H 0.3179 0.37609 0.25619 0.0
H1290 H 0.29572 0.39073 0.2828 0.0
H1291 H 0.26234 0.41374 0.20332 0.0
H1292 H 0.19746 0.36635 0.25632 0.0
H1293 H 0.22032 0.37991 0.23439 0.0
C1294 C 0.20279 0.625 0.73289 0.0
C1295 C 0.20207 0.63454 0.69476 0.0
C1296 C 0.21533 0.61681 0.7491 0.0
C1297 C 0.25138 0.59674 0.72785 0.0
H1298 H 0.25908 0.64655 0.81777 0.0
C1299 C 0.30608 0.62917 0.77524 0.0
C1300 C 0.30843 0.63613 0.81358 0.0
C1301 C 0.293 0.62077 0.76285 0.0
C1302 C 0.25713 0.63173 0.79326 0.0
H1303 H 0.21371 0.64101 0.64317 0.0
H1304 H 0.23548 0.62637 0.67123 0.0
H1305 H 0.23615 0.64525 0.79264 0.0
H1306 H 0.2994 0.63747 0.86945 0.0
H1307 H 0.27685 0.62105 0.84847 0.0
H1308 H 0.27244 0.58353 0.72817 0.0
C1309 C 0.22642 0.62522 0.68867 0.0
C1310 C 0.2439 0.63108 0.77878 0.0
C1311 C 0.21396 0.6338 0.67266 0.0
C1312 C 0.29779 0.63232 0.83968 0.0
C1313 C 0.28484 0.62329 0.8275 0.0
C1314 C 0.26462 0.59706 0.74261 0.0
C1315 C 0.22734 0.61762 0.72736 0.0
C1316 C 0.24093 0.61417 0.74547 0.0
C1317 C 0.28209 0.61876 0.78871 0.0
C1318 C 0.26775 0.61513 0.77511 0.0
H1319 H 0.19383 0.62566 0.75075 0.0
H1320 H 0.21572 0.61089 0.77897 0.0
H1321 H 0.24937 0.58328 0.70225 0.0
H1322 H 0.31409 0.63239 0.75452 0.0
H1323 H 0.29133 0.61778 0.73273 0.0
C1324 C 0.70493 0.62924 0.77735 0.0
C1325 C 0.70248 0.63538 0.81584 0.0
C1326 C 0.71804 0.62116 0.76499 0.0
C1327 C 0.75382 0.63169 0.79646 0.0
H1328 H 0.76184 0.58536 0.70408 0.0
C1329 C 0.8083 0.62652 0.73682 0.0
C1330 C 0.80909 0.63693 0.69902 0.0
C1331 C 0.79573 0.61799 0.75257 0.0
C1332 C 0.75975 0.59822 0.73007 0.0
H1333 H 0.71137 0.6356 0.87192 0.0
H1334 H 0.73398 0.61971 0.85093 0.0
H1335 H 0.73872 0.58483 0.72959 0.0
H1336 H 0.79754 0.64463 0.6475 0.0
H1337 H 0.77572 0.62938 0.67473 0.0
H1338 H 0.77478 0.64538 0.79664 0.0
C1339 C 0.72604 0.62235 0.82987 0.0
C1340 C 0.74648 0.5981 0.7446 0.0
C1341 C 0.71305 0.63107 0.84204 0.0
C1342 C 0.79724 0.63676 0.67674 0.0
C1343 C 0.78474 0.62782 0.69227 0.0
C1344 C 0.76708 0.63147 0.7822 0.0
C1345 C 0.72889 0.61866 0.79101 0.0
C1346 C 0.74326 0.61542 0.77759 0.0
C1347 C 0.78376 0.6193 0.73066 0.0
C1348 C 0.77014 0.61534 0.74842 0.0
H1349 H 0.69696 0.63286 0.75657 0.0
H1350 H 0.71978 0.61882 0.73483 0.0
H1351 H 0.75179 0.64594 0.8214 0.0
H1352 H 0.81723 0.62673 0.75483 0.0
H1353 H 0.79528 0.61136 0.78222 0.0
C1354 C 0.71276 0.37291 0.17158 0.0
C1355 C 0.70235 0.36802 0.19812 0.0
C1356 C 0.72581 0.3816 0.18338 0.0
C1357 C 0.74666 0.40474 0.26843 0.0
H1358 H 0.77491 0.3596 0.21361 0.0
C1359 C 0.79798 0.36577 0.33269 0.0
C1360 C 0.80972 0.36662 0.30998 0.0
C1361 C 0.78536 0.37479 0.31801 0.0
C1362 C 0.76721 0.37291 0.22883 0.0
H1363 H 0.69719 0.36936 0.25767 0.0
H1364 H 0.7201 0.38333 0.27876 0.0
H1365 H 0.75176 0.35879 0.18992 0.0
H1366 H 0.81754 0.37874 0.25441 0.0
H1367 H 0.79535 0.3942 0.22842 0.0
H1368 H 0.7622 0.41705 0.30864 0.0
C1369 C 0.71819 0.3815 0.24862 0.0
C1370 C 0.75387 0.37256 0.2152 0.0
C1371 C 0.70502 0.37346 0.23664 0.0
C1372 C 0.80869 0.37816 0.2727 0.0
C1373 C 0.79598 0.38674 0.25776 0.0
C1374 C 0.76002 0.40473 0.28234 0.0
C1375 C 0.72888 0.38467 0.2222 0.0
C1376 C 0.74332 0.38805 0.23506 0.0
C1377 C 0.78414 0.3844 0.28003 0.0
C1378 C 0.7704 0.38838 0.26298 0.0
H1379 H 0.71091 0.36888 0.14167 0.0
H1380 H 0.7336 0.38476 0.16203 0.0
H1381 H 0.73893 0.41743 0.28421 0.0
H1382 H 0.79848 0.35698 0.36154 0.0
H1383 H 0.77644 0.37243 0.3358 0.0
C1384 C 0.79824 0.86555 0.17687 0.0
C1385 C 0.81004 0.86573 0.19938 0.0
C1386 C 0.78564 0.87388 0.19224 0.0
C1387 C 0.76773 0.86903 0.28171 0.0
H1388 H 0.73934 0.91571 0.22935 0.0
C1389 C 0.71365 0.86921 0.3415 0.0
C1390 C 0.70302 0.8654 0.31536 0.0
C1391 C 0.72668 0.87761 0.32932 0.0
C1392 C 0.74711 0.90241 0.24426 0.0
H1393 H 0.81796 0.87587 0.25544 0.0
H1394 H 0.79583 0.89014 0.28256 0.0
H1395 H 0.7625 0.91571 0.20409 0.0
H1396 H 0.69747 0.86842 0.25614 0.0
H1397 H 0.72036 0.8819 0.23436 0.0
H1398 H 0.75243 0.85402 0.32055 0.0
C1399 C 0.7964 0.88373 0.25286 0.0
C1400 C 0.7604 0.9026 0.22988 0.0
C1401 C 0.80908 0.87583 0.23727 0.0
C1402 C 0.70548 0.87163 0.27689 0.0
C1403 C 0.71862 0.8794 0.26451 0.0
C1404 C 0.75446 0.86849 0.2958 0.0
C1405 C 0.7845 0.88212 0.2307 0.0
C1406 C 0.77081 0.88553 0.24819 0.0
C1407 C 0.72951 0.88151 0.29048 0.0
C1408 C 0.74388 0.8848 0.27705 0.0
H1409 H 0.79868 0.85789 0.14756 0.0
H1410 H 0.77668 0.87211 0.17451 0.0
H1411 H 0.77546 0.85515 0.29609 0.0
H1412 H 0.71197 0.86465 0.37137 0.0
H1413 H 0.73463 0.87997 0.35036 0.0
C1414 C 0.71397 0.13759 0.67913 0.0
C1415 C 0.70222 0.13703 0.70179 0.0
C1416 C 0.72656 0.12856 0.69398 0.0
C1417 C 0.74462 0.13116 0.78324 0.0
H1418 H 0.77297 0.08628 0.72855 0.0
C1419 C 0.79905 0.13217 0.84059 0.0
C1420 C 0.80944 0.13694 0.81398 0.0
C1421 C 0.78602 0.12319 0.82891 0.0
C1422 C 0.76521 0.09906 0.74414 0.0
H1423 H 0.69434 0.12538 0.75744 0.0
H1424 H 0.71648 0.10991 0.78371 0.0
H1425 H 0.74971 0.08635 0.70401 0.0
H1426 H 0.81462 0.13508 0.75446 0.0
H1427 H 0.79174 0.12059 0.73356 0.0
H1428 H 0.76003 0.14568 0.82205 0.0
C1429 C 0.71588 0.11715 0.75428 0.0
C1430 C 0.75186 0.0989 0.73017 0.0
C1431 C 0.7032 0.12574 0.73919 0.0
C1432 C 0.80679 0.13107 0.77555 0.0
C1433 C 0.79365 0.12273 0.76367 0.0
C1434 C 0.75796 0.13168 0.79694 0.0
C1435 C 0.72775 0.11924 0.73206 0.0
C1436 C 0.74147 0.11539 0.74927 0.0
C1437 C 0.78296 0.1197 0.79013 0.0
C1438 C 0.76852 0.11608 0.77731 0.0
H1439 H 0.71351 0.1462 0.6502 0.0
H1440 H 0.7355 0.13073 0.67622 0.0
H1441 H 0.73691 0.14458 0.79827 0.0
H1442 H 0.80089 0.13653 0.87044 0.0
H1443 H 0.77824 0.12014 0.8503 0.0
C1444 C 0.29832 0.13059 0.66795 0.0
C1445 C 0.3087 0.13621 0.6944 0.0
C1446 C 0.28529 0.12199 0.67996 0.0
C1447 C 0.26442 0.10072 0.76565 0.0
H1448 H 0.23617 0.14453 0.7093 0.0
C1449 C 0.21308 0.14102 0.82855 0.0
C1450 C 0.20133 0.1395 0.8059 0.0
C1451 C 0.22571 0.13179 0.81415 0.0
C1452 C 0.24387 0.13159 0.72497 0.0
H1453 H 0.31384 0.13627 0.75399 0.0
H1454 H 0.29095 0.12247 0.77539 0.0
H1455 H 0.25931 0.14479 0.68563 0.0
H1456 H 0.19353 0.12603 0.75073 0.0
H1457 H 0.21574 0.11022 0.72523 0.0
H1458 H 0.24889 0.08937 0.80622 0.0
C1459 C 0.29287 0.12363 0.74521 0.0
C1460 C 0.25721 0.13163 0.71135 0.0
C1461 C 0.30603 0.13157 0.73305 0.0
C1462 C 0.20238 0.12715 0.76898 0.0
C1463 C 0.2151 0.11836 0.75432 0.0
C1464 C 0.25106 0.10106 0.77953 0.0
C1465 C 0.2822 0.11978 0.71885 0.0
C1466 C 0.26775 0.11663 0.73174 0.0
C1467 C 0.22694 0.12129 0.77651 0.0
C1468 C 0.24068 0.11694 0.75962 0.0
H1469 H 0.30017 0.134 0.63795 0.0
H1470 H 0.27751 0.11828 0.65868 0.0
H1471 H 0.27216 0.08843 0.78186 0.0
H1472 H 0.21257 0.15042 0.85712 0.0
H1473 H 0.23464 0.13463 0.83186 0.0
C1474 C 0.29844 0.87354 0.34266 0.0
C1475 C 0.30871 0.86814 0.31585 0.0
C1476 C 0.28538 0.88242 0.33115 0.0
C1477 C 0.26428 0.9049 0.24625 0.0
H1478 H 0.23608 0.86111 0.30277 0.0
C1479 C 0.21298 0.86386 0.18411 0.0
C1480 C 0.20126 0.86529 0.20687 0.0
C1481 C 0.22558 0.87361 0.19825 0.0
C1482 C 0.24377 0.87407 0.28707 0.0
H1483 H 0.31363 0.86875 0.25613 0.0
H1484 H 0.29069 0.88295 0.23557 0.0
H1485 H 0.25928 0.8604 0.32599 0.0
H1486 H 0.19343 0.87921 0.26181 0.0
H1487 H 0.21561 0.89585 0.28693 0.0
H1488 H 0.24867 0.9166 0.20601 0.0
C1489 C 0.29272 0.88143 0.26567 0.0
C1490 C 0.25715 0.87377 0.30043 0.0
C1491 C 0.3059 0.87323 0.27735 0.0
C1492 C 0.20227 0.87816 0.24352 0.0
C1493 C 0.21497 0.88744 0.25795 0.0
C1494 C 0.25089 0.90479 0.2326 0.0
C1495 C 0.28215 0.88515 0.29239 0.0
C1496 C 0.26768 0.8887 0.27993 0.0
C1497 C 0.2268 0.88448 0.23574 0.0
C1498 C 0.24054 0.8889 0.25258 0.0
H1499 H 0.30041 0.86983 0.37257 0.0
H1500 H 0.2777 0.88602 0.35271 0.0
H1501 H 0.27201 0.91718 0.22998 0.0
H1502 H 0.21248 0.85401 0.15575 0.0
H1503 H 0.2345 0.87074 0.18055 0.0
C1504 C 0.16075 0.38885 0.44438 0.0
C1505 C 0.15032 0.38885 0.41718 0.0
C1506 C 0.1646 0.41714 0.46237 0.0
C1507 C 0.15991 0.50532 0.46302 0.0
H1508 H 0.15974 0.49438 0.57226 0.0
C1509 C 0.14334 0.58407 0.59856 0.0
C1510 C 0.14892 0.61349 0.58804 0.0
C1511 C 0.14749 0.55603 0.58044 0.0
C1512 C 0.1599 0.49785 0.54184 0.0
H1513 H 0.13594 0.41833 0.38691 0.0
H1514 H 0.14285 0.4679 0.41733 0.0
H1515 H 0.15988 0.4477 0.53114 0.0
H1516 H 0.16361 0.6368 0.55179 0.0
H1517 H 0.1711 0.58784 0.52054 0.0
H1518 H 0.1592 0.55545 0.47372 0.0
C1519 C 0.1483 0.44626 0.42434 0.0
C1520 C 0.16013 0.47108 0.51819 0.0
C1521 C 0.14445 0.4179 0.40639 0.0
C1522 C 0.15932 0.61425 0.56079 0.0
C1523 C 0.16347 0.58629 0.54262 0.0
C1524 C 0.15974 0.53209 0.48667 0.0
C1525 C 0.15799 0.44596 0.45378 0.0
C1526 C 0.15981 0.47447 0.47847 0.0
C1527 C 0.15719 0.55703 0.55106 0.0
C1528 C 0.1594 0.52868 0.52638 0.0
H1529 H 0.16528 0.36661 0.45356 0.0
H1530 H 0.17224 0.41614 0.48448 0.0
H1531 H 0.15975 0.50878 0.43259 0.0
H1532 H 0.13485 0.58307 0.61808 0.0
H1533 H 0.14229 0.53403 0.58733 0.0
C1534 C 0.34959 0.61638 0.9455 0.0
C1535 C 0.36 0.61644 0.91826 0.0
C1536 C 0.3461 0.58831 0.9645 0.0
C1537 C 0.35129 0.50057 0.96761 0.0
H1538 H 0.35204 0.51344 0.07657 0.0
C1539 C 0.36817 0.42302 0.10357 0.0
C1540 C 0.36224 0.39378 0.09373 0.0
C1541 C 0.36407 0.45113 0.08546 0.0
C1542 C 0.35171 0.50945 0.04624 0.0
H1543 H 0.3747 0.58716 0.88889 0.0
H1544 H 0.36834 0.53785 0.92091 0.0
H1545 H 0.35174 0.55943 0.03422 0.0
H1546 H 0.34691 0.37098 0.0591 0.0
H1547 H 0.33953 0.42004 0.02796 0.0
H1548 H 0.35188 0.45063 0.97958 0.0
C1549 C 0.36268 0.55934 0.92727 0.0
C1550 C 0.35141 0.53579 0.02192 0.0
C1551 C 0.3662 0.58751 0.90838 0.0
C1552 C 0.35148 0.39338 0.06759 0.0
C1553 C 0.34739 0.42139 0.04942 0.0
C1554 C 0.35149 0.47424 0.99193 0.0
C1555 C 0.35303 0.55974 0.95678 0.0
C1556 C 0.35148 0.53168 0.98229 0.0
C1557 C 0.35408 0.45033 0.05682 0.0
C1558 C 0.35199 0.47835 0.03154 0.0
H1559 H 0.3448 0.63852 0.95399 0.0
H1560 H 0.33849 0.58933 0.98667 0.0
H1561 H 0.3513 0.49658 0.93727 0.0
H1562 H 0.3769 0.42373 0.12229 0.0
H1563 H 0.36954 0.47293 0.09158 0.0
C1564 C 0.85146 0.61355 0.56675 0.0
C1565 C 0.86205 0.61295 0.59341 0.0
C1566 C 0.84739 0.58562 0.54838 0.0
C1567 C 0.85156 0.53258 0.49116 0.0
H1568 H 0.85158 0.44747 0.53365 0.0
C1569 C 0.86696 0.41938 0.40871 0.0
C1570 C 0.86088 0.39033 0.41861 0.0
C1571 C 0.86317 0.44755 0.42719 0.0
C1572 C 0.85131 0.47108 0.52127 0.0
H1573 H 0.87645 0.58277 0.62259 0.0
H1574 H 0.86914 0.53371 0.5915 0.0
H1575 H 0.85167 0.49351 0.57589 0.0
H1576 H 0.8456 0.36798 0.45383 0.0
H1577 H 0.83881 0.41717 0.48575 0.0
H1578 H 0.85163 0.51014 0.43655 0.0
C1579 C 0.86376 0.5556 0.58515 0.0
C1580 C 0.85149 0.49745 0.54555 0.0
C1581 C 0.86785 0.58363 0.60346 0.0
C1582 C 0.8503 0.39022 0.44534 0.0
C1583 C 0.84654 0.4183 0.46391 0.0
C1584 C 0.85147 0.5062 0.46689 0.0
C1585 C 0.85394 0.55655 0.55609 0.0
C1586 C 0.85188 0.52853 0.53079 0.0
C1587 C 0.85337 0.44703 0.45629 0.0
C1588 C 0.8516 0.47512 0.48164 0.0
H1589 H 0.847 0.63602 0.55811 0.0
H1590 H 0.83965 0.58709 0.52659 0.0
H1591 H 0.85204 0.55616 0.47877 0.0
H1592 H 0.87556 0.41987 0.3896 0.0
H1593 H 0.86876 0.46916 0.42092 0.0
C1594 C 0.66122 0.61476 0.94651 0.0
C1595 C 0.65076 0.61469 0.91941 0.0
C1596 C 0.66489 0.58668 0.96521 0.0
C1597 C 0.66018 0.49876 0.96765 0.0
H1598 H 0.65987 0.511 0.07672 0.0
C1599 C 0.66148 0.39116 0.06735 0.0
C1600 C 0.65092 0.39099 0.09414 0.0
C1601 C 0.66513 0.41935 0.04885 0.0
C1602 C 0.66008 0.50719 0.04636 0.0
H1603 H 0.63617 0.58518 0.88994 0.0
H1604 H 0.64283 0.53585 0.92151 0.0
H1605 H 0.65968 0.55722 0.03475 0.0
H1606 H 0.63616 0.42019 0.12334 0.0
H1607 H 0.64278 0.4697 0.09214 0.0
H1608 H 0.65998 0.44872 0.97926 0.0
C1609 C 0.64839 0.55746 0.92798 0.0
C1610 C 0.66009 0.53367 0.02224 0.0
C1611 C 0.64469 0.58565 0.90937 0.0
C1612 C 0.64475 0.41991 0.10416 0.0
C1613 C 0.64842 0.4482 0.08575 0.0
C1614 C 0.66027 0.47228 0.99177 0.0
C1615 C 0.6581 0.55796 0.95735 0.0
C1616 C 0.65987 0.52978 0.98258 0.0
C1617 C 0.65822 0.44794 0.05661 0.0
C1618 C 0.65994 0.47616 0.03143 0.0
H1619 H 0.66592 0.63698 0.95511 0.0
H1620 H 0.67255 0.58779 0.98726 0.0
H1621 H 0.66007 0.49494 0.93729 0.0
H1622 H 0.66626 0.36904 0.05877 0.0
H1623 H 0.67286 0.41842 0.02699 0.0
C1624 C 0.6614 0.89288 0.44358 0.0
C1625 C 0.65068 0.89314 0.41729 0.0
C1626 C 0.66536 0.92093 0.46188 0.0
C1627 C 0.66069 0.0089 0.46532 0.0
H1628 H 0.66081 0.99577 0.57424 0.0
C1629 C 0.64518 0.08612 0.60288 0.0
C1630 C 0.65116 0.11532 0.59312 0.0
C1631 C 0.649 0.0581 0.58413 0.0
C1632 C 0.6609 0.99983 0.54392 0.0
H1633 H 0.63599 0.92288 0.3886 0.0
H1634 H 0.64314 0.97215 0.41952 0.0
H1635 H 0.6606 0.94991 0.53175 0.0
H1636 H 0.66634 0.13804 0.5579 0.0
H1637 H 0.67319 0.08912 0.52551 0.0
H1638 H 0.66036 0.05884 0.47752 0.0
C1639 C 0.64867 0.95044 0.42565 0.0
C1640 C 0.66092 0.97356 0.5195 0.0
C1641 C 0.64468 0.92229 0.40742 0.0
C1642 C 0.6617 0.1157 0.56627 0.0
C1643 C 0.6655 0.08778 0.54743 0.0
C1644 C 0.66078 0.03519 0.48975 0.0
C1645 C 0.6586 0.94977 0.45446 0.0
C1646 C 0.66052 0.97776 0.47989 0.0
C1647 C 0.65876 0.05892 0.55491 0.0
C1648 C 0.66059 0.03097 0.52936 0.0
H1649 H 0.66601 0.87055 0.4521 0.0
H1650 H 0.67318 0.91968 0.48348 0.0
H1651 H 0.66043 0.01296 0.435 0.0
H1652 H 0.6366 0.08541 0.6221 0.0
H1653 H 0.64349 0.03637 0.59031 0.0
C1654 C 0.86878 0.92277 0.10384 0.0
C1655 C 0.86307 0.89331 0.09394 0.0
C1656 C 0.86456 0.95069 0.08553 0.0
C1657 C 0.85211 0.97325 0.99165 0.0
H1658 H 0.8518 0.05846 0.03388 0.0
C1659 C 0.85 0.11542 0.94536 0.0
C1660 C 0.86055 0.1156 0.91855 0.0
C1661 C 0.84644 0.08728 0.96408 0.0
C1662 C 0.85162 0.03481 0.02159 0.0
H1663 H 0.84803 0.86988 0.05894 0.0
H1664 H 0.84044 0.9186 0.02742 0.0
H1665 H 0.85219 0.01251 0.07627 0.0
H1666 H 0.87538 0.08646 0.88953 0.0
H1667 H 0.8689 0.03704 0.92107 0.0
H1668 H 0.85198 0.99556 0.93698 0.0
C1669 C 0.84822 0.92027 0.04909 0.0
C1670 C 0.85197 0.0085 0.04594 0.0
C1671 C 0.85242 0.89246 0.06746 0.0
C1672 C 0.86679 0.08672 0.9087 0.0
C1673 C 0.8632 0.05848 0.92731 0.0
C1674 C 0.85185 0.99956 0.96731 0.0
C1675 C 0.85468 0.94948 0.05662 0.0
C1676 C 0.85248 0.9774 0.03127 0.0
C1677 C 0.85342 0.05876 0.9565 0.0
C1678 C 0.85185 0.03068 0.98197 0.0
H1679 H 0.87742 0.92383 0.12285 0.0
H1680 H 0.86987 0.9727 0.09175 0.0
H1681 H 0.85267 0.94965 0.97933 0.0
H1682 H 0.84518 0.13753 0.95382 0.0
H1683 H 0.83873 0.08821 0.98599 0.0
C1684 C 0.3664 0.08736 0.60097 0.0
C1685 C 0.36048 0.11657 0.59096 0.0
C1686 C 0.36258 0.05932 0.58224 0.0
C1687 C 0.3507 1.00102 0.54215 0.0
H1688 H 0.35141 0.01362 0.43316 0.0
C1689 C 0.3504 0.89357 0.44256 0.0
C1690 C 0.36113 0.89374 0.41632 0.0
C1691 C 0.34641 0.92169 0.46065 0.0
C1692 C 0.35108 0.00971 0.4635 0.0
H1693 H 0.34547 0.13935 0.55522 0.0
H1694 H 0.33863 0.09039 0.52285 0.0
H1695 H 0.35145 0.0597 0.47537 0.0
H1696 H 0.37584 0.92338 0.38757 0.0
H1697 H 0.36866 0.97276 0.41815 0.0
H1698 H 0.35098 0.95104 0.53034 0.0
C1699 C 0.34625 0.08904 0.54497 0.0
C1700 C 0.35098 0.03611 0.48774 0.0
C1701 C 0.35004 0.11698 0.56379 0.0
C1702 C 0.36713 0.92285 0.40635 0.0
C1703 C 0.36313 0.95107 0.42438 0.0
C1704 C 0.35071 0.97463 0.51791 0.0
C1705 C 0.35291 0.06013 0.55279 0.0
C1706 C 0.35108 0.03208 0.52739 0.0
C1707 C 0.35317 0.95051 0.45309 0.0
C1708 C 0.3512 0.97863 0.47829 0.0
H1709 H 0.37491 0.08663 0.62042 0.0
H1710 H 0.36804 0.03756 0.58867 0.0
H1711 H 0.35072 0.9971 0.5725 0.0
H1712 H 0.34578 0.87126 0.45114 0.0
H1713 H 0.33856 0.92052 0.48216 0.0
C1714 C 0.16206 0.89422 0.07206 0.0
C1715 C 0.1511 0.89065 0.09725 0.0
C1716 C 0.16419 0.92311 0.05324 0.0
C1717 C 0.14305 0.98793 0.01773 0.0
H1718 H 0.17706 0.02506 0.98383 0.0
C1719 C 0.14216 0.08349 0.90352 0.0
C1720 C 0.14906 0.11145 0.9136 0.0
C1721 C 0.14497 0.05486 0.92227 0.0
C1722 C 0.16749 0.01488 0.99302 0.0
H1723 H 0.13425 0.91487 0.12413 0.0
H1724 H 0.13828 0.96576 0.09264 0.0
H1725 H 0.17732 0.9818 0.03053 0.0
H1726 H 0.16486 0.13127 0.94918 0.0
H1727 H 0.16985 0.08138 0.98186 0.0
H1728 H 0.13316 0.02095 0.98086 0.0
C1729 C 0.14516 0.94617 0.08707 0.0
C1730 C 0.16764 0.99013 0.01974 0.0
C1731 C 0.14304 0.91724 0.10586 0.0
C1732 C 0.1596 0.10981 0.94042 0.0
C1733 C 0.16241 0.08123 0.95922 0.0
C1734 C 0.14291 0.01241 0.99099 0.0
C1735 C 0.1553 0.94889 0.05906 0.0
C1736 C 0.15539 0.97649 0.03254 0.0
C1737 C 0.15461 0.05386 0.9518 0.0
C1738 C 0.1551 0.0262 0.97821 0.0
H1739 H 0.16831 0.8739 0.06461 0.0
H1740 H 0.17206 0.92432 0.03183 0.0
H1741 H 0.13344 0.97757 0.0263 0.0
H1742 H 0.13362 0.0844 0.88419 0.0
H1743 H 0.13891 0.03406 0.91552 0.0
C1744 C 0.14255 0.19592 0.32477 0.0
C1745 C 0.13006 0.20943 0.33568 0.0
C1746 C 0.14325 0.16423 0.31284 0.0
C1747 C 0.12472 0.08735 0.31217 0.0
H1748 H 0.14622 0.07157 0.2219 0.0
C1749 C 0.12188 0.96817 0.23099 0.0
C1750 C 0.13417 0.95505 0.2179 0.0
C1751 C 0.12146 0.99914 0.2455 0.0
C1752 C 0.1403 0.07546 0.24737 0.0
H1753 H 0.10861 0.19976 0.34423 0.0
H1754 H 0.10983 0.14437 0.32322 0.0
H1755 H 0.14547 0.12495 0.24895 0.0
H1756 H 0.15562 0.96449 0.20904 0.0
H1757 H 0.15492 0.01852 0.2346 0.0
H1758 H 0.11953 0.03783 0.31049 0.0
C1759 C 0.1191 0.1583 0.32406 0.0
C1760 C 0.13988 0.10607 0.26294 0.0
C1761 C 0.11839 0.19007 0.33605 0.0
C1762 C 0.14598 0.97389 0.21884 0.0
C1763 C 0.14557 0.00491 0.23339 0.0
C1764 C 0.12515 0.0567 0.29661 0.0
C1765 C 0.13149 0.14523 0.3115 0.0
C1766 C 0.13208 0.11242 0.29552 0.0
C1767 C 0.13333 0.01779 0.24729 0.0
C1768 C 0.13293 0.05038 0.26396 0.0
H1769 H 0.15176 0.21007 0.32445 0.0
H1770 H 0.15301 0.15473 0.30415 0.0
H1771 H 0.11875 0.09132 0.33753 0.0
H1772 H 0.11256 0.95439 0.23052 0.0
H1773 H 0.11182 0.0085 0.25529 0.0
C1774 C 0.38925 0.03687 0.72845 0.0
C1775 C 0.37689 0.04908 0.71454 0.0
C1776 C 0.38995 0.00602 0.74328 0.0
C1777 C 0.36845 0.94319 0.78546 0.0
H1778 H 0.39952 0.88886 0.76528 0.0
C1779 C 0.36926 0.80922 0.82277 0.0
C1780 C 0.38156 0.79542 0.83479 0.0
C1781 C 0.3688 0.84096 0.81089 0.0
C1782 C 0.39087 0.9039 0.77172 0.0
H1783 H 0.35565 0.03804 0.70443 0.0
H1784 H 0.3569 0.98403 0.73003 0.0
H1785 H 0.39845 0.94182 0.73703 0.0
H1786 H 0.40294 0.80463 0.84527 0.0
H1787 H 0.40211 0.8603 0.82493 0.0
H1788 H 0.36085 0.90524 0.82004 0.0
C1789 C 0.36601 0.99855 0.72996 0.0
C1790 C 0.39023 0.93424 0.75539 0.0
C1791 C 0.36531 0.02942 0.71502 0.0
C1792 C 0.3933 0.81451 0.8361 0.0
C1793 C 0.39285 0.84633 0.82412 0.0
C1794 C 0.3691 0.91286 0.80183 0.0
C1795 C 0.37831 0.98659 0.74463 0.0
C1796 C 0.37898 0.95422 0.76191 0.0
C1797 C 0.38063 0.85977 0.81072 0.0
C1798 C 0.38028 0.89274 0.79502 0.0
H1799 H 0.39837 0.05135 0.72857 0.0
H1800 H 0.39956 0.99773 0.75462 0.0
H1801 H 0.35976 0.95816 0.79167 0.0
H1802 H 0.36001 0.79524 0.82141 0.0
H1803 H 0.35925 0.85036 0.80045 0.0
C1804 C 0.12155 0.03493 0.77882 0.0
C1805 C 0.13399 0.04779 0.79125 0.0
C1806 C 0.12092 0.00406 0.76405 0.0
C1807 C 0.14226 0.94224 0.71925 0.0
H1808 H 0.11196 0.88664 0.74328 0.0
C1809 C 0.14156 0.80827 0.68117 0.0
C1810 C 0.12912 0.79416 0.67091 0.0
C1811 C 0.14209 0.84 0.6931 0.0
C1812 C 0.12039 0.90202 0.73578 0.0
H1813 H 0.15548 0.03792 0.79871 0.0
H1814 H 0.15434 0.98384 0.77318 0.0
H1815 H 0.11313 0.93955 0.77156 0.0
H1816 H 0.10754 0.80286 0.66349 0.0
H1817 H 0.10848 0.85848 0.68384 0.0
H1818 H 0.14954 0.90466 0.68354 0.0
C1819 C 0.14511 0.99787 0.7744 0.0
C1820 C 0.12108 0.93235 0.75212 0.0
C1821 C 0.14574 0.02878 0.78929 0.0
C1822 C 0.11729 0.81296 0.6713 0.0
C1823 C 0.11781 0.84476 0.6833 0.0
C1824 C 0.14156 0.91191 0.70286 0.0
C1825 C 0.1327 0.98524 0.76127 0.0
C1826 C 0.13204 0.95281 0.74416 0.0
C1827 C 0.13018 0.85848 0.69506 0.0
C1828 C 0.13063 0.89136 0.71101 0.0
H1829 H 0.1123 0.0489 0.77985 0.0
H1830 H 0.11122 0.99526 0.75388 0.0
H1831 H 0.15072 0.95759 0.71196 0.0
H1832 H 0.15088 0.79451 0.6812 0.0
H1833 H 0.15177 0.84963 0.70222 0.0
C1834 C 0.39235 0.19247 0.17525 0.0
C1835 C 0.3812 0.21319 0.17921 0.0
C1836 C 0.39141 0.16071 0.18721 0.0
C1837 C 0.3717 0.10988 0.25306 0.0
H1838 H 0.38898 0.04033 0.19917 0.0
C1839 C 0.36446 0.97751 0.29585 0.0
C1840 C 0.37596 0.95767 0.29379 0.0
C1841 C 0.36495 0.0087 0.28176 0.0
C1842 C 0.38421 0.05954 0.21478 0.0
H1843 H 0.36012 0.21633 0.19706 0.0
H1844 H 0.35843 0.16103 0.21721 0.0
H1845 H 0.38997 0.09412 0.17309 0.0
H1846 H 0.39708 0.95536 0.27615 0.0
H1847 H 0.39795 0.00965 0.25206 0.0
H1848 H 0.36596 0.07534 0.29478 0.0
C1849 C 0.368 0.16943 0.20575 0.0
C1850 C 0.38478 0.09039 0.1998 0.0
C1851 C 0.36895 0.20111 0.19389 0.0
C1852 C 0.38801 0.96992 0.27806 0.0
C1853 C 0.38849 1.001 0.26394 0.0
C1854 C 0.37112 0.07904 0.26801 0.0
C1855 C 0.37929 0.14898 0.20331 0.0
C1856 C 0.37854 0.11597 0.21876 0.0
C1857 C 0.37694 0.0207 0.26525 0.0
C1858 C 0.3774 0.0535 0.24913 0.0
H1859 H 0.40194 0.20104 0.16413 0.0
H1860 H 0.40033 0.14569 0.18511 0.0
H1861 H 0.36699 0.12908 0.26882 0.0
H1862 H 0.35501 0.96882 0.30779 0.0
H1863 H 0.35583 0.02315 0.283 0.0
C1864 C 0.86968 0.80817 0.68981 0.0
C1865 C 0.88196 0.79454 0.67739 0.0
C1866 C 0.86917 0.83997 0.70143 0.0
C1867 C 0.8912 0.90333 0.73951 0.0
H1868 H 0.85999 0.95732 0.71964 0.0
C1869 C 0.88965 0.0364 0.78195 0.0
C1870 C 0.87731 0.04875 0.7958 0.0
C1871 C 0.8903 0.0055 0.7673 0.0
C1872 C 0.86871 0.94242 0.72583 0.0
H1873 H 0.90324 0.8041 0.66594 0.0
H1874 H 0.90233 0.85986 0.68589 0.0
H1875 H 0.86105 0.90421 0.6917 0.0
H1876 H 0.85606 0.03791 0.80601 0.0
H1877 H 0.85724 0.98376 0.78079 0.0
H1878 H 0.89882 0.94145 0.7738 0.0
C1879 C 0.89312 0.84571 0.68717 0.0
C1880 C 0.86934 0.912 0.7097 0.0
C1881 C 0.89362 0.81384 0.67542 0.0
C1882 C 0.86571 0.02918 0.79544 0.0
C1883 C 0.86636 0.99822 0.78071 0.0
C1884 C 0.89057 0.93375 0.75563 0.0
C1885 C 0.88094 0.85899 0.70096 0.0
C1886 C 0.88057 0.89201 0.71646 0.0
C1887 C 0.87865 0.98611 0.76612 0.0
C1888 C 0.87929 0.95364 0.74912 0.0
H1889 H 0.86049 0.79401 0.69166 0.0
H1890 H 0.85964 0.84927 0.71216 0.0
H1891 H 0.89988 0.88838 0.74588 0.0
H1892 H 0.89878 0.05082 0.78172 0.0
H1893 H 0.8999 0.9971 0.75597 0.0
C1894 C 0.64278 0.19864 0.19172 0.0
C1895 C 0.63054 0.21159 0.17802 0.0
C1896 C 0.64346 0.16686 0.20338 0.0
C1897 C 0.62159 0.10226 0.23911 0.0
H1898 H 0.65341 0.04967 0.22159 0.0
C1899 C 0.6234 0.96904 0.28014 0.0
C1900 C 0.63562 0.95679 0.29483 0.0
C1901 C 0.62278 1.00004 0.26579 0.0
C1902 C 0.64452 0.06417 0.22715 0.0
H1903 H 0.60952 0.20085 0.1644 0.0
H1904 H 0.61073 0.14516 0.18447 0.0
H1905 H 0.65228 0.10296 0.19415 0.0
H1906 H 0.65674 0.96789 0.30677 0.0
H1907 H 0.65562 0.02225 0.28211 0.0
H1908 H 0.61386 0.06361 0.27231 0.0
C1909 C 0.61977 0.15981 0.18669 0.0
C1910 C 0.64385 0.0947 0.2113 0.0
C1911 C 0.6191 0.19164 0.17489 0.0
C1912 C 0.64717 0.97654 0.29553 0.0
C1913 C 0.64655 0.00763 0.28114 0.0
C1914 C 0.62227 0.07176 0.25499 0.0
C1915 C 0.6319 0.14719 0.2017 0.0
C1916 C 0.63239 0.11416 0.21714 0.0
C1917 C 0.63437 0.01966 0.26579 0.0
C1918 C 0.63375 0.05233 0.24927 0.0
H1919 H 0.6518 0.2133 0.19449 0.0
H1920 H 0.65293 0.15806 0.21506 0.0
H1921 H 0.61273 0.1168 0.2448 0.0
H1922 H 0.6143 0.95449 0.27905 0.0
H1923 H 0.61327 0.00834 0.25382 0.0
C1924 C 0.88932 0.97007 0.23197 0.0
C1925 C 0.8772 0.95764 0.21681 0.0
C1926 C 0.88978 1.00106 0.24639 0.0
C1927 C 0.87186 0.0786 0.24463 0.0
H1928 H 0.89161 0.09349 0.33821 0.0
C1929 C 0.86933 0.19946 0.32126 0.0
C1930 C 0.88166 0.21218 0.33463 0.0
C1931 C 0.86856 0.16785 0.30906 0.0
C1932 C 0.88616 0.0898 0.31189 0.0
H1933 H 0.8561 0.96838 0.20419 0.0
H1934 H 0.85687 0.02249 0.22959 0.0
H1935 H 0.89076 0.03994 0.31137 0.0
H1936 H 0.90275 0.2012 0.3471 0.0
H1937 H 0.90142 0.14593 0.3256 0.0
H1938 H 0.8673 0.12843 0.24506 0.0
C1939 C 0.86606 0.00829 0.23008 0.0
C1940 C 0.88568 0.0591 0.29645 0.0
C1941 C 0.86561 0.97722 0.21563 0.0
C1942 C 0.89309 0.19213 0.33702 0.0
C1943 C 0.89231 0.16042 0.32475 0.0
C1944 C 0.87234 0.10927 0.26007 0.0
C1945 C 0.87812 0.02047 0.24602 0.0
C1946 C 0.87855 0.05312 0.26257 0.0
C1947 C 0.8801 0.14811 0.30986 0.0
C1948 C 0.87949 0.11527 0.29389 0.0
H1949 H 0.89847 0.95572 0.23317 0.0
H1950 H 0.8993 0.00985 0.25779 0.0
H1951 H 0.86646 0.07498 0.21822 0.0
H1952 H 0.86029 0.21415 0.31932 0.0
H1953 H 0.85892 0.15897 0.29855 0.0
C1954 C 0.64182 0.80808 0.82514 0.0
C1955 C 0.62948 0.79422 0.83675 0.0
C1956 C 0.6423 0.83981 0.81326 0.0
C1957 C 0.62034 0.90255 0.77317 0.0
H1958 H 0.65127 0.95713 0.79419 0.0
C1959 C 0.62187 0.03544 0.72971 0.0
C1960 C 0.63426 0.04784 0.71631 0.0
C1961 C 0.62118 0.00461 0.74458 0.0
C1962 C 0.64263 0.94206 0.78768 0.0
H1963 H 0.60806 0.80336 0.84651 0.0
H1964 H 0.60893 0.85902 0.82616 0.0
H1965 H 0.65015 0.90421 0.82258 0.0
H1966 H 0.65559 0.03715 0.70717 0.0
H1967 H 0.65436 0.98314 0.7328 0.0
H1968 H 0.61286 0.94035 0.73815 0.0
C1969 C 0.6182 0.84509 0.82568 0.0
C1970 C 0.64197 0.91174 0.80406 0.0
C1971 C 0.61772 0.81327 0.83767 0.0
C1972 C 0.6459 0.02838 0.71735 0.0
C1973 C 0.64521 0.99751 0.73232 0.0
C1974 C 0.621 0.93288 0.75682 0.0
C1975 C 0.63046 0.85857 0.81266 0.0
C1976 C 0.63084 0.89152 0.79688 0.0
C1977 C 0.63286 0.98536 0.74646 0.0
C1978 C 0.63219 0.95298 0.76373 0.0
H1979 H 0.65108 0.79413 0.8241 0.0
H1980 H 0.65189 0.84925 0.80313 0.0
H1981 H 0.61174 0.88743 0.76645 0.0
H1982 H 0.61271 0.04977 0.72941 0.0
H1983 H 0.61154 0.99618 0.75553 0.0
C1984 C 0.61893 0.69238 0.33729 0.0
C1985 C 0.63034 0.71228 0.33321 0.0
C1986 C 0.61949 0.66047 0.32571 0.0
C1987 C 0.64335 0.59522 0.3002 0.0
H1988 H 0.61295 0.56391 0.24085 0.0
C1989 C 0.64624 0.4771 0.21598 0.0
C1990 C 0.63473 0.45724 0.21725 0.0
C1991 C 0.64566 0.50817 0.23038 0.0
C1992 C 0.62147 0.57212 0.25771 0.0
H1993 H 0.65145 0.71387 0.31531 0.0
H1994 H 0.65239 0.65851 0.29516 0.0
H1995 H 0.61199 0.61718 0.26823 0.0
H1996 H 0.61352 0.45473 0.23401 0.0
H1997 H 0.61255 0.5086 0.25926 0.0
H1998 H 0.65285 0.55018 0.28958 0.0
C1999 C 0.64303 0.66739 0.30739 0.0
C2000 C 0.6209 0.60266 0.27351 0.0
C2001 C 0.64246 0.69924 0.3188 0.0
C2002 C 0.62257 0.46938 0.23248 0.0
C2003 C 0.622 0.50038 0.24685 0.0
C2004 C 0.64391 0.56465 0.28444 0.0
C2005 C 0.63148 0.64776 0.31002 0.0
C2006 C 0.63185 0.61465 0.29484 0.0
C2007 C 0.63355 0.5201 0.24632 0.0
C2008 C 0.633 0.55274 0.26288 0.0
H2009 H 0.60945 0.70166 0.34835 0.0
H2010 H 0.61047 0.64585 0.32865 0.0
H2011 H 0.65189 0.60355 0.31686 0.0
H2012 H 0.65575 0.46853 0.20431 0.0
H2013 H 0.6547 0.52288 0.22897 0.0
C2014 C 0.86554 0.52862 0.71567 0.0
C2015 C 0.87698 0.54869 0.71689 0.0
C2016 C 0.86621 0.49765 0.73034 0.0
C2017 C 0.89048 0.43414 0.75819 0.0
H2018 H 0.86021 0.40309 0.81815 0.0
C2019 C 0.8932 0.31413 0.83827 0.0
C2020 C 0.88172 0.29435 0.8349 0.0
C2021 C 0.89264 0.34598 0.82649 0.0
C2022 C 0.86871 0.4113 0.80126 0.0
H2023 H 0.89818 0.55165 0.73376 0.0
H2024 H 0.8993 0.49791 0.7594 0.0
H2025 H 0.85918 0.45624 0.79036 0.0
H2026 H 0.8605 0.29295 0.81801 0.0
H2027 H 0.85956 0.34817 0.79743 0.0
H2028 H 0.89999 0.38914 0.76888 0.0
C2029 C 0.88984 0.50592 0.74688 0.0
C2030 C 0.8681 0.44175 0.78521 0.0
C2031 C 0.88917 0.53684 0.73229 0.0
C2032 C 0.86955 0.30748 0.82097 0.0
C2033 C 0.86898 0.33926 0.80931 0.0
C2034 C 0.8911 0.40369 0.77422 0.0
C2035 C 0.87833 0.48603 0.74646 0.0
C2036 C 0.87896 0.45352 0.76336 0.0
C2037 C 0.88058 0.35877 0.81125 0.0
C2038 C 0.8802 0.39182 0.79584 0.0
H2039 H 0.85601 0.53695 0.70388 0.0
H2040 H 0.85721 0.48278 0.72902 0.0
H2041 H 0.89896 0.44227 0.74113 0.0
H2042 H 0.90273 0.30478 0.84894 0.0
H2043 H 0.90171 0.3605 0.82892 0.0
C2044 C 0.61809 0.31289 0.67544 0.0
C2045 C 0.62968 0.2933 0.6763 0.0
C2046 C 0.6188 0.34455 0.68798 0.0
C2047 C 0.6393 0.39594 0.75109 0.0
H2048 H 0.61989 0.46513 0.70244 0.0
C2049 C 0.64622 0.52779 0.79599 0.0
C2050 C 0.63462 0.54736 0.79588 0.0
C2051 C 0.64562 0.49676 0.78145 0.0
C2052 C 0.62525 0.446 0.71665 0.0
H2053 H 0.65127 0.29214 0.68912 0.0
H2054 H 0.65253 0.34719 0.7104 0.0
H2055 H 0.6189 0.41172 0.67522 0.0
H2056 H 0.61318 0.54926 0.78137 0.0
H2057 H 0.6121 0.49518 0.75665 0.0
H2058 H 0.6456 0.43008 0.79263 0.0
C2059 C 0.64281 0.33799 0.70088 0.0
C2060 C 0.62469 0.41538 0.70098 0.0
C2061 C 0.64211 0.30645 0.68838 0.0
C2062 C 0.62234 0.53493 0.78173 0.0
C2063 C 0.62174 0.50395 0.76724 0.0
C2064 C 0.63985 0.42651 0.76678 0.0
C2065 C 0.63112 0.35725 0.70164 0.0
C2066 C 0.63173 0.38997 0.71797 0.0
C2067 C 0.6334 0.48457 0.7665 0.0
C2068 C 0.63283 0.45196 0.74979 0.0
H2069 H 0.60835 0.30349 0.66638 0.0
H2070 H 0.60958 0.35867 0.68833 0.0
H2071 H 0.64465 0.37681 0.76534 0.0
H2072 H 0.65585 0.53663 0.80662 0.0
H2073 H 0.65484 0.48262 0.78106 0.0
C2074 C 0.86578 0.47691 0.29653 0.0
C2075 C 0.87734 0.4572 0.29599 0.0
C2076 C 0.8664 0.50798 0.28215 0.0
C2077 C 0.89064 0.57225 0.25634 0.0
H2078 H 0.86069 0.60312 0.19494 0.0
C2079 C 0.89371 0.6922 0.1764 0.0
C2080 C 0.88224 0.71201 0.17941 0.0
C2081 C 0.89309 0.66034 0.18813 0.0
C2082 C 0.8691 0.59495 0.21224 0.0
H2083 H 0.89869 0.45498 0.28057 0.0
H2084 H 0.89973 0.50885 0.25537 0.0
H2085 H 0.85961 0.54981 0.22236 0.0
H2086 H 0.86095 0.71348 0.19556 0.0
H2087 H 0.85988 0.65819 0.21599 0.0
H2088 H 0.90011 0.6174 0.24633 0.0
C2089 C 0.8902 0.50051 0.26718 0.0
C2090 C 0.86846 0.56442 0.22807 0.0
C2091 C 0.88959 0.4695 0.28152 0.0
C2092 C 0.86999 0.69891 0.19289 0.0
C2093 C 0.86936 0.66711 0.20447 0.0
C2094 C 0.89128 0.60276 0.24047 0.0
C2095 C 0.8786 0.52007 0.26697 0.0
C2096 C 0.87921 0.5527 0.25041 0.0
C2097 C 0.88096 0.64758 0.20293 0.0
C2098 C 0.88051 0.61454 0.21831 0.0
H2099 H 0.85619 0.46821 0.3076 0.0
H2100 H 0.85731 0.52257 0.28297 0.0
H2101 H 0.89902 0.56419 0.27381 0.0
H2102 H 0.9033 0.70152 0.16608 0.0
H2103 H 0.90216 0.6458 0.18601 0.0
C2104 C 0.3648 0.52915 0.79448 0.0
C2105 C 0.37644 0.54858 0.79524 0.0
C2106 C 0.36546 0.49816 0.77986 0.0
C2107 C 0.38629 0.44737 0.71627 0.0
H2108 H 0.36616 0.37833 0.76292 0.0
C2109 C 0.39331 0.31426 0.67481 0.0
C2110 C 0.38162 0.29496 0.67454 0.0
C2111 C 0.39261 0.34588 0.68746 0.0
C2112 C 0.37172 0.39742 0.74923 0.0
H2113 H 0.39801 0.55027 0.78227 0.0
H2114 H 0.39919 0.49623 0.75745 0.0
H2115 H 0.36516 0.43147 0.79055 0.0
H2116 H 0.35989 0.29433 0.68544 0.0
H2117 H 0.35867 0.34933 0.70693 0.0
H2118 H 0.39291 0.41315 0.67509 0.0
C2119 C 0.38948 0.5051 0.76738 0.0
C2120 C 0.37114 0.42792 0.76512 0.0
C2121 C 0.38882 0.53604 0.78194 0.0
C2122 C 0.36913 0.3084 0.68557 0.0
C2123 C 0.36844 0.33991 0.6982 0.0
C2124 C 0.38689 0.41682 0.70042 0.0
C2125 C 0.37778 0.48587 0.76572 0.0
C2126 C 0.37842 0.45331 0.74886 0.0
C2127 C 0.38021 0.35884 0.70012 0.0
C2128 C 0.37958 0.39148 0.71666 0.0
H2129 H 0.3551 0.53808 0.80443 0.0
H2130 H 0.35622 0.48414 0.77874 0.0
H2131 H 0.39185 0.46645 0.70262 0.0
H2132 H 0.4031 0.30462 0.66657 0.0
H2133 H 0.40189 0.35976 0.68871 0.0
C2134 C 0.14289 0.69518 0.1913 0.0
C2135 C 0.13095 0.70783 0.17536 0.0
C2136 C 0.14348 0.66331 0.20254 0.0
C2137 C 0.12123 0.59804 0.23352 0.0
H2138 H 0.15369 0.54652 0.22152 0.0
C2139 C 0.12317 0.46519 0.27608 0.0
C2140 C 0.13518 0.45367 0.29283 0.0
C2141 C 0.12258 0.49603 0.26129 0.0
C2142 C 0.14461 0.56073 0.22552 0.0
H2143 H 0.11043 0.69655 0.15722 0.0
H2144 H 0.11148 0.64067 0.17667 0.0
H2145 H 0.15283 0.59972 0.19376 0.0
H2146 H 0.1559 0.46589 0.30811 0.0
H2147 H 0.15483 0.51998 0.28273 0.0
H2148 H 0.11305 0.55924 0.26559 0.0
C2149 C 0.12034 0.65562 0.18091 0.0
C2150 C 0.14409 0.59117 0.20946 0.0
C2151 C 0.11977 0.68754 0.16949 0.0
C2152 C 0.14651 0.47398 0.29523 0.0
C2153 C 0.14593 0.5049 0.28043 0.0
C2154 C 0.12175 0.56763 0.24962 0.0
C2155 C 0.13212 0.6433 0.1982 0.0
C2156 C 0.13242 0.61024 0.21341 0.0
C2157 C 0.13399 0.51618 0.26294 0.0
C2158 C 0.13346 0.54863 0.24595 0.0
H2159 H 0.1517 0.71012 0.19616 0.0
H2160 H 0.15267 0.6547 0.21602 0.0
H2161 H 0.11218 0.61232 0.23768 0.0
H2162 H 0.11425 0.45017 0.27367 0.0
H2163 H 0.11328 0.50378 0.24768 0.0
C2164 C 0.3926 0.6927 0.33601 0.0
C2165 C 0.38118 0.71258 0.332 0.0
C2166 C 0.39205 0.6608 0.3244 0.0
C2167 C 0.36821 0.59546 0.29894 0.0
H2168 H 0.3986 0.56432 0.23951 0.0
C2169 C 0.36548 0.47711 0.21496 0.0
C2170 C 0.37704 0.45742 0.21618 0.0
C2171 C 0.36599 0.50821 0.22933 0.0
C2172 C 0.39009 0.57248 0.25639 0.0
H2173 H 0.36006 0.71412 0.31422 0.0
H2174 H 0.35912 0.65876 0.29403 0.0
H2175 H 0.39952 0.61761 0.26684 0.0
H2176 H 0.39827 0.45524 0.23288 0.0
H2177 H 0.39912 0.50911 0.25808 0.0
H2178 H 0.35876 0.55034 0.2884 0.0
C2179 C 0.36849 0.66766 0.30621 0.0
C2180 C 0.39063 0.60303 0.27216 0.0
C2181 C 0.36906 0.69951 0.31765 0.0
C2182 C 0.38917 0.46974 0.23138 0.0
C2183 C 0.38969 0.50076 0.24571 0.0
C2184 C 0.36767 0.56487 0.28321 0.0
C2185 C 0.38004 0.64806 0.30876 0.0
C2186 C 0.37969 0.61495 0.29354 0.0
C2187 C 0.37808 0.52032 0.24518 0.0
C2188 C 0.37859 0.55302 0.26164 0.0
H2189 H 0.40209 0.702 0.34702 0.0
H2190 H 0.40107 0.6462 0.32729 0.0
H2191 H 0.35967 0.60375 0.31563 0.0
H2192 H 0.35598 0.4684 0.20332 0.0
H2193 H 0.35692 0.52279 0.22794 0.0
C2194 C 0.14141 0.30533 0.81326 0.0
C2195 C 0.12945 0.29274 0.82917 0.0
C2196 C 0.142 0.33714 0.80175 0.0
C2197 C 0.11979 0.40273 0.77075 0.0
H2198 H 0.1524 0.4538 0.78244 0.0
C2199 C 0.12199 0.53594 0.72933 0.0
C2200 C 0.13397 0.54733 0.71231 0.0
C2201 C 0.12135 0.50498 0.7438 0.0
C2202 C 0.14327 0.43972 0.77853 0.0
H2203 H 0.10889 0.30411 0.84689 0.0
H2204 H 0.10998 0.35988 0.82706 0.0
H2205 H 0.15148 0.40054 0.80998 0.0
H2206 H 0.15458 0.53476 0.69625 0.0
H2207 H 0.1534 0.48052 0.72115 0.0
H2208 H 0.11161 0.44181 0.7391 0.0
C2209 C 0.11883 0.34493 0.82299 0.0
C2210 C 0.14273 0.40922 0.79444 0.0
C2211 C 0.11825 0.31305 0.83465 0.0
C2212 C 0.14521 0.52678 0.70933 0.0
C2213 C 0.14457 0.49577 0.72386 0.0
C2214 C 0.12034 0.43323 0.75483 0.0
C2215 C 0.13065 0.3572 0.80581 0.0
C2216 C 0.131 0.39029 0.79061 0.0
C2217 C 0.13267 0.4846 0.74162 0.0
C2218 C 0.1321 0.45206 0.7584 0.0
H2219 H 0.15024 0.29037 0.80867 0.0
H2220 H 0.15122 0.34567 0.78834 0.0
H2221 H 0.11069 0.3886 0.76667 0.0
H2222 H 0.11315 0.55114 0.73218 0.0
H2223 H 0.11207 0.49732 0.75761 0.0
loop_
_geom_bond_atom_site_label_1
_geom_bond_atom_site_label_2
_geom_bond_distance
_geom_bond_site_symmetry_2
_ccdc_geom_bond_type
Zn0 N4 2.020 . S
Zn0 O8 2.019 . S
Zn0 N10 2.119 . S
Zn0 O18 1.975 . S
C1 N2 1.334 . S
C1 N5 1.336 . S
N2 C1 1.334 . S
N2 C3 1.334 . S
C3 N2 1.334 . S
C3 N4 1.336 . S
N4 Zn0 2.020 . S
N4 C3 1.336 . S
N4 N5 1.354 . S
N5 C1 1.336 . S
N5 N4 1.354 . S
N5 Zn9 2.020 . S
C6 O7 1.244 . S
C6 O30 1.257 . S
O7 C6 1.244 . S
O8 Zn0 2.019 . S
O8 C28 1.257 . S
Zn9 N5 2.020 . S
Zn9 O16 1.975 . S
Zn9 N25 2.119 . S
Zn9 O30 2.019 . S
N10 Zn0 2.119 . S
N10 C12 1.334 . S
N10 C13 1.328 . S
C11 C12 1.391 . S
C11 N14 1.329 . S
C11 H32 0.930 . S
C12 N10 1.334 . S
C12 C11 1.391 . S
C12 H19 0.930 . S
C13 N10 1.328 . S
C13 C15 1.392 . S
C13 H20 0.930 . S
N14 C11 1.329 . S
N14 C15 1.331 . S
C15 C13 1.392 . S
C15 N14 1.331 . S
O16 Zn9 1.975 . S
O16 C17 1.252 . S
C17 O16 1.252 . S
C17 O18 1.252 . S
O18 Zn0 1.975 . S
O18 C17 1.252 . S
H19 C12 0.930 . S
H20 C13 0.930 . S
C21 C22 1.392 . S
C21 N25 1.328 . S
C21 H27 0.930 . S
C22 C21 1.392 . S
C22 N26 1.331 . S
C23 C24 1.391 . S
C23 N26 1.329 . S
C23 H33 0.930 . S
C24 C23 1.391 . S
C24 N25 1.334 . S
C24 H31 0.930 . S
N25 Zn9 2.119 . S
N25 C21 1.328 . S
N25 C24 1.334 . S
N26 C22 1.331 . S
N26 C23 1.329 . S
H27 C21 0.930 . S
C28 O8 1.257 . S
C28 O29 1.244 . S
O29 C28 1.244 . S
O30 C6 1.257 . S
O30 Zn9 2.019 . S
H31 C24 0.930 . S
H32 C11 0.930 . S
H33 C23 0.930 . S
Zn34 N38 2.020 . S
Zn34 O42 2.019 . S
Zn34 N44 2.119 . S
Zn34 O52 1.975 . S
C35 N36 1.334 . S
C35 N39 1.336 . S
N36 C35 1.334 . S
N36 C37 1.334 . S
C37 N36 1.334 . S
C37 N38 1.336 . S
N38 Zn34 2.020 . S
N38 C37 1.336 . S
N38 N39 1.354 . S
N39 C35 1.336 . S
N39 N38 1.354 . S
N39 Zn43 2.020 . S
C40 O41 1.244 . S
C40 O64 1.257 . S
O41 C40 1.244 . S
O42 Zn34 2.019 . S
O42 C62 1.257 . S
Zn43 N39 2.020 . S
Zn43 O50 1.975 . S
Zn43 N59 2.119 . S
Zn43 O64 2.019 . S
N44 Zn34 2.119 . S
N44 C46 1.334 . S
N44 C47 1.328 . S
C45 C46 1.391 . S
C45 N48 1.329 . S
C45 H66 0.930 . S
C46 N44 1.334 . S
C46 C45 1.391 . S
C46 H53 0.930 . S
C47 N44 1.328 . S
C47 C49 1.392 . S
C47 H54 0.930 . S
N48 C45 1.329 . S
N48 C49 1.331 . S
C49 C47 1.392 . S
C49 N48 1.331 . S
O50 Zn43 1.975 . S
O50 C51 1.252 . S
C51 O50 1.252 . S
C51 O52 1.252 . S
O52 Zn34 1.975 . S
O52 C51 1.252 . S
H53 C46 0.930 . S
H54 C47 0.930 . S
C55 C56 1.392 . S
C55 N59 1.328 . S
C55 H61 0.930 . S
C56 C55 1.392 . S
C56 N60 1.331 . S
C57 C58 1.391 . S
C57 N60 1.329 . S
C57 H67 0.930 . S
C58 C57 1.391 . S
C58 N59 1.334 . S
C58 H65 0.930 . S
N59 Zn43 2.119 . S
N59 C55 1.328 . S
N59 C58 1.334 . S
N60 C56 1.331 . S
N60 C57 1.329 . S
H61 C55 0.930 . S
C62 O42 1.257 . S
C62 O63 1.244 . S
O63 C62 1.244 . S
O64 C40 1.257 . S
O64 Zn43 2.019 . S
H65 C58 0.930 . S
H66 C45 0.930 . S
H67 C57 0.930 . S
Zn68 N72 2.020 . S
Zn68 O76 2.019 . S
Zn68 N78 2.119 . S
Zn68 O86 1.975 . S
C69 N70 1.334 . S
C69 N73 1.336 . S
N70 C69 1.334 . S
N70 C71 1.334 . S
C71 N70 1.334 . S
C71 N72 1.336 . S
N72 Zn68 2.020 . S
N72 C71 1.336 . S
N72 N73 1.354 . S
N73 C69 1.336 . S
N73 N72 1.354 . S
N73 Zn77 2.020 . S
C74 O75 1.244 . S
C74 O98 1.257 . S
O75 C74 1.244 . S
O76 Zn68 2.019 . S
O76 C96 1.257 . S
Zn77 N73 2.020 . S
Zn77 O84 1.975 . S
Zn77 N93 2.119 . S
Zn77 O98 2.019 . S
N78 Zn68 2.119 . S
N78 C80 1.334 . S
N78 C81 1.328 . S
C79 C80 1.391 . S
C79 N82 1.329 . S
C79 H100 0.930 . S
C80 N78 1.334 . S
C80 C79 1.391 . S
C80 H87 0.930 . S
C81 N78 1.328 . S
C81 C83 1.392 . S
C81 H88 0.930 . S
N82 C79 1.329 . S
N82 C83 1.331 . S
C83 C81 1.392 . S
C83 N82 1.331 . S
O84 Zn77 1.975 . S
O84 C85 1.252 . S
C85 O84 1.252 . S
C85 O86 1.252 . S
O86 Zn68 1.975 . S
O86 C85 1.252 . S
H87 C80 0.930 . S
H88 C81 0.930 . S
C89 C90 1.392 . S
C89 N93 1.328 . S
C89 H95 0.930 . S
C90 C89 1.392 . S
C90 N94 1.331 . S
C91 C92 1.391 . S
C91 N94 1.329 . S
C91 H101 0.930 . S
C92 C91 1.391 . S
C92 N93 1.334 . S
C92 H99 0.930 . S
N93 Zn77 2.119 . S
N93 C89 1.328 . S
N93 C92 1.334 . S
N94 C90 1.331 . S
N94 C91 1.329 . S
H95 C89 0.930 . S
C96 O76 1.257 . S
C96 O97 1.244 . S
O97 C96 1.244 . S
O98 C74 1.257 . S
O98 Zn77 2.019 . S
H99 C92 0.930 . S
H100 C79 0.930 . S
H101 C91 0.930 . S
Zn102 N106 2.020 . S
Zn102 O110 2.019 . S
Zn102 N112 2.119 . S
Zn102 O120 1.975 . S
C103 N104 1.334 . S
C103 N107 1.336 . S
N104 C103 1.334 . S
N104 C105 1.334 . S
C105 N104 1.334 . S
C105 N106 1.336 . S
N106 Zn102 2.020 . S
N106 C105 1.336 . S
N106 N107 1.354 . S
N107 C103 1.336 . S
N107 N106 1.354 . S
N107 Zn111 2.020 . S
C108 O109 1.244 . S
C108 O132 1.257 . S
O109 C108 1.244 . S
O110 Zn102 2.019 . S
O110 C130 1.257 . S
Zn111 N107 2.020 . S
Zn111 O118 1.975 . S
Zn111 N127 2.119 . S
Zn111 O132 2.019 . S
N112 Zn102 2.119 . S
N112 C114 1.334 . S
N112 C115 1.328 . S
C113 C114 1.391 . S
C113 N116 1.329 . S
C113 H134 0.930 . S
C114 N112 1.334 . S
C114 C113 1.391 . S
C114 H121 0.930 . S
C115 N112 1.328 . S
C115 C117 1.392 . S
C115 H122 0.930 . S
N116 C113 1.329 . S
N116 C117 1.331 . S
C117 C115 1.392 . S
C117 N116 1.331 . S
O118 Zn111 1.975 . S
O118 C119 1.252 . S
C119 O118 1.252 . S
C119 O120 1.252 . S
O120 Zn102 1.975 . S
O120 C119 1.252 . S
H121 C114 0.930 . S
H122 C115 0.930 . S
C123 C124 1.392 . S
C123 N127 1.328 . S
C123 H129 0.930 . S
C124 C123 1.392 . S
C124 N128 1.331 . S
C125 C126 1.391 . S
C125 N128 1.329 . S
C125 H135 0.930 . S
C126 C125 1.391 . S
C126 N127 1.334 . S
C126 H133 0.930 . S
N127 Zn111 2.119 . S
N127 C123 1.328 . S
N127 C126 1.334 . S
N128 C124 1.331 . S
N128 C125 1.329 . S
H129 C123 0.930 . S
C130 O110 1.257 . S
C130 O131 1.244 . S
O131 C130 1.244 . S
O132 C108 1.257 . S
O132 Zn111 2.019 . S
H133 C126 0.930 . S
H134 C113 0.930 . S
H135 C125 0.930 . S
Zn136 N140 2.020 . S
Zn136 O144 2.019 . S
Zn136 N146 2.119 . S
Zn136 O154 1.975 . S
C137 N138 1.334 . S
C137 N141 1.336 . S
N138 C137 1.334 . S
N138 C139 1.334 . S
C139 N138 1.334 . S
C139 N140 1.336 . S
N140 Zn136 2.020 . S
N140 C139 1.336 . S
N140 N141 1.354 . S
N141 C137 1.336 . S
N141 N140 1.354 . S
N141 Zn145 2.020 . S
C142 O143 1.244 . S
C142 O166 1.257 . S
O143 C142 1.244 . S
O144 Zn136 2.019 . S
O144 C164 1.257 . S
Zn145 N141 2.020 . S
Zn145 O152 1.975 . S
Zn145 N161 2.119 . S
Zn145 O166 2.019 . S
N146 Zn136 2.119 . S
N146 C148 1.334 . S
N146 C149 1.328 . S
C147 C148 1.391 . S
C147 N150 1.329 . S
C147 H168 0.930 . S
C148 N146 1.334 . S
C148 C147 1.391 . S
C148 H155 0.930 . S
C149 N146 1.328 . S
C149 C151 1.392 . S
C149 H156 0.930 . S
N150 C147 1.329 . S
N150 C151 1.331 . S
C151 C149 1.392 . S
C151 N150 1.331 . S
O152 Zn145 1.975 . S
O152 C153 1.252 . S
C153 O152 1.252 . S
C153 O154 1.252 . S
O154 Zn136 1.975 . S
O154 C153 1.252 . S
H155 C148 0.930 . S
H156 C149 0.930 . S
C157 C158 1.392 . S
C157 N161 1.328 . S
C157 H163 0.930 . S
C158 C157 1.392 . S
C158 N162 1.331 . S
C159 C160 1.391 . S
C159 N162 1.329 . S
C159 H169 0.930 . S
C160 C159 1.391 . S
C160 N161 1.334 . S
C160 H167 0.930 . S
N161 Zn145 2.119 . S
N161 C157 1.328 . S
N161 C160 1.334 . S
N162 C158 1.331 . S
N162 C159 1.329 . S
H163 C157 0.930 . S
C164 O144 1.257 . S
C164 O165 1.244 . S
O165 C164 1.244 . S
O166 C142 1.257 . S
O166 Zn145 2.019 . S
H167 C160 0.930 . S
H168 C147 0.930 . S
H169 C159 0.930 . S
Zn170 N174 2.020 . S
Zn170 O178 2.019 . S
Zn170 N180 2.119 . S
Zn170 O188 1.975 . S
C171 N172 1.334 . S
C171 N175 1.336 . S
N172 C171 1.334 . S
N172 C173 1.334 . S
C173 N172 1.334 . S
C173 N174 1.336 . S
N174 Zn170 2.020 . S
N174 C173 1.336 . S
N174 N175 1.354 . S
N175 C171 1.336 . S
N175 N174 1.354 . S
N175 Zn179 2.020 . S
C176 O177 1.244 . S
C176 O200 1.257 . S
O177 C176 1.244 . S
O178 Zn170 2.019 . S
O178 C198 1.257 . S
Zn179 N175 2.020 . S
Zn179 O186 1.975 . S
Zn179 N195 2.119 . S
Zn179 O200 2.019 . S
N180 Zn170 2.119 . S
N180 C182 1.334 . S
N180 C183 1.328 . S
C181 C182 1.391 . S
C181 N184 1.329 . S
C181 H202 0.930 . S
C182 N180 1.334 . S
C182 C181 1.391 . S
C182 H189 0.930 . S
C183 N180 1.328 . S
C183 C185 1.392 . S
C183 H190 0.930 . S
N184 C181 1.329 . S
N184 C185 1.331 . S
C185 C183 1.392 . S
C185 N184 1.331 . S
O186 Zn179 1.975 . S
O186 C187 1.252 . S
C187 O186 1.252 . S
C187 O188 1.252 . S
O188 Zn170 1.975 . S
O188 C187 1.252 . S
H189 C182 0.930 . S
H190 C183 0.930 . S
C191 C192 1.392 . S
C191 N195 1.328 . S
C191 H197 0.930 . S
C192 C191 1.392 . S
C192 N196 1.331 . S
C193 C194 1.391 . S
C193 N196 1.329 . S
C193 H203 0.930 . S
C194 C193 1.391 . S
C194 N195 1.334 . S
C194 H201 0.930 . S
N195 Zn179 2.119 . S
N195 C191 1.328 . S
N195 C194 1.334 . S
N196 C192 1.331 . S
N196 C193 1.329 . S
H197 C191 0.930 . S
C198 O178 1.257 . S
C198 O199 1.244 . S
O199 C198 1.244 . S
O200 C176 1.257 . S
O200 Zn179 2.019 . S
H201 C194 0.930 . S
H202 C181 0.930 . S
H203 C193 0.930 . S
Zn204 N208 2.020 . S
Zn204 O212 2.019 . S
Zn204 N214 2.119 . S
Zn204 O222 1.975 . S
C205 N206 1.334 . S
C205 N209 1.336 . S
N206 C205 1.334 . S
N206 C207 1.334 . S
C207 N206 1.334 . S
C207 N208 1.336 . S
N208 Zn204 2.020 . S
N208 C207 1.336 . S
N208 N209 1.354 . S
N209 C205 1.336 . S
N209 N208 1.354 . S
N209 Zn213 2.020 . S
C210 O211 1.244 . S
C210 O234 1.257 . S
O211 C210 1.244 . S
O212 Zn204 2.019 . S
O212 C232 1.257 . S
Zn213 N209 2.020 . S
Zn213 O220 1.975 . S
Zn213 N229 2.119 . S
Zn213 O234 2.019 . S
N214 Zn204 2.119 . S
N214 C216 1.334 . S
N214 C217 1.328 . S
C215 C216 1.391 . S
C215 N218 1.329 . S
C215 H236 0.930 . S
C216 N214 1.334 . S
C216 C215 1.391 . S
C216 H223 0.930 . S
C217 N214 1.328 . S
C217 C219 1.392 . S
C217 H224 0.930 . S
N218 C215 1.329 . S
N218 C219 1.331 . S
C219 C217 1.392 . S
C219 N218 1.331 . S
O220 Zn213 1.975 . S
O220 C221 1.252 . S
C221 O220 1.252 . S
C221 O222 1.252 . S
O222 Zn204 1.975 . S
O222 C221 1.252 . S
H223 C216 0.930 . S
H224 C217 0.930 . S
C225 C226 1.392 . S
C225 N229 1.328 . S
C225 H231 0.930 . S
C226 C225 1.392 . S
C226 N230 1.331 . S
C227 C228 1.391 . S
C227 N230 1.329 . S
C227 H237 0.930 . S
C228 C227 1.391 . S
C228 N229 1.334 . S
C228 H235 0.930 . S
N229 Zn213 2.119 . S
N229 C225 1.328 . S
N229 C228 1.334 . S
N230 C226 1.331 . S
N230 C227 1.329 . S
H231 C225 0.930 . S
C232 O212 1.257 . S
C232 O233 1.244 . S
O233 C232 1.244 . S
O234 C210 1.257 . S
O234 Zn213 2.019 . S
H235 C228 0.930 . S
H236 C215 0.930 . S
H237 C227 0.930 . S
Zn238 N242 2.020 . S
Zn238 O246 2.019 . S
Zn238 N248 2.119 . S
Zn238 O256 1.975 . S
C239 N240 1.334 . S
C239 N243 1.336 . S
N240 C239 1.334 . S
N240 C241 1.334 . S
C241 N240 1.334 . S
C241 N242 1.336 . S
N242 Zn238 2.020 . S
N242 C241 1.336 . S
N242 N243 1.354 . S
N243 C239 1.336 . S
N243 N242 1.354 . S
N243 Zn247 2.020 . S
C244 O245 1.244 . S
C244 O268 1.257 . S
O245 C244 1.244 . S
O246 Zn238 2.019 . S
O246 C266 1.257 . S
Zn247 N243 2.020 . S
Zn247 O254 1.975 . S
Zn247 N263 2.119 . S
Zn247 O268 2.019 . S
N248 Zn238 2.119 . S
N248 C250 1.334 . S
N248 C251 1.328 . S
C249 C250 1.391 . S
C249 N252 1.329 . S
C249 H270 0.930 . S
C250 N248 1.334 . S
C250 C249 1.391 . S
C250 H257 0.930 . S
C251 N248 1.328 . S
C251 C253 1.392 . S
C251 H258 0.930 . S
N252 C249 1.329 . S
N252 C253 1.331 . S
C253 C251 1.392 . S
C253 N252 1.331 . S
O254 Zn247 1.975 . S
O254 C255 1.252 . S
C255 O254 1.252 . S
C255 O256 1.252 . S
O256 Zn238 1.975 . S
O256 C255 1.252 . S
H257 C250 0.930 . S
H258 C251 0.930 . S
C259 C260 1.392 . S
C259 N263 1.328 . S
C259 H265 0.930 . S
C260 C259 1.392 . S
C260 N264 1.331 . S
C261 C262 1.391 . S
C261 N264 1.329 . S
C261 H271 0.930 . S
C262 C261 1.391 . S
C262 N263 1.334 . S
C262 H269 0.930 . S
N263 Zn247 2.119 . S
N263 C259 1.328 . S
N263 C262 1.334 . S
N264 C260 1.331 . S
N264 C261 1.329 . S
H265 C259 0.930 . S
C266 O246 1.257 . S
C266 O267 1.244 . S
O267 C266 1.244 . S
O268 C244 1.257 . S
O268 Zn247 2.019 . S
H269 C262 0.930 . S
H270 C249 0.930 . S
H271 C261 0.930 . S
Zn272 N276 2.020 . S
Zn272 O280 2.019 . S
Zn272 N282 2.119 . S
Zn272 O290 1.975 . S
C273 N274 1.334 . S
C273 N277 1.336 . S
N274 C273 1.334 . S
N274 C275 1.334 . S
C275 N274 1.334 . S
C275 N276 1.336 . S
N276 Zn272 2.020 . S
N276 C275 1.336 . S
N276 N277 1.354 . S
N277 C273 1.336 . S
N277 N276 1.354 . S
N277 Zn281 2.020 . S
C278 O279 1.244 . S
C278 O302 1.257 . S
O279 C278 1.244 . S
O280 Zn272 2.019 . S
O280 C300 1.257 . S
Zn281 N277 2.020 . S
Zn281 O288 1.975 . S
Zn281 N297 2.119 . S
Zn281 O302 2.019 . S
N282 Zn272 2.119 . S
N282 C284 1.334 . S
N282 C285 1.328 . S
C283 C284 1.391 . S
C283 N286 1.329 . S
C283 H304 0.930 . S
C284 N282 1.334 . S
C284 C283 1.391 . S
C284 H291 0.930 . S
C285 N282 1.328 . S
C285 C287 1.392 . S
C285 H292 0.930 . S
N286 C283 1.329 . S
N286 C287 1.331 . S
C287 C285 1.392 . S
C287 N286 1.331 . S
O288 Zn281 1.975 . S
O288 C289 1.252 . S
C289 O288 1.252 . S
C289 O290 1.252 . S
O290 Zn272 1.975 . S
O290 C289 1.252 . S
H291 C284 0.930 . S
H292 C285 0.930 . S
C293 C294 1.392 . S
C293 N297 1.328 . S
C293 H299 0.930 . S
C294 C293 1.392 . S
C294 N298 1.331 . S
C295 C296 1.391 . S
C295 N298 1.329 . S
C295 H305 0.930 . S
C296 C295 1.391 . S
C296 N297 1.334 . S
C296 H303 0.930 . S
N297 Zn281 2.119 . S
N297 C293 1.328 . S
N297 C296 1.334 . S
N298 C294 1.331 . S
N298 C295 1.329 . S
H299 C293 0.930 . S
C300 O280 1.257 . S
C300 O301 1.244 . S
O301 C300 1.244 . S
O302 C278 1.257 . S
O302 Zn281 2.019 . S
H303 C296 0.930 . S
H304 C283 0.930 . S
H305 C295 0.930 . S
Zn306 N310 2.020 . S
Zn306 O314 2.019 . S
Zn306 N316 2.119 . S
Zn306 O324 1.975 . S
C307 N308 1.334 . S
C307 N311 1.336 . S
N308 C307 1.334 . S
N308 C309 1.334 . S
C309 N308 1.334 . S
C309 N310 1.336 . S
N310 Zn306 2.020 . S
N310 C309 1.336 . S
N310 N311 1.354 . S
N311 C307 1.336 . S
N311 N310 1.354 . S
N311 Zn315 2.020 . S
C312 O313 1.244 . S
C312 O336 1.257 . S
O313 C312 1.244 . S
O314 Zn306 2.019 . S
O314 C334 1.257 . S
Zn315 N311 2.020 . S
Zn315 O322 1.975 . S
Zn315 N331 2.119 . S
Zn315 O336 2.019 . S
N316 Zn306 2.119 . S
N316 C318 1.334 . S
N316 C319 1.328 . S
C317 C318 1.391 . S
C317 N320 1.329 . S
C317 H338 0.930 . S
C318 N316 1.334 . S
C318 C317 1.391 . S
C318 H325 0.930 . S
C319 N316 1.328 . S
C319 C321 1.392 . S
C319 H326 0.930 . S
N320 C317 1.329 . S
N320 C321 1.331 . S
C321 C319 1.392 . S
C321 N320 1.331 . S
O322 Zn315 1.975 . S
O322 C323 1.252 . S
C323 O322 1.252 . S
C323 O324 1.252 . S
O324 Zn306 1.975 . S
O324 C323 1.252 . S
H325 C318 0.930 . S
H326 C319 0.930 . S
C327 C328 1.392 . S
C327 N331 1.328 . S
C327 H333 0.930 . S
C328 C327 1.392 . S
C328 N332 1.331 . S
C329 C330 1.391 . S
C329 N332 1.329 . S
C329 H339 0.930 . S
C330 C329 1.391 . S
C330 N331 1.334 . S
C330 H337 0.930 . S
N331 Zn315 2.119 . S
N331 C327 1.328 . S
N331 C330 1.334 . S
N332 C328 1.331 . S
N332 C329 1.329 . S
H333 C327 0.930 . S
C334 O314 1.257 . S
C334 O335 1.244 . S
O335 C334 1.244 . S
O336 C312 1.257 . S
O336 Zn315 2.019 . S
H337 C330 0.930 . S
H338 C317 0.930 . S
H339 C329 0.930 . S
Zn340 N344 2.020 . S
Zn340 O348 2.019 . S
Zn340 N350 2.119 . S
Zn340 O358 1.975 . S
C341 N342 1.334 . S
C341 N345 1.336 . S
N342 C341 1.334 . S
N342 C343 1.334 . S
C343 N342 1.334 . S
C343 N344 1.336 . S
N344 Zn340 2.020 . S
N344 C343 1.336 . S
N344 N345 1.354 . S
N345 C341 1.336 . S
N345 N344 1.354 . S
N345 Zn349 2.020 . S
C346 O347 1.244 . S
C346 O370 1.257 . S
O347 C346 1.244 . S
O348 Zn340 2.019 . S
O348 C368 1.257 . S
Zn349 N345 2.020 . S
Zn349 O356 1.975 . S
Zn349 N365 2.119 . S
Zn349 O370 2.019 . S
N350 Zn340 2.119 . S
N350 C352 1.334 . S
N350 C353 1.328 . S
C351 C352 1.391 . S
C351 N354 1.329 . S
C351 H372 0.930 . S
C352 N350 1.334 . S
C352 C351 1.391 . S
C352 H359 0.930 . S
C353 N350 1.328 . S
C353 C355 1.392 . S
C353 H360 0.930 . S
N354 C351 1.329 . S
N354 C355 1.331 . S
C355 C353 1.392 . S
C355 N354 1.331 . S
O356 Zn349 1.975 . S
O356 C357 1.252 . S
C357 O356 1.252 . S
C357 O358 1.252 . S
O358 Zn340 1.975 . S
O358 C357 1.252 . S
H359 C352 0.930 . S
H360 C353 0.930 . S
C361 C362 1.392 . S
C361 N365 1.328 . S
C361 H367 0.930 . S
C362 C361 1.392 . S
C362 N366 1.331 . S
C363 C364 1.391 . S
C363 N366 1.329 . S
C363 H373 0.930 . S
C364 C363 1.391 . S
C364 N365 1.334 . S
C364 H371 0.930 . S
N365 Zn349 2.119 . S
N365 C361 1.328 . S
N365 C364 1.334 . S
N366 C362 1.331 . S
N366 C363 1.329 . S
H367 C361 0.930 . S
C368 O348 1.257 . S
C368 O369 1.244 . S
O369 C368 1.244 . S
O370 C346 1.257 . S
O370 Zn349 2.019 . S
H371 C364 0.930 . S
H372 C351 0.930 . S
H373 C363 0.930 . S
Zn374 N378 2.020 . S
Zn374 O382 2.019 . S
Zn374 N384 2.119 . S
Zn374 O392 1.975 . S
C375 N376 1.334 . S
C375 N379 1.336 . S
N376 C375 1.334 . S
N376 C377 1.334 . S
C377 N376 1.334 . S
C377 N378 1.336 . S
N378 Zn374 2.020 . S
N378 C377 1.336 . S
N378 N379 1.354 . S
N379 C375 1.336 . S
N379 N378 1.354 . S
N379 Zn383 2.020 . S
C380 O381 1.244 . S
C380 O404 1.257 . S
O381 C380 1.244 . S
O382 Zn374 2.019 . S
O382 C402 1.257 . S
Zn383 N379 2.020 . S
Zn383 O390 1.975 . S
Zn383 N399 2.119 . S
Zn383 O404 2.019 . S
N384 Zn374 2.119 . S
N384 C386 1.334 . S
N384 C387 1.328 . S
C385 C386 1.391 . S
C385 N388 1.329 . S
C385 H406 0.930 . S
C386 N384 1.334 . S
C386 C385 1.391 . S
C386 H393 0.930 . S
C387 N384 1.328 . S
C387 C389 1.392 . S
C387 H394 0.930 . S
N388 C385 1.329 . S
N388 C389 1.331 . S
C389 C387 1.392 . S
C389 N388 1.331 . S
O390 Zn383 1.975 . S
O390 C391 1.252 . S
C391 O390 1.252 . S
C391 O392 1.252 . S
O392 Zn374 1.975 . S
O392 C391 1.252 . S
H393 C386 0.930 . S
H394 C387 0.930 . S
C395 C396 1.392 . S
C395 N399 1.328 . S
C395 H401 0.930 . S
C396 C395 1.392 . S
C396 N400 1.331 . S
C397 C398 1.391 . S
C397 N400 1.329 . S
C397 H407 0.930 . S
C398 C397 1.391 . S
C398 N399 1.334 . S
C398 H405 0.930 . S
N399 Zn383 2.119 . S
N399 C395 1.328 . S
N399 C398 1.334 . S
N400 C396 1.331 . S
N400 C397 1.329 . S
H401 C395 0.930 . S
C402 O382 1.257 . S
C402 O403 1.244 . S
O403 C402 1.244 . S
O404 C380 1.257 . S
O404 Zn383 2.019 . S
H405 C398 0.930 . S
H406 C385 0.930 . S
H407 C397 0.930 . S
Zn408 N412 2.020 . S
Zn408 O416 2.019 . S
Zn408 N418 2.119 . S
Zn408 O426 1.975 . S
C409 N410 1.334 . S
C409 N413 1.336 . S
N410 C409 1.334 . S
N410 C411 1.334 . S
C411 N410 1.334 . S
C411 N412 1.336 . S
N412 Zn408 2.020 . S
N412 C411 1.336 . S
N412 N413 1.354 . S
N413 C409 1.336 . S
N413 N412 1.354 . S
N413 Zn417 2.020 . S
C414 O415 1.244 . S
C414 O438 1.257 . S
O415 C414 1.244 . S
O416 Zn408 2.019 . S
O416 C436 1.257 . S
Zn417 N413 2.020 . S
Zn417 O424 1.975 . S
Zn417 N433 2.119 . S
Zn417 O438 2.019 . S
N418 Zn408 2.119 . S
N418 C420 1.334 . S
N418 C421 1.328 . S
C419 C420 1.391 . S
C419 N422 1.329 . S
C419 H440 0.930 . S
C420 N418 1.334 . S
C420 C419 1.391 . S
C420 H427 0.930 . S
C421 N418 1.328 . S
C421 C423 1.392 . S
C421 H428 0.930 . S
N422 C419 1.329 . S
N422 C423 1.331 . S
C423 C421 1.392 . S
C423 N422 1.331 . S
O424 Zn417 1.975 . S
O424 C425 1.252 . S
C425 O424 1.252 . S
C425 O426 1.252 . S
O426 Zn408 1.975 . S
O426 C425 1.252 . S
H427 C420 0.930 . S
H428 C421 0.930 . S
C429 C430 1.392 . S
C429 N433 1.328 . S
C429 H435 0.930 . S
C430 C429 1.392 . S
C430 N434 1.331 . S
C431 C432 1.391 . S
C431 N434 1.329 . S
C431 H441 0.930 . S
C432 C431 1.391 . S
C432 N433 1.334 . S
C432 H439 0.930 . S
N433 Zn417 2.119 . S
N433 C429 1.328 . S
N433 C432 1.334 . S
N434 C430 1.331 . S
N434 C431 1.329 . S
H435 C429 0.930 . S
C436 O416 1.257 . S
C436 O437 1.244 . S
O437 C436 1.244 . S
O438 C414 1.257 . S
O438 Zn417 2.019 . S
H439 C432 0.930 . S
H440 C419 0.930 . S
H441 C431 0.930 . S
Zn442 N446 2.020 . S
Zn442 O450 2.019 . S
Zn442 N452 2.119 . S
Zn442 O460 1.975 . S
C443 N444 1.334 . S
C443 N447 1.336 . S
N444 C443 1.334 . S
N444 C445 1.334 . S
C445 N444 1.334 . S
C445 N446 1.336 . S
N446 Zn442 2.020 . S
N446 C445 1.336 . S
N446 N447 1.354 . S
N447 C443 1.336 . S
N447 N446 1.354 . S
N447 Zn451 2.020 . S
C448 O449 1.244 . S
C448 O472 1.257 . S
O449 C448 1.244 . S
O450 Zn442 2.019 . S
O450 C470 1.257 . S
Zn451 N447 2.020 . S
Zn451 O458 1.975 . S
Zn451 N467 2.119 . S
Zn451 O472 2.019 . S
N452 Zn442 2.119 . S
N452 C454 1.334 . S
N452 C455 1.328 . S
C453 C454 1.391 . S
C453 N456 1.329 . S
C453 H474 0.930 . S
C454 N452 1.334 . S
C454 C453 1.391 . S
C454 H461 0.930 . S
C455 N452 1.328 . S
C455 C457 1.392 . S
C455 H462 0.930 . S
N456 C453 1.329 . S
N456 C457 1.331 . S
C457 C455 1.392 . S
C457 N456 1.331 . S
O458 Zn451 1.975 . S
O458 C459 1.252 . S
C459 O458 1.252 . S
C459 O460 1.252 . S
O460 Zn442 1.975 . S
O460 C459 1.252 . S
H461 C454 0.930 . S
H462 C455 0.930 . S
C463 C464 1.392 . S
C463 N467 1.328 . S
C463 H469 0.930 . S
C464 C463 1.392 . S
C464 N468 1.331 . S
C465 C466 1.391 . S
C465 N468 1.329 . S
C465 H475 0.930 . S
C466 C465 1.391 . S
C466 N467 1.334 . S
C466 H473 0.930 . S
N467 Zn451 2.119 . S
N467 C463 1.328 . S
N467 C466 1.334 . S
N468 C464 1.331 . S
N468 C465 1.329 . S
H469 C463 0.930 . S
C470 O450 1.257 . S
C470 O471 1.244 . S
O471 C470 1.244 . S
O472 C448 1.257 . S
O472 Zn451 2.019 . S
H473 C466 0.930 . S
H474 C453 0.930 . S
H475 C465 0.930 . S
Zn476 N480 2.020 . S
Zn476 O484 2.019 . S
Zn476 N486 2.119 . S
Zn476 O494 1.975 . S
C477 N478 1.334 . S
C477 N481 1.336 . S
N478 C477 1.334 . S
N478 C479 1.334 . S
C479 N478 1.334 . S
C479 N480 1.336 . S
N480 Zn476 2.020 . S
N480 C479 1.336 . S
N480 N481 1.354 . S
N481 C477 1.336 . S
N481 N480 1.354 . S
N481 Zn485 2.020 . S
C482 O483 1.244 . S
C482 O506 1.257 . S
O483 C482 1.244 . S
O484 Zn476 2.019 . S
O484 C504 1.257 . S
Zn485 N481 2.020 . S
Zn485 O492 1.975 . S
Zn485 N501 2.119 . S
Zn485 O506 2.019 . S
N486 Zn476 2.119 . S
N486 C488 1.334 . S
N486 C489 1.328 . S
C487 C488 1.391 . S
C487 N490 1.329 . S
C487 H508 0.930 . S
C488 N486 1.334 . S
C488 C487 1.391 . S
C488 H495 0.930 . S
C489 N486 1.328 . S
C489 C491 1.392 . S
C489 H496 0.930 . S
N490 C487 1.329 . S
N490 C491 1.331 . S
C491 C489 1.392 . S
C491 N490 1.331 . S
O492 Zn485 1.975 . S
O492 C493 1.252 . S
C493 O492 1.252 . S
C493 O494 1.252 . S
O494 Zn476 1.975 . S
O494 C493 1.252 . S
H495 C488 0.930 . S
H496 C489 0.930 . S
C497 C498 1.392 . S
C497 N501 1.328 . S
C497 H503 0.930 . S
C498 C497 1.392 . S
C498 N502 1.331 . S
C499 C500 1.391 . S
C499 N502 1.329 . S
C499 H509 0.930 . S
C500 C499 1.391 . S
C500 N501 1.334 . S
C500 H507 0.930 . S
N501 Zn485 2.119 . S
N501 C497 1.328 . S
N501 C500 1.334 . S
N502 C498 1.331 . S
N502 C499 1.329 . S
H503 C497 0.930 . S
C504 O484 1.257 . S
C504 O505 1.244 . S
O505 C504 1.244 . S
O506 C482 1.257 . S
O506 Zn485 2.019 . S
H507 C500 0.930 . S
H508 C487 0.930 . S
H509 C499 0.930 . S
Zn510 N514 2.020 . S
Zn510 O518 2.019 . S
Zn510 N520 2.119 . S
Zn510 O528 1.975 . S
C511 N512 1.334 . S
C511 N515 1.336 . S
N512 C511 1.334 . S
N512 C513 1.334 . S
C513 N512 1.334 . S
C513 N514 1.336 . S
N514 Zn510 2.020 . S
N514 C513 1.336 . S
N514 N515 1.354 . S
N515 C511 1.336 . S
N515 N514 1.354 . S
N515 Zn519 2.020 . S
C516 O517 1.244 . S
C516 O540 1.257 . S
O517 C516 1.244 . S
O518 Zn510 2.019 . S
O518 C538 1.257 . S
Zn519 N515 2.020 . S
Zn519 O526 1.975 . S
Zn519 N535 2.119 . S
Zn519 O540 2.019 . S
N520 Zn510 2.119 . S
N520 C522 1.334 . S
N520 C523 1.328 . S
C521 C522 1.391 . S
C521 N524 1.329 . S
C521 H542 0.930 . S
C522 N520 1.334 . S
C522 C521 1.391 . S
C522 H529 0.930 . S
C523 N520 1.328 . S
C523 C525 1.392 . S
C523 H530 0.930 . S
N524 C521 1.329 . S
N524 C525 1.331 . S
C525 C523 1.392 . S
C525 N524 1.331 . S
O526 Zn519 1.975 . S
O526 C527 1.252 . S
C527 O526 1.252 . S
C527 O528 1.252 . S
O528 Zn510 1.975 . S
O528 C527 1.252 . S
H529 C522 0.930 . S
H530 C523 0.930 . S
C531 C532 1.392 . S
C531 N535 1.328 . S
C531 H537 0.930 . S
C532 C531 1.392 . S
C532 N536 1.331 . S
C533 C534 1.391 . S
C533 N536 1.329 . S
C533 H543 0.930 . S
C534 C533 1.391 . S
C534 N535 1.334 . S
C534 H541 0.930 . S
N535 Zn519 2.119 . S
N535 C531 1.328 . S
N535 C534 1.334 . S
N536 C532 1.331 . S
N536 C533 1.329 . S
H537 C531 0.930 . S
C538 O518 1.257 . S
C538 O539 1.244 . S
O539 C538 1.244 . S
O540 C516 1.257 . S
O540 Zn519 2.019 . S
H541 C534 0.930 . S
H542 C521 0.930 . S
H543 C533 0.930 . S
C544 C545 1.349 . S
C544 C546 1.327 . S
C544 H569 0.950 . S
C545 C544 1.349 . S
C545 C561 1.349 . S
C546 C544 1.327 . S
C546 C565 1.429 . S
C546 H570 0.950 . S
C547 C564 1.574 . S
C547 C566 1.368 . S
C547 H571 0.949 . S
H548 C552 0.949 . S
C549 C550 1.349 . S
C549 C551 1.327 . S
C549 H572 0.950 . S
C550 C549 1.349 . S
C550 C562 1.349 . S
C551 C549 1.327 . S
C551 C567 1.429 . S
C551 H573 0.950 . S
C552 H548 0.949 . S
C552 C560 1.574 . S
C552 C568 1.368 . S
H553 C561 0.950 . S
H554 C559 0.950 . S
H555 C560 0.949 . S
H556 C562 0.950 . S
H557 C563 0.950 . S
H558 C564 0.949 . S
C559 H554 0.950 . S
C559 C561 1.327 . S
C559 C565 1.429 . S
C560 C552 1.574 . S
C560 H555 0.949 . S
C560 C566 1.368 . S
C561 C545 1.349 . S
C561 H553 0.950 . S
C561 C559 1.327 . S
C562 C550 1.349 . S
C562 H556 0.950 . S
C562 C563 1.327 . S
C563 H557 0.950 . S
C563 C562 1.327 . S
C563 C567 1.429 . S
C564 C547 1.574 . S
C564 H558 0.949 . S
C564 C568 1.368 . S
C565 C546 1.429 . S
C565 C559 1.429 . S
C565 C566 1.523 1_556 S
C566 C547 1.368 . S
C566 C560 1.368 . S
C566 C565 1.523 1_554 S
C567 C551 1.429 . S
C567 C563 1.429 . S
C567 C568 1.523 . S
C568 C552 1.368 . S
C568 C564 1.368 . S
C568 C567 1.523 . S
H569 C544 0.950 . S
H570 C546 0.950 . S
H571 C547 0.949 . S
H572 C549 0.950 . S
H573 C551 0.950 . S
C574 C575 1.349 . S
C574 C576 1.327 . S
C574 H599 0.950 . S
C575 C574 1.349 . S
C575 C591 1.349 . S
C576 C574 1.327 . S
C576 C595 1.429 . S
C576 H600 0.950 . S
C577 C594 1.574 . S
C577 C596 1.368 . S
C577 H601 0.949 . S
H578 C582 0.949 . S
C579 C580 1.349 . S
C579 C581 1.327 . S
C579 H602 0.950 . S
C580 C579 1.349 . S
C580 C592 1.349 . S
C581 C579 1.327 . S
C581 C597 1.429 . S
C581 H603 0.950 . S
C582 H578 0.949 . S
C582 C590 1.574 . S
C582 C598 1.368 . S
H583 C591 0.950 . S
H584 C589 0.950 . S
H585 C590 0.949 . S
H586 C592 0.950 . S
H587 C593 0.950 . S
H588 C594 0.949 . S
C589 H584 0.950 . S
C589 C591 1.327 . S
C589 C595 1.429 . S
C590 C582 1.574 . S
C590 H585 0.949 . S
C590 C596 1.368 . S
C591 C575 1.349 . S
C591 H583 0.950 . S
C591 C589 1.327 . S
C592 C580 1.349 . S
C592 H586 0.950 . S
C592 C593 1.327 . S
C593 H587 0.950 . S
C593 C592 1.327 . S
C593 C597 1.429 . S
C594 C577 1.574 . S
C594 H588 0.949 . S
C594 C598 1.368 . S
C595 C576 1.429 . S
C595 C589 1.429 . S
C595 C596 1.523 . S
C596 C577 1.368 . S
C596 C590 1.368 . S
C596 C595 1.523 . S
C597 C581 1.429 . S
C597 C593 1.429 . S
C597 C598 1.523 . S
C598 C582 1.368 . S
C598 C594 1.368 . S
C598 C597 1.523 . S
H599 C574 0.950 . S
H600 C576 0.950 . S
H601 C577 0.949 . S
H602 C579 0.950 . S
H603 C581 0.950 . S
C604 C605 1.349 . S
C604 C606 1.327 . S
C604 H629 0.950 . S
C605 C604 1.349 . S
C605 C621 1.349 . S
C606 C604 1.327 . S
C606 C625 1.429 . S
C606 H630 0.950 . S
C607 C624 1.574 . S
C607 C626 1.368 . S
C607 H631 0.949 . S
H608 C612 0.949 . S
C609 C610 1.349 . S
C609 C611 1.327 . S
C609 H632 0.950 . S
C610 C609 1.349 . S
C610 C622 1.349 . S
C611 C609 1.327 . S
C611 C627 1.429 . S
C611 H633 0.950 . S
C612 H608 0.949 . S
C612 C620 1.574 . S
C612 C628 1.368 . S
H613 C621 0.950 . S
H614 C619 0.950 . S
H615 C620 0.949 . S
H616 C622 0.950 . S
H617 C623 0.950 . S
H618 C624 0.949 . S
C619 H614 0.950 . S
C619 C621 1.327 . S
C619 C625 1.429 . S
C620 C612 1.574 . S
C620 H615 0.949 . S
C620 C626 1.368 . S
C621 C605 1.349 . S
C621 H613 0.950 . S
C621 C619 1.327 . S
C622 C610 1.349 . S
C622 H616 0.950 . S
C622 C623 1.327 . S
C623 H617 0.950 . S
C623 C622 1.327 . S
C623 C627 1.429 . S
C624 C607 1.574 . S
C624 H618 0.949 . S
C624 C628 1.368 . S
C625 C606 1.429 . S
C625 C619 1.429 . S
C625 C626 1.523 1_554 S
C626 C607 1.368 . S
C626 C620 1.368 . S
C626 C625 1.523 1_556 S
C627 C611 1.429 . S
C627 C623 1.429 . S
C627 C628 1.523 . S
C628 C612 1.368 . S
C628 C624 1.368 . S
C628 C627 1.523 . S
H629 C604 0.950 . S
H630 C606 0.950 . S
H631 C607 0.949 . S
H632 C609 0.950 . S
H633 C611 0.950 . S
C634 C635 1.349 . S
C634 C636 1.327 . S
C634 H659 0.950 . S
C635 C634 1.349 . S
C635 C651 1.349 . S
C636 C634 1.327 . S
C636 C655 1.429 . S
C636 H660 0.950 . S
C637 C654 1.574 . S
C637 C656 1.368 . S
C637 H661 0.949 . S
H638 C642 0.949 . S
C639 C640 1.349 . S
C639 C641 1.327 . S
C639 H662 0.950 . S
C640 C639 1.349 . S
C640 C652 1.349 . S
C641 C639 1.327 . S
C641 C657 1.429 . S
C641 H663 0.950 . S
C642 H638 0.949 . S
C642 C650 1.574 . S
C642 C658 1.368 . S
H643 C651 0.950 . S
H644 C649 0.950 . S
H645 C650 0.949 . S
H646 C652 0.950 . S
H647 C653 0.950 . S
H648 C654 0.949 . S
C649 H644 0.950 . S
C649 C651 1.327 . S
C649 C655 1.429 . S
C650 C642 1.574 . S
C650 H645 0.949 . S
C650 C656 1.368 . S
C651 C635 1.349 . S
C651 H643 0.950 . S
C651 C649 1.327 . S
C652 C640 1.349 . S
C652 H646 0.950 . S
C652 C653 1.327 . S
C653 H647 0.950 . S
C653 C652 1.327 . S
C653 C657 1.429 . S
C654 C637 1.574 . S
C654 H648 0.949 . S
C654 C658 1.368 . S
C655 C636 1.429 . S
C655 C649 1.429 . S
C655 C656 1.523 . S
C656 C637 1.368 . S
C656 C650 1.368 . S
C656 C655 1.523 . S
C657 C641 1.429 . S
C657 C653 1.429 . S
C657 C658 1.523 . S
C658 C642 1.368 . S
C658 C654 1.368 . S
C658 C657 1.523 . S
H659 C634 0.950 . S
H660 C636 0.950 . S
H661 C637 0.949 . S
H662 C639 0.950 . S
H663 C641 0.950 . S
C664 C665 1.349 . S
C664 C666 1.327 . S
C664 H689 0.950 . S
C665 C664 1.349 . S
C665 C681 1.349 . S
C666 C664 1.327 . S
C666 C685 1.429 . S
C666 H690 0.950 . S
C667 C684 1.574 . S
C667 C686 1.368 . S
C667 H691 0.949 . S
H668 C672 0.949 . S
C669 C670 1.349 . S
C669 C671 1.327 . S
C669 H692 0.950 . S
C670 C669 1.349 . S
C670 C682 1.349 . S
C671 C669 1.327 . S
C671 C687 1.429 . S
C671 H693 0.950 . S
C672 H668 0.949 . S
C672 C680 1.574 . S
C672 C688 1.368 . S
H673 C681 0.950 . S
H674 C679 0.950 . S
H675 C680 0.949 . S
H676 C682 0.950 . S
H677 C683 0.950 . S
H678 C684 0.949 . S
C679 H674 0.950 . S
C679 C681 1.327 . S
C679 C685 1.429 . S
C680 C672 1.574 . S
C680 H675 0.949 . S
C680 C686 1.368 . S
C681 C665 1.349 . S
C681 H673 0.950 . S
C681 C679 1.327 . S
C682 C670 1.349 . S
C682 H676 0.950 . S
C682 C683 1.327 . S
C683 H677 0.950 . S
C683 C682 1.327 . S
C683 C687 1.429 . S
C684 C667 1.574 . S
C684 H678 0.949 . S
C684 C688 1.368 . S
C685 C666 1.429 . S
C685 C679 1.429 . S
C685 C686 1.523 . S
C686 C667 1.368 . S
C686 C680 1.368 . S
C686 C685 1.523 . S
C687 C671 1.429 . S
C687 C683 1.429 . S
C687 C688 1.523 1_554 S
C688 C672 1.368 . S
C688 C684 1.368 . S
C688 C687 1.523 1_556 S
H689 C664 0.950 . S
H690 C666 0.950 . S
H691 C667 0.949 . S
H692 C669 0.950 . S
H693 C671 0.950 . S
C694 C695 1.349 . S
C694 C696 1.327 . S
C694 H719 0.950 . S
C695 C694 1.349 . S
C695 C711 1.349 . S
C696 C694 1.327 . S
C696 C715 1.429 . S
C696 H720 0.950 . S
C697 C714 1.574 . S
C697 C716 1.368 . S
C697 H721 0.949 . S
H698 C702 0.949 . S
C699 C700 1.349 . S
C699 C701 1.327 . S
C699 H722 0.950 . S
C700 C699 1.349 . S
C700 C712 1.349 . S
C701 C699 1.327 . S
C701 C717 1.429 . S
C701 H723 0.950 . S
C702 H698 0.949 . S
C702 C710 1.574 . S
C702 C718 1.368 . S
H703 C711 0.950 . S
H704 C709 0.950 . S
H705 C710 0.949 . S
H706 C712 0.950 . S
H707 C713 0.950 . S
H708 C714 0.949 . S
C709 H704 0.950 . S
C709 C711 1.327 . S
C709 C715 1.429 . S
C710 C702 1.574 . S
C710 H705 0.949 . S
C710 C716 1.368 . S
C711 C695 1.349 . S
C711 H703 0.950 . S
C711 C709 1.327 . S
C712 C700 1.349 . S
C712 H706 0.950 . S
C712 C713 1.327 . S
C713 H707 0.950 . S
C713 C712 1.327 . S
C713 C717 1.429 . S
C714 C697 1.574 . S
C714 H708 0.949 . S
C714 C718 1.368 . S
C715 C696 1.429 . S
C715 C709 1.429 . S
C715 C716 1.523 . S
C716 C697 1.368 . S
C716 C710 1.368 . S
C716 C715 1.523 . S
C717 C701 1.429 . S
C717 C713 1.429 . S
C717 C718 1.523 . S
C718 C702 1.368 . S
C718 C714 1.368 . S
C718 C717 1.523 . S
H719 C694 0.950 . S
H720 C696 0.950 . S
H721 C697 0.949 . S
H722 C699 0.950 . S
H723 C701 0.950 . S
C724 C725 1.349 . S
C724 C726 1.327 . S
C724 H749 0.950 . S
C725 C724 1.349 . S
C725 C741 1.349 . S
C726 C724 1.327 . S
C726 C745 1.429 . S
C726 H750 0.950 . S
C727 C744 1.574 . S
C727 C746 1.368 . S
C727 H751 0.949 . S
H728 C732 0.949 . S
C729 C730 1.349 . S
C729 C731 1.327 . S
C729 H752 0.950 . S
C730 C729 1.349 . S
C730 C742 1.349 . S
C731 C729 1.327 . S
C731 C747 1.429 . S
C731 H753 0.950 . S
C732 H728 0.949 . S
C732 C740 1.574 . S
C732 C748 1.368 . S
H733 C741 0.950 . S
H734 C739 0.950 . S
H735 C740 0.949 . S
H736 C742 0.950 . S
H737 C743 0.950 . S
H738 C744 0.949 1_556 S
C739 H734 0.950 . S
C739 C741 1.327 . S
C739 C745 1.429 . S
C740 C732 1.574 . S
C740 H735 0.949 . S
C740 C746 1.368 . S
C741 C725 1.349 . S
C741 H733 0.950 . S
C741 C739 1.327 . S
C742 C730 1.349 . S
C742 H736 0.950 . S
C742 C743 1.327 . S
C743 H737 0.950 . S
C743 C742 1.327 . S
C743 C747 1.429 . S
C744 C727 1.574 . S
C744 H738 0.949 1_554 S
C744 C748 1.368 . S
C745 C726 1.429 . S
C745 C739 1.429 . S
C745 C746 1.523 . S
C746 C727 1.368 . S
C746 C740 1.368 . S
C746 C745 1.523 . S
C747 C731 1.429 . S
C747 C743 1.429 . S
C747 C748 1.523 1_556 S
C748 C732 1.368 . S
C748 C744 1.368 . S
C748 C747 1.523 1_554 S
H749 C724 0.950 . S
H750 C726 0.950 . S
H751 C727 0.949 . S
H752 C729 0.950 . S
H753 C731 0.950 . S
C754 C755 1.349 . S
C754 C756 1.327 . S
C754 H779 0.950 . S
C755 C754 1.349 . S
C755 C771 1.349 . S
C756 C754 1.327 . S
C756 C775 1.429 . S
C756 H780 0.950 . S
C757 C774 1.574 . S
C757 C776 1.368 . S
C757 H781 0.949 . S
H758 C762 0.949 . S
C759 C760 1.349 . S
C759 C761 1.327 . S
C759 H782 0.950 . S
C760 C759 1.349 . S
C760 C772 1.349 . S
C761 C759 1.327 . S
C761 C777 1.429 . S
C761 H783 0.950 . S
C762 H758 0.949 . S
C762 C770 1.574 . S
C762 C778 1.368 . S
H763 C771 0.950 . S
H764 C769 0.950 . S
H765 C770 0.949 . S
H766 C772 0.950 . S
H767 C773 0.950 . S
H768 C774 0.949 . S
C769 H764 0.950 . S
C769 C771 1.327 . S
C769 C775 1.429 . S
C770 C762 1.574 . S
C770 H765 0.949 . S
C770 C776 1.368 . S
C771 C755 1.349 . S
C771 H763 0.950 . S
C771 C769 1.327 . S
C772 C760 1.349 . S
C772 H766 0.950 . S
C772 C773 1.327 . S
C773 H767 0.950 . S
C773 C772 1.327 . S
C773 C777 1.429 . S
C774 C757 1.574 . S
C774 H768 0.949 . S
C774 C778 1.368 . S
C775 C756 1.429 . S
C775 C769 1.429 . S
C775 C776 1.523 . S
C776 C757 1.368 . S
C776 C770 1.368 . S
C776 C775 1.523 . S
C777 C761 1.429 . S
C777 C773 1.429 . S
C777 C778 1.523 . S
C778 C762 1.368 . S
C778 C774 1.368 . S
C778 C777 1.523 . S
H779 C754 0.950 . S
H780 C756 0.950 . S
H781 C757 0.949 . S
H782 C759 0.950 . S
H783 C761 0.950 . S
C784 C785 1.349 . S
C784 C786 1.327 . S
C784 H809 0.950 . S
C785 C784 1.349 . S
C785 C801 1.349 . S
C786 C784 1.327 . S
C786 C805 1.429 . S
C786 H810 0.950 . S
C787 C804 1.574 . S
C787 C806 1.368 . S
C787 H811 0.949 . S
H788 C792 0.949 1_556 S
C789 C790 1.349 . S
C789 C791 1.327 . S
C789 H812 0.950 . S
C790 C789 1.349 . S
C790 C802 1.349 . S
C791 C789 1.327 . S
C791 C807 1.429 . S
C791 H813 0.950 . S
C792 H788 0.949 1_554 S
C792 C800 1.574 . S
C792 C808 1.368 . S
H793 C801 0.950 . S
H794 C799 0.950 . S
H795 C800 0.949 . S
H796 C802 0.950 . S
H797 C803 0.950 . S
H798 C804 0.949 . S
C799 H794 0.950 . S
C799 C801 1.327 . S
C799 C805 1.429 . S
C800 C792 1.574 . S
C800 H795 0.949 . S
C800 C806 1.368 . S
C801 C785 1.349 . S
C801 H793 0.950 . S
C801 C799 1.327 . S
C802 C790 1.349 . S
C802 H796 0.950 . S
C802 C803 1.327 . S
C803 H797 0.950 . S
C803 C802 1.327 . S
C803 C807 1.429 . S
C804 C787 1.574 . S
C804 H798 0.949 . S
C804 C808 1.368 . S
C805 C786 1.429 . S
C805 C799 1.429 . S
C805 C806 1.523 . S
C806 C787 1.368 . S
C806 C800 1.368 . S
C806 C805 1.523 . S
C807 C791 1.429 . S
C807 C803 1.429 . S
C807 C808 1.523 1_556 S
C808 C792 1.368 . S
C808 C804 1.368 . S
C808 C807 1.523 1_554 S
H809 C784 0.950 . S
H810 C786 0.950 . S
H811 C787 0.949 . S
H812 C789 0.950 . S
H813 C791 0.950 . S
C814 C815 1.349 . S
C814 C816 1.327 . S
C814 H839 0.950 . S
C815 C814 1.349 . S
C815 C831 1.349 . S
C816 C814 1.327 . S
C816 C835 1.429 . S
C816 H840 0.950 . S
C817 C834 1.574 . S
C817 C836 1.368 . S
C817 H841 0.949 . S
H818 C822 0.949 . S
C819 C820 1.349 . S
C819 C821 1.327 . S
C819 H842 0.950 . S
C820 C819 1.349 . S
C820 C832 1.349 . S
C821 C819 1.327 . S
C821 C837 1.429 . S
C821 H843 0.950 . S
C822 H818 0.949 . S
C822 C830 1.574 . S
C822 C838 1.368 . S
H823 C831 0.950 . S
H824 C829 0.950 . S
H825 C830 0.949 . S
H826 C832 0.950 . S
H827 C833 0.950 . S
H828 C834 0.949 . S
C829 H824 0.950 . S
C829 C831 1.327 . S
C829 C835 1.429 . S
C830 C822 1.574 . S
C830 H825 0.949 . S
C830 C836 1.368 . S
C831 C815 1.349 . S
C831 H823 0.950 . S
C831 C829 1.327 . S
C832 C820 1.349 . S
C832 H826 0.950 . S
C832 C833 1.327 . S
C833 H827 0.950 . S
C833 C832 1.327 . S
C833 C837 1.429 . S
C834 C817 1.574 . S
C834 H828 0.949 . S
C834 C838 1.368 . S
C835 C816 1.429 . S
C835 C829 1.429 . S
C835 C836 1.523 . S
C836 C817 1.368 . S
C836 C830 1.368 . S
C836 C835 1.523 . S
C837 C821 1.429 . S
C837 C833 1.429 . S
C837 C838 1.523 . S
C838 C822 1.368 . S
C838 C834 1.368 . S
C838 C837 1.523 . S
H839 C814 0.950 . S
H840 C816 0.950 . S
H841 C817 0.949 . S
H842 C819 0.950 . S
H843 C821 0.950 . S
C844 C845 1.349 . S
C844 C846 1.327 . S
C844 H869 0.950 . S
C845 C844 1.349 . S
C845 C861 1.349 . S
C846 C844 1.327 . S
C846 C865 1.429 . S
C846 H870 0.950 . S
C847 C864 1.574 . S
C847 C866 1.368 . S
C847 H871 0.949 . S
H848 C852 0.949 . S
C849 C850 1.349 . S
C849 C851 1.327 . S
C849 H872 0.950 . S
C850 C849 1.349 . S
C850 C862 1.349 . S
C851 C849 1.327 . S
C851 C867 1.429 . S
C851 H873 0.950 . S
C852 H848 0.949 . S
C852 C860 1.574 . S
C852 C868 1.368 . S
H853 C861 0.950 . S
H854 C859 0.950 . S
H855 C860 0.949 . S
H856 C862 0.950 . S
H857 C863 0.950 . S
H858 C864 0.949 1_554 S
C859 H854 0.950 . S
C859 C861 1.327 . S
C859 C865 1.429 . S
C860 C852 1.574 . S
C860 H855 0.949 . S
C860 C866 1.368 . S
C861 C845 1.349 . S
C861 H853 0.950 . S
C861 C859 1.327 . S
C862 C850 1.349 . S
C862 H856 0.950 . S
C862 C863 1.327 . S
C863 H857 0.950 . S
C863 C862 1.327 . S
C863 C867 1.429 . S
C864 C847 1.574 . S
C864 H858 0.949 1_556 S
C864 C868 1.368 . S
C865 C846 1.429 . S
C865 C859 1.429 . S
C865 C866 1.523 . S
C866 C847 1.368 . S
C866 C860 1.368 . S
C866 C865 1.523 . S
C867 C851 1.429 . S
C867 C863 1.429 . S
C867 C868 1.523 1_554 S
C868 C852 1.368 . S
C868 C864 1.368 . S
C868 C867 1.523 1_556 S
H869 C844 0.950 . S
H870 C846 0.950 . S
H871 C847 0.949 . S
H872 C849 0.950 . S
H873 C851 0.950 . S
C874 C875 1.349 . S
C874 C876 1.327 . S
C874 H899 0.950 . S
C875 C874 1.349 . S
C875 C891 1.349 . S
C876 C874 1.327 . S
C876 C895 1.429 . S
C876 H900 0.950 . S
C877 C894 1.574 . S
C877 C896 1.368 . S
C877 H901 0.949 . S
H878 C882 0.949 . S
C879 C880 1.349 . S
C879 C881 1.327 . S
C879 H902 0.950 . S
C880 C879 1.349 . S
C880 C892 1.349 . S
C881 C879 1.327 . S
C881 C897 1.429 . S
C881 H903 0.950 . S
C882 H878 0.949 . S
C882 C890 1.574 . S
C882 C898 1.368 . S
H883 C891 0.950 . S
H884 C889 0.950 . S
H885 C890 0.949 . S
H886 C892 0.950 . S
H887 C893 0.950 . S
H888 C894 0.949 . S
C889 H884 0.950 . S
C889 C891 1.327 . S
C889 C895 1.429 . S
C890 C882 1.574 . S
C890 H885 0.949 . S
C890 C896 1.368 . S
C891 C875 1.349 . S
C891 H883 0.950 . S
C891 C889 1.327 . S
C892 C880 1.349 . S
C892 H886 0.950 . S
C892 C893 1.327 . S
C893 H887 0.950 . S
C893 C892 1.327 . S
C893 C897 1.429 . S
C894 C877 1.574 . S
C894 H888 0.949 . S
C894 C898 1.368 . S
C895 C876 1.429 . S
C895 C889 1.429 . S
C895 C896 1.523 . S
C896 C877 1.368 . S
C896 C890 1.368 . S
C896 C895 1.523 . S
C897 C881 1.429 . S
C897 C893 1.429 . S
C897 C898 1.523 . S
C898 C882 1.368 . S
C898 C894 1.368 . S
C898 C897 1.523 . S
H899 C874 0.950 . S
H900 C876 0.950 . S
H901 C877 0.949 . S
H902 C879 0.950 . S
H903 C881 0.950 . S
C904 C905 1.349 . S
C904 C906 1.327 . S
C904 H929 0.950 . S
C905 C904 1.349 . S
C905 C921 1.349 . S
C906 C904 1.327 . S
C906 C925 1.429 . S
C906 H930 0.950 . S
C907 C924 1.574 . S
C907 C926 1.368 . S
C907 H931 0.949 . S
H908 C912 0.949 . S
C909 C910 1.349 . S
C909 C911 1.327 . S
C909 H932 0.950 . S
C910 C909 1.349 . S
C910 C922 1.349 . S
C911 C909 1.327 . S
C911 C927 1.429 . S
C911 H933 0.950 . S
C912 H908 0.949 . S
C912 C920 1.574 . S
C912 C928 1.368 . S
H913 C921 0.950 . S
H914 C919 0.950 . S
H915 C920 0.949 . S
H916 C922 0.950 . S
H917 C923 0.950 . S
H918 C924 0.949 . S
C919 H914 0.950 . S
C919 C921 1.327 . S
C919 C925 1.429 . S
C920 C912 1.574 . S
C920 H915 0.949 . S
C920 C926 1.368 . S
C921 C905 1.349 . S
C921 H913 0.950 . S
C921 C919 1.327 . S
C922 C910 1.349 . S
C922 H916 0.950 . S
C922 C923 1.327 . S
C923 H917 0.950 . S
C923 C922 1.327 . S
C923 C927 1.429 . S
C924 C907 1.574 . S
C924 H918 0.949 . S
C924 C928 1.368 . S
C925 C906 1.429 . S
C925 C919 1.429 . S
C925 C926 1.523 1_554 S
C926 C907 1.368 . S
C926 C920 1.368 . S
C926 C925 1.523 1_556 S
C927 C911 1.429 . S
C927 C923 1.429 . S
C927 C928 1.523 . S
C928 C912 1.368 . S
C928 C924 1.368 . S
C928 C927 1.523 . S
H929 C904 0.950 . S
H930 C906 0.950 . S
H931 C907 0.949 . S
H932 C909 0.950 . S
H933 C911 0.950 . S
C934 C935 1.349 . S
C934 C936 1.327 . S
C934 H959 0.950 . S
C935 C934 1.349 . S
C935 C951 1.349 . S
C936 C934 1.327 . S
C936 C955 1.429 . S
C936 H960 0.950 . S
C937 C954 1.574 . S
C937 C956 1.368 . S
C937 H961 0.949 . S
H938 C942 0.949 . S
C939 C940 1.349 . S
C939 C941 1.327 . S
C939 H962 0.950 . S
C940 C939 1.349 . S
C940 C952 1.349 . S
C941 C939 1.327 . S
C941 C957 1.429 . S
C941 H963 0.950 . S
C942 H938 0.949 . S
C942 C950 1.574 . S
C942 C958 1.368 . S
H943 C951 0.950 . S
H944 C949 0.950 . S
H945 C950 0.949 . S
H946 C952 0.950 . S
H947 C953 0.950 . S
H948 C954 0.949 . S
C949 H944 0.950 . S
C949 C951 1.327 . S
C949 C955 1.429 . S
C950 C942 1.574 . S
C950 H945 0.949 . S
C950 C956 1.368 . S
C951 C935 1.349 . S
C951 H943 0.950 . S
C951 C949 1.327 . S
C952 C940 1.349 . S
C952 H946 0.950 . S
C952 C953 1.327 . S
C953 H947 0.950 . S
C953 C952 1.327 . S
C953 C957 1.429 . S
C954 C937 1.574 . S
C954 H948 0.949 . S
C954 C958 1.368 . S
C955 C936 1.429 . S
C955 C949 1.429 . S
C955 C956 1.523 . S
C956 C937 1.368 . S
C956 C950 1.368 . S
C956 C955 1.523 . S
C957 C941 1.429 . S
C957 C953 1.429 . S
C957 C958 1.523 . S
C958 C942 1.368 . S
C958 C954 1.368 . S
C958 C957 1.523 . S
H959 C934 0.950 . S
H960 C936 0.950 . S
H961 C937 0.949 . S
H962 C939 0.950 . S
H963 C941 0.950 . S
C964 C965 1.349 . S
C964 C966 1.327 . S
C964 H989 0.950 . S
C965 C964 1.349 . S
C965 C981 1.349 . S
C966 C964 1.327 . S
C966 C985 1.429 . S
C966 H990 0.950 . S
C967 C984 1.574 . S
C967 C986 1.368 . S
C967 H991 0.949 1_554 S
H968 C972 0.949 . S
C969 C970 1.349 . S
C969 C971 1.327 . S
C969 H992 0.950 . S
C970 C969 1.349 . S
C970 C982 1.349 . S
C971 C969 1.327 . S
C971 C987 1.429 . S
C971 H993 0.950 . S
C972 H968 0.949 . S
C972 C980 1.574 . S
C972 C988 1.368 . S
H973 C981 0.950 . S
H974 C979 0.950 . S
H975 C980 0.949 . S
H976 C982 0.950 . S
H977 C983 0.950 . S
H978 C984 0.949 . S
C979 H974 0.950 . S
C979 C981 1.327 . S
C979 C985 1.429 . S
C980 C972 1.574 . S
C980 H975 0.949 . S
C980 C986 1.368 . S
C981 C965 1.349 . S
C981 H973 0.950 . S
C981 C979 1.327 . S
C982 C970 1.349 . S
C982 H976 0.950 . S
C982 C983 1.327 . S
C983 H977 0.950 . S
C983 C982 1.327 . S
C983 C987 1.429 . S
C984 C967 1.574 . S
C984 H978 0.949 . S
C984 C988 1.368 . S
C985 C966 1.429 . S
C985 C979 1.429 . S
C985 C986 1.523 1_556 S
C986 C967 1.368 . S
C986 C980 1.368 . S
C986 C985 1.523 1_554 S
C987 C971 1.429 . S
C987 C983 1.429 . S
C987 C988 1.523 . S
C988 C972 1.368 . S
C988 C984 1.368 . S
C988 C987 1.523 . S
H989 C964 0.950 . S
H990 C966 0.950 . S
H991 C967 0.949 1_556 S
H992 C969 0.950 . S
H993 C971 0.950 . S
C994 C995 1.349 . S
C994 C996 1.327 . S
C994 H1019 0.950 . S
C995 C994 1.349 . S
C995 C1011 1.349 . S
C996 C994 1.327 . S
C996 C1015 1.429 . S
C996 H1020 0.950 . S
C997 C1014 1.574 . S
C997 C1016 1.368 . S
C997 H1021 0.949 . S
H998 C1002 0.949 . S
C999 C1000 1.349 . S
C999 C1001 1.327 . S
C999 H1022 0.950 . S
C1000 C999 1.349 . S
C1000 C1012 1.349 . S
C1001 C999 1.327 . S
C1001 C1017 1.429 . S
C1001 H1023 0.950 . S
C1002 H998 0.949 . S
C1002 C1010 1.574 . S
C1002 C1018 1.368 . S
H1003 C1011 0.950 . S
H1004 C1009 0.950 . S
H1005 C1010 0.949 . S
H1006 C1012 0.950 . S
H1007 C1013 0.950 . S
H1008 C1014 0.949 . S
C1009 H1004 0.950 . S
C1009 C1011 1.327 . S
C1009 C1015 1.429 . S
C1010 C1002 1.574 . S
C1010 H1005 0.949 . S
C1010 C1016 1.368 . S
C1011 C995 1.349 . S
C1011 H1003 0.950 . S
C1011 C1009 1.327 . S
C1012 C1000 1.349 . S
C1012 H1006 0.950 . S
C1012 C1013 1.327 . S
C1013 H1007 0.950 . S
C1013 C1012 1.327 . S
C1013 C1017 1.429 . S
C1014 C997 1.574 . S
C1014 H1008 0.949 . S
C1014 C1018 1.368 . S
C1015 C996 1.429 . S
C1015 C1009 1.429 . S
C1015 C1016 1.523 . S
C1016 C997 1.368 . S
C1016 C1010 1.368 . S
C1016 C1015 1.523 . S
C1017 C1001 1.429 . S
C1017 C1013 1.429 . S
C1017 C1018 1.523 . S
C1018 C1002 1.368 . S
C1018 C1014 1.368 . S
C1018 C1017 1.523 . S
H1019 C994 0.950 . S
H1020 C996 0.950 . S
H1021 C997 0.949 . S
H1022 C999 0.950 . S
H1023 C1001 0.950 . S
C1024 C1025 1.349 . S
C1024 C1026 1.327 . S
C1024 H1049 0.950 . S
C1025 C1024 1.349 . S
C1025 C1041 1.349 . S
C1026 C1024 1.327 . S
C1026 C1045 1.429 . S
C1026 H1050 0.950 . S
C1027 C1044 1.574 1_455 S
C1027 C1046 1.368 . S
C1027 H1051 0.949 . S
H1028 C1032 0.949 . S
C1029 C1030 1.349 . S
C1029 C1031 1.327 . S
C1029 H1052 0.950 . S
C1030 C1029 1.349 . S
C1030 C1042 1.349 . S
C1031 C1029 1.327 . S
C1031 C1047 1.429 . S
C1031 H1053 0.950 . S
C1032 H1028 0.949 . S
C1032 C1040 1.574 1_655 S
C1032 C1048 1.368 . S
H1033 C1041 0.950 . S
H1034 C1039 0.950 . S
H1035 C1040 0.949 . S
H1036 C1042 0.950 . S
H1037 C1043 0.950 . S
H1038 C1044 0.949 . S
C1039 H1034 0.950 . S
C1039 C1041 1.327 . S
C1039 C1045 1.429 . S
C1040 C1032 1.574 1_455 S
C1040 H1035 0.949 . S
C1040 C1046 1.368 . S
C1041 C1025 1.349 . S
C1041 H1033 0.950 . S
C1041 C1039 1.327 . S
C1042 C1030 1.349 . S
C1042 H1036 0.950 . S
C1042 C1043 1.327 . S
C1043 H1037 0.950 . S
C1043 C1042 1.327 . S
C1043 C1047 1.429 . S
C1044 C1027 1.574 1_655 S
C1044 H1038 0.949 . S
C1044 C1048 1.368 . S
C1045 C1026 1.429 . S
C1045 C1039 1.429 . S
C1045 C1046 1.523 . S
C1046 C1027 1.368 . S
C1046 C1040 1.368 . S
C1046 C1045 1.523 . S
C1047 C1031 1.429 . S
C1047 C1043 1.429 . S
C1047 C1048 1.523 . S
C1048 C1032 1.368 . S
C1048 C1044 1.368 . S
C1048 C1047 1.523 . S
H1049 C1024 0.950 . S
H1050 C1026 0.950 . S
H1051 C1027 0.949 . S
H1052 C1029 0.950 . S
H1053 C1031 0.950 . S
C1054 C1055 1.349 . S
C1054 C1056 1.327 . S
C1054 H1079 0.950 . S
C1055 C1054 1.349 . S
C1055 C1071 1.349 . S
C1056 C1054 1.327 . S
C1056 C1075 1.429 . S
C1056 H1080 0.950 . S
C1057 C1074 1.574 . S
C1057 C1076 1.368 . S
C1057 H1081 0.949 . S
H1058 C1062 0.949 . S
C1059 C1060 1.349 . S
C1059 C1061 1.327 . S
C1059 H1082 0.950 . S
C1060 C1059 1.349 . S
C1060 C1072 1.349 . S
C1061 C1059 1.327 . S
C1061 C1077 1.429 . S
C1061 H1083 0.950 . S
C1062 H1058 0.949 . S
C1062 C1070 1.574 . S
C1062 C1078 1.368 . S
H1063 C1071 0.950 . S
H1064 C1069 0.950 . S
H1065 C1070 0.949 . S
H1066 C1072 0.950 . S
H1067 C1073 0.950 . S
H1068 C1074 0.949 . S
C1069 H1064 0.950 . S
C1069 C1071 1.327 . S
C1069 C1075 1.429 . S
C1070 C1062 1.574 . S
C1070 H1065 0.949 . S
C1070 C1076 1.368 . S
C1071 C1055 1.349 . S
C1071 H1063 0.950 . S
C1071 C1069 1.327 . S
C1072 C1060 1.349 . S
C1072 H1066 0.950 . S
C1072 C1073 1.327 . S
C1073 H1067 0.950 . S
C1073 C1072 1.327 . S
C1073 C1077 1.429 . S
C1074 C1057 1.574 . S
C1074 H1068 0.949 . S
C1074 C1078 1.368 . S
C1075 C1056 1.429 . S
C1075 C1069 1.429 . S
C1075 C1076 1.523 . S
C1076 C1057 1.368 . S
C1076 C1070 1.368 . S
C1076 C1075 1.523 . S
C1077 C1061 1.429 . S
C1077 C1073 1.429 . S
C1077 C1078 1.523 . S
C1078 C1062 1.368 . S
C1078 C1074 1.368 . S
C1078 C1077 1.523 . S
H1079 C1054 0.950 . S
H1080 C1056 0.950 . S
H1081 C1057 0.949 . S
H1082 C1059 0.950 . S
H1083 C1061 0.950 . S
C1084 C1085 1.349 . S
C1084 C1086 1.327 . S
C1084 H1109 0.950 . S
C1085 C1084 1.349 . S
C1085 C1101 1.349 . S
C1086 C1084 1.327 . S
C1086 C1105 1.429 . S
C1086 H1110 0.950 . S
C1087 C1104 1.574 1_655 S
C1087 C1106 1.368 . S
C1087 H1111 0.949 . S
H1088 C1092 0.949 . S
C1089 C1090 1.349 . S
C1089 C1091 1.327 . S
C1089 H1112 0.950 . S
C1090 C1089 1.349 . S
C1090 C1102 1.349 . S
C1091 C1089 1.327 . S
C1091 C1107 1.429 . S
C1091 H1113 0.950 . S
C1092 H1088 0.949 . S
C1092 C1100 1.574 1_455 S
C1092 C1108 1.368 . S
H1093 C1101 0.950 . S
H1094 C1099 0.950 . S
H1095 C1100 0.949 . S
H1096 C1102 0.950 . S
H1097 C1103 0.950 . S
H1098 C1104 0.949 . S
C1099 H1094 0.950 . S
C1099 C1101 1.327 . S
C1099 C1105 1.429 . S
C1100 C1092 1.574 1_655 S
C1100 H1095 0.949 . S
C1100 C1106 1.368 . S
C1101 C1085 1.349 . S
C1101 H1093 0.950 . S
C1101 C1099 1.327 . S
C1102 C1090 1.349 . S
C1102 H1096 0.950 . S
C1102 C1103 1.327 . S
C1103 H1097 0.950 . S
C1103 C1102 1.327 . S
C1103 C1107 1.429 . S
C1104 C1087 1.574 1_455 S
C1104 H1098 0.949 . S
C1104 C1108 1.368 . S
C1105 C1086 1.429 . S
C1105 C1099 1.429 . S
C1105 C1106 1.523 . S
C1106 C1087 1.368 . S
C1106 C1100 1.368 . S
C1106 C1105 1.523 . S
C1107 C1091 1.429 . S
C1107 C1103 1.429 . S
C1107 C1108 1.523 . S
C1108 C1092 1.368 . S
C1108 C1104 1.368 . S
C1108 C1107 1.523 . S
H1109 C1084 0.950 . S
H1110 C1086 0.950 . S
H1111 C1087 0.949 . S
H1112 C1089 0.950 . S
H1113 C1091 0.950 . S
C1114 C1115 1.349 . S
C1114 C1116 1.327 . S
C1114 H1139 0.950 . S
C1115 C1114 1.349 . S
C1115 C1131 1.349 . S
C1116 C1114 1.327 . S
C1116 C1135 1.429 . S
C1116 H1140 0.950 . S
C1117 C1134 1.574 . S
C1117 C1136 1.368 . S
C1117 H1141 0.949 . S
H1118 C1122 0.949 . S
C1119 C1120 1.349 . S
C1119 C1121 1.327 . S
C1119 H1142 0.950 . S
C1120 C1119 1.349 . S
C1120 C1132 1.349 . S
C1121 C1119 1.327 . S
C1121 C1137 1.429 . S
C1121 H1143 0.950 . S
C1122 H1118 0.949 . S
C1122 C1130 1.574 . S
C1122 C1138 1.368 . S
H1123 C1131 0.950 . S
H1124 C1129 0.950 . S
H1125 C1130 0.949 . S
H1126 C1132 0.950 . S
H1127 C1133 0.950 . S
H1128 C1134 0.949 . S
C1129 H1124 0.950 . S
C1129 C1131 1.327 . S
C1129 C1135 1.429 . S
C1130 C1122 1.574 . S
C1130 H1125 0.949 . S
C1130 C1136 1.368 . S
C1131 C1115 1.349 . S
C1131 H1123 0.950 . S
C1131 C1129 1.327 . S
C1132 C1120 1.349 . S
C1132 H1126 0.950 . S
C1132 C1133 1.327 . S
C1133 H1127 0.950 . S
C1133 C1132 1.327 . S
C1133 C1137 1.429 . S
C1134 C1117 1.574 . S
C1134 H1128 0.949 . S
C1134 C1138 1.368 . S
C1135 C1116 1.429 . S
C1135 C1129 1.429 . S
C1135 C1136 1.523 . S
C1136 C1117 1.368 . S
C1136 C1130 1.368 . S
C1136 C1135 1.523 . S
C1137 C1121 1.429 . S
C1137 C1133 1.429 . S
C1137 C1138 1.523 . S
C1138 C1122 1.368 . S
C1138 C1134 1.368 . S
C1138 C1137 1.523 . S
H1139 C1114 0.950 . S
H1140 C1116 0.950 . S
H1141 C1117 0.949 . S
H1142 C1119 0.950 . S
H1143 C1121 0.950 . S
C1144 C1145 1.349 . S
C1144 C1146 1.327 . S
C1144 H1169 0.950 . S
C1145 C1144 1.349 . S
C1145 C1161 1.349 . S
C1146 C1144 1.327 . S
C1146 C1165 1.429 . S
C1146 H1170 0.950 . S
C1147 C1164 1.574 . S
C1147 C1166 1.368 . S
C1147 H1171 0.949 . S
H1148 C1152 0.949 . S
C1149 C1150 1.349 . S
C1149 C1151 1.327 . S
C1149 H1172 0.950 . S
C1150 C1149 1.349 . S
C1150 C1162 1.349 . S
C1151 C1149 1.327 . S
C1151 C1167 1.429 . S
C1151 H1173 0.950 . S
C1152 H1148 0.949 . S
C1152 C1160 1.574 . S
C1152 C1168 1.368 . S
H1153 C1161 0.950 . S
H1154 C1159 0.950 . S
H1155 C1160 0.949 . S
H1156 C1162 0.950 . S
H1157 C1163 0.950 . S
H1158 C1164 0.949 . S
C1159 H1154 0.950 . S
C1159 C1161 1.327 . S
C1159 C1165 1.429 . S
C1160 C1152 1.574 . S
C1160 H1155 0.949 . S
C1160 C1166 1.368 . S
C1161 C1145 1.349 . S
C1161 H1153 0.950 . S
C1161 C1159 1.327 . S
C1162 C1150 1.349 . S
C1162 H1156 0.950 . S
C1162 C1163 1.327 . S
C1163 H1157 0.950 . S
C1163 C1162 1.327 . S
C1163 C1167 1.429 . S
C1164 C1147 1.574 . S
C1164 H1158 0.949 . S
C1164 C1168 1.368 . S
C1165 C1146 1.429 . S
C1165 C1159 1.429 . S
C1165 C1166 1.523 . S
C1166 C1147 1.368 . S
C1166 C1160 1.368 . S
C1166 C1165 1.523 . S
C1167 C1151 1.429 . S
C1167 C1163 1.429 . S
C1167 C1168 1.523 . S
C1168 C1152 1.368 . S
C1168 C1164 1.368 . S
C1168 C1167 1.523 . S
H1169 C1144 0.950 . S
H1170 C1146 0.950 . S
H1171 C1147 0.949 . S
H1172 C1149 0.950 . S
H1173 C1151 0.950 . S
C1174 C1175 1.349 . S
C1174 C1176 1.327 . S
C1174 H1199 0.950 . S
C1175 C1174 1.349 . S
C1175 C1191 1.349 . S
C1176 C1174 1.327 . S
C1176 C1195 1.429 . S
C1176 H1200 0.950 . S
C1177 C1194 1.574 1_655 S
C1177 C1196 1.368 . S
C1177 H1201 0.949 . S
H1178 C1182 0.949 . S
C1179 C1180 1.349 . S
C1179 C1181 1.327 . S
C1179 H1202 0.950 . S
C1180 C1179 1.349 . S
C1180 C1192 1.349 . S
C1181 C1179 1.327 . S
C1181 C1197 1.429 . S
C1181 H1203 0.950 . S
C1182 H1178 0.949 . S
C1182 C1190 1.574 1_455 S
C1182 C1198 1.368 . S
H1183 C1191 0.950 . S
H1184 C1189 0.950 . S
H1185 C1190 0.949 . S
H1186 C1192 0.950 . S
H1187 C1193 0.950 . S
H1188 C1194 0.949 . S
C1189 H1184 0.950 . S
C1189 C1191 1.327 . S
C1189 C1195 1.429 . S
C1190 C1182 1.574 1_655 S
C1190 H1185 0.949 . S
C1190 C1196 1.368 . S
C1191 C1175 1.349 . S
C1191 H1183 0.950 . S
C1191 C1189 1.327 . S
C1192 C1180 1.349 . S
C1192 H1186 0.950 . S
C1192 C1193 1.327 . S
C1193 H1187 0.950 . S
C1193 C1192 1.327 . S
C1193 C1197 1.429 . S
C1194 C1177 1.574 1_455 S
C1194 H1188 0.949 . S
C1194 C1198 1.368 . S
C1195 C1176 1.429 . S
C1195 C1189 1.429 . S
C1195 C1196 1.523 . S
C1196 C1177 1.368 . S
C1196 C1190 1.368 . S
C1196 C1195 1.523 . S
C1197 C1181 1.429 . S
C1197 C1193 1.429 . S
C1197 C1198 1.523 . S
C1198 C1182 1.368 . S
C1198 C1194 1.368 . S
C1198 C1197 1.523 . S
H1199 C1174 0.950 . S
H1200 C1176 0.950 . S
H1201 C1177 0.949 . S
H1202 C1179 0.950 . S
H1203 C1181 0.950 . S
C1204 C1205 1.349 . S
C1204 C1206 1.327 . S
C1204 H1229 0.950 . S
C1205 C1204 1.349 . S
C1205 C1221 1.349 . S
C1206 C1204 1.327 . S
C1206 C1225 1.429 . S
C1206 H1230 0.950 . S
C1207 C1224 1.574 . S
C1207 C1226 1.368 . S
C1207 H1231 0.949 . S
H1208 C1212 0.949 . S
C1209 C1210 1.349 . S
C1209 C1211 1.327 . S
C1209 H1232 0.950 . S
C1210 C1209 1.349 . S
C1210 C1222 1.349 . S
C1211 C1209 1.327 . S
C1211 C1227 1.429 . S
C1211 H1233 0.950 . S
C1212 H1208 0.949 . S
C1212 C1220 1.574 . S
C1212 C1228 1.368 . S
H1213 C1221 0.950 . S
H1214 C1219 0.950 . S
H1215 C1220 0.949 . S
H1216 C1222 0.950 . S
H1217 C1223 0.950 . S
H1218 C1224 0.949 . S
C1219 H1214 0.950 . S
C1219 C1221 1.327 . S
C1219 C1225 1.429 . S
C1220 C1212 1.574 . S
C1220 H1215 0.949 . S
C1220 C1226 1.368 . S
C1221 C1205 1.349 . S
C1221 H1213 0.950 . S
C1221 C1219 1.327 . S
C1222 C1210 1.349 . S
C1222 H1216 0.950 . S
C1222 C1223 1.327 . S
C1223 H1217 0.950 . S
C1223 C1222 1.327 . S
C1223 C1227 1.429 . S
C1224 C1207 1.574 . S
C1224 H1218 0.949 . S
C1224 C1228 1.368 . S
C1225 C1206 1.429 . S
C1225 C1219 1.429 . S
C1225 C1226 1.523 . S
C1226 C1207 1.368 . S
C1226 C1220 1.368 . S
C1226 C1225 1.523 . S
C1227 C1211 1.429 . S
C1227 C1223 1.429 . S
C1227 C1228 1.523 . S
C1228 C1212 1.368 . S
C1228 C1224 1.368 . S
C1228 C1227 1.523 . S
H1229 C1204 0.950 . S
H1230 C1206 0.950 . S
H1231 C1207 0.949 . S
H1232 C1209 0.950 . S
H1233 C1211 0.950 . S
C1234 C1235 1.349 . S
C1234 C1236 1.327 . S
C1234 H1259 0.950 . S
C1235 C1234 1.349 . S
C1235 C1251 1.349 . S
C1236 C1234 1.327 . S
C1236 C1255 1.429 . S
C1236 H1260 0.950 . S
C1237 C1254 1.574 1_655 S
C1237 C1256 1.368 . S
C1237 H1261 0.949 . S
H1238 C1242 0.949 . S
C1239 C1240 1.349 . S
C1239 C1241 1.327 . S
C1239 H1262 0.950 . S
C1240 C1239 1.349 . S
C1240 C1252 1.349 . S
C1241 C1239 1.327 . S
C1241 C1257 1.429 . S
C1241 H1263 0.950 . S
C1242 H1238 0.949 . S
C1242 C1250 1.574 1_455 S
C1242 C1258 1.368 . S
H1243 C1251 0.950 . S
H1244 C1249 0.950 . S
H1245 C1250 0.949 . S
H1246 C1252 0.950 . S
H1247 C1253 0.950 . S
H1248 C1254 0.949 . S
C1249 H1244 0.950 . S
C1249 C1251 1.327 . S
C1249 C1255 1.429 . S
C1250 C1242 1.574 1_655 S
C1250 H1245 0.949 . S
C1250 C1256 1.368 . S
C1251 C1235 1.349 . S
C1251 H1243 0.950 . S
C1251 C1249 1.327 . S
C1252 C1240 1.349 . S
C1252 H1246 0.950 . S
C1252 C1253 1.327 . S
C1253 H1247 0.950 . S
C1253 C1252 1.327 . S
C1253 C1257 1.429 . S
C1254 C1237 1.574 1_455 S
C1254 H1248 0.949 . S
C1254 C1258 1.368 . S
C1255 C1236 1.429 . S
C1255 C1249 1.429 . S
C1255 C1256 1.523 . S
C1256 C1237 1.368 . S
C1256 C1250 1.368 . S
C1256 C1255 1.523 . S
C1257 C1241 1.429 . S
C1257 C1253 1.429 . S
C1257 C1258 1.523 . S
C1258 C1242 1.368 . S
C1258 C1254 1.368 . S
C1258 C1257 1.523 . S
H1259 C1234 0.950 . S
H1260 C1236 0.950 . S
H1261 C1237 0.949 . S
H1262 C1239 0.950 . S
H1263 C1241 0.950 . S
C1264 C1265 1.349 . S
C1264 C1266 1.327 . S
C1264 H1289 0.950 . S
C1265 C1264 1.349 . S
C1265 C1281 1.349 . S
C1266 C1264 1.327 . S
C1266 C1285 1.429 . S
C1266 H1290 0.950 . S
C1267 C1284 1.574 . S
C1267 C1286 1.368 . S
C1267 H1291 0.949 . S
H1268 C1272 0.949 . S
C1269 C1270 1.349 . S
C1269 C1271 1.327 . S
C1269 H1292 0.950 . S
C1270 C1269 1.349 . S
C1270 C1282 1.349 . S
C1271 C1269 1.327 . S
C1271 C1287 1.429 . S
C1271 H1293 0.950 . S
C1272 H1268 0.949 . S
C1272 C1280 1.574 . S
C1272 C1288 1.368 . S
H1273 C1281 0.950 . S
H1274 C1279 0.950 . S
H1275 C1280 0.949 . S
H1276 C1282 0.950 . S
H1277 C1283 0.950 . S
H1278 C1284 0.949 . S
C1279 H1274 0.950 . S
C1279 C1281 1.327 . S
C1279 C1285 1.429 . S
C1280 C1272 1.574 . S
C1280 H1275 0.949 . S
C1280 C1286 1.368 . S
C1281 C1265 1.349 . S
C1281 H1273 0.950 . S
C1281 C1279 1.327 . S
C1282 C1270 1.349 . S
C1282 H1276 0.950 . S
C1282 C1283 1.327 . S
C1283 H1277 0.950 . S
C1283 C1282 1.327 . S
C1283 C1287 1.429 . S
C1284 C1267 1.574 . S
C1284 H1278 0.949 . S
C1284 C1288 1.368 . S
C1285 C1266 1.429 . S
C1285 C1279 1.429 . S
C1285 C1286 1.523 . S
C1286 C1267 1.368 . S
C1286 C1280 1.368 . S
C1286 C1285 1.523 . S
C1287 C1271 1.429 . S
C1287 C1283 1.429 . S
C1287 C1288 1.523 . S
C1288 C1272 1.368 . S
C1288 C1284 1.368 . S
C1288 C1287 1.523 . S
H1289 C1264 0.950 . S
H1290 C1266 0.950 . S
H1291 C1267 0.949 . S
H1292 C1269 0.950 . S
H1293 C1271 0.950 . S
C1294 C1295 1.349 . S
C1294 C1296 1.327 . S
C1294 H1319 0.950 . S
C1295 C1294 1.349 . S
C1295 C1311 1.349 . S
C1296 C1294 1.327 . S
C1296 C1315 1.429 . S
C1296 H1320 0.950 . S
C1297 C1314 1.574 . S
C1297 C1316 1.368 . S
C1297 H1321 0.949 . S
H1298 C1302 0.949 . S
C1299 C1300 1.349 . S
C1299 C1301 1.327 . S
C1299 H1322 0.950 . S
C1300 C1299 1.349 . S
C1300 C1312 1.349 . S
C1301 C1299 1.327 . S
C1301 C1317 1.429 . S
C1301 H1323 0.950 . S
C1302 H1298 0.949 . S
C1302 C1310 1.574 . S
C1302 C1318 1.368 . S
H1303 C1311 0.950 . S
H1304 C1309 0.950 . S
H1305 C1310 0.949 . S
H1306 C1312 0.950 . S
H1307 C1313 0.950 . S
H1308 C1314 0.949 . S
C1309 H1304 0.950 . S
C1309 C1311 1.327 . S
C1309 C1315 1.429 . S
C1310 C1302 1.574 . S
C1310 H1305 0.949 . S
C1310 C1316 1.368 . S
C1311 C1295 1.349 . S
C1311 H1303 0.950 . S
C1311 C1309 1.327 . S
C1312 C1300 1.349 . S
C1312 H1306 0.950 . S
C1312 C1313 1.327 . S
C1313 H1307 0.950 . S
C1313 C1312 1.327 . S
C1313 C1317 1.429 . S
C1314 C1297 1.574 . S
C1314 H1308 0.949 . S
C1314 C1318 1.368 . S
C1315 C1296 1.429 . S
C1315 C1309 1.429 . S
C1315 C1316 1.523 . S
C1316 C1297 1.368 . S
C1316 C1310 1.368 . S
C1316 C1315 1.523 . S
C1317 C1301 1.429 . S
C1317 C1313 1.429 . S
C1317 C1318 1.523 . S
C1318 C1302 1.368 . S
C1318 C1314 1.368 . S
C1318 C1317 1.523 . S
H1319 C1294 0.950 . S
H1320 C1296 0.950 . S
H1321 C1297 0.949 . S
H1322 C1299 0.950 . S
H1323 C1301 0.950 . S
C1324 C1325 1.349 . S
C1324 C1326 1.327 . S
C1324 H1349 0.950 . S
C1325 C1324 1.349 . S
C1325 C1341 1.349 . S
C1326 C1324 1.327 . S
C1326 C1345 1.429 . S
C1326 H1350 0.950 . S
C1327 C1344 1.574 . S
C1327 C1346 1.368 . S
C1327 H1351 0.949 . S
H1328 C1332 0.949 . S
C1329 C1330 1.349 . S
C1329 C1331 1.327 . S
C1329 H1352 0.950 . S
C1330 C1329 1.349 . S
C1330 C1342 1.349 . S
C1331 C1329 1.327 . S
C1331 C1347 1.429 . S
C1331 H1353 0.950 . S
C1332 H1328 0.949 . S
C1332 C1340 1.574 . S
C1332 C1348 1.368 . S
H1333 C1341 0.950 . S
H1334 C1339 0.950 . S
H1335 C1340 0.949 . S
H1336 C1342 0.950 . S
H1337 C1343 0.950 . S
H1338 C1344 0.949 . S
C1339 H1334 0.950 . S
C1339 C1341 1.327 . S
C1339 C1345 1.429 . S
C1340 C1332 1.574 . S
C1340 H1335 0.949 . S
C1340 C1346 1.368 . S
C1341 C1325 1.349 . S
C1341 H1333 0.950 . S
C1341 C1339 1.327 . S
C1342 C1330 1.349 . S
C1342 H1336 0.950 . S
C1342 C1343 1.327 . S
C1343 H1337 0.950 . S
C1343 C1342 1.327 . S
C1343 C1347 1.429 . S
C1344 C1327 1.574 . S
C1344 H1338 0.949 . S
C1344 C1348 1.368 . S
C1345 C1326 1.429 . S
C1345 C1339 1.429 . S
C1345 C1346 1.523 . S
C1346 C1327 1.368 . S
C1346 C1340 1.368 . S
C1346 C1345 1.523 . S
C1347 C1331 1.429 . S
C1347 C1343 1.429 . S
C1347 C1348 1.523 . S
C1348 C1332 1.368 . S
C1348 C1344 1.368 . S
C1348 C1347 1.523 . S
H1349 C1324 0.950 . S
H1350 C1326 0.950 . S
H1351 C1327 0.949 . S
H1352 C1329 0.950 . S
H1353 C1331 0.950 . S
C1354 C1355 1.349 . S
C1354 C1356 1.327 . S
C1354 H1379 0.950 . S
C1355 C1354 1.349 . S
C1355 C1371 1.349 . S
C1356 C1354 1.327 . S
C1356 C1375 1.429 . S
C1356 H1380 0.950 . S
C1357 C1374 1.574 . S
C1357 C1376 1.368 . S
C1357 H1381 0.949 . S
H1358 C1362 0.949 . S
C1359 C1360 1.349 . S
C1359 C1361 1.327 . S
C1359 H1382 0.950 . S
C1360 C1359 1.349 . S
C1360 C1372 1.349 . S
C1361 C1359 1.327 . S
C1361 C1377 1.429 . S
C1361 H1383 0.950 . S
C1362 H1358 0.949 . S
C1362 C1370 1.574 . S
C1362 C1378 1.368 . S
H1363 C1371 0.950 . S
H1364 C1369 0.950 . S
H1365 C1370 0.949 . S
H1366 C1372 0.950 . S
H1367 C1373 0.950 . S
H1368 C1374 0.949 . S
C1369 H1364 0.950 . S
C1369 C1371 1.327 . S
C1369 C1375 1.429 . S
C1370 C1362 1.574 . S
C1370 H1365 0.949 . S
C1370 C1376 1.368 . S
C1371 C1355 1.349 . S
C1371 H1363 0.950 . S
C1371 C1369 1.327 . S
C1372 C1360 1.349 . S
C1372 H1366 0.950 . S
C1372 C1373 1.327 . S
C1373 H1367 0.950 . S
C1373 C1372 1.327 . S
C1373 C1377 1.429 . S
C1374 C1357 1.574 . S
C1374 H1368 0.949 . S
C1374 C1378 1.368 . S
C1375 C1356 1.429 . S
C1375 C1369 1.429 . S
C1375 C1376 1.523 . S
C1376 C1357 1.368 . S
C1376 C1370 1.368 . S
C1376 C1375 1.523 . S
C1377 C1361 1.429 . S
C1377 C1373 1.429 . S
C1377 C1378 1.523 . S
C1378 C1362 1.368 . S
C1378 C1374 1.368 . S
C1378 C1377 1.523 . S
H1379 C1354 0.950 . S
H1380 C1356 0.950 . S
H1381 C1357 0.949 . S
H1382 C1359 0.950 . S
H1383 C1361 0.950 . S
C1384 C1385 1.349 . S
C1384 C1386 1.327 . S
C1384 H1409 0.950 . S
C1385 C1384 1.349 . S
C1385 C1401 1.349 . S
C1386 C1384 1.327 . S
C1386 C1405 1.429 . S
C1386 H1410 0.950 . S
C1387 C1404 1.574 . S
C1387 C1406 1.368 . S
C1387 H1411 0.949 . S
H1388 C1392 0.949 . S
C1389 C1390 1.349 . S
C1389 C1391 1.327 . S
C1389 H1412 0.950 . S
C1390 C1389 1.349 . S
C1390 C1402 1.349 . S
C1391 C1389 1.327 . S
C1391 C1407 1.429 . S
C1391 H1413 0.950 . S
C1392 H1388 0.949 . S
C1392 C1400 1.574 . S
C1392 C1408 1.368 . S
H1393 C1401 0.950 . S
H1394 C1399 0.950 . S
H1395 C1400 0.949 . S
H1396 C1402 0.950 . S
H1397 C1403 0.950 . S
H1398 C1404 0.949 . S
C1399 H1394 0.950 . S
C1399 C1401 1.327 . S
C1399 C1405 1.429 . S
C1400 C1392 1.574 . S
C1400 H1395 0.949 . S
C1400 C1406 1.368 . S
C1401 C1385 1.349 . S
C1401 H1393 0.950 . S
C1401 C1399 1.327 . S
C1402 C1390 1.349 . S
C1402 H1396 0.950 . S
C1402 C1403 1.327 . S
C1403 H1397 0.950 . S
C1403 C1402 1.327 . S
C1403 C1407 1.429 . S
C1404 C1387 1.574 . S
C1404 H1398 0.949 . S
C1404 C1408 1.368 . S
C1405 C1386 1.429 . S
C1405 C1399 1.429 . S
C1405 C1406 1.523 . S
C1406 C1387 1.368 . S
C1406 C1400 1.368 . S
C1406 C1405 1.523 . S
C1407 C1391 1.429 . S
C1407 C1403 1.429 . S
C1407 C1408 1.523 . S
C1408 C1392 1.368 . S
C1408 C1404 1.368 . S
C1408 C1407 1.523 . S
H1409 C1384 0.950 . S
H1410 C1386 0.950 . S
H1411 C1387 0.949 . S
H1412 C1389 0.950 . S
H1413 C1391 0.950 . S
C1414 C1415 1.349 . S
C1414 C1416 1.327 . S
C1414 H1439 0.950 . S
C1415 C1414 1.349 . S
C1415 C1431 1.349 . S
C1416 C1414 1.327 . S
C1416 C1435 1.429 . S
C1416 H1440 0.950 . S
C1417 C1434 1.574 . S
C1417 C1436 1.368 . S
C1417 H1441 0.949 . S
H1418 C1422 0.949 . S
C1419 C1420 1.349 . S
C1419 C1421 1.327 . S
C1419 H1442 0.950 . S
C1420 C1419 1.349 . S
C1420 C1432 1.349 . S
C1421 C1419 1.327 . S
C1421 C1437 1.429 . S
C1421 H1443 0.950 . S
C1422 H1418 0.949 . S
C1422 C1430 1.574 . S
C1422 C1438 1.368 . S
H1423 C1431 0.950 . S
H1424 C1429 0.950 . S
H1425 C1430 0.949 . S
H1426 C1432 0.950 . S
H1427 C1433 0.950 . S
H1428 C1434 0.949 . S
C1429 H1424 0.950 . S
C1429 C1431 1.327 . S
C1429 C1435 1.429 . S
C1430 C1422 1.574 . S
C1430 H1425 0.949 . S
C1430 C1436 1.368 . S
C1431 C1415 1.349 . S
C1431 H1423 0.950 . S
C1431 C1429 1.327 . S
C1432 C1420 1.349 . S
C1432 H1426 0.950 . S
C1432 C1433 1.327 . S
C1433 H1427 0.950 . S
C1433 C1432 1.327 . S
C1433 C1437 1.429 . S
C1434 C1417 1.574 . S
C1434 H1428 0.949 . S
C1434 C1438 1.368 . S
C1435 C1416 1.429 . S
C1435 C1429 1.429 . S
C1435 C1436 1.523 . S
C1436 C1417 1.368 . S
C1436 C1430 1.368 . S
C1436 C1435 1.523 . S
C1437 C1421 1.429 . S
C1437 C1433 1.429 . S
C1437 C1438 1.523 . S
C1438 C1422 1.368 . S
C1438 C1434 1.368 . S
C1438 C1437 1.523 . S
H1439 C1414 0.950 . S
H1440 C1416 0.950 . S
H1441 C1417 0.949 . S
H1442 C1419 0.950 . S
H1443 C1421 0.950 . S
C1444 C1445 1.349 . S
C1444 C1446 1.327 . S
C1444 H1469 0.950 . S
C1445 C1444 1.349 . S
C1445 C1461 1.349 . S
C1446 C1444 1.327 . S
C1446 C1465 1.429 . S
C1446 H1470 0.950 . S
C1447 C1464 1.574 . S
C1447 C1466 1.368 . S
C1447 H1471 0.949 . S
H1448 C1452 0.949 . S
C1449 C1450 1.349 . S
C1449 C1451 1.327 . S
C1449 H1472 0.950 . S
C1450 C1449 1.349 . S
C1450 C1462 1.349 . S
C1451 C1449 1.327 . S
C1451 C1467 1.429 . S
C1451 H1473 0.950 . S
C1452 H1448 0.949 . S
C1452 C1460 1.574 . S
C1452 C1468 1.368 . S
H1453 C1461 0.950 . S
H1454 C1459 0.950 . S
H1455 C1460 0.949 . S
H1456 C1462 0.950 . S
H1457 C1463 0.950 . S
H1458 C1464 0.949 . S
C1459 H1454 0.950 . S
C1459 C1461 1.327 . S
C1459 C1465 1.429 . S
C1460 C1452 1.574 . S
C1460 H1455 0.949 . S
C1460 C1466 1.368 . S
C1461 C1445 1.349 . S
C1461 H1453 0.950 . S
C1461 C1459 1.327 . S
C1462 C1450 1.349 . S
C1462 H1456 0.950 . S
C1462 C1463 1.327 . S
C1463 H1457 0.950 . S
C1463 C1462 1.327 . S
C1463 C1467 1.429 . S
C1464 C1447 1.574 . S
C1464 H1458 0.949 . S
C1464 C1468 1.368 . S
C1465 C1446 1.429 . S
C1465 C1459 1.429 . S
C1465 C1466 1.523 . S
C1466 C1447 1.368 . S
C1466 C1460 1.368 . S
C1466 C1465 1.523 . S
C1467 C1451 1.429 . S
C1467 C1463 1.429 . S
C1467 C1468 1.523 . S
C1468 C1452 1.368 . S
C1468 C1464 1.368 . S
C1468 C1467 1.523 . S
H1469 C1444 0.950 . S
H1470 C1446 0.950 . S
H1471 C1447 0.949 . S
H1472 C1449 0.950 . S
H1473 C1451 0.950 . S
C1474 C1475 1.349 . S
C1474 C1476 1.327 . S
C1474 H1499 0.950 . S
C1475 C1474 1.349 . S
C1475 C1491 1.349 . S
C1476 C1474 1.327 . S
C1476 C1495 1.429 . S
C1476 H1500 0.950 . S
C1477 C1494 1.574 . S
C1477 C1496 1.368 . S
C1477 H1501 0.949 . S
H1478 C1482 0.949 . S
C1479 C1480 1.349 . S
C1479 C1481 1.327 . S
C1479 H1502 0.950 . S
C1480 C1479 1.349 . S
C1480 C1492 1.349 . S
C1481 C1479 1.327 . S
C1481 C1497 1.429 . S
C1481 H1503 0.950 . S
C1482 H1478 0.949 . S
C1482 C1490 1.574 . S
C1482 C1498 1.368 . S
H1483 C1491 0.950 . S
H1484 C1489 0.950 . S
H1485 C1490 0.949 . S
H1486 C1492 0.950 . S
H1487 C1493 0.950 . S
H1488 C1494 0.949 . S
C1489 H1484 0.950 . S
C1489 C1491 1.327 . S
C1489 C1495 1.429 . S
C1490 C1482 1.574 . S
C1490 H1485 0.949 . S
C1490 C1496 1.368 . S
C1491 C1475 1.349 . S
C1491 H1483 0.950 . S
C1491 C1489 1.327 . S
C1492 C1480 1.349 . S
C1492 H1486 0.950 . S
C1492 C1493 1.327 . S
C1493 H1487 0.950 . S
C1493 C1492 1.327 . S
C1493 C1497 1.429 . S
C1494 C1477 1.574 . S
C1494 H1488 0.949 . S
C1494 C1498 1.368 . S
C1495 C1476 1.429 . S
C1495 C1489 1.429 . S
C1495 C1496 1.523 . S
C1496 C1477 1.368 . S
C1496 C1490 1.368 . S
C1496 C1495 1.523 . S
C1497 C1481 1.429 . S
C1497 C1493 1.429 . S
C1497 C1498 1.523 . S
C1498 C1482 1.368 . S
C1498 C1494 1.368 . S
C1498 C1497 1.523 . S
H1499 C1474 0.950 . S
H1500 C1476 0.950 . S
H1501 C1477 0.949 . S
H1502 C1479 0.950 . S
H1503 C1481 0.950 . S
C1504 C1505 1.349 . S
C1504 C1506 1.327 . S
C1504 H1529 0.950 . S
C1505 C1504 1.349 . S
C1505 C1521 1.349 . S
C1506 C1504 1.327 . S
C1506 C1525 1.429 . S
C1506 H1530 0.950 . S
C1507 C1524 1.574 . S
C1507 C1526 1.368 . S
C1507 H1531 0.949 . S
H1508 C1512 0.949 . S
C1509 C1510 1.349 . S
C1509 C1511 1.327 . S
C1509 H1532 0.950 . S
C1510 C1509 1.349 . S
C1510 C1522 1.349 . S
C1511 C1509 1.327 . S
C1511 C1527 1.429 . S
C1511 H1533 0.950 . S
C1512 H1508 0.949 . S
C1512 C1520 1.574 . S
C1512 C1528 1.368 . S
H1513 C1521 0.950 . S
H1514 C1519 0.950 . S
H1515 C1520 0.949 . S
H1516 C1522 0.950 . S
H1517 C1523 0.950 . S
H1518 C1524 0.949 . S
C1519 H1514 0.950 . S
C1519 C1521 1.327 . S
C1519 C1525 1.429 . S
C1520 C1512 1.574 . S
C1520 H1515 0.949 . S
C1520 C1526 1.368 . S
C1521 C1505 1.349 . S
C1521 H1513 0.950 . S
C1521 C1519 1.327 . S
C1522 C1510 1.349 . S
C1522 H1516 0.950 . S
C1522 C1523 1.327 . S
C1523 H1517 0.950 . S
C1523 C1522 1.327 . S
C1523 C1527 1.429 . S
C1524 C1507 1.574 . S
C1524 H1518 0.949 . S
C1524 C1528 1.368 . S
C1525 C1506 1.429 . S
C1525 C1519 1.429 . S
C1525 C1526 1.523 . S
C1526 C1507 1.368 . S
C1526 C1520 1.368 . S
C1526 C1525 1.523 . S
C1527 C1511 1.429 . S
C1527 C1523 1.429 . S
C1527 C1528 1.523 . S
C1528 C1512 1.368 . S
C1528 C1524 1.368 . S
C1528 C1527 1.523 . S
H1529 C1504 0.950 . S
H1530 C1506 0.950 . S
H1531 C1507 0.949 . S
H1532 C1509 0.950 . S
H1533 C1511 0.950 . S
C1534 C1535 1.349 . S
C1534 C1536 1.327 . S
C1534 H1559 0.950 . S
C1535 C1534 1.349 . S
C1535 C1551 1.349 . S
C1536 C1534 1.327 . S
C1536 C1555 1.429 . S
C1536 H1560 0.950 . S
C1537 C1554 1.574 . S
C1537 C1556 1.368 . S
C1537 H1561 0.949 . S
H1538 C1542 0.949 . S
C1539 C1540 1.349 . S
C1539 C1541 1.327 . S
C1539 H1562 0.950 . S
C1540 C1539 1.349 . S
C1540 C1552 1.349 . S
C1541 C1539 1.327 . S
C1541 C1557 1.429 . S
C1541 H1563 0.950 . S
C1542 H1538 0.949 . S
C1542 C1550 1.574 . S
C1542 C1558 1.368 . S
H1543 C1551 0.950 . S
H1544 C1549 0.950 . S
H1545 C1550 0.949 . S
H1546 C1552 0.950 . S
H1547 C1553 0.950 . S
H1548 C1554 0.949 . S
C1549 H1544 0.950 . S
C1549 C1551 1.327 . S
C1549 C1555 1.429 . S
C1550 C1542 1.574 . S
C1550 H1545 0.949 . S
C1550 C1556 1.368 1_554 S
C1551 C1535 1.349 . S
C1551 H1543 0.950 . S
C1551 C1549 1.327 . S
C1552 C1540 1.349 . S
C1552 H1546 0.950 . S
C1552 C1553 1.327 . S
C1553 H1547 0.950 . S
C1553 C1552 1.327 . S
C1553 C1557 1.429 . S
C1554 C1537 1.574 . S
C1554 H1548 0.949 . S
C1554 C1558 1.368 1_556 S
C1555 C1536 1.429 . S
C1555 C1549 1.429 . S
C1555 C1556 1.523 . S
C1556 C1537 1.368 . S
C1556 C1550 1.368 1_556 S
C1556 C1555 1.523 . S
C1557 C1541 1.429 . S
C1557 C1553 1.429 . S
C1557 C1558 1.523 . S
C1558 C1542 1.368 . S
C1558 C1554 1.368 1_554 S
C1558 C1557 1.523 . S
H1559 C1534 0.950 . S
H1560 C1536 0.950 . S
H1561 C1537 0.949 . S
H1562 C1539 0.950 . S
H1563 C1541 0.950 . S
C1564 C1565 1.349 . S
C1564 C1566 1.327 . S
C1564 H1589 0.950 . S
C1565 C1564 1.349 . S
C1565 C1581 1.349 . S
C1566 C1564 1.327 . S
C1566 C1585 1.429 . S
C1566 H1590 0.950 . S
C1567 C1584 1.574 . S
C1567 C1586 1.368 . S
C1567 H1591 0.949 . S
H1568 C1572 0.949 . S
C1569 C1570 1.349 . S
C1569 C1571 1.327 . S
C1569 H1592 0.950 . S
C1570 C1569 1.349 . S
C1570 C1582 1.349 . S
C1571 C1569 1.327 . S
C1571 C1587 1.429 . S
C1571 H1593 0.950 . S
C1572 H1568 0.949 . S
C1572 C1580 1.574 . S
C1572 C1588 1.368 . S
H1573 C1581 0.950 . S
H1574 C1579 0.950 . S
H1575 C1580 0.949 . S
H1576 C1582 0.950 . S
H1577 C1583 0.950 . S
H1578 C1584 0.949 . S
C1579 H1574 0.950 . S
C1579 C1581 1.327 . S
C1579 C1585 1.429 . S
C1580 C1572 1.574 . S
C1580 H1575 0.949 . S
C1580 C1586 1.368 . S
C1581 C1565 1.349 . S
C1581 H1573 0.950 . S
C1581 C1579 1.327 . S
C1582 C1570 1.349 . S
C1582 H1576 0.950 . S
C1582 C1583 1.327 . S
C1583 H1577 0.950 . S
C1583 C1582 1.327 . S
C1583 C1587 1.429 . S
C1584 C1567 1.574 . S
C1584 H1578 0.949 . S
C1584 C1588 1.368 . S
C1585 C1566 1.429 . S
C1585 C1579 1.429 . S
C1585 C1586 1.523 . S
C1586 C1567 1.368 . S
C1586 C1580 1.368 . S
C1586 C1585 1.523 . S
C1587 C1571 1.429 . S
C1587 C1583 1.429 . S
C1587 C1588 1.523 . S
C1588 C1572 1.368 . S
C1588 C1584 1.368 . S
C1588 C1587 1.523 . S
H1589 C1564 0.950 . S
H1590 C1566 0.950 . S
H1591 C1567 0.949 . S
H1592 C1569 0.950 . S
H1593 C1571 0.950 . S
C1594 C1595 1.349 . S
C1594 C1596 1.327 . S
C1594 H1619 0.950 . S
C1595 C1594 1.349 . S
C1595 C1611 1.349 . S
C1596 C1594 1.327 . S
C1596 C1615 1.429 . S
C1596 H1620 0.950 . S
C1597 C1614 1.574 . S
C1597 C1616 1.368 . S
C1597 H1621 0.949 . S
H1598 C1602 0.949 . S
C1599 C1600 1.349 . S
C1599 C1601 1.327 . S
C1599 H1622 0.950 . S
C1600 C1599 1.349 . S
C1600 C1612 1.349 . S
C1601 C1599 1.327 . S
C1601 C1617 1.429 . S
C1601 H1623 0.950 . S
C1602 H1598 0.949 . S
C1602 C1610 1.574 . S
C1602 C1618 1.368 . S
H1603 C1611 0.950 . S
H1604 C1609 0.950 . S
H1605 C1610 0.949 . S
H1606 C1612 0.950 . S
H1607 C1613 0.950 . S
H1608 C1614 0.949 . S
C1609 H1604 0.950 . S
C1609 C1611 1.327 . S
C1609 C1615 1.429 . S
C1610 C1602 1.574 . S
C1610 H1605 0.949 . S
C1610 C1616 1.368 1_554 S
C1611 C1595 1.349 . S
C1611 H1603 0.950 . S
C1611 C1609 1.327 . S
C1612 C1600 1.349 . S
C1612 H1606 0.950 . S
C1612 C1613 1.327 . S
C1613 H1607 0.950 . S
C1613 C1612 1.327 . S
C1613 C1617 1.429 . S
C1614 C1597 1.574 . S
C1614 H1608 0.949 . S
C1614 C1618 1.368 1_556 S
C1615 C1596 1.429 . S
C1615 C1609 1.429 . S
C1615 C1616 1.523 . S
C1616 C1597 1.368 . S
C1616 C1610 1.368 1_556 S
C1616 C1615 1.523 . S
C1617 C1601 1.429 . S
C1617 C1613 1.429 . S
C1617 C1618 1.523 . S
C1618 C1602 1.368 . S
C1618 C1614 1.368 1_554 S
C1618 C1617 1.523 . S
H1619 C1594 0.950 . S
H1620 C1596 0.950 . S
H1621 C1597 0.949 . S
H1622 C1599 0.950 . S
H1623 C1601 0.950 . S
C1624 C1625 1.349 . S
C1624 C1626 1.327 . S
C1624 H1649 0.950 . S
C1625 C1624 1.349 . S
C1625 C1641 1.349 . S
C1626 C1624 1.327 . S
C1626 C1645 1.429 . S
C1626 H1650 0.950 . S
C1627 C1644 1.574 . S
C1627 C1646 1.368 1_545 S
C1627 H1651 0.949 . S
H1628 C1632 0.949 . S
C1629 C1630 1.349 . S
C1629 C1631 1.327 . S
C1629 H1652 0.950 . S
C1630 C1629 1.349 . S
C1630 C1642 1.349 . S
C1631 C1629 1.327 . S
C1631 C1647 1.429 . S
C1631 H1653 0.950 . S
C1632 H1628 0.949 . S
C1632 C1640 1.574 . S
C1632 C1648 1.368 1_565 S
H1633 C1641 0.950 . S
H1634 C1639 0.950 . S
H1635 C1640 0.949 . S
H1636 C1642 0.950 . S
H1637 C1643 0.950 . S
H1638 C1644 0.949 . S
C1639 H1634 0.950 . S
C1639 C1641 1.327 . S
C1639 C1645 1.429 . S
C1640 C1632 1.574 . S
C1640 H1635 0.949 . S
C1640 C1646 1.368 . S
C1641 C1625 1.349 . S
C1641 H1633 0.950 . S
C1641 C1639 1.327 . S
C1642 C1630 1.349 . S
C1642 H1636 0.950 . S
C1642 C1643 1.327 . S
C1643 H1637 0.950 . S
C1643 C1642 1.327 . S
C1643 C1647 1.429 . S
C1644 C1627 1.574 . S
C1644 H1638 0.949 . S
C1644 C1648 1.368 . S
C1645 C1626 1.429 . S
C1645 C1639 1.429 . S
C1645 C1646 1.523 . S
C1646 C1627 1.368 1_565 S
C1646 C1640 1.368 . S
C1646 C1645 1.523 . S
C1647 C1631 1.429 . S
C1647 C1643 1.429 . S
C1647 C1648 1.523 . S
C1648 C1632 1.368 1_545 S
C1648 C1644 1.368 . S
C1648 C1647 1.523 . S
H1649 C1624 0.950 . S
H1650 C1626 0.950 . S
H1651 C1627 0.949 . S
H1652 C1629 0.950 . S
H1653 C1631 0.950 . S
C1654 C1655 1.349 . S
C1654 C1656 1.327 . S
C1654 H1679 0.950 . S
C1655 C1654 1.349 . S
C1655 C1671 1.349 . S
C1656 C1654 1.327 . S
C1656 C1675 1.429 . S
C1656 H1680 0.950 . S
C1657 C1674 1.574 1_565 S
C1657 C1676 1.368 1_556 S
C1657 H1681 0.949 . S
H1658 C1662 0.949 . S
C1659 C1660 1.349 . S
C1659 C1661 1.327 . S
C1659 H1682 0.950 . S
C1660 C1659 1.349 . S
C1660 C1672 1.349 . S
C1661 C1659 1.327 . S
C1661 C1677 1.429 . S
C1661 H1683 0.950 . S
C1662 H1658 0.949 . S
C1662 C1670 1.574 1_545 S
C1662 C1678 1.368 1_554 S
H1663 C1671 0.950 . S
H1664 C1669 0.950 . S
H1665 C1670 0.949 . S
H1666 C1672 0.950 . S
H1667 C1673 0.950 . S
H1668 C1674 0.949 . S
C1669 H1664 0.950 . S
C1669 C1671 1.327 . S
C1669 C1675 1.429 . S
C1670 C1662 1.574 1_565 S
C1670 H1665 0.949 . S
C1670 C1676 1.368 . S
C1671 C1655 1.349 . S
C1671 H1663 0.950 . S
C1671 C1669 1.327 . S
C1672 C1660 1.349 . S
C1672 H1666 0.950 . S
C1672 C1673 1.327 . S
C1673 H1667 0.950 . S
C1673 C1672 1.327 . S
C1673 C1677 1.429 . S
C1674 C1657 1.574 1_545 S
C1674 H1668 0.949 . S
C1674 C1678 1.368 . S
C1675 C1656 1.429 . S
C1675 C1669 1.429 . S
C1675 C1676 1.523 . S
C1676 C1657 1.368 1_554 S
C1676 C1670 1.368 . S
C1676 C1675 1.523 . S
C1677 C1661 1.429 . S
C1677 C1673 1.429 . S
C1677 C1678 1.523 . S
C1678 C1662 1.368 1_556 S
C1678 C1674 1.368 . S
C1678 C1677 1.523 . S
H1679 C1654 0.950 . S
H1680 C1656 0.950 . S
H1681 C1657 0.949 . S
H1682 C1659 0.950 . S
H1683 C1661 0.950 . S
C1684 C1685 1.349 . S
C1684 C1686 1.327 . S
C1684 H1709 0.950 . S
C1685 C1684 1.349 . S
C1685 C1701 1.349 . S
C1686 C1684 1.327 . S
C1686 C1705 1.429 . S
C1686 H1710 0.950 . S
C1687 C1704 1.584 . S
C1687 C1706 1.359 1_565 S
C1687 H1711 0.949 . S
H1688 C1692 0.949 . S
C1689 C1690 1.349 . S
C1689 C1691 1.327 . S
C1689 H1712 0.950 . S
C1690 C1689 1.349 . S
C1690 C1702 1.349 . S
C1691 C1689 1.327 . S
C1691 C1707 1.429 . S
C1691 H1713 0.950 . S
C1692 H1688 0.949 . S
C1692 C1700 1.584 . S
C1692 C1708 1.359 1_545 S
H1693 C1701 0.950 . S
H1694 C1699 0.950 . S
H1695 C1700 0.949 . S
H1696 C1702 0.950 . S
H1697 C1703 0.950 . S
H1698 C1704 0.949 . S
C1699 H1694 0.950 . S
C1699 C1701 1.327 . S
C1699 C1705 1.429 . S
C1700 C1692 1.584 . S
C1700 H1695 0.949 . S
C1700 C1706 1.368 . S
C1701 C1685 1.349 . S
C1701 H1693 0.950 . S
C1701 C1699 1.327 . S
C1702 C1690 1.349 . S
C1702 H1696 0.950 . S
C1702 C1703 1.327 . S
C1703 H1697 0.950 . S
C1703 C1702 1.327 . S
C1703 C1707 1.429 . S
C1704 C1687 1.584 . S
C1704 H1698 0.949 . S
C1704 C1708 1.368 . S
C1705 C1686 1.429 . S
C1705 C1699 1.429 . S
C1705 C1706 1.523 . S
C1706 C1687 1.359 1_545 S
C1706 C1700 1.368 . S
C1706 C1705 1.523 . S
C1707 C1691 1.429 . S
C1707 C1703 1.429 . S
C1707 C1708 1.523 . S
C1708 C1692 1.359 1_565 S
C1708 C1704 1.368 . S
C1708 C1707 1.523 . S
H1709 C1684 0.950 . S
H1710 C1686 0.950 . S
H1711 C1687 0.949 . S
H1712 C1689 0.950 . S
H1713 C1691 0.950 . S
C1714 C1715 1.349 . S
C1714 C1716 1.327 . S
C1714 H1739 0.950 . S
C1715 C1714 1.349 . S
C1715 C1731 1.349 . S
C1716 C1714 1.327 . S
C1716 C1735 1.429 . S
C1716 H1740 0.950 . S
C1717 C1734 1.566 1_564 S
C1717 C1736 1.376 . S
C1717 H1741 0.950 . S
H1718 C1722 0.950 . S
C1719 C1720 1.349 . S
C1719 C1721 1.327 . S
C1719 H1742 0.950 . S
C1720 C1719 1.349 . S
C1720 C1732 1.349 . S
C1721 C1719 1.327 . S
C1721 C1737 1.429 . S
C1721 H1743 0.950 . S
C1722 H1718 0.950 . S
C1722 C1730 1.566 1_546 S
C1722 C1738 1.376 . S
H1723 C1731 0.950 . S
H1724 C1729 0.950 . S
H1725 C1730 0.949 . S
H1726 C1732 0.950 . S
H1727 C1733 0.950 . S
H1728 C1734 0.949 . S
C1729 H1724 0.950 . S
C1729 C1731 1.327 . S
C1729 C1735 1.429 . S
C1730 C1722 1.566 1_564 S
C1730 H1725 0.949 . S
C1730 C1736 1.368 . S
C1731 C1715 1.349 . S
C1731 H1723 0.950 . S
C1731 C1729 1.327 . S
C1732 C1720 1.349 . S
C1732 H1726 0.950 . S
C1732 C1733 1.327 . S
C1733 H1727 0.950 . S
C1733 C1732 1.327 . S
C1733 C1737 1.429 . S
C1734 C1717 1.566 1_546 S
C1734 H1728 0.949 . S
C1734 C1738 1.368 . S
C1735 C1716 1.429 . S
C1735 C1729 1.429 . S
C1735 C1736 1.523 . S
C1736 C1717 1.376 . S
C1736 C1730 1.368 . S
C1736 C1735 1.523 . S
C1737 C1721 1.429 . S
C1737 C1733 1.429 . S
C1737 C1738 1.523 . S
C1738 C1722 1.376 . S
C1738 C1734 1.368 . S
C1738 C1737 1.523 . S
H1739 C1714 0.950 . S
H1740 C1716 0.950 . S
H1741 C1717 0.950 . S
H1742 C1719 0.950 . S
H1743 C1721 0.950 . S
C1744 C1745 1.349 . S
C1744 C1746 1.327 . S
C1744 H1769 0.950 . S
C1745 C1744 1.349 . S
C1745 C1761 1.349 . S
C1746 C1744 1.327 . S
C1746 C1765 1.429 . S
C1746 H1770 0.950 . S
C1747 C1764 1.574 . S
C1747 C1766 1.368 . S
C1747 H1771 0.949 . S
H1748 C1752 0.949 . S
C1749 C1750 1.349 . S
C1749 C1751 1.327 . S
C1749 H1772 0.950 . S
C1750 C1749 1.349 . S
C1750 C1762 1.349 . S
C1751 C1749 1.327 . S
C1751 C1767 1.429 1_565 S
C1751 H1773 0.950 . S
C1752 H1748 0.949 . S
C1752 C1760 1.574 . S
C1752 C1768 1.368 . S
H1753 C1761 0.950 . S
H1754 C1759 0.950 . S
H1755 C1760 0.949 . S
H1756 C1762 0.950 . S
H1757 C1763 0.950 . S
H1758 C1764 0.949 . S
C1759 H1754 0.950 . S
C1759 C1761 1.327 . S
C1759 C1765 1.429 . S
C1760 C1752 1.574 . S
C1760 H1755 0.949 . S
C1760 C1766 1.368 . S
C1761 C1745 1.349 . S
C1761 H1753 0.950 . S
C1761 C1759 1.327 . S
C1762 C1750 1.349 . S
C1762 H1756 0.950 . S
C1762 C1763 1.327 1_565 S
C1763 H1757 0.950 . S
C1763 C1762 1.327 1_545 S
C1763 C1767 1.429 . S
C1764 C1747 1.574 . S
C1764 H1758 0.949 . S
C1764 C1768 1.368 . S
C1765 C1746 1.429 . S
C1765 C1759 1.429 . S
C1765 C1766 1.523 . S
C1766 C1747 1.368 . S
C1766 C1760 1.368 . S
C1766 C1765 1.523 . S
C1767 C1751 1.429 1_545 S
C1767 C1763 1.429 . S
C1767 C1768 1.523 . S
C1768 C1752 1.368 . S
C1768 C1764 1.368 . S
C1768 C1767 1.523 . S
H1769 C1744 0.950 . S
H1770 C1746 0.950 . S
H1771 C1747 0.949 . S
H1772 C1749 0.950 . S
H1773 C1751 0.950 . S
C1774 C1775 1.349 . S
C1774 C1776 1.332 . S
C1774 H1799 0.950 . S
C1775 C1774 1.349 . S
C1775 C1791 1.349 . S
C1776 C1774 1.332 . S
C1776 C1795 1.426 1_545 S
C1776 H1800 0.947 1_545 S
C1777 C1794 1.574 . S
C1777 C1796 1.368 . S
C1777 H1801 0.949 . S
H1778 C1782 0.949 . S
C1779 C1780 1.349 . S
C1779 C1781 1.327 . S
C1779 H1802 0.950 . S
C1780 C1779 1.349 . S
C1780 C1792 1.349 . S
C1781 C1779 1.327 . S
C1781 C1797 1.429 . S
C1781 H1803 0.950 . S
C1782 H1778 0.949 . S
C1782 C1790 1.574 . S
C1782 C1798 1.368 . S
H1783 C1791 0.950 . S
H1784 C1789 0.950 1_565 S
H1785 C1790 0.949 . S
H1786 C1792 0.950 . S
H1787 C1793 0.950 . S
H1788 C1794 0.949 . S
C1789 H1784 0.950 1_545 S
C1789 C1791 1.327 . S
C1789 C1795 1.429 1_545 S
C1790 C1782 1.574 . S
C1790 H1785 0.949 . S
C1790 C1796 1.368 . S
C1791 C1775 1.349 . S
C1791 H1783 0.950 . S
C1791 C1789 1.327 . S
C1792 C1780 1.349 . S
C1792 H1786 0.950 . S
C1792 C1793 1.327 . S
C1793 H1787 0.950 . S
C1793 C1792 1.327 . S
C1793 C1797 1.429 . S
C1794 C1777 1.574 . S
C1794 H1788 0.949 . S
C1794 C1798 1.368 . S
C1795 C1776 1.426 1_565 S
C1795 C1789 1.429 1_565 S
C1795 C1796 1.523 . S
C1796 C1777 1.368 . S
C1796 C1790 1.368 . S
C1796 C1795 1.523 . S
C1797 C1781 1.429 . S
C1797 C1793 1.429 . S
C1797 C1798 1.523 . S
C1798 C1782 1.368 . S
C1798 C1794 1.368 . S
C1798 C1797 1.523 . S
H1799 C1774 0.950 . S
H1800 C1776 0.947 1_565 S
H1801 C1777 0.949 . S
H1802 C1779 0.950 . S
H1803 C1781 0.950 . S
C1804 C1805 1.349 . S
C1804 C1806 1.300 1_545 S
C1804 H1829 0.950 . S
C1805 C1804 1.349 . S
C1805 C1821 1.349 . S
C1806 C1804 1.300 1_565 S
C1806 C1825 1.440 . S
C1806 H1830 0.966 . S
C1807 C1824 1.574 . S
C1807 C1826 1.368 . S
C1807 H1831 0.949 . S
H1808 C1812 0.949 . S
C1809 C1810 1.349 . S
C1809 C1811 1.327 . S
C1809 H1832 0.950 . S
C1810 C1809 1.349 . S
C1810 C1822 1.349 . S
C1811 C1809 1.327 . S
C1811 C1827 1.429 . S
C1811 H1833 0.950 . S
C1812 H1808 0.949 . S
C1812 C1820 1.574 . S
C1812 C1828 1.368 . S
H1813 C1821 0.950 . S
H1814 C1819 0.952 . S
H1815 C1820 0.949 . S
H1816 C1822 0.950 . S
H1817 C1823 0.950 . S
H1818 C1824 0.949 . S
C1819 H1814 0.952 . S
C1819 C1821 1.327 . S
C1819 C1825 1.429 1_545 S
C1820 C1812 1.574 . S
C1820 H1815 0.949 . S
C1820 C1826 1.368 . S
C1821 C1805 1.349 . S
C1821 H1813 0.950 . S
C1821 C1819 1.327 . S
C1822 C1810 1.349 . S
C1822 H1816 0.950 . S
C1822 C1823 1.327 . S
C1823 H1817 0.950 . S
C1823 C1822 1.327 . S
C1823 C1827 1.429 . S
C1824 C1807 1.574 . S
C1824 H1818 0.949 . S
C1824 C1828 1.368 . S
C1825 C1806 1.440 . S
C1825 C1819 1.429 1_565 S
C1825 C1826 1.523 . S
C1826 C1807 1.368 . S
C1826 C1820 1.368 . S
C1826 C1825 1.523 . S
C1827 C1811 1.429 . S
C1827 C1823 1.429 . S
C1827 C1828 1.523 . S
C1828 C1812 1.368 . S
C1828 C1824 1.368 . S
C1828 C1827 1.523 . S
H1829 C1804 0.950 . S
H1830 C1806 0.966 . S
H1831 C1807 0.949 . S
H1832 C1809 0.950 . S
H1833 C1811 0.950 . S
C1834 C1835 1.349 . S
C1834 C1836 1.327 . S
C1834 H1859 0.950 . S
C1835 C1834 1.349 . S
C1835 C1851 1.349 . S
C1836 C1834 1.327 . S
C1836 C1855 1.429 . S
C1836 H1860 0.950 . S
C1837 C1854 1.574 . S
C1837 C1856 1.368 . S
C1837 H1861 0.949 . S
H1838 C1842 0.949 . S
C1839 C1840 1.349 . S
C1839 C1841 1.327 1_565 S
C1839 H1862 0.950 . S
C1840 C1839 1.349 . S
C1840 C1852 1.349 . S
C1841 C1839 1.327 1_545 S
C1841 C1857 1.429 . S
C1841 H1863 0.950 . S
C1842 H1838 0.949 . S
C1842 C1850 1.574 . S
C1842 C1858 1.368 . S
H1843 C1851 0.950 . S
H1844 C1849 0.950 . S
H1845 C1850 0.949 . S
H1846 C1852 0.950 . S
H1847 C1853 0.950 . S
H1848 C1854 0.949 . S
C1849 H1844 0.950 . S
C1849 C1851 1.327 . S
C1849 C1855 1.429 . S
C1850 C1842 1.574 . S
C1850 H1845 0.949 . S
C1850 C1856 1.368 . S
C1851 C1835 1.349 . S
C1851 H1843 0.950 . S
C1851 C1849 1.327 . S
C1852 C1840 1.349 . S
C1852 H1846 0.950 . S
C1852 C1853 1.327 . S
C1853 H1847 0.950 . S
C1853 C1852 1.327 . S
C1853 C1857 1.429 1_565 S
C1854 C1837 1.574 . S
C1854 H1848 0.949 . S
C1854 C1858 1.368 . S
C1855 C1836 1.429 . S
C1855 C1849 1.429 . S
C1855 C1856 1.523 . S
C1856 C1837 1.368 . S
C1856 C1850 1.368 . S
C1856 C1855 1.523 . S
C1857 C1841 1.429 . S
C1857 C1853 1.429 1_545 S
C1857 C1858 1.523 . S
C1858 C1842 1.368 . S
C1858 C1854 1.368 . S
C1858 C1857 1.523 . S
H1859 C1834 0.950 . S
H1860 C1836 0.950 . S
H1861 C1837 0.949 . S
H1862 C1839 0.950 . S
H1863 C1841 0.950 . S
C1864 C1865 1.349 . S
C1864 C1866 1.327 . S
C1864 H1889 0.950 . S
C1865 C1864 1.349 . S
C1865 C1881 1.349 . S
C1866 C1864 1.327 . S
C1866 C1885 1.429 . S
C1866 H1890 0.950 . S
C1867 C1884 1.574 . S
C1867 C1886 1.368 . S
C1867 H1891 0.949 . S
H1868 C1872 0.949 . S
C1869 C1870 1.349 . S
C1869 C1871 1.327 . S
C1869 H1892 0.950 . S
C1870 C1869 1.349 . S
C1870 C1882 1.349 . S
C1871 C1869 1.327 . S
C1871 C1887 1.429 1_545 S
C1871 H1893 0.949 1_545 S
C1872 H1868 0.949 . S
C1872 C1880 1.574 . S
C1872 C1888 1.368 . S
H1873 C1881 0.950 . S
H1874 C1879 0.950 . S
H1875 C1880 0.949 . S
H1876 C1882 0.950 . S
H1877 C1883 0.960 . S
H1878 C1884 0.949 . S
C1879 H1874 0.950 . S
C1879 C1881 1.327 . S
C1879 C1885 1.429 . S
C1880 C1872 1.574 . S
C1880 H1875 0.949 . S
C1880 C1886 1.368 . S
C1881 C1865 1.349 . S
C1881 H1873 0.950 . S
C1881 C1879 1.327 . S
C1882 C1870 1.349 . S
C1882 H1876 0.950 . S
C1882 C1883 1.310 1_545 S
C1883 H1877 0.960 . S
C1883 C1882 1.310 1_565 S
C1883 C1887 1.436 . S
C1884 C1867 1.574 . S
C1884 H1878 0.949 . S
C1884 C1888 1.368 . S
C1885 C1866 1.429 . S
C1885 C1879 1.429 . S
C1885 C1886 1.523 . S
C1886 C1867 1.368 . S
C1886 C1880 1.368 . S
C1886 C1885 1.523 . S
C1887 C1871 1.429 1_565 S
C1887 C1883 1.436 . S
C1887 C1888 1.523 . S
C1888 C1872 1.368 . S
C1888 C1884 1.368 . S
C1888 C1887 1.523 . S
H1889 C1864 0.950 . S
H1890 C1866 0.950 . S
H1891 C1867 0.949 . S
H1892 C1869 0.950 . S
H1893 C1871 0.949 1_565 S
C1894 C1895 1.349 . S
C1894 C1896 1.327 . S
C1894 H1919 0.950 . S
C1895 C1894 1.349 . S
C1895 C1911 1.349 . S
C1896 C1894 1.327 . S
C1896 C1915 1.429 . S
C1896 H1920 0.950 . S
C1897 C1914 1.574 . S
C1897 C1916 1.368 . S
C1897 H1921 0.949 . S
H1898 C1902 0.949 . S
C1899 C1900 1.349 . S
C1899 C1901 1.325 1_565 S
C1899 H1922 0.950 . S
C1900 C1899 1.349 . S
C1900 C1912 1.349 . S
C1901 C1899 1.325 1_545 S
C1901 C1917 1.430 . S
C1901 H1923 0.951 . S
C1902 H1898 0.949 . S
C1902 C1910 1.574 . S
C1902 C1918 1.368 . S
H1903 C1911 0.950 . S
H1904 C1909 0.950 . S
H1905 C1910 0.949 . S
H1906 C1912 0.950 . S
H1907 C1913 0.941 1_545 S
H1908 C1914 0.949 . S
C1909 H1904 0.950 . S
C1909 C1911 1.327 . S
C1909 C1915 1.429 . S
C1910 C1902 1.574 . S
C1910 H1905 0.949 . S
C1910 C1916 1.368 . S
C1911 C1895 1.349 . S
C1911 H1903 0.950 . S
C1911 C1909 1.327 . S
C1912 C1900 1.349 . S
C1912 H1906 0.950 . S
C1912 C1913 1.327 . S
C1913 H1907 0.941 1_565 S
C1913 C1912 1.327 . S
C1913 C1917 1.429 1_565 S
C1914 C1897 1.574 . S
C1914 H1908 0.949 . S
C1914 C1918 1.368 . S
C1915 C1896 1.429 . S
C1915 C1909 1.429 . S
C1915 C1916 1.523 . S
C1916 C1897 1.368 . S
C1916 C1910 1.368 . S
C1916 C1915 1.523 . S
C1917 C1901 1.430 . S
C1917 C1913 1.429 1_545 S
C1917 C1918 1.523 . S
C1918 C1902 1.368 . S
C1918 C1914 1.368 . S
C1918 C1917 1.523 . S
H1919 C1894 0.950 . S
H1920 C1896 0.950 . S
H1921 C1897 0.949 . S
H1922 C1899 0.950 . S
H1923 C1901 0.951 . S
C1924 C1925 1.349 . S
C1924 C1926 1.327 . S
C1924 H1949 0.950 . S
C1925 C1924 1.349 . S
C1925 C1941 1.349 . S
C1926 C1924 1.327 . S
C1926 C1945 1.429 1_565 S
C1926 H1950 0.950 . S
C1927 C1944 1.574 . S
C1927 C1946 1.368 . S
C1927 H1951 0.949 . S
H1928 C1932 0.949 . S
C1929 C1930 1.349 . S
C1929 C1931 1.327 . S
C1929 H1952 0.950 . S
C1930 C1929 1.349 . S
C1930 C1942 1.349 . S
C1931 C1929 1.327 . S
C1931 C1947 1.429 . S
C1931 H1953 0.950 . S
C1932 H1928 0.949 . S
C1932 C1940 1.574 . S
C1932 C1948 1.368 . S
H1933 C1941 0.950 . S
H1934 C1939 0.950 . S
H1935 C1940 0.949 . S
H1936 C1942 0.950 . S
H1937 C1943 0.950 . S
H1938 C1944 0.949 . S
C1939 H1934 0.950 . S
C1939 C1941 1.327 1_545 S
C1939 C1945 1.429 . S
C1940 C1932 1.574 . S
C1940 H1935 0.949 . S
C1940 C1946 1.368 . S
C1941 C1925 1.349 . S
C1941 H1933 0.950 . S
C1941 C1939 1.327 1_565 S
C1942 C1930 1.349 . S
C1942 H1936 0.950 . S
C1942 C1943 1.327 . S
C1943 H1937 0.950 . S
C1943 C1942 1.327 . S
C1943 C1947 1.429 . S
C1944 C1927 1.574 . S
C1944 H1938 0.949 . S
C1944 C1948 1.368 . S
C1945 C1926 1.429 1_545 S
C1945 C1939 1.429 . S
C1945 C1946 1.523 . S
C1946 C1927 1.368 . S
C1946 C1940 1.368 . S
C1946 C1945 1.523 . S
C1947 C1931 1.429 . S
C1947 C1943 1.429 . S
C1947 C1948 1.523 . S
C1948 C1932 1.368 . S
C1948 C1944 1.368 . S
C1948 C1947 1.523 . S
H1949 C1924 0.950 . S
H1950 C1926 0.950 . S
H1951 C1927 0.949 . S
H1952 C1929 0.950 . S
H1953 C1931 0.950 . S
C1954 C1955 1.349 . S
C1954 C1956 1.327 . S
C1954 H1979 0.950 . S
C1955 C1954 1.349 . S
C1955 C1971 1.349 . S
C1956 C1954 1.327 . S
C1956 C1975 1.429 . S
C1956 H1980 0.950 . S
C1957 C1974 1.574 . S
C1957 C1976 1.368 . S
C1957 H1981 0.949 . S
H1958 C1962 0.949 . S
C1959 C1960 1.349 . S
C1959 C1961 1.344 . S
C1959 H1982 0.950 . S
C1960 C1959 1.349 . S
C1960 C1972 1.349 . S
C1961 C1959 1.344 . S
C1961 C1977 1.421 1_545 S
C1961 H1983 0.940 1_545 S
C1962 H1958 0.949 . S
C1962 C1970 1.574 . S
C1962 C1978 1.368 . S
H1963 C1971 0.950 . S
H1964 C1969 0.950 . S
H1965 C1970 0.949 . S
H1966 C1972 0.950 . S
H1967 C1973 0.950 1_565 S
H1968 C1974 0.949 . S
C1969 H1964 0.950 . S
C1969 C1971 1.327 . S
C1969 C1975 1.429 . S
C1970 C1962 1.574 . S
C1970 H1965 0.949 . S
C1970 C1976 1.368 . S
C1971 C1955 1.349 . S
C1971 H1963 0.950 . S
C1971 C1969 1.327 . S
C1972 C1960 1.349 . S
C1972 H1966 0.950 . S
C1972 C1973 1.327 . S
C1973 H1967 0.950 1_545 S
C1973 C1972 1.327 . S
C1973 C1977 1.429 1_545 S
C1974 C1957 1.574 . S
C1974 H1968 0.949 . S
C1974 C1978 1.368 . S
C1975 C1956 1.429 . S
C1975 C1969 1.429 . S
C1975 C1976 1.523 . S
C1976 C1957 1.368 . S
C1976 C1970 1.368 . S
C1976 C1975 1.523 . S
C1977 C1961 1.421 1_565 S
C1977 C1973 1.429 1_565 S
C1977 C1978 1.523 . S
C1978 C1962 1.368 . S
C1978 C1974 1.368 . S
C1978 C1977 1.523 . S
H1979 C1954 0.950 . S
H1980 C1956 0.950 . S
H1981 C1957 0.949 . S
H1982 C1959 0.950 . S
H1983 C1961 0.940 1_565 S
C1984 C1985 1.349 . S
C1984 C1986 1.327 . S
C1984 H2009 0.950 . S
C1985 C1984 1.349 . S
C1985 C2001 1.349 . S
C1986 C1984 1.327 . S
C1986 C2005 1.429 . S
C1986 H2010 0.950 . S
C1987 C2004 1.574 . S
C1987 C2006 1.368 . S
C1987 H2011 0.949 . S
H1988 C1992 0.949 . S
C1989 C1990 1.349 . S
C1989 C1991 1.327 . S
C1989 H2012 0.950 . S
C1990 C1989 1.349 . S
C1990 C2002 1.349 . S
C1991 C1989 1.327 . S
C1991 C2007 1.429 . S
C1991 H2013 0.950 . S
C1992 H1988 0.949 . S
C1992 C2000 1.574 . S
C1992 C2008 1.368 . S
H1993 C2001 0.950 . S
H1994 C1999 0.950 . S
H1995 C2000 0.949 . S
H1996 C2002 0.950 . S
H1997 C2003 0.950 . S
H1998 C2004 0.949 . S
C1999 H1994 0.950 . S
C1999 C2001 1.327 . S
C1999 C2005 1.429 . S
C2000 C1992 1.574 . S
C2000 H1995 0.949 . S
C2000 C2006 1.368 . S
C2001 C1985 1.349 . S
C2001 H1993 0.950 . S
C2001 C1999 1.327 . S
C2002 C1990 1.349 . S
C2002 H1996 0.950 . S
C2002 C2003 1.327 . S
C2003 H1997 0.950 . S
C2003 C2002 1.327 . S
C2003 C2007 1.429 . S
C2004 C1987 1.574 . S
C2004 H1998 0.949 . S
C2004 C2008 1.368 . S
C2005 C1986 1.429 . S
C2005 C1999 1.429 . S
C2005 C2006 1.523 . S
C2006 C1987 1.368 . S
C2006 C2000 1.368 . S
C2006 C2005 1.523 . S
C2007 C1991 1.429 . S
C2007 C2003 1.429 . S
C2007 C2008 1.523 . S
C2008 C1992 1.368 . S
C2008 C2004 1.368 . S
C2008 C2007 1.523 . S
H2009 C1984 0.950 . S
H2010 C1986 0.950 . S
H2011 C1987 0.949 . S
H2012 C1989 0.950 . S
H2013 C1991 0.950 . S
C2014 C2015 1.349 . S
C2014 C2016 1.327 . S
C2014 H2039 0.950 . S
C2015 C2014 1.349 . S
C2015 C2031 1.349 . S
C2016 C2014 1.327 . S
C2016 C2035 1.429 . S
C2016 H2040 0.950 . S
C2017 C2034 1.574 . S
C2017 C2036 1.368 . S
C2017 H2041 0.949 . S
H2018 C2022 0.949 . S
C2019 C2020 1.349 . S
C2019 C2021 1.327 . S
C2019 H2042 0.950 . S
C2020 C2019 1.349 . S
C2020 C2032 1.349 . S
C2021 C2019 1.327 . S
C2021 C2037 1.429 . S
C2021 H2043 0.950 . S
C2022 H2018 0.949 . S
C2022 C2030 1.574 . S
C2022 C2038 1.368 . S
H2023 C2031 0.950 . S
H2024 C2029 0.950 . S
H2025 C2030 0.949 . S
H2026 C2032 0.950 . S
H2027 C2033 0.950 . S
H2028 C2034 0.949 . S
C2029 H2024 0.950 . S
C2029 C2031 1.327 . S
C2029 C2035 1.429 . S
C2030 C2022 1.574 . S
C2030 H2025 0.949 . S
C2030 C2036 1.368 . S
C2031 C2015 1.349 . S
C2031 H2023 0.950 . S
C2031 C2029 1.327 . S
C2032 C2020 1.349 . S
C2032 H2026 0.950 . S
C2032 C2033 1.327 . S
C2033 H2027 0.950 . S
C2033 C2032 1.327 . S
C2033 C2037 1.429 . S
C2034 C2017 1.574 . S
C2034 H2028 0.949 . S
C2034 C2038 1.368 . S
C2035 C2016 1.429 . S
C2035 C2029 1.429 . S
C2035 C2036 1.523 . S
C2036 C2017 1.368 . S
C2036 C2030 1.368 . S
C2036 C2035 1.523 . S
C2037 C2021 1.429 . S
C2037 C2033 1.429 . S
C2037 C2038 1.523 . S
C2038 C2022 1.368 . S
C2038 C2034 1.368 . S
C2038 C2037 1.523 . S
H2039 C2014 0.950 . S
H2040 C2016 0.950 . S
H2041 C2017 0.949 . S
H2042 C2019 0.950 . S
H2043 C2021 0.950 . S
C2044 C2045 1.349 . S
C2044 C2046 1.327 . S
C2044 H2069 0.950 . S
C2045 C2044 1.349 . S
C2045 C2061 1.349 . S
C2046 C2044 1.327 . S
C2046 C2065 1.429 . S
C2046 H2070 0.950 . S
C2047 C2064 1.574 . S
C2047 C2066 1.368 . S
C2047 H2071 0.949 . S
H2048 C2052 0.949 . S
C2049 C2050 1.349 . S
C2049 C2051 1.327 . S
C2049 H2072 0.950 . S
C2050 C2049 1.349 . S
C2050 C2062 1.349 . S
C2051 C2049 1.327 . S
C2051 C2067 1.429 . S
C2051 H2073 0.950 . S
C2052 H2048 0.949 . S
C2052 C2060 1.574 . S
C2052 C2068 1.368 . S
H2053 C2061 0.950 . S
H2054 C2059 0.950 . S
H2055 C2060 0.949 . S
H2056 C2062 0.950 . S
H2057 C2063 0.950 . S
H2058 C2064 0.949 . S
C2059 H2054 0.950 . S
C2059 C2061 1.327 . S
C2059 C2065 1.429 . S
C2060 C2052 1.574 . S
C2060 H2055 0.949 . S
C2060 C2066 1.368 . S
C2061 C2045 1.349 . S
C2061 H2053 0.950 . S
C2061 C2059 1.327 . S
C2062 C2050 1.349 . S
C2062 H2056 0.950 . S
C2062 C2063 1.327 . S
C2063 H2057 0.950 . S
C2063 C2062 1.327 . S
C2063 C2067 1.429 . S
C2064 C2047 1.574 . S
C2064 H2058 0.949 . S
C2064 C2068 1.368 . S
C2065 C2046 1.429 . S
C2065 C2059 1.429 . S
C2065 C2066 1.523 . S
C2066 C2047 1.368 . S
C2066 C2060 1.368 . S
C2066 C2065 1.523 . S
C2067 C2051 1.429 . S
C2067 C2063 1.429 . S
C2067 C2068 1.523 . S
C2068 C2052 1.368 . S
C2068 C2064 1.368 . S
C2068 C2067 1.523 . S
H2069 C2044 0.950 . S
H2070 C2046 0.950 . S
H2071 C2047 0.949 . S
H2072 C2049 0.950 . S
H2073 C2051 0.950 . S
C2074 C2075 1.349 . S
C2074 C2076 1.327 . S
C2074 H2099 0.950 . S
C2075 C2074 1.349 . S
C2075 C2091 1.349 . S
C2076 C2074 1.327 . S
C2076 C2095 1.429 . S
C2076 H2100 0.950 . S
C2077 C2094 1.574 . S
C2077 C2096 1.368 . S
C2077 H2101 0.949 . S
H2078 C2082 0.949 . S
C2079 C2080 1.349 . S
C2079 C2081 1.327 . S
C2079 H2102 0.950 . S
C2080 C2079 1.349 . S
C2080 C2092 1.349 . S
C2081 C2079 1.327 . S
C2081 C2097 1.429 . S
C2081 H2103 0.950 . S
C2082 H2078 0.949 . S
C2082 C2090 1.574 . S
C2082 C2098 1.368 . S
H2083 C2091 0.950 . S
H2084 C2089 0.950 . S
H2085 C2090 0.949 . S
H2086 C2092 0.950 . S
H2087 C2093 0.950 . S
H2088 C2094 0.949 . S
C2089 H2084 0.950 . S
C2089 C2091 1.327 . S
C2089 C2095 1.429 . S
C2090 C2082 1.574 . S
C2090 H2085 0.949 . S
C2090 C2096 1.368 . S
C2091 C2075 1.349 . S
C2091 H2083 0.950 . S
C2091 C2089 1.327 . S
C2092 C2080 1.349 . S
C2092 H2086 0.950 . S
C2092 C2093 1.327 . S
C2093 H2087 0.950 . S
C2093 C2092 1.327 . S
C2093 C2097 1.429 . S
C2094 C2077 1.574 . S
C2094 H2088 0.949 . S
C2094 C2098 1.368 . S
C2095 C2076 1.429 . S
C2095 C2089 1.429 . S
C2095 C2096 1.523 . S
C2096 C2077 1.368 . S
C2096 C2090 1.368 . S
C2096 C2095 1.523 . S
C2097 C2081 1.429 . S
C2097 C2093 1.429 . S
C2097 C2098 1.523 . S
C2098 C2082 1.368 . S
C2098 C2094 1.368 . S
C2098 C2097 1.523 . S
H2099 C2074 0.950 . S
H2100 C2076 0.950 . S
H2101 C2077 0.949 . S
H2102 C2079 0.950 . S
H2103 C2081 0.950 . S
C2104 C2105 1.349 . S
C2104 C2106 1.327 . S
C2104 H2129 0.950 . S
C2105 C2104 1.349 . S
C2105 C2121 1.349 . S
C2106 C2104 1.327 . S
C2106 C2125 1.429 . S
C2106 H2130 0.950 . S
C2107 C2124 1.574 . S
C2107 C2126 1.368 . S
C2107 H2131 0.949 . S
H2108 C2112 0.949 . S
C2109 C2110 1.349 . S
C2109 C2111 1.327 . S
C2109 H2132 0.950 . S
C2110 C2109 1.349 . S
C2110 C2122 1.349 . S
C2111 C2109 1.327 . S
C2111 C2127 1.429 . S
C2111 H2133 0.950 . S
C2112 H2108 0.949 . S
C2112 C2120 1.574 . S
C2112 C2128 1.368 . S
H2113 C2121 0.950 . S
H2114 C2119 0.950 . S
H2115 C2120 0.949 . S
H2116 C2122 0.950 . S
H2117 C2123 0.950 . S
H2118 C2124 0.949 . S
C2119 H2114 0.950 . S
C2119 C2121 1.327 . S
C2119 C2125 1.429 . S
C2120 C2112 1.574 . S
C2120 H2115 0.949 . S
C2120 C2126 1.368 . S
C2121 C2105 1.349 . S
C2121 H2113 0.950 . S
C2121 C2119 1.327 . S
C2122 C2110 1.349 . S
C2122 H2116 0.950 . S
C2122 C2123 1.327 . S
C2123 H2117 0.950 . S
C2123 C2122 1.327 . S
C2123 C2127 1.429 . S
C2124 C2107 1.574 . S
C2124 H2118 0.949 . S
C2124 C2128 1.368 . S
C2125 C2106 1.429 . S
C2125 C2119 1.429 . S
C2125 C2126 1.523 . S
C2126 C2107 1.368 . S
C2126 C2120 1.368 . S
C2126 C2125 1.523 . S
C2127 C2111 1.429 . S
C2127 C2123 1.429 . S
C2127 C2128 1.523 . S
C2128 C2112 1.368 . S
C2128 C2124 1.368 . S
C2128 C2127 1.523 . S
H2129 C2104 0.950 . S
H2130 C2106 0.950 . S
H2131 C2107 0.949 . S
H2132 C2109 0.950 . S
H2133 C2111 0.950 . S
C2134 C2135 1.349 . S
C2134 C2136 1.327 . S
C2134 H2159 0.950 . S
C2135 C2134 1.349 . S
C2135 C2151 1.349 . S
C2136 C2134 1.327 . S
C2136 C2155 1.429 . S
C2136 H2160 0.950 . S
C2137 C2154 1.574 . S
C2137 C2156 1.368 . S
C2137 H2161 0.949 . S
H2138 C2142 0.949 . S
C2139 C2140 1.349 . S
C2139 C2141 1.327 . S
C2139 H2162 0.950 . S
C2140 C2139 1.349 . S
C2140 C2152 1.349 . S
C2141 C2139 1.327 . S
C2141 C2157 1.429 . S
C2141 H2163 0.950 . S
C2142 H2138 0.949 . S
C2142 C2150 1.574 . S
C2142 C2158 1.368 . S
H2143 C2151 0.950 . S
H2144 C2149 0.950 . S
H2145 C2150 0.949 . S
H2146 C2152 0.950 . S
H2147 C2153 0.950 . S
H2148 C2154 0.949 . S
C2149 H2144 0.950 . S
C2149 C2151 1.327 . S
C2149 C2155 1.429 . S
C2150 C2142 1.574 . S
C2150 H2145 0.949 . S
C2150 C2156 1.368 . S
C2151 C2135 1.349 . S
C2151 H2143 0.950 . S
C2151 C2149 1.327 . S
C2152 C2140 1.349 . S
C2152 H2146 0.950 . S
C2152 C2153 1.327 . S
C2153 H2147 0.950 . S
C2153 C2152 1.327 . S
C2153 C2157 1.429 . S
C2154 C2137 1.574 . S
C2154 H2148 0.949 . S
C2154 C2158 1.368 . S
C2155 C2136 1.429 . S
C2155 C2149 1.429 . S
C2155 C2156 1.523 . S
C2156 C2137 1.368 . S
C2156 C2150 1.368 . S
C2156 C2155 1.523 . S
C2157 C2141 1.429 . S
C2157 C2153 1.429 . S
C2157 C2158 1.523 . S
C2158 C2142 1.368 . S
C2158 C2154 1.368 . S
C2158 C2157 1.523 . S
H2159 C2134 0.950 . S
H2160 C2136 0.950 . S
H2161 C2137 0.949 . S
H2162 C2139 0.950 . S
H2163 C2141 0.950 . S
C2164 C2165 1.349 . S
C2164 C2166 1.327 . S
C2164 H2189 0.950 . S
C2165 C2164 1.349 . S
C2165 C2181 1.349 . S
C2166 C2164 1.327 . S
C2166 C2185 1.429 . S
C2166 H2190 0.950 . S
C2167 C2184 1.574 . S
C2167 C2186 1.368 . S
C2167 H2191 0.949 . S
H2168 C2172 0.949 . S
C2169 C2170 1.349 . S
C2169 C2171 1.327 . S
C2169 H2192 0.950 . S
C2170 C2169 1.349 . S
C2170 C2182 1.349 . S
C2171 C2169 1.327 . S
C2171 C2187 1.429 . S
C2171 H2193 0.950 . S
C2172 H2168 0.949 . S
C2172 C2180 1.574 . S
C2172 C2188 1.368 . S
H2173 C2181 0.950 . S
H2174 C2179 0.950 . S
H2175 C2180 0.949 . S
H2176 C2182 0.950 . S
H2177 C2183 0.950 . S
H2178 C2184 0.949 . S
C2179 H2174 0.950 . S
C2179 C2181 1.327 . S
C2179 C2185 1.429 . S
C2180 C2172 1.574 . S
C2180 H2175 0.949 . S
C2180 C2186 1.368 . S
C2181 C2165 1.349 . S
C2181 H2173 0.950 . S
C2181 C2179 1.327 . S
C2182 C2170 1.349 . S
C2182 H2176 0.950 . S
C2182 C2183 1.327 . S
C2183 H2177 0.950 . S
C2183 C2182 1.327 . S
C2183 C2187 1.429 . S
C2184 C2167 1.574 . S
C2184 H2178 0.949 . S
C2184 C2188 1.368 . S
C2185 C2166 1.429 . S
C2185 C2179 1.429 . S
C2185 C2186 1.523 . S
C2186 C2167 1.368 . S
C2186 C2180 1.368 . S
C2186 C2185 1.523 . S
C2187 C2171 1.429 . S
C2187 C2183 1.429 . S
C2187 C2188 1.523 . S
C2188 C2172 1.368 . S
C2188 C2184 1.368 . S
C2188 C2187 1.523 . S
H2189 C2164 0.950 . S
H2190 C2166 0.950 . S
H2191 C2167 0.949 . S
H2192 C2169 0.950 . S
H2193 C2171 0.950 . S
C2194 C2195 1.349 . S
C2194 C2196 1.327 . S
C2194 H2219 0.950 . S
C2195 C2194 1.349 . S
C2195 C2211 1.349 . S
C2196 C2194 1.327 . S
C2196 C2215 1.429 . S
C2196 H2220 0.950 . S
C2197 C2214 1.574 . S
C2197 C2216 1.368 . S
C2197 H2221 0.949 . S
H2198 C2202 0.949 . S
C2199 C2200 1.349 . S
C2199 C2201 1.327 . S
C2199 H2222 0.950 . S
C2200 C2199 1.349 . S
C2200 C2212 1.349 . S
C2201 C2199 1.327 . S
C2201 C2217 1.429 . S
C2201 H2223 0.950 . S
C2202 H2198 0.949 . S
C2202 C2210 1.574 . S
C2202 C2218 1.368 . S
H2203 C2211 0.950 . S
H2204 C2209 0.950 . S
H2205 C2210 0.949 . S
H2206 C2212 0.950 . S
H2207 C2213 0.950 . S
H2208 C2214 0.949 . S
C2209 H2204 0.950 . S
C2209 C2211 1.327 . S
C2209 C2215 1.429 . S
C2210 C2202 1.574 . S
C2210 H2205 0.949 . S
C2210 C2216 1.368 . S
C2211 C2195 1.349 . S
C2211 H2203 0.950 . S
C2211 C2209 1.327 . S
C2212 C2200 1.349 . S
C2212 H2206 0.950 . S
C2212 C2213 1.327 . S
C2213 H2207 0.950 . S
C2213 C2212 1.327 . S
C2213 C2217 1.429 . S
C2214 C2197 1.574 . S
C2214 H2208 0.949 . S
C2214 C2218 1.368 . S
C2215 C2196 1.429 . S
C2215 C2209 1.429 . S
C2215 C2216 1.523 . S
C2216 C2197 1.368 . S
C2216 C2210 1.368 . S
C2216 C2215 1.523 . S
C2217 C2201 1.429 . S
C2217 C2213 1.429 . S
C2217 C2218 1.523 . S
C2218 C2202 1.368 . S
C2218 C2214 1.368 . S
C2218 C2217 1.523 . S
H2219 C2194 0.950 . S
H2220 C2196 0.950 . S
H2221 C2197 0.949 . S
H2222 C2199 0.950 . S
H2223 C2201 0.950 . S
C545 C513 1.449 . S
C550 C17 1.566 . S
C575 C477 1.449 . S
C580 C51 1.566 . S
C605 C443 1.449 . S
C610 C85 1.566 . S
C635 C409 1.449 . S
C640 C119 1.566 . S
C665 C153 1.566 . S
C670 C375 1.449 . S
C695 C341 1.449 . S
C700 C187 1.566 . S
C725 C221 1.566 . S
C730 C307 1.449 . S
C755 C273 1.449 . S
C760 C255 1.566 . S
C785 C289 1.566 . S
C790 C241 1.449 . S
C815 C323 1.566 . S
C820 C205 1.449 . S
C845 C357 1.566 . S
C850 C173 1.449 . S
C875 C391 1.566 . S
C880 C137 1.449 . S
C905 C103 1.449 . S
C910 C425 1.566 . S
C935 C69 1.449 . S
C940 C459 1.566 . S
C965 C35 1.449 . S
C970 C493 1.566 . S
C995 C1 1.449 . S
C1000 C527 1.566 . S
C1025 C22 1.647 . S
C1030 C226 1.647 . S
C1055 C253 1.647 . S
C1060 C56 1.647 . S
C1085 C158 1.647 . S
C1090 C90 1.647 . S
C1115 C124 1.647 . S
C1120 C185 1.647 . S
C1145 C498 1.647 . S
C1150 C294 1.647 . S
C1175 C328 1.647 . S
C1180 C525 1.647 . S
C1205 C430 1.647 . S
C1210 C362 1.647 . S
C1235 C396 1.647 . S
C1240 C464 1.647 . S
C1265 C117 1.590 . S
C1270 C15 1.590 . S
C1295 C83 1.590 . S
C1300 C49 1.590 . S
C1325 C260 1.590 . S
C1330 C151 1.590 . S
C1355 C192 1.590 . S
C1360 C219 1.590 . S
C1385 C389 1.589 . S
C1390 C287 1.589 . S
C1415 C355 1.589 . S
C1420 C321 1.589 . S
C1445 C423 1.589 . S
C1450 C532 1.589 . S
C1475 C491 1.589 . S
C1480 C457 1.589 . S
C1505 C3 1.826 . S
C1510 C71 1.826 . S
C1535 C37 1.826 . S
C1540 C105 1.826 . S
C1565 C139 1.826 . S
C1570 C207 1.826 . S
C1595 C239 1.826 . S
C1600 C171 1.826 . S
C1625 C275 1.826 . S
C1630 C343 1.826 . S
C1655 C377 1.826 . S
C1660 C309 1.826 . S
C1685 C411 1.826 . S
C1690 C479 1.826 . S
C1715 C445 1.826 . S
C1720 C511 1.826 . S
C1745 C6 0.985 . S
C1750 C470 0.993 . S
C1775 C436 0.993 . S
C1780 C40 0.985 . S
C1805 C516 0.993 . S
C1810 C74 0.985 . S
C1835 C108 0.985 . S
C1840 C504 0.993 . S
C1865 C142 0.985 . S
C1870 C334 0.993 . S
C1895 C198 0.985 . S
C1900 C300 0.993 . S
C1925 C402 0.993 . S
C1930 C210 0.985 . S
C1955 C266 0.985 . S
C1960 C368 0.993 . S
C1985 C278 0.985 . S
C1990 C176 0.993 . S
C2015 C164 0.993 . S
C2020 C312 0.985 . S
C2045 C346 0.985 . S
C2050 C244 0.993 . S
C2075 C232 0.993 . S
C2080 C380 0.985 . S
C2105 C62 0.993 . S
C2110 C414 0.985 . S
C2135 C448 0.985 . S
C2140 C28 0.993 . S
C2165 C482 0.985 . S
C2170 C130 0.993 . S
C2195 C538 0.985 . S
C2200 C96 0.993 . S
