# Generated by pormake.
# Topology snp, (6)-cn, num edge types: 1
# Building blocks:
#     Node 0, Type 0, BuildingBlock: BETFEN_clean_sbu_0, # of connection points: 6
#     Node 1, Type 0, BuildingBlock: BETFEN_clean_sbu_0, # of connection points: 6
#     Node 2, Type 0, BuildingBlock: BETFEN_clean_sbu_0, # of connection points: 6
#     Node 3, Type 0, BuildingBlock: BETFEN_clean_sbu_0, # of connection points: 6
#     Edge 4, Type (0, 0), BuildingBlock: KIFKEQ_clean_linker_1, # of connection points: 2
#     Edge 5, Type (0, 0), BuildingBlock: KIFKEQ_clean_linker_1, # of connection points: 2
#     Edge 6, Type (0, 0), BuildingBlock: KIFKEQ_clean_linker_1, # of connection points: 2
#     Edge 7, Type (0, 0), BuildingBlock: KIFKEQ_clean_linker_1, # of connection points: 2
#     Edge 8, Type (0, 0), BuildingBlock: KIFKEQ_clean_linker_1, # of connection points: 2
#     Edge 9, Type (0, 0), BuildingBlock: KIFKEQ_clean_linker_1, # of connection points: 2
#     Edge 10, Type (0, 0), BuildingBlock: KIFKEQ_clean_linker_1, # of connection points: 2
#     Edge 11, Type (0, 0), BuildingBlock: KIFKEQ_clean_linker_1, # of connection points: 2
#     Edge 12, Type (0, 0), BuildingBlock: KIFKEQ_clean_linker_1, # of connection points: 2
#     Edge 13, Type (0, 0), BuildingBlock: KIFKEQ_clean_linker_1, # of connection points: 2
#     Edge 14, Type (0, 0), BuildingBlock: KIFKEQ_clean_linker_1, # of connection points: 2
#     Edge 15, Type (0, 0), BuildingBlock: KIFKEQ_clean_linker_1, # of connection points: 2
# Relax obj value: 0.241
# Max RMSD: 0.218
# Mean RMSD: 0.218
data_MOF--net-snp--node1-BETFEN_clean_sbu_0--edge1-KIFKEQ_clean_linker_1
_symmetry_space_group_name_H-M    P1
_symmetry_Int_Tables_number       1
_symmetry_cell_setting            triclinic
loop_
_symmetry_equiv_pos_as_xyz
'x, y, z'
_cell_length_a     25.556243
_cell_length_b     25.605608
_cell_length_c     36.286308
_cell_angle_alpha  82.868112
_cell_angle_beta   82.701715
_cell_angle_gamma 95.744351
loop_
_atom_site_label
_atom_site_type_symbol
_atom_site_fract_x
_atom_site_fract_y
_atom_site_fract_z
_atom_type_partial_charge
Pr0 Pr 0.20324 -0.00808 0.22757 0.0
Pr1 Pr 0.24996 0.89419 0.19096 0.0
C2 C 0.15067 0.06268 0.26284 0.0
C3 C 0.13666 0.07338 0.302 0.0
C4 C 0.16055 0.04954 0.3316 0.0
C5 C 0.14658 0.05999 0.36852 0.0
C6 C 0.10814 0.09433 0.37679 0.0
C7 C 0.08425 0.1178 0.34689 0.0
C8 C 0.09831 0.10741 0.31006 0.0
C9 C 0.3136 -0.00954 0.22031 0.0
C10 C 0.22133 0.88498 0.28318 0.0
C11 C 0.30379 0.82368 0.15771 0.0
C12 C 0.29715 0.80093 0.12303 0.0
C13 C 0.24712 0.79665 0.11088 0.0
C14 C 0.24164 0.78318 0.07541 0.0
C15 C 0.28614 0.77397 0.05114 0.0
C16 C 0.33596 0.77605 0.0639 0.0
C17 C 0.34145 0.78974 0.09957 0.0
C18 C 0.14048 0.89305 0.19625 0.0
C19 C 0.21142 -0.00684 0.13442 0.0
O20 O 0.1271 0.01919 0.25404 0.0
O21 O 0.20084 0.07188 0.24836 0.0
O22 O 0.2842 0.97791 0.19677 0.0
O23 O 0.28695 0.00872 0.24778 0.0
O24 O 0.25445 0.87133 0.25575 0.0
O25 O 0.19271 0.92463 0.27771 0.0
O26 O 0.32 0.87449 0.15257 0.0
O27 O 0.2654 0.80967 0.18588 0.0
O28 O 0.16907 0.9084 0.21969 0.0
O29 O 0.16827 0.86992 0.17202 0.0
O30 O 0.19167 0.01404 0.16419 0.0
O31 O 0.23918 0.95202 0.13729 0.0
H32 H 0.18994 0.02272 0.32616 0.0
H33 H 0.16542 0.04055 0.39066 0.0
H34 H 0.05512 0.14501 0.35177 0.0
H35 H 0.07923 0.12619 0.28777 0.0
H36 H 0.21239 0.80546 0.1283 0.0
H37 H 0.2026 0.78106 0.06664 0.0
H38 H 0.37099 0.76942 0.04574 0.0
H39 H 0.38051 0.79351 0.10827 0.0
Pr40 Pr 0.90461 0.25479 0.68562 0.0
Pr41 Pr -0.01049 0.19628 0.7284 0.0
C42 C 0.84604 0.31885 0.64843 0.0
C43 C 0.82988 0.31706 0.61111 0.0
C44 C 0.84933 0.28002 0.5891 0.0
C45 C 0.83269 0.27557 0.55439 0.0
C46 C 0.7959 0.30788 0.54097 0.0
C47 C 0.77711 0.3457 0.56285 0.0
C48 C 0.79392 0.35014 0.59777 0.0
C49 C 0.88799 0.14495 0.693 0.0
C50 C -0.00127 0.20256 0.63449 0.0
C51 C 0.05324 0.13844 0.76705 0.0
C52 C 0.06616 0.12649 0.80614 0.0
C53 C 0.10545 0.1589 0.81941 0.0
C54 C 0.11918 0.14616 0.85547 0.0
C55 C 0.09432 0.10042 0.87941 0.0
C56 C 0.05479 0.06817 0.86615 0.0
C57 C 0.04106 0.08095 0.8301 0.0
C58 C 0.00418 0.30728 0.71409 0.0
C59 C 0.88868 0.23554 0.77853 0.0
O60 O 0.89704 0.33092 0.64876 0.0
O61 O 0.82497 0.27883 0.67378 0.0
O62 O 0.90479 0.17159 0.71715 0.0
O63 O 0.87061 0.17595 0.66735 0.0
O64 O 0.01263 0.17871 0.66592 0.0
O65 O 0.96378 0.2375 0.6349 0.0
O66 O 0.00656 0.11916 0.7603 0.0
O67 O 0.06896 0.18591 0.74866 0.0
O68 O -0.00884 0.2761 0.69198 0.0
O69 O 0.01044 0.28152 0.7461 0.0
O70 O 0.88211 0.26828 0.74868 0.0
O71 O 0.92132 0.19888 0.77686 0.0
H72 H 0.87704 0.25404 0.59899 0.0
H73 H 0.84874 0.24675 0.53802 0.0
H74 H 0.74852 0.37095 0.55338 0.0
H75 H 0.77834 0.37879 0.61452 0.0
H76 H 0.12623 0.19392 0.80173 0.0
H77 H 0.15036 0.17164 0.8642 0.0
H78 H 0.03417 0.03299 0.8837 0.0
H79 H 0.01092 0.05479 0.82087 0.0
Pr80 Pr 0.77489 0.13254 0.14034 0.0
Pr81 Pr 0.81455 0.0347 0.10337 0.0
C82 C 0.72158 0.20383 0.17308 0.0
C83 C 0.71492 0.21688 0.21166 0.0
C84 C 0.71357 0.2697 0.2179 0.0
C85 C 0.71342 0.28316 0.25414 0.0
C86 C 0.7145 0.24391 0.28475 0.0
C87 C 0.71448 0.19081 0.27843 0.0
C88 C 0.71493 0.17745 0.24224 0.0
C89 C 0.88411 0.13771 0.12288 0.0
C90 C 0.82168 0.03826 0.19505 0.0
C91 C 0.85473 0.9583 0.06645 0.0
C92 C 0.87614 0.95131 1.0274 0.0
C93 C 0.85756 0.97759 0.99607 0.0
C94 C 0.87454 0.96682 0.95963 0.0
C95 C 0.91057 0.92943 0.9535 0.0
C96 C 0.9304 0.90469 0.98496 0.0
C97 C 0.91335 0.91543 1.02133 0.0
C98 C 0.70512 0.03107 0.12724 0.0
C99 C 0.7896 0.13764 0.04803 0.0
O100 O 0.6988 0.15755 0.1681 0.0
O101 O 0.76965 0.21553 0.15473 0.0
O102 O 0.8505 0.12051 0.1032 0.0
O103 O 0.86107 0.15885 0.15048 0.0
O104 O 0.83825 0.0168 0.16466 0.0
O105 O 0.79204 0.07802 0.19353 0.0
O106 O 0.88341 -0.01071 0.08414 0.0
O107 O 0.80411 0.96312 0.07301 0.0
O108 O 0.74174 0.04578 0.14487 0.0
O109 O 0.72422 0.01684 0.09568 0.0
O110 O 0.7595 0.1509 0.0771 0.0
O111 O 0.82163 0.10068 0.05218 0.0
H112 H 0.71402 0.30071 0.19461 0.0
H113 H 0.71307 0.32434 0.25817 0.0
H114 H 0.7162 0.15975 0.30126 0.0
H115 H 0.71683 0.13649 0.23802 0.0
H116 H 0.8289 0.00561 0.99982 0.0
H117 H 0.85799 0.98658 0.93641 0.0
H118 H 0.95902 0.87659 0.98159 0.0
H119 H 0.92855 0.8948 0.04489 0.0
Pr120 Pr 0.01471 0.80722 0.60522 0.0
Pr121 Pr 0.11406 0.76737 0.64207 0.0
C122 C 0.94034 0.85114 0.56807 0.0
C123 C 0.93438 0.87315 0.52899 0.0
C124 C 0.96262 0.85631 0.49756 0.0
C125 C 0.95361 0.87482 0.46096 0.0
C126 C 0.91598 0.91057 0.45478 0.0
C127 C 0.889 0.92834 0.48643 0.0
C128 C 0.89807 0.90987 0.52292 0.0
C129 C 0.00749 0.6989 0.6321 0.0
C130 C 0.11291 0.76865 0.55095 0.0
C131 C 0.18545 0.7172 0.67687 0.0
C132 C 0.19949 0.71919 0.71473 0.0
C133 C 0.17944 0.75685 0.73591 0.0
C134 C 0.19076 0.75859 0.77233 0.0
C135 C 0.22235 0.72261 0.78843 0.0
C136 C 0.24303 0.68526 0.76695 0.0
C137 C 0.23148 0.68346 0.73033 0.0
C138 C 0.12048 0.87607 0.62126 0.0
C139 C 0.02198 0.81905 0.69597 0.0
O140 O 0.97282 0.87825 0.58562 0.0
O141 O 0.9426 0.80016 0.57482 0.0
O142 O 0.02609 0.73602 0.64798 0.0
O143 O -0.01047 0.71711 0.60183 0.0
O144 O 0.12989 0.74497 0.58094 0.0
O145 O 0.07589 0.80103 0.5531 0.0
O146 O 0.13747 0.69488 0.67558 0.0
O147 O 0.19825 0.76133 0.65365 0.0
O148 O 0.10173 0.84111 0.60313 0.0
O149 O 0.143 0.85434 0.6485 0.0
O150 O -0.00075 0.8339 0.66589 0.0
O151 O 0.06145 0.78908 0.69457 0.0
H152 H -0.009 0.82805 0.50133 0.0
H153 H 0.97506 0.85983 0.43758 0.0
H154 H 0.86059 0.95662 0.48308 0.0
H155 H 0.87597 0.92378 0.54655 0.0
H156 H 0.15485 0.78493 0.72426 0.0
H157 H 0.17498 0.78845 0.78781 0.0
H158 H 0.26723 0.65685 0.77869 0.0
H159 H 0.2471 0.65402 0.71436 0.0
H160 H 0.94549 0.14348 0.17859 0.0
H161 H 0.93507 0.08054 0.07466 0.0
H162 H 0.00832 0.08269 0.19456 0.0
H163 H -0.00799 0.01458 0.09235 0.0
H164 H 0.06622 0.93508 0.24087 0.0
H165 H 0.00775 -0.00164 0.21947 0.0
H166 H 0.06282 0.97928 0.10429 0.0
H167 H 0.11536 0.91279 0.12624 0.0
C168 C 0.95698 0.11657 0.15903 0.0
C169 C 0.93351 0.11432 0.12631 0.0
C170 C -0.00805 0.08056 0.16865 0.0
C171 C 0.00289 0.04082 0.14619 0.0
C172 C 0.98422 0.04335 0.11114 0.0
C173 C 0.95093 0.08085 0.10094 0.0
C174 C 0.06448 0.94405 0.21111 0.0
C175 C 0.09634 0.9207 0.18517 0.0
C176 C 0.0319 0.98108 0.1986 0.0
C177 C 0.03217 -0.00345 0.1598 0.0
C178 C 0.06099 0.96932 0.13428 0.0
C179 C 0.09161 0.93089 0.14694 0.0
H180 H 0.06423 0.92844 0.57293 0.0
H181 H 0.12636 0.93696 0.67723 0.0
H182 H -0.00052 0.98707 0.59051 0.0
H183 H 0.06709 0.00098 0.69313 0.0
H184 H 0.92467 0.06769 0.7386 0.0
H185 H 0.98366 0.00485 0.71787 0.0
H186 H 0.96509 0.05807 0.60248 0.0
H187 H 0.90304 0.11547 0.62379 0.0
C188 C 0.06448 0.94402 0.59933 0.0
C189 C 0.09733 0.92566 0.62478 0.0
C190 C 0.02771 0.97828 0.60949 0.0
C191 C 0.02528 -0.00315 0.64464 0.0
C192 C 0.06456 0.98473 0.6672 0.0
C193 C 0.0998 0.949 0.65759 0.0
C194 C 0.93275 0.06466 0.70896 0.0
C195 C 0.91108 0.09763 0.68277 0.0
C196 C 0.96738 0.02947 0.69679 0.0
C197 C 0.98214 0.02799 0.65807 0.0
C198 C 0.95583 0.05753 0.63242 0.0
C199 C 0.91985 0.09099 0.64474 0.0
H200 H 0.66113 0.05352 0.19509 0.0
H201 H 0.62076 -0.00232 0.09361 0.0
H202 H 0.56698 0.04364 0.22088 0.0
H203 H 0.52665 0.98763 0.1194 0.0
H204 H 0.38629 0.07057 0.23193 0.0
H205 H 0.4824 0.08153 0.21056 0.0
H206 H 0.46746 0.92921 0.1709 0.0
H207 H 0.37234 0.91845 0.19304 0.0
C208 C 0.63206 0.03956 0.17818 0.0
C209 C 0.64815 0.0265 0.14228 0.0
C210 C 0.5782 0.03398 0.19295 0.0
C211 C 0.53944 0.01462 0.17227 0.0
C212 C 0.55566 0.00196 0.13623 0.0
C213 C 0.60946 0.00794 0.12136 0.0
C214 C 0.40394 0.03927 0.21912 0.0
C215 C 0.37196 -0.00571 0.21286 0.0
C216 C 0.45878 0.04553 0.20681 0.0
C217 C 0.48226 0.00677 0.18819 0.0
C218 C 0.45034 0.96056 0.18399 0.0
C219 C 0.39587 0.95443 0.19635 0.0
H220 H -0.00607 0.38257 0.7615 0.0
H221 H 0.02201 0.36228 0.64466 0.0
H222 H -0.00755 0.47789 0.74346 0.0
H223 H 0.0236 0.45679 0.62653 0.0
H224 H 0.96889 0.61528 0.60027 0.0
H225 H 0.96681 0.52148 0.62244 0.0
H226 H 0.04121 0.56022 0.7178 0.0
H227 H 0.03928 0.65426 0.6968 0.0
C228 C 0.00066 0.39874 0.73204 0.0
C229 C 0.00777 0.36527 0.70445 0.0
C230 C -2e-05 0.4533 0.72161 0.0
C231 C 0.00718 0.47528 0.68342 0.0
C232 C 0.01622 0.44147 0.65613 0.0
C233 C 0.01591 0.38721 0.66651 0.0
C234 C 0.98454 0.60369 0.62606 0.0
C235 C 0.00536 0.64204 0.64636 0.0
C236 C 0.98388 0.54982 0.63867 0.0
C237 C 0.00491 0.53288 0.67161 0.0
C238 C 0.02456 0.5715 0.69241 0.0
C239 C 0.02427 0.62549 0.68008 0.0
H240 H 0.97152 0.2369 0.56582 0.0
H241 H 0.07147 0.13229 0.61828 0.0
H242 H -0.00148 0.20827 0.5058 0.0
H243 H 0.09813 0.10282 0.5576 0.0
H244 H 0.1725 0.10781 0.43151 0.0
H245 H 0.14827 0.13175 0.4941 0.0
H246 H 0.98533 0.13146 0.47416 0.0
H247 H 0.00927 0.10724 0.41198 0.0
C248 C -0.00044 0.20792 0.56467 0.0
C249 C 0.01929 0.18716 0.59727 0.0
C250 C 0.0147 0.19101 0.53004 0.0
C251 C 0.05022 0.15275 0.52659 0.0
C252 C 0.07101 0.13265 0.55898 0.0
C253 C 0.0557 0.14958 0.59386 0.0
C254 C 0.13134 0.11216 0.44059 0.0
C255 C 0.09309 0.10612 0.41614 0.0
C256 C 0.11743 0.12596 0.47662 0.0
C257 C 0.0649 0.13432 0.48926 0.0
C258 C 0.02644 0.12671 0.46524 0.0
C259 C 0.04026 0.11282 0.42937 0.0
H260 H 0.80581 0.16716 0.81511 0.0
H261 H 0.90756 0.30766 0.82556 0.0
H262 H 0.77152 0.15741 0.88201 0.0
H263 H 0.87388 0.29778 0.89282 0.0
H264 H 0.88007 0.18447 1.0062 0.0
H265 H 0.89329 0.2227 0.94038 0.0
H266 H 0.72417 0.19653 0.93829 0.0
H267 H 0.71093 0.1589 1.0052 0.0
C268 C 0.81922 0.19705 0.83159 0.0
C269 C 0.85873 0.23842 0.81541 0.0
C270 C 0.79959 0.19158 0.86982 0.0
C271 C 0.82011 0.22675 0.89268 0.0
C272 C 0.85734 0.27012 0.87585 0.0
C273 C 0.87638 0.276 0.83744 0.0
C274 C 0.84557 0.18828 0.99194 0.0
C275 C 0.79452 0.16895 1.01059 0.0
C276 C 0.85308 0.21044 0.95431 0.0
C277 C 0.80977 0.21279 0.93416 0.0
C278 C 0.75823 0.19533 0.95322 0.0
C279 C 0.75059 0.17409 0.99139 0.0
H280 H 0.98435 0.93345 0.38754 0.0
H281 H 0.81898 0.92698 0.43311 0.0
H282 H 0.96315 0.96262 0.32489 0.0
H283 H 0.79796 0.95597 0.37094 0.0
H284 H 0.78352 0.06257 0.26406 0.0
H285 H 0.80802 0.03222 0.32488 0.0
H286 H 0.91896 0.93749 0.27281 0.0
H287 H 0.89489 0.96891 0.21127 0.0
C288 C 0.9434 0.93781 0.38431 0.0
C289 C 0.90357 0.92813 0.41588 0.0
C290 C 0.93119 0.95457 0.34821 0.0
C291 C 0.87876 0.96223 0.34249 0.0
C292 C 0.83899 0.95183 0.37401 0.0
C293 C 0.85115 0.93515 0.40995 0.0
C294 C 0.81308 0.03513 0.26534 0.0
C295 C 0.83668 0.01791 0.23244 0.0
C296 C 0.82699 0.01735 0.30052 0.0
C297 C 0.86521 0.98174 0.30426 0.0
C298 C 0.8895 0.96497 0.27128 0.0
C299 C 0.87531 0.98265 0.23591 0.0
H300 H 0.31654 0.71468 0.81661 0.0
H301 H 0.15186 0.73435 0.84892 0.0
H302 H 0.33447 0.72517 0.88017 0.0
H303 H 0.16963 0.74471 0.91202 0.0
H304 H 0.23111 0.82855 1.00304 0.0
H305 H 0.21755 0.81297 0.94005 0.0
H306 H 0.31513 0.68471 0.94718 0.0
H307 H 0.32897 0.70061 1.0107 0.0
C308 C 0.28408 0.72053 0.83739 0.0
C309 C 0.23295 0.72442 0.82761 0.0
C310 C 0.29434 0.72655 0.87375 0.0
C311 C 0.25364 0.73656 0.90097 0.0
C312 C 0.20216 0.73835 0.89147 0.0
C313 C 0.19196 0.73238 0.8553 0.0
C314 C 0.24937 0.79671 0.99134 0.0
C315 C 0.28041 0.76523 1.01208 0.0
C316 C 0.24158 0.78777 0.95522 0.0
C317 C 0.26457 0.74705 0.93881 0.0
C318 C 0.297 0.71647 0.95903 0.0
C319 C 0.30489 0.72553 0.99536 0.0
H320 H 0.92707 0.83124 0.93429 0.0
H321 H 0.92806 -0.00639 0.88455 0.0
H322 H 0.9519 0.8064 0.87259 0.0
H323 H 0.95271 0.9684 0.82235 0.0
H324 H 0.95197 0.89192 0.71218 0.0
H325 H 0.92428 0.91984 0.77326 0.0
H326 H 0.0254 0.81522 0.82426 0.0
H327 H 0.05191 0.78683 0.76411 0.0
C328 C 0.93321 0.86197 0.9103 0.0
C329 C 0.92593 0.9147 0.91492 0.0
C330 C 0.94744 0.84759 0.87463 0.0
C331 C 0.95496 0.88535 0.84211 0.0
C332 C 0.94696 0.93802 0.84653 0.0
C333 C 0.93275 0.9525 0.88237 0.0
C334 C 0.96787 0.87453 0.73652 0.0
C335 C 0.00372 0.83646 0.73299 0.0
C336 C 0.95235 0.89093 0.77159 0.0
C337 C 0.97203 0.8695 0.80415 0.0
C338 C 0.00829 0.83193 0.80029 0.0
C339 C 0.02383 0.81578 0.76545 0.0
H340 H 0.12891 0.87103 0.32949 0.0
H341 H 0.28839 0.82708 0.32194 0.0
H342 H 0.1092 0.82721 0.39311 0.0
H343 H 0.26805 0.78161 0.38712 0.0
H344 H 0.21602 0.79631 0.51909 0.0
H345 H 0.24804 0.81071 0.45149 0.0
H346 H 0.09544 0.74102 0.43053 0.0
H347 H 0.06317 0.72942 0.49756 0.0
C348 C 0.15981 0.85141 0.3414 0.0
C349 C 0.21043 0.85295 0.32075 0.0
C350 C 0.1482 0.82555 0.37792 0.0
C351 C 0.1868 0.80027 0.3952 0.0
C352 C 0.23744 0.80065 0.37446 0.0
C353 C 0.24902 0.82639 0.33724 0.0
C354 C 0.19023 0.78242 0.49995 0.0
C355 C 0.13719 0.76205 0.51316 0.0
C356 C 0.20851 0.79054 0.4613 0.0
C357 C 0.17392 0.77799 0.4356 0.0
C358 C 0.1227 0.75218 0.44954 0.0
C359 C 0.10426 0.74514 0.48787 0.0
H360 H 0.12231 0.16643 0.9302 0.0
H361 H 0.10312 0.00111 0.9156 0.0
H362 H 0.15198 0.14287 0.99078 0.0
H363 H 0.13079 0.97748 0.97668 0.0
H364 H 0.23682 0.95514 0.0677 0.0
H365 H 0.20842 0.98176 1.00738 0.0
H366 H 0.12395 0.10116 0.05475 0.0
H367 H 0.15343 0.07524 0.11514 0.0
C368 C 0.12437 0.12502 0.9398 0.0
C369 C 0.11043 0.08585 0.91753 0.0
C370 C 0.14087 0.11141 0.9749 0.0
C371 C 0.14424 0.05818 0.98887 0.0
C372 C 0.12962 0.01898 0.96682 0.0
C373 C 0.11299 0.03255 0.93181 0.0
C374 C 0.21277 0.98758 0.06532 0.0
C375 C 0.19785 0.01313 0.09658 0.0
C376 C 0.19587 0.0025 1.03062 0.0
C377 C 0.16343 0.0435 1.02591 0.0
C378 C 0.14937 0.06985 0.05696 0.0
C379 C 0.16633 0.05491 0.09175 0.0
H380 H 0.77772 0.32632 0.30349 0.0
H381 H 0.66145 0.19357 0.35204 0.0
H382 H 0.79157 0.34454 0.36612 0.0
H383 H 0.67481 0.21207 0.41474 0.0
H384 H 0.76875 0.21525 0.5144 0.0
H385 H 0.7443 0.20336 0.45316 0.0
H386 H 0.75365 0.3732 0.42404 0.0
H387 H 0.78034 0.38515 0.48512 0.0
C388 C 0.7543 0.30169 0.32755 0.0
C389 C 0.71874 0.25827 0.3228 0.0
C390 C 0.7622 0.31216 0.36349 0.0
C391 C 0.73462 0.27953 0.39551 0.0
C392 C 0.6975 0.23737 0.3907 0.0
C393 C 0.68976 0.2268 0.35478 0.0
C394 C 0.76581 0.25012 0.49491 0.0
C395 C 0.77706 0.30118 0.50452 0.0
C396 C 0.75107 0.24329 0.45993 0.0
C397 C 0.74695 0.28732 0.43361 0.0
C398 C 0.75696 0.33844 0.44351 0.0
C399 C 0.77173 0.3453 0.47863 0.0
loop_
_geom_bond_atom_site_label_1
_geom_bond_atom_site_label_2
_geom_bond_distance
_geom_bond_site_symmetry_2
_ccdc_geom_bond_type
Pr0 C2 2.880 . S
Pr0 O20 2.562 . S
Pr0 O21 2.490 . S
Pr0 O22 2.695 . S
Pr0 O23 2.512 . S
Pr0 O25 2.437 . S
Pr0 O28 2.436 . S
Pr0 O30 2.438 . S
Pr1 C11 2.880 . S
Pr1 O22 2.436 1_565 S
Pr1 O24 2.438 . S
Pr1 O26 2.562 . S
Pr1 O27 2.490 . S
Pr1 O28 2.695 1_565 S
Pr1 O29 2.512 . S
Pr1 O31 2.437 1_565 S
C2 Pr0 2.880 . S
C2 C3 1.491 . S
C2 O20 1.254 . S
C2 O21 1.225 . S
C3 C2 1.491 . S
C3 C4 1.392 . S
C3 C8 1.356 . S
C4 C3 1.392 . S
C4 C5 1.368 . S
C4 H32 0.929 . S
C5 C4 1.368 . S
C5 C6 1.386 . S
C5 H33 0.929 . S
C6 C5 1.386 . S
C6 C7 1.373 . S
C7 C6 1.373 . S
C7 C8 1.409 . S
C7 H34 0.931 . S
C8 C3 1.356 . S
C8 C7 1.409 . S
C8 H35 0.930 . S
C9 O22 1.270 . S
C9 O23 1.248 . S
C10 O24 1.267 . S
C10 O25 1.278 1_565 S
C11 Pr1 2.880 . S
C11 C12 1.491 . S
C11 O26 1.254 . S
C11 O27 1.225 . S
C12 C11 1.491 . S
C12 C13 1.392 . S
C12 C17 1.356 . S
C13 C12 1.392 . S
C13 C14 1.368 1_554 S
C13 H36 0.929 . S
C14 C13 1.368 1_556 S
C14 C15 1.386 . S
C14 H37 0.929 . S
C15 C14 1.386 . S
C15 C16 1.373 . S
C16 C15 1.373 . S
C16 C17 1.409 1_556 S
C16 H38 0.931 . S
C17 C12 1.356 . S
C17 C16 1.409 1_554 S
C17 H39 0.930 . S
C18 O28 1.270 . S
C18 O29 1.248 1_545 S
C19 O30 1.267 . S
C19 O31 1.278 . S
O20 Pr0 2.562 . S
O20 C2 1.254 . S
O21 Pr0 2.490 . S
O21 C2 1.225 . S
O22 Pr0 2.695 . S
O22 Pr1 2.436 1_545 S
O22 C9 1.270 . S
O23 Pr0 2.512 . S
O23 C9 1.248 . S
O24 Pr1 2.438 . S
O24 C10 1.267 . S
O25 Pr0 2.437 . S
O25 C10 1.278 1_545 S
O26 Pr1 2.562 . S
O26 C11 1.254 . S
O27 Pr1 2.490 . S
O27 C11 1.225 . S
O28 Pr0 2.436 . S
O28 Pr1 2.695 1_545 S
O28 C18 1.270 . S
O29 Pr1 2.512 . S
O29 C18 1.248 1_565 S
O30 Pr0 2.438 . S
O30 C19 1.267 . S
O31 Pr1 2.437 1_545 S
O31 C19 1.278 . S
H32 C4 0.929 . S
H33 C5 0.929 . S
H34 C7 0.931 . S
H35 C8 0.930 . S
H36 C13 0.929 . S
H37 C14 0.929 . S
H38 C16 0.931 . S
H39 C17 0.930 . S
Pr40 C42 2.880 . S
Pr40 O60 2.562 . S
Pr40 O61 2.490 . S
Pr40 O62 2.695 1_655 S
Pr40 O63 2.512 . S
Pr40 O65 2.437 1_655 S
Pr40 O68 2.436 1_655 S
Pr40 O70 2.438 . S
Pr41 C51 2.880 . S
Pr41 O62 2.436 . S
Pr41 O64 2.438 . S
Pr41 O66 2.562 . S
Pr41 O67 2.490 . S
Pr41 O68 2.695 . S
Pr41 O69 2.512 . S
Pr41 O71 2.437 . S
C42 Pr40 2.880 . S
C42 C43 1.491 . S
C42 O60 1.254 . S
C42 O61 1.225 . S
C43 C42 1.491 . S
C43 C44 1.392 . S
C43 C48 1.356 . S
C44 C43 1.392 . S
C44 C45 1.368 . S
C44 H72 0.929 . S
C45 C44 1.368 . S
C45 C46 1.386 . S
C45 H73 0.929 . S
C46 C45 1.386 . S
C46 C47 1.373 . S
C47 C46 1.373 . S
C47 C48 1.409 . S
C47 H74 0.931 . S
C48 C43 1.356 . S
C48 C47 1.409 . S
C48 H75 0.930 . S
C49 O62 1.270 . S
C49 O63 1.248 1_455 S
C50 O64 1.267 . S
C50 O65 1.278 . S
C51 Pr41 2.880 . S
C51 C52 1.491 . S
C51 O66 1.254 . S
C51 O67 1.225 . S
C52 C51 1.491 . S
C52 C53 1.392 . S
C52 C57 1.356 . S
C53 C52 1.392 . S
C53 C54 1.368 . S
C53 H76 0.929 . S
C54 C53 1.368 . S
C54 C55 1.386 . S
C54 H77 0.929 . S
C55 C54 1.386 . S
C55 C56 1.373 . S
C56 C55 1.373 . S
C56 C57 1.409 . S
C56 H78 0.931 . S
C57 C52 1.356 . S
C57 C56 1.409 . S
C57 H79 0.930 . S
C58 O68 1.270 . S
C58 O69 1.248 . S
C59 O70 1.267 . S
C59 O71 1.278 1_655 S
O60 Pr40 2.562 . S
O60 C42 1.254 . S
O61 Pr40 2.490 . S
O61 C42 1.225 . S
O62 Pr40 2.695 1_455 S
O62 Pr41 2.436 . S
O62 C49 1.270 . S
O63 Pr40 2.512 . S
O63 C49 1.248 1_655 S
O64 Pr41 2.438 . S
O64 C50 1.267 . S
O65 Pr40 2.437 1_455 S
O65 C50 1.278 . S
O66 Pr41 2.562 . S
O66 C51 1.254 . S
O67 Pr41 2.490 . S
O67 C51 1.225 . S
O68 Pr40 2.436 1_455 S
O68 Pr41 2.695 . S
O68 C58 1.270 . S
O69 Pr41 2.512 . S
O69 C58 1.248 . S
O70 Pr40 2.438 . S
O70 C59 1.267 . S
O71 Pr41 2.437 . S
O71 C59 1.278 1_455 S
H72 C44 0.929 . S
H73 C45 0.929 . S
H74 C47 0.931 . S
H75 C48 0.930 . S
H76 C53 0.929 . S
H77 C54 0.929 . S
H78 C56 0.931 . S
H79 C57 0.930 . S
Pr80 C82 2.880 . S
Pr80 O100 2.562 . S
Pr80 O101 2.490 . S
Pr80 O102 2.695 . S
Pr80 O103 2.512 . S
Pr80 O105 2.437 . S
Pr80 O108 2.436 . S
Pr80 O110 2.438 . S
Pr81 C91 2.880 1_554 S
Pr81 O102 2.436 1_565 S
Pr81 O104 2.438 . S
Pr81 O106 2.562 . S
Pr81 O107 2.490 . S
Pr81 O108 2.695 1_565 S
Pr81 O109 2.512 . S
Pr81 O111 2.437 1_565 S
C82 Pr80 2.880 . S
C82 C83 1.491 . S
C82 O100 1.254 . S
C82 O101 1.225 . S
C83 C82 1.491 . S
C83 C84 1.392 . S
C83 C88 1.356 . S
C84 C83 1.392 . S
C84 C85 1.368 . S
C84 H112 0.929 . S
C85 C84 1.368 . S
C85 C86 1.386 . S
C85 H113 0.929 . S
C86 C85 1.386 . S
C86 C87 1.373 . S
C87 C86 1.373 . S
C87 C88 1.409 . S
C87 H114 0.931 . S
C88 C83 1.356 . S
C88 C87 1.409 . S
C88 H115 0.930 . S
C89 O102 1.270 . S
C89 O103 1.248 . S
C90 O104 1.267 . S
C90 O105 1.278 1_565 S
C91 Pr81 2.880 1_556 S
C91 C92 1.491 . S
C91 O106 1.254 1_556 S
C91 O107 1.225 1_556 S
C92 C91 1.491 . S
C92 C93 1.392 . S
C92 C97 1.356 . S
C93 C92 1.392 . S
C93 C94 1.368 . S
C93 H116 0.929 . S
C94 C93 1.368 . S
C94 C95 1.386 . S
C94 H117 0.929 . S
C95 C94 1.386 . S
C95 C96 1.373 . S
C96 C95 1.373 . S
C96 C97 1.409 . S
C96 H118 0.931 . S
C97 C92 1.356 . S
C97 C96 1.409 . S
C97 H119 0.930 . S
C98 O108 1.270 . S
C98 O109 1.248 1_545 S
C99 O110 1.267 . S
C99 O111 1.278 . S
O100 Pr80 2.562 . S
O100 C82 1.254 . S
O101 Pr80 2.490 . S
O101 C82 1.225 . S
O102 Pr80 2.695 . S
O102 Pr81 2.436 1_545 S
O102 C89 1.270 . S
O103 Pr80 2.512 . S
O103 C89 1.248 . S
O104 Pr81 2.438 . S
O104 C90 1.267 . S
O105 Pr80 2.437 . S
O105 C90 1.278 1_545 S
O106 Pr81 2.562 . S
O106 C91 1.254 1_554 S
O107 Pr81 2.490 . S
O107 C91 1.225 1_554 S
O108 Pr80 2.436 . S
O108 Pr81 2.695 1_545 S
O108 C98 1.270 . S
O109 Pr81 2.512 . S
O109 C98 1.248 1_565 S
O110 Pr80 2.438 . S
O110 C99 1.267 . S
O111 Pr81 2.437 1_545 S
O111 C99 1.278 . S
H112 C84 0.929 . S
H113 C85 0.929 . S
H114 C87 0.931 . S
H115 C88 0.930 . S
H116 C93 0.929 . S
H117 C94 0.929 . S
H118 C96 0.931 . S
H119 C97 0.930 . S
Pr120 C122 2.880 . S
Pr120 O140 2.562 . S
Pr120 O141 2.490 . S
Pr120 O142 2.695 1_655 S
Pr120 O143 2.512 . S
Pr120 O145 2.437 1_655 S
Pr120 O148 2.436 1_655 S
Pr120 O150 2.438 . S
Pr121 C131 2.880 . S
Pr121 O142 2.436 . S
Pr121 O144 2.438 . S
Pr121 O146 2.562 . S
Pr121 O147 2.490 . S
Pr121 O148 2.695 . S
Pr121 O149 2.512 . S
Pr121 O151 2.437 . S
C122 Pr120 2.880 . S
C122 C123 1.491 . S
C122 O140 1.254 . S
C122 O141 1.225 . S
C123 C122 1.491 . S
C123 C124 1.392 . S
C123 C128 1.356 . S
C124 C123 1.392 . S
C124 C125 1.368 . S
C124 H152 0.929 . S
C125 C124 1.368 . S
C125 C126 1.386 . S
C125 H153 0.929 . S
C126 C125 1.386 . S
C126 C127 1.373 . S
C127 C126 1.373 . S
C127 C128 1.409 . S
C127 H154 0.931 . S
C128 C123 1.356 . S
C128 C127 1.409 . S
C128 H155 0.930 . S
C129 O142 1.270 . S
C129 O143 1.248 1_455 S
C130 O144 1.267 . S
C130 O145 1.278 . S
C131 Pr121 2.880 . S
C131 C132 1.491 . S
C131 O146 1.254 . S
C131 O147 1.225 . S
C132 C131 1.491 . S
C132 C133 1.392 . S
C132 C137 1.356 . S
C133 C132 1.392 . S
C133 C134 1.368 . S
C133 H156 0.929 . S
C134 C133 1.368 . S
C134 C135 1.386 . S
C134 H157 0.929 . S
C135 C134 1.386 . S
C135 C136 1.373 . S
C136 C135 1.373 . S
C136 C137 1.409 . S
C136 H158 0.931 . S
C137 C132 1.356 . S
C137 C136 1.409 . S
C137 H159 0.930 . S
C138 O148 1.270 . S
C138 O149 1.248 . S
C139 O150 1.267 . S
C139 O151 1.278 1_655 S
O140 Pr120 2.562 . S
O140 C122 1.254 . S
O141 Pr120 2.490 . S
O141 C122 1.225 . S
O142 Pr120 2.695 1_455 S
O142 Pr121 2.436 . S
O142 C129 1.270 . S
O143 Pr120 2.512 . S
O143 C129 1.248 1_655 S
O144 Pr121 2.438 . S
O144 C130 1.267 . S
O145 Pr120 2.437 1_455 S
O145 C130 1.278 . S
O146 Pr121 2.562 . S
O146 C131 1.254 . S
O147 Pr121 2.490 . S
O147 C131 1.225 . S
O148 Pr120 2.436 1_455 S
O148 Pr121 2.695 . S
O148 C138 1.270 . S
O149 Pr121 2.512 . S
O149 C138 1.248 . S
O150 Pr120 2.438 . S
O150 C139 1.267 . S
O151 Pr121 2.437 . S
O151 C139 1.278 1_455 S
H152 C124 0.929 . S
H153 C125 0.929 . S
H154 C127 0.931 . S
H155 C128 0.930 . S
H156 C133 0.929 . S
H157 C134 0.929 . S
H158 C136 0.931 . S
H159 C137 0.930 . S
H160 C168 0.950 . S
H161 C173 0.950 . S
H162 C170 0.962 . S
H163 C172 0.950 . S
H164 C174 0.950 . S
H165 C176 0.950 . S
H166 C178 0.950 . S
H167 C179 0.950 . S
C168 H160 0.950 . S
C168 C169 1.386 1_565 S
C168 C170 1.379 1_655 S
C169 C168 1.386 1_545 S
C169 C173 1.393 . S
C170 H162 0.962 . S
C170 C168 1.379 1_455 S
C170 C171 1.401 1_465 S
C171 C170 1.401 1_645 S
C171 C172 1.398 . S
C171 C177 1.491 1_655 S
C172 H163 0.950 . S
C172 C171 1.398 . S
C172 C173 1.391 . S
C173 H161 0.950 . S
C173 C169 1.393 . S
C173 C172 1.391 . S
C174 H164 0.950 . S
C174 C175 1.386 . S
C174 C176 1.391 . S
C175 C174 1.386 . S
C175 C179 1.393 1_545 S
C176 H165 0.950 . S
C176 C174 1.391 . S
C176 C177 1.400 . S
C177 C171 1.491 1_455 S
C177 C176 1.400 . S
C177 C178 1.398 1_545 S
C178 H166 0.950 . S
C178 C177 1.398 1_565 S
C178 C179 1.391 . S
C179 H167 0.950 . S
C179 C175 1.393 1_565 S
C179 C178 1.391 . S
H180 C188 0.950 . S
H181 C193 0.950 . S
H182 C190 0.950 . S
H183 C192 0.950 . S
H184 C194 0.950 . S
H185 C196 0.950 . S
H186 C198 0.950 . S
H187 C199 0.950 . S
C188 H180 0.950 . S
C188 C189 1.386 1_655 S
C188 C190 1.391 . S
C189 C188 1.386 1_455 S
C189 C193 1.393 . S
C190 H182 0.950 . S
C190 C188 1.391 . S
C190 C191 1.399 1_665 S
C191 C190 1.399 1_445 S
C191 C192 1.398 . S
C191 C197 1.492 . S
C192 H183 0.950 . S
C192 C191 1.398 . S
C192 C193 1.391 1_545 S
C193 H181 0.950 . S
C193 C189 1.393 . S
C193 C192 1.391 1_565 S
C194 H184 0.950 . S
C194 C195 1.386 . S
C194 C196 1.391 . S
C195 C194 1.386 . S
C195 C199 1.393 1_455 S
C196 H185 0.950 . S
C196 C194 1.391 . S
C196 C197 1.400 . S
C197 C191 1.492 . S
C197 C196 1.400 . S
C197 C198 1.398 1_455 S
C198 H186 0.950 . S
C198 C197 1.398 1_655 S
C198 C199 1.391 . S
C199 H187 0.950 . S
C199 C195 1.393 1_655 S
C199 C198 1.391 . S
H200 C208 0.950 . S
H201 C213 0.950 . S
H202 C210 0.950 . S
H203 C212 0.950 . S
H204 C214 0.950 . S
H205 C216 0.950 . S
H206 C218 0.950 . S
H207 C219 0.950 . S
C208 H200 0.950 . S
C208 C209 1.386 1_565 S
C208 C210 1.391 . S
C209 C208 1.386 1_545 S
C209 C213 1.393 . S
C210 H202 0.950 . S
C210 C208 1.391 . S
C210 C211 1.400 1_565 S
C211 C210 1.400 1_545 S
C211 C212 1.398 . S
C211 C217 1.491 . S
C212 H203 0.950 . S
C212 C211 1.398 . S
C212 C213 1.391 . S
C213 H201 0.950 . S
C213 C209 1.393 . S
C213 C212 1.391 . S
C214 H204 0.950 . S
C214 C215 1.386 . S
C214 C216 1.391 . S
C215 C214 1.386 . S
C215 C219 1.393 1_545 S
C216 H205 0.950 . S
C216 C214 1.391 . S
C216 C217 1.400 . S
C217 C211 1.491 . S
C217 C216 1.400 . S
C217 C218 1.398 1_545 S
C218 H206 0.950 . S
C218 C217 1.398 1_565 S
C218 C219 1.391 . S
C219 H207 0.950 . S
C219 C215 1.393 1_565 S
C219 C218 1.391 . S
H220 C228 0.950 . S
H221 C233 0.950 . S
H222 C230 0.950 . S
H223 C232 0.950 . S
H224 C234 0.950 . S
H225 C236 0.950 . S
H226 C238 0.950 . S
H227 C239 0.950 . S
C228 H220 0.950 . S
C228 C229 1.386 . S
C228 C230 1.391 . S
C229 C228 1.386 . S
C229 C233 1.393 1_455 S
C230 H222 0.950 . S
C230 C228 1.391 . S
C230 C231 1.400 . S
C231 C230 1.400 . S
C231 C232 1.398 1_455 S
C231 C237 1.491 . S
C232 H223 0.950 . S
C232 C231 1.398 1_655 S
C232 C233 1.391 . S
C233 H221 0.950 . S
C233 C229 1.393 1_655 S
C233 C232 1.391 . S
C234 H224 0.950 . S
C234 C235 1.386 1_655 S
C234 C236 1.391 . S
C235 C234 1.386 1_455 S
C235 C239 1.393 . S
C236 H225 0.950 . S
C236 C234 1.391 . S
C236 C237 1.400 1_655 S
C237 C231 1.491 . S
C237 C236 1.400 1_455 S
C237 C238 1.398 . S
C238 H226 0.950 . S
C238 C237 1.398 . S
C238 C239 1.391 . S
C239 H227 0.950 . S
C239 C235 1.393 . S
C239 C238 1.391 . S
H240 C248 0.950 . S
H241 C253 0.950 . S
H242 C250 0.950 . S
H243 C252 0.950 . S
H244 C254 0.950 . S
H245 C256 0.950 . S
H246 C258 0.950 . S
H247 C259 0.950 . S
C248 H240 0.950 . S
C248 C249 1.386 . S
C248 C250 1.391 . S
C249 C248 1.386 . S
C249 C253 1.393 . S
C250 H242 0.950 . S
C250 C248 1.391 . S
C250 C251 1.400 . S
C251 C250 1.400 . S
C251 C252 1.398 . S
C251 C257 1.491 . S
C252 H243 0.950 . S
C252 C251 1.398 . S
C252 C253 1.391 . S
C253 H241 0.950 . S
C253 C249 1.393 . S
C253 C252 1.391 . S
C254 H244 0.950 . S
C254 C255 1.386 . S
C254 C256 1.391 . S
C255 C254 1.386 . S
C255 C259 1.393 . S
C256 H245 0.950 . S
C256 C254 1.391 . S
C256 C257 1.400 . S
C257 C251 1.491 . S
C257 C256 1.400 . S
C257 C258 1.398 . S
C258 H246 0.950 . S
C258 C257 1.398 . S
C258 C259 1.391 . S
C259 H247 0.950 . S
C259 C255 1.393 . S
C259 C258 1.391 . S
H260 C268 0.950 . S
H261 C273 0.950 . S
H262 C270 0.950 . S
H263 C272 0.950 . S
H264 C274 0.950 . S
H265 C276 0.950 . S
H266 C278 0.950 . S
H267 C279 0.950 . S
C268 H260 0.950 . S
C268 C269 1.386 . S
C268 C270 1.391 . S
C269 C268 1.386 . S
C269 C273 1.393 . S
C270 H262 0.950 . S
C270 C268 1.391 . S
C270 C271 1.400 . S
C271 C270 1.400 . S
C271 C272 1.398 . S
C271 C277 1.491 . S
C272 H263 0.950 . S
C272 C271 1.398 . S
C272 C273 1.391 . S
C273 H261 0.950 . S
C273 C269 1.393 . S
C273 C272 1.391 . S
C274 H264 0.950 . S
C274 C275 1.386 . S
C274 C276 1.391 . S
C275 C274 1.386 . S
C275 C279 1.393 . S
C276 H265 0.950 . S
C276 C274 1.391 . S
C276 C277 1.400 . S
C277 C271 1.491 . S
C277 C276 1.400 . S
C277 C278 1.398 . S
C278 H266 0.950 . S
C278 C277 1.398 . S
C278 C279 1.391 . S
C279 H267 0.950 . S
C279 C275 1.393 . S
C279 C278 1.391 . S
H280 C288 0.950 . S
H281 C293 0.950 . S
H282 C290 0.950 . S
H283 C292 0.950 . S
H284 C294 0.950 . S
H285 C296 0.950 . S
H286 C298 0.950 . S
H287 C299 0.950 . S
C288 H280 0.950 . S
C288 C289 1.386 . S
C288 C290 1.391 . S
C289 C288 1.386 . S
C289 C293 1.393 . S
C290 H282 0.950 . S
C290 C288 1.391 . S
C290 C291 1.400 . S
C291 C290 1.400 . S
C291 C292 1.398 . S
C291 C297 1.491 . S
C292 H283 0.950 . S
C292 C291 1.398 . S
C292 C293 1.391 . S
C293 H281 0.950 . S
C293 C289 1.393 . S
C293 C292 1.391 . S
C294 H284 0.950 . S
C294 C295 1.386 . S
C294 C296 1.391 . S
C295 C294 1.386 . S
C295 C299 1.393 . S
C296 H285 0.950 . S
C296 C294 1.391 . S
C296 C297 1.400 . S
C297 C291 1.491 . S
C297 C296 1.400 . S
C297 C298 1.398 . S
C298 H286 0.950 . S
C298 C297 1.398 . S
C298 C299 1.391 . S
C299 H287 0.950 . S
C299 C295 1.393 . S
C299 C298 1.391 . S
H300 C308 0.950 . S
H301 C313 0.950 . S
H302 C310 0.950 . S
H303 C312 0.950 . S
H304 C314 0.950 . S
H305 C316 0.950 . S
H306 C318 0.950 . S
H307 C319 0.950 . S
C308 H300 0.950 . S
C308 C309 1.386 . S
C308 C310 1.391 . S
C309 C308 1.386 . S
C309 C313 1.393 . S
C310 H302 0.950 . S
C310 C308 1.391 . S
C310 C311 1.400 . S
C311 C310 1.400 . S
C311 C312 1.398 . S
C311 C317 1.491 . S
C312 H303 0.950 . S
C312 C311 1.398 . S
C312 C313 1.391 . S
C313 H301 0.950 . S
C313 C309 1.393 . S
C313 C312 1.391 . S
C314 H304 0.950 . S
C314 C315 1.386 . S
C314 C316 1.391 . S
C315 C314 1.386 . S
C315 C319 1.393 . S
C316 H305 0.950 . S
C316 C314 1.391 . S
C316 C317 1.400 . S
C317 C311 1.491 . S
C317 C316 1.400 . S
C317 C318 1.398 . S
C318 H306 0.950 . S
C318 C317 1.398 . S
C318 C319 1.391 . S
C319 H307 0.950 . S
C319 C315 1.393 . S
C319 C318 1.391 . S
H320 C328 0.950 . S
H321 C333 0.950 . S
H322 C330 0.950 . S
H323 C332 0.950 . S
H324 C334 0.950 . S
H325 C336 0.950 . S
H326 C338 0.950 . S
H327 C339 0.950 1_455 S
C328 H320 0.950 . S
C328 C329 1.386 . S
C328 C330 1.391 . S
C329 C328 1.386 . S
C329 C333 1.393 . S
C330 H322 0.950 . S
C330 C328 1.391 . S
C330 C331 1.400 . S
C331 C330 1.400 . S
C331 C332 1.398 . S
C331 C337 1.491 . S
C332 H323 0.950 . S
C332 C331 1.398 . S
C332 C333 1.391 . S
C333 H321 0.950 . S
C333 C329 1.393 . S
C333 C332 1.391 . S
C334 H324 0.950 . S
C334 C335 1.386 . S
C334 C336 1.391 . S
C335 C334 1.386 . S
C335 C339 1.393 . S
C336 H325 0.950 . S
C336 C334 1.391 . S
C336 C337 1.400 . S
C337 C331 1.491 . S
C337 C336 1.400 . S
C337 C338 1.398 . S
C338 H326 0.950 . S
C338 C337 1.398 . S
C338 C339 1.391 . S
C339 H327 0.950 1_655 S
C339 C335 1.393 . S
C339 C338 1.391 . S
H340 C348 0.950 . S
H341 C353 0.950 . S
H342 C350 0.950 . S
H343 C352 0.950 . S
H344 C354 0.950 . S
H345 C356 0.950 . S
H346 C358 0.950 . S
H347 C359 0.950 . S
C348 H340 0.950 . S
C348 C349 1.386 . S
C348 C350 1.391 . S
C349 C348 1.386 . S
C349 C353 1.393 . S
C350 H342 0.950 . S
C350 C348 1.391 . S
C350 C351 1.400 . S
C351 C350 1.400 . S
C351 C352 1.398 . S
C351 C357 1.491 . S
C352 H343 0.950 . S
C352 C351 1.398 . S
C352 C353 1.391 . S
C353 H341 0.950 . S
C353 C349 1.393 . S
C353 C352 1.391 . S
C354 H344 0.950 . S
C354 C355 1.386 . S
C354 C356 1.391 . S
C355 C354 1.386 . S
C355 C359 1.393 . S
C356 H345 0.950 . S
C356 C354 1.391 . S
C356 C357 1.400 . S
C357 C351 1.491 . S
C357 C356 1.400 . S
C357 C358 1.398 . S
C358 H346 0.950 . S
C358 C357 1.398 . S
C358 C359 1.391 . S
C359 H347 0.950 . S
C359 C355 1.393 . S
C359 C358 1.391 . S
H360 C368 0.950 . S
H361 C373 0.950 . S
H362 C370 0.950 . S
H363 C372 0.950 . S
H364 C374 0.950 . S
H365 C376 0.950 1_556 S
H366 C378 0.950 . S
H367 C379 0.950 . S
C368 H360 0.950 . S
C368 C369 1.386 . S
C368 C370 1.391 . S
C369 C368 1.386 . S
C369 C373 1.393 . S
C370 H362 0.950 . S
C370 C368 1.391 . S
C370 C371 1.400 . S
C371 C370 1.400 . S
C371 C372 1.398 . S
C371 C377 1.491 . S
C372 H363 0.950 . S
C372 C371 1.398 . S
C372 C373 1.391 . S
C373 H361 0.950 . S
C373 C369 1.393 . S
C373 C372 1.391 . S
C374 H364 0.950 . S
C374 C375 1.386 . S
C374 C376 1.391 . S
C375 C374 1.386 . S
C375 C379 1.393 . S
C376 H365 0.950 1_554 S
C376 C374 1.391 . S
C376 C377 1.400 1_554 S
C377 C371 1.491 . S
C377 C376 1.400 1_556 S
C377 C378 1.398 1_556 S
C378 H366 0.950 . S
C378 C377 1.398 1_554 S
C378 C379 1.391 . S
C379 H367 0.950 . S
C379 C375 1.393 . S
C379 C378 1.391 . S
H380 C388 0.950 . S
H381 C393 0.950 . S
H382 C390 0.950 . S
H383 C392 0.950 . S
H384 C394 0.950 . S
H385 C396 0.950 . S
H386 C398 0.950 . S
H387 C399 0.950 . S
C388 H380 0.950 . S
C388 C389 1.386 . S
C388 C390 1.391 . S
C389 C388 1.386 . S
C389 C393 1.393 . S
C390 H382 0.950 . S
C390 C388 1.391 . S
C390 C391 1.400 . S
C391 C390 1.400 . S
C391 C392 1.398 . S
C391 C397 1.491 . S
C392 H383 0.950 . S
C392 C391 1.398 . S
C392 C393 1.391 . S
C393 H381 0.950 . S
C393 C389 1.393 . S
C393 C392 1.391 . S
C394 H384 0.950 . S
C394 C395 1.386 . S
C394 C396 1.391 . S
C395 C394 1.386 . S
C395 C399 1.393 . S
C396 H385 0.950 . S
C396 C394 1.391 . S
C396 C397 1.400 . S
C397 C391 1.491 . S
C397 C396 1.400 . S
C397 C398 1.398 . S
C398 H386 0.950 . S
C398 C397 1.398 . S
C398 C399 1.391 . S
C399 H387 0.950 . S
C399 C395 1.393 . S
C399 C398 1.391 . S
C169 C89 0.671 . S
C175 C18 0.671 . S
C189 C138 0.627 . S
C195 C49 0.627 . S
C209 C98 1.010 . S
C215 C9 1.010 . S
C229 C58 1.005 . S
C235 C129 1.005 . S
C249 C50 1.535 . S
C255 C6 1.550 . S
C269 C59 2.298 . S
C275 C99 2.299 1_556 S
C289 C126 1.559 . S
C295 C90 1.517 . S
C309 C135 0.881 . S
C315 C15 0.890 . S
C329 C95 1.553 . S
C335 C139 1.514 . S
C349 C10 2.300 . S
C355 C130 2.298 . S
C369 C55 1.549 . S
C375 C19 1.536 . S
C389 C86 0.902 . S
C395 C46 0.877 . S
