# Generated by pormake.
# Topology sma, (6)-cn, num edge types: 1
# Building blocks:
#     Node 0, Type 0, BuildingBlock: BETFAJ_clean_sbu_0, # of connection points: 6
#     Node 1, Type 0, BuildingBlock: BETFAJ_clean_sbu_0, # of connection points: 6
#     Node 2, Type 0, BuildingBlock: BETFAJ_clean_sbu_0, # of connection points: 6
#     Edge 3, Type (0, 0), BuildingBlock: FUNLAD_clean_linker_1, # of connection points: 2
#     Edge 4, Type (0, 0), BuildingBlock: FUNLAD_clean_linker_1, # of connection points: 2
#     Edge 5, Type (0, 0), BuildingBlock: FUNLAD_clean_linker_1, # of connection points: 2
#     Edge 6, Type (0, 0), BuildingBlock: FUNLAD_clean_linker_1, # of connection points: 2
#     Edge 7, Type (0, 0), BuildingBlock: FUNLAD_clean_linker_1, # of connection points: 2
#     Edge 8, Type (0, 0), BuildingBlock: FUNLAD_clean_linker_1, # of connection points: 2
#     Edge 9, Type (0, 0), BuildingBlock: FUNLAD_clean_linker_1, # of connection points: 2
#     Edge 10, Type (0, 0), BuildingBlock: FUNLAD_clean_linker_1, # of connection points: 2
#     Edge 11, Type (0, 0), BuildingBlock: FUNLAD_clean_linker_1, # of connection points: 2
# Relax obj value: 0.129
# Max RMSD: 0.256
# Mean RMSD: 0.203
data_MOF--net-sma--node1-BETFAJ_clean_sbu_0--edge1-FUNLAD_clean_linker_1
_symmetry_space_group_name_H-M    P1
_symmetry_Int_Tables_number       1
_symmetry_cell_setting            triclinic
loop_
_symmetry_equiv_pos_as_xyz
'x, y, z'
_cell_length_a     41.746198
_cell_length_b     49.002755
_cell_length_c     14.284702
_cell_angle_alpha  94.208046
_cell_angle_beta   89.390232
_cell_angle_gamma 139.84239
loop_
_atom_site_label
_atom_site_type_symbol
_atom_site_fract_x
_atom_site_fract_y
_atom_site_fract_z
_atom_type_partial_charge
Sm0 Sm 0.14328 0.65418 0.17752 0.0
Sm1 Sm 1.07225 0.6563 0.23147 0.0
C2 C 0.20674 0.6589 0.11113 0.0
C3 C 0.24445 0.66338 0.07849 0.0
C4 C 0.234 0.63783 0.00019 0.0
C5 C 0.26834 0.63963 -0.0238 0.0
C6 C 0.31402 0.66721 0.03004 0.0
C7 C 0.32483 0.69363 0.10618 0.0
C8 C 0.29051 0.69158 0.13045 0.0
C9 C 0.1274 0.65102 0.36313 0.0
C10 C 0.18833 0.7466 0.21903 0.0
C11 C 1.00451 0.64821 0.2876 0.0
C12 C 0.97544 0.65214 0.2495 0.0
C13 C 0.92873 0.62783 0.28293 0.0
C14 C 0.89933 0.62938 0.24553 0.0
C15 C 0.9159 0.65541 0.17395 0.0
C16 C 0.963 0.67993 0.14038 0.0
C17 C 0.99241 0.67821 0.1778 0.0
C18 C 1.08625 0.65659 0.04386 0.0
C19 C 1.03107 0.56599 0.22354 0.0
O20 O 0.16833 0.64196 0.05853 0.0
O21 O 0.2114 0.67386 0.19616 0.0
O22 O 0.13233 0.67325 0.31021 0.0
O23 O 0.13498 0.63208 0.32165 0.0
O24 O 0.19229 0.72519 0.17036 0.0
O25 O 0.14763 0.72707 0.26134 0.0
O26 O 0.99338 0.61654 0.24899 0.0
O27 O 1.05247 0.68311 0.3057 0.0
O28 O 1.08057 0.63458 0.0989 0.0
O29 O 1.08127 0.67735 0.08572 0.0
O30 O 1.0297 0.5899 0.26692 0.0
O31 O 1.06793 0.58228 0.17095 0.0
H32 H 0.19882 0.61577 0.95878 0.0
H33 H 0.25888 0.61943 0.91557 0.0
H34 H 0.3597 0.71545 0.14864 0.0
H35 H 0.29992 0.71182 0.19107 0.0
H36 H 0.91468 0.60722 0.33761 0.0
H37 H 0.86328 0.60996 0.27273 0.0
H38 H 0.97703 0.6998 0.0842 0.0
H39 H 1.02811 0.69685 0.14996 0.0
Sm40 Sm 0.64973 0.15112 0.41964 0.0
Sm41 Sm 0.59725 0.17023 0.35776 0.0
C42 C 0.69632 0.14156 0.50533 0.0
C43 C 0.69036 0.10793 0.5136 0.0
C44 C 0.6928 0.09931 0.60306 0.0
C45 C 0.68854 0.06841 0.6127 0.0
C46 C 0.6817 1.0454 0.53266 0.0
C47 C 0.67933 1.05417 0.44322 0.0
C48 C 0.68327 0.08486 0.43365 0.0
C49 C 0.62861 0.13863 0.23094 0.0
C50 C 0.53168 0.07047 0.35924 0.0
C51 C 0.54969 0.18343 0.30503 0.0
C52 C 0.55465 0.21547 0.34349 0.0
C53 C 0.51271 0.20511 0.34628 0.0
C54 C 0.51591 0.2333 0.39385 0.0
C55 C 0.56136 0.27257 0.43971 0.0
C56 C 0.60343 0.28306 0.43481 0.0
C57 C 0.60017 0.25489 0.38746 0.0
C58 C 0.62007 0.18254 0.54666 0.0
C59 C 0.71714 0.24955 0.38553 0.0
O60 O 0.66403 0.13663 0.5457 0.0
O61 O 0.70786 0.15693 0.42385 0.0
O62 O 0.6437 0.16848 0.28557 0.0
O63 O 0.62839 0.11593 0.27321 0.0
O64 O 0.56817 0.08425 0.41322 0.0
O65 O 0.53626 0.09688 0.3192 0.0
O66 O 0.58752 0.19763 0.26199 0.0
O67 O 0.53162 0.15499 0.36161 0.0
O68 O 0.60264 0.15205 0.49115 0.0
O69 O 0.62459 0.20765 0.50435 0.0
O70 O 0.67833 0.23399 0.33695 0.0
O71 O 0.71321 0.22536 0.43534 0.0
H72 H 0.69859 0.11689 0.66571 0.0
H73 H 0.69194 0.06355 0.68282 0.0
H74 H 0.67442 1.03719 0.38034 0.0
H75 H 0.68112 0.0907 0.36363 0.0
H76 H 0.47703 0.17456 0.3143 0.0
H77 H 0.48224 0.22333 0.39713 0.0
H78 H 0.63887 0.31284 0.46959 0.0
H79 H 0.63297 0.26343 0.38773 0.0
Sm80 Sm 0.64748 0.69348 0.84386 0.0
Sm81 Sm 0.57837 0.6035 0.89555 0.0
C82 C 0.68484 0.75817 0.75613 0.0
C83 C 0.67995 0.78494 0.74798 0.0
C84 C 0.64888 0.77489 0.67528 0.0
C85 C 0.64648 0.80145 0.66376 0.0
C86 C 0.67549 0.83899 0.72444 0.0
C87 C 0.70577 0.84853 0.79803 0.0
C88 C 0.70829 0.82207 0.80933 0.0
C89 C 0.65194 0.68991 0.03114 0.0
C90 C 0.5321 0.63394 0.90154 0.0
C91 C 0.53646 0.53085 0.94344 0.0
C92 C 0.53026 0.49917 0.89351 0.0
C93 C 0.55475 0.49243 0.92989 0.0
C94 C 0.55234 0.46516 0.87941 0.0
C95 C 0.52527 0.44397 0.79117 0.0
C96 C 0.49971 0.44987 0.75643 0.0
C97 C 0.50234 0.47723 0.80647 0.0
C98 C 0.58192 0.61134 0.70634 0.0
C99 C 0.69847 0.66912 0.88315 0.0
O100 O 0.64769 0.71839 0.72024 0.0
O101 O 0.70509 0.76304 0.83509 0.0
O102 O 0.61228 0.66276 -0.02172 0.0
O103 O 0.69002 0.72228 -0.01165 0.0
O104 O 0.57093 0.66569 0.85522 0.0
O105 O 0.52915 0.60806 0.93778 0.0
O106 O 0.58199 0.56783 -0.02758 0.0
O107 O 0.51107 0.53427 0.90746 0.0
O108 O 0.61852 0.63598 0.76553 0.0
O109 O 0.54119 0.58018 0.74494 0.0
O110 O 0.65712 0.63707 0.92349 0.0
O111 O 0.70211 0.69288 0.83261 0.0
H112 H 0.62666 0.74661 0.62648 0.0
H113 H 0.62162 0.79214 0.60765 0.0
H114 H 0.72835 0.87706 0.84617 0.0
H115 H 0.73294 0.83105 0.86563 0.0
H116 H 0.57636 0.50875 -0.00306 0.0
H117 H 0.5715 0.4607 0.91019 0.0
H118 H 0.47829 0.43385 0.68914 0.0
H119 H 0.48306 0.48165 0.77584 0.0
H120 H 0.38911 0.69753 0.04333 0.0
C121 C 0.35172 0.66998 0.0102 0.0
H122 H 0.30542 0.61157 0.92496 0.0
H123 H 0.48005 0.66105 0.73369 0.0
H124 H 0.44597 0.66403 0.60447 0.0
H125 H 0.38248 0.65825 0.6295 0.0
H126 H 0.35242 0.64921 0.78407 0.0
C127 C 0.34209 0.63977 0.95922 0.0
C128 C 0.38169 0.64433 0.94558 0.0
C129 C 0.39915 0.64971 0.85497 0.0
C130 C 0.43649 0.65374 0.84089 0.0
C131 C 0.45249 0.65854 0.74906 0.0
C132 C 0.4331 0.66016 0.67401 0.0
C133 C 0.3973 0.65684 0.68807 0.0
C134 C 0.38033 0.65161 0.7772 0.0
H135 H 0.45851 0.59961 0.94678 0.0
C136 C 0.49228 0.62844 0.918 0.0
H137 H 0.53068 0.68693 0.87198 0.0
H138 H 0.35337 0.62989 0.12642 0.0
H139 H 0.391 0.63141 0.25803 0.0
H140 H 0.46095 0.64512 0.23691 0.0
H141 H 0.49285 0.65631 0.08381 0.0
C142 C 0.49719 0.65826 0.9017 0.0
C143 C 0.45689 0.65273 0.91758 0.0
C144 C 0.4402 0.64831 0.00885 0.0
C145 C 0.40168 0.64289 0.02222 0.0
C146 C 0.38384 0.63595 0.11292 0.0
C147 C 0.40493 0.6365 0.1891 0.0
C148 C 0.44416 0.64403 0.17712 0.0
C149 C 0.46181 0.65 0.08841 0.0
H150 H 0.79467 0.31018 0.4403 0.0
C151 C 0.76632 0.29532 0.38467 0.0
H152 H 0.74789 0.30325 0.26136 0.0
H153 H 0.89221 0.49648 0.29608 0.0
H154 H 0.81188 0.46587 0.30525 0.0
H155 H 0.73648 0.38961 0.32304 0.0
H156 H 0.74087 0.34337 0.33023 0.0
C157 C 0.77657 0.31848 0.31665 0.0
C158 C 0.82403 0.36559 0.31709 0.0
C159 C 0.82137 0.3928 0.3161 0.0
C160 C 0.8653 0.43723 0.30927 0.0
C161 C 0.86062 0.46288 0.30415 0.0
C162 C 0.81457 0.44568 0.30886 0.0
C163 C 0.77212 0.40274 0.31859 0.0
C164 C 0.77521 0.37649 0.32216 0.0
H165 H 0.98444 0.49898 0.18005 0.0
C166 C 0.9897 0.51953 0.2326 0.0
H167 H 0.96405 0.52321 0.35464 0.0
H168 H 0.84301 0.32287 0.30357 0.0
H169 H 0.92404 0.35417 0.30757 0.0
H170 H 1.00082 0.432 0.3185 0.0
H171 H 0.99693 0.4789 0.32199 0.0
C172 C 0.95839 0.50232 0.30243 0.0
C173 C 0.91257 0.45514 0.30683 0.0
C174 C 0.91551 0.42821 0.31177 0.0
C175 C 0.87117 0.38332 0.31294 0.0
C176 C 0.87529 0.35715 0.30861 0.0
C177 C 0.92165 0.3747 0.31003 0.0
C178 C 0.96487 0.41851 0.31564 0.0
C179 C 0.96207 0.44508 0.31664 0.0
H180 H 0.68799 1.00619 0.47786 0.0
C181 C 0.67936 1.01368 0.53934 0.0
H182 H 0.65402 0.99743 0.67653 0.0
H183 H 0.56739 0.82031 0.61797 0.0
H184 H 0.49104 0.79661 0.60056 0.0
H185 H 0.49348 0.84823 0.5909 0.0
H186 H 0.57233 0.92396 0.5989 0.0
C187 C 0.66638 0.9933 0.61611 0.0
C188 C 0.66522 0.96215 0.61877 0.0
C189 C 0.6189 0.91801 0.61383 0.0
C190 C 0.61751 0.88818 0.61852 0.0
C191 C 0.57065 0.84432 0.61398 0.0
C192 C 0.52652 0.83027 0.60412 0.0
C193 C 0.52789 0.85935 0.59877 0.0
C194 C 0.5734 0.90272 0.60358 0.0
H195 H 0.68998 0.89179 0.77418 0.0
C196 C 0.67523 0.86891 0.71427 0.0
H197 H 0.64608 0.84926 0.57216 0.0
H198 H 0.76032 1.04458 0.63572 0.0
H199 H 0.83668 0.06814 0.64696 0.0
H200 H 0.83435 1.01629 0.64635 0.0
H201 H 0.75568 0.94062 0.63597 0.0
C202 C 0.66055 0.87097 0.63431 0.0
C203 C 0.66246 0.9025 0.62842 0.0
C204 C 0.70886 0.94664 0.6314 0.0
C205 C 0.71022 0.97651 0.62817 0.0
C206 C 0.75706 1.02044 0.6352 0.0
C207 C 0.80122 1.03444 0.64204 0.0
C208 C 0.79991 1.00525 0.64198 0.0
C209 C 0.75443 0.96186 0.63658 0.0
H210 H 0.77766 0.70838 0.87429 0.0
C211 C 0.74231 0.67977 0.90005 0.0
H212 H 0.7044 0.62785 -0.02164 0.0
H213 H 0.89756 0.67429 0.90375 0.0
H214 H 0.87348 0.65935 0.73717 0.0
H215 H 0.80758 0.6474 0.68055 0.0
H216 H 0.76554 0.65059 0.78994 0.0
C217 C 0.73949 0.65576 0.9504 0.0
C218 C 0.78364 0.66797 -0.01859 0.0
C219 C 0.80804 0.66612 0.91646 0.0
C220 C 0.84577 0.67251 0.94939 0.0
C221 C 0.86888 0.66986 0.88286 0.0
C222 C 0.85532 0.66119 0.78698 0.0
C223 C 0.81824 0.65449 0.75509 0.0
C224 C 0.79455 0.65663 0.81872 0.0
H225 H 0.84362 0.62959 0.15498 0.0
C226 C 0.88198 0.65472 0.1356 0.0
H227 H 0.93318 0.70912 0.06012 0.0
H228 H 0.747 0.67655 0.12453 0.0
H229 H 0.7727 0.69347 0.29057 0.0
H230 H 0.83937 0.70633 0.34694 0.0
H231 H 0.8803 0.70184 0.23777 0.0
C232 C 0.8955 0.68343 0.08179 0.0
C233 C 0.85865 0.6801 0.04732 0.0
C234 C 0.83593 0.68401 0.1118 0.0
C235 C 0.7981 0.67744 0.07897 0.0
C236 C 0.77566 0.68095 0.14538 0.0
C237 C 0.79025 0.69089 0.24096 0.0
C238 C 0.82773 0.69807 0.2727 0.0
C239 C 0.85062 0.69499 0.20924 0.0
H240 H 0.48525 1.00402 0.37427 0.0
C241 C 0.4857 1.02365 0.34153 0.0
H242 H 0.44577 1.02328 0.25093 0.0
H243 H 0.3034 0.83909 0.04482 0.0
H244 H 0.35117 0.88367 0.918 0.0
H245 H 0.42264 0.96179 0.94975 0.0
H246 H 0.44649 0.99598 0.10835 0.0
C247 C 0.44542 1.0043 0.28702 0.0
C248 C 0.40122 0.95662 0.26826 0.0
C249 C 0.38782 0.93691 0.17511 0.0
C250 C 0.34709 0.89163 0.15695 0.0
C251 C 0.33435 0.87317 0.06294 0.0
C252 C 0.3614 0.89839 -0.01065 0.0
C253 C 0.40159 0.9424 0.00722 0.0
C254 C 0.41482 0.96161 0.09873 0.0
H255 H 0.22315 0.8094 0.26206 0.0
C256 C 0.23055 0.79385 0.23085 0.0
H257 H 0.28571 0.80312 0.1799 0.0
H258 H 0.41058 0.98303 0.45255 0.0
H259 H 0.36616 0.93868 0.58074 0.0
H260 H 0.3024 0.86081 0.55217 0.0
H261 H 0.2817 0.82678 0.39506 0.0
C262 C 0.27765 0.81804 0.21197 0.0
C263 C 0.3199 0.86572 0.23191 0.0
C264 C 0.33377 0.88547 0.3254 0.0
C265 C 0.3731 0.93074 0.34297 0.0
C266 C 0.38317 0.94912 0.43587 0.0
C267 C 0.35762 0.92399 0.51011 0.0
C268 C 0.32155 0.88014 0.49394 0.0
C269 C 0.30968 0.86096 0.403 0.0
H270 H 0.49243 0.39352 0.67734 0.0
C271 C 0.5221 0.41525 0.73315 0.0
H272 H 0.58557 0.43746 0.79544 0.0
H273 H 0.51323 0.27002 0.65621 0.0
H274 H 0.50236 0.26319 0.82327 0.0
H275 H 0.51328 0.31285 0.92617 0.0
H276 H 0.53495 0.36959 0.86253 0.0
C277 C 0.55503 0.41613 0.74158 0.0
C278 C 0.5501 0.38706 0.67894 0.0
C279 C 0.53828 0.35447 0.71729 0.0
C280 C 0.53247 0.32603 0.65797 0.0
C281 C 0.51908 0.29301 0.69806 0.0
C282 C 0.51247 0.28858 0.79387 0.0
C283 C 0.51859 0.31652 0.8518 0.0
C284 C 0.53115 0.34902 0.81435 0.0
H285 H 0.59942 0.32708 0.54563 0.0
C286 C 0.56611 0.30223 0.49833 0.0
H287 H 0.49963 0.27785 0.44769 0.0
H288 H 0.57879 0.44901 0.58376 0.0
H289 H 0.59027 0.45612 0.41694 0.0
H290 H 0.57814 0.4058 0.31373 0.0
H291 H 0.55483 0.34819 0.377 0.0
C292 C 0.53208 0.30026 0.49725 0.0
C293 C 0.53912 0.33051 0.56029 0.0
C294 C 0.55154 0.36341 0.52212 0.0
C295 C 0.55762 0.392 0.5815 0.0
C296 C 0.57216 0.42561 0.54172 0.0
C297 C 0.57925 0.43027 0.44607 0.0
C298 C 0.57249 0.40197 0.38797 0.0
C299 C 0.55897 0.36897 0.42518 0.0
H300 H 1.0391 0.61178 0.91935 0.0
C301 C 1.07467 0.64437 0.94378 0.0
H302 H 0.14167 0.70542 0.90973 0.0
H303 H 1.02765 0.56668 0.51956 0.0
H304 H 1.02252 0.52248 0.60657 0.0
H305 H 1.05599 0.54485 0.77227 0.0
H306 H 0.09158 0.60944 0.85283 0.0
C307 C 0.10673 0.67276 0.88359 0.0
C308 C 0.09319 0.66165 0.78136 0.0
C309 C 1.07712 0.62578 0.73459 0.0
C310 C 1.06279 0.61519 0.63738 0.0
C311 C 1.04153 0.57691 0.59282 0.0
C312 C 1.03834 0.55143 0.64181 0.0
C313 C 1.0569 0.5639 0.73515 0.0
C314 C 1.07653 0.6008 0.78113 0.0
H315 H 0.13027 0.64348 0.5097 0.0
C316 C 0.11395 0.64644 0.45925 0.0
H317 H 1.06527 0.64746 0.43302 0.0
H318 H 0.11302 0.7275 0.85228 0.0
H319 H 0.11861 0.77087 0.76188 0.0
H320 H 0.10383 0.75713 0.58895 0.0
H321 H 1.08225 0.6993 0.50589 0.0
C322 C 1.08174 0.64503 0.48461 0.0
C323 C 1.0725 0.64407 0.58504 0.0
C324 C 1.08498 0.67795 0.63166 0.0
C325 C 0.09469 0.68644 0.73074 0.0
C326 C 0.10642 0.72015 0.77667 0.0
C327 C 0.10959 0.74525 0.72565 0.0
C328 C 0.10125 0.73751 0.62832 0.0
C329 C 0.08916 0.70433 0.58142 0.0
H330 H 0.61182 0.11029 0.08593 0.0
C331 C 0.61904 0.13383 0.12985 0.0
H332 H 0.63012 0.18387 0.13465 0.0
H333 H 0.71213 0.22264 0.72835 0.0
H334 H 0.78854 0.28213 0.82523 0.0
H335 H 0.78854 0.28642 -0.00154 0.0
H336 H 0.71222 0.23093 0.0755 0.0
C337 C 0.62144 0.1594 0.09145 0.0
C338 C 0.61964 0.15902 -0.01142 0.0
C339 C 0.66433 0.19259 0.94527 0.0
C340 C 0.66405 0.19078 0.84586 0.0
C341 C 0.70976 0.22331 0.80378 0.0
C342 C 0.75404 0.25746 0.85861 0.0
C343 C 0.75406 0.25982 0.95608 0.0
C344 C 0.70992 0.22774 -0.00064 0.0
H345 H 0.6381 0.21125 0.69176 0.0
C346 C 0.62662 0.18541 0.64832 0.0
H347 H 0.60351 0.1291 0.64459 0.0
H348 H 0.52729 0.09098 0.05194 0.0
H349 H 0.45047 1.03178 0.95544 0.0
H350 H 0.44957 1.02874 0.78216 0.0
H351 H 0.52531 0.085 0.70456 0.0
C352 C 0.61697 0.15591 0.68765 0.0
C353 C 0.61859 0.15629 0.79082 0.0
C354 C 0.57386 0.12271 0.83432 0.0
C355 C 0.57437 0.1242 0.93377 0.0
C356 C 0.52912 0.09095 -0.02368 0.0
C357 C 0.48471 1.05688 0.9218 0.0
C358 C 0.4842 1.05523 0.82428 0.0
C359 C 0.52805 0.08775 0.78063 0.0
H360 H 0.55095 0.59419 0.56124 0.0
C361 C 0.58532 0.61521 0.60537 0.0
H362 H 0.66398 0.66536 0.61108 0.0
H363 H 0.57541 0.58341 0.1609 0.0
H364 H 0.55018 0.52278 0.20786 0.0
H365 H 0.56225 0.51943 0.3736 0.0
H366 H 0.60002 0.57699 0.49303 0.0
C367 C 0.62942 0.64386 0.56729 0.0
C368 C 0.63152 0.64924 0.46604 0.0
C369 C 0.60942 0.61536 0.39745 0.0
C370 C 0.60284 0.61747 0.30217 0.0
C371 C 0.58119 0.58344 0.23453 0.0
C372 C 0.56656 0.54844 0.26053 0.0
C373 C 0.57328 0.54652 0.35383 0.0
C374 C 0.59457 0.57956 0.42178 0.0
H375 H 0.69151 0.71047 0.16785 0.0
C376 C 0.65487 0.68691 0.13068 0.0
H377 H 0.57727 0.63216 0.13898 0.0
H378 H 0.68716 0.72391 0.5756 0.0
H379 H 0.71189 0.78464 0.5308 0.0
H380 H 0.69084 0.78466 0.37 0.0
H381 H 0.64673 0.7248 0.25292 0.0
C382 C 0.61396 0.65647 0.17613 0.0
C383 C 0.61846 0.65347 0.27631 0.0
C384 C 0.64146 0.68772 0.34487 0.0
C385 C 0.65028 0.68644 0.43899 0.0
C386 C 0.67682 0.72231 0.50471 0.0
C387 C 0.69169 0.75751 0.47952 0.0
C388 C 0.68015 0.75763 0.38888 0.0
C389 C 0.65526 0.72322 0.32207 0.0
loop_
_geom_bond_atom_site_label_1
_geom_bond_atom_site_label_2
_geom_bond_distance
_geom_bond_site_symmetry_2
_ccdc_geom_bond_type
Sm0 C2 2.846 . S
Sm0 O20 2.543 . S
Sm0 O21 2.450 . S
Sm0 O22 2.681 . S
Sm0 O23 2.464 . S
Sm0 O24 2.396 . S
Sm0 O28 2.386 . S
Sm0 O31 2.408 1_455 S
Sm1 C11 2.846 . S
Sm1 O22 2.386 1_655 S
Sm1 O25 2.408 1_655 S
Sm1 O26 2.543 . S
Sm1 O27 2.450 . S
Sm1 O28 2.681 1_655 S
Sm1 O29 2.464 1_554 S
Sm1 O30 2.396 . S
C2 Sm0 2.846 . S
C2 C3 1.506 . S
C2 O20 1.261 . S
C2 O21 1.242 . S
C3 C2 1.506 . S
C3 C4 1.358 . S
C3 C8 1.382 . S
C4 C3 1.358 . S
C4 C5 1.385 . S
C4 H32 0.930 . S
C5 C4 1.385 . S
C5 C6 1.395 . S
C5 H33 0.929 . S
C6 C5 1.395 . S
C6 C7 1.335 . S
C7 C6 1.335 . S
C7 C8 1.398 . S
C7 H34 0.930 . S
C8 C3 1.382 . S
C8 C7 1.398 . S
C8 H35 0.929 . S
C9 O22 1.271 . S
C9 O23 1.251 . S
C10 O24 1.252 . S
C10 O25 1.272 . S
C11 Sm1 2.846 . S
C11 C12 1.506 . S
C11 O26 1.261 . S
C11 O27 1.242 . S
C12 C11 1.506 . S
C12 C13 1.358 . S
C12 C17 1.382 . S
C13 C12 1.358 . S
C13 C14 1.385 . S
C13 H36 0.930 . S
C14 C13 1.385 . S
C14 C15 1.395 . S
C14 H37 0.929 . S
C15 C14 1.395 . S
C15 C16 1.335 . S
C16 C15 1.335 . S
C16 C17 1.398 . S
C16 H38 0.930 . S
C17 C12 1.382 . S
C17 C16 1.398 . S
C17 H39 0.929 . S
C18 O28 1.271 1_556 S
C18 O29 1.251 1_455 S
C19 O30 1.252 . S
C19 O31 1.272 . S
O20 Sm0 2.543 . S
O20 C2 1.261 . S
O21 Sm0 2.450 . S
O21 C2 1.242 . S
O22 Sm0 2.681 . S
O22 Sm1 2.386 1_455 S
O22 C9 1.271 . S
O23 Sm0 2.464 . S
O23 C9 1.251 . S
O24 Sm0 2.396 . S
O24 C10 1.252 . S
O25 Sm1 2.408 1_455 S
O25 C10 1.272 . S
O26 Sm1 2.543 . S
O26 C11 1.261 . S
O27 Sm1 2.450 . S
O27 C11 1.242 . S
O28 Sm0 2.386 . S
O28 Sm1 2.681 1_455 S
O28 C18 1.271 1_554 S
O29 Sm1 2.464 1_556 S
O29 C18 1.251 1_655 S
O30 Sm1 2.396 . S
O30 C19 1.252 . S
O31 Sm0 2.408 1_655 S
O31 C19 1.272 . S
H32 C4 0.930 . S
H33 C5 0.929 . S
H34 C7 0.930 . S
H35 C8 0.929 . S
H36 C13 0.930 . S
H37 C14 0.929 . S
H38 C16 0.930 . S
H39 C17 0.929 . S
Sm40 C42 2.846 . S
Sm40 O60 2.543 . S
Sm40 O61 2.450 . S
Sm40 O62 2.681 . S
Sm40 O63 2.464 . S
Sm40 O64 2.396 . S
Sm40 O68 2.386 . S
Sm40 O71 2.408 . S
Sm41 C51 2.846 . S
Sm41 O62 2.386 . S
Sm41 O65 2.408 . S
Sm41 O66 2.543 . S
Sm41 O67 2.450 . S
Sm41 O68 2.681 . S
Sm41 O69 2.464 . S
Sm41 O70 2.396 . S
C42 Sm40 2.846 . S
C42 C43 1.506 1_545 S
C42 O60 1.261 . S
C42 O61 1.242 . S
C43 C42 1.506 1_565 S
C43 C44 1.358 . S
C43 C48 1.382 . S
C44 C43 1.358 . S
C44 C45 1.385 . S
C44 H72 0.930 . S
C45 C44 1.385 . S
C45 C46 1.395 . S
C45 H73 0.929 . S
C46 C45 1.395 . S
C46 C47 1.335 . S
C47 C46 1.335 . S
C47 C48 1.398 . S
C47 H74 0.930 . S
C48 C43 1.382 . S
C48 C47 1.398 . S
C48 H75 0.929 . S
C49 O62 1.271 . S
C49 O63 1.251 . S
C50 O64 1.252 . S
C50 O65 1.272 . S
C51 Sm41 2.846 . S
C51 C52 1.506 . S
C51 O66 1.261 . S
C51 O67 1.242 . S
C52 C51 1.506 . S
C52 C53 1.358 . S
C52 C57 1.382 . S
C53 C52 1.358 . S
C53 C54 1.385 . S
C53 H76 0.930 . S
C54 C53 1.385 . S
C54 C55 1.395 . S
C54 H77 0.929 . S
C55 C54 1.395 . S
C55 C56 1.335 . S
C56 C55 1.335 . S
C56 C57 1.398 . S
C56 H78 0.930 . S
C57 C52 1.382 . S
C57 C56 1.398 . S
C57 H79 0.929 . S
C58 O68 1.271 . S
C58 O69 1.251 . S
C59 O70 1.252 . S
C59 O71 1.272 . S
O60 Sm40 2.543 . S
O60 C42 1.261 . S
O61 Sm40 2.450 . S
O61 C42 1.242 . S
O62 Sm40 2.681 . S
O62 Sm41 2.386 . S
O62 C49 1.271 . S
O63 Sm40 2.464 . S
O63 C49 1.251 . S
O64 Sm40 2.396 . S
O64 C50 1.252 . S
O65 Sm41 2.408 . S
O65 C50 1.272 . S
O66 Sm41 2.543 . S
O66 C51 1.261 . S
O67 Sm41 2.450 . S
O67 C51 1.242 . S
O68 Sm40 2.386 . S
O68 Sm41 2.681 . S
O68 C58 1.271 . S
O69 Sm41 2.464 . S
O69 C58 1.251 . S
O70 Sm41 2.396 . S
O70 C59 1.252 . S
O71 Sm40 2.408 . S
O71 C59 1.272 . S
H72 C44 0.930 . S
H73 C45 0.929 . S
H74 C47 0.930 . S
H75 C48 0.929 . S
H76 C53 0.930 . S
H77 C54 0.929 . S
H78 C56 0.930 . S
H79 C57 0.929 . S
Sm80 C82 2.846 . S
Sm80 O100 2.543 . S
Sm80 O101 2.450 . S
Sm80 O102 2.681 . S
Sm80 O103 2.464 1_556 S
Sm80 O104 2.396 . S
Sm80 O108 2.386 . S
Sm80 O111 2.408 . S
Sm81 C91 2.846 . S
Sm81 O102 2.386 . S
Sm81 O105 2.408 . S
Sm81 O106 2.543 . S
Sm81 O107 2.450 . S
Sm81 O108 2.681 . S
Sm81 O109 2.464 . S
Sm81 O110 2.396 . S
C82 Sm80 2.846 . S
C82 C83 1.506 . S
C82 O100 1.261 . S
C82 O101 1.242 . S
C83 C82 1.506 . S
C83 C84 1.358 . S
C83 C88 1.382 . S
C84 C83 1.358 . S
C84 C85 1.385 . S
C84 H112 0.930 . S
C85 C84 1.385 . S
C85 C86 1.395 . S
C85 H113 0.929 . S
C86 C85 1.395 . S
C86 C87 1.335 . S
C87 C86 1.335 . S
C87 C88 1.398 . S
C87 H114 0.930 . S
C88 C83 1.382 . S
C88 C87 1.398 . S
C88 H115 0.929 1_556 S
C89 O102 1.271 1_554 S
C89 O103 1.251 . S
C90 O104 1.252 . S
C90 O105 1.272 . S
C91 Sm81 2.846 . S
C91 C92 1.506 . S
C91 O106 1.261 . S
C91 O107 1.242 . S
C92 C91 1.506 . S
C92 C93 1.358 . S
C92 C97 1.382 . S
C93 C92 1.358 . S
C93 C94 1.385 . S
C93 H116 0.930 . S
C94 C93 1.385 . S
C94 C95 1.395 . S
C94 H117 0.929 . S
C95 C94 1.395 . S
C95 C96 1.335 . S
C96 C95 1.335 . S
C96 C97 1.398 . S
C96 H118 0.930 . S
C97 C92 1.382 . S
C97 C96 1.398 . S
C97 H119 0.929 . S
C98 O108 1.271 . S
C98 O109 1.251 . S
C99 O110 1.252 . S
C99 O111 1.272 . S
O100 Sm80 2.543 . S
O100 C82 1.261 . S
O101 Sm80 2.450 . S
O101 C82 1.242 . S
O102 Sm80 2.681 . S
O102 Sm81 2.386 . S
O102 C89 1.271 1_556 S
O103 Sm80 2.464 1_554 S
O103 C89 1.251 . S
O104 Sm80 2.396 . S
O104 C90 1.252 . S
O105 Sm81 2.408 . S
O105 C90 1.272 . S
O106 Sm81 2.543 . S
O106 C91 1.261 . S
O107 Sm81 2.450 . S
O107 C91 1.242 . S
O108 Sm80 2.386 . S
O108 Sm81 2.681 . S
O108 C98 1.271 . S
O109 Sm81 2.464 . S
O109 C98 1.251 . S
O110 Sm81 2.396 . S
O110 C99 1.252 . S
O111 Sm80 2.408 . S
O111 C99 1.272 . S
H112 C84 0.930 . S
H113 C85 0.929 . S
H114 C87 0.930 . S
H115 C88 0.929 1_554 S
H116 C93 0.930 . S
H117 C94 0.929 . S
H118 C96 0.930 . S
H119 C97 0.929 . S
H120 C121 0.951 . S
C121 H120 0.951 . S
C121 C127 1.265 . S
H122 C127 0.950 1_556 S
H123 C131 0.949 . S
H124 C132 0.950 . S
H125 C133 0.951 . S
H126 C134 0.951 . S
C127 C121 1.265 . S
C127 H122 0.950 1_554 S
C127 C128 1.478 . S
C128 C127 1.478 . S
C128 C129 1.397 1_554 S
C128 C145 1.394 . S
C129 C128 1.397 1_556 S
C129 C130 1.438 . S
C129 C134 1.429 . S
C130 C129 1.438 . S
C130 C131 1.428 . S
C130 C143 1.394 . S
C131 H123 0.949 . S
C131 C130 1.428 . S
C131 C132 1.345 . S
C132 H124 0.950 . S
C132 C131 1.345 . S
C132 C133 1.424 . S
C133 H125 0.951 . S
C133 C132 1.424 . S
C133 C134 1.347 . S
C134 H126 0.951 . S
C134 C129 1.429 . S
C134 C133 1.347 . S
H135 C136 0.951 . S
C136 H135 0.951 . S
C136 C142 1.265 . S
H137 C142 0.944 1_554 S
H138 C146 0.949 . S
H139 C147 0.950 . S
H140 C148 0.951 . S
H141 C149 0.951 . S
C142 C136 1.265 . S
C142 H137 0.944 1_556 S
C142 C143 1.478 . S
C143 C130 1.394 . S
C143 C142 1.478 . S
C143 C144 1.397 1_556 S
C144 C143 1.397 1_554 S
C144 C145 1.438 . S
C144 C149 1.429 . S
C145 C128 1.394 . S
C145 C144 1.438 . S
C145 C146 1.428 . S
C146 H138 0.949 . S
C146 C145 1.428 . S
C146 C147 1.345 . S
C147 H139 0.950 . S
C147 C146 1.345 . S
C147 C148 1.424 . S
C148 H140 0.951 . S
C148 C147 1.424 . S
C148 C149 1.347 . S
C149 H141 0.951 . S
C149 C144 1.429 . S
C149 C148 1.347 . S
H150 C151 0.951 . S
C151 H150 0.951 . S
C151 C157 1.265 . S
H152 C157 0.950 . S
H153 C161 0.949 . S
H154 C162 0.950 . S
H155 C163 0.951 . S
H156 C164 0.951 . S
C157 C151 1.265 . S
C157 H152 0.950 . S
C157 C158 1.478 . S
C158 C157 1.478 . S
C158 C159 1.397 . S
C158 C175 1.394 . S
C159 C158 1.397 . S
C159 C160 1.438 . S
C159 C164 1.429 . S
C160 C159 1.438 . S
C160 C161 1.428 . S
C160 C173 1.394 . S
C161 H153 0.949 . S
C161 C160 1.428 . S
C161 C162 1.345 . S
C162 H154 0.950 . S
C162 C161 1.345 . S
C162 C163 1.424 . S
C163 H155 0.951 . S
C163 C162 1.424 . S
C163 C164 1.347 . S
C164 H156 0.951 . S
C164 C159 1.429 . S
C164 C163 1.347 . S
H165 C166 0.951 . S
C166 H165 0.951 . S
C166 C172 1.265 . S
H167 C172 0.950 . S
H168 C176 0.949 . S
H169 C177 0.950 . S
H170 C178 0.951 . S
H171 C179 0.951 . S
C172 C166 1.265 . S
C172 H167 0.950 . S
C172 C173 1.478 . S
C173 C160 1.394 . S
C173 C172 1.478 . S
C173 C174 1.397 . S
C174 C173 1.397 . S
C174 C175 1.438 . S
C174 C179 1.429 . S
C175 C158 1.394 . S
C175 C174 1.438 . S
C175 C176 1.428 . S
C176 H168 0.949 . S
C176 C175 1.428 . S
C176 C177 1.345 . S
C177 H169 0.950 . S
C177 C176 1.345 . S
C177 C178 1.424 . S
C178 H170 0.951 . S
C178 C177 1.424 . S
C178 C179 1.347 . S
C179 H171 0.951 . S
C179 C174 1.429 . S
C179 C178 1.347 . S
H180 C181 0.951 . S
C181 H180 0.951 . S
C181 C187 1.265 . S
H182 C187 0.950 . S
H183 C191 0.949 . S
H184 C192 0.950 . S
H185 C193 0.951 . S
H186 C194 0.951 . S
C187 C181 1.265 . S
C187 H182 0.950 . S
C187 C188 1.478 . S
C188 C187 1.478 . S
C188 C189 1.397 . S
C188 C205 1.394 . S
C189 C188 1.397 . S
C189 C190 1.438 . S
C189 C194 1.429 . S
C190 C189 1.438 . S
C190 C191 1.428 . S
C190 C203 1.394 . S
C191 H183 0.949 . S
C191 C190 1.428 . S
C191 C192 1.345 . S
C192 H184 0.950 . S
C192 C191 1.345 . S
C192 C193 1.424 . S
C193 H185 0.951 . S
C193 C192 1.424 . S
C193 C194 1.347 . S
C194 H186 0.951 . S
C194 C189 1.429 . S
C194 C193 1.347 . S
H195 C196 0.951 . S
C196 H195 0.951 . S
C196 C202 1.265 . S
H197 C202 0.950 . S
H198 C206 0.949 . S
H199 C207 0.950 . S
H200 C208 0.951 . S
H201 C209 0.951 . S
C202 C196 1.265 . S
C202 H197 0.950 . S
C202 C203 1.478 . S
C203 C190 1.394 . S
C203 C202 1.478 . S
C203 C204 1.397 . S
C204 C203 1.397 . S
C204 C205 1.438 . S
C204 C209 1.429 . S
C205 C188 1.394 . S
C205 C204 1.438 . S
C205 C206 1.428 . S
C206 H198 0.949 . S
C206 C205 1.428 . S
C206 C207 1.345 . S
C207 H199 0.950 . S
C207 C206 1.345 . S
C207 C208 1.424 . S
C208 H200 0.951 . S
C208 C207 1.424 . S
C208 C209 1.347 . S
C209 H201 0.951 . S
C209 C204 1.429 . S
C209 C208 1.347 . S
H210 C211 0.951 . S
C211 H210 0.951 . S
C211 C217 1.265 . S
H212 C217 0.950 . S
H213 C221 0.949 . S
H214 C222 0.950 . S
H215 C223 0.951 . S
H216 C224 0.951 . S
C217 C211 1.265 . S
C217 H212 0.950 . S
C217 C218 1.478 . S
C218 C217 1.478 . S
C218 C219 1.397 . S
C218 C235 1.394 1_556 S
C219 C218 1.397 . S
C219 C220 1.438 . S
C219 C224 1.429 . S
C220 C219 1.438 . S
C220 C221 1.428 . S
C220 C233 1.394 1_556 S
C221 H213 0.949 . S
C221 C220 1.428 . S
C221 C222 1.345 . S
C222 H214 0.950 . S
C222 C221 1.345 . S
C222 C223 1.424 . S
C223 H215 0.951 . S
C223 C222 1.424 . S
C223 C224 1.347 . S
C224 H216 0.951 . S
C224 C219 1.429 . S
C224 C223 1.347 . S
H225 C226 0.951 . S
C226 H225 0.951 . S
C226 C232 1.265 . S
H227 C232 0.950 . S
H228 C236 0.949 . S
H229 C237 0.950 . S
H230 C238 0.951 . S
H231 C239 0.951 . S
C232 C226 1.265 . S
C232 H227 0.950 . S
C232 C233 1.478 . S
C233 C220 1.394 1_554 S
C233 C232 1.478 . S
C233 C234 1.397 . S
C234 C233 1.397 . S
C234 C235 1.438 . S
C234 C239 1.429 . S
C235 C218 1.394 1_554 S
C235 C234 1.438 . S
C235 C236 1.428 . S
C236 H228 0.949 . S
C236 C235 1.428 . S
C236 C237 1.345 . S
C237 H229 0.950 . S
C237 C236 1.345 . S
C237 C238 1.424 . S
C238 H230 0.951 . S
C238 C237 1.424 . S
C238 C239 1.347 . S
C239 H231 0.951 . S
C239 C234 1.429 . S
C239 C238 1.347 . S
H240 C241 0.951 . S
C241 H240 0.951 . S
C241 C247 1.265 . S
H242 C247 0.950 . S
H243 C251 0.949 . S
H244 C252 0.950 1_556 S
H245 C253 0.951 . S
H246 C254 0.951 . S
C247 C241 1.265 . S
C247 H242 0.950 . S
C247 C248 1.478 . S
C248 C247 1.478 . S
C248 C249 1.397 . S
C248 C265 1.394 . S
C249 C248 1.397 . S
C249 C250 1.438 . S
C249 C254 1.429 . S
C250 C249 1.438 . S
C250 C251 1.428 . S
C250 C263 1.394 . S
C251 H243 0.949 . S
C251 C250 1.428 . S
C251 C252 1.345 . S
C252 H244 0.950 1_554 S
C252 C251 1.345 . S
C252 C253 1.424 . S
C253 H245 0.951 . S
C253 C252 1.424 . S
C253 C254 1.347 . S
C254 H246 0.951 . S
C254 C249 1.429 . S
C254 C253 1.347 . S
H255 C256 0.951 . S
C256 H255 0.951 . S
C256 C262 1.265 . S
H257 C262 0.950 . S
H258 C266 0.949 . S
H259 C267 0.950 . S
H260 C268 0.951 . S
H261 C269 0.951 . S
C262 C256 1.265 . S
C262 H257 0.950 . S
C262 C263 1.478 . S
C263 C250 1.394 . S
C263 C262 1.478 . S
C263 C264 1.397 . S
C264 C263 1.397 . S
C264 C265 1.438 . S
C264 C269 1.429 . S
C265 C248 1.394 . S
C265 C264 1.438 . S
C265 C266 1.428 . S
C266 H258 0.949 . S
C266 C265 1.428 . S
C266 C267 1.345 . S
C267 H259 0.950 . S
C267 C266 1.345 . S
C267 C268 1.424 . S
C268 H260 0.951 . S
C268 C267 1.424 . S
C268 C269 1.347 . S
C269 H261 0.951 . S
C269 C264 1.429 . S
C269 C268 1.347 . S
H270 C271 0.951 . S
C271 H270 0.951 . S
C271 C277 1.265 . S
H272 C277 0.950 . S
H273 C281 0.949 . S
H274 C282 0.950 . S
H275 C283 0.951 . S
H276 C284 0.951 . S
C277 C271 1.265 . S
C277 H272 0.950 . S
C277 C278 1.478 . S
C278 C277 1.478 . S
C278 C279 1.397 . S
C278 C295 1.394 . S
C279 C278 1.397 . S
C279 C280 1.438 . S
C279 C284 1.429 . S
C280 C279 1.438 . S
C280 C281 1.428 . S
C280 C293 1.394 . S
C281 H273 0.949 . S
C281 C280 1.428 . S
C281 C282 1.345 . S
C282 H274 0.950 . S
C282 C281 1.345 . S
C282 C283 1.424 . S
C283 H275 0.951 . S
C283 C282 1.424 . S
C283 C284 1.347 . S
C284 H276 0.951 . S
C284 C279 1.429 . S
C284 C283 1.347 . S
H285 C286 0.951 . S
C286 H285 0.951 . S
C286 C292 1.265 . S
H287 C292 0.950 . S
H288 C296 0.949 . S
H289 C297 0.950 . S
H290 C298 0.951 . S
H291 C299 0.951 . S
C292 C286 1.265 . S
C292 H287 0.950 . S
C292 C293 1.478 . S
C293 C280 1.394 . S
C293 C292 1.478 . S
C293 C294 1.397 . S
C294 C293 1.397 . S
C294 C295 1.438 . S
C294 C299 1.429 . S
C295 C278 1.394 . S
C295 C294 1.438 . S
C295 C296 1.428 . S
C296 H288 0.949 . S
C296 C295 1.428 . S
C296 C297 1.345 . S
C297 H289 0.950 . S
C297 C296 1.345 . S
C297 C298 1.424 . S
C298 H290 0.951 . S
C298 C297 1.424 . S
C298 C299 1.347 . S
C299 H291 0.951 . S
C299 C294 1.429 . S
C299 C298 1.347 . S
H300 C301 0.951 1_655 S
C301 H300 0.951 1_455 S
C301 C307 1.265 . S
H302 C307 0.950 . S
H303 C311 0.949 . S
H304 C312 0.950 . S
H305 C313 0.951 . S
H306 C314 0.951 1_455 S
C307 C301 1.265 . S
C307 H302 0.950 . S
C307 C308 1.478 . S
C308 C307 1.478 . S
C308 C309 1.397 . S
C308 C325 1.394 . S
C309 C308 1.397 . S
C309 C310 1.438 . S
C309 C314 1.429 1_455 S
C310 C309 1.438 . S
C310 C311 1.428 1_455 S
C310 C323 1.394 . S
C311 H303 0.949 . S
C311 C310 1.428 1_655 S
C311 C312 1.345 . S
C312 H304 0.950 . S
C312 C311 1.345 . S
C312 C313 1.424 . S
C313 H305 0.951 . S
C313 C312 1.424 . S
C313 C314 1.347 . S
C314 H306 0.951 1_655 S
C314 C309 1.429 1_655 S
C314 C313 1.347 . S
H315 C316 0.951 . S
C316 H315 0.951 . S
C316 C322 1.265 . S
H317 C322 0.950 1_655 S
H318 C326 0.949 . S
H319 C327 0.950 . S
H320 C328 0.951 . S
H321 C329 0.951 . S
C322 C316 1.265 . S
C322 H317 0.950 1_455 S
C322 C323 1.478 . S
C323 C310 1.394 . S
C323 C322 1.478 . S
C323 C324 1.397 . S
C324 C323 1.397 . S
C324 C325 1.438 . S
C324 C329 1.429 . S
C325 C308 1.394 . S
C325 C324 1.438 . S
C325 C326 1.428 . S
C326 H318 0.949 . S
C326 C325 1.428 . S
C326 C327 1.345 . S
C327 H319 0.950 . S
C327 C326 1.345 . S
C327 C328 1.424 . S
C328 H320 0.951 . S
C328 C327 1.424 . S
C328 C329 1.347 . S
C329 H321 0.951 . S
C329 C324 1.429 . S
C329 C328 1.347 . S
H330 C331 0.951 . S
C331 H330 0.951 . S
C331 C337 1.265 . S
H332 C337 0.950 . S
H333 C341 0.949 . S
H334 C342 0.950 . S
H335 C343 0.951 . S
H336 C344 0.951 . S
C337 C331 1.265 . S
C337 H332 0.950 . S
C337 C338 1.478 . S
C338 C337 1.478 . S
C338 C339 1.397 . S
C338 C355 1.394 . S
C339 C338 1.397 . S
C339 C340 1.438 1_554 S
C339 C344 1.429 . S
C340 C339 1.438 1_556 S
C340 C341 1.428 . S
C340 C353 1.394 . S
C341 H333 0.949 . S
C341 C340 1.428 . S
C341 C342 1.345 . S
C342 H334 0.950 . S
C342 C341 1.345 . S
C342 C343 1.424 1_556 S
C343 H335 0.951 . S
C343 C342 1.424 1_554 S
C343 C344 1.347 . S
C344 H336 0.951 . S
C344 C339 1.429 . S
C344 C343 1.347 . S
H345 C346 0.951 . S
C346 H345 0.951 . S
C346 C352 1.265 . S
H347 C352 0.950 . S
H348 C356 0.949 . S
H349 C357 0.950 1_565 S
H350 C358 0.951 1_565 S
H351 C359 0.951 . S
C352 C346 1.265 . S
C352 H347 0.950 . S
C352 C353 1.478 . S
C353 C340 1.394 . S
C353 C352 1.478 . S
C353 C354 1.397 . S
C354 C353 1.397 . S
C354 C355 1.438 1_556 S
C354 C359 1.429 . S
C355 C338 1.394 . S
C355 C354 1.438 1_554 S
C355 C356 1.428 . S
C356 H348 0.949 . S
C356 C355 1.428 . S
C356 C357 1.345 . S
C357 H349 0.950 1_545 S
C357 C356 1.345 . S
C357 C358 1.424 1_554 S
C358 H350 0.951 1_545 S
C358 C357 1.424 1_556 S
C358 C359 1.347 . S
C359 H351 0.951 . S
C359 C354 1.429 . S
C359 C358 1.347 . S
H360 C361 0.951 . S
C361 H360 0.951 . S
C361 C367 1.265 . S
H362 C367 0.950 . S
H363 C371 0.949 . S
H364 C372 0.950 . S
H365 C373 0.951 . S
H366 C374 0.951 . S
C367 C361 1.265 . S
C367 H362 0.950 . S
C367 C368 1.478 . S
C368 C367 1.478 . S
C368 C369 1.397 . S
C368 C385 1.394 . S
C369 C368 1.397 . S
C369 C370 1.438 . S
C369 C374 1.429 . S
C370 C369 1.438 . S
C370 C371 1.428 . S
C370 C383 1.394 . S
C371 H363 0.949 . S
C371 C370 1.428 . S
C371 C372 1.345 . S
C372 H364 0.950 . S
C372 C371 1.345 . S
C372 C373 1.424 . S
C373 H365 0.951 . S
C373 C372 1.424 . S
C373 C374 1.347 . S
C374 H366 0.951 . S
C374 C369 1.429 . S
C374 C373 1.347 . S
H375 C376 0.951 . S
C376 H375 0.951 . S
C376 C382 1.265 . S
H377 C382 0.950 . S
H378 C386 0.949 . S
H379 C387 0.950 . S
H380 C388 0.951 . S
H381 C389 0.951 . S
C382 C376 1.265 . S
C382 H377 0.950 . S
C382 C383 1.478 . S
C383 C370 1.394 . S
C383 C382 1.478 . S
C383 C384 1.397 . S
C384 C383 1.397 . S
C384 C385 1.438 . S
C384 C389 1.429 . S
C385 C368 1.394 . S
C385 C384 1.438 . S
C385 C386 1.428 . S
C386 H378 0.949 . S
C386 C385 1.428 . S
C386 C387 1.345 . S
C387 H379 0.950 . S
C387 C386 1.345 . S
C387 C388 1.424 . S
C388 H380 0.951 . S
C388 C387 1.424 . S
C388 C389 1.347 . S
C389 H381 0.951 . S
C389 C384 1.429 . S
C389 C388 1.347 . S
C121 C6 2.227 . S
C136 C90 2.208 . S
C151 C59 3.005 . S
C166 C19 2.960 . S
C181 C46 1.563 . S
C196 C86 1.567 . S
C211 C99 2.561 . S
C226 C15 2.447 . S
C241 C50 2.686 1_565 S
C256 C10 2.631 . S
C271 C95 1.489 . S
C286 C55 1.485 . S
C301 C18 0.407 . S
C316 C9 0.407 . S
C331 C49 0.392 . S
C346 C58 0.392 . S
C361 C98 0.552 . S
C376 C89 0.552 . S
