# Generated by pormake.
# Topology wjn, (5)-cn, num edge types: 1
# Building blocks:
#     Node 0, Type 0, BuildingBlock: BEQFEK_clean_sbu_0, # of connection points: 5
#     Node 1, Type 0, BuildingBlock: BEQFEK_clean_sbu_0, # of connection points: 5
#     Node 2, Type 0, BuildingBlock: BEQFEK_clean_sbu_0, # of connection points: 5
#     Node 3, Type 0, BuildingBlock: BEQFEK_clean_sbu_0, # of connection points: 5
#     Node 4, Type 0, BuildingBlock: BEQFEK_clean_sbu_0, # of connection points: 5
#     Node 5, Type 0, BuildingBlock: BEQFEK_clean_sbu_0, # of connection points: 5
#     Node 6, Type 0, BuildingBlock: BEQFEK_clean_sbu_0, # of connection points: 5
#     Node 7, Type 0, BuildingBlock: BEQFEK_clean_sbu_0, # of connection points: 5
#     Node 8, Type 0, BuildingBlock: BEQFEK_clean_sbu_0, # of connection points: 5
#     Node 9, Type 0, BuildingBlock: BEQFEK_clean_sbu_0, # of connection points: 5
#     Node 10, Type 0, BuildingBlock: BEQFEK_clean_sbu_0, # of connection points: 5
#     Node 11, Type 0, BuildingBlock: BEQFEK_clean_sbu_0, # of connection points: 5
#     Edge 12, Type (0, 0), BuildingBlock: XIVTED_clean_linker_0, # of connection points: 2
#     Edge 13, Type (0, 0), BuildingBlock: XIVTED_clean_linker_0, # of connection points: 2
#     Edge 14, Type (0, 0), BuildingBlock: XIVTED_clean_linker_0, # of connection points: 2
#     Edge 15, Type (0, 0), BuildingBlock: XIVTED_clean_linker_0, # of connection points: 2
#     Edge 16, Type (0, 0), BuildingBlock: XIVTED_clean_linker_0, # of connection points: 2
#     Edge 17, Type (0, 0), BuildingBlock: XIVTED_clean_linker_0, # of connection points: 2
#     Edge 18, Type (0, 0), BuildingBlock: XIVTED_clean_linker_0, # of connection points: 2
#     Edge 19, Type (0, 0), BuildingBlock: XIVTED_clean_linker_0, # of connection points: 2
#     Edge 20, Type (0, 0), BuildingBlock: XIVTED_clean_linker_0, # of connection points: 2
#     Edge 21, Type (0, 0), BuildingBlock: XIVTED_clean_linker_0, # of connection points: 2
#     Edge 22, Type (0, 0), BuildingBlock: XIVTED_clean_linker_0, # of connection points: 2
#     Edge 23, Type (0, 0), BuildingBlock: XIVTED_clean_linker_0, # of connection points: 2
#     Edge 24, Type (0, 0), BuildingBlock: XIVTED_clean_linker_0, # of connection points: 2
#     Edge 25, Type (0, 0), BuildingBlock: XIVTED_clean_linker_0, # of connection points: 2
#     Edge 26, Type (0, 0), BuildingBlock: XIVTED_clean_linker_0, # of connection points: 2
#     Edge 27, Type (0, 0), BuildingBlock: XIVTED_clean_linker_0, # of connection points: 2
#     Edge 28, Type (0, 0), BuildingBlock: XIVTED_clean_linker_0, # of connection points: 2
#     Edge 29, Type (0, 0), BuildingBlock: XIVTED_clean_linker_0, # of connection points: 2
#     Edge 30, Type (0, 0), BuildingBlock: XIVTED_clean_linker_0, # of connection points: 2
#     Edge 31, Type (0, 0), BuildingBlock: XIVTED_clean_linker_0, # of connection points: 2
#     Edge 32, Type (0, 0), BuildingBlock: XIVTED_clean_linker_0, # of connection points: 2
#     Edge 33, Type (0, 0), BuildingBlock: XIVTED_clean_linker_0, # of connection points: 2
#     Edge 34, Type (0, 0), BuildingBlock: XIVTED_clean_linker_0, # of connection points: 2
#     Edge 35, Type (0, 0), BuildingBlock: XIVTED_clean_linker_0, # of connection points: 2
#     Edge 36, Type (0, 0), BuildingBlock: XIVTED_clean_linker_0, # of connection points: 2
#     Edge 37, Type (0, 0), BuildingBlock: XIVTED_clean_linker_0, # of connection points: 2
#     Edge 38, Type (0, 0), BuildingBlock: XIVTED_clean_linker_0, # of connection points: 2
#     Edge 39, Type (0, 0), BuildingBlock: XIVTED_clean_linker_0, # of connection points: 2
#     Edge 40, Type (0, 0), BuildingBlock: XIVTED_clean_linker_0, # of connection points: 2
#     Edge 41, Type (0, 0), BuildingBlock: XIVTED_clean_linker_0, # of connection points: 2
# Relax obj value: 0.378
# Max RMSD: 0.197
# Mean RMSD: 0.197
data_MOF--net-wjn--node1-BEQFEK_clean_sbu_0--edge1-XIVTED_clean_linker_0
_symmetry_space_group_name_H-M    P1
_symmetry_Int_Tables_number       1
_symmetry_cell_setting            triclinic
loop_
_symmetry_equiv_pos_as_xyz
'x, y, z'
_cell_length_a     35.217978
_cell_length_b     35.229286
_cell_length_c     76.272147
_cell_angle_alpha  90.033335
_cell_angle_beta   89.969073
_cell_angle_gamma 119.92931
loop_
_atom_site_label
_atom_site_type_symbol
_atom_site_fract_x
_atom_site_fract_y
_atom_site_fract_z
_atom_type_partial_charge
Co0 Co 0.1398 0.42195 0.10592 0.0
Co1 Co 0.2155 0.41119 0.12108 0.0
C2 C 0.20471 0.48787 0.1309 0.0
O3 O 0.17222 0.47465 0.1206 0.0
O4 O 0.2246 0.46628 0.13282 0.0
C5 C 0.11061 0.4662 0.0846 0.0
O6 O 0.1522 0.49648 0.08535 0.0
C7 C 0.30724 0.43894 0.12664 0.0
C8 C 0.30676 0.37672 0.13095 0.0
C9 C 0.33438 0.42163 0.12967 0.0
N10 N 0.26558 0.40594 0.12627 0.0
N11 N 0.26539 0.3688 0.12899 0.0
C12 C 0.32062 0.48542 0.12234 0.0
H13 H 0.29565 0.48663 0.11385 0.0
H14 H 0.35287 0.50198 0.11562 0.0
H15 H 0.32323 0.5033 0.13467 0.0
C16 C 0.17368 0.41066 0.0725 0.0
N17 N 0.17587 0.41467 0.09004 0.0
N18 N 0.20981 0.4124 0.09588 0.0
C19 C 0.23132 0.4084 0.08188 0.0
C20 C 0.20898 0.40749 0.0667 0.0
C21 C 0.1369 0.40677 0.06131 0.0
H22 H 0.10537 0.38914 0.06845 0.0
H23 H 0.14353 0.43997 0.05764 0.0
H24 H 0.13398 0.38874 0.049 0.0
O25 O 0.10867 0.36939 0.12028 0.0
O26 O 0.16155 0.36014 0.1318 0.0
H27 H 0.26565 0.37727 0.09186 0.0
H28 H 0.2813 0.39859 0.06982 0.0
C29 C 0.27162 0.40454 0.08294 0.0
H30 H 0.29883 0.4352 0.08845 0.0
H31 H 0.23716 0.33801 0.12906 0.0
O32 O 0.09727 0.43065 0.09297 0.0
C33 C 0.121 0.3481 0.12992 0.0
Co34 Co 0.71421 0.14359 0.43938 0.0
Co35 Co 0.80103 0.218 0.45478 0.0
C36 C 0.71418 0.20929 0.46428 0.0
O37 O 0.69472 0.17683 0.45399 0.0
O38 O 0.75558 0.22851 0.46632 0.0
C39 C 0.64084 0.11633 0.41818 0.0
O40 O 0.65214 0.15785 0.4195 0.0
C41 C 0.86675 0.30917 0.46032 0.0
C42 C 0.92705 0.30643 0.46544 0.0
C43 C 0.91117 0.3352 0.4637 0.0
N44 N 0.85681 0.26708 0.46018 0.0
N45 N 0.8929 0.26555 0.46337 0.0
C46 C 0.83491 0.32388 0.45553 0.0
H47 H 0.80846 0.29904 0.44712 0.0
H48 H 0.85166 0.35577 0.44856 0.0
H49 H 0.81983 0.32782 0.46767 0.0
C50 C 0.76073 0.17603 0.40618 0.0
N51 N 0.75831 0.17891 0.42367 0.0
N52 N 0.79478 0.21229 0.42959 0.0
C53 C 0.82113 0.2328 0.41568 0.0
C54 C 0.8001 0.21019 0.40049 0.0
C55 C 0.72689 0.14008 0.39498 0.0
H56 H 0.7125 0.10836 0.40198 0.0
H57 H 0.70081 0.14776 0.39169 0.0
H58 H 0.74104 0.13681 0.38246 0.0
O59 O 0.73435 0.11129 0.45379 0.0
O60 O 0.79677 0.16334 0.46538 0.0
H61 H 0.88617 0.26551 0.42607 0.0
H62 H 0.88201 0.28113 0.40384 0.0
C63 C 0.86584 0.27218 0.41687 0.0
H64 H 0.86321 0.30014 0.42211 0.0
H65 H 0.89441 0.23672 0.46372 0.0
O66 O 0.66291 0.10222 0.42617 0.0
C67 C 0.76784 0.12299 0.46344 0.0
Co68 Co 0.58507 0.71851 0.7703 0.0
Co69 Co 0.58385 0.79897 0.78652 0.0
C70 C 0.5143 0.70835 0.79563 0.0
O71 O 0.53365 0.69417 0.78582 0.0
O72 O 0.52906 0.74936 0.79726 0.0
C73 C 0.54195 0.64722 0.74858 0.0
O74 O 0.51279 0.66003 0.74967 0.0
C75 C 0.55295 0.86144 0.79308 0.0
C76 C 0.61506 0.92381 0.79639 0.0
C77 C 0.57004 0.90619 0.79555 0.0
N78 N 0.5864 0.85331 0.79212 0.0
N79 N 0.6234 0.89069 0.79429 0.0
C80 C 0.50573 0.82635 0.79251 0.0
H81 H 0.49786 0.81081 0.77936 0.0
H82 H 0.48338 0.839 0.79568 0.0
H83 H 0.49998 0.80069 0.80223 0.0
C84 C 0.59319 0.76456 0.73765 0.0
N85 N 0.58791 0.76102 0.75512 0.0
N86 N 0.58459 0.79414 0.76126 0.0
C87 C 0.58575 0.81899 0.74746 0.0
C88 C 0.59117 0.80067 0.73215 0.0
C89 C 0.60248 0.73536 0.72632 0.0
H90 H 0.62109 0.72295 0.73373 0.0
H91 H 0.57111 0.7075 0.72164 0.0
H92 H 0.62183 0.75311 0.71459 0.0
O93 O 0.63801 0.74293 0.78413 0.0
O94 O 0.63704 0.79879 0.79738 0.0
H95 H 0.5848 0.87433 0.73574 0.0
H96 H 0.55127 0.85187 0.75514 0.0
C97 C 0.58272 0.8597 0.74884 0.0
H98 H 0.6097 0.88383 0.75723 0.0
H99 H 0.65443 0.89375 0.7939 0.0
O100 O 0.578 0.66849 0.75674 0.0
C101 C 0.65466 0.77503 0.79473 0.0
Co102 Co 0.85525 0.57052 0.10527 0.0
Co103 Co 0.78099 0.58449 0.12004 0.0
C104 C 0.78937 0.50639 0.13028 0.0
O105 O 0.82177 0.51833 0.12003 0.0
O106 O 0.77079 0.52927 0.132 0.0
C107 C 0.88272 0.52393 0.08444 0.0
O108 O 0.84096 0.49427 0.08543 0.0
C109 C 0.68925 0.55832 0.12486 0.0
C110 C 0.69084 0.62098 0.12958 0.0
C111 C 0.66256 0.57636 0.12762 0.0
N112 N 0.73119 0.59082 0.12486 0.0
N113 N 0.73202 0.6282 0.1278 0.0
C114 C 0.67607 0.51089 0.12335 0.0
H115 H 0.68909 0.50168 0.13481 0.0
H116 H 0.69096 0.50578 0.11139 0.0
H117 H 0.64015 0.4889 0.1232 0.0
C118 C 0.82285 0.58276 0.07169 0.0
N119 N 0.82007 0.57863 0.08922 0.0
N120 N 0.7869 0.5825 0.09492 0.0
C121 C 0.76649 0.58777 0.08083 0.0
C122 C 0.78879 0.58789 0.06576 0.0
C123 C 0.85906 0.58475 0.06066 0.0
H124 H 0.89064 0.60202 0.06776 0.0
H125 H 0.85139 0.551 0.05739 0.0
H126 H 0.8626 0.60217 0.04813 0.0
O127 O 0.88728 0.62343 0.11946 0.0
O128 O 0.83558 0.63535 0.13046 0.0
H129 H 0.73469 0.62169 0.09058 0.0
H130 H 0.71852 0.6003 0.06857 0.0
C131 C 0.7275 0.59389 0.08174 0.0
H132 H 0.69936 0.56398 0.08729 0.0
H133 H 0.76061 0.65867 0.12831 0.0
O134 O 0.89688 0.56005 0.09249 0.0
C135 C 0.87586 0.64609 0.12873 0.0
Co136 Co 0.28138 0.85825 0.43894 0.0
Co137 Co 0.19441 0.78221 0.45376 0.0
C138 C 0.28193 0.79252 0.46348 0.0
O139 O 0.30155 0.82515 0.45328 0.0
O140 O 0.24049 0.77312 0.46536 0.0
C141 C 0.35552 0.88836 0.41796 0.0
O142 O 0.3451 0.84703 0.41888 0.0
C143 C 0.12968 0.6902 0.45965 0.0
C144 C 0.0679 0.69147 0.46257 0.0
C145 C 0.08481 0.66341 0.46195 0.0
N146 N 0.13865 0.73197 0.45862 0.0
N147 N 0.10165 0.73258 0.4605 0.0
C148 C 0.16431 0.67731 0.45952 0.0
H149 H 0.18401 0.68949 0.44733 0.0
H150 H 0.15071 0.64156 0.46079 0.0
H151 H 0.18663 0.6931 0.47077 0.0
C152 C 0.2362 0.82581 0.40543 0.0
N153 N 0.23797 0.82296 0.42295 0.0
N154 N 0.20193 0.78864 0.42864 0.0
C155 C 0.1768 0.76732 0.41455 0.0
C156 C 0.19792 0.79054 0.39949 0.0
C157 C 0.26989 0.86237 0.39441 0.0
H158 H 0.28357 0.89389 0.40153 0.0
H159 H 0.29646 0.85538 0.39114 0.0
H160 H 0.25583 0.86559 0.38188 0.0
O161 O 0.26007 0.88889 0.45369 0.0
O162 O 0.19712 0.8361 0.46458 0.0
H163 H 0.11054 0.7321 0.42351 0.0
H164 H 0.11918 0.715 0.4022 0.0
C165 C 0.13335 0.72622 0.41546 0.0
H166 H 0.13728 0.70022 0.42195 0.0
H167 H 0.09933 0.76096 0.46007 0.0
O168 O 0.33256 0.90123 0.4261 0.0
C169 C 0.22609 0.87661 0.46311 0.0
Co170 Co 0.40983 0.27704 0.77388 0.0
Co171 Co 0.4088 0.19419 0.78829 0.0
C172 C 0.47662 0.2824 0.80031 0.0
O173 O 0.45799 0.29813 0.79094 0.0
O174 O 0.46289 0.2414 0.80042 0.0
C175 C 0.45688 0.35104 0.75414 0.0
O176 O 0.48564 0.33789 0.75593 0.0
C177 C 0.43793 0.13035 0.79361 0.0
C178 C 0.37541 0.06838 0.79682 0.0
C179 C 0.4204 0.08558 0.79605 0.0
N180 N 0.40487 0.13906 0.79303 0.0
N181 N 0.36759 0.10193 0.7951 0.0
C182 C 0.48475 0.16386 0.79015 0.0
H183 H 0.48674 0.19141 0.78237 0.0
H184 H 0.50173 0.14909 0.78305 0.0
H185 H 0.50167 0.17704 0.80284 0.0
C186 C 0.40652 0.23656 0.74018 0.0
N187 N 0.40951 0.23723 0.75774 0.0
N188 N 0.41097 0.20258 0.7632 0.0
C189 C 0.41041 0.17934 0.74891 0.0
C190 C 0.40797 0.20066 0.73396 0.0
C191 C 0.3985 0.26746 0.7294 0.0
H192 H 0.37896 0.27867 0.73689 0.0
H193 H 0.43036 0.29602 0.72559 0.0
H194 H 0.38061 0.25156 0.71715 0.0
O195 O 0.35458 0.25056 0.78623 0.0
O196 O 0.35487 0.19364 0.79876 0.0
H197 H 0.38379 0.11349 0.75798 0.0
H198 H 0.40722 0.12302 0.73617 0.0
C199 C 0.41084 0.13717 0.74949 0.0
H200 H 0.44218 0.14301 0.75527 0.0
H201 H 0.33676 0.09935 0.79489 0.0
O202 O 0.41955 0.32926 0.76133 0.0
C203 C 0.33714 0.21733 0.79625 0.0
Co204 Co 0.57617 0.85824 0.56318 0.0
Co205 Co 0.58623 0.78108 0.54899 0.0
C206 C 0.5093 0.7912 0.53905 0.0
O207 O 0.52289 0.82446 0.54894 0.0
O208 O 0.53089 0.77126 0.53738 0.0
C209 C 0.53171 0.88651 0.58453 0.0
O210 O 0.50358 0.84424 0.5847 0.0
C211 C 0.55855 0.68873 0.54443 0.0
C212 C 0.62096 0.68931 0.54036 0.0
C213 C 0.57614 0.66153 0.54197 0.0
N214 N 0.59149 0.73048 0.54458 0.0
N215 N 0.62871 0.73068 0.54204 0.0
C216 C 0.5112 0.67621 0.54544 0.0
H217 H 0.50567 0.69122 0.55725 0.0
H218 H 0.48882 0.64036 0.5455 0.0
H219 H 0.50297 0.68955 0.5338 0.0
C220 C 0.59076 0.82816 0.59689 0.0
N221 N 0.58491 0.82392 0.57944 0.0
N222 N 0.58588 0.78893 0.57407 0.0
C223 C 0.59015 0.76844 0.58835 0.0
C224 C 0.59348 0.79298 0.60317 0.0
C225 C 0.59562 0.86617 0.60751 0.0
H226 H 0.61149 0.89665 0.59965 0.0
H227 H 0.56286 0.8594 0.61197 0.0
H228 H 0.61578 0.87126 0.61937 0.0
O229 O 0.62801 0.88831 0.54844 0.0
O230 O 0.63697 0.83447 0.5377 0.0
H231 H 0.61952 0.73162 0.57933 0.0
H232 H 0.59653 0.71722 0.60118 0.0
C233 C 0.59201 0.72701 0.58785 0.0
H234 H 0.56121 0.70049 0.58212 0.0
H235 H 0.65943 0.75899 0.54171 0.0
O236 O 0.56667 0.90095 0.57561 0.0
C237 C 0.64902 0.87516 0.53904 0.0
Co238 Co 0.72183 0.58913 0.89823 0.0
Co239 Co 0.80245 0.58727 0.88266 0.0
C240 C 0.71257 0.5158 0.8744 0.0
O241 O 0.69844 0.53605 0.88369 0.0
O242 O 0.75361 0.53088 0.8726 0.0
C243 C 0.65103 0.5461 0.92005 0.0
O244 O 0.66562 0.51828 0.91958 0.0
C245 C 0.86524 0.55671 0.87727 0.0
C246 C 0.92703 0.61835 0.87235 0.0
C247 C 0.90968 0.57351 0.87413 0.0
N248 N 0.85685 0.59001 0.87728 0.0
N249 N 0.89387 0.62673 0.87419 0.0
C250 C 0.83195 0.51057 0.8819 0.0
H251 H 0.80554 0.50995 0.89005 0.0
H252 H 0.84739 0.49437 0.88908 0.0
H253 H 0.81706 0.49194 0.86968 0.0
C254 C 0.76886 0.60197 0.93099 0.0
N255 N 0.76511 0.59478 0.91364 0.0
N256 N 0.79801 0.59057 0.90787 0.0
C257 C 0.82275 0.59277 0.92188 0.0
C258 C 0.80485 0.60021 0.93689 0.0
C259 C 0.73909 0.61141 0.94188 0.0
H260 H 0.72573 0.62843 0.93398 0.0
H261 H 0.71187 0.58022 0.94703 0.0
H262 H 0.75673 0.63232 0.9533 0.0
O263 O 0.7451 0.64046 0.88354 0.0
O264 O 0.80121 0.63891 0.87075 0.0
H265 H 0.88657 0.61291 0.91168 0.0
H266 H 0.87842 0.59343 0.93409 0.0
C267 C 0.86282 0.58846 0.92101 0.0
H268 H 0.85378 0.55539 0.9161 0.0
H269 H 0.8967 0.65765 0.87381 0.0
O270 O 0.67121 0.5817 0.91152 0.0
C271 C 0.77709 0.65635 0.87287 0.0
Co272 Co 0.13498 0.71786 0.23052 0.0
Co273 Co 0.21486 0.80261 0.21612 0.0
C274 C 0.20163 0.714 0.20717 0.0
O275 O 0.16779 0.69584 0.21685 0.0
O276 O 0.22308 0.7554 0.20529 0.0
C277 C 0.10357 0.64578 0.25237 0.0
O278 O 0.14542 0.65791 0.25259 0.0
C279 C 0.30794 0.86528 0.21086 0.0
C280 C 0.30899 0.92825 0.20824 0.0
C281 C 0.33594 0.91005 0.20893 0.0
N282 N 0.26653 0.85757 0.21163 0.0
N283 N 0.26734 0.8953 0.20992 0.0
C284 C 0.31946 0.82967 0.21092 0.0
H285 H 0.30338 0.80771 0.19959 0.0
H286 H 0.30665 0.80985 0.22304 0.0
H287 H 0.35511 0.84237 0.20972 0.0
C288 C 0.16556 0.7638 0.26399 0.0
N289 N 0.16986 0.76122 0.24659 0.0
N290 N 0.20623 0.79558 0.24119 0.0
C291 C 0.22769 0.81989 0.25543 0.0
C292 C 0.20219 0.80047 0.27025 0.0
C293 C 0.12676 0.73208 0.27461 0.0
H294 H 0.0965 0.71814 0.26663 0.0
H295 H 0.13224 0.70552 0.27943 0.0
H296 H 0.12202 0.74813 0.28623 0.0
O297 O 0.1068 0.74039 0.21515 0.0
O298 O 0.16259 0.80136 0.20419 0.0
H299 H 0.26883 0.88584 0.24695 0.0
H300 H 0.28283 0.87399 0.26829 0.0
C301 C 0.27132 0.86085 0.25491 0.0
H302 H 0.29553 0.85394 0.24853 0.0
H303 H 0.23953 0.89865 0.21025 0.0
O304 O 0.09061 0.66718 0.24319 0.0
C305 C 0.12149 0.7741 0.20542 0.0
Co306 Co 0.41848 0.13855 0.56518 0.0
Co307 Co 0.40771 0.21461 0.55049 0.0
C308 C 0.48535 0.2052 0.54089 0.0
O309 O 0.4718 0.17215 0.5509 0.0
O310 O 0.46356 0.2249 0.53901 0.0
C311 C 0.46251 0.10846 0.58622 0.0
O312 O 0.49278 0.15008 0.58581 0.0
C313 C 0.43466 0.30637 0.54525 0.0
C314 C 0.372 0.30517 0.54115 0.0
C315 C 0.41687 0.33316 0.54236 0.0
N316 N 0.40195 0.26456 0.54561 0.0
N317 N 0.36455 0.26396 0.54302 0.0
C318 C 0.48133 0.32017 0.5494 0.0
H319 H 0.48295 0.2955 0.55792 0.0
H320 H 0.49785 0.35255 0.55601 0.0
H321 H 0.49897 0.32266 0.53701 0.0
C322 C 0.40462 0.16997 0.59875 0.0
N323 N 0.40986 0.17336 0.58126 0.0
N324 N 0.40803 0.2077 0.57564 0.0
C325 C 0.40349 0.2285 0.58977 0.0
C326 C 0.40107 0.20492 0.60478 0.0
C327 C 0.40174 0.13323 0.60966 0.0
H328 H 0.38459 0.10194 0.60236 0.0
H329 H 0.43525 0.14048 0.61316 0.0
H330 H 0.38378 0.12938 0.62207 0.0
O331 O 0.36649 0.1078 0.55055 0.0
O332 O 0.35704 0.16085 0.53937 0.0
H333 H 0.37327 0.26401 0.58016 0.0
H334 H 0.39499 0.27893 0.60217 0.0
C335 C 0.40052 0.26931 0.58897 0.0
H336 H 0.43134 0.29626 0.58344 0.0
H337 H 0.3339 0.23554 0.54296 0.0
O338 O 0.42707 0.09555 0.57782 0.0
C339 C 0.34518 0.12029 0.54102 0.0
Co340 Co 0.27613 0.40455 0.89751 0.0
Co341 Co 0.19486 0.40749 0.88317 0.0
C342 C 0.28419 0.47432 0.87194 0.0
O343 O 0.29869 0.45427 0.88113 0.0
O344 O 0.24339 0.46151 0.87162 0.0
C345 C 0.34926 0.44997 0.91762 0.0
O346 O 0.33497 0.47794 0.91643 0.0
C347 C 0.13205 0.4386 0.87746 0.0
C348 C 0.069 0.3765 0.87609 0.0
C349 C 0.08704 0.42161 0.87596 0.0
N350 N 0.13997 0.40505 0.87877 0.0
N351 N 0.10215 0.36805 0.87779 0.0
C352 C 0.16746 0.48566 0.8767 0.0
H353 H 0.19139 0.48968 0.86641 0.0
H354 H 0.18513 0.49525 0.88941 0.0
H355 H 0.15461 0.5078 0.87349 0.0
C356 C 0.23418 0.39839 0.93111 0.0
N357 N 0.23592 0.40338 0.91362 0.0
N358 N 0.20283 0.40774 0.90826 0.0
C359 C 0.18004 0.40784 0.92258 0.0
C360 C 0.19934 0.40172 0.93744 0.0
C361 C 0.26442 0.38899 0.94169 0.0
H362 H 0.27592 0.37025 0.93382 0.0
H363 H 0.29287 0.42033 0.94605 0.0
H364 H 0.24795 0.36978 0.95361 0.0
O365 O 0.24913 0.35059 0.88436 0.0
O366 O 0.19331 0.35359 0.87202 0.0
H367 H 0.12829 0.41319 0.93551 0.0
H368 H 0.14791 0.44322 0.91513 0.0
C369 C 0.14019 0.41257 0.92209 0.0
H370 H 0.11392 0.38475 0.91469 0.0
H371 H 0.09888 0.33699 0.87865 0.0
O372 O 0.32807 0.41304 0.91006 0.0
C373 C 0.21614 0.33475 0.8742 0.0
Co374 Co 0.85505 0.28363 0.23171 0.0
Co375 Co 0.78142 0.1949 0.21732 0.0
C376 C 0.78747 0.28017 0.20707 0.0
O377 O 0.82012 0.30094 0.21714 0.0
O378 O 0.76927 0.23876 0.20539 0.0
C379 C 0.8801 0.35707 0.25243 0.0
O380 O 0.83789 0.34313 0.25155 0.0
C381 C 0.69043 0.12867 0.21219 0.0
C382 C 0.69303 0.06813 0.20756 0.0
C383 C 0.66434 0.08421 0.20897 0.0
N384 N 0.7325 0.13851 0.21251 0.0
N385 N 0.73395 0.10226 0.20965 0.0
C386 C 0.67576 0.16078 0.21658 0.0
H387 H 0.70013 0.18703 0.2252 0.0
H388 H 0.64337 0.14427 0.22319 0.0
H389 H 0.67294 0.17608 0.20431 0.0
C390 C 0.82471 0.23911 0.26541 0.0
N391 N 0.82121 0.24016 0.2479 0.0
N392 N 0.78806 0.20295 0.2424 0.0
C393 C 0.76835 0.17748 0.25661 0.0
C394 C 0.79111 0.19998 0.27155 0.0
C395 C 0.86117 0.27361 0.27622 0.0
H396 H 0.89236 0.28853 0.2688 0.0
H397 H 0.85298 0.29917 0.27982 0.0
H398 H 0.86573 0.25973 0.28856 0.0
O399 O 0.88764 0.26398 0.21717 0.0
O400 O 0.83627 0.1999 0.20651 0.0
H401 H 0.73636 0.1117 0.24703 0.0
H402 H 0.7209 0.11728 0.26914 0.0
C403 C 0.72939 0.13241 0.25592 0.0
H404 H 0.70104 0.13407 0.25051 0.0
H405 H 0.76276 0.10067 0.20944 0.0
O406 O 0.89571 0.33636 0.24438 0.0
C407 C 0.87641 0.22997 0.20788 0.0
H408 H 0.60555 0.51457 0.10463 0.0
H409 H 0.39027 0.49926 0.14586 0.0
H410 H 0.60981 0.59009 0.14984 0.0
H411 H 0.38824 0.39646 0.11445 0.0
H412 H 0.47058 0.53823 0.14523 0.0
H413 H 0.52553 0.47623 0.10561 0.0
C414 C 0.58957 0.52244 0.11498 0.0
C415 C 0.61418 0.55414 0.12765 0.0
C416 C 0.45253 0.50714 0.13849 0.0
C417 C 0.52273 0.51189 0.12837 0.0
C418 C 0.40679 0.48509 0.13874 0.0
C419 C 0.38276 0.44494 0.12999 0.0
C420 C 0.47427 0.48906 0.12928 0.0
C421 C 0.40565 0.42741 0.12133 0.0
C422 C 0.54393 0.50087 0.11543 0.0
C423 C 0.59189 0.56518 0.14006 0.0
N424 N 0.45017 0.44976 0.12106 0.0
N425 N 0.54732 0.54395 0.14016 0.0
H426 H 0.01573 0.6126 0.48333 0.0
H427 H 0.99221 0.38677 0.44975 0.0
H428 H 0.09302 0.60439 0.44121 0.0
H429 H 0.8905 0.3933 0.47876 0.0
H430 H 0.03476 0.46694 0.44948 0.0
H431 H 0.97315 0.53227 0.48431 0.0
C432 C 0.02394 0.59384 0.47441 0.0
C433 C 0.05894 0.61505 0.46262 0.0
C434 C 0.00305 0.45083 0.45584 0.0
C435 C 0.01052 0.52355 0.46359 0.0
C436 C 0.97891 0.40515 0.45608 0.0
C437 C 0.93752 0.38353 0.46402 0.0
C438 C 0.98596 0.47501 0.46388 0.0
C439 C 0.92182 0.40878 0.47212 0.0
C440 C -0.00031 0.54812 0.47496 0.0
C441 C 0.0677 0.58934 0.45108 0.0
N442 N 0.94609 0.45325 0.47187 0.0
N443 N 0.04391 0.54495 0.45195 0.0
H444 H 0.49882 0.10656 0.81173 0.0
H445 H 0.50124 0.89516 0.77503 0.0
H446 H 0.39319 0.00545 0.78156 0.0
H447 H 0.58865 0.97747 0.81568 0.0
H448 H 0.46431 0.93821 0.77564 0.0
H449 H 0.53561 0.06311 0.81164 0.0
C450 C 0.48362 0.07547 0.80491 0.0
C451 C 0.44326 0.0599 0.79638 0.0
C452 C 0.49124 0.94659 0.78458 0.0
C453 C 0.4848 0.00975 0.79644 0.0
C454 C 0.512 0.92166 0.78439 0.0
C455 C 0.54696 0.93169 0.79583 0.0
C456 C 0.50611 0.98249 0.79602 0.0
C457 C 0.56131 0.96819 0.80687 0.0
C458 C 0.50443 0.05049 0.80501 0.0
C459 C 0.42436 0.01872 0.78825 0.0
N460 N 0.54078 0.99224 0.80673 0.0
N461 N 0.44541 0.99521 0.78838 0.0
H462 H 0.5904 0.60879 0.52001 0.0
H463 H 0.39092 0.3866 0.55738 0.0
H464 H 0.51234 0.60444 0.56434 0.0
H465 H 0.49414 0.38942 0.52599 0.0
H466 H 0.43004 0.46685 0.55732 0.0
H467 H 0.55168 0.52839 0.51972 0.0
C468 C 0.56488 0.59085 0.52959 0.0
C469 C 0.55337 0.61314 0.5418 0.0
C470 C 0.44422 0.4499 0.5505 0.0
C471 C 0.50919 0.52159 0.5416 0.0
C472 C 0.42181 0.40419 0.55046 0.0
C473 C 0.43974 0.38152 0.54192 0.0
C474 C 0.48445 0.47304 0.54166 0.0
C475 C 0.47974 0.40575 0.53307 0.0
C476 C 0.54285 0.54509 0.52942 0.0
C477 C 0.52073 0.58849 0.55416 0.0
N478 N 0.50076 0.45026 0.53313 0.0
N479 N 0.49951 0.54403 0.55365 0.0
H480 H 0.88649 0.49277 0.86017 0.0
H481 H 0.10122 0.49382 0.89494 0.0
H482 H 0.99129 0.60217 0.8874 0.0
H483 H 0.0134 0.4005 0.85702 0.0
H484 H 0.05862 0.53124 0.89401 0.0
H485 H 0.92941 0.45544 0.86064 0.0
C486 C 0.9183 0.50871 0.86643 0.0
C487 C 0.93506 0.55031 0.87403 0.0
C488 C 0.04891 0.50287 0.88574 0.0
C489 C 0.98462 0.50811 0.8744 0.0
C490 C 0.07357 0.4818 0.8861 0.0
C491 C 0.06184 0.445 0.87551 0.0
C492 C 0.01163 0.48651 0.87499 0.0
C493 C 0.02399 0.42923 0.86516 0.0
C494 C 0.94297 0.48757 0.86655 0.0
C495 C 0.9771 0.57004 0.88144 0.0
N496 N 0.00027 0.45011 0.86512 0.0
N497 N 0.0003 0.54868 0.88155 0.0
H498 H 0.39244 0.89862 0.23 0.0
H499 H 0.60816 0.10567 0.1928 0.0
H500 H 0.38949 0.97985 0.18837 0.0
H501 H 0.61082 0.00334 0.22281 0.0
H502 H 0.52803 0.06322 0.19263 0.0
H503 H 0.47248 0.93966 0.22921 0.0
C504 C 0.40869 0.92449 0.22041 0.0
C505 C 0.38439 0.93477 0.20873 0.0
C506 C 0.54612 0.05004 0.19925 0.0
C507 C 0.47596 0.9832 0.20832 0.0
C508 C 0.59181 0.0744 0.19948 0.0
C509 C 0.61601 0.05828 0.20811 0.0
C510 C 0.52449 0.00936 0.20782 0.0
C511 C 0.59329 0.01698 0.21608 0.0
C512 C 0.45437 0.94822 0.2201 0.0
C513 C 0.4071 0.97043 0.19738 0.0
N514 N 0.54875 0.99407 0.21587 0.0
N515 N 0.45166 0.99335 0.19741 0.0
H516 H 0.86894 0.44572 0.0714 0.0
H517 H 0.1233 0.5427 0.07014 0.0
H518 H 0.96579 0.58309 0.07439 0.0
H519 H 0.02685 0.40581 0.07583 0.0
H520 H 0.06602 0.55645 0.0593 0.0
H521 H 0.92541 0.43058 0.06064 0.0
C522 C 0.90189 0.47277 0.06947 0.0
C523 C 0.91335 0.51539 0.07452 0.0
C524 C 0.05761 0.52323 0.06255 0.0
C525 C 0.97772 0.49844 0.06235 0.0
C526 C 0.09024 0.51542 0.06879 0.0
C527 C 0.07922 0.47347 0.07462 0.0
C528 C 0.01391 0.48887 0.06237 0.0
C529 C 0.03628 0.43904 0.07214 0.0
C530 C 0.93405 0.46417 0.06328 0.0
C531 C 0.9561 0.54945 0.07131 0.0
N532 N 0.00488 0.44767 0.06656 0.0
N533 N 0.98706 0.54011 0.06579 0.0
H534 H 0.62092 0.03601 0.40582 0.0
H535 H 0.37515 0.96991 0.40726 0.0
H536 H 0.57327 0.12753 0.40721 0.0
H537 H 0.42295 0.87851 0.40567 0.0
H538 H 0.44584 0.02728 0.39658 0.0
H539 H 0.54983 0.97965 0.39503 0.0
C540 C 0.59558 0.04436 0.4036 0.0
C541 C 0.60207 0.08574 0.40811 0.0
C542 C 0.44068 0.9945 0.3982 0.0
C543 C 0.52077 0.02153 0.39602 0.0
C544 C 0.40042 0.96182 0.40442 0.0
C545 C 0.39411 0.92006 0.40807 0.0
C546 C 0.47495 0.98543 0.39604 0.0
C547 C 0.42711 0.91075 0.40354 0.0
C548 C 0.55509 0.01227 0.39733 0.0
C549 C 0.56898 0.09551 0.40437 0.0
N550 N 0.46667 0.94358 0.39818 0.0
N551 N 0.52919 0.06317 0.39898 0.0
H552 H 0.40166 0.37959 0.74323 0.0
H553 H 0.59785 0.61778 0.73973 0.0
H554 H 0.5374 0.41295 0.74228 0.0
H555 H 0.46218 0.58404 0.73657 0.0
H556 H 0.57694 0.54316 0.73133 0.0
H557 H 0.42278 0.45201 0.73178 0.0
C558 C 0.43589 0.40205 0.7404 0.0
C559 C 0.46811 0.39111 0.74434 0.0
C560 C 0.55178 0.55223 0.7321 0.0
C561 C 0.49253 0.47391 0.7314 0.0
C562 C 0.56371 0.59479 0.73697 0.0
C563 C 0.53139 0.60635 0.73954 0.0
C564 C 0.50719 0.52103 0.73021 0.0
C565 C 0.48794 0.57595 0.73524 0.0
C566 C 0.44792 0.44328 0.73375 0.0
C567 C 0.51171 0.42067 0.73989 0.0
N568 N 0.47689 0.5342 0.73122 0.0
N569 N 0.52283 0.46124 0.73404 0.0
H570 H 0.45751 0.86848 0.60275 0.0
H571 H 0.40233 0.02407 0.5941 0.0
H572 H 0.58597 0.97417 0.58889 0.0
H573 H 0.53917 0.12026 0.60014 0.0
H574 H 0.4176 0.96755 0.60355 0.0
H575 H 0.43882 0.92203 0.6139 0.0
C576 C 0.48183 0.90296 0.60214 0.0
C577 C 0.52256 0.91717 0.59412 0.0
C578 C 0.44427 0.00104 0.6035 0.0
C579 C 0.50107 0.97845 0.60625 0.0
C580 C 0.43555 0.03338 0.59782 0.0
C581 C 0.4699 0.07648 0.59567 0.0
C582 C 0.48781 0.01198 0.60684 0.0
C583 C 0.51198 0.08709 0.60115 0.0
C584 C 0.47107 0.93357 0.60841 0.0
C585 C 0.5535 0.96195 0.59431 0.0
N586 N 0.52 0.05476 0.60605 0.0
N587 N 0.54178 0.99109 0.59992 0.0
H588 H 0.38269 0.39725 0.92627 0.0
H589 H 0.61749 0.59933 0.92754 0.0
H590 H 0.40956 0.53072 0.92981 0.0
H591 H 0.5903 0.46604 0.93271 0.0
H592 H 0.54221 0.57566 0.93599 0.0
H593 H 0.45711 0.4212 0.93608 0.0
C594 C 0.40412 0.43153 0.92935 0.0
C595 C 0.39065 0.46236 0.92663 0.0
C596 C 0.55287 0.55167 0.93565 0.0
C597 C 0.47573 0.49005 0.93769 0.0
C598 C 0.59581 0.56517 0.93074 0.0
C599 C 0.60947 0.53425 0.92881 0.0
C600 C 0.52338 0.50687 0.93823 0.0
C601 C 0.58063 0.49072 0.9336 0.0
C602 C 0.44654 0.44519 0.93506 0.0
C603 C 0.41913 0.50608 0.93129 0.0
N604 N 0.53849 0.47806 0.93767 0.0
N605 N 0.46078 0.51885 0.93621 0.0
H606 H 0.11677 0.58407 0.26852 0.0
H607 H 0.86315 0.42023 0.26447 0.0
H608 H 0.01791 0.61983 0.25879 0.0
H609 H 0.96361 0.38415 0.26293 0.0
H610 H 0.91757 0.49301 0.27489 0.0
H611 H 0.05972 0.51263 0.279 0.0
C612 C 0.08317 0.57719 0.2689 0.0
C613 C 0.07161 0.60694 0.26208 0.0
C614 C 0.92743 0.46878 0.27266 0.0
C615 C 0.0066 0.52577 0.27396 0.0
C616 C 0.89646 0.42736 0.26667 0.0
C617 C 0.90953 0.39704 0.26214 0.0
C618 C 0.9715 0.47963 0.27398 0.0
C619 C 0.95269 0.40736 0.26563 0.0
C620 C 0.05068 0.53652 0.27494 0.0
C621 C 0.02789 0.597 0.26332 0.0
N622 N 0.98245 0.44821 0.27101 0.0
N623 N 0.99673 0.55678 0.26876 0.0
H624 H 0.18958 0.63384 0.2164 0.0
H625 H 0.20226 0.56107 0.12129 0.0
H626 H 0.23998 0.72923 0.17472 0.0
H627 H 0.23295 0.50355 0.16501 0.0
H628 H 0.21168 0.62125 0.14033 0.0
H629 H 0.20078 0.58326 0.19793 0.0
C630 C 0.20352 0.64432 0.20343 0.0
C631 C 0.21377 0.68574 0.19705 0.0
C632 C 0.21709 0.59586 0.14567 0.0
C633 C 0.22565 0.62769 0.17576 0.0
C634 C 0.21163 0.5615 0.13485 0.0
C635 C 0.21685 0.52734 0.14161 0.0
C636 C 0.22646 0.59535 0.16352 0.0
C637 C 0.22889 0.52941 0.15928 0.0
C638 C 0.21003 0.61552 0.19295 0.0
C639 C 0.23178 0.69766 0.18016 0.0
N640 N 0.2324 0.56238 0.16974 0.0
N641 N 0.23633 0.66843 0.16995 0.0
H642 H 0.63816 0.20614 0.45465 0.0
H643 H 0.5567 0.19888 0.55025 0.0
H644 H 0.7275 0.23971 0.49813 0.0
H645 H 0.50505 0.24027 0.50776 0.0
H646 H 0.61834 0.21093 0.53157 0.0
H647 H 0.58749 0.21595 0.47358 0.0
C648 C 0.64739 0.21625 0.46813 0.0
C649 C 0.68704 0.22206 0.47486 0.0
C650 C 0.59392 0.21808 0.52643 0.0
C651 C 0.62871 0.2322 0.49668 0.0
C652 C 0.55868 0.21109 0.53705 0.0
C653 C 0.52565 0.21847 0.53052 0.0
C654 C 0.59554 0.23133 0.50897 0.0
C655 C 0.52988 0.23432 0.51332 0.0
C656 C 0.61851 0.22194 0.4789 0.0
C657 C 0.69736 0.23511 0.49242 0.0
N658 N 0.56371 0.23937 0.50301 0.0
N659 N 0.66794 0.23886 0.50284 0.0
H660 H 0.45681 0.72071 0.81677 0.0
H661 H 0.36362 0.48899 0.86113 0.0
H662 H 0.48418 0.62093 0.79822 0.0
H663 H 0.27761 0.54298 0.85701 0.0
H664 H 0.41618 0.54698 0.84234 0.0
H665 H 0.39725 0.66479 0.83513 0.0
C666 C 0.45025 0.68725 0.81644 0.0
C667 C 0.47594 0.67575 0.80599 0.0
C668 C 0.38584 0.54627 0.84552 0.0
C669 C 0.40873 0.61234 0.82703 0.0
C670 C 0.35577 0.51322 0.85636 0.0
C671 C 0.3159 0.51089 0.86067 0.0
C672 C 0.37676 0.57809 0.83902 0.0
C673 C 0.30781 0.54339 0.85392 0.0
C674 C 0.41624 0.65545 0.82685 0.0
C675 C 0.46572 0.63174 0.80606 0.0
N676 N 0.3382 0.57599 0.84348 0.0
N677 N 0.43348 0.60203 0.81653 0.0
H678 H 0.75482 0.48958 0.1635 0.0
H679 H 0.75513 0.2634 0.17351 0.0
H680 H 0.79359 0.43338 0.12176 0.0
H681 H 0.78932 0.35608 0.21584 0.0
H682 H 0.74498 0.31372 0.15429 0.0
H683 H 0.74339 0.42849 0.18261 0.0
C684 C 0.75998 0.46392 0.15825 0.0
C685 C 0.77556 0.4667 0.14109 0.0
C686 C 0.75392 0.32253 0.16788 0.0
C687 C 0.76204 0.3968 0.16271 0.0
C688 C 0.75942 0.29379 0.17886 0.0
C689 C 0.7734 0.30581 0.19623 0.0
C690 C 0.76148 0.363 0.17446 0.0
C691 C 0.77888 0.34577 0.20247 0.0
C692 C 0.75369 0.4293 0.16916 0.0
C693 C 0.78198 0.43269 0.13497 0.0
N694 N 0.77302 0.37299 0.19159 0.0
N695 N 0.77528 0.3992 0.14577 0.0
H696 H 0.26573 0.75851 0.49675 0.0
H697 H 0.49156 0.75755 0.50573 0.0
H698 H 0.35962 0.7981 0.45461 0.0
H699 H 0.43725 0.79673 0.54804 0.0
H700 H 0.43078 0.74804 0.48684 0.0
H701 H 0.31654 0.74821 0.51561 0.0
C702 C 0.29656 0.76409 0.49136 0.0
C703 C 0.30869 0.77951 0.47415 0.0
C704 C 0.43191 0.75798 0.50036 0.0
C705 C 0.36635 0.76723 0.49549 0.0
C706 C 0.46633 0.76314 0.51115 0.0
C707 C 0.46952 0.77824 0.52841 0.0
C708 C 0.40001 0.76692 0.50705 0.0
C709 C 0.43614 0.78537 0.53475 0.0
C710 C 0.32554 0.75845 0.50214 0.0
C711 C 0.3492 0.78653 0.46785 0.0
N712 N 0.40278 0.77969 0.52408 0.0
N713 N 0.3766 0.78037 0.47852 0.0
H714 H 0.72557 0.46148 0.85159 0.0
H715 H 0.48522 0.35601 0.8149 0.0
H716 H 0.6239 0.47842 0.87564 0.0
H717 H 0.54939 0.27899 0.81251 0.0
H718 H 0.54344 0.40845 0.83368 0.0
H719 H 0.66863 0.39998 0.8343 0.0
C720 C 0.6915 0.45216 0.85338 0.0
C721 C 0.67974 0.47574 0.86495 0.0
C722 C 0.54489 0.38006 0.82913 0.0
C723 C 0.61508 0.40621 0.84518 0.0
C724 C 0.51172 0.35013 0.81831 0.0
C725 C 0.51237 0.31298 0.81211 0.0
C726 C 0.57985 0.37365 0.83367 0.0
C727 C 0.54757 0.30712 0.81711 0.0
C728 C 0.65914 0.41707 0.84356 0.0
C729 C 0.63497 0.46192 0.86678 0.0
N730 N 0.58035 0.33749 0.8275 0.0
N731 N 0.60461 0.42868 0.85688 0.0
H732 H 0.22713 0.47357 0.9578 0.0
H733 H 0.18529 0.33565 0.04641 0.0
H734 H 0.15633 0.3327 0.95955 0.0
H735 H 0.2498 0.47637 0.04478 0.0
H736 H 0.17813 0.33367 0.01435 0.0
H737 H 0.23472 0.47543 0.98977 0.0
C738 C 0.21167 0.44308 0.96507 0.0
C739 C 0.19028 0.40297 0.95621 0.0
C740 C 0.19471 0.36507 0.02094 0.0
C741 C 0.20076 0.40453 0.99256 0.0
C742 C 0.19964 0.36615 0.03916 0.0
C743 C 0.21916 0.40626 0.04806 0.0
C744 C 0.20903 0.40443 0.01167 0.0
C745 C 0.23557 0.4449 0.03826 0.0
C746 C 0.21674 0.44405 0.98325 0.0
C747 C 0.17216 0.36424 0.96605 0.0
N748 N 0.22982 0.44305 0.0206 0.0
N749 N 0.1782 0.36593 0.9837 0.0
H750 H 0.81869 0.15503 0.29194 0.0
H751 H 0.78207 0.25998 0.37909 0.0
H752 H 0.74924 0.22664 0.29353 0.0
H753 H 0.8396 0.17717 0.37977 0.0
H754 H 0.77578 0.25293 0.34717 0.0
H755 H 0.82743 0.1622 0.32395 0.0
C756 C 0.80363 0.17055 0.29918 0.0
C757 C 0.78221 0.18927 0.29029 0.0
C758 C 0.79065 0.23696 0.3542 0.0
C759 C 0.7942 0.19995 0.32655 0.0
C760 C 0.79513 0.24186 0.37236 0.0
C761 C 0.81225 0.21993 0.38191 0.0
C762 C 0.80299 0.2095 0.34557 0.0
C763 C 0.82721 0.19542 0.37273 0.0
C764 C 0.80941 0.17551 0.31736 0.0
C765 C 0.76494 0.2108 0.30006 0.0
N766 N 0.82182 0.19044 0.35505 0.0
N767 N 0.77167 0.21593 0.31764 0.0
H768 H 0.52375 0.74431 0.62397 0.0
H769 H 0.66113 0.85278 0.71163 0.0
H770 H 0.66411 0.82571 0.62481 0.0
H771 H 0.52119 0.76829 0.71062 0.0
H772 H 0.66285 0.84697 0.67961 0.0
H773 H 0.52228 0.75122 0.65588 0.0
C774 C 0.55441 0.76213 0.63104 0.0
C775 C 0.59417 0.78367 0.62194 0.0
C776 C 0.6316 0.83047 0.68632 0.0
C777 C 0.5928 0.79389 0.65821 0.0
C778 C 0.63058 0.83466 0.70452 0.0
C779 C 0.59084 0.81183 0.71359 0.0
C780 C 0.5926 0.80286 0.67725 0.0
C781 C 0.55229 0.7872 0.70396 0.0
C782 C 0.55357 0.7669 0.64918 0.0
C783 C 0.63295 0.80779 0.63152 0.0
N784 N 0.55414 0.78298 0.68632 0.0
N785 N 0.6313 0.81267 0.64914 0.0
H786 H 0.85099 0.66943 0.95862 0.0
H787 H 0.74279 0.52046 0.04368 0.0
H788 H 0.77522 0.52867 0.95745 0.0
H789 H 0.82008 0.66107 0.04563 0.0
H790 H 0.75158 0.52322 0.0118 0.0
H791 H 0.84261 0.66756 0.9906 0.0
C792 C 0.83425 0.63809 0.96525 0.0
C793 C 0.81461 0.5991 0.95557 0.0
C794 C 0.7659 0.55363 0.0191 0.0
C795 C 0.80269 0.59658 0.99185 0.0
C796 C 0.76002 0.55203 0.03722 0.0
C797 C 0.77982 0.59065 0.04711 0.0
C798 C 0.79231 0.59418 0.01085 0.0
C799 C 0.80337 0.63072 0.03832 0.0
C800 C 0.8286 0.63699 0.98342 0.0
C801 C 0.79168 0.55932 0.96458 0.0
N802 N 0.80938 0.63148 0.02067 0.0
N803 N 0.78595 0.55906 0.98221 0.0
H804 H 0.21526 0.73857 0.37887 0.0
H805 H 0.25451 0.78161 0.28997 0.0
H806 H 0.16081 0.82402 0.37783 0.0
H807 H 0.16913 0.83598 0.29302 0.0
H808 H 0.25127 0.77376 0.32181 0.0
H809 H 0.22149 0.74292 0.34699 0.0
C810 C 0.20335 0.75717 0.37176 0.0
C811 C 0.18688 0.7804 0.38083 0.0
C812 C 0.23303 0.78733 0.31568 0.0
C813 C 0.19725 0.78889 0.34444 0.0
C814 C 0.23608 0.79305 0.29751 0.0
C815 C 0.21244 0.80986 0.28902 0.0
C816 C 0.20538 0.79781 0.32534 0.0
C817 C 0.18828 0.82342 0.29921 0.0
C818 C 0.20817 0.76088 0.35356 0.0
C819 C 0.1729 0.80499 0.37118 0.0
N820 N 0.18498 0.81668 0.31683 0.0
N821 N 0.17881 0.80897 0.35351 0.0
H822 H 0.33838 0.14633 0.71362 0.0
H823 H 0.47045 0.2574 0.62514 0.0
H824 H 0.47684 0.23811 0.7119 0.0
H825 H 0.33097 0.1704 0.62673 0.0
H826 H 0.47314 0.25258 0.6571 0.0
H827 H 0.33512 0.15172 0.6816 0.0
C828 C 0.36836 0.16613 0.70635 0.0
C829 C 0.40813 0.19092 0.71521 0.0
C830 C 0.44173 0.23521 0.65055 0.0
C831 C 0.40448 0.19927 0.6789 0.0
C832 C 0.44016 0.23875 0.63237 0.0
C833 C 0.40034 0.21499 0.62346 0.0
C834 C 0.40321 0.2072 0.65982 0.0
C835 C 0.36211 0.18995 0.63326 0.0
C836 C 0.36642 0.17001 0.68817 0.0
C837 C 0.44582 0.21764 0.7054 0.0
N838 N 0.36452 0.18626 0.65093 0.0
N839 N 0.44306 0.22139 0.68778 0.0
H840 H 0.86823 0.18404 0.1775 0.0
H841 H 0.03792 0.29066 0.11969 0.0
H842 H 0.96395 0.27238 0.21467 0.0
H843 H 0.12561 0.32395 0.1637 0.0
H844 H 0.97649 0.24489 0.13869 0.0
H845 H 0.92803 0.19509 0.15786 0.0
C846 C 0.9018 0.2052 0.18164 0.0
C847 C 0.9111 0.22829 0.19751 0.0
C848 C 0.00913 0.26061 0.1442 0.0
C849 C 0.97958 0.24219 0.17496 0.0
C850 C 0.04433 0.28708 0.13331 0.0
C851 C 0.08681 0.31142 0.14019 0.0
C852 C 0.01634 0.25901 0.16223 0.0
C853 C 0.09335 0.30569 0.15789 0.0
C854 C 0.93597 0.21197 0.17033 0.0
C855 C 0.95522 0.25483 0.20233 0.0
N856 N 0.05828 0.28097 0.16842 0.0
N857 N 0.98772 0.2615 0.19101 0.0
H858 H 0.67228 0.86816 0.50536 0.0
H859 H 0.80372 0.12854 0.49599 0.0
H860 H 0.70732 0.95865 0.54852 0.0
H861 H 0.73642 0.03825 0.45372 0.0
H862 H 0.79108 0.06643 0.5146 0.0
H863 H 0.71844 0.92986 0.48595 0.0
C864 C 0.69086 0.90078 0.51085 0.0
C865 C 0.68551 0.90855 0.52845 0.0
C866 C 0.78 0.06039 0.50112 0.0
C867 C 0.73773 0.97901 0.50644 0.0
C868 C 0.78742 0.09583 0.49048 0.0
C869 C 0.7703 0.08835 0.47344 0.0
C870 C 0.75564 0.01742 0.49455 0.0
C871 C 0.74938 0.0453 0.46693 0.0
C872 C 0.7169 0.93601 0.49977 0.0
C873 C 0.71009 0.95146 0.53492 0.0
N874 N 0.74212 0.01143 0.47756 0.0
N875 N 0.73462 0.98516 0.52388 0.0
H876 H 0.67743 0.80632 0.82842 0.0
H877 H 0.80508 0.67498 0.83863 0.0
H878 H 0.71647 0.75421 0.78527 0.0
H879 H 0.759 0.72026 0.8818 0.0
H880 H 0.79213 0.72228 0.81886 0.0
H881 H 0.72593 0.7941 0.84776 0.0
C882 C 0.69722 0.79362 0.82291 0.0
C883 C 0.69222 0.78037 0.80533 0.0
C884 C 0.78585 0.72267 0.83274 0.0
C885 C 0.74705 0.76551 0.82734 0.0
C886 C 0.79361 0.69591 0.84403 0.0
C887 C 0.78224 0.69307 0.86179 0.0
C888 C 0.76657 0.74653 0.83931 0.0
C889 C 0.76735 0.72084 0.8681 0.0
C890 C 0.72468 0.7863 0.83396 0.0
C891 C 0.71865 0.76401 0.79886 0.0
N892 N 0.7592 0.74576 0.85685 0.0
N893 N 0.74425 0.75628 0.80991 0.0
H894 H 0.13042 0.80169 0.17125 0.0
H895 H 0.87039 0.67887 0.16078 0.0
H896 H 0.03867 0.75328 0.21422 0.0
H897 H 0.96105 0.69742 0.11917 0.0
H898 H 0.93255 0.72842 0.17935 0.0
H899 H 0.06978 0.7866 0.15128 0.0
C900 C 0.0978 0.78936 0.17656 0.0
C901 C 0.0893 0.77803 0.19431 0.0
C902 C 0.9387 0.72239 0.166 0.0
C903 C 0.01998 0.76021 0.17166 0.0
C904 C 0.90322 0.69432 0.15539 0.0
C905 C 0.91073 0.6834 0.13857 0.0
C906 C 0.98175 0.73971 0.15965 0.0
C907 C 0.95393 0.70432 0.13222 0.0
C908 C 0.06315 0.78038 0.16516 0.0
C909 C 0.0464 0.76182 0.20053 0.0
N910 N 0.98783 0.73097 0.14283 0.0
N911 N 0.01324 0.75277 0.18919 0.0
H912 H 0.28778 0.03744 0.55137 0.0
H913 H 0.18138 0.86742 0.49396 0.0
H914 H 0.32013 0.12487 0.50734 0.0
H915 H 0.26516 0.96376 0.45602 0.0
H916 H 0.19217 0.92685 0.51373 0.0
H917 H 0.24117 0.97603 0.53256 0.0
C918 C 0.28385 0.04379 0.53778 0.0
C919 C 0.3082 0.08618 0.53083 0.0
C920 C 0.20816 0.93505 0.50108 0.0
C921 C 0.25469 0.01567 0.50899 0.0
C922 C 0.20145 0.90103 0.48969 0.0
C923 C 0.22345 0.91067 0.47355 0.0
C924 C 0.23731 0.97883 0.49627 0.0
C925 C 0.24855 0.95482 0.46856 0.0
C926 C 0.25686 0.00858 0.527 0.0
C927 C 0.30193 0.09266 0.51319 0.0
N928 N 0.25532 0.98718 0.47996 0.0
N929 N 0.27666 0.05756 0.50275 0.0
H930 H 0.186 0.31529 0.84029 0.0
H931 H 0.31244 0.18332 0.82946 0.0
H932 H 0.23209 0.26937 0.88319 0.0
H933 H 0.27533 0.2381 0.7867 0.0
H934 H 0.26297 0.19418 0.84877 0.0
H935 H 0.19758 0.26727 0.82041 0.0
C936 C 0.19707 0.29399 0.84563 0.0
C937 C 0.20898 0.29696 0.86332 0.0
C938 C 0.26481 0.20281 0.83505 0.0
C939 C 0.22321 0.24274 0.84069 0.0
C940 C 0.29282 0.19626 0.824 0.0
C941 C 0.2987 0.21073 0.80657 0.0
C942 C 0.24277 0.22404 0.82857 0.0
C943 C 0.27246 0.22736 0.80018 0.0
C944 C 0.20408 0.26683 0.83426 0.0
C945 C 0.22333 0.26869 0.86954 0.0
N946 N 0.24633 0.23434 0.81123 0.0
N947 N 0.23087 0.24345 0.8582 0.0
loop_
_geom_bond_atom_site_label_1
_geom_bond_atom_site_label_2
_geom_bond_distance
_geom_bond_site_symmetry_2
_ccdc_geom_bond_type
Co0 O3 1.970 . S
Co0 N17 1.989 . S
Co0 O25 1.967 . S
Co0 O32 1.920 . S
Co1 O4 1.966 . S
Co1 N10 2.022 . S
Co1 N18 1.993 . S
Co1 O26 1.941 . S
C2 O3 1.258 . S
C2 O4 1.263 . S
O3 Co0 1.970 . S
O3 C2 1.258 . S
O4 Co1 1.966 . S
O4 C2 1.263 . S
C5 O6 1.235 . S
C5 O32 1.289 . S
O6 C5 1.235 . S
C7 C9 1.400 . S
C7 N10 1.351 . S
C7 C12 1.501 . S
C8 C9 1.387 . S
C8 N11 1.341 . S
C9 C7 1.400 . S
C9 C8 1.387 . S
N10 Co1 2.022 . S
N10 C7 1.351 . S
N10 N11 1.365 . S
N11 C8 1.341 . S
N11 N10 1.365 . S
N11 H31 0.862 . S
C12 C7 1.501 . S
C12 H13 0.961 . S
C12 H14 0.961 . S
C12 H15 0.960 . S
H13 C12 0.961 . S
H14 C12 0.961 . S
H15 C12 0.960 . S
C16 N17 1.342 . S
C16 C20 1.401 . S
C16 C21 1.499 . S
N17 Co0 1.989 . S
N17 C16 1.342 . S
N17 N18 1.388 . S
N18 Co1 1.993 . S
N18 N17 1.388 . S
N18 C19 1.346 . S
C19 N18 1.346 . S
C19 C20 1.396 . S
C19 C29 1.510 . S
C20 C16 1.401 . S
C20 C19 1.396 . S
C21 C16 1.499 . S
C21 H22 0.959 . S
C21 H23 0.960 . S
C21 H24 0.961 . S
H22 C21 0.959 . S
H23 C21 0.960 . S
H24 C21 0.961 . S
O25 Co0 1.967 . S
O25 C33 1.258 . S
O26 Co1 1.941 . S
O26 C33 1.266 . S
H27 C29 0.959 . S
H28 C29 0.961 . S
C29 C19 1.510 . S
C29 H27 0.959 . S
C29 H28 0.961 . S
C29 H30 0.960 . S
H30 C29 0.960 . S
H31 N11 0.862 . S
O32 Co0 1.920 . S
O32 C5 1.289 . S
C33 O25 1.258 . S
C33 O26 1.266 . S
Co34 O37 1.970 . S
Co34 N51 1.989 . S
Co34 O59 1.967 . S
Co34 O66 1.920 . S
Co35 O38 1.966 . S
Co35 N44 2.022 . S
Co35 N52 1.993 . S
Co35 O60 1.941 . S
C36 O37 1.258 . S
C36 O38 1.263 . S
O37 Co34 1.970 . S
O37 C36 1.258 . S
O38 Co35 1.966 . S
O38 C36 1.263 . S
C39 O40 1.235 . S
C39 O66 1.289 . S
O40 C39 1.235 . S
C41 C43 1.400 . S
C41 N44 1.351 . S
C41 C46 1.501 . S
C42 C43 1.387 . S
C42 N45 1.341 . S
C43 C41 1.400 . S
C43 C42 1.387 . S
N44 Co35 2.022 . S
N44 C41 1.351 . S
N44 N45 1.365 . S
N45 C42 1.341 . S
N45 N44 1.365 . S
N45 H65 0.862 . S
C46 C41 1.501 . S
C46 H47 0.961 . S
C46 H48 0.961 . S
C46 H49 0.960 . S
H47 C46 0.961 . S
H48 C46 0.961 . S
H49 C46 0.960 . S
C50 N51 1.342 . S
C50 C54 1.401 . S
C50 C55 1.499 . S
N51 Co34 1.989 . S
N51 C50 1.342 . S
N51 N52 1.388 . S
N52 Co35 1.993 . S
N52 N51 1.388 . S
N52 C53 1.346 . S
C53 N52 1.346 . S
C53 C54 1.396 . S
C53 C63 1.510 . S
C54 C50 1.401 . S
C54 C53 1.396 . S
C55 C50 1.499 . S
C55 H56 0.959 . S
C55 H57 0.960 . S
C55 H58 0.961 . S
H56 C55 0.959 . S
H57 C55 0.960 . S
H58 C55 0.961 . S
O59 Co34 1.967 . S
O59 C67 1.258 . S
O60 Co35 1.941 . S
O60 C67 1.266 . S
H61 C63 0.959 . S
H62 C63 0.961 . S
C63 C53 1.510 . S
C63 H61 0.959 . S
C63 H62 0.961 . S
C63 H64 0.960 . S
H64 C63 0.960 . S
H65 N45 0.862 . S
O66 Co34 1.920 . S
O66 C39 1.289 . S
C67 O59 1.258 . S
C67 O60 1.266 . S
Co68 O71 1.970 . S
Co68 N85 1.989 . S
Co68 O93 1.967 . S
Co68 O100 1.920 . S
Co69 O72 1.966 . S
Co69 N78 2.022 . S
Co69 N86 1.993 . S
Co69 O94 1.941 . S
C70 O71 1.258 . S
C70 O72 1.263 . S
O71 Co68 1.970 . S
O71 C70 1.258 . S
O72 Co69 1.966 . S
O72 C70 1.263 . S
C73 O74 1.235 . S
C73 O100 1.289 . S
O74 C73 1.235 . S
C75 C77 1.400 . S
C75 N78 1.351 . S
C75 C80 1.501 . S
C76 C77 1.387 . S
C76 N79 1.341 . S
C77 C75 1.400 . S
C77 C76 1.387 . S
N78 Co69 2.022 . S
N78 C75 1.351 . S
N78 N79 1.365 . S
N79 C76 1.341 . S
N79 N78 1.365 . S
N79 H99 0.862 . S
C80 C75 1.501 . S
C80 H81 0.961 . S
C80 H82 0.961 . S
C80 H83 0.960 . S
H81 C80 0.961 . S
H82 C80 0.961 . S
H83 C80 0.960 . S
C84 N85 1.342 . S
C84 C88 1.401 . S
C84 C89 1.499 . S
N85 Co68 1.989 . S
N85 C84 1.342 . S
N85 N86 1.388 . S
N86 Co69 1.993 . S
N86 N85 1.388 . S
N86 C87 1.346 . S
C87 N86 1.346 . S
C87 C88 1.396 . S
C87 C97 1.510 . S
C88 C84 1.401 . S
C88 C87 1.396 . S
C89 C84 1.499 . S
C89 H90 0.959 . S
C89 H91 0.960 . S
C89 H92 0.961 . S
H90 C89 0.959 . S
H91 C89 0.960 . S
H92 C89 0.961 . S
O93 Co68 1.967 . S
O93 C101 1.258 . S
O94 Co69 1.941 . S
O94 C101 1.266 . S
H95 C97 0.959 . S
H96 C97 0.961 . S
C97 C87 1.510 . S
C97 H95 0.959 . S
C97 H96 0.961 . S
C97 H98 0.960 . S
H98 C97 0.960 . S
H99 N79 0.862 . S
O100 Co68 1.920 . S
O100 C73 1.289 . S
C101 O93 1.258 . S
C101 O94 1.266 . S
Co102 O105 1.970 . S
Co102 N119 1.989 . S
Co102 O127 1.967 . S
Co102 O134 1.920 . S
Co103 O106 1.966 . S
Co103 N112 2.022 . S
Co103 N120 1.993 . S
Co103 O128 1.941 . S
C104 O105 1.258 . S
C104 O106 1.263 . S
O105 Co102 1.970 . S
O105 C104 1.258 . S
O106 Co103 1.966 . S
O106 C104 1.263 . S
C107 O108 1.235 . S
C107 O134 1.289 . S
O108 C107 1.235 . S
C109 C111 1.400 . S
C109 N112 1.351 . S
C109 C114 1.501 . S
C110 C111 1.387 . S
C110 N113 1.341 . S
C111 C109 1.400 . S
C111 C110 1.387 . S
N112 Co103 2.022 . S
N112 C109 1.351 . S
N112 N113 1.365 . S
N113 C110 1.341 . S
N113 N112 1.365 . S
N113 H133 0.862 . S
C114 C109 1.501 . S
C114 H115 0.961 . S
C114 H116 0.961 . S
C114 H117 0.960 . S
H115 C114 0.961 . S
H116 C114 0.961 . S
H117 C114 0.960 . S
C118 N119 1.342 . S
C118 C122 1.401 . S
C118 C123 1.499 . S
N119 Co102 1.989 . S
N119 C118 1.342 . S
N119 N120 1.388 . S
N120 Co103 1.993 . S
N120 N119 1.388 . S
N120 C121 1.346 . S
C121 N120 1.346 . S
C121 C122 1.396 . S
C121 C131 1.510 . S
C122 C118 1.401 . S
C122 C121 1.396 . S
C123 C118 1.499 . S
C123 H124 0.959 . S
C123 H125 0.960 . S
C123 H126 0.961 . S
H124 C123 0.959 . S
H125 C123 0.960 . S
H126 C123 0.961 . S
O127 Co102 1.967 . S
O127 C135 1.258 . S
O128 Co103 1.941 . S
O128 C135 1.266 . S
H129 C131 0.959 . S
H130 C131 0.961 . S
C131 C121 1.510 . S
C131 H129 0.959 . S
C131 H130 0.961 . S
C131 H132 0.960 . S
H132 C131 0.960 . S
H133 N113 0.862 . S
O134 Co102 1.920 . S
O134 C107 1.289 . S
C135 O127 1.258 . S
C135 O128 1.266 . S
Co136 O139 1.970 . S
Co136 N153 1.989 . S
Co136 O161 1.967 . S
Co136 O168 1.920 . S
Co137 O140 1.966 . S
Co137 N146 2.022 . S
Co137 N154 1.993 . S
Co137 O162 1.941 . S
C138 O139 1.258 . S
C138 O140 1.263 . S
O139 Co136 1.970 . S
O139 C138 1.258 . S
O140 Co137 1.966 . S
O140 C138 1.263 . S
C141 O142 1.235 . S
C141 O168 1.289 . S
O142 C141 1.235 . S
C143 C145 1.400 . S
C143 N146 1.351 . S
C143 C148 1.501 . S
C144 C145 1.387 . S
C144 N147 1.341 . S
C145 C143 1.400 . S
C145 C144 1.387 . S
N146 Co137 2.022 . S
N146 C143 1.351 . S
N146 N147 1.365 . S
N147 C144 1.341 . S
N147 N146 1.365 . S
N147 H167 0.862 . S
C148 C143 1.501 . S
C148 H149 0.961 . S
C148 H150 0.961 . S
C148 H151 0.960 . S
H149 C148 0.961 . S
H150 C148 0.961 . S
H151 C148 0.960 . S
C152 N153 1.342 . S
C152 C156 1.401 . S
C152 C157 1.499 . S
N153 Co136 1.989 . S
N153 C152 1.342 . S
N153 N154 1.388 . S
N154 Co137 1.993 . S
N154 N153 1.388 . S
N154 C155 1.346 . S
C155 N154 1.346 . S
C155 C156 1.396 . S
C155 C165 1.510 . S
C156 C152 1.401 . S
C156 C155 1.396 . S
C157 C152 1.499 . S
C157 H158 0.959 . S
C157 H159 0.960 . S
C157 H160 0.961 . S
H158 C157 0.959 . S
H159 C157 0.960 . S
H160 C157 0.961 . S
O161 Co136 1.967 . S
O161 C169 1.258 . S
O162 Co137 1.941 . S
O162 C169 1.266 . S
H163 C165 0.959 . S
H164 C165 0.961 . S
C165 C155 1.510 . S
C165 H163 0.959 . S
C165 H164 0.961 . S
C165 H166 0.960 . S
H166 C165 0.960 . S
H167 N147 0.862 . S
O168 Co136 1.920 . S
O168 C141 1.289 . S
C169 O161 1.258 . S
C169 O162 1.266 . S
Co170 O173 1.970 . S
Co170 N187 1.989 . S
Co170 O195 1.967 . S
Co170 O202 1.920 . S
Co171 O174 1.966 . S
Co171 N180 2.022 . S
Co171 N188 1.993 . S
Co171 O196 1.941 . S
C172 O173 1.258 . S
C172 O174 1.263 . S
O173 Co170 1.970 . S
O173 C172 1.258 . S
O174 Co171 1.966 . S
O174 C172 1.263 . S
C175 O176 1.235 . S
C175 O202 1.289 . S
O176 C175 1.235 . S
C177 C179 1.400 . S
C177 N180 1.351 . S
C177 C182 1.501 . S
C178 C179 1.387 . S
C178 N181 1.341 . S
C179 C177 1.400 . S
C179 C178 1.387 . S
N180 Co171 2.022 . S
N180 C177 1.351 . S
N180 N181 1.365 . S
N181 C178 1.341 . S
N181 N180 1.365 . S
N181 H201 0.862 . S
C182 C177 1.501 . S
C182 H183 0.961 . S
C182 H184 0.961 . S
C182 H185 0.960 . S
H183 C182 0.961 . S
H184 C182 0.961 . S
H185 C182 0.960 . S
C186 N187 1.342 . S
C186 C190 1.401 . S
C186 C191 1.499 . S
N187 Co170 1.989 . S
N187 C186 1.342 . S
N187 N188 1.388 . S
N188 Co171 1.993 . S
N188 N187 1.388 . S
N188 C189 1.346 . S
C189 N188 1.346 . S
C189 C190 1.396 . S
C189 C199 1.510 . S
C190 C186 1.401 . S
C190 C189 1.396 . S
C191 C186 1.499 . S
C191 H192 0.959 . S
C191 H193 0.960 . S
C191 H194 0.961 . S
H192 C191 0.959 . S
H193 C191 0.960 . S
H194 C191 0.961 . S
O195 Co170 1.967 . S
O195 C203 1.258 . S
O196 Co171 1.941 . S
O196 C203 1.266 . S
H197 C199 0.959 . S
H198 C199 0.961 . S
C199 C189 1.510 . S
C199 H197 0.959 . S
C199 H198 0.961 . S
C199 H200 0.960 . S
H200 C199 0.960 . S
H201 N181 0.862 . S
O202 Co170 1.920 . S
O202 C175 1.289 . S
C203 O195 1.258 . S
C203 O196 1.266 . S
Co204 O207 1.970 . S
Co204 N221 1.989 . S
Co204 O229 1.967 . S
Co204 O236 1.920 . S
Co205 O208 1.966 . S
Co205 N214 2.022 . S
Co205 N222 1.993 . S
Co205 O230 1.941 . S
C206 O207 1.258 . S
C206 O208 1.263 . S
O207 Co204 1.970 . S
O207 C206 1.258 . S
O208 Co205 1.966 . S
O208 C206 1.263 . S
C209 O210 1.235 . S
C209 O236 1.289 . S
O210 C209 1.235 . S
C211 C213 1.400 . S
C211 N214 1.351 . S
C211 C216 1.501 . S
C212 C213 1.387 . S
C212 N215 1.341 . S
C213 C211 1.400 . S
C213 C212 1.387 . S
N214 Co205 2.022 . S
N214 C211 1.351 . S
N214 N215 1.365 . S
N215 C212 1.341 . S
N215 N214 1.365 . S
N215 H235 0.862 . S
C216 C211 1.501 . S
C216 H217 0.961 . S
C216 H218 0.961 . S
C216 H219 0.960 . S
H217 C216 0.961 . S
H218 C216 0.961 . S
H219 C216 0.960 . S
C220 N221 1.342 . S
C220 C224 1.401 . S
C220 C225 1.499 . S
N221 Co204 1.989 . S
N221 C220 1.342 . S
N221 N222 1.388 . S
N222 Co205 1.993 . S
N222 N221 1.388 . S
N222 C223 1.346 . S
C223 N222 1.346 . S
C223 C224 1.396 . S
C223 C233 1.510 . S
C224 C220 1.401 . S
C224 C223 1.396 . S
C225 C220 1.499 . S
C225 H226 0.959 . S
C225 H227 0.960 . S
C225 H228 0.961 . S
H226 C225 0.959 . S
H227 C225 0.960 . S
H228 C225 0.961 . S
O229 Co204 1.967 . S
O229 C237 1.258 . S
O230 Co205 1.941 . S
O230 C237 1.266 . S
H231 C233 0.959 . S
H232 C233 0.961 . S
C233 C223 1.510 . S
C233 H231 0.959 . S
C233 H232 0.961 . S
C233 H234 0.960 . S
H234 C233 0.960 . S
H235 N215 0.862 . S
O236 Co204 1.920 . S
O236 C209 1.289 . S
C237 O229 1.258 . S
C237 O230 1.266 . S
Co238 O241 1.970 . S
Co238 N255 1.989 . S
Co238 O263 1.967 . S
Co238 O270 1.920 . S
Co239 O242 1.966 . S
Co239 N248 2.022 . S
Co239 N256 1.993 . S
Co239 O264 1.941 . S
C240 O241 1.258 . S
C240 O242 1.263 . S
O241 Co238 1.970 . S
O241 C240 1.258 . S
O242 Co239 1.966 . S
O242 C240 1.263 . S
C243 O244 1.235 . S
C243 O270 1.289 . S
O244 C243 1.235 . S
C245 C247 1.400 . S
C245 N248 1.351 . S
C245 C250 1.501 . S
C246 C247 1.387 . S
C246 N249 1.341 . S
C247 C245 1.400 . S
C247 C246 1.387 . S
N248 Co239 2.022 . S
N248 C245 1.351 . S
N248 N249 1.365 . S
N249 C246 1.341 . S
N249 N248 1.365 . S
N249 H269 0.862 . S
C250 C245 1.501 . S
C250 H251 0.961 . S
C250 H252 0.961 . S
C250 H253 0.960 . S
H251 C250 0.961 . S
H252 C250 0.961 . S
H253 C250 0.960 . S
C254 N255 1.342 . S
C254 C258 1.401 . S
C254 C259 1.499 . S
N255 Co238 1.989 . S
N255 C254 1.342 . S
N255 N256 1.388 . S
N256 Co239 1.993 . S
N256 N255 1.388 . S
N256 C257 1.346 . S
C257 N256 1.346 . S
C257 C258 1.396 . S
C257 C267 1.510 . S
C258 C254 1.401 . S
C258 C257 1.396 . S
C259 C254 1.499 . S
C259 H260 0.959 . S
C259 H261 0.960 . S
C259 H262 0.961 . S
H260 C259 0.959 . S
H261 C259 0.960 . S
H262 C259 0.961 . S
O263 Co238 1.967 . S
O263 C271 1.258 . S
O264 Co239 1.941 . S
O264 C271 1.266 . S
H265 C267 0.959 . S
H266 C267 0.961 . S
C267 C257 1.510 . S
C267 H265 0.959 . S
C267 H266 0.961 . S
C267 H268 0.960 . S
H268 C267 0.960 . S
H269 N249 0.862 . S
O270 Co238 1.920 . S
O270 C243 1.289 . S
C271 O263 1.258 . S
C271 O264 1.266 . S
Co272 O275 1.970 . S
Co272 N289 1.989 . S
Co272 O297 1.967 . S
Co272 O304 1.920 . S
Co273 O276 1.966 . S
Co273 N282 2.022 . S
Co273 N290 1.993 . S
Co273 O298 1.941 . S
C274 O275 1.258 . S
C274 O276 1.263 . S
O275 Co272 1.970 . S
O275 C274 1.258 . S
O276 Co273 1.966 . S
O276 C274 1.263 . S
C277 O278 1.235 . S
C277 O304 1.289 . S
O278 C277 1.235 . S
C279 C281 1.400 . S
C279 N282 1.351 . S
C279 C284 1.501 . S
C280 C281 1.387 . S
C280 N283 1.341 . S
C281 C279 1.400 . S
C281 C280 1.387 . S
N282 Co273 2.022 . S
N282 C279 1.351 . S
N282 N283 1.365 . S
N283 C280 1.341 . S
N283 N282 1.365 . S
N283 H303 0.862 . S
C284 C279 1.501 . S
C284 H285 0.961 . S
C284 H286 0.961 . S
C284 H287 0.960 . S
H285 C284 0.961 . S
H286 C284 0.961 . S
H287 C284 0.960 . S
C288 N289 1.342 . S
C288 C292 1.401 . S
C288 C293 1.499 . S
N289 Co272 1.989 . S
N289 C288 1.342 . S
N289 N290 1.388 . S
N290 Co273 1.993 . S
N290 N289 1.388 . S
N290 C291 1.346 . S
C291 N290 1.346 . S
C291 C292 1.396 . S
C291 C301 1.510 . S
C292 C288 1.401 . S
C292 C291 1.396 . S
C293 C288 1.499 . S
C293 H294 0.959 . S
C293 H295 0.960 . S
C293 H296 0.961 . S
H294 C293 0.959 . S
H295 C293 0.960 . S
H296 C293 0.961 . S
O297 Co272 1.967 . S
O297 C305 1.258 . S
O298 Co273 1.941 . S
O298 C305 1.266 . S
H299 C301 0.959 . S
H300 C301 0.961 . S
C301 C291 1.510 . S
C301 H299 0.959 . S
C301 H300 0.961 . S
C301 H302 0.960 . S
H302 C301 0.960 . S
H303 N283 0.862 . S
O304 Co272 1.920 . S
O304 C277 1.289 . S
C305 O297 1.258 . S
C305 O298 1.266 . S
Co306 O309 1.970 . S
Co306 N323 1.989 . S
Co306 O331 1.967 . S
Co306 O338 1.920 . S
Co307 O310 1.966 . S
Co307 N316 2.022 . S
Co307 N324 1.993 . S
Co307 O332 1.941 . S
C308 O309 1.258 . S
C308 O310 1.263 . S
O309 Co306 1.970 . S
O309 C308 1.258 . S
O310 Co307 1.966 . S
O310 C308 1.263 . S
C311 O312 1.235 . S
C311 O338 1.289 . S
O312 C311 1.235 . S
C313 C315 1.400 . S
C313 N316 1.351 . S
C313 C318 1.501 . S
C314 C315 1.387 . S
C314 N317 1.341 . S
C315 C313 1.400 . S
C315 C314 1.387 . S
N316 Co307 2.022 . S
N316 C313 1.351 . S
N316 N317 1.365 . S
N317 C314 1.341 . S
N317 N316 1.365 . S
N317 H337 0.862 . S
C318 C313 1.501 . S
C318 H319 0.961 . S
C318 H320 0.961 . S
C318 H321 0.960 . S
H319 C318 0.961 . S
H320 C318 0.961 . S
H321 C318 0.960 . S
C322 N323 1.342 . S
C322 C326 1.401 . S
C322 C327 1.499 . S
N323 Co306 1.989 . S
N323 C322 1.342 . S
N323 N324 1.388 . S
N324 Co307 1.993 . S
N324 N323 1.388 . S
N324 C325 1.346 . S
C325 N324 1.346 . S
C325 C326 1.396 . S
C325 C335 1.510 . S
C326 C322 1.401 . S
C326 C325 1.396 . S
C327 C322 1.499 . S
C327 H328 0.959 . S
C327 H329 0.960 . S
C327 H330 0.961 . S
H328 C327 0.959 . S
H329 C327 0.960 . S
H330 C327 0.961 . S
O331 Co306 1.967 . S
O331 C339 1.258 . S
O332 Co307 1.941 . S
O332 C339 1.266 . S
H333 C335 0.959 . S
H334 C335 0.961 . S
C335 C325 1.510 . S
C335 H333 0.959 . S
C335 H334 0.961 . S
C335 H336 0.960 . S
H336 C335 0.960 . S
H337 N317 0.862 . S
O338 Co306 1.920 . S
O338 C311 1.289 . S
C339 O331 1.258 . S
C339 O332 1.266 . S
Co340 O343 1.970 . S
Co340 N357 1.989 . S
Co340 O365 1.967 . S
Co340 O372 1.920 . S
Co341 O344 1.966 . S
Co341 N350 2.022 . S
Co341 N358 1.993 . S
Co341 O366 1.941 . S
C342 O343 1.258 . S
C342 O344 1.263 . S
O343 Co340 1.970 . S
O343 C342 1.258 . S
O344 Co341 1.966 . S
O344 C342 1.263 . S
C345 O346 1.235 . S
C345 O372 1.289 . S
O346 C345 1.235 . S
C347 C349 1.400 . S
C347 N350 1.351 . S
C347 C352 1.501 . S
C348 C349 1.387 . S
C348 N351 1.341 . S
C349 C347 1.400 . S
C349 C348 1.387 . S
N350 Co341 2.022 . S
N350 C347 1.351 . S
N350 N351 1.365 . S
N351 C348 1.341 . S
N351 N350 1.365 . S
N351 H371 0.862 . S
C352 C347 1.501 . S
C352 H353 0.961 . S
C352 H354 0.961 . S
C352 H355 0.960 . S
H353 C352 0.961 . S
H354 C352 0.961 . S
H355 C352 0.960 . S
C356 N357 1.342 . S
C356 C360 1.401 . S
C356 C361 1.499 . S
N357 Co340 1.989 . S
N357 C356 1.342 . S
N357 N358 1.388 . S
N358 Co341 1.993 . S
N358 N357 1.388 . S
N358 C359 1.346 . S
C359 N358 1.346 . S
C359 C360 1.396 . S
C359 C369 1.510 . S
C360 C356 1.401 . S
C360 C359 1.396 . S
C361 C356 1.499 . S
C361 H362 0.959 . S
C361 H363 0.960 . S
C361 H364 0.961 . S
H362 C361 0.959 . S
H363 C361 0.960 . S
H364 C361 0.961 . S
O365 Co340 1.967 . S
O365 C373 1.258 . S
O366 Co341 1.941 . S
O366 C373 1.266 . S
H367 C369 0.959 . S
H368 C369 0.961 . S
C369 C359 1.510 . S
C369 H367 0.959 . S
C369 H368 0.961 . S
C369 H370 0.960 . S
H370 C369 0.960 . S
H371 N351 0.862 . S
O372 Co340 1.920 . S
O372 C345 1.289 . S
C373 O365 1.258 . S
C373 O366 1.266 . S
Co374 O377 1.970 . S
Co374 N391 1.989 . S
Co374 O399 1.967 . S
Co374 O406 1.920 . S
Co375 O378 1.966 . S
Co375 N384 2.022 . S
Co375 N392 1.993 . S
Co375 O400 1.941 . S
C376 O377 1.258 . S
C376 O378 1.263 . S
O377 Co374 1.970 . S
O377 C376 1.258 . S
O378 Co375 1.966 . S
O378 C376 1.263 . S
C379 O380 1.235 . S
C379 O406 1.289 . S
O380 C379 1.235 . S
C381 C383 1.400 . S
C381 N384 1.351 . S
C381 C386 1.501 . S
C382 C383 1.387 . S
C382 N385 1.341 . S
C383 C381 1.400 . S
C383 C382 1.387 . S
N384 Co375 2.022 . S
N384 C381 1.351 . S
N384 N385 1.365 . S
N385 C382 1.341 . S
N385 N384 1.365 . S
N385 H405 0.862 . S
C386 C381 1.501 . S
C386 H387 0.961 . S
C386 H388 0.961 . S
C386 H389 0.960 . S
H387 C386 0.961 . S
H388 C386 0.961 . S
H389 C386 0.960 . S
C390 N391 1.342 . S
C390 C394 1.401 . S
C390 C395 1.499 . S
N391 Co374 1.989 . S
N391 C390 1.342 . S
N391 N392 1.388 . S
N392 Co375 1.993 . S
N392 N391 1.388 . S
N392 C393 1.346 . S
C393 N392 1.346 . S
C393 C394 1.396 . S
C393 C403 1.510 . S
C394 C390 1.401 . S
C394 C393 1.396 . S
C395 C390 1.499 . S
C395 H396 0.959 . S
C395 H397 0.960 . S
C395 H398 0.961 . S
H396 C395 0.959 . S
H397 C395 0.960 . S
H398 C395 0.961 . S
O399 Co374 1.967 . S
O399 C407 1.258 . S
O400 Co375 1.941 . S
O400 C407 1.266 . S
H401 C403 0.959 . S
H402 C403 0.961 . S
C403 C393 1.510 . S
C403 H401 0.959 . S
C403 H402 0.961 . S
C403 H404 0.960 . S
H404 C403 0.960 . S
H405 N385 0.862 . S
O406 Co374 1.920 . S
O406 C379 1.289 . S
C407 O399 1.258 . S
C407 O400 1.266 . S
H408 C414 0.930 . S
H409 C418 0.930 . S
H410 C423 0.929 . S
H411 C421 0.929 . S
H412 C416 0.929 . S
H413 C422 0.929 . S
C414 H408 0.930 . S
C414 C415 1.367 . S
C414 C422 1.378 . S
C415 C414 1.367 . S
C415 C423 1.433 . S
C416 H412 0.929 . S
C416 C418 1.378 . S
C416 C420 1.350 . S
C417 C420 1.463 . S
C417 C422 1.350 . S
C417 N425 1.427 . S
C418 H409 0.930 . S
C418 C416 1.378 . S
C418 C419 1.367 . S
C419 C418 1.367 . S
C419 C421 1.433 . S
C420 C416 1.350 . S
C420 C417 1.463 . S
C420 N424 1.427 . S
C421 H411 0.929 . S
C421 C419 1.433 . S
C421 N424 1.384 . S
C422 H413 0.929 . S
C422 C414 1.378 . S
C422 C417 1.350 . S
C423 H410 0.929 . S
C423 C415 1.433 . S
C423 N425 1.384 . S
N424 C420 1.427 . S
N424 C421 1.384 . S
N425 C417 1.427 . S
N425 C423 1.384 . S
H426 C432 0.930 . S
H427 C436 0.930 . S
H428 C441 0.929 . S
H429 C439 0.929 . S
H430 C434 0.929 1_455 S
H431 C440 0.929 1_655 S
C432 H426 0.930 . S
C432 C433 1.367 . S
C432 C440 1.378 . S
C433 C432 1.367 . S
C433 C441 1.433 . S
C434 H430 0.929 1_655 S
C434 C436 1.378 . S
C434 C438 1.350 . S
C435 C438 1.463 1_455 S
C435 C440 1.350 . S
C435 N443 1.427 . S
C436 H427 0.930 . S
C436 C434 1.378 . S
C436 C437 1.367 . S
C437 C436 1.367 . S
C437 C439 1.433 . S
C438 C434 1.350 . S
C438 C435 1.463 1_655 S
C438 N442 1.427 . S
C439 H429 0.929 . S
C439 C437 1.433 . S
C439 N442 1.384 . S
C440 H431 0.929 1_455 S
C440 C432 1.378 . S
C440 C435 1.350 . S
C441 H428 0.929 . S
C441 C433 1.433 . S
C441 N443 1.384 . S
N442 C438 1.427 . S
N442 C439 1.384 . S
N443 C435 1.427 . S
N443 C441 1.384 . S
H444 C450 0.930 . S
H445 C454 0.930 . S
H446 C459 0.929 . S
H447 C457 0.929 . S
H448 C452 0.929 . S
H449 C458 0.929 . S
C450 H444 0.930 . S
C450 C451 1.367 . S
C450 C458 1.378 . S
C451 C450 1.367 . S
C451 C459 1.433 . S
C452 H448 0.929 . S
C452 C454 1.378 . S
C452 C456 1.350 . S
C453 C456 1.463 1_545 S
C453 C458 1.350 . S
C453 N461 1.427 . S
C454 H445 0.930 . S
C454 C452 1.378 . S
C454 C455 1.367 . S
C455 C454 1.367 . S
C455 C457 1.433 . S
C456 C452 1.350 . S
C456 C453 1.463 1_565 S
C456 N460 1.427 . S
C457 H447 0.929 . S
C457 C455 1.433 . S
C457 N460 1.384 . S
C458 H449 0.929 . S
C458 C450 1.378 . S
C458 C453 1.350 . S
C459 H446 0.929 . S
C459 C451 1.433 . S
C459 N461 1.384 . S
N460 C456 1.427 . S
N460 C457 1.384 . S
N461 C453 1.427 . S
N461 C459 1.384 . S
H462 C468 0.930 . S
H463 C472 0.930 . S
H464 C477 0.929 . S
H465 C475 0.929 . S
H466 C470 0.929 . S
H467 C476 0.929 . S
C468 H462 0.930 . S
C468 C469 1.367 . S
C468 C476 1.378 . S
C469 C468 1.367 . S
C469 C477 1.433 . S
C470 H466 0.929 . S
C470 C472 1.378 . S
C470 C474 1.350 . S
C471 C474 1.463 . S
C471 C476 1.350 . S
C471 N479 1.427 . S
C472 H463 0.930 . S
C472 C470 1.378 . S
C472 C473 1.367 . S
C473 C472 1.367 . S
C473 C475 1.433 . S
C474 C470 1.350 . S
C474 C471 1.463 . S
C474 N478 1.427 . S
C475 H465 0.929 . S
C475 C473 1.433 . S
C475 N478 1.384 . S
C476 H467 0.929 . S
C476 C468 1.378 . S
C476 C471 1.350 . S
C477 H464 0.929 . S
C477 C469 1.433 . S
C477 N479 1.384 . S
N478 C474 1.427 . S
N478 C475 1.384 . S
N479 C471 1.427 . S
N479 C477 1.384 . S
H480 C486 0.930 . S
H481 C490 0.930 . S
H482 C495 0.929 . S
H483 C493 0.929 . S
H484 C488 0.929 . S
H485 C494 0.929 . S
C486 H480 0.930 . S
C486 C487 1.367 . S
C486 C494 1.378 . S
C487 C486 1.367 . S
C487 C495 1.433 . S
C488 H484 0.929 . S
C488 C490 1.378 . S
C488 C492 1.350 . S
C489 C492 1.463 1_655 S
C489 C494 1.350 . S
C489 N497 1.427 . S
C490 H481 0.930 . S
C490 C488 1.378 . S
C490 C491 1.367 . S
C491 C490 1.367 . S
C491 C493 1.433 . S
C492 C488 1.350 . S
C492 C489 1.463 1_455 S
C492 N496 1.427 . S
C493 H483 0.929 . S
C493 C491 1.433 . S
C493 N496 1.384 . S
C494 H485 0.929 . S
C494 C486 1.378 . S
C494 C489 1.350 . S
C495 H482 0.929 . S
C495 C487 1.433 . S
C495 N497 1.384 . S
N496 C492 1.427 . S
N496 C493 1.384 . S
N497 C489 1.427 . S
N497 C495 1.384 . S
H498 C504 0.930 . S
H499 C508 0.930 . S
H500 C513 0.929 . S
H501 C511 0.929 . S
H502 C506 0.929 . S
H503 C512 0.929 . S
C504 H498 0.930 . S
C504 C505 1.367 . S
C504 C512 1.378 . S
C505 C504 1.367 . S
C505 C513 1.433 . S
C506 H502 0.929 . S
C506 C508 1.378 . S
C506 C510 1.350 . S
C507 C510 1.463 1_565 S
C507 C512 1.350 . S
C507 N515 1.427 . S
C508 H499 0.930 . S
C508 C506 1.378 . S
C508 C509 1.367 . S
C509 C508 1.367 . S
C509 C511 1.433 . S
C510 C506 1.350 . S
C510 C507 1.463 1_545 S
C510 N514 1.427 . S
C511 H501 0.929 . S
C511 C509 1.433 . S
C511 N514 1.384 . S
C512 H503 0.929 . S
C512 C504 1.378 . S
C512 C507 1.350 . S
C513 H500 0.929 . S
C513 C505 1.433 . S
C513 N515 1.384 . S
N514 C510 1.427 . S
N514 C511 1.384 . S
N515 C507 1.427 . S
N515 C513 1.384 . S
H516 C522 0.930 . S
H517 C526 0.930 . S
H518 C531 0.929 . S
H519 C529 0.929 . S
H520 C524 0.929 . S
H521 C530 0.929 . S
C522 H516 0.930 . S
C522 C523 1.367 . S
C522 C530 1.378 . S
C523 C522 1.367 . S
C523 C531 1.433 . S
C524 H520 0.929 . S
C524 C526 1.378 . S
C524 C528 1.350 . S
C525 C528 1.463 1_655 S
C525 C530 1.350 . S
C525 N533 1.427 . S
C526 H517 0.930 . S
C526 C524 1.378 . S
C526 C527 1.367 . S
C527 C526 1.367 . S
C527 C529 1.433 . S
C528 C524 1.350 . S
C528 C525 1.463 1_455 S
C528 N532 1.427 . S
C529 H519 0.929 . S
C529 C527 1.433 . S
C529 N532 1.384 . S
C530 H521 0.929 . S
C530 C522 1.378 . S
C530 C525 1.350 . S
C531 H518 0.929 . S
C531 C523 1.433 . S
C531 N533 1.384 . S
N532 C528 1.427 . S
N532 C529 1.384 . S
N533 C525 1.427 . S
N533 C531 1.384 . S
H534 C540 0.930 . S
H535 C544 0.930 . S
H536 C549 0.929 . S
H537 C547 0.929 . S
H538 C542 0.929 1_545 S
H539 C548 0.929 1_565 S
C540 H534 0.930 . S
C540 C541 1.367 . S
C540 C548 1.378 . S
C541 C540 1.367 . S
C541 C549 1.433 . S
C542 H538 0.929 1_565 S
C542 C544 1.378 . S
C542 C546 1.350 . S
C543 C546 1.463 1_545 S
C543 C548 1.350 . S
C543 N551 1.427 . S
C544 H535 0.930 . S
C544 C542 1.378 . S
C544 C545 1.367 . S
C545 C544 1.367 . S
C545 C547 1.433 . S
C546 C542 1.350 . S
C546 C543 1.463 1_565 S
C546 N550 1.427 . S
C547 H537 0.929 . S
C547 C545 1.433 . S
C547 N550 1.384 . S
C548 H539 0.929 1_545 S
C548 C540 1.378 . S
C548 C543 1.350 . S
C549 H536 0.929 . S
C549 C541 1.433 . S
C549 N551 1.384 . S
N550 C546 1.427 . S
N550 C547 1.384 . S
N551 C543 1.427 . S
N551 C549 1.384 . S
H552 C558 0.930 . S
H553 C562 0.930 . S
H554 C567 0.929 . S
H555 C565 0.929 . S
H556 C560 0.929 . S
H557 C566 0.929 . S
C558 H552 0.930 . S
C558 C559 1.367 . S
C558 C566 1.378 . S
C559 C558 1.367 . S
C559 C567 1.433 . S
C560 H556 0.929 . S
C560 C562 1.378 . S
C560 C564 1.350 . S
C561 C564 1.463 . S
C561 C566 1.350 . S
C561 N569 1.427 . S
C562 H553 0.930 . S
C562 C560 1.378 . S
C562 C563 1.367 . S
C563 C562 1.367 . S
C563 C565 1.433 . S
C564 C560 1.350 . S
C564 C561 1.463 . S
C564 N568 1.427 . S
C565 H555 0.929 . S
C565 C563 1.433 . S
C565 N568 1.384 . S
C566 H557 0.929 . S
C566 C558 1.378 . S
C566 C561 1.350 . S
C567 H554 0.929 . S
C567 C559 1.433 . S
C567 N569 1.384 . S
N568 C564 1.427 . S
N568 C565 1.384 . S
N569 C561 1.427 . S
N569 C567 1.384 . S
H570 C576 0.930 . S
H571 C580 0.930 . S
H572 C585 0.929 . S
H573 C583 0.929 . S
H574 C578 0.929 . S
H575 C584 0.929 . S
C576 H570 0.930 . S
C576 C577 1.367 . S
C576 C584 1.378 . S
C577 C576 1.367 . S
C577 C585 1.433 . S
C578 H574 0.929 . S
C578 C580 1.378 . S
C578 C582 1.350 . S
C579 C582 1.463 1_565 S
C579 C584 1.350 . S
C579 N587 1.427 . S
C580 H571 0.930 . S
C580 C578 1.378 . S
C580 C581 1.367 . S
C581 C580 1.367 . S
C581 C583 1.433 . S
C582 C578 1.350 . S
C582 C579 1.463 1_545 S
C582 N586 1.427 . S
C583 H573 0.929 . S
C583 C581 1.433 . S
C583 N586 1.384 . S
C584 H575 0.929 . S
C584 C576 1.378 . S
C584 C579 1.350 . S
C585 H572 0.929 . S
C585 C577 1.433 . S
C585 N587 1.384 . S
N586 C582 1.427 . S
N586 C583 1.384 . S
N587 C579 1.427 . S
N587 C585 1.384 . S
H588 C594 0.930 . S
H589 C598 0.930 . S
H590 C603 0.929 . S
H591 C601 0.929 . S
H592 C596 0.929 . S
H593 C602 0.929 . S
C594 H588 0.930 . S
C594 C595 1.367 . S
C594 C602 1.378 . S
C595 C594 1.367 . S
C595 C603 1.433 . S
C596 H592 0.929 . S
C596 C598 1.378 . S
C596 C600 1.350 . S
C597 C600 1.463 . S
C597 C602 1.350 . S
C597 N605 1.427 . S
C598 H589 0.930 . S
C598 C596 1.378 . S
C598 C599 1.367 . S
C599 C598 1.367 . S
C599 C601 1.433 . S
C600 C596 1.350 . S
C600 C597 1.463 . S
C600 N604 1.427 . S
C601 H591 0.929 . S
C601 C599 1.433 . S
C601 N604 1.384 . S
C602 H593 0.929 . S
C602 C594 1.378 . S
C602 C597 1.350 . S
C603 H590 0.929 . S
C603 C595 1.433 . S
C603 N605 1.384 . S
N604 C600 1.427 . S
N604 C601 1.384 . S
N605 C597 1.427 . S
N605 C603 1.384 . S
H606 C612 0.930 . S
H607 C616 0.930 . S
H608 C621 0.929 . S
H609 C619 0.929 . S
H610 C614 0.929 . S
H611 C620 0.929 . S
C612 H606 0.930 . S
C612 C613 1.367 . S
C612 C620 1.378 . S
C613 C612 1.367 . S
C613 C621 1.433 . S
C614 H610 0.929 . S
C614 C616 1.378 . S
C614 C618 1.350 . S
C615 C618 1.463 1_455 S
C615 C620 1.350 . S
C615 N623 1.427 1_455 S
C616 H607 0.930 . S
C616 C614 1.378 . S
C616 C617 1.367 . S
C617 C616 1.367 . S
C617 C619 1.433 . S
C618 C614 1.350 . S
C618 C615 1.463 1_655 S
C618 N622 1.427 1_655 S
C619 H609 0.929 . S
C619 C617 1.433 . S
C619 N622 1.384 1_655 S
C620 H611 0.929 . S
C620 C612 1.378 . S
C620 C615 1.350 . S
C621 H608 0.929 . S
C621 C613 1.433 . S
C621 N623 1.384 1_455 S
N622 C618 1.427 1_455 S
N622 C619 1.384 1_455 S
N623 C615 1.427 1_655 S
N623 C621 1.384 1_655 S
H624 C630 0.930 . S
H625 C634 0.930 . S
H626 C639 0.929 . S
H627 C637 0.929 . S
H628 C632 0.929 . S
H629 C638 0.929 . S
C630 H624 0.930 . S
C630 C631 1.367 . S
C630 C638 1.378 . S
C631 C630 1.367 . S
C631 C639 1.433 . S
C632 H628 0.929 . S
C632 C634 1.378 . S
C632 C636 1.350 . S
C633 C636 1.463 . S
C633 C638 1.350 . S
C633 N641 1.427 . S
C634 H625 0.930 . S
C634 C632 1.378 . S
C634 C635 1.367 . S
C635 C634 1.367 . S
C635 C637 1.433 . S
C636 C632 1.350 . S
C636 C633 1.463 . S
C636 N640 1.427 . S
C637 H627 0.929 . S
C637 C635 1.433 . S
C637 N640 1.384 . S
C638 H629 0.929 . S
C638 C630 1.378 . S
C638 C633 1.350 . S
C639 H626 0.929 . S
C639 C631 1.433 . S
C639 N641 1.384 . S
N640 C636 1.427 . S
N640 C637 1.384 . S
N641 C633 1.427 . S
N641 C639 1.384 . S
H642 C648 0.930 . S
H643 C652 0.930 . S
H644 C657 0.929 . S
H645 C655 0.929 . S
H646 C650 0.929 . S
H647 C656 0.929 . S
C648 H642 0.930 . S
C648 C649 1.367 . S
C648 C656 1.378 . S
C649 C648 1.367 . S
C649 C657 1.433 . S
C650 H646 0.929 . S
C650 C652 1.378 . S
C650 C654 1.350 . S
C651 C654 1.463 . S
C651 C656 1.350 . S
C651 N659 1.427 . S
C652 H643 0.930 . S
C652 C650 1.378 . S
C652 C653 1.367 . S
C653 C652 1.367 . S
C653 C655 1.433 . S
C654 C650 1.350 . S
C654 C651 1.463 . S
C654 N658 1.427 . S
C655 H645 0.929 . S
C655 C653 1.433 . S
C655 N658 1.384 . S
C656 H647 0.929 . S
C656 C648 1.378 . S
C656 C651 1.350 . S
C657 H644 0.929 . S
C657 C649 1.433 . S
C657 N659 1.384 . S
N658 C654 1.427 . S
N658 C655 1.384 . S
N659 C651 1.427 . S
N659 C657 1.384 . S
H660 C666 0.930 . S
H661 C670 0.930 . S
H662 C675 0.929 . S
H663 C673 0.929 . S
H664 C668 0.929 . S
H665 C674 0.929 . S
C666 H660 0.930 . S
C666 C667 1.367 . S
C666 C674 1.378 . S
C667 C666 1.367 . S
C667 C675 1.433 . S
C668 H664 0.929 . S
C668 C670 1.378 . S
C668 C672 1.350 . S
C669 C672 1.463 . S
C669 C674 1.350 . S
C669 N677 1.427 . S
C670 H661 0.930 . S
C670 C668 1.378 . S
C670 C671 1.367 . S
C671 C670 1.367 . S
C671 C673 1.433 . S
C672 C668 1.350 . S
C672 C669 1.463 . S
C672 N676 1.427 . S
C673 H663 0.929 . S
C673 C671 1.433 . S
C673 N676 1.384 . S
C674 H665 0.929 . S
C674 C666 1.378 . S
C674 C669 1.350 . S
C675 H662 0.929 . S
C675 C667 1.433 . S
C675 N677 1.384 . S
N676 C672 1.427 . S
N676 C673 1.384 . S
N677 C669 1.427 . S
N677 C675 1.384 . S
H678 C684 0.930 . S
H679 C688 0.930 . S
H680 C693 0.929 . S
H681 C691 0.929 . S
H682 C686 0.929 . S
H683 C692 0.929 . S
C684 H678 0.930 . S
C684 C685 1.367 . S
C684 C692 1.378 . S
C685 C684 1.367 . S
C685 C693 1.433 . S
C686 H682 0.929 . S
C686 C688 1.378 . S
C686 C690 1.350 . S
C687 C690 1.463 . S
C687 C692 1.350 . S
C687 N695 1.427 . S
C688 H679 0.930 . S
C688 C686 1.378 . S
C688 C689 1.367 . S
C689 C688 1.367 . S
C689 C691 1.433 . S
C690 C686 1.350 . S
C690 C687 1.463 . S
C690 N694 1.427 . S
C691 H681 0.929 . S
C691 C689 1.433 . S
C691 N694 1.384 . S
C692 H683 0.929 . S
C692 C684 1.378 . S
C692 C687 1.350 . S
C693 H680 0.929 . S
C693 C685 1.433 . S
C693 N695 1.384 . S
N694 C690 1.427 . S
N694 C691 1.384 . S
N695 C687 1.427 . S
N695 C693 1.384 . S
H696 C702 0.930 . S
H697 C706 0.930 . S
H698 C711 0.929 . S
H699 C709 0.929 . S
H700 C704 0.929 . S
H701 C710 0.929 . S
C702 H696 0.930 . S
C702 C703 1.367 . S
C702 C710 1.378 . S
C703 C702 1.367 . S
C703 C711 1.433 . S
C704 H700 0.929 . S
C704 C706 1.378 . S
C704 C708 1.350 . S
C705 C708 1.463 . S
C705 C710 1.350 . S
C705 N713 1.427 . S
C706 H697 0.930 . S
C706 C704 1.378 . S
C706 C707 1.367 . S
C707 C706 1.367 . S
C707 C709 1.433 . S
C708 C704 1.350 . S
C708 C705 1.463 . S
C708 N712 1.427 . S
C709 H699 0.929 . S
C709 C707 1.433 . S
C709 N712 1.384 . S
C710 H701 0.929 . S
C710 C702 1.378 . S
C710 C705 1.350 . S
C711 H698 0.929 . S
C711 C703 1.433 . S
C711 N713 1.384 . S
N712 C708 1.427 . S
N712 C709 1.384 . S
N713 C705 1.427 . S
N713 C711 1.384 . S
H714 C720 0.930 . S
H715 C724 0.930 . S
H716 C729 0.929 . S
H717 C727 0.929 . S
H718 C722 0.929 . S
H719 C728 0.929 . S
C720 H714 0.930 . S
C720 C721 1.367 . S
C720 C728 1.378 . S
C721 C720 1.367 . S
C721 C729 1.433 . S
C722 H718 0.929 . S
C722 C724 1.378 . S
C722 C726 1.350 . S
C723 C726 1.463 . S
C723 C728 1.350 . S
C723 N731 1.427 . S
C724 H715 0.930 . S
C724 C722 1.378 . S
C724 C725 1.367 . S
C725 C724 1.367 . S
C725 C727 1.433 . S
C726 C722 1.350 . S
C726 C723 1.463 . S
C726 N730 1.427 . S
C727 H717 0.929 . S
C727 C725 1.433 . S
C727 N730 1.384 . S
C728 H719 0.929 . S
C728 C720 1.378 . S
C728 C723 1.350 . S
C729 H716 0.929 . S
C729 C721 1.433 . S
C729 N731 1.384 . S
N730 C726 1.427 . S
N730 C727 1.384 . S
N731 C723 1.427 . S
N731 C729 1.384 . S
H732 C738 0.930 . S
H733 C742 0.930 . S
H734 C747 0.929 . S
H735 C745 0.929 . S
H736 C740 0.929 . S
H737 C746 0.929 . S
C738 H732 0.930 . S
C738 C739 1.367 . S
C738 C746 1.378 . S
C739 C738 1.367 . S
C739 C747 1.433 . S
C740 H736 0.929 . S
C740 C742 1.378 . S
C740 C744 1.350 . S
C741 C744 1.463 1_556 S
C741 C746 1.350 . S
C741 N749 1.427 . S
C742 H733 0.930 . S
C742 C740 1.378 . S
C742 C743 1.367 . S
C743 C742 1.367 . S
C743 C745 1.433 . S
C744 C740 1.350 . S
C744 C741 1.463 1_554 S
C744 N748 1.427 . S
C745 H735 0.929 . S
C745 C743 1.433 . S
C745 N748 1.384 . S
C746 H737 0.929 . S
C746 C738 1.378 . S
C746 C741 1.350 . S
C747 H734 0.929 . S
C747 C739 1.433 . S
C747 N749 1.384 . S
N748 C744 1.427 . S
N748 C745 1.384 . S
N749 C741 1.427 . S
N749 C747 1.384 . S
H750 C756 0.930 . S
H751 C760 0.930 . S
H752 C765 0.929 . S
H753 C763 0.929 . S
H754 C758 0.929 . S
H755 C764 0.929 . S
C756 H750 0.930 . S
C756 C757 1.367 . S
C756 C764 1.378 . S
C757 C756 1.367 . S
C757 C765 1.433 . S
C758 H754 0.929 . S
C758 C760 1.378 . S
C758 C762 1.350 . S
C759 C762 1.463 . S
C759 C764 1.350 . S
C759 N767 1.427 . S
C760 H751 0.930 . S
C760 C758 1.378 . S
C760 C761 1.367 . S
C761 C760 1.367 . S
C761 C763 1.433 . S
C762 C758 1.350 . S
C762 C759 1.463 . S
C762 N766 1.427 . S
C763 H753 0.929 . S
C763 C761 1.433 . S
C763 N766 1.384 . S
C764 H755 0.929 . S
C764 C756 1.378 . S
C764 C759 1.350 . S
C765 H752 0.929 . S
C765 C757 1.433 . S
C765 N767 1.384 . S
N766 C762 1.427 . S
N766 C763 1.384 . S
N767 C759 1.427 . S
N767 C765 1.384 . S
H768 C774 0.930 . S
H769 C778 0.930 . S
H770 C783 0.929 . S
H771 C781 0.929 . S
H772 C776 0.929 . S
H773 C782 0.929 . S
C774 H768 0.930 . S
C774 C775 1.367 . S
C774 C782 1.378 . S
C775 C774 1.367 . S
C775 C783 1.433 . S
C776 H772 0.929 . S
C776 C778 1.378 . S
C776 C780 1.350 . S
C777 C780 1.463 . S
C777 C782 1.350 . S
C777 N785 1.427 . S
C778 H769 0.930 . S
C778 C776 1.378 . S
C778 C779 1.367 . S
C779 C778 1.367 . S
C779 C781 1.433 . S
C780 C776 1.350 . S
C780 C777 1.463 . S
C780 N784 1.427 . S
C781 H771 0.929 . S
C781 C779 1.433 . S
C781 N784 1.384 . S
C782 H773 0.929 . S
C782 C774 1.378 . S
C782 C777 1.350 . S
C783 H770 0.929 . S
C783 C775 1.433 . S
C783 N785 1.384 . S
N784 C780 1.427 . S
N784 C781 1.384 . S
N785 C777 1.427 . S
N785 C783 1.384 . S
H786 C792 0.930 . S
H787 C796 0.930 . S
H788 C801 0.929 . S
H789 C799 0.929 . S
H790 C794 0.929 . S
H791 C800 0.929 . S
C792 H786 0.930 . S
C792 C793 1.367 . S
C792 C800 1.378 . S
C793 C792 1.367 . S
C793 C801 1.433 . S
C794 H790 0.929 . S
C794 C796 1.378 . S
C794 C798 1.350 . S
C795 C798 1.463 1_556 S
C795 C800 1.350 . S
C795 N803 1.427 . S
C796 H787 0.930 . S
C796 C794 1.378 . S
C796 C797 1.367 . S
C797 C796 1.367 . S
C797 C799 1.433 . S
C798 C794 1.350 . S
C798 C795 1.463 1_554 S
C798 N802 1.427 . S
C799 H789 0.929 . S
C799 C797 1.433 . S
C799 N802 1.384 . S
C800 H791 0.929 . S
C800 C792 1.378 . S
C800 C795 1.350 . S
C801 H788 0.929 . S
C801 C793 1.433 . S
C801 N803 1.384 . S
N802 C798 1.427 . S
N802 C799 1.384 . S
N803 C795 1.427 . S
N803 C801 1.384 . S
H804 C810 0.930 . S
H805 C814 0.930 . S
H806 C819 0.929 . S
H807 C817 0.929 . S
H808 C812 0.929 . S
H809 C818 0.929 . S
C810 H804 0.930 . S
C810 C811 1.367 . S
C810 C818 1.378 . S
C811 C810 1.367 . S
C811 C819 1.433 . S
C812 H808 0.929 . S
C812 C814 1.378 . S
C812 C816 1.350 . S
C813 C816 1.463 . S
C813 C818 1.350 . S
C813 N821 1.427 . S
C814 H805 0.930 . S
C814 C812 1.378 . S
C814 C815 1.367 . S
C815 C814 1.367 . S
C815 C817 1.433 . S
C816 C812 1.350 . S
C816 C813 1.463 . S
C816 N820 1.427 . S
C817 H807 0.929 . S
C817 C815 1.433 . S
C817 N820 1.384 . S
C818 H809 0.929 . S
C818 C810 1.378 . S
C818 C813 1.350 . S
C819 H806 0.929 . S
C819 C811 1.433 . S
C819 N821 1.384 . S
N820 C816 1.427 . S
N820 C817 1.384 . S
N821 C813 1.427 . S
N821 C819 1.384 . S
H822 C828 0.930 . S
H823 C832 0.930 . S
H824 C837 0.929 . S
H825 C835 0.929 . S
H826 C830 0.929 . S
H827 C836 0.929 . S
C828 H822 0.930 . S
C828 C829 1.367 . S
C828 C836 1.378 . S
C829 C828 1.367 . S
C829 C837 1.433 . S
C830 H826 0.929 . S
C830 C832 1.378 . S
C830 C834 1.350 . S
C831 C834 1.463 . S
C831 C836 1.350 . S
C831 N839 1.427 . S
C832 H823 0.930 . S
C832 C830 1.378 . S
C832 C833 1.367 . S
C833 C832 1.367 . S
C833 C835 1.433 . S
C834 C830 1.350 . S
C834 C831 1.463 . S
C834 N838 1.427 . S
C835 H825 0.929 . S
C835 C833 1.433 . S
C835 N838 1.384 . S
C836 H827 0.929 . S
C836 C828 1.378 . S
C836 C831 1.350 . S
C837 H824 0.929 . S
C837 C829 1.433 . S
C837 N839 1.384 . S
N838 C834 1.427 . S
N838 C835 1.384 . S
N839 C831 1.427 . S
N839 C837 1.384 . S
H840 C846 0.930 . S
H841 C850 0.930 . S
H842 C855 0.929 . S
H843 C853 0.929 . S
H844 C848 0.929 . S
H845 C854 0.929 . S
C846 H840 0.930 . S
C846 C847 1.367 . S
C846 C854 1.378 . S
C847 C846 1.367 . S
C847 C855 1.433 . S
C848 H844 0.929 . S
C848 C850 1.378 . S
C848 C852 1.350 . S
C849 C852 1.463 1_655 S
C849 C854 1.350 . S
C849 N857 1.427 . S
C850 H841 0.930 . S
C850 C848 1.378 . S
C850 C851 1.367 . S
C851 C850 1.367 . S
C851 C853 1.433 . S
C852 C848 1.350 . S
C852 C849 1.463 1_455 S
C852 N856 1.427 . S
C853 H843 0.929 . S
C853 C851 1.433 . S
C853 N856 1.384 . S
C854 H845 0.929 . S
C854 C846 1.378 . S
C854 C849 1.350 . S
C855 H842 0.929 . S
C855 C847 1.433 . S
C855 N857 1.384 . S
N856 C852 1.427 . S
N856 C853 1.384 . S
N857 C849 1.427 . S
N857 C855 1.384 . S
H858 C864 0.930 . S
H859 C868 0.930 . S
H860 C873 0.929 . S
H861 C871 0.929 . S
H862 C866 0.929 . S
H863 C872 0.929 . S
C864 H858 0.930 . S
C864 C865 1.367 . S
C864 C872 1.378 . S
C865 C864 1.367 . S
C865 C873 1.433 . S
C866 H862 0.929 . S
C866 C868 1.378 . S
C866 C870 1.350 . S
C867 C870 1.463 1_565 S
C867 C872 1.350 . S
C867 N875 1.427 . S
C868 H859 0.930 . S
C868 C866 1.378 . S
C868 C869 1.367 . S
C869 C868 1.367 . S
C869 C871 1.433 . S
C870 C866 1.350 . S
C870 C867 1.463 1_545 S
C870 N874 1.427 . S
C871 H861 0.929 . S
C871 C869 1.433 . S
C871 N874 1.384 . S
C872 H863 0.929 . S
C872 C864 1.378 . S
C872 C867 1.350 . S
C873 H860 0.929 . S
C873 C865 1.433 . S
C873 N875 1.384 . S
N874 C870 1.427 . S
N874 C871 1.384 . S
N875 C867 1.427 . S
N875 C873 1.384 . S
H876 C882 0.930 . S
H877 C886 0.930 . S
H878 C891 0.929 . S
H879 C889 0.929 . S
H880 C884 0.929 . S
H881 C890 0.929 . S
C882 H876 0.930 . S
C882 C883 1.367 . S
C882 C890 1.378 . S
C883 C882 1.367 . S
C883 C891 1.433 . S
C884 H880 0.929 . S
C884 C886 1.378 . S
C884 C888 1.350 . S
C885 C888 1.463 . S
C885 C890 1.350 . S
C885 N893 1.427 . S
C886 H877 0.930 . S
C886 C884 1.378 . S
C886 C887 1.367 . S
C887 C886 1.367 . S
C887 C889 1.433 . S
C888 C884 1.350 . S
C888 C885 1.463 . S
C888 N892 1.427 . S
C889 H879 0.929 . S
C889 C887 1.433 . S
C889 N892 1.384 . S
C890 H881 0.929 . S
C890 C882 1.378 . S
C890 C885 1.350 . S
C891 H878 0.929 . S
C891 C883 1.433 . S
C891 N893 1.384 . S
N892 C888 1.427 . S
N892 C889 1.384 . S
N893 C885 1.427 . S
N893 C891 1.384 . S
H894 C900 0.930 . S
H895 C904 0.930 . S
H896 C909 0.929 . S
H897 C907 0.929 . S
H898 C902 0.929 . S
H899 C908 0.929 . S
C900 H894 0.930 . S
C900 C901 1.367 . S
C900 C908 1.378 . S
C901 C900 1.367 . S
C901 C909 1.433 . S
C902 H898 0.929 . S
C902 C904 1.378 . S
C902 C906 1.350 . S
C903 C906 1.463 1_455 S
C903 C908 1.350 . S
C903 N911 1.427 . S
C904 H895 0.930 . S
C904 C902 1.378 . S
C904 C905 1.367 . S
C905 C904 1.367 . S
C905 C907 1.433 . S
C906 C902 1.350 . S
C906 C903 1.463 1_655 S
C906 N910 1.427 . S
C907 H897 0.929 . S
C907 C905 1.433 . S
C907 N910 1.384 . S
C908 H899 0.929 . S
C908 C900 1.378 . S
C908 C903 1.350 . S
C909 H896 0.929 . S
C909 C901 1.433 . S
C909 N911 1.384 . S
N910 C906 1.427 . S
N910 C907 1.384 . S
N911 C903 1.427 . S
N911 C909 1.384 . S
H912 C918 0.930 . S
H913 C922 0.930 . S
H914 C927 0.929 . S
H915 C925 0.929 . S
H916 C920 0.929 . S
H917 C926 0.929 . S
C918 H912 0.930 . S
C918 C919 1.367 . S
C918 C926 1.378 . S
C919 C918 1.367 . S
C919 C927 1.433 . S
C920 H916 0.929 . S
C920 C922 1.378 . S
C920 C924 1.350 . S
C921 C924 1.463 1_545 S
C921 C926 1.350 . S
C921 N929 1.427 . S
C922 H913 0.930 . S
C922 C920 1.378 . S
C922 C923 1.367 . S
C923 C922 1.367 . S
C923 C925 1.433 . S
C924 C920 1.350 . S
C924 C921 1.463 1_565 S
C924 N928 1.427 . S
C925 H915 0.929 . S
C925 C923 1.433 . S
C925 N928 1.384 . S
C926 H917 0.929 . S
C926 C918 1.378 . S
C926 C921 1.350 . S
C927 H914 0.929 . S
C927 C919 1.433 . S
C927 N929 1.384 . S
N928 C924 1.427 . S
N928 C925 1.384 . S
N929 C921 1.427 . S
N929 C927 1.384 . S
H930 C936 0.930 . S
H931 C940 0.930 . S
H932 C945 0.929 . S
H933 C943 0.929 . S
H934 C938 0.929 . S
H935 C944 0.929 . S
C936 H930 0.930 . S
C936 C937 1.367 . S
C936 C944 1.378 . S
C937 C936 1.367 . S
C937 C945 1.433 . S
C938 H934 0.929 . S
C938 C940 1.378 . S
C938 C942 1.350 . S
C939 C942 1.463 . S
C939 C944 1.350 . S
C939 N947 1.427 . S
C940 H931 0.930 . S
C940 C938 1.378 . S
C940 C941 1.367 . S
C941 C940 1.367 . S
C941 C943 1.433 . S
C942 C938 1.350 . S
C942 C939 1.463 . S
C942 N946 1.427 . S
C943 H933 0.929 . S
C943 C941 1.433 . S
C943 N946 1.384 . S
C944 H935 0.929 . S
C944 C936 1.378 . S
C944 C939 1.350 . S
C945 H932 0.929 . S
C945 C937 1.433 . S
C945 N947 1.384 . S
N946 C942 1.427 . S
N946 C943 1.384 . S
N947 C939 1.427 . S
N947 C945 1.384 . S
C415 C111 1.482 . S
C419 C9 1.482 . S
C433 C145 1.481 . S
C437 C43 1.481 . S
C451 C179 1.482 . S
C455 C77 1.482 . S
C469 C213 1.481 . S
C473 C315 1.481 . S
C487 C247 1.482 . S
C491 C349 1.482 . S
C505 C281 1.482 . S
C509 C383 1.482 . S
C523 C107 0.497 . S
C527 C5 0.508 . S
C541 C39 0.525 . S
C545 C141 0.513 . S
C559 C175 0.518 . S
C563 C73 0.529 . S
C577 C209 0.524 . S
C581 C311 0.511 . S
C595 C345 0.523 . S
C599 C243 0.511 . S
C613 C277 0.492 . S
C617 C379 0.491 . S
C631 C274 1.398 . S
C635 C2 1.404 . S
C649 C36 1.401 . S
C653 C308 1.400 . S
C667 C70 1.412 . S
C671 C342 1.404 . S
C685 C104 1.411 . S
C689 C376 1.410 . S
C703 C138 1.411 . S
C707 C206 1.409 . S
C721 C240 1.412 . S
C725 C172 1.403 . S
C739 C360 1.657 . S
C743 C20 1.659 . S
C757 C394 1.659 . S
C761 C54 1.653 . S
C775 C224 1.653 . S
C779 C88 1.654 . S
C793 C258 1.657 . S
C797 C122 1.652 . S
C811 C156 1.654 . S
C815 C292 1.654 . S
C829 C190 1.660 . S
C833 C326 1.654 . S
C847 C407 1.205 . S
C851 C33 1.223 . S
C865 C237 1.222 . S
C869 C67 1.207 . S
C883 C101 1.220 . S
C887 C271 1.210 . S
C901 C305 1.209 . S
C905 C135 1.221 . S
C919 C339 1.221 . S
C923 C169 1.205 . S
C937 C373 1.211 . S
C941 C203 1.220 . S
