# Generated by pormake.
# Topology ulj, (4)-cn, num edge types: 1
# Building blocks:
#     Node 0, Type 0, BuildingBlock: KOZSID_clean_sbu_0, # of connection points: 4
#     Node 1, Type 0, BuildingBlock: KOZSID_clean_sbu_0, # of connection points: 4
#     Node 2, Type 0, BuildingBlock: KOZSID_clean_sbu_0, # of connection points: 4
#     Node 3, Type 0, BuildingBlock: KOZSID_clean_sbu_0, # of connection points: 4
#     Node 4, Type 0, BuildingBlock: KOZSID_clean_sbu_0, # of connection points: 4
#     Node 5, Type 0, BuildingBlock: KOZSID_clean_sbu_0, # of connection points: 4
#     Node 6, Type 0, BuildingBlock: KOZSID_clean_sbu_0, # of connection points: 4
#     Node 7, Type 0, BuildingBlock: KOZSID_clean_sbu_0, # of connection points: 4
#     Node 8, Type 0, BuildingBlock: KOZSID_clean_sbu_0, # of connection points: 4
#     Node 9, Type 0, BuildingBlock: KOZSID_clean_sbu_0, # of connection points: 4
#     Node 10, Type 0, BuildingBlock: KOZSID_clean_sbu_0, # of connection points: 4
#     Node 11, Type 0, BuildingBlock: KOZSID_clean_sbu_0, # of connection points: 4
#     Node 12, Type 0, BuildingBlock: KOZSID_clean_sbu_0, # of connection points: 4
#     Node 13, Type 0, BuildingBlock: KOZSID_clean_sbu_0, # of connection points: 4
#     Node 14, Type 0, BuildingBlock: KOZSID_clean_sbu_0, # of connection points: 4
#     Node 15, Type 0, BuildingBlock: KOZSID_clean_sbu_0, # of connection points: 4
#     Node 16, Type 0, BuildingBlock: KOZSID_clean_sbu_0, # of connection points: 4
#     Node 17, Type 0, BuildingBlock: KOZSID_clean_sbu_0, # of connection points: 4
#     Node 18, Type 0, BuildingBlock: KOZSID_clean_sbu_0, # of connection points: 4
#     Node 19, Type 0, BuildingBlock: KOZSID_clean_sbu_0, # of connection points: 4
#     Node 20, Type 0, BuildingBlock: KOZSID_clean_sbu_0, # of connection points: 4
#     Node 21, Type 0, BuildingBlock: KOZSID_clean_sbu_0, # of connection points: 4
#     Node 22, Type 0, BuildingBlock: KOZSID_clean_sbu_0, # of connection points: 4
#     Node 23, Type 0, BuildingBlock: KOZSID_clean_sbu_0, # of connection points: 4
#     Node 24, Type 0, BuildingBlock: KOZSID_clean_sbu_0, # of connection points: 4
#     Node 25, Type 0, BuildingBlock: KOZSID_clean_sbu_0, # of connection points: 4
#     Node 26, Type 0, BuildingBlock: KOZSID_clean_sbu_0, # of connection points: 4
#     Node 27, Type 0, BuildingBlock: KOZSID_clean_sbu_0, # of connection points: 4
#     Node 28, Type 0, BuildingBlock: KOZSID_clean_sbu_0, # of connection points: 4
#     Node 29, Type 0, BuildingBlock: KOZSID_clean_sbu_0, # of connection points: 4
#     Node 30, Type 0, BuildingBlock: KOZSID_clean_sbu_0, # of connection points: 4
#     Node 31, Type 0, BuildingBlock: KOZSID_clean_sbu_0, # of connection points: 4
#     Node 32, Type 0, BuildingBlock: KOZSID_clean_sbu_0, # of connection points: 4
#     Node 33, Type 0, BuildingBlock: KOZSID_clean_sbu_0, # of connection points: 4
#     Node 34, Type 0, BuildingBlock: KOZSID_clean_sbu_0, # of connection points: 4
#     Node 35, Type 0, BuildingBlock: KOZSID_clean_sbu_0, # of connection points: 4
#     Node 36, Type 0, BuildingBlock: KOZSID_clean_sbu_0, # of connection points: 4
#     Node 37, Type 0, BuildingBlock: KOZSID_clean_sbu_0, # of connection points: 4
#     Node 38, Type 0, BuildingBlock: KOZSID_clean_sbu_0, # of connection points: 4
#     Node 39, Type 0, BuildingBlock: KOZSID_clean_sbu_0, # of connection points: 4
#     Node 40, Type 0, BuildingBlock: KOZSID_clean_sbu_0, # of connection points: 4
#     Node 41, Type 0, BuildingBlock: KOZSID_clean_sbu_0, # of connection points: 4
#     Node 42, Type 0, BuildingBlock: KOZSID_clean_sbu_0, # of connection points: 4
#     Node 43, Type 0, BuildingBlock: KOZSID_clean_sbu_0, # of connection points: 4
#     Node 44, Type 0, BuildingBlock: KOZSID_clean_sbu_0, # of connection points: 4
#     Node 45, Type 0, BuildingBlock: KOZSID_clean_sbu_0, # of connection points: 4
#     Node 46, Type 0, BuildingBlock: KOZSID_clean_sbu_0, # of connection points: 4
#     Node 47, Type 0, BuildingBlock: KOZSID_clean_sbu_0, # of connection points: 4
#     Edge 48, Type (0, 0), BuildingBlock: AJUNOK_clean_linker_0, # of connection points: 2
#     Edge 49, Type (0, 0), BuildingBlock: AJUNOK_clean_linker_0, # of connection points: 2
#     Edge 50, Type (0, 0), BuildingBlock: AJUNOK_clean_linker_0, # of connection points: 2
#     Edge 51, Type (0, 0), BuildingBlock: AJUNOK_clean_linker_0, # of connection points: 2
#     Edge 52, Type (0, 0), BuildingBlock: AJUNOK_clean_linker_0, # of connection points: 2
#     Edge 53, Type (0, 0), BuildingBlock: AJUNOK_clean_linker_0, # of connection points: 2
#     Edge 54, Type (0, 0), BuildingBlock: AJUNOK_clean_linker_0, # of connection points: 2
#     Edge 55, Type (0, 0), BuildingBlock: AJUNOK_clean_linker_0, # of connection points: 2
#     Edge 56, Type (0, 0), BuildingBlock: AJUNOK_clean_linker_0, # of connection points: 2
#     Edge 57, Type (0, 0), BuildingBlock: AJUNOK_clean_linker_0, # of connection points: 2
#     Edge 58, Type (0, 0), BuildingBlock: AJUNOK_clean_linker_0, # of connection points: 2
#     Edge 59, Type (0, 0), BuildingBlock: AJUNOK_clean_linker_0, # of connection points: 2
#     Edge 60, Type (0, 0), BuildingBlock: AJUNOK_clean_linker_0, # of connection points: 2
#     Edge 61, Type (0, 0), BuildingBlock: AJUNOK_clean_linker_0, # of connection points: 2
#     Edge 62, Type (0, 0), BuildingBlock: AJUNOK_clean_linker_0, # of connection points: 2
#     Edge 63, Type (0, 0), BuildingBlock: AJUNOK_clean_linker_0, # of connection points: 2
#     Edge 64, Type (0, 0), BuildingBlock: AJUNOK_clean_linker_0, # of connection points: 2
#     Edge 65, Type (0, 0), BuildingBlock: AJUNOK_clean_linker_0, # of connection points: 2
#     Edge 66, Type (0, 0), BuildingBlock: AJUNOK_clean_linker_0, # of connection points: 2
#     Edge 67, Type (0, 0), BuildingBlock: AJUNOK_clean_linker_0, # of connection points: 2
#     Edge 68, Type (0, 0), BuildingBlock: AJUNOK_clean_linker_0, # of connection points: 2
#     Edge 69, Type (0, 0), BuildingBlock: AJUNOK_clean_linker_0, # of connection points: 2
#     Edge 70, Type (0, 0), BuildingBlock: AJUNOK_clean_linker_0, # of connection points: 2
#     Edge 71, Type (0, 0), BuildingBlock: AJUNOK_clean_linker_0, # of connection points: 2
#     Edge 72, Type (0, 0), BuildingBlock: AJUNOK_clean_linker_0, # of connection points: 2
#     Edge 73, Type (0, 0), BuildingBlock: AJUNOK_clean_linker_0, # of connection points: 2
#     Edge 74, Type (0, 0), BuildingBlock: AJUNOK_clean_linker_0, # of connection points: 2
#     Edge 75, Type (0, 0), BuildingBlock: AJUNOK_clean_linker_0, # of connection points: 2
#     Edge 76, Type (0, 0), BuildingBlock: AJUNOK_clean_linker_0, # of connection points: 2
#     Edge 77, Type (0, 0), BuildingBlock: AJUNOK_clean_linker_0, # of connection points: 2
#     Edge 78, Type (0, 0), BuildingBlock: AJUNOK_clean_linker_0, # of connection points: 2
#     Edge 79, Type (0, 0), BuildingBlock: AJUNOK_clean_linker_0, # of connection points: 2
#     Edge 80, Type (0, 0), BuildingBlock: AJUNOK_clean_linker_0, # of connection points: 2
#     Edge 81, Type (0, 0), BuildingBlock: AJUNOK_clean_linker_0, # of connection points: 2
#     Edge 82, Type (0, 0), BuildingBlock: AJUNOK_clean_linker_0, # of connection points: 2
#     Edge 83, Type (0, 0), BuildingBlock: AJUNOK_clean_linker_0, # of connection points: 2
#     Edge 84, Type (0, 0), BuildingBlock: AJUNOK_clean_linker_0, # of connection points: 2
#     Edge 85, Type (0, 0), BuildingBlock: AJUNOK_clean_linker_0, # of connection points: 2
#     Edge 86, Type (0, 0), BuildingBlock: AJUNOK_clean_linker_0, # of connection points: 2
#     Edge 87, Type (0, 0), BuildingBlock: AJUNOK_clean_linker_0, # of connection points: 2
#     Edge 88, Type (0, 0), BuildingBlock: AJUNOK_clean_linker_0, # of connection points: 2
#     Edge 89, Type (0, 0), BuildingBlock: AJUNOK_clean_linker_0, # of connection points: 2
#     Edge 90, Type (0, 0), BuildingBlock: AJUNOK_clean_linker_0, # of connection points: 2
#     Edge 91, Type (0, 0), BuildingBlock: AJUNOK_clean_linker_0, # of connection points: 2
#     Edge 92, Type (0, 0), BuildingBlock: AJUNOK_clean_linker_0, # of connection points: 2
#     Edge 93, Type (0, 0), BuildingBlock: AJUNOK_clean_linker_0, # of connection points: 2
#     Edge 94, Type (0, 0), BuildingBlock: AJUNOK_clean_linker_0, # of connection points: 2
#     Edge 95, Type (0, 0), BuildingBlock: AJUNOK_clean_linker_0, # of connection points: 2
#     Edge 96, Type (0, 0), BuildingBlock: AJUNOK_clean_linker_0, # of connection points: 2
#     Edge 97, Type (0, 0), BuildingBlock: AJUNOK_clean_linker_0, # of connection points: 2
#     Edge 98, Type (0, 0), BuildingBlock: AJUNOK_clean_linker_0, # of connection points: 2
#     Edge 99, Type (0, 0), BuildingBlock: AJUNOK_clean_linker_0, # of connection points: 2
#     Edge 100, Type (0, 0), BuildingBlock: AJUNOK_clean_linker_0, # of connection points: 2
#     Edge 101, Type (0, 0), BuildingBlock: AJUNOK_clean_linker_0, # of connection points: 2
#     Edge 102, Type (0, 0), BuildingBlock: AJUNOK_clean_linker_0, # of connection points: 2
#     Edge 103, Type (0, 0), BuildingBlock: AJUNOK_clean_linker_0, # of connection points: 2
#     Edge 104, Type (0, 0), BuildingBlock: AJUNOK_clean_linker_0, # of connection points: 2
#     Edge 105, Type (0, 0), BuildingBlock: AJUNOK_clean_linker_0, # of connection points: 2
#     Edge 106, Type (0, 0), BuildingBlock: AJUNOK_clean_linker_0, # of connection points: 2
#     Edge 107, Type (0, 0), BuildingBlock: AJUNOK_clean_linker_0, # of connection points: 2
#     Edge 108, Type (0, 0), BuildingBlock: AJUNOK_clean_linker_0, # of connection points: 2
#     Edge 109, Type (0, 0), BuildingBlock: AJUNOK_clean_linker_0, # of connection points: 2
#     Edge 110, Type (0, 0), BuildingBlock: AJUNOK_clean_linker_0, # of connection points: 2
#     Edge 111, Type (0, 0), BuildingBlock: AJUNOK_clean_linker_0, # of connection points: 2
#     Edge 112, Type (0, 0), BuildingBlock: AJUNOK_clean_linker_0, # of connection points: 2
#     Edge 113, Type (0, 0), BuildingBlock: AJUNOK_clean_linker_0, # of connection points: 2
#     Edge 114, Type (0, 0), BuildingBlock: AJUNOK_clean_linker_0, # of connection points: 2
#     Edge 115, Type (0, 0), BuildingBlock: AJUNOK_clean_linker_0, # of connection points: 2
#     Edge 116, Type (0, 0), BuildingBlock: AJUNOK_clean_linker_0, # of connection points: 2
#     Edge 117, Type (0, 0), BuildingBlock: AJUNOK_clean_linker_0, # of connection points: 2
#     Edge 118, Type (0, 0), BuildingBlock: AJUNOK_clean_linker_0, # of connection points: 2
#     Edge 119, Type (0, 0), BuildingBlock: AJUNOK_clean_linker_0, # of connection points: 2
#     Edge 120, Type (0, 0), BuildingBlock: AJUNOK_clean_linker_0, # of connection points: 2
#     Edge 121, Type (0, 0), BuildingBlock: AJUNOK_clean_linker_0, # of connection points: 2
#     Edge 122, Type (0, 0), BuildingBlock: AJUNOK_clean_linker_0, # of connection points: 2
#     Edge 123, Type (0, 0), BuildingBlock: AJUNOK_clean_linker_0, # of connection points: 2
#     Edge 124, Type (0, 0), BuildingBlock: AJUNOK_clean_linker_0, # of connection points: 2
#     Edge 125, Type (0, 0), BuildingBlock: AJUNOK_clean_linker_0, # of connection points: 2
#     Edge 126, Type (0, 0), BuildingBlock: AJUNOK_clean_linker_0, # of connection points: 2
#     Edge 127, Type (0, 0), BuildingBlock: AJUNOK_clean_linker_0, # of connection points: 2
#     Edge 128, Type (0, 0), BuildingBlock: AJUNOK_clean_linker_0, # of connection points: 2
#     Edge 129, Type (0, 0), BuildingBlock: AJUNOK_clean_linker_0, # of connection points: 2
#     Edge 130, Type (0, 0), BuildingBlock: AJUNOK_clean_linker_0, # of connection points: 2
#     Edge 131, Type (0, 0), BuildingBlock: AJUNOK_clean_linker_0, # of connection points: 2
#     Edge 132, Type (0, 0), BuildingBlock: AJUNOK_clean_linker_0, # of connection points: 2
#     Edge 133, Type (0, 0), BuildingBlock: AJUNOK_clean_linker_0, # of connection points: 2
#     Edge 134, Type (0, 0), BuildingBlock: AJUNOK_clean_linker_0, # of connection points: 2
#     Edge 135, Type (0, 0), BuildingBlock: AJUNOK_clean_linker_0, # of connection points: 2
#     Edge 136, Type (0, 0), BuildingBlock: AJUNOK_clean_linker_0, # of connection points: 2
#     Edge 137, Type (0, 0), BuildingBlock: AJUNOK_clean_linker_0, # of connection points: 2
#     Edge 138, Type (0, 0), BuildingBlock: AJUNOK_clean_linker_0, # of connection points: 2
#     Edge 139, Type (0, 0), BuildingBlock: AJUNOK_clean_linker_0, # of connection points: 2
#     Edge 140, Type (0, 0), BuildingBlock: AJUNOK_clean_linker_0, # of connection points: 2
#     Edge 141, Type (0, 0), BuildingBlock: AJUNOK_clean_linker_0, # of connection points: 2
#     Edge 142, Type (0, 0), BuildingBlock: AJUNOK_clean_linker_0, # of connection points: 2
#     Edge 143, Type (0, 0), BuildingBlock: AJUNOK_clean_linker_0, # of connection points: 2
# Relax obj value: 0.027
# Max RMSD: 0.196
# Mean RMSD: 0.196
data_MOF--net-ulj--node1-KOZSID_clean_sbu_0--edge1-AJUNOK_clean_linker_0
_symmetry_space_group_name_H-M    P1
_symmetry_Int_Tables_number       1
_symmetry_cell_setting            triclinic
loop_
_symmetry_equiv_pos_as_xyz
'x, y, z'
_cell_length_a     61.969248
_cell_length_b     61.875092
_cell_length_c     61.935432
_cell_angle_alpha  89.988249
_cell_angle_beta   90.03888
_cell_angle_gamma 89.947301
loop_
_atom_site_label
_atom_site_type_symbol
_atom_site_fract_x
_atom_site_fract_y
_atom_site_fract_z
_atom_type_partial_charge
C0 C 0.15221 0.27859 0.2795 0.0
C1 C 0.14315 0.27606 0.25913 0.0
C2 C 0.12603 0.26246 0.26144 0.0
C3 C 0.12558 0.25744 0.28297 0.0
N4 N 0.14116 0.26723 0.29466 0.0
Co5 Co 0.14612 0.26389 0.32653 0.0
N6 N 0.12309 0.24126 0.32903 0.0
C7 C 0.11213 0.23219 0.31252 0.0
C8 C 0.09781 0.21656 0.31878 0.0
C9 C 0.0995 0.21574 0.3407 0.0
C10 C 0.11465 0.23119 0.34659 0.0
N11 N 0.14972 0.26165 0.35873 0.0
C12 C 0.13769 0.25096 0.37376 0.0
C13 C 0.14443 0.25579 0.39456 0.0
C14 C 0.16116 0.27007 0.39265 0.0
C15 C 0.16359 0.27333 0.37087 0.0
N16 N 0.17026 0.28531 0.32356 0.0
C17 C 0.18333 0.29214 0.33964 0.0
C18 C 0.20002 0.30489 0.33262 0.0
C19 C 0.19779 0.30579 0.31066 0.0
C20 C 0.17978 0.29355 0.30552 0.0
N21 N 0.12454 0.28735 0.33213 0.0
C22 C 0.09395 0.31843 0.34666 0.0
C23 C 0.11605 0.321 0.35033 0.0
C24 C 0.13082 0.30573 0.34278 0.0
C25 C 0.08749 0.30016 0.33485 0.0
C26 C 0.10295 0.28502 0.32762 0.0
N27 N 0.16831 0.24086 0.32135 0.0
C28 C 0.20333 0.22596 0.33081 0.0
C29 C 0.20512 0.21541 0.31096 0.0
C30 C 0.18752 0.217 0.29676 0.0
C31 C 0.1693 0.22949 0.30232 0.0
C32 C 0.18496 0.23812 0.33573 0.0
H33 H 0.15643 0.23014 0.29077 0.0
H34 H 0.18514 0.24577 0.3511 0.0
H35 H 0.14725 0.30891 0.34653 0.0
H36 H 0.09709 0.2713 0.31881 0.0
C37 C 0.11337 0.24085 0.29186 0.0
C38 C 0.1725 0.29004 0.28323 0.0
C39 C 0.11951 0.23648 0.36907 0.0
C40 C 0.17915 0.28655 0.36116 0.0
H41 H 0.14888 0.28243 0.24392 0.0
H42 H 0.11601 0.25589 0.24872 0.0
H43 H 0.08674 0.20754 0.3087 0.0
H44 H 0.0901 0.2054 0.35118 0.0
H45 H 0.1378 0.24976 0.40955 0.0
H46 H 0.17036 0.27733 0.40561 0.0
H47 H 0.21248 0.31241 0.34228 0.0
H48 H 0.20835 0.31427 0.29962 0.0
H49 H 0.12208 0.33436 0.35987 0.0
H50 H 0.07058 0.2974 0.33144 0.0
H51 H 0.21645 0.22559 0.34236 0.0
H52 H 0.18785 0.20879 0.28132 0.0
C53 C 0.54464 0.60158 0.9709 0.0
C54 C 0.55667 0.58296 0.9674 0.0
C55 C 0.55096 0.57526 0.94748 0.0
C56 C 0.53595 0.58962 0.93976 0.0
N57 N 0.53222 0.60625 0.95335 0.0
Co58 Co 0.51052 0.62954 0.94849 0.0
N59 N 0.50689 0.62209 0.91735 0.0
C60 C 0.51356 0.60377 0.90779 0.0
C61 C 0.50954 0.60355 0.88596 0.0
C62 C 0.49971 0.62297 0.88152 0.0
C63 C 0.49821 0.63397 0.90096 0.0
N64 N 0.48821 0.65223 0.94393 0.0
C65 C 0.48048 0.66099 0.92543 0.0
C66 C 0.46437 0.67604 0.92968 0.0
C67 C 0.46218 0.67691 0.95161 0.0
C68 C 0.4769 0.66234 0.95947 0.0
N69 N 0.51442 0.63795 0.97945 0.0
C70 C 0.50105 0.65094 0.99072 0.0
C71 C 0.50675 0.65333 1.01191 0.0
C72 C 0.52461 0.64071 1.01448 0.0
C73 C 0.52896 0.63123 0.99454 0.0
N74 N 0.53363 0.64985 0.93989 0.0
C75 C 0.56544 0.67819 0.9234 0.0
C76 C 0.54892 0.68578 0.93704 0.0
C77 C 0.53331 0.67132 0.94529 0.0
C78 C 0.56561 0.65614 0.91845 0.0
C79 C 0.54978 0.64243 0.92676 0.0
N80 N 0.48776 0.60831 0.9565 0.0
C81 C 0.4767 0.57879 0.97961 0.0
C82 C 0.46299 0.57039 0.96364 0.0
C83 C 0.46019 0.58299 0.94492 0.0
C84 C 0.47226 0.60209 0.94194 0.0
C85 C 0.48919 0.59716 0.97556 0.0
H86 H 0.4697 0.61117 0.9273 0.0
H87 H 0.50064 0.6015 0.98775 0.0
H88 H 0.52078 0.67758 0.95565 0.0
H89 H 0.55039 0.62583 0.92182 0.0
C90 C 0.52649 0.58908 0.91916 0.0
C91 C 0.5439 0.61284 0.99192 0.0
C92 C 0.48754 0.65509 0.90365 0.0
C93 C 0.4835 0.66097 0.98087 0.0
H94 H 0.56794 0.57537 0.97841 0.0
H95 H 0.5571 0.56094 0.93954 0.0
H96 H 0.51403 0.59117 0.87446 0.0
H97 H 0.49432 0.62842 0.86582 0.0
H98 H 0.4553 0.68558 0.91818 0.0
H99 H 0.45189 0.6877 0.96074 0.0
H100 H 0.49857 0.66269 0.02419 0.0
H101 H 0.53248 0.63787 0.02978 0.0
H102 H 0.54799 0.70275 0.94123 0.0
H103 H 0.5775 0.64951 0.90748 0.0
H104 H 0.47836 0.57099 0.99515 0.0
H105 H 0.44934 0.57785 0.93222 0.0
C106 C 0.88471 0.25035 0.27812 0.0
C107 C 0.89471 0.25288 0.25823 0.0
C108 C 0.90856 0.26992 0.26024 0.0
C109 C 0.90642 0.27665 0.28121 0.0
N110 N 0.89252 0.26465 0.29286 0.0
Co111 Co 0.88513 0.26905 0.32407 0.0
N112 N 0.90782 0.29165 0.32754 0.0
C113 C 0.91803 0.30207 0.31141 0.0
C114 C 0.93247 0.31728 0.31848 0.0
C115 C 0.9315 0.31635 0.34048 0.0
C116 C 0.91656 0.30043 0.34561 0.0
N117 N 0.87894 0.27273 0.35556 0.0
C118 C 0.89105 0.28209 0.37139 0.0
C119 C 0.88125 0.27983 0.39138 0.0
C120 C 0.86225 0.26901 0.38793 0.0
C121 C 0.86158 0.26509 0.36611 0.0
N122 N 0.86161 0.24725 0.32018 0.0
C123 C 0.84584 0.24319 0.33465 0.0
C124 C 0.83021 0.2295 0.32702 0.0
C125 C 0.83604 0.22504 0.3062 0.0
C126 C 0.85502 0.23625 0.30228 0.0
N127 N 0.90604 0.24614 0.33211 0.0
C128 C 0.93601 0.21589 0.34891 0.0
C129 C 0.91399 0.21459 0.35379 0.0
C130 C 0.89945 0.2297 0.34535 0.0
C131 C 0.94258 0.23231 0.33464 0.0
C132 C 0.92737 0.24714 0.32635 0.0
N133 N 0.86344 0.29175 0.31664 0.0
C134 C 0.83658 0.31743 0.32909 0.0
C135 C 0.82475 0.31537 0.30981 0.0
C136 C 0.83418 0.30314 0.29329 0.0
C137 C 0.8531 0.29141 0.29708 0.0
C138 C 0.85605 0.306 0.33193 0.0
H139 H 0.85868 0.28167 0.28405 0.0
H140 H 0.86455 0.30823 0.34694 0.0
H141 H 0.88294 0.22835 0.35032 0.0
H142 H 0.93303 0.25967 0.31569 0.0
C143 C 0.91687 0.29432 0.29036 0.0
C144 C 0.86485 0.23776 0.28073 0.0
C145 C 0.91115 0.29429 0.36781 0.0
C146 C 0.84656 0.25208 0.35542 0.0
H147 H 0.89121 0.24428 0.24341 0.0
H148 H 0.91847 0.27699 0.24771 0.0
H149 H 0.94327 0.32705 0.30882 0.0
H150 H 0.94103 0.32605 0.35145 0.0
H151 H 0.88716 0.28548 0.40682 0.0
H152 H 0.85069 0.26396 0.4 0.0
H153 H 0.81603 0.22376 0.33545 0.0
H154 H 0.82694 0.21526 0.29494 0.0
H155 H 0.90802 0.20239 0.36481 0.0
H156 H 0.95935 0.2338 0.33002 0.0
H157 H 0.83063 0.32729 0.34223 0.0
H158 H 0.82692 0.30227 0.27742 0.0
C159 C 0.48498 0.92655 0.97024 0.0
C160 C 0.4713 0.94391 0.96632 0.0
C161 C 0.47617 0.95151 0.94615 0.0
C162 C 0.49229 0.93828 0.93869 0.0
N163 N 0.49752 0.92238 0.95267 0.0
Co164 Co 0.52071 0.90048 0.94803 0.0
N165 N 0.52361 0.90773 0.91676 0.0
C166 C 0.51568 0.92542 0.90695 0.0
C167 C 0.51975 0.92572 0.88514 0.0
C168 C 0.53095 0.90701 0.88095 0.0
C169 C 0.53306 0.89632 0.9005 0.0
N170 N 0.54438 0.87914 0.94363 0.0
C171 C 0.55248 0.87062 0.92518 0.0
C172 C 0.56902 0.85608 0.92952 0.0
C173 C 0.57126 0.85542 0.95146 0.0
C174 C 0.55605 0.86951 0.95925 0.0
N175 N 0.51749 0.89231 0.97917 0.0
C176 C 0.53137 0.87988 0.99046 0.0
C177 C 0.52575 0.87725 1.01165 0.0
C178 C 0.5074 0.88915 1.01421 0.0
C179 C 0.50277 0.89852 0.9943 0.0
N180 N 0.49894 0.87852 0.93988 0.0
C181 C 0.46941 0.84757 0.92369 0.0
C182 C 0.48615 0.84155 0.93785 0.0
C183 C 0.50061 0.85726 0.94589 0.0
C184 C 0.46784 0.86944 0.91811 0.0
C185 C 0.4825 0.88446 0.92634 0.0
N186 N 0.54222 0.9232 0.95554 0.0
C187 C 0.55242 0.95317 0.97849 0.0
C188 C 0.56556 0.96214 0.96235 0.0
C189 C 0.56848 0.9497 0.94355 0.0
C190 C 0.55717 0.93012 0.94075 0.0
C191 C 0.54062 0.93429 0.97461 0.0
H192 H 0.55998 0.92114 0.92611 0.0
H193 H 0.52973 0.92934 0.98704 0.0
H194 H 0.51338 0.85213 0.95657 0.0
H195 H 0.48079 0.90086 0.921 0.0
C196 C 0.50165 0.93922 0.91808 0.0
C197 C 0.48727 0.91644 0.99172 0.0
C198 C 0.54516 0.87607 0.90338 0.0
C199 C 0.54931 0.87058 0.98062 0.0
H200 H 0.45966 0.9509 0.97731 0.0
H201 H 0.46882 0.96509 0.93792 0.0
H202 H 0.51446 0.93765 0.8735 0.0
H203 H 0.53688 0.9018 0.86536 0.0
H204 H 0.57825 0.84664 0.91808 0.0
H205 H 0.58184 0.84495 0.96066 0.0
H206 H 0.53426 0.86815 0.02393 0.0
H207 H 0.49927 0.89154 0.02943 0.0
H208 H 0.48814 0.82482 0.94258 0.0
H209 H 0.45577 0.87495 0.90671 0.0
H210 H 0.55078 0.96081 0.99411 0.0
H211 H 0.57891 0.95525 0.93069 0.0
C212 C 0.1438 0.74683 0.25249 0.0
C213 C 0.13494 0.74982 0.27295 0.0
C214 C 0.12249 0.76795 0.27205 0.0
C215 C 0.12428 0.77513 0.25127 0.0
N216 N 0.13666 0.76242 0.23863 0.0
Co217 Co 0.14382 0.76833 0.20764 0.0
N218 N 0.12192 0.79189 0.20565 0.0
C219 C 0.11242 0.80194 0.22239 0.0
C220 C 0.09814 0.81774 0.21629 0.0
C221 C 0.09854 0.81765 0.19424 0.0
C222 C 0.11305 0.80165 0.18815 0.0
N223 N 0.15048 0.77427 0.17665 0.0
C224 C 0.13882 0.78517 0.16148 0.0
C225 C 0.14908 0.7846 0.1416 0.0
C226 C 0.16785 0.77319 0.14449 0.0
C227 C 0.168 0.76731 0.16588 0.0
N228 N 0.166 0.74495 0.20975 0.0
C229 C 0.18133 0.74078 0.19487 0.0
C230 C 0.19437 0.7237 0.20031 0.0
C231 C 0.18728 0.71704 0.22017 0.0
C232 C 0.17049 0.73072 0.22595 0.0
N233 N 0.12208 0.74686 0.19826 0.0
C234 C 0.09178 0.71659 0.18239 0.0
C235 C 0.11317 0.71661 0.17524 0.0
C236 C 0.12785 0.73174 0.18318 0.0
C237 C 0.08586 0.73209 0.19793 0.0
C238 C 0.10128 0.74698 0.20574 0.0
N239 N 0.16617 0.7895 0.21649 0.0
C240 C 0.18871 0.82056 0.20871 0.0
C241 C 0.20353 0.81457 0.22494 0.0
C242 C 0.19824 0.79657 0.23755 0.0
C243 C 0.1796 0.78468 0.23333 0.0
C244 C 0.17023 0.80782 0.20472 0.0
H245 H 0.17667 0.77106 0.24341 0.0
H246 H 0.15954 0.81252 0.19177 0.0
H247 H 0.14386 0.73129 0.17666 0.0
H248 H 0.0963 0.75868 0.21765 0.0
C249 C 0.11426 0.79352 0.24309 0.0
C250 C 0.16194 0.73192 0.24819 0.0
C251 C 0.11855 0.79691 0.16565 0.0
C252 C 0.18187 0.75213 0.1753 0.0
H253 H 0.13785 0.74075 0.28753 0.0
H254 H 0.11358 0.77531 0.28516 0.0
H255 H 0.0879 0.82746 0.2266 0.0
H256 H 0.0891 0.8281 0.18386 0.0
H257 H 0.14351 0.79156 0.12656 0.0
H258 H 0.17946 0.7688 0.13219 0.0
H259 H 0.20753 0.71694 0.19102 0.0
H260 H 0.19447 0.7044 0.2299 0.0
H261 H 0.11852 0.70526 0.16303 0.0
H262 H 0.06951 0.73267 0.20407 0.0
H263 H 0.19125 0.83492 0.19907 0.0
H264 H 0.20876 0.79113 0.25039 0.0
C265 C 0.98709 0.60405 0.06001 0.0
C266 C 0.97685 0.58428 0.06271 0.0
C267 C 0.98244 0.57683 0.08277 0.0
C268 C 0.99582 0.59232 0.09122 0.0
N269 N 0.99866 0.60939 0.07795 0.0
Co270 Co 0.01973 0.63325 0.08301 0.0
N271 N 0.02372 0.62548 0.11404 0.0
C272 C 0.01746 0.60694 0.12345 0.0
C273 C 0.02166 0.60652 0.14525 0.0
C274 C 0.03115 0.62606 0.14982 0.0
C275 C 0.03228 0.6373 0.1305 0.0
N276 N 0.04151 0.65641 0.08764 0.0
C277 C 0.04933 0.66494 0.1062 0.0
C278 C 0.06484 0.68059 0.10201 0.0
C279 C 0.06647 0.68217 0.08007 0.0
C280 C 0.05205 0.66738 0.07211 0.0
N281 N 0.01514 0.6422 0.05236 0.0
C282 C 0.02706 0.65666 0.0413 0.0
C283 C 0.01956 0.66054 0.02085 0.0
C284 C 1.00207 0.64732 0.01857 0.0
C285 C 1.00012 0.63579 0.03773 0.0
N286 N 0.99625 0.65285 0.09206 0.0
C287 C 0.96422 0.68041 0.10929 0.0
C288 C 0.98039 0.68844 0.09553 0.0
C289 C 0.99612 0.67439 0.08695 0.0
C290 C 0.96441 0.65828 0.1139 0.0
C291 C 0.98033 0.64492 0.10517 0.0
N292 N 0.04293 0.61266 0.07452 0.0
C293 C 0.05405 0.5837 0.05075 0.0
C294 C 0.06655 0.57408 0.06705 0.0
C295 C 0.06914 0.58598 0.08624 0.0
C296 C 0.05778 0.60547 0.08933 0.0
C297 C 0.04212 0.60245 0.05492 0.0
H298 H 0.06023 0.61398 0.10431 0.0
H299 H 0.03154 0.60785 0.04238 0.0
H300 H 1.00841 0.68105 0.07659 0.0
H301 H 0.98006 0.6282 0.10976 0.0
C302 C 1.00516 0.59192 0.11186 0.0
C303 C 0.98722 0.61596 0.03939 0.0
C304 C 0.04261 0.65858 0.12796 0.0
C305 C 0.04461 0.66691 0.05091 0.0
H306 H 0.96696 0.57573 0.05113 0.0
H307 H 0.97753 0.56179 0.0902 0.0
H308 H 0.01761 0.59387 0.15661 0.0
H309 H 0.03662 0.6314 0.16553 0.0
H310 H 0.07374 0.69021 0.11357 0.0
H311 H 0.07604 0.69367 0.07104 0.0
H312 H 0.02617 0.67147 1.00892 0.0
H313 H 0.99268 0.64533 1.00396 0.0
H314 H 0.98099 0.70548 0.09156 0.0
H315 H 0.95279 0.65131 0.12494 0.0
H316 H 0.05285 0.57657 0.03485 0.0
H317 H 0.0792 0.58 0.09921 0.0
C318 C 0.87993 0.7787 0.25192 0.0
C319 C 0.88912 0.77731 0.27232 0.0
C320 C 0.90802 0.76607 0.26998 0.0
C321 C 0.90934 0.76134 0.24836 0.0
N322 N 0.89255 0.76902 0.2369 0.0
Co323 Co 0.88816 0.76582 0.20526 0.0
N324 N 0.90904 0.74132 0.2037 0.0
C325 C 0.923 0.73549 0.21936 0.0
C326 C 0.93535 0.71789 0.21407 0.0
C327 C 0.92919 0.71252 0.19357 0.0
C328 C 0.91353 0.72738 0.18738 0.0
N329 N 0.88416 0.76297 0.17343 0.0
C330 C 0.89192 0.74801 0.15929 0.0
C331 C 0.88671 0.75352 0.1382 0.0
C332 C 0.87571 0.77274 0.13913 0.0
C333 C 0.87482 0.77794 0.16065 0.0
N334 N 0.86701 0.78996 0.20746 0.0
C335 C 0.85941 0.80181 0.19093 0.0
C336 C 0.84385 0.81633 0.19726 0.0
C337 C 0.84153 0.81338 0.21913 0.0
C338 C 0.85596 0.79727 0.225 0.0
N339 N 0.91175 0.7867 0.19952 0.0
C340 C 0.94055 0.81866 0.18416 0.0
C341 C 0.92567 0.82327 0.20069 0.0
C342 C 0.91164 0.80702 0.20833 0.0
C343 C 0.94127 0.79744 0.17639 0.0
C344 C 0.92702 0.78186 0.1843 0.0
N345 N 0.86427 0.74538 0.21028 0.0
C346 C 0.82751 0.7347 0.20271 0.0
C347 C 0.82806 0.71917 0.21912 0.0
C348 C 0.84754 0.71654 0.23054 0.0
C349 C 0.86541 0.72976 0.22588 0.0
C350 C 0.84561 0.74753 0.1986 0.0
H351 H 0.88 0.72759 0.23512 0.0
H352 H 0.84419 0.75963 0.18623 0.0
H353 H 0.90012 0.81118 0.22073 0.0
H354 H 0.92781 0.76619 0.17705 0.0
C355 C 0.92309 0.74597 0.23932 0.0
C356 C 0.85953 0.78976 0.24735 0.0
C357 C 0.90651 0.73004 0.16485 0.0
C358 C 0.86408 0.79581 0.16961 0.0
H359 H 0.88268 0.78346 0.28735 0.0
H360 H 0.91879 0.76085 0.28272 0.0
H361 H 0.94744 0.70996 0.22389 0.0
H362 H 0.93622 0.69977 0.18388 0.0
H363 H 0.89103 0.7449 0.12363 0.0
H364 H 0.86921 0.78184 0.12569 0.0
H365 H 0.83442 0.82694 0.18704 0.0
H366 H 0.83033 0.8219 0.22948 0.0
H367 H 0.92456 0.83941 0.20735 0.0
H368 H 0.95201 0.793 0.16333 0.0
H369 H 0.8129 0.73744 0.19349 0.0
H370 H 0.84898 0.7044 0.24305 0.0
C371 C 0.0475 0.92958 0.06246 0.0
C372 C 0.05885 0.94858 0.06607 0.0
C373 C 0.05255 0.9562 0.08583 0.0
C374 C 0.03768 0.94158 0.09322 0.0
N375 N 0.03452 0.92484 0.07963 0.0
Co376 Co 1.01192 0.90205 0.0834 0.0
N377 N 1.00646 0.9102 0.11408 0.0
C378 C 1.01277 0.9286 0.1237 0.0
C379 C 1.00704 0.92956 0.14511 0.0
C380 C 0.99642 0.91053 0.14923 0.0
C381 C 0.99629 0.89903 0.13003 0.0
N382 N 0.98905 0.87969 0.08691 0.0
C383 C 0.98008 0.87143 0.10509 0.0
C384 C 0.96475 0.85583 0.1002 0.0
C385 C 0.96419 0.85419 0.07819 0.0
C386 C 0.97913 0.86882 0.07091 0.0
N387 N 0.01744 0.89334 0.05283 0.0
C388 C 1.00541 0.87948 0.04112 0.0
C389 C 1.01346 0.87567 0.02087 0.0
C390 C 0.03146 0.88831 0.01941 0.0
C391 C 0.03319 0.89942 0.03882 0.0
N392 N 0.03402 0.88128 0.09349 0.0
C393 C 0.06393 0.85172 0.11149 0.0
C394 C 0.04855 0.84501 0.0962 0.0
C395 C 0.03387 0.86002 0.08732 0.0
C396 C 0.06394 0.87359 0.11737 0.0
C397 C 0.04909 0.88796 0.10821 0.0
N398 N 0.98994 0.92337 0.07394 0.0
C399 C 0.98124 0.95451 0.05202 0.0
C400 C 0.96351 0.95965 0.06508 0.0
C401 C 0.95851 0.94528 0.08195 0.0
C402 C 0.97183 0.92725 0.08603 0.0
C403 C 0.99396 0.93642 0.05657 0.0
H404 H 0.96781 0.91686 0.09943 0.0
H405 H 1.0076 0.93367 0.04642 0.0
H406 H 0.0222 0.85429 0.07576 0.0
H407 H 0.04952 0.90446 0.1136 0.0
C408 C 0.02681 0.94271 0.11304 0.0
C409 C 0.04712 0.91849 0.04134 0.0
C410 C 0.98539 0.87818 0.1271 0.0
C411 C 0.98738 0.86943 0.05002 0.0
H412 H 0.06979 0.95671 0.05517 0.0
H413 H 0.05787 0.9709 0.09366 0.0
H414 H 1.01083 0.94219 0.15659 0.0
H415 H 0.98954 0.90566 0.16453 0.0
H416 H 0.95524 0.84634 0.11137 0.0
H417 H 0.95492 0.84279 0.06873 0.0
H418 H 1.00693 0.86511 1.00857 0.0
H419 H 0.04147 0.89014 1.00521 0.0
H420 H 0.0478 0.82827 0.09117 0.0
H421 H 0.07495 0.87957 0.12956 0.0
H422 H 0.98583 0.96486 0.03869 0.0
H423 H 0.94452 0.94797 0.09206 0.0
C424 C 0.27982 0.14921 0.27498 0.0
C425 C 0.25947 0.13998 0.27329 0.0
C426 C 0.26199 0.1212 0.26188 0.0
C427 C 0.28364 0.12001 0.25733 0.0
N428 N 0.29495 0.13677 0.26528 0.0
Co429 Co 0.32652 0.14155 0.26219 0.0
N430 N 0.32835 0.12088 0.23755 0.0
C431 C 0.31282 0.10686 0.23151 0.0
C432 C 0.31831 0.09463 0.21391 0.0
C433 C 0.33878 0.1009 0.20874 0.0
C434 C 0.34477 0.11653 0.22371 0.0
N435 N 0.3583 0.14589 0.2594 0.0
C436 C 0.37255 0.13829 0.24447 0.0
C437 C 0.39357 0.14361 0.25008 0.0
C438 C 0.3925 0.15446 0.26935 0.0
C439 C 0.37096 0.15518 0.27449 0.0
N440 N 0.32412 0.16238 0.28652 0.0
C441 C 0.34052 0.16985 0.29859 0.0
C442 C 0.33392 0.18485 0.31359 0.0
C443 C 0.31201 0.18693 0.31069 0.0
C444 C 0.30644 0.17302 0.29406 0.0
N445 N 0.33243 0.11784 0.28297 0.0
C446 C 0.34828 0.09018 0.31579 0.0
C447 C 0.33076 0.10415 0.3196 0.0
C448 C 0.32302 0.11769 0.30299 0.0
C449 C 0.3564 0.08927 0.29469 0.0
C450 C 0.34827 0.10301 0.27867 0.0
N451 N 0.3211 0.16582 0.24211 0.0
C452 C 0.32728 0.20338 0.23318 0.0
C453 C 0.31027 0.20336 0.21829 0.0
C454 C 0.29937 0.18367 0.21493 0.0
C455 C 0.30502 0.16514 0.22695 0.0
C456 C 0.33241 0.18464 0.24476 0.0
H457 H 0.29606 0.15043 0.22434 0.0
H458 H 0.34514 0.18575 0.25649 0.0
H459 H 0.31001 0.1287 0.30666 0.0
H460 H 0.35574 0.10226 0.26308 0.0
C461 C 0.29284 0.10652 0.24186 0.0
C462 C 0.28426 0.16948 0.28628 0.0
C463 C 0.3672 0.12372 0.22644 0.0
C464 C 0.36189 0.16552 0.29253 0.0
H465 H 0.24436 0.14634 0.27933 0.0
H466 H 0.24935 0.11045 0.25641 0.0
H467 H 0.30863 0.0825 0.20586 0.0
H468 H 0.34859 0.09398 0.19604 0.0
H469 H 0.40819 0.1394 0.2415 0.0
H470 H 0.40586 0.16092 0.27858 0.0
H471 H 0.34396 0.19401 0.32458 0.0
H472 H 0.3014 0.19756 0.31962 0.0
H473 H 0.32335 0.10499 0.3354 0.0
H474 H 0.36981 0.07876 0.29073 0.0
H475 H 0.33623 0.21805 0.23645 0.0
H476 H 0.28652 0.18252 0.20314 0.0
C477 C 0.42545 0.46731 0.98055 0.0
C478 C 0.44221 0.46243 0.9665 0.0
C479 C 0.44987 0.44251 0.97232 0.0
C480 C 0.43721 0.43612 0.98932 0.0
N481 N 0.42157 0.45047 0.99422 0.0
Co482 Co 0.39989 0.44701 0.01786 0.0
N483 N 0.40763 0.41605 0.0227 0.0
C484 C 0.4254 0.40603 1.01529 0.0
C485 C 0.42615 0.38452 0.0208 0.0
C486 C 0.40766 0.38075 0.0324 0.0
C487 C 0.39665 0.40022 0.03327 0.0
N488 N 0.37849 0.44365 0.04165 0.0
C489 C 0.3702 0.42554 0.05077 0.0
C490 C 0.35524 0.4306 0.06668 0.0
C491 C 0.35415 0.45265 0.06755 0.0
C492 C 0.36838 0.45976 0.05217 0.0
N493 N 0.39177 0.47802 1.01305 0.0
C494 C 0.37921 0.48991 0.0263 0.0
C495 C 0.37689 0.51094 0.01994 0.0
C496 C 0.38915 0.51281 1.00179 0.0
C497 C 0.3984 0.49265 0.99795 0.0
N498 N 0.37796 0.43759 0.99655 0.0
C499 C 0.34676 0.42038 0.9678 0.0
C500 C 0.34119 0.43619 0.98319 0.0
C501 C 0.35699 0.44458 0.99734 0.0
C502 C 0.36841 0.4139 0.96699 0.0
C503 C 0.38356 0.42259 0.98129 0.0
N504 N 0.42227 0.45584 0.03904 0.0
C505 C 0.45285 0.47851 0.04752 0.0
C506 C 0.45798 0.4661 0.06568 0.0
C507 C 0.44453 0.44845 0.07047 0.0
C508 C 0.42669 0.44372 0.05708 0.0
C509 C 0.43502 0.47334 0.03478 0.0
H510 H 0.41671 0.43003 0.06115 0.0
H511 H 0.43203 0.48342 0.02117 0.0
H512 H 0.35213 0.45646 1.0091 0.0
H513 H 0.39977 0.41662 0.98021 0.0
C514 C 0.43864 0.41626 1.00012 0.0
C515 C 0.41631 0.48929 0.98256 0.0
C516 C 0.37639 0.40342 0.04513 0.0
C517 C 0.36954 0.4808 0.04442 0.0
H518 H 0.44897 0.47278 0.95414 0.0
H519 H 0.46322 0.43381 0.96513 0.0
H520 H 0.43818 0.37273 0.0161 0.0
H521 H 0.40277 0.36546 0.03933 0.0
H522 H 0.34586 0.41955 0.07642 0.0
H523 H 0.34339 0.46229 0.07739 0.0
H524 H 0.36777 0.52358 0.02787 0.0
H525 H 0.39172 0.52778 0.99325 0.0
H526 H 0.32478 0.4421 0.98431 0.0
H527 H 0.37364 0.40161 0.95569 0.0
H528 H 0.46285 0.49206 0.04279 0.0
H529 H 0.4477 0.43844 0.08446 0.0
C530 C 0.74966 0.38246 0.27648 0.0
C531 C 0.77002 0.39127 0.27316 0.0
C532 C 0.76723 0.4092 0.26061 0.0
C533 C 0.74548 0.41025 0.25671 0.0
N534 N 0.7343 0.39413 0.2661 0.0
Co535 Co 0.70266 0.38895 0.26337 0.0
N536 N 0.70039 0.40862 0.23788 0.0
C537 C 0.71587 0.42214 0.23078 0.0
C538 C 0.7101 0.43361 0.21275 0.0
C539 C 0.68945 0.42736 0.20837 0.0
C540 C 0.68368 0.41253 0.2242 0.0
N541 N 0.6708 0.38434 0.26102 0.0
C542 C 0.65627 0.39158 0.24613 0.0
C543 C 0.63536 0.38631 0.2521 0.0
C544 C 0.63674 0.37589 0.27158 0.0
C545 C 0.65835 0.37537 0.27645 0.0
N546 N 0.70537 0.36904 0.28848 0.0
C547 C 0.68906 0.36175 0.30078 0.0
C548 C 0.69584 0.34766 0.31656 0.0
C549 C 0.7178 0.34599 0.31398 0.0
C550 C 0.72318 0.35915 0.2967 0.0
N551 N 0.6968 0.41337 0.28327 0.0
C552 C 0.68096 0.44199 0.31517 0.0
C553 C 0.69863 0.42832 0.31936 0.0
C554 C 0.70636 0.41429 0.30321 0.0
C555 C 0.67274 0.44217 0.29409 0.0
C556 C 0.6809 0.42799 0.27851 0.0
N557 N 0.70808 0.36396 0.24414 0.0
C558 C 0.70106 0.32643 0.23561 0.0
C559 C 0.71801 0.32597 0.2207 0.0
C560 C 0.72974 0.34516 0.21755 0.0
C561 C 0.72438 0.36399 0.22921 0.0
C562 C 0.69644 0.34537 0.24708 0.0
H563 H 0.73372 0.37842 0.22644 0.0
H564 H 0.68372 0.34465 0.25884 0.0
H565 H 0.71948 0.40352 0.30719 0.0
H566 H 0.67338 0.42821 0.26295 0.0
C567 C 0.73603 0.4228 0.24066 0.0
C568 C 0.74545 0.36309 0.28947 0.0
C569 C 0.66126 0.40581 0.22776 0.0
C570 C 0.66764 0.36566 0.2947 0.0
H571 H 0.78544 0.38519 0.27859 0.0
H572 H 0.77975 0.41934 0.25385 0.0
H573 H 0.71971 0.44525 0.20394 0.0
H574 H 0.67938 0.43381 0.19561 0.0
H575 H 0.62061 0.3903 0.24363 0.0
H576 H 0.62353 0.36964 0.28114 0.0
H577 H 0.68593 0.33896 0.32802 0.0
H578 H 0.72862 0.33627 0.32368 0.0
H579 H 0.70614 0.42808 0.33515 0.0
H580 H 0.65922 0.45244 0.28983 0.0
H581 H 0.69174 0.312 0.23889 0.0
H582 H 0.74293 0.34564 0.2061 0.0
C583 C 0.60132 0.06563 0.9809 0.0
C584 C 0.58386 0.07069 0.96779 0.0
C585 C 0.57592 0.0901 0.97486 0.0
C586 C 0.58913 0.09607 0.99161 0.0
N587 N 0.60534 0.08193 0.99515 0.0
Co588 Co 0.62814 0.08507 0.01774 0.0
N589 N 0.62014 0.11571 0.02401 0.0
C590 C 0.60176 0.12556 0.01794 0.0
C591 C 0.60088 0.14685 0.02423 0.0
C592 C 0.61992 0.15063 0.03495 0.0
C593 C 0.63137 0.1314 0.03456 0.0
N594 N 0.65071 0.08809 0.04051 0.0
C595 C 0.65914 0.10605 0.04981 0.0
C596 C 0.67481 0.10075 0.06495 0.0
C597 C 0.67628 0.07871 0.06509 0.0
C598 C 0.6615 0.07184 0.0501 0.0
N599 N 0.63663 0.05443 1.01151 0.0
C600 C 0.64996 0.04235 0.02381 0.0
C601 C 0.65245 0.02163 0.01659 0.0
C602 C 0.63951 0.02017 0.99886 0.0
C603 C 0.6297 0.04025 0.99613 0.0
N604 N 0.64859 0.09555 0.99559 0.0
C605 C 0.67693 0.11275 0.96425 0.0
C606 C 0.68412 0.0974 0.97941 0.0
C607 C 0.66966 0.08887 0.99482 0.0
C608 C 0.65536 0.11929 0.96537 0.0
C609 C 0.64163 0.1106 0.98095 0.0
N610 N 0.60703 0.07511 0.03962 0.0
C611 C 0.57686 0.05198 0.04815 0.0
C612 C 0.57187 0.06409 0.06654 0.0
C613 C 0.58533 0.08167 0.07154 0.0
C614 C 0.60293 0.08677 0.05801 0.0
C615 C 0.59443 0.05752 0.03527 0.0
H616 H 0.61287 0.10047 0.06217 0.0
H617 H 0.59719 0.04779 0.02135 0.0
H618 H 0.67558 0.0771 1.00622 0.0
H619 H 0.62537 0.11653 0.98126 0.0
C620 C 0.58788 0.11552 1.00317 0.0
C621 C 0.6111 0.04381 0.98159 0.0
C622 C 0.65234 0.12823 0.0452 0.0
C623 C 0.6603 0.05103 0.04178 0.0
H624 H 0.57685 0.06074 0.95523 0.0
H625 H 0.5621 0.09878 0.96858 0.0
H626 H 0.58837 0.15851 0.02062 0.0
H627 H 0.62487 0.16578 0.04214 0.0
H628 H 0.68436 0.11167 0.07469 0.0
H629 H 0.68757 0.06895 0.07421 0.0
H630 H 0.66218 1.00892 0.02365 0.0
H631 H 0.63695 1.00546 0.98988 0.0
H632 H 0.70074 0.09199 0.97934 0.0
H633 H 0.64914 0.13159 0.95458 0.0
H634 H 0.56685 0.03848 0.04329 0.0
H635 H 0.58227 0.09142 0.08573 0.0
C636 C 0.27951 0.8817 0.25662 0.0
C637 C 0.2594 0.89156 0.25758 0.0
C638 C 0.26196 0.91003 0.26943 0.0
C639 C 0.28341 0.91045 0.27488 0.0
N640 N 0.2946 0.89348 0.26716 0.0
Co641 Co 0.32615 0.88847 0.27053 0.0
N642 N 0.32799 0.90947 0.29493 0.0
C643 C 0.31246 0.92354 0.30085 0.0
C644 C 0.31793 0.93594 0.31834 0.0
C645 C 0.33841 0.92971 0.32359 0.0
C646 C 0.34441 0.91395 0.30876 0.0
N647 N 0.35794 0.88404 0.27354 0.0
C648 C 0.37218 0.89181 0.28841 0.0
C649 C 0.39319 0.88623 0.28306 0.0
C650 C 0.39216 0.87497 0.26403 0.0
C651 C 0.37064 0.87432 0.25878 0.0
N652 N 0.32376 0.86724 0.24643 0.0
C653 C 0.34029 0.85906 0.23498 0.0
C654 C 0.33384 0.84351 0.22052 0.0
C655 C 0.31187 0.84186 0.22299 0.0
C656 C 0.30607 0.85672 0.2387 0.0
N657 N 0.33215 0.91184 0.24947 0.0
C658 C 0.34754 0.93954 0.21656 0.0
C659 C 0.33018 0.92541 0.21282 0.0
C660 C 0.32267 0.91184 0.22947 0.0
C661 C 0.35581 0.94053 0.23761 0.0
C662 C 0.34791 0.92676 0.25368 0.0
N663 N 0.32066 0.86453 0.29105 0.0
C664 C 0.32811 0.82767 0.30187 0.0
C665 C 0.31162 0.82812 0.3173 0.0
C666 C 0.29978 0.84745 0.31936 0.0
C667 C 0.30463 0.86547 0.30624 0.0
C668 C 0.33236 0.84583 0.2891 0.0
H669 H 0.2952 0.88001 0.30814 0.0
H670 H 0.34487 0.84439 0.27721 0.0
H671 H 0.30975 0.90073 0.22585 0.0
H672 H 0.35545 0.9276 0.26923 0.0
C673 C 0.29255 0.92393 0.29038 0.0
C674 C 0.28367 0.86139 0.24527 0.0
C675 C 0.36682 0.90665 0.3062 0.0
C676 C 0.36161 0.86344 0.24108 0.0
H677 H 0.2444 0.88587 0.25066 0.0
H678 H 0.24946 0.92121 0.27438 0.0
H679 H 0.30825 0.94817 0.32624 0.0
H680 H 0.34822 0.93673 0.33624 0.0
H681 H 0.40779 0.89045 0.29169 0.0
H682 H 0.40551 0.86814 0.25509 0.0
H683 H 0.344 0.83372 0.2102 0.0
H684 H 0.30145 0.83083 0.21436 0.0
H685 H 0.3227 0.92449 0.19705 0.0
H686 H 0.36914 0.95115 0.24148 0.0
H687 H 0.33738 0.81308 0.29913 0.0
H688 H 0.28684 0.84866 0.33105 0.0
C689 C 0.10062 0.4697 0.04912 0.0
C690 C 0.08269 0.46494 0.06166 0.0
C691 C 0.07531 0.44516 0.05505 0.0
C692 C 0.08926 0.43874 0.03909 0.0
N693 N 0.10537 0.45296 0.03561 0.0
Co694 Co 0.12859 0.44957 1.01351 0.0
N695 N 0.12132 0.41865 1.00795 0.0
C696 C 0.10311 0.40859 1.01413 0.0
C697 C 0.10298 0.38702 1.00886 0.0
C698 C 0.12231 0.38326 0.99871 0.0
C699 C 0.13317 0.40283 0.99824 0.0
N700 N 0.15151 0.44639 0.99118 0.0
C701 C 0.16042 0.42839 0.98243 0.0
C702 C 0.17577 0.43367 0.96696 0.0
C703 C 0.17667 0.45572 0.9662 0.0
C704 C 0.16182 0.46262 0.98109 0.0
N705 N 0.13645 0.48049 0.01905 0.0
C706 C 0.14961 0.49251 1.00655 0.0
C707 C 0.15174 0.51342 1.01334 0.0
C708 C 0.13871 0.51505 0.03097 0.0
C709 C 0.12921 0.49489 0.03405 0.0
N710 N 0.14891 0.43994 0.03622 0.0
C711 C 0.17772 0.4222 0.06701 0.0
C712 C 0.1845 0.43823 0.05233 0.0
C713 C 0.16988 0.44685 0.03708 0.0
C714 C 0.15605 0.41593 0.06619 0.0
C715 C 0.14208 0.42492 0.05094 0.0
N716 N 0.10755 0.45857 0.99106 0.0
C717 C 0.07692 0.48085 0.98163 0.0
C718 C 0.07204 0.46787 0.96381 0.0
C719 C 0.08584 0.45036 0.95948 0.0
C720 C 0.10362 0.44613 0.97314 0.0
C721 C 0.09466 0.47615 0.99468 0.0
H722 H 0.11379 0.43245 0.96951 0.0
H723 H 0.09729 0.4865 1.0082 0.0
H724 H 0.17562 0.4588 0.02578 0.0
H725 H 0.1258 0.41907 0.0508 0.0
C726 C 0.0887 0.41888 0.02819 0.0
C727 C 0.11048 0.49146 0.04838 0.0
C728 C 0.15421 0.40615 0.98763 0.0
C729 C 0.16014 0.48362 0.98882 0.0
H730 H 0.07511 0.47522 0.0736 0.0
H731 H 0.06139 0.43654 0.06111 0.0
H732 H 0.09078 0.37517 1.01287 0.0
H733 H 0.12784 0.36787 0.99252 0.0
H734 H 0.18545 0.42276 0.95732 0.0
H735 H 0.18758 0.4655 0.95669 0.0
H736 H 0.16127 0.52612 1.00604 0.0
H737 H 0.13582 0.52991 0.0396 0.0
H738 H 0.20095 0.44407 0.05251 0.0
H739 H 0.14992 0.4035 0.07687 0.0
H740 H 0.06669 0.49437 0.98597 0.0
H741 H 0.08291 0.43997 0.94572 0.0
C742 C 0.75224 0.64925 0.25092 0.0
C743 C 0.7722 0.63928 0.25312 0.0
C744 C 0.7699 0.62381 0.26864 0.0
C745 C 0.7487 0.62503 0.27484 0.0
N746 N 0.73717 0.63992 0.26387 0.0
Co747 Co 0.70575 0.64665 0.26805 0.0
N748 N 0.70245 0.62321 0.28996 0.0
C749 C 0.71862 0.61252 0.29988 0.0
C750 C 0.71168 0.59772 0.31479 0.0
C751 C 0.6897 0.59889 0.31417 0.0
C752 C 0.68447 0.61428 0.29867 0.0
N753 N 0.674 0.65196 0.27104 0.0
C754 C 0.65838 0.63955 0.28032 0.0
C755 C 0.63814 0.64875 0.27765 0.0
C756 C 0.64115 0.66762 0.26645 0.0
C757 C 0.66296 0.66882 0.26279 0.0
N758 N 0.70956 0.67106 0.24712 0.0
C759 C 0.6946 0.68629 0.24265 0.0
C760 C 0.70224 0.7028 0.23 0.0
C761 C 0.72355 0.69814 0.2267 0.0
C762 C 0.72772 0.67895 0.2375 0.0
N763 N 0.69854 0.62613 0.2444 0.0
C764 C 0.68172 0.5963 0.21389 0.0
C765 C 0.67707 0.61843 0.21263 0.0
C766 C 0.6856 0.63289 0.22778 0.0
C767 C 0.696 0.58963 0.23027 0.0
C768 C 0.70423 0.60472 0.24524 0.0
N769 N 0.71232 0.66796 0.29168 0.0
C770 C 0.69967 0.69781 0.31389 0.0
C771 C 0.72053 0.70636 0.31545 0.0
C772 C 0.73738 0.69372 0.30731 0.0
C773 C 0.73302 0.67484 0.29557 0.0
C774 C 0.69602 0.67845 0.30256 0.0
H775 H 0.74676 0.66631 0.28961 0.0
H776 H 0.67974 0.6726 0.30249 0.0
H777 H 0.68083 0.64947 0.22633 0.0
H778 H 0.71473 0.59884 0.25778 0.0
C779 C 0.73957 0.61375 0.29197 0.0
C780 C 0.74951 0.66983 0.2396 0.0
C781 C 0.66228 0.61951 0.29245 0.0
C782 C 0.67349 0.68446 0.25043 0.0
H783 H 0.7872 0.64375 0.24537 0.0
H784 H 0.78242 0.6136 0.27534 0.0
H785 H 0.72138 0.58656 0.32413 0.0
H786 H 0.67879 0.58909 0.32366 0.0
H787 H 0.62283 0.64251 0.28324 0.0
H788 H 0.62883 0.67886 0.26119 0.0
H789 H 0.69347 0.71681 0.22426 0.0
H790 H 0.7349 0.7081 0.21792 0.0
H791 H 0.66611 0.62459 0.20046 0.0
H792 H 0.70069 0.57283 0.23169 0.0
H793 H 0.68604 0.70625 0.32087 0.0
H794 H 0.75399 0.69849 0.30981 0.0
C795 C 0.92865 0.06105 0.04503 0.0
C796 C 0.94839 0.06391 0.05525 0.0
C797 C 0.95573 0.08394 0.04947 0.0
C798 C 0.9402 0.09222 0.03602 0.0
N799 N 0.92318 0.0789 0.0333 0.0
Co800 Co 0.89916 0.0838 1.01227 0.0
N801 N 0.90722 0.11473 1.00761 0.0
C802 C 0.92584 0.12407 1.01366 0.0
C803 C 0.92671 0.1457 1.00865 0.0
C804 C 0.90739 0.15026 0.99877 0.0
C805 C 0.89583 0.13111 0.99831 0.0
N806 N 0.87579 0.0883 0.99057 0.0
C807 C 0.86759 0.1068 0.98215 0.0
C808 C 0.85132 0.10249 0.96734 0.0
C809 C 0.84915 0.08053 0.96656 0.0
C810 C 0.86416 0.07269 0.98084 0.0
N811 N 0.89017 0.05317 0.01744 0.0
C812 C 0.87538 0.04207 1.00597 0.0
C813 C 0.87179 0.02159 1.01358 0.0
C814 C 0.88555 0.01931 0.03067 0.0
C815 C 0.89701 0.03852 0.03233 0.0
N816 N 0.87985 0.09337 0.03575 0.0
C817 C 0.85249 0.11091 0.06775 0.0
C818 C 0.8445 0.09663 0.05201 0.0
C819 C 0.85844 0.08794 0.03628 0.0
C820 C 0.87451 0.11589 0.06716 0.0
C821 C 0.88779 0.10697 0.05126 0.0
N822 N 0.9193 0.07477 0.98901 0.0
C823 C 0.9483 0.05101 0.97822 0.0
C824 C 0.95703 0.06685 0.96462 0.0
C825 C 0.94475 0.08571 0.96145 0.0
C826 C 0.92568 0.08905 0.97334 0.0
C827 C 0.92987 0.05539 0.99042 0.0
H828 H 0.91685 0.1038 0.97055 0.0
H829 H 0.92501 0.04325 1.00165 0.0
H830 H 0.85176 0.0772 0.02433 0.0
H831 H 0.90444 0.11176 0.05123 0.0
C832 C 0.94071 0.11265 0.02626 0.0
C833 C 0.917 0.04029 0.04495 0.0
C834 C 0.87482 0.12864 0.98759 0.0
C835 C 0.86466 0.05161 0.98865 0.0
H836 H 0.95703 0.05243 0.06519 0.0
H837 H 0.97078 0.09142 0.05424 0.0
H838 H 0.93957 0.15695 1.01228 0.0
H839 H 0.90243 0.16581 0.99247 0.0
H840 H 0.84171 0.114 0.95834 0.0
H841 H 0.83721 0.07145 0.95759 0.0
H842 H 0.86074 1.00962 1.00726 0.0
H843 H 0.88786 1.0047 0.04001 0.0
H844 H 0.82757 0.09233 0.05173 0.0
H845 H 0.88143 0.12731 0.07846 0.0
H846 H 0.95595 0.03538 0.98004 0.0
H847 H 0.95016 0.09823 0.95052 0.0
C848 C 0.27683 0.27852 0.15032 0.0
C849 C 0.27544 0.25823 0.14085 0.0
C850 C 0.26393 0.26079 0.12215 0.0
C851 C 0.25912 0.28243 0.12119 0.0
N852 N 0.26699 0.29369 0.13801 0.0
Co853 Co 0.26424 0.32539 0.14248 0.0
N854 N 0.23956 0.32738 0.12178 0.0
C855 C 0.23336 0.31174 0.10795 0.0
C856 C 0.21604 0.31743 0.0954 0.0
C857 C 0.21121 0.33817 0.10127 0.0
C858 C 0.22606 0.34408 0.11703 0.0
N859 N 0.262 0.35738 0.14618 0.0
C860 C 0.24753 0.37188 0.13805 0.0
C861 C 0.25361 0.39289 0.14292 0.0
C862 C 0.2727 0.39157 0.15405 0.0
C863 C 0.27727 0.3699 0.15535 0.0
N864 N 0.28834 0.32278 0.1636 0.0
C865 C 0.3003 0.33916 0.1713 0.0
C866 C 0.31466 0.33261 0.18691 0.0
C867 C 0.31149 0.31073 0.18916 0.0
C868 C 0.29542 0.30507 0.17463 0.0
N869 N 0.28517 0.33063 0.11879 0.0
C870 C 0.31732 0.34601 0.09023 0.0
C871 C 0.32195 0.32982 0.10549 0.0
C872 C 0.3056 0.32211 0.11934 0.0
C873 C 0.29598 0.35329 0.08888 0.0
C874 C 0.28034 0.34539 0.10307 0.0
N875 N 0.244 0.32068 0.16672 0.0
C876 C 0.23407 0.32894 0.20361 0.0
C877 C 0.22005 0.31133 0.2043 0.0
C878 C 0.21767 0.2988 0.18555 0.0
C879 C 0.2296 0.30389 0.16684 0.0
C880 C 0.2459 0.33323 0.18487 0.0
H881 H 0.2276 0.2939 0.15271 0.0
H882 H 0.25719 0.34638 0.18549 0.0
H883 H 0.30978 0.30992 0.1311 0.0
H884 H 0.26459 0.35225 0.10194 0.0
C885 C 0.24364 0.29167 0.10771 0.0
C886 C 0.28772 0.28278 0.17087 0.0
C887 C 0.22924 0.36665 0.12375 0.0
C888 C 0.29477 0.36058 0.16638 0.0
H889 H 0.28171 0.24311 0.14701 0.0
H890 H 0.25863 0.24818 0.11126 0.0
H891 H 0.20806 0.30778 0.08321 0.0
H892 H 0.19893 0.3482 0.0939 0.0
H893 H 0.2454 0.40764 0.13833 0.0
H894 H 0.28213 0.40485 0.16038 0.0
H895 H 0.32537 0.34267 0.19636 0.0
H896 H 0.31988 0.30029 0.20037 0.0
H897 H 0.33818 0.32349 0.10704 0.0
H898 H 0.29151 0.36599 0.0777 0.0
H899 H 0.23635 0.33901 0.21774 0.0
H900 H 0.20684 0.28507 0.18542 0.0
C901 C 0.27736 0.75112 0.38544 0.0
C902 C 0.27434 0.77093 0.39555 0.0
C903 C 0.25776 0.7683 0.40981 0.0
C904 C 0.25176 0.74708 0.40779 0.0
N905 N 0.26377 0.73586 0.39354 0.0
Co906 Co 0.26026 0.70448 0.38625 0.0
N907 N 0.23897 0.70006 0.40998 0.0
C908 C 0.22842 0.71578 0.42072 0.0
C909 C 0.21415 0.70814 0.43578 0.0
C910 C 0.2158 0.68617 0.43462 0.0
C911 C 0.23119 0.68163 0.41894 0.0
N912 N 0.25733 0.67293 0.37989 0.0
C913 C 0.24899 0.65666 0.39217 0.0
C914 C 0.25124 0.63688 0.38188 0.0
C915 C 0.26095 0.64093 0.3624 0.0
C916 C 0.26426 0.66287 0.36192 0.0
N917 N 0.28084 0.7093 0.36181 0.0
C918 C 0.28447 0.69518 0.34561 0.0
C919 C 0.29746 0.7033 0.32964 0.0
C920 C 0.30194 0.72406 0.33577 0.0
C921 C 0.29142 0.72747 0.35525 0.0
N922 N 0.28435 0.69708 0.40598 0.0
C923 C 0.31628 0.6806 0.43435 0.0
C924 C 0.31632 0.67554 0.4123 0.0
C925 C 0.30052 0.68397 0.39855 0.0
C926 C 0.29999 0.6946 0.4418 0.0
C927 C 0.28432 0.70278 0.42737 0.0
N928 N 0.23637 0.7111 0.3658 0.0
C929 C 0.20906 0.69738 0.34132 0.0
C930 C 0.21068 0.71589 0.32825 0.0
C931 C 0.22342 0.7329 0.3361 0.0
C932 C 0.23632 0.73006 0.35439 0.0
C933 C 0.22154 0.69559 0.36026 0.0
H934 H 0.24682 0.74311 0.35847 0.0
H935 H 0.21984 0.68109 0.36973 0.0
H936 H 0.30104 0.67898 0.38198 0.0
H937 H 0.2719 0.71321 0.43367 0.0
C938 C 0.23508 0.73717 0.41908 0.0
C939 C 0.29009 0.74885 0.36561 0.0
C940 C 0.2375 0.65962 0.4128 0.0
C941 C 0.27613 0.67417 0.3464 0.0
H942 H 0.28244 0.78602 0.39204 0.0
H943 H 0.25062 0.78052 0.42006 0.0
H944 H 0.20445 0.71742 0.44697 0.0
H945 H 0.20681 0.67484 0.44441 0.0
H946 H 0.24625 0.6212 0.38777 0.0
H947 H 0.26563 0.62918 0.35034 0.0
H948 H 0.30283 0.6952 0.31511 0.0
H949 H 0.31128 0.73562 0.32658 0.0
H950 H 0.32799 0.66431 0.4057 0.0
H951 H 0.2992 0.69902 0.45869 0.0
H952 H 0.19887 0.68398 0.33665 0.0
H953 H 0.22402 0.74831 0.32785 0.0
C954 C 0.97087 0.48824 0.92901 0.0
C955 C 0.96819 0.47737 0.94844 0.0
C956 C 0.94856 0.48347 0.95654 0.0
C957 C 0.94029 0.49777 0.94177 0.0
N958 N 0.9532 0.5007 0.92448 0.0
Co959 Co 0.94807 0.52267 0.90124 0.0
N960 N 0.91765 0.52792 0.91036 0.0
C961 C 0.90883 0.52182 0.92921 0.0
C962 C 0.88737 0.52726 0.93081 0.0
C963 C 0.88239 0.53744 0.91173 0.0
C964 C 0.90113 0.53763 0.89956 0.0
N965 N 0.94337 0.54498 0.87846 0.0
C966 C 0.92479 0.55365 0.87076 0.0
C967 C 0.92887 0.56865 0.85459 0.0
C968 C 0.95075 0.56928 0.85198 0.0
C969 C 0.95879 0.55471 0.86663 0.0
N970 N 0.97834 0.51724 0.89144 0.0
C971 C 0.98915 0.52869 0.87643 0.0
C972 C 1.00905 0.52033 0.87158 0.0
C973 C 1.01128 0.50275 0.88473 0.0
C974 C 0.99271 0.50166 0.89723 0.0
N975 N 0.93751 0.49986 0.8816 0.0
C976 C 0.9184 0.469 0.85397 0.0
C977 C 0.93272 0.48465 0.84591 0.0
C978 C 0.94224 0.49978 0.85999 0.0
C979 C 0.91413 0.46911 0.87615 0.0
C980 C 0.92376 0.48449 0.88954 0.0
N981 N 0.95787 0.54533 0.92159 0.0
C982 C 0.98013 0.55414 0.95234 0.0
C983 C 0.96683 0.57157 0.95787 0.0
C984 C 0.94969 0.57652 0.94379 0.0
C985 C 0.94555 0.56328 0.92572 0.0
C986 C 0.97552 0.54157 0.93424 0.0
H987 H 0.93186 0.56709 0.91564 0.0
H988 H 0.98563 0.52802 0.93134 0.0
H989 H 0.95305 0.51164 0.85329 0.0
H990 H 0.91943 0.48424 0.90631 0.0
C991 C 0.9203 0.50831 0.94328 0.0
C992 C 0.99161 0.48885 0.9172 0.0
C993 C 0.90313 0.54822 0.87841 0.0
C994 C 0.97968 0.54645 0.86634 0.0
H995 H 0.97959 0.46686 0.95648 0.0
H996 H 0.94139 0.47842 0.97164 0.0
H997 H 0.87643 0.52357 0.94392 0.0
H998 H 0.86682 0.54402 0.90727 0.0
H999 H 0.91724 0.57783 0.84532 0.0
H1000 H 0.95962 0.57827 0.83991 0.0
H1001 H 0.02065 0.52641 0.86002 0.0
H1002 H 0.02557 0.49275 0.88609 0.0
H1003 H 0.93645 0.48527 0.82884 0.0
H1004 H 0.90276 0.45781 0.88312 0.0
H1005 H 0.99364 0.54952 0.96246 0.0
H1006 H 0.93938 0.59032 0.94678 0.0
C1007 C 0.75491 0.78169 0.3812 0.0
C1008 C 0.75757 0.76124 0.39008 0.0
C1009 C 0.76986 0.76378 0.40824 0.0
C1010 C 0.77412 0.78549 0.40937 0.0
N1011 N 0.76522 0.79688 0.39312 0.0
Co1012 Co 0.76816 0.82858 0.38824 0.0
N1013 N 0.79328 0.83055 0.40839 0.0
C1014 C 0.80005 0.81486 0.42191 0.0
C1015 C 0.81781 0.82047 0.43383 0.0
C1016 C 0.82235 0.84123 0.4279 0.0
C1017 C 0.80687 0.84721 0.41279 0.0
N1018 N 0.77072 0.86051 0.38391 0.0
C1019 C 0.78549 0.87494 0.39156 0.0
C1020 C 0.77968 0.89595 0.38631 0.0
C1021 C 0.76043 0.89474 0.37548 0.0
C1022 C 0.75552 0.87313 0.37471 0.0
N1023 N 0.74343 0.82616 0.36784 0.0
C1024 C 0.73134 0.8426 0.36041 0.0
C1025 C 0.71588 0.836 0.34591 0.0
C1026 C 0.71846 0.81401 0.34411 0.0
C1027 C 0.73541 0.80844 0.35762 0.0
N1028 N 0.74788 0.83435 0.41232 0.0
C1029 C 0.71575 0.84979 0.44088 0.0
C1030 C 0.71165 0.83237 0.42687 0.0
C1031 C 0.72792 0.82484 0.41287 0.0
C1032 C 0.7368 0.85801 0.44134 0.0
C1033 C 0.75248 0.85006 0.42718 0.0
N1034 N 0.78782 0.82322 0.3636 0.0
C1035 C 0.79692 0.83035 0.32626 0.0
C1036 C 0.81167 0.81321 0.32593 0.0
C1037 C 0.81447 0.80135 0.34511 0.0
C1038 C 0.8026 0.80675 0.36378 0.0
C1039 C 0.78525 0.83502 0.34505 0.0
H1040 H 0.80508 0.79729 0.37819 0.0
H1041 H 0.77362 0.84788 0.34421 0.0
H1042 H 0.72403 0.81189 0.40187 0.0
H1043 H 0.76802 0.85757 0.42769 0.0
C1044 C 0.79002 0.79473 0.42227 0.0
C1045 C 0.74256 0.78611 0.36151 0.0
C1046 C 0.80351 0.86976 0.40618 0.0
C1047 C 0.73744 0.86399 0.36457 0.0
H1048 H 0.75177 0.74598 0.38388 0.0
H1049 H 0.77612 0.7511 0.41854 0.0
H1050 H 0.82633 0.81071 0.44558 0.0
H1051 H 0.83497 0.8512 0.43473 0.0
H1052 H 0.78809 0.91066 0.39059 0.0
H1053 H 0.75104 0.90806 0.36913 0.0
H1054 H 0.70468 0.84605 0.33701 0.0
H1055 H 0.709 0.80329 0.33406 0.0
H1056 H 0.69588 0.82488 0.42637 0.0
H1057 H 0.74097 0.87136 0.45185 0.0
H1058 H 0.79389 0.83978 0.31184 0.0
H1059 H 0.82578 0.78801 0.34569 0.0
C1060 C 0.56068 0.55306 0.42168 0.0
C1061 C 0.56494 0.56692 0.43879 0.0
C1062 C 0.5844 0.56079 0.44733 0.0
C1063 C 0.59109 0.54368 0.43493 0.0
N1064 N 0.57733 0.539 0.41871 0.0
Co1065 Co 0.58086 0.51468 0.39789 0.0
N1066 N 0.61157 0.50989 0.40616 0.0
C1067 C 0.62128 0.51739 0.42405 0.0
C1068 C 0.64279 0.51197 0.42502 0.0
C1069 C 0.64684 0.50037 0.40653 0.0
C1070 C 0.62753 0.49939 0.3953 0.0
N1071 N 0.58434 0.49014 0.37742 0.0
C1072 C 0.60251 0.48112 0.36925 0.0
C1073 C 0.59764 0.46436 0.35516 0.0
C1074 C 0.57562 0.46294 0.35445 0.0
C1075 C 0.56834 0.47884 0.36807 0.0
N1076 N 0.55019 0.51933 0.38904 0.0
C1077 C 0.53827 0.50534 0.37735 0.0
C1078 C 0.51741 0.51186 0.37434 0.0
C1079 C 0.51575 0.53095 0.3852 0.0
C1080 C 0.53586 0.53516 0.39433 0.0
N1081 N 0.59067 0.53518 0.37553 0.0
C1082 C 0.60751 0.56379 0.3443 0.0
C1083 C 0.59255 0.5477 0.33855 0.0
C1084 C 0.58421 0.53366 0.35443 0.0
C1085 C 0.6135 0.56531 0.36601 0.0
C1086 C 0.60508 0.55094 0.38118 0.0
N1087 N 0.57146 0.49456 0.42093 0.0
C1088 C 0.549 0.48862 0.45224 0.0
C1089 C 0.56131 0.47077 0.45858 0.0
C1090 C 0.57863 0.46467 0.44519 0.0
C1091 C 0.58335 0.47669 0.4264 0.0
C1092 C 0.55406 0.49989 0.43343 0.0
H1093 H 0.59695 0.47185 0.41665 0.0
H1094 H 0.54417 0.51349 0.42965 0.0
H1095 H 0.57279 0.52142 0.34961 0.0
H1096 H 0.61072 0.55245 0.3975 0.0
C1097 C 0.61081 0.53269 0.43702 0.0
C1098 C 0.53927 0.55162 0.41126 0.0
C1099 C 0.62449 0.48763 0.3749 0.0
C1100 C 0.54727 0.48653 0.36884 0.0
H1101 H 0.55454 0.5795 0.44506 0.0
H1102 H 0.59262 0.56789 0.46102 0.0
H1103 H 0.65442 0.51678 0.43715 0.0
H1104 H 0.6622 0.49355 0.40177 0.0
H1105 H 0.60879 0.4544 0.34612 0.0
H1106 H 0.56609 0.45243 0.34425 0.0
H1107 H 0.50475 0.5035 0.36567 0.0
H1108 H 0.50088 0.53984 0.38708 0.0
H1109 H 0.58731 0.54598 0.32196 0.0
H1110 H 0.62521 0.57721 0.37124 0.0
H1111 H 0.53578 0.49443 0.4621 0.0
H1112 H 0.58854 0.45083 0.44925 0.0
C1113 C 0.2581 0.75026 0.65082 0.0
C1114 C 0.25973 0.7708 0.64195 0.0
C1115 C 0.27156 0.76873 0.62345 0.0
C1116 C 0.27637 0.74713 0.62202 0.0
N1117 N 0.26812 0.73533 0.63832 0.0
Co1118 Co 0.27111 0.70346 0.64214 0.0
N1119 N 0.29544 0.702 0.62096 0.0
C1120 C 0.30244 0.71834 0.60836 0.0
C1121 C 0.31947 0.71284 0.59537 0.0
C1122 C 0.32329 0.69152 0.59963 0.0
C1123 C 0.30813 0.68515 0.61487 0.0
N1124 N 0.27332 0.67138 0.64508 0.0
C1125 C 0.28672 0.65696 0.63527 0.0
C1126 C 0.28091 0.63586 0.64007 0.0
C1127 C 0.26303 0.63701 0.65299 0.0
C1128 C 0.2589 0.65868 0.65533 0.0
N1129 N 0.24802 0.70562 0.66459 0.0
C1130 C 0.23727 0.68898 0.67355 0.0
C1131 C 0.2234 0.69531 0.68965 0.0
C1132 C 0.22565 0.71733 0.69106 0.0
C1133 C 0.24069 0.72323 0.67559 0.0
N1134 N 0.24921 0.69838 0.61864 0.0
C1135 C 0.21874 0.68002 0.58922 0.0
C1136 C 0.21237 0.68871 0.60923 0.0
C1137 C 0.22748 0.69854 0.62304 0.0
C1138 C 0.24038 0.68347 0.58339 0.0
C1139 C 0.25525 0.69186 0.5983 0.0
N1140 N 0.2923 0.7078 0.66569 0.0
C1141 C 0.30384 0.69951 0.70213 0.0
C1142 C 0.31816 0.71698 0.70221 0.0
C1143 C 0.32007 0.72907 0.68307 0.0
C1144 C 0.30706 0.72424 0.66508 0.0
C1145 C 0.29121 0.69521 0.68387 0.0
H1146 H 0.30865 0.73417 0.65089 0.0
H1147 H 0.28001 0.68205 0.68494 0.0
H1148 H 0.22116 0.70557 0.63756 0.0
H1149 H 0.27162 0.69243 0.59289 0.0
C1150 C 0.29228 0.73844 0.60874 0.0
C1151 C 0.24717 0.74571 0.67125 0.0
C1152 C 0.30413 0.66242 0.62019 0.0
C1153 C 0.24251 0.66768 0.66805 0.0
H1154 H 0.25353 0.78579 0.64848 0.0
H1155 H 0.27718 0.78164 0.6131 0.0
H1156 H 0.32773 0.72294 0.58375 0.0
H1157 H 0.3351 0.68149 0.59152 0.0
H1158 H 0.28855 0.62117 0.63444 0.0
H1159 H 0.25409 0.62364 0.65982 0.0
H1160 H 0.21343 0.68508 0.6997 0.0
H1161 H 0.21727 0.72781 0.70225 0.0
H1162 H 0.1959 0.68752 0.6148 0.0
H1163 H 0.24628 0.67949 0.56748 0.0
H1164 H 0.30176 0.68962 0.71641 0.0
H1165 H 0.33139 0.74234 0.68201 0.0
C1166 C 0.96998 0.54496 0.60006 0.0
C1167 C 0.96672 0.55596 0.58078 0.0
C1168 C 0.94648 0.55063 0.57368 0.0
C1169 C 0.9385 0.53662 0.58885 0.0
N1170 N 0.95222 0.53313 0.60542 0.0
Co1171 Co 0.94777 0.5112 0.62864 0.0
N1172 N 0.91655 0.50745 0.62156 0.0
C1173 C 0.90657 0.51473 0.60372 0.0
C1174 C 0.88462 0.51162 0.6043 0.0
C1175 C 0.88055 0.50172 0.62373 0.0
C1176 C 0.90033 0.49906 0.63388 0.0
N1177 N 0.94384 0.48847 0.65093 0.0
C1178 C 0.92558 0.4795 0.65882 0.0
C1179 C 0.93027 0.46228 0.67246 0.0
C1180 C 0.95226 0.46097 0.67372 0.0
C1181 C 0.95972 0.47714 0.66055 0.0
N1182 N 0.97862 0.5155 0.63695 0.0
C1183 C 0.99005 0.50298 0.65063 0.0
C1184 C 1.0106 0.51032 0.65423 0.0
C1185 C 1.01253 0.52833 0.64163 0.0
C1186 C 0.99308 0.53076 0.63071 0.0
N1187 N 0.93909 0.53405 0.64924 0.0
C1188 C 0.92161 0.56466 0.67836 0.0
C1189 C 0.93582 0.54835 0.68548 0.0
C1190 C 0.94439 0.53327 0.67069 0.0
C1191 C 0.91715 0.56563 0.65623 0.0
C1192 C 0.92594 0.55037 0.64212 0.0
N1193 N 0.95581 0.48857 0.60731 0.0
C1194 C 0.97945 0.47655 0.57864 0.0
C1195 C 0.96388 0.46209 0.5707 0.0
C1196 C 0.94462 0.46031 0.58264 0.0
C1197 C 0.94128 0.47305 0.60117 0.0
C1198 C 0.97499 0.48974 0.59645 0.0
H1199 H 0.9264 0.47087 0.60989 0.0
H1200 H 0.98701 0.50137 0.60074 0.0
H1201 H 0.9549 0.52072 0.6767 0.0
H1202 H 0.92129 0.55148 0.62547 0.0
C1203 C 0.91779 0.52749 0.58881 0.0
C1204 C 0.99092 0.54439 0.61138 0.0
C1205 C 0.90369 0.48736 0.6544 0.0
C1206 C 0.98085 0.48474 0.66009 0.0
H1207 H 0.97802 0.56623 0.57233 0.0
H1208 H 0.93861 0.55619 0.5591 0.0
H1209 H 0.87284 0.51688 0.59251 0.0
H1210 H 0.8648 0.49721 0.62968 0.0
H1211 H 0.91899 0.45212 0.6811 0.0
H1212 H 0.96163 0.45026 0.68389 0.0
H1213 H 0.02285 0.50318 0.66446 0.0
H1214 H 0.02709 0.53776 0.63955 0.0
H1215 H 0.94017 0.5471 0.70237 0.0
H1216 H 0.90617 0.57766 0.64983 0.0
H1217 H 0.99499 0.47824 0.57086 0.0
H1218 H 0.93166 0.44986 0.57745 0.0
C1219 C 0.06224 0.98673 0.60203 0.0
C1220 C 0.06609 0.97449 0.58364 0.0
C1221 C 0.08589 0.98052 0.57595 0.0
C1222 C 0.09321 0.99589 0.59011 0.0
N1223 N 0.07949 0.99957 0.60663 0.0
Co1224 Co 0.08397 0.02141 0.62988 0.0
N1225 N 0.115 0.02567 0.62228 0.0
C1226 C 0.12459 0.0192 0.60392 0.0
C1227 C 0.14623 0.02404 0.60335 0.0
C1228 C 0.15053 0.03423 0.62258 0.0
C1229 C 0.13123 0.03502 0.63383 0.0
N1230 N 0.08822 0.04376 0.65264 0.0
C1231 C 0.10659 0.05192 0.66128 0.0
C1232 C 0.10207 0.06743 0.67686 0.0
C1233 C 0.08011 0.069 0.67802 0.0
C1234 C 0.0725 0.05443 0.66318 0.0
N1235 N 0.05308 0.01691 0.63828 0.0
C1236 C 0.04162 0.03001 0.65138 0.0
C1237 C 0.02049 0.02411 0.65358 0.0
C1238 C 0.01814 1.00639 0.64073 0.0
C1239 C 0.03816 1.00229 0.63136 0.0
N1240 N 0.09308 0.99841 0.65015 0.0
C1241 C 0.11063 0.96738 0.67885 0.0
C1242 C 0.09577 0.98305 0.68605 0.0
C1243 C 0.08716 0.99836 0.67146 0.0
C1244 C 0.11582 0.96735 0.65686 0.0
C1245 C 0.10699 0.98279 0.64297 0.0
N1246 N 0.07544 0.04416 0.60881 0.0
C1247 C 0.0519 0.0556 0.57977 0.0
C1248 C 0.06713 0.07056 0.57211 0.0
C1249 C 0.0861 0.07293 0.58446 0.0
C1250 C 0.08951 0.06023 0.60304 0.0
C1251 C 0.05651 0.0424 0.59752 0.0
H1252 H 0.10416 0.06283 0.61207 0.0
H1253 H 0.04484 0.03025 0.60134 0.0
H1254 H 0.07606 1.01036 0.67749 0.0
H1255 H 0.1121 0.98234 0.62643 0.0
C1256 C 0.11352 1.00586 0.58942 0.0
C1257 C 0.04107 0.98734 0.61301 0.0
C1258 C 0.12849 0.04594 0.65475 0.0
C1259 C 0.05124 0.04748 0.66173 0.0
H1260 H 0.05537 0.9629 0.57616 0.0
H1261 H 0.09401 0.97436 0.56175 0.0
H1262 H 0.1577 0.01995 0.59083 0.0
H1263 H 0.16603 0.04041 0.62774 0.0
H1264 H 0.11342 0.07653 0.68654 0.0
H1265 H 0.07082 0.07877 0.68915 0.0
H1266 H 1.00809 0.03207 0.66298 0.0
H1267 H 1.00293 0.99846 0.63772 0.0
H1268 H 0.09086 0.98357 0.70281 0.0
H1269 H 0.12732 0.95584 0.65042 0.0
H1270 H 0.03653 0.05345 0.57176 0.0
H1271 H 0.09883 0.08378 0.57958 0.0
C1272 C 0.64913 0.77457 0.77948 0.0
C1273 C 0.64088 0.77052 0.759 0.0
C1274 C 0.62292 0.75807 0.76172 0.0
C1275 C 0.62135 0.75487 0.78355 0.0
N1276 N 0.63718 0.76458 0.79488 0.0
Co1277 Co 0.64202 0.76221 0.82666 0.0
N1278 N 0.62208 0.73691 0.82908 0.0
C1279 C 0.60879 0.72962 0.81347 0.0
C1280 C 0.59704 0.71183 0.81936 0.0
C1281 C 0.60282 0.70782 0.84024 0.0
C1282 C 0.61768 0.72362 0.84599 0.0
N1283 N 0.64634 0.76014 0.85863 0.0
C1284 C 0.63869 0.7456 0.87332 0.0
C1285 C 0.6439 0.75176 0.89421 0.0
C1286 C 0.65471 0.771 0.89267 0.0
C1287 C 0.6555 0.77556 0.87099 0.0
N1288 N 0.66216 0.78714 0.82384 0.0
C1289 C 0.66949 0.79948 0.84013 0.0
C1290 C 0.68355 0.81525 0.83335 0.0
C1291 C 0.68517 0.81264 0.81139 0.0
C1292 C 0.67201 0.79536 0.806 0.0
N1293 N 0.61777 0.78248 0.83206 0.0
C1294 C 0.58953 0.81507 0.84729 0.0
C1295 C 0.60326 0.81878 0.82959 0.0
C1296 C 0.6171 0.80229 0.82217 0.0
C1297 C 0.58907 0.7941 0.85583 0.0
C1298 C 0.60305 0.77817 0.84796 0.0
N1299 N 0.66687 0.74265 0.82162 0.0
C1300 C 0.70455 0.73446 0.82823 0.0
C1301 C 0.70511 0.71994 0.81091 0.0
C1302 C 0.68573 0.71633 0.79964 0.0
C1303 C 0.66682 0.72767 0.80534 0.0
C1304 C 0.68549 0.74562 0.83321 0.0
H1305 H 0.65234 0.72468 0.79618 0.0
H1306 H 0.68618 0.75727 0.84605 0.0
H1307 H 0.62793 0.80592 0.80903 0.0
H1308 H 0.60257 0.76272 0.85571 0.0
C1309 C 0.60861 0.73907 0.79311 0.0
C1310 C 0.66809 0.78816 0.7837 0.0
C1311 C 0.6241 0.72746 0.86847 0.0
C1312 C 0.66546 0.79358 0.86157 0.0
H1313 H 0.64736 0.77547 0.74358 0.0
H1314 H 0.61312 0.7509 0.74915 0.0
H1315 H 0.58553 0.70293 0.80969 0.0
H1316 H 0.59609 0.6953 0.85042 0.0
H1317 H 0.6396 0.7436 0.90905 0.0
H1318 H 0.66099 0.78065 0.90582 0.0
H1319 H 0.69221 0.82675 0.84325 0.0
H1320 H 0.69484 0.82235 0.80056 0.0
H1321 H 0.60372 0.83444 0.82181 0.0
H1322 H 0.57874 0.79018 0.86937 0.0
H1323 H 0.71901 0.73779 0.83748 0.0
H1324 H 0.68516 0.70487 0.78645 0.0
C1325 C 0.04586 0.10604 0.47001 0.0
C1326 C 0.05872 0.08813 0.46586 0.0
C1327 C 0.05315 0.08072 0.44579 0.0
C1328 C 0.0374 0.09457 0.43864 0.0
N1329 N 0.03307 0.11065 0.45272 0.0
Co1330 Co 1.01048 0.13325 0.4486 0.0
N1331 N 1.00679 0.12633 0.41733 0.0
C1332 C 1.01407 0.1085 0.40729 0.0
C1333 C 1.00984 0.1086 0.3855 0.0
C1334 C 0.99922 0.12771 0.38159 0.0
C1335 C 0.99751 0.13821 0.40128 0.0
N1336 N 0.98733 0.15522 0.44472 0.0
C1337 C 0.97914 0.16412 0.42647 0.0
C1338 C 0.96267 0.17861 0.43119 0.0
C1339 C 0.9607 0.17898 0.45317 0.0
C1340 C 0.97592 0.16469 0.46058 0.0
N1341 N 1.01445 0.14111 0.47971 0.0
C1342 C 1.00078 0.15344 0.49136 0.0
C1343 C 1.00649 0.15541 0.51259 0.0
C1344 C 0.02467 0.14318 0.51478 0.0
C1345 C 0.02922 0.13438 0.49459 0.0
N1346 N 0.03271 0.15461 0.44018 0.0
C1347 C 0.06294 0.18465 0.4237 0.0
C1348 C 0.04628 0.19126 0.43766 0.0
C1349 C 0.0315 0.17597 0.44592 0.0
C1350 C 0.06408 0.16269 0.41844 0.0
C1351 C 0.04901 0.14813 0.42674 0.0
N1352 N 0.98852 0.11109 0.45645 0.0
C1353 C 0.97767 0.08157 0.47969 0.0
C1354 C 0.9633 0.0734 0.46415 0.0
C1355 C 0.96096 0.08567 0.4451 0.0
C1356 C 0.97303 0.10472 0.44197 0.0
C1357 C 0.99031 0.09978 0.47538 0.0
H1358 H 0.9704 0.11368 0.42728 0.0
H1359 H 1.00203 0.10397 0.48735 0.0
H1360 H 0.01886 0.1815 0.45654 0.0
H1361 H 0.05031 0.13165 0.42154 0.0
C1362 C 0.02774 0.09413 0.41816 0.0
C1363 C 0.04467 0.11648 0.49144 0.0
C1364 C 0.98612 0.15887 0.4045 0.0
C1365 C 0.98283 0.16312 0.48187 0.0
H1366 H 0.07044 0.08075 0.47654 0.0
H1367 H 0.05985 0.06693 0.43739 0.0
H1368 H 1.0147 0.09667 0.37368 0.0
H1369 H 0.99348 0.13329 0.36606 0.0
H1370 H 0.95322 0.18813 0.41997 0.0
H1371 H 0.95022 0.1893 0.46262 0.0
H1372 H 0.99807 0.16417 0.52515 0.0
H1373 H 0.03261 0.14011 0.53 0.0
H1374 H 0.04464 0.20811 0.44211 0.0
H1375 H 0.07616 0.15679 0.40726 0.0
H1376 H 0.97976 0.07367 0.49514 0.0
H1377 H 0.95059 0.08043 0.4321 0.0
C1378 C 0.38631 0.75081 0.77864 0.0
C1379 C 0.3962 0.75311 0.75866 0.0
C1380 C 0.41149 0.76879 0.76097 0.0
C1381 C 0.41023 0.77499 0.78218 0.0
N1382 N 0.39547 0.76392 0.79371 0.0
Co1383 Co 0.3888 0.76804 0.82516 0.0
N1384 N 0.41213 0.79009 0.82854 0.0
C1385 C 0.42279 0.79997 0.81234 0.0
C1386 C 0.43741 0.81506 0.81924 0.0
C1387 C 0.43614 0.81466 0.84122 0.0
C1388 C 0.42085 0.79912 0.84651 0.0
N1389 N 0.38358 0.77097 0.85696 0.0
C1390 C 0.3958 0.7805 0.87262 0.0
C1391 C 0.3867 0.77756 0.89286 0.0
C1392 C 0.36804 0.76609 0.88982 0.0
C1393 C 0.36687 0.76249 0.86798 0.0
N1394 N 0.36451 0.74701 0.82128 0.0
C1395 C 0.34931 0.74252 0.83622 0.0
C1396 C 0.33293 0.72973 0.82857 0.0
C1397 C 0.33766 0.72633 0.80728 0.0
C1398 C 0.35676 0.73722 0.80313 0.0
N1399 N 0.40935 0.7444 0.83223 0.0
C1400 C 0.43892 0.7132 0.84813 0.0
C1401 C 0.41685 0.71195 0.85278 0.0
C1402 C 0.40253 0.72748 0.84476 0.0
C1403 C 0.44572 0.72999 0.83443 0.0
C1404 C 0.43074 0.74529 0.82661 0.0
N1405 N 0.36737 0.79155 0.81865 0.0
C1406 C 0.33716 0.81308 0.83149 0.0
C1407 C 0.32831 0.81422 0.8107 0.0
C1408 C 0.34098 0.80637 0.79375 0.0
C1409 C 0.36018 0.79513 0.79798 0.0
C1410 C 0.35686 0.80232 0.83499 0.0
H1411 H 0.36863 0.78921 0.78416 0.0
H1412 H 0.36292 0.80248 0.85122 0.0
H1413 H 0.386 0.72602 0.84954 0.0
H1414 H 0.43666 0.75807 0.81644 0.0
C1415 C 0.42149 0.79209 0.79137 0.0
C1416 C 0.366 0.73909 0.78139 0.0
C1417 C 0.41538 0.7934 0.86879 0.0
C1418 C 0.35123 0.75016 0.85738 0.0
H1419 H 0.39185 0.74526 0.74366 0.0
H1420 H 0.42165 0.77553 0.74846 0.0
H1421 H 0.44846 0.82447 0.8095 0.0
H1422 H 0.44572 0.82443 0.85208 0.0
H1423 H 0.39283 0.78327 0.9082 0.0
H1424 H 0.35688 0.7607 0.90212 0.0
H1425 H 0.31901 0.72388 0.83734 0.0
H1426 H 0.32785 0.71737 0.79593 0.0
H1427 H 0.41067 0.69946 0.86334 0.0
H1428 H 0.46253 0.73146 0.82991 0.0
H1429 H 0.32871 0.81991 0.84518 0.0
H1430 H 0.33597 0.80865 0.77717 0.0
C1431 C 0.98333 0.42622 0.46867 0.0
C1432 C 0.97022 0.44402 0.46482 0.0
C1433 C 0.97521 0.45145 0.44462 0.0
C1434 C 0.9909 0.43773 0.43713 0.0
N1435 N 0.99575 0.42171 0.4511 0.0
Co1436 Co 0.01855 0.3994 0.44656 0.0
N1437 N 0.02157 0.40645 0.41525 0.0
C1438 C 1.01364 0.42408 0.4053 0.0
C1439 C 0.01693 0.4238 0.38337 0.0
C1440 C 0.02763 0.40482 0.37924 0.0
C1441 C 0.0305 0.39462 0.39898 0.0
N1442 N 0.0419 0.37773 0.44226 0.0
C1443 C 0.05008 0.36917 0.42387 0.0
C1444 C 0.06698 0.35506 0.42834 0.0
C1445 C 0.06919 0.35455 0.45028 0.0
C1446 C 0.0537 0.3684 0.45794 0.0
N1447 N 0.01525 0.39144 0.47773 0.0
C1448 C 0.02921 0.37918 0.48913 0.0
C1449 C 0.02383 0.37703 0.51043 0.0
C1450 C 1.00557 0.38907 0.51293 0.0
C1451 C 1.00067 0.39796 0.49286 0.0
N1452 N 0.99644 0.37777 0.43853 0.0
C1453 C 0.96633 0.34727 0.4226 0.0
C1454 C 0.98307 0.341 0.43667 0.0
C1455 C 0.99783 0.3565 0.44458 0.0
C1456 C 0.96509 0.36914 0.41697 0.0
C1457 C 0.98002 0.38394 0.42508 0.0
N1458 N 0.04039 0.42178 0.45402 0.0
C1459 C 0.05116 0.45146 0.47705 0.0
C1460 C 0.06496 0.45983 0.46117 0.0
C1461 C 0.06775 0.4473 0.44241 0.0
C1462 C 0.05575 0.42816 0.43941 0.0
C1463 C 0.03875 0.43306 0.47298 0.0
H1464 H 0.05838 0.41908 0.42479 0.0
H1465 H 0.02735 0.42868 0.48516 0.0
H1466 H 1.01059 0.35121 0.4552 0.0
H1467 H 0.97852 0.40036 0.41974 0.0
C1468 C 1.00004 0.43827 0.41644 0.0
C1469 C 0.98512 0.41582 0.49005 0.0
C1470 C 0.04273 0.37439 0.40199 0.0
C1471 C 0.04712 0.36977 0.47934 0.0
H1472 H 0.95872 0.4513 0.47578 0.0
H1473 H 0.96818 0.46518 0.43637 0.0
H1474 H 1.01128 0.43547 0.37162 0.0
H1475 H 0.03263 0.39911 0.36351 0.0
H1476 H 0.07659 0.34592 0.41697 0.0
H1477 H 0.08006 0.34446 0.45955 0.0
H1478 H 0.03252 0.36827 0.52283 0.0
H1479 H 0.9978 0.39198 0.52825 0.0
H1480 H 0.98482 0.32425 0.44143 0.0
H1481 H 0.95304 0.37483 0.40563 0.0
H1482 H 0.04947 0.45923 0.4926 0.0
H1483 H 0.07862 0.45247 0.42976 0.0
C1484 C 0.65014 0.25572 0.75325 0.0
C1485 C 0.6409 0.25883 0.77344 0.0
C1486 C 0.62235 0.2704 0.7702 0.0
C1487 C 0.62136 0.27386 0.74834 0.0
N1488 N 0.63806 0.26511 0.73757 0.0
Co1489 Co 0.64335 0.26721 0.70595 0.0
N1490 N 0.62324 0.29223 0.70296 0.0
C1491 C 0.60886 0.29873 0.71794 0.0
C1492 C 0.59672 0.31611 0.71159 0.0
C1493 C 0.60349 0.32069 0.69111 0.0
C1494 C 0.61943 0.30569 0.68602 0.0
N1495 N 0.64821 0.26891 0.67416 0.0
C1496 C 0.6414 0.2837 0.65935 0.0
C1497 C 0.64706 0.2774 0.63861 0.0
C1498 C 0.65724 0.25779 0.64043 0.0
C1499 C 0.65729 0.25319 0.66211 0.0
N1500 N 0.66368 0.24258 0.70943 0.0
C1501 C 0.6711 0.22981 0.69354 0.0
C1502 C 0.6857 0.21471 0.70082 0.0
C1503 C 0.68758 0.21831 0.72265 0.0
C1504 C 0.67402 0.23546 0.72747 0.0
N1505 N 0.61936 0.2468 0.70033 0.0
C1506 C 0.59053 0.21454 0.68569 0.0
C1507 C 0.60435 0.21079 0.70334 0.0
C1508 C 0.6185 0.22713 0.71047 0.0
C1509 C 0.59051 0.23532 0.67669 0.0
C1510 C 0.60482 0.25107 0.68423 0.0
N1511 N 0.66778 0.28701 0.7111 0.0
C1512 C 0.70515 0.2959 0.70436 0.0
C1513 C 0.70503 0.31135 0.72083 0.0
C1514 C 0.68565 0.31461 0.73217 0.0
C1515 C 0.66717 0.30246 0.7269 0.0
C1516 C 0.68653 0.284 0.6998 0.0
H1517 H 0.65254 0.30525 0.73592 0.0
H1518 H 0.68764 0.27184 0.68746 0.0
H1519 H 0.62933 0.22353 0.72364 0.0
H1520 H 0.6047 0.26639 0.67612 0.0
C1521 C 0.60817 0.28909 0.73829 0.0
C1522 C 0.67021 0.24374 0.74942 0.0
C1523 C 0.6275 0.30251 0.66389 0.0
C1524 C 0.66713 0.23523 0.67191 0.0
H1525 H 0.64708 0.25377 0.78897 0.0
H1526 H 0.61169 0.27679 0.78248 0.0
H1527 H 0.58433 0.32441 0.7207 0.0
H1528 H 0.59667 0.33303 0.68077 0.0
H1529 H 0.64359 0.2858 0.62367 0.0
H1530 H 0.66381 0.24808 0.62747 0.0
H1531 H 0.6947 0.20317 0.69127 0.0
H1532 H 0.69776 0.20942 0.73375 0.0
H1533 H 0.60456 0.19524 0.71133 0.0
H1534 H 0.58021 0.23918 0.66309 0.0
H1535 H 0.71977 0.29253 0.69539 0.0
H1536 H 0.68477 0.32649 0.74498 0.0
C1537 C 0.4862 0.10221 0.56291 0.0
C1538 C 0.47374 0.08391 0.56648 0.0
C1539 C 0.47917 0.07622 0.58648 0.0
C1540 C 0.49444 0.09028 0.59418 0.0
N1541 N 0.49862 0.10672 0.5805 0.0
Co1542 Co 0.52058 0.12975 0.58546 0.0
N1543 N 0.52387 0.12229 0.61665 0.0
C1544 C 0.51696 0.10404 0.62617 0.0
C1545 C 0.52119 0.10355 0.64796 0.0
C1546 C 0.53145 0.1227 0.65242 0.0
C1547 C 0.5329 0.13383 0.63306 0.0
N1548 N 0.54305 0.15226 0.59016 0.0
C1549 C 0.55079 0.16092 0.6087 0.0
C1550 C 0.56665 0.17622 0.60451 0.0
C1551 C 0.56887 0.17718 0.58259 0.0
C1552 C 0.55432 0.1625 0.57467 0.0
N1553 N 0.51708 0.13799 0.55438 0.0
C1554 C 0.53066 0.1508 0.54318 0.0
C1555 C 0.52533 0.15297 0.52186 0.0
C1556 C 0.50749 0.1404 0.51913 0.0
C1557 C 0.50275 0.13122 0.53911 0.0
N1558 N 0.49764 0.1504 0.59377 0.0
C1559 C 0.4669 0.17968 0.61077 0.0
C1560 C 0.48308 0.18666 0.5964 0.0
C1561 C 0.49821 0.17177 0.58803 0.0
C1562 C 0.46618 0.15762 0.61569 0.0
C1563 C 0.4815 0.14344 0.60716 0.0
N1564 N 0.54325 0.10835 0.57779 0.0
C1565 C 0.55475 0.07861 0.55522 0.0
C1566 C 0.56946 0.07128 0.57088 0.0
C1567 C 0.57168 0.08412 0.58954 0.0
C1568 C 0.55905 0.10285 0.59229 0.0
C1569 C 0.54167 0.09662 0.55912 0.0
H1570 H 0.56145 0.11223 0.60675 0.0
H1571 H 0.52973 0.10029 0.54716 0.0
H1572 H 0.51062 0.17764 0.57731 0.0
H1573 H 0.48058 0.12686 0.61215 0.0
C1574 C 0.50382 0.08959 0.61479 0.0
C1575 C 0.48742 0.11318 0.54175 0.0
C1576 C 0.54412 0.15461 0.63048 0.0
C1577 C 0.54798 0.16098 0.55321 0.0
H1578 H 0.46238 0.0765 0.55546 0.0
H1579 H 0.47268 0.06209 0.59448 0.0
H1580 H 0.51667 0.09112 0.65939 0.0
H1581 H 0.53727 0.12788 0.66807 0.0
H1582 H 0.57558 0.18584 0.61606 0.0
H1583 H 0.57907 0.18807 0.57351 0.0
H1584 H 0.53373 0.16218 0.50962 0.0
H1585 H 0.49986 0.13746 0.50374 0.0
H1586 H 0.48415 0.20349 0.59174 0.0
H1587 H 0.45425 0.15134 0.62681 0.0
H1588 H 0.55274 0.07014 0.54006 0.0
H1589 H 0.58236 0.07949 0.60253 0.0
C1590 C 0.37819 0.27857 0.75161 0.0
C1591 C 0.38805 0.27837 0.77175 0.0
C1592 C 0.40615 0.26592 0.76978 0.0
C1593 C 0.40638 0.25944 0.74861 0.0
N1594 N 0.38972 0.26719 0.73696 0.0
Co1595 Co 0.3849 0.26285 0.70543 0.0
N1596 N 0.40657 0.23882 0.70429 0.0
C1597 C 0.41914 0.23205 0.72076 0.0
C1598 C 0.43233 0.21505 0.71553 0.0
C1599 C 0.42827 0.21101 0.69426 0.0
C1600 C 0.41296 0.22603 0.68763 0.0
N1601 N 0.38145 0.25953 0.67345 0.0
C1602 C 0.39189 0.2464 0.6592 0.0
C1603 C 0.38658 0.25153 0.63805 0.0
C1604 C 0.37268 0.26871 0.63897 0.0
C1605 C 0.37033 0.27316 0.66055 0.0
N1606 N 0.36185 0.28544 0.70731 0.0
C1607 C 0.35169 0.29486 0.69054 0.0
C1608 C 0.33515 0.30825 0.6968 0.0
C1609 C 0.33476 0.30714 0.71893 0.0
C1610 C 0.3513 0.29328 0.72495 0.0
N1611 N 0.40755 0.28516 0.69912 0.0
C1612 C 0.4354 0.31585 0.67915 0.0
C1613 C 0.41541 0.32194 0.68791 0.0
C1614 C 0.40236 0.30676 0.69851 0.0
C1615 C 0.44217 0.29457 0.6834 0.0
C1616 C 0.42801 0.27953 0.69269 0.0
N1617 N 0.36174 0.24137 0.71117 0.0
C1618 C 0.32555 0.22896 0.70305 0.0
C1619 C 0.32463 0.21693 0.72215 0.0
C1620 C 0.34309 0.21685 0.73537 0.0
C1621 C 0.3615 0.22891 0.72949 0.0
C1622 C 0.34402 0.24085 0.6979 0.0
H1623 H 0.37525 0.22856 0.74013 0.0
H1624 H 0.34331 0.25036 0.68347 0.0
H1625 H 0.38777 0.31291 0.70551 0.0
H1626 H 0.434 0.26336 0.69408 0.0
C1627 C 0.4192 0.24292 0.74042 0.0
C1628 C 0.35729 0.28864 0.74746 0.0
C1629 C 0.40791 0.22986 0.66485 0.0
C1630 C 0.35691 0.28912 0.66933 0.0
H1631 H 0.38235 0.2858 0.7865 0.0
H1632 H 0.41706 0.26109 0.78256 0.0
H1633 H 0.44411 0.20711 0.72573 0.0
H1634 H 0.43662 0.19922 0.68441 0.0
H1635 H 0.39251 0.24391 0.62349 0.0
H1636 H 0.36527 0.27703 0.62549 0.0
H1637 H 0.32424 0.31723 0.68651 0.0
H1638 H 0.32358 0.31554 0.72938 0.0
H1639 H 0.40931 0.33822 0.68614 0.0
H1640 H 0.45822 0.28913 0.67929 0.0
H1641 H 0.31169 0.22991 0.69243 0.0
H1642 H 0.34328 0.20763 0.75023 0.0
C1643 C 0.54664 0.42981 0.5614 0.0
C1644 C 0.56169 0.44518 0.56757 0.0
C1645 C 0.56317 0.44407 0.58968 0.0
C1646 C 0.54886 0.42826 0.5958 0.0
N1647 N 0.53852 0.41934 0.57896 0.0
Co1648 Co 0.51486 0.39759 0.58063 0.0
N1649 N 0.51062 0.40194 0.61239 0.0
C1650 C 0.52477 0.41211 0.62547 0.0
C1651 C 0.51967 0.41037 0.64693 0.0
C1652 C 0.50147 0.39786 0.6476 0.0
C1653 C 0.49629 0.39274 0.62639 0.0
N1654 N 0.49047 0.37657 0.58158 0.0
C1655 C 0.47578 0.37265 0.59735 0.0
C1656 C 0.45959 0.35896 0.59001 0.0
C1657 C 0.46519 0.35285 0.56956 0.0
C1658 C 0.48405 0.3636 0.56533 0.0
N1659 N 0.51975 0.39209 0.54937 0.0
C1660 C 0.51248 0.37502 0.53802 0.0
C1661 C 0.51943 0.37487 0.51699 0.0
C1662 C 0.5317 0.3931 0.51486 0.0
C1663 C 0.53128 0.40346 0.53475 0.0
N1664 N 0.53614 0.37463 0.58773 0.0
C1665 C 0.56875 0.34817 0.60576 0.0
C1666 C 0.54711 0.34584 0.6118 0.0
C1667 C 0.53122 0.35909 0.60265 0.0
C1668 C 0.57345 0.36291 0.58917 0.0
C1669 C 0.55691 0.37573 0.5802 0.0
N1670 N 0.49425 0.42126 0.57396 0.0
C1671 C 0.46927 0.4392 0.54971 0.0
C1672 C 0.46937 0.4579 0.56256 0.0
C1673 C 0.48165 0.4576 0.58147 0.0
C1674 C 0.49406 0.43939 0.58671 0.0
C1675 C 0.48153 0.42098 0.55584 0.0
H1676 H 0.50406 0.44046 0.60082 0.0
H1677 H 0.4811 0.40692 0.54558 0.0
H1678 H 0.51516 0.35739 0.6086 0.0
H1679 H 0.5612 0.38718 0.56779 0.0
C1680 C 0.54219 0.42375 0.61691 0.0
C1681 C 0.54113 0.42451 0.53886 0.0
C1682 C 0.47929 0.37711 0.62042 0.0
C1683 C 0.49562 0.36254 0.54607 0.0
H1684 H 0.5706 0.45611 0.55728 0.0
H1685 H 0.57283 0.45427 0.60009 0.0
H1686 H 0.52836 0.41708 0.66053 0.0
H1687 H 0.49348 0.39252 0.66215 0.0
H1688 H 0.44608 0.35269 0.59914 0.0
H1689 H 0.45668 0.34168 0.55916 0.0
H1690 H 0.51497 0.36365 0.50435 0.0
H1691 H 0.53941 0.39858 0.50017 0.0
H1692 H 0.54253 0.3346 0.62439 0.0
H1693 H 0.58983 0.36485 0.58343 0.0
H1694 H 0.45991 0.43872 0.53495 0.0
H1695 H 0.48231 0.47171 0.59181 0.0
C1696 C 0.77915 0.65235 0.77633 0.0
C1697 C 0.75857 0.64364 0.77482 0.0
C1698 C 0.76055 0.62465 0.76368 0.0
C1699 C 0.78214 0.6228 0.75912 0.0
N1700 N 0.79395 0.63934 0.76681 0.0
Co1701 Co 0.82572 0.64286 0.76386 0.0
N1702 N 0.82707 0.62147 0.73973 0.0
C1703 C 0.81105 0.60796 0.73385 0.0
C1704 C 0.81624 0.59501 0.71667 0.0
C1705 C 0.83704 0.60027 0.7116 0.0
C1706 C 0.84349 0.61604 0.72622 0.0
N1707 N 0.85771 0.64589 0.76125 0.0
C1708 C 0.87187 0.63723 0.74677 0.0
C1709 C 0.89299 0.64191 0.7525 0.0
C1710 C 0.89209 0.65347 0.77137 0.0
C1711 C 0.87054 0.65521 0.77617 0.0
N1712 N 0.8238 0.6645 0.7876 0.0
C1713 C 0.84042 0.67183 0.79946 0.0
C1714 C 0.83431 0.68748 0.81399 0.0
C1715 C 0.81247 0.69013 0.81104 0.0
C1716 C 0.80643 0.67586 0.79489 0.0
N1717 N 0.83061 0.61952 0.78535 0.0
C1718 C 0.84553 0.59138 0.81823 0.0
C1719 C 0.82919 0.60666 0.82232 0.0
C1720 C 0.82177 0.62034 0.80563 0.0
C1721 C 0.85323 0.58988 0.79705 0.0
C1722 C 0.84552 0.6038 0.78105 0.0
N1723 N 0.82147 0.66666 0.74297 0.0
C1724 C 0.83019 0.70315 0.73198 0.0
C1725 C 0.81395 0.70303 0.71627 0.0
C1726 C 0.80161 0.68405 0.71412 0.0
C1727 C 0.8057 0.66605 0.72749 0.0
C1728 C 0.83371 0.68498 0.74496 0.0
H1729 H 0.79587 0.6518 0.72555 0.0
H1730 H 0.84606 0.68612 0.75708 0.0
H1731 H 0.80955 0.6322 0.80941 0.0
H1732 H 0.85271 0.60254 0.76547 0.0
C1733 C 0.79099 0.60865 0.74403 0.0
C1734 C 0.78406 0.67272 0.78732 0.0
C1735 C 0.86621 0.6223 0.72908 0.0
C1736 C 0.86166 0.66651 0.79371 0.0
H1737 H 0.74366 0.65046 0.78085 0.0
H1738 H 0.74762 0.61414 0.75844 0.0
H1739 H 0.80618 0.58306 0.70885 0.0
H1740 H 0.84672 0.59257 0.69926 0.0
H1741 H 0.90755 0.63685 0.74429 0.0
H1742 H 0.90558 0.65972 0.78055 0.0
H1743 H 0.84463 0.69664 0.82471 0.0
H1744 H 0.80225 0.70139 0.81966 0.0
H1745 H 0.82256 0.60839 0.83839 0.0
H1746 H 0.86614 0.57881 0.79295 0.0
H1747 H 0.83981 0.71749 0.73478 0.0
H1748 H 0.78884 0.68312 0.70221 0.0
C1749 C 0.92952 0.97062 0.48643 0.0
C1750 C 0.94805 0.96642 0.47453 0.0
C1751 C 0.95527 0.94643 0.48069 0.0
C1752 C 0.94072 0.93937 0.49579 0.0
N1753 N 0.92441 0.95342 0.49917 0.0
Co1754 Co 0.90078 0.94939 0.52066 0.0
N1755 N 0.90767 0.91813 0.52508 0.0
C1756 C 0.92578 0.90807 0.51857 0.0
C1757 C 0.92567 0.88631 0.523 0.0
C1758 C 0.90628 0.88241 0.53299 0.0
C1759 C 0.89565 0.9021 0.53424 0.0
N1760 N 0.87772 0.94563 0.54276 0.0
C1761 C 0.86882 0.92746 0.55117 0.0
C1762 C 0.8536 0.93245 0.56687 0.0
C1763 C 0.85277 0.95447 0.56816 0.0
C1764 C 0.86752 0.96166 0.55334 0.0
N1765 N 0.89292 0.98044 0.51588 0.0
C1766 C 0.87983 0.9922 0.52872 0.0
C1767 C 0.87798 1.01335 0.52265 0.0
C1768 C 0.89106 1.01541 0.5051 0.0
C1769 C 0.90021 0.99519 0.50125 0.0
N1770 N 0.8807 0.94062 0.4974 0.0
C1771 C 0.85271 0.9244 0.46514 0.0
C1772 C 0.84513 0.93853 0.48126 0.0
C1773 C 0.85942 0.94662 0.49711 0.0
C1774 C 0.87457 0.91881 0.4656 0.0
C1775 C 0.88811 0.92699 0.48163 0.0
N1776 N 0.92182 0.95763 0.54357 0.0
C1777 C 0.95101 0.98101 0.55492 0.0
C1778 C 0.95918 0.96537 0.56921 0.0
C1779 C 0.94692 0.94632 0.57148 0.0
C1780 C 0.92801 0.94318 0.5592 0.0
C1781 C 0.93295 0.97669 0.54209 0.0
H1782 H 0.91911 0.92844 0.5617 0.0
H1783 H 0.92886 0.98871 0.53037 0.0
H1784 H 0.85317 0.95739 0.50931 0.0
H1785 H 0.90455 0.92162 0.48147 0.0
C1786 C 0.94072 0.91892 0.50556 0.0
C1787 C 0.91877 0.99195 0.48667 0.0
C1788 C 0.87483 0.9053 0.54537 0.0
C1789 C 0.8693 0.98286 0.54621 0.0
H1790 H 0.95588 0.97699 0.46303 0.0
H1791 H 0.96937 0.938 0.47473 0.0
H1792 H 0.93783 0.8745 0.51872 0.0
H1793 H 0.90064 0.86689 0.53871 0.0
H1794 H 0.84397 0.92138 0.57635 0.0
H1795 H 0.84198 0.96407 0.57801 0.0
H1796 H 0.86871 0.02596 0.53044 0.0
H1797 H 0.8944 0.03056 0.49715 0.0
H1798 H 0.8283 0.94322 0.48168 0.0
H1799 H 0.88116 0.90745 0.45404 0.0
H1800 H 0.95888 0.99649 0.55296 0.0
H1801 H 0.95212 0.93332 0.58188 0.0
C1802 C 0.25247 0.87854 0.77645 0.0
C1803 C 0.27302 0.88724 0.7742 0.0
C1804 C 0.27094 0.9053 0.76174 0.0
C1805 C 0.24939 0.90656 0.75693 0.0
N1806 N 0.2376 0.89051 0.7657 0.0
Co1807 Co 0.20588 0.88617 0.76214 0.0
N1808 N 0.20451 0.90715 0.7375 0.0
C1809 C 0.22082 0.91971 0.73044 0.0
C1810 C 0.21544 0.93251 0.7132 0.0
C1811 C 0.19421 0.92821 0.70928 0.0
C1812 C 0.18777 0.91312 0.72458 0.0
N1813 N 0.17385 0.88296 0.7594 0.0
C1814 C 0.15951 0.89285 0.74591 0.0
C1815 C 0.13841 0.88803 0.75154 0.0
C1816 C 0.13943 0.87508 0.76943 0.0
C1817 C 0.16103 0.87274 0.77374 0.0
N1818 N 0.20779 0.86402 0.78555 0.0
C1819 C 0.19108 0.85514 0.79621 0.0
C1820 C 0.19733 0.83959 0.81077 0.0
C1821 C 0.21939 0.83853 0.80914 0.0
C1822 C 0.22536 0.85355 0.79366 0.0
N1823 N 0.20025 0.90965 0.78373 0.0
C1824 C 0.18049 0.93755 0.81444 0.0
C1825 C 0.19138 0.91868 0.82082 0.0
C1826 C 0.20186 0.90563 0.80549 0.0
C1827 C 0.18269 0.94354 0.79266 0.0
C1828 C 0.19188 0.92928 0.77765 0.0
N1829 N 0.21098 0.86226 0.74139 0.0
C1830 C 0.2033 0.82534 0.7309 0.0
C1831 C 0.22152 0.8246 0.71757 0.0
C1832 C 0.23403 0.84348 0.71594 0.0
C1833 C 0.22839 0.86212 0.72776 0.0
C1834 C 0.19831 0.84414 0.74246 0.0
H1835 H 0.2385 0.87618 0.72624 0.0
H1836 H 0.18458 0.84349 0.75296 0.0
H1837 H 0.21046 0.89184 0.8116 0.0
H1838 H 0.1915 0.93439 0.76116 0.0
C1839 C 0.24078 0.91945 0.74068 0.0
C1840 C 0.24788 0.85856 0.78824 0.0
C1841 C 0.16503 0.90811 0.72862 0.0
C1842 C 0.16987 0.86035 0.79049 0.0
H1843 H 0.28813 0.88089 0.78021 0.0
H1844 H 0.28382 0.9154 0.75564 0.0
H1845 H 0.22557 0.94406 0.70488 0.0
H1846 H 0.18426 0.93624 0.69735 0.0
H1847 H 0.1238 0.89374 0.74382 0.0
H1848 H 0.126 0.86834 0.77834 0.0
H1849 H 0.18706 0.82981 0.82097 0.0
H1850 H 0.22992 0.82807 0.8184 0.0
H1851 H 0.19132 0.91336 0.83746 0.0
H1852 H 0.17689 0.95894 0.78682 0.0
H1853 H 0.19327 0.81118 0.73307 0.0
H1854 H 0.24816 0.84382 0.70568 0.0
C1855 C 0.10441 0.56182 0.48019 0.0
C1856 C 0.08779 0.5674 0.46621 0.0
C1857 C 0.08084 0.58754 0.4722 0.0
C1858 C 0.09376 0.59334 0.48924 0.0
N1859 N 0.10888 0.57839 0.49398 0.0
Co1860 Co 0.13059 0.58085 0.51769 0.0
N1861 N 0.12457 0.61221 0.52237 0.0
C1862 C 0.10748 0.62317 0.51464 0.0
C1863 C 0.10867 0.64495 0.51877 0.0
C1864 C 0.12768 0.64788 0.52979 0.0
C1865 C 0.137 0.62761 0.53204 0.0
N1866 N 0.15177 0.5831 0.54171 0.0
C1867 C 0.16057 0.60075 0.55116 0.0
C1868 C 0.1734 0.59496 0.56865 0.0
C1869 C 0.17309 0.57289 0.56973 0.0
C1870 C 0.1599 0.56651 0.55312 0.0
N1871 N 0.13726 0.54953 0.51305 0.0
C1872 C 0.14875 0.537 0.5267 0.0
C1873 C 0.15025 0.51591 0.52032 0.0
C1874 C 0.13853 0.51472 0.50172 0.0
C1875 C 0.13038 0.53532 0.49769 0.0
N1876 N 0.153 0.58916 0.4965 0.0
C1877 C 0.18433 0.60471 0.46713 0.0
C1878 C 0.18985 0.58971 0.48333 0.0
C1879 C 0.1739 0.582 0.49774 0.0
C1880 C 0.16288 0.61167 0.4662 0.0
C1881 C 0.14768 0.60377 0.48077 0.0
N1882 N 0.10766 0.5732 0.53864 0.0
C1883 C 0.0758 0.55228 0.54675 0.0
C1884 C 0.07091 0.5653 0.56457 0.0
C1885 C 0.08549 0.58197 0.56966 0.0
C1886 C 0.10373 0.58562 0.55654 0.0
C1887 C 0.09411 0.55633 0.53431 0.0
H1888 H 0.11441 0.59875 0.56068 0.0
H1889 H 0.0968 0.54598 0.52081 0.0
H1890 H 0.17854 0.57055 0.51005 0.0
H1891 H 0.13165 0.61014 0.4795 0.0
C1892 C 0.09352 0.61339 0.49978 0.0
C1893 C 0.11295 0.53955 0.48194 0.0
C1894 C 0.1571 0.62311 0.54409 0.0
C1895 C 0.15796 0.54551 0.54539 0.0
H1896 H 0.0807 0.55744 0.45372 0.0
H1897 H 0.06791 0.59684 0.46498 0.0
H1898 H 0.09776 0.65744 0.51322 0.0
H1899 H 0.13402 0.66325 0.53507 0.0
H1900 H 0.18235 0.60555 0.57928 0.0
H1901 H 0.18219 0.56272 0.58067 0.0
H1902 H 0.15838 0.50278 0.52854 0.0
H1903 H 0.13545 0.49992 0.49306 0.0
H1904 H 0.2063 0.58401 0.48488 0.0
H1905 H 0.15785 0.62378 0.4546 0.0
H1906 H 0.06522 0.53918 0.54201 0.0
H1907 H 0.08293 0.5921 0.58367 0.0
C1908 C 0.7771 0.38125 0.75428 0.0
C1909 C 0.75641 0.38984 0.75522 0.0
C1910 C 0.75787 0.40854 0.7669 0.0
C1911 C 0.77927 0.41036 0.7723 0.0
N1912 N 0.79148 0.39412 0.76454 0.0
Co1913 Co 0.82317 0.39066 0.76838 0.0
N1914 N 0.82355 0.41148 0.79305 0.0
C1915 C 0.80701 0.42418 0.79935 0.0
C1916 C 0.81175 0.43687 0.81685 0.0
C1917 C 0.83279 0.43235 0.82168 0.0
C1918 C 0.8398 0.41726 0.80661 0.0
N1919 N 0.85511 0.38807 0.77148 0.0
C1920 C 0.8689 0.39749 0.78575 0.0
C1921 C 0.89022 0.39317 0.78043 0.0
C1922 C 0.88983 0.38099 0.76198 0.0
C1923 C 0.86838 0.37858 0.75704 0.0
N1924 N 0.82207 0.3687 0.74479 0.0
C1925 C 0.83906 0.36061 0.73395 0.0
C1926 C 0.83341 0.34437 0.71992 0.0
C1927 C 0.81149 0.34201 0.72216 0.0
C1928 C 0.80495 0.35713 0.73733 0.0
N1929 N 0.82844 0.41456 0.74709 0.0
C1930 C 0.84616 0.44441 0.71665 0.0
C1931 C 0.83638 0.42491 0.71012 0.0
C1932 C 0.82684 0.41095 0.72529 0.0
C1933 C 0.8441 0.44954 0.73869 0.0
C1934 C 0.83624 0.43431 0.7535 0.0
N1935 N 0.81851 0.3666 0.78892 0.0
C1936 C 0.82643 0.32968 0.79911 0.0
C1937 C 0.80866 0.32903 0.81305 0.0
C1938 C 0.79656 0.34816 0.81544 0.0
C1939 C 0.80171 0.36667 0.80326 0.0
C1940 C 0.8311 0.34845 0.78741 0.0
H1941 H 0.79177 0.38085 0.8051 0.0
H1942 H 0.84453 0.34783 0.7765 0.0
H1943 H 0.81891 0.39685 0.71899 0.0
H1944 H 0.83715 0.43892 0.77013 0.0
C1945 C 0.78731 0.42379 0.78846 0.0
C1946 C 0.78238 0.36073 0.74385 0.0
C1947 C 0.86265 0.41201 0.80343 0.0
C1948 C 0.86009 0.36636 0.73987 0.0
H1949 H 0.74173 0.38299 0.74869 0.0
H1950 H 0.74466 0.41875 0.77209 0.0
H1951 H 0.80132 0.44842 0.82483 0.0
H1952 H 0.84225 0.44019 0.83411 0.0
H1953 H 0.90456 0.39868 0.78874 0.0
H1954 H 0.90356 0.37468 0.75321 0.0
H1955 H 0.84405 0.33468 0.71001 0.0
H1956 H 0.80153 0.33039 0.71374 0.0
H1957 H 0.83643 0.41979 0.69345 0.0
H1958 H 0.84876 0.46509 0.745 0.0
H1959 H 0.83637 0.31549 0.79664 0.0
H1960 H 0.78313 0.34887 0.82658 0.0
C1961 C 0.60594 0.96901 0.55113 0.0
C1962 C 0.58873 0.96436 0.5647 0.0
C1963 C 0.58098 0.94453 0.55867 0.0
C1964 C 0.59394 0.93802 0.54195 0.0
N1965 N 0.60979 0.95224 0.5374 0.0
Co1966 Co 0.63134 0.94892 0.5137 0.0
N1967 N 0.62405 0.91788 0.50911 0.0
C1968 C 0.60627 0.90779 0.51636 0.0
C1969 C 0.60586 0.88622 0.51104 0.0
C1970 C 0.62458 0.88252 0.49975 0.0
C1971 C 0.63539 0.9021 0.49884 0.0
N1972 N 0.65258 0.94568 0.4898 0.0
C1973 C 0.66136 0.92761 0.48107 0.0
C1974 C 0.67578 0.93272 0.4647 0.0
C1975 C 0.67607 0.95476 0.4632 0.0
C1976 C 0.66188 0.96182 0.47866 0.0
N1977 N 0.63909 0.97998 0.51811 0.0
C1978 C 0.65073 0.99207 0.50422 0.0
C1979 C 0.65259 1.01324 0.51023 0.0
C1980 C 0.64102 1.01493 0.52885 0.0
C1981 C 0.6327 0.99451 0.53336 0.0
N1982 N 0.65348 0.93989 0.53492 0.0
C1983 C 0.68483 0.92311 0.56367 0.0
C1984 C 0.69038 0.93846 0.54783 0.0
C1985 C 0.67447 0.94672 0.53372 0.0
C1986 C 0.66316 0.91688 0.56496 0.0
C1987 C 0.64794 0.9253 0.55057 0.0
N1988 N 0.60863 0.9574 0.49276 0.0
C1989 C 0.57689 0.9788 0.48501 0.0
C1990 C 0.57181 0.96606 0.46704 0.0
C1991 C 0.58625 0.94933 0.46166 0.0
C1992 C 0.60453 0.94532 0.47466 0.0
C1993 C 0.5952 0.97435 0.49739 0.0
H1994 H 0.61507 0.93212 0.47032 0.0
H1995 H 0.5979 0.9844 0.51116 0.0
H1996 H 0.67922 0.95833 0.52162 0.0
H1997 H 0.6317 0.91942 0.55189 0.0
C1998 C 0.59271 0.91809 0.53122 0.0
C1999 C 0.61579 0.99072 0.54972 0.0
C2000 C 0.65583 0.90548 0.4873 0.0
C2001 C 0.66017 0.98299 0.48595 0.0
H2002 H 0.58189 0.97467 0.57704 0.0
H2003 H 0.56745 0.93595 0.56562 0.0
H2004 H 0.59391 0.87435 0.51568 0.0
H2005 H 0.62976 0.86722 0.49306 0.0
H2006 H 0.68527 0.9217 0.455 0.0
H2007 H 0.68627 0.96448 0.45285 0.0
H2008 H 0.66095 0.02606 0.50179 0.0
H2009 H 0.63816 0.02995 0.53722 0.0
H2010 H 0.70687 0.94403 0.54632 0.0
H2011 H 0.658 0.90493 0.57665 0.0
H2012 H 0.56642 0.99192 0.48997 0.0
H2013 H 0.58349 0.93938 0.44756 0.0
C2014 C 0.24873 0.1521 0.75977 0.0
C2015 C 0.26898 0.14293 0.76269 0.0
C2016 C 0.26591 0.12426 0.77412 0.0
C2017 C 0.24406 0.12304 0.77745 0.0
N2018 N 0.23311 0.13972 0.7688 0.0
Co2019 Co 0.20128 0.14398 0.76981 0.0
N2020 N 0.19811 0.1232 0.79427 0.0
C2021 C 0.21332 0.10911 0.80097 0.0
C2022 C 0.2068 0.09636 0.81781 0.0
C2023 C 0.18598 0.1024 0.8218 0.0
C2024 C 0.18087 0.11856 0.80703 0.0
N2025 N 0.16933 0.14784 0.7705 0.0
C2026 C 0.15426 0.14023 0.78459 0.0
C2027 C 0.1336 0.14561 0.77782 0.0
C2028 C 0.13574 0.15641 0.75861 0.0
C2029 C 0.15753 0.15712 0.75472 0.0
N2030 N 0.20499 0.16497 0.74569 0.0
C2031 C 0.18922 0.17234 0.73271 0.0
C2032 C 0.19647 0.18735 0.71805 0.0
C2033 C 0.21817 0.18952 0.72208 0.0
C2034 C 0.223 0.17561 0.73895 0.0
N2035 N 0.19711 0.12023 0.74867 0.0
C2036 C 0.1833 0.09194 0.71549 0.0
C2037 C 0.20039 0.10653 0.71215 0.0
C2038 C 0.20715 0.12037 0.72895 0.0
C2039 C 0.17458 0.09082 0.73632 0.0
C2040 C 0.18171 0.10486 0.75249 0.0
N2041 N 0.20478 0.16809 0.79041 0.0
C2042 C 0.19616 0.20488 0.80045 0.0
C2043 C 0.21087 0.20429 0.81761 0.0
C2044 C 0.22237 0.18493 0.82094 0.0
C2045 C 0.21904 0.16705 0.80726 0.0
C2046 C 0.19332 0.18676 0.78724 0.0
H2047 H 0.22822 0.1525 0.81012 0.0
H2048 H 0.18209 0.18817 0.77408 0.0
H2049 H 0.21991 0.13178 0.72568 0.0
H2050 H 0.17377 0.10389 0.76778 0.0
C2051 C 0.23396 0.1092 0.792 0.0
C2052 C 0.24492 0.17202 0.74756 0.0
C2053 C 0.15859 0.12591 0.80314 0.0
C2054 C 0.16759 0.16771 0.7374 0.0
H2055 H 0.28437 0.14916 0.75728 0.0
H2056 H 0.27826 0.11347 0.78021 0.0
H2057 H 0.21601 0.08402 0.8261 0.0
H2058 H 0.17548 0.0949 0.83355 0.0
H2059 H 0.11852 0.14155 0.78563 0.0
H2060 H 0.12292 0.16297 0.7487 0.0
H2061 H 0.18696 0.19639 0.7065 0.0
H2062 H 0.22913 0.20018 0.71363 0.0
H2063 H 0.20821 0.1076 0.69656 0.0
H2064 H 0.16144 0.07988 0.73993 0.0
H2065 H 0.1873 0.21951 0.79674 0.0
H2066 H 0.23392 0.18361 0.834 0.0
C2067 C 0.43316 0.55875 0.53844 0.0
C2068 C 0.45268 0.56272 0.54867 0.0
C2069 C 0.45845 0.58343 0.54353 0.0
C2070 C 0.44217 0.591 0.53055 0.0
N2071 N 0.42613 0.57657 0.52753 0.0
Co2072 Co 0.40112 0.58064 0.50749 0.0
N2073 N 0.40684 0.61226 0.5039 0.0
C2074 C 0.42475 0.62273 0.51029 0.0
C2075 C 0.42379 0.64461 0.50665 0.0
C2076 C 0.40403 0.64817 0.4973 0.0
C2077 C 0.39407 0.62818 0.49558 0.0
N2078 N 0.37685 0.58434 0.48664 0.0
C2079 C 0.36736 0.60249 0.47879 0.0
C2080 C 0.35141 0.59744 0.46383 0.0
C2081 C 0.35068 0.57543 0.4625 0.0
C2082 C 0.36623 0.56827 0.47653 0.0
N2083 N 0.39444 0.54922 0.5118 0.0
C2084 C 0.38035 0.53753 0.50005 0.0
C2085 C 0.37901 0.51632 0.50626 0.0
C2086 C 0.39354 0.5142 0.5227 0.0
C2087 C 0.40305 0.53433 0.52557 0.0
N2088 N 0.38191 0.58815 0.53184 0.0
C2089 C 0.35369 0.60597 0.56297 0.0
C2090 C 0.3462 0.59122 0.54739 0.0
C2091 C 0.36056 0.58243 0.53208 0.0
C2092 C 0.37581 0.6105 0.56326 0.0
C2093 C 0.38949 0.60151 0.54774 0.0
N2094 N 0.42101 0.57392 0.48321 0.0
C2095 C 0.45027 0.55202 0.46954 0.0
C2096 C 0.45769 0.56891 0.45638 0.0
C2097 C 0.44484 0.58763 0.45541 0.0
C2098 C 0.42622 0.58941 0.46826 0.0
C2099 C 0.43236 0.55493 0.48293 0.0
H2100 H 0.41679 0.60396 0.46676 0.0
H2101 H 0.42854 0.54192 0.4936 0.0
H2102 H 0.35422 0.57157 0.52004 0.0
H2103 H 0.40611 0.60635 0.54816 0.0
C2104 C 0.44077 0.61188 0.52195 0.0
C2105 C 0.42295 0.53728 0.53814 0.0
C2106 C 0.37325 0.62469 0.48458 0.0
C2107 C 0.36854 0.54699 0.48343 0.0
H2108 H 0.46206 0.55157 0.55834 0.0
H2109 H 0.47286 0.59192 0.54859 0.0
H2110 H 0.43573 0.65664 0.51088 0.0
H2111 H 0.39774 0.66367 0.49218 0.0
H2112 H 0.34119 0.60848 0.45491 0.0
H2113 H 0.33948 0.5658 0.45316 0.0
H2114 H 0.36906 0.50375 0.49929 0.0
H2115 H 0.39759 0.49921 0.53074 0.0
H2116 H 0.32933 0.58673 0.5468 0.0
H2117 H 0.38247 0.62179 0.57484 0.0
H2118 H 0.45871 0.53671 0.47018 0.0
H2119 H 0.44943 0.60134 0.44564 0.0
C2120 C 0.78235 0.77913 0.64637 0.0
C2121 C 0.78032 0.75921 0.63626 0.0
C2122 C 0.76368 0.76106 0.62192 0.0
C2123 C 0.75665 0.78198 0.62391 0.0
N2124 N 0.7681 0.79375 0.63819 0.0
Co2125 Co 0.76314 0.82494 0.64547 0.0
N2126 N 0.74133 0.82824 0.62198 0.0
C2127 C 0.73148 0.81202 0.61133 0.0
C2128 C 0.71674 0.81897 0.59636 0.0
C2129 C 0.71735 0.84099 0.59744 0.0
C2130 C 0.73264 0.84626 0.613 0.0
N2131 N 0.75882 0.85638 0.65168 0.0
C2132 C 0.74943 0.87214 0.63946 0.0
C2133 C 0.7506 0.89203 0.64969 0.0
C2134 C 0.76089 0.8886 0.66902 0.0
C2135 C 0.76551 0.86688 0.66948 0.0
N2136 N 0.78421 0.82121 0.6697 0.0
C2137 C 0.78753 0.83566 0.68568 0.0
C2138 C 0.80089 0.82814 0.70168 0.0
C2139 C 0.80591 0.80742 0.69584 0.0
C2140 C 0.79533 0.80343 0.6765 0.0
N2141 N 0.78664 0.83333 0.62538 0.0
C2142 C 0.81813 0.85014 0.59669 0.0
C2143 C 0.81801 0.85561 0.61864 0.0
C2144 C 0.80242 0.84706 0.63254 0.0
C2145 C 0.80212 0.83572 0.58947 0.0
C2146 C 0.78669 0.82739 0.60405 0.0
N2147 N 0.73985 0.81723 0.66635 0.0
C2148 C 0.7128 0.82958 0.69184 0.0
C2149 C 0.71447 0.81041 0.70399 0.0
C2150 C 0.72789 0.79419 0.69562 0.0
C2151 C 0.74042 0.79795 0.67721 0.0
C2152 C 0.72492 0.83228 0.6728 0.0
H2153 H 0.75103 0.78525 0.67251 0.0
H2154 H 0.72274 0.84711 0.66396 0.0
H2155 H 0.80284 0.85231 0.64903 0.0
H2156 H 0.77456 0.81654 0.59791 0.0
C2157 C 0.73934 0.79101 0.6128 0.0
C2158 C 0.79447 0.78187 0.66651 0.0
C2159 C 0.7382 0.86853 0.61881 0.0
C2160 C 0.77822 0.85628 0.68486 0.0
H2161 H 0.78902 0.74448 0.63993 0.0
H2162 H 0.75707 0.74848 0.61174 0.0
H2163 H 0.70746 0.80923 0.58519 0.0
H2164 H 0.70785 0.8519 0.58761 0.0
H2165 H 0.74458 0.90737 0.64385 0.0
H2166 H 0.76507 0.90063 0.68099 0.0
H2167 H 0.80604 0.83658 0.7161 0.0
H2168 H 0.81562 0.79624 0.70515 0.0
H2169 H 0.82946 0.86716 0.62504 0.0
H2170 H 0.80142 0.831 0.57265 0.0
H2171 H 0.70295 0.84294 0.69721 0.0
H2172 H 0.72925 0.77863 0.70352 0.0
C2173 C 0.7768 0.25426 0.8817 0.0
C2174 C 0.77538 0.27457 0.89111 0.0
C2175 C 0.76378 0.27206 0.90975 0.0
C2176 C 0.75892 0.25044 0.91071 0.0
N2177 N 0.76688 0.23914 0.89396 0.0
Co2178 Co 0.76376 0.20757 0.8891 0.0
N2179 N 0.73877 0.20584 0.90931 0.0
C2180 C 0.73259 0.22141 0.92324 0.0
C2181 C 0.71483 0.21595 0.93521 0.0
C2182 C 0.7097 0.19544 0.92886 0.0
C2183 C 0.72486 0.18941 0.91346 0.0
N2184 N 0.76103 0.17574 0.88477 0.0
C2185 C 0.74605 0.16148 0.89223 0.0
C2186 C 0.75175 0.14042 0.88707 0.0
C2187 C 0.77114 0.14147 0.87646 0.0
C2188 C 0.77624 0.16305 0.87573 0.0
N2189 N 0.78836 0.20997 0.86861 0.0
C2190 C 0.80041 0.19352 0.86117 0.0
C2191 C 0.81519 0.20005 0.84596 0.0
C2192 C 0.81216 0.22196 0.84371 0.0
C2193 C 0.79573 0.22764 0.85779 0.0
N2194 N 0.78407 0.20159 0.91319 0.0
C2195 C 0.8156 0.18593 0.94243 0.0
C2196 C 0.82035 0.20268 0.92783 0.0
C2197 C 0.80433 0.21045 0.91359 0.0
C2198 C 0.7944 0.17811 0.94269 0.0
C2199 C 0.77903 0.18618 0.92824 0.0
N2200 N 0.74405 0.21297 0.86454 0.0
C2201 C 0.73488 0.20587 0.82721 0.0
C2202 C 0.71989 0.22271 0.82716 0.0
C2203 C 0.71678 0.23433 0.84638 0.0
C2204 C 0.72896 0.22916 0.86493 0.0
C2205 C 0.74669 0.20128 0.84593 0.0
H2206 H 0.7265 0.23853 0.87941 0.0
H2207 H 0.75843 0.18852 0.84501 0.0
H2208 H 0.80864 0.22302 0.90229 0.0
H2209 H 0.76336 0.17893 0.92868 0.0
C2210 C 0.74314 0.24133 0.92389 0.0
C2211 C 0.78778 0.24986 0.86127 0.0
C2212 C 0.72781 0.1669 0.90648 0.0
C2213 C 0.79433 0.17212 0.86551 0.0
H2214 H 0.78167 0.28966 0.8849 0.0
H2215 H 0.75837 0.28472 0.92053 0.0
H2216 H 0.70669 0.22564 0.94727 0.0
H2217 H 0.69696 0.18562 0.93566 0.0
H2218 H 0.74313 0.12579 0.8912 0.0
H2219 H 0.78044 0.12808 0.87014 0.0
H2220 H 0.82601 0.18994 0.83668 0.0
H2221 H 0.82084 0.23241 0.83274 0.0
H2222 H 0.83645 0.20943 0.92707 0.0
H2223 H 0.78984 0.16492 0.95323 0.0
H2224 H 0.73768 0.19646 0.81273 0.0
H2225 H 0.70522 0.24745 0.84699 0.0
C2226 C 0.4708 0.9882 0.43223 0.0
C2227 C 0.46762 0.97816 0.45203 0.0
C2228 C 0.44763 0.98431 0.45915 0.0
C2229 C 0.4397 0.99778 0.44344 0.0
N2230 N 0.4532 1.00016 0.42653 0.0
Co2231 Co 0.44876 0.02092 0.4022 0.0
N2232 N 0.4178 0.02587 0.40973 0.0
C2233 C 0.40818 0.02015 0.42832 0.0
C2234 C 0.38659 0.02524 0.42877 0.0
C2235 C 0.38234 0.0348 0.40921 0.0
C2236 C 0.40164 0.03503 0.39791 0.0
N2237 N 0.44472 0.04235 0.37849 0.0
C2238 C 0.42641 0.05073 0.36986 0.0
C2239 C 0.43106 0.06547 0.3536 0.0
C2240 C 0.45303 0.06621 0.35187 0.0
C2241 C 0.46053 0.05199 0.36711 0.0
N2242 N 0.47942 1.01544 0.39367 0.0
C2243 C 0.4908 0.02678 0.37901 0.0
C2244 C 0.51123 0.01895 0.37571 0.0
C2245 C 0.51316 1.00186 0.38954 0.0
C2246 C 0.4938 1.00041 0.40074 0.0
N2247 N 0.43932 0.99718 0.38305 0.0
C2248 C 0.42202 0.96468 0.35599 0.0
C2249 C 0.4364 0.98029 0.3479 0.0
C2250 C 0.44496 0.99627 0.36169 0.0
C2251 C 0.41682 0.96569 0.37796 0.0
C2252 C 0.4256 0.98182 0.39107 0.0
N2253 N 0.45768 0.04445 0.42225 0.0
C2254 C 0.48154 0.05608 0.45094 0.0
C2255 C 0.46591 0.07022 0.45934 0.0
C2256 C 0.44674 0.07249 0.44731 0.0
C2257 C 0.44336 0.06016 0.4285 0.0
C2258 C 0.47702 0.04325 0.43289 0.0
H2259 H 0.42851 0.06264 0.41979 0.0
H2260 H 0.48905 0.03171 0.4284 0.0
H2261 H 0.4558 1.0081 0.35495 0.0
H2262 H 0.42062 0.98213 0.40767 0.0
C2263 C 0.41934 1.00769 0.44354 0.0
C2264 C 0.49161 0.98779 0.42071 0.0
C2265 C 0.40445 0.04538 0.37671 0.0
C2266 C 0.48155 0.0441 0.36802 0.0
H2267 H 0.47885 0.96804 0.46079 0.0
H2268 H 0.43991 0.97971 0.47413 0.0
H2269 H 0.37514 0.02184 0.44152 0.0
H2270 H 0.3669 0.04105 0.40391 0.0
H2271 H 0.41978 0.07448 0.34374 0.0
H2272 H 0.46233 0.07511 0.34006 0.0
H2273 H 0.52338 0.0251 0.36478 0.0
H2274 H 0.52761 0.99235 0.39204 0.0
H2275 H 0.44088 0.98027 0.33101 0.0
H2276 H 0.40531 0.95454 0.38496 0.0
H2277 H 0.4971 0.05421 0.45865 0.0
H2278 H 0.4338 0.08289 0.45268 0.0
C2279 C 0.24266 0.27952 0.88798 0.0
C2280 C 0.24377 0.2597 0.89845 0.0
C2281 C 0.26118 0.26058 0.91193 0.0
C2282 C 0.26954 0.28089 0.90917 0.0
N2283 N 0.25824 0.2932 0.89519 0.0
Co2284 Co 0.26476 0.32391 0.88737 0.0
N2285 N 0.2872 0.32628 0.91036 0.0
C2286 C 0.29639 0.3097 0.92106 0.0
C2287 C 0.31145 0.31611 0.93596 0.0
C2288 C 0.31175 0.33815 0.93474 0.0
C2289 C 0.29669 0.34396 0.91916 0.0
N2290 N 0.27119 0.35471 0.88021 0.0
C2291 C 0.28172 0.3701 0.89191 0.0
C2292 C 0.28209 0.38964 0.88096 0.0
C2293 C 0.27156 0.38632 0.86173 0.0
C2294 C 0.2653 0.36502 0.86203 0.0
N2295 N 0.24264 0.32121 0.86391 0.0
C2296 C 0.24001 0.33544 0.84762 0.0
C2297 C 0.2254 0.32873 0.83239 0.0
C2298 C 0.21877 0.30873 0.8391 0.0
C2299 C 0.22968 0.30431 0.85818 0.0
N2300 N 0.24235 0.33406 0.90777 0.0
C2301 C 0.21124 0.3515 0.93636 0.0
C2302 C 0.21225 0.35795 0.91471 0.0
C2303 C 0.22768 0.34909 0.90084 0.0
C2304 C 0.22635 0.33605 0.94342 0.0
C2305 C 0.24164 0.32743 0.92887 0.0
N2306 N 0.2869 0.31444 0.86622 0.0
C2307 C 0.31743 0.32293 0.8433 0.0
C2308 C 0.31161 0.30657 0.82858 0.0
C2309 C 0.29421 0.29335 0.83423 0.0
C2310 C 0.28253 0.2973 0.85304 0.0
C2311 C 0.30491 0.32658 0.86199 0.0
H2312 H 0.26918 0.28704 0.85607 0.0
H2313 H 0.30935 0.33971 0.87255 0.0
H2314 H 0.22792 0.35492 0.88452 0.0
H2315 H 0.25302 0.31566 0.9348 0.0
C2316 C 0.28753 0.28908 0.91984 0.0
C2317 C 0.22976 0.28271 0.86833 0.0
C2318 C 0.29235 0.36638 0.91287 0.0
C2319 C 0.25127 0.35508 0.84738 0.0
H2320 H 0.23383 0.24561 0.89557 0.0
H2321 H 0.26725 0.2478 0.92222 0.0
H2322 H 0.32032 0.30605 0.9472 0.0
H2323 H 0.32171 0.34872 0.94445 0.0
H2324 H 0.28917 0.40469 0.88631 0.0
H2325 H 0.26816 0.39825 0.8494 0.0
H2326 H 0.22053 0.33713 0.81785 0.0
H2327 H 0.20793 0.29819 0.83037 0.0
H2328 H 0.20153 0.37032 0.90853 0.0
H2329 H 0.22636 0.33064 0.96005 0.0
H2330 H 0.33137 0.33303 0.84038 0.0
H2331 H 0.28892 0.28038 0.82377 0.0
C2332 C 0.05941 0.04833 0.92634 0.0
C2333 C 0.0652 0.06424 0.94101 0.0
C2334 C 0.087 0.06244 0.94398 0.0
C2335 C 0.09331 0.04568 0.93091 0.0
N2336 N 0.07699 0.03678 0.91969 0.0
Co2337 Co 0.07951 1.0118 0.89915 0.0
N2338 N 0.11158 1.00896 0.90355 0.0
C2339 C 0.12369 0.02153 0.9165 0.0
C2340 C 0.14541 0.01767 0.91474 0.0
C2341 C 0.14733 1.00172 0.89958 0.0
C2342 C 0.12657 0.99651 0.89306 0.0
N2343 N 0.08169 0.98607 0.87952 0.0
C2344 C 0.09893 0.9736 0.87403 0.0
C2345 C 0.09263 0.95512 0.86301 0.0
C2346 C 0.07077 0.9563 0.8608 0.0
C2347 C 0.065 0.97515 0.8709 0.0
N2348 N 0.04765 1.01491 0.89376 0.0
C2349 C 0.03554 1.00178 0.88133 0.0
C2350 C 1.01422 1.00738 0.88045 0.0
C2351 C 1.01243 0.02508 0.89338 0.0
C2352 C 0.03294 0.0294 0.90146 0.0
N2353 N 0.08537 0.03247 0.87501 0.0
C2354 C 0.10207 0.06486 0.84731 0.0
C2355 C 0.10851 0.04327 0.84538 0.0
C2356 C 0.09986 0.02749 0.85911 0.0
C2357 C 0.08576 0.06958 0.86222 0.0
C2358 C 0.07735 0.05316 0.87548 0.0
N2359 N 0.07404 0.9918 0.92384 0.0
C2360 C 0.05375 0.98336 0.95615 0.0
C2361 C 0.06764 0.96635 0.96152 0.0
C2362 C 0.08471 0.96204 0.94718 0.0
C2363 C 0.08765 0.97493 0.92859 0.0
C2364 C 0.05703 0.99547 0.93743 0.0
H2365 H 0.10105 0.97116 0.91821 0.0
H2366 H 0.04569 1.00798 0.93442 0.0
H2367 H 0.10571 1.01153 0.85717 0.0
H2368 H 0.06483 0.05768 0.88649 0.0
C2369 C 0.11429 0.03796 0.92866 0.0
C2370 C 0.03704 0.04518 0.91882 0.0
C2371 C 0.12162 0.97976 0.87678 0.0
C2372 C 0.04429 0.98345 0.87189 0.0
H2373 H 0.05472 0.07593 0.94868 0.0
H2374 H 0.09705 0.0722 0.95442 0.0
H2375 H 0.15839 0.026 0.92296 0.0
H2376 H 0.16239 0.99509 0.89382 0.0
H2377 H 0.10291 0.94252 0.85657 0.0
H2378 H 0.06036 0.94495 0.85254 0.0
H2379 H 1.00132 0.99906 0.8721 0.0
H2380 H 0.99736 0.03297 0.89712 0.0
H2381 H 0.12097 0.03863 0.83403 0.0
H2382 H 0.07978 0.08595 0.86392 0.0
H2383 H 0.04035 0.98763 0.96653 0.0
H2384 H 0.09562 0.94868 0.95008 0.0
C2385 C 0.75204 0.25216 0.15223 0.0
C2386 C 0.75305 0.27263 0.14312 0.0
C2387 C 0.76404 0.27049 0.12407 0.0
C2388 C 0.76901 0.24892 0.12259 0.0
N2389 N 0.76173 0.23729 0.13943 0.0
Co2390 Co 0.76539 0.20565 0.14365 0.0
N2391 N 0.78961 0.20448 0.12252 0.0
C2392 C 0.79499 0.22024 0.10849 0.0
C2393 C 0.8125 0.21521 0.09596 0.0
C2394 C 0.8183 0.19479 0.10208 0.0
C2395 C 0.80377 0.18837 0.11792 0.0
N2396 N 0.7687 0.17383 0.14749 0.0
C2397 C 0.78386 0.15994 0.13968 0.0
C2398 C 0.77872 0.13874 0.14486 0.0
C2399 C 0.75954 0.13935 0.15588 0.0
C2400 C 0.75399 0.16081 0.15684 0.0
N2401 N 0.74148 0.20748 0.16502 0.0
C2402 C 0.7299 0.19076 0.17258 0.0
C2403 C 0.71544 0.19687 0.18827 0.0
C2404 C 0.71815 0.21879 0.1907 0.0
C2405 C 0.73407 0.2249 0.17623 0.0
N2406 N 0.74432 0.19971 0.12019 0.0
C2407 C 0.71229 0.18418 0.09141 0.0
C2408 C 0.70767 0.20063 0.10642 0.0
C2409 C 0.72393 0.20833 0.12044 0.0
C2410 C 0.73354 0.17652 0.09063 0.0
C2411 C 0.74914 0.1845 0.10486 0.0
N2412 N 0.78604 0.21081 0.16741 0.0
C2413 C 0.79768 0.20248 0.20375 0.0
C2414 C 0.81355 0.21853 0.20302 0.0
C2415 C 0.81534 0.23069 0.18389 0.0
C2416 C 0.80155 0.2265 0.16627 0.0
C2417 C 0.78427 0.19888 0.18595 0.0
H2418 H 0.80328 0.23611 0.15183 0.0
H2419 H 0.77212 0.18659 0.18748 0.0
H2420 H 0.71976 0.22067 0.13203 0.0
H2421 H 0.76486 0.17735 0.10398 0.0
C2422 C 0.78426 0.24009 0.1086 0.0
C2423 C 0.7413 0.24736 0.17274 0.0
C2424 C 0.8017 0.16583 0.12513 0.0
C2425 C 0.73611 0.1695 0.16774 0.0
H2426 H 0.74679 0.28757 0.14971 0.0
H2427 H 0.76893 0.28334 0.11328 0.0
H2428 H 0.82013 0.22516 0.08379 0.0
H2429 H 0.83114 0.18531 0.09495 0.0
H2430 H 0.78757 0.1243 0.14051 0.0
H2431 H 0.75072 0.12575 0.1624 0.0
H2432 H 0.70501 0.18648 0.19769 0.0
H2433 H 0.70958 0.229 0.20199 0.0
H2434 H 0.69153 0.20722 0.10761 0.0
H2435 H 0.73801 0.16352 0.0798 0.0
H2436 H 0.79518 0.19303 0.21826 0.0
H2437 H 0.82734 0.24333 0.18253 0.0
C2438 C 0.47187 0.03965 0.10103 0.0
C2439 C 0.46916 0.04938 0.081 0.0
C2440 C 0.44902 0.04385 0.07385 0.0
C2441 C 0.44052 0.03102 0.08976 0.0
N2442 N 0.45382 0.02846 0.10684 0.0
Co2443 Co 0.44861 1.00808 0.13137 0.0
N2444 N 0.41766 1.00368 0.12341 0.0
C2445 C 0.40833 1.00965 0.10473 0.0
C2446 C 0.38667 1.00493 0.10398 0.0
C2447 C 0.38206 0.99537 0.12344 0.0
C2448 C 0.40123 0.99476 0.13497 0.0
N2449 N 0.44393 0.98696 0.15522 0.0
C2450 C 0.42541 0.97875 0.16345 0.0
C2451 C 0.42962 0.96411 0.17995 0.0
C2452 C 0.45152 0.96329 0.18226 0.0
C2453 C 0.45944 0.97735 0.1671 0.0
N2454 N 0.47922 1.01326 0.14043 0.0
C2455 C 0.49009 1.00225 0.15575 0.0
C2456 C 0.51044 1.01006 0.15952 0.0
C2457 C 0.51288 0.02677 0.14533 0.0
C2458 C 0.49394 0.02794 0.13338 0.0
N2459 N 0.43929 0.03221 0.15016 0.0
C2460 C 0.42208 0.06512 0.17682 0.0
C2461 C 0.43612 0.04931 0.18518 0.0
C2462 C 0.44461 0.03313 0.17161 0.0
C2463 C 0.41721 0.06412 0.15476 0.0
C2464 C 0.42598 0.0478 0.14184 0.0
N2465 N 0.45734 0.98412 0.11166 0.0
C2466 C 0.48216 0.97187 0.08413 0.0
C2467 C 0.46613 0.95941 0.07413 0.0
C2468 C 0.44645 0.95731 0.08521 0.0
C2469 C 0.44264 0.96928 0.10421 0.0
C2470 C 0.47736 0.98424 0.10238 0.0
H2471 H 0.4273 0.96718 0.11209 0.0
H2472 H 0.48976 0.99459 0.10818 0.0
H2473 H 0.45512 0.02115 0.17862 0.0
H2474 H 0.42129 0.04752 0.12515 0.0
C2475 C 0.41991 0.02171 0.08956 0.0
C2476 C 0.49255 0.03974 0.11283 0.0
C2477 C 0.40364 0.98428 0.15614 0.0
C2478 C 0.48048 0.98515 0.16672 0.0
H2479 H 0.48078 0.05891 0.07211 0.0
H2480 H 0.44158 0.0484 0.0587 0.0
H2481 H 0.37544 1.00852 0.09107 0.0
H2482 H 0.36648 0.98935 0.12852 0.0
H2483 H 0.41808 0.95527 0.18962 0.0
H2484 H 0.46051 0.95447 0.19439 0.0
H2485 H 0.52222 1.0041 0.17098 0.0
H2486 H 0.52747 0.03608 0.14301 0.0
H2487 H 0.44037 0.04932 0.20214 0.0
H2488 H 0.40597 0.07542 0.14753 0.0
H2489 H 0.49831 0.97276 0.07754 0.0
H2490 H 0.43369 0.94719 0.07887 0.0
C2491 C 0.55795 0.48981 0.10179 0.0
C2492 C 0.56103 0.47992 0.08191 0.0
C2493 C 0.58135 0.48532 0.07516 0.0
C2494 C 0.58957 0.49825 0.09114 0.0
N2495 N 0.57594 0.50099 0.1079 0.0
Co2496 Co 0.58078 0.52155 0.13237 0.0
N2497 N 0.61192 0.52578 0.12507 0.0
C2498 C 0.6216 0.51954 0.10667 0.0
C2499 C 0.6433 0.52405 0.10637 0.0
C2500 C 0.64758 0.53381 0.12581 0.0
C2501 C 0.62817 0.5348 0.13688 0.0
N2502 N 0.58508 0.54287 0.15613 0.0
C2503 C 0.60344 0.5513 0.16457 0.0
C2504 C 0.59885 0.56641 0.18053 0.0
C2505 C 0.57692 0.56717 0.18242 0.0
C2506 C 0.56934 0.5527 0.16749 0.0
N2507 N 0.54996 0.51659 0.14077 0.0
C2508 C 0.53886 0.52772 0.15582 0.0
C2509 C 0.51847 0.51992 0.15934 0.0
C2510 C 0.51624 0.50309 0.14526 0.0
C2511 C 0.53535 0.50185 0.13359 0.0
N2512 N 0.58964 0.49754 0.15153 0.0
C2513 C 0.60641 0.46474 0.17861 0.0
C2514 C 0.59261 0.48084 0.18678 0.0
C2515 C 0.58429 0.49695 0.17298 0.0
C2516 C 0.61129 0.46539 0.15656 0.0
C2517 C 0.60279 0.48169 0.14344 0.0
N2518 N 0.57257 0.54537 0.11231 0.0
C2519 C 0.54884 0.55751 0.08373 0.0
C2520 C 0.56491 0.57079 0.07486 0.0
C2521 C 0.58429 0.57253 0.08664 0.0
C2522 C 0.5874 0.5604 0.10564 0.0
C2523 C 0.55309 0.54486 0.10197 0.0
H2524 H 0.60242 0.56247 0.11414 0.0
H2525 H 0.54078 0.53395 0.10687 0.0
H2526 H 0.57391 0.50914 0.1798 0.0
H2527 H 0.60757 0.48173 0.1268 0.0
C2528 C 0.61024 0.50743 0.09136 0.0
C2529 C 0.53701 0.48993 0.11314 0.0
C2530 C 0.6254 0.54564 0.15788 0.0
C2531 C 0.5483 0.54491 0.16678 0.0
H2532 H 0.54957 0.47037 0.07283 0.0
H2533 H 0.58908 0.48061 0.06021 0.0
H2534 H 0.65478 0.52019 0.09378 0.0
H2535 H 0.66314 0.53967 0.13115 0.0
H2536 H 0.61016 0.57567 0.19009 0.0
H2537 H 0.56768 0.57633 0.19409 0.0
H2538 H 0.50652 0.52597 0.17056 0.0
H2539 H 0.50169 0.49375 0.14279 0.0
H2540 H 0.58841 0.4811 0.20375 0.0
H2541 H 0.62236 0.45384 0.1495 0.0
H2542 H 0.53312 0.55614 0.07623 0.0
H2543 H 0.59753 0.58231 0.08093 0.0
C2544 C 0.1902 0.31808 0.23105 0.0
C2545 C 0.20842 0.30605 0.22473 0.0
C2546 C 0.17919 0.31346 0.25042 0.0
C2547 C 0.18601 0.29666 0.26421 0.0
H2548 H 0.18429 0.33099 0.22081 0.0
H2549 H 0.16489 0.32272 0.25441 0.0
S2550 S 0.23407 0.26195 0.25611 0.0
N2551 N 0.23377 0.27785 0.23466 0.0
N2552 N 0.21289 0.26889 0.27076 0.0
C2553 C 0.20463 0.28506 0.25842 0.0
C2554 C 0.21584 0.28979 0.23875 0.0
C2555 C 0.54823 0.57139 0.03747 0.0
C2556 C 0.56137 0.58158 0.05315 0.0
C2557 C 0.54328 0.58126 0.01763 0.0
C2558 C 0.55188 0.60148 1.01196 0.0
H2559 H 0.54138 0.55559 0.04049 0.0
H2560 H 0.53221 0.57312 1.0068 0.0
S2561 S 0.58815 0.63495 0.04577 0.0
N2562 N 0.58296 0.61362 0.06093 0.0
N2563 N 0.57527 0.63091 0.02278 0.0
C2564 C 0.56597 0.61142 0.02673 0.0
C2565 C 0.57036 0.60181 0.04742 0.0
C2566 C 0.84212 0.24891 0.24868 0.0
C2567 C 0.85177 0.23233 0.26097 0.0
C2568 C 0.83022 0.24437 0.22984 0.0
C2569 C 0.82738 0.22302 0.22246 0.0
H2570 H 0.84372 0.26558 0.25365 0.0
H2571 H 0.82283 0.25769 0.22122 0.0
S2572 S 0.85059 0.1739 0.24814 0.0
N2573 N 0.85845 0.19388 0.26399 0.0
N2574 N 0.83626 0.18518 0.22864 0.0
C2575 C 0.83725 0.20631 0.2345 0.0
C2576 C 0.84938 0.211 0.25368 0.0
C2577 C 0.46647 0.91855 0.02714 0.0
C2578 C 0.47993 0.92845 1.01168 0.0
C2579 C 0.46182 0.92859 0.04709 0.0
C2580 C 0.47003 0.94924 0.05229 0.0
H2581 H 0.46013 0.90253 0.02408 0.0
H2582 H 0.45221 0.91979 0.05873 0.0
S2583 S 0.50319 0.9835 0.01581 0.0
N2584 N 0.50017 0.96069 1.00241 0.0
N2585 N 0.48983 0.98034 0.03859 0.0
C2586 C 0.48228 0.95986 0.03624 0.0
C2587 C 0.48756 0.94934 0.01631 0.0
C2588 C 0.1788 0.7087 0.30324 0.0
C2589 C 0.19947 0.71766 0.30666 0.0
C2590 C 0.16751 0.71189 0.28369 0.0
C2591 C 0.17593 0.7249 0.26702 0.0
H2592 H 0.17088 0.69975 0.31598 0.0
H2593 H 0.15152 0.70502 0.28206 0.0
S2594 S 0.23125 0.74808 0.26576 0.0
N2595 N 0.22956 0.73633 0.28959 0.0
N2596 N 0.2076 0.7442 0.25418 0.0
C2597 C 0.19716 0.73266 0.26963 0.0
C2598 C 0.20899 0.72871 0.28912 0.0
C2599 C 0.99749 0.59827 1.00429 0.0
C2600 C 0.98118 0.60457 0.01879 0.0
C2601 C 0.9926 0.58835 0.98451 0.0
C2602 C 0.97114 0.58392 0.97834 0.0
H2603 H 1.01427 0.60117 1.00818 0.0
H2604 H 1.00586 0.58411 0.97396 0.0
S2605 S 0.92244 0.59684 1.01091 0.0
N2606 N 0.94271 0.60593 0.02568 0.0
N2607 N 0.93337 0.58638 0.98894 0.0
C2608 C 0.95462 0.59013 0.99278 0.0
C2609 C 0.95967 0.60055 1.01289 0.0
C2610 C 0.83465 0.78088 0.27831 0.0
C2611 C 0.84563 0.7966 0.26604 0.0
C2612 C 0.82389 0.78628 0.29765 0.0
C2613 C 0.82361 0.80766 0.30554 0.0
H2614 H 0.83474 0.76417 0.27308 0.0
H2615 H 0.81566 0.77362 0.30646 0.0
S2616 S 0.85158 0.85443 0.28049 0.0
N2617 N 0.85679 0.8341 0.26401 0.0
N2618 N 0.83627 0.8444 0.29988 0.0
C2619 C 0.83467 0.82347 0.29344 0.0
C2620 C 0.84576 0.81792 0.27388 0.0
C2621 C 0.04201 0.94841 0.98755 0.0
C2622 C 0.06345 0.95328 0.98165 0.0
C2623 C 0.03709 0.93758 1.00682 0.0
C2624 C 0.05333 0.93065 0.02115 0.0
H2625 H 0.02873 0.95298 0.97712 0.0
H2626 H 0.02029 0.93442 1.01041 0.0
S2627 S 0.11212 0.93859 1.0136 0.0
N2628 N 0.1012 0.9502 0.99218 0.0
N2629 N 0.09184 0.92883 0.0279 0.0
C2630 C 0.07487 0.93493 0.01543 0.0
C2631 C 0.07995 0.94635 0.99583 0.0
C2632 C 0.25438 0.19599 0.27884 0.0
C2633 C 0.26552 0.18285 0.29367 0.0
C2634 C 0.23481 0.2062 0.28443 0.0
C2635 C 0.22551 0.2036 0.30505 0.0
H2636 H 0.26066 0.19807 0.26265 0.0
H2637 H 0.22693 0.21624 0.27248 0.0
S2638 S 0.24737 0.16878 0.34887 0.0
N2639 N 0.26526 0.16657 0.32924 0.0
N2640 N 0.22858 0.18543 0.33981 0.0
C2641 C 0.23645 0.19012 0.31988 0.0
C2642 C 0.25637 0.17983 0.31417 0.0
C2643 C 0.43105 0.54482 0.95864 0.0
C2644 C 0.45205 0.54872 0.96665 0.0
C2645 C 0.42018 0.52516 0.96262 0.0
C2646 C 0.42942 0.50872 0.97543 0.0
H2647 H 0.42258 0.55727 0.94974 0.0
H2648 H 0.40398 0.52315 0.95636 0.0
S2649 S 0.48533 0.50894 0.9972 0.0
N2650 N 0.48292 0.53246 0.9849 0.0
N2651 N 0.4618 0.49691 0.99421 0.0
C2652 C 0.45078 0.51193 0.98259 0.0
C2653 C 0.46216 0.53154 0.97786 0.0
C2654 C 0.79911 0.34691 0.31533 0.0
C2655 C 0.80316 0.32624 0.30655 0.0
C2656 C 0.7798 0.35811 0.31097 0.0
C2657 C 0.76394 0.34945 0.29719 0.0
H2658 H 0.81124 0.35495 0.32499 0.0
H2659 H 0.77771 0.37418 0.3176 0.0
S2660 S 0.76446 0.29484 0.27284 0.0
N2661 N 0.78761 0.29638 0.28599 0.0
N2662 N 0.7523 0.31827 0.27668 0.0
C2663 C 0.76705 0.32845 0.28934 0.0
C2664 C 0.78644 0.31673 0.29417 0.0
C2665 C 0.59666 0.98864 0.95672 0.0
C2666 C 0.57605 0.98407 0.96536 0.0
C2667 C 0.60721 1.00847 0.96074 0.0
C2668 C 0.59812 0.02435 0.9743 0.0
H2669 H 0.60512 0.9766 0.94729 0.0
H2670 H 0.62311 1.011 0.95394 0.0
S2671 S 0.54303 0.02251 0.99779 0.0
N2672 N 0.54545 0.99936 0.98481 0.0
N2673 N 0.56626 0.035 0.9945 0.0
C2674 C 0.57713 0.0205 0.98211 0.0
C2675 C 0.56597 1.0008 0.97723 0.0
C2676 C 0.23201 0.82869 0.25063 0.0
C2677 C 0.22431 0.82658 0.22924 0.0
C2678 C 0.25171 0.83886 0.25534 0.0
C2679 C 0.26467 0.84772 0.23898 0.0
H2680 H 0.22256 0.82276 0.26408 0.0
H2681 H 0.2566 0.84037 0.27208 0.0
S2682 S 0.25219 0.84765 0.18042 0.0
N2683 N 0.23191 0.8343 0.19142 0.0
N2684 N 0.26805 0.85485 0.20061 0.0
C2685 C 0.25722 0.84617 0.21758 0.0
C2686 C 0.2373 0.83535 0.21265 0.0
C2687 C 0.10681 0.52656 0.06948 0.0
C2688 C 0.09768 0.51105 0.05554 0.0
C2689 C 0.09672 0.54666 0.07329 0.0
C2690 C 0.07658 0.55196 0.06395 0.0
H2691 H 0.12247 0.52353 0.07667 0.0
H2692 H 0.10522 0.55836 0.0831 0.0
S2693 S 0.04367 0.51497 0.02977 0.0
N2694 N 0.06629 0.50157 0.03404 0.0
N2695 N 0.04633 0.53794 0.04299 0.0
C2696 C 0.06643 0.53569 0.0515 0.0
C2697 C 0.07712 0.51562 0.04697 0.0
C2698 C 0.79525 0.69727 0.20814 0.0
C2699 C 0.80815 0.70648 0.22457 0.0
C2700 C 0.77618 0.68578 0.21298 0.0
C2701 C 0.76916 0.68316 0.23441 0.0
H2702 H 0.80006 0.69874 0.1914 0.0
H2703 H 0.76698 0.67871 0.1999 0.0
S2704 S 0.7961 0.7051 0.28322 0.0
N2705 N 0.81168 0.71294 0.26309 0.0
N2706 N 0.77629 0.69123 0.27205 0.0
C2707 C 0.78172 0.69248 0.25088 0.0
C2708 C 0.80107 0.70414 0.24602 0.0
C2709 C 0.93535 1.00544 0.03451 0.0
C2710 C 0.92872 0.01977 0.05087 0.0
C2711 C 0.94601 0.98598 0.03933 0.0
C2712 C 0.95072 0.97989 0.06077 0.0
H2713 H 0.93223 1.00925 0.01774 0.0
H2714 H 0.95058 0.97557 0.02603 0.0
S2715 S 0.93692 1.01195 0.10961 0.0
N2716 N 0.92733 0.02651 0.08939 0.0
N2717 N 0.948 0.99031 0.09858 0.0
C2718 C 0.94408 0.9941 0.07734 0.0
C2719 C 0.93303 1.01392 0.07237 0.0
C2720 C 0.31501 0.25712 0.18754 0.0
C2721 C 0.29345 0.26386 0.18506 0.0
C2722 C 0.32024 0.2377 0.1983 0.0
C2723 C 0.30414 0.2239 0.20671 0.0
H2724 H 0.32793 0.26655 0.1805 0.0
H2725 H 0.33709 0.23319 0.19953 0.0
S2726 S 0.24511 0.23407 0.20401 0.0
N2727 N 0.25588 0.25512 0.19168 0.0
N2728 N 0.26556 0.21884 0.21185 0.0
C2729 C 0.2825 0.23054 0.2043 0.0
C2730 C 0.27722 0.25038 0.19351 0.0
C2731 C 0.28498 0.80103 0.33245 0.0
C2732 C 0.30647 0.80823 0.33037 0.0
C2733 C 0.27991 0.78178 0.34356 0.0
C2734 C 0.29607 0.76891 0.35316 0.0
H2735 H 0.27198 0.81013 0.32508 0.0
H2736 H 0.26317 0.77692 0.34464 0.0
S2737 S 0.35459 0.78091 0.35373 0.0
N2738 N 0.34393 0.8011 0.33989 0.0
N2739 N 0.33425 0.76507 0.36055 0.0
C2740 C 0.31751 0.77597 0.35148 0.0
C2741 C 0.32273 0.79554 0.34016 0.0
C2742 C 0.01773 0.46189 0.93433 0.0
C2743 C 1.01255 0.48335 0.92862 0.0
C2744 C 0.03727 0.45676 0.94501 0.0
C2745 C 0.05249 0.47288 0.95032 0.0
H2746 H 1.00652 0.449 0.93064 0.0
H2747 H 0.04022 0.44014 0.94964 0.0
S2748 S 0.04787 0.53123 0.93708 0.0
N2749 N 0.02514 0.52061 0.92821 0.0
N2750 N 0.0617 0.5109 0.94736 0.0
C2751 C 0.04784 0.49421 0.94395 0.0
C2752 C 0.02798 0.49945 0.93337 0.0
C2753 C 0.71885 0.75348 0.35572 0.0
C2754 C 0.73486 0.7676 0.34795 0.0
C2755 C 0.71399 0.73401 0.34497 0.0
C2756 C 0.72486 0.72791 0.3259 0.0
H2757 H 0.71068 0.75708 0.37075 0.0
H2758 H 0.70218 0.72331 0.35214 0.0
S2759 S 0.76618 0.76098 0.29751 0.0
N2760 N 0.76037 0.77516 0.31934 0.0
N2761 N 0.75082 0.73919 0.29857 0.0
C2762 C 0.74008 0.74264 0.31738 0.0
C2763 C 0.74512 0.76233 0.32849 0.0
C2764 C 0.49597 0.55501 0.4548 0.0
C2765 C 0.47912 0.56688 0.44495 0.0
C2766 C 0.51559 0.55108 0.44423 0.0
C2767 C 0.51974 0.55936 0.42351 0.0
H2768 H 0.49398 0.54829 0.47081 0.0
H2769 H 0.5274 0.54092 0.4522 0.0
S2770 S 0.48269 0.59346 0.39114 0.0
N2771 N 0.46877 0.58772 0.41314 0.0
N2772 N 0.50648 0.58185 0.39432 0.0
C2773 C 0.50389 0.57259 0.41404 0.0
C2774 C 0.48345 0.57599 0.42446 0.0
C2775 C 0.25496 0.77689 0.69629 0.0
C2776 C 0.23977 0.7644 0.68486 0.0
C2777 C 0.24901 0.79628 0.70669 0.0
C2778 C 0.2276 0.80406 0.70605 0.0
H2779 H 0.27169 0.7718 0.69684 0.0
H2780 H 0.26128 0.80524 0.71534 0.0
S2781 S 0.18213 0.77813 0.67676 0.0
N2782 N 0.20274 0.76173 0.67256 0.0
N2783 N 0.19143 0.79792 0.69205 0.0
C2784 C 0.21232 0.79169 0.69453 0.0
C2785 C 0.21842 0.77199 0.68394 0.0
C2786 C 0.04469 0.53934 0.58167 0.0
C2787 C 0.05082 0.56088 0.57748 0.0
C2788 C 0.02533 0.53433 0.59227 0.0
C2789 C 1.0112 0.5506 0.59953 0.0
H2790 H 0.05497 0.52608 0.5767 0.0
H2791 H 0.02147 0.51749 0.59494 0.0
S2792 S 0.01925 0.60956 0.593 0.0
N2793 N 0.04067 0.59871 0.58137 0.0
N2794 N 1.0047 0.58915 0.60214 0.0
C2795 C 0.0171 0.5722 0.5958 0.0
C2796 C 0.0368 0.57737 0.58471 0.0
C2797 C 0.99661 0.982 0.57049 0.0
C2798 C 0.98064 0.96907 0.58051 0.0
C2799 C 0.01609 0.9873 0.58082 0.0
C2800 C 0.02125 0.97917 0.60138 0.0
H2801 H 0.99412 0.98843 0.55443 0.0
H2802 H 0.02708 0.99824 0.57274 0.0
S2803 S 0.98676 0.94328 0.63455 0.0
N2804 N 0.97213 0.94808 0.61278 0.0
N2805 N 1.00978 0.95616 0.63087 0.0
C2806 C 1.00629 0.96516 0.61116 0.0
C2807 C 0.98587 0.96052 0.60108 0.0
C2808 C 0.71265 0.79437 0.74171 0.0
C2809 C 0.70294 0.80704 0.72528 0.0
C2810 C 0.70177 0.78924 0.761 0.0
C2811 C 0.68087 0.79695 0.76506 0.0
H2812 H 0.72877 0.78797 0.7396 0.0
H2813 H 0.70951 0.77858 0.77253 0.0
S2814 S 0.64855 0.83237 0.7292 0.0
N2815 N 0.6709 0.82777 0.71545 0.0
N2816 N 0.65155 0.81961 0.75241 0.0
C2817 C 0.6715 0.81087 0.74973 0.0
C2818 C 0.68221 0.81553 0.72972 0.0
C2819 C 0.04515 0.08357 0.51548 0.0
C2820 C 0.05282 0.10447 0.51106 0.0
C2821 C 0.05057 0.07272 0.53467 0.0
C2822 C 0.06316 0.08252 0.55105 0.0
H2823 H 0.03452 0.07558 0.50412 0.0
H2824 H 0.04454 0.05643 0.53658 0.0
S2825 S 0.08756 0.1374 0.54695 0.0
N2826 N 0.07495 0.13415 0.5237 0.0
N2827 N 0.08321 0.11503 0.56082 0.0
C2828 C 0.07118 0.10349 0.54659 0.0
C2829 C 0.06643 0.11411 0.52647 0.0
C2830 C 0.35149 0.71194 0.75437 0.0
C2831 C 0.3529 0.7334 0.7617 0.0
C2832 C 0.34037 0.70673 0.73515 0.0
C2833 C 0.33032 0.72281 0.7224 0.0
H2834 H 0.35926 0.69913 0.76342 0.0
H2835 H 0.33989 0.68999 0.73009 0.0
S2836 S 0.32843 0.78136 0.73531 0.0
N2837 N 0.34281 0.77067 0.75507 0.0
N2838 N 0.32175 0.76103 0.71942 0.0
C2839 C 0.33142 0.74428 0.72983 0.0
C2840 C 0.34271 0.74952 0.74933 0.0
C2841 C 0.9855 0.44867 0.51412 0.0
C2842 C 0.9775 0.42786 0.50981 0.0
C2843 C 0.98042 0.45961 0.53334 0.0
C2844 C 0.96775 0.45002 0.54975 0.0
H2845 H 0.99609 0.45652 0.50263 0.0
H2846 H 0.98672 0.4758 0.53526 0.0
S2847 S 0.94276 0.39539 0.54608 0.0
N2848 N 0.95523 0.39842 0.52272 0.0
N2849 N 0.94743 0.41778 0.55981 0.0
C2850 C 0.95947 0.42913 0.54544 0.0
C2851 C 0.96397 0.41838 0.52535 0.0
C2852 C 0.67658 0.22181 0.78329 0.0
C2853 C 0.68405 0.23712 0.76819 0.0
C2854 C 0.68815 0.21736 0.80239 0.0
C2855 C 0.70772 0.2279 0.80701 0.0
H2856 H 0.66137 0.21363 0.78055 0.0
H2857 H 0.68169 0.20567 0.81369 0.0
S2858 S 0.73523 0.26777 0.77183 0.0
N2859 N 0.71277 0.26194 0.75867 0.0
N2860 N 0.73483 0.25308 0.79413 0.0
C2861 C 0.71577 0.24256 0.79164 0.0
C2862 C 0.70389 0.24725 0.77232 0.0
C2863 C 0.48235 0.07107 0.49686 0.0
C2864 C 0.46966 0.08136 0.48085 0.0
C2865 C 0.48744 0.08117 0.51653 0.0
C2866 C 0.4794 0.10176 0.52176 0.0
H2867 H 0.48871 0.055 0.49423 0.0
H2868 H 0.49815 0.07288 0.52763 0.0
S2869 S 0.44444 0.1357 0.48696 0.0
N2870 N 0.44914 0.11395 0.47226 0.0
N2871 N 0.45697 0.13168 0.51015 0.0
C2872 C 0.46574 0.11185 0.50666 0.0
C2873 C 0.46125 0.10199 0.48611 0.0
C2874 C 0.33597 0.27734 0.7798 0.0
C2875 C 0.34338 0.29415 0.76648 0.0
C2876 C 0.32619 0.28155 0.79981 0.0
C2877 C 0.32309 0.30285 0.80745 0.0
H2878 H 0.33844 0.26067 0.775 0.0
H2879 H 0.32138 0.26785 0.80954 0.0
S2880 S 0.33966 0.35274 0.77839 0.0
N2881 N 0.34758 0.3329 0.7624 0.0
N2882 N 0.32795 0.34106 0.79931 0.0
C2883 C 0.33023 0.31988 0.79404 0.0
C2884 C 0.34057 0.31549 0.77374 0.0
C2885 C 0.57251 0.45324 0.49392 0.0
C2886 C 0.55609 0.45914 0.47924 0.0
C2887 C 0.5677 0.44302 0.51373 0.0
C2888 C 0.54624 0.43865 0.51983 0.0
H2889 H 0.58924 0.45652 0.49007 0.0
H2890 H 0.5809 0.4379 0.52398 0.0
S2891 S 0.49746 0.44896 0.48668 0.0
N2892 N 0.51753 0.45815 0.4718 0.0
N2893 N 0.50859 0.44016 0.50924 0.0
C2894 C 0.52974 0.44447 0.50535 0.0
C2895 C 0.53461 0.4544 0.48507 0.0
C2896 C 0.7388 0.69871 0.82057 0.0
C2897 C 0.72587 0.70889 0.80474 0.0
C2898 C 0.75813 0.68793 0.81511 0.0
C2899 C 0.76561 0.68722 0.79366 0.0
H2900 H 0.73359 0.69854 0.83726 0.0
H2901 H 0.76693 0.67949 0.82767 0.0
S2902 S 0.73901 0.71258 0.74636 0.0
N2903 N 0.72286 0.71842 0.76678 0.0
N2904 N 0.75905 0.69828 0.75667 0.0
C2905 C 0.75321 0.69779 0.77781 0.0
C2906 C 0.73346 0.70859 0.78329 0.0
C2907 C 0.95117 0.01666 0.48655 0.0
C2908 C 0.93064 1.0116 0.47836 0.0
C2909 C 0.96169 0.03603 0.48111 0.0
C2910 C 0.95186 0.052 0.46797 0.0
H2911 H 0.9591 1.00569 0.49766 0.0
H2912 H 0.97771 0.03843 0.4876 0.0
S2913 S 0.89792 0.0461 0.44196 0.0
N2914 N 0.90139 0.02312 0.45505 0.0
N2915 N 0.91975 0.0606 0.44676 0.0
C2916 C 0.93129 0.04686 0.45937 0.0
C2917 C 0.92106 0.02653 0.46414 0.0
C2918 C 0.28011 0.85312 0.81256 0.0
C2919 C 0.26633 0.84513 0.79635 0.0
C2920 C 0.29981 0.84285 0.81747 0.0
C2921 C 0.30643 0.82398 0.80652 0.0
H2922 H 0.27613 0.86808 0.82074 0.0
H2923 H 0.31028 0.85029 0.82932 0.0
S2924 S 0.27419 0.79478 0.76506 0.0
N2925 N 0.25952 0.81633 0.77078 0.0
N2926 N 0.29584 0.79632 0.78056 0.0
C2927 C 0.29194 0.81508 0.79128 0.0
C2928 C 0.27205 0.82575 0.78613 0.0
C2929 C 0.10853 0.50429 0.46115 0.0
C2930 C 0.09948 0.52065 0.47416 0.0
C2931 C 0.09731 0.48493 0.4567 0.0
C2932 C 0.07617 0.48132 0.46443 0.0
H2933 H 0.12487 0.50605 0.4552 0.0
H2934 H 0.10563 0.47246 0.44771 0.0
S2935 S 0.04344 0.52113 0.49547 0.0
N2936 N 0.06724 0.53273 0.49295 0.0
N2937 N 0.04546 0.49784 0.48268 0.0
C2938 C 0.06629 0.49848 0.47584 0.0
C2939 C 0.07802 0.51775 0.48107 0.0
C2940 C 0.75184 0.33564 0.75306 0.0
C2941 C 0.76422 0.3462 0.73717 0.0
C2942 C 0.7327 0.32457 0.74773 0.0
C2943 C 0.7252 0.32356 0.72627 0.0
H2944 H 0.75678 0.33637 0.76983 0.0
H2945 H 0.72372 0.31673 0.76051 0.0
S2946 S 0.75081 0.35001 0.67898 0.0
N2947 N 0.76689 0.35606 0.69937 0.0
N2948 N 0.73136 0.33493 0.68921 0.0
C2949 C 0.73746 0.33411 0.71027 0.0
C2950 C 0.75681 0.34553 0.71574 0.0
C2951 C 0.58241 1.01402 0.55071 0.0
C2952 C 0.60348 1.01003 0.55813 0.0
C2953 C 0.57149 0.03328 0.5557 0.0
C2954 C 0.58135 0.05009 0.56766 0.0
H2955 H 0.57438 1.00232 0.54047 0.0
H2956 H 0.55516 0.03499 0.54977 0.0
S2957 S 0.63642 0.04704 0.59165 0.0
N2958 N 0.63326 0.02343 0.57965 0.0
N2959 N 0.6139 0.06062 0.58722 0.0
C2960 C 0.60237 0.04597 0.57567 0.0
C2961 C 0.6131 0.02581 0.57132 0.0
C2962 C 0.29536 0.20767 0.74918 0.0
C2963 C 0.30421 0.20532 0.72833 0.0
C2964 C 0.27575 0.1976 0.75497 0.0
C2965 C 0.26412 0.18487 0.74015 0.0
H2966 H 0.30355 0.21752 0.76108 0.0
H2967 H 0.26977 0.19956 0.77128 0.0
S2968 S 0.28098 0.17188 0.68424 0.0
N2969 N 0.30011 0.18813 0.69324 0.0
N2970 N 0.26355 0.16931 0.70423 0.0
C2971 C 0.27288 0.18212 0.71941 0.0
C2972 C 0.29278 0.19233 0.71348 0.0
C2973 C 0.44042 0.48611 0.56873 0.0
C2974 C 0.45755 0.47803 0.55609 0.0
C2975 C 0.42952 0.50538 0.56311 0.0
C2976 C 0.43561 0.51755 0.54488 0.0
H2977 H 0.43527 0.47733 0.58295 0.0
H2978 H 0.41615 0.51075 0.573 0.0
S2979 S 0.48043 0.50432 0.50743 0.0
N2980 N 0.48061 0.48431 0.5251 0.0
N2981 N 0.46049 0.52046 0.51477 0.0
C2982 C 0.45302 0.50988 0.53245 0.0
C2983 C 0.46388 0.49017 0.53799 0.0
C2984 C 0.78809 0.73039 0.70039 0.0
C2985 C 0.80942 0.72293 0.70303 0.0
C2986 C 0.78349 0.74953 0.68894 0.0
C2987 C 0.8 0.76207 0.67956 0.0
H2988 H 0.77481 0.72156 0.70753 0.0
H2989 H 0.76683 0.75448 0.68738 0.0
S2990 S 0.85837 0.74929 0.68046 0.0
N2991 N 0.84718 0.72942 0.69431 0.0
N2992 N 0.83837 0.76533 0.673 0.0
C2993 C 0.82132 0.75478 0.68184 0.0
C2994 C 0.82606 0.73528 0.6935 0.0
C2995 C 0.81937 0.29541 0.8339 0.0
C2996 C 0.803 0.30842 0.8247 0.0
C2997 C 0.81456 0.27602 0.84485 0.0
C2998 C 0.79321 0.26859 0.84683 0.0
H2999 H 0.83605 0.30053 0.83315 0.0
H3000 H 0.82761 0.26717 0.85244 0.0
S3001 S 0.74435 0.29602 0.82565 0.0
N3002 N 0.76443 0.31184 0.81812 0.0
N3003 N 0.75556 0.27571 0.83886 0.0
C3004 C 0.77673 0.28124 0.8376 0.0
C3005 C 0.78156 0.301 0.82652 0.0
C3006 C 0.54573 0.99233 0.45002 0.0
C3007 C 0.55163 0.97073 0.45432 0.0
C3008 C 0.52633 0.99754 0.43948 0.0
C3009 C 0.51189 0.98143 0.43255 0.0
H3010 H 0.55624 1.00546 0.45481 0.0
H3011 H 0.52267 1.01442 0.43664 0.0
S3012 S 0.51917 0.92242 0.43967 0.0
N3013 N 0.54091 0.93304 0.45091 0.0
N3014 N 0.50478 0.94297 0.4305 0.0
C3015 C 0.51752 0.95978 0.43648 0.0
C3016 C 0.53729 0.9544 0.4474 0.0
C3017 C 0.24084 0.24928 0.84752 0.0
C3018 C 0.22426 0.26298 0.85508 0.0
C3019 C 0.23634 0.23037 0.83577 0.0
C3020 C 0.21502 0.22412 0.83105 0.0
H3021 H 0.25755 0.25303 0.85082 0.0
H3022 H 0.24977 0.22072 0.83007 0.0
S3023 S 0.16563 0.25337 0.84868 0.0
N3024 N 0.18564 0.26835 0.85795 0.0
N3025 N 0.177 0.23279 0.83604 0.0
C3026 C 0.19823 0.23749 0.83884 0.0
C3027 C 0.20288 0.25683 0.85081 0.0
C3028 C 1.00209 0.06625 0.92205 0.0
C3029 C 0.0183 0.05359 0.9318 0.0
C3030 C 0.98256 0.07082 0.93276 0.0
C3031 C 0.97867 0.06353 0.954 0.0
H3032 H 1.00407 0.07168 0.90554 0.0
H3033 H 0.97016 0.07946 0.92397 0.0
S3034 S 0.01818 0.03393 0.98838 0.0
N3035 N 0.03027 0.03608 0.96476 0.0
N3036 N 0.9947 0.04622 0.98557 0.0
C3037 C 0.99572 0.0526 0.96459 0.0
C3038 C 0.01526 0.04738 0.95341 0.0
C3039 C 0.75018 0.27814 0.19787 0.0
C3040 C 0.73447 0.26592 0.18683 0.0
C3041 C 0.74481 0.29748 0.20869 0.0
C3042 C 0.72349 0.30545 0.20891 0.0
H3043 H 0.76687 0.27289 0.19775 0.0
H3044 H 0.75746 0.30626 0.21699 0.0
S3045 S 0.67671 0.28042 0.181 0.0
N3046 N 0.69699 0.2639 0.17574 0.0
N3047 N 0.68676 0.29983 0.1963 0.0
C3048 C 0.70766 0.29336 0.19787 0.0
C3049 C 0.71318 0.27377 0.18676 0.0
C3050 C 0.53704 0.07375 0.08588 0.0
C3051 C 0.55256 0.05815 0.0799 0.0
C3052 C 0.51773 0.06781 0.09648 0.0
C3053 C 0.51317 0.04606 0.10147 0.0
H3054 H 0.53957 0.09059 0.08183 0.0
H3055 H 0.5062 0.08029 0.10065 0.0
S3056 S 0.54919 0.99923 0.09074 0.0
N3057 N 0.56256 0.0202 0.0812 0.0
N3058 N 0.52638 1.00909 0.10026 0.0
C3059 C 0.52881 0.03046 0.09596 0.0
C3060 C 0.54843 0.03648 0.08543 0.0
C3061 C 0.512 0.46206 0.09604 0.0
C3062 C 0.51652 0.48374 0.10136 0.0
C3063 C 0.49279 0.45625 0.08514 0.0
C3064 C 0.4773 0.4719 0.07917 0.0
H3065 H 0.52347 0.44952 0.10022 0.0
H3066 H 0.4903 0.43945 0.0809 0.0
S3067 S 0.48051 0.53068 0.09086 0.0
N3068 N 0.50327 0.52072 0.10046 0.0
N3069 N 0.46727 0.50983 0.08089 0.0
C3070 C 0.48139 0.4935 0.08502 0.0
C3071 C 0.50092 0.4994 0.09585 0.0
C3072 C 0.06005 0.32603 0.36814 0.0
C3073 C 0.07811 0.3339 0.35673 0.0
C3074 C 0.04748 0.3397 0.3813 0.0
C3075 C 0.05235 0.36183 0.38359 0.0
H3076 H 0.05642 0.30891 0.36804 0.0
H3077 H 0.03464 0.33265 0.39086 0.0
S3078 S 0.09621 0.39115 0.35541 0.0
N3079 N 0.09847 0.36601 0.34674 0.0
N3080 N 0.0757 0.3912 0.3724 0.0
C3081 C 0.06952 0.37016 0.37136 0.0
C3082 C 0.08213 0.35635 0.35772 0.0
C3083 C 0.58885 0.7235 0.88858 0.0
C3084 C 0.61062 0.71732 0.88595 0.0
C3085 C 0.57465 0.71161 0.9018 0.0
C3086 C 0.58159 0.69296 0.91287 0.0
H3087 H 0.58249 0.73703 0.87947 0.0
H3088 H 0.55782 0.71635 0.90233 0.0
S3089 S 0.63768 0.6716 0.91342 0.0
N3090 N 0.63881 0.69252 0.89688 0.0
N3091 N 0.61246 0.67035 0.92197 0.0
C3092 C 0.60368 0.68745 0.91137 0.0
C3093 C 0.61808 0.69957 0.89789 0.0
C3094 C 0.94659 0.17848 0.36163 0.0
C3095 C 0.95164 0.20066 0.35967 0.0
C3096 C 0.95894 0.16448 0.37469 0.0
C3097 C 0.97696 0.17201 0.38626 0.0
H3098 H 0.93241 0.17204 0.35369 0.0
H3099 H 0.95357 0.14795 0.37676 0.0
S3100 S 0.99784 0.22812 0.38624 0.0
N3101 N 0.97665 0.2291 0.37006 0.0
N3102 N 0.9998 0.20275 0.39431 0.0
C3103 C 0.98285 0.1938 0.38365 0.0
C3104 C 0.97028 0.2081 0.3704 0.0
C3105 C 0.46265 0.81267 0.90341 0.0
C3106 C 0.45442 0.83141 0.91343 0.0
C3107 C 0.44949 0.79945 0.8903 0.0
C3108 C 0.42754 0.80433 0.88677 0.0
H3109 H 0.47968 0.80889 0.90462 0.0
H3110 H 0.45683 0.78598 0.88187 0.0
S3111 S 0.3974 0.84997 0.91111 0.0
N3112 N 0.42217 0.85271 0.92058 0.0
N3113 N 0.39789 0.82837 0.89546 0.0
C3114 C 0.41883 0.82224 0.89764 0.0
C3115 C 0.43213 0.83562 0.91106 0.0
C3116 C 0.08218 0.6789 0.17014 0.0
C3117 C 0.07613 0.70077 0.17271 0.0
C3118 C 0.07004 0.66457 0.15732 0.0
C3119 C 0.05125 0.67146 0.14659 0.0
H3120 H 0.09708 0.67308 0.17722 0.0
H3121 H 0.07621 0.64842 0.15458 0.0
S3122 S 0.02741 0.72637 0.14893 0.0
N3123 N 0.0492 0.72808 0.16424 0.0
N3124 N 0.02644 0.70113 0.14031 0.0
C3125 C 0.04427 0.69282 0.15005 0.0
C3126 C 0.05663 0.70745 0.1631 0.0
C3127 C 0.94135 0.72572 0.14433 0.0
C3128 C 0.91976 0.71936 0.14761 0.0
C3129 C 0.9553 0.71376 0.13095 0.0
C3130 C 0.94823 0.69492 0.12032 0.0
H3131 H 0.94776 0.73951 0.15297 0.0
H3132 H 0.97204 0.71868 0.12987 0.0
S3133 S 0.89237 0.67312 0.12149 0.0
N3134 N 0.89149 0.69422 0.13781 0.0
N3135 N 0.91737 0.67193 0.1123 0.0
C3136 C 0.92627 0.68921 0.12249 0.0
C3137 C 0.91214 0.70137 0.13619 0.0
C3138 C 0.94406 0.85533 0.1665 0.0
C3139 C 0.95384 0.83592 0.17343 0.0
C3140 C 0.95496 0.8699 0.15279 0.0
C3141 C 0.97609 0.8657 0.14561 0.0
H3142 H 0.92739 0.85866 0.17056 0.0
H3143 H 0.94635 0.8839 0.14676 0.0
S3144 S 1.01007 0.81896 0.16106 0.0
N3145 N 0.98699 0.81474 0.17374 0.0
N3146 N 1.00702 0.84186 0.14769 0.0
C3147 C 0.98652 0.84715 0.15339 0.0
C3148 C 0.97553 0.83236 0.16737 0.0
C3149 C 0.07143 0.81654 0.13102 0.0
C3150 C 0.07916 0.8361 0.12224 0.0
C3151 C 0.08472 0.80317 0.14385 0.0
C3152 C 0.10636 0.80864 0.14822 0.0
H3153 H 0.05466 0.81207 0.12893 0.0
H3154 H 0.07775 0.78893 0.15124 0.0
S3155 S 0.13508 0.85701 0.12781 0.0
N3156 N 0.11055 0.85924 0.11761 0.0
N3157 N 0.13509 0.8345 0.14213 0.0
C3158 C 0.11454 0.8276 0.13883 0.0
C3159 C 0.10108 0.84119 0.12575 0.0
C3160 C 0.36623 0.05611 0.32979 0.0
C3161 C 0.3591 0.07748 0.33356 0.0
C3162 C 0.37948 0.04511 0.3447 0.0
C3163 C 0.38598 0.05485 0.36415 0.0
H3164 H 0.36223 0.04808 0.31478 0.0
H3165 H 0.38558 0.02924 0.34048 0.0
S3166 S 0.37172 0.11006 0.38236 0.0
N3167 N 0.35948 0.10764 0.35878 0.0
N3168 N 0.38401 0.08676 0.3867 0.0
C3169 C 0.37824 0.07572 0.36865 0.0
C3170 C 0.36486 0.08703 0.35344 0.0
C3171 C 0.33599 0.40574 0.93117 0.0
C3172 C 0.33053 0.40996 0.95293 0.0
C3173 C 0.32275 0.39303 0.91771 0.0
C3174 C 0.30334 0.3841 0.92532 0.0
H3175 H 0.35108 0.41167 0.92466 0.0
H3176 H 0.32832 0.38923 0.90157 0.0
S3177 S 0.28058 0.39106 0.9802 0.0
N3178 N 0.30345 0.40476 0.9809 0.0
N3179 N 0.27869 0.38113 0.95552 0.0
C3180 C 0.29709 0.38901 0.94658 0.0
C3181 C 0.31056 0.40192 0.96035 0.0
C3182 C 0.66249 0.47613 0.32813 0.0
C3183 C 0.67004 0.45502 0.33255 0.0
C3184 C 0.64908 0.48731 0.34271 0.0
C3185 C 0.64287 0.47803 0.36246 0.0
H3186 H 0.6663 0.48378 0.31288 0.0
H3187 H 0.64267 0.50293 0.33804 0.0
S3188 S 0.65826 0.42371 0.38238 0.0
N3189 N 0.67032 0.42563 0.35868 0.0
N3190 N 0.64557 0.44691 0.38604 0.0
C3191 C 0.65103 0.45748 0.36761 0.0
C3192 C 0.66453 0.44596 0.35273 0.0
C3193 C 0.71136 0.13242 0.95488 0.0
C3194 C 0.69173 0.12313 0.94813 0.0
C3195 C 0.72367 0.14544 0.94085 0.0
C3196 C 0.71691 0.1496 0.91951 0.0
H3197 H 0.71665 0.13063 0.97145 0.0
H3198 H 0.73805 0.15318 0.94708 0.0
S3199 S 0.66837 0.12708 0.89299 0.0
N3200 N 0.66739 0.11735 0.91782 0.0
N3201 N 0.69039 0.14206 0.89181 0.0
C3202 C 0.69808 0.13945 0.91218 0.0
C3203 C 0.68554 0.12619 0.92639 0.0
C3204 C 0.36496 0.97375 0.20249 0.0
C3205 C 0.3581 0.9523 0.19877 0.0
C3206 C 0.37819 0.98478 0.18765 0.0
C3207 C 0.38492 0.97498 0.16832 0.0
H3208 H 0.36082 0.98179 0.21746 0.0
H3209 H 0.38417 1.00068 0.19187 0.0
S3210 S 0.3712 0.91964 0.15016 0.0
N3211 N 0.35882 0.92206 0.17365 0.0
N3212 N 0.38331 0.943 0.14582 0.0
C3213 C 0.37735 0.95407 0.1638 0.0
C3214 C 0.36399 0.94272 0.17895 0.0
C3215 C 0.19829 0.39249 0.11741 0.0
C3216 C 0.21828 0.38409 0.11078 0.0
C3217 C 0.1859 0.40578 0.10365 0.0
C3218 C 0.19284 0.41106 0.08253 0.0
H3219 H 0.1918 0.38807 0.13303 0.0
H3220 H 0.17039 0.41143 0.1094 0.0
S3221 S 0.24454 0.3935 0.05778 0.0
N3222 N 0.24496 0.38275 0.08217 0.0
N3223 N 0.2216 0.40699 0.05614 0.0
C3224 C 0.21325 0.40336 0.0761 0.0
C3225 C 0.22592 0.39002 0.09021 0.0
C3226 C 0.66759 0.58627 0.17677 0.0
C3227 C 0.67075 0.58069 0.19869 0.0
C3228 C 0.65437 0.57385 0.163 0.0
C3229 C 0.64389 0.55513 0.17044 0.0
H3230 H 0.67474 0.60089 0.17035 0.0
H3231 H 0.65135 0.57963 0.14676 0.0
S3232 S 0.6475 0.53235 0.22564 0.0
N3233 N 0.6627 0.55425 0.22666 0.0
N3234 N 0.63837 0.5309 0.20064 0.0
C3235 C 0.64781 0.54864 0.19185 0.0
C3236 C 0.66113 0.56134 0.20596 0.0
C3237 C 0.80639 0.14493 0.09057 0.0
C3238 C 0.81286 0.14877 0.11204 0.0
C3239 C 0.81868 0.13179 0.07668 0.0
C3240 C 0.83797 0.12195 0.0837 0.0
H3241 H 0.79221 0.15296 0.08418 0.0
H3242 H 0.81359 0.13024 0.06002 0.0
S3243 S 0.86035 0.12485 0.13932 0.0
N3244 N 0.83867 0.14039 0.14019 0.0
N3245 N 0.8616 0.11531 0.11444 0.0
C3246 C 0.84387 0.12471 0.10557 0.0
C3247 C 0.83135 0.13817 0.11964 0.0
C3248 C 0.36775 0.37875 0.07638 0.0
C3249 C 0.36407 0.38498 0.05482 0.0
C3250 C 0.35333 0.36493 0.08732 0.0
C3251 C 0.3346 0.35689 0.07714 0.0
H3252 H 0.38119 0.3856 0.08521 0.0
H3253 H 0.35618 0.36161 0.10425 0.0
S3254 S 0.31941 0.36622 0.01985 0.0
N3255 N 0.3416 0.38063 0.02313 0.0
N3256 N 0.31474 0.35443 0.04333 0.0
C3257 C 0.33163 0.36196 0.05511 0.0
C3258 C 0.34628 0.37604 0.04406 0.0
C3259 C 0.32523 0.65998 0.46857 0.0
C3260 C 0.33224 0.66992 0.44931 0.0
C3261 C 0.3391 0.64666 0.48084 0.0
C3262 C 0.3606 0.64284 0.47449 0.0
H3263 H 0.30854 0.66143 0.47354 0.0
H3264 H 0.33262 0.63833 0.49479 0.0
S3265 S 0.38775 0.66669 0.42681 0.0
N3266 N 0.36301 0.6766 0.42583 0.0
N3267 N 0.38855 0.65101 0.44837 0.0
C3268 C 0.36815 0.65355 0.45597 0.0
C3269 C 0.35413 0.66721 0.44356 0.0
C3270 C 0.89576 0.461 0.82104 0.0
C3271 C 0.90677 0.45346 0.83948 0.0
C3272 C 0.88224 0.44728 0.80894 0.0
C3273 C 0.87931 0.42546 0.81473 0.0
H3274 H 0.89683 0.47786 0.81647 0.0
H3275 H 0.87341 0.45395 0.79538 0.0
S3276 S 0.90619 0.397 0.85992 0.0
N3277 N 0.91518 0.42207 0.86166 0.0
N3278 N 0.88963 0.39655 0.83901 0.0
C3279 C 0.89098 0.41744 0.83239 0.0
C3280 C 0.90471 0.43136 0.84475 0.0
C3281 C 0.68804 0.88083 0.48664 0.0
C3282 C 0.66834 0.88727 0.47741 0.0
C3283 C 0.70265 0.8676 0.47528 0.0
C3284 C 0.69831 0.86047 0.45404 0.0
H3285 H 0.69265 0.88693 0.50238 0.0
H3286 H 0.71787 0.86361 0.48291 0.0
S3287 S 0.64859 0.87292 0.42281 0.0
N3288 N 0.64486 0.88518 0.44619 0.0
N3289 N 0.67228 0.86078 0.42458 0.0
C3290 C 0.67817 0.86618 0.44501 0.0
C3291 C 0.66325 0.8795 0.45671 0.0
C3292 C 0.61967 0.60086 0.33253 0.0
C3293 C 0.61786 0.57854 0.32813 0.0
C3294 C 0.63266 0.6145 0.31982 0.0
C3295 C 0.64433 0.60641 0.30211 0.0
H3296 H 0.61171 0.60766 0.34654 0.0
H3297 H 0.63461 0.63121 0.32466 0.0
S3298 S 0.64473 0.54963 0.28309 0.0
N3299 N 0.62845 0.5493 0.30419 0.0
N3300 N 0.65261 0.57497 0.28025 0.0
C3301 C 0.64183 0.58444 0.29684 0.0
C3302 C 0.62864 0.57052 0.3098 0.0
C3303 C 0.16565 0.65684 0.56604 0.0
C3304 C 0.17248 0.64024 0.55211 0.0
C3305 C 0.18056 0.67031 0.57678 0.0
C3306 C 0.20317 0.66715 0.57515 0.0
H3307 H 0.14866 0.65891 0.56952 0.0
H3308 H 0.17405 0.68294 0.58692 0.0
S3309 S 0.22918 0.62496 0.54074 0.0
N3310 N 0.20314 0.62197 0.53621 0.0
N3311 N 0.23113 0.64495 0.55825 0.0
C3312 C 0.21009 0.65049 0.56099 0.0
C3313 C 0.19483 0.63764 0.54917 0.0
C3314 C 0.89431 0.61594 0.70014 0.0
C3315 C 0.88328 0.60852 0.71851 0.0
C3316 C 0.90757 0.60198 0.68793 0.0
C3317 C 0.91031 0.57997 0.69352 0.0
H3318 H 0.892 0.63241 0.69468 0.0
H3319 H 0.91525 0.60836 0.67358 0.0
S3320 S 0.88537 0.55286 0.74081 0.0
N3321 N 0.87669 0.57804 0.74228 0.0
N3322 N 0.90105 0.55184 0.7193 0.0
C3323 C 0.89998 0.57267 0.71241 0.0
C3324 C 0.8866 0.5869 0.72486 0.0
C3325 C 0.13773 0.91548 0.69924 0.0
C3326 C 0.14806 0.92211 0.71831 0.0
C3327 C 0.12473 0.92986 0.68726 0.0
C3328 C 0.12159 0.95156 0.69376 0.0
H3329 H 0.14042 0.89932 0.69308 0.0
H3330 H 0.11759 0.92409 0.67238 0.0
S3331 S 0.14465 0.9765 0.7432 0.0
N3332 N 0.15359 0.95135 0.74376 0.0
N3333 N 0.12966 0.97848 0.72122 0.0
C3334 C 0.13121 0.95804 0.71335 0.0
C3335 C 0.14434 0.94334 0.72557 0.0
C3336 C 0.55565 0.82879 0.86564 0.0
C3337 C 0.57672 0.83284 0.85792 0.0
C3338 C 0.54472 0.84371 0.87891 0.0
C3339 C 0.55423 0.86346 0.88481 0.0
H3340 H 0.54783 0.81354 0.86212 0.0
H3341 H 0.52916 0.83927 0.88554 0.0
S3342 S 0.60849 0.8826 0.86871 0.0
N3343 N 0.60628 0.85871 0.85703 0.0
N3344 N 0.58547 0.88671 0.88149 0.0
C3345 C 0.57471 0.86829 0.87638 0.0
C3346 C 0.58597 0.85305 0.86303 0.0
C3347 C 0.07059 0.21852 0.40212 0.0
C3348 C 0.07836 0.20026 0.41333 0.0
C3349 C 0.08431 0.23108 0.38897 0.0
C3350 C 0.10638 0.22601 0.38663 0.0
H3351 H 0.05354 0.22238 0.40249 0.0
H3352 H 0.0774 0.24421 0.37969 0.0
S3353 S 0.13534 0.18152 0.41429 0.0
N3354 N 0.11015 0.17914 0.4227 0.0
N3355 N 0.13561 0.20247 0.39776 0.0
C3356 C 0.11459 0.20863 0.39868 0.0
C3357 C 0.10068 0.19585 0.41205 0.0
C3358 C 0.46094 0.66115 0.87342 0.0
C3359 C 0.47904 0.66827 0.88512 0.0
C3360 C 0.44892 0.67545 0.86039 0.0
C3361 C 0.45435 0.69757 0.85863 0.0
H3362 H 0.45519 0.64474 0.87544 0.0
H3363 H 0.43464 0.66932 0.85237 0.0
S3364 S 0.50105 0.72394 0.88546 0.0
N3365 N 0.50251 0.69848 0.89334 0.0
N3366 N 0.47991 0.72544 0.86926 0.0
C3367 C 0.47314 0.70456 0.86942 0.0
C3368 C 0.48541 0.68993 0.88258 0.0
C3369 C 0.95883 0.31248 0.40239 0.0
C3370 C 0.951 0.33135 0.41248 0.0
C3371 C 0.94537 0.29955 0.3893 0.0
C3372 C 0.9235 0.30484 0.38588 0.0
H3373 H 0.97579 0.30838 0.40351 0.0
H3374 H 0.95242 0.28597 0.38079 0.0
S3375 S 0.89436 0.35108 0.41034 0.0
N3376 N 0.9192 0.35326 0.41978 0.0
N3377 N 0.89438 0.32951 0.39465 0.0
C3378 C 0.91518 0.32291 0.3968 0.0
C3379 C 0.92879 0.33598 0.41022 0.0
C3380 C 0.55599 0.20143 0.66824 0.0
C3381 C 0.57714 0.19697 0.67554 0.0
C3382 C 0.54452 0.18673 0.65521 0.0
C3383 C 0.55356 0.16679 0.64914 0.0
H3384 H 0.54856 0.21687 0.67183 0.0
H3385 H 0.52895 0.1915 0.64882 0.0
S3386 S 0.60779 0.14659 0.66425 0.0
N3387 N 0.60622 0.17051 0.67598 0.0
N3388 N 0.58446 0.14293 0.65188 0.0
C3389 C 0.57411 0.16154 0.65721 0.0
C3390 C 0.5859 0.17656 0.67034 0.0
C3391 C 0.41503 0.2011 0.63682 0.0
C3392 C 0.42199 0.21961 0.64793 0.0
C3393 C 0.42934 0.18901 0.62389 0.0
C3394 C 0.45128 0.19487 0.62158 0.0
H3395 H 0.39863 0.19541 0.63888 0.0
H3396 H 0.42332 0.17451 0.61618 0.0
S3397 S 0.47712 0.24278 0.64677 0.0
N3398 N 0.45182 0.24393 0.65504 0.0
N3399 N 0.4788 0.22119 0.63118 0.0
C3400 C 0.45812 0.21397 0.63193 0.0
C3401 C 0.44349 0.22628 0.64502 0.0
C3402 C 0.45711 0.36863 0.65393 0.0
C3403 C 0.47018 0.36144 0.63683 0.0
C3404 C 0.44684 0.35396 0.66803 0.0
C3405 C 0.44843 0.33127 0.66525 0.0
H3406 H 0.45445 0.38578 0.65622 0.0
H3407 H 0.43734 0.36065 0.68105 0.0
S3408 S 0.48098 0.30411 0.6225 0.0
N3409 N 0.48539 0.33009 0.61875 0.0
N3410 N 0.46416 0.30273 0.64306 0.0
C3411 C 0.46166 0.32396 0.64811 0.0
C3412 C 0.47291 0.33892 0.63449 0.0
C3413 C 0.58347 0.31383 0.62232 0.0
C3414 C 0.58605 0.33602 0.61771 0.0
C3415 C 0.59783 0.30276 0.63608 0.0
C3416 C 0.61536 0.3134 0.64589 0.0
H3417 H 0.56984 0.30509 0.61575 0.0
H3418 H 0.59462 0.28598 0.63988 0.0
S3419 S 0.62977 0.37107 0.63905 0.0
N3420 N 0.60804 0.36797 0.62388 0.0
N3421 N 0.63486 0.3471 0.64966 0.0
C3422 C 0.61863 0.33528 0.64086 0.0
C3423 C 0.60407 0.34658 0.62679 0.0
C3424 C 0.87693 0.57824 0.86983 0.0
C3425 C 0.88411 0.55695 0.86622 0.0
C3426 C 0.86316 0.58878 0.85501 0.0
C3427 C 0.85615 0.57848 0.83592 0.0
H3428 H 0.88312 0.58727 0.88347 0.0
H3429 H 0.85918 0.60559 0.85785 0.0
S3430 S 0.86833 0.52167 0.82061 0.0
N3431 N 0.88183 0.52533 0.84331 0.0
N3432 N 0.85565 0.54468 0.81579 0.0
C3433 C 0.86211 0.55663 0.83303 0.0
C3434 C 0.87616 0.54601 0.84806 0.0
C3435 C 0.81906 0.90349 0.45547 0.0
C3436 C 0.83808 0.914 0.44879 0.0
C3437 C 0.80721 0.89029 0.44121 0.0
C3438 C 0.81383 0.88713 0.41965 0.0
H3439 H 0.81395 0.90446 0.47217 0.0
H3440 H 0.79335 0.88163 0.44738 0.0
S3441 S 0.86066 0.91307 0.39322 0.0
N3442 N 0.86155 0.92203 0.41833 0.0
N3443 N 0.83944 0.89698 0.39185 0.0
C3444 C 0.83197 0.89851 0.4124 0.0
C3445 C 0.84404 0.91198 0.42687 0.0
C3446 C 0.17068 0.95023 0.85251 0.0
C3447 C 0.16642 0.95021 0.83004 0.0
C3448 C 0.15663 0.96016 0.86747 0.0
C3449 C 0.13806 0.97141 0.86072 0.0
H3450 H 0.18484 0.94217 0.85884 0.0
H3451 H 0.16005 0.95841 0.88453 0.0
S3452 S 0.11893 0.97664 0.80405 0.0
N3453 N 0.14099 0.96186 0.80226 0.0
N3454 N 0.11646 0.98248 0.82988 0.0
C3455 C 0.13399 0.97228 0.83832 0.0
C3456 C 0.14766 0.96134 0.82317 0.0
C3457 C 0.21964 0.62392 0.45977 0.0
C3458 C 0.20055 0.61438 0.45188 0.0
C3459 C 0.23264 0.6371 0.44646 0.0
C3460 C 0.22715 0.64116 0.42473 0.0
H3461 H 0.2238 0.62241 0.4767 0.0
H3462 H 0.24635 0.64529 0.45359 0.0
S3463 S 0.18032 0.6181 0.39551 0.0
N3464 N 0.17825 0.60812 0.42015 0.0
N3465 N 0.20212 0.63342 0.39564 0.0
C3466 C 0.20891 0.63065 0.41632 0.0
C3467 C 0.19579 0.61714 0.42975 0.0
C3468 C 0.85546 0.45684 0.67827 0.0
C3469 C 0.85887 0.45849 0.70087 0.0
C3470 C 0.86904 0.46711 0.66313 0.0
C3471 C 0.88596 0.48071 0.66972 0.0
H3472 H 0.84262 0.44693 0.67186 0.0
H3473 H 0.86688 0.46338 0.6462 0.0
S3474 S 0.90169 0.49273 0.72616 0.0
N3475 N 0.88155 0.47549 0.72845 0.0
N3476 N 0.90445 0.49695 0.70005 0.0
C3477 C 0.88857 0.48408 0.69201 0.0
C3478 C 0.87573 0.47258 0.7075 0.0
C3479 C 0.69633 0.90983 0.60055 0.0
C3480 C 0.70113 0.91274 0.57844 0.0
C3481 C 0.70939 0.89697 0.61406 0.0
C3482 C 0.72793 0.88654 0.60611 0.0
H3483 H 0.6818 0.91685 0.6073 0.0
H3484 H 0.70425 0.89415 0.63054 0.0
S3485 S 0.74846 0.88941 0.54998 0.0
N3486 N 0.72646 0.90453 0.54961 0.0
N3487 N 0.75099 0.88066 0.57506 0.0
C3488 C 0.73356 0.89015 0.5844 0.0
C3489 C 0.72025 0.90319 0.57059 0.0
C3490 C 0.15368 0.04601 0.68653 0.0
C3491 C 0.14702 0.05556 0.66704 0.0
C3492 C 0.16668 0.05732 0.70139 0.0
C3493 C 0.17334 0.07882 0.69757 0.0
H3494 H 0.14781 0.03009 0.69086 0.0
H3495 H 0.17074 0.04945 0.71649 0.0
S3496 S 0.16039 0.11086 0.64848 0.0
N3497 N 0.14857 0.08733 0.64424 0.0
N3498 N 0.17257 0.10879 0.67213 0.0
C3499 C 0.16756 0.08813 0.67757 0.0
C3500 C 0.15446 0.07649 0.66239 0.0
C3501 C 0.34483 0.6207 0.60003 0.0
C3502 C 0.33886 0.61768 0.57821 0.0
C3503 C 0.3329 0.63425 0.6139 0.0
C3504 C 0.3145 0.64529 0.60654 0.0
H3505 H 0.35922 0.613 0.60631 0.0
H3506 H 0.33858 0.63676 0.63025 0.0
S3507 S 0.29133 0.64267 0.55143 0.0
N3508 N 0.31271 0.62675 0.5503 0.0
N3509 N 0.29028 0.65177 0.57647 0.0
C3510 C 0.3078 0.64179 0.58514 0.0
C3511 C 0.31993 0.62808 0.57097 0.0
C3512 C 0.84084 0.88322 0.54951 0.0
C3513 C 0.86239 0.88712 0.5557 0.0
C3514 C 0.82699 0.87019 0.56209 0.0
C3515 C 0.83404 0.86066 0.58156 0.0
H3516 H 0.8343 0.8913 0.53542 0.0
H3517 H 0.81029 0.86864 0.55716 0.0
S3518 S 0.88957 0.86444 0.60399 0.0
N3519 N 0.89036 0.87955 0.58203 0.0
N3520 N 0.86483 0.8546 0.60521 0.0
C3521 C 0.85594 0.86352 0.58724 0.0
C3522 C 0.86995 0.87684 0.57447 0.0
C3523 C 0.86693 0.1549 0.95745 0.0
C3524 C 0.86253 0.14743 0.97846 0.0
C3525 C 0.85236 0.16855 0.94643 0.0
C3526 C 0.83272 0.17514 0.95592 0.0
H3527 H 0.88109 0.14908 0.949 0.0
H3528 H 0.8559 0.17283 0.92985 0.0
S3529 S 0.81508 0.16194 1.01175 0.0
N3530 N 0.83817 0.14889 1.00898 0.0
N3531 N 0.81106 0.17481 0.98871 0.0
C3532 C 0.82892 0.1688 0.9775 0.0
C3533 C 0.84372 0.15489 0.98862 0.0
C3534 C 0.38821 0.94106 0.31006 0.0
C3535 C 0.38417 0.91974 0.31696 0.0
C3536 C 0.40142 0.95512 0.32212 0.0
C3537 C 0.41109 0.94845 0.34163 0.0
H3538 H 0.38025 0.94724 0.29576 0.0
H3539 H 0.40311 0.97167 0.31669 0.0
S3540 S 0.40764 0.89328 0.36515 0.0
N3541 N 0.39221 0.89208 0.34341 0.0
N3542 N 0.41737 0.91813 0.36591 0.0
C3543 C 0.40814 0.92671 0.34795 0.0
C3544 C 0.39464 0.91246 0.33566 0.0
C3545 C 0.2019 0.37071 0.97125 0.0
C3546 C 0.19519 0.36189 0.95135 0.0
C3547 C 0.18796 0.38367 0.9838 0.0
C3548 C 0.16666 0.38814 0.97712 0.0
H3549 H 0.21843 0.36865 0.97657 0.0
H3550 H 0.19424 0.39121 0.99828 0.0
S3551 S 0.14044 0.36748 0.92746 0.0
N3552 N 0.16502 0.35717 0.92664 0.0
N3553 N 0.13929 0.38193 0.94984 0.0
C3554 C 0.15942 0.37857 0.95787 0.0
C3555 C 0.17353 0.36536 0.94513 0.0
C3556 C 0.12206 0.10037 0.84575 0.0
C3557 C 0.11338 0.08231 0.83489 0.0
C3558 C 0.13554 0.1153 0.83508 0.0
C3559 C 0.14067 0.11289 0.81307 0.0
H3560 H 0.11937 0.10236 0.86292 0.0
H3561 H 0.14286 0.12821 0.84433 0.0
S3562 S 0.12014 0.06999 0.77664 0.0
N3563 N 0.10945 0.06411 0.80035 0.0
N3564 N 0.13462 0.09205 0.78043 0.0
C3565 C 0.13109 0.09567 0.80176 0.0
C3566 C 0.11753 0.08041 0.81262 0.0
C3567 C 0.66083 0.15339 0.07618 0.0
C3568 C 0.66499 0.14648 0.05492 0.0
C3569 C 0.67551 0.16674 0.08741 0.0
C3570 C 0.69504 0.17358 0.07788 0.0
H3571 H 0.64673 0.14742 0.0846 0.0
H3572 H 0.67213 0.17062 0.10412 0.0
S3573 S 0.71209 0.16181 0.02153 0.0
N3574 N 0.68904 0.14871 0.02422 0.0
N3575 N 0.71635 0.17406 0.04485 0.0
C3576 C 0.69863 0.16777 0.05611 0.0
C3577 C 0.68371 0.15416 0.04479 0.0
C3578 C 0.40152 0.075 0.21062 0.0
C3579 C 0.41114 0.0815 0.19105 0.0
C3580 C 0.38847 0.0892 0.22268 0.0
C3581 C 0.38451 0.11053 0.21572 0.0
H3582 H 0.40314 0.05846 0.21613 0.0
H3583 H 0.38055 0.08313 0.23703 0.0
S3584 S 0.40788 0.13661 0.16733 0.0
N3585 N 0.41747 0.1117 0.16663 0.0
N3586 N 0.39255 0.13801 0.1891 0.0
C3587 C 0.3949 0.11764 0.19693 0.0
C3588 C 0.40827 0.10324 0.18465 0.0
C3589 C 0.64053 0.44069 0.22409 0.0
C3590 C 0.64384 0.41917 0.21739 0.0
C3591 C 0.62743 0.45497 0.21216 0.0
C3592 C 0.61715 0.44835 0.19296 0.0
H3593 H 0.64899 0.44685 0.23809 0.0
H3594 H 0.62632 0.47164 0.21739 0.0
S3595 S 0.61863 0.39285 0.17004 0.0
N3596 N 0.63449 0.39145 0.19146 0.0
N3597 N 0.60954 0.41795 0.16919 0.0
C3598 C 0.61937 0.42646 0.18686 0.0
C3599 C 0.63276 0.41197 0.19902 0.0
loop_
_geom_bond_atom_site_label_1
_geom_bond_atom_site_label_2
_geom_bond_distance
_geom_bond_site_symmetry_2
_ccdc_geom_bond_type
C0 C1 1.443 . S
C0 N4 1.376 . S
C0 C38 1.389 . S
C1 C0 1.443 . S
C1 C2 1.340 . S
C1 H41 0.951 . S
C2 C1 1.340 . S
C2 C3 1.439 . S
C2 H42 0.950 . S
C3 C2 1.439 . S
C3 N4 1.374 . S
C3 C37 1.395 . S
N4 C0 1.376 . S
N4 C3 1.374 . S
N4 Co5 2.008 . S
Co5 N4 2.008 . S
Co5 N6 1.995 . S
Co5 N11 2.008 . S
Co5 N16 1.995 . S
Co5 N21 2.282 . S
Co5 N27 2.282 . S
N6 Co5 1.995 . S
N6 C7 1.376 . S
N6 C10 1.383 . S
C7 N6 1.376 . S
C7 C8 1.446 . S
C7 C37 1.391 . S
C8 C7 1.446 . S
C8 C9 1.339 . S
C8 H43 0.949 . S
C9 C8 1.339 . S
C9 C10 1.439 . S
C9 H44 0.950 . S
C10 N6 1.383 . S
C10 C9 1.439 . S
C10 C39 1.392 . S
N11 Co5 2.008 . S
N11 C12 1.376 . S
N11 C15 1.374 . S
C12 N11 1.376 . S
C12 C13 1.443 . S
C12 C39 1.389 . S
C13 C12 1.443 . S
C13 C14 1.340 . S
C13 H45 0.951 . S
C14 C13 1.340 . S
C14 C15 1.439 . S
C14 H46 0.950 . S
C15 N11 1.374 . S
C15 C14 1.439 . S
C15 C40 1.395 . S
N16 Co5 1.995 . S
N16 C17 1.376 . S
N16 C20 1.383 . S
C17 N16 1.376 . S
C17 C18 1.446 . S
C17 C40 1.391 . S
C18 C17 1.446 . S
C18 C19 1.339 . S
C18 H47 0.949 . S
C19 C18 1.339 . S
C19 C20 1.439 . S
C19 H48 0.950 . S
C20 N16 1.383 . S
C20 C19 1.439 . S
C20 C38 1.392 . S
N21 Co5 2.282 . S
N21 C24 1.332 . S
N21 C26 1.332 . S
C22 C23 1.386 . S
C22 C25 1.388 . S
C23 C22 1.386 . S
C23 C24 1.382 . S
C23 H49 0.950 . S
C24 N21 1.332 . S
C24 C23 1.382 . S
C24 H35 0.952 . S
C25 C22 1.388 . S
C25 C26 1.382 . S
C25 H50 0.950 . S
C26 N21 1.332 . S
C26 C25 1.382 . S
C26 H36 0.948 . S
N27 Co5 2.282 . S
N27 C31 1.332 . S
N27 C32 1.332 . S
C28 C29 1.388 . S
C28 C32 1.382 . S
C28 H51 0.950 . S
C29 C28 1.388 . S
C29 C30 1.386 . S
C30 C29 1.386 . S
C30 C31 1.382 . S
C30 H52 0.950 . S
C31 N27 1.332 . S
C31 C30 1.382 . S
C31 H33 0.952 . S
C32 N27 1.332 . S
C32 C28 1.382 . S
C32 H34 0.948 . S
H33 C31 0.952 . S
H34 C32 0.948 . S
H35 C24 0.952 . S
H36 C26 0.948 . S
C37 C3 1.395 . S
C37 C7 1.391 . S
C38 C0 1.389 . S
C38 C20 1.392 . S
C39 C10 1.392 . S
C39 C12 1.389 . S
C40 C15 1.395 . S
C40 C17 1.391 . S
H41 C1 0.951 . S
H42 C2 0.950 . S
H43 C8 0.949 . S
H44 C9 0.950 . S
H45 C13 0.951 . S
H46 C14 0.950 . S
H47 C18 0.949 . S
H48 C19 0.950 . S
H49 C23 0.950 . S
H50 C25 0.950 . S
H51 C28 0.950 . S
H52 C30 0.950 . S
C53 C54 1.443 . S
C53 N57 1.376 . S
C53 C91 1.389 . S
C54 C53 1.443 . S
C54 C55 1.340 . S
C54 H94 0.951 . S
C55 C54 1.340 . S
C55 C56 1.439 . S
C55 H95 0.950 . S
C56 C55 1.439 . S
C56 N57 1.374 . S
C56 C90 1.395 . S
N57 C53 1.376 . S
N57 C56 1.374 . S
N57 Co58 2.008 . S
Co58 N57 2.008 . S
Co58 N59 1.995 . S
Co58 N64 2.008 . S
Co58 N69 1.995 . S
Co58 N74 2.282 . S
Co58 N80 2.282 . S
N59 Co58 1.995 . S
N59 C60 1.376 . S
N59 C63 1.383 . S
C60 N59 1.376 . S
C60 C61 1.446 . S
C60 C90 1.391 . S
C61 C60 1.446 . S
C61 C62 1.339 . S
C61 H96 0.949 . S
C62 C61 1.339 . S
C62 C63 1.439 . S
C62 H97 0.950 . S
C63 N59 1.383 . S
C63 C62 1.439 . S
C63 C92 1.392 . S
N64 Co58 2.008 . S
N64 C65 1.376 . S
N64 C68 1.374 . S
C65 N64 1.376 . S
C65 C66 1.443 . S
C65 C92 1.389 . S
C66 C65 1.443 . S
C66 C67 1.340 . S
C66 H98 0.951 . S
C67 C66 1.340 . S
C67 C68 1.439 . S
C67 H99 0.950 . S
C68 N64 1.374 . S
C68 C67 1.439 . S
C68 C93 1.395 . S
N69 Co58 1.995 . S
N69 C70 1.376 . S
N69 C73 1.383 . S
C70 N69 1.376 . S
C70 C71 1.446 . S
C70 C93 1.391 . S
C71 C70 1.446 . S
C71 C72 1.339 . S
C71 H100 0.949 1_556 S
C72 C71 1.339 . S
C72 C73 1.439 . S
C72 H101 0.949 1_556 S
C73 N69 1.383 . S
C73 C72 1.439 . S
C73 C91 1.392 . S
N74 Co58 2.282 . S
N74 C77 1.332 . S
N74 C79 1.332 . S
C75 C76 1.386 . S
C75 C78 1.388 . S
C76 C75 1.386 . S
C76 C77 1.382 . S
C76 H102 0.950 . S
C77 N74 1.332 . S
C77 C76 1.382 . S
C77 H88 0.952 . S
C78 C75 1.388 . S
C78 C79 1.382 . S
C78 H103 0.950 . S
C79 N74 1.332 . S
C79 C78 1.382 . S
C79 H89 0.948 . S
N80 Co58 2.282 . S
N80 C84 1.332 . S
N80 C85 1.332 . S
C81 C82 1.388 . S
C81 C85 1.382 . S
C81 H104 0.950 . S
C82 C81 1.388 . S
C82 C83 1.386 . S
C83 C82 1.386 . S
C83 C84 1.382 . S
C83 H105 0.950 . S
C84 N80 1.332 . S
C84 C83 1.382 . S
C84 H86 0.952 . S
C85 N80 1.332 . S
C85 C81 1.382 . S
C85 H87 0.948 . S
H86 C84 0.952 . S
H87 C85 0.948 . S
H88 C77 0.952 . S
H89 C79 0.948 . S
C90 C56 1.395 . S
C90 C60 1.391 . S
C91 C53 1.389 . S
C91 C73 1.392 . S
C92 C63 1.392 . S
C92 C65 1.389 . S
C93 C68 1.395 . S
C93 C70 1.391 . S
H94 C54 0.951 . S
H95 C55 0.950 . S
H96 C61 0.949 . S
H97 C62 0.950 . S
H98 C66 0.951 . S
H99 C67 0.950 . S
H100 C71 0.949 1_554 S
H101 C72 0.949 1_554 S
H102 C76 0.950 . S
H103 C78 0.950 . S
H104 C81 0.950 . S
H105 C83 0.950 . S
C106 C107 1.443 . S
C106 N110 1.376 . S
C106 C144 1.389 . S
C107 C106 1.443 . S
C107 C108 1.340 . S
C107 H147 0.951 . S
C108 C107 1.340 . S
C108 C109 1.439 . S
C108 H148 0.950 . S
C109 C108 1.439 . S
C109 N110 1.374 . S
C109 C143 1.395 . S
N110 C106 1.376 . S
N110 C109 1.374 . S
N110 Co111 2.008 . S
Co111 N110 2.008 . S
Co111 N112 1.995 . S
Co111 N117 2.008 . S
Co111 N122 1.995 . S
Co111 N127 2.282 . S
Co111 N133 2.282 . S
N112 Co111 1.995 . S
N112 C113 1.376 . S
N112 C116 1.383 . S
C113 N112 1.376 . S
C113 C114 1.446 . S
C113 C143 1.391 . S
C114 C113 1.446 . S
C114 C115 1.339 . S
C114 H149 0.949 . S
C115 C114 1.339 . S
C115 C116 1.439 . S
C115 H150 0.950 . S
C116 N112 1.383 . S
C116 C115 1.439 . S
C116 C145 1.392 . S
N117 Co111 2.008 . S
N117 C118 1.376 . S
N117 C121 1.374 . S
C118 N117 1.376 . S
C118 C119 1.443 . S
C118 C145 1.389 . S
C119 C118 1.443 . S
C119 C120 1.340 . S
C119 H151 0.951 . S
C120 C119 1.340 . S
C120 C121 1.439 . S
C120 H152 0.950 . S
C121 N117 1.374 . S
C121 C120 1.439 . S
C121 C146 1.395 . S
N122 Co111 1.995 . S
N122 C123 1.376 . S
N122 C126 1.383 . S
C123 N122 1.376 . S
C123 C124 1.446 . S
C123 C146 1.391 . S
C124 C123 1.446 . S
C124 C125 1.339 . S
C124 H153 0.949 . S
C125 C124 1.339 . S
C125 C126 1.439 . S
C125 H154 0.950 . S
C126 N122 1.383 . S
C126 C125 1.439 . S
C126 C144 1.392 . S
N127 Co111 2.282 . S
N127 C130 1.332 . S
N127 C132 1.332 . S
C128 C129 1.386 . S
C128 C131 1.388 . S
C129 C128 1.386 . S
C129 C130 1.382 . S
C129 H155 0.950 . S
C130 N127 1.332 . S
C130 C129 1.382 . S
C130 H141 0.952 . S
C131 C128 1.388 . S
C131 C132 1.382 . S
C131 H156 0.950 . S
C132 N127 1.332 . S
C132 C131 1.382 . S
C132 H142 0.948 . S
N133 Co111 2.282 . S
N133 C137 1.332 . S
N133 C138 1.332 . S
C134 C135 1.388 . S
C134 C138 1.382 . S
C134 H157 0.950 . S
C135 C134 1.388 . S
C135 C136 1.386 . S
C136 C135 1.386 . S
C136 C137 1.382 . S
C136 H158 0.950 . S
C137 N133 1.332 . S
C137 C136 1.382 . S
C137 H139 0.952 . S
C138 N133 1.332 . S
C138 C134 1.382 . S
C138 H140 0.948 . S
H139 C137 0.952 . S
H140 C138 0.948 . S
H141 C130 0.952 . S
H142 C132 0.948 . S
C143 C109 1.395 . S
C143 C113 1.391 . S
C144 C106 1.389 . S
C144 C126 1.392 . S
C145 C116 1.392 . S
C145 C118 1.389 . S
C146 C121 1.395 . S
C146 C123 1.391 . S
H147 C107 0.951 . S
H148 C108 0.950 . S
H149 C114 0.949 . S
H150 C115 0.950 . S
H151 C119 0.951 . S
H152 C120 0.950 . S
H153 C124 0.949 . S
H154 C125 0.950 . S
H155 C129 0.950 . S
H156 C131 0.950 . S
H157 C134 0.950 . S
H158 C136 0.950 . S
C159 C160 1.443 . S
C159 N163 1.376 . S
C159 C197 1.389 . S
C160 C159 1.443 . S
C160 C161 1.340 . S
C160 H200 0.951 . S
C161 C160 1.340 . S
C161 C162 1.439 . S
C161 H201 0.950 . S
C162 C161 1.439 . S
C162 N163 1.374 . S
C162 C196 1.395 . S
N163 C159 1.376 . S
N163 C162 1.374 . S
N163 Co164 2.008 . S
Co164 N163 2.008 . S
Co164 N165 1.995 . S
Co164 N170 2.008 . S
Co164 N175 1.995 . S
Co164 N180 2.282 . S
Co164 N186 2.282 . S
N165 Co164 1.995 . S
N165 C166 1.376 . S
N165 C169 1.383 . S
C166 N165 1.376 . S
C166 C167 1.446 . S
C166 C196 1.391 . S
C167 C166 1.446 . S
C167 C168 1.339 . S
C167 H202 0.949 . S
C168 C167 1.339 . S
C168 C169 1.439 . S
C168 H203 0.950 . S
C169 N165 1.383 . S
C169 C168 1.439 . S
C169 C198 1.392 . S
N170 Co164 2.008 . S
N170 C171 1.376 . S
N170 C174 1.374 . S
C171 N170 1.376 . S
C171 C172 1.443 . S
C171 C198 1.389 . S
C172 C171 1.443 . S
C172 C173 1.340 . S
C172 H204 0.951 . S
C173 C172 1.340 . S
C173 C174 1.439 . S
C173 H205 0.950 . S
C174 N170 1.374 . S
C174 C173 1.439 . S
C174 C199 1.395 . S
N175 Co164 1.995 . S
N175 C176 1.376 . S
N175 C179 1.383 . S
C176 N175 1.376 . S
C176 C177 1.446 . S
C176 C199 1.391 . S
C177 C176 1.446 . S
C177 C178 1.339 . S
C177 H206 0.949 1_556 S
C178 C177 1.339 . S
C178 C179 1.439 . S
C178 H207 0.949 1_556 S
C179 N175 1.383 . S
C179 C178 1.439 . S
C179 C197 1.392 . S
N180 Co164 2.282 . S
N180 C183 1.332 . S
N180 C185 1.332 . S
C181 C182 1.386 . S
C181 C184 1.388 . S
C182 C181 1.386 . S
C182 C183 1.382 . S
C182 H208 0.950 . S
C183 N180 1.332 . S
C183 C182 1.382 . S
C183 H194 0.952 . S
C184 C181 1.388 . S
C184 C185 1.382 . S
C184 H209 0.950 . S
C185 N180 1.332 . S
C185 C184 1.382 . S
C185 H195 0.948 . S
N186 Co164 2.282 . S
N186 C190 1.332 . S
N186 C191 1.332 . S
C187 C188 1.388 . S
C187 C191 1.382 . S
C187 H210 0.950 . S
C188 C187 1.388 . S
C188 C189 1.386 . S
C189 C188 1.386 . S
C189 C190 1.382 . S
C189 H211 0.950 . S
C190 N186 1.332 . S
C190 C189 1.382 . S
C190 H192 0.952 . S
C191 N186 1.332 . S
C191 C187 1.382 . S
C191 H193 0.948 . S
H192 C190 0.952 . S
H193 C191 0.948 . S
H194 C183 0.952 . S
H195 C185 0.948 . S
C196 C162 1.395 . S
C196 C166 1.391 . S
C197 C159 1.389 . S
C197 C179 1.392 . S
C198 C169 1.392 . S
C198 C171 1.389 . S
C199 C174 1.395 . S
C199 C176 1.391 . S
H200 C160 0.951 . S
H201 C161 0.950 . S
H202 C167 0.949 . S
H203 C168 0.950 . S
H204 C172 0.951 . S
H205 C173 0.950 . S
H206 C177 0.949 1_554 S
H207 C178 0.949 1_554 S
H208 C182 0.950 . S
H209 C184 0.950 . S
H210 C187 0.950 . S
H211 C189 0.950 . S
C212 C213 1.443 . S
C212 N216 1.376 . S
C212 C250 1.389 . S
C213 C212 1.443 . S
C213 C214 1.340 . S
C213 H253 0.951 . S
C214 C213 1.340 . S
C214 C215 1.439 . S
C214 H254 0.950 . S
C215 C214 1.439 . S
C215 N216 1.374 . S
C215 C249 1.395 . S
N216 C212 1.376 . S
N216 C215 1.374 . S
N216 Co217 2.008 . S
Co217 N216 2.008 . S
Co217 N218 1.995 . S
Co217 N223 2.008 . S
Co217 N228 1.995 . S
Co217 N233 2.282 . S
Co217 N239 2.282 . S
N218 Co217 1.995 . S
N218 C219 1.376 . S
N218 C222 1.383 . S
C219 N218 1.376 . S
C219 C220 1.446 . S
C219 C249 1.391 . S
C220 C219 1.446 . S
C220 C221 1.339 . S
C220 H255 0.949 . S
C221 C220 1.339 . S
C221 C222 1.439 . S
C221 H256 0.950 . S
C222 N218 1.383 . S
C222 C221 1.439 . S
C222 C251 1.392 . S
N223 Co217 2.008 . S
N223 C224 1.376 . S
N223 C227 1.374 . S
C224 N223 1.376 . S
C224 C225 1.443 . S
C224 C251 1.389 . S
C225 C224 1.443 . S
C225 C226 1.340 . S
C225 H257 0.951 . S
C226 C225 1.340 . S
C226 C227 1.439 . S
C226 H258 0.950 . S
C227 N223 1.374 . S
C227 C226 1.439 . S
C227 C252 1.395 . S
N228 Co217 1.995 . S
N228 C229 1.376 . S
N228 C232 1.383 . S
C229 N228 1.376 . S
C229 C230 1.446 . S
C229 C252 1.391 . S
C230 C229 1.446 . S
C230 C231 1.339 . S
C230 H259 0.949 . S
C231 C230 1.339 . S
C231 C232 1.439 . S
C231 H260 0.950 . S
C232 N228 1.383 . S
C232 C231 1.439 . S
C232 C250 1.392 . S
N233 Co217 2.282 . S
N233 C236 1.332 . S
N233 C238 1.332 . S
C234 C235 1.386 . S
C234 C237 1.388 . S
C235 C234 1.386 . S
C235 C236 1.382 . S
C235 H261 0.950 . S
C236 N233 1.332 . S
C236 C235 1.382 . S
C236 H247 0.952 . S
C237 C234 1.388 . S
C237 C238 1.382 . S
C237 H262 0.950 . S
C238 N233 1.332 . S
C238 C237 1.382 . S
C238 H248 0.948 . S
N239 Co217 2.282 . S
N239 C243 1.332 . S
N239 C244 1.332 . S
C240 C241 1.388 . S
C240 C244 1.382 . S
C240 H263 0.950 . S
C241 C240 1.388 . S
C241 C242 1.386 . S
C242 C241 1.386 . S
C242 C243 1.382 . S
C242 H264 0.950 . S
C243 N239 1.332 . S
C243 C242 1.382 . S
C243 H245 0.952 . S
C244 N239 1.332 . S
C244 C240 1.382 . S
C244 H246 0.948 . S
H245 C243 0.952 . S
H246 C244 0.948 . S
H247 C236 0.952 . S
H248 C238 0.948 . S
C249 C215 1.395 . S
C249 C219 1.391 . S
C250 C212 1.389 . S
C250 C232 1.392 . S
C251 C222 1.392 . S
C251 C224 1.389 . S
C252 C227 1.395 . S
C252 C229 1.391 . S
H253 C213 0.951 . S
H254 C214 0.950 . S
H255 C220 0.949 . S
H256 C221 0.950 . S
H257 C225 0.951 . S
H258 C226 0.950 . S
H259 C230 0.949 . S
H260 C231 0.950 . S
H261 C235 0.950 . S
H262 C237 0.950 . S
H263 C240 0.950 . S
H264 C242 0.950 . S
C265 C266 1.443 . S
C265 N269 1.376 . S
C265 C303 1.389 . S
C266 C265 1.443 . S
C266 C267 1.340 . S
C266 H306 0.951 . S
C267 C266 1.340 . S
C267 C268 1.439 . S
C267 H307 0.950 . S
C268 C267 1.439 . S
C268 N269 1.374 . S
C268 C302 1.395 . S
N269 C265 1.376 . S
N269 C268 1.374 . S
N269 Co270 2.008 1_655 S
Co270 N269 2.008 1_455 S
Co270 N271 1.995 . S
Co270 N276 2.008 . S
Co270 N281 1.995 1_455 S
Co270 N286 2.282 1_455 S
Co270 N292 2.282 . S
N271 Co270 1.995 . S
N271 C272 1.376 . S
N271 C275 1.383 . S
C272 N271 1.376 . S
C272 C273 1.446 . S
C272 C302 1.391 1_455 S
C273 C272 1.446 . S
C273 C274 1.339 . S
C273 H308 0.949 . S
C274 C273 1.339 . S
C274 C275 1.439 . S
C274 H309 0.950 . S
C275 N271 1.383 . S
C275 C274 1.439 . S
C275 C304 1.392 . S
N276 Co270 2.008 . S
N276 C277 1.376 . S
N276 C280 1.374 . S
C277 N276 1.376 . S
C277 C278 1.443 . S
C277 C304 1.389 . S
C278 C277 1.443 . S
C278 C279 1.340 . S
C278 H310 0.951 . S
C279 C278 1.340 . S
C279 C280 1.439 . S
C279 H311 0.950 . S
C280 N276 1.374 . S
C280 C279 1.439 . S
C280 C305 1.395 . S
N281 Co270 1.995 1_655 S
N281 C282 1.376 1_655 S
N281 C285 1.383 . S
C282 N281 1.376 1_455 S
C282 C283 1.446 1_455 S
C282 C305 1.391 . S
C283 C282 1.446 1_655 S
C283 C284 1.339 . S
C283 H312 0.949 1_554 S
C284 C283 1.339 . S
C284 C285 1.439 . S
C284 H313 0.951 1_554 S
C285 N281 1.383 . S
C285 C284 1.439 . S
C285 C303 1.392 . S
N286 Co270 2.282 1_655 S
N286 C289 1.332 . S
N286 C291 1.332 . S
C287 C288 1.386 . S
C287 C290 1.388 . S
C288 C287 1.386 . S
C288 C289 1.382 . S
C288 H314 0.950 . S
C289 N286 1.332 . S
C289 C288 1.382 . S
C289 H300 0.952 . S
C290 C287 1.388 . S
C290 C291 1.382 . S
C290 H315 0.950 . S
C291 N286 1.332 . S
C291 C290 1.382 . S
C291 H301 0.948 . S
N292 Co270 2.282 . S
N292 C296 1.332 . S
N292 C297 1.332 . S
C293 C294 1.388 . S
C293 C297 1.382 . S
C293 H316 0.950 . S
C294 C293 1.388 . S
C294 C295 1.386 . S
C295 C294 1.386 . S
C295 C296 1.382 . S
C295 H317 0.950 . S
C296 N292 1.332 . S
C296 C295 1.382 . S
C296 H298 0.952 . S
C297 N292 1.332 . S
C297 C293 1.382 . S
C297 H299 0.948 . S
H298 C296 0.952 . S
H299 C297 0.948 . S
H300 C289 0.952 . S
H301 C291 0.948 . S
C302 C268 1.395 . S
C302 C272 1.391 1_655 S
C303 C265 1.389 . S
C303 C285 1.392 . S
C304 C275 1.392 . S
C304 C277 1.389 . S
C305 C280 1.395 . S
C305 C282 1.391 . S
H306 C266 0.951 . S
H307 C267 0.950 . S
H308 C273 0.949 . S
H309 C274 0.950 . S
H310 C278 0.951 . S
H311 C279 0.950 . S
H312 C283 0.949 1_556 S
H313 C284 0.951 1_556 S
H314 C288 0.950 . S
H315 C290 0.950 . S
H316 C293 0.950 . S
H317 C295 0.950 . S
C318 C319 1.443 . S
C318 N322 1.376 . S
C318 C356 1.389 . S
C319 C318 1.443 . S
C319 C320 1.340 . S
C319 H359 0.951 . S
C320 C319 1.340 . S
C320 C321 1.439 . S
C320 H360 0.950 . S
C321 C320 1.439 . S
C321 N322 1.374 . S
C321 C355 1.395 . S
N322 C318 1.376 . S
N322 C321 1.374 . S
N322 Co323 2.008 . S
Co323 N322 2.008 . S
Co323 N324 1.995 . S
Co323 N329 2.008 . S
Co323 N334 1.995 . S
Co323 N339 2.282 . S
Co323 N345 2.282 . S
N324 Co323 1.995 . S
N324 C325 1.376 . S
N324 C328 1.383 . S
C325 N324 1.376 . S
C325 C326 1.446 . S
C325 C355 1.391 . S
C326 C325 1.446 . S
C326 C327 1.339 . S
C326 H361 0.949 . S
C327 C326 1.339 . S
C327 C328 1.439 . S
C327 H362 0.950 . S
C328 N324 1.383 . S
C328 C327 1.439 . S
C328 C357 1.392 . S
N329 Co323 2.008 . S
N329 C330 1.376 . S
N329 C333 1.374 . S
C330 N329 1.376 . S
C330 C331 1.443 . S
C330 C357 1.389 . S
C331 C330 1.443 . S
C331 C332 1.340 . S
C331 H363 0.951 . S
C332 C331 1.340 . S
C332 C333 1.439 . S
C332 H364 0.950 . S
C333 N329 1.374 . S
C333 C332 1.439 . S
C333 C358 1.395 . S
N334 Co323 1.995 . S
N334 C335 1.376 . S
N334 C338 1.383 . S
C335 N334 1.376 . S
C335 C336 1.446 . S
C335 C358 1.391 . S
C336 C335 1.446 . S
C336 C337 1.339 . S
C336 H365 0.949 . S
C337 C336 1.339 . S
C337 C338 1.439 . S
C337 H366 0.950 . S
C338 N334 1.383 . S
C338 C337 1.439 . S
C338 C356 1.392 . S
N339 Co323 2.282 . S
N339 C342 1.332 . S
N339 C344 1.332 . S
C340 C341 1.386 . S
C340 C343 1.388 . S
C341 C340 1.386 . S
C341 C342 1.382 . S
C341 H367 0.950 . S
C342 N339 1.332 . S
C342 C341 1.382 . S
C342 H353 0.952 . S
C343 C340 1.388 . S
C343 C344 1.382 . S
C343 H368 0.950 . S
C344 N339 1.332 . S
C344 C343 1.382 . S
C344 H354 0.948 . S
N345 Co323 2.282 . S
N345 C349 1.332 . S
N345 C350 1.332 . S
C346 C347 1.388 . S
C346 C350 1.382 . S
C346 H369 0.950 . S
C347 C346 1.388 . S
C347 C348 1.386 . S
C348 C347 1.386 . S
C348 C349 1.382 . S
C348 H370 0.950 . S
C349 N345 1.332 . S
C349 C348 1.382 . S
C349 H351 0.952 . S
C350 N345 1.332 . S
C350 C346 1.382 . S
C350 H352 0.948 . S
H351 C349 0.952 . S
H352 C350 0.948 . S
H353 C342 0.952 . S
H354 C344 0.948 . S
C355 C321 1.395 . S
C355 C325 1.391 . S
C356 C318 1.389 . S
C356 C338 1.392 . S
C357 C328 1.392 . S
C357 C330 1.389 . S
C358 C333 1.395 . S
C358 C335 1.391 . S
H359 C319 0.951 . S
H360 C320 0.950 . S
H361 C326 0.949 . S
H362 C327 0.950 . S
H363 C331 0.951 . S
H364 C332 0.950 . S
H365 C336 0.949 . S
H366 C337 0.950 . S
H367 C341 0.950 . S
H368 C343 0.950 . S
H369 C346 0.950 . S
H370 C348 0.950 . S
C371 C372 1.443 . S
C371 N375 1.376 . S
C371 C409 1.389 . S
C372 C371 1.443 . S
C372 C373 1.340 . S
C372 H412 0.951 . S
C373 C372 1.340 . S
C373 C374 1.439 . S
C373 H413 0.950 . S
C374 C373 1.439 . S
C374 N375 1.374 . S
C374 C408 1.395 . S
N375 C371 1.376 . S
N375 C374 1.374 . S
N375 Co376 2.008 1_455 S
Co376 N375 2.008 1_655 S
Co376 N377 1.995 . S
Co376 N382 2.008 . S
Co376 N387 1.995 1_655 S
Co376 N392 2.282 1_655 S
Co376 N398 2.282 . S
N377 Co376 1.995 . S
N377 C378 1.376 . S
N377 C381 1.383 . S
C378 N377 1.376 . S
C378 C379 1.446 . S
C378 C408 1.391 1_655 S
C379 C378 1.446 . S
C379 C380 1.339 . S
C379 H414 0.949 . S
C380 C379 1.339 . S
C380 C381 1.439 . S
C380 H415 0.950 . S
C381 N377 1.383 . S
C381 C380 1.439 . S
C381 C410 1.392 . S
N382 Co376 2.008 . S
N382 C383 1.376 . S
N382 C386 1.374 . S
C383 N382 1.376 . S
C383 C384 1.443 . S
C383 C410 1.389 . S
C384 C383 1.443 . S
C384 C385 1.340 . S
C384 H416 0.951 . S
C385 C384 1.340 . S
C385 C386 1.439 . S
C385 H417 0.950 . S
C386 N382 1.374 . S
C386 C385 1.439 . S
C386 C411 1.395 . S
N387 Co376 1.995 1_455 S
N387 C388 1.376 1_455 S
N387 C391 1.383 . S
C388 N387 1.376 1_655 S
C388 C389 1.446 1_655 S
C388 C411 1.391 . S
C389 C388 1.446 1_455 S
C389 C390 1.339 . S
C389 H418 0.949 1_554 S
C390 C389 1.339 . S
C390 C391 1.439 . S
C390 H419 0.951 1_554 S
C391 N387 1.383 . S
C391 C390 1.439 . S
C391 C409 1.392 . S
N392 Co376 2.282 1_455 S
N392 C395 1.332 . S
N392 C397 1.332 . S
C393 C394 1.386 . S
C393 C396 1.388 . S
C394 C393 1.386 . S
C394 C395 1.382 . S
C394 H420 0.950 . S
C395 N392 1.332 . S
C395 C394 1.382 . S
C395 H406 0.952 . S
C396 C393 1.388 . S
C396 C397 1.382 . S
C396 H421 0.950 . S
C397 N392 1.332 . S
C397 C396 1.382 . S
C397 H407 0.948 . S
N398 Co376 2.282 . S
N398 C402 1.332 . S
N398 C403 1.332 . S
C399 C400 1.388 . S
C399 C403 1.382 . S
C399 H422 0.950 . S
C400 C399 1.388 . S
C400 C401 1.386 . S
C401 C400 1.386 . S
C401 C402 1.382 . S
C401 H423 0.950 . S
C402 N398 1.332 . S
C402 C401 1.382 . S
C402 H404 0.952 . S
C403 N398 1.332 . S
C403 C399 1.382 . S
C403 H405 0.948 . S
H404 C402 0.952 . S
H405 C403 0.948 . S
H406 C395 0.952 . S
H407 C397 0.948 . S
C408 C374 1.395 . S
C408 C378 1.391 1_455 S
C409 C371 1.389 . S
C409 C391 1.392 . S
C410 C381 1.392 . S
C410 C383 1.389 . S
C411 C386 1.395 . S
C411 C388 1.391 . S
H412 C372 0.951 . S
H413 C373 0.950 . S
H414 C379 0.949 . S
H415 C380 0.950 . S
H416 C384 0.951 . S
H417 C385 0.950 . S
H418 C389 0.949 1_556 S
H419 C390 0.951 1_556 S
H420 C394 0.950 . S
H421 C396 0.950 . S
H422 C399 0.950 . S
H423 C401 0.950 . S
C424 C425 1.443 . S
C424 N428 1.376 . S
C424 C462 1.389 . S
C425 C424 1.443 . S
C425 C426 1.340 . S
C425 H465 0.951 . S
C426 C425 1.340 . S
C426 C427 1.439 . S
C426 H466 0.950 . S
C427 C426 1.439 . S
C427 N428 1.374 . S
C427 C461 1.395 . S
N428 C424 1.376 . S
N428 C427 1.374 . S
N428 Co429 2.008 . S
Co429 N428 2.008 . S
Co429 N430 1.995 . S
Co429 N435 2.008 . S
Co429 N440 1.995 . S
Co429 N445 2.282 . S
Co429 N451 2.282 . S
N430 Co429 1.995 . S
N430 C431 1.376 . S
N430 C434 1.383 . S
C431 N430 1.376 . S
C431 C432 1.446 . S
C431 C461 1.391 . S
C432 C431 1.446 . S
C432 C433 1.339 . S
C432 H467 0.949 . S
C433 C432 1.339 . S
C433 C434 1.439 . S
C433 H468 0.950 . S
C434 N430 1.383 . S
C434 C433 1.439 . S
C434 C463 1.392 . S
N435 Co429 2.008 . S
N435 C436 1.376 . S
N435 C439 1.374 . S
C436 N435 1.376 . S
C436 C437 1.443 . S
C436 C463 1.389 . S
C437 C436 1.443 . S
C437 C438 1.340 . S
C437 H469 0.951 . S
C438 C437 1.340 . S
C438 C439 1.439 . S
C438 H470 0.950 . S
C439 N435 1.374 . S
C439 C438 1.439 . S
C439 C464 1.395 . S
N440 Co429 1.995 . S
N440 C441 1.376 . S
N440 C444 1.383 . S
C441 N440 1.376 . S
C441 C442 1.446 . S
C441 C464 1.391 . S
C442 C441 1.446 . S
C442 C443 1.339 . S
C442 H471 0.949 . S
C443 C442 1.339 . S
C443 C444 1.439 . S
C443 H472 0.950 . S
C444 N440 1.383 . S
C444 C443 1.439 . S
C444 C462 1.392 . S
N445 Co429 2.282 . S
N445 C448 1.332 . S
N445 C450 1.332 . S
C446 C447 1.386 . S
C446 C449 1.388 . S
C447 C446 1.386 . S
C447 C448 1.382 . S
C447 H473 0.950 . S
C448 N445 1.332 . S
C448 C447 1.382 . S
C448 H459 0.952 . S
C449 C446 1.388 . S
C449 C450 1.382 . S
C449 H474 0.950 . S
C450 N445 1.332 . S
C450 C449 1.382 . S
C450 H460 0.948 . S
N451 Co429 2.282 . S
N451 C455 1.332 . S
N451 C456 1.332 . S
C452 C453 1.388 . S
C452 C456 1.382 . S
C452 H475 0.950 . S
C453 C452 1.388 . S
C453 C454 1.386 . S
C454 C453 1.386 . S
C454 C455 1.382 . S
C454 H476 0.950 . S
C455 N451 1.332 . S
C455 C454 1.382 . S
C455 H457 0.952 . S
C456 N451 1.332 . S
C456 C452 1.382 . S
C456 H458 0.948 . S
H457 C455 0.952 . S
H458 C456 0.948 . S
H459 C448 0.952 . S
H460 C450 0.948 . S
C461 C427 1.395 . S
C461 C431 1.391 . S
C462 C424 1.389 . S
C462 C444 1.392 . S
C463 C434 1.392 . S
C463 C436 1.389 . S
C464 C439 1.395 . S
C464 C441 1.391 . S
H465 C425 0.951 . S
H466 C426 0.950 . S
H467 C432 0.949 . S
H468 C433 0.950 . S
H469 C437 0.951 . S
H470 C438 0.950 . S
H471 C442 0.949 . S
H472 C443 0.950 . S
H473 C447 0.950 . S
H474 C449 0.950 . S
H475 C452 0.950 . S
H476 C454 0.950 . S
C477 C478 1.443 . S
C477 N481 1.376 . S
C477 C515 1.389 . S
C478 C477 1.443 . S
C478 C479 1.340 . S
C478 H518 0.951 . S
C479 C478 1.340 . S
C479 C480 1.439 . S
C479 H519 0.950 . S
C480 C479 1.439 . S
C480 N481 1.374 . S
C480 C514 1.395 . S
N481 C477 1.376 . S
N481 C480 1.374 . S
N481 Co482 2.008 1_556 S
Co482 N481 2.008 1_554 S
Co482 N483 1.995 . S
Co482 N488 2.008 . S
Co482 N493 1.995 1_554 S
Co482 N498 2.282 1_554 S
Co482 N504 2.282 . S
N483 Co482 1.995 . S
N483 C484 1.376 . S
N483 C487 1.383 . S
C484 N483 1.376 . S
C484 C485 1.446 . S
C484 C514 1.391 1_554 S
C485 C484 1.446 . S
C485 C486 1.339 . S
C485 H520 0.949 . S
C486 C485 1.339 . S
C486 C487 1.439 . S
C486 H521 0.950 . S
C487 N483 1.383 . S
C487 C486 1.439 . S
C487 C516 1.392 . S
N488 Co482 2.008 . S
N488 C489 1.376 . S
N488 C492 1.374 . S
C489 N488 1.376 . S
C489 C490 1.443 . S
C489 C516 1.389 . S
C490 C489 1.443 . S
C490 C491 1.340 . S
C490 H522 0.951 . S
C491 C490 1.340 . S
C491 C492 1.439 . S
C491 H523 0.950 . S
C492 N488 1.374 . S
C492 C491 1.439 . S
C492 C517 1.395 . S
N493 Co482 1.995 1_556 S
N493 C494 1.376 1_556 S
N493 C497 1.383 . S
C494 N493 1.376 1_554 S
C494 C495 1.446 1_554 S
C494 C517 1.391 . S
C495 C494 1.446 1_556 S
C495 C496 1.339 . S
C495 H524 0.949 . S
C496 C495 1.339 . S
C496 C497 1.439 . S
C496 H525 0.950 . S
C497 N493 1.383 . S
C497 C496 1.439 . S
C497 C515 1.392 . S
N498 Co482 2.282 1_556 S
N498 C501 1.332 . S
N498 C503 1.332 . S
C499 C500 1.386 . S
C499 C502 1.388 . S
C500 C499 1.386 . S
C500 C501 1.382 . S
C500 H526 0.950 . S
C501 N498 1.332 . S
C501 C500 1.382 . S
C501 H512 0.952 . S
C502 C499 1.388 . S
C502 C503 1.382 . S
C502 H527 0.950 . S
C503 N498 1.332 . S
C503 C502 1.382 . S
C503 H513 0.948 . S
N504 Co482 2.282 . S
N504 C508 1.332 . S
N504 C509 1.332 . S
C505 C506 1.388 . S
C505 C509 1.382 . S
C505 H528 0.950 . S
C506 C505 1.388 . S
C506 C507 1.386 . S
C507 C506 1.386 . S
C507 C508 1.382 . S
C507 H529 0.950 . S
C508 N504 1.332 . S
C508 C507 1.382 . S
C508 H510 0.952 . S
C509 N504 1.332 . S
C509 C505 1.382 . S
C509 H511 0.948 . S
H510 C508 0.952 . S
H511 C509 0.948 . S
H512 C501 0.952 . S
H513 C503 0.948 . S
C514 C480 1.395 . S
C514 C484 1.391 1_556 S
C515 C477 1.389 . S
C515 C497 1.392 . S
C516 C487 1.392 . S
C516 C489 1.389 . S
C517 C492 1.395 . S
C517 C494 1.391 . S
H518 C478 0.951 . S
H519 C479 0.950 . S
H520 C485 0.949 . S
H521 C486 0.950 . S
H522 C490 0.951 . S
H523 C491 0.950 . S
H524 C495 0.949 . S
H525 C496 0.950 . S
H526 C500 0.950 . S
H527 C502 0.950 . S
H528 C505 0.950 . S
H529 C507 0.950 . S
C530 C531 1.443 . S
C530 N534 1.376 . S
C530 C568 1.389 . S
C531 C530 1.443 . S
C531 C532 1.340 . S
C531 H571 0.951 . S
C532 C531 1.340 . S
C532 C533 1.439 . S
C532 H572 0.950 . S
C533 C532 1.439 . S
C533 N534 1.374 . S
C533 C567 1.395 . S
N534 C530 1.376 . S
N534 C533 1.374 . S
N534 Co535 2.008 . S
Co535 N534 2.008 . S
Co535 N536 1.995 . S
Co535 N541 2.008 . S
Co535 N546 1.995 . S
Co535 N551 2.282 . S
Co535 N557 2.282 . S
N536 Co535 1.995 . S
N536 C537 1.376 . S
N536 C540 1.383 . S
C537 N536 1.376 . S
C537 C538 1.446 . S
C537 C567 1.391 . S
C538 C537 1.446 . S
C538 C539 1.339 . S
C538 H573 0.949 . S
C539 C538 1.339 . S
C539 C540 1.439 . S
C539 H574 0.950 . S
C540 N536 1.383 . S
C540 C539 1.439 . S
C540 C569 1.392 . S
N541 Co535 2.008 . S
N541 C542 1.376 . S
N541 C545 1.374 . S
C542 N541 1.376 . S
C542 C543 1.443 . S
C542 C569 1.389 . S
C543 C542 1.443 . S
C543 C544 1.340 . S
C543 H575 0.951 . S
C544 C543 1.340 . S
C544 C545 1.439 . S
C544 H576 0.950 . S
C545 N541 1.374 . S
C545 C544 1.439 . S
C545 C570 1.395 . S
N546 Co535 1.995 . S
N546 C547 1.376 . S
N546 C550 1.383 . S
C547 N546 1.376 . S
C547 C548 1.446 . S
C547 C570 1.391 . S
C548 C547 1.446 . S
C548 C549 1.339 . S
C548 H577 0.949 . S
C549 C548 1.339 . S
C549 C550 1.439 . S
C549 H578 0.950 . S
C550 N546 1.383 . S
C550 C549 1.439 . S
C550 C568 1.392 . S
N551 Co535 2.282 . S
N551 C554 1.332 . S
N551 C556 1.332 . S
C552 C553 1.386 . S
C552 C555 1.388 . S
C553 C552 1.386 . S
C553 C554 1.382 . S
C553 H579 0.950 . S
C554 N551 1.332 . S
C554 C553 1.382 . S
C554 H565 0.952 . S
C555 C552 1.388 . S
C555 C556 1.382 . S
C555 H580 0.950 . S
C556 N551 1.332 . S
C556 C555 1.382 . S
C556 H566 0.948 . S
N557 Co535 2.282 . S
N557 C561 1.332 . S
N557 C562 1.332 . S
C558 C559 1.388 . S
C558 C562 1.382 . S
C558 H581 0.950 . S
C559 C558 1.388 . S
C559 C560 1.386 . S
C560 C559 1.386 . S
C560 C561 1.382 . S
C560 H582 0.950 . S
C561 N557 1.332 . S
C561 C560 1.382 . S
C561 H563 0.952 . S
C562 N557 1.332 . S
C562 C558 1.382 . S
C562 H564 0.948 . S
H563 C561 0.952 . S
H564 C562 0.948 . S
H565 C554 0.952 . S
H566 C556 0.948 . S
C567 C533 1.395 . S
C567 C537 1.391 . S
C568 C530 1.389 . S
C568 C550 1.392 . S
C569 C540 1.392 . S
C569 C542 1.389 . S
C570 C545 1.395 . S
C570 C547 1.391 . S
H571 C531 0.951 . S
H572 C532 0.950 . S
H573 C538 0.949 . S
H574 C539 0.950 . S
H575 C543 0.951 . S
H576 C544 0.950 . S
H577 C548 0.949 . S
H578 C549 0.950 . S
H579 C553 0.950 . S
H580 C555 0.950 . S
H581 C558 0.950 . S
H582 C560 0.950 . S
C583 C584 1.443 . S
C583 N587 1.376 . S
C583 C621 1.389 . S
C584 C583 1.443 . S
C584 C585 1.340 . S
C584 H624 0.951 . S
C585 C584 1.340 . S
C585 C586 1.439 . S
C585 H625 0.950 . S
C586 C585 1.439 . S
C586 N587 1.374 . S
C586 C620 1.395 . S
N587 C583 1.376 . S
N587 C586 1.374 . S
N587 Co588 2.008 1_556 S
Co588 N587 2.008 1_554 S
Co588 N589 1.995 . S
Co588 N594 2.008 . S
Co588 N599 1.995 1_554 S
Co588 N604 2.282 1_554 S
Co588 N610 2.282 . S
N589 Co588 1.995 . S
N589 C590 1.376 . S
N589 C593 1.383 . S
C590 N589 1.376 . S
C590 C591 1.446 . S
C590 C620 1.391 1_554 S
C591 C590 1.446 . S
C591 C592 1.339 . S
C591 H626 0.949 . S
C592 C591 1.339 . S
C592 C593 1.439 . S
C592 H627 0.950 . S
C593 N589 1.383 . S
C593 C592 1.439 . S
C593 C622 1.392 . S
N594 Co588 2.008 . S
N594 C595 1.376 . S
N594 C598 1.374 . S
C595 N594 1.376 . S
C595 C596 1.443 . S
C595 C622 1.389 . S
C596 C595 1.443 . S
C596 C597 1.340 . S
C596 H628 0.951 . S
C597 C596 1.340 . S
C597 C598 1.439 . S
C597 H629 0.950 . S
C598 N594 1.374 . S
C598 C597 1.439 . S
C598 C623 1.395 . S
N599 Co588 1.995 1_556 S
N599 C600 1.376 1_556 S
N599 C603 1.383 . S
C600 N599 1.376 1_554 S
C600 C601 1.446 1_554 S
C600 C623 1.391 . S
C601 C600 1.446 1_556 S
C601 C602 1.339 . S
C601 H630 0.949 1_545 S
C602 C601 1.339 . S
C602 C603 1.439 . S
C602 H631 0.951 1_545 S
C603 N599 1.383 . S
C603 C602 1.439 . S
C603 C621 1.392 . S
N604 Co588 2.282 1_556 S
N604 C607 1.332 . S
N604 C609 1.332 . S
C605 C606 1.386 . S
C605 C608 1.388 . S
C606 C605 1.386 . S
C606 C607 1.382 . S
C606 H632 0.950 . S
C607 N604 1.332 . S
C607 C606 1.382 . S
C607 H618 0.952 . S
C608 C605 1.388 . S
C608 C609 1.382 . S
C608 H633 0.950 . S
C609 N604 1.332 . S
C609 C608 1.382 . S
C609 H619 0.948 . S
N610 Co588 2.282 . S
N610 C614 1.332 . S
N610 C615 1.332 . S
C611 C612 1.388 . S
C611 C615 1.382 . S
C611 H634 0.950 . S
C612 C611 1.388 . S
C612 C613 1.386 . S
C613 C612 1.386 . S
C613 C614 1.382 . S
C613 H635 0.950 . S
C614 N610 1.332 . S
C614 C613 1.382 . S
C614 H616 0.952 . S
C615 N610 1.332 . S
C615 C611 1.382 . S
C615 H617 0.948 . S
H616 C614 0.952 . S
H617 C615 0.948 . S
H618 C607 0.952 . S
H619 C609 0.948 . S
C620 C586 1.395 . S
C620 C590 1.391 1_556 S
C621 C583 1.389 . S
C621 C603 1.392 . S
C622 C593 1.392 . S
C622 C595 1.389 . S
C623 C598 1.395 . S
C623 C600 1.391 . S
H624 C584 0.951 . S
H625 C585 0.950 . S
H626 C591 0.949 . S
H627 C592 0.950 . S
H628 C596 0.951 . S
H629 C597 0.950 . S
H630 C601 0.949 1_565 S
H631 C602 0.951 1_565 S
H632 C606 0.950 . S
H633 C608 0.950 . S
H634 C611 0.950 . S
H635 C613 0.950 . S
C636 C637 1.443 . S
C636 N640 1.376 . S
C636 C674 1.389 . S
C637 C636 1.443 . S
C637 C638 1.340 . S
C637 H677 0.951 . S
C638 C637 1.340 . S
C638 C639 1.439 . S
C638 H678 0.950 . S
C639 C638 1.439 . S
C639 N640 1.374 . S
C639 C673 1.395 . S
N640 C636 1.376 . S
N640 C639 1.374 . S
N640 Co641 2.008 . S
Co641 N640 2.008 . S
Co641 N642 1.995 . S
Co641 N647 2.008 . S
Co641 N652 1.995 . S
Co641 N657 2.282 . S
Co641 N663 2.282 . S
N642 Co641 1.995 . S
N642 C643 1.376 . S
N642 C646 1.383 . S
C643 N642 1.376 . S
C643 C644 1.446 . S
C643 C673 1.391 . S
C644 C643 1.446 . S
C644 C645 1.339 . S
C644 H679 0.949 . S
C645 C644 1.339 . S
C645 C646 1.439 . S
C645 H680 0.950 . S
C646 N642 1.383 . S
C646 C645 1.439 . S
C646 C675 1.392 . S
N647 Co641 2.008 . S
N647 C648 1.376 . S
N647 C651 1.374 . S
C648 N647 1.376 . S
C648 C649 1.443 . S
C648 C675 1.389 . S
C649 C648 1.443 . S
C649 C650 1.340 . S
C649 H681 0.951 . S
C650 C649 1.340 . S
C650 C651 1.439 . S
C650 H682 0.950 . S
C651 N647 1.374 . S
C651 C650 1.439 . S
C651 C676 1.395 . S
N652 Co641 1.995 . S
N652 C653 1.376 . S
N652 C656 1.383 . S
C653 N652 1.376 . S
C653 C654 1.446 . S
C653 C676 1.391 . S
C654 C653 1.446 . S
C654 C655 1.339 . S
C654 H683 0.949 . S
C655 C654 1.339 . S
C655 C656 1.439 . S
C655 H684 0.950 . S
C656 N652 1.383 . S
C656 C655 1.439 . S
C656 C674 1.392 . S
N657 Co641 2.282 . S
N657 C660 1.332 . S
N657 C662 1.332 . S
C658 C659 1.386 . S
C658 C661 1.388 . S
C659 C658 1.386 . S
C659 C660 1.382 . S
C659 H685 0.950 . S
C660 N657 1.332 . S
C660 C659 1.382 . S
C660 H671 0.952 . S
C661 C658 1.388 . S
C661 C662 1.382 . S
C661 H686 0.950 . S
C662 N657 1.332 . S
C662 C661 1.382 . S
C662 H672 0.948 . S
N663 Co641 2.282 . S
N663 C667 1.332 . S
N663 C668 1.332 . S
C664 C665 1.388 . S
C664 C668 1.382 . S
C664 H687 0.950 . S
C665 C664 1.388 . S
C665 C666 1.386 . S
C666 C665 1.386 . S
C666 C667 1.382 . S
C666 H688 0.950 . S
C667 N663 1.332 . S
C667 C666 1.382 . S
C667 H669 0.952 . S
C668 N663 1.332 . S
C668 C664 1.382 . S
C668 H670 0.948 . S
H669 C667 0.952 . S
H670 C668 0.948 . S
H671 C660 0.952 . S
H672 C662 0.948 . S
C673 C639 1.395 . S
C673 C643 1.391 . S
C674 C636 1.389 . S
C674 C656 1.392 . S
C675 C646 1.392 . S
C675 C648 1.389 . S
C676 C651 1.395 . S
C676 C653 1.391 . S
H677 C637 0.951 . S
H678 C638 0.950 . S
H679 C644 0.949 . S
H680 C645 0.950 . S
H681 C649 0.951 . S
H682 C650 0.950 . S
H683 C654 0.949 . S
H684 C655 0.950 . S
H685 C659 0.950 . S
H686 C661 0.950 . S
H687 C664 0.950 . S
H688 C666 0.950 . S
C689 C690 1.443 . S
C689 N693 1.376 . S
C689 C727 1.389 . S
C690 C689 1.443 . S
C690 C691 1.340 . S
C690 H730 0.951 . S
C691 C690 1.340 . S
C691 C692 1.439 . S
C691 H731 0.950 . S
C692 C691 1.439 . S
C692 N693 1.374 . S
C692 C726 1.395 . S
N693 C689 1.376 . S
N693 C692 1.374 . S
N693 Co694 2.008 1_554 S
Co694 N693 2.008 1_556 S
Co694 N695 1.995 . S
Co694 N700 2.008 . S
Co694 N705 1.995 1_556 S
Co694 N710 2.282 1_556 S
Co694 N716 2.282 . S
N695 Co694 1.995 . S
N695 C696 1.376 . S
N695 C699 1.383 . S
C696 N695 1.376 . S
C696 C697 1.446 . S
C696 C726 1.391 1_556 S
C697 C696 1.446 . S
C697 C698 1.339 . S
C697 H732 0.949 . S
C698 C697 1.339 . S
C698 C699 1.439 . S
C698 H733 0.950 . S
C699 N695 1.383 . S
C699 C698 1.439 . S
C699 C728 1.392 . S
N700 Co694 2.008 . S
N700 C701 1.376 . S
N700 C704 1.374 . S
C701 N700 1.376 . S
C701 C702 1.443 . S
C701 C728 1.389 . S
C702 C701 1.443 . S
C702 C703 1.340 . S
C702 H734 0.951 . S
C703 C702 1.340 . S
C703 C704 1.439 . S
C703 H735 0.950 . S
C704 N700 1.374 . S
C704 C703 1.439 . S
C704 C729 1.395 . S
N705 Co694 1.995 1_554 S
N705 C706 1.376 1_554 S
N705 C709 1.383 . S
C706 N705 1.376 1_556 S
C706 C707 1.446 1_556 S
C706 C729 1.391 . S
C707 C706 1.446 1_554 S
C707 C708 1.339 . S
C707 H736 0.949 . S
C708 C707 1.339 . S
C708 C709 1.439 . S
C708 H737 0.950 . S
C709 N705 1.383 . S
C709 C708 1.439 . S
C709 C727 1.392 . S
N710 Co694 2.282 1_554 S
N710 C713 1.332 . S
N710 C715 1.332 . S
C711 C712 1.386 . S
C711 C714 1.388 . S
C712 C711 1.386 . S
C712 C713 1.382 . S
C712 H738 0.950 . S
C713 N710 1.332 . S
C713 C712 1.382 . S
C713 H724 0.952 . S
C714 C711 1.388 . S
C714 C715 1.382 . S
C714 H739 0.950 . S
C715 N710 1.332 . S
C715 C714 1.382 . S
C715 H725 0.948 . S
N716 Co694 2.282 . S
N716 C720 1.332 . S
N716 C721 1.332 . S
C717 C718 1.388 . S
C717 C721 1.382 . S
C717 H740 0.950 . S
C718 C717 1.388 . S
C718 C719 1.386 . S
C719 C718 1.386 . S
C719 C720 1.382 . S
C719 H741 0.950 . S
C720 N716 1.332 . S
C720 C719 1.382 . S
C720 H722 0.952 . S
C721 N716 1.332 . S
C721 C717 1.382 . S
C721 H723 0.948 . S
H722 C720 0.952 . S
H723 C721 0.948 . S
H724 C713 0.952 . S
H725 C715 0.948 . S
C726 C692 1.395 . S
C726 C696 1.391 1_554 S
C727 C689 1.389 . S
C727 C709 1.392 . S
C728 C699 1.392 . S
C728 C701 1.389 . S
C729 C704 1.395 . S
C729 C706 1.391 . S
H730 C690 0.951 . S
H731 C691 0.950 . S
H732 C697 0.949 . S
H733 C698 0.950 . S
H734 C702 0.951 . S
H735 C703 0.950 . S
H736 C707 0.949 . S
H737 C708 0.950 . S
H738 C712 0.950 . S
H739 C714 0.950 . S
H740 C717 0.950 . S
H741 C719 0.950 . S
C742 C743 1.443 . S
C742 N746 1.376 . S
C742 C780 1.389 . S
C743 C742 1.443 . S
C743 C744 1.340 . S
C743 H783 0.951 . S
C744 C743 1.340 . S
C744 C745 1.439 . S
C744 H784 0.950 . S
C745 C744 1.439 . S
C745 N746 1.374 . S
C745 C779 1.395 . S
N746 C742 1.376 . S
N746 C745 1.374 . S
N746 Co747 2.008 . S
Co747 N746 2.008 . S
Co747 N748 1.995 . S
Co747 N753 2.008 . S
Co747 N758 1.995 . S
Co747 N763 2.282 . S
Co747 N769 2.282 . S
N748 Co747 1.995 . S
N748 C749 1.376 . S
N748 C752 1.383 . S
C749 N748 1.376 . S
C749 C750 1.446 . S
C749 C779 1.391 . S
C750 C749 1.446 . S
C750 C751 1.339 . S
C750 H785 0.949 . S
C751 C750 1.339 . S
C751 C752 1.439 . S
C751 H786 0.950 . S
C752 N748 1.383 . S
C752 C751 1.439 . S
C752 C781 1.392 . S
N753 Co747 2.008 . S
N753 C754 1.376 . S
N753 C757 1.374 . S
C754 N753 1.376 . S
C754 C755 1.443 . S
C754 C781 1.389 . S
C755 C754 1.443 . S
C755 C756 1.340 . S
C755 H787 0.951 . S
C756 C755 1.340 . S
C756 C757 1.439 . S
C756 H788 0.950 . S
C757 N753 1.374 . S
C757 C756 1.439 . S
C757 C782 1.395 . S
N758 Co747 1.995 . S
N758 C759 1.376 . S
N758 C762 1.383 . S
C759 N758 1.376 . S
C759 C760 1.446 . S
C759 C782 1.391 . S
C760 C759 1.446 . S
C760 C761 1.339 . S
C760 H789 0.949 . S
C761 C760 1.339 . S
C761 C762 1.439 . S
C761 H790 0.950 . S
C762 N758 1.383 . S
C762 C761 1.439 . S
C762 C780 1.392 . S
N763 Co747 2.282 . S
N763 C766 1.332 . S
N763 C768 1.332 . S
C764 C765 1.386 . S
C764 C767 1.388 . S
C765 C764 1.386 . S
C765 C766 1.382 . S
C765 H791 0.950 . S
C766 N763 1.332 . S
C766 C765 1.382 . S
C766 H777 0.952 . S
C767 C764 1.388 . S
C767 C768 1.382 . S
C767 H792 0.950 . S
C768 N763 1.332 . S
C768 C767 1.382 . S
C768 H778 0.948 . S
N769 Co747 2.282 . S
N769 C773 1.332 . S
N769 C774 1.332 . S
C770 C771 1.388 . S
C770 C774 1.382 . S
C770 H793 0.950 . S
C771 C770 1.388 . S
C771 C772 1.386 . S
C772 C771 1.386 . S
C772 C773 1.382 . S
C772 H794 0.950 . S
C773 N769 1.332 . S
C773 C772 1.382 . S
C773 H775 0.952 . S
C774 N769 1.332 . S
C774 C770 1.382 . S
C774 H776 0.948 . S
H775 C773 0.952 . S
H776 C774 0.948 . S
H777 C766 0.952 . S
H778 C768 0.948 . S
C779 C745 1.395 . S
C779 C749 1.391 . S
C780 C742 1.389 . S
C780 C762 1.392 . S
C781 C752 1.392 . S
C781 C754 1.389 . S
C782 C757 1.395 . S
C782 C759 1.391 . S
H783 C743 0.951 . S
H784 C744 0.950 . S
H785 C750 0.949 . S
H786 C751 0.950 . S
H787 C755 0.951 . S
H788 C756 0.950 . S
H789 C760 0.949 . S
H790 C761 0.950 . S
H791 C765 0.950 . S
H792 C767 0.950 . S
H793 C770 0.950 . S
H794 C772 0.950 . S
C795 C796 1.443 . S
C795 N799 1.376 . S
C795 C833 1.389 . S
C796 C795 1.443 . S
C796 C797 1.340 . S
C796 H836 0.951 . S
C797 C796 1.340 . S
C797 C798 1.439 . S
C797 H837 0.950 . S
C798 C797 1.439 . S
C798 N799 1.374 . S
C798 C832 1.395 . S
N799 C795 1.376 . S
N799 C798 1.374 . S
N799 Co800 2.008 1_554 S
Co800 N799 2.008 1_556 S
Co800 N801 1.995 . S
Co800 N806 2.008 . S
Co800 N811 1.995 1_556 S
Co800 N816 2.282 1_556 S
Co800 N822 2.282 . S
N801 Co800 1.995 . S
N801 C802 1.376 . S
N801 C805 1.383 . S
C802 N801 1.376 . S
C802 C803 1.446 . S
C802 C832 1.391 1_556 S
C803 C802 1.446 . S
C803 C804 1.339 . S
C803 H838 0.949 . S
C804 C803 1.339 . S
C804 C805 1.439 . S
C804 H839 0.950 . S
C805 N801 1.383 . S
C805 C804 1.439 . S
C805 C834 1.392 . S
N806 Co800 2.008 . S
N806 C807 1.376 . S
N806 C810 1.374 . S
C807 N806 1.376 . S
C807 C808 1.443 . S
C807 C834 1.389 . S
C808 C807 1.443 . S
C808 C809 1.340 . S
C808 H840 0.951 . S
C809 C808 1.340 . S
C809 C810 1.439 . S
C809 H841 0.950 . S
C810 N806 1.374 . S
C810 C809 1.439 . S
C810 C835 1.395 . S
N811 Co800 1.995 1_554 S
N811 C812 1.376 1_554 S
N811 C815 1.383 . S
C812 N811 1.376 1_556 S
C812 C813 1.446 1_556 S
C812 C835 1.391 . S
C813 C812 1.446 1_554 S
C813 C814 1.339 . S
C813 H842 0.949 1_545 S
C814 C813 1.339 . S
C814 C815 1.439 . S
C814 H843 0.951 1_545 S
C815 N811 1.383 . S
C815 C814 1.439 . S
C815 C833 1.392 . S
N816 Co800 2.282 1_554 S
N816 C819 1.332 . S
N816 C821 1.332 . S
C817 C818 1.386 . S
C817 C820 1.388 . S
C818 C817 1.386 . S
C818 C819 1.382 . S
C818 H844 0.950 . S
C819 N816 1.332 . S
C819 C818 1.382 . S
C819 H830 0.952 . S
C820 C817 1.388 . S
C820 C821 1.382 . S
C820 H845 0.950 . S
C821 N816 1.332 . S
C821 C820 1.382 . S
C821 H831 0.948 . S
N822 Co800 2.282 . S
N822 C826 1.332 . S
N822 C827 1.332 . S
C823 C824 1.388 . S
C823 C827 1.382 . S
C823 H846 0.950 . S
C824 C823 1.388 . S
C824 C825 1.386 . S
C825 C824 1.386 . S
C825 C826 1.382 . S
C825 H847 0.950 . S
C826 N822 1.332 . S
C826 C825 1.382 . S
C826 H828 0.952 . S
C827 N822 1.332 . S
C827 C823 1.382 . S
C827 H829 0.948 . S
H828 C826 0.952 . S
H829 C827 0.948 . S
H830 C819 0.952 . S
H831 C821 0.948 . S
C832 C798 1.395 . S
C832 C802 1.391 1_554 S
C833 C795 1.389 . S
C833 C815 1.392 . S
C834 C805 1.392 . S
C834 C807 1.389 . S
C835 C810 1.395 . S
C835 C812 1.391 . S
H836 C796 0.951 . S
H837 C797 0.950 . S
H838 C803 0.949 . S
H839 C804 0.950 . S
H840 C808 0.951 . S
H841 C809 0.950 . S
H842 C813 0.949 1_565 S
H843 C814 0.951 1_565 S
H844 C818 0.950 . S
H845 C820 0.950 . S
H846 C823 0.950 . S
H847 C825 0.950 . S
C848 C849 1.443 . S
C848 N852 1.376 . S
C848 C886 1.389 . S
C849 C848 1.443 . S
C849 C850 1.340 . S
C849 H889 0.951 . S
C850 C849 1.340 . S
C850 C851 1.439 . S
C850 H890 0.950 . S
C851 C850 1.439 . S
C851 N852 1.374 . S
C851 C885 1.395 . S
N852 C848 1.376 . S
N852 C851 1.374 . S
N852 Co853 2.008 . S
Co853 N852 2.008 . S
Co853 N854 1.995 . S
Co853 N859 2.008 . S
Co853 N864 1.995 . S
Co853 N869 2.282 . S
Co853 N875 2.282 . S
N854 Co853 1.995 . S
N854 C855 1.376 . S
N854 C858 1.383 . S
C855 N854 1.376 . S
C855 C856 1.446 . S
C855 C885 1.391 . S
C856 C855 1.446 . S
C856 C857 1.339 . S
C856 H891 0.949 . S
C857 C856 1.339 . S
C857 C858 1.439 . S
C857 H892 0.950 . S
C858 N854 1.383 . S
C858 C857 1.439 . S
C858 C887 1.392 . S
N859 Co853 2.008 . S
N859 C860 1.376 . S
N859 C863 1.374 . S
C860 N859 1.376 . S
C860 C861 1.443 . S
C860 C887 1.389 . S
C861 C860 1.443 . S
C861 C862 1.340 . S
C861 H893 0.951 . S
C862 C861 1.340 . S
C862 C863 1.439 . S
C862 H894 0.950 . S
C863 N859 1.374 . S
C863 C862 1.439 . S
C863 C888 1.395 . S
N864 Co853 1.995 . S
N864 C865 1.376 . S
N864 C868 1.383 . S
C865 N864 1.376 . S
C865 C866 1.446 . S
C865 C888 1.391 . S
C866 C865 1.446 . S
C866 C867 1.339 . S
C866 H895 0.949 . S
C867 C866 1.339 . S
C867 C868 1.439 . S
C867 H896 0.950 . S
C868 N864 1.383 . S
C868 C867 1.439 . S
C868 C886 1.392 . S
N869 Co853 2.282 . S
N869 C872 1.332 . S
N869 C874 1.332 . S
C870 C871 1.386 . S
C870 C873 1.388 . S
C871 C870 1.386 . S
C871 C872 1.382 . S
C871 H897 0.950 . S
C872 N869 1.332 . S
C872 C871 1.382 . S
C872 H883 0.952 . S
C873 C870 1.388 . S
C873 C874 1.382 . S
C873 H898 0.950 . S
C874 N869 1.332 . S
C874 C873 1.382 . S
C874 H884 0.948 . S
N875 Co853 2.282 . S
N875 C879 1.332 . S
N875 C880 1.332 . S
C876 C877 1.388 . S
C876 C880 1.382 . S
C876 H899 0.950 . S
C877 C876 1.388 . S
C877 C878 1.386 . S
C878 C877 1.386 . S
C878 C879 1.382 . S
C878 H900 0.950 . S
C879 N875 1.332 . S
C879 C878 1.382 . S
C879 H881 0.952 . S
C880 N875 1.332 . S
C880 C876 1.382 . S
C880 H882 0.948 . S
H881 C879 0.952 . S
H882 C880 0.948 . S
H883 C872 0.952 . S
H884 C874 0.948 . S
C885 C851 1.395 . S
C885 C855 1.391 . S
C886 C848 1.389 . S
C886 C868 1.392 . S
C887 C858 1.392 . S
C887 C860 1.389 . S
C888 C863 1.395 . S
C888 C865 1.391 . S
H889 C849 0.951 . S
H890 C850 0.950 . S
H891 C856 0.949 . S
H892 C857 0.950 . S
H893 C861 0.951 . S
H894 C862 0.950 . S
H895 C866 0.949 . S
H896 C867 0.950 . S
H897 C871 0.950 . S
H898 C873 0.950 . S
H899 C876 0.950 . S
H900 C878 0.950 . S
C901 C902 1.443 . S
C901 N905 1.376 . S
C901 C939 1.389 . S
C902 C901 1.443 . S
C902 C903 1.340 . S
C902 H942 0.951 . S
C903 C902 1.340 . S
C903 C904 1.439 . S
C903 H943 0.950 . S
C904 C903 1.439 . S
C904 N905 1.374 . S
C904 C938 1.395 . S
N905 C901 1.376 . S
N905 C904 1.374 . S
N905 Co906 2.008 . S
Co906 N905 2.008 . S
Co906 N907 1.995 . S
Co906 N912 2.008 . S
Co906 N917 1.995 . S
Co906 N922 2.282 . S
Co906 N928 2.282 . S
N907 Co906 1.995 . S
N907 C908 1.376 . S
N907 C911 1.383 . S
C908 N907 1.376 . S
C908 C909 1.446 . S
C908 C938 1.391 . S
C909 C908 1.446 . S
C909 C910 1.339 . S
C909 H944 0.949 . S
C910 C909 1.339 . S
C910 C911 1.439 . S
C910 H945 0.950 . S
C911 N907 1.383 . S
C911 C910 1.439 . S
C911 C940 1.392 . S
N912 Co906 2.008 . S
N912 C913 1.376 . S
N912 C916 1.374 . S
C913 N912 1.376 . S
C913 C914 1.443 . S
C913 C940 1.389 . S
C914 C913 1.443 . S
C914 C915 1.340 . S
C914 H946 0.951 . S
C915 C914 1.340 . S
C915 C916 1.439 . S
C915 H947 0.950 . S
C916 N912 1.374 . S
C916 C915 1.439 . S
C916 C941 1.395 . S
N917 Co906 1.995 . S
N917 C918 1.376 . S
N917 C921 1.383 . S
C918 N917 1.376 . S
C918 C919 1.446 . S
C918 C941 1.391 . S
C919 C918 1.446 . S
C919 C920 1.339 . S
C919 H948 0.949 . S
C920 C919 1.339 . S
C920 C921 1.439 . S
C920 H949 0.950 . S
C921 N917 1.383 . S
C921 C920 1.439 . S
C921 C939 1.392 . S
N922 Co906 2.282 . S
N922 C925 1.332 . S
N922 C927 1.332 . S
C923 C924 1.386 . S
C923 C926 1.388 . S
C924 C923 1.386 . S
C924 C925 1.382 . S
C924 H950 0.950 . S
C925 N922 1.332 . S
C925 C924 1.382 . S
C925 H936 0.952 . S
C926 C923 1.388 . S
C926 C927 1.382 . S
C926 H951 0.950 . S
C927 N922 1.332 . S
C927 C926 1.382 . S
C927 H937 0.948 . S
N928 Co906 2.282 . S
N928 C932 1.332 . S
N928 C933 1.332 . S
C929 C930 1.388 . S
C929 C933 1.382 . S
C929 H952 0.950 . S
C930 C929 1.388 . S
C930 C931 1.386 . S
C931 C930 1.386 . S
C931 C932 1.382 . S
C931 H953 0.950 . S
C932 N928 1.332 . S
C932 C931 1.382 . S
C932 H934 0.952 . S
C933 N928 1.332 . S
C933 C929 1.382 . S
C933 H935 0.948 . S
H934 C932 0.952 . S
H935 C933 0.948 . S
H936 C925 0.952 . S
H937 C927 0.948 . S
C938 C904 1.395 . S
C938 C908 1.391 . S
C939 C901 1.389 . S
C939 C921 1.392 . S
C940 C911 1.392 . S
C940 C913 1.389 . S
C941 C916 1.395 . S
C941 C918 1.391 . S
H942 C902 0.951 . S
H943 C903 0.950 . S
H944 C909 0.949 . S
H945 C910 0.950 . S
H946 C914 0.951 . S
H947 C915 0.950 . S
H948 C919 0.949 . S
H949 C920 0.950 . S
H950 C924 0.950 . S
H951 C926 0.950 . S
H952 C929 0.950 . S
H953 C931 0.950 . S
C954 C955 1.443 . S
C954 N958 1.376 . S
C954 C992 1.389 . S
C955 C954 1.443 . S
C955 C956 1.340 . S
C955 H995 0.951 . S
C956 C955 1.340 . S
C956 C957 1.439 . S
C956 H996 0.950 . S
C957 C956 1.439 . S
C957 N958 1.374 . S
C957 C991 1.395 . S
N958 C954 1.376 . S
N958 C957 1.374 . S
N958 Co959 2.008 . S
Co959 N958 2.008 . S
Co959 N960 1.995 . S
Co959 N965 2.008 . S
Co959 N970 1.995 . S
Co959 N975 2.282 . S
Co959 N981 2.282 . S
N960 Co959 1.995 . S
N960 C961 1.376 . S
N960 C964 1.383 . S
C961 N960 1.376 . S
C961 C962 1.446 . S
C961 C991 1.391 . S
C962 C961 1.446 . S
C962 C963 1.339 . S
C962 H997 0.949 . S
C963 C962 1.339 . S
C963 C964 1.439 . S
C963 H998 0.950 . S
C964 N960 1.383 . S
C964 C963 1.439 . S
C964 C993 1.392 . S
N965 Co959 2.008 . S
N965 C966 1.376 . S
N965 C969 1.374 . S
C966 N965 1.376 . S
C966 C967 1.443 . S
C966 C993 1.389 . S
C967 C966 1.443 . S
C967 C968 1.340 . S
C967 H999 0.951 . S
C968 C967 1.340 . S
C968 C969 1.439 . S
C968 H1000 0.950 . S
C969 N965 1.374 . S
C969 C968 1.439 . S
C969 C994 1.395 . S
N970 Co959 1.995 . S
N970 C971 1.376 . S
N970 C974 1.383 . S
C971 N970 1.376 . S
C971 C972 1.446 . S
C971 C994 1.391 . S
C972 C971 1.446 . S
C972 C973 1.339 . S
C972 H1001 0.949 1_655 S
C973 C972 1.339 . S
C973 C974 1.439 . S
C973 H1002 0.949 1_655 S
C974 N970 1.383 . S
C974 C973 1.439 . S
C974 C992 1.392 . S
N975 Co959 2.282 . S
N975 C978 1.332 . S
N975 C980 1.332 . S
C976 C977 1.386 . S
C976 C979 1.388 . S
C977 C976 1.386 . S
C977 C978 1.382 . S
C977 H1003 0.950 . S
C978 N975 1.332 . S
C978 C977 1.382 . S
C978 H989 0.952 . S
C979 C976 1.388 . S
C979 C980 1.382 . S
C979 H1004 0.950 . S
C980 N975 1.332 . S
C980 C979 1.382 . S
C980 H990 0.948 . S
N981 Co959 2.282 . S
N981 C985 1.332 . S
N981 C986 1.332 . S
C982 C983 1.388 . S
C982 C986 1.382 . S
C982 H1005 0.950 . S
C983 C982 1.388 . S
C983 C984 1.386 . S
C984 C983 1.386 . S
C984 C985 1.382 . S
C984 H1006 0.950 . S
C985 N981 1.332 . S
C985 C984 1.382 . S
C985 H987 0.952 . S
C986 N981 1.332 . S
C986 C982 1.382 . S
C986 H988 0.948 . S
H987 C985 0.952 . S
H988 C986 0.948 . S
H989 C978 0.952 . S
H990 C980 0.948 . S
C991 C957 1.395 . S
C991 C961 1.391 . S
C992 C954 1.389 . S
C992 C974 1.392 . S
C993 C964 1.392 . S
C993 C966 1.389 . S
C994 C969 1.395 . S
C994 C971 1.391 . S
H995 C955 0.951 . S
H996 C956 0.950 . S
H997 C962 0.949 . S
H998 C963 0.950 . S
H999 C967 0.951 . S
H1000 C968 0.950 . S
H1001 C972 0.949 1_455 S
H1002 C973 0.949 1_455 S
H1003 C977 0.950 . S
H1004 C979 0.950 . S
H1005 C982 0.950 . S
H1006 C984 0.950 . S
C1007 C1008 1.443 . S
C1007 N1011 1.376 . S
C1007 C1045 1.389 . S
C1008 C1007 1.443 . S
C1008 C1009 1.340 . S
C1008 H1048 0.951 . S
C1009 C1008 1.340 . S
C1009 C1010 1.439 . S
C1009 H1049 0.950 . S
C1010 C1009 1.439 . S
C1010 N1011 1.374 . S
C1010 C1044 1.395 . S
N1011 C1007 1.376 . S
N1011 C1010 1.374 . S
N1011 Co1012 2.008 . S
Co1012 N1011 2.008 . S
Co1012 N1013 1.995 . S
Co1012 N1018 2.008 . S
Co1012 N1023 1.995 . S
Co1012 N1028 2.282 . S
Co1012 N1034 2.282 . S
N1013 Co1012 1.995 . S
N1013 C1014 1.376 . S
N1013 C1017 1.383 . S
C1014 N1013 1.376 . S
C1014 C1015 1.446 . S
C1014 C1044 1.391 . S
C1015 C1014 1.446 . S
C1015 C1016 1.339 . S
C1015 H1050 0.949 . S
C1016 C1015 1.339 . S
C1016 C1017 1.439 . S
C1016 H1051 0.950 . S
C1017 N1013 1.383 . S
C1017 C1016 1.439 . S
C1017 C1046 1.392 . S
N1018 Co1012 2.008 . S
N1018 C1019 1.376 . S
N1018 C1022 1.374 . S
C1019 N1018 1.376 . S
C1019 C1020 1.443 . S
C1019 C1046 1.389 . S
C1020 C1019 1.443 . S
C1020 C1021 1.340 . S
C1020 H1052 0.951 . S
C1021 C1020 1.340 . S
C1021 C1022 1.439 . S
C1021 H1053 0.950 . S
C1022 N1018 1.374 . S
C1022 C1021 1.439 . S
C1022 C1047 1.395 . S
N1023 Co1012 1.995 . S
N1023 C1024 1.376 . S
N1023 C1027 1.383 . S
C1024 N1023 1.376 . S
C1024 C1025 1.446 . S
C1024 C1047 1.391 . S
C1025 C1024 1.446 . S
C1025 C1026 1.339 . S
C1025 H1054 0.949 . S
C1026 C1025 1.339 . S
C1026 C1027 1.439 . S
C1026 H1055 0.950 . S
C1027 N1023 1.383 . S
C1027 C1026 1.439 . S
C1027 C1045 1.392 . S
N1028 Co1012 2.282 . S
N1028 C1031 1.332 . S
N1028 C1033 1.332 . S
C1029 C1030 1.386 . S
C1029 C1032 1.388 . S
C1030 C1029 1.386 . S
C1030 C1031 1.382 . S
C1030 H1056 0.950 . S
C1031 N1028 1.332 . S
C1031 C1030 1.382 . S
C1031 H1042 0.952 . S
C1032 C1029 1.388 . S
C1032 C1033 1.382 . S
C1032 H1057 0.950 . S
C1033 N1028 1.332 . S
C1033 C1032 1.382 . S
C1033 H1043 0.948 . S
N1034 Co1012 2.282 . S
N1034 C1038 1.332 . S
N1034 C1039 1.332 . S
C1035 C1036 1.388 . S
C1035 C1039 1.382 . S
C1035 H1058 0.950 . S
C1036 C1035 1.388 . S
C1036 C1037 1.386 . S
C1037 C1036 1.386 . S
C1037 C1038 1.382 . S
C1037 H1059 0.950 . S
C1038 N1034 1.332 . S
C1038 C1037 1.382 . S
C1038 H1040 0.952 . S
C1039 N1034 1.332 . S
C1039 C1035 1.382 . S
C1039 H1041 0.948 . S
H1040 C1038 0.952 . S
H1041 C1039 0.948 . S
H1042 C1031 0.952 . S
H1043 C1033 0.948 . S
C1044 C1010 1.395 . S
C1044 C1014 1.391 . S
C1045 C1007 1.389 . S
C1045 C1027 1.392 . S
C1046 C1017 1.392 . S
C1046 C1019 1.389 . S
C1047 C1022 1.395 . S
C1047 C1024 1.391 . S
H1048 C1008 0.951 . S
H1049 C1009 0.950 . S
H1050 C1015 0.949 . S
H1051 C1016 0.950 . S
H1052 C1020 0.951 . S
H1053 C1021 0.950 . S
H1054 C1025 0.949 . S
H1055 C1026 0.950 . S
H1056 C1030 0.950 . S
H1057 C1032 0.950 . S
H1058 C1035 0.950 . S
H1059 C1037 0.950 . S
C1060 C1061 1.443 . S
C1060 N1064 1.376 . S
C1060 C1098 1.389 . S
C1061 C1060 1.443 . S
C1061 C1062 1.340 . S
C1061 H1101 0.951 . S
C1062 C1061 1.340 . S
C1062 C1063 1.439 . S
C1062 H1102 0.950 . S
C1063 C1062 1.439 . S
C1063 N1064 1.374 . S
C1063 C1097 1.395 . S
N1064 C1060 1.376 . S
N1064 C1063 1.374 . S
N1064 Co1065 2.008 . S
Co1065 N1064 2.008 . S
Co1065 N1066 1.995 . S
Co1065 N1071 2.008 . S
Co1065 N1076 1.995 . S
Co1065 N1081 2.282 . S
Co1065 N1087 2.282 . S
N1066 Co1065 1.995 . S
N1066 C1067 1.376 . S
N1066 C1070 1.383 . S
C1067 N1066 1.376 . S
C1067 C1068 1.446 . S
C1067 C1097 1.391 . S
C1068 C1067 1.446 . S
C1068 C1069 1.339 . S
C1068 H1103 0.949 . S
C1069 C1068 1.339 . S
C1069 C1070 1.439 . S
C1069 H1104 0.950 . S
C1070 N1066 1.383 . S
C1070 C1069 1.439 . S
C1070 C1099 1.392 . S
N1071 Co1065 2.008 . S
N1071 C1072 1.376 . S
N1071 C1075 1.374 . S
C1072 N1071 1.376 . S
C1072 C1073 1.443 . S
C1072 C1099 1.389 . S
C1073 C1072 1.443 . S
C1073 C1074 1.340 . S
C1073 H1105 0.951 . S
C1074 C1073 1.340 . S
C1074 C1075 1.439 . S
C1074 H1106 0.950 . S
C1075 N1071 1.374 . S
C1075 C1074 1.439 . S
C1075 C1100 1.395 . S
N1076 Co1065 1.995 . S
N1076 C1077 1.376 . S
N1076 C1080 1.383 . S
C1077 N1076 1.376 . S
C1077 C1078 1.446 . S
C1077 C1100 1.391 . S
C1078 C1077 1.446 . S
C1078 C1079 1.339 . S
C1078 H1107 0.949 . S
C1079 C1078 1.339 . S
C1079 C1080 1.439 . S
C1079 H1108 0.950 . S
C1080 N1076 1.383 . S
C1080 C1079 1.439 . S
C1080 C1098 1.392 . S
N1081 Co1065 2.282 . S
N1081 C1084 1.332 . S
N1081 C1086 1.332 . S
C1082 C1083 1.386 . S
C1082 C1085 1.388 . S
C1083 C1082 1.386 . S
C1083 C1084 1.382 . S
C1083 H1109 0.950 . S
C1084 N1081 1.332 . S
C1084 C1083 1.382 . S
C1084 H1095 0.952 . S
C1085 C1082 1.388 . S
C1085 C1086 1.382 . S
C1085 H1110 0.950 . S
C1086 N1081 1.332 . S
C1086 C1085 1.382 . S
C1086 H1096 0.948 . S
N1087 Co1065 2.282 . S
N1087 C1091 1.332 . S
N1087 C1092 1.332 . S
C1088 C1089 1.388 . S
C1088 C1092 1.382 . S
C1088 H1111 0.950 . S
C1089 C1088 1.388 . S
C1089 C1090 1.386 . S
C1090 C1089 1.386 . S
C1090 C1091 1.382 . S
C1090 H1112 0.950 . S
C1091 N1087 1.332 . S
C1091 C1090 1.382 . S
C1091 H1093 0.952 . S
C1092 N1087 1.332 . S
C1092 C1088 1.382 . S
C1092 H1094 0.948 . S
H1093 C1091 0.952 . S
H1094 C1092 0.948 . S
H1095 C1084 0.952 . S
H1096 C1086 0.948 . S
C1097 C1063 1.395 . S
C1097 C1067 1.391 . S
C1098 C1060 1.389 . S
C1098 C1080 1.392 . S
C1099 C1070 1.392 . S
C1099 C1072 1.389 . S
C1100 C1075 1.395 . S
C1100 C1077 1.391 . S
H1101 C1061 0.951 . S
H1102 C1062 0.950 . S
H1103 C1068 0.949 . S
H1104 C1069 0.950 . S
H1105 C1073 0.951 . S
H1106 C1074 0.950 . S
H1107 C1078 0.949 . S
H1108 C1079 0.950 . S
H1109 C1083 0.950 . S
H1110 C1085 0.950 . S
H1111 C1088 0.950 . S
H1112 C1090 0.950 . S
C1113 C1114 1.443 . S
C1113 N1117 1.376 . S
C1113 C1151 1.389 . S
C1114 C1113 1.443 . S
C1114 C1115 1.340 . S
C1114 H1154 0.951 . S
C1115 C1114 1.340 . S
C1115 C1116 1.439 . S
C1115 H1155 0.950 . S
C1116 C1115 1.439 . S
C1116 N1117 1.374 . S
C1116 C1150 1.395 . S
N1117 C1113 1.376 . S
N1117 C1116 1.374 . S
N1117 Co1118 2.008 . S
Co1118 N1117 2.008 . S
Co1118 N1119 1.995 . S
Co1118 N1124 2.008 . S
Co1118 N1129 1.995 . S
Co1118 N1134 2.282 . S
Co1118 N1140 2.282 . S
N1119 Co1118 1.995 . S
N1119 C1120 1.376 . S
N1119 C1123 1.383 . S
C1120 N1119 1.376 . S
C1120 C1121 1.446 . S
C1120 C1150 1.391 . S
C1121 C1120 1.446 . S
C1121 C1122 1.339 . S
C1121 H1156 0.949 . S
C1122 C1121 1.339 . S
C1122 C1123 1.439 . S
C1122 H1157 0.950 . S
C1123 N1119 1.383 . S
C1123 C1122 1.439 . S
C1123 C1152 1.392 . S
N1124 Co1118 2.008 . S
N1124 C1125 1.376 . S
N1124 C1128 1.374 . S
C1125 N1124 1.376 . S
C1125 C1126 1.443 . S
C1125 C1152 1.389 . S
C1126 C1125 1.443 . S
C1126 C1127 1.340 . S
C1126 H1158 0.951 . S
C1127 C1126 1.340 . S
C1127 C1128 1.439 . S
C1127 H1159 0.950 . S
C1128 N1124 1.374 . S
C1128 C1127 1.439 . S
C1128 C1153 1.395 . S
N1129 Co1118 1.995 . S
N1129 C1130 1.376 . S
N1129 C1133 1.383 . S
C1130 N1129 1.376 . S
C1130 C1131 1.446 . S
C1130 C1153 1.391 . S
C1131 C1130 1.446 . S
C1131 C1132 1.339 . S
C1131 H1160 0.949 . S
C1132 C1131 1.339 . S
C1132 C1133 1.439 . S
C1132 H1161 0.950 . S
C1133 N1129 1.383 . S
C1133 C1132 1.439 . S
C1133 C1151 1.392 . S
N1134 Co1118 2.282 . S
N1134 C1137 1.332 . S
N1134 C1139 1.332 . S
C1135 C1136 1.386 . S
C1135 C1138 1.388 . S
C1136 C1135 1.386 . S
C1136 C1137 1.382 . S
C1136 H1162 0.950 . S
C1137 N1134 1.332 . S
C1137 C1136 1.382 . S
C1137 H1148 0.952 . S
C1138 C1135 1.388 . S
C1138 C1139 1.382 . S
C1138 H1163 0.950 . S
C1139 N1134 1.332 . S
C1139 C1138 1.382 . S
C1139 H1149 0.948 . S
N1140 Co1118 2.282 . S
N1140 C1144 1.332 . S
N1140 C1145 1.332 . S
C1141 C1142 1.388 . S
C1141 C1145 1.382 . S
C1141 H1164 0.950 . S
C1142 C1141 1.388 . S
C1142 C1143 1.386 . S
C1143 C1142 1.386 . S
C1143 C1144 1.382 . S
C1143 H1165 0.950 . S
C1144 N1140 1.332 . S
C1144 C1143 1.382 . S
C1144 H1146 0.952 . S
C1145 N1140 1.332 . S
C1145 C1141 1.382 . S
C1145 H1147 0.948 . S
H1146 C1144 0.952 . S
H1147 C1145 0.948 . S
H1148 C1137 0.952 . S
H1149 C1139 0.948 . S
C1150 C1116 1.395 . S
C1150 C1120 1.391 . S
C1151 C1113 1.389 . S
C1151 C1133 1.392 . S
C1152 C1123 1.392 . S
C1152 C1125 1.389 . S
C1153 C1128 1.395 . S
C1153 C1130 1.391 . S
H1154 C1114 0.951 . S
H1155 C1115 0.950 . S
H1156 C1121 0.949 . S
H1157 C1122 0.950 . S
H1158 C1126 0.951 . S
H1159 C1127 0.950 . S
H1160 C1131 0.949 . S
H1161 C1132 0.950 . S
H1162 C1136 0.950 . S
H1163 C1138 0.950 . S
H1164 C1141 0.950 . S
H1165 C1143 0.950 . S
C1166 C1167 1.443 . S
C1166 N1170 1.376 . S
C1166 C1204 1.389 . S
C1167 C1166 1.443 . S
C1167 C1168 1.340 . S
C1167 H1207 0.951 . S
C1168 C1167 1.340 . S
C1168 C1169 1.439 . S
C1168 H1208 0.950 . S
C1169 C1168 1.439 . S
C1169 N1170 1.374 . S
C1169 C1203 1.395 . S
N1170 C1166 1.376 . S
N1170 C1169 1.374 . S
N1170 Co1171 2.008 . S
Co1171 N1170 2.008 . S
Co1171 N1172 1.995 . S
Co1171 N1177 2.008 . S
Co1171 N1182 1.995 . S
Co1171 N1187 2.282 . S
Co1171 N1193 2.282 . S
N1172 Co1171 1.995 . S
N1172 C1173 1.376 . S
N1172 C1176 1.383 . S
C1173 N1172 1.376 . S
C1173 C1174 1.446 . S
C1173 C1203 1.391 . S
C1174 C1173 1.446 . S
C1174 C1175 1.339 . S
C1174 H1209 0.949 . S
C1175 C1174 1.339 . S
C1175 C1176 1.439 . S
C1175 H1210 0.950 . S
C1176 N1172 1.383 . S
C1176 C1175 1.439 . S
C1176 C1205 1.392 . S
N1177 Co1171 2.008 . S
N1177 C1178 1.376 . S
N1177 C1181 1.374 . S
C1178 N1177 1.376 . S
C1178 C1179 1.443 . S
C1178 C1205 1.389 . S
C1179 C1178 1.443 . S
C1179 C1180 1.340 . S
C1179 H1211 0.951 . S
C1180 C1179 1.340 . S
C1180 C1181 1.439 . S
C1180 H1212 0.950 . S
C1181 N1177 1.374 . S
C1181 C1180 1.439 . S
C1181 C1206 1.395 . S
N1182 Co1171 1.995 . S
N1182 C1183 1.376 . S
N1182 C1186 1.383 . S
C1183 N1182 1.376 . S
C1183 C1184 1.446 . S
C1183 C1206 1.391 . S
C1184 C1183 1.446 . S
C1184 C1185 1.339 . S
C1184 H1213 0.949 1_655 S
C1185 C1184 1.339 . S
C1185 C1186 1.439 . S
C1185 H1214 0.949 1_655 S
C1186 N1182 1.383 . S
C1186 C1185 1.439 . S
C1186 C1204 1.392 . S
N1187 Co1171 2.282 . S
N1187 C1190 1.332 . S
N1187 C1192 1.332 . S
C1188 C1189 1.386 . S
C1188 C1191 1.388 . S
C1189 C1188 1.386 . S
C1189 C1190 1.382 . S
C1189 H1215 0.950 . S
C1190 N1187 1.332 . S
C1190 C1189 1.382 . S
C1190 H1201 0.952 . S
C1191 C1188 1.388 . S
C1191 C1192 1.382 . S
C1191 H1216 0.950 . S
C1192 N1187 1.332 . S
C1192 C1191 1.382 . S
C1192 H1202 0.948 . S
N1193 Co1171 2.282 . S
N1193 C1197 1.332 . S
N1193 C1198 1.332 . S
C1194 C1195 1.388 . S
C1194 C1198 1.382 . S
C1194 H1217 0.950 . S
C1195 C1194 1.388 . S
C1195 C1196 1.386 . S
C1196 C1195 1.386 . S
C1196 C1197 1.382 . S
C1196 H1218 0.950 . S
C1197 N1193 1.332 . S
C1197 C1196 1.382 . S
C1197 H1199 0.952 . S
C1198 N1193 1.332 . S
C1198 C1194 1.382 . S
C1198 H1200 0.948 . S
H1199 C1197 0.952 . S
H1200 C1198 0.948 . S
H1201 C1190 0.952 . S
H1202 C1192 0.948 . S
C1203 C1169 1.395 . S
C1203 C1173 1.391 . S
C1204 C1166 1.389 . S
C1204 C1186 1.392 . S
C1205 C1176 1.392 . S
C1205 C1178 1.389 . S
C1206 C1181 1.395 . S
C1206 C1183 1.391 . S
H1207 C1167 0.951 . S
H1208 C1168 0.950 . S
H1209 C1174 0.949 . S
H1210 C1175 0.950 . S
H1211 C1179 0.951 . S
H1212 C1180 0.950 . S
H1213 C1184 0.949 1_455 S
H1214 C1185 0.949 1_455 S
H1215 C1189 0.950 . S
H1216 C1191 0.950 . S
H1217 C1194 0.950 . S
H1218 C1196 0.950 . S
C1219 C1220 1.443 . S
C1219 N1223 1.376 . S
C1219 C1257 1.389 . S
C1220 C1219 1.443 . S
C1220 C1221 1.340 . S
C1220 H1260 0.951 . S
C1221 C1220 1.340 . S
C1221 C1222 1.439 . S
C1221 H1261 0.950 . S
C1222 C1221 1.439 . S
C1222 N1223 1.374 . S
C1222 C1256 1.395 . S
N1223 C1219 1.376 . S
N1223 C1222 1.374 . S
N1223 Co1224 2.008 1_565 S
Co1224 N1223 2.008 1_545 S
Co1224 N1225 1.995 . S
Co1224 N1230 2.008 . S
Co1224 N1235 1.995 1_545 S
Co1224 N1240 2.282 1_545 S
Co1224 N1246 2.282 . S
N1225 Co1224 1.995 . S
N1225 C1226 1.376 . S
N1225 C1229 1.383 . S
C1226 N1225 1.376 . S
C1226 C1227 1.446 . S
C1226 C1256 1.391 1_545 S
C1227 C1226 1.446 . S
C1227 C1228 1.339 . S
C1227 H1262 0.949 . S
C1228 C1227 1.339 . S
C1228 C1229 1.439 . S
C1228 H1263 0.950 . S
C1229 N1225 1.383 . S
C1229 C1228 1.439 . S
C1229 C1258 1.392 . S
N1230 Co1224 2.008 . S
N1230 C1231 1.376 . S
N1230 C1234 1.374 . S
C1231 N1230 1.376 . S
C1231 C1232 1.443 . S
C1231 C1258 1.389 . S
C1232 C1231 1.443 . S
C1232 C1233 1.340 . S
C1232 H1264 0.951 . S
C1233 C1232 1.340 . S
C1233 C1234 1.439 . S
C1233 H1265 0.950 . S
C1234 N1230 1.374 . S
C1234 C1233 1.439 . S
C1234 C1259 1.395 . S
N1235 Co1224 1.995 1_565 S
N1235 C1236 1.376 1_565 S
N1235 C1239 1.383 . S
C1236 N1235 1.376 1_545 S
C1236 C1237 1.446 1_545 S
C1236 C1259 1.391 . S
C1237 C1236 1.446 1_565 S
C1237 C1238 1.339 . S
C1237 H1266 0.949 1_455 S
C1238 C1237 1.339 . S
C1238 C1239 1.439 . S
C1238 H1267 0.951 1_455 S
C1239 N1235 1.383 . S
C1239 C1238 1.439 . S
C1239 C1257 1.392 . S
N1240 Co1224 2.282 1_565 S
N1240 C1243 1.332 . S
N1240 C1245 1.332 . S
C1241 C1242 1.386 . S
C1241 C1244 1.388 . S
C1242 C1241 1.386 . S
C1242 C1243 1.382 . S
C1242 H1268 0.950 . S
C1243 N1240 1.332 . S
C1243 C1242 1.382 . S
C1243 H1254 0.952 . S
C1244 C1241 1.388 . S
C1244 C1245 1.382 . S
C1244 H1269 0.950 . S
C1245 N1240 1.332 . S
C1245 C1244 1.382 . S
C1245 H1255 0.948 . S
N1246 Co1224 2.282 . S
N1246 C1250 1.332 . S
N1246 C1251 1.332 . S
C1247 C1248 1.388 . S
C1247 C1251 1.382 . S
C1247 H1270 0.950 . S
C1248 C1247 1.388 . S
C1248 C1249 1.386 . S
C1249 C1248 1.386 . S
C1249 C1250 1.382 . S
C1249 H1271 0.950 . S
C1250 N1246 1.332 . S
C1250 C1249 1.382 . S
C1250 H1252 0.952 . S
C1251 N1246 1.332 . S
C1251 C1247 1.382 . S
C1251 H1253 0.948 . S
H1252 C1250 0.952 . S
H1253 C1251 0.948 . S
H1254 C1243 0.952 . S
H1255 C1245 0.948 . S
C1256 C1222 1.395 . S
C1256 C1226 1.391 1_565 S
C1257 C1219 1.389 . S
C1257 C1239 1.392 . S
C1258 C1229 1.392 . S
C1258 C1231 1.389 . S
C1259 C1234 1.395 . S
C1259 C1236 1.391 . S
H1260 C1220 0.951 . S
H1261 C1221 0.950 . S
H1262 C1227 0.949 . S
H1263 C1228 0.950 . S
H1264 C1232 0.951 . S
H1265 C1233 0.950 . S
H1266 C1237 0.949 1_655 S
H1267 C1238 0.951 1_655 S
H1268 C1242 0.950 . S
H1269 C1244 0.950 . S
H1270 C1247 0.950 . S
H1271 C1249 0.950 . S
C1272 C1273 1.443 . S
C1272 N1276 1.376 . S
C1272 C1310 1.389 . S
C1273 C1272 1.443 . S
C1273 C1274 1.340 . S
C1273 H1313 0.951 . S
C1274 C1273 1.340 . S
C1274 C1275 1.439 . S
C1274 H1314 0.950 . S
C1275 C1274 1.439 . S
C1275 N1276 1.374 . S
C1275 C1309 1.395 . S
N1276 C1272 1.376 . S
N1276 C1275 1.374 . S
N1276 Co1277 2.008 . S
Co1277 N1276 2.008 . S
Co1277 N1278 1.995 . S
Co1277 N1283 2.008 . S
Co1277 N1288 1.995 . S
Co1277 N1293 2.282 . S
Co1277 N1299 2.282 . S
N1278 Co1277 1.995 . S
N1278 C1279 1.376 . S
N1278 C1282 1.383 . S
C1279 N1278 1.376 . S
C1279 C1280 1.446 . S
C1279 C1309 1.391 . S
C1280 C1279 1.446 . S
C1280 C1281 1.339 . S
C1280 H1315 0.949 . S
C1281 C1280 1.339 . S
C1281 C1282 1.439 . S
C1281 H1316 0.950 . S
C1282 N1278 1.383 . S
C1282 C1281 1.439 . S
C1282 C1311 1.392 . S
N1283 Co1277 2.008 . S
N1283 C1284 1.376 . S
N1283 C1287 1.374 . S
C1284 N1283 1.376 . S
C1284 C1285 1.443 . S
C1284 C1311 1.389 . S
C1285 C1284 1.443 . S
C1285 C1286 1.340 . S
C1285 H1317 0.951 . S
C1286 C1285 1.340 . S
C1286 C1287 1.439 . S
C1286 H1318 0.950 . S
C1287 N1283 1.374 . S
C1287 C1286 1.439 . S
C1287 C1312 1.395 . S
N1288 Co1277 1.995 . S
N1288 C1289 1.376 . S
N1288 C1292 1.383 . S
C1289 N1288 1.376 . S
C1289 C1290 1.446 . S
C1289 C1312 1.391 . S
C1290 C1289 1.446 . S
C1290 C1291 1.339 . S
C1290 H1319 0.949 . S
C1291 C1290 1.339 . S
C1291 C1292 1.439 . S
C1291 H1320 0.950 . S
C1292 N1288 1.383 . S
C1292 C1291 1.439 . S
C1292 C1310 1.392 . S
N1293 Co1277 2.282 . S
N1293 C1296 1.332 . S
N1293 C1298 1.332 . S
C1294 C1295 1.386 . S
C1294 C1297 1.388 . S
C1295 C1294 1.386 . S
C1295 C1296 1.382 . S
C1295 H1321 0.950 . S
C1296 N1293 1.332 . S
C1296 C1295 1.382 . S
C1296 H1307 0.952 . S
C1297 C1294 1.388 . S
C1297 C1298 1.382 . S
C1297 H1322 0.950 . S
C1298 N1293 1.332 . S
C1298 C1297 1.382 . S
C1298 H1308 0.948 . S
N1299 Co1277 2.282 . S
N1299 C1303 1.332 . S
N1299 C1304 1.332 . S
C1300 C1301 1.388 . S
C1300 C1304 1.382 . S
C1300 H1323 0.950 . S
C1301 C1300 1.388 . S
C1301 C1302 1.386 . S
C1302 C1301 1.386 . S
C1302 C1303 1.382 . S
C1302 H1324 0.950 . S
C1303 N1299 1.332 . S
C1303 C1302 1.382 . S
C1303 H1305 0.952 . S
C1304 N1299 1.332 . S
C1304 C1300 1.382 . S
C1304 H1306 0.948 . S
H1305 C1303 0.952 . S
H1306 C1304 0.948 . S
H1307 C1296 0.952 . S
H1308 C1298 0.948 . S
C1309 C1275 1.395 . S
C1309 C1279 1.391 . S
C1310 C1272 1.389 . S
C1310 C1292 1.392 . S
C1311 C1282 1.392 . S
C1311 C1284 1.389 . S
C1312 C1287 1.395 . S
C1312 C1289 1.391 . S
H1313 C1273 0.951 . S
H1314 C1274 0.950 . S
H1315 C1280 0.949 . S
H1316 C1281 0.950 . S
H1317 C1285 0.951 . S
H1318 C1286 0.950 . S
H1319 C1290 0.949 . S
H1320 C1291 0.950 . S
H1321 C1295 0.950 . S
H1322 C1297 0.950 . S
H1323 C1300 0.950 . S
H1324 C1302 0.950 . S
C1325 C1326 1.443 . S
C1325 N1329 1.376 . S
C1325 C1363 1.389 . S
C1326 C1325 1.443 . S
C1326 C1327 1.340 . S
C1326 H1366 0.951 . S
C1327 C1326 1.340 . S
C1327 C1328 1.439 . S
C1327 H1367 0.950 . S
C1328 C1327 1.439 . S
C1328 N1329 1.374 . S
C1328 C1362 1.395 . S
N1329 C1325 1.376 . S
N1329 C1328 1.374 . S
N1329 Co1330 2.008 1_455 S
Co1330 N1329 2.008 1_655 S
Co1330 N1331 1.995 . S
Co1330 N1336 2.008 . S
Co1330 N1341 1.995 1_655 S
Co1330 N1346 2.282 1_655 S
Co1330 N1352 2.282 . S
N1331 Co1330 1.995 . S
N1331 C1332 1.376 . S
N1331 C1335 1.383 . S
C1332 N1331 1.376 . S
C1332 C1333 1.446 . S
C1332 C1362 1.391 1_655 S
C1333 C1332 1.446 . S
C1333 C1334 1.339 . S
C1333 H1368 0.949 . S
C1334 C1333 1.339 . S
C1334 C1335 1.439 . S
C1334 H1369 0.950 . S
C1335 N1331 1.383 . S
C1335 C1334 1.439 . S
C1335 C1364 1.392 . S
N1336 Co1330 2.008 . S
N1336 C1337 1.376 . S
N1336 C1340 1.374 . S
C1337 N1336 1.376 . S
C1337 C1338 1.443 . S
C1337 C1364 1.389 . S
C1338 C1337 1.443 . S
C1338 C1339 1.340 . S
C1338 H1370 0.951 . S
C1339 C1338 1.340 . S
C1339 C1340 1.439 . S
C1339 H1371 0.950 . S
C1340 N1336 1.374 . S
C1340 C1339 1.439 . S
C1340 C1365 1.395 . S
N1341 Co1330 1.995 1_455 S
N1341 C1342 1.376 1_455 S
N1341 C1345 1.383 . S
C1342 N1341 1.376 1_655 S
C1342 C1343 1.446 1_655 S
C1342 C1365 1.391 . S
C1343 C1342 1.446 1_455 S
C1343 C1344 1.339 . S
C1343 H1372 0.949 . S
C1344 C1343 1.339 . S
C1344 C1345 1.439 . S
C1344 H1373 0.950 . S
C1345 N1341 1.383 . S
C1345 C1344 1.439 . S
C1345 C1363 1.392 . S
N1346 Co1330 2.282 1_455 S
N1346 C1349 1.332 . S
N1346 C1351 1.332 . S
C1347 C1348 1.386 . S
C1347 C1350 1.388 . S
C1348 C1347 1.386 . S
C1348 C1349 1.382 . S
C1348 H1374 0.950 . S
C1349 N1346 1.332 . S
C1349 C1348 1.382 . S
C1349 H1360 0.952 . S
C1350 C1347 1.388 . S
C1350 C1351 1.382 . S
C1350 H1375 0.950 . S
C1351 N1346 1.332 . S
C1351 C1350 1.382 . S
C1351 H1361 0.948 . S
N1352 Co1330 2.282 . S
N1352 C1356 1.332 . S
N1352 C1357 1.332 . S
C1353 C1354 1.388 . S
C1353 C1357 1.382 . S
C1353 H1376 0.950 . S
C1354 C1353 1.388 . S
C1354 C1355 1.386 . S
C1355 C1354 1.386 . S
C1355 C1356 1.382 . S
C1355 H1377 0.950 . S
C1356 N1352 1.332 . S
C1356 C1355 1.382 . S
C1356 H1358 0.952 . S
C1357 N1352 1.332 . S
C1357 C1353 1.382 . S
C1357 H1359 0.948 . S
H1358 C1356 0.952 . S
H1359 C1357 0.948 . S
H1360 C1349 0.952 . S
H1361 C1351 0.948 . S
C1362 C1328 1.395 . S
C1362 C1332 1.391 1_455 S
C1363 C1325 1.389 . S
C1363 C1345 1.392 . S
C1364 C1335 1.392 . S
C1364 C1337 1.389 . S
C1365 C1340 1.395 . S
C1365 C1342 1.391 . S
H1366 C1326 0.951 . S
H1367 C1327 0.950 . S
H1368 C1333 0.949 . S
H1369 C1334 0.950 . S
H1370 C1338 0.951 . S
H1371 C1339 0.950 . S
H1372 C1343 0.949 . S
H1373 C1344 0.950 . S
H1374 C1348 0.950 . S
H1375 C1350 0.950 . S
H1376 C1353 0.950 . S
H1377 C1355 0.950 . S
C1378 C1379 1.443 . S
C1378 N1382 1.376 . S
C1378 C1416 1.389 . S
C1379 C1378 1.443 . S
C1379 C1380 1.340 . S
C1379 H1419 0.951 . S
C1380 C1379 1.340 . S
C1380 C1381 1.439 . S
C1380 H1420 0.950 . S
C1381 C1380 1.439 . S
C1381 N1382 1.374 . S
C1381 C1415 1.395 . S
N1382 C1378 1.376 . S
N1382 C1381 1.374 . S
N1382 Co1383 2.008 . S
Co1383 N1382 2.008 . S
Co1383 N1384 1.995 . S
Co1383 N1389 2.008 . S
Co1383 N1394 1.995 . S
Co1383 N1399 2.282 . S
Co1383 N1405 2.282 . S
N1384 Co1383 1.995 . S
N1384 C1385 1.376 . S
N1384 C1388 1.383 . S
C1385 N1384 1.376 . S
C1385 C1386 1.446 . S
C1385 C1415 1.391 . S
C1386 C1385 1.446 . S
C1386 C1387 1.339 . S
C1386 H1421 0.949 . S
C1387 C1386 1.339 . S
C1387 C1388 1.439 . S
C1387 H1422 0.950 . S
C1388 N1384 1.383 . S
C1388 C1387 1.439 . S
C1388 C1417 1.392 . S
N1389 Co1383 2.008 . S
N1389 C1390 1.376 . S
N1389 C1393 1.374 . S
C1390 N1389 1.376 . S
C1390 C1391 1.443 . S
C1390 C1417 1.389 . S
C1391 C1390 1.443 . S
C1391 C1392 1.340 . S
C1391 H1423 0.951 . S
C1392 C1391 1.340 . S
C1392 C1393 1.439 . S
C1392 H1424 0.950 . S
C1393 N1389 1.374 . S
C1393 C1392 1.439 . S
C1393 C1418 1.395 . S
N1394 Co1383 1.995 . S
N1394 C1395 1.376 . S
N1394 C1398 1.383 . S
C1395 N1394 1.376 . S
C1395 C1396 1.446 . S
C1395 C1418 1.391 . S
C1396 C1395 1.446 . S
C1396 C1397 1.339 . S
C1396 H1425 0.949 . S
C1397 C1396 1.339 . S
C1397 C1398 1.439 . S
C1397 H1426 0.950 . S
C1398 N1394 1.383 . S
C1398 C1397 1.439 . S
C1398 C1416 1.392 . S
N1399 Co1383 2.282 . S
N1399 C1402 1.332 . S
N1399 C1404 1.332 . S
C1400 C1401 1.386 . S
C1400 C1403 1.388 . S
C1401 C1400 1.386 . S
C1401 C1402 1.382 . S
C1401 H1427 0.950 . S
C1402 N1399 1.332 . S
C1402 C1401 1.382 . S
C1402 H1413 0.952 . S
C1403 C1400 1.388 . S
C1403 C1404 1.382 . S
C1403 H1428 0.950 . S
C1404 N1399 1.332 . S
C1404 C1403 1.382 . S
C1404 H1414 0.948 . S
N1405 Co1383 2.282 . S
N1405 C1409 1.332 . S
N1405 C1410 1.332 . S
C1406 C1407 1.388 . S
C1406 C1410 1.382 . S
C1406 H1429 0.950 . S
C1407 C1406 1.388 . S
C1407 C1408 1.386 . S
C1408 C1407 1.386 . S
C1408 C1409 1.382 . S
C1408 H1430 0.950 . S
C1409 N1405 1.332 . S
C1409 C1408 1.382 . S
C1409 H1411 0.952 . S
C1410 N1405 1.332 . S
C1410 C1406 1.382 . S
C1410 H1412 0.948 . S
H1411 C1409 0.952 . S
H1412 C1410 0.948 . S
H1413 C1402 0.952 . S
H1414 C1404 0.948 . S
C1415 C1381 1.395 . S
C1415 C1385 1.391 . S
C1416 C1378 1.389 . S
C1416 C1398 1.392 . S
C1417 C1388 1.392 . S
C1417 C1390 1.389 . S
C1418 C1393 1.395 . S
C1418 C1395 1.391 . S
H1419 C1379 0.951 . S
H1420 C1380 0.950 . S
H1421 C1386 0.949 . S
H1422 C1387 0.950 . S
H1423 C1391 0.951 . S
H1424 C1392 0.950 . S
H1425 C1396 0.949 . S
H1426 C1397 0.950 . S
H1427 C1401 0.950 . S
H1428 C1403 0.950 . S
H1429 C1406 0.950 . S
H1430 C1408 0.950 . S
C1431 C1432 1.443 . S
C1431 N1435 1.376 . S
C1431 C1469 1.389 . S
C1432 C1431 1.443 . S
C1432 C1433 1.340 . S
C1432 H1472 0.951 . S
C1433 C1432 1.340 . S
C1433 C1434 1.439 . S
C1433 H1473 0.950 . S
C1434 C1433 1.439 . S
C1434 N1435 1.374 . S
C1434 C1468 1.395 . S
N1435 C1431 1.376 . S
N1435 C1434 1.374 . S
N1435 Co1436 2.008 1_655 S
Co1436 N1435 2.008 1_455 S
Co1436 N1437 1.995 . S
Co1436 N1442 2.008 . S
Co1436 N1447 1.995 1_455 S
Co1436 N1452 2.282 1_455 S
Co1436 N1458 2.282 . S
N1437 Co1436 1.995 . S
N1437 C1438 1.376 . S
N1437 C1441 1.383 . S
C1438 N1437 1.376 . S
C1438 C1439 1.446 . S
C1438 C1468 1.391 1_455 S
C1439 C1438 1.446 . S
C1439 C1440 1.339 . S
C1439 H1474 0.949 . S
C1440 C1439 1.339 . S
C1440 C1441 1.439 . S
C1440 H1475 0.950 . S
C1441 N1437 1.383 . S
C1441 C1440 1.439 . S
C1441 C1470 1.392 . S
N1442 Co1436 2.008 . S
N1442 C1443 1.376 . S
N1442 C1446 1.374 . S
C1443 N1442 1.376 . S
C1443 C1444 1.443 . S
C1443 C1470 1.389 . S
C1444 C1443 1.443 . S
C1444 C1445 1.340 . S
C1444 H1476 0.951 . S
C1445 C1444 1.340 . S
C1445 C1446 1.439 . S
C1445 H1477 0.950 . S
C1446 N1442 1.374 . S
C1446 C1445 1.439 . S
C1446 C1471 1.395 . S
N1447 Co1436 1.995 1_655 S
N1447 C1448 1.376 1_655 S
N1447 C1451 1.383 . S
C1448 N1447 1.376 1_455 S
C1448 C1449 1.446 1_455 S
C1448 C1471 1.391 . S
C1449 C1448 1.446 1_655 S
C1449 C1450 1.339 . S
C1449 H1478 0.949 . S
C1450 C1449 1.339 . S
C1450 C1451 1.439 . S
C1450 H1479 0.950 . S
C1451 N1447 1.383 . S
C1451 C1450 1.439 . S
C1451 C1469 1.392 . S
N1452 Co1436 2.282 1_655 S
N1452 C1455 1.332 . S
N1452 C1457 1.332 . S
C1453 C1454 1.386 . S
C1453 C1456 1.388 . S
C1454 C1453 1.386 . S
C1454 C1455 1.382 . S
C1454 H1480 0.950 . S
C1455 N1452 1.332 . S
C1455 C1454 1.382 . S
C1455 H1466 0.952 . S
C1456 C1453 1.388 . S
C1456 C1457 1.382 . S
C1456 H1481 0.950 . S
C1457 N1452 1.332 . S
C1457 C1456 1.382 . S
C1457 H1467 0.948 . S
N1458 Co1436 2.282 . S
N1458 C1462 1.332 . S
N1458 C1463 1.332 . S
C1459 C1460 1.388 . S
C1459 C1463 1.382 . S
C1459 H1482 0.950 . S
C1460 C1459 1.388 . S
C1460 C1461 1.386 . S
C1461 C1460 1.386 . S
C1461 C1462 1.382 . S
C1461 H1483 0.950 . S
C1462 N1458 1.332 . S
C1462 C1461 1.382 . S
C1462 H1464 0.952 . S
C1463 N1458 1.332 . S
C1463 C1459 1.382 . S
C1463 H1465 0.948 . S
H1464 C1462 0.952 . S
H1465 C1463 0.948 . S
H1466 C1455 0.952 . S
H1467 C1457 0.948 . S
C1468 C1434 1.395 . S
C1468 C1438 1.391 1_655 S
C1469 C1431 1.389 . S
C1469 C1451 1.392 . S
C1470 C1441 1.392 . S
C1470 C1443 1.389 . S
C1471 C1446 1.395 . S
C1471 C1448 1.391 . S
H1472 C1432 0.951 . S
H1473 C1433 0.950 . S
H1474 C1439 0.949 . S
H1475 C1440 0.950 . S
H1476 C1444 0.951 . S
H1477 C1445 0.950 . S
H1478 C1449 0.949 . S
H1479 C1450 0.950 . S
H1480 C1454 0.950 . S
H1481 C1456 0.950 . S
H1482 C1459 0.950 . S
H1483 C1461 0.950 . S
C1484 C1485 1.443 . S
C1484 N1488 1.376 . S
C1484 C1522 1.389 . S
C1485 C1484 1.443 . S
C1485 C1486 1.340 . S
C1485 H1525 0.951 . S
C1486 C1485 1.340 . S
C1486 C1487 1.439 . S
C1486 H1526 0.950 . S
C1487 C1486 1.439 . S
C1487 N1488 1.374 . S
C1487 C1521 1.395 . S
N1488 C1484 1.376 . S
N1488 C1487 1.374 . S
N1488 Co1489 2.008 . S
Co1489 N1488 2.008 . S
Co1489 N1490 1.995 . S
Co1489 N1495 2.008 . S
Co1489 N1500 1.995 . S
Co1489 N1505 2.282 . S
Co1489 N1511 2.282 . S
N1490 Co1489 1.995 . S
N1490 C1491 1.376 . S
N1490 C1494 1.383 . S
C1491 N1490 1.376 . S
C1491 C1492 1.446 . S
C1491 C1521 1.391 . S
C1492 C1491 1.446 . S
C1492 C1493 1.339 . S
C1492 H1527 0.949 . S
C1493 C1492 1.339 . S
C1493 C1494 1.439 . S
C1493 H1528 0.950 . S
C1494 N1490 1.383 . S
C1494 C1493 1.439 . S
C1494 C1523 1.392 . S
N1495 Co1489 2.008 . S
N1495 C1496 1.376 . S
N1495 C1499 1.374 . S
C1496 N1495 1.376 . S
C1496 C1497 1.443 . S
C1496 C1523 1.389 . S
C1497 C1496 1.443 . S
C1497 C1498 1.340 . S
C1497 H1529 0.951 . S
C1498 C1497 1.340 . S
C1498 C1499 1.439 . S
C1498 H1530 0.950 . S
C1499 N1495 1.374 . S
C1499 C1498 1.439 . S
C1499 C1524 1.395 . S
N1500 Co1489 1.995 . S
N1500 C1501 1.376 . S
N1500 C1504 1.383 . S
C1501 N1500 1.376 . S
C1501 C1502 1.446 . S
C1501 C1524 1.391 . S
C1502 C1501 1.446 . S
C1502 C1503 1.339 . S
C1502 H1531 0.949 . S
C1503 C1502 1.339 . S
C1503 C1504 1.439 . S
C1503 H1532 0.950 . S
C1504 N1500 1.383 . S
C1504 C1503 1.439 . S
C1504 C1522 1.392 . S
N1505 Co1489 2.282 . S
N1505 C1508 1.332 . S
N1505 C1510 1.332 . S
C1506 C1507 1.386 . S
C1506 C1509 1.388 . S
C1507 C1506 1.386 . S
C1507 C1508 1.382 . S
C1507 H1533 0.950 . S
C1508 N1505 1.332 . S
C1508 C1507 1.382 . S
C1508 H1519 0.952 . S
C1509 C1506 1.388 . S
C1509 C1510 1.382 . S
C1509 H1534 0.950 . S
C1510 N1505 1.332 . S
C1510 C1509 1.382 . S
C1510 H1520 0.948 . S
N1511 Co1489 2.282 . S
N1511 C1515 1.332 . S
N1511 C1516 1.332 . S
C1512 C1513 1.388 . S
C1512 C1516 1.382 . S
C1512 H1535 0.950 . S
C1513 C1512 1.388 . S
C1513 C1514 1.386 . S
C1514 C1513 1.386 . S
C1514 C1515 1.382 . S
C1514 H1536 0.950 . S
C1515 N1511 1.332 . S
C1515 C1514 1.382 . S
C1515 H1517 0.952 . S
C1516 N1511 1.332 . S
C1516 C1512 1.382 . S
C1516 H1518 0.948 . S
H1517 C1515 0.952 . S
H1518 C1516 0.948 . S
H1519 C1508 0.952 . S
H1520 C1510 0.948 . S
C1521 C1487 1.395 . S
C1521 C1491 1.391 . S
C1522 C1484 1.389 . S
C1522 C1504 1.392 . S
C1523 C1494 1.392 . S
C1523 C1496 1.389 . S
C1524 C1499 1.395 . S
C1524 C1501 1.391 . S
H1525 C1485 0.951 . S
H1526 C1486 0.950 . S
H1527 C1492 0.949 . S
H1528 C1493 0.950 . S
H1529 C1497 0.951 . S
H1530 C1498 0.950 . S
H1531 C1502 0.949 . S
H1532 C1503 0.950 . S
H1533 C1507 0.950 . S
H1534 C1509 0.950 . S
H1535 C1512 0.950 . S
H1536 C1514 0.950 . S
C1537 C1538 1.443 . S
C1537 N1541 1.376 . S
C1537 C1575 1.389 . S
C1538 C1537 1.443 . S
C1538 C1539 1.340 . S
C1538 H1578 0.951 . S
C1539 C1538 1.340 . S
C1539 C1540 1.439 . S
C1539 H1579 0.950 . S
C1540 C1539 1.439 . S
C1540 N1541 1.374 . S
C1540 C1574 1.395 . S
N1541 C1537 1.376 . S
N1541 C1540 1.374 . S
N1541 Co1542 2.008 . S
Co1542 N1541 2.008 . S
Co1542 N1543 1.995 . S
Co1542 N1548 2.008 . S
Co1542 N1553 1.995 . S
Co1542 N1558 2.282 . S
Co1542 N1564 2.282 . S
N1543 Co1542 1.995 . S
N1543 C1544 1.376 . S
N1543 C1547 1.383 . S
C1544 N1543 1.376 . S
C1544 C1545 1.446 . S
C1544 C1574 1.391 . S
C1545 C1544 1.446 . S
C1545 C1546 1.339 . S
C1545 H1580 0.949 . S
C1546 C1545 1.339 . S
C1546 C1547 1.439 . S
C1546 H1581 0.950 . S
C1547 N1543 1.383 . S
C1547 C1546 1.439 . S
C1547 C1576 1.392 . S
N1548 Co1542 2.008 . S
N1548 C1549 1.376 . S
N1548 C1552 1.374 . S
C1549 N1548 1.376 . S
C1549 C1550 1.443 . S
C1549 C1576 1.389 . S
C1550 C1549 1.443 . S
C1550 C1551 1.340 . S
C1550 H1582 0.951 . S
C1551 C1550 1.340 . S
C1551 C1552 1.439 . S
C1551 H1583 0.950 . S
C1552 N1548 1.374 . S
C1552 C1551 1.439 . S
C1552 C1577 1.395 . S
N1553 Co1542 1.995 . S
N1553 C1554 1.376 . S
N1553 C1557 1.383 . S
C1554 N1553 1.376 . S
C1554 C1555 1.446 . S
C1554 C1577 1.391 . S
C1555 C1554 1.446 . S
C1555 C1556 1.339 . S
C1555 H1584 0.949 . S
C1556 C1555 1.339 . S
C1556 C1557 1.439 . S
C1556 H1585 0.950 . S
C1557 N1553 1.383 . S
C1557 C1556 1.439 . S
C1557 C1575 1.392 . S
N1558 Co1542 2.282 . S
N1558 C1561 1.332 . S
N1558 C1563 1.332 . S
C1559 C1560 1.386 . S
C1559 C1562 1.388 . S
C1560 C1559 1.386 . S
C1560 C1561 1.382 . S
C1560 H1586 0.950 . S
C1561 N1558 1.332 . S
C1561 C1560 1.382 . S
C1561 H1572 0.952 . S
C1562 C1559 1.388 . S
C1562 C1563 1.382 . S
C1562 H1587 0.950 . S
C1563 N1558 1.332 . S
C1563 C1562 1.382 . S
C1563 H1573 0.948 . S
N1564 Co1542 2.282 . S
N1564 C1568 1.332 . S
N1564 C1569 1.332 . S
C1565 C1566 1.388 . S
C1565 C1569 1.382 . S
C1565 H1588 0.950 . S
C1566 C1565 1.388 . S
C1566 C1567 1.386 . S
C1567 C1566 1.386 . S
C1567 C1568 1.382 . S
C1567 H1589 0.950 . S
C1568 N1564 1.332 . S
C1568 C1567 1.382 . S
C1568 H1570 0.952 . S
C1569 N1564 1.332 . S
C1569 C1565 1.382 . S
C1569 H1571 0.948 . S
H1570 C1568 0.952 . S
H1571 C1569 0.948 . S
H1572 C1561 0.952 . S
H1573 C1563 0.948 . S
C1574 C1540 1.395 . S
C1574 C1544 1.391 . S
C1575 C1537 1.389 . S
C1575 C1557 1.392 . S
C1576 C1547 1.392 . S
C1576 C1549 1.389 . S
C1577 C1552 1.395 . S
C1577 C1554 1.391 . S
H1578 C1538 0.951 . S
H1579 C1539 0.950 . S
H1580 C1545 0.949 . S
H1581 C1546 0.950 . S
H1582 C1550 0.951 . S
H1583 C1551 0.950 . S
H1584 C1555 0.949 . S
H1585 C1556 0.950 . S
H1586 C1560 0.950 . S
H1587 C1562 0.950 . S
H1588 C1565 0.950 . S
H1589 C1567 0.950 . S
C1590 C1591 1.443 . S
C1590 N1594 1.376 . S
C1590 C1628 1.389 . S
C1591 C1590 1.443 . S
C1591 C1592 1.340 . S
C1591 H1631 0.951 . S
C1592 C1591 1.340 . S
C1592 C1593 1.439 . S
C1592 H1632 0.950 . S
C1593 C1592 1.439 . S
C1593 N1594 1.374 . S
C1593 C1627 1.395 . S
N1594 C1590 1.376 . S
N1594 C1593 1.374 . S
N1594 Co1595 2.008 . S
Co1595 N1594 2.008 . S
Co1595 N1596 1.995 . S
Co1595 N1601 2.008 . S
Co1595 N1606 1.995 . S
Co1595 N1611 2.282 . S
Co1595 N1617 2.282 . S
N1596 Co1595 1.995 . S
N1596 C1597 1.376 . S
N1596 C1600 1.383 . S
C1597 N1596 1.376 . S
C1597 C1598 1.446 . S
C1597 C1627 1.391 . S
C1598 C1597 1.446 . S
C1598 C1599 1.339 . S
C1598 H1633 0.949 . S
C1599 C1598 1.339 . S
C1599 C1600 1.439 . S
C1599 H1634 0.950 . S
C1600 N1596 1.383 . S
C1600 C1599 1.439 . S
C1600 C1629 1.392 . S
N1601 Co1595 2.008 . S
N1601 C1602 1.376 . S
N1601 C1605 1.374 . S
C1602 N1601 1.376 . S
C1602 C1603 1.443 . S
C1602 C1629 1.389 . S
C1603 C1602 1.443 . S
C1603 C1604 1.340 . S
C1603 H1635 0.951 . S
C1604 C1603 1.340 . S
C1604 C1605 1.439 . S
C1604 H1636 0.950 . S
C1605 N1601 1.374 . S
C1605 C1604 1.439 . S
C1605 C1630 1.395 . S
N1606 Co1595 1.995 . S
N1606 C1607 1.376 . S
N1606 C1610 1.383 . S
C1607 N1606 1.376 . S
C1607 C1608 1.446 . S
C1607 C1630 1.391 . S
C1608 C1607 1.446 . S
C1608 C1609 1.339 . S
C1608 H1637 0.949 . S
C1609 C1608 1.339 . S
C1609 C1610 1.439 . S
C1609 H1638 0.950 . S
C1610 N1606 1.383 . S
C1610 C1609 1.439 . S
C1610 C1628 1.392 . S
N1611 Co1595 2.282 . S
N1611 C1614 1.332 . S
N1611 C1616 1.332 . S
C1612 C1613 1.386 . S
C1612 C1615 1.388 . S
C1613 C1612 1.386 . S
C1613 C1614 1.382 . S
C1613 H1639 0.950 . S
C1614 N1611 1.332 . S
C1614 C1613 1.382 . S
C1614 H1625 0.952 . S
C1615 C1612 1.388 . S
C1615 C1616 1.382 . S
C1615 H1640 0.950 . S
C1616 N1611 1.332 . S
C1616 C1615 1.382 . S
C1616 H1626 0.948 . S
N1617 Co1595 2.282 . S
N1617 C1621 1.332 . S
N1617 C1622 1.332 . S
C1618 C1619 1.388 . S
C1618 C1622 1.382 . S
C1618 H1641 0.950 . S
C1619 C1618 1.388 . S
C1619 C1620 1.386 . S
C1620 C1619 1.386 . S
C1620 C1621 1.382 . S
C1620 H1642 0.950 . S
C1621 N1617 1.332 . S
C1621 C1620 1.382 . S
C1621 H1623 0.952 . S
C1622 N1617 1.332 . S
C1622 C1618 1.382 . S
C1622 H1624 0.948 . S
H1623 C1621 0.952 . S
H1624 C1622 0.948 . S
H1625 C1614 0.952 . S
H1626 C1616 0.948 . S
C1627 C1593 1.395 . S
C1627 C1597 1.391 . S
C1628 C1590 1.389 . S
C1628 C1610 1.392 . S
C1629 C1600 1.392 . S
C1629 C1602 1.389 . S
C1630 C1605 1.395 . S
C1630 C1607 1.391 . S
H1631 C1591 0.951 . S
H1632 C1592 0.950 . S
H1633 C1598 0.949 . S
H1634 C1599 0.950 . S
H1635 C1603 0.951 . S
H1636 C1604 0.950 . S
H1637 C1608 0.949 . S
H1638 C1609 0.950 . S
H1639 C1613 0.950 . S
H1640 C1615 0.950 . S
H1641 C1618 0.950 . S
H1642 C1620 0.950 . S
C1643 C1644 1.443 . S
C1643 N1647 1.376 . S
C1643 C1681 1.389 . S
C1644 C1643 1.443 . S
C1644 C1645 1.340 . S
C1644 H1684 0.951 . S
C1645 C1644 1.340 . S
C1645 C1646 1.439 . S
C1645 H1685 0.950 . S
C1646 C1645 1.439 . S
C1646 N1647 1.374 . S
C1646 C1680 1.395 . S
N1647 C1643 1.376 . S
N1647 C1646 1.374 . S
N1647 Co1648 2.008 . S
Co1648 N1647 2.008 . S
Co1648 N1649 1.995 . S
Co1648 N1654 2.008 . S
Co1648 N1659 1.995 . S
Co1648 N1664 2.282 . S
Co1648 N1670 2.282 . S
N1649 Co1648 1.995 . S
N1649 C1650 1.376 . S
N1649 C1653 1.383 . S
C1650 N1649 1.376 . S
C1650 C1651 1.446 . S
C1650 C1680 1.391 . S
C1651 C1650 1.446 . S
C1651 C1652 1.339 . S
C1651 H1686 0.949 . S
C1652 C1651 1.339 . S
C1652 C1653 1.439 . S
C1652 H1687 0.950 . S
C1653 N1649 1.383 . S
C1653 C1652 1.439 . S
C1653 C1682 1.392 . S
N1654 Co1648 2.008 . S
N1654 C1655 1.376 . S
N1654 C1658 1.374 . S
C1655 N1654 1.376 . S
C1655 C1656 1.443 . S
C1655 C1682 1.389 . S
C1656 C1655 1.443 . S
C1656 C1657 1.340 . S
C1656 H1688 0.951 . S
C1657 C1656 1.340 . S
C1657 C1658 1.439 . S
C1657 H1689 0.950 . S
C1658 N1654 1.374 . S
C1658 C1657 1.439 . S
C1658 C1683 1.395 . S
N1659 Co1648 1.995 . S
N1659 C1660 1.376 . S
N1659 C1663 1.383 . S
C1660 N1659 1.376 . S
C1660 C1661 1.446 . S
C1660 C1683 1.391 . S
C1661 C1660 1.446 . S
C1661 C1662 1.339 . S
C1661 H1690 0.949 . S
C1662 C1661 1.339 . S
C1662 C1663 1.439 . S
C1662 H1691 0.950 . S
C1663 N1659 1.383 . S
C1663 C1662 1.439 . S
C1663 C1681 1.392 . S
N1664 Co1648 2.282 . S
N1664 C1667 1.332 . S
N1664 C1669 1.332 . S
C1665 C1666 1.386 . S
C1665 C1668 1.388 . S
C1666 C1665 1.386 . S
C1666 C1667 1.382 . S
C1666 H1692 0.950 . S
C1667 N1664 1.332 . S
C1667 C1666 1.382 . S
C1667 H1678 0.952 . S
C1668 C1665 1.388 . S
C1668 C1669 1.382 . S
C1668 H1693 0.950 . S
C1669 N1664 1.332 . S
C1669 C1668 1.382 . S
C1669 H1679 0.948 . S
N1670 Co1648 2.282 . S
N1670 C1674 1.332 . S
N1670 C1675 1.332 . S
C1671 C1672 1.388 . S
C1671 C1675 1.382 . S
C1671 H1694 0.950 . S
C1672 C1671 1.388 . S
C1672 C1673 1.386 . S
C1673 C1672 1.386 . S
C1673 C1674 1.382 . S
C1673 H1695 0.950 . S
C1674 N1670 1.332 . S
C1674 C1673 1.382 . S
C1674 H1676 0.952 . S
C1675 N1670 1.332 . S
C1675 C1671 1.382 . S
C1675 H1677 0.948 . S
H1676 C1674 0.952 . S
H1677 C1675 0.948 . S
H1678 C1667 0.952 . S
H1679 C1669 0.948 . S
C1680 C1646 1.395 . S
C1680 C1650 1.391 . S
C1681 C1643 1.389 . S
C1681 C1663 1.392 . S
C1682 C1653 1.392 . S
C1682 C1655 1.389 . S
C1683 C1658 1.395 . S
C1683 C1660 1.391 . S
H1684 C1644 0.951 . S
H1685 C1645 0.950 . S
H1686 C1651 0.949 . S
H1687 C1652 0.950 . S
H1688 C1656 0.951 . S
H1689 C1657 0.950 . S
H1690 C1661 0.949 . S
H1691 C1662 0.950 . S
H1692 C1666 0.950 . S
H1693 C1668 0.950 . S
H1694 C1671 0.950 . S
H1695 C1673 0.950 . S
C1696 C1697 1.443 . S
C1696 N1700 1.376 . S
C1696 C1734 1.389 . S
C1697 C1696 1.443 . S
C1697 C1698 1.340 . S
C1697 H1737 0.951 . S
C1698 C1697 1.340 . S
C1698 C1699 1.439 . S
C1698 H1738 0.950 . S
C1699 C1698 1.439 . S
C1699 N1700 1.374 . S
C1699 C1733 1.395 . S
N1700 C1696 1.376 . S
N1700 C1699 1.374 . S
N1700 Co1701 2.008 . S
Co1701 N1700 2.008 . S
Co1701 N1702 1.995 . S
Co1701 N1707 2.008 . S
Co1701 N1712 1.995 . S
Co1701 N1717 2.282 . S
Co1701 N1723 2.282 . S
N1702 Co1701 1.995 . S
N1702 C1703 1.376 . S
N1702 C1706 1.383 . S
C1703 N1702 1.376 . S
C1703 C1704 1.446 . S
C1703 C1733 1.391 . S
C1704 C1703 1.446 . S
C1704 C1705 1.339 . S
C1704 H1739 0.949 . S
C1705 C1704 1.339 . S
C1705 C1706 1.439 . S
C1705 H1740 0.950 . S
C1706 N1702 1.383 . S
C1706 C1705 1.439 . S
C1706 C1735 1.392 . S
N1707 Co1701 2.008 . S
N1707 C1708 1.376 . S
N1707 C1711 1.374 . S
C1708 N1707 1.376 . S
C1708 C1709 1.443 . S
C1708 C1735 1.389 . S
C1709 C1708 1.443 . S
C1709 C1710 1.340 . S
C1709 H1741 0.951 . S
C1710 C1709 1.340 . S
C1710 C1711 1.439 . S
C1710 H1742 0.950 . S
C1711 N1707 1.374 . S
C1711 C1710 1.439 . S
C1711 C1736 1.395 . S
N1712 Co1701 1.995 . S
N1712 C1713 1.376 . S
N1712 C1716 1.383 . S
C1713 N1712 1.376 . S
C1713 C1714 1.446 . S
C1713 C1736 1.391 . S
C1714 C1713 1.446 . S
C1714 C1715 1.339 . S
C1714 H1743 0.949 . S
C1715 C1714 1.339 . S
C1715 C1716 1.439 . S
C1715 H1744 0.950 . S
C1716 N1712 1.383 . S
C1716 C1715 1.439 . S
C1716 C1734 1.392 . S
N1717 Co1701 2.282 . S
N1717 C1720 1.332 . S
N1717 C1722 1.332 . S
C1718 C1719 1.386 . S
C1718 C1721 1.388 . S
C1719 C1718 1.386 . S
C1719 C1720 1.382 . S
C1719 H1745 0.950 . S
C1720 N1717 1.332 . S
C1720 C1719 1.382 . S
C1720 H1731 0.952 . S
C1721 C1718 1.388 . S
C1721 C1722 1.382 . S
C1721 H1746 0.950 . S
C1722 N1717 1.332 . S
C1722 C1721 1.382 . S
C1722 H1732 0.948 . S
N1723 Co1701 2.282 . S
N1723 C1727 1.332 . S
N1723 C1728 1.332 . S
C1724 C1725 1.388 . S
C1724 C1728 1.382 . S
C1724 H1747 0.950 . S
C1725 C1724 1.388 . S
C1725 C1726 1.386 . S
C1726 C1725 1.386 . S
C1726 C1727 1.382 . S
C1726 H1748 0.950 . S
C1727 N1723 1.332 . S
C1727 C1726 1.382 . S
C1727 H1729 0.952 . S
C1728 N1723 1.332 . S
C1728 C1724 1.382 . S
C1728 H1730 0.948 . S
H1729 C1727 0.952 . S
H1730 C1728 0.948 . S
H1731 C1720 0.952 . S
H1732 C1722 0.948 . S
C1733 C1699 1.395 . S
C1733 C1703 1.391 . S
C1734 C1696 1.389 . S
C1734 C1716 1.392 . S
C1735 C1706 1.392 . S
C1735 C1708 1.389 . S
C1736 C1711 1.395 . S
C1736 C1713 1.391 . S
H1737 C1697 0.951 . S
H1738 C1698 0.950 . S
H1739 C1704 0.949 . S
H1740 C1705 0.950 . S
H1741 C1709 0.951 . S
H1742 C1710 0.950 . S
H1743 C1714 0.949 . S
H1744 C1715 0.950 . S
H1745 C1719 0.950 . S
H1746 C1721 0.950 . S
H1747 C1724 0.950 . S
H1748 C1726 0.950 . S
C1749 C1750 1.443 . S
C1749 N1753 1.376 . S
C1749 C1787 1.389 . S
C1750 C1749 1.443 . S
C1750 C1751 1.340 . S
C1750 H1790 0.951 . S
C1751 C1750 1.340 . S
C1751 C1752 1.439 . S
C1751 H1791 0.950 . S
C1752 C1751 1.439 . S
C1752 N1753 1.374 . S
C1752 C1786 1.395 . S
N1753 C1749 1.376 . S
N1753 C1752 1.374 . S
N1753 Co1754 2.008 . S
Co1754 N1753 2.008 . S
Co1754 N1755 1.995 . S
Co1754 N1760 2.008 . S
Co1754 N1765 1.995 . S
Co1754 N1770 2.282 . S
Co1754 N1776 2.282 . S
N1755 Co1754 1.995 . S
N1755 C1756 1.376 . S
N1755 C1759 1.383 . S
C1756 N1755 1.376 . S
C1756 C1757 1.446 . S
C1756 C1786 1.391 . S
C1757 C1756 1.446 . S
C1757 C1758 1.339 . S
C1757 H1792 0.949 . S
C1758 C1757 1.339 . S
C1758 C1759 1.439 . S
C1758 H1793 0.950 . S
C1759 N1755 1.383 . S
C1759 C1758 1.439 . S
C1759 C1788 1.392 . S
N1760 Co1754 2.008 . S
N1760 C1761 1.376 . S
N1760 C1764 1.374 . S
C1761 N1760 1.376 . S
C1761 C1762 1.443 . S
C1761 C1788 1.389 . S
C1762 C1761 1.443 . S
C1762 C1763 1.340 . S
C1762 H1794 0.951 . S
C1763 C1762 1.340 . S
C1763 C1764 1.439 . S
C1763 H1795 0.950 . S
C1764 N1760 1.374 . S
C1764 C1763 1.439 . S
C1764 C1789 1.395 . S
N1765 Co1754 1.995 . S
N1765 C1766 1.376 . S
N1765 C1769 1.383 . S
C1766 N1765 1.376 . S
C1766 C1767 1.446 . S
C1766 C1789 1.391 . S
C1767 C1766 1.446 . S
C1767 C1768 1.339 . S
C1767 H1796 0.949 1_565 S
C1768 C1767 1.339 . S
C1768 C1769 1.439 . S
C1768 H1797 0.949 1_565 S
C1769 N1765 1.383 . S
C1769 C1768 1.439 . S
C1769 C1787 1.392 . S
N1770 Co1754 2.282 . S
N1770 C1773 1.332 . S
N1770 C1775 1.332 . S
C1771 C1772 1.386 . S
C1771 C1774 1.388 . S
C1772 C1771 1.386 . S
C1772 C1773 1.382 . S
C1772 H1798 0.950 . S
C1773 N1770 1.332 . S
C1773 C1772 1.382 . S
C1773 H1784 0.952 . S
C1774 C1771 1.388 . S
C1774 C1775 1.382 . S
C1774 H1799 0.950 . S
C1775 N1770 1.332 . S
C1775 C1774 1.382 . S
C1775 H1785 0.948 . S
N1776 Co1754 2.282 . S
N1776 C1780 1.332 . S
N1776 C1781 1.332 . S
C1777 C1778 1.388 . S
C1777 C1781 1.382 . S
C1777 H1800 0.950 . S
C1778 C1777 1.388 . S
C1778 C1779 1.386 . S
C1779 C1778 1.386 . S
C1779 C1780 1.382 . S
C1779 H1801 0.950 . S
C1780 N1776 1.332 . S
C1780 C1779 1.382 . S
C1780 H1782 0.952 . S
C1781 N1776 1.332 . S
C1781 C1777 1.382 . S
C1781 H1783 0.948 . S
H1782 C1780 0.952 . S
H1783 C1781 0.948 . S
H1784 C1773 0.952 . S
H1785 C1775 0.948 . S
C1786 C1752 1.395 . S
C1786 C1756 1.391 . S
C1787 C1749 1.389 . S
C1787 C1769 1.392 . S
C1788 C1759 1.392 . S
C1788 C1761 1.389 . S
C1789 C1764 1.395 . S
C1789 C1766 1.391 . S
H1790 C1750 0.951 . S
H1791 C1751 0.950 . S
H1792 C1757 0.949 . S
H1793 C1758 0.950 . S
H1794 C1762 0.951 . S
H1795 C1763 0.950 . S
H1796 C1767 0.949 1_545 S
H1797 C1768 0.949 1_545 S
H1798 C1772 0.950 . S
H1799 C1774 0.950 . S
H1800 C1777 0.950 . S
H1801 C1779 0.950 . S
C1802 C1803 1.443 . S
C1802 N1806 1.376 . S
C1802 C1840 1.389 . S
C1803 C1802 1.443 . S
C1803 C1804 1.340 . S
C1803 H1843 0.951 . S
C1804 C1803 1.340 . S
C1804 C1805 1.439 . S
C1804 H1844 0.950 . S
C1805 C1804 1.439 . S
C1805 N1806 1.374 . S
C1805 C1839 1.395 . S
N1806 C1802 1.376 . S
N1806 C1805 1.374 . S
N1806 Co1807 2.008 . S
Co1807 N1806 2.008 . S
Co1807 N1808 1.995 . S
Co1807 N1813 2.008 . S
Co1807 N1818 1.995 . S
Co1807 N1823 2.282 . S
Co1807 N1829 2.282 . S
N1808 Co1807 1.995 . S
N1808 C1809 1.376 . S
N1808 C1812 1.383 . S
C1809 N1808 1.376 . S
C1809 C1810 1.446 . S
C1809 C1839 1.391 . S
C1810 C1809 1.446 . S
C1810 C1811 1.339 . S
C1810 H1845 0.949 . S
C1811 C1810 1.339 . S
C1811 C1812 1.439 . S
C1811 H1846 0.950 . S
C1812 N1808 1.383 . S
C1812 C1811 1.439 . S
C1812 C1841 1.392 . S
N1813 Co1807 2.008 . S
N1813 C1814 1.376 . S
N1813 C1817 1.374 . S
C1814 N1813 1.376 . S
C1814 C1815 1.443 . S
C1814 C1841 1.389 . S
C1815 C1814 1.443 . S
C1815 C1816 1.340 . S
C1815 H1847 0.951 . S
C1816 C1815 1.340 . S
C1816 C1817 1.439 . S
C1816 H1848 0.950 . S
C1817 N1813 1.374 . S
C1817 C1816 1.439 . S
C1817 C1842 1.395 . S
N1818 Co1807 1.995 . S
N1818 C1819 1.376 . S
N1818 C1822 1.383 . S
C1819 N1818 1.376 . S
C1819 C1820 1.446 . S
C1819 C1842 1.391 . S
C1820 C1819 1.446 . S
C1820 C1821 1.339 . S
C1820 H1849 0.949 . S
C1821 C1820 1.339 . S
C1821 C1822 1.439 . S
C1821 H1850 0.950 . S
C1822 N1818 1.383 . S
C1822 C1821 1.439 . S
C1822 C1840 1.392 . S
N1823 Co1807 2.282 . S
N1823 C1826 1.332 . S
N1823 C1828 1.332 . S
C1824 C1825 1.386 . S
C1824 C1827 1.388 . S
C1825 C1824 1.386 . S
C1825 C1826 1.382 . S
C1825 H1851 0.950 . S
C1826 N1823 1.332 . S
C1826 C1825 1.382 . S
C1826 H1837 0.952 . S
C1827 C1824 1.388 . S
C1827 C1828 1.382 . S
C1827 H1852 0.950 . S
C1828 N1823 1.332 . S
C1828 C1827 1.382 . S
C1828 H1838 0.948 . S
N1829 Co1807 2.282 . S
N1829 C1833 1.332 . S
N1829 C1834 1.332 . S
C1830 C1831 1.388 . S
C1830 C1834 1.382 . S
C1830 H1853 0.950 . S
C1831 C1830 1.388 . S
C1831 C1832 1.386 . S
C1832 C1831 1.386 . S
C1832 C1833 1.382 . S
C1832 H1854 0.950 . S
C1833 N1829 1.332 . S
C1833 C1832 1.382 . S
C1833 H1835 0.952 . S
C1834 N1829 1.332 . S
C1834 C1830 1.382 . S
C1834 H1836 0.948 . S
H1835 C1833 0.952 . S
H1836 C1834 0.948 . S
H1837 C1826 0.952 . S
H1838 C1828 0.948 . S
C1839 C1805 1.395 . S
C1839 C1809 1.391 . S
C1840 C1802 1.389 . S
C1840 C1822 1.392 . S
C1841 C1812 1.392 . S
C1841 C1814 1.389 . S
C1842 C1817 1.395 . S
C1842 C1819 1.391 . S
H1843 C1803 0.951 . S
H1844 C1804 0.950 . S
H1845 C1810 0.949 . S
H1846 C1811 0.950 . S
H1847 C1815 0.951 . S
H1848 C1816 0.950 . S
H1849 C1820 0.949 . S
H1850 C1821 0.950 . S
H1851 C1825 0.950 . S
H1852 C1827 0.950 . S
H1853 C1830 0.950 . S
H1854 C1832 0.950 . S
C1855 C1856 1.443 . S
C1855 N1859 1.376 . S
C1855 C1893 1.389 . S
C1856 C1855 1.443 . S
C1856 C1857 1.340 . S
C1856 H1896 0.951 . S
C1857 C1856 1.340 . S
C1857 C1858 1.439 . S
C1857 H1897 0.950 . S
C1858 C1857 1.439 . S
C1858 N1859 1.374 . S
C1858 C1892 1.395 . S
N1859 C1855 1.376 . S
N1859 C1858 1.374 . S
N1859 Co1860 2.008 . S
Co1860 N1859 2.008 . S
Co1860 N1861 1.995 . S
Co1860 N1866 2.008 . S
Co1860 N1871 1.995 . S
Co1860 N1876 2.282 . S
Co1860 N1882 2.282 . S
N1861 Co1860 1.995 . S
N1861 C1862 1.376 . S
N1861 C1865 1.383 . S
C1862 N1861 1.376 . S
C1862 C1863 1.446 . S
C1862 C1892 1.391 . S
C1863 C1862 1.446 . S
C1863 C1864 1.339 . S
C1863 H1898 0.949 . S
C1864 C1863 1.339 . S
C1864 C1865 1.439 . S
C1864 H1899 0.950 . S
C1865 N1861 1.383 . S
C1865 C1864 1.439 . S
C1865 C1894 1.392 . S
N1866 Co1860 2.008 . S
N1866 C1867 1.376 . S
N1866 C1870 1.374 . S
C1867 N1866 1.376 . S
C1867 C1868 1.443 . S
C1867 C1894 1.389 . S
C1868 C1867 1.443 . S
C1868 C1869 1.340 . S
C1868 H1900 0.951 . S
C1869 C1868 1.340 . S
C1869 C1870 1.439 . S
C1869 H1901 0.950 . S
C1870 N1866 1.374 . S
C1870 C1869 1.439 . S
C1870 C1895 1.395 . S
N1871 Co1860 1.995 . S
N1871 C1872 1.376 . S
N1871 C1875 1.383 . S
C1872 N1871 1.376 . S
C1872 C1873 1.446 . S
C1872 C1895 1.391 . S
C1873 C1872 1.446 . S
C1873 C1874 1.339 . S
C1873 H1902 0.949 . S
C1874 C1873 1.339 . S
C1874 C1875 1.439 . S
C1874 H1903 0.950 . S
C1875 N1871 1.383 . S
C1875 C1874 1.439 . S
C1875 C1893 1.392 . S
N1876 Co1860 2.282 . S
N1876 C1879 1.332 . S
N1876 C1881 1.332 . S
C1877 C1878 1.386 . S
C1877 C1880 1.388 . S
C1878 C1877 1.386 . S
C1878 C1879 1.382 . S
C1878 H1904 0.950 . S
C1879 N1876 1.332 . S
C1879 C1878 1.382 . S
C1879 H1890 0.952 . S
C1880 C1877 1.388 . S
C1880 C1881 1.382 . S
C1880 H1905 0.950 . S
C1881 N1876 1.332 . S
C1881 C1880 1.382 . S
C1881 H1891 0.948 . S
N1882 Co1860 2.282 . S
N1882 C1886 1.332 . S
N1882 C1887 1.332 . S
C1883 C1884 1.388 . S
C1883 C1887 1.382 . S
C1883 H1906 0.950 . S
C1884 C1883 1.388 . S
C1884 C1885 1.386 . S
C1885 C1884 1.386 . S
C1885 C1886 1.382 . S
C1885 H1907 0.950 . S
C1886 N1882 1.332 . S
C1886 C1885 1.382 . S
C1886 H1888 0.952 . S
C1887 N1882 1.332 . S
C1887 C1883 1.382 . S
C1887 H1889 0.948 . S
H1888 C1886 0.952 . S
H1889 C1887 0.948 . S
H1890 C1879 0.952 . S
H1891 C1881 0.948 . S
C1892 C1858 1.395 . S
C1892 C1862 1.391 . S
C1893 C1855 1.389 . S
C1893 C1875 1.392 . S
C1894 C1865 1.392 . S
C1894 C1867 1.389 . S
C1895 C1870 1.395 . S
C1895 C1872 1.391 . S
H1896 C1856 0.951 . S
H1897 C1857 0.950 . S
H1898 C1863 0.949 . S
H1899 C1864 0.950 . S
H1900 C1868 0.951 . S
H1901 C1869 0.950 . S
H1902 C1873 0.949 . S
H1903 C1874 0.950 . S
H1904 C1878 0.950 . S
H1905 C1880 0.950 . S
H1906 C1883 0.950 . S
H1907 C1885 0.950 . S
C1908 C1909 1.443 . S
C1908 N1912 1.376 . S
C1908 C1946 1.389 . S
C1909 C1908 1.443 . S
C1909 C1910 1.340 . S
C1909 H1949 0.951 . S
C1910 C1909 1.340 . S
C1910 C1911 1.439 . S
C1910 H1950 0.950 . S
C1911 C1910 1.439 . S
C1911 N1912 1.374 . S
C1911 C1945 1.395 . S
N1912 C1908 1.376 . S
N1912 C1911 1.374 . S
N1912 Co1913 2.008 . S
Co1913 N1912 2.008 . S
Co1913 N1914 1.995 . S
Co1913 N1919 2.008 . S
Co1913 N1924 1.995 . S
Co1913 N1929 2.282 . S
Co1913 N1935 2.282 . S
N1914 Co1913 1.995 . S
N1914 C1915 1.376 . S
N1914 C1918 1.383 . S
C1915 N1914 1.376 . S
C1915 C1916 1.446 . S
C1915 C1945 1.391 . S
C1916 C1915 1.446 . S
C1916 C1917 1.339 . S
C1916 H1951 0.949 . S
C1917 C1916 1.339 . S
C1917 C1918 1.439 . S
C1917 H1952 0.950 . S
C1918 N1914 1.383 . S
C1918 C1917 1.439 . S
C1918 C1947 1.392 . S
N1919 Co1913 2.008 . S
N1919 C1920 1.376 . S
N1919 C1923 1.374 . S
C1920 N1919 1.376 . S
C1920 C1921 1.443 . S
C1920 C1947 1.389 . S
C1921 C1920 1.443 . S
C1921 C1922 1.340 . S
C1921 H1953 0.951 . S
C1922 C1921 1.340 . S
C1922 C1923 1.439 . S
C1922 H1954 0.950 . S
C1923 N1919 1.374 . S
C1923 C1922 1.439 . S
C1923 C1948 1.395 . S
N1924 Co1913 1.995 . S
N1924 C1925 1.376 . S
N1924 C1928 1.383 . S
C1925 N1924 1.376 . S
C1925 C1926 1.446 . S
C1925 C1948 1.391 . S
C1926 C1925 1.446 . S
C1926 C1927 1.339 . S
C1926 H1955 0.949 . S
C1927 C1926 1.339 . S
C1927 C1928 1.439 . S
C1927 H1956 0.950 . S
C1928 N1924 1.383 . S
C1928 C1927 1.439 . S
C1928 C1946 1.392 . S
N1929 Co1913 2.282 . S
N1929 C1932 1.332 . S
N1929 C1934 1.332 . S
C1930 C1931 1.386 . S
C1930 C1933 1.388 . S
C1931 C1930 1.386 . S
C1931 C1932 1.382 . S
C1931 H1957 0.950 . S
C1932 N1929 1.332 . S
C1932 C1931 1.382 . S
C1932 H1943 0.952 . S
C1933 C1930 1.388 . S
C1933 C1934 1.382 . S
C1933 H1958 0.950 . S
C1934 N1929 1.332 . S
C1934 C1933 1.382 . S
C1934 H1944 0.948 . S
N1935 Co1913 2.282 . S
N1935 C1939 1.332 . S
N1935 C1940 1.332 . S
C1936 C1937 1.388 . S
C1936 C1940 1.382 . S
C1936 H1959 0.950 . S
C1937 C1936 1.388 . S
C1937 C1938 1.386 . S
C1938 C1937 1.386 . S
C1938 C1939 1.382 . S
C1938 H1960 0.950 . S
C1939 N1935 1.332 . S
C1939 C1938 1.382 . S
C1939 H1941 0.952 . S
C1940 N1935 1.332 . S
C1940 C1936 1.382 . S
C1940 H1942 0.948 . S
H1941 C1939 0.952 . S
H1942 C1940 0.948 . S
H1943 C1932 0.952 . S
H1944 C1934 0.948 . S
C1945 C1911 1.395 . S
C1945 C1915 1.391 . S
C1946 C1908 1.389 . S
C1946 C1928 1.392 . S
C1947 C1918 1.392 . S
C1947 C1920 1.389 . S
C1948 C1923 1.395 . S
C1948 C1925 1.391 . S
H1949 C1909 0.951 . S
H1950 C1910 0.950 . S
H1951 C1916 0.949 . S
H1952 C1917 0.950 . S
H1953 C1921 0.951 . S
H1954 C1922 0.950 . S
H1955 C1926 0.949 . S
H1956 C1927 0.950 . S
H1957 C1931 0.950 . S
H1958 C1933 0.950 . S
H1959 C1936 0.950 . S
H1960 C1938 0.950 . S
C1961 C1962 1.443 . S
C1961 N1965 1.376 . S
C1961 C1999 1.389 . S
C1962 C1961 1.443 . S
C1962 C1963 1.340 . S
C1962 H2002 0.951 . S
C1963 C1962 1.340 . S
C1963 C1964 1.439 . S
C1963 H2003 0.950 . S
C1964 C1963 1.439 . S
C1964 N1965 1.374 . S
C1964 C1998 1.395 . S
N1965 C1961 1.376 . S
N1965 C1964 1.374 . S
N1965 Co1966 2.008 . S
Co1966 N1965 2.008 . S
Co1966 N1967 1.995 . S
Co1966 N1972 2.008 . S
Co1966 N1977 1.995 . S
Co1966 N1982 2.282 . S
Co1966 N1988 2.282 . S
N1967 Co1966 1.995 . S
N1967 C1968 1.376 . S
N1967 C1971 1.383 . S
C1968 N1967 1.376 . S
C1968 C1969 1.446 . S
C1968 C1998 1.391 . S
C1969 C1968 1.446 . S
C1969 C1970 1.339 . S
C1969 H2004 0.949 . S
C1970 C1969 1.339 . S
C1970 C1971 1.439 . S
C1970 H2005 0.950 . S
C1971 N1967 1.383 . S
C1971 C1970 1.439 . S
C1971 C2000 1.392 . S
N1972 Co1966 2.008 . S
N1972 C1973 1.376 . S
N1972 C1976 1.374 . S
C1973 N1972 1.376 . S
C1973 C1974 1.443 . S
C1973 C2000 1.389 . S
C1974 C1973 1.443 . S
C1974 C1975 1.340 . S
C1974 H2006 0.951 . S
C1975 C1974 1.340 . S
C1975 C1976 1.439 . S
C1975 H2007 0.950 . S
C1976 N1972 1.374 . S
C1976 C1975 1.439 . S
C1976 C2001 1.395 . S
N1977 Co1966 1.995 . S
N1977 C1978 1.376 . S
N1977 C1981 1.383 . S
C1978 N1977 1.376 . S
C1978 C1979 1.446 . S
C1978 C2001 1.391 . S
C1979 C1978 1.446 . S
C1979 C1980 1.339 . S
C1979 H2008 0.949 1_565 S
C1980 C1979 1.339 . S
C1980 C1981 1.439 . S
C1980 H2009 0.949 1_565 S
C1981 N1977 1.383 . S
C1981 C1980 1.439 . S
C1981 C1999 1.392 . S
N1982 Co1966 2.282 . S
N1982 C1985 1.332 . S
N1982 C1987 1.332 . S
C1983 C1984 1.386 . S
C1983 C1986 1.388 . S
C1984 C1983 1.386 . S
C1984 C1985 1.382 . S
C1984 H2010 0.950 . S
C1985 N1982 1.332 . S
C1985 C1984 1.382 . S
C1985 H1996 0.952 . S
C1986 C1983 1.388 . S
C1986 C1987 1.382 . S
C1986 H2011 0.950 . S
C1987 N1982 1.332 . S
C1987 C1986 1.382 . S
C1987 H1997 0.948 . S
N1988 Co1966 2.282 . S
N1988 C1992 1.332 . S
N1988 C1993 1.332 . S
C1989 C1990 1.388 . S
C1989 C1993 1.382 . S
C1989 H2012 0.950 . S
C1990 C1989 1.388 . S
C1990 C1991 1.386 . S
C1991 C1990 1.386 . S
C1991 C1992 1.382 . S
C1991 H2013 0.950 . S
C1992 N1988 1.332 . S
C1992 C1991 1.382 . S
C1992 H1994 0.952 . S
C1993 N1988 1.332 . S
C1993 C1989 1.382 . S
C1993 H1995 0.948 . S
H1994 C1992 0.952 . S
H1995 C1993 0.948 . S
H1996 C1985 0.952 . S
H1997 C1987 0.948 . S
C1998 C1964 1.395 . S
C1998 C1968 1.391 . S
C1999 C1961 1.389 . S
C1999 C1981 1.392 . S
C2000 C1971 1.392 . S
C2000 C1973 1.389 . S
C2001 C1976 1.395 . S
C2001 C1978 1.391 . S
H2002 C1962 0.951 . S
H2003 C1963 0.950 . S
H2004 C1969 0.949 . S
H2005 C1970 0.950 . S
H2006 C1974 0.951 . S
H2007 C1975 0.950 . S
H2008 C1979 0.949 1_545 S
H2009 C1980 0.949 1_545 S
H2010 C1984 0.950 . S
H2011 C1986 0.950 . S
H2012 C1989 0.950 . S
H2013 C1991 0.950 . S
C2014 C2015 1.443 . S
C2014 N2018 1.376 . S
C2014 C2052 1.389 . S
C2015 C2014 1.443 . S
C2015 C2016 1.340 . S
C2015 H2055 0.951 . S
C2016 C2015 1.340 . S
C2016 C2017 1.439 . S
C2016 H2056 0.950 . S
C2017 C2016 1.439 . S
C2017 N2018 1.374 . S
C2017 C2051 1.395 . S
N2018 C2014 1.376 . S
N2018 C2017 1.374 . S
N2018 Co2019 2.008 . S
Co2019 N2018 2.008 . S
Co2019 N2020 1.995 . S
Co2019 N2025 2.008 . S
Co2019 N2030 1.995 . S
Co2019 N2035 2.282 . S
Co2019 N2041 2.282 . S
N2020 Co2019 1.995 . S
N2020 C2021 1.376 . S
N2020 C2024 1.383 . S
C2021 N2020 1.376 . S
C2021 C2022 1.446 . S
C2021 C2051 1.391 . S
C2022 C2021 1.446 . S
C2022 C2023 1.339 . S
C2022 H2057 0.949 . S
C2023 C2022 1.339 . S
C2023 C2024 1.439 . S
C2023 H2058 0.950 . S
C2024 N2020 1.383 . S
C2024 C2023 1.439 . S
C2024 C2053 1.392 . S
N2025 Co2019 2.008 . S
N2025 C2026 1.376 . S
N2025 C2029 1.374 . S
C2026 N2025 1.376 . S
C2026 C2027 1.443 . S
C2026 C2053 1.389 . S
C2027 C2026 1.443 . S
C2027 C2028 1.340 . S
C2027 H2059 0.951 . S
C2028 C2027 1.340 . S
C2028 C2029 1.439 . S
C2028 H2060 0.950 . S
C2029 N2025 1.374 . S
C2029 C2028 1.439 . S
C2029 C2054 1.395 . S
N2030 Co2019 1.995 . S
N2030 C2031 1.376 . S
N2030 C2034 1.383 . S
C2031 N2030 1.376 . S
C2031 C2032 1.446 . S
C2031 C2054 1.391 . S
C2032 C2031 1.446 . S
C2032 C2033 1.339 . S
C2032 H2061 0.949 . S
C2033 C2032 1.339 . S
C2033 C2034 1.439 . S
C2033 H2062 0.950 . S
C2034 N2030 1.383 . S
C2034 C2033 1.439 . S
C2034 C2052 1.392 . S
N2035 Co2019 2.282 . S
N2035 C2038 1.332 . S
N2035 C2040 1.332 . S
C2036 C2037 1.386 . S
C2036 C2039 1.388 . S
C2037 C2036 1.386 . S
C2037 C2038 1.382 . S
C2037 H2063 0.950 . S
C2038 N2035 1.332 . S
C2038 C2037 1.382 . S
C2038 H2049 0.952 . S
C2039 C2036 1.388 . S
C2039 C2040 1.382 . S
C2039 H2064 0.950 . S
C2040 N2035 1.332 . S
C2040 C2039 1.382 . S
C2040 H2050 0.948 . S
N2041 Co2019 2.282 . S
N2041 C2045 1.332 . S
N2041 C2046 1.332 . S
C2042 C2043 1.388 . S
C2042 C2046 1.382 . S
C2042 H2065 0.950 . S
C2043 C2042 1.388 . S
C2043 C2044 1.386 . S
C2044 C2043 1.386 . S
C2044 C2045 1.382 . S
C2044 H2066 0.950 . S
C2045 N2041 1.332 . S
C2045 C2044 1.382 . S
C2045 H2047 0.952 . S
C2046 N2041 1.332 . S
C2046 C2042 1.382 . S
C2046 H2048 0.948 . S
H2047 C2045 0.952 . S
H2048 C2046 0.948 . S
H2049 C2038 0.952 . S
H2050 C2040 0.948 . S
C2051 C2017 1.395 . S
C2051 C2021 1.391 . S
C2052 C2014 1.389 . S
C2052 C2034 1.392 . S
C2053 C2024 1.392 . S
C2053 C2026 1.389 . S
C2054 C2029 1.395 . S
C2054 C2031 1.391 . S
H2055 C2015 0.951 . S
H2056 C2016 0.950 . S
H2057 C2022 0.949 . S
H2058 C2023 0.950 . S
H2059 C2027 0.951 . S
H2060 C2028 0.950 . S
H2061 C2032 0.949 . S
H2062 C2033 0.950 . S
H2063 C2037 0.950 . S
H2064 C2039 0.950 . S
H2065 C2042 0.950 . S
H2066 C2044 0.950 . S
C2067 C2068 1.443 . S
C2067 N2071 1.376 . S
C2067 C2105 1.389 . S
C2068 C2067 1.443 . S
C2068 C2069 1.340 . S
C2068 H2108 0.951 . S
C2069 C2068 1.340 . S
C2069 C2070 1.439 . S
C2069 H2109 0.950 . S
C2070 C2069 1.439 . S
C2070 N2071 1.374 . S
C2070 C2104 1.395 . S
N2071 C2067 1.376 . S
N2071 C2070 1.374 . S
N2071 Co2072 2.008 . S
Co2072 N2071 2.008 . S
Co2072 N2073 1.995 . S
Co2072 N2078 2.008 . S
Co2072 N2083 1.995 . S
Co2072 N2088 2.282 . S
Co2072 N2094 2.282 . S
N2073 Co2072 1.995 . S
N2073 C2074 1.376 . S
N2073 C2077 1.383 . S
C2074 N2073 1.376 . S
C2074 C2075 1.446 . S
C2074 C2104 1.391 . S
C2075 C2074 1.446 . S
C2075 C2076 1.339 . S
C2075 H2110 0.949 . S
C2076 C2075 1.339 . S
C2076 C2077 1.439 . S
C2076 H2111 0.950 . S
C2077 N2073 1.383 . S
C2077 C2076 1.439 . S
C2077 C2106 1.392 . S
N2078 Co2072 2.008 . S
N2078 C2079 1.376 . S
N2078 C2082 1.374 . S
C2079 N2078 1.376 . S
C2079 C2080 1.443 . S
C2079 C2106 1.389 . S
C2080 C2079 1.443 . S
C2080 C2081 1.340 . S
C2080 H2112 0.951 . S
C2081 C2080 1.340 . S
C2081 C2082 1.439 . S
C2081 H2113 0.950 . S
C2082 N2078 1.374 . S
C2082 C2081 1.439 . S
C2082 C2107 1.395 . S
N2083 Co2072 1.995 . S
N2083 C2084 1.376 . S
N2083 C2087 1.383 . S
C2084 N2083 1.376 . S
C2084 C2085 1.446 . S
C2084 C2107 1.391 . S
C2085 C2084 1.446 . S
C2085 C2086 1.339 . S
C2085 H2114 0.949 . S
C2086 C2085 1.339 . S
C2086 C2087 1.439 . S
C2086 H2115 0.950 . S
C2087 N2083 1.383 . S
C2087 C2086 1.439 . S
C2087 C2105 1.392 . S
N2088 Co2072 2.282 . S
N2088 C2091 1.332 . S
N2088 C2093 1.332 . S
C2089 C2090 1.386 . S
C2089 C2092 1.388 . S
C2090 C2089 1.386 . S
C2090 C2091 1.382 . S
C2090 H2116 0.950 . S
C2091 N2088 1.332 . S
C2091 C2090 1.382 . S
C2091 H2102 0.952 . S
C2092 C2089 1.388 . S
C2092 C2093 1.382 . S
C2092 H2117 0.950 . S
C2093 N2088 1.332 . S
C2093 C2092 1.382 . S
C2093 H2103 0.948 . S
N2094 Co2072 2.282 . S
N2094 C2098 1.332 . S
N2094 C2099 1.332 . S
C2095 C2096 1.388 . S
C2095 C2099 1.382 . S
C2095 H2118 0.950 . S
C2096 C2095 1.388 . S
C2096 C2097 1.386 . S
C2097 C2096 1.386 . S
C2097 C2098 1.382 . S
C2097 H2119 0.950 . S
C2098 N2094 1.332 . S
C2098 C2097 1.382 . S
C2098 H2100 0.952 . S
C2099 N2094 1.332 . S
C2099 C2095 1.382 . S
C2099 H2101 0.948 . S
H2100 C2098 0.952 . S
H2101 C2099 0.948 . S
H2102 C2091 0.952 . S
H2103 C2093 0.948 . S
C2104 C2070 1.395 . S
C2104 C2074 1.391 . S
C2105 C2067 1.389 . S
C2105 C2087 1.392 . S
C2106 C2077 1.392 . S
C2106 C2079 1.389 . S
C2107 C2082 1.395 . S
C2107 C2084 1.391 . S
H2108 C2068 0.951 . S
H2109 C2069 0.950 . S
H2110 C2075 0.949 . S
H2111 C2076 0.950 . S
H2112 C2080 0.951 . S
H2113 C2081 0.950 . S
H2114 C2085 0.949 . S
H2115 C2086 0.950 . S
H2116 C2090 0.950 . S
H2117 C2092 0.950 . S
H2118 C2095 0.950 . S
H2119 C2097 0.950 . S
C2120 C2121 1.443 . S
C2120 N2124 1.376 . S
C2120 C2158 1.389 . S
C2121 C2120 1.443 . S
C2121 C2122 1.340 . S
C2121 H2161 0.951 . S
C2122 C2121 1.340 . S
C2122 C2123 1.439 . S
C2122 H2162 0.950 . S
C2123 C2122 1.439 . S
C2123 N2124 1.374 . S
C2123 C2157 1.395 . S
N2124 C2120 1.376 . S
N2124 C2123 1.374 . S
N2124 Co2125 2.008 . S
Co2125 N2124 2.008 . S
Co2125 N2126 1.995 . S
Co2125 N2131 2.008 . S
Co2125 N2136 1.995 . S
Co2125 N2141 2.282 . S
Co2125 N2147 2.282 . S
N2126 Co2125 1.995 . S
N2126 C2127 1.376 . S
N2126 C2130 1.383 . S
C2127 N2126 1.376 . S
C2127 C2128 1.446 . S
C2127 C2157 1.391 . S
C2128 C2127 1.446 . S
C2128 C2129 1.339 . S
C2128 H2163 0.949 . S
C2129 C2128 1.339 . S
C2129 C2130 1.439 . S
C2129 H2164 0.950 . S
C2130 N2126 1.383 . S
C2130 C2129 1.439 . S
C2130 C2159 1.392 . S
N2131 Co2125 2.008 . S
N2131 C2132 1.376 . S
N2131 C2135 1.374 . S
C2132 N2131 1.376 . S
C2132 C2133 1.443 . S
C2132 C2159 1.389 . S
C2133 C2132 1.443 . S
C2133 C2134 1.340 . S
C2133 H2165 0.951 . S
C2134 C2133 1.340 . S
C2134 C2135 1.439 . S
C2134 H2166 0.950 . S
C2135 N2131 1.374 . S
C2135 C2134 1.439 . S
C2135 C2160 1.395 . S
N2136 Co2125 1.995 . S
N2136 C2137 1.376 . S
N2136 C2140 1.383 . S
C2137 N2136 1.376 . S
C2137 C2138 1.446 . S
C2137 C2160 1.391 . S
C2138 C2137 1.446 . S
C2138 C2139 1.339 . S
C2138 H2167 0.949 . S
C2139 C2138 1.339 . S
C2139 C2140 1.439 . S
C2139 H2168 0.950 . S
C2140 N2136 1.383 . S
C2140 C2139 1.439 . S
C2140 C2158 1.392 . S
N2141 Co2125 2.282 . S
N2141 C2144 1.332 . S
N2141 C2146 1.332 . S
C2142 C2143 1.386 . S
C2142 C2145 1.388 . S
C2143 C2142 1.386 . S
C2143 C2144 1.382 . S
C2143 H2169 0.950 . S
C2144 N2141 1.332 . S
C2144 C2143 1.382 . S
C2144 H2155 0.952 . S
C2145 C2142 1.388 . S
C2145 C2146 1.382 . S
C2145 H2170 0.950 . S
C2146 N2141 1.332 . S
C2146 C2145 1.382 . S
C2146 H2156 0.948 . S
N2147 Co2125 2.282 . S
N2147 C2151 1.332 . S
N2147 C2152 1.332 . S
C2148 C2149 1.388 . S
C2148 C2152 1.382 . S
C2148 H2171 0.950 . S
C2149 C2148 1.388 . S
C2149 C2150 1.386 . S
C2150 C2149 1.386 . S
C2150 C2151 1.382 . S
C2150 H2172 0.950 . S
C2151 N2147 1.332 . S
C2151 C2150 1.382 . S
C2151 H2153 0.952 . S
C2152 N2147 1.332 . S
C2152 C2148 1.382 . S
C2152 H2154 0.948 . S
H2153 C2151 0.952 . S
H2154 C2152 0.948 . S
H2155 C2144 0.952 . S
H2156 C2146 0.948 . S
C2157 C2123 1.395 . S
C2157 C2127 1.391 . S
C2158 C2120 1.389 . S
C2158 C2140 1.392 . S
C2159 C2130 1.392 . S
C2159 C2132 1.389 . S
C2160 C2135 1.395 . S
C2160 C2137 1.391 . S
H2161 C2121 0.951 . S
H2162 C2122 0.950 . S
H2163 C2128 0.949 . S
H2164 C2129 0.950 . S
H2165 C2133 0.951 . S
H2166 C2134 0.950 . S
H2167 C2138 0.949 . S
H2168 C2139 0.950 . S
H2169 C2143 0.950 . S
H2170 C2145 0.950 . S
H2171 C2148 0.950 . S
H2172 C2150 0.950 . S
C2173 C2174 1.443 . S
C2173 N2177 1.376 . S
C2173 C2211 1.389 . S
C2174 C2173 1.443 . S
C2174 C2175 1.340 . S
C2174 H2214 0.951 . S
C2175 C2174 1.340 . S
C2175 C2176 1.439 . S
C2175 H2215 0.950 . S
C2176 C2175 1.439 . S
C2176 N2177 1.374 . S
C2176 C2210 1.395 . S
N2177 C2173 1.376 . S
N2177 C2176 1.374 . S
N2177 Co2178 2.008 . S
Co2178 N2177 2.008 . S
Co2178 N2179 1.995 . S
Co2178 N2184 2.008 . S
Co2178 N2189 1.995 . S
Co2178 N2194 2.282 . S
Co2178 N2200 2.282 . S
N2179 Co2178 1.995 . S
N2179 C2180 1.376 . S
N2179 C2183 1.383 . S
C2180 N2179 1.376 . S
C2180 C2181 1.446 . S
C2180 C2210 1.391 . S
C2181 C2180 1.446 . S
C2181 C2182 1.339 . S
C2181 H2216 0.949 . S
C2182 C2181 1.339 . S
C2182 C2183 1.439 . S
C2182 H2217 0.950 . S
C2183 N2179 1.383 . S
C2183 C2182 1.439 . S
C2183 C2212 1.392 . S
N2184 Co2178 2.008 . S
N2184 C2185 1.376 . S
N2184 C2188 1.374 . S
C2185 N2184 1.376 . S
C2185 C2186 1.443 . S
C2185 C2212 1.389 . S
C2186 C2185 1.443 . S
C2186 C2187 1.340 . S
C2186 H2218 0.951 . S
C2187 C2186 1.340 . S
C2187 C2188 1.439 . S
C2187 H2219 0.950 . S
C2188 N2184 1.374 . S
C2188 C2187 1.439 . S
C2188 C2213 1.395 . S
N2189 Co2178 1.995 . S
N2189 C2190 1.376 . S
N2189 C2193 1.383 . S
C2190 N2189 1.376 . S
C2190 C2191 1.446 . S
C2190 C2213 1.391 . S
C2191 C2190 1.446 . S
C2191 C2192 1.339 . S
C2191 H2220 0.949 . S
C2192 C2191 1.339 . S
C2192 C2193 1.439 . S
C2192 H2221 0.950 . S
C2193 N2189 1.383 . S
C2193 C2192 1.439 . S
C2193 C2211 1.392 . S
N2194 Co2178 2.282 . S
N2194 C2197 1.332 . S
N2194 C2199 1.332 . S
C2195 C2196 1.386 . S
C2195 C2198 1.388 . S
C2196 C2195 1.386 . S
C2196 C2197 1.382 . S
C2196 H2222 0.950 . S
C2197 N2194 1.332 . S
C2197 C2196 1.382 . S
C2197 H2208 0.952 . S
C2198 C2195 1.388 . S
C2198 C2199 1.382 . S
C2198 H2223 0.950 . S
C2199 N2194 1.332 . S
C2199 C2198 1.382 . S
C2199 H2209 0.948 . S
N2200 Co2178 2.282 . S
N2200 C2204 1.332 . S
N2200 C2205 1.332 . S
C2201 C2202 1.388 . S
C2201 C2205 1.382 . S
C2201 H2224 0.950 . S
C2202 C2201 1.388 . S
C2202 C2203 1.386 . S
C2203 C2202 1.386 . S
C2203 C2204 1.382 . S
C2203 H2225 0.950 . S
C2204 N2200 1.332 . S
C2204 C2203 1.382 . S
C2204 H2206 0.952 . S
C2205 N2200 1.332 . S
C2205 C2201 1.382 . S
C2205 H2207 0.948 . S
H2206 C2204 0.952 . S
H2207 C2205 0.948 . S
H2208 C2197 0.952 . S
H2209 C2199 0.948 . S
C2210 C2176 1.395 . S
C2210 C2180 1.391 . S
C2211 C2173 1.389 . S
C2211 C2193 1.392 . S
C2212 C2183 1.392 . S
C2212 C2185 1.389 . S
C2213 C2188 1.395 . S
C2213 C2190 1.391 . S
H2214 C2174 0.951 . S
H2215 C2175 0.950 . S
H2216 C2181 0.949 . S
H2217 C2182 0.950 . S
H2218 C2186 0.951 . S
H2219 C2187 0.950 . S
H2220 C2191 0.949 . S
H2221 C2192 0.950 . S
H2222 C2196 0.950 . S
H2223 C2198 0.950 . S
H2224 C2201 0.950 . S
H2225 C2203 0.950 . S
C2226 C2227 1.443 . S
C2226 N2230 1.376 . S
C2226 C2264 1.389 . S
C2227 C2226 1.443 . S
C2227 C2228 1.340 . S
C2227 H2267 0.951 . S
C2228 C2227 1.340 . S
C2228 C2229 1.439 . S
C2228 H2268 0.950 . S
C2229 C2228 1.439 . S
C2229 N2230 1.374 . S
C2229 C2263 1.395 . S
N2230 C2226 1.376 . S
N2230 C2229 1.374 . S
N2230 Co2231 2.008 1_565 S
Co2231 N2230 2.008 1_545 S
Co2231 N2232 1.995 . S
Co2231 N2237 2.008 . S
Co2231 N2242 1.995 1_545 S
Co2231 N2247 2.282 1_545 S
Co2231 N2253 2.282 . S
N2232 Co2231 1.995 . S
N2232 C2233 1.376 . S
N2232 C2236 1.383 . S
C2233 N2232 1.376 . S
C2233 C2234 1.446 . S
C2233 C2263 1.391 1_545 S
C2234 C2233 1.446 . S
C2234 C2235 1.339 . S
C2234 H2269 0.949 . S
C2235 C2234 1.339 . S
C2235 C2236 1.439 . S
C2235 H2270 0.950 . S
C2236 N2232 1.383 . S
C2236 C2235 1.439 . S
C2236 C2265 1.392 . S
N2237 Co2231 2.008 . S
N2237 C2238 1.376 . S
N2237 C2241 1.374 . S
C2238 N2237 1.376 . S
C2238 C2239 1.443 . S
C2238 C2265 1.389 . S
C2239 C2238 1.443 . S
C2239 C2240 1.340 . S
C2239 H2271 0.951 . S
C2240 C2239 1.340 . S
C2240 C2241 1.439 . S
C2240 H2272 0.950 . S
C2241 N2237 1.374 . S
C2241 C2240 1.439 . S
C2241 C2266 1.395 . S
N2242 Co2231 1.995 1_565 S
N2242 C2243 1.376 1_565 S
N2242 C2246 1.383 . S
C2243 N2242 1.376 1_545 S
C2243 C2244 1.446 1_545 S
C2243 C2266 1.391 . S
C2244 C2243 1.446 1_565 S
C2244 C2245 1.339 . S
C2244 H2273 0.949 . S
C2245 C2244 1.339 . S
C2245 C2246 1.439 . S
C2245 H2274 0.950 . S
C2246 N2242 1.383 . S
C2246 C2245 1.439 . S
C2246 C2264 1.392 . S
N2247 Co2231 2.282 1_565 S
N2247 C2250 1.332 . S
N2247 C2252 1.332 . S
C2248 C2249 1.386 . S
C2248 C2251 1.388 . S
C2249 C2248 1.386 . S
C2249 C2250 1.382 . S
C2249 H2275 0.950 . S
C2250 N2247 1.332 . S
C2250 C2249 1.382 . S
C2250 H2261 0.952 . S
C2251 C2248 1.388 . S
C2251 C2252 1.382 . S
C2251 H2276 0.950 . S
C2252 N2247 1.332 . S
C2252 C2251 1.382 . S
C2252 H2262 0.948 . S
N2253 Co2231 2.282 . S
N2253 C2257 1.332 . S
N2253 C2258 1.332 . S
C2254 C2255 1.388 . S
C2254 C2258 1.382 . S
C2254 H2277 0.950 . S
C2255 C2254 1.388 . S
C2255 C2256 1.386 . S
C2256 C2255 1.386 . S
C2256 C2257 1.382 . S
C2256 H2278 0.950 . S
C2257 N2253 1.332 . S
C2257 C2256 1.382 . S
C2257 H2259 0.952 . S
C2258 N2253 1.332 . S
C2258 C2254 1.382 . S
C2258 H2260 0.948 . S
H2259 C2257 0.952 . S
H2260 C2258 0.948 . S
H2261 C2250 0.952 . S
H2262 C2252 0.948 . S
C2263 C2229 1.395 . S
C2263 C2233 1.391 1_565 S
C2264 C2226 1.389 . S
C2264 C2246 1.392 . S
C2265 C2236 1.392 . S
C2265 C2238 1.389 . S
C2266 C2241 1.395 . S
C2266 C2243 1.391 . S
H2267 C2227 0.951 . S
H2268 C2228 0.950 . S
H2269 C2234 0.949 . S
H2270 C2235 0.950 . S
H2271 C2239 0.951 . S
H2272 C2240 0.950 . S
H2273 C2244 0.949 . S
H2274 C2245 0.950 . S
H2275 C2249 0.950 . S
H2276 C2251 0.950 . S
H2277 C2254 0.950 . S
H2278 C2256 0.950 . S
C2279 C2280 1.443 . S
C2279 N2283 1.376 . S
C2279 C2317 1.389 . S
C2280 C2279 1.443 . S
C2280 C2281 1.340 . S
C2280 H2320 0.951 . S
C2281 C2280 1.340 . S
C2281 C2282 1.439 . S
C2281 H2321 0.950 . S
C2282 C2281 1.439 . S
C2282 N2283 1.374 . S
C2282 C2316 1.395 . S
N2283 C2279 1.376 . S
N2283 C2282 1.374 . S
N2283 Co2284 2.008 . S
Co2284 N2283 2.008 . S
Co2284 N2285 1.995 . S
Co2284 N2290 2.008 . S
Co2284 N2295 1.995 . S
Co2284 N2300 2.282 . S
Co2284 N2306 2.282 . S
N2285 Co2284 1.995 . S
N2285 C2286 1.376 . S
N2285 C2289 1.383 . S
C2286 N2285 1.376 . S
C2286 C2287 1.446 . S
C2286 C2316 1.391 . S
C2287 C2286 1.446 . S
C2287 C2288 1.339 . S
C2287 H2322 0.949 . S
C2288 C2287 1.339 . S
C2288 C2289 1.439 . S
C2288 H2323 0.950 . S
C2289 N2285 1.383 . S
C2289 C2288 1.439 . S
C2289 C2318 1.392 . S
N2290 Co2284 2.008 . S
N2290 C2291 1.376 . S
N2290 C2294 1.374 . S
C2291 N2290 1.376 . S
C2291 C2292 1.443 . S
C2291 C2318 1.389 . S
C2292 C2291 1.443 . S
C2292 C2293 1.340 . S
C2292 H2324 0.951 . S
C2293 C2292 1.340 . S
C2293 C2294 1.439 . S
C2293 H2325 0.950 . S
C2294 N2290 1.374 . S
C2294 C2293 1.439 . S
C2294 C2319 1.395 . S
N2295 Co2284 1.995 . S
N2295 C2296 1.376 . S
N2295 C2299 1.383 . S
C2296 N2295 1.376 . S
C2296 C2297 1.446 . S
C2296 C2319 1.391 . S
C2297 C2296 1.446 . S
C2297 C2298 1.339 . S
C2297 H2326 0.949 . S
C2298 C2297 1.339 . S
C2298 C2299 1.439 . S
C2298 H2327 0.950 . S
C2299 N2295 1.383 . S
C2299 C2298 1.439 . S
C2299 C2317 1.392 . S
N2300 Co2284 2.282 . S
N2300 C2303 1.332 . S
N2300 C2305 1.332 . S
C2301 C2302 1.386 . S
C2301 C2304 1.388 . S
C2302 C2301 1.386 . S
C2302 C2303 1.382 . S
C2302 H2328 0.950 . S
C2303 N2300 1.332 . S
C2303 C2302 1.382 . S
C2303 H2314 0.952 . S
C2304 C2301 1.388 . S
C2304 C2305 1.382 . S
C2304 H2329 0.950 . S
C2305 N2300 1.332 . S
C2305 C2304 1.382 . S
C2305 H2315 0.948 . S
N2306 Co2284 2.282 . S
N2306 C2310 1.332 . S
N2306 C2311 1.332 . S
C2307 C2308 1.388 . S
C2307 C2311 1.382 . S
C2307 H2330 0.950 . S
C2308 C2307 1.388 . S
C2308 C2309 1.386 . S
C2309 C2308 1.386 . S
C2309 C2310 1.382 . S
C2309 H2331 0.950 . S
C2310 N2306 1.332 . S
C2310 C2309 1.382 . S
C2310 H2312 0.952 . S
C2311 N2306 1.332 . S
C2311 C2307 1.382 . S
C2311 H2313 0.948 . S
H2312 C2310 0.952 . S
H2313 C2311 0.948 . S
H2314 C2303 0.952 . S
H2315 C2305 0.948 . S
C2316 C2282 1.395 . S
C2316 C2286 1.391 . S
C2317 C2279 1.389 . S
C2317 C2299 1.392 . S
C2318 C2289 1.392 . S
C2318 C2291 1.389 . S
C2319 C2294 1.395 . S
C2319 C2296 1.391 . S
H2320 C2280 0.951 . S
H2321 C2281 0.950 . S
H2322 C2287 0.949 . S
H2323 C2288 0.950 . S
H2324 C2292 0.951 . S
H2325 C2293 0.950 . S
H2326 C2297 0.949 . S
H2327 C2298 0.950 . S
H2328 C2302 0.950 . S
H2329 C2304 0.950 . S
H2330 C2307 0.950 . S
H2331 C2309 0.950 . S
C2332 C2333 1.443 . S
C2332 N2336 1.376 . S
C2332 C2370 1.389 . S
C2333 C2332 1.443 . S
C2333 C2334 1.340 . S
C2333 H2373 0.951 . S
C2334 C2333 1.340 . S
C2334 C2335 1.439 . S
C2334 H2374 0.950 . S
C2335 C2334 1.439 . S
C2335 N2336 1.374 . S
C2335 C2369 1.395 . S
N2336 C2332 1.376 . S
N2336 C2335 1.374 . S
N2336 Co2337 2.008 1_545 S
Co2337 N2336 2.008 1_565 S
Co2337 N2338 1.995 . S
Co2337 N2343 2.008 . S
Co2337 N2348 1.995 1_565 S
Co2337 N2353 2.282 1_565 S
Co2337 N2359 2.282 . S
N2338 Co2337 1.995 . S
N2338 C2339 1.376 . S
N2338 C2342 1.383 . S
C2339 N2338 1.376 . S
C2339 C2340 1.446 . S
C2339 C2369 1.391 1_565 S
C2340 C2339 1.446 . S
C2340 C2341 1.339 . S
C2340 H2375 0.949 . S
C2341 C2340 1.339 . S
C2341 C2342 1.439 . S
C2341 H2376 0.950 . S
C2342 N2338 1.383 . S
C2342 C2341 1.439 . S
C2342 C2371 1.392 . S
N2343 Co2337 2.008 . S
N2343 C2344 1.376 . S
N2343 C2347 1.374 . S
C2344 N2343 1.376 . S
C2344 C2345 1.443 . S
C2344 C2371 1.389 . S
C2345 C2344 1.443 . S
C2345 C2346 1.340 . S
C2345 H2377 0.951 . S
C2346 C2345 1.340 . S
C2346 C2347 1.439 . S
C2346 H2378 0.950 . S
C2347 N2343 1.374 . S
C2347 C2346 1.439 . S
C2347 C2372 1.395 . S
N2348 Co2337 1.995 1_545 S
N2348 C2349 1.376 1_545 S
N2348 C2352 1.383 . S
C2349 N2348 1.376 1_565 S
C2349 C2350 1.446 1_565 S
C2349 C2372 1.391 . S
C2350 C2349 1.446 1_545 S
C2350 C2351 1.339 . S
C2350 H2379 0.949 1_455 S
C2351 C2350 1.339 . S
C2351 C2352 1.439 . S
C2351 H2380 0.951 1_455 S
C2352 N2348 1.383 . S
C2352 C2351 1.439 . S
C2352 C2370 1.392 . S
N2353 Co2337 2.282 1_545 S
N2353 C2356 1.332 . S
N2353 C2358 1.332 . S
C2354 C2355 1.386 . S
C2354 C2357 1.388 . S
C2355 C2354 1.386 . S
C2355 C2356 1.382 . S
C2355 H2381 0.950 . S
C2356 N2353 1.332 . S
C2356 C2355 1.382 . S
C2356 H2367 0.952 . S
C2357 C2354 1.388 . S
C2357 C2358 1.382 . S
C2357 H2382 0.950 . S
C2358 N2353 1.332 . S
C2358 C2357 1.382 . S
C2358 H2368 0.948 . S
N2359 Co2337 2.282 . S
N2359 C2363 1.332 . S
N2359 C2364 1.332 . S
C2360 C2361 1.388 . S
C2360 C2364 1.382 . S
C2360 H2383 0.950 . S
C2361 C2360 1.388 . S
C2361 C2362 1.386 . S
C2362 C2361 1.386 . S
C2362 C2363 1.382 . S
C2362 H2384 0.950 . S
C2363 N2359 1.332 . S
C2363 C2362 1.382 . S
C2363 H2365 0.952 . S
C2364 N2359 1.332 . S
C2364 C2360 1.382 . S
C2364 H2366 0.948 . S
H2365 C2363 0.952 . S
H2366 C2364 0.948 . S
H2367 C2356 0.952 . S
H2368 C2358 0.948 . S
C2369 C2335 1.395 . S
C2369 C2339 1.391 1_545 S
C2370 C2332 1.389 . S
C2370 C2352 1.392 . S
C2371 C2342 1.392 . S
C2371 C2344 1.389 . S
C2372 C2347 1.395 . S
C2372 C2349 1.391 . S
H2373 C2333 0.951 . S
H2374 C2334 0.950 . S
H2375 C2340 0.949 . S
H2376 C2341 0.950 . S
H2377 C2345 0.951 . S
H2378 C2346 0.950 . S
H2379 C2350 0.949 1_655 S
H2380 C2351 0.951 1_655 S
H2381 C2355 0.950 . S
H2382 C2357 0.950 . S
H2383 C2360 0.950 . S
H2384 C2362 0.950 . S
C2385 C2386 1.443 . S
C2385 N2389 1.376 . S
C2385 C2423 1.389 . S
C2386 C2385 1.443 . S
C2386 C2387 1.340 . S
C2386 H2426 0.951 . S
C2387 C2386 1.340 . S
C2387 C2388 1.439 . S
C2387 H2427 0.950 . S
C2388 C2387 1.439 . S
C2388 N2389 1.374 . S
C2388 C2422 1.395 . S
N2389 C2385 1.376 . S
N2389 C2388 1.374 . S
N2389 Co2390 2.008 . S
Co2390 N2389 2.008 . S
Co2390 N2391 1.995 . S
Co2390 N2396 2.008 . S
Co2390 N2401 1.995 . S
Co2390 N2406 2.282 . S
Co2390 N2412 2.282 . S
N2391 Co2390 1.995 . S
N2391 C2392 1.376 . S
N2391 C2395 1.383 . S
C2392 N2391 1.376 . S
C2392 C2393 1.446 . S
C2392 C2422 1.391 . S
C2393 C2392 1.446 . S
C2393 C2394 1.339 . S
C2393 H2428 0.949 . S
C2394 C2393 1.339 . S
C2394 C2395 1.439 . S
C2394 H2429 0.950 . S
C2395 N2391 1.383 . S
C2395 C2394 1.439 . S
C2395 C2424 1.392 . S
N2396 Co2390 2.008 . S
N2396 C2397 1.376 . S
N2396 C2400 1.374 . S
C2397 N2396 1.376 . S
C2397 C2398 1.443 . S
C2397 C2424 1.389 . S
C2398 C2397 1.443 . S
C2398 C2399 1.340 . S
C2398 H2430 0.951 . S
C2399 C2398 1.340 . S
C2399 C2400 1.439 . S
C2399 H2431 0.950 . S
C2400 N2396 1.374 . S
C2400 C2399 1.439 . S
C2400 C2425 1.395 . S
N2401 Co2390 1.995 . S
N2401 C2402 1.376 . S
N2401 C2405 1.383 . S
C2402 N2401 1.376 . S
C2402 C2403 1.446 . S
C2402 C2425 1.391 . S
C2403 C2402 1.446 . S
C2403 C2404 1.339 . S
C2403 H2432 0.949 . S
C2404 C2403 1.339 . S
C2404 C2405 1.439 . S
C2404 H2433 0.950 . S
C2405 N2401 1.383 . S
C2405 C2404 1.439 . S
C2405 C2423 1.392 . S
N2406 Co2390 2.282 . S
N2406 C2409 1.332 . S
N2406 C2411 1.332 . S
C2407 C2408 1.386 . S
C2407 C2410 1.388 . S
C2408 C2407 1.386 . S
C2408 C2409 1.382 . S
C2408 H2434 0.950 . S
C2409 N2406 1.332 . S
C2409 C2408 1.382 . S
C2409 H2420 0.952 . S
C2410 C2407 1.388 . S
C2410 C2411 1.382 . S
C2410 H2435 0.950 . S
C2411 N2406 1.332 . S
C2411 C2410 1.382 . S
C2411 H2421 0.948 . S
N2412 Co2390 2.282 . S
N2412 C2416 1.332 . S
N2412 C2417 1.332 . S
C2413 C2414 1.388 . S
C2413 C2417 1.382 . S
C2413 H2436 0.950 . S
C2414 C2413 1.388 . S
C2414 C2415 1.386 . S
C2415 C2414 1.386 . S
C2415 C2416 1.382 . S
C2415 H2437 0.950 . S
C2416 N2412 1.332 . S
C2416 C2415 1.382 . S
C2416 H2418 0.952 . S
C2417 N2412 1.332 . S
C2417 C2413 1.382 . S
C2417 H2419 0.948 . S
H2418 C2416 0.952 . S
H2419 C2417 0.948 . S
H2420 C2409 0.952 . S
H2421 C2411 0.948 . S
C2422 C2388 1.395 . S
C2422 C2392 1.391 . S
C2423 C2385 1.389 . S
C2423 C2405 1.392 . S
C2424 C2395 1.392 . S
C2424 C2397 1.389 . S
C2425 C2400 1.395 . S
C2425 C2402 1.391 . S
H2426 C2386 0.951 . S
H2427 C2387 0.950 . S
H2428 C2393 0.949 . S
H2429 C2394 0.950 . S
H2430 C2398 0.951 . S
H2431 C2399 0.950 . S
H2432 C2403 0.949 . S
H2433 C2404 0.950 . S
H2434 C2408 0.950 . S
H2435 C2410 0.950 . S
H2436 C2413 0.950 . S
H2437 C2415 0.950 . S
C2438 C2439 1.443 . S
C2438 N2442 1.376 . S
C2438 C2476 1.389 . S
C2439 C2438 1.443 . S
C2439 C2440 1.340 . S
C2439 H2479 0.951 . S
C2440 C2439 1.340 . S
C2440 C2441 1.439 . S
C2440 H2480 0.950 . S
C2441 C2440 1.439 . S
C2441 N2442 1.374 . S
C2441 C2475 1.395 . S
N2442 C2438 1.376 . S
N2442 C2441 1.374 . S
N2442 Co2443 2.008 1_545 S
Co2443 N2442 2.008 1_565 S
Co2443 N2444 1.995 . S
Co2443 N2449 2.008 . S
Co2443 N2454 1.995 1_565 S
Co2443 N2459 2.282 1_565 S
Co2443 N2465 2.282 . S
N2444 Co2443 1.995 . S
N2444 C2445 1.376 . S
N2444 C2448 1.383 . S
C2445 N2444 1.376 . S
C2445 C2446 1.446 . S
C2445 C2475 1.391 1_565 S
C2446 C2445 1.446 . S
C2446 C2447 1.339 . S
C2446 H2481 0.949 . S
C2447 C2446 1.339 . S
C2447 C2448 1.439 . S
C2447 H2482 0.950 . S
C2448 N2444 1.383 . S
C2448 C2447 1.439 . S
C2448 C2477 1.392 . S
N2449 Co2443 2.008 . S
N2449 C2450 1.376 . S
N2449 C2453 1.374 . S
C2450 N2449 1.376 . S
C2450 C2451 1.443 . S
C2450 C2477 1.389 . S
C2451 C2450 1.443 . S
C2451 C2452 1.340 . S
C2451 H2483 0.951 . S
C2452 C2451 1.340 . S
C2452 C2453 1.439 . S
C2452 H2484 0.950 . S
C2453 N2449 1.374 . S
C2453 C2452 1.439 . S
C2453 C2478 1.395 . S
N2454 Co2443 1.995 1_545 S
N2454 C2455 1.376 1_545 S
N2454 C2458 1.383 . S
C2455 N2454 1.376 1_565 S
C2455 C2456 1.446 1_565 S
C2455 C2478 1.391 . S
C2456 C2455 1.446 1_545 S
C2456 C2457 1.339 . S
C2456 H2485 0.949 . S
C2457 C2456 1.339 . S
C2457 C2458 1.439 . S
C2457 H2486 0.950 . S
C2458 N2454 1.383 . S
C2458 C2457 1.439 . S
C2458 C2476 1.392 . S
N2459 Co2443 2.282 1_545 S
N2459 C2462 1.332 . S
N2459 C2464 1.332 . S
C2460 C2461 1.386 . S
C2460 C2463 1.388 . S
C2461 C2460 1.386 . S
C2461 C2462 1.382 . S
C2461 H2487 0.950 . S
C2462 N2459 1.332 . S
C2462 C2461 1.382 . S
C2462 H2473 0.952 . S
C2463 C2460 1.388 . S
C2463 C2464 1.382 . S
C2463 H2488 0.950 . S
C2464 N2459 1.332 . S
C2464 C2463 1.382 . S
C2464 H2474 0.948 . S
N2465 Co2443 2.282 . S
N2465 C2469 1.332 . S
N2465 C2470 1.332 . S
C2466 C2467 1.388 . S
C2466 C2470 1.382 . S
C2466 H2489 0.950 . S
C2467 C2466 1.388 . S
C2467 C2468 1.386 . S
C2468 C2467 1.386 . S
C2468 C2469 1.382 . S
C2468 H2490 0.950 . S
C2469 N2465 1.332 . S
C2469 C2468 1.382 . S
C2469 H2471 0.952 . S
C2470 N2465 1.332 . S
C2470 C2466 1.382 . S
C2470 H2472 0.948 . S
H2471 C2469 0.952 . S
H2472 C2470 0.948 . S
H2473 C2462 0.952 . S
H2474 C2464 0.948 . S
C2475 C2441 1.395 . S
C2475 C2445 1.391 1_545 S
C2476 C2438 1.389 . S
C2476 C2458 1.392 . S
C2477 C2448 1.392 . S
C2477 C2450 1.389 . S
C2478 C2453 1.395 . S
C2478 C2455 1.391 . S
H2479 C2439 0.951 . S
H2480 C2440 0.950 . S
H2481 C2446 0.949 . S
H2482 C2447 0.950 . S
H2483 C2451 0.951 . S
H2484 C2452 0.950 . S
H2485 C2456 0.949 . S
H2486 C2457 0.950 . S
H2487 C2461 0.950 . S
H2488 C2463 0.950 . S
H2489 C2466 0.950 . S
H2490 C2468 0.950 . S
C2491 C2492 1.443 . S
C2491 N2495 1.376 . S
C2491 C2529 1.389 . S
C2492 C2491 1.443 . S
C2492 C2493 1.340 . S
C2492 H2532 0.951 . S
C2493 C2492 1.340 . S
C2493 C2494 1.439 . S
C2493 H2533 0.950 . S
C2494 C2493 1.439 . S
C2494 N2495 1.374 . S
C2494 C2528 1.395 . S
N2495 C2491 1.376 . S
N2495 C2494 1.374 . S
N2495 Co2496 2.008 . S
Co2496 N2495 2.008 . S
Co2496 N2497 1.995 . S
Co2496 N2502 2.008 . S
Co2496 N2507 1.995 . S
Co2496 N2512 2.282 . S
Co2496 N2518 2.282 . S
N2497 Co2496 1.995 . S
N2497 C2498 1.376 . S
N2497 C2501 1.383 . S
C2498 N2497 1.376 . S
C2498 C2499 1.446 . S
C2498 C2528 1.391 . S
C2499 C2498 1.446 . S
C2499 C2500 1.339 . S
C2499 H2534 0.949 . S
C2500 C2499 1.339 . S
C2500 C2501 1.439 . S
C2500 H2535 0.950 . S
C2501 N2497 1.383 . S
C2501 C2500 1.439 . S
C2501 C2530 1.392 . S
N2502 Co2496 2.008 . S
N2502 C2503 1.376 . S
N2502 C2506 1.374 . S
C2503 N2502 1.376 . S
C2503 C2504 1.443 . S
C2503 C2530 1.389 . S
C2504 C2503 1.443 . S
C2504 C2505 1.340 . S
C2504 H2536 0.951 . S
C2505 C2504 1.340 . S
C2505 C2506 1.439 . S
C2505 H2537 0.950 . S
C2506 N2502 1.374 . S
C2506 C2505 1.439 . S
C2506 C2531 1.395 . S
N2507 Co2496 1.995 . S
N2507 C2508 1.376 . S
N2507 C2511 1.383 . S
C2508 N2507 1.376 . S
C2508 C2509 1.446 . S
C2508 C2531 1.391 . S
C2509 C2508 1.446 . S
C2509 C2510 1.339 . S
C2509 H2538 0.949 . S
C2510 C2509 1.339 . S
C2510 C2511 1.439 . S
C2510 H2539 0.950 . S
C2511 N2507 1.383 . S
C2511 C2510 1.439 . S
C2511 C2529 1.392 . S
N2512 Co2496 2.282 . S
N2512 C2515 1.332 . S
N2512 C2517 1.332 . S
C2513 C2514 1.386 . S
C2513 C2516 1.388 . S
C2514 C2513 1.386 . S
C2514 C2515 1.382 . S
C2514 H2540 0.950 . S
C2515 N2512 1.332 . S
C2515 C2514 1.382 . S
C2515 H2526 0.952 . S
C2516 C2513 1.388 . S
C2516 C2517 1.382 . S
C2516 H2541 0.950 . S
C2517 N2512 1.332 . S
C2517 C2516 1.382 . S
C2517 H2527 0.948 . S
N2518 Co2496 2.282 . S
N2518 C2522 1.332 . S
N2518 C2523 1.332 . S
C2519 C2520 1.388 . S
C2519 C2523 1.382 . S
C2519 H2542 0.950 . S
C2520 C2519 1.388 . S
C2520 C2521 1.386 . S
C2521 C2520 1.386 . S
C2521 C2522 1.382 . S
C2521 H2543 0.950 . S
C2522 N2518 1.332 . S
C2522 C2521 1.382 . S
C2522 H2524 0.952 . S
C2523 N2518 1.332 . S
C2523 C2519 1.382 . S
C2523 H2525 0.948 . S
H2524 C2522 0.952 . S
H2525 C2523 0.948 . S
H2526 C2515 0.952 . S
H2527 C2517 0.948 . S
C2528 C2494 1.395 . S
C2528 C2498 1.391 . S
C2529 C2491 1.389 . S
C2529 C2511 1.392 . S
C2530 C2501 1.392 . S
C2530 C2503 1.389 . S
C2531 C2506 1.395 . S
C2531 C2508 1.391 . S
H2532 C2492 0.951 . S
H2533 C2493 0.950 . S
H2534 C2499 0.949 . S
H2535 C2500 0.950 . S
H2536 C2504 0.951 . S
H2537 C2505 0.950 . S
H2538 C2509 0.949 . S
H2539 C2510 0.950 . S
H2540 C2514 0.950 . S
H2541 C2516 0.950 . S
H2542 C2519 0.950 . S
H2543 C2521 0.950 . S
C2544 C2545 1.369 . S
C2544 C2546 1.419 . S
C2544 H2548 0.930 . S
C2545 C2544 1.369 . S
C2545 C2554 1.429 . S
C2546 C2544 1.419 . S
C2546 C2547 1.363 . S
C2546 H2549 0.929 . S
C2547 C2546 1.363 . S
C2547 C2553 1.428 . S
H2548 C2544 0.930 . S
H2549 C2546 0.929 . S
S2550 N2551 1.613 . S
S2550 N2552 1.610 . S
N2551 S2550 1.613 . S
N2551 C2554 1.350 . S
N2552 S2550 1.610 . S
N2552 C2553 1.351 . S
C2553 C2547 1.428 . S
C2553 N2552 1.351 . S
C2553 C2554 1.434 . S
C2554 C2545 1.429 . S
C2554 N2551 1.350 . S
C2554 C2553 1.434 . S
C2555 C2556 1.369 . S
C2555 C2557 1.419 1_554 S
C2555 H2559 0.930 . S
C2556 C2555 1.369 . S
C2556 C2565 1.429 . S
C2557 C2555 1.419 1_556 S
C2557 C2558 1.363 . S
C2557 H2560 0.929 . S
C2558 C2557 1.363 . S
C2558 C2564 1.428 . S
H2559 C2555 0.930 . S
H2560 C2557 0.929 . S
S2561 N2562 1.613 . S
S2561 N2563 1.610 1_554 S
N2562 S2561 1.613 . S
N2562 C2565 1.350 . S
N2563 S2561 1.610 1_556 S
N2563 C2564 1.351 . S
C2564 C2558 1.428 . S
C2564 N2563 1.351 . S
C2564 C2565 1.434 1_556 S
C2565 C2556 1.429 . S
C2565 N2562 1.350 . S
C2565 C2564 1.434 1_554 S
C2566 C2567 1.369 . S
C2566 C2568 1.419 . S
C2566 H2570 0.930 . S
C2567 C2566 1.369 . S
C2567 C2576 1.429 . S
C2568 C2566 1.419 . S
C2568 C2569 1.363 . S
C2568 H2571 0.929 . S
C2569 C2568 1.363 . S
C2569 C2575 1.428 . S
H2570 C2566 0.930 . S
H2571 C2568 0.929 . S
S2572 N2573 1.613 . S
S2572 N2574 1.610 . S
N2573 S2572 1.613 . S
N2573 C2576 1.350 . S
N2574 S2572 1.610 . S
N2574 C2575 1.351 . S
C2575 C2569 1.428 . S
C2575 N2574 1.351 . S
C2575 C2576 1.434 . S
C2576 C2567 1.429 . S
C2576 N2573 1.350 . S
C2576 C2575 1.434 . S
C2577 C2578 1.369 . S
C2577 C2579 1.419 1_556 S
C2577 H2581 0.930 . S
C2578 C2577 1.369 . S
C2578 C2587 1.429 . S
C2579 C2577 1.419 1_554 S
C2579 C2580 1.363 . S
C2579 H2582 0.929 . S
C2580 C2579 1.363 . S
C2580 C2586 1.428 . S
H2581 C2577 0.930 . S
H2582 C2579 0.929 . S
S2583 N2584 1.613 . S
S2583 N2585 1.610 1_556 S
N2584 S2583 1.613 . S
N2584 C2587 1.350 . S
N2585 S2583 1.610 1_554 S
N2585 C2586 1.351 . S
C2586 C2580 1.428 . S
C2586 N2585 1.351 . S
C2586 C2587 1.434 1_554 S
C2587 C2578 1.429 . S
C2587 N2584 1.350 . S
C2587 C2586 1.434 1_556 S
C2588 C2589 1.369 . S
C2588 C2590 1.419 . S
C2588 H2592 0.930 . S
C2589 C2588 1.369 . S
C2589 C2598 1.429 . S
C2590 C2588 1.419 . S
C2590 C2591 1.363 . S
C2590 H2593 0.929 . S
C2591 C2590 1.363 . S
C2591 C2597 1.428 . S
H2592 C2588 0.930 . S
H2593 C2590 0.929 . S
S2594 N2595 1.613 . S
S2594 N2596 1.610 . S
N2595 S2594 1.613 . S
N2595 C2598 1.350 . S
N2596 S2594 1.610 . S
N2596 C2597 1.351 . S
C2597 C2591 1.428 . S
C2597 N2596 1.351 . S
C2597 C2598 1.434 . S
C2598 C2589 1.429 . S
C2598 N2595 1.350 . S
C2598 C2597 1.434 . S
C2599 C2600 1.369 . S
C2599 C2601 1.419 1_554 S
C2599 H2603 0.930 . S
C2600 C2599 1.369 . S
C2600 C2609 1.429 . S
C2601 C2599 1.419 1_556 S
C2601 C2602 1.363 . S
C2601 H2604 0.929 . S
C2602 C2601 1.363 . S
C2602 C2608 1.428 . S
H2603 C2599 0.930 . S
H2604 C2601 0.929 . S
S2605 N2606 1.613 . S
S2605 N2607 1.610 1_554 S
N2606 S2605 1.613 . S
N2606 C2609 1.350 . S
N2607 S2605 1.610 1_556 S
N2607 C2608 1.351 . S
C2608 C2602 1.428 . S
C2608 N2607 1.351 . S
C2608 C2609 1.434 1_556 S
C2609 C2600 1.429 . S
C2609 N2606 1.350 . S
C2609 C2608 1.434 1_554 S
C2610 C2611 1.369 . S
C2610 C2612 1.419 . S
C2610 H2614 0.930 . S
C2611 C2610 1.369 . S
C2611 C2620 1.429 . S
C2612 C2610 1.419 . S
C2612 C2613 1.363 . S
C2612 H2615 0.929 . S
C2613 C2612 1.363 . S
C2613 C2619 1.428 . S
H2614 C2610 0.930 . S
H2615 C2612 0.929 . S
S2616 N2617 1.613 . S
S2616 N2618 1.610 . S
N2617 S2616 1.613 . S
N2617 C2620 1.350 . S
N2618 S2616 1.610 . S
N2618 C2619 1.351 . S
C2619 C2613 1.428 . S
C2619 N2618 1.351 . S
C2619 C2620 1.434 . S
C2620 C2611 1.429 . S
C2620 N2617 1.350 . S
C2620 C2619 1.434 . S
C2621 C2622 1.369 . S
C2621 C2623 1.419 1_556 S
C2621 H2625 0.930 . S
C2622 C2621 1.369 . S
C2622 C2631 1.429 . S
C2623 C2621 1.419 1_554 S
C2623 C2624 1.363 . S
C2623 H2626 0.929 . S
C2624 C2623 1.363 . S
C2624 C2630 1.428 . S
H2625 C2621 0.930 . S
H2626 C2623 0.929 . S
S2627 N2628 1.613 1_554 S
S2627 N2629 1.610 . S
N2628 S2627 1.613 1_556 S
N2628 C2631 1.350 . S
N2629 S2627 1.610 . S
N2629 C2630 1.351 . S
C2630 C2624 1.428 . S
C2630 N2629 1.351 . S
C2630 C2631 1.434 1_554 S
C2631 C2622 1.429 . S
C2631 N2628 1.350 . S
C2631 C2630 1.434 1_556 S
C2632 C2633 1.369 . S
C2632 C2634 1.419 . S
C2632 H2636 0.930 . S
C2633 C2632 1.369 . S
C2633 C2642 1.429 . S
C2634 C2632 1.419 . S
C2634 C2635 1.363 . S
C2634 H2637 0.929 . S
C2635 C2634 1.363 . S
C2635 C2641 1.428 . S
H2636 C2632 0.930 . S
H2637 C2634 0.929 . S
S2638 N2639 1.613 . S
S2638 N2640 1.610 . S
N2639 S2638 1.613 . S
N2639 C2642 1.350 . S
N2640 S2638 1.610 . S
N2640 C2641 1.351 . S
C2641 C2635 1.428 . S
C2641 N2640 1.351 . S
C2641 C2642 1.434 . S
C2642 C2633 1.429 . S
C2642 N2639 1.350 . S
C2642 C2641 1.434 . S
C2643 C2644 1.369 . S
C2643 C2645 1.419 . S
C2643 H2647 0.930 . S
C2644 C2643 1.369 . S
C2644 C2653 1.429 . S
C2645 C2643 1.419 . S
C2645 C2646 1.363 . S
C2645 H2648 0.929 . S
C2646 C2645 1.363 . S
C2646 C2652 1.428 . S
H2647 C2643 0.930 . S
H2648 C2645 0.929 . S
S2649 N2650 1.613 . S
S2649 N2651 1.610 . S
N2650 S2649 1.613 . S
N2650 C2653 1.350 . S
N2651 S2649 1.610 . S
N2651 C2652 1.351 . S
C2652 C2646 1.428 . S
C2652 N2651 1.351 . S
C2652 C2653 1.434 . S
C2653 C2644 1.429 . S
C2653 N2650 1.350 . S
C2653 C2652 1.434 . S
C2654 C2655 1.369 . S
C2654 C2656 1.419 . S
C2654 H2658 0.930 . S
C2655 C2654 1.369 . S
C2655 C2664 1.429 . S
C2656 C2654 1.419 . S
C2656 C2657 1.363 . S
C2656 H2659 0.929 . S
C2657 C2656 1.363 . S
C2657 C2663 1.428 . S
H2658 C2654 0.930 . S
H2659 C2656 0.929 . S
S2660 N2661 1.613 . S
S2660 N2662 1.610 . S
N2661 S2660 1.613 . S
N2661 C2664 1.350 . S
N2662 S2660 1.610 . S
N2662 C2663 1.351 . S
C2663 C2657 1.428 . S
C2663 N2662 1.351 . S
C2663 C2664 1.434 . S
C2664 C2655 1.429 . S
C2664 N2661 1.350 . S
C2664 C2663 1.434 . S
C2665 C2666 1.369 . S
C2665 C2667 1.419 1_565 S
C2665 H2669 0.930 . S
C2666 C2665 1.369 . S
C2666 C2675 1.429 . S
C2667 C2665 1.419 1_545 S
C2667 C2668 1.363 . S
C2667 H2670 0.929 . S
C2668 C2667 1.363 . S
C2668 C2674 1.428 . S
H2669 C2665 0.930 . S
H2670 C2667 0.929 . S
S2671 N2672 1.613 1_554 S
S2671 N2673 1.610 1_564 S
N2672 S2671 1.613 1_556 S
N2672 C2675 1.350 . S
N2673 S2671 1.610 1_546 S
N2673 C2674 1.351 . S
C2674 C2668 1.428 . S
C2674 N2673 1.351 . S
C2674 C2675 1.434 1_545 S
C2675 C2666 1.429 . S
C2675 N2672 1.350 . S
C2675 C2674 1.434 1_565 S
C2676 C2677 1.369 . S
C2676 C2678 1.419 . S
C2676 H2680 0.930 . S
C2677 C2676 1.369 . S
C2677 C2686 1.429 . S
C2678 C2676 1.419 . S
C2678 C2679 1.363 . S
C2678 H2681 0.929 . S
C2679 C2678 1.363 . S
C2679 C2685 1.428 . S
H2680 C2676 0.930 . S
H2681 C2678 0.929 . S
S2682 N2683 1.613 . S
S2682 N2684 1.610 . S
N2683 S2682 1.613 . S
N2683 C2686 1.350 . S
N2684 S2682 1.610 . S
N2684 C2685 1.351 . S
C2685 C2679 1.428 . S
C2685 N2684 1.351 . S
C2685 C2686 1.434 . S
C2686 C2677 1.429 . S
C2686 N2683 1.350 . S
C2686 C2685 1.434 . S
C2687 C2688 1.369 . S
C2687 C2689 1.419 . S
C2687 H2691 0.930 . S
C2688 C2687 1.369 . S
C2688 C2697 1.429 . S
C2689 C2687 1.419 . S
C2689 C2690 1.363 . S
C2689 H2692 0.929 . S
C2690 C2689 1.363 . S
C2690 C2696 1.428 . S
H2691 C2687 0.930 . S
H2692 C2689 0.929 . S
S2693 N2694 1.613 . S
S2693 N2695 1.577 1_556 S
N2694 S2693 1.613 . S
N2694 C2697 1.350 1_556 S
N2695 S2693 1.577 1_554 S
N2695 C2696 1.391 . S
C2696 C2690 1.428 . S
C2696 N2695 1.391 . S
C2696 C2697 1.434 . S
C2697 C2688 1.429 . S
C2697 N2694 1.350 1_554 S
C2697 C2696 1.434 . S
C2698 C2699 1.369 . S
C2698 C2700 1.419 . S
C2698 H2702 0.930 . S
C2699 C2698 1.369 . S
C2699 C2708 1.429 . S
C2700 C2698 1.419 . S
C2700 C2701 1.363 . S
C2700 H2703 0.929 . S
C2701 C2700 1.363 . S
C2701 C2707 1.428 . S
H2702 C2698 0.930 . S
H2703 C2700 0.929 . S
S2704 N2705 1.613 . S
S2704 N2706 1.610 . S
N2705 S2704 1.613 . S
N2705 C2708 1.350 . S
N2706 S2704 1.610 . S
N2706 C2707 1.351 . S
C2707 C2701 1.428 . S
C2707 N2706 1.351 . S
C2707 C2708 1.434 . S
C2708 C2699 1.429 . S
C2708 N2705 1.350 . S
C2708 C2707 1.434 . S
C2709 C2710 1.369 . S
C2709 C2711 1.419 1_545 S
C2709 H2713 0.930 . S
C2710 C2709 1.369 . S
C2710 C2719 1.429 . S
C2711 C2709 1.419 1_565 S
C2711 C2712 1.363 . S
C2711 H2714 0.929 . S
C2712 C2711 1.363 . S
C2712 C2718 1.428 . S
H2713 C2709 0.930 . S
H2714 C2711 0.929 . S
S2715 N2716 1.613 . S
S2715 N2717 1.610 1_545 S
N2716 S2715 1.613 . S
N2716 C2719 1.350 . S
N2717 S2715 1.610 1_565 S
N2717 C2718 1.351 . S
C2718 C2712 1.428 . S
C2718 N2717 1.351 . S
C2718 C2719 1.434 1_565 S
C2719 C2710 1.429 . S
C2719 N2716 1.350 . S
C2719 C2718 1.434 1_545 S
C2720 C2721 1.369 . S
C2720 C2722 1.419 . S
C2720 H2724 0.930 . S
C2721 C2720 1.369 . S
C2721 C2730 1.429 . S
C2722 C2720 1.419 . S
C2722 C2723 1.363 . S
C2722 H2725 0.929 . S
C2723 C2722 1.363 . S
C2723 C2729 1.428 . S
H2724 C2720 0.930 . S
H2725 C2722 0.929 . S
S2726 N2727 1.613 . S
S2726 N2728 1.610 . S
N2727 S2726 1.613 . S
N2727 C2730 1.350 . S
N2728 S2726 1.610 . S
N2728 C2729 1.351 . S
C2729 C2723 1.428 . S
C2729 N2728 1.351 . S
C2729 C2730 1.434 . S
C2730 C2721 1.429 . S
C2730 N2727 1.350 . S
C2730 C2729 1.434 . S
C2731 C2732 1.369 . S
C2731 C2733 1.419 . S
C2731 H2735 0.930 . S
C2732 C2731 1.369 . S
C2732 C2741 1.429 . S
C2733 C2731 1.419 . S
C2733 C2734 1.363 . S
C2733 H2736 0.929 . S
C2734 C2733 1.363 . S
C2734 C2740 1.428 . S
H2735 C2731 0.930 . S
H2736 C2733 0.929 . S
S2737 N2738 1.613 . S
S2737 N2739 1.610 . S
N2738 S2737 1.613 . S
N2738 C2741 1.350 . S
N2739 S2737 1.610 . S
N2739 C2740 1.351 . S
C2740 C2734 1.428 . S
C2740 N2739 1.351 . S
C2740 C2741 1.434 . S
C2741 C2732 1.429 . S
C2741 N2738 1.350 . S
C2741 C2740 1.434 . S
C2742 C2743 1.369 . S
C2742 C2744 1.419 1_655 S
C2742 H2746 0.930 . S
C2743 C2742 1.369 . S
C2743 C2752 1.429 . S
C2744 C2742 1.419 1_455 S
C2744 C2745 1.363 . S
C2744 H2747 0.929 . S
C2745 C2744 1.363 . S
C2745 C2751 1.428 . S
H2746 C2742 0.930 . S
H2747 C2744 0.929 . S
S2748 N2749 1.613 1_455 S
S2748 N2750 1.610 . S
N2749 S2748 1.613 1_655 S
N2749 C2752 1.350 . S
N2750 S2748 1.610 . S
N2750 C2751 1.351 . S
C2751 C2745 1.428 . S
C2751 N2750 1.351 . S
C2751 C2752 1.434 1_455 S
C2752 C2743 1.429 . S
C2752 N2749 1.350 . S
C2752 C2751 1.434 1_655 S
C2753 C2754 1.369 . S
C2753 C2755 1.419 . S
C2753 H2757 0.930 . S
C2754 C2753 1.369 . S
C2754 C2763 1.429 . S
C2755 C2753 1.419 . S
C2755 C2756 1.363 . S
C2755 H2758 0.929 . S
C2756 C2755 1.363 . S
C2756 C2762 1.428 . S
H2757 C2753 0.930 . S
H2758 C2755 0.929 . S
S2759 N2760 1.613 . S
S2759 N2761 1.610 . S
N2760 S2759 1.613 . S
N2760 C2763 1.350 . S
N2761 S2759 1.610 . S
N2761 C2762 1.351 . S
C2762 C2756 1.428 . S
C2762 N2761 1.351 . S
C2762 C2763 1.434 . S
C2763 C2754 1.429 . S
C2763 N2760 1.350 . S
C2763 C2762 1.434 . S
C2764 C2765 1.369 . S
C2764 C2766 1.419 . S
C2764 H2768 0.930 . S
C2765 C2764 1.369 . S
C2765 C2774 1.429 . S
C2766 C2764 1.419 . S
C2766 C2767 1.363 . S
C2766 H2769 0.929 . S
C2767 C2766 1.363 . S
C2767 C2773 1.428 . S
H2768 C2764 0.930 . S
H2769 C2766 0.929 . S
S2770 N2771 1.613 . S
S2770 N2772 1.610 . S
N2771 S2770 1.613 . S
N2771 C2774 1.350 . S
N2772 S2770 1.610 . S
N2772 C2773 1.351 . S
C2773 C2767 1.428 . S
C2773 N2772 1.351 . S
C2773 C2774 1.434 . S
C2774 C2765 1.429 . S
C2774 N2771 1.350 . S
C2774 C2773 1.434 . S
C2775 C2776 1.369 . S
C2775 C2777 1.419 . S
C2775 H2779 0.930 . S
C2776 C2775 1.369 . S
C2776 C2785 1.429 . S
C2777 C2775 1.419 . S
C2777 C2778 1.363 . S
C2777 H2780 0.929 . S
C2778 C2777 1.363 . S
C2778 C2784 1.428 . S
H2779 C2775 0.930 . S
H2780 C2777 0.929 . S
S2781 N2782 1.613 . S
S2781 N2783 1.610 . S
N2782 S2781 1.613 . S
N2782 C2785 1.350 . S
N2783 S2781 1.610 . S
N2783 C2784 1.351 . S
C2784 C2778 1.428 . S
C2784 N2783 1.351 . S
C2784 C2785 1.434 . S
C2785 C2776 1.429 . S
C2785 N2782 1.350 . S
C2785 C2784 1.434 . S
C2786 C2787 1.369 . S
C2786 C2788 1.419 1_455 S
C2786 H2790 0.930 . S
C2787 C2786 1.369 . S
C2787 C2796 1.429 . S
C2788 C2786 1.419 1_655 S
C2788 C2789 1.363 . S
C2788 H2791 0.929 . S
C2789 C2788 1.363 . S
C2789 C2795 1.428 . S
H2790 C2786 0.930 . S
H2791 C2788 0.929 . S
S2792 N2793 1.613 1_655 S
S2792 N2794 1.610 . S
N2793 S2792 1.613 1_455 S
N2793 C2796 1.350 . S
N2794 S2792 1.610 . S
N2794 C2795 1.351 . S
C2795 C2789 1.428 . S
C2795 N2794 1.351 . S
C2795 C2796 1.434 1_655 S
C2796 C2787 1.429 . S
C2796 N2793 1.350 . S
C2796 C2795 1.434 1_455 S
C2797 C2798 1.369 . S
C2797 C2799 1.419 1_655 S
C2797 H2801 0.930 . S
C2798 C2797 1.369 . S
C2798 C2807 1.429 . S
C2799 C2797 1.419 1_455 S
C2799 C2800 1.363 . S
C2799 H2802 0.929 . S
C2800 C2799 1.363 . S
C2800 C2806 1.428 . S
H2801 C2797 0.930 . S
H2802 C2799 0.929 . S
S2803 N2804 1.613 . S
S2803 N2805 1.610 1_655 S
N2804 S2803 1.613 . S
N2804 C2807 1.350 . S
N2805 S2803 1.610 1_455 S
N2805 C2806 1.351 . S
C2806 C2800 1.428 . S
C2806 N2805 1.351 . S
C2806 C2807 1.434 1_455 S
C2807 C2798 1.429 . S
C2807 N2804 1.350 . S
C2807 C2806 1.434 1_655 S
C2808 C2809 1.369 . S
C2808 C2810 1.419 . S
C2808 H2812 0.930 . S
C2809 C2808 1.369 . S
C2809 C2818 1.429 . S
C2810 C2808 1.419 . S
C2810 C2811 1.363 . S
C2810 H2813 0.929 . S
C2811 C2810 1.363 . S
C2811 C2817 1.428 . S
H2812 C2808 0.930 . S
H2813 C2810 0.929 . S
S2814 N2815 1.613 . S
S2814 N2816 1.610 . S
N2815 S2814 1.613 . S
N2815 C2818 1.350 . S
N2816 S2814 1.610 . S
N2816 C2817 1.351 . S
C2817 C2811 1.428 . S
C2817 N2816 1.351 . S
C2817 C2818 1.434 . S
C2818 C2809 1.429 . S
C2818 N2815 1.350 . S
C2818 C2817 1.434 . S
C2819 C2820 1.369 . S
C2819 C2821 1.419 . S
C2819 H2823 0.930 . S
C2820 C2819 1.369 . S
C2820 C2829 1.429 . S
C2821 C2819 1.419 . S
C2821 C2822 1.363 . S
C2821 H2824 0.929 . S
C2822 C2821 1.363 . S
C2822 C2828 1.428 . S
H2823 C2819 0.930 . S
H2824 C2821 0.929 . S
S2825 N2826 1.613 . S
S2825 N2827 1.610 . S
N2826 S2825 1.613 . S
N2826 C2829 1.350 . S
N2827 S2825 1.610 . S
N2827 C2828 1.351 . S
C2828 C2822 1.428 . S
C2828 N2827 1.351 . S
C2828 C2829 1.434 . S
C2829 C2820 1.429 . S
C2829 N2826 1.350 . S
C2829 C2828 1.434 . S
C2830 C2831 1.369 . S
C2830 C2832 1.419 . S
C2830 H2834 0.930 . S
C2831 C2830 1.369 . S
C2831 C2840 1.429 . S
C2832 C2830 1.419 . S
C2832 C2833 1.363 . S
C2832 H2835 0.929 . S
C2833 C2832 1.363 . S
C2833 C2839 1.428 . S
H2834 C2830 0.930 . S
H2835 C2832 0.929 . S
S2836 N2837 1.613 . S
S2836 N2838 1.610 . S
N2837 S2836 1.613 . S
N2837 C2840 1.350 . S
N2838 S2836 1.610 . S
N2838 C2839 1.351 . S
C2839 C2833 1.428 . S
C2839 N2838 1.351 . S
C2839 C2840 1.434 . S
C2840 C2831 1.429 . S
C2840 N2837 1.350 . S
C2840 C2839 1.434 . S
C2841 C2842 1.369 . S
C2841 C2843 1.419 . S
C2841 H2845 0.930 . S
C2842 C2841 1.369 . S
C2842 C2851 1.429 . S
C2843 C2841 1.419 . S
C2843 C2844 1.363 . S
C2843 H2846 0.929 . S
C2844 C2843 1.363 . S
C2844 C2850 1.428 . S
H2845 C2841 0.930 . S
H2846 C2843 0.929 . S
S2847 N2848 1.613 . S
S2847 N2849 1.610 . S
N2848 S2847 1.613 . S
N2848 C2851 1.350 . S
N2849 S2847 1.610 . S
N2849 C2850 1.351 . S
C2850 C2844 1.428 . S
C2850 N2849 1.351 . S
C2850 C2851 1.434 . S
C2851 C2842 1.429 . S
C2851 N2848 1.350 . S
C2851 C2850 1.434 . S
C2852 C2853 1.369 . S
C2852 C2854 1.419 . S
C2852 H2856 0.930 . S
C2853 C2852 1.369 . S
C2853 C2862 1.429 . S
C2854 C2852 1.419 . S
C2854 C2855 1.363 . S
C2854 H2857 0.929 . S
C2855 C2854 1.363 . S
C2855 C2861 1.428 . S
H2856 C2852 0.930 . S
H2857 C2854 0.929 . S
S2858 N2859 1.613 . S
S2858 N2860 1.610 . S
N2859 S2858 1.613 . S
N2859 C2862 1.350 . S
N2860 S2858 1.610 . S
N2860 C2861 1.351 . S
C2861 C2855 1.428 . S
C2861 N2860 1.351 . S
C2861 C2862 1.434 . S
C2862 C2853 1.429 . S
C2862 N2859 1.350 . S
C2862 C2861 1.434 . S
C2863 C2864 1.369 . S
C2863 C2865 1.419 . S
C2863 H2867 0.930 . S
C2864 C2863 1.369 . S
C2864 C2873 1.429 . S
C2865 C2863 1.419 . S
C2865 C2866 1.363 . S
C2865 H2868 0.929 . S
C2866 C2865 1.363 . S
C2866 C2872 1.428 . S
H2867 C2863 0.930 . S
H2868 C2865 0.929 . S
S2869 N2870 1.613 . S
S2869 N2871 1.610 . S
N2870 S2869 1.613 . S
N2870 C2873 1.350 . S
N2871 S2869 1.610 . S
N2871 C2872 1.351 . S
C2872 C2866 1.428 . S
C2872 N2871 1.351 . S
C2872 C2873 1.434 . S
C2873 C2864 1.429 . S
C2873 N2870 1.350 . S
C2873 C2872 1.434 . S
C2874 C2875 1.369 . S
C2874 C2876 1.419 . S
C2874 H2878 0.930 . S
C2875 C2874 1.369 . S
C2875 C2884 1.429 . S
C2876 C2874 1.419 . S
C2876 C2877 1.363 . S
C2876 H2879 0.929 . S
C2877 C2876 1.363 . S
C2877 C2883 1.428 . S
H2878 C2874 0.930 . S
H2879 C2876 0.929 . S
S2880 N2881 1.613 . S
S2880 N2882 1.610 . S
N2881 S2880 1.613 . S
N2881 C2884 1.350 . S
N2882 S2880 1.610 . S
N2882 C2883 1.351 . S
C2883 C2877 1.428 . S
C2883 N2882 1.351 . S
C2883 C2884 1.434 . S
C2884 C2875 1.429 . S
C2884 N2881 1.350 . S
C2884 C2883 1.434 . S
C2885 C2886 1.369 . S
C2885 C2887 1.419 . S
C2885 H2889 0.930 . S
C2886 C2885 1.369 . S
C2886 C2895 1.429 . S
C2887 C2885 1.419 . S
C2887 C2888 1.363 . S
C2887 H2890 0.929 . S
C2888 C2887 1.363 . S
C2888 C2894 1.428 . S
H2889 C2885 0.930 . S
H2890 C2887 0.929 . S
S2891 N2892 1.613 . S
S2891 N2893 1.610 . S
N2892 S2891 1.613 . S
N2892 C2895 1.350 . S
N2893 S2891 1.610 . S
N2893 C2894 1.351 . S
C2894 C2888 1.428 . S
C2894 N2893 1.351 . S
C2894 C2895 1.434 . S
C2895 C2886 1.429 . S
C2895 N2892 1.350 . S
C2895 C2894 1.434 . S
C2896 C2897 1.369 . S
C2896 C2898 1.419 . S
C2896 H2900 0.930 . S
C2897 C2896 1.369 . S
C2897 C2906 1.429 . S
C2898 C2896 1.419 . S
C2898 C2899 1.363 . S
C2898 H2901 0.929 . S
C2899 C2898 1.363 . S
C2899 C2905 1.428 . S
H2900 C2896 0.930 . S
H2901 C2898 0.929 . S
S2902 N2903 1.613 . S
S2902 N2904 1.610 . S
N2903 S2902 1.613 . S
N2903 C2906 1.350 . S
N2904 S2902 1.610 . S
N2904 C2905 1.351 . S
C2905 C2899 1.428 . S
C2905 N2904 1.351 . S
C2905 C2906 1.434 . S
C2906 C2897 1.429 . S
C2906 N2903 1.350 . S
C2906 C2905 1.434 . S
C2907 C2908 1.369 . S
C2907 C2909 1.419 1_565 S
C2907 H2911 0.930 . S
C2908 C2907 1.369 . S
C2908 C2917 1.429 . S
C2909 C2907 1.419 1_545 S
C2909 C2910 1.363 . S
C2909 H2912 0.929 . S
C2910 C2909 1.363 . S
C2910 C2916 1.428 . S
H2911 C2907 0.930 . S
H2912 C2909 0.929 . S
S2913 N2914 1.613 1_545 S
S2913 N2915 1.610 . S
N2914 S2913 1.613 1_565 S
N2914 C2917 1.350 . S
N2915 S2913 1.610 . S
N2915 C2916 1.351 . S
C2916 C2910 1.428 . S
C2916 N2915 1.351 . S
C2916 C2917 1.434 1_545 S
C2917 C2908 1.429 . S
C2917 N2914 1.350 . S
C2917 C2916 1.434 1_565 S
C2918 C2919 1.369 . S
C2918 C2920 1.419 . S
C2918 H2922 0.930 . S
C2919 C2918 1.369 . S
C2919 C2928 1.429 . S
C2920 C2918 1.419 . S
C2920 C2921 1.363 . S
C2920 H2923 0.929 . S
C2921 C2920 1.363 . S
C2921 C2927 1.428 . S
H2922 C2918 0.930 . S
H2923 C2920 0.929 . S
S2924 N2925 1.613 . S
S2924 N2926 1.610 . S
N2925 S2924 1.613 . S
N2925 C2928 1.350 . S
N2926 S2924 1.610 . S
N2926 C2927 1.351 . S
C2927 C2921 1.428 . S
C2927 N2926 1.351 . S
C2927 C2928 1.434 . S
C2928 C2919 1.429 . S
C2928 N2925 1.350 . S
C2928 C2927 1.434 . S
C2929 C2930 1.369 . S
C2929 C2931 1.419 . S
C2929 H2933 0.930 . S
C2930 C2929 1.369 . S
C2930 C2939 1.429 . S
C2931 C2929 1.419 . S
C2931 C2932 1.363 . S
C2931 H2934 0.929 . S
C2932 C2931 1.363 . S
C2932 C2938 1.428 . S
H2933 C2929 0.930 . S
H2934 C2931 0.929 . S
S2935 N2936 1.613 . S
S2935 N2937 1.610 . S
N2936 S2935 1.613 . S
N2936 C2939 1.350 . S
N2937 S2935 1.610 . S
N2937 C2938 1.351 . S
C2938 C2932 1.428 . S
C2938 N2937 1.351 . S
C2938 C2939 1.434 . S
C2939 C2930 1.429 . S
C2939 N2936 1.350 . S
C2939 C2938 1.434 . S
C2940 C2941 1.369 . S
C2940 C2942 1.419 . S
C2940 H2944 0.930 . S
C2941 C2940 1.369 . S
C2941 C2950 1.429 . S
C2942 C2940 1.419 . S
C2942 C2943 1.363 . S
C2942 H2945 0.929 . S
C2943 C2942 1.363 . S
C2943 C2949 1.428 . S
H2944 C2940 0.930 . S
H2945 C2942 0.929 . S
S2946 N2947 1.613 . S
S2946 N2948 1.610 . S
N2947 S2946 1.613 . S
N2947 C2950 1.350 . S
N2948 S2946 1.610 . S
N2948 C2949 1.351 . S
C2949 C2943 1.428 . S
C2949 N2948 1.351 . S
C2949 C2950 1.434 . S
C2950 C2941 1.429 . S
C2950 N2947 1.350 . S
C2950 C2949 1.434 . S
C2951 C2952 1.369 . S
C2951 C2953 1.419 1_565 S
C2951 H2955 0.930 . S
C2952 C2951 1.369 . S
C2952 C2961 1.429 . S
C2953 C2951 1.419 1_545 S
C2953 C2954 1.363 . S
C2953 H2956 0.929 . S
C2954 C2953 1.363 . S
C2954 C2960 1.428 . S
H2955 C2951 0.930 . S
H2956 C2953 0.929 . S
S2957 N2958 1.613 1_545 S
S2957 N2959 1.610 . S
N2958 S2957 1.613 1_565 S
N2958 C2961 1.350 . S
N2959 S2957 1.610 . S
N2959 C2960 1.351 . S
C2960 C2954 1.428 . S
C2960 N2959 1.351 . S
C2960 C2961 1.434 1_545 S
C2961 C2952 1.429 . S
C2961 N2958 1.350 . S
C2961 C2960 1.434 1_565 S
C2962 C2963 1.369 . S
C2962 C2964 1.419 . S
C2962 H2966 0.930 . S
C2963 C2962 1.369 . S
C2963 C2972 1.429 . S
C2964 C2962 1.419 . S
C2964 C2965 1.363 . S
C2964 H2967 0.929 . S
C2965 C2964 1.363 . S
C2965 C2971 1.428 . S
H2966 C2962 0.930 . S
H2967 C2964 0.929 . S
S2968 N2969 1.613 . S
S2968 N2970 1.610 . S
N2969 S2968 1.613 . S
N2969 C2972 1.350 . S
N2970 S2968 1.610 . S
N2970 C2971 1.351 . S
C2971 C2965 1.428 . S
C2971 N2970 1.351 . S
C2971 C2972 1.434 . S
C2972 C2963 1.429 . S
C2972 N2969 1.350 . S
C2972 C2971 1.434 . S
C2973 C2974 1.369 . S
C2973 C2975 1.419 . S
C2973 H2977 0.930 . S
C2974 C2973 1.369 . S
C2974 C2983 1.429 . S
C2975 C2973 1.419 . S
C2975 C2976 1.363 . S
C2975 H2978 0.929 . S
C2976 C2975 1.363 . S
C2976 C2982 1.428 . S
H2977 C2973 0.930 . S
H2978 C2975 0.929 . S
S2979 N2980 1.613 . S
S2979 N2981 1.610 . S
N2980 S2979 1.613 . S
N2980 C2983 1.350 . S
N2981 S2979 1.610 . S
N2981 C2982 1.351 . S
C2982 C2976 1.428 . S
C2982 N2981 1.351 . S
C2982 C2983 1.434 . S
C2983 C2974 1.429 . S
C2983 N2980 1.350 . S
C2983 C2982 1.434 . S
C2984 C2985 1.369 . S
C2984 C2986 1.419 . S
C2984 H2988 0.930 . S
C2985 C2984 1.369 . S
C2985 C2994 1.429 . S
C2986 C2984 1.419 . S
C2986 C2987 1.363 . S
C2986 H2989 0.929 . S
C2987 C2986 1.363 . S
C2987 C2993 1.428 . S
H2988 C2984 0.930 . S
H2989 C2986 0.929 . S
S2990 N2991 1.613 . S
S2990 N2992 1.610 . S
N2991 S2990 1.613 . S
N2991 C2994 1.350 . S
N2992 S2990 1.610 . S
N2992 C2993 1.351 . S
C2993 C2987 1.428 . S
C2993 N2992 1.351 . S
C2993 C2994 1.434 . S
C2994 C2985 1.429 . S
C2994 N2991 1.350 . S
C2994 C2993 1.434 . S
C2995 C2996 1.369 . S
C2995 C2997 1.419 . S
C2995 H2999 0.930 . S
C2996 C2995 1.369 . S
C2996 C3005 1.429 . S
C2997 C2995 1.419 . S
C2997 C2998 1.363 . S
C2997 H3000 0.929 . S
C2998 C2997 1.363 . S
C2998 C3004 1.428 . S
H2999 C2995 0.930 . S
H3000 C2997 0.929 . S
S3001 N3002 1.613 . S
S3001 N3003 1.610 . S
N3002 S3001 1.613 . S
N3002 C3005 1.350 . S
N3003 S3001 1.610 . S
N3003 C3004 1.351 . S
C3004 C2998 1.428 . S
C3004 N3003 1.351 . S
C3004 C3005 1.434 . S
C3005 C2996 1.429 . S
C3005 N3002 1.350 . S
C3005 C3004 1.434 . S
C3006 C3007 1.369 . S
C3006 C3008 1.419 . S
C3006 H3010 0.930 . S
C3007 C3006 1.369 . S
C3007 C3016 1.429 . S
C3008 C3006 1.419 . S
C3008 C3009 1.363 . S
C3008 H3011 0.929 . S
C3009 C3008 1.363 . S
C3009 C3015 1.428 . S
H3010 C3006 0.930 . S
H3011 C3008 0.929 . S
S3012 N3013 1.613 . S
S3012 N3014 1.610 . S
N3013 S3012 1.613 . S
N3013 C3016 1.350 . S
N3014 S3012 1.610 . S
N3014 C3015 1.351 . S
C3015 C3009 1.428 . S
C3015 N3014 1.351 . S
C3015 C3016 1.434 . S
C3016 C3007 1.429 . S
C3016 N3013 1.350 . S
C3016 C3015 1.434 . S
C3017 C3018 1.369 . S
C3017 C3019 1.419 . S
C3017 H3021 0.930 . S
C3018 C3017 1.369 . S
C3018 C3027 1.429 . S
C3019 C3017 1.419 . S
C3019 C3020 1.363 . S
C3019 H3022 0.929 . S
C3020 C3019 1.363 . S
C3020 C3026 1.428 . S
H3021 C3017 0.930 . S
H3022 C3019 0.929 . S
S3023 N3024 1.613 . S
S3023 N3025 1.610 . S
N3024 S3023 1.613 . S
N3024 C3027 1.350 . S
N3025 S3023 1.610 . S
N3025 C3026 1.351 . S
C3026 C3020 1.428 . S
C3026 N3025 1.351 . S
C3026 C3027 1.434 . S
C3027 C3018 1.429 . S
C3027 N3024 1.350 . S
C3027 C3026 1.434 . S
C3028 C3029 1.369 . S
C3028 C3030 1.419 1_455 S
C3028 H3032 0.930 . S
C3029 C3028 1.369 . S
C3029 C3038 1.429 . S
C3030 C3028 1.419 1_655 S
C3030 C3031 1.363 . S
C3030 H3033 0.929 . S
C3031 C3030 1.363 . S
C3031 C3037 1.428 . S
H3032 C3028 0.930 . S
H3033 C3030 0.929 . S
S3034 N3035 1.613 . S
S3034 N3036 1.610 1_455 S
N3035 S3034 1.613 . S
N3035 C3038 1.350 . S
N3036 S3034 1.610 1_655 S
N3036 C3037 1.351 . S
C3037 C3031 1.428 . S
C3037 N3036 1.351 . S
C3037 C3038 1.434 1_655 S
C3038 C3029 1.429 . S
C3038 N3035 1.350 . S
C3038 C3037 1.434 1_455 S
C3039 C3040 1.369 . S
C3039 C3041 1.419 . S
C3039 H3043 0.930 . S
C3040 C3039 1.369 . S
C3040 C3049 1.429 . S
C3041 C3039 1.419 . S
C3041 C3042 1.363 . S
C3041 H3044 0.929 . S
C3042 C3041 1.363 . S
C3042 C3048 1.428 . S
H3043 C3039 0.930 . S
H3044 C3041 0.929 . S
S3045 N3046 1.613 . S
S3045 N3047 1.610 . S
N3046 S3045 1.613 . S
N3046 C3049 1.350 . S
N3047 S3045 1.610 . S
N3047 C3048 1.351 . S
C3048 C3042 1.428 . S
C3048 N3047 1.351 . S
C3048 C3049 1.434 . S
C3049 C3040 1.429 . S
C3049 N3046 1.350 . S
C3049 C3048 1.434 . S
C3050 C3051 1.369 . S
C3050 C3052 1.419 . S
C3050 H3054 0.930 . S
C3051 C3050 1.369 . S
C3051 C3060 1.429 . S
C3052 C3050 1.419 . S
C3052 C3053 1.363 . S
C3052 H3055 0.929 . S
C3053 C3052 1.363 . S
C3053 C3059 1.428 . S
H3054 C3050 0.930 . S
H3055 C3052 0.929 . S
S3056 N3057 1.613 1_565 S
S3056 N3058 1.610 1_565 S
N3057 S3056 1.613 1_545 S
N3057 C3060 1.350 . S
N3058 S3056 1.610 1_545 S
N3058 C3059 1.351 . S
C3059 C3053 1.428 . S
C3059 N3058 1.351 . S
C3059 C3060 1.434 . S
C3060 C3051 1.429 . S
C3060 N3057 1.350 . S
C3060 C3059 1.434 . S
C3061 C3062 1.369 . S
C3061 C3063 1.419 . S
C3061 H3065 0.930 . S
C3062 C3061 1.369 . S
C3062 C3071 1.429 . S
C3063 C3061 1.419 . S
C3063 C3064 1.363 . S
C3063 H3066 0.929 . S
C3064 C3063 1.363 . S
C3064 C3070 1.428 . S
H3065 C3061 0.930 . S
H3066 C3063 0.929 . S
S3067 N3068 1.613 . S
S3067 N3069 1.610 . S
N3068 S3067 1.613 . S
N3068 C3071 1.350 . S
N3069 S3067 1.610 . S
N3069 C3070 1.351 . S
C3070 C3064 1.428 . S
C3070 N3069 1.351 . S
C3070 C3071 1.434 . S
C3071 C3062 1.429 . S
C3071 N3068 1.350 . S
C3071 C3070 1.434 . S
C3072 C3073 1.369 . S
C3072 C3074 1.419 . S
C3072 H3076 0.930 . S
C3073 C3072 1.369 . S
C3073 C3082 1.429 . S
C3074 C3072 1.419 . S
C3074 C3075 1.363 . S
C3074 H3077 0.929 . S
C3075 C3074 1.363 . S
C3075 C3081 1.428 . S
H3076 C3072 0.930 . S
H3077 C3074 0.929 . S
S3078 N3079 1.613 . S
S3078 N3080 1.610 . S
N3079 S3078 1.613 . S
N3079 C3082 1.350 . S
N3080 S3078 1.610 . S
N3080 C3081 1.351 . S
C3081 C3075 1.428 . S
C3081 N3080 1.351 . S
C3081 C3082 1.434 . S
C3082 C3073 1.429 . S
C3082 N3079 1.350 . S
C3082 C3081 1.434 . S
C3083 C3084 1.369 . S
C3083 C3085 1.419 . S
C3083 H3087 0.930 . S
C3084 C3083 1.369 . S
C3084 C3093 1.429 . S
C3085 C3083 1.419 . S
C3085 C3086 1.363 . S
C3085 H3088 0.929 . S
C3086 C3085 1.363 . S
C3086 C3092 1.428 . S
H3087 C3083 0.930 . S
H3088 C3085 0.929 . S
S3089 N3090 1.613 . S
S3089 N3091 1.610 . S
N3090 S3089 1.613 . S
N3090 C3093 1.350 . S
N3091 S3089 1.610 . S
N3091 C3092 1.351 . S
C3092 C3086 1.428 . S
C3092 N3091 1.351 . S
C3092 C3093 1.434 . S
C3093 C3084 1.429 . S
C3093 N3090 1.350 . S
C3093 C3092 1.434 . S
C3094 C3095 1.369 . S
C3094 C3096 1.419 . S
C3094 H3098 0.930 . S
C3095 C3094 1.369 . S
C3095 C3104 1.429 . S
C3096 C3094 1.419 . S
C3096 C3097 1.363 . S
C3096 H3099 0.929 . S
C3097 C3096 1.363 . S
C3097 C3103 1.428 . S
H3098 C3094 0.930 . S
H3099 C3096 0.929 . S
S3100 N3101 1.613 . S
S3100 N3102 1.610 . S
N3101 S3100 1.613 . S
N3101 C3104 1.350 . S
N3102 S3100 1.610 . S
N3102 C3103 1.351 . S
C3103 C3097 1.428 . S
C3103 N3102 1.351 . S
C3103 C3104 1.434 . S
C3104 C3095 1.429 . S
C3104 N3101 1.350 . S
C3104 C3103 1.434 . S
C3105 C3106 1.369 . S
C3105 C3107 1.419 . S
C3105 H3109 0.930 . S
C3106 C3105 1.369 . S
C3106 C3115 1.429 . S
C3107 C3105 1.419 . S
C3107 C3108 1.363 . S
C3107 H3110 0.929 . S
C3108 C3107 1.363 . S
C3108 C3114 1.428 . S
H3109 C3105 0.930 . S
H3110 C3107 0.929 . S
S3111 N3112 1.613 . S
S3111 N3113 1.610 . S
N3112 S3111 1.613 . S
N3112 C3115 1.350 . S
N3113 S3111 1.610 . S
N3113 C3114 1.351 . S
C3114 C3108 1.428 . S
C3114 N3113 1.351 . S
C3114 C3115 1.434 . S
C3115 C3106 1.429 . S
C3115 N3112 1.350 . S
C3115 C3114 1.434 . S
C3116 C3117 1.369 . S
C3116 C3118 1.419 . S
C3116 H3120 0.930 . S
C3117 C3116 1.369 . S
C3117 C3126 1.429 . S
C3118 C3116 1.419 . S
C3118 C3119 1.363 . S
C3118 H3121 0.929 . S
C3119 C3118 1.363 . S
C3119 C3125 1.428 . S
H3120 C3116 0.930 . S
H3121 C3118 0.929 . S
S3122 N3123 1.613 . S
S3122 N3124 1.610 . S
N3123 S3122 1.613 . S
N3123 C3126 1.350 . S
N3124 S3122 1.610 . S
N3124 C3125 1.351 . S
C3125 C3119 1.428 . S
C3125 N3124 1.351 . S
C3125 C3126 1.434 . S
C3126 C3117 1.429 . S
C3126 N3123 1.350 . S
C3126 C3125 1.434 . S
C3127 C3128 1.369 . S
C3127 C3129 1.419 . S
C3127 H3131 0.930 . S
C3128 C3127 1.369 . S
C3128 C3137 1.429 . S
C3129 C3127 1.419 . S
C3129 C3130 1.363 . S
C3129 H3132 0.929 . S
C3130 C3129 1.363 . S
C3130 C3136 1.428 . S
H3131 C3127 0.930 . S
H3132 C3129 0.929 . S
S3133 N3134 1.613 . S
S3133 N3135 1.610 . S
N3134 S3133 1.613 . S
N3134 C3137 1.350 . S
N3135 S3133 1.610 . S
N3135 C3136 1.351 . S
C3136 C3130 1.428 . S
C3136 N3135 1.351 . S
C3136 C3137 1.434 . S
C3137 C3128 1.429 . S
C3137 N3134 1.350 . S
C3137 C3136 1.434 . S
C3138 C3139 1.369 . S
C3138 C3140 1.419 . S
C3138 H3142 0.930 . S
C3139 C3138 1.369 . S
C3139 C3148 1.429 . S
C3140 C3138 1.419 . S
C3140 C3141 1.363 . S
C3140 H3143 0.929 . S
C3141 C3140 1.363 . S
C3141 C3147 1.428 . S
H3142 C3138 0.930 . S
H3143 C3140 0.929 . S
S3144 N3145 1.613 . S
S3144 N3146 1.610 . S
N3145 S3144 1.613 . S
N3145 C3148 1.350 . S
N3146 S3144 1.610 . S
N3146 C3147 1.351 . S
C3147 C3141 1.428 . S
C3147 N3146 1.351 . S
C3147 C3148 1.434 . S
C3148 C3139 1.429 . S
C3148 N3145 1.350 . S
C3148 C3147 1.434 . S
C3149 C3150 1.369 . S
C3149 C3151 1.419 . S
C3149 H3153 0.930 . S
C3150 C3149 1.369 . S
C3150 C3159 1.429 . S
C3151 C3149 1.419 . S
C3151 C3152 1.363 . S
C3151 H3154 0.929 . S
C3152 C3151 1.363 . S
C3152 C3158 1.428 . S
H3153 C3149 0.930 . S
H3154 C3151 0.929 . S
S3155 N3156 1.613 . S
S3155 N3157 1.610 . S
N3156 S3155 1.613 . S
N3156 C3159 1.350 . S
N3157 S3155 1.610 . S
N3157 C3158 1.351 . S
C3158 C3152 1.428 . S
C3158 N3157 1.351 . S
C3158 C3159 1.434 . S
C3159 C3150 1.429 . S
C3159 N3156 1.350 . S
C3159 C3158 1.434 . S
C3160 C3161 1.369 . S
C3160 C3162 1.419 . S
C3160 H3164 0.930 . S
C3161 C3160 1.369 . S
C3161 C3170 1.429 . S
C3162 C3160 1.419 . S
C3162 C3163 1.363 . S
C3162 H3165 0.929 . S
C3163 C3162 1.363 . S
C3163 C3169 1.428 . S
H3164 C3160 0.930 . S
H3165 C3162 0.929 . S
S3166 N3167 1.613 . S
S3166 N3168 1.610 . S
N3167 S3166 1.613 . S
N3167 C3170 1.350 . S
N3168 S3166 1.610 . S
N3168 C3169 1.351 . S
C3169 C3163 1.428 . S
C3169 N3168 1.351 . S
C3169 C3170 1.434 . S
C3170 C3161 1.429 . S
C3170 N3167 1.350 . S
C3170 C3169 1.434 . S
C3171 C3172 1.369 . S
C3171 C3173 1.419 . S
C3171 H3175 0.930 . S
C3172 C3171 1.369 . S
C3172 C3181 1.429 . S
C3173 C3171 1.419 . S
C3173 C3174 1.363 . S
C3173 H3176 0.929 . S
C3174 C3173 1.363 . S
C3174 C3180 1.428 . S
H3175 C3171 0.930 . S
H3176 C3173 0.929 . S
S3177 N3178 1.613 . S
S3177 N3179 1.610 . S
N3178 S3177 1.613 . S
N3178 C3181 1.350 . S
N3179 S3177 1.610 . S
N3179 C3180 1.351 . S
C3180 C3174 1.428 . S
C3180 N3179 1.351 . S
C3180 C3181 1.434 . S
C3181 C3172 1.429 . S
C3181 N3178 1.350 . S
C3181 C3180 1.434 . S
C3182 C3183 1.369 . S
C3182 C3184 1.419 . S
C3182 H3186 0.930 . S
C3183 C3182 1.369 . S
C3183 C3192 1.429 . S
C3184 C3182 1.419 . S
C3184 C3185 1.363 . S
C3184 H3187 0.929 . S
C3185 C3184 1.363 . S
C3185 C3191 1.428 . S
H3186 C3182 0.930 . S
H3187 C3184 0.929 . S
S3188 N3189 1.613 . S
S3188 N3190 1.610 . S
N3189 S3188 1.613 . S
N3189 C3192 1.350 . S
N3190 S3188 1.610 . S
N3190 C3191 1.351 . S
C3191 C3185 1.428 . S
C3191 N3190 1.351 . S
C3191 C3192 1.434 . S
C3192 C3183 1.429 . S
C3192 N3189 1.350 . S
C3192 C3191 1.434 . S
C3193 C3194 1.369 . S
C3193 C3195 1.419 . S
C3193 H3197 0.930 . S
C3194 C3193 1.369 . S
C3194 C3203 1.429 . S
C3195 C3193 1.419 . S
C3195 C3196 1.363 . S
C3195 H3198 0.929 . S
C3196 C3195 1.363 . S
C3196 C3202 1.428 . S
H3197 C3193 0.930 . S
H3198 C3195 0.929 . S
S3199 N3200 1.613 . S
S3199 N3201 1.610 . S
N3200 S3199 1.613 . S
N3200 C3203 1.350 . S
N3201 S3199 1.610 . S
N3201 C3202 1.351 . S
C3202 C3196 1.428 . S
C3202 N3201 1.351 . S
C3202 C3203 1.434 . S
C3203 C3194 1.429 . S
C3203 N3200 1.350 . S
C3203 C3202 1.434 . S
C3204 C3205 1.369 . S
C3204 C3206 1.419 . S
C3204 H3208 0.930 . S
C3205 C3204 1.369 . S
C3205 C3214 1.429 . S
C3206 C3204 1.419 . S
C3206 C3207 1.363 . S
C3206 H3209 0.929 . S
C3207 C3206 1.363 . S
C3207 C3213 1.428 . S
H3208 C3204 0.930 . S
H3209 C3206 0.929 . S
S3210 N3211 1.613 . S
S3210 N3212 1.610 . S
N3211 S3210 1.613 . S
N3211 C3214 1.350 . S
N3212 S3210 1.610 . S
N3212 C3213 1.351 . S
C3213 C3207 1.428 . S
C3213 N3212 1.351 . S
C3213 C3214 1.434 . S
C3214 C3205 1.429 . S
C3214 N3211 1.350 . S
C3214 C3213 1.434 . S
C3215 C3216 1.369 . S
C3215 C3217 1.419 . S
C3215 H3219 0.930 . S
C3216 C3215 1.369 . S
C3216 C3225 1.429 . S
C3217 C3215 1.419 . S
C3217 C3218 1.363 . S
C3217 H3220 0.929 . S
C3218 C3217 1.363 . S
C3218 C3224 1.428 . S
H3219 C3215 0.930 . S
H3220 C3217 0.929 . S
S3221 N3222 1.613 . S
S3221 N3223 1.610 . S
N3222 S3221 1.613 . S
N3222 C3225 1.350 . S
N3223 S3221 1.610 . S
N3223 C3224 1.351 . S
C3224 C3218 1.428 . S
C3224 N3223 1.351 . S
C3224 C3225 1.434 . S
C3225 C3216 1.429 . S
C3225 N3222 1.350 . S
C3225 C3224 1.434 . S
C3226 C3227 1.369 . S
C3226 C3228 1.419 . S
C3226 H3230 0.930 . S
C3227 C3226 1.369 . S
C3227 C3236 1.429 . S
C3228 C3226 1.419 . S
C3228 C3229 1.363 . S
C3228 H3231 0.929 . S
C3229 C3228 1.363 . S
C3229 C3235 1.428 . S
H3230 C3226 0.930 . S
H3231 C3228 0.929 . S
S3232 N3233 1.613 . S
S3232 N3234 1.610 . S
N3233 S3232 1.613 . S
N3233 C3236 1.350 . S
N3234 S3232 1.610 . S
N3234 C3235 1.351 . S
C3235 C3229 1.428 . S
C3235 N3234 1.351 . S
C3235 C3236 1.434 . S
C3236 C3227 1.429 . S
C3236 N3233 1.350 . S
C3236 C3235 1.434 . S
C3237 C3238 1.369 . S
C3237 C3239 1.419 . S
C3237 H3241 0.930 . S
C3238 C3237 1.369 . S
C3238 C3247 1.429 . S
C3239 C3237 1.419 . S
C3239 C3240 1.363 . S
C3239 H3242 0.929 . S
C3240 C3239 1.363 . S
C3240 C3246 1.428 . S
H3241 C3237 0.930 . S
H3242 C3239 0.929 . S
S3243 N3244 1.613 . S
S3243 N3245 1.610 . S
N3244 S3243 1.613 . S
N3244 C3247 1.350 . S
N3245 S3243 1.610 . S
N3245 C3246 1.351 . S
C3246 C3240 1.428 . S
C3246 N3245 1.351 . S
C3246 C3247 1.434 . S
C3247 C3238 1.429 . S
C3247 N3244 1.350 . S
C3247 C3246 1.434 . S
C3248 C3249 1.369 . S
C3248 C3250 1.419 . S
C3248 H3252 0.930 . S
C3249 C3248 1.369 . S
C3249 C3258 1.429 . S
C3250 C3248 1.419 . S
C3250 C3251 1.363 . S
C3250 H3253 0.929 . S
C3251 C3250 1.363 . S
C3251 C3257 1.428 . S
H3252 C3248 0.930 . S
H3253 C3250 0.929 . S
S3254 N3255 1.613 . S
S3254 N3256 1.610 . S
N3255 S3254 1.613 . S
N3255 C3258 1.350 . S
N3256 S3254 1.610 . S
N3256 C3257 1.351 . S
C3257 C3251 1.428 . S
C3257 N3256 1.351 . S
C3257 C3258 1.434 . S
C3258 C3249 1.429 . S
C3258 N3255 1.350 . S
C3258 C3257 1.434 . S
C3259 C3260 1.369 . S
C3259 C3261 1.419 . S
C3259 H3263 0.930 . S
C3260 C3259 1.369 . S
C3260 C3269 1.429 . S
C3261 C3259 1.419 . S
C3261 C3262 1.363 . S
C3261 H3264 0.929 . S
C3262 C3261 1.363 . S
C3262 C3268 1.428 . S
H3263 C3259 0.930 . S
H3264 C3261 0.929 . S
S3265 N3266 1.613 . S
S3265 N3267 1.610 . S
N3266 S3265 1.613 . S
N3266 C3269 1.350 . S
N3267 S3265 1.610 . S
N3267 C3268 1.351 . S
C3268 C3262 1.428 . S
C3268 N3267 1.351 . S
C3268 C3269 1.434 . S
C3269 C3260 1.429 . S
C3269 N3266 1.350 . S
C3269 C3268 1.434 . S
C3270 C3271 1.369 . S
C3270 C3272 1.419 . S
C3270 H3274 0.930 . S
C3271 C3270 1.369 . S
C3271 C3280 1.429 . S
C3272 C3270 1.419 . S
C3272 C3273 1.363 . S
C3272 H3275 0.929 . S
C3273 C3272 1.363 . S
C3273 C3279 1.428 . S
H3274 C3270 0.930 . S
H3275 C3272 0.929 . S
S3276 N3277 1.613 . S
S3276 N3278 1.610 . S
N3277 S3276 1.613 . S
N3277 C3280 1.350 . S
N3278 S3276 1.610 . S
N3278 C3279 1.351 . S
C3279 C3273 1.428 . S
C3279 N3278 1.351 . S
C3279 C3280 1.434 . S
C3280 C3271 1.429 . S
C3280 N3277 1.350 . S
C3280 C3279 1.434 . S
C3281 C3282 1.369 . S
C3281 C3283 1.419 . S
C3281 H3285 0.930 . S
C3282 C3281 1.369 . S
C3282 C3291 1.429 . S
C3283 C3281 1.419 . S
C3283 C3284 1.363 . S
C3283 H3286 0.929 . S
C3284 C3283 1.363 . S
C3284 C3290 1.428 . S
H3285 C3281 0.930 . S
H3286 C3283 0.929 . S
S3287 N3288 1.613 . S
S3287 N3289 1.610 . S
N3288 S3287 1.613 . S
N3288 C3291 1.350 . S
N3289 S3287 1.610 . S
N3289 C3290 1.351 . S
C3290 C3284 1.428 . S
C3290 N3289 1.351 . S
C3290 C3291 1.434 . S
C3291 C3282 1.429 . S
C3291 N3288 1.350 . S
C3291 C3290 1.434 . S
C3292 C3293 1.369 . S
C3292 C3294 1.419 . S
C3292 H3296 0.930 . S
C3293 C3292 1.369 . S
C3293 C3302 1.429 . S
C3294 C3292 1.419 . S
C3294 C3295 1.363 . S
C3294 H3297 0.929 . S
C3295 C3294 1.363 . S
C3295 C3301 1.428 . S
H3296 C3292 0.930 . S
H3297 C3294 0.929 . S
S3298 N3299 1.613 . S
S3298 N3300 1.610 . S
N3299 S3298 1.613 . S
N3299 C3302 1.350 . S
N3300 S3298 1.610 . S
N3300 C3301 1.351 . S
C3301 C3295 1.428 . S
C3301 N3300 1.351 . S
C3301 C3302 1.434 . S
C3302 C3293 1.429 . S
C3302 N3299 1.350 . S
C3302 C3301 1.434 . S
C3303 C3304 1.369 . S
C3303 C3305 1.419 . S
C3303 H3307 0.930 . S
C3304 C3303 1.369 . S
C3304 C3313 1.429 . S
C3305 C3303 1.419 . S
C3305 C3306 1.363 . S
C3305 H3308 0.929 . S
C3306 C3305 1.363 . S
C3306 C3312 1.428 . S
H3307 C3303 0.930 . S
H3308 C3305 0.929 . S
S3309 N3310 1.613 . S
S3309 N3311 1.610 . S
N3310 S3309 1.613 . S
N3310 C3313 1.350 . S
N3311 S3309 1.610 . S
N3311 C3312 1.351 . S
C3312 C3306 1.428 . S
C3312 N3311 1.351 . S
C3312 C3313 1.434 . S
C3313 C3304 1.429 . S
C3313 N3310 1.350 . S
C3313 C3312 1.434 . S
C3314 C3315 1.369 . S
C3314 C3316 1.419 . S
C3314 H3318 0.930 . S
C3315 C3314 1.369 . S
C3315 C3324 1.429 . S
C3316 C3314 1.419 . S
C3316 C3317 1.363 . S
C3316 H3319 0.929 . S
C3317 C3316 1.363 . S
C3317 C3323 1.428 . S
H3318 C3314 0.930 . S
H3319 C3316 0.929 . S
S3320 N3321 1.613 . S
S3320 N3322 1.610 . S
N3321 S3320 1.613 . S
N3321 C3324 1.350 . S
N3322 S3320 1.610 . S
N3322 C3323 1.351 . S
C3323 C3317 1.428 . S
C3323 N3322 1.351 . S
C3323 C3324 1.434 . S
C3324 C3315 1.429 . S
C3324 N3321 1.350 . S
C3324 C3323 1.434 . S
C3325 C3326 1.369 . S
C3325 C3327 1.419 . S
C3325 H3329 0.930 . S
C3326 C3325 1.369 . S
C3326 C3335 1.429 . S
C3327 C3325 1.419 . S
C3327 C3328 1.363 . S
C3327 H3330 0.929 . S
C3328 C3327 1.363 . S
C3328 C3334 1.428 . S
H3329 C3325 0.930 . S
H3330 C3327 0.929 . S
S3331 N3332 1.613 . S
S3331 N3333 1.610 . S
N3332 S3331 1.613 . S
N3332 C3335 1.350 . S
N3333 S3331 1.610 . S
N3333 C3334 1.351 . S
C3334 C3328 1.428 . S
C3334 N3333 1.351 . S
C3334 C3335 1.434 . S
C3335 C3326 1.429 . S
C3335 N3332 1.350 . S
C3335 C3334 1.434 . S
C3336 C3337 1.369 . S
C3336 C3338 1.419 . S
C3336 H3340 0.930 . S
C3337 C3336 1.369 . S
C3337 C3346 1.429 . S
C3338 C3336 1.419 . S
C3338 C3339 1.363 . S
C3338 H3341 0.929 . S
C3339 C3338 1.363 . S
C3339 C3345 1.428 . S
H3340 C3336 0.930 . S
H3341 C3338 0.929 . S
S3342 N3343 1.613 . S
S3342 N3344 1.610 . S
N3343 S3342 1.613 . S
N3343 C3346 1.350 . S
N3344 S3342 1.610 . S
N3344 C3345 1.351 . S
C3345 C3339 1.428 . S
C3345 N3344 1.351 . S
C3345 C3346 1.434 . S
C3346 C3337 1.429 . S
C3346 N3343 1.350 . S
C3346 C3345 1.434 . S
C3347 C3348 1.369 . S
C3347 C3349 1.419 . S
C3347 H3351 0.930 . S
C3348 C3347 1.369 . S
C3348 C3357 1.429 . S
C3349 C3347 1.419 . S
C3349 C3350 1.363 . S
C3349 H3352 0.929 . S
C3350 C3349 1.363 . S
C3350 C3356 1.428 . S
H3351 C3347 0.930 . S
H3352 C3349 0.929 . S
S3353 N3354 1.613 . S
S3353 N3355 1.610 . S
N3354 S3353 1.613 . S
N3354 C3357 1.350 . S
N3355 S3353 1.610 . S
N3355 C3356 1.351 . S
C3356 C3350 1.428 . S
C3356 N3355 1.351 . S
C3356 C3357 1.434 . S
C3357 C3348 1.429 . S
C3357 N3354 1.350 . S
C3357 C3356 1.434 . S
C3358 C3359 1.369 . S
C3358 C3360 1.419 . S
C3358 H3362 0.930 . S
C3359 C3358 1.369 . S
C3359 C3368 1.429 . S
C3360 C3358 1.419 . S
C3360 C3361 1.363 . S
C3360 H3363 0.929 . S
C3361 C3360 1.363 . S
C3361 C3367 1.428 . S
H3362 C3358 0.930 . S
H3363 C3360 0.929 . S
S3364 N3365 1.613 . S
S3364 N3366 1.610 . S
N3365 S3364 1.613 . S
N3365 C3368 1.350 . S
N3366 S3364 1.610 . S
N3366 C3367 1.351 . S
C3367 C3361 1.428 . S
C3367 N3366 1.351 . S
C3367 C3368 1.434 . S
C3368 C3359 1.429 . S
C3368 N3365 1.350 . S
C3368 C3367 1.434 . S
C3369 C3370 1.369 . S
C3369 C3371 1.419 . S
C3369 H3373 0.930 . S
C3370 C3369 1.369 . S
C3370 C3379 1.429 . S
C3371 C3369 1.419 . S
C3371 C3372 1.363 . S
C3371 H3374 0.929 . S
C3372 C3371 1.363 . S
C3372 C3378 1.428 . S
H3373 C3369 0.930 . S
H3374 C3371 0.929 . S
S3375 N3376 1.613 . S
S3375 N3377 1.610 . S
N3376 S3375 1.613 . S
N3376 C3379 1.350 . S
N3377 S3375 1.610 . S
N3377 C3378 1.351 . S
C3378 C3372 1.428 . S
C3378 N3377 1.351 . S
C3378 C3379 1.434 . S
C3379 C3370 1.429 . S
C3379 N3376 1.350 . S
C3379 C3378 1.434 . S
C3380 C3381 1.369 . S
C3380 C3382 1.419 . S
C3380 H3384 0.930 . S
C3381 C3380 1.369 . S
C3381 C3390 1.429 . S
C3382 C3380 1.419 . S
C3382 C3383 1.363 . S
C3382 H3385 0.929 . S
C3383 C3382 1.363 . S
C3383 C3389 1.428 . S
H3384 C3380 0.930 . S
H3385 C3382 0.929 . S
S3386 N3387 1.613 . S
S3386 N3388 1.610 . S
N3387 S3386 1.613 . S
N3387 C3390 1.350 . S
N3388 S3386 1.610 . S
N3388 C3389 1.351 . S
C3389 C3383 1.428 . S
C3389 N3388 1.351 . S
C3389 C3390 1.434 . S
C3390 C3381 1.429 . S
C3390 N3387 1.350 . S
C3390 C3389 1.434 . S
C3391 C3392 1.369 . S
C3391 C3393 1.419 . S
C3391 H3395 0.930 . S
C3392 C3391 1.369 . S
C3392 C3401 1.429 . S
C3393 C3391 1.419 . S
C3393 C3394 1.363 . S
C3393 H3396 0.929 . S
C3394 C3393 1.363 . S
C3394 C3400 1.428 . S
H3395 C3391 0.930 . S
H3396 C3393 0.929 . S
S3397 N3398 1.613 . S
S3397 N3399 1.610 . S
N3398 S3397 1.613 . S
N3398 C3401 1.350 . S
N3399 S3397 1.610 . S
N3399 C3400 1.351 . S
C3400 C3394 1.428 . S
C3400 N3399 1.351 . S
C3400 C3401 1.434 . S
C3401 C3392 1.429 . S
C3401 N3398 1.350 . S
C3401 C3400 1.434 . S
C3402 C3403 1.369 . S
C3402 C3404 1.419 . S
C3402 H3406 0.930 . S
C3403 C3402 1.369 . S
C3403 C3412 1.429 . S
C3404 C3402 1.419 . S
C3404 C3405 1.363 . S
C3404 H3407 0.929 . S
C3405 C3404 1.363 . S
C3405 C3411 1.428 . S
H3406 C3402 0.930 . S
H3407 C3404 0.929 . S
S3408 N3409 1.613 . S
S3408 N3410 1.610 . S
N3409 S3408 1.613 . S
N3409 C3412 1.350 . S
N3410 S3408 1.610 . S
N3410 C3411 1.351 . S
C3411 C3405 1.428 . S
C3411 N3410 1.351 . S
C3411 C3412 1.434 . S
C3412 C3403 1.429 . S
C3412 N3409 1.350 . S
C3412 C3411 1.434 . S
C3413 C3414 1.369 . S
C3413 C3415 1.419 . S
C3413 H3417 0.930 . S
C3414 C3413 1.369 . S
C3414 C3423 1.429 . S
C3415 C3413 1.419 . S
C3415 C3416 1.363 . S
C3415 H3418 0.929 . S
C3416 C3415 1.363 . S
C3416 C3422 1.428 . S
H3417 C3413 0.930 . S
H3418 C3415 0.929 . S
S3419 N3420 1.613 . S
S3419 N3421 1.610 . S
N3420 S3419 1.613 . S
N3420 C3423 1.350 . S
N3421 S3419 1.610 . S
N3421 C3422 1.351 . S
C3422 C3416 1.428 . S
C3422 N3421 1.351 . S
C3422 C3423 1.434 . S
C3423 C3414 1.429 . S
C3423 N3420 1.350 . S
C3423 C3422 1.434 . S
C3424 C3425 1.369 . S
C3424 C3426 1.419 . S
C3424 H3428 0.930 . S
C3425 C3424 1.369 . S
C3425 C3434 1.429 . S
C3426 C3424 1.419 . S
C3426 C3427 1.363 . S
C3426 H3429 0.929 . S
C3427 C3426 1.363 . S
C3427 C3433 1.428 . S
H3428 C3424 0.930 . S
H3429 C3426 0.929 . S
S3430 N3431 1.613 . S
S3430 N3432 1.610 . S
N3431 S3430 1.613 . S
N3431 C3434 1.350 . S
N3432 S3430 1.610 . S
N3432 C3433 1.351 . S
C3433 C3427 1.428 . S
C3433 N3432 1.351 . S
C3433 C3434 1.434 . S
C3434 C3425 1.429 . S
C3434 N3431 1.350 . S
C3434 C3433 1.434 . S
C3435 C3436 1.369 . S
C3435 C3437 1.419 . S
C3435 H3439 0.930 . S
C3436 C3435 1.369 . S
C3436 C3445 1.429 . S
C3437 C3435 1.419 . S
C3437 C3438 1.363 . S
C3437 H3440 0.929 . S
C3438 C3437 1.363 . S
C3438 C3444 1.428 . S
H3439 C3435 0.930 . S
H3440 C3437 0.929 . S
S3441 N3442 1.613 . S
S3441 N3443 1.610 . S
N3442 S3441 1.613 . S
N3442 C3445 1.350 . S
N3443 S3441 1.610 . S
N3443 C3444 1.351 . S
C3444 C3438 1.428 . S
C3444 N3443 1.351 . S
C3444 C3445 1.434 . S
C3445 C3436 1.429 . S
C3445 N3442 1.350 . S
C3445 C3444 1.434 . S
C3446 C3447 1.369 . S
C3446 C3448 1.419 . S
C3446 H3450 0.930 . S
C3447 C3446 1.369 . S
C3447 C3456 1.429 . S
C3448 C3446 1.419 . S
C3448 C3449 1.363 . S
C3448 H3451 0.929 . S
C3449 C3448 1.363 . S
C3449 C3455 1.428 . S
H3450 C3446 0.930 . S
H3451 C3448 0.929 . S
S3452 N3453 1.613 . S
S3452 N3454 1.610 . S
N3453 S3452 1.613 . S
N3453 C3456 1.350 . S
N3454 S3452 1.610 . S
N3454 C3455 1.351 . S
C3455 C3449 1.428 . S
C3455 N3454 1.351 . S
C3455 C3456 1.434 . S
C3456 C3447 1.429 . S
C3456 N3453 1.350 . S
C3456 C3455 1.434 . S
C3457 C3458 1.369 . S
C3457 C3459 1.419 . S
C3457 H3461 0.930 . S
C3458 C3457 1.369 . S
C3458 C3467 1.429 . S
C3459 C3457 1.419 . S
C3459 C3460 1.363 . S
C3459 H3462 0.929 . S
C3460 C3459 1.363 . S
C3460 C3466 1.428 . S
H3461 C3457 0.930 . S
H3462 C3459 0.929 . S
S3463 N3464 1.613 . S
S3463 N3465 1.610 . S
N3464 S3463 1.613 . S
N3464 C3467 1.350 . S
N3465 S3463 1.610 . S
N3465 C3466 1.351 . S
C3466 C3460 1.428 . S
C3466 N3465 1.351 . S
C3466 C3467 1.434 . S
C3467 C3458 1.429 . S
C3467 N3464 1.350 . S
C3467 C3466 1.434 . S
C3468 C3469 1.369 . S
C3468 C3470 1.419 . S
C3468 H3472 0.930 . S
C3469 C3468 1.369 . S
C3469 C3478 1.429 . S
C3470 C3468 1.419 . S
C3470 C3471 1.363 . S
C3470 H3473 0.929 . S
C3471 C3470 1.363 . S
C3471 C3477 1.428 . S
H3472 C3468 0.930 . S
H3473 C3470 0.929 . S
S3474 N3475 1.613 . S
S3474 N3476 1.610 . S
N3475 S3474 1.613 . S
N3475 C3478 1.350 . S
N3476 S3474 1.610 . S
N3476 C3477 1.351 . S
C3477 C3471 1.428 . S
C3477 N3476 1.351 . S
C3477 C3478 1.434 . S
C3478 C3469 1.429 . S
C3478 N3475 1.350 . S
C3478 C3477 1.434 . S
C3479 C3480 1.369 . S
C3479 C3481 1.419 . S
C3479 H3483 0.930 . S
C3480 C3479 1.369 . S
C3480 C3489 1.429 . S
C3481 C3479 1.419 . S
C3481 C3482 1.363 . S
C3481 H3484 0.929 . S
C3482 C3481 1.363 . S
C3482 C3488 1.428 . S
H3483 C3479 0.930 . S
H3484 C3481 0.929 . S
S3485 N3486 1.613 . S
S3485 N3487 1.610 . S
N3486 S3485 1.613 . S
N3486 C3489 1.350 . S
N3487 S3485 1.610 . S
N3487 C3488 1.351 . S
C3488 C3482 1.428 . S
C3488 N3487 1.351 . S
C3488 C3489 1.434 . S
C3489 C3480 1.429 . S
C3489 N3486 1.350 . S
C3489 C3488 1.434 . S
C3490 C3491 1.369 . S
C3490 C3492 1.419 . S
C3490 H3494 0.930 . S
C3491 C3490 1.369 . S
C3491 C3500 1.429 . S
C3492 C3490 1.419 . S
C3492 C3493 1.363 . S
C3492 H3495 0.929 . S
C3493 C3492 1.363 . S
C3493 C3499 1.428 . S
H3494 C3490 0.930 . S
H3495 C3492 0.929 . S
S3496 N3497 1.613 . S
S3496 N3498 1.610 . S
N3497 S3496 1.613 . S
N3497 C3500 1.350 . S
N3498 S3496 1.610 . S
N3498 C3499 1.351 . S
C3499 C3493 1.428 . S
C3499 N3498 1.351 . S
C3499 C3500 1.434 . S
C3500 C3491 1.429 . S
C3500 N3497 1.350 . S
C3500 C3499 1.434 . S
C3501 C3502 1.369 . S
C3501 C3503 1.419 . S
C3501 H3505 0.930 . S
C3502 C3501 1.369 . S
C3502 C3511 1.429 . S
C3503 C3501 1.419 . S
C3503 C3504 1.363 . S
C3503 H3506 0.929 . S
C3504 C3503 1.363 . S
C3504 C3510 1.428 . S
H3505 C3501 0.930 . S
H3506 C3503 0.929 . S
S3507 N3508 1.613 . S
S3507 N3509 1.610 . S
N3508 S3507 1.613 . S
N3508 C3511 1.350 . S
N3509 S3507 1.610 . S
N3509 C3510 1.351 . S
C3510 C3504 1.428 . S
C3510 N3509 1.351 . S
C3510 C3511 1.434 . S
C3511 C3502 1.429 . S
C3511 N3508 1.350 . S
C3511 C3510 1.434 . S
C3512 C3513 1.369 . S
C3512 C3514 1.419 . S
C3512 H3516 0.930 . S
C3513 C3512 1.369 . S
C3513 C3522 1.429 . S
C3514 C3512 1.419 . S
C3514 C3515 1.363 . S
C3514 H3517 0.929 . S
C3515 C3514 1.363 . S
C3515 C3521 1.428 . S
H3516 C3512 0.930 . S
H3517 C3514 0.929 . S
S3518 N3519 1.613 . S
S3518 N3520 1.610 . S
N3519 S3518 1.613 . S
N3519 C3522 1.350 . S
N3520 S3518 1.610 . S
N3520 C3521 1.351 . S
C3521 C3515 1.428 . S
C3521 N3520 1.351 . S
C3521 C3522 1.434 . S
C3522 C3513 1.429 . S
C3522 N3519 1.350 . S
C3522 C3521 1.434 . S
C3523 C3524 1.369 . S
C3523 C3525 1.419 . S
C3523 H3527 0.930 . S
C3524 C3523 1.369 . S
C3524 C3533 1.429 . S
C3525 C3523 1.419 . S
C3525 C3526 1.363 . S
C3525 H3528 0.929 . S
C3526 C3525 1.363 . S
C3526 C3532 1.428 . S
H3527 C3523 0.930 . S
H3528 C3525 0.929 . S
S3529 N3530 1.613 . S
S3529 N3531 1.610 . S
N3530 S3529 1.613 . S
N3530 C3533 1.350 . S
N3531 S3529 1.610 . S
N3531 C3532 1.351 . S
C3532 C3526 1.428 . S
C3532 N3531 1.351 . S
C3532 C3533 1.434 . S
C3533 C3524 1.429 . S
C3533 N3530 1.350 . S
C3533 C3532 1.434 . S
C3534 C3535 1.369 . S
C3534 C3536 1.419 . S
C3534 H3538 0.930 . S
C3535 C3534 1.369 . S
C3535 C3544 1.429 . S
C3536 C3534 1.419 . S
C3536 C3537 1.363 . S
C3536 H3539 0.929 . S
C3537 C3536 1.363 . S
C3537 C3543 1.428 . S
H3538 C3534 0.930 . S
H3539 C3536 0.929 . S
S3540 N3541 1.613 . S
S3540 N3542 1.610 . S
N3541 S3540 1.613 . S
N3541 C3544 1.350 . S
N3542 S3540 1.610 . S
N3542 C3543 1.351 . S
C3543 C3537 1.428 . S
C3543 N3542 1.351 . S
C3543 C3544 1.434 . S
C3544 C3535 1.429 . S
C3544 N3541 1.350 . S
C3544 C3543 1.434 . S
C3545 C3546 1.369 . S
C3545 C3547 1.419 . S
C3545 H3549 0.930 . S
C3546 C3545 1.369 . S
C3546 C3555 1.429 . S
C3547 C3545 1.419 . S
C3547 C3548 1.363 . S
C3547 H3550 0.929 . S
C3548 C3547 1.363 . S
C3548 C3554 1.428 . S
H3549 C3545 0.930 . S
H3550 C3547 0.929 . S
S3551 N3552 1.613 . S
S3551 N3553 1.610 . S
N3552 S3551 1.613 . S
N3552 C3555 1.350 . S
N3553 S3551 1.610 . S
N3553 C3554 1.351 . S
C3554 C3548 1.428 . S
C3554 N3553 1.351 . S
C3554 C3555 1.434 . S
C3555 C3546 1.429 . S
C3555 N3552 1.350 . S
C3555 C3554 1.434 . S
C3556 C3557 1.369 . S
C3556 C3558 1.419 . S
C3556 H3560 0.930 . S
C3557 C3556 1.369 . S
C3557 C3566 1.429 . S
C3558 C3556 1.419 . S
C3558 C3559 1.363 . S
C3558 H3561 0.929 . S
C3559 C3558 1.363 . S
C3559 C3565 1.428 . S
H3560 C3556 0.930 . S
H3561 C3558 0.929 . S
S3562 N3563 1.613 . S
S3562 N3564 1.610 . S
N3563 S3562 1.613 . S
N3563 C3566 1.350 . S
N3564 S3562 1.610 . S
N3564 C3565 1.351 . S
C3565 C3559 1.428 . S
C3565 N3564 1.351 . S
C3565 C3566 1.434 . S
C3566 C3557 1.429 . S
C3566 N3563 1.350 . S
C3566 C3565 1.434 . S
C3567 C3568 1.369 . S
C3567 C3569 1.419 . S
C3567 H3571 0.930 . S
C3568 C3567 1.369 . S
C3568 C3577 1.429 . S
C3569 C3567 1.419 . S
C3569 C3570 1.363 . S
C3569 H3572 0.929 . S
C3570 C3569 1.363 . S
C3570 C3576 1.428 . S
H3571 C3567 0.930 . S
H3572 C3569 0.929 . S
S3573 N3574 1.613 . S
S3573 N3575 1.610 . S
N3574 S3573 1.613 . S
N3574 C3577 1.350 . S
N3575 S3573 1.610 . S
N3575 C3576 1.351 . S
C3576 C3570 1.428 . S
C3576 N3575 1.351 . S
C3576 C3577 1.434 . S
C3577 C3568 1.429 . S
C3577 N3574 1.350 . S
C3577 C3576 1.434 . S
C3578 C3579 1.369 . S
C3578 C3580 1.419 . S
C3578 H3582 0.930 . S
C3579 C3578 1.369 . S
C3579 C3588 1.429 . S
C3580 C3578 1.419 . S
C3580 C3581 1.363 . S
C3580 H3583 0.929 . S
C3581 C3580 1.363 . S
C3581 C3587 1.428 . S
H3582 C3578 0.930 . S
H3583 C3580 0.929 . S
S3584 N3585 1.613 . S
S3584 N3586 1.610 . S
N3585 S3584 1.613 . S
N3585 C3588 1.350 . S
N3586 S3584 1.610 . S
N3586 C3587 1.351 . S
C3587 C3581 1.428 . S
C3587 N3586 1.351 . S
C3587 C3588 1.434 . S
C3588 C3579 1.429 . S
C3588 N3585 1.350 . S
C3588 C3587 1.434 . S
C3589 C3590 1.369 . S
C3589 C3591 1.419 . S
C3589 H3593 0.930 . S
C3590 C3589 1.369 . S
C3590 C3599 1.429 . S
C3591 C3589 1.419 . S
C3591 C3592 1.363 . S
C3591 H3594 0.929 . S
C3592 C3591 1.363 . S
C3592 C3598 1.428 . S
H3593 C3589 0.930 . S
H3594 C3591 0.929 . S
S3595 N3596 1.613 . S
S3595 N3597 1.610 . S
N3596 S3595 1.613 . S
N3596 C3599 1.350 . S
N3597 S3595 1.610 . S
N3597 C3598 1.351 . S
C3598 C3592 1.428 . S
C3598 N3597 1.351 . S
C3598 C3599 1.434 . S
C3599 C3590 1.429 . S
C3599 N3596 1.350 . S
C3599 C3598 1.434 . S
C2545 C877 1.629 . S
C2547 C38 1.612 . S
C2556 C2520 1.642 . S
C2558 C91 1.620 . S
C2567 C144 1.604 . S
C2569 C2414 1.637 . S
C2578 C197 1.621 . S
C2580 C2467 1.640 . S
C2589 C930 1.630 . S
C2591 C250 1.612 . S
C2600 C303 1.625 . S
C2602 C983 1.638 . S
C2611 C356 1.604 . S
C2613 C1036 1.637 . S
C2622 C2361 1.637 . S
C2624 C409 1.624 . S
C2633 C462 1.604 . S
C2635 C29 1.637 . S
C2644 C82 1.637 . S
C2646 C515 1.623 . S
C2655 C135 1.630 . S
C2657 C568 1.612 . S
C2666 C188 1.639 . S
C2668 C621 1.621 . S
C2677 C241 1.629 . S
C2679 C674 1.612 . S
C2688 C727 1.617 . S
C2690 C294 1.643 . S
C2699 C347 1.631 . S
C2701 C780 1.611 . S
C2710 C833 1.624 . S
C2712 C400 1.638 . S
C2721 C886 1.612 . S
C2723 C453 1.631 . S
C2732 C665 1.636 . S
C2734 C939 1.607 . S
C2743 C992 1.616 . S
C2745 C718 1.644 . S
C2754 C1045 1.614 . S
C2756 C771 1.630 . S
C2765 C2096 1.645 . S
C2767 C1098 1.616 . S
C2776 C1151 1.607 . S
C2778 C1831 1.634 . S
C2787 C1884 1.638 . S
C2789 C1204 1.623 . S
C2798 C1778 1.643 . S
C2800 C1257 1.619 . S
C2809 C2149 1.633 . S
C2811 C1310 1.610 . S
C2820 C1363 1.622 . S
C2822 C1248 1.640 . S
C2831 C1416 1.605 . S
C2833 C1142 1.636 . S
C2842 C1469 1.619 . S
C2844 C1195 1.642 . S
C2853 C1522 1.614 . S
C2855 C2202 1.630 . S
C2864 C2255 1.642 . S
C2866 C1575 1.619 . S
C2875 C1628 1.613 . S
C2877 C2308 1.631 . S
C2886 C1089 1.645 . S
C2888 C1681 1.616 . S
C2897 C1301 1.630 . S
C2899 C1734 1.612 . S
C2908 C1787 1.623 . S
C2910 C1354 1.640 . S
C2919 C1840 1.613 . S
C2921 C1407 1.631 . S
C2930 C1893 1.619 . S
C2932 C1460 1.641 . S
C2941 C1946 1.606 . S
C2943 C1513 1.635 . S
C2952 C1999 1.621 . S
C2954 C1566 1.641 . S
C2963 C1619 1.629 . S
C2965 C2052 1.612 . S
C2974 C1672 1.644 . S
C2976 C2105 1.617 . S
C2985 C1725 1.637 . S
C2987 C2158 1.605 . S
C2996 C1937 1.638 . S
C2998 C2211 1.605 . S
C3007 C1990 1.638 . S
C3009 C2264 1.623 . S
C3018 C2317 1.607 . S
C3020 C2043 1.635 . S
C3029 C2370 1.623 . S
C3031 C824 1.638 . S
C3040 C2423 1.604 . S
C3042 C559 1.636 . S
C3051 C612 1.644 . S
C3053 C2476 1.617 . S
C3062 C2529 1.616 . S
C3064 C506 1.644 . S
C3073 C22 1.684 . S
C3075 C1470 1.672 . S
C3084 C1311 1.675 . S
C3086 C75 1.683 . S
C3095 C128 1.688 . S
C3097 C1364 1.669 . S
C3106 C181 1.682 . S
C3108 C1417 1.677 . S
C3117 C234 1.687 . S
C3119 C304 1.671 . S
C3128 C357 1.676 . S
C3130 C287 1.682 . S
C3139 C340 1.685 . S
C3141 C410 1.673 . S
C3150 C393 1.682 . S
C3152 C251 1.679 . S
C3161 C446 1.687 . S
C3163 C2265 1.668 . S
C3172 C499 1.686 . S
C3174 C2318 1.677 . S
C3183 C552 1.685 . S
C3185 C1099 1.669 . S
C3194 C605 1.683 . S
C3196 C2212 1.679 . S
C3205 C658 1.685 . S
C3207 C2477 1.669 . S
C3216 C887 1.677 . S
C3218 C711 1.685 . S
C3227 C764 1.688 . S
C3229 C2530 1.670 . S
C3238 C2424 1.676 . S
C3240 C817 1.683 . S
C3249 C516 1.673 . S
C3251 C870 1.686 . S
C3260 C923 1.684 . S
C3262 C2106 1.670 . S
C3271 C976 1.682 . S
C3273 C1947 1.679 . S
C3282 C2000 1.668 . S
C3284 C1029 1.686 . S
C3293 C1082 1.686 . S
C3295 C781 1.677 . S
C3304 C1894 1.668 . S
C3306 C1135 1.687 . S
C3315 C1735 1.679 . S
C3317 C1188 1.684 . S
C3326 C1841 1.678 . S
C3328 C1241 1.685 . S
C3337 C1294 1.687 . S
C3339 C198 1.668 . S
C3348 C1347 1.682 . S
C3350 C39 1.679 . S
C3359 C92 1.668 . S
C3361 C1400 1.687 . S
C3370 C1453 1.681 . S
C3372 C145 1.678 . S
C3381 C1506 1.684 . S
C3383 C1576 1.672 . S
C3392 C1629 1.678 . S
C3394 C1559 1.685 . S
C3403 C1682 1.668 . S
C3405 C1612 1.687 . S
C3414 C1665 1.683 . S
C3416 C1523 1.676 . S
C3425 C993 1.672 . S
C3427 C1718 1.686 . S
C3436 C1771 1.682 . S
C3438 C1046 1.679 . S
C3447 C1824 1.687 . S
C3449 C2371 1.672 . S
C3458 C1877 1.684 . S
C3460 C940 1.679 . S
C3469 C1930 1.688 . S
C3471 C1205 1.669 . S
C3480 C1983 1.684 . S
C3482 C2159 1.675 . S
C3491 C1258 1.670 . S
C3493 C2036 1.685 . S
C3502 C2089 1.685 . S
C3504 C1152 1.676 . S
C3513 C1788 1.672 . S
C3515 C2142 1.684 . S
C3524 C834 1.671 . S
C3526 C2195 1.687 . S
C3535 C675 1.676 . S
C3537 C2248 1.682 . S
C3546 C2301 1.684 . S
C3548 C728 1.671 . S
C3557 C2354 1.684 . S
C3559 C2053 1.679 . S
C3568 C622 1.673 . S
C3570 C2407 1.686 . S
C3579 C2460 1.682 . S
C3581 C463 1.676 . S
C3590 C569 1.679 . S
C3592 C2513 1.682 . S
