# Generated by pormake.
# Topology dmp, (4)-cn, num edge types: 1
# Building blocks:
#     Node 0, Type 0, BuildingBlock: ICAMEG_clean_sbu_1, # of connection points: 4
#     Node 1, Type 0, BuildingBlock: ICAMEG_clean_sbu_1, # of connection points: 4
#     Node 2, Type 0, BuildingBlock: ICAMEG_clean_sbu_1, # of connection points: 4
#     Node 3, Type 0, BuildingBlock: ICAMEG_clean_sbu_1, # of connection points: 4
#     Edge 4, Type (0, 0), BuildingBlock: CIFDUS_clean_linker_0, # of connection points: 2
#     Edge 5, Type (0, 0), BuildingBlock: CIFDUS_clean_linker_0, # of connection points: 2
#     Edge 6, Type (0, 0), BuildingBlock: CIFDUS_clean_linker_0, # of connection points: 2
#     Edge 7, Type (0, 0), BuildingBlock: CIFDUS_clean_linker_0, # of connection points: 2
#     Edge 8, Type (0, 0), BuildingBlock: CIFDUS_clean_linker_0, # of connection points: 2
#     Edge 9, Type (0, 0), BuildingBlock: CIFDUS_clean_linker_0, # of connection points: 2
#     Edge 10, Type (0, 0), BuildingBlock: CIFDUS_clean_linker_0, # of connection points: 2
#     Edge 11, Type (0, 0), BuildingBlock: CIFDUS_clean_linker_0, # of connection points: 2
# Relax obj value: 0.008
# Max RMSD: 0.067
# Mean RMSD: 0.067
data_MOF--net-dmp--node1-ICAMEG_clean_sbu_1--edge1-CIFDUS_clean_linker_0
_symmetry_space_group_name_H-M    P1
_symmetry_Int_Tables_number       1
_symmetry_cell_setting            triclinic
loop_
_symmetry_equiv_pos_as_xyz
'x, y, z'
_cell_length_a     38.031186
_cell_length_b     16.909295
_cell_length_c     16.076211
_cell_angle_alpha  89.87967
_cell_angle_beta   90.053661
_cell_angle_gamma 89.612256
loop_
_atom_site_label
_atom_site_type_symbol
_atom_site_fract_x
_atom_site_fract_y
_atom_site_fract_z
_atom_type_partial_charge
Co0 Co 0.12733 0.27105 0.13396 0.0
Co1 Co 0.13433 0.25207 0.34685 0.0
O2 O 0.10652 0.25857 0.2444 0.0
C3 C 0.08024 0.13324 0.11061 0.0
O4 O 0.0938 0.10111 0.17793 0.0
C5 C 0.0824 0.37893 0.384 0.0
O6 O 0.09069 0.4117 0.31259 0.0
O7 O 0.16025 0.3507 0.31804 0.0
O8 O 0.16384 0.34318 0.17883 0.0
H9 H 0.24498 0.2608 0.51783 0.0
H10 H 0.0511 0.30016 0.15873 0.0
O11 O 0.09094 0.20014 0.08533 0.0
H12 H 0.09756 0.54992 0.04609 0.0
H13 H 0.12359 0.30413 0.82246 0.0
H14 H 0.20019 0.27358 0.06831 0.0
H15 H 0.13683 0.43532 0.0692 0.0
H16 H 0.09802 0.29244 0.96284 0.0
O17 O 0.09754 0.31515 0.40695 0.0
H18 H 0.21007 0.26639 0.38858 0.0
H19 H 0.1164 0.22581 0.52543 0.0
H20 H 0.22686 0.28588 0.92913 0.0
H21 H 0.01077 0.41296 0.13559 0.0
H22 H 0.18846 0.30106 0.80494 0.0
H23 H 0.03395 0.53895 0.07882 0.0
O24 O 0.15955 0.17889 0.15343 0.0
H25 H 0.02726 0.08264 0.38152 0.0
H26 H 0.15653 0.09112 0.40345 0.0
H27 H 0.12553 0.96726 0.43615 0.0
H28 H 0.06041 0.96257 0.42549 0.0
H29 H 0.05934 0.20509 0.34867 0.0
H30 H 0.15026 0.22074 0.65632 0.0
H31 H 0.21504 0.238 0.65299 0.0
O32 O 0.17156 0.18856 0.28983 0.0
C33 C 0.1728 0.3732 0.24833 0.0
C34 C 0.21677 0.25298 0.52008 0.0
C35 C 0.16361 0.23057 0.5978 0.0
N36 N 0.16126 0.24598 0.44933 0.0
C37 C 0.19688 0.25585 0.44704 0.0
C38 C 0.14457 0.23372 0.52349 0.0
C39 C 0.19996 0.24025 0.59589 0.0
C40 C 0.06137 0.35469 0.13369 0.0
N41 N 0.09632 0.36109 0.11527 0.0
C42 C 0.03842 0.41843 0.12094 0.0
C43 C 0.05145 0.48915 0.08921 0.0
C44 C 0.08714 0.49534 0.07089 0.0
C45 C 0.10931 0.43038 0.0845 0.0
C46 C 0.1406 0.29762 0.8761 0.0
C47 C 0.1833 0.28077 0.01467 0.0
C48 C 0.12627 0.29076 0.95576 0.0
N49 N 0.14759 0.28272 0.02383 0.0
C50 C 0.19856 0.28748 0.93597 0.0
C51 C 0.177 0.29593 0.86631 0.0
C52 C 0.17756 0.16008 0.21775 0.0
C53 C 0.05562 0.08402 0.38664 0.0
C54 C 0.1282 0.08948 0.39835 0.0
C55 C 0.11078 0.01922 0.41714 0.0
C56 C 0.07425 0.01663 0.41119 0.0
N57 N 0.10974 0.15539 0.37457 0.0
C58 C 0.07392 0.15326 0.36842 0.0
Co59 Co 0.39119 0.76481 0.36792 0.0
Co60 Co 0.38113 0.74864 0.15496 0.0
O61 O 0.4099 0.75268 0.25548 0.0
C62 C 0.43301 0.61752 0.37605 0.0
O63 O 0.41627 0.59608 0.3084 0.0
C64 C 0.43194 0.87611 0.12 0.0
O65 O 0.42452 0.90506 0.19371 0.0
O66 O 0.35474 0.84592 0.18788 0.0
O67 O 0.35592 0.84478 0.32793 0.0
H68 H 0.2686 0.75994 0.99089 0.0
H69 H 0.46785 0.78058 0.33863 0.0
O70 O 0.42613 0.68419 0.4094 0.0
H71 H 0.42996 0.03574 0.45779 0.0
H72 H 0.40171 0.78613 0.67935 0.0
H73 H 0.31989 0.78005 0.44127 0.0
H74 H 0.3872 0.92876 0.43545 0.0
H75 H 0.42416 0.7733 0.536 0.0
O76 O 0.41664 0.81396 0.09458 0.0
H77 H 0.30483 0.763 0.11815 0.0
H78 H 0.39736 0.72731 0.97492 0.0
H79 H 0.29633 0.7937 0.58349 0.0
H80 H 0.51156 0.88572 0.36051 0.0
H81 H 0.33736 0.79671 0.70373 0.0
H82 H 0.49268 0.01439 0.42053 0.0
O83 O 0.35593 0.6796 0.35006 0.0
H84 H 0.48925 0.58177 0.10941 0.0
H85 H 0.3597 0.58878 0.09623 0.0
H86 H 0.39139 0.46613 0.05902 0.0
H87 H 0.45665 0.46218 0.06532 0.0
H88 H 0.4565 0.70297 0.14685 0.0
H89 H 0.36217 0.72461 0.84602 0.0
H90 H 0.29729 0.74076 0.85353 0.0
O91 O 0.34521 0.68349 0.21271 0.0
C92 C 0.34477 0.87228 0.2585 0.0
C93 C 0.29684 0.75264 0.98681 0.0
C94 C 0.34936 0.73291 0.90549 0.0
N95 N 0.35315 0.74488 0.05406 0.0
C96 C 0.31749 0.75411 0.05869 0.0
C97 C 0.36916 0.73469 0.97869 0.0
C98 C 0.31295 0.74194 0.90976 0.0
C99 C 0.45948 0.83625 0.36522 0.0
N100 N 0.42505 0.84839 0.38609 0.0
C101 C 0.48432 0.89565 0.37721 0.0
C102 C 0.4737 0.96788 0.41077 0.0
C103 C 0.43851 0.97991 0.43164 0.0
C104 C 0.41439 0.91921 0.41862 0.0
C105 C 0.38357 0.78502 0.62744 0.0
C106 C 0.33792 0.7819 0.49323 0.0
C107 C 0.39612 0.7776 0.54616 0.0
N108 N 0.37336 0.77648 0.4803 0.0
C109 C 0.32443 0.78938 0.57364 0.0
C110 C 0.34746 0.79098 0.64109 0.0
C111 C 0.33854 0.65872 0.28596 0.0
C112 C 0.46082 0.58284 0.10617 0.0
C113 C 0.38809 0.58746 0.09936 0.0
C114 C 0.40589 0.51789 0.07805 0.0
C115 C 0.44251 0.51572 0.08155 0.0
N116 N 0.40625 0.65312 0.12324 0.0
C117 C 0.44215 0.65141 0.12693 0.0
Co118 Co 0.88616 0.72577 0.87504 0.0
Co119 Co 0.87951 0.74576 0.66209 0.0
O120 O 0.90709 0.73938 0.76489 0.0
C121 C 0.93236 0.86497 0.89962 0.0
O122 O 0.9188 0.89701 0.83226 0.0
C123 C 0.93189 0.61983 0.62526 0.0
O124 O 0.92355 0.58686 0.69654 0.0
O125 O 0.85381 0.64661 0.6901 0.0
O126 O 0.85023 0.6526 0.82941 0.0
H127 H 0.7693 0.73599 0.48957 0.0
H128 H 0.96259 0.69935 0.85075 0.0
O129 O 0.92197 0.79766 0.92443 0.0
H130 H 0.91771 0.44762 0.96216 0.0
H131 H 0.88948 0.69139 0.18642 0.0
H132 H 0.8132 0.72042 0.93983 0.0
H133 H 0.8777 0.56096 0.93922 0.0
H134 H 0.91526 0.70465 0.04641 0.0
O135 O 0.91663 0.68344 0.60224 0.0
H136 H 0.80391 0.73054 0.61928 0.0
H137 H 0.89779 0.77286 0.48386 0.0
H138 H 0.78633 0.70648 0.07863 0.0
H139 H 1.00365 0.58787 0.87373 0.0
H140 H 0.82458 0.69206 0.20319 0.0
H141 H 0.98127 0.46089 0.92989 0.0
O142 O 0.85337 0.81697 0.85567 0.0
H143 H 0.98612 0.91708 0.62971 0.0
H144 H 0.85694 0.90655 0.60584 0.0
H145 H 0.88762 0.03106 0.57419 0.0
H146 H 0.95269 0.03679 0.58585 0.0
H147 H 0.95435 0.79395 0.66149 0.0
H148 H 0.86424 0.77781 0.35251 0.0
H149 H 0.79951 0.75961 0.3549 0.0
O150 O 0.84197 0.80847 0.71887 0.0
C151 C 0.84142 0.62305 0.75959 0.0
C152 C 0.79749 0.74423 0.48774 0.0
C153 C 0.85078 0.76762 0.41082 0.0
N154 N 0.85281 0.7518 0.55927 0.0
C155 C 0.81722 0.74143 0.56103 0.0
C156 C 0.86965 0.76453 0.48538 0.0
C157 C 0.81445 0.75741 0.4122 0.0
C158 C 0.95266 0.64438 0.8755 0.0
N159 N 0.91774 0.63671 0.89364 0.0
C160 C 0.97603 0.5814 0.88817 0.0
C161 C 0.96345 0.51012 0.91955 0.0
C162 C 0.92779 0.50264 0.93761 0.0
C163 C 0.90519 0.56688 0.92408 0.0
C164 C 0.87254 0.69756 0.13261 0.0
C165 C 0.83002 0.71356 0.99363 0.0
C166 C 0.88699 0.70531 0.05317 0.0
N167 N 0.86576 0.71292 0.98488 0.0
C168 C 0.81465 0.70592 0.07211 0.0
C169 C 0.83612 0.69789 0.14198 0.0
C170 C 0.83558 0.83612 0.79112 0.0
C171 C 0.95777 0.91525 0.62416 0.0
C172 C 0.88525 0.90864 0.61135 0.0
C173 C 0.90248 0.97927 0.59316 0.0
C174 C 0.93899 0.98243 0.59967 0.0
N175 N 0.90386 0.84292 0.63509 0.0
C176 C 0.93965 0.84562 0.64177 0.0
Co177 Co 0.62271 0.2328 0.63891 0.0
Co178 Co 0.63266 0.2489 0.85187 0.0
O179 O 0.60394 0.2453 0.75125 0.0
C180 C 0.58119 0.3805 0.63036 0.0
O181 O 0.59796 0.40194 0.69799 0.0
C182 C 0.58138 0.12245 0.8867 0.0
O183 O 0.58881 0.09333 0.81307 0.0
O184 O 0.65868 0.15107 0.81919 0.0
O185 O 0.65781 0.15249 0.67915 0.0
H186 H 0.74502 0.23521 0.01642 0.0
H187 H 0.54599 0.21785 0.66787 0.0
O188 O 0.58796 0.3137 0.59718 0.0
H189 H 0.58346 0.96215 0.54926 0.0
H190 H 0.61237 0.21125 0.32747 0.0
H191 H 0.69404 0.21676 0.56586 0.0
H192 H 0.62643 0.0687 0.57165 0.0
H193 H 0.58984 0.22443 0.47072 0.0
O194 O 0.59684 0.18437 0.91219 0.0
H195 H 0.70887 0.23289 0.88902 0.0
H196 H 0.61639 0.27082 0.03182 0.0
H197 H 0.71767 0.20274 0.42375 0.0
H198 H 0.50209 0.11315 0.64591 0.0
H199 H 0.67671 0.20002 0.30334 0.0
H200 H 0.52076 0.98421 0.58617 0.0
O201 O 0.65812 0.31766 0.65684 0.0
H202 H 0.5252 0.4181 0.8968 0.0
H203 H 0.65472 0.40837 0.91041 0.0
H204 H 0.62353 0.53174 0.94731 0.0
H205 H 0.55829 0.53706 0.94079 0.0
H206 H 0.55747 0.29616 0.85967 0.0
H207 H 0.6515 0.27281 0.16087 0.0
H208 H 0.71631 0.25515 0.15364 0.0
O209 O 0.66889 0.31326 0.79415 0.0
C210 C 0.66873 0.1247 0.74865 0.0
C211 C 0.71681 0.24318 0.02038 0.0
C212 C 0.66432 0.26418 0.10145 0.0
N213 N 0.66059 0.2522 0.95288 0.0
C214 C 0.69621 0.24214 0.94841 0.0
C215 C 0.64457 0.26282 0.02817 0.0
C216 C 0.70069 0.2543 0.09735 0.0
C217 C 0.55427 0.16206 0.6414 0.0
N218 N 0.5887 0.14954 0.62071 0.0
C219 C 0.52932 0.10291 0.62936 0.0
C220 C 0.53982 0.03053 0.59596 0.0
C221 C 0.575 0.0181 0.57528 0.0
C222 C 0.59924 0.07856 0.58834 0.0
C223 C 0.63048 0.21222 0.37945 0.0
C224 C 0.67603 0.21503 0.51384 0.0
C225 C 0.61788 0.21984 0.46067 0.0
N226 N 0.6406 0.2208 0.52662 0.0
C227 C 0.68957 0.20734 0.43349 0.0
C228 C 0.66658 0.2059 0.36594 0.0
C229 C 0.67562 0.33808 0.72094 0.0
C230 C 0.55363 0.41643 0.90014 0.0
C231 C 0.62634 0.41028 0.90719 0.0
C232 C 0.60881 0.48026 0.92833 0.0
C233 C 0.57221 0.4832 0.9247 0.0
N234 N 0.60792 0.34498 0.88336 0.0
C235 C 0.57203 0.34744 0.87956 0.0
H236 H 0.30209 0.92295 0.13126 0.0
H237 H 0.32362 0.95924 0.3924 0.0
H238 H 0.27401 0.05024 0.40184 0.0
H239 H 0.22355 0.11563 0.33864 0.0
H240 H 0.20063 0.08088 0.07811 0.0
H241 H 0.25163 0.99239 0.06635 0.0
C242 C 0.29621 0.9514 0.19005 0.0
C243 C 0.31677 0.93396 0.26099 0.0
C244 C 0.26713 0.00316 0.19558 0.0
C245 C 0.30844 0.97121 0.3367 0.0
C246 C 0.27992 0.02318 0.34235 0.0
C247 C 0.22949 0.0889 0.279 0.0
C248 C 0.20796 0.10483 0.20946 0.0
C249 C 0.25886 0.03874 0.27256 0.0
C250 C 0.21651 0.06952 0.13287 0.0
C251 C 0.24577 0.01908 0.12603 0.0
H252 H 0.21352 0.42776 0.37728 0.0
H253 H 0.19584 0.45382 0.11288 0.0
H254 H 0.24496 0.54339 0.10264 0.0
H255 H 0.2941 0.61014 0.16543 0.0
H256 H 0.31421 0.58659 0.42878 0.0
H257 H 0.26322 0.49956 0.44217 0.0
C258 C 0.22017 0.45382 0.31771 0.0
C259 C 0.20072 0.43392 0.24612 0.0
C260 C 0.2492 0.50489 0.31157 0.0
C261 C 0.21002 0.46787 0.16925 0.0
C262 C 0.23833 0.51903 0.16303 0.0
C263 C 0.28756 0.58623 0.22608 0.0
C264 C 0.30823 0.60471 0.29583 0.0
C265 C 0.25833 0.53705 0.23338 0.0
C266 C 0.29894 0.57307 0.37377 0.0
C267 C 0.2697 0.52349 0.38154 0.0
H268 H 0.71078 0.07288 0.87653 0.0
H269 H 0.69019 0.03813 0.61473 0.0
H270 H 0.7397 0.94679 0.60583 0.0
H271 H 0.78991 0.88092 0.66967 0.0
H272 H 0.8119 0.91426 0.93086 0.0
H273 H 0.76088 0.00275 0.94211 0.0
C274 C 0.71684 0.04469 0.8177 0.0
C275 C 0.69659 0.06269 0.74642 0.0
C276 C 0.74587 0.99275 0.8125 0.0
C277 C 0.70514 0.02574 0.67068 0.0
C278 C 0.73361 0.97357 0.66535 0.0
C279 C 0.78375 0.90733 0.72936 0.0
C280 C 0.80505 0.89105 0.79921 0.0
C281 C 0.75439 0.95753 0.73549 0.0
C282 C 0.79622 0.9259 0.87586 0.0
C283 C 0.76694 0.97636 0.8824 0.0
H284 H 0.80021 0.57052 0.6306 0.0
H285 H 0.81957 0.53878 0.89365 0.0
H286 H 0.77068 0.4485 0.90338 0.0
H287 H 0.72108 0.38327 0.8408 0.0
H288 H 0.69923 0.41271 0.57887 0.0
H289 H 0.7502 0.49981 0.56569 0.0
C290 C 0.79399 0.54304 0.68973 0.0
C291 C 0.81381 0.56162 0.76115 0.0
C292 C 0.76507 0.49163 0.69561 0.0
C293 C 0.80508 0.52581 0.83744 0.0
C294 C 0.7769 0.47425 0.84338 0.0
C295 C 0.72724 0.40847 0.78051 0.0
C296 C 0.70606 0.3917 0.71112 0.0
C297 C 0.75645 0.45773 0.77332 0.0
C298 C 0.7149 0.4249 0.6336 0.0
C299 C 0.74412 0.47454 0.62595 0.0
H300 H 0.05026 0.99003 0.14266 0.0
H301 H 0.04708 0.18632 0.97046 0.0
H302 H 1.00133 0.12139 0.89027 0.0
H303 H 0.96206 0.00861 0.86802 0.0
H304 H 0.96528 0.81232 0.04023 0.0
H305 H 0.0109 0.87742 0.12061 0.0
C306 C 0.03958 0.01859 0.08761 0.0
C307 C 0.05226 0.09286 0.06281 0.0
C308 C 0.01314 0.98092 0.04138 0.0
C309 C 0.03798 0.12903 0.99121 0.0
C310 C 0.01172 0.09197 0.94509 0.0
C311 C 0.9727 0.98011 0.92314 0.0
C312 C 0.96011 0.90573 0.94782 0.0
C313 C 0.9991 0.01786 0.96947 0.0
C314 C 0.97433 0.86966 0.01953 0.0
C315 C 1.00052 0.90682 0.06577 0.0
H316 H 0.54008 0.99594 0.85023 0.0
H317 H 0.56237 0.16457 0.04431 0.0
H318 H 0.51816 0.10395 0.13315 0.0
H319 H 0.4731 0.00294 0.15637 0.0
H320 H 0.45083 0.83432 0.96225 0.0
H321 H 0.49497 0.89507 0.87337 0.0
C322 C 0.53534 0.01936 0.912 0.0
C323 C 0.55463 0.08464 0.94038 0.0
C324 C 0.50977 0.98429 0.963 0.0
C325 C 0.54797 0.11434 0.02063 0.0
C326 C 0.52265 0.07973 0.07166 0.0
C327 C 0.47782 0.97958 0.09457 0.0
C328 C 0.45857 0.91421 0.06622 0.0
C329 C 0.50336 0.01471 0.04353 0.0
C330 C 0.4652 0.88458 0.98592 0.0
C331 C 0.49049 0.91927 0.93486 0.0
H332 H 0.97184 0.48793 0.65499 0.0
H333 H 0.95347 0.67158 0.47271 0.0
H334 H 0.99818 0.61388 0.38243 0.0
H335 H 0.04261 0.51113 0.35444 0.0
H336 H 0.06095 0.32748 0.53675 0.0
H337 H 0.01631 0.38531 0.62709 0.0
C338 C 0.97756 0.51532 0.59551 0.0
C339 C 0.95918 0.58397 0.57091 0.0
C340 C 1.00342 0.48185 0.54356 0.0
C341 C 0.96711 0.61869 0.49352 0.0
C342 C 0.99273 0.58574 0.44163 0.0
C343 C 0.0369 0.48378 0.41396 0.0
C344 C 0.05524 0.41506 0.43851 0.0
C345 C 0.01107 0.51731 0.46594 0.0
C346 C 0.04734 0.38041 0.51595 0.0
C347 C 0.02175 0.41344 0.56788 0.0
H348 H 0.4708 0.64087 0.51803 0.0
H349 H 0.45616 0.47481 0.31745 0.0
H350 H 0.50051 0.38713 0.37826 0.0
H351 H 0.54347 0.35727 0.48828 0.0
H352 H 0.55812 0.52333 0.68887 0.0
H353 H 0.51379 0.61105 0.62801 0.0
C354 C 0.47728 0.58552 0.48752 0.0
C355 C 0.46004 0.56454 0.41329 0.0
C356 C 0.50286 0.53523 0.52281 0.0
C357 C 0.46886 0.4925 0.37473 0.0
C358 C 0.49429 0.44224 0.40944 0.0
C359 C 0.537 0.41264 0.51878 0.0
C360 C 0.55423 0.43359 0.59304 0.0
C361 C 0.51144 0.46295 0.48347 0.0
C362 C 0.54542 0.50565 0.63156 0.0
C363 C 0.52002 0.55593 0.59684 0.0
loop_
_geom_bond_atom_site_label_1
_geom_bond_atom_site_label_2
_geom_bond_distance
_geom_bond_site_symmetry_2
_ccdc_geom_bond_type
Co0 O2 2.143 . S
Co0 O8 2.074 . S
Co0 O11 2.093 . S
Co0 O24 2.097 . S
Co0 N41 2.151 . S
Co0 N49 2.214 . S
Co1 O2 2.160 . S
Co1 O7 2.058 . S
Co1 O17 2.057 . S
Co1 O32 2.037 . S
Co1 N36 2.145 . S
Co1 N57 2.257 . S
O2 Co0 2.143 . S
O2 Co1 2.160 . S
C3 O4 1.278 . S
C3 O11 1.224 . S
O4 C3 1.278 . S
C5 O6 1.245 . S
C5 O17 1.232 . S
O6 C5 1.245 . S
O7 Co1 2.058 . S
O7 C33 1.269 . S
O8 Co0 2.074 . S
O8 C33 1.257 . S
H9 C34 0.930 . S
H10 C40 0.930 . S
O11 Co0 2.093 . S
O11 C3 1.224 . S
H12 C44 0.929 . S
H13 C46 0.930 . S
H14 C47 0.930 . S
H15 C45 0.929 . S
H16 C48 0.928 . S
O17 Co1 2.057 . S
O17 C5 1.232 . S
H18 C37 0.929 . S
H19 C38 0.929 . S
H20 C50 0.931 . S
H21 C42 0.929 1_556 S
H22 C51 0.930 . S
H23 C43 0.931 . S
O24 Co0 2.097 . S
O24 C52 1.214 . S
H25 C53 0.929 . S
H26 C54 0.929 . S
H27 C55 0.930 1_565 S
H28 C56 0.929 1_565 S
H29 C58 0.930 . S
H30 C35 0.930 . S
H31 C39 0.930 . S
O32 Co1 2.037 . S
O32 C52 1.234 . S
C33 O7 1.269 . S
C33 O8 1.257 . S
C34 H9 0.930 . S
C34 C37 1.388 . S
C34 C39 1.418 . S
C35 H30 0.930 . S
C35 C38 1.404 . S
C35 C39 1.353 . S
N36 Co1 2.145 . S
N36 C37 1.397 . S
N36 C38 1.334 . S
C37 H18 0.929 . S
C37 C34 1.388 . S
C37 N36 1.397 . S
C38 H19 0.929 . S
C38 C35 1.404 . S
C38 N36 1.334 . S
C39 H31 0.930 . S
C39 C34 1.418 . S
C39 C35 1.353 . S
C40 H10 0.930 . S
C40 N41 1.330 . S
C40 C42 1.446 . S
N41 Co0 2.151 . S
N41 C40 1.330 . S
N41 C45 1.418 . S
C42 H21 0.929 1_554 S
C42 C40 1.446 . S
C42 C43 1.332 1_554 S
C43 H23 0.931 . S
C43 C42 1.332 1_556 S
C43 C44 1.267 . S
C44 H12 0.929 . S
C44 C43 1.267 . S
C44 C45 1.251 1_556 S
C45 H15 0.929 . S
C45 N41 1.418 . S
C45 C44 1.251 1_554 S
C46 H13 0.930 . S
C46 C48 1.406 . S
C46 C51 1.261 . S
C47 H14 0.930 . S
C47 N49 1.325 . S
C47 C50 1.357 1_554 S
C48 H16 0.928 . S
C48 C46 1.406 . S
C48 N49 1.261 1_556 S
N49 Co0 2.214 . S
N49 C47 1.325 . S
N49 C48 1.261 1_554 S
C50 H20 0.931 . S
C50 C47 1.357 1_556 S
C50 C51 1.312 . S
C51 H22 0.930 . S
C51 C46 1.261 . S
C51 C50 1.312 . S
C52 O24 1.214 . S
C52 O32 1.234 . S
C53 H25 0.929 . S
C53 C56 1.391 . S
C53 C58 1.391 . S
C54 H26 0.929 . S
C54 C55 1.390 . S
C54 N57 1.391 . S
C55 H27 0.930 1_545 S
C55 C54 1.390 . S
C55 C56 1.392 . S
C56 H28 0.929 1_545 S
C56 C53 1.391 . S
C56 C55 1.392 . S
N57 Co1 2.257 . S
N57 C54 1.391 . S
N57 C58 1.388 . S
C58 H29 0.930 . S
C58 C53 1.391 . S
C58 N57 1.388 . S
Co59 O61 2.143 . S
Co59 O67 2.074 . S
Co59 O70 2.093 . S
Co59 O83 2.097 . S
Co59 N100 2.151 . S
Co59 N108 2.214 . S
Co60 O61 2.160 . S
Co60 O66 2.058 . S
Co60 O76 2.057 . S
Co60 O91 2.037 . S
Co60 N95 2.145 . S
Co60 N116 2.257 . S
O61 Co59 2.143 . S
O61 Co60 2.160 . S
C62 O63 1.278 . S
C62 O70 1.224 . S
O63 C62 1.278 . S
C64 O65 1.245 . S
C64 O76 1.232 . S
O65 C64 1.245 . S
O66 Co60 2.058 . S
O66 C92 1.269 . S
O67 Co59 2.074 . S
O67 C92 1.257 . S
H68 C93 0.930 . S
H69 C99 0.930 . S
O70 Co59 2.093 . S
O70 C62 1.224 . S
H71 C103 0.929 . S
H72 C105 0.930 . S
H73 C106 0.930 . S
H74 C104 0.929 . S
H75 C107 0.928 . S
O76 Co60 2.057 . S
O76 C64 1.232 . S
H77 C96 0.929 . S
H78 C97 0.929 . S
H79 C109 0.931 . S
H80 C101 0.929 . S
H81 C110 0.930 . S
H82 C102 0.931 . S
O83 Co59 2.097 . S
O83 C111 1.214 . S
H84 C112 0.929 . S
H85 C113 0.929 . S
H86 C114 0.930 . S
H87 C115 0.929 . S
H88 C117 0.930 . S
H89 C94 0.930 . S
H90 C98 0.930 . S
O91 Co60 2.037 . S
O91 C111 1.234 . S
C92 O66 1.269 . S
C92 O67 1.257 . S
C93 H68 0.930 . S
C93 C96 1.388 1_556 S
C93 C98 1.418 . S
C94 H89 0.930 . S
C94 C97 1.404 . S
C94 C98 1.353 . S
N95 Co60 2.145 . S
N95 C96 1.397 . S
N95 C97 1.334 1_554 S
C96 H77 0.929 . S
C96 C93 1.388 1_554 S
C96 N95 1.397 . S
C97 H78 0.929 . S
C97 C94 1.404 . S
C97 N95 1.334 1_556 S
C98 H90 0.930 . S
C98 C93 1.418 . S
C98 C94 1.353 . S
C99 H69 0.930 . S
C99 N100 1.330 . S
C99 C101 1.446 . S
N100 Co59 2.151 . S
N100 C99 1.330 . S
N100 C104 1.418 . S
C101 H80 0.929 . S
C101 C99 1.446 . S
C101 C102 1.332 . S
C102 H82 0.931 . S
C102 C101 1.332 . S
C102 C103 1.267 . S
C103 H71 0.929 . S
C103 C102 1.267 . S
C103 C104 1.251 . S
C104 H74 0.929 . S
C104 N100 1.418 . S
C104 C103 1.251 . S
C105 H72 0.930 . S
C105 C107 1.406 . S
C105 C110 1.261 . S
C106 H73 0.930 . S
C106 N108 1.325 . S
C106 C109 1.357 . S
C107 H75 0.928 . S
C107 C105 1.406 . S
C107 N108 1.261 . S
N108 Co59 2.214 . S
N108 C106 1.325 . S
N108 C107 1.261 . S
C109 H79 0.931 . S
C109 C106 1.357 . S
C109 C110 1.312 . S
C110 H81 0.930 . S
C110 C105 1.261 . S
C110 C109 1.312 . S
C111 O83 1.214 . S
C111 O91 1.234 . S
C112 H84 0.929 . S
C112 C115 1.391 . S
C112 C117 1.391 . S
C113 H85 0.929 . S
C113 C114 1.390 . S
C113 N116 1.391 . S
C114 H86 0.930 . S
C114 C113 1.390 . S
C114 C115 1.392 . S
C115 H87 0.929 . S
C115 C112 1.391 . S
C115 C114 1.392 . S
N116 Co60 2.257 . S
N116 C113 1.391 . S
N116 C117 1.388 . S
C117 H88 0.930 . S
C117 C112 1.391 . S
C117 N116 1.388 . S
Co118 O120 2.143 . S
Co118 O126 2.074 . S
Co118 O129 2.093 . S
Co118 O142 2.097 . S
Co118 N159 2.151 . S
Co118 N167 2.214 . S
Co119 O120 2.160 . S
Co119 O125 2.058 . S
Co119 O135 2.057 . S
Co119 O150 2.037 . S
Co119 N154 2.145 . S
Co119 N175 2.257 . S
O120 Co118 2.143 . S
O120 Co119 2.160 . S
C121 O122 1.278 . S
C121 O129 1.224 . S
O122 C121 1.278 . S
C123 O124 1.245 . S
C123 O135 1.232 . S
O124 C123 1.245 . S
O125 Co119 2.058 . S
O125 C151 1.269 . S
O126 Co118 2.074 . S
O126 C151 1.257 . S
H127 C152 0.930 . S
H128 C158 0.930 . S
O129 Co118 2.093 . S
O129 C121 1.224 . S
H130 C162 0.929 . S
H131 C164 0.930 . S
H132 C165 0.930 . S
H133 C163 0.929 . S
H134 C166 0.928 . S
O135 Co119 2.057 . S
O135 C123 1.232 . S
H136 C155 0.929 . S
H137 C156 0.929 . S
H138 C168 0.931 . S
H139 C160 0.929 1_554 S
H140 C169 0.930 . S
H141 C161 0.931 . S
O142 Co118 2.097 . S
O142 C170 1.214 . S
H143 C171 0.929 . S
H144 C172 0.929 . S
H145 C173 0.930 1_545 S
H146 C174 0.929 1_545 S
H147 C176 0.930 . S
H148 C153 0.930 . S
H149 C157 0.930 . S
O150 Co119 2.037 . S
O150 C170 1.234 . S
C151 O125 1.269 . S
C151 O126 1.257 . S
C152 H127 0.930 . S
C152 C155 1.388 . S
C152 C157 1.418 . S
C153 H148 0.930 . S
C153 C156 1.404 . S
C153 C157 1.353 . S
N154 Co119 2.145 . S
N154 C155 1.397 . S
N154 C156 1.334 . S
C155 H136 0.929 . S
C155 C152 1.388 . S
C155 N154 1.397 . S
C156 H137 0.929 . S
C156 C153 1.404 . S
C156 N154 1.334 . S
C157 H149 0.930 . S
C157 C152 1.418 . S
C157 C153 1.353 . S
C158 H128 0.930 . S
C158 N159 1.330 . S
C158 C160 1.446 . S
N159 Co118 2.151 . S
N159 C158 1.330 . S
N159 C163 1.418 . S
C160 H139 0.929 1_556 S
C160 C158 1.446 . S
C160 C161 1.332 1_556 S
C161 H141 0.931 . S
C161 C160 1.332 1_554 S
C161 C162 1.267 . S
C162 H130 0.929 . S
C162 C161 1.267 . S
C162 C163 1.251 1_554 S
C163 H133 0.929 . S
C163 N159 1.418 . S
C163 C162 1.251 1_556 S
C164 H131 0.930 . S
C164 C166 1.406 . S
C164 C169 1.261 . S
C165 H132 0.930 . S
C165 N167 1.325 . S
C165 C168 1.357 1_556 S
C166 H134 0.928 . S
C166 C164 1.406 . S
C166 N167 1.261 1_554 S
N167 Co118 2.214 . S
N167 C165 1.325 . S
N167 C166 1.261 1_556 S
C168 H138 0.931 . S
C168 C165 1.357 1_554 S
C168 C169 1.312 . S
C169 H140 0.930 . S
C169 C164 1.261 . S
C169 C168 1.312 . S
C170 O142 1.214 . S
C170 O150 1.234 . S
C171 H143 0.929 . S
C171 C174 1.391 . S
C171 C176 1.391 . S
C172 H144 0.929 . S
C172 C173 1.390 . S
C172 N175 1.391 . S
C173 H145 0.930 1_565 S
C173 C172 1.390 . S
C173 C174 1.392 . S
C174 H146 0.929 1_565 S
C174 C171 1.391 . S
C174 C173 1.392 . S
N175 Co119 2.257 . S
N175 C172 1.391 . S
N175 C176 1.388 . S
C176 H147 0.930 . S
C176 C171 1.391 . S
C176 N175 1.388 . S
Co177 O179 2.143 . S
Co177 O185 2.074 . S
Co177 O188 2.093 . S
Co177 O201 2.097 . S
Co177 N218 2.151 . S
Co177 N226 2.214 . S
Co178 O179 2.160 . S
Co178 O184 2.058 . S
Co178 O194 2.057 . S
Co178 O209 2.037 . S
Co178 N213 2.145 . S
Co178 N234 2.257 . S
O179 Co177 2.143 . S
O179 Co178 2.160 . S
C180 O181 1.278 . S
C180 O188 1.224 . S
O181 C180 1.278 . S
C182 O183 1.245 . S
C182 O194 1.232 . S
O183 C182 1.245 . S
O184 Co178 2.058 . S
O184 C210 1.269 . S
O185 Co177 2.074 . S
O185 C210 1.257 . S
H186 C211 0.930 . S
H187 C217 0.930 . S
O188 Co177 2.093 . S
O188 C180 1.224 . S
H189 C221 0.929 . S
H190 C223 0.930 . S
H191 C224 0.930 . S
H192 C222 0.929 . S
H193 C225 0.928 . S
O194 Co178 2.057 . S
O194 C182 1.232 . S
H195 C214 0.929 . S
H196 C215 0.929 . S
H197 C227 0.931 . S
H198 C219 0.929 . S
H199 C228 0.930 . S
H200 C220 0.931 . S
O201 Co177 2.097 . S
O201 C229 1.214 . S
H202 C230 0.929 . S
H203 C231 0.929 . S
H204 C232 0.930 . S
H205 C233 0.929 . S
H206 C235 0.930 . S
H207 C212 0.930 . S
H208 C216 0.930 . S
O209 Co178 2.037 . S
O209 C229 1.234 . S
C210 O184 1.269 . S
C210 O185 1.257 . S
C211 H186 0.930 . S
C211 C214 1.388 1_554 S
C211 C216 1.418 . S
C212 H207 0.930 . S
C212 C215 1.404 . S
C212 C216 1.353 . S
N213 Co178 2.145 . S
N213 C214 1.397 . S
N213 C215 1.334 1_556 S
C214 H195 0.929 . S
C214 C211 1.388 1_556 S
C214 N213 1.397 . S
C215 H196 0.929 . S
C215 C212 1.404 . S
C215 N213 1.334 1_554 S
C216 H208 0.930 . S
C216 C211 1.418 . S
C216 C212 1.353 . S
C217 H187 0.930 . S
C217 N218 1.330 . S
C217 C219 1.446 . S
N218 Co177 2.151 . S
N218 C217 1.330 . S
N218 C222 1.418 . S
C219 H198 0.929 . S
C219 C217 1.446 . S
C219 C220 1.332 . S
C220 H200 0.931 . S
C220 C219 1.332 . S
C220 C221 1.267 . S
C221 H189 0.929 . S
C221 C220 1.267 . S
C221 C222 1.251 . S
C222 H192 0.929 . S
C222 N218 1.418 . S
C222 C221 1.251 . S
C223 H190 0.930 . S
C223 C225 1.406 . S
C223 C228 1.261 . S
C224 H191 0.930 . S
C224 N226 1.325 . S
C224 C227 1.357 . S
C225 H193 0.928 . S
C225 C223 1.406 . S
C225 N226 1.261 . S
N226 Co177 2.214 . S
N226 C224 1.325 . S
N226 C225 1.261 . S
C227 H197 0.931 . S
C227 C224 1.357 . S
C227 C228 1.312 . S
C228 H199 0.930 . S
C228 C223 1.261 . S
C228 C227 1.312 . S
C229 O201 1.214 . S
C229 O209 1.234 . S
C230 H202 0.929 . S
C230 C233 1.391 . S
C230 C235 1.391 . S
C231 H203 0.929 . S
C231 C232 1.390 . S
C231 N234 1.391 . S
C232 H204 0.930 . S
C232 C231 1.390 . S
C232 C233 1.392 . S
C233 H205 0.929 . S
C233 C230 1.391 . S
C233 C232 1.392 . S
N234 Co178 2.257 . S
N234 C231 1.391 . S
N234 C235 1.388 . S
C235 H206 0.930 . S
C235 C230 1.391 . S
C235 N234 1.388 . S
H236 C242 0.930 . S
H237 C245 0.928 1_545 S
H238 C246 0.930 . S
H239 C247 0.930 . S
H240 C250 0.928 1_565 S
H241 C251 0.930 . S
C242 H236 0.930 . S
C242 C243 1.355 . S
C242 C244 1.415 . S
C243 C242 1.355 . S
C243 C245 1.419 . S
C244 C242 1.415 . S
C244 C249 1.425 1_565 S
C244 C251 1.409 . S
C245 H237 0.928 1_565 S
C245 C243 1.419 . S
C245 C246 1.362 1_565 S
C246 H238 0.930 . S
C246 C245 1.362 1_545 S
C246 C249 1.409 . S
C247 H239 0.930 . S
C247 C248 1.355 . S
C247 C249 1.415 . S
C248 C247 1.355 . S
C248 C250 1.419 . S
C249 C244 1.425 1_545 S
C249 C246 1.409 . S
C249 C247 1.415 . S
C250 H240 0.928 1_545 S
C250 C248 1.419 . S
C250 C251 1.362 1_545 S
C251 H241 0.930 . S
C251 C244 1.409 . S
C251 C250 1.362 1_565 S
H252 C258 0.930 . S
H253 C261 0.930 . S
H254 C262 0.930 . S
H255 C263 0.930 . S
H256 C266 0.930 . S
H257 C267 0.930 . S
C258 H252 0.930 . S
C258 C259 1.355 . S
C258 C260 1.415 . S
C259 C258 1.355 . S
C259 C261 1.419 . S
C260 C258 1.415 . S
C260 C265 1.425 . S
C260 C267 1.409 . S
C261 H253 0.930 . S
C261 C259 1.419 . S
C261 C262 1.362 . S
C262 H254 0.930 . S
C262 C261 1.362 . S
C262 C265 1.409 . S
C263 H255 0.930 . S
C263 C264 1.355 . S
C263 C265 1.415 . S
C264 C263 1.355 . S
C264 C266 1.419 . S
C265 C260 1.425 . S
C265 C262 1.409 . S
C265 C263 1.415 . S
C266 H256 0.930 . S
C266 C264 1.419 . S
C266 C267 1.362 . S
C267 H257 0.930 . S
C267 C260 1.409 . S
C267 C266 1.362 . S
H268 C274 0.930 . S
H269 C277 0.930 . S
H270 C278 0.930 . S
H271 C279 0.930 . S
H272 C282 0.930 . S
H273 C283 0.930 . S
C274 H268 0.930 . S
C274 C275 1.355 . S
C274 C276 1.415 1_545 S
C275 C274 1.355 . S
C275 C277 1.419 . S
C276 C274 1.415 1_565 S
C276 C281 1.425 1_565 S
C276 C283 1.409 . S
C277 H269 0.930 . S
C277 C275 1.419 . S
C277 C278 1.362 . S
C278 H270 0.930 . S
C278 C277 1.362 . S
C278 C281 1.409 . S
C279 H271 0.930 . S
C279 C280 1.355 . S
C279 C281 1.415 1_565 S
C280 C279 1.355 . S
C280 C282 1.419 . S
C281 C276 1.425 1_545 S
C281 C278 1.409 . S
C281 C279 1.415 1_545 S
C282 H272 0.930 . S
C282 C280 1.419 . S
C282 C283 1.362 . S
C283 H273 0.930 . S
C283 C276 1.409 . S
C283 C282 1.362 . S
H284 C290 0.930 . S
H285 C293 0.930 . S
H286 C294 0.930 . S
H287 C295 0.930 . S
H288 C298 0.930 . S
H289 C299 0.930 . S
C290 H284 0.930 . S
C290 C291 1.355 . S
C290 C292 1.415 . S
C291 C290 1.355 . S
C291 C293 1.419 . S
C292 C290 1.415 . S
C292 C297 1.425 . S
C292 C299 1.409 . S
C293 H285 0.930 . S
C293 C291 1.419 . S
C293 C294 1.362 . S
C294 H286 0.930 . S
C294 C293 1.362 . S
C294 C297 1.409 . S
C295 H287 0.930 . S
C295 C296 1.355 . S
C295 C297 1.415 . S
C296 C295 1.355 . S
C296 C298 1.419 . S
C297 C292 1.425 . S
C297 C294 1.409 . S
C297 C295 1.415 . S
C298 H288 0.930 . S
C298 C296 1.419 . S
C298 C299 1.362 . S
C299 H289 0.930 . S
C299 C292 1.409 . S
C299 C298 1.362 . S
H300 C306 0.930 1_655 S
H301 C309 0.930 . S
H302 C310 0.930 . S
H303 C311 0.930 1_455 S
H304 C314 0.930 . S
H305 C315 0.930 . S
C306 H300 0.930 1_455 S
C306 C307 1.355 . S
C306 C308 1.415 1_455 S
C307 C306 1.355 . S
C307 C309 1.419 . S
C308 C306 1.415 1_655 S
C308 C313 1.425 1_644 S
C308 C315 1.409 . S
C309 H301 0.930 . S
C309 C307 1.419 . S
C309 C310 1.362 1_544 S
C310 H302 0.930 . S
C310 C309 1.362 1_566 S
C310 C313 1.409 . S
C311 H303 0.930 1_655 S
C311 C312 1.355 . S
C311 C313 1.415 1_655 S
C312 C311 1.355 . S
C312 C314 1.419 . S
C313 C308 1.425 1_466 S
C313 C310 1.409 . S
C313 C311 1.415 1_455 S
C314 H304 0.930 . S
C314 C312 1.419 . S
C314 C315 1.362 1_566 S
C315 H305 0.930 . S
C315 C308 1.409 . S
C315 C314 1.362 1_544 S
H316 C322 0.930 . S
H317 C325 0.930 . S
H318 C326 0.930 . S
H319 C327 0.930 . S
H320 C330 0.930 . S
H321 C331 0.930 . S
C322 H316 0.930 . S
C322 C323 1.355 . S
C322 C324 1.415 . S
C323 C322 1.355 . S
C323 C325 1.419 . S
C324 C322 1.415 . S
C324 C329 1.425 1_546 S
C324 C331 1.409 . S
C325 H317 0.930 . S
C325 C323 1.419 . S
C325 C326 1.362 1_546 S
C326 H318 0.930 . S
C326 C325 1.362 1_564 S
C326 C329 1.409 . S
C327 H319 0.930 . S
C327 C328 1.355 . S
C327 C329 1.415 . S
C328 C327 1.355 . S
C328 C330 1.419 . S
C329 C324 1.425 1_564 S
C329 C326 1.409 . S
C329 C327 1.415 . S
C330 H320 0.930 . S
C330 C328 1.419 . S
C330 C331 1.362 1_564 S
C331 H321 0.930 . S
C331 C324 1.409 . S
C331 C330 1.362 1_546 S
H332 C338 0.930 1_455 S
H333 C341 0.930 . S
H334 C342 0.930 . S
H335 C343 0.930 1_655 S
H336 C346 0.930 . S
H337 C347 0.930 . S
C338 H332 0.930 1_655 S
C338 C339 1.355 . S
C338 C340 1.415 1_655 S
C339 C338 1.355 . S
C339 C341 1.419 . S
C340 C338 1.415 1_455 S
C340 C345 1.425 1_455 S
C340 C347 1.409 . S
C341 H333 0.930 . S
C341 C339 1.419 . S
C341 C342 1.362 . S
C342 H334 0.930 . S
C342 C341 1.362 . S
C342 C345 1.409 . S
C343 H335 0.930 1_455 S
C343 C344 1.355 . S
C343 C345 1.415 1_455 S
C344 C343 1.355 . S
C344 C346 1.419 . S
C345 C340 1.425 1_655 S
C345 C342 1.409 . S
C345 C343 1.415 1_655 S
C346 H336 0.930 . S
C346 C344 1.419 . S
C346 C347 1.362 . S
C347 H337 0.930 . S
C347 C340 1.409 . S
C347 C346 1.362 . S
H348 C354 0.930 . S
H349 C357 0.930 . S
H350 C358 0.930 . S
H351 C359 0.930 . S
H352 C362 0.930 . S
H353 C363 0.930 . S
C354 H348 0.930 . S
C354 C355 1.355 . S
C354 C356 1.415 . S
C355 C354 1.355 . S
C355 C357 1.419 . S
C356 C354 1.415 . S
C356 C361 1.425 . S
C356 C363 1.409 . S
C357 H349 0.930 . S
C357 C355 1.419 . S
C357 C358 1.362 . S
C358 H350 0.930 . S
C358 C357 1.362 . S
C358 C361 1.409 . S
C359 H351 0.930 . S
C359 C360 1.355 . S
C359 C361 1.415 . S
C360 C359 1.355 . S
C360 C362 1.419 . S
C361 C356 1.425 . S
C361 C358 1.409 . S
C361 C359 1.415 . S
C362 H352 0.930 . S
C362 C360 1.419 . S
C362 C363 1.362 . S
C363 H353 0.930 . S
C363 C356 1.409 . S
C363 C362 1.362 . S
C243 C92 1.352 . S
C248 C52 1.347 . S
C259 C33 1.333 . S
C264 C111 1.338 . S
C275 C210 1.335 . S
C280 C170 1.337 . S
C291 C151 1.354 . S
C296 C229 1.342 . S
C307 C3 1.459 . S
C312 C121 1.459 . S
C323 C182 1.488 . S
C328 C64 1.488 . S
C339 C123 1.491 . S
C344 C5 1.491 . S
C355 C62 1.500 . S
C360 C180 1.500 . S
