# Generated by pormake.
# Topology irl, (4)-cn, num edge types: 1
# Building blocks:
#     Node 0, Type 0, BuildingBlock: ESEHIV_clean_sbu_0, # of connection points: 4
#     Node 1, Type 0, BuildingBlock: ESEHIV_clean_sbu_0, # of connection points: 4
#     Node 2, Type 0, BuildingBlock: ESEHIV_clean_sbu_0, # of connection points: 4
#     Node 3, Type 0, BuildingBlock: ESEHIV_clean_sbu_0, # of connection points: 4
#     Node 4, Type 0, BuildingBlock: ESEHIV_clean_sbu_0, # of connection points: 4
#     Node 5, Type 0, BuildingBlock: ESEHIV_clean_sbu_0, # of connection points: 4
#     Node 6, Type 0, BuildingBlock: ESEHIV_clean_sbu_0, # of connection points: 4
#     Node 7, Type 0, BuildingBlock: ESEHIV_clean_sbu_0, # of connection points: 4
#     Edge 8, Type (0, 0), BuildingBlock: TEMPAE_clean_linker_10, # of connection points: 2
#     Edge 9, Type (0, 0), BuildingBlock: TEMPAE_clean_linker_10, # of connection points: 2
#     Edge 10, Type (0, 0), BuildingBlock: TEMPAE_clean_linker_10, # of connection points: 2
#     Edge 11, Type (0, 0), BuildingBlock: TEMPAE_clean_linker_10, # of connection points: 2
#     Edge 12, Type (0, 0), BuildingBlock: TEMPAE_clean_linker_10, # of connection points: 2
#     Edge 13, Type (0, 0), BuildingBlock: TEMPAE_clean_linker_10, # of connection points: 2
#     Edge 14, Type (0, 0), BuildingBlock: TEMPAE_clean_linker_10, # of connection points: 2
#     Edge 15, Type (0, 0), BuildingBlock: TEMPAE_clean_linker_10, # of connection points: 2
#     Edge 16, Type (0, 0), BuildingBlock: TEMPAE_clean_linker_10, # of connection points: 2
#     Edge 17, Type (0, 0), BuildingBlock: TEMPAE_clean_linker_10, # of connection points: 2
#     Edge 18, Type (0, 0), BuildingBlock: TEMPAE_clean_linker_10, # of connection points: 2
#     Edge 19, Type (0, 0), BuildingBlock: TEMPAE_clean_linker_10, # of connection points: 2
#     Edge 20, Type (0, 0), BuildingBlock: TEMPAE_clean_linker_10, # of connection points: 2
#     Edge 21, Type (0, 0), BuildingBlock: TEMPAE_clean_linker_10, # of connection points: 2
#     Edge 22, Type (0, 0), BuildingBlock: TEMPAE_clean_linker_10, # of connection points: 2
#     Edge 23, Type (0, 0), BuildingBlock: TEMPAE_clean_linker_10, # of connection points: 2
# Relax obj value: 0.080
# Max RMSD: 0.129
# Mean RMSD: 0.129
data_MOF--net-irl--node1-ESEHIV_clean_sbu_0--edge1-TEMPAE_clean_linker_10
_symmetry_space_group_name_H-M    P1
_symmetry_Int_Tables_number       1
_symmetry_cell_setting            triclinic
loop_
_symmetry_equiv_pos_as_xyz
'x, y, z'
_cell_length_a     10.596263
_cell_length_b     67.182787
_cell_length_c     29.851622
_cell_angle_alpha  89.665763
_cell_angle_beta   90.043408
_cell_angle_gamma 89.887921
loop_
_atom_site_label
_atom_site_type_symbol
_atom_site_fract_x
_atom_site_fract_y
_atom_site_fract_z
_atom_type_partial_charge
Cu0 Cu 0.97005 0.16687 0.02 0.0
N1 N 0.85073 0.14785 1.00338 0.0
N2 N 0.8192 0.11543 0.98919 0.0
C3 C 0.86674 0.12897 0.01786 0.0
C4 C 0.7683 0.12634 0.95553 0.0
C5 C 0.78865 0.1463 0.9642 0.0
O6 O 0.99071 0.16344 0.08514 0.0
C7 C 0.13778 0.1711 0.9469 0.0
O8 O 0.15558 0.18998 0.95591 0.0
H9 H 0.92928 0.12519 0.04533 0.0
H10 H 0.77486 0.15841 0.94069 0.0
N11 N 0.93079 0.19381 1.00925 0.0
N12 N 0.9757 0.22641 1.00288 0.0
C13 C 0.00493 0.20892 0.02308 0.0
C14 C 0.84901 0.20208 0.9801 0.0
C15 C 0.87617 0.22215 0.97621 0.0
C16 C 0.88747 0.16582 0.10672 0.0
O17 O 0.78584 0.17063 0.08378 0.0
H18 H 0.08685 0.20659 0.04415 0.0
H19 H 0.78005 0.19393 0.96086 0.0
O20 O 0.10526 0.1594 0.97871 0.0
H21 H 0.72979 0.12037 0.92485 0.0
H22 H 0.82948 0.23255 0.95386 0.0
Cu23 Cu 0.02522 0.91559 0.03003 0.0
N24 N 0.10616 0.93964 0.01543 0.0
N25 N 0.10983 0.97254 1.00171 0.0
C26 C 0.04146 0.95689 0.01654 0.0
C27 C 0.22373 0.96471 0.99117 0.0
C28 C 0.22104 0.94436 0.99949 0.0
O29 O 0.97498 0.91786 0.09259 0.0
C30 C 0.95671 0.91067 0.94574 0.0
O31 O 0.08063 0.91069 0.94528 0.0
H32 H 0.94475 0.95777 0.02794 0.0
H33 H 0.29602 0.93378 0.99333 0.0
N34 N 0.11248 0.89121 0.02716 0.0
N35 N 0.11756 0.85779 0.02659 0.0
C36 C 0.04883 0.87432 0.01835 0.0
C37 C 0.22691 0.88521 0.04156 0.0
C38 C 0.23023 0.86456 0.04127 0.0
C39 C 0.06905 0.92199 0.11768 0.0
O40 O 0.17917 0.925 0.09866 0.0
H41 H 0.94989 0.87418 1.0093 0.0
H42 H 0.29982 0.895 0.05391 0.0
O43 O 0.89928 0.91306 0.98295 0.0
H44 H 0.3023 0.97291 0.97719 0.0
H45 H 0.30776 0.85528 0.05252 0.0
Cu46 Cu 0.90213 0.89754 0.52843 0.0
N47 N 0.796 0.91946 0.51751 0.0
N48 N 0.76511 0.95238 0.51008 0.0
C49 C 0.84696 0.93712 0.50591 0.0
C50 C 0.65695 0.94396 0.52477 0.0
C51 C 0.67614 0.92361 0.52924 0.0
O52 O 0.0319 0.90117 0.48307 0.0
C53 C 0.85243 0.89524 0.61685 0.0
O54 O 0.74643 0.88966 0.59791 0.0
H55 H 0.94623 0.93898 0.49848 0.0
H56 H 0.61026 0.91294 0.54302 0.0
N57 N 0.84088 0.87151 0.52023 0.0
N58 N 0.85585 0.83823 0.51723 0.0
C59 C 0.91238 0.85536 0.52937 0.0
C60 C 0.73411 0.8644 0.50189 0.0
C61 C 0.74342 0.84384 0.4998 0.0
C62 C 0.98404 0.8988 0.44421 0.0
O63 O 0.86495 0.89371 0.44087 0.0
H64 H 0.00674 0.85629 0.54311 0.0
H65 H 0.65692 0.8735 0.48973 0.0
O66 O 0.94608 0.89946 0.59161 0.0
H67 H 0.57209 0.95202 0.53363 0.0
H68 H 0.67335 0.83383 0.48624 0.0
Cu69 Cu 0.93742 0.15198 0.52834 0.0
N70 N 0.0307 0.12837 0.52018 0.0
N71 N 0.04865 0.09528 0.51246 0.0
C72 C 0.96975 0.11103 0.51384 0.0
C73 C 0.16513 0.10304 0.5182 0.0
C74 C 0.1539 0.12352 0.52271 0.0
O75 O 0.82128 0.15189 0.4769 0.0
C76 C 0.98526 0.15102 0.61674 0.0
O77 O 0.0955 0.15261 0.59697 0.0
H78 H 0.86794 0.10996 0.51203 0.0
H79 H 0.22957 0.13397 0.52855 0.0
N80 N 0.01144 0.1772 0.52204 0.0
N81 N 0.99064 0.21034 0.51443 0.0
C82 C 0.94129 0.19341 0.5314 0.0
C83 C 0.11069 0.18407 0.49849 0.0
C84 C 0.09804 0.20455 0.49376 0.0
C85 C 0.88472 0.15089 0.44037 0.0
O86 O 0.0081 0.14955 0.44257 0.0
H87 H 0.84894 0.19244 0.54674 0.0
H88 H 0.18146 0.17479 0.48289 0.0
O89 O 0.88642 0.15086 0.59193 0.0
H90 H 0.25194 0.09453 0.51941 0.0
H91 H 0.15979 0.21422 0.47472 0.0
Cu92 Cu 0.74129 0.66215 0.03596 0.0
N93 N 0.61805 0.64232 0.03072 0.0
N94 N 0.55944 0.61032 0.0263 0.0
C95 C 0.64633 0.62331 0.04134 0.0
C96 C 0.47182 0.6217 1.00535 0.0
C97 C 0.50835 0.64148 1.00808 0.0
O98 O 0.81599 0.65677 0.09584 0.0
C99 C 0.77089 0.66645 0.94488 0.0
O100 O 0.66288 0.67541 0.95231 0.0
H101 H 0.73497 0.619 0.05667 0.0
H102 H 0.46262 0.65408 0.9922 0.0
N103 N 0.68916 0.6889 0.03823 0.0
N104 N 0.71455 0.72208 0.03759 0.0
C105 C 0.77075 0.70413 0.03316 0.0
C106 C 0.57649 0.69742 0.04623 0.0
C107 C 0.59194 0.71791 0.04594 0.0
C108 C 0.73114 0.6566 0.12655 0.0
O109 O 0.61374 0.66024 0.1149 0.0
H110 H 0.87058 0.70196 0.02727 0.0
H111 H 0.4898 0.68936 0.05217 0.0
O112 O 0.8328 0.65938 0.97842 0.0
H113 H 0.38998 0.61613 0.98776 0.0
H114 H 0.51834 0.72884 0.05119 0.0
Cu115 Cu 0.51315 0.41056 0.98685 0.0
N116 N 0.63124 0.43026 1.00182 0.0
N117 N 0.68598 0.46188 0.01544 0.0
C118 C 0.59068 0.44899 1.00873 0.0
C119 C 0.79211 0.45075 0.01266 0.0
C120 C 0.75798 0.43115 1.00452 0.0
O121 O 0.38716 0.41413 0.03361 0.0
C122 C 0.57262 0.41451 0.89966 0.0
O123 O 0.6802 0.41028 0.91944 0.0
H124 H 0.49212 0.4532 1.00695 0.0
H125 H 0.82097 0.41867 0.99961 0.0
N126 N 0.55476 0.38337 0.99148 0.0
N127 N 0.50933 0.3508 0.99758 0.0
C128 C 0.46329 0.36953 0.99485 0.0
C129 C 0.66395 0.37311 0.99191 0.0
C130 C 0.63613 0.35298 0.99555 0.0
C131 C 0.43835 0.40969 0.07115 0.0
O132 O 0.55625 0.40364 0.07182 0.0
H133 H 0.36391 0.37326 0.99454 0.0
H134 H 0.75672 0.37973 0.98971 0.0
O135 O 0.47312 0.41537 0.92378 0.0
H136 H 0.88733 0.45637 0.01583 0.0
H137 H 0.70414 0.34096 0.99704 0.0
Cu138 Cu 0.45941 0.39706 0.4874 0.0
N139 N 0.33416 0.41538 0.50331 0.0
N140 N 0.27064 0.44659 0.5173 0.0
C141 C 0.36682 0.43469 0.50504 0.0
C142 C 0.17167 0.43417 0.5233 0.0
C143 C 0.21144 0.41481 0.51486 0.0
O144 O 0.49506 0.40352 0.42484 0.0
C145 C 0.54412 0.39555 0.57173 0.0
O146 O 0.43964 0.38509 0.57277 0.0
H147 H 0.46069 0.43987 0.49682 0.0
H148 H 0.15531 0.40141 0.51711 0.0
N149 N 0.42799 0.36947 0.48992 0.0
N150 N 0.48033 0.33707 0.49399 0.0
C151 C 0.52253 0.35603 0.49259 0.0
C152 C 0.32114 0.35869 0.48939 0.0
C153 C 0.35318 0.33868 0.49181 0.0
C154 C 0.39484 0.40255 0.40109 0.0
O155 O 0.28979 0.39683 0.4206 0.0
H156 H 0.62107 0.36022 0.49304 0.0
H157 H 0.22698 0.36488 0.48752 0.0
O158 O 0.58287 0.40242 0.53419 0.0
H159 H 0.07811 0.43866 0.53373 0.0
H160 H 0.28765 0.32635 0.49259 0.0
Cu161 Cu 0.46108 0.65271 0.53711 0.0
N162 N 0.38624 0.62765 0.54867 0.0
N163 N 0.33389 0.59528 0.55312 0.0
C164 C 0.40718 0.60913 0.5324 0.0
C165 C 0.26438 0.60555 0.58295 0.0
C166 C 0.297 0.62524 0.58028 0.0
O167 O 0.54341 0.65395 0.47759 0.0
C168 C 0.51883 0.66321 0.6265 0.0
O169 O 0.39687 0.66671 0.62626 0.0
H170 H 0.47636 0.6058 0.50687 0.0
H171 H 0.25776 0.6371 0.60024 0.0
N172 N 0.32716 0.67137 0.53399 0.0
N173 N 0.2084 0.69911 0.53293 0.0
C174 C 0.32653 0.69149 0.53732 0.0
C175 C 0.2061 0.66637 0.52631 0.0
C176 C 0.13305 0.68328 0.52603 0.0
C177 C 0.63172 0.64325 0.46126 0.0
O178 O 0.68432 0.62945 0.48647 0.0
H179 H 0.41024 0.7003 0.54325 0.0
H180 H 0.17297 0.65138 0.52072 0.0
O181 O 0.57114 0.65804 0.58968 0.0
H182 H 0.1939 0.5993 0.60514 0.0
H183 H 0.03226 0.68394 0.52017 0.0
C184 C 0.15281 1.00889 0.99653 0.0
C185 C 0.06683 0.993 0.99719 0.0
C186 C 0.11104 1.02881 0.99374 0.0
C187 C 0.97995 0.03306 0.99175 0.0
C188 C 0.89288 1.01711 0.99169 0.0
C189 C 0.93717 0.99738 0.99414 0.0
C190 C 0.20727 0.04534 0.99358 0.0
C191 C 0.7524 1.02088 0.9896 0.0
C192 C 0.86777 0.08422 0.03025 0.0
C193 C 0.84892 0.09435 0.9895 0.0
C194 C 0.90923 0.06431 0.03143 0.0
C195 C 0.93345 0.05415 0.99084 0.0
C196 C 0.91231 0.06414 0.94954 0.0
C197 C 0.86971 0.08403 0.94937 0.0
C198 C 0.92854 0.0542 0.07622 0.0
C199 C 0.93733 0.05396 0.90548 0.0
H200 H 0.25287 1.00581 0.99908 0.0
H201 H 0.86936 0.98538 0.99347 0.0
H202 H 0.19334 0.05505 0.96378 0.0
H203 H 0.1944 0.05477 0.02363 0.0
H204 H 0.30568 0.03961 0.99336 0.0
H205 H 0.69694 1.00686 0.98934 0.0
H206 H 0.72256 1.02984 0.01887 0.0
H207 H 0.7287 1.02961 0.95908 0.0
H208 H 0.85083 0.09198 0.06138 0.0
H209 H 0.85679 0.09167 0.91771 0.0
H210 H 0.02862 0.04958 0.07989 0.0
H211 H 0.87026 0.04052 0.07824 0.0
H212 H 0.90347 0.06401 0.10471 0.0
H213 H 0.03795 0.04944 0.90358 0.0
H214 H 0.91537 0.0637 0.87627 0.0
H215 H 0.87997 0.04022 0.90301 0.0
C216 C 0.88484 0.97983 0.47477 0.0
C217 C 0.79694 0.97328 0.50676 0.0
C218 C 0.92629 0.99971 0.4735 0.0
C219 C 0.88036 1.01345 0.50547 0.0
C220 C 0.7899 1.007 0.53742 0.0
C221 C 0.74863 0.98706 0.53746 0.0
C222 C 0.02061 1.00595 0.43826 0.0
C223 C 0.73913 1.02104 0.57236 0.0
C224 C 0.07805 0.05957 0.53158 0.0
C225 C 0.01206 0.0746 0.50858 0.0
C226 C 0.03669 0.03963 0.53074 0.0
C227 C 0.92759 0.03449 0.50577 0.0
C228 C 0.86279 0.04954 0.48149 0.0
C229 C 0.90527 0.06935 0.4834 0.0
C230 C 0.10813 1.02414 0.55742 0.0
C231 C 0.74768 0.04475 0.45375 0.0
H232 H 0.92171 0.96928 0.45075 0.0
H233 H 0.6821 0.98206 0.56263 0.0
H234 H 0.98381 1.01888 0.41896 0.0
H235 H 0.10961 1.01073 0.45453 0.0
H236 H 0.04254 0.99374 0.41453 0.0
H237 H 0.66835 1.01383 0.59454 0.0
H238 H 0.81782 1.02663 0.59335 0.0
H239 H 0.69468 0.03415 0.55596 0.0
H240 H 0.15976 0.06352 0.55144 0.0
H241 H 0.85478 0.08081 0.46503 0.0
H242 H 0.14012 1.01199 0.53511 0.0
H243 H 0.04492 1.01738 0.58291 0.0
H244 H 0.19176 1.03045 0.5747 0.0
H245 H 0.77059 0.03299 0.42909 0.0
H246 H 0.71082 0.05798 0.43544 0.0
H247 H 0.6718 0.03885 0.47568 0.0
C248 C 0.63651 0.57929 0.06222 0.0
C249 C 0.57069 0.58882 0.02726 0.0
C250 C 0.6573 0.5586 0.06216 0.0
C251 C 0.61156 0.547 0.02618 0.0
C252 C 0.5431 0.55645 0.99115 0.0
C253 C 0.52317 0.5772 0.99218 0.0
C254 C 0.72926 0.54917 0.10049 0.0
C255 C 0.49268 0.54469 0.95213 0.0
C256 C 0.76292 0.49635 1.00308 0.0
C257 C 0.67323 0.48319 0.02096 0.0
C258 C 0.74467 0.51713 1.00482 0.0
C259 C 0.63466 0.52498 0.02531 0.0
C260 C 0.54582 0.51175 0.04459 0.0
C261 C 0.56601 0.4911 0.04208 0.0
C262 C 0.84174 0.53067 0.98379 0.0
C263 C 0.42824 0.5194 0.06735 0.0
H264 H 0.67213 0.58808 0.08975 0.0
H265 H 0.47361 0.58439 0.96477 0.0
H266 H 0.67112 0.53743 0.11661 0.0
H267 H 0.81596 0.54188 0.08769 0.0
H268 H 0.75671 0.56019 0.12633 0.0
H269 H 0.44066 0.55418 0.92773 0.0
H270 H 0.57173 0.53724 0.93448 0.0
H271 H 0.42838 0.53284 0.96438 0.0
H272 H 0.84532 0.49037 0.98639 0.0
H273 H 0.49726 0.48105 0.05661 0.0
H274 H 0.8769 0.54144 1.00889 0.0
H275 H 0.79772 0.53941 0.95625 0.0
H276 H 0.92342 0.5223 0.97008 0.0
H277 H 0.45398 0.52993 0.09434 0.0
H278 H 0.37071 0.50721 0.08208 0.0
H279 H 0.3692 0.52771 0.04286 0.0
C280 C 0.17121 0.48013 0.51498 0.0
C281 C 0.277 0.46799 0.52271 0.0
C282 C 0.17956 0.50104 0.51806 0.0
C283 C 0.29634 0.51006 0.5293 0.0
C284 C 0.40292 0.49784 0.53753 0.0
C285 C 0.39183 0.47706 0.5343 0.0
C286 C 0.06341 0.51351 0.50931 0.0
C287 C 0.52887 0.50669 0.55016 0.0
C288 C 0.35356 0.56536 0.50492 0.0
C289 C 0.32979 0.57392 0.54684 0.0
C290 C 0.34182 0.54464 0.49847 0.0
C291 C 0.30619 0.53216 0.53485 0.0
C292 C 0.28396 0.54072 0.57731 0.0
C293 C 0.29624 0.56137 0.58275 0.0
C294 C 0.36685 0.53609 0.4527 0.0
C295 C 0.24738 0.52806 0.61721 0.0
H296 H 0.0825 0.47331 0.50573 0.0
H297 H 0.47356 0.46787 0.54134 0.0
H298 H 0.03947 0.52222 0.53961 0.0
H299 H 0.08217 0.52432 0.4819 0.0
H300 H 0.98047 0.50432 0.50001 0.0
H301 H 0.60362 0.4952 0.55411 0.0
H302 H 0.55937 0.51754 0.52421 0.0
H303 H 0.52009 0.51492 0.58213 0.0
H304 H 0.37863 0.5749 0.47696 0.0
H305 H 0.28022 0.56772 0.61551 0.0
H306 H 0.28197 0.52811 0.44059 0.0
H307 H 0.4448 0.52507 0.45466 0.0
H308 H 0.39239 0.54775 0.42778 0.0
H309 H 0.16004 0.51963 0.60969 0.0
H310 H 0.23122 0.53705 0.64779 0.0
H311 H 0.32271 0.517 0.62441 0.0
C312 C 0.98275 0.16115 0.18404 0.0
C313 C 0.87653 0.16303 0.15627 0.0
C314 C 0.96967 0.1591 0.23096 0.0
C315 C 0.84751 0.15873 0.25061 0.0
C316 C 0.74027 0.16035 0.2226 0.0
C317 C 0.75604 0.16255 0.17608 0.0
C318 C 0.08671 0.15752 0.2596 0.0
C319 C 0.60844 0.1598 0.24179 0.0
C320 C 0.82681 0.1359 0.36786 0.0
C321 C 0.83007 0.1528 0.39511 0.0
C322 C 0.82633 0.1376 0.3208 0.0
C323 C 0.83183 0.1567 0.30041 0.0
C324 C 0.82768 0.17384 0.32791 0.0
C325 C 0.82709 0.17167 0.3749 0.0
C326 C 0.82869 0.11891 0.29302 0.0
C327 C 0.83324 0.19449 0.30785 0.0
H328 H 0.07605 0.16152 0.16921 0.0
H329 H 0.67284 0.16385 0.15513 0.0
H330 H 0.08837 0.16982 0.28424 0.0
H331 H 0.0856 0.14335 0.27885 0.0
H332 H 0.17467 0.15813 0.23941 0.0
H333 H 0.5346 0.16091 0.21546 0.0
H334 H 0.59416 0.14576 0.26086 0.0
H335 H 0.59537 0.17224 0.26561 0.0
H336 H 0.83397 0.1213 0.38337 0.0
H337 H 0.83482 0.18475 0.39585 0.0
H338 H 0.92243 0.11734 0.27688 0.0
H339 H 0.75719 0.11978 0.26591 0.0
H340 H 0.81046 0.10536 0.31352 0.0
H341 H 0.92678 0.19682 0.292 0.0
H342 H 0.81851 0.20624 0.33337 0.0
H343 H 0.76084 0.19625 0.28126 0.0
C344 C 0.02181 0.9245 0.387 0.0
C345 C 0.04657 0.90523 0.4029 0.0
C346 C 0.03302 0.92913 0.34125 0.0
C347 C 0.07011 0.91408 0.31092 0.0
C348 C 0.10475 0.89502 0.32752 0.0
C349 C 0.09108 0.89076 0.37337 0.0
C350 C 0.99503 0.94961 0.32507 0.0
C351 C 0.14725 0.87868 0.29645 0.0
C352 C 0.95427 0.91515 0.19003 0.0
C353 C 0.06216 0.92173 0.16733 0.0
C354 C 0.95436 0.91314 0.23701 0.0
C355 C 0.06502 0.91776 0.26168 0.0
C356 C 0.17248 0.92504 0.23902 0.0
C357 C 0.1696 0.92699 0.19227 0.0
C358 C 0.83722 0.90554 0.26016 0.0
C359 C 0.29212 0.93014 0.26397 0.0
H360 H 0.9832 0.93547 0.40973 0.0
H361 H 0.10632 0.87571 0.38559 0.0
H362 H 0.06589 0.95564 0.30129 0.0
H363 H 0.90392 0.94865 0.30686 0.0
H364 H 0.98372 0.96024 0.35317 0.0
H365 H 0.18321 0.86546 0.31504 0.0
H366 H 0.06683 0.87396 0.27521 0.0
H367 H 0.22257 0.88417 0.27376 0.0
H368 H 0.87103 0.91109 0.17107 0.0
H369 H 0.25344 0.93225 0.17516 0.0
H370 H 0.8085 0.91594 0.28705 0.0
H371 H 0.85742 0.89094 0.27624 0.0
H372 H 0.75691 0.9037 0.23661 0.0
H373 H 0.27157 0.94082 0.29122 0.0
H374 H 0.36512 0.9367 0.24167 0.0
H375 H 0.33158 0.91651 0.27984 0.0
C376 C 0.96281 0.90466 0.68841 0.0
C377 C 0.85668 0.89712 0.66632 0.0
C378 C 0.96355 0.90676 0.7353 0.0
C379 C 0.8557 0.90116 0.76056 0.0
C380 C 0.74846 0.89359 0.73838 0.0
C381 C 0.75028 0.89165 0.69167 0.0
C382 C 0.07999 0.91486 0.75789 0.0
C383 C 0.63205 0.88735 0.76402 0.0
C384 C 0.92147 0.88847 0.88215 0.0
C385 C 0.89275 0.90645 0.90334 0.0
C386 C 0.90382 0.88621 0.83595 0.0
C387 C 0.85727 0.90243 0.81034 0.0
C388 C 0.81949 0.92016 0.8322 0.0
C389 C 0.83817 0.92199 0.87867 0.0
C390 C 0.94408 0.86698 0.81417 0.0
C391 C 0.76821 0.9377 0.8061 0.0
H392 H 0.04501 0.90898 0.6691 0.0
H393 H 0.66749 0.88579 0.67504 0.0
H394 H 0.05519 0.92817 0.77791 0.0
H395 H 0.11902 0.90356 0.78139 0.0
H396 H 0.15462 0.91903 0.73348 0.0
H397 H 0.55489 0.88231 0.74159 0.0
H398 H 0.65585 0.87504 0.7875 0.0
H399 H 0.59674 0.89992 0.78445 0.0
H400 H 0.9664 0.87664 0.9013 0.0
H401 H 0.81953 0.93608 0.89498 0.0
H402 H 0.02928 0.86965 0.79342 0.0
H403 H 0.86896 0.86144 0.79159 0.0
H404 H 0.96638 0.8552 0.83924 0.0
H405 H 0.84462 0.94426 0.78539 0.0
H406 H 0.7301 0.94944 0.82841 0.0
H407 H 0.69243 0.93287 0.78295 0.0
C408 C 0.0537 0.14751 0.88823 0.0
C409 C 0.11486 0.16538 0.89925 0.0
C410 C 0.01856 0.14329 0.84364 0.0
C411 C 0.04533 0.15721 0.80902 0.0
C412 C 0.10896 0.17508 0.81992 0.0
C413 C 0.14265 0.17892 0.86462 0.0
C414 C 0.95048 0.12409 0.83389 0.0
C415 C 0.14208 0.19021 0.78421 0.0
C416 C 0.09218 0.14178 0.68796 0.0
C417 C 0.98446 0.14957 0.6666 0.0
C418 C 0.10939 0.14318 0.73443 0.0
C419 C 0.01661 0.15267 0.76086 0.0
C420 C 0.90348 0.15944 0.74004 0.0
C421 C 0.88852 0.1578 0.69304 0.0
C422 C 0.23058 0.13546 0.75487 0.0
C423 C 0.8012 0.1693 0.76713 0.0
H424 H 0.0307 0.13696 0.91457 0.0
H425 H 0.18971 0.19278 0.87252 0.0
H426 H 0.84971 0.12738 0.82687 0.0
H427 H 0.99023 0.11675 0.80383 0.0
H428 H 0.95556 0.11352 0.86254 0.0
H429 H 0.18844 0.20362 0.79825 0.0
H430 H 0.20659 0.1834 0.75932 0.0
H431 H 0.05566 0.19495 0.76603 0.0
H432 H 0.16624 0.13511 0.66794 0.0
H433 H 0.80521 0.16388 0.67688 0.0
H434 H 0.2098 0.12557 0.78383 0.0
H435 H 0.28718 0.14812 0.76755 0.0
H436 H 0.28875 0.12707 0.73043 0.0
H437 H 0.77771 0.16004 0.79687 0.0
H438 H 0.714 0.17183 0.74719 0.0
H439 H 0.83546 0.18386 0.77953 0.0
C440 C 0.67088 0.63843 0.19586 0.0
C441 C 0.75491 0.65152 0.17448 0.0
C442 C 0.66664 0.63656 0.24279 0.0
C443 C 0.74739 0.64829 0.2697 0.0
C444 C 0.83747 0.6608 0.24825 0.0
C445 C 0.8404 0.66224 0.20085 0.0
C446 C 0.57007 0.62282 0.26357 0.0
C447 C 0.92558 0.67356 0.27539 0.0
C448 C 0.61078 0.65991 0.38542 0.0
C449 C 0.66971 0.64564 0.41304 0.0
C450 C 0.6393 0.66147 0.33935 0.0
C451 C 0.72922 0.64845 0.31984 0.0
C452 C 0.79213 0.63446 0.34779 0.0
C453 C 0.76176 0.63322 0.39383 0.0
C454 C 0.56961 0.67665 0.31118 0.0
C455 C 0.88854 0.62028 0.32876 0.0
H456 H 0.60388 0.6302 0.17569 0.0
H457 H 0.90378 0.67269 0.18468 0.0
H458 H 0.6153 0.61294 0.2888 0.0
H459 H 0.49742 0.63175 0.2812 0.0
H460 H 0.52218 0.61343 0.23822 0.0
H461 H 0.00013 0.68048 0.25432 0.0
H462 H 0.87089 0.68558 0.29179 0.0
H463 H 0.97112 0.66463 0.3023 0.0
H464 H 0.53998 0.66968 0.3996 0.0
H465 H 0.80861 0.62217 0.41459 0.0
H466 H 0.50822 0.66892 0.28671 0.0
H467 H 0.63748 0.68583 0.2918 0.0
H468 H 0.50987 0.68667 0.33174 0.0
H469 H 0.84129 0.60971 0.30582 0.0
H470 H 0.93793 0.61162 0.35532 0.0
H471 H 0.95971 0.62856 0.3088 0.0
C472 C 0.50038 0.4071 0.3261 0.0
C473 C 0.39139 0.40741 0.35257 0.0
C474 C 0.49244 0.40955 0.27926 0.0
C475 C 0.37296 0.41259 0.25868 0.0
C476 C 0.26379 0.41394 0.28561 0.0
C477 C 0.27427 0.41125 0.33207 0.0
C478 C 0.61123 0.40804 0.25161 0.0
C479 C 0.13504 0.41742 0.26523 0.0
C480 C 0.38191 0.42984 0.13699 0.0
C481 C 0.37536 0.41162 0.11459 0.0
C482 C 0.37428 0.43061 0.18401 0.0
C483 C 0.36109 0.41269 0.20887 0.0
C484 C 0.34453 0.39448 0.18593 0.0
C485 C 0.35243 0.39418 0.13904 0.0
C486 C 0.39062 0.45036 0.20708 0.0
C487 C 0.32896 0.37504 0.21098 0.0
H488 H 0.59096 0.40417 0.34171 0.0
H489 H 0.18952 0.41181 0.35235 0.0
H490 H 0.60629 0.39468 0.22999 0.0
H491 H 0.62002 0.4212 0.22922 0.0
H492 H 0.69737 0.40695 0.27273 0.0
H493 H 0.06149 0.42005 0.29104 0.0
H494 H 0.13733 0.43041 0.24211 0.0
H495 H 0.10725 0.40427 0.24522 0.0
H496 H 0.404 0.44323 0.11811 0.0
H497 H 0.35126 0.38004 0.12167 0.0
H498 H 0.48568 0.45099 0.22261 0.0
H499 H 0.32028 0.45212 0.23429 0.0
H500 H 0.38117 0.46308 0.18334 0.0
H501 H 0.41757 0.37144 0.22917 0.0
H502 H 0.30649 0.36251 0.18823 0.0
H503 H 0.25279 0.37629 0.23628 0.0
C504 C 0.68717 0.42057 0.82816 0.0
C505 C 0.57215 0.41705 0.85024 0.0
C506 C 0.696 0.42016 0.78133 0.0
C507 C 0.58716 0.41606 0.75567 0.0
C508 C 0.46897 0.41376 0.77753 0.0
C509 C 0.46274 0.41433 0.82468 0.0
C510 C 0.82352 0.42285 0.75956 0.0
C511 C 0.35039 0.40953 0.75127 0.0
C512 C 0.58327 0.42171 0.62838 0.0
C513 C 0.59517 0.40182 0.61516 0.0
C514 C 0.58522 0.42682 0.67408 0.0
C515 C 0.59977 0.41165 0.70693 0.0
C516 C 0.62132 0.39178 0.69325 0.0
C517 C 0.61771 0.38711 0.64757 0.0
C518 C 0.56242 0.44818 0.68719 0.0
C519 C 0.63962 0.37516 0.72696 0.0
H520 H 0.7721 0.42303 0.84762 0.0
H521 H 0.37365 0.41167 0.84149 0.0
H522 H 0.85666 0.40837 0.74624 0.0
H523 H 0.81698 0.43338 0.73088 0.0
H524 H 0.89536 0.42845 0.78349 0.0
H525 H 0.26443 0.41033 0.77248 0.0
H526 H 0.34044 0.42027 0.72309 0.0
H527 H 0.35644 0.39441 0.73664 0.0
H528 H 0.56173 0.43299 0.60336 0.0
H529 H 0.62407 0.37168 0.63726 0.0
H530 H 0.6304 0.45286 0.71336 0.0
H531 H 0.46629 0.44962 0.70154 0.0
H532 H 0.57019 0.45849 0.65808 0.0
H533 H 0.71567 0.37901 0.75093 0.0
H534 H 0.66403 0.36081 0.71076 0.0
H535 H 0.55164 0.37308 0.74656 0.0
C536 C 0.8335 0.67898 0.86965 0.0
C537 C 0.80337 0.66272 0.8973 0.0
C538 C 0.81486 0.6783 0.82286 0.0
C539 C 0.76115 0.66112 0.80313 0.0
C540 C 0.74046 0.64408 0.83054 0.0
C541 C 0.76189 0.64509 0.8772 0.0
C542 C 0.84073 0.69675 0.79534 0.0
C543 C 0.68278 0.62544 0.8115 0.0
C544 C 0.52281 0.66988 0.70903 0.0
C545 C 0.5879 0.66375 0.67044 0.0
C546 C 0.57866 0.66919 0.75174 0.0
C547 C 0.70439 0.6623 0.7568 0.0
C548 C 0.77246 0.65652 0.71796 0.0
C549 C 0.71344 0.65724 0.6753 0.0
C550 C 0.50148 0.67558 0.79175 0.0
C551 C 0.90687 0.64928 0.72157 0.0
H552 H 0.86227 0.69284 0.88505 0.0
H553 H 0.73444 0.63269 0.89845 0.0
H554 H 0.884 0.69283 0.76273 0.0
H555 H 0.75043 0.70455 0.78826 0.0
H556 H 0.90418 0.70721 0.81317 0.0
H557 H 0.69174 0.61259 0.83489 0.0
H558 H 0.58098 0.62808 0.80491 0.0
H559 H 0.72773 0.62153 0.77918 0.0
H560 H 0.42613 0.67502 0.7061 0.0
H561 H 0.76492 0.65241 0.64594 0.0
H562 H 0.54933 0.68797 0.80929 0.0
H563 H 0.49306 0.66305 0.81593 0.0
H564 H 0.40501 0.68056 0.78225 0.0
H565 H 0.96493 0.66024 0.74007 0.0
H566 H 0.95019 0.64672 0.68821 0.0
H567 H 0.9097 0.63513 0.7409 0.0
C568 C 0.31423 0.3329 0.01971 0.0
C569 C 0.43618 0.3326 1.00115 0.0
C570 C 0.23885 0.31568 0.02139 0.0
C571 C 0.28597 0.29751 1.00426 0.0
C572 C 0.40995 0.29695 0.98636 0.0
C573 C 0.48342 0.31444 0.98506 0.0
C574 C 0.10785 0.31702 0.04105 0.0
C575 C 0.46425 0.27792 0.96781 0.0
C576 C 0.12778 0.24889 0.04075 0.0
C577 C 0.04916 0.24466 1.00406 0.0
C578 C 0.2052 0.26593 0.04127 0.0
C579 C 0.20439 0.27925 1.00426 0.0
C580 C 0.12424 0.27522 0.96738 0.0
C581 C 0.04801 0.25806 0.96771 0.0
C582 C 0.28837 0.26965 0.08143 0.0
C583 C 0.11984 0.28899 0.92726 0.0
H584 H 0.27732 0.34665 0.03316 0.0
H585 H 0.5768 0.31399 0.97041 0.0
H586 H 0.03677 0.3132 0.0152 0.0
H587 H 0.09743 0.30611 0.06883 0.0
H588 H 0.08616 0.33211 0.05401 0.0
H589 H 0.5634 0.27973 0.95644 0.0
H590 H 0.46107 0.26599 0.99363 0.0
H591 H 0.40642 0.27287 0.93906 0.0
H592 H 0.12873 0.23888 0.06929 0.0
H593 H 0.98964 0.25494 0.93884 0.0
H594 H 0.26457 0.28423 0.09651 0.0
H595 H 0.38864 0.27034 0.07087 0.0
H596 H 0.27849 0.25789 0.1075 0.0
H597 H 0.09225 0.30419 0.93788 0.0
H598 H 0.05218 0.28388 0.90134 0.0
H599 H 0.21496 0.29009 0.91193 0.0
C600 C 0.72627 0.75778 0.0584 0.0
C601 C 0.77473 0.74143 0.03483 0.0
C602 C 0.78595 0.77651 0.05679 0.0
C603 C 0.89668 0.77911 0.03074 0.0
C604 C 0.94555 0.76271 1.00663 0.0
C605 C 0.88435 0.74414 1.00902 0.0
C606 C 0.7307 0.79352 0.08318 0.0
C607 C 0.0623 0.7648 0.97804 0.0
C608 C 0.97756 0.83215 0.99441 0.0
C609 C 0.07088 0.83754 0.02548 0.0
C610 C 0.92209 0.81314 0.99522 0.0
C611 C 0.95988 0.79905 0.02812 0.0
C612 C 0.05629 0.80422 0.05894 0.0
C613 C 0.11096 0.82334 0.05712 0.0
C614 C 0.82126 0.80826 0.96126 0.0
C615 C 0.09933 0.78972 0.09464 0.0
H616 H 0.64271 0.75586 0.07881 0.0
H617 H 0.92172 0.73177 0.9901 0.0
H618 H 0.80191 0.79927 0.10709 0.0
H619 H 0.70534 0.80596 0.06025 0.0
H620 H 0.64515 0.78907 0.10222 0.0
H621 H 0.08884 0.75062 0.96151 0.0
H622 H 0.04662 0.77631 0.95181 0.0
H623 H 0.14282 0.76982 0.99885 0.0
H624 H 0.94724 0.84293 0.96949 0.0
H625 H 0.18191 0.8274 0.08152 0.0
H626 H 0.73067 0.80528 0.97864 0.0
H627 H 0.8471 0.79456 0.9428 0.0
H628 H 0.80634 0.82052 0.93667 0.0
H629 H 0.01922 0.78607 0.11712 0.0
H630 H 0.17783 0.79573 0.11517 0.0
H631 H 0.1309 0.77561 0.07908 0.0
C632 C 0.99016 0.81328 0.55585 0.0
C633 C 0.90885 0.81838 0.52042 0.0
C634 C 0.04436 0.79417 0.55917 0.0
C635 C 0.01845 0.77979 0.52588 0.0
C636 C 0.93726 0.78492 0.48978 0.0
C637 C 0.8827 0.80405 0.48771 0.0
C638 C 0.12798 0.78928 0.59872 0.0
C639 C 0.90815 0.77018 0.45325 0.0
C640 C 0.23837 0.7348 0.51393 0.0
C641 C 0.16725 0.71964 0.53419 0.0
C642 C 0.1917 0.75446 0.51111 0.0
C643 C 0.07209 0.75916 0.52972 0.0
C644 C 0.00221 0.74401 0.55156 0.0
C645 C 0.05009 0.72449 0.55319 0.0
C646 C 0.26869 0.77008 0.48707 0.0
C647 C 0.87573 0.74832 0.57272 0.0
H648 H 0.00978 0.82418 0.5815 0.0
H649 H 0.82142 0.80795 0.45994 0.0
H650 H 0.08703 0.77672 0.61808 0.0
H651 H 0.22239 0.78445 0.58694 0.0
H652 H 0.14003 0.80216 0.62149 0.0
H653 H 0.84762 0.7767 0.42651 0.0
H654 H 0.99714 0.76479 0.4379 0.0
H655 H 0.85931 0.75703 0.46766 0.0
H656 H 0.32826 0.73109 0.49882 0.0
H657 H 0.99542 0.71288 0.56933 0.0
H658 H 0.28621 0.78289 0.50947 0.0
H659 H 0.21525 0.77579 0.45769 0.0
H660 H 0.3609 0.7642 0.47533 0.0
H661 H 0.88468 0.76066 0.59707 0.0
H662 H 0.83612 0.73513 0.59031 0.0
H663 H 0.80764 0.75321 0.54662 0.0
C664 C 0.67684 0.31956 0.51702 0.0
C665 C 0.55629 0.31909 0.49731 0.0
C666 C 0.75267 0.30236 0.52003 0.0
C667 C 0.70761 0.28407 0.50291 0.0
C668 C 0.58606 0.28346 0.483 0.0
C669 C 0.512 0.3009 0.48055 0.0
C670 C 0.88086 0.30373 0.5419 0.0
C671 C 0.53418 0.26434 0.46418 0.0
C672 C 0.94245 0.24241 0.47595 0.0
C673 C 0.92816 0.22958 0.5129 0.0
C674 C 0.87242 0.26024 0.47241 0.0
C675 C 0.78628 0.26551 0.50675 0.0
C676 C 0.77414 0.25288 0.54467 0.0
C677 C 0.84478 0.23514 0.54722 0.0
C678 C 0.88845 0.27322 0.43138 0.0
C679 C 0.68489 0.25794 0.58234 0.0
H680 H 0.71163 0.33337 0.5308 0.0
H681 H 0.41994 0.30034 0.46485 0.0
H682 H 0.88514 0.29363 0.5714 0.0
H683 H 0.95508 0.29883 0.51818 0.0
H684 H 0.90306 0.31909 0.55303 0.0
H685 H 0.43898 0.26634 0.44919 0.0
H686 H 0.59883 0.25849 0.43814 0.0
H687 H 0.52815 0.2529 0.49105 0.0
H688 H 0.00525 0.2382 0.44901 0.0
H689 H 0.83418 0.22549 0.57616 0.0
H690 H 0.91501 0.28853 0.44136 0.0
H691 H 0.79758 0.27429 0.41302 0.0
H692 H 0.96158 0.26737 0.40825 0.0
H693 H 0.70763 0.27285 0.59592 0.0
H694 H 0.68901 0.24689 0.61013 0.0
H695 H 0.58668 0.25861 0.5695 0.0
loop_
_geom_bond_atom_site_label_1
_geom_bond_atom_site_label_2
_geom_bond_distance
_geom_bond_site_symmetry_2
_ccdc_geom_bond_type
Cu0 N1 1.999 . S
Cu0 O6 1.974 . S
Cu0 N11 1.985 . S
Cu0 O20 1.959 1_554 S
N1 Cu0 1.999 . S
N1 C3 1.263 . S
N1 C5 1.389 1_554 S
N2 C3 1.358 . S
N2 C4 1.400 1_554 S
C3 N1 1.263 . S
C3 N2 1.358 . S
C3 H9 0.930 1_455 S
C4 N2 1.400 1_556 S
C4 C5 1.351 . S
C4 H21 0.930 . S
C5 N1 1.389 1_556 S
C5 C4 1.351 . S
C5 H10 0.930 . S
O6 Cu0 1.974 . S
O6 C16 1.282 . S
C7 O8 1.261 1_455 S
C7 O20 1.251 . S
O8 C7 1.261 1_655 S
H9 C3 0.930 1_655 S
H10 C5 0.930 . S
N11 Cu0 1.985 . S
N11 C13 1.335 1_554 S
N11 C14 1.390 . S
N12 C13 1.345 . S
N12 C15 1.336 1_556 S
C13 N11 1.335 1_556 S
C13 N12 1.345 . S
C13 H18 0.930 . S
C14 N11 1.390 . S
C14 C15 1.346 . S
C14 H19 0.930 . S
C15 N12 1.336 1_554 S
C15 C14 1.346 . S
C15 H22 0.929 . S
C16 O6 1.282 . S
C16 O17 1.216 1_455 S
O17 C16 1.216 1_655 S
H18 C13 0.930 . S
H19 C14 0.930 . S
O20 Cu0 1.959 1_556 S
O20 C7 1.251 . S
H21 C4 0.930 . S
H22 C15 0.929 . S
Cu23 N24 1.999 . S
Cu23 O29 1.974 . S
Cu23 N34 1.985 . S
Cu23 O43 1.959 1_554 S
N24 Cu23 1.999 . S
N24 C26 1.263 . S
N24 C28 1.389 1_554 S
N25 C26 1.358 . S
N25 C27 1.400 1_554 S
C26 N24 1.263 . S
C26 N25 1.358 . S
C26 H32 0.930 1_655 S
C27 N25 1.400 1_556 S
C27 C28 1.351 . S
C27 H44 0.930 . S
C28 N24 1.389 1_556 S
C28 C27 1.351 . S
C28 H33 0.930 . S
O29 Cu23 1.974 . S
O29 C39 1.282 . S
C30 O31 1.261 1_655 S
C30 O43 1.251 . S
O31 C30 1.261 1_455 S
H32 C26 0.930 1_455 S
H33 C28 0.930 . S
N34 Cu23 1.985 . S
N34 C36 1.335 1_554 S
N34 C37 1.390 . S
N35 C36 1.345 . S
N35 C38 1.336 1_556 S
C36 N34 1.335 1_556 S
C36 N35 1.345 . S
C36 H41 0.930 . S
C37 N34 1.390 . S
C37 C38 1.346 . S
C37 H42 0.930 . S
C38 N35 1.336 1_554 S
C38 C37 1.346 . S
C38 H45 0.929 . S
C39 O29 1.282 . S
C39 O40 1.216 1_655 S
O40 C39 1.216 1_455 S
H41 C36 0.930 . S
H42 C37 0.930 . S
O43 Cu23 1.959 1_556 S
O43 C30 1.251 . S
H44 C27 0.930 . S
H45 C38 0.929 . S
Cu46 N47 1.999 . S
Cu46 O52 1.974 . S
Cu46 N57 1.985 . S
Cu46 O66 1.959 . S
N47 Cu46 1.999 . S
N47 C49 1.263 . S
N47 C51 1.389 . S
N48 C49 1.358 . S
N48 C50 1.400 . S
C49 N47 1.263 . S
C49 N48 1.358 . S
C49 H55 0.926 1_455 S
C50 N48 1.400 . S
C50 C51 1.351 . S
C50 H67 0.930 . S
C51 N47 1.389 . S
C51 C50 1.351 . S
C51 H56 0.930 . S
O52 Cu46 1.974 . S
O52 C62 1.282 . S
C53 O54 1.261 1_455 S
C53 O66 1.251 . S
O54 C53 1.261 1_655 S
H55 C49 0.926 1_655 S
H56 C51 0.930 . S
N57 Cu46 1.985 . S
N57 C59 1.335 . S
N57 C60 1.390 . S
N58 C59 1.345 . S
N58 C61 1.336 . S
C59 N57 1.335 . S
C59 N58 1.345 . S
C59 H64 0.930 . S
C60 N57 1.390 . S
C60 C61 1.346 . S
C60 H65 0.930 . S
C61 N58 1.336 . S
C61 C60 1.346 . S
C61 H68 0.929 . S
C62 O52 1.282 . S
C62 O63 1.216 1_455 S
O63 C62 1.216 1_655 S
H64 C59 0.930 . S
H65 C60 0.930 . S
O66 Cu46 1.959 . S
O66 C53 1.251 . S
H67 C50 0.930 . S
H68 C61 0.929 . S
Cu69 N70 1.999 . S
Cu69 O75 1.974 . S
Cu69 N80 1.985 . S
Cu69 O89 1.959 . S
N70 Cu69 1.999 . S
N70 C72 1.263 . S
N70 C74 1.389 . S
N71 C72 1.358 . S
N71 C73 1.400 . S
C72 N70 1.263 . S
C72 N71 1.358 . S
C72 H78 0.926 1_655 S
C73 N71 1.400 . S
C73 C74 1.351 . S
C73 H90 0.930 . S
C74 N70 1.389 . S
C74 C73 1.351 . S
C74 H79 0.930 . S
O75 Cu69 1.974 . S
O75 C85 1.282 . S
C76 O77 1.261 1_655 S
C76 O89 1.251 . S
O77 C76 1.261 1_455 S
H78 C72 0.926 1_455 S
H79 C74 0.930 . S
N80 Cu69 1.985 . S
N80 C82 1.335 . S
N80 C83 1.390 . S
N81 C82 1.345 . S
N81 C84 1.336 . S
C82 N80 1.335 . S
C82 N81 1.345 . S
C82 H87 0.930 . S
C83 N80 1.390 . S
C83 C84 1.346 . S
C83 H88 0.930 . S
C84 N81 1.336 . S
C84 C83 1.346 . S
C84 H91 0.929 . S
C85 O75 1.282 . S
C85 O86 1.216 1_655 S
O86 C85 1.216 1_455 S
H87 C82 0.930 . S
H88 C83 0.930 . S
O89 Cu69 1.959 . S
O89 C76 1.251 . S
H90 C73 0.930 . S
H91 C84 0.929 . S
Cu92 N93 1.999 . S
Cu92 O98 1.974 . S
Cu92 N103 1.985 . S
Cu92 O112 1.959 1_554 S
N93 Cu92 1.999 . S
N93 C95 1.263 . S
N93 C97 1.389 1_554 S
N94 C95 1.358 . S
N94 C96 1.400 1_554 S
C95 N93 1.263 . S
C95 N94 1.358 . S
C95 H101 0.930 . S
C96 N94 1.400 1_556 S
C96 C97 1.351 . S
C96 H113 0.930 . S
C97 N93 1.389 1_556 S
C97 C96 1.351 . S
C97 H102 0.930 . S
O98 Cu92 1.974 . S
O98 C108 1.282 . S
C99 O100 1.261 . S
C99 O112 1.251 . S
O100 C99 1.261 . S
H101 C95 0.930 . S
H102 C97 0.930 . S
N103 Cu92 1.985 . S
N103 C105 1.335 1_554 S
N103 C106 1.390 . S
N104 C105 1.345 . S
N104 C107 1.336 1_556 S
C105 N103 1.335 1_556 S
C105 N104 1.345 . S
C105 H110 0.930 . S
C106 N103 1.390 . S
C106 C107 1.346 . S
C106 H111 0.930 . S
C107 N104 1.336 1_554 S
C107 C106 1.346 . S
C107 H114 0.929 . S
C108 O98 1.282 . S
C108 O109 1.216 . S
O109 C108 1.216 . S
H110 C105 0.930 . S
H111 C106 0.930 . S
O112 Cu92 1.959 1_556 S
O112 C99 1.251 . S
H113 C96 0.930 . S
H114 C107 0.929 . S
Cu115 N116 1.999 . S
Cu115 O121 1.974 . S
Cu115 N126 1.985 . S
Cu115 O135 1.959 1_554 S
N116 Cu115 1.999 . S
N116 C118 1.263 . S
N116 C120 1.389 1_554 S
N117 C118 1.358 . S
N117 C119 1.400 1_554 S
C118 N116 1.263 . S
C118 N117 1.358 . S
C118 H124 0.930 . S
C119 N117 1.400 1_556 S
C119 C120 1.351 . S
C119 H136 0.930 . S
C120 N116 1.389 1_556 S
C120 C119 1.351 . S
C120 H125 0.930 . S
O121 Cu115 1.974 . S
O121 C131 1.282 . S
C122 O123 1.261 . S
C122 O135 1.251 . S
O123 C122 1.261 . S
H124 C118 0.930 . S
H125 C120 0.930 . S
N126 Cu115 1.985 . S
N126 C128 1.335 1_554 S
N126 C129 1.390 . S
N127 C128 1.345 . S
N127 C130 1.336 1_556 S
C128 N126 1.335 1_556 S
C128 N127 1.345 . S
C128 H133 0.930 . S
C129 N126 1.390 . S
C129 C130 1.346 . S
C129 H134 0.930 . S
C130 N127 1.336 1_554 S
C130 C129 1.346 . S
C130 H137 0.929 . S
C131 O121 1.282 . S
C131 O132 1.216 . S
O132 C131 1.216 . S
H133 C128 0.930 . S
H134 C129 0.930 . S
O135 Cu115 1.959 1_556 S
O135 C122 1.251 . S
H136 C119 0.930 . S
H137 C130 0.929 . S
Cu138 N139 1.999 . S
Cu138 O144 1.974 . S
Cu138 N149 1.985 . S
Cu138 O158 1.959 . S
N139 Cu138 1.999 . S
N139 C141 1.263 . S
N139 C143 1.389 . S
N140 C141 1.358 . S
N140 C142 1.400 . S
C141 N139 1.263 . S
C141 N140 1.358 . S
C141 H147 0.930 . S
C142 N140 1.400 . S
C142 C143 1.351 . S
C142 H159 0.930 . S
C143 N139 1.389 . S
C143 C142 1.351 . S
C143 H148 0.930 . S
O144 Cu138 1.974 . S
O144 C154 1.282 . S
C145 O146 1.261 . S
C145 O158 1.251 . S
O146 C145 1.261 . S
H147 C141 0.930 . S
H148 C143 0.930 . S
N149 Cu138 1.985 . S
N149 C151 1.335 . S
N149 C152 1.390 . S
N150 C151 1.345 . S
N150 C153 1.336 . S
C151 N149 1.335 . S
C151 N150 1.345 . S
C151 H156 0.930 . S
C152 N149 1.390 . S
C152 C153 1.346 . S
C152 H157 0.930 . S
C153 N150 1.336 . S
C153 C152 1.346 . S
C153 H160 0.929 . S
C154 O144 1.282 . S
C154 O155 1.216 . S
O155 C154 1.216 . S
H156 C151 0.930 . S
H157 C152 0.930 . S
O158 Cu138 1.959 . S
O158 C145 1.251 . S
H159 C142 0.930 . S
H160 C153 0.929 . S
Cu161 N162 1.999 . S
Cu161 O167 1.974 . S
Cu161 N172 1.985 . S
Cu161 O181 1.959 . S
N162 Cu161 1.999 . S
N162 C164 1.263 . S
N162 C166 1.389 . S
N163 C164 1.358 . S
N163 C165 1.400 . S
C164 N162 1.263 . S
C164 N163 1.358 . S
C164 H170 0.930 . S
C165 N163 1.400 . S
C165 C166 1.351 . S
C165 H182 0.930 . S
C166 N162 1.389 . S
C166 C165 1.351 . S
C166 H171 0.930 . S
O167 Cu161 1.974 . S
O167 C177 1.282 . S
C168 O169 1.261 . S
C168 O181 1.251 . S
O169 C168 1.261 . S
H170 C164 0.930 . S
H171 C166 0.930 . S
N172 Cu161 1.985 . S
N172 C174 1.335 . S
N172 C175 1.390 . S
N173 C174 1.345 . S
N173 C176 1.336 . S
C174 N172 1.335 . S
C174 N173 1.345 . S
C174 H179 0.930 . S
C175 N172 1.390 . S
C175 C176 1.346 . S
C175 H180 0.930 . S
C176 N173 1.336 . S
C176 C175 1.346 . S
C176 H183 0.929 . S
C177 O167 1.282 . S
C177 O178 1.216 . S
O178 C177 1.216 . S
H179 C174 0.930 . S
H180 C175 0.930 . S
O181 Cu161 1.959 . S
O181 C168 1.251 . S
H182 C165 0.930 . S
H183 C176 0.929 . S
C184 C185 1.391 1_456 S
C184 C186 1.394 . S
C184 H200 0.931 . S
C185 C184 1.391 1_654 S
C185 C189 1.376 . S
C186 C184 1.394 . S
C186 C187 1.369 1_456 S
C186 C190 1.531 . S
C187 C186 1.369 1_654 S
C187 C188 1.410 . S
C187 C195 1.503 1_565 S
C188 C187 1.410 . S
C188 C189 1.392 . S
C188 C191 1.511 . S
C189 C185 1.376 . S
C189 C188 1.392 . S
C189 H201 0.929 . S
C190 C186 1.531 . S
C190 H202 0.965 1_565 S
C190 H203 0.962 . S
C190 H204 0.960 . S
C191 C188 1.511 . S
C191 H205 0.961 . S
C191 H206 0.961 1_565 S
C191 H207 0.961 . S
C192 C193 1.370 . S
C192 C194 1.363 . S
C192 H208 0.931 . S
C193 C192 1.370 . S
C193 C197 1.408 1_454 S
C194 C192 1.363 . S
C194 C195 1.370 1_455 S
C194 C198 1.524 . S
C195 C187 1.503 1_545 S
C195 C194 1.370 1_655 S
C195 C196 1.403 1_554 S
C196 C195 1.403 1_556 S
C196 C197 1.404 . S
C196 C199 1.539 . S
C197 C193 1.408 1_656 S
C197 C196 1.404 . S
C197 H209 0.930 . S
C198 C194 1.524 . S
C198 H210 0.956 1_545 S
C198 H211 0.961 1_545 S
C198 H212 0.961 . S
C199 C196 1.539 . S
C199 H213 0.958 . S
C199 H214 0.961 . S
C199 H215 0.960 . S
H200 C184 0.931 . S
H201 C189 0.929 . S
H202 C190 0.965 1_545 S
H203 C190 0.962 . S
H204 C190 0.960 . S
H205 C191 0.961 . S
H206 C191 0.961 1_545 S
H207 C191 0.961 . S
H208 C192 0.931 . S
H209 C197 0.930 . S
H210 C198 0.956 1_565 S
H211 C198 0.961 1_565 S
H212 C198 0.961 . S
H213 C199 0.958 . S
H214 C199 0.961 . S
H215 C199 0.960 . S
C216 C217 1.391 . S
C216 C218 1.394 . S
C216 H232 0.931 . S
C217 C216 1.391 . S
C217 C221 1.376 1_455 S
C218 C216 1.394 . S
C218 C219 1.369 1_455 S
C218 C222 1.531 . S
C219 C218 1.369 1_655 S
C219 C220 1.410 . S
C219 C227 1.503 1_565 S
C220 C219 1.410 . S
C220 C221 1.392 . S
C220 C223 1.511 . S
C221 C217 1.376 1_655 S
C221 C220 1.392 . S
C221 H233 0.929 . S
C222 C218 1.531 . S
C222 H234 0.960 1_565 S
C222 H235 0.962 . S
C222 H236 0.960 . S
C223 C220 1.511 . S
C223 H237 0.961 . S
C223 H238 0.982 . S
C223 H239 0.961 . S
C224 C225 1.370 1_455 S
C224 C226 1.363 . S
C224 H240 0.931 . S
C225 C224 1.370 1_655 S
C225 C229 1.408 . S
C226 C224 1.363 . S
C226 C227 1.370 1_455 S
C226 C230 1.524 . S
C227 C219 1.503 1_545 S
C227 C226 1.370 1_655 S
C227 C228 1.403 . S
C228 C227 1.403 . S
C228 C229 1.404 . S
C228 C231 1.539 . S
C229 C225 1.408 . S
C229 C228 1.404 . S
C229 H241 0.930 . S
C230 C226 1.524 . S
C230 H242 0.956 . S
C230 H243 0.919 1_545 S
C230 H244 0.961 . S
C231 C228 1.539 . S
C231 H245 0.958 . S
C231 H246 0.961 . S
C231 H247 0.960 1_545 S
H232 C216 0.931 . S
H233 C221 0.929 . S
H234 C222 0.960 1_545 S
H235 C222 0.962 . S
H236 C222 0.960 . S
H237 C223 0.961 . S
H238 C223 0.982 . S
H239 C223 0.961 . S
H240 C224 0.931 . S
H241 C229 0.930 . S
H242 C230 0.956 . S
H243 C230 0.919 1_565 S
H244 C230 0.961 . S
H245 C231 0.958 . S
H246 C231 0.961 . S
H247 C231 0.960 1_565 S
C248 C249 1.391 . S
C248 C250 1.394 . S
C248 H264 0.931 . S
C249 C248 1.391 . S
C249 C253 1.376 1_554 S
C250 C248 1.394 . S
C250 C251 1.369 . S
C250 C254 1.531 . S
C251 C250 1.369 . S
C251 C252 1.410 1_554 S
C251 C259 1.503 . S
C252 C251 1.410 1_556 S
C252 C253 1.392 . S
C252 C255 1.511 . S
C253 C249 1.376 1_556 S
C253 C252 1.392 . S
C253 H265 0.929 . S
C254 C250 1.531 . S
C254 H266 0.960 . S
C254 H267 0.962 . S
C254 H268 0.960 . S
C255 C252 1.511 . S
C255 H269 0.961 . S
C255 H270 0.961 . S
C255 H271 0.961 . S
C256 C257 1.370 . S
C256 C258 1.363 . S
C256 H272 0.931 . S
C257 C256 1.370 . S
C257 C261 1.408 . S
C258 C256 1.363 . S
C258 C259 1.370 . S
C258 C262 1.524 1_554 S
C259 C251 1.503 . S
C259 C258 1.370 . S
C259 C260 1.403 . S
C260 C259 1.403 . S
C260 C261 1.404 . S
C260 C263 1.539 . S
C261 C257 1.408 . S
C261 C260 1.404 . S
C261 H273 0.930 . S
C262 C258 1.524 1_556 S
C262 H274 0.956 1_556 S
C262 H275 0.961 . S
C262 H276 0.961 . S
C263 C260 1.539 . S
C263 H277 0.958 . S
C263 H278 0.961 . S
C263 H279 0.960 . S
H264 C248 0.931 . S
H265 C253 0.929 . S
H266 C254 0.960 . S
H267 C254 0.962 . S
H268 C254 0.960 . S
H269 C255 0.961 . S
H270 C255 0.961 . S
H271 C255 0.961 . S
H272 C256 0.931 . S
H273 C261 0.930 . S
H274 C262 0.956 1_554 S
H275 C262 0.961 . S
H276 C262 0.961 . S
H277 C263 0.958 . S
H278 C263 0.961 . S
H279 C263 0.960 . S
C280 C281 1.391 . S
C280 C282 1.394 . S
C280 H296 0.931 . S
C281 C280 1.391 . S
C281 C285 1.376 . S
C282 C280 1.394 . S
C282 C283 1.369 . S
C282 C286 1.531 . S
C283 C282 1.369 . S
C283 C284 1.410 . S
C283 C291 1.503 . S
C284 C283 1.410 . S
C284 C285 1.392 . S
C284 C287 1.511 . S
C285 C281 1.376 . S
C285 C284 1.392 . S
C285 H297 0.929 . S
C286 C282 1.531 . S
C286 H298 0.960 . S
C286 H299 0.962 . S
C286 H300 0.960 . S
C287 C284 1.511 . S
C287 H301 0.961 . S
C287 H302 0.961 . S
C287 H303 0.961 . S
C288 C289 1.370 . S
C288 C290 1.363 . S
C288 H304 0.931 . S
C289 C288 1.370 . S
C289 C293 1.408 . S
C290 C288 1.363 . S
C290 C291 1.370 . S
C290 C294 1.524 . S
C291 C283 1.503 . S
C291 C290 1.370 . S
C291 C292 1.403 . S
C292 C291 1.403 . S
C292 C293 1.404 . S
C292 C295 1.539 . S
C293 C289 1.408 . S
C293 C292 1.404 . S
C293 H305 0.930 . S
C294 C290 1.524 . S
C294 H306 0.956 . S
C294 H307 0.961 . S
C294 H308 0.961 . S
C295 C292 1.539 . S
C295 H309 0.958 . S
C295 H310 0.961 . S
C295 H311 0.960 . S
H296 C280 0.931 . S
H297 C285 0.929 . S
H298 C286 0.960 . S
H299 C286 0.962 . S
H300 C286 0.960 . S
H301 C287 0.961 . S
H302 C287 0.961 . S
H303 C287 0.961 . S
H304 C288 0.931 . S
H305 C293 0.930 . S
H306 C294 0.956 . S
H307 C294 0.961 . S
H308 C294 0.961 . S
H309 C295 0.958 . S
H310 C295 0.961 . S
H311 C295 0.960 . S
C312 C313 1.391 . S
C312 C314 1.394 . S
C312 H328 0.931 . S
C313 C312 1.391 . S
C313 C317 1.376 1_455 S
C314 C312 1.394 . S
C314 C315 1.369 . S
C314 C318 1.531 . S
C315 C314 1.369 . S
C315 C316 1.410 1_455 S
C315 C323 1.503 . S
C316 C315 1.410 1_655 S
C316 C317 1.392 . S
C316 C319 1.511 . S
C317 C313 1.376 1_655 S
C317 C316 1.392 . S
C317 H329 0.929 . S
C318 C314 1.531 . S
C318 H330 0.960 . S
C318 H331 0.962 . S
C318 H332 0.960 . S
C319 C316 1.511 . S
C319 H333 0.961 . S
C319 H334 0.961 . S
C319 H335 0.961 . S
C320 C321 1.370 . S
C320 C322 1.363 . S
C320 H336 0.931 . S
C321 C320 1.370 . S
C321 C325 1.408 1_655 S
C322 C320 1.363 . S
C322 C323 1.370 1_655 S
C322 C326 1.524 . S
C323 C315 1.503 . S
C323 C322 1.370 1_455 S
C323 C324 1.403 . S
C324 C323 1.403 . S
C324 C325 1.404 . S
C324 C327 1.539 . S
C325 C321 1.408 1_455 S
C325 C324 1.404 . S
C325 H337 0.930 . S
C326 C322 1.524 . S
C326 H338 0.956 . S
C326 H339 0.961 . S
C326 H340 0.961 . S
C327 C324 1.539 . S
C327 H341 0.958 . S
C327 H342 0.961 . S
C327 H343 0.960 . S
H328 C312 0.931 . S
H329 C317 0.929 . S
H330 C318 0.960 . S
H331 C318 0.962 . S
H332 C318 0.960 . S
H333 C319 0.961 . S
H334 C319 0.961 . S
H335 C319 0.961 . S
H336 C320 0.931 . S
H337 C325 0.930 . S
H338 C326 0.956 . S
H339 C326 0.961 . S
H340 C326 0.961 . S
H341 C327 0.958 . S
H342 C327 0.961 . S
H343 C327 0.960 . S
C344 C345 1.391 1_655 S
C344 C346 1.394 . S
C344 H360 0.931 . S
C345 C344 1.391 1_455 S
C345 C349 1.376 . S
C346 C344 1.394 . S
C346 C347 1.369 1_655 S
C346 C350 1.531 . S
C347 C346 1.369 1_455 S
C347 C348 1.410 . S
C347 C355 1.503 . S
C348 C347 1.410 . S
C348 C349 1.392 . S
C348 C351 1.511 . S
C349 C345 1.376 . S
C349 C348 1.392 . S
C349 H361 0.929 . S
C350 C346 1.531 . S
C350 H362 0.960 . S
C350 H363 0.962 . S
C350 H364 0.960 . S
C351 C348 1.511 . S
C351 H365 0.961 . S
C351 H366 0.961 . S
C351 H367 0.961 . S
C352 C353 1.370 . S
C352 C354 1.363 . S
C352 H368 0.931 . S
C353 C352 1.370 . S
C353 C357 1.408 1_655 S
C354 C352 1.363 . S
C354 C355 1.370 1_655 S
C354 C358 1.524 . S
C355 C347 1.503 . S
C355 C354 1.370 1_455 S
C355 C356 1.403 . S
C356 C355 1.403 . S
C356 C357 1.404 . S
C356 C359 1.539 . S
C357 C353 1.408 1_455 S
C357 C356 1.404 . S
C357 H369 0.930 . S
C358 C354 1.524 . S
C358 H370 0.956 . S
C358 H371 0.961 . S
C358 H372 0.961 . S
C359 C356 1.539 . S
C359 H373 0.958 . S
C359 H374 0.961 . S
C359 H375 0.960 . S
H360 C344 0.931 . S
H361 C349 0.929 . S
H362 C350 0.960 . S
H363 C350 0.962 . S
H364 C350 0.960 . S
H365 C351 0.961 . S
H366 C351 0.961 . S
H367 C351 0.961 . S
H368 C352 0.931 . S
H369 C357 0.930 . S
H370 C358 0.956 . S
H371 C358 0.961 . S
H372 C358 0.961 . S
H373 C359 0.958 . S
H374 C359 0.961 . S
H375 C359 0.960 . S
C376 C377 1.391 . S
C376 C378 1.394 . S
C376 H392 0.931 . S
C377 C376 1.391 . S
C377 C381 1.376 1_455 S
C378 C376 1.394 . S
C378 C379 1.369 1_455 S
C378 C382 1.531 . S
C379 C378 1.369 1_655 S
C379 C380 1.410 . S
C379 C387 1.503 . S
C380 C379 1.410 . S
C380 C381 1.392 . S
C380 C383 1.511 . S
C381 C377 1.376 1_655 S
C381 C380 1.392 . S
C381 H393 0.929 . S
C382 C378 1.531 . S
C382 H394 0.960 . S
C382 H395 0.962 . S
C382 H396 0.960 . S
C383 C380 1.511 . S
C383 H397 0.961 . S
C383 H398 0.961 . S
C383 H399 0.961 . S
C384 C385 1.370 1_455 S
C384 C386 1.363 . S
C384 H400 0.931 . S
C385 C384 1.370 1_655 S
C385 C389 1.408 . S
C386 C384 1.363 . S
C386 C387 1.370 1_455 S
C386 C390 1.524 . S
C387 C379 1.503 . S
C387 C386 1.370 1_655 S
C387 C388 1.403 . S
C388 C387 1.403 . S
C388 C389 1.404 . S
C388 C391 1.539 . S
C389 C385 1.408 . S
C389 C388 1.404 . S
C389 H401 0.930 . S
C390 C386 1.524 . S
C390 H402 0.956 . S
C390 H403 0.961 . S
C390 H404 0.961 . S
C391 C388 1.539 . S
C391 H405 0.958 . S
C391 H406 0.961 . S
C391 H407 0.960 . S
H392 C376 0.931 . S
H393 C381 0.929 . S
H394 C382 0.960 . S
H395 C382 0.962 . S
H396 C382 0.960 . S
H397 C383 0.961 . S
H398 C383 0.961 . S
H399 C383 0.961 . S
H400 C384 0.931 . S
H401 C389 0.930 . S
H402 C390 0.956 . S
H403 C390 0.961 . S
H404 C390 0.961 . S
H405 C391 0.958 . S
H406 C391 0.961 . S
H407 C391 0.960 . S
C408 C409 1.391 . S
C408 C410 1.394 . S
C408 H424 0.931 . S
C409 C408 1.391 . S
C409 C413 1.376 1_455 S
C410 C408 1.394 . S
C410 C411 1.369 1_455 S
C410 C414 1.531 . S
C411 C410 1.369 1_655 S
C411 C412 1.410 . S
C411 C419 1.503 . S
C412 C411 1.410 . S
C412 C413 1.392 . S
C412 C415 1.511 . S
C413 C409 1.376 1_655 S
C413 C412 1.392 . S
C413 H425 0.929 . S
C414 C410 1.531 . S
C414 H426 0.960 . S
C414 H427 0.962 . S
C414 H428 0.960 . S
C415 C412 1.511 . S
C415 H429 0.961 . S
C415 H430 0.961 . S
C415 H431 0.961 . S
C416 C417 1.370 1_455 S
C416 C418 1.363 . S
C416 H432 0.931 . S
C417 C416 1.370 1_655 S
C417 C421 1.408 . S
C418 C416 1.363 . S
C418 C419 1.370 1_455 S
C418 C422 1.524 . S
C419 C411 1.503 . S
C419 C418 1.370 1_655 S
C419 C420 1.403 . S
C420 C419 1.403 . S
C420 C421 1.404 . S
C420 C423 1.539 . S
C421 C417 1.408 . S
C421 C420 1.404 . S
C421 H433 0.930 . S
C422 C418 1.524 . S
C422 H434 0.956 . S
C422 H435 0.961 . S
C422 H436 0.961 . S
C423 C420 1.539 . S
C423 H437 0.958 . S
C423 H438 0.961 . S
C423 H439 0.960 . S
H424 C408 0.931 . S
H425 C413 0.929 . S
H426 C414 0.960 . S
H427 C414 0.962 . S
H428 C414 0.960 . S
H429 C415 0.961 . S
H430 C415 0.961 . S
H431 C415 0.961 . S
H432 C416 0.931 . S
H433 C421 0.930 . S
H434 C422 0.956 . S
H435 C422 0.961 . S
H436 C422 0.961 . S
H437 C423 0.958 . S
H438 C423 0.961 . S
H439 C423 0.960 . S
C440 C441 1.391 . S
C440 C442 1.394 . S
C440 H456 0.931 . S
C441 C440 1.391 . S
C441 C445 1.376 . S
C442 C440 1.394 . S
C442 C443 1.369 . S
C442 C446 1.531 . S
C443 C442 1.369 . S
C443 C444 1.410 . S
C443 C451 1.503 . S
C444 C443 1.410 . S
C444 C445 1.392 . S
C444 C447 1.511 . S
C445 C441 1.376 . S
C445 C444 1.392 . S
C445 H457 0.929 . S
C446 C442 1.531 . S
C446 H458 0.960 . S
C446 H459 0.962 . S
C446 H460 0.960 . S
C447 C444 1.511 . S
C447 H461 0.961 . S
C447 H462 0.961 . S
C447 H463 0.961 . S
C448 C449 1.370 . S
C448 C450 1.363 . S
C448 H464 0.931 . S
C449 C448 1.370 . S
C449 C453 1.408 . S
C450 C448 1.363 . S
C450 C451 1.370 . S
C450 C454 1.524 . S
C451 C443 1.503 . S
C451 C450 1.370 . S
C451 C452 1.403 . S
C452 C451 1.403 . S
C452 C453 1.404 . S
C452 C455 1.539 . S
C453 C449 1.408 . S
C453 C452 1.404 . S
C453 H465 0.930 . S
C454 C450 1.524 . S
C454 H466 0.956 . S
C454 H467 0.961 . S
C454 H468 0.961 . S
C455 C452 1.539 . S
C455 H469 0.958 . S
C455 H470 0.961 . S
C455 H471 0.960 . S
H456 C440 0.931 . S
H457 C445 0.929 . S
H458 C446 0.960 . S
H459 C446 0.962 . S
H460 C446 0.960 . S
H461 C447 0.961 . S
H462 C447 0.961 . S
H463 C447 0.961 . S
H464 C448 0.931 . S
H465 C453 0.930 . S
H466 C454 0.956 . S
H467 C454 0.961 . S
H468 C454 0.961 . S
H469 C455 0.958 . S
H470 C455 0.961 . S
H471 C455 0.960 . S
C472 C473 1.391 . S
C472 C474 1.394 . S
C472 H488 0.931 . S
C473 C472 1.391 . S
C473 C477 1.376 . S
C474 C472 1.394 . S
C474 C475 1.369 . S
C474 C478 1.531 . S
C475 C474 1.369 . S
C475 C476 1.410 . S
C475 C483 1.503 . S
C476 C475 1.410 . S
C476 C477 1.392 . S
C476 C479 1.511 . S
C477 C473 1.376 . S
C477 C476 1.392 . S
C477 H489 0.929 . S
C478 C474 1.531 . S
C478 H490 0.960 . S
C478 H491 0.962 . S
C478 H492 0.960 . S
C479 C476 1.511 . S
C479 H493 0.961 . S
C479 H494 0.961 . S
C479 H495 0.961 . S
C480 C481 1.370 . S
C480 C482 1.363 . S
C480 H496 0.931 . S
C481 C480 1.370 . S
C481 C485 1.408 . S
C482 C480 1.363 . S
C482 C483 1.370 . S
C482 C486 1.524 . S
C483 C475 1.503 . S
C483 C482 1.370 . S
C483 C484 1.403 . S
C484 C483 1.403 . S
C484 C485 1.404 . S
C484 C487 1.539 . S
C485 C481 1.408 . S
C485 C484 1.404 . S
C485 H497 0.930 . S
C486 C482 1.524 . S
C486 H498 0.956 . S
C486 H499 0.961 . S
C486 H500 0.961 . S
C487 C484 1.539 . S
C487 H501 0.958 . S
C487 H502 0.961 . S
C487 H503 0.960 . S
H488 C472 0.931 . S
H489 C477 0.929 . S
H490 C478 0.960 . S
H491 C478 0.962 . S
H492 C478 0.960 . S
H493 C479 0.961 . S
H494 C479 0.961 . S
H495 C479 0.961 . S
H496 C480 0.931 . S
H497 C485 0.930 . S
H498 C486 0.956 . S
H499 C486 0.961 . S
H500 C486 0.961 . S
H501 C487 0.958 . S
H502 C487 0.961 . S
H503 C487 0.960 . S
C504 C505 1.391 . S
C504 C506 1.394 . S
C504 H520 0.931 . S
C505 C504 1.391 . S
C505 C509 1.376 . S
C506 C504 1.394 . S
C506 C507 1.369 . S
C506 C510 1.531 . S
C507 C506 1.369 . S
C507 C508 1.410 . S
C507 C515 1.503 . S
C508 C507 1.410 . S
C508 C509 1.392 . S
C508 C511 1.511 . S
C509 C505 1.376 . S
C509 C508 1.392 . S
C509 H521 0.929 . S
C510 C506 1.531 . S
C510 H522 0.960 . S
C510 H523 0.962 . S
C510 H524 0.960 . S
C511 C508 1.511 . S
C511 H525 0.961 . S
C511 H526 0.961 . S
C511 H527 0.961 . S
C512 C513 1.370 . S
C512 C514 1.363 . S
C512 H528 0.931 . S
C513 C512 1.370 . S
C513 C517 1.408 . S
C514 C512 1.363 . S
C514 C515 1.370 . S
C514 C518 1.524 . S
C515 C507 1.503 . S
C515 C514 1.370 . S
C515 C516 1.403 . S
C516 C515 1.403 . S
C516 C517 1.404 . S
C516 C519 1.539 . S
C517 C513 1.408 . S
C517 C516 1.404 . S
C517 H529 0.930 . S
C518 C514 1.524 . S
C518 H530 0.956 . S
C518 H531 0.961 . S
C518 H532 0.961 . S
C519 C516 1.539 . S
C519 H533 0.958 . S
C519 H534 0.961 . S
C519 H535 0.960 . S
H520 C504 0.931 . S
H521 C509 0.929 . S
H522 C510 0.960 . S
H523 C510 0.962 . S
H524 C510 0.960 . S
H525 C511 0.961 . S
H526 C511 0.961 . S
H527 C511 0.961 . S
H528 C512 0.931 . S
H529 C517 0.930 . S
H530 C518 0.956 . S
H531 C518 0.961 . S
H532 C518 0.961 . S
H533 C519 0.958 . S
H534 C519 0.961 . S
H535 C519 0.960 . S
C536 C537 1.391 . S
C536 C538 1.394 . S
C536 H552 0.931 . S
C537 C536 1.391 . S
C537 C541 1.376 . S
C538 C536 1.394 . S
C538 C539 1.369 . S
C538 C542 1.531 . S
C539 C538 1.369 . S
C539 C540 1.410 . S
C539 C547 1.503 . S
C540 C539 1.410 . S
C540 C541 1.392 . S
C540 C543 1.511 . S
C541 C537 1.376 . S
C541 C540 1.392 . S
C541 H553 0.929 . S
C542 C538 1.531 . S
C542 H554 0.960 . S
C542 H555 0.962 . S
C542 H556 0.960 . S
C543 C540 1.511 . S
C543 H557 0.961 . S
C543 H558 0.961 . S
C543 H559 0.961 . S
C544 C545 1.370 . S
C544 C546 1.363 . S
C544 H560 0.931 . S
C545 C544 1.370 . S
C545 C549 1.408 . S
C546 C544 1.363 . S
C546 C547 1.370 . S
C546 C550 1.524 . S
C547 C539 1.503 . S
C547 C546 1.370 . S
C547 C548 1.403 . S
C548 C547 1.403 . S
C548 C549 1.404 . S
C548 C551 1.539 . S
C549 C545 1.408 . S
C549 C548 1.404 . S
C549 H561 0.930 . S
C550 C546 1.524 . S
C550 H562 0.956 . S
C550 H563 0.961 . S
C550 H564 0.961 . S
C551 C548 1.539 . S
C551 H565 0.958 . S
C551 H566 0.961 . S
C551 H567 0.960 . S
H552 C536 0.931 . S
H553 C541 0.929 . S
H554 C542 0.960 . S
H555 C542 0.962 . S
H556 C542 0.960 . S
H557 C543 0.961 . S
H558 C543 0.961 . S
H559 C543 0.961 . S
H560 C544 0.931 . S
H561 C549 0.930 . S
H562 C550 0.956 . S
H563 C550 0.961 . S
H564 C550 0.961 . S
H565 C551 0.958 . S
H566 C551 0.961 . S
H567 C551 0.960 . S
C568 C569 1.391 . S
C568 C570 1.394 . S
C568 H584 0.931 1_556 S
C569 C568 1.391 . S
C569 C573 1.376 . S
C570 C568 1.394 . S
C570 C571 1.369 . S
C570 C574 1.531 1_556 S
C571 C570 1.369 . S
C571 C572 1.410 . S
C571 C579 1.503 . S
C572 C571 1.410 . S
C572 C573 1.392 . S
C572 C575 1.511 . S
C573 C569 1.376 . S
C573 C572 1.392 . S
C573 H585 0.929 . S
C574 C570 1.531 1_554 S
C574 H586 0.960 1_554 S
C574 H587 0.962 . S
C574 H588 0.960 1_455 S
C575 C572 1.511 . S
C575 H589 0.961 . S
C575 H590 0.961 . S
C575 H591 0.961 . S
C576 C577 1.370 1_554 S
C576 C578 1.363 . S
C576 H592 0.931 . S
C577 C576 1.370 1_556 S
C577 C581 1.408 . S
C578 C576 1.363 . S
C578 C579 1.370 1_554 S
C578 C582 1.524 . S
C579 C571 1.503 . S
C579 C578 1.370 1_556 S
C579 C580 1.403 . S
C580 C579 1.403 . S
C580 C581 1.404 . S
C580 C583 1.539 . S
C581 C577 1.408 . S
C581 C580 1.404 . S
C581 H593 0.930 . S
C582 C578 1.524 . S
C582 H594 0.956 . S
C582 H595 0.961 . S
C582 H596 0.961 . S
C583 C580 1.539 . S
C583 H597 0.958 . S
C583 H598 0.961 . S
C583 H599 0.960 . S
H584 C568 0.931 1_554 S
H585 C573 0.929 . S
H586 C574 0.960 1_556 S
H587 C574 0.962 . S
H588 C574 0.960 1_655 S
H589 C575 0.961 . S
H590 C575 0.961 . S
H591 C575 0.961 . S
H592 C576 0.931 . S
H593 C581 0.930 . S
H594 C582 0.956 . S
H595 C582 0.961 . S
H596 C582 0.961 . S
H597 C583 0.958 . S
H598 C583 0.961 . S
H599 C583 0.960 . S
C600 C601 1.391 . S
C600 C602 1.394 . S
C600 H616 0.931 . S
C601 C600 1.391 . S
C601 C605 1.376 . S
C602 C600 1.394 . S
C602 C603 1.369 . S
C602 C606 1.531 . S
C603 C602 1.369 . S
C603 C604 1.410 . S
C603 C611 1.503 . S
C604 C603 1.410 . S
C604 C605 1.392 . S
C604 C607 1.511 . S
C605 C601 1.376 . S
C605 C604 1.392 . S
C605 H617 0.929 . S
C606 C602 1.531 . S
C606 H618 0.960 1_556 S
C606 H619 0.962 . S
C606 H620 0.960 1_556 S
C607 C604 1.511 . S
C607 H621 0.961 1_655 S
C607 H622 0.961 . S
C607 H623 0.961 1_556 S
C608 C609 1.370 . S
C608 C610 1.363 . S
C608 H624 0.931 . S
C609 C608 1.370 . S
C609 C613 1.408 1_556 S
C610 C608 1.363 . S
C610 C611 1.370 . S
C610 C614 1.524 . S
C611 C603 1.503 . S
C611 C610 1.370 . S
C611 C612 1.403 1_556 S
C612 C611 1.403 1_554 S
C612 C613 1.404 . S
C612 C615 1.539 . S
C613 C609 1.408 1_554 S
C613 C612 1.404 . S
C613 H625 0.930 . S
C614 C610 1.524 . S
C614 H626 0.956 . S
C614 H627 0.961 . S
C614 H628 0.961 . S
C615 C612 1.539 . S
C615 H629 0.958 . S
C615 H630 0.961 . S
C615 H631 0.960 . S
H616 C600 0.931 . S
H617 C605 0.929 . S
H618 C606 0.960 1_554 S
H619 C606 0.962 . S
H620 C606 0.960 1_554 S
H621 C607 0.961 1_455 S
H622 C607 0.961 . S
H623 C607 0.961 1_554 S
H624 C608 0.931 . S
H625 C613 0.930 . S
H626 C614 0.956 . S
H627 C614 0.961 . S
H628 C614 0.961 . S
H629 C615 0.958 . S
H630 C615 0.961 . S
H631 C615 0.960 . S
C632 C633 1.391 . S
C632 C634 1.394 . S
C632 H648 0.931 . S
C633 C632 1.391 . S
C633 C637 1.376 . S
C634 C632 1.394 . S
C634 C635 1.369 . S
C634 C638 1.531 . S
C635 C634 1.369 . S
C635 C636 1.410 . S
C635 C643 1.503 . S
C636 C635 1.410 . S
C636 C637 1.392 . S
C636 C639 1.511 . S
C637 C633 1.376 . S
C637 C636 1.392 . S
C637 H649 0.929 . S
C638 C634 1.531 . S
C638 H650 0.960 . S
C638 H651 0.962 . S
C638 H652 0.960 . S
C639 C636 1.511 . S
C639 H653 0.958 1_455 S
C639 H654 0.961 . S
C639 H655 0.961 1_455 S
C640 C641 1.370 . S
C640 C642 1.363 . S
C640 H656 0.931 . S
C641 C640 1.370 . S
C641 C645 1.408 . S
C642 C640 1.363 . S
C642 C643 1.370 . S
C642 C646 1.524 . S
C643 C635 1.503 . S
C643 C642 1.370 . S
C643 C644 1.403 . S
C644 C643 1.403 . S
C644 C645 1.404 . S
C644 C647 1.539 . S
C645 C641 1.408 . S
C645 C644 1.404 . S
C645 H657 0.930 . S
C646 C642 1.524 . S
C646 H658 0.956 . S
C646 H659 0.961 . S
C646 H660 0.961 . S
C647 C644 1.539 . S
C647 H661 0.958 . S
C647 H662 0.961 . S
C647 H663 0.960 . S
H648 C632 0.931 . S
H649 C637 0.929 . S
H650 C638 0.960 . S
H651 C638 0.962 . S
H652 C638 0.960 . S
H653 C639 0.958 1_655 S
H654 C639 0.961 . S
H655 C639 0.961 1_655 S
H656 C640 0.931 . S
H657 C645 0.930 . S
H658 C646 0.956 . S
H659 C646 0.961 . S
H660 C646 0.961 . S
H661 C647 0.958 . S
H662 C647 0.961 . S
H663 C647 0.960 . S
C664 C665 1.391 . S
C664 C666 1.394 . S
C664 H680 0.931 . S
C665 C664 1.391 . S
C665 C669 1.376 . S
C666 C664 1.394 . S
C666 C667 1.369 . S
C666 C670 1.531 . S
C667 C666 1.369 . S
C667 C668 1.410 . S
C667 C675 1.503 . S
C668 C667 1.410 . S
C668 C669 1.392 . S
C668 C671 1.511 . S
C669 C665 1.376 . S
C669 C668 1.392 . S
C669 H681 0.929 . S
C670 C666 1.531 . S
C670 H682 0.960 . S
C670 H683 0.962 . S
C670 H684 0.960 . S
C671 C668 1.511 . S
C671 H685 0.961 . S
C671 H686 0.961 . S
C671 H687 0.961 . S
C672 C673 1.370 . S
C672 C674 1.363 . S
C672 H688 0.931 . S
C673 C672 1.370 . S
C673 C677 1.408 . S
C674 C672 1.363 . S
C674 C675 1.370 . S
C674 C678 1.524 . S
C675 C667 1.503 . S
C675 C674 1.370 . S
C675 C676 1.403 . S
C676 C675 1.403 . S
C676 C677 1.404 . S
C676 C679 1.539 . S
C677 C673 1.408 . S
C677 C676 1.404 . S
C677 H689 0.930 . S
C678 C674 1.524 . S
C678 H690 0.956 . S
C678 H691 0.961 . S
C678 H692 0.961 . S
C679 C676 1.539 . S
C679 H693 0.958 . S
C679 H694 0.961 . S
C679 H695 0.960 . S
H680 C664 0.931 . S
H681 C669 0.929 . S
H682 C670 0.960 . S
H683 C670 0.962 . S
H684 C670 0.960 . S
H685 C671 0.961 . S
H686 C671 0.961 . S
H687 C671 0.961 . S
H688 C672 0.931 . S
H689 C677 0.930 . S
H690 C678 0.956 . S
H691 C678 0.961 . S
H692 C678 0.961 . S
H693 C679 0.958 . S
H694 C679 0.961 . S
H695 C679 0.960 . S
C185 N25 1.428 . S
C193 N2 1.464 . S
C217 N48 1.493 . S
C225 N71 1.470 . S
C249 N94 1.492 . S
C257 N117 1.458 . S
C281 N140 1.439 . S
C289 N163 1.456 . S
C313 C16 1.488 . S
C321 C85 1.490 . S
C345 C62 1.512 . S
C353 C39 1.500 . S
C377 C53 1.490 . S
C385 C30 1.505 . S
C409 C7 1.490 . S
C417 C76 1.506 . S
C441 C108 1.512 . S
C449 C177 1.497 . S
C473 C154 1.475 . S
C481 C131 1.496 . S
C505 C122 1.515 . S
C513 C145 1.511 . S
C537 C99 1.490 . S
C545 C168 1.506 . S
C569 N127 1.513 . S
C577 N12 1.500 . S
C601 N104 1.453 . S
C609 N35 1.475 . S
C633 N58 1.505 . S
C641 N173 1.497 . S
C665 N150 1.508 . S
C673 N81 1.498 . S
