# Generated by pormake.
# Topology cdl, (4)-cn, num edge types: 1
# Building blocks:
#     Node 0, Type 0, BuildingBlock: KOZSID_clean_sbu_0, # of connection points: 4
#     Node 1, Type 0, BuildingBlock: KOZSID_clean_sbu_0, # of connection points: 4
#     Node 2, Type 0, BuildingBlock: KOZSID_clean_sbu_0, # of connection points: 4
#     Node 3, Type 0, BuildingBlock: KOZSID_clean_sbu_0, # of connection points: 4
#     Edge 4, Type (0, 0), BuildingBlock: FUNLAD_clean_linker_1, # of connection points: 2
#     Edge 5, Type (0, 0), BuildingBlock: FUNLAD_clean_linker_1, # of connection points: 2
#     Edge 6, Type (0, 0), BuildingBlock: FUNLAD_clean_linker_1, # of connection points: 2
#     Edge 7, Type (0, 0), BuildingBlock: FUNLAD_clean_linker_1, # of connection points: 2
#     Edge 8, Type (0, 0), BuildingBlock: FUNLAD_clean_linker_1, # of connection points: 2
#     Edge 9, Type (0, 0), BuildingBlock: FUNLAD_clean_linker_1, # of connection points: 2
#     Edge 10, Type (0, 0), BuildingBlock: FUNLAD_clean_linker_1, # of connection points: 2
#     Edge 11, Type (0, 0), BuildingBlock: FUNLAD_clean_linker_1, # of connection points: 2
# Relax obj value: 0.000
# Max RMSD: 0.025
# Mean RMSD: 0.023
data_MOF--net-cdl--node1-KOZSID_clean_sbu_0--edge1-FUNLAD_clean_linker_1
_symmetry_space_group_name_H-M    P1
_symmetry_Int_Tables_number       1
_symmetry_cell_setting            triclinic
loop_
_symmetry_equiv_pos_as_xyz
'x, y, z'
_cell_length_a     17.288374
_cell_length_b     20.299995
_cell_length_c     74.538036
_cell_angle_alpha  107.20075
_cell_angle_beta   105.60563
_cell_angle_gamma 84.748884
loop_
_atom_site_label
_atom_site_type_symbol
_atom_site_fract_x
_atom_site_fract_y
_atom_site_fract_z
_atom_type_partial_charge
C0 C 0.12155 0.16376 0.16207 0.0
C1 C 0.19401 0.18455 0.17567 0.0
C2 C 0.25148 0.17513 0.16567 0.0
C3 C 0.21104 0.15155 0.14656 0.0
N4 N 0.13083 0.14701 0.14368 0.0
Co5 Co 0.04947 0.12103 0.11791 0.0
N6 N 0.1347 0.10344 0.10326 0.0
C7 C 0.21494 0.10605 0.11101 0.0
C8 C 0.2588 0.08593 0.09746 0.0
C9 C 0.2032 0.07169 0.07997 0.0
C10 C 0.12825 0.0867 0.08385 0.0
N11 N 0.96829 0.09386 0.09213 0.0
C12 C 0.97791 0.07627 0.07377 0.0
C13 C 0.90518 0.05666 0.06009 0.0
C14 C 0.84786 0.06507 0.07008 0.0
C15 C 0.88826 0.08831 0.0892 0.0
N16 N 0.96401 0.13988 0.13253 0.0
C17 C 0.88382 0.13555 0.12463 0.0
C18 C 0.8392 0.15482 0.13799 0.0
C19 C 0.89398 0.17126 0.15554 0.0
C20 C 0.96993 0.16042 0.15195 0.0
N21 N 0.04142 0.21933 0.11715 0.0
C22 C 0.02882 0.35962 0.11665 0.0
C23 C 0.96075 0.31912 0.11154 0.0
C24 C 0.9682 0.24997 0.11176 0.0
C25 C 0.10379 0.32792 0.12182 0.0
C26 C 0.10857 0.25844 0.12187 0.0
N27 N 0.05755 0.02255 0.11867 0.0
C28 C 0.99508 0.91461 0.11467 0.0
C29 C 0.07005 0.88199 0.11904 0.0
C30 C 0.13819 0.92175 0.12347 0.0
C31 C 0.13079 0.99097 0.12332 0.0
C32 C 0.99038 0.98416 0.11468 0.0
H33 H 0.18548 0.0179 0.12713 0.0
H34 H 0.93155 1.00571 0.11145 0.0
H35 H 0.91373 0.22222 0.10744 0.0
H36 H 0.16743 0.23744 0.12575 0.0
C37 C 0.24697 0.13047 0.13104 0.0
C38 C 0.04521 0.16164 0.16716 0.0
C39 C 0.05244 0.0853 0.06885 0.0
C40 C 0.85221 0.10989 0.10464 0.0
H41 H 0.20501 0.20459 0.19124 0.0
H42 H 0.31527 0.18398 0.17166 0.0
H43 H 0.32351 0.08266 0.09998 0.0
H44 H 0.2168 0.0529 0.06597 0.0
H45 H 0.89337 0.03957 0.04444 0.0
H46 H 0.78393 0.05709 0.06407 0.0
H47 H 0.77445 0.15523 0.1353 0.0
H48 H 0.87832 0.18752 0.1693 0.0
H49 H 0.90127 0.34077 0.10731 0.0
H50 H 0.15903 0.35599 0.12604 0.0
H51 H 0.9397 0.88729 0.11109 0.0
H52 H 0.19771 0.89948 0.12711 0.0
C53 C 0.24628 0.19841 0.65176 0.0
C54 C 0.27542 0.26492 0.65655 0.0
C55 C 0.21034 0.30811 0.65446 0.0
C56 C 0.14507 0.26658 0.6488 0.0
N57 N 0.16447 0.19992 0.64752 0.0
Co58 Co 0.08562 0.12455 0.63991 0.0
N59 N 0.99378 0.19015 0.64348 0.0
C60 C 0.99464 0.25799 0.64516 0.0
C61 C 0.92856 0.29286 0.6501 0.0
C62 C 0.88282 0.24417 0.65152 0.0
C63 C 0.92146 0.18059 0.64643 0.0
N64 N 0.00754 0.04959 0.63261 0.0
C65 C 0.93565 0.0499 0.63677 0.0
C66 C 0.90169 0.98457 0.62853 0.0
C67 C 0.95398 0.94297 0.61914 0.0
C68 C 0.01675 0.98454 0.62198 0.0
N69 N 0.17588 0.05806 0.63575 0.0
C70 C 0.16512 0.99316 0.6239 0.0
C71 C 0.23398 0.96201 0.61967 0.0
C72 C 0.29195 1.01036 0.6293 0.0
C73 C 0.25634 0.06808 0.63968 0.0
N74 N 0.10801 0.12334 0.66704 0.0
C75 C 0.12463 0.11858 0.70516 0.0
C76 C 0.13369 0.05884 0.69053 0.0
C77 C 0.12424 0.06211 0.67157 0.0
C78 C 0.11008 0.18133 0.70047 0.0
C79 C 0.10295 0.18266 0.6814 0.0
N80 N 0.06303 0.12553 0.61263 0.0
C81 C 0.97079 0.11658 0.58129 0.0
C82 C 0.03387 0.12282 0.57337 0.0
C83 C 0.11178 0.13031 0.5856 0.0
C84 C 0.12484 0.13176 0.60502 0.0
C85 C 0.98644 0.1186 0.60094 0.0
H86 H 0.18574 0.1369 0.61371 0.0
H87 H 0.93667 0.11389 0.60664 0.0
H88 H 0.12837 0.01478 0.66046 0.0
H89 H 0.09203 0.23163 0.67825 0.0
C90 C 0.06573 0.28953 0.64702 0.0
C91 C 0.29745 0.13503 0.6498 0.0
C92 C 0.89145 0.11238 0.64531 0.0
C93 C 0.08999 0.96226 0.61763 0.0
H94 H 0.33694 0.28165 0.66097 0.0
H95 H 0.21072 0.36354 0.65724 0.0
H96 H 0.91859 0.34813 0.65414 0.0
H97 H 0.83047 0.25691 0.65712 0.0
H98 H 0.84404 0.96857 0.6287 0.0
H99 H 0.94779 0.88851 0.61159 0.0
H100 H 0.24068 0.91131 0.61008 0.0
H101 H 0.35145 1.0053 0.62718 0.0
H102 H 0.14572 1.00944 0.69361 0.0
H103 H 0.10501 0.22917 0.71143 0.0
H104 H 0.90966 0.11012 0.57234 0.0
H105 H 0.16331 0.13311 0.58025 0.0
C106 C 0.17693 0.17094 0.93311 0.0
C107 C 0.2531 0.18808 0.9454 0.0
C108 C 0.3051 0.17752 0.9339 0.0
C109 C 0.25841 0.15546 0.91531 0.0
N110 N 0.17931 0.15273 0.91418 0.0
Co111 Co 0.09047 0.12716 0.88974 0.0
N112 N 0.16787 0.10742 0.87298 0.0
C113 C 0.24879 0.10612 0.87908 0.0
C114 C 0.28599 0.08256 0.86427 0.0
C115 C 0.22508 0.07019 0.84769 0.0
C116 C 0.15414 0.09001 0.85336 0.0
N117 N 1.00166 0.10242 0.86526 0.0
C118 C 1.00403 0.08717 0.84638 0.0
C119 C 0.92791 0.0714 0.83395 0.0
C120 C 0.87577 0.0802 0.84536 0.0
C121 C 0.92247 0.09992 0.86402 0.0
N122 N 0.01306 0.14623 0.90651 0.0
C123 C 0.93206 0.14499 0.90035 0.0
C124 C 0.89442 0.16681 0.9151 0.0
C125 C 0.95509 0.18079 0.93171 0.0
C126 C 0.02665 0.16391 0.92615 0.0
N127 N 0.08203 0.22562 0.88908 0.0
C128 C 0.07013 0.36618 0.88882 0.0
C129 C 1.0021 0.32832 0.88602 0.0
C130 C 0.00914 0.25902 0.88608 0.0
C131 C 0.1446 0.33161 0.8915 0.0
C132 C 0.14899 0.26205 0.89147 0.0
N133 N 0.09895 0.02854 0.89039 0.0
C134 C 0.03636 0.92085 0.88657 0.0
C135 C 0.11125 0.88769 0.89046 0.0
C136 C 0.17944 0.92704 0.89457 0.0
C137 C 0.17218 0.99646 0.89461 0.0
C138 C 0.03178 0.99055 0.88673 0.0
H139 H 0.22691 0.02309 0.89822 0.0
H140 H 0.97299 1.01262 0.88388 0.0
H141 H 0.95449 0.23349 0.88356 0.0
H142 H 0.20732 0.23869 0.89336 0.0
C143 C 0.28774 0.13131 0.89874 0.0
C144 C 0.10608 0.1643 0.93984 0.0
C145 C 0.07531 0.09436 0.83991 0.0
C146 C 0.89331 0.12157 0.88062 0.0
H147 H 0.27068 0.20459 0.96109 0.0
H148 H 0.36971 0.18298 0.93859 0.0
H149 H 0.3498 0.07616 0.86537 0.0
H150 H 0.23254 0.05011 0.8331 0.0
H151 H 0.9107 0.05684 0.81826 0.0
H152 H 0.81112 0.07516 0.8406 0.0
H153 H 0.83051 0.17169 0.91394 0.0
H154 H 0.94705 0.20065 0.94626 0.0
H155 H 0.94293 0.35217 0.88374 0.0
H156 H 0.19985 0.35743 0.89377 0.0
H157 H 0.98099 0.89372 0.8832 0.0
H158 H 0.23892 0.90429 0.89783 0.0
C159 C 0.25066 0.18338 0.37964 0.0
C160 C 0.28655 0.24602 0.38278 0.0
C161 C 0.22928 0.29606 0.38493 0.0
C162 C 0.16115 0.26192 0.38244 0.0
N163 N 0.17112 0.19287 0.37919 0.0
Co164 Co 0.08242 0.12386 0.37097 0.0
N165 N 0.9978 0.19809 0.37258 0.0
C166 C 0.0097 0.26677 0.37758 0.0
C167 C 0.94136 0.30601 0.37803 0.0
C168 C 0.88213 0.25989 0.37362 0.0
C169 C 0.91815 0.19453 0.37102 0.0
N170 N 0.99357 0.05459 0.3618 0.0
C171 C 0.91323 0.06329 0.36055 0.0
C172 C 0.87734 0.99928 0.3558 0.0
C173 C 0.9349 0.94992 0.35311 0.0
C174 C 1.0036 0.98515 0.357 0.0
N175 N 0.16751 0.04992 0.37033 0.0
C176 C 0.15649 0.98196 0.36703 0.0
C177 C 0.22582 0.94334 0.36803 0.0
C178 C 0.28487 0.98928 0.37188 0.0
C179 C 0.24765 0.05348 0.37266 0.0
N180 N 0.08979 0.12965 0.39859 0.0
C181 C 0.08778 0.14107 0.43726 0.0
C182 C 0.07308 0.07812 0.42281 0.0
C183 C 0.07486 0.07353 0.4038 0.0
C184 C 0.10613 0.19749 0.43213 0.0
C185 C 0.10615 0.19095 0.41288 0.0
N186 N 0.07497 0.11806 0.34335 0.0
C187 C 0.08999 0.05141 0.31158 0.0
C188 C 0.07939 0.11016 0.30507 0.0
C189 C 0.06464 0.17296 0.31794 0.0
C190 C 0.06267 0.17566 0.33683 0.0
C191 C 0.08644 0.0562 0.33046 0.0
H192 H 0.05259 0.22525 0.34598 0.0
H193 H 0.09448 1.00918 0.33439 0.0
H194 H 0.06341 0.02402 0.39359 0.0
H195 H 0.11858 0.23654 0.40988 0.0
C196 C 0.08589 0.29301 0.38176 0.0
C197 C 0.2912 0.1155 0.3752 0.0
C198 C 0.87296 0.1311 0.36657 0.0
C199 C 0.07973 0.95496 0.36031 0.0
H200 H 0.34616 0.25614 0.38248 0.0
H201 H 0.23556 0.35055 0.38696 0.0
H202 H 0.93541 0.36157 0.3813 0.0
H203 H 0.81929 0.27329 0.37247 0.0
H204 H 0.8182 0.98703 0.35585 0.0
H205 H 0.92884 0.89505 0.35054 0.0
H206 H 0.23227 0.888 0.36543 0.0
H207 H 0.34805 0.97653 0.37344 0.0
H208 H 0.06137 0.03205 0.42609 0.0
H209 H 0.11894 0.24711 0.44288 0.0
H210 H 0.10126 1.00158 0.30211 0.0
H211 H 0.05735 0.22041 0.31381 0.0
H212 H 0.95705 0.45491 0.11453 0.0
C213 C 0.01799 0.43402 0.11666 0.0
H214 H 0.1389 0.45768 0.12004 0.0
H215 H 0.0623 0.70981 0.08447 0.0
H216 H 0.10523 0.62311 0.05869 0.0
H217 H 0.12882 0.50257 0.05983 0.0
H218 H 0.1093 0.46785 0.08673 0.0
C219 C 0.07766 0.47675 0.1189 0.0
C220 C 0.06183 0.55032 0.11828 0.0
C221 C 0.0749 0.57059 0.10266 0.0
C222 C 0.06212 0.64063 0.10211 0.0
C223 C 0.07294 0.6581 0.08592 0.0
C224 C 0.09713 0.60867 0.07093 0.0
C225 C 0.11037 0.54079 0.07156 0.0
C226 C 0.09921 0.52162 0.08715 0.0
H227 H 0.1418 0.78661 0.12106 0.0
C228 C 0.08087 0.80754 0.11899 0.0
H229 H 0.95997 0.78358 0.11555 0.0
H230 H 0.03706 0.53168 0.1512 0.0
H231 H 0.99402 0.61835 0.17696 0.0
H232 H 0.97012 0.73883 0.17579 0.0
H233 H 0.98958 0.77354 0.14888 0.0
C234 C 0.02128 0.76469 0.11673 0.0
C235 C 0.03727 0.69113 0.11736 0.0
C236 C 0.02419 0.67085 0.13298 0.0
C237 C 0.03704 0.60083 0.13353 0.0
C238 C 0.02631 0.58337 0.14974 0.0
C239 C 1.00207 0.63278 0.16472 0.0
C240 C 0.98866 0.70063 0.16406 0.0
C241 C 0.99979 0.7198 0.14848 0.0
H242 H 0.40567 0.18872 0.65323 0.0
C243 C 0.38256 0.14117 0.65336 0.0
H244 H 0.42449 0.04423 0.65944 0.0
H245 H 0.71424 0.02477 0.62039 0.0
H246 H 0.6461 0.91659 0.60297 0.0
H247 H 0.52732 0.88728 0.61132 0.0
H248 H 0.47512 0.96698 0.63671 0.0
C249 C 0.44161 0.09076 0.65723 0.0
C250 C 0.52753 0.0981 0.65707 0.0
C251 C 0.56288 0.0476 0.64373 0.0
C252 C 0.63563 0.06188 0.64006 0.0
C253 C 0.6629 0.01453 0.62476 0.0
C254 C 0.62372 0.9525 0.61446 0.0
C255 C 0.55654 0.93625 0.61906 0.0
C256 C 0.52622 0.98307 0.63347 0.0
H257 H 0.81805 0.05613 0.65392 0.0
C258 C 0.82227 0.10276 0.64991 0.0
H259 H 0.74638 0.17979 0.63977 0.0
H260 H 0.48989 0.1962 0.68764 0.0
H261 H 0.5655 0.2991 0.70745 0.0
H262 H 0.69362 0.32217 0.70196 0.0
H263 H 0.74711 0.24236 0.6767 0.0
C264 C 0.7534 0.14034 0.64718 0.0
C265 C 0.67831 0.12325 0.65131 0.0
C266 C 0.64719 0.1704 0.66606 0.0
C267 C 0.57218 0.1578 0.66897 0.0
C268 C 0.54446 0.20484 0.68424 0.0
C269 C 0.58779 0.26364 0.69587 0.0
C270 C 0.66001 0.27656 0.6928 0.0
C271 C 0.68985 0.23051 0.67818 0.0
H272 H 1.00007 0.4635 0.8886 0.0
C273 C 0.05984 0.44085 0.88909 0.0
H274 H 0.17821 0.46127 0.8893 0.0
H275 H 0.08869 0.71608 0.85509 0.0
H276 H 0.11915 0.62871 0.82765 0.0
H277 H 0.14261 0.50756 0.82817 0.0
H278 H 0.13532 0.47282 0.85611 0.0
C279 C 0.11851 0.48194 0.88976 0.0
C280 C 0.10291 0.55597 0.88955 0.0
C281 C 0.10876 0.57616 0.87327 0.0
C282 C 0.09608 0.64655 0.87306 0.0
C283 C 0.09959 0.66404 0.85627 0.0
C284 C 0.11657 0.61426 0.84034 0.0
C285 C 0.12973 0.54602 0.84062 0.0
C286 C 0.12565 0.52684 0.85681 0.0
H287 H 0.18187 0.79075 0.8909 0.0
C288 C 0.12176 0.81294 0.89007 0.0
H289 H 1.00286 0.79184 0.88927 0.0
H290 H 0.09348 0.53753 0.92383 0.0
H291 H 0.0631 0.62495 0.95126 0.0
H292 H 0.03937 0.74607 0.9507 0.0
H293 H 0.04623 0.78064 0.9227 0.0
C294 C 0.06286 0.77143 0.88904 0.0
C295 C 0.0786 0.69745 0.88927 0.0
C296 C 0.07281 0.67727 0.90556 0.0
C297 C 0.08556 0.60691 0.90578 0.0
C298 C 0.08235 0.58951 0.92261 0.0
C299 C 0.06545 0.63934 0.93854 0.0
C300 C 0.05214 0.70755 0.93823 0.0
C301 C 0.05599 0.72663 0.92202 0.0
H302 H 0.37952 0.0598 0.36055 0.0
C303 C 0.36781 0.10646 0.37129 0.0
H304 H 0.43224 0.18589 0.39579 0.0
H305 H 0.77379 0.05485 0.39016 0.0
H306 H 0.76186 0.03461 0.41974 0.0
H307 H 0.63506 0.06029 0.42981 0.0
H308 H 0.51934 0.10621 0.41029 0.0
C309 C 0.43368 0.14872 0.382 0.0
C310 C 0.51093 0.13603 0.3763 0.0
C311 C 0.57834 0.11038 0.38806 0.0
C312 C 0.6517 0.09638 0.38237 0.0
C313 C 0.71724 0.06829 0.39403 0.0
C314 C 0.71106 0.05589 0.41099 0.0
C315 C 0.63965 0.07028 0.41665 0.0
C316 C 0.57375 0.09687 0.40533 0.0
H317 H 0.7854 0.18401 0.38077 0.0
C318 C 0.79829 0.13837 0.36986 0.0
H319 H 0.73623 0.06072 0.3456 0.0
H320 H 0.39464 0.18978 0.35112 0.0
H321 H 0.40674 0.21048 0.32163 0.0
H322 H 0.53377 0.18542 0.31165 0.0
H323 H 0.64951 0.13959 0.33117 0.0
C324 C 0.73539 0.09726 0.35951 0.0
C325 C 0.65779 0.10932 0.3651 0.0
C326 C 0.59036 0.13494 0.35334 0.0
C327 C 0.51692 0.14877 0.359 0.0
C328 C 0.45131 0.17667 0.34732 0.0
C329 C 0.45759 0.18929 0.33039 0.0
C330 C 0.52911 0.17523 0.32478 0.0
C331 C 0.59503 0.14869 0.3361 0.0
H332 H 0.17329 0.17177 0.96959 0.0
C333 C 0.11649 0.15808 0.95894 0.0
H334 H 0.00879 0.1024 0.95466 0.0
H335 H 0.12413 0.99172 0.02798 0.0
H336 H 0.12265 0.88684 1.0018 0.0
H337 H 0.09963 0.89091 0.96802 0.0
H338 H 0.07853 1.00006 0.96024 0.0
C339 C 0.06028 0.13007 0.96514 0.0
C340 C 0.07503 0.1282 0.98572 0.0
C341 C 0.08608 0.06393 0.99004 0.0
C342 C 0.09821 0.06151 0.00953 0.0
C343 C 0.11215 0.99662 0.01342 0.0
C344 C 0.11213 0.93594 0.99853 0.0
C345 C 0.09926 0.93824 0.97952 0.0
C346 C 0.08683 1.0013 0.97525 0.0
H347 H 0.99385 0.07855 0.03865 0.0
C348 C 0.04845 0.09229 0.05011 0.0
H349 H 0.15776 0.14859 0.05624 0.0
H350 H 0.05034 0.26011 0.98253 0.0
H351 H 0.05244 0.36493 0.00874 0.0
H352 H 0.07531 0.36078 0.04251 0.0
H353 H 0.09574 0.2516 0.05024 0.0
C354 C 0.10785 0.12101 0.0451 0.0
C355 C 0.09789 0.12338 0.02471 0.0
C356 C 0.08776 0.18772 0.02042 0.0
C357 C 0.07566 0.19015 1.00093 0.0
C358 C 0.06217 0.2551 0.99707 0.0
C359 C 0.06259 0.31579 0.01198 0.0
C360 C 0.07538 0.31345 0.03099 0.0
C361 C 0.08736 0.25035 0.03523 0.0
H362 H 0.1235 0.18952 0.46909 0.0
C363 C 0.08704 0.14907 0.45776 0.0
H364 H 1.00304 0.07108 0.45181 0.0
H365 H 0.1091 0.01511 0.53384 0.0
H366 H 0.146 0.90747 0.51296 0.0
H367 H 0.13687 0.89507 0.47853 0.0
H368 H 0.09096 0.99022 0.46476 0.0
C369 C 0.04113 0.11095 0.46286 0.0
C370 C 0.04379 0.11868 0.48364 0.0
C371 C 0.06974 0.06217 0.49146 0.0
C372 C 0.0749 0.06925 0.51136 0.0
C373 C 0.10311 1.01246 0.51882 0.0
C374 C 0.12475 0.95036 0.507 0.0
C375 C 0.1196 0.94337 0.48762 0.0
C376 C 0.09282 0.99845 0.47988 0.0
H377 H 0.96361 0.09166 0.54249 0.0
C378 C 0.01784 0.11755 0.55226 0.0
H379 H 0.11925 0.17306 0.55422 0.0
H380 H 0.9785 0.23375 0.47282 0.0
H381 H 0.94165 0.3412 0.49378 0.0
H382 H 0.9564 0.35486 0.52853 0.0
H383 H 0.00708 0.26055 0.54248 0.0
C384 C 0.06761 0.14281 0.54477 0.0
C385 C 0.05386 0.13278 0.52347 0.0
C386 C 0.02604 0.18869 0.51557 0.0
C387 C 0.01967 0.18138 0.4956 0.0
C388 C 0.98775 0.23718 0.488 0.0
C389 C 0.96562 0.29904 0.49985 0.0
C390 C 0.97379 0.30669 0.51941 0.0
C391 C 1.00324 0.25226 0.52724 0.0
H392 H 0.12563 0.06263 0.27905 0.0
C393 C 0.08834 0.10453 0.2853 0.0
H394 H 0.01298 0.18882 0.28047 0.0
H395 H 0.15193 0.25715 0.21883 0.0
H396 H 0.18811 0.3585 0.24633 0.0
H397 H 0.17004 0.36192 0.27831 0.0
H398 H 0.1152 0.26434 0.28296 0.0
C399 C 0.05132 0.14711 0.27466 0.0
C400 C 0.06546 0.14261 0.25534 0.0
C401 C 0.09852 0.19991 0.25288 0.0
C402 C 0.1102 0.19762 0.23448 0.0
C403 C 0.14242 0.25592 0.23247 0.0
C404 C 0.16343 0.31447 0.24815 0.0
C405 C 0.15316 0.31642 0.26614 0.0
C406 C 0.12126 0.26002 0.26858 0.0
H407 H 0.98649 0.17644 0.1905 0.0
C408 C 0.04161 0.16113 0.18604 0.0
H409 H 0.15389 0.10808 0.19509 0.0
H410 H 0.99078 0.02669 0.25386 0.0
H411 H 0.95826 0.92469 0.22649 0.0
H412 H 0.98711 0.91823 0.19535 0.0
H413 H 0.04759 0.01451 0.19133 0.0
C414 C 0.10177 0.13558 0.19926 0.0
C415 C 0.09026 0.13763 0.21859 0.0
C416 C 0.0579 0.08011 0.22103 0.0
C417 C 0.04385 0.08302 0.23926 0.0
C418 C 0.0063 0.02636 0.24073 0.0
C419 C 0.98651 0.96762 0.22503 0.0
C420 C 1.00256 0.96404 0.20748 0.0
C421 C 0.03741 0.0196 0.20538 0.0
H422 H 0.1731 0.07522 0.73003 0.0
C423 C 0.13217 0.11398 0.72513 0.0
H424 H 0.04418 0.18968 0.7318 0.0
H425 H 0.10458 1.0003 0.7952 0.0
H426 H 0.06384 0.9019 0.76717 0.0
H427 H 0.02993 0.91455 0.73403 0.0
H428 H 0.03962 0.02526 0.72876 0.0
C429 C 0.08656 0.15185 0.73671 0.0
C430 C 0.09372 0.14561 0.75668 0.0
C431 C 0.08155 0.08151 0.75955 0.0
C432 C 0.09444 0.07542 0.77872 0.0
C433 C 0.09017 1.00919 0.78107 0.0
C434 C 0.06761 0.95193 0.76507 0.0
C435 C 0.04902 0.95896 0.74641 0.0
C436 C 0.05573 0.02279 0.7436 0.0
H437 H 0.00724 0.09859 0.81112 0.0
C438 C 0.06568 0.10564 0.82139 0.0
H439 H 0.18039 0.15075 0.82569 0.0
H440 H 0.11945 0.27681 0.75665 0.0
H441 H 0.14645 0.37769 0.78452 0.0
H442 H 0.1556 0.36932 0.81737 0.0
H443 H 0.13903 0.25985 0.82259 0.0
C444 C 0.12547 0.1293 0.81526 0.0
C445 C 0.11211 0.13478 0.79501 0.0
C446 C 0.1197 0.19959 0.79205 0.0
C447 C 0.11181 0.20481 0.77297 0.0
C448 C 0.12285 0.26991 0.77068 0.0
C449 C 0.13864 0.32835 0.78659 0.0
C450 C 0.14399 0.32362 0.80508 0.0
C451 C 0.13472 0.26024 0.80788 0.0
loop_
_geom_bond_atom_site_label_1
_geom_bond_atom_site_label_2
_geom_bond_distance
_geom_bond_site_symmetry_2
_ccdc_geom_bond_type
C0 C1 1.443 . S
C0 N4 1.376 . S
C0 C38 1.389 . S
C1 C0 1.443 . S
C1 C2 1.340 . S
C1 H41 0.951 . S
C2 C1 1.340 . S
C2 C3 1.439 . S
C2 H42 0.950 . S
C3 C2 1.439 . S
C3 N4 1.374 . S
C3 C37 1.395 . S
N4 C0 1.376 . S
N4 C3 1.374 . S
N4 Co5 2.008 . S
Co5 N4 2.008 . S
Co5 N6 1.995 . S
Co5 N11 2.008 . S
Co5 N16 1.995 . S
Co5 N21 2.282 . S
Co5 N27 2.282 . S
N6 Co5 1.995 . S
N6 C7 1.376 . S
N6 C10 1.383 . S
C7 N6 1.376 . S
C7 C8 1.446 . S
C7 C37 1.391 . S
C8 C7 1.446 . S
C8 C9 1.339 . S
C8 H43 0.949 . S
C9 C8 1.339 . S
C9 C10 1.439 . S
C9 H44 0.950 . S
C10 N6 1.383 . S
C10 C9 1.439 . S
C10 C39 1.392 . S
N11 Co5 2.008 . S
N11 C12 1.376 . S
N11 C15 1.374 1_455 S
C12 N11 1.376 . S
C12 C13 1.443 1_455 S
C12 C39 1.389 . S
C13 C12 1.443 1_655 S
C13 C14 1.340 . S
C13 H45 0.951 . S
C14 C13 1.340 . S
C14 C15 1.439 . S
C14 H46 0.950 . S
C15 N11 1.374 1_655 S
C15 C14 1.439 . S
C15 C40 1.395 . S
N16 Co5 1.995 . S
N16 C17 1.376 1_455 S
N16 C20 1.383 . S
C17 N16 1.376 1_655 S
C17 C18 1.446 . S
C17 C40 1.391 . S
C18 C17 1.446 . S
C18 C19 1.339 . S
C18 H47 0.949 . S
C19 C18 1.339 . S
C19 C20 1.439 1_655 S
C19 H48 0.950 . S
C20 N16 1.383 . S
C20 C19 1.439 1_455 S
C20 C38 1.392 . S
N21 Co5 2.282 . S
N21 C24 1.332 . S
N21 C26 1.332 . S
C22 C23 1.386 . S
C22 C25 1.388 . S
C23 C22 1.386 . S
C23 C24 1.382 . S
C23 H49 0.950 1_455 S
C24 N21 1.332 . S
C24 C23 1.382 . S
C24 H35 0.952 . S
C25 C22 1.388 . S
C25 C26 1.382 . S
C25 H50 0.950 . S
C26 N21 1.332 . S
C26 C25 1.382 . S
C26 H36 0.948 . S
N27 Co5 2.282 . S
N27 C31 1.332 1_545 S
N27 C32 1.332 1_545 S
C28 C29 1.388 . S
C28 C32 1.382 . S
C28 H51 0.950 1_455 S
C29 C28 1.388 . S
C29 C30 1.386 . S
C30 C29 1.386 . S
C30 C31 1.382 . S
C30 H52 0.950 . S
C31 N27 1.332 1_565 S
C31 C30 1.382 . S
C31 H33 0.952 . S
C32 N27 1.332 1_565 S
C32 C28 1.382 . S
C32 H34 0.948 1_465 S
H33 C31 0.952 . S
H34 C32 0.948 1_645 S
H35 C24 0.952 . S
H36 C26 0.948 . S
C37 C3 1.395 . S
C37 C7 1.391 . S
C38 C0 1.389 . S
C38 C20 1.392 . S
C39 C10 1.392 . S
C39 C12 1.389 . S
C40 C15 1.395 . S
C40 C17 1.391 . S
H41 C1 0.951 . S
H42 C2 0.950 . S
H43 C8 0.949 . S
H44 C9 0.950 . S
H45 C13 0.951 . S
H46 C14 0.950 . S
H47 C18 0.949 . S
H48 C19 0.950 . S
H49 C23 0.950 1_655 S
H50 C25 0.950 . S
H51 C28 0.950 1_655 S
H52 C30 0.950 . S
C53 C54 1.443 . S
C53 N57 1.376 . S
C53 C91 1.389 . S
C54 C53 1.443 . S
C54 C55 1.340 . S
C54 H94 0.951 . S
C55 C54 1.340 . S
C55 C56 1.439 . S
C55 H95 0.950 . S
C56 C55 1.439 . S
C56 N57 1.374 . S
C56 C90 1.395 . S
N57 C53 1.376 . S
N57 C56 1.374 . S
N57 Co58 2.008 . S
Co58 N57 2.008 . S
Co58 N59 1.995 1_455 S
Co58 N64 2.008 1_455 S
Co58 N69 1.995 . S
Co58 N74 2.282 . S
Co58 N80 2.282 . S
N59 Co58 1.995 1_655 S
N59 C60 1.376 . S
N59 C63 1.383 . S
C60 N59 1.376 . S
C60 C61 1.446 . S
C60 C90 1.391 1_655 S
C61 C60 1.446 . S
C61 C62 1.339 . S
C61 H96 0.949 . S
C62 C61 1.339 . S
C62 C63 1.439 . S
C62 H97 0.950 . S
C63 N59 1.383 . S
C63 C62 1.439 . S
C63 C92 1.392 . S
N64 Co58 2.008 1_655 S
N64 C65 1.376 . S
N64 C68 1.374 1_545 S
C65 N64 1.376 . S
C65 C66 1.443 1_545 S
C65 C92 1.389 . S
C66 C65 1.443 1_565 S
C66 C67 1.340 . S
C66 H98 0.951 . S
C67 C66 1.340 . S
C67 C68 1.439 . S
C67 H99 0.950 . S
C68 N64 1.374 1_565 S
C68 C67 1.439 . S
C68 C93 1.395 1_655 S
N69 Co58 1.995 . S
N69 C70 1.376 1_545 S
N69 C73 1.383 . S
C70 N69 1.376 1_565 S
C70 C71 1.446 . S
C70 C93 1.391 . S
C71 C70 1.446 . S
C71 C72 1.339 . S
C71 H100 0.949 . S
C72 C71 1.339 . S
C72 C73 1.439 1_565 S
C72 H101 0.950 . S
C73 N69 1.383 . S
C73 C72 1.439 1_545 S
C73 C91 1.392 . S
N74 Co58 2.282 . S
N74 C77 1.332 . S
N74 C79 1.332 . S
C75 C76 1.386 . S
C75 C78 1.388 . S
C76 C75 1.386 . S
C76 C77 1.382 . S
C76 H102 0.950 1_545 S
C77 N74 1.332 . S
C77 C76 1.382 . S
C77 H88 0.952 1_545 S
C78 C75 1.388 . S
C78 C79 1.382 . S
C78 H103 0.950 . S
C79 N74 1.332 . S
C79 C78 1.382 . S
C79 H89 0.948 . S
N80 Co58 2.282 . S
N80 C84 1.332 . S
N80 C85 1.332 . S
C81 C82 1.388 . S
C81 C85 1.382 . S
C81 H104 0.950 1_545 S
C82 C81 1.388 . S
C82 C83 1.386 . S
C83 C82 1.386 . S
C83 C84 1.382 . S
C83 H105 0.950 . S
C84 N80 1.332 . S
C84 C83 1.382 . S
C84 H86 0.952 . S
C85 N80 1.332 . S
C85 C81 1.382 . S
C85 H87 0.948 1_545 S
H86 C84 0.952 . S
H87 C85 0.948 1_565 S
H88 C77 0.952 1_565 S
H89 C79 0.948 . S
C90 C56 1.395 . S
C90 C60 1.391 1_455 S
C91 C53 1.389 . S
C91 C73 1.392 . S
C92 C63 1.392 . S
C92 C65 1.389 . S
C93 C68 1.395 1_455 S
C93 C70 1.391 . S
H94 C54 0.951 . S
H95 C55 0.950 . S
H96 C61 0.949 . S
H97 C62 0.950 . S
H98 C66 0.951 . S
H99 C67 0.950 . S
H100 C71 0.949 . S
H101 C72 0.950 . S
H102 C76 0.950 1_565 S
H103 C78 0.950 . S
H104 C81 0.950 1_565 S
H105 C83 0.950 . S
C106 C107 1.443 . S
C106 N110 1.376 . S
C106 C144 1.389 . S
C107 C106 1.443 . S
C107 C108 1.340 . S
C107 H147 0.951 . S
C108 C107 1.340 . S
C108 C109 1.439 . S
C108 H148 0.950 . S
C109 C108 1.439 . S
C109 N110 1.374 . S
C109 C143 1.395 . S
N110 C106 1.376 . S
N110 C109 1.374 . S
N110 Co111 2.008 . S
Co111 N110 2.008 . S
Co111 N112 1.995 . S
Co111 N117 2.008 1_455 S
Co111 N122 1.995 1_455 S
Co111 N127 2.282 . S
Co111 N133 2.282 1_545 S
N112 Co111 1.995 . S
N112 C113 1.376 . S
N112 C116 1.383 . S
C113 N112 1.376 . S
C113 C114 1.446 . S
C113 C143 1.391 . S
C114 C113 1.446 . S
C114 C115 1.339 . S
C114 H149 0.949 . S
C115 C114 1.339 . S
C115 C116 1.439 . S
C115 H150 0.950 . S
C116 N112 1.383 . S
C116 C115 1.439 . S
C116 C145 1.392 . S
N117 Co111 2.008 1_655 S
N117 C118 1.376 . S
N117 C121 1.374 . S
C118 N117 1.376 . S
C118 C119 1.443 . S
C118 C145 1.389 1_655 S
C119 C118 1.443 . S
C119 C120 1.340 . S
C119 H151 0.951 . S
C120 C119 1.340 . S
C120 C121 1.439 . S
C120 H152 0.950 . S
C121 N117 1.374 . S
C121 C120 1.439 . S
C121 C146 1.395 . S
N122 Co111 1.995 1_655 S
N122 C123 1.376 . S
N122 C126 1.383 . S
C123 N122 1.376 . S
C123 C124 1.446 . S
C123 C146 1.391 . S
C124 C123 1.446 . S
C124 C125 1.339 . S
C124 H153 0.949 . S
C125 C124 1.339 . S
C125 C126 1.439 . S
C125 H154 0.950 . S
C126 N122 1.383 . S
C126 C125 1.439 . S
C126 C144 1.392 1_655 S
N127 Co111 2.282 . S
N127 C130 1.332 1_455 S
N127 C132 1.332 . S
C128 C129 1.386 1_455 S
C128 C131 1.388 . S
C129 C128 1.386 1_655 S
C129 C130 1.382 . S
C129 H155 0.950 . S
C130 N127 1.332 1_655 S
C130 C129 1.382 . S
C130 H141 0.952 . S
C131 C128 1.388 . S
C131 C132 1.382 . S
C131 H156 0.950 . S
C132 N127 1.332 . S
C132 C131 1.382 . S
C132 H142 0.948 . S
N133 Co111 2.282 1_565 S
N133 C137 1.332 . S
N133 C138 1.332 1_455 S
C134 C135 1.388 1_655 S
C134 C138 1.382 . S
C134 H157 0.950 . S
C135 C134 1.388 1_455 S
C135 C136 1.386 . S
C136 C135 1.386 . S
C136 C137 1.382 . S
C136 H158 0.950 . S
C137 N133 1.332 . S
C137 C136 1.382 . S
C137 H139 0.952 . S
C138 N133 1.332 1_655 S
C138 C134 1.382 . S
C138 H140 0.948 . S
H139 C137 0.952 . S
H140 C138 0.948 . S
H141 C130 0.952 . S
H142 C132 0.948 . S
C143 C109 1.395 . S
C143 C113 1.391 . S
C144 C106 1.389 . S
C144 C126 1.392 1_455 S
C145 C116 1.392 . S
C145 C118 1.389 1_455 S
C146 C121 1.395 . S
C146 C123 1.391 . S
H147 C107 0.951 . S
H148 C108 0.950 . S
H149 C114 0.949 . S
H150 C115 0.950 . S
H151 C119 0.951 . S
H152 C120 0.950 . S
H153 C124 0.949 . S
H154 C125 0.950 . S
H155 C129 0.950 . S
H156 C131 0.950 . S
H157 C134 0.950 . S
H158 C136 0.950 . S
C159 C160 1.443 . S
C159 N163 1.376 . S
C159 C197 1.389 . S
C160 C159 1.443 . S
C160 C161 1.340 . S
C160 H200 0.951 . S
C161 C160 1.340 . S
C161 C162 1.439 . S
C161 H201 0.950 . S
C162 C161 1.439 . S
C162 N163 1.374 . S
C162 C196 1.395 . S
N163 C159 1.376 . S
N163 C162 1.374 . S
N163 Co164 2.008 . S
Co164 N163 2.008 . S
Co164 N165 1.997 . S
Co164 N170 2.008 . S
Co164 N175 1.995 . S
Co164 N180 2.282 . S
Co164 N186 2.282 . S
N165 Co164 1.997 . S
N165 C166 1.376 . S
N165 C169 1.380 1_455 S
C166 N165 1.376 . S
C166 C167 1.446 1_455 S
C166 C196 1.391 . S
C167 C166 1.446 1_655 S
C167 C168 1.339 . S
C167 H202 0.949 . S
C168 C167 1.339 . S
C168 C169 1.439 . S
C168 H203 0.950 . S
C169 N165 1.380 1_655 S
C169 C168 1.439 . S
C169 C198 1.392 . S
N170 Co164 2.008 . S
N170 C171 1.376 1_455 S
N170 C174 1.374 1_545 S
C171 N170 1.376 1_655 S
C171 C172 1.443 . S
C171 C198 1.389 . S
C172 C171 1.443 . S
C172 C173 1.340 1_545 S
C172 H204 0.951 1_545 S
C173 C172 1.340 1_565 S
C173 C174 1.439 1_655 S
C173 H205 0.950 . S
C174 N170 1.374 1_565 S
C174 C173 1.439 1_455 S
C174 C199 1.395 . S
N175 Co164 1.995 . S
N175 C176 1.376 1_545 S
N175 C179 1.383 . S
C176 N175 1.376 1_565 S
C176 C177 1.446 . S
C176 C199 1.391 . S
C177 C176 1.446 . S
C177 C178 1.339 1_565 S
C177 H206 0.949 . S
C178 C177 1.339 1_545 S
C178 C179 1.439 . S
C178 H207 0.950 1_545 S
C179 N175 1.383 . S
C179 C178 1.439 . S
C179 C197 1.392 . S
N180 Co164 2.282 . S
N180 C183 1.332 . S
N180 C185 1.332 . S
C181 C182 1.386 . S
C181 C184 1.388 . S
C182 C181 1.386 . S
C182 C183 1.382 . S
C182 H208 0.950 . S
C183 N180 1.332 . S
C183 C182 1.382 . S
C183 H194 0.952 . S
C184 C181 1.388 . S
C184 C185 1.382 . S
C184 H209 0.950 . S
C185 N180 1.332 . S
C185 C184 1.382 . S
C185 H195 0.948 . S
N186 Co164 2.282 . S
N186 C190 1.332 . S
N186 C191 1.332 . S
C187 C188 1.388 . S
C187 C191 1.382 . S
C187 H210 0.950 . S
C188 C187 1.388 . S
C188 C189 1.386 . S
C189 C188 1.386 . S
C189 C190 1.382 . S
C189 H211 0.950 . S
C190 N186 1.332 . S
C190 C189 1.382 . S
C190 H192 0.952 . S
C191 N186 1.332 . S
C191 C187 1.382 . S
C191 H193 0.948 . S
H192 C190 0.952 . S
H193 C191 0.948 . S
H194 C183 0.952 . S
H195 C185 0.948 . S
C196 C162 1.395 . S
C196 C166 1.391 . S
C197 C159 1.389 . S
C197 C179 1.392 . S
C198 C169 1.392 . S
C198 C171 1.389 . S
C199 C174 1.395 . S
C199 C176 1.391 . S
H200 C160 0.951 . S
H201 C161 0.950 . S
H202 C167 0.949 . S
H203 C168 0.950 . S
H204 C172 0.951 1_565 S
H205 C173 0.950 . S
H206 C177 0.949 . S
H207 C178 0.950 1_565 S
H208 C182 0.950 . S
H209 C184 0.950 . S
H210 C187 0.950 . S
H211 C189 0.950 . S
H212 C213 0.951 . S
C213 H212 0.951 . S
C213 C219 1.265 . S
H214 C219 0.950 . S
H215 C223 0.949 . S
H216 C224 0.950 . S
H217 C225 0.951 . S
H218 C226 0.951 . S
C219 C213 1.265 . S
C219 H214 0.950 . S
C219 C220 1.478 . S
C220 C219 1.478 . S
C220 C221 1.397 . S
C220 C237 1.394 . S
C221 C220 1.397 . S
C221 C222 1.438 . S
C221 C226 1.429 . S
C222 C221 1.438 . S
C222 C223 1.428 . S
C222 C235 1.394 . S
C223 H215 0.949 . S
C223 C222 1.428 . S
C223 C224 1.345 . S
C224 H216 0.950 . S
C224 C223 1.345 . S
C224 C225 1.424 . S
C225 H217 0.951 . S
C225 C224 1.424 . S
C225 C226 1.347 . S
C226 H218 0.951 . S
C226 C221 1.429 . S
C226 C225 1.347 . S
H227 C228 0.951 . S
C228 H227 0.951 . S
C228 C234 1.265 . S
H229 C234 0.950 . S
H230 C238 0.949 . S
H231 C239 0.950 1_655 S
H232 C240 0.951 . S
H233 C241 0.951 . S
C234 C228 1.265 . S
C234 H229 0.950 . S
C234 C235 1.478 . S
C235 C222 1.394 . S
C235 C234 1.478 . S
C235 C236 1.397 . S
C236 C235 1.397 . S
C236 C237 1.438 . S
C236 C241 1.429 . S
C237 C220 1.394 . S
C237 C236 1.438 . S
C237 C238 1.428 . S
C238 H230 0.949 . S
C238 C237 1.428 . S
C238 C239 1.345 . S
C239 H231 0.950 1_455 S
C239 C238 1.345 . S
C239 C240 1.424 1_455 S
C240 H232 0.951 . S
C240 C239 1.424 1_655 S
C240 C241 1.347 1_655 S
C241 H233 0.951 . S
C241 C236 1.429 . S
C241 C240 1.347 1_455 S
H242 C243 0.951 . S
C243 H242 0.951 . S
C243 C249 1.265 . S
H244 C249 0.950 . S
H245 C253 0.949 . S
H246 C254 0.950 . S
H247 C255 0.951 . S
H248 C256 0.951 . S
C249 C243 1.265 . S
C249 H244 0.950 . S
C249 C250 1.478 . S
C250 C249 1.478 . S
C250 C251 1.397 . S
C250 C267 1.394 . S
C251 C250 1.397 . S
C251 C252 1.438 . S
C251 C256 1.429 1_545 S
C252 C251 1.438 . S
C252 C253 1.428 1_545 S
C252 C265 1.394 . S
C253 H245 0.949 . S
C253 C252 1.428 1_565 S
C253 C254 1.345 . S
C254 H246 0.950 . S
C254 C253 1.345 . S
C254 C255 1.424 . S
C255 H247 0.951 . S
C255 C254 1.424 . S
C255 C256 1.347 . S
C256 H248 0.951 . S
C256 C251 1.429 1_565 S
C256 C255 1.347 . S
H257 C258 0.951 . S
C258 H257 0.951 . S
C258 C264 1.265 . S
H259 C264 0.950 . S
H260 C268 0.949 . S
H261 C269 0.950 . S
H262 C270 0.951 . S
H263 C271 0.951 . S
C264 C258 1.265 . S
C264 H259 0.950 . S
C264 C265 1.478 . S
C265 C252 1.394 . S
C265 C264 1.478 . S
C265 C266 1.397 . S
C266 C265 1.397 . S
C266 C267 1.438 . S
C266 C271 1.429 . S
C267 C250 1.394 . S
C267 C266 1.438 . S
C267 C268 1.428 . S
C268 H260 0.949 . S
C268 C267 1.428 . S
C268 C269 1.345 . S
C269 H261 0.950 . S
C269 C268 1.345 . S
C269 C270 1.424 . S
C270 H262 0.951 . S
C270 C269 1.424 . S
C270 C271 1.347 . S
C271 H263 0.951 . S
C271 C266 1.429 . S
C271 C270 1.347 . S
H272 C273 0.951 1_655 S
C273 H272 0.951 1_455 S
C273 C279 1.265 . S
H274 C279 0.950 . S
H275 C283 0.949 . S
H276 C284 0.950 . S
H277 C285 0.951 . S
H278 C286 0.951 . S
C279 C273 1.265 . S
C279 H274 0.950 . S
C279 C280 1.478 . S
C280 C279 1.478 . S
C280 C281 1.397 . S
C280 C297 1.394 . S
C281 C280 1.397 . S
C281 C282 1.438 . S
C281 C286 1.429 . S
C282 C281 1.438 . S
C282 C283 1.428 . S
C282 C295 1.394 . S
C283 H275 0.949 . S
C283 C282 1.428 . S
C283 C284 1.345 . S
C284 H276 0.950 . S
C284 C283 1.345 . S
C284 C285 1.424 . S
C285 H277 0.951 . S
C285 C284 1.424 . S
C285 C286 1.347 . S
C286 H278 0.951 . S
C286 C281 1.429 . S
C286 C285 1.347 . S
H287 C288 0.951 . S
C288 H287 0.951 . S
C288 C294 1.262 1_455 S
H289 C294 0.953 . S
H290 C298 0.949 . S
H291 C299 0.950 . S
H292 C300 0.951 . S
H293 C301 0.951 . S
C294 C288 1.262 1_655 S
C294 H289 0.953 . S
C294 C295 1.478 1_655 S
C295 C282 1.394 . S
C295 C294 1.478 1_455 S
C295 C296 1.397 . S
C296 C295 1.397 . S
C296 C297 1.438 . S
C296 C301 1.429 1_455 S
C297 C280 1.394 . S
C297 C296 1.438 . S
C297 C298 1.428 . S
C298 H290 0.949 . S
C298 C297 1.428 . S
C298 C299 1.345 1_455 S
C299 H291 0.950 . S
C299 C298 1.345 1_655 S
C299 C300 1.424 . S
C300 H292 0.951 . S
C300 C299 1.424 . S
C300 C301 1.347 . S
C301 H293 0.951 . S
C301 C296 1.429 1_655 S
C301 C300 1.347 . S
H302 C303 0.951 . S
C303 H302 0.951 . S
C303 C309 1.265 . S
H304 C309 0.950 . S
H305 C313 0.949 . S
H306 C314 0.950 1_565 S
H307 C315 0.951 . S
H308 C316 0.951 . S
C309 C303 1.265 . S
C309 H304 0.950 . S
C309 C310 1.478 . S
C310 C309 1.478 . S
C310 C311 1.397 . S
C310 C327 1.394 . S
C311 C310 1.397 . S
C311 C312 1.438 . S
C311 C316 1.429 . S
C312 C311 1.438 . S
C312 C313 1.428 . S
C312 C325 1.394 . S
C313 H305 0.949 . S
C313 C312 1.428 . S
C313 C314 1.345 . S
C314 H306 0.950 1_545 S
C314 C313 1.345 . S
C314 C315 1.424 . S
C315 H307 0.951 . S
C315 C314 1.424 . S
C315 C316 1.347 . S
C316 H308 0.951 . S
C316 C311 1.429 . S
C316 C315 1.347 . S
H317 C318 0.951 . S
C318 H317 0.951 . S
C318 C324 1.265 . S
H319 C324 0.950 . S
H320 C328 0.949 . S
H321 C329 0.950 . S
H322 C330 0.951 . S
H323 C331 0.951 . S
C324 C318 1.265 . S
C324 H319 0.950 . S
C324 C325 1.478 . S
C325 C312 1.394 . S
C325 C324 1.478 . S
C325 C326 1.397 . S
C326 C325 1.397 . S
C326 C327 1.438 . S
C326 C331 1.429 . S
C327 C310 1.394 . S
C327 C326 1.438 . S
C327 C328 1.428 . S
C328 H320 0.949 . S
C328 C327 1.428 . S
C328 C329 1.345 . S
C329 H321 0.950 . S
C329 C328 1.345 . S
C329 C330 1.424 . S
C330 H322 0.951 . S
C330 C329 1.424 . S
C330 C331 1.347 . S
C331 H323 0.951 . S
C331 C326 1.429 . S
C331 C330 1.347 . S
H332 C333 0.951 . S
C333 H332 0.951 . S
C333 C339 1.265 . S
H334 C339 0.950 1_655 S
H335 C343 0.949 . S
H336 C344 0.950 1_554 S
H337 C345 0.951 . S
H338 C346 0.951 . S
C339 C333 1.265 . S
C339 H334 0.950 1_455 S
C339 C340 1.478 . S
C340 C339 1.478 . S
C340 C341 1.397 . S
C340 C357 1.394 . S
C341 C340 1.397 . S
C341 C342 1.438 1_556 S
C341 C346 1.429 1_445 S
C342 C341 1.438 1_554 S
C342 C343 1.428 1_545 S
C342 C355 1.394 . S
C343 H335 0.949 . S
C343 C342 1.428 1_565 S
C343 C344 1.345 1_554 S
C344 H336 0.950 1_556 S
C344 C343 1.345 1_556 S
C344 C345 1.424 1_455 S
C345 H337 0.951 . S
C345 C344 1.424 1_655 S
C345 C346 1.347 . S
C346 H338 0.951 . S
C346 C341 1.429 1_665 S
C346 C345 1.347 . S
H347 C348 0.951 . S
C348 H347 0.951 . S
C348 C354 1.265 . S
H349 C354 0.950 . S
H350 C358 0.949 . S
H351 C359 0.950 1_556 S
H352 C360 0.951 . S
H353 C361 0.951 . S
C354 C348 1.265 . S
C354 H349 0.950 . S
C354 C355 1.478 . S
C355 C342 1.394 . S
C355 C354 1.478 . S
C355 C356 1.397 . S
C356 C355 1.397 . S
C356 C357 1.438 1_554 S
C356 C361 1.429 . S
C357 C340 1.394 . S
C357 C356 1.438 1_556 S
C357 C358 1.428 . S
C358 H350 0.949 . S
C358 C357 1.428 . S
C358 C359 1.345 1_556 S
C359 H351 0.950 1_554 S
C359 C358 1.345 1_554 S
C359 C360 1.424 . S
C360 H352 0.951 . S
C360 C359 1.424 . S
C360 C361 1.347 . S
C361 H353 0.951 . S
C361 C356 1.429 . S
C361 C360 1.347 . S
H362 C363 0.951 . S
C363 H362 0.951 . S
C363 C369 1.265 . S
H364 C369 0.950 1_655 S
H365 C373 0.949 . S
H366 C374 0.950 1_655 S
H367 C375 0.951 . S
H368 C376 0.951 1_655 S
C369 C363 1.265 . S
C369 H364 0.950 1_455 S
C369 C370 1.478 . S
C370 C369 1.478 . S
C370 C371 1.397 . S
C370 C387 1.394 . S
C371 C370 1.397 . S
C371 C372 1.438 . S
C371 C376 1.429 1_545 S
C372 C371 1.438 . S
C372 C373 1.428 1_545 S
C372 C385 1.394 . S
C373 H365 0.949 . S
C373 C372 1.428 1_565 S
C373 C374 1.345 . S
C374 H366 0.950 1_455 S
C374 C373 1.345 . S
C374 C375 1.424 1_455 S
C375 H367 0.951 . S
C375 C374 1.424 1_655 S
C375 C376 1.347 1_655 S
C376 H368 0.951 1_455 S
C376 C371 1.429 1_565 S
C376 C375 1.347 1_455 S
H377 C378 0.951 . S
C378 H377 0.951 . S
C378 C384 1.265 . S
H379 C384 0.950 . S
H380 C388 0.949 . S
H381 C389 0.950 . S
H382 C390 0.951 . S
H383 C391 0.951 . S
C384 C378 1.265 . S
C384 H379 0.950 . S
C384 C385 1.478 . S
C385 C372 1.394 . S
C385 C384 1.478 . S
C385 C386 1.397 . S
C386 C385 1.397 . S
C386 C387 1.438 . S
C386 C391 1.429 . S
C387 C370 1.394 . S
C387 C386 1.438 . S
C387 C388 1.428 . S
C388 H380 0.949 . S
C388 C387 1.428 . S
C388 C389 1.345 . S
C389 H381 0.950 . S
C389 C388 1.345 . S
C389 C390 1.424 . S
C390 H382 0.951 . S
C390 C389 1.424 . S
C390 C391 1.347 . S
C391 H383 0.951 . S
C391 C386 1.429 . S
C391 C390 1.347 . S
H392 C393 0.951 . S
C393 H392 0.951 . S
C393 C399 1.265 . S
H394 C399 0.950 . S
H395 C403 0.949 . S
H396 C404 0.950 . S
H397 C405 0.951 . S
H398 C406 0.951 . S
C399 C393 1.265 . S
C399 H394 0.950 . S
C399 C400 1.478 . S
C400 C399 1.478 . S
C400 C401 1.397 . S
C400 C417 1.394 . S
C401 C400 1.397 . S
C401 C402 1.438 . S
C401 C406 1.429 . S
C402 C401 1.438 . S
C402 C403 1.428 . S
C402 C415 1.394 . S
C403 H395 0.949 . S
C403 C402 1.428 . S
C403 C404 1.345 . S
C404 H396 0.950 . S
C404 C403 1.345 . S
C404 C405 1.424 . S
C405 H397 0.951 . S
C405 C404 1.424 . S
C405 C406 1.347 . S
C406 H398 0.951 . S
C406 C401 1.429 . S
C406 C405 1.347 . S
H407 C408 0.951 . S
C408 H407 0.951 . S
C408 C414 1.265 . S
H409 C414 0.950 . S
H410 C418 0.949 . S
H411 C419 0.950 . S
H412 C420 0.951 . S
H413 C421 0.951 . S
C414 C408 1.265 . S
C414 H409 0.950 . S
C414 C415 1.478 . S
C415 C402 1.394 . S
C415 C414 1.478 . S
C415 C416 1.397 . S
C416 C415 1.397 . S
C416 C417 1.438 . S
C416 C421 1.429 1_545 S
C417 C400 1.394 . S
C417 C416 1.438 . S
C417 C418 1.428 . S
C418 H410 0.949 . S
C418 C417 1.428 . S
C418 C419 1.345 1_545 S
C419 H411 0.950 . S
C419 C418 1.345 1_565 S
C419 C420 1.424 . S
C420 H412 0.951 . S
C420 C419 1.424 . S
C420 C421 1.347 . S
C421 H413 0.951 . S
C421 C416 1.429 1_565 S
C421 C420 1.347 . S
H422 C423 0.951 . S
C423 H422 0.951 . S
C423 C429 1.265 . S
H424 C429 0.950 1_655 S
H425 C433 0.949 . S
H426 C434 0.950 . S
H427 C435 0.951 . S
H428 C436 0.951 . S
C429 C423 1.265 . S
C429 H424 0.950 1_455 S
C429 C430 1.478 . S
C430 C429 1.478 . S
C430 C431 1.397 . S
C430 C447 1.394 . S
C431 C430 1.397 . S
C431 C432 1.438 . S
C431 C436 1.429 1_445 S
C432 C431 1.438 . S
C432 C433 1.429 1_545 S
C432 C445 1.394 . S
C433 H425 0.949 . S
C433 C432 1.429 1_565 S
C433 C434 1.344 1_455 S
C434 H426 0.950 . S
C434 C433 1.344 1_655 S
C434 C435 1.424 . S
C435 H427 0.951 . S
C435 C434 1.424 . S
C435 C436 1.347 . S
C436 H428 0.951 . S
C436 C431 1.429 1_665 S
C436 C435 1.347 . S
H437 C438 0.951 1_655 S
C438 H437 0.951 1_455 S
C438 C444 1.265 . S
H439 C444 0.950 . S
H440 C448 0.949 . S
H441 C449 0.950 . S
H442 C450 0.951 . S
H443 C451 0.951 . S
C444 C438 1.265 . S
C444 H439 0.950 . S
C444 C445 1.478 . S
C445 C432 1.394 . S
C445 C444 1.478 . S
C445 C446 1.397 . S
C446 C445 1.397 . S
C446 C447 1.438 . S
C446 C451 1.429 . S
C447 C430 1.394 . S
C447 C446 1.438 . S
C447 C448 1.428 . S
C448 H440 0.949 . S
C448 C447 1.428 . S
C448 C449 1.345 . S
C449 H441 0.950 . S
C449 C448 1.345 . S
C449 C450 1.424 . S
C450 H442 0.951 . S
C450 C449 1.424 . S
C450 C451 1.347 . S
C451 H443 0.951 . S
C451 C446 1.429 . S
C451 C450 1.347 . S
C213 C22 1.491 . S
C228 C29 1.491 . S
C243 C91 1.493 . S
C258 C92 1.493 . S
C273 C128 1.490 . S
C288 C135 1.490 . S
C303 C197 1.494 . S
C318 C198 1.494 . S
C333 C144 1.491 . S
C348 C39 1.491 . S
C363 C181 1.491 . S
C378 C82 1.491 . S
C393 C188 1.497 . S
C408 C38 1.491 . S
C423 C75 1.494 . S
C438 C145 1.499 . S
