# Generated by pormake.
# Topology upd, (4)-cn, num edge types: 1
# Building blocks:
#     Node 0, Type 0, BuildingBlock: ESEHIV_clean_sbu_0, # of connection points: 4
#     Node 1, Type 0, BuildingBlock: ESEHIV_clean_sbu_0, # of connection points: 4
#     Node 2, Type 0, BuildingBlock: ESEHIV_clean_sbu_0, # of connection points: 4
#     Node 3, Type 0, BuildingBlock: ESEHIV_clean_sbu_0, # of connection points: 4
#     Node 4, Type 0, BuildingBlock: ESEHIV_clean_sbu_0, # of connection points: 4
#     Node 5, Type 0, BuildingBlock: ESEHIV_clean_sbu_0, # of connection points: 4
#     Node 6, Type 0, BuildingBlock: ESEHIV_clean_sbu_0, # of connection points: 4
#     Node 7, Type 0, BuildingBlock: ESEHIV_clean_sbu_0, # of connection points: 4
#     Node 8, Type 0, BuildingBlock: ESEHIV_clean_sbu_0, # of connection points: 4
#     Node 9, Type 0, BuildingBlock: ESEHIV_clean_sbu_0, # of connection points: 4
#     Node 10, Type 0, BuildingBlock: ESEHIV_clean_sbu_0, # of connection points: 4
#     Node 11, Type 0, BuildingBlock: ESEHIV_clean_sbu_0, # of connection points: 4
#     Node 12, Type 0, BuildingBlock: ESEHIV_clean_sbu_0, # of connection points: 4
#     Node 13, Type 0, BuildingBlock: ESEHIV_clean_sbu_0, # of connection points: 4
#     Node 14, Type 0, BuildingBlock: ESEHIV_clean_sbu_0, # of connection points: 4
#     Node 15, Type 0, BuildingBlock: ESEHIV_clean_sbu_0, # of connection points: 4
#     Node 16, Type 0, BuildingBlock: ESEHIV_clean_sbu_0, # of connection points: 4
#     Node 17, Type 0, BuildingBlock: ESEHIV_clean_sbu_0, # of connection points: 4
#     Node 18, Type 0, BuildingBlock: ESEHIV_clean_sbu_0, # of connection points: 4
#     Node 19, Type 0, BuildingBlock: ESEHIV_clean_sbu_0, # of connection points: 4
#     Node 20, Type 0, BuildingBlock: ESEHIV_clean_sbu_0, # of connection points: 4
#     Node 21, Type 0, BuildingBlock: ESEHIV_clean_sbu_0, # of connection points: 4
#     Node 22, Type 0, BuildingBlock: ESEHIV_clean_sbu_0, # of connection points: 4
#     Node 23, Type 0, BuildingBlock: ESEHIV_clean_sbu_0, # of connection points: 4
#     Node 24, Type 0, BuildingBlock: ESEHIV_clean_sbu_0, # of connection points: 4
#     Node 25, Type 0, BuildingBlock: ESEHIV_clean_sbu_0, # of connection points: 4
#     Node 26, Type 0, BuildingBlock: ESEHIV_clean_sbu_0, # of connection points: 4
#     Node 27, Type 0, BuildingBlock: ESEHIV_clean_sbu_0, # of connection points: 4
#     Node 28, Type 0, BuildingBlock: ESEHIV_clean_sbu_0, # of connection points: 4
#     Node 29, Type 0, BuildingBlock: ESEHIV_clean_sbu_0, # of connection points: 4
#     Node 30, Type 0, BuildingBlock: ESEHIV_clean_sbu_0, # of connection points: 4
#     Node 31, Type 0, BuildingBlock: ESEHIV_clean_sbu_0, # of connection points: 4
#     Edge 32, Type (0, 0), BuildingBlock: CIFDUS_clean_linker_0, # of connection points: 2
#     Edge 33, Type (0, 0), BuildingBlock: CIFDUS_clean_linker_0, # of connection points: 2
#     Edge 34, Type (0, 0), BuildingBlock: CIFDUS_clean_linker_0, # of connection points: 2
#     Edge 35, Type (0, 0), BuildingBlock: CIFDUS_clean_linker_0, # of connection points: 2
#     Edge 36, Type (0, 0), BuildingBlock: CIFDUS_clean_linker_0, # of connection points: 2
#     Edge 37, Type (0, 0), BuildingBlock: CIFDUS_clean_linker_0, # of connection points: 2
#     Edge 38, Type (0, 0), BuildingBlock: CIFDUS_clean_linker_0, # of connection points: 2
#     Edge 39, Type (0, 0), BuildingBlock: CIFDUS_clean_linker_0, # of connection points: 2
#     Edge 40, Type (0, 0), BuildingBlock: CIFDUS_clean_linker_0, # of connection points: 2
#     Edge 41, Type (0, 0), BuildingBlock: CIFDUS_clean_linker_0, # of connection points: 2
#     Edge 42, Type (0, 0), BuildingBlock: CIFDUS_clean_linker_0, # of connection points: 2
#     Edge 43, Type (0, 0), BuildingBlock: CIFDUS_clean_linker_0, # of connection points: 2
#     Edge 44, Type (0, 0), BuildingBlock: CIFDUS_clean_linker_0, # of connection points: 2
#     Edge 45, Type (0, 0), BuildingBlock: CIFDUS_clean_linker_0, # of connection points: 2
#     Edge 46, Type (0, 0), BuildingBlock: CIFDUS_clean_linker_0, # of connection points: 2
#     Edge 47, Type (0, 0), BuildingBlock: CIFDUS_clean_linker_0, # of connection points: 2
#     Edge 48, Type (0, 0), BuildingBlock: CIFDUS_clean_linker_0, # of connection points: 2
#     Edge 49, Type (0, 0), BuildingBlock: CIFDUS_clean_linker_0, # of connection points: 2
#     Edge 50, Type (0, 0), BuildingBlock: CIFDUS_clean_linker_0, # of connection points: 2
#     Edge 51, Type (0, 0), BuildingBlock: CIFDUS_clean_linker_0, # of connection points: 2
#     Edge 52, Type (0, 0), BuildingBlock: CIFDUS_clean_linker_0, # of connection points: 2
#     Edge 53, Type (0, 0), BuildingBlock: CIFDUS_clean_linker_0, # of connection points: 2
#     Edge 54, Type (0, 0), BuildingBlock: CIFDUS_clean_linker_0, # of connection points: 2
#     Edge 55, Type (0, 0), BuildingBlock: CIFDUS_clean_linker_0, # of connection points: 2
#     Edge 56, Type (0, 0), BuildingBlock: CIFDUS_clean_linker_0, # of connection points: 2
#     Edge 57, Type (0, 0), BuildingBlock: CIFDUS_clean_linker_0, # of connection points: 2
#     Edge 58, Type (0, 0), BuildingBlock: CIFDUS_clean_linker_0, # of connection points: 2
#     Edge 59, Type (0, 0), BuildingBlock: CIFDUS_clean_linker_0, # of connection points: 2
#     Edge 60, Type (0, 0), BuildingBlock: CIFDUS_clean_linker_0, # of connection points: 2
#     Edge 61, Type (0, 0), BuildingBlock: CIFDUS_clean_linker_0, # of connection points: 2
#     Edge 62, Type (0, 0), BuildingBlock: CIFDUS_clean_linker_0, # of connection points: 2
#     Edge 63, Type (0, 0), BuildingBlock: CIFDUS_clean_linker_0, # of connection points: 2
#     Edge 64, Type (0, 0), BuildingBlock: CIFDUS_clean_linker_0, # of connection points: 2
#     Edge 65, Type (0, 0), BuildingBlock: CIFDUS_clean_linker_0, # of connection points: 2
#     Edge 66, Type (0, 0), BuildingBlock: CIFDUS_clean_linker_0, # of connection points: 2
#     Edge 67, Type (0, 0), BuildingBlock: CIFDUS_clean_linker_0, # of connection points: 2
#     Edge 68, Type (0, 0), BuildingBlock: CIFDUS_clean_linker_0, # of connection points: 2
#     Edge 69, Type (0, 0), BuildingBlock: CIFDUS_clean_linker_0, # of connection points: 2
#     Edge 70, Type (0, 0), BuildingBlock: CIFDUS_clean_linker_0, # of connection points: 2
#     Edge 71, Type (0, 0), BuildingBlock: CIFDUS_clean_linker_0, # of connection points: 2
#     Edge 72, Type (0, 0), BuildingBlock: CIFDUS_clean_linker_0, # of connection points: 2
#     Edge 73, Type (0, 0), BuildingBlock: CIFDUS_clean_linker_0, # of connection points: 2
#     Edge 74, Type (0, 0), BuildingBlock: CIFDUS_clean_linker_0, # of connection points: 2
#     Edge 75, Type (0, 0), BuildingBlock: CIFDUS_clean_linker_0, # of connection points: 2
#     Edge 76, Type (0, 0), BuildingBlock: CIFDUS_clean_linker_0, # of connection points: 2
#     Edge 77, Type (0, 0), BuildingBlock: CIFDUS_clean_linker_0, # of connection points: 2
#     Edge 78, Type (0, 0), BuildingBlock: CIFDUS_clean_linker_0, # of connection points: 2
#     Edge 79, Type (0, 0), BuildingBlock: CIFDUS_clean_linker_0, # of connection points: 2
#     Edge 80, Type (0, 0), BuildingBlock: CIFDUS_clean_linker_0, # of connection points: 2
#     Edge 81, Type (0, 0), BuildingBlock: CIFDUS_clean_linker_0, # of connection points: 2
#     Edge 82, Type (0, 0), BuildingBlock: CIFDUS_clean_linker_0, # of connection points: 2
#     Edge 83, Type (0, 0), BuildingBlock: CIFDUS_clean_linker_0, # of connection points: 2
#     Edge 84, Type (0, 0), BuildingBlock: CIFDUS_clean_linker_0, # of connection points: 2
#     Edge 85, Type (0, 0), BuildingBlock: CIFDUS_clean_linker_0, # of connection points: 2
#     Edge 86, Type (0, 0), BuildingBlock: CIFDUS_clean_linker_0, # of connection points: 2
#     Edge 87, Type (0, 0), BuildingBlock: CIFDUS_clean_linker_0, # of connection points: 2
#     Edge 88, Type (0, 0), BuildingBlock: CIFDUS_clean_linker_0, # of connection points: 2
#     Edge 89, Type (0, 0), BuildingBlock: CIFDUS_clean_linker_0, # of connection points: 2
#     Edge 90, Type (0, 0), BuildingBlock: CIFDUS_clean_linker_0, # of connection points: 2
#     Edge 91, Type (0, 0), BuildingBlock: CIFDUS_clean_linker_0, # of connection points: 2
#     Edge 92, Type (0, 0), BuildingBlock: CIFDUS_clean_linker_0, # of connection points: 2
#     Edge 93, Type (0, 0), BuildingBlock: CIFDUS_clean_linker_0, # of connection points: 2
#     Edge 94, Type (0, 0), BuildingBlock: CIFDUS_clean_linker_0, # of connection points: 2
#     Edge 95, Type (0, 0), BuildingBlock: CIFDUS_clean_linker_0, # of connection points: 2
# Relax obj value: 0.056
# Max RMSD: 0.066
# Mean RMSD: 0.066
data_MOF--net-upd--node1-ESEHIV_clean_sbu_0--edge1-CIFDUS_clean_linker_0
_symmetry_space_group_name_H-M    P1
_symmetry_Int_Tables_number       1
_symmetry_cell_setting            triclinic
loop_
_symmetry_equiv_pos_as_xyz
'x, y, z'
_cell_length_a     35.446365
_cell_length_b     35.429894
_cell_length_c     77.718911
_cell_angle_alpha  90.208832
_cell_angle_beta   90.203134
_cell_angle_gamma 90.171334
loop_
_atom_site_label
_atom_site_type_symbol
_atom_site_fract_x
_atom_site_fract_y
_atom_site_fract_z
_atom_type_partial_charge
Cu0 Cu 0.187 0.14664 0.34507 0.0
N1 N 0.23889 0.14998 0.34009 0.0
N2 N 0.29054 0.16902 0.32602 0.0
C3 C 0.25291 0.16327 0.32516 0.0
C4 C 0.30081 0.1587 0.34203 0.0
C5 C 0.26894 0.14664 0.35065 0.0
O6 O 0.16258 0.12058 0.32562 0.0
C7 C 0.18808 0.21627 0.36109 0.0
O8 O 0.21949 0.20138 0.36686 0.0
H9 H 0.23553 0.17064 0.3142 0.0
H10 H 0.26755 0.13825 0.36399 0.0
N11 N 0.17454 0.1202 0.36507 0.0
N12 N 0.13543 0.10036 0.38575 0.0
C13 C 0.13935 0.12137 0.37142 0.0
C14 C 0.19404 0.09764 0.37577 0.0
C15 C 0.16993 0.08546 0.38863 0.0
C16 C 0.16091 0.0845 0.32572 0.0
O17 O 0.17434 0.06632 0.33909 0.0
H18 H 0.11717 0.13809 0.36568 0.0
H19 H 0.22343 0.09029 0.37429 0.0
O20 O 0.16852 0.19767 0.3501 0.0
H21 H 0.32913 0.16057 0.34723 0.0
H22 H 0.17718 0.06681 0.39912 0.0
Cu23 Cu 0.15427 0.89986 0.60467 0.0
N24 N 0.14881 0.95232 0.60398 0.0
N25 N 0.13157 1.00887 0.59387 0.0
C26 C 0.13149 0.97114 0.5912 0.0
C27 C 0.14991 0.01387 0.60899 0.0
C28 C 0.16047 0.97893 0.6152 0.0
O29 O 0.16762 0.8851 0.58115 0.0
C30 C 0.10362 0.88656 0.63061 0.0
O31 O 0.1278 0.90957 0.63807 0.0
H32 H 0.11954 0.95721 0.58002 0.0
H33 H 0.17546 0.97335 0.62706 0.0
N34 N 0.19339 0.88512 0.61933 0.0
N35 N 0.22256 0.84963 0.63902 0.0
C36 C 0.19192 0.85359 0.62887 0.0
C37 C 0.22639 0.90181 0.62336 0.0
C38 C 0.24443 0.88001 0.63562 0.0
C39 C 0.19289 0.86072 0.57763 0.0
O40 O 0.20533 0.83858 0.5899 0.0
H41 H 0.16785 0.83475 0.62882 0.0
H42 H 0.23625 0.92822 0.61805 0.0
O43 O 0.10825 0.87815 0.61475 0.0
H44 H 0.15491 0.04073 0.61527 0.0
H45 H 0.27121 0.8864 0.6417 0.0
Cu46 Cu 0.43539 0.87116 0.84642 0.0
N47 N 0.41188 0.83431 0.83266 0.0
N48 N 0.36814 0.80657 0.81592 0.0
C49 C 0.38258 0.83955 0.82181 0.0
C50 C 0.38946 0.77948 0.82326 0.0
C51 C 0.41634 0.79667 0.83357 0.0
O52 O 0.43415 0.9192 0.83431 0.0
C53 C 0.4139 0.8929 0.88092 0.0
O54 O 0.43161 0.92505 0.87847 0.0
H55 H 0.37078 0.86688 0.81896 0.0
H56 H 0.43671 0.78267 0.84173 0.0
N57 N 0.48575 0.85845 0.85104 0.0
N58 N 0.54 0.85244 0.8657 0.0
C59 C 0.50467 0.86665 0.86566 0.0
C60 C 0.50994 0.83829 0.8414 0.0
C61 C 0.5434 0.83444 0.85043 0.0
C62 C 0.40411 0.93739 0.83095 0.0
O63 O 0.372 0.92605 0.83758 0.0
H64 H 0.49232 0.88175 0.87633 0.0
H65 H 0.50351 0.82673 0.82883 0.0
O66 O 0.40997 0.86985 0.86845 0.0
H67 H 0.3855 0.74939 0.8216 0.0
H68 H 0.56819 0.81947 0.84607 0.0
Cu69 Cu 0.41262 0.17249 0.07679 0.0
N70 N 0.45152 0.16464 0.06104 0.0
N71 N 0.49099 0.13001 0.04507 0.0
C72 C 0.4635 0.12975 0.05701 0.0
C73 C 0.49703 0.16688 0.04159 0.0
C74 C 0.47244 0.18826 0.05145 0.0
O75 O 0.36488 0.16787 0.06434 0.0
C76 C 0.41402 0.13445 0.10942 0.0
O77 O 0.39205 0.16127 0.11536 0.0
H78 H 0.45227 0.1045 0.06291 0.0
H79 H 0.46982 0.21867 0.05151 0.0
N80 N 0.4143 0.22008 0.0877 0.0
N81 N 0.42024 0.26443 0.1082 0.0
C82 C 0.43325 0.23114 0.10204 0.0
C83 C 0.38906 0.24762 0.08471 0.0
C84 C 0.39252 0.27482 0.09733 0.0
C85 C 0.35549 0.13946 0.05515 0.0
O86 O 0.37727 0.10954 0.05501 0.0
H87 H 0.454 0.21389 0.10854 0.0
H88 H 0.3679 0.24675 0.07465 0.0
O89 O 0.42116 0.13303 0.09344 0.0
H90 H 0.51716 0.1776 1.03236 0.0
H91 H 0.37505 0.29963 0.09882 0.0
Cu92 Cu 0.14718 0.87012 0.23091 0.0
N93 N 0.19837 0.86404 0.23613 0.0
N94 N 0.24707 0.83804 0.25017 0.0
C95 C 0.20928 0.83907 0.24813 0.0
C96 C 0.26054 0.86395 0.239 0.0
C97 C 0.23037 0.87996 0.23032 0.0
O98 O 0.12678 0.89659 0.25104 0.0
C99 C 0.14894 0.80305 0.21367 0.0
O100 O 0.17957 0.82029 0.20833 0.0
H101 H 0.18939 0.82231 0.25538 0.0
H102 H 0.23177 0.90142 0.2205 0.0
N103 N 0.1343 0.89856 0.21155 0.0
N104 N 0.09333 0.9215 0.19218 0.0
C105 C 0.09856 0.89836 0.20575 0.0
C106 C 0.15305 0.92251 0.20126 0.0
C107 C 0.12782 0.93674 0.18929 0.0
C108 C 0.13486 0.9318 0.25166 0.0
O109 O 0.15319 0.94674 0.2387 0.0
H110 H 0.077 0.88098 0.21153 0.0
H111 H 0.18261 0.9296 0.20248 0.0
O112 O 0.12836 0.81952 0.2249 0.0
H113 H 0.29003 0.87059 0.23706 0.0
H114 H 0.13459 0.95693 0.17936 0.0
Cu115 Cu 0.4223 0.85669 0.48803 0.0
N116 N 0.46079 0.87253 0.50289 0.0
N117 N 0.4945 0.91235 0.51934 0.0
C118 C 0.46168 0.90636 0.51084 0.0
C119 C 0.51507 0.88085 0.5166 0.0
C120 C 0.49418 0.85633 0.50644 0.0
O121 O 0.37746 0.84607 0.50177 0.0
C122 C 0.3991 0.89554 0.45784 0.0
O123 O 0.37504 0.86766 0.45555 0.0
H124 H 0.43921 0.92683 0.50974 0.0
H125 H 0.5031 0.82914 0.50159 0.0
N126 N 0.4363 0.81335 0.47547 0.0
N127 N 0.44843 0.77473 0.45311 0.0
C128 C 0.44487 0.81095 0.45856 0.0
C129 C 0.43501 0.77751 0.48102 0.0
C130 C 0.44247 0.75374 0.46736 0.0
C131 C 0.34978 0.86833 0.50418 0.0
O132 O 0.34926 0.90104 0.49628 0.0
H133 H 0.44754 0.83535 0.45036 0.0
H134 H 0.42754 0.76919 0.49395 0.0
O135 O 0.41714 0.89772 0.47194 0.0
H136 H 0.54328 0.87596 0.52145 0.0
H137 H 0.44171 0.72324 0.46785 0.0
Cu138 Cu 0.40805 0.1388 0.73193 0.0
N139 N 0.38791 0.18236 0.74216 0.0
N140 N 0.34821 0.21948 0.75692 0.0
C141 C 0.357 0.18377 0.7522 0.0
C142 C 0.3749 0.24134 0.74954 0.0
C143 C 0.39928 0.2184 0.74046 0.0
O144 O 0.40628 0.0979 0.7486 0.0
C145 C 0.35764 0.14804 0.70334 0.0
O146 O 0.34195 0.17498 0.71246 0.0
H147 H 0.3406 0.15911 0.75551 0.0
H148 H 0.42326 0.22742 0.73294 0.0
N149 N 0.45805 0.14578 0.72494 0.0
N150 N 0.508 0.14042 0.70747 0.0
C151 C 0.47197 0.13 0.71053 0.0
C152 C 0.48626 0.16706 0.7314 0.0
C153 C 0.51714 0.1639 0.7206 0.0
C154 C 0.37593 0.08059 0.7524 0.0
O155 O 0.34483 0.0887 0.74396 0.0
H156 H 0.4553 0.11207 0.70216 0.0
H157 H 0.48434 0.18413 0.74293 0.0
O158 O 0.38228 0.12697 0.71035 0.0
H159 H 0.37683 0.27175 0.7506 0.0
H160 H 0.54406 0.17793 0.7223 0.0
Cu161 Cu 0.12467 0.16432 0.97245 0.0
N162 N 0.0886 0.15198 0.98888 0.0
N163 N 0.05415 0.11658 1.00672 0.0
C164 C 0.08006 0.11674 0.99402 0.0
C165 C 0.04599 0.15331 1.00958 0.0
C166 C 0.06737 0.17508 0.99858 0.0
O167 O 0.17384 0.15403 0.98259 0.0
C168 C 0.12934 0.14103 0.93722 0.0
O169 O 0.16222 0.15824 0.93738 0.0
H170 H 0.09262 0.09174 0.98848 0.0
H171 H 0.0679 0.20556 0.99788 0.0
N172 N 0.12396 0.21592 0.96727 0.0
N173 N 0.1337 0.26492 0.94973 0.0
C174 C 0.11943 0.22981 0.95131 0.0
C175 C 0.1404 0.24398 0.97635 0.0
C176 C 0.14642 0.27432 0.96554 0.0
C177 C 0.18671 0.12174 0.98659 0.0
O178 O 0.16814 0.09124 0.9819 0.0
H179 H 0.10973 0.21314 0.9405 0.0
H180 H 0.1513 0.24098 0.98929 0.0
O181 O 0.11171 0.13702 0.95135 0.0
H182 H 0.02669 0.16382 1.01922 0.0
H183 H 0.16293 0.29927 0.96852 0.0
Cu184 Cu 0.89545 0.84581 0.74136 0.0
N185 N 0.88613 0.81695 0.76091 0.0
N186 N 0.84913 0.79023 0.78074 0.0
C187 C 0.85436 0.82003 0.77026 0.0
C188 C 0.87904 0.76751 0.77797 0.0
C189 C 0.90182 0.78406 0.7657 0.0
O190 O 0.89013 0.89844 0.74819 0.0
C191 C 0.85113 0.83647 0.71003 0.0
O192 O 0.86567 0.86783 0.70394 0.0
H193 H 0.83366 0.84192 0.76821 0.0
H194 H 0.92638 0.77162 0.75974 0.0
N195 N 0.94388 0.83707 0.73242 0.0
N196 N 0.99217 0.83052 0.71397 0.0
C197 C 0.95448 0.83559 0.71573 0.0
C198 C 0.9758 0.8327 0.74154 0.0
C199 C 1.00548 0.82873 0.73029 0.0
C200 C 0.8586 0.91488 0.75031 0.0
O201 O 0.82743 0.89751 0.74558 0.0
H202 H 0.93497 0.83848 0.70511 0.0
H203 H 0.97744 0.83317 0.75544 0.0
O204 O 0.8588 0.8263 0.72526 0.0
H205 H 0.88316 0.74004 0.78372 0.0
H206 H 0.03479 0.82595 0.73397 0.0
Cu207 Cu 0.95756 0.15826 0.48542 0.0
N208 N 0.99001 0.16106 0.50443 0.0
N209 N 0.02423 0.13781 0.52622 0.0
C210 C 1.00722 0.1305 0.51099 0.0
C211 C 0.01825 0.17493 0.52915 0.0
C212 C 0.99694 0.18919 0.51569 0.0
O213 O 0.90564 0.15034 0.4936 0.0
C214 C 0.974 0.11527 0.45518 0.0
O215 O 0.94575 0.13329 0.44801 0.0
H216 H 1.00552 0.10287 0.50506 0.0
H217 H 0.98565 0.21743 0.51466 0.0
N218 N 0.95909 0.20191 0.4718 0.0
N219 N 0.94489 0.23825 0.44909 0.0
C220 C 0.9326 0.21148 0.46013 0.0
C221 C 0.98912 0.2238 0.46822 0.0
C222 C 0.98043 0.24632 0.45427 0.0
C223 C 0.89798 0.13636 0.50832 0.0
O224 O 0.92543 0.1225 0.51772 0.0
H225 H 0.90603 0.19659 0.45887 0.0
H226 H 0.01625 0.22172 0.47456 0.0
O227 O 0.97901 0.11817 0.47135 0.0
H228 H 0.02664 0.19012 0.54066 0.0
H229 H 0.99937 0.26595 0.44804 0.0
Cu230 Cu 0.59474 0.12457 0.22579 0.0
N231 N 0.64299 0.13771 0.23378 0.0
N232 N 0.6878 0.1662 0.24956 0.0
C233 C 0.65042 0.16267 0.24647 0.0
C234 C 0.7045 0.14204 0.23849 0.0
C235 C 0.67678 0.12451 0.22878 0.0
O236 O 0.57123 0.09207 0.2429 0.0
C237 C 0.58381 0.19659 0.21198 0.0
O238 O 0.61982 0.20069 0.21552 0.0
H239 H 0.62865 0.17784 0.25333 0.0
H240 H 0.68097 0.10361 0.2188 0.0
N241 N 0.59485 0.0977 0.20525 0.0
N242 N 0.56018 0.08467 0.18184 0.0
C243 C 0.56158 0.08503 0.19918 0.0
C244 C 0.61607 0.10438 0.19128 0.0
C245 C 0.59487 0.09596 0.17681 0.0
C246 C 0.58602 0.05937 0.24384 0.0
O247 O 0.61452 0.05154 0.23367 0.0
H248 H 0.53713 0.08195 0.20736 0.0
H249 H 0.64242 0.11984 0.19144 0.0
O250 O 0.56607 0.16873 0.21849 0.0
H251 H 0.7346 0.13778 0.23729 0.0
H252 H 0.60252 0.10302 0.16373 0.0
Cu253 Cu 0.64078 0.86678 0.98924 0.0
N254 N 0.60204 0.88712 1.00262 0.0
N255 N 0.56269 0.92847 1.01494 0.0
C256 C 0.59247 0.92381 1.00429 0.0
C257 C 0.5535 0.8933 1.02017 0.0
C258 C 0.57773 0.86798 1.01258 0.0
O259 O 0.6883 0.87727 1.00141 0.0
C260 C 0.65361 0.8777 0.95319 0.0
O261 O 0.6815 0.85368 0.95505 0.0
H262 H 0.6067 0.94648 0.99761 0.0
H263 H 0.57761 0.83769 1.01422 0.0
N264 N 0.63288 0.81443 0.98663 0.0
N265 N 0.62486 0.75815 0.9739 0.0
C266 C 0.6269 0.79582 0.9717 0.0
C267 C 0.63382 0.78742 0.99879 0.0
C268 C 0.62876 0.75262 0.99096 0.0
C269 C 0.71508 0.85347 1.00255 0.0
O270 O 0.71295 0.82196 0.99364 0.0
H271 H 0.62396 0.80941 0.95936 0.0
H272 H 0.63882 0.79261 1.01233 0.0
O273 O 0.63628 0.88944 0.9665 0.0
H274 H 0.5311 0.88627 1.02904 0.0
H275 H 0.62929 0.72539 0.99723 0.0
Cu276 Cu 0.91724 0.16388 0.82531 0.0
N277 N 0.90574 0.1997 0.80838 0.0
N278 N 0.86942 0.23207 0.78999 0.0
C279 C 0.87654 0.1982 0.79723 0.0
C280 C 0.89602 0.25555 0.79648 0.0
C281 C 0.91829 0.23554 0.80781 0.0
O282 O 0.91093 0.11328 0.81571 0.0
C283 C 0.85491 0.192 0.8445 0.0
O284 O 0.83739 0.19302 0.82961 0.0
H285 H 0.85843 0.17381 0.79581 0.0
H286 H 0.9402 0.247 0.81604 0.0
N287 N 0.96782 0.16868 0.83208 0.0
N288 N 0.02025 0.16806 0.84834 0.0
C289 C 0.98242 0.16259 0.8479 0.0
C290 C 0.9973 0.17817 0.82215 0.0
C291 C 0.02958 0.17791 0.83211 0.0
C292 C 0.88033 0.09757 0.81082 0.0
O293 O 0.84801 0.11447 0.81366 0.0
H294 H 0.96548 0.15475 0.85889 0.0
H295 H 0.99543 0.18465 0.80859 0.0
O296 O 0.88708 0.17615 0.84551 0.0
H297 H 0.89801 0.28552 0.79399 0.0
H298 H 0.05781 0.18399 0.82763 0.0
Cu299 Cu 0.65468 0.16304 0.59046 0.0
N300 N 0.61687 0.13948 0.57726 0.0
N301 N 0.58445 0.0953 0.56266 0.0
C302 C 0.61757 0.10448 0.57036 0.0
C303 C 0.56232 0.12596 0.56472 0.0
C304 C 0.58232 0.15303 0.57372 0.0
O305 O 0.70398 0.15157 0.58048 0.0
C306 C 0.62409 0.12749 0.62054 0.0
O307 O 0.6033 0.10777 0.60975 0.0
H308 H 0.64146 0.0857 0.57154 0.0
H309 H 0.57213 0.18042 0.57771 0.0
N310 N 0.64752 0.21536 0.59096 0.0
N311 N 0.63951 0.27264 0.60265 0.0
C312 C 0.65077 0.23674 0.60527 0.0
C313 C 0.63399 0.23856 0.57876 0.0
C314 C 0.62887 0.27393 0.58596 0.0
C315 C 0.70957 0.15766 0.5645 0.0
O316 O 0.6819 0.17165 0.55524 0.0
H317 H 0.65926 0.2256 0.61763 0.0
H318 H 0.62687 0.23001 0.56577 0.0
O319 O 0.64998 0.14888 0.61469 0.0
H320 H 0.53364 0.12872 0.5601 0.0
H321 H 0.61737 0.29839 0.57952 0.0
Cu322 Cu 0.57382 0.88556 0.34611 0.0
N323 N 0.62345 0.87415 0.34027 0.0
N324 N 0.67026 0.85185 0.32393 0.0
C325 C 0.63301 0.85933 0.32497 0.0
C326 C 0.68472 0.86253 0.33932 0.0
C327 C 0.65571 0.87638 0.34938 0.0
O328 O 0.55116 0.90667 0.32538 0.0
C329 C 0.56555 0.81056 0.35936 0.0
O330 O 0.59724 0.80247 0.3515 0.0
H331 H 0.6125 0.85286 0.31504 0.0
H332 H 0.65787 0.8867 0.36247 0.0
N333 N 0.57047 0.92087 0.36377 0.0
N334 N 0.54317 0.94763 0.38659 0.0
C335 C 0.54055 0.92099 0.37426 0.0
C336 C 0.59339 0.94849 0.36958 0.0
C337 C 0.57661 0.96499 0.38383 0.0
C338 C 0.53037 0.93598 0.32516 0.0
O339 O 0.51668 0.94905 0.33967 0.0
H340 H 0.51767 0.90086 0.37309 0.0
H341 H 0.62047 0.95563 0.36408 0.0
O342 O 0.54886 0.8415 0.35597 0.0
H343 H 0.71404 0.86036 0.34311 0.0
H344 H 0.58832 0.98755 0.39162 0.0
Cu345 Cu 0.93616 0.88434 0.09119 0.0
N346 N 0.97051 0.89227 0.0735 0.0
N347 N 1.00303 0.92499 0.05393 0.0
C348 C 0.9779 0.92654 0.06691 0.0
C349 C 1.01192 0.88805 0.05236 0.0
C350 C 0.99168 0.86789 0.06445 0.0
O351 O 0.88657 0.88142 0.08023 0.0
C352 C 0.93315 0.92939 0.12194 0.0
O353 O 0.904 0.90892 0.12664 0.0
H354 H 0.96521 0.95218 0.07176 0.0
H355 H 0.99214 0.83768 0.06639 0.0
N356 N 0.94656 0.83951 0.10334 0.0
N357 N 0.95383 0.79972 0.12555 0.0
C358 C 0.95315 0.83609 0.1204 0.0
C359 C 0.94386 0.80386 0.09741 0.0
C360 C 0.94839 0.7793 0.11104 0.0
C361 C 0.86963 0.90997 0.07401 0.0
O362 O 0.88354 0.94386 0.07682 0.0
H363 H 0.95638 0.85966 0.12906 0.0
H364 H 0.93708 0.7963 0.08426 0.0
O365 O 0.94477 0.92686 0.10654 0.0
H366 H 0.03115 0.8763 0.04299 0.0
H367 H 0.94532 0.74891 0.11048 0.0
Cu368 Cu 0.59654 0.64511 0.85191 0.0
N369 N 0.61653 0.68338 0.83822 0.0
N370 N 0.66065 0.7143 0.82328 0.0
C371 C 0.65093 0.68166 0.83102 0.0
C372 C 0.63104 0.7376 0.8258 0.0
C373 C 0.60383 0.71842 0.83506 0.0
O374 O 0.60265 0.59723 0.83948 0.0
C375 C 0.61477 0.63697 0.88792 0.0
O376 O 0.5873 0.61206 0.88873 0.0
H377 H 0.66905 0.65724 0.83208 0.0
H378 H 0.57722 0.72954 0.83957 0.0
N379 N 0.5456 0.6529 0.85738 0.0
N380 N 0.49678 0.65858 0.87549 0.0
C381 C 0.5333 0.66729 0.87242 0.0
C382 C 0.51537 0.6357 0.85032 0.0
C383 C 0.48518 0.63931 0.86141 0.0
C384 C 0.59622 0.59667 0.82329 0.0
O385 O 0.58489 0.62781 0.81578 0.0
H386 H 0.55172 0.68114 0.88161 0.0
H387 H 0.51614 0.61857 0.83878 0.0
O388 O 0.62506 0.64929 0.87329 0.0
H389 H 0.62922 0.7665 0.82142 0.0
H390 H 0.45805 0.62553 0.85999 0.0
Cu391 Cu 0.61848 0.37242 0.08802 0.0
N392 N 0.57894 0.39731 0.07682 0.0
N393 N 0.54441 0.44258 0.0643 0.0
C394 C 0.57729 0.43401 0.07231 0.0
C395 C 0.52481 0.40981 0.06381 0.0
C396 C 0.54612 0.38206 0.07152 0.0
O397 O 0.65858 0.36332 0.07111 0.0
C398 C 0.65807 0.39228 0.11846 0.0
O399 O 0.68019 0.36401 0.11436 0.0
H400 H 0.5997 0.45399 0.07501 0.0
H401 H 0.53835 0.35272 0.07306 0.0
N402 N 0.59963 0.32862 0.09855 0.0
N403 N 0.58169 0.29348 0.12105 0.0
C404 C 0.58734 0.32859 0.11491 0.0
C405 C 0.60069 0.29202 0.09385 0.0
C406 C 0.5896 0.27023 0.10775 0.0
C407 C 0.68504 0.33899 0.07163 0.0
O408 O 0.68773 0.3163 0.0849 0.0
H409 H 0.58495 0.35391 0.12261 0.0
H410 H 0.61129 0.28178 0.08166 0.0
O411 O 0.63429 0.40388 0.10735 0.0
H412 H 0.49729 0.40582 0.05801 0.0
H413 H 0.59055 0.23974 0.10848 0.0
Cu414 Cu 0.84569 0.37361 0.34005 0.0
N415 N 0.79968 0.35449 0.33179 0.0
N416 N 0.75704 0.32304 0.31588 0.0
C417 C 0.79399 0.32687 0.32005 0.0
C418 C 0.73903 0.34925 0.32545 0.0
C419 C 0.76532 0.36868 0.33509 0.0
O420 O 0.86664 0.40582 0.32181 0.0
C421 C 0.86403 0.31142 0.35917 0.0
O422 O 0.82703 0.30973 0.35982 0.0
H423 H 0.81668 0.31104 0.3142 0.0
H424 H 0.75985 0.39236 0.34352 0.0
N425 N 0.83906 0.39974 0.36071 0.0
N426 N 0.86383 0.4134 0.38647 0.0
C427 C 0.8691 0.41357 0.36931 0.0
C428 C 0.81367 0.39104 0.37299 0.0
C429 C 0.82899 0.39931 0.38891 0.0
C430 C 0.86533 0.44187 0.32212 0.0
O431 O 0.85284 0.45899 0.33597 0.0
H432 H 0.89625 0.41821 0.36332 0.0
H433 H 0.78829 0.3747 0.37082 0.0
O434 O 0.87902 0.33359 0.34821 0.0
H435 H 0.70898 0.35447 0.32539 0.0
H436 H 0.81696 0.39235 0.40129 0.0
Cu437 Cu 0.87399 0.66648 0.59244 0.0
N438 N 0.89213 0.61908 0.58612 0.0
N439 N 0.92726 0.57832 0.57116 0.0
C440 C 0.92284 0.61448 0.57624 0.0
C441 C 0.89807 0.55935 0.57822 0.0
C442 C 0.87637 0.58463 0.58744 0.0
O443 O 0.84485 0.68496 0.57266 0.0
C444 C 0.93247 0.6798 0.61432 0.0
O445 O 0.92149 0.64561 0.61847 0.0
H446 H 0.94024 0.63778 0.57199 0.0
H447 H 0.85007 0.57862 0.59388 0.0
N448 N 0.84137 0.6672 0.61112 0.0
N449 N 0.81472 0.69674 0.63341 0.0
C450 C 0.83232 0.7005 0.61819 0.0
C451 C 0.82875 0.6408 0.62209 0.0
C452 C 0.81214 0.65902 0.63589 0.0
C453 C 0.81282 0.66861 0.571 0.0
O454 O 0.80308 0.6428 0.58223 0.0
H455 H 0.84208 0.72702 0.61294 0.0
H456 H 0.83356 0.61081 0.6208 0.0
O457 O 0.91654 0.6961 0.60156 0.0
H458 H 0.89218 0.52959 0.57647 0.0
H459 H 0.80115 0.64549 0.64729 0.0
Cu460 Cu 0.61248 0.38394 0.72395 0.0
N461 N 0.63468 0.34521 0.73665 0.0
N462 N 0.67983 0.31302 0.75035 0.0
C463 C 0.6692 0.34673 0.74391 0.0
C464 C 0.65075 0.28937 0.74698 0.0
C465 C 0.62293 0.30932 0.73851 0.0
O466 O 0.61531 0.43099 0.73724 0.0
C467 C 0.62585 0.39494 0.68798 0.0
O468 O 0.59486 0.4152 0.68808 0.0
H469 H 0.68681 0.37174 0.74379 0.0
H470 H 0.59656 0.29821 0.73357 0.0
N471 N 0.56207 0.37291 0.71857 0.0
N472 N 0.51345 0.35842 0.70122 0.0
C473 C 0.55051 0.35326 0.70464 0.0
C474 C 0.53107 0.39041 0.7245 0.0
C475 C 0.50103 0.38149 0.71385 0.0
C476 C 0.60921 0.43013 0.75343 0.0
O477 O 0.60147 0.39758 0.76068 0.0
H478 H 0.5698 0.33855 0.69621 0.0
H479 H 0.53092 0.41051 0.73501 0.0
O480 O 0.6399 0.38413 0.70224 0.0
H481 H 0.6498 0.2597 0.75024 0.0
H482 H 0.47277 0.39276 0.71484 0.0
Cu483 Cu 0.87966 0.35848 0.96871 0.0
N484 N 0.89873 0.40413 0.97733 0.0
N485 N 0.93081 0.44194 0.9953 0.0
C486 C 0.92067 0.40618 0.99148 0.0
C487 C 0.91365 0.46351 0.98333 0.0
C488 C 0.89375 0.44008 0.97227 0.0
O489 O 0.84522 0.33951 0.98651 0.0
C490 C 0.95428 0.33931 0.95784 0.0
O491 O 0.96647 0.36757 0.96729 0.0
H492 H 0.92921 0.38166 0.99877 0.0
H493 H 0.87677 0.44879 0.96143 0.0
N494 N 0.85222 0.36192 0.9483 0.0
N495 N 0.83781 0.33201 0.9237 0.0
C496 C 0.84058 0.32946 0.94096 0.0
C497 C 0.85617 0.38641 0.93522 0.0
C498 C 0.84682 0.36811 0.92004 0.0
C499 C 0.81609 0.36039 0.98813 0.0
O500 O 0.81262 0.38937 0.97774 0.0
H501 H 0.83998 0.303 0.94788 0.0
H502 H 0.87023 0.41342 0.93617 0.0
O503 O 0.92097 0.32658 0.96026 0.0
H504 H 0.91586 0.49392 0.98245 0.0
H505 H 0.85163 0.37888 0.9072 0.0
Cu506 Cu 0.85983 0.66705 0.23059 0.0
N507 N 0.81728 0.68893 0.24069 0.0
N508 N 0.78049 0.72325 0.25795 0.0
C509 C 0.81626 0.714 0.25379 0.0
C510 C 0.75826 0.7029 0.24727 0.0
C511 C 0.78099 0.68152 0.23677 0.0
O512 O 0.8797 0.63038 0.2472 0.0
C513 C 0.88381 0.73574 0.21669 0.0
O514 O 0.84818 0.74439 0.219 0.0
H515 H 0.84118 0.72536 0.26004 0.0
H516 H 0.77162 0.66138 0.22718 0.0
N517 N 0.84715 0.64518 0.20949 0.0
N518 N 0.86437 0.62751 0.18304 0.0
C519 C 0.87216 0.6257 0.20002 0.0
C520 C 0.82257 0.6597 0.19802 0.0
C521 C 0.83307 0.64873 0.1817 0.0
C522 C 0.86984 0.59567 0.24721 0.0
O523 O 0.84863 0.58276 0.2346 0.0
H524 H 0.89844 0.61511 0.20523 0.0
H525 H 0.80176 0.68096 0.20097 0.0
O526 O 0.8963 0.70505 0.22305 0.0
H527 H 0.72772 0.70273 0.24737 0.0
H528 H 0.82081 0.65847 0.16974 0.0
Cu529 Cu 0.60286 0.61616 0.48173 0.0
N530 N 0.56749 0.5952 0.49688 0.0
N531 N 0.53379 0.55236 0.51151 0.0
C532 C 0.55811 0.55842 0.4984 0.0
C533 C 0.52793 0.58685 0.51849 0.0
C534 C 0.54878 0.61306 0.5095 0.0
O535 O 0.64376 0.63691 0.49589 0.0
C536 C 0.61216 0.55901 0.45368 0.0
O537 O 0.63406 0.53244 0.44745 0.0
H538 H 0.56919 0.53663 0.49006 0.0
H539 H 0.55103 0.6429 0.5123 0.0
N540 N 0.58189 0.65472 0.46829 0.0
N541 N 0.56774 0.6913 0.4457 0.0
C542 C 0.58949 0.66287 0.45171 0.0
C543 C 0.55486 0.67916 0.47302 0.0
C544 C 0.54619 0.70179 0.45919 0.0
C545 C 0.67769 0.64022 0.4907 0.0
O546 O 0.68588 0.63047 0.47483 0.0
H547 H 0.61036 0.64793 0.44421 0.0
H548 H 0.54196 0.68015 0.48559 0.0
O549 O 0.6229 0.57554 0.46751 0.0
H550 H 0.51083 0.59277 0.52967 0.0
H551 H 0.5251 0.72376 0.45908 0.0
Cu552 Cu 0.46282 0.36537 0.23323 0.0
N553 N 0.45608 0.3218 0.24651 0.0
N554 N 0.42983 0.28044 0.26466 0.0
C555 C 0.43406 0.31728 0.26052 0.0
C556 C 0.45 0.26116 0.25288 0.0
C557 C 0.46618 0.28671 0.24176 0.0
O558 O 0.44756 0.40946 0.247 0.0
C559 C 0.43802 0.37301 0.19782 0.0
O560 O 0.45909 0.40349 0.1973 0.0
H561 H 0.41951 0.34023 0.26688 0.0
H562 H 0.48253 0.28009 0.23041 0.0
N563 N 0.51385 0.37083 0.22697 0.0
N564 N 0.56133 0.38252 0.20879 0.0
C565 C 0.52749 0.36574 0.21098 0.0
C566 C 0.54103 0.39003 0.23547 0.0
C567 C 0.57035 0.3974 0.22424 0.0
C568 C 0.45872 0.44312 0.24406 0.0
O569 O 0.47832 0.44986 0.23008 0.0
H570 H 0.51157 0.35286 0.20064 0.0
H571 H 0.53805 0.40132 0.24834 0.0
O572 O 0.43342 0.35599 0.21209 0.0
H573 H 0.45202 0.23072 0.25211 0.0
H574 H 0.59433 0.41564 0.22673 0.0
Cu575 Cu 0.37785 0.68461 0.99392 0.0
N576 N 0.41497 0.66655 1.00895 0.0
N577 N 0.44856 0.62545 1.02458 0.0
C578 C 0.41728 0.63094 1.01489 0.0
C579 C 0.46663 0.65908 1.02468 0.0
C580 C 0.44585 0.68436 1.01503 0.0
O581 O 0.3285 0.67778 1.00456 0.0
C582 C 0.36609 0.66637 0.95861 0.0
O583 O 0.33602 0.68776 0.95991 0.0
H584 H 0.39695 0.60918 1.0117 0.0
H585 H 0.45303 0.71346 1.01241 0.0
N586 N 0.38514 0.73542 0.98842 0.0
N587 N 0.39186 0.7816 0.96906 0.0
C588 C 0.40174 0.7463 0.97371 0.0
C589 C 0.365 0.76543 0.99369 0.0
C590 C 0.36931 0.79411 0.98181 0.0
C591 C 0.31201 0.64587 1.00438 0.0
O592 O 0.32757 0.61798 0.99578 0.0
H593 H 0.41758 0.7272 0.96562 0.0
H594 H 0.34528 0.76505 1.00428 0.0
O595 O 0.38454 0.6581 0.97217 0.0
H596 H 0.49295 0.66508 1.03125 0.0
H597 H 0.3537 0.82032 0.98158 0.0
Cu598 Cu 0.11943 0.68841 0.73193 0.0
N599 N 0.13937 0.72461 0.74721 0.0
N600 N 0.18021 0.75229 0.76543 0.0
C601 C 0.16666 0.7193 0.75911 0.0
C602 C 0.15995 0.77936 0.75746 0.0
C603 C 0.13488 0.76223 0.74625 0.0
O604 O 0.11233 0.64058 0.74422 0.0
C605 C 0.18479 0.7006 0.71124 0.0
O606 O 0.20198 0.71019 0.72559 0.0
H607 H 0.17853 0.69199 0.76201 0.0
H608 H 0.11623 0.77628 0.7373 0.0
N609 N 0.07336 0.70561 0.72284 0.0
N610 N 0.0286 0.7208 0.70346 0.0
C611 C 0.06263 0.70437 0.70614 0.0
C612 C 0.04537 0.72356 0.73108 0.0
C613 C 0.01777 0.73274 0.71925 0.0
C614 C 0.13995 0.62018 0.74907 0.0
O615 O 0.17426 0.62981 0.74443 0.0
H616 H 0.07952 0.6913 0.69622 0.0
H617 H 0.04523 0.72988 0.7447 0.0
O618 O 0.15223 0.68537 0.71193 0.0
H619 H 0.16388 0.80946 0.75909 0.0
H620 H 0.99189 0.74742 0.7222 0.0
Cu621 Cu 0.09668 0.39896 0.47163 0.0
N622 N 0.08388 0.44606 0.48095 0.0
N623 N 0.05187 0.48543 0.498 0.0
C624 C 0.05625 0.44951 0.49264 0.0
C625 C 0.07795 0.50558 0.48932 0.0
C626 C 0.09759 0.48118 0.47869 0.0
O627 O 0.12153 0.37191 0.49051 0.0
C628 C 0.03698 0.40349 0.45094 0.0
O629 O 0.05814 0.43302 0.44749 0.0
H630 H 0.04006 0.42576 0.49734 0.0
H631 H 0.1202 0.48858 0.47004 0.0
N632 N 0.12959 0.40033 0.45277 0.0
N633 N 0.15677 0.38081 0.42833 0.0
C634 C 0.12952 0.37432 0.44005 0.0
C635 C 0.15783 0.4243 0.44896 0.0
C636 C 0.17472 0.41226 0.43393 0.0
C637 C 0.14838 0.39118 0.49723 0.0
O638 O 0.15702 0.42382 0.4903 0.0
H639 H 0.1106 0.35027 0.43977 0.0
H640 H 0.16616 0.44832 0.4567 0.0
O641 O 0.04882 0.38029 0.46227 0.0
H642 H 0.08222 0.53576 0.49041 0.0
H643 H 0.19867 0.42539 0.42773 0.0
Cu644 Cu 0.41704 0.64848 0.3426 0.0
N645 N 0.36941 0.6656 0.33557 0.0
N646 N 0.32505 0.69353 0.31948 0.0
C647 C 0.36239 0.68814 0.32196 0.0
C648 C 0.30796 0.6732 0.33189 0.0
C649 C 0.33532 0.65593 0.34173 0.0
O650 O 0.43495 0.61369 0.32458 0.0
C651 C 0.43632 0.72237 0.35401 0.0
O652 O 0.40431 0.73328 0.34716 0.0
H653 H 0.3843 0.69967 0.31384 0.0
H654 H 0.33057 0.63691 0.35234 0.0
N655 N 0.41625 0.62181 0.36327 0.0
N656 N 0.44676 0.59879 0.38629 0.0
C657 C 0.44769 0.60496 0.36913 0.0
C658 C 0.39434 0.62668 0.3772 0.0
C659 C 0.41287 0.61212 0.39137 0.0
C660 C 0.41637 0.58276 0.32362 0.0
O661 O 0.38875 0.57736 0.33458 0.0
H662 H 0.47246 0.60154 0.3612 0.0
H663 H 0.36872 0.64311 0.37746 0.0
O664 O 0.44984 0.69036 0.3497 0.0
H665 H 0.27779 0.67087 0.33374 0.0
H666 H 0.40307 0.61374 0.40451 0.0
Cu667 Cu 0.09398 0.62128 0.09839 0.0
N668 N 0.08262 0.57459 0.0882 0.0
N669 N 0.05169 0.53603 0.07013 0.0
C670 C 0.05854 0.57207 0.07485 0.0
C671 C 0.07283 0.51489 0.08092 0.0
C672 C 0.09182 0.53881 0.09213 0.0
O673 O 0.12386 0.64853 0.0812 0.0
C674 C 0.02949 0.61664 0.11557 0.0
O675 O 0.04846 0.58594 0.11934 0.0
H676 H 0.04603 0.59656 0.06886 0.0
H677 H 0.11011 0.53064 0.10263 0.0
N678 N 0.12133 0.61945 0.11908 0.0
N679 N 0.14048 0.63837 0.14525 0.0
C680 C 0.1171 0.64494 0.13186 0.0
C681 C 0.14832 0.59569 0.12455 0.0
C682 C 0.16032 0.60741 0.14067 0.0
C683 C 0.15145 0.6289 0.07561 0.0
O684 O 0.1575 0.59565 0.08249 0.0
H685 H 0.09801 0.66867 0.13106 0.0
H686 H 0.15897 0.57198 0.11727 0.0
O687 O 0.0446 0.64032 0.10529 0.0
H688 H 0.0736 0.48436 0.0811 0.0
H689 H 0.18223 0.59438 0.14832 0.0
Cu690 Cu 0.11484 0.3876 0.83405 0.0
N691 N 0.13451 0.34765 0.82092 0.0
N692 N 0.17404 0.3128 0.80503 0.0
C693 C 0.1662 0.34755 0.81133 0.0
C694 C 0.14593 0.29036 0.81075 0.0
C695 C 0.12165 0.3119 0.8205 0.0
O696 O 0.11498 0.43367 0.82005 0.0
C697 C 0.16468 0.36818 0.86111 0.0
O698 O 0.17821 0.34341 0.85017 0.0
H699 H 0.18407 0.37204 0.80967 0.0
H700 H 0.09689 0.30199 0.82724 0.0
N701 N 0.06664 0.37456 0.84208 0.0
N702 N 0.02302 0.3565 0.86135 0.0
C703 C 0.06022 0.35935 0.85771 0.0
C704 C 0.03231 0.3813 0.8354 0.0
C705 C 1.00539 0.37015 0.84721 0.0
C706 C 0.14621 0.45084 0.81777 0.0
O707 O 0.17626 0.43835 0.82588 0.0
H708 H 0.08268 0.35136 0.86638 0.0
H709 H 0.02723 0.39473 0.82314 0.0
O710 O 0.14274 0.39378 0.85555 0.0
H711 H 0.14321 0.26042 0.80821 0.0
H712 H 0.97524 0.37362 0.84576 0.0
Cu713 Cu 0.35767 0.32189 0.58482 0.0
N714 N 0.39358 0.33616 0.56842 0.0
N715 N 0.4281 0.37647 0.55278 0.0
C716 C 0.40689 0.37165 0.56702 0.0
C717 C 0.42852 0.34232 0.545 0.0
C718 C 0.40696 0.31757 0.55461 0.0
O719 O 0.30835 0.33532 0.57557 0.0
C720 C 0.4035 0.33346 0.61237 0.0
O721 O 0.42275 0.30976 0.60279 0.0
H722 H 0.40004 0.39385 0.57607 0.0
H723 H 0.4 0.28874 0.55126 0.0
N724 N 0.35638 0.27052 0.59013 0.0
N725 N 0.34734 0.22247 0.60834 0.0
C726 C 0.33888 0.25855 0.60443 0.0
C727 C 0.37663 0.24088 0.58454 0.0
C728 C 0.37105 0.21111 0.59577 0.0
C729 C 0.29917 0.36937 0.5727 0.0
O730 O 0.3218 0.39648 0.578 0.0
H731 H 0.32307 0.27736 0.61268 0.0
H732 H 0.39613 0.24156 0.57389 0.0
O733 O 0.37212 0.34576 0.60657 0.0
H734 H 0.44165 0.33617 0.53276 0.0
H735 H 0.38498 0.184 0.59518 0.0
H736 H 0.11039 0.33693 0.40889 0.0
H737 H 0.22675 0.37003 0.41565 0.0
H738 H 0.24584 0.32507 0.39357 0.0
H739 H 0.23056 0.27208 0.37452 0.0
H740 H 0.11485 0.23754 0.36746 0.0
H741 H 0.09427 0.28761 0.38723 0.0
C742 C 0.13987 0.33438 0.40545 0.0
C743 C 0.16714 0.35666 0.41408 0.0
C744 C 0.15074 0.30823 0.39267 0.0
C745 C 0.20516 0.35351 0.40922 0.0
C746 C 0.21614 0.32761 0.39663 0.0
C747 C 0.20073 0.27597 0.37705 0.0
C748 C 0.17427 0.25106 0.36961 0.0
C749 C 0.18932 0.30431 0.38856 0.0
C750 C 0.13573 0.25655 0.37291 0.0
C751 C 0.12405 0.28491 0.38436 0.0
H752 H 0.11714 0.8411 0.65738 0.0
H753 H 0.02678 0.89333 0.62913 0.0
H754 H 0.98232 0.8772 0.65219 0.0
H755 H 0.97184 0.85635 0.68218 0.0
H756 H 0.0632 0.80331 0.7099 0.0
H757 H 0.10429 0.81129 0.68526 0.0
C758 C 0.08743 0.84789 0.65607 0.0
C759 C 0.07508 0.86816 0.6416 0.0
C760 C 0.06238 0.83906 0.66947 0.0
C761 C 0.03672 0.87722 0.64006 0.0
C762 C 1.01146 0.86838 0.65335 0.0
C763 C 1.00047 0.84588 0.68281 0.0
C764 C 0.01443 0.8303 0.6983 0.0
C765 C 0.0243 0.85053 0.66843 0.0
C766 C 0.05173 0.81665 0.69855 0.0
C767 C 0.07537 0.82096 0.68435 0.0
H768 H 0.398 0.85532 0.96036 0.0
H769 H 0.39139 0.74283 0.93912 0.0
H770 H 0.39503 0.7678 0.91018 0.0
H771 H 0.40105 0.82094 0.89076 0.0
H772 H 0.41082 0.93412 0.91099 0.0
H773 H 0.40423 0.90977 0.94035 0.0
C774 C 0.39736 0.83646 0.94935 0.0
C775 C 0.39498 0.79719 0.95198 0.0
C776 C 0.39962 0.85115 0.93253 0.0
C777 C 0.39415 0.773 0.93759 0.0
C778 C 0.39583 0.78732 0.92096 0.0
C779 C 0.40127 0.84051 0.90153 0.0
C780 C 0.40609 0.8794 0.89863 0.0
C781 C 0.39865 0.82626 0.91828 0.0
C782 C 0.40692 0.90408 0.91283 0.0
C783 C 0.40333 0.89013 0.92963 0.0
H784 H 0.41226 0.13365 0.14448 0.0
H785 H 0.47199 0.08721 0.10099 0.0
H786 H 0.52144 0.06413 0.12001 0.0
H787 H 0.55208 0.06481 0.14856 0.0
H788 H 0.4916 0.11092 0.19186 0.0
H789 H 0.43839 0.12575 0.17347 0.0
C790 C 0.43564 0.11776 0.13919 0.0
C791 C 0.43863 0.1129 0.1213 0.0
C792 C 0.46431 0.10475 0.15018 0.0
C793 C 0.46901 0.09181 0.1147 0.0
C794 C 0.49753 0.07871 0.12557 0.0
C795 C 0.52697 0.0775 0.15397 0.0
C796 C 0.52629 0.087 0.17153 0.0
C797 C 0.49619 0.08628 0.14325 0.0
C798 C 0.49322 0.10296 0.17844 0.0
C799 C 0.46266 0.11185 0.16788 0.0
H800 H 0.19572 0.7481 0.20346 0.0
H801 H 0.0784 0.77945 0.20327 0.0
H802 H 0.0646 0.72883 0.18244 0.0
H803 H 0.08788 0.68036 0.16181 0.0
H804 H 0.20575 0.65034 0.16244 0.0
H805 H 0.21734 0.69541 0.18564 0.0
C806 C 0.16694 0.74326 0.19916 0.0
C807 C 0.13811 0.76745 0.20486 0.0
C808 C 0.15949 0.71464 0.18706 0.0
C809 C 0.10097 0.76091 0.19923 0.0
C810 C 0.09322 0.73227 0.18715 0.0
C811 C 0.11602 0.68356 0.16712 0.0
C812 C 0.14602 0.6622 0.16021 0.0
C813 C 0.12253 0.70975 0.18055 0.0
C814 C 0.18216 0.66617 0.1675 0.0
C815 C 0.18885 0.69213 0.18073 0.0
H816 H 0.46108 0.941 0.45702 0.0
H817 H 0.37361 0.89379 0.42455 0.0
H818 H 0.40902 0.91215 0.39902 0.0
H819 H 0.46878 0.93228 0.38626 0.0
H820 H 0.55906 0.97271 0.41887 0.0
H821 H 0.51813 0.96739 0.444 0.0
C822 C 0.44922 0.93547 0.44437 0.0
C823 C 0.41491 0.91546 0.44273 0.0
C824 C 0.4705 0.94458 0.42977 0.0
C825 C 0.4 0.90887 0.42622 0.0
C826 C 0.42038 0.91915 0.4116 0.0
C827 C 0.4795 0.94011 0.39885 0.0
C828 C 0.51728 0.95196 0.40073 0.0
C829 C 0.45637 0.93542 0.41328 0.0
C830 C 0.53022 0.96336 0.41705 0.0
C831 C 0.50689 0.96001 0.43144 0.0
H832 H 0.30458 0.18396 0.68411 0.0
H833 H 0.40418 0.11492 0.67964 0.0
H834 H 0.40771 0.12878 0.64898 0.0
H835 H 0.38776 0.16787 0.62444 0.0
H836 H 0.28712 0.23544 0.6288 0.0
H837 H 0.27881 0.21469 0.65838 0.0
C838 C 0.32661 0.17129 0.67636 0.0
C839 C 0.3544 0.14898 0.68429 0.0
C840 C 0.32869 0.17961 0.65872 0.0
C841 C 0.38248 0.1324 0.67398 0.0
C842 C 0.38469 0.14052 0.6564 0.0
C843 C 0.36349 0.17737 0.63167 0.0
C844 C 0.33873 0.2041 0.62446 0.0
C845 C 0.35874 0.1652 0.64876 0.0
C846 C 0.30733 0.21582 0.63414 0.0
C847 C 0.30242 0.20383 0.65107 0.0
H848 H 0.14405 0.1748 0.90652 0.0
H849 H 0.06564 0.09915 0.93118 0.0
H850 H 0.0252 0.10007 0.90562 0.0
H851 H 1.01031 0.12521 0.87684 0.0
H852 H 0.08745 0.20351 0.85303 0.0
H853 H 0.12995 0.19869 0.87762 0.0
C854 C 0.11847 0.15794 0.90622 0.0
C855 C 0.10807 0.13676 0.92078 0.0
C856 C 0.09478 0.15946 0.89166 0.0
C857 C 0.07446 0.11558 0.92017 0.0
C858 C 0.05118 0.11628 0.90558 0.0
C859 C 0.0363 0.14135 0.87704 0.0
C860 C 0.04546 0.16469 0.86298 0.0
C861 C 0.06066 0.13871 0.89137 0.0
C862 C 0.0797 0.18494 0.86346 0.0
C863 C 0.10406 0.18232 0.87759 0.0
H864 H 0.81134 0.69085 0.66812 0.0
H865 H 0.80618 0.77137 0.62664 0.0
H866 H 0.81366 0.82313 0.64706 0.0
H867 H 0.83056 0.84481 0.67627 0.0
H868 H 0.83215 0.76391 0.71772 0.0
H869 H 0.81622 0.71345 0.69776 0.0
C870 C 0.81079 0.71964 0.66351 0.0
C871 C 0.80961 0.7269 0.64575 0.0
C872 C 0.81484 0.74944 0.67533 0.0
C873 C 0.80853 0.7647 0.64018 0.0
C874 C 0.81266 0.79446 0.65186 0.0
C875 C 0.82667 0.81629 0.68099 0.0
C876 C 0.83345 0.8082 0.69841 0.0
C877 C 0.8174 0.78707 0.66941 0.0
C878 C 0.82766 0.77109 0.70434 0.0
C879 C 0.81863 0.74201 0.69292 0.0
H880 H 0.13028 0.08436 0.41978 0.0
H881 H 0.06337 0.10725 0.37454 0.0
H882 H 1.00649 0.1095 0.3919 0.0
H883 H 0.97649 0.11142 0.42021 0.0
H884 H 0.04277 0.08826 0.46564 0.0
H885 H 0.09858 0.07846 0.44789 0.0
C886 C 0.10321 0.08913 0.41367 0.0
C887 C 0.10147 0.09656 0.39589 0.0
C888 C 0.07029 0.09033 0.42378 0.0
C889 C 0.06593 0.10262 0.38824 0.0
C890 C 0.0332 0.10364 0.39816 0.0
C891 C 1.00293 0.1035 0.42624 0.0
C892 C 1.00535 0.10109 0.44428 0.0
C893 C 0.03517 0.09858 0.416 0.0
C894 C 0.03994 0.09052 0.4518 0.0
C895 C 0.07205 0.08515 0.44166 0.0
H896 H 0.54202 0.23596 0.13543 0.0
H897 H 0.6174 0.32816 0.14712 0.0
H898 H 0.61931 0.30984 0.1772 0.0
H899 H 0.60528 0.26425 0.19961 0.0
H900 H 0.53131 0.17051 0.18875 0.0
H901 H 0.522 0.19321 0.15929 0.0
C902 C 0.5584 0.25218 0.14467 0.0
C903 C 0.57947 0.28357 0.13903 0.0
C904 C 0.55935 0.2414 0.16217 0.0
C905 C 0.6004 0.3045 0.15115 0.0
C906 C 0.60163 0.29394 0.16838 0.0
C907 C 0.58632 0.24932 0.19093 0.0
C908 C 0.56923 0.2156 0.19633 0.0
C909 C 0.58186 0.26209 0.17397 0.0
C910 C 0.54463 0.19665 0.18495 0.0
C911 C 0.5397 0.20941 0.16801 0.0
H912 H 0.65897 0.83163 0.92513 0.0
H913 H 0.60573 0.93366 0.94319 0.0
H914 H 0.56728 0.93598 0.91706 0.0
H915 H 0.54541 0.90656 0.89018 0.0
H916 H 0.59612 0.80271 0.8728 0.0
H917 H 0.63911 0.8038 0.89743 0.0
C918 C 0.63959 0.85486 0.92318 0.0
C919 C 0.6354 0.88257 0.9361 0.0
C920 C 0.61675 0.85544 0.90831 0.0
C921 C 0.6096 0.91206 0.93346 0.0
C922 C 0.58745 0.91328 0.91855 0.0
C923 C 0.56578 0.8841 0.89176 0.0
C924 C 0.56716 0.85443 0.87964 0.0
C925 C 0.59013 0.88465 0.90609 0.0
C926 C 0.59444 0.82604 0.88178 0.0
C927 C 0.61899 0.82655 0.89595 0.0
H928 H 0.80369 0.32564 0.89285 0.0
H929 H 0.87823 0.26822 0.92792 0.0
H930 H 0.88795 0.21798 0.90695 0.0
H931 H 0.87897 0.19249 0.87783 0.0
H932 H 0.80252 0.24821 0.8429 0.0
H933 H 0.78931 0.29621 0.86461 0.0
C934 C 0.82161 0.30181 0.89589 0.0
C935 C 0.84013 0.30068 0.91188 0.0
C936 C 0.82677 0.2726 0.88379 0.0
C937 C 0.86327 0.26961 0.91577 0.0
C938 C 0.86905 0.24092 0.90374 0.0
C939 C 0.85895 0.21478 0.87506 0.0
C940 C 0.84204 0.2168 0.85871 0.0
C941 C 0.85139 0.24237 0.88762 0.0
C942 C 0.81596 0.24581 0.85539 0.0
C943 C 0.80855 0.27352 0.86777 0.0
H944 H 0.56778 0.17836 0.69397 0.0
H945 H 0.49918 0.07841 0.68729 0.0
H946 H 0.53124 0.06409 0.6605 0.0
H947 H 0.57526 0.08215 0.63775 0.0
H948 H 0.64519 0.18108 0.64433 0.0
H949 H 0.61693 0.19282 0.67248 0.0
C950 C 0.56022 0.15312 0.68684 0.0
C951 C 0.53033 0.13006 0.69261 0.0
C952 C 0.57911 0.14471 0.67135 0.0
C953 C 0.52115 0.09742 0.68305 0.0
C954 C 0.53972 0.08896 0.66772 0.0
C955 C 0.58478 0.10598 0.64543 0.0
C956 C 0.61213 0.1308 0.63881 0.0
C957 C 0.56816 0.1128 0.66155 0.0
C958 C 0.62424 0.1614 0.64905 0.0
C959 C 0.60787 0.16832 0.66514 0.0
H960 H 0.5809 0.73742 0.36774 0.0
H961 H 0.531 0.83941 0.38775 0.0
H962 H 0.52823 0.81182 0.41634 0.0
H963 H 0.5437 0.76048 0.43611 0.0
H964 H 0.58912 0.65638 0.4161 0.0
H965 H 0.58985 0.68298 0.38718 0.0
C966 C 0.56864 0.75324 0.37829 0.0
C967 C 0.55635 0.7905 0.37555 0.0
C968 C 0.5667 0.73699 0.39479 0.0
C969 C 0.54052 0.81064 0.38938 0.0
C970 C 0.53926 0.795 0.40583 0.0
C971 C 0.55337 0.74334 0.42545 0.0
C972 C 0.5669 0.7066 0.42846 0.0
C973 C 0.55285 0.75846 0.40875 0.0
C974 C 0.57942 0.68504 0.41435 0.0
C975 C 0.5795 0.70012 0.39772 0.0
H976 H 0.08365 0.95865 0.16183 0.0
H977 H 0.0225 0.8977 0.20103 0.0
H978 H 0.96585 0.89983 0.1837 0.0
H979 H 0.93489 0.91271 0.15616 0.0
H980 H 0.99524 0.97384 0.11693 0.0
H981 H 0.05001 0.97928 0.13589 0.0
C982 C 0.058 0.94625 0.1668 0.0
C983 C 0.05843 0.92698 0.18266 0.0
C984 C 0.02483 0.94788 0.15679 0.0
C985 C 0.02418 0.91163 0.18873 0.0
C986 C 0.99125 0.91312 0.17885 0.0
C987 C 0.95956 0.92821 0.1519 0.0
C988 C 0.96099 0.94238 0.13502 0.0
C989 C 0.99147 0.9303 0.16268 0.0
C990 C 0.99337 0.96237 0.12981 0.0
C991 C 0.02491 0.9652 0.14059 0.0
H992 H 0.59008 0.62776 0.92106 0.0
H993 H 0.66429 0.69597 0.88991 0.0
H994 H 0.67413 0.73917 0.91392 0.0
H995 H 0.65845 0.76031 0.94308 0.0
H996 H 0.58543 0.69264 0.97471 0.0
H997 H 0.57827 0.64655 0.95123 0.0
C998 C 0.60894 0.65168 0.9196 0.0
C999 C 0.62614 0.65858 0.90357 0.0
C1000 C 0.61432 0.67683 0.93349 0.0
C1001 C 0.65054 0.68981 0.90201 0.0
C1002 C 0.65607 0.71477 0.91573 0.0
C1003 C 0.64099 0.73544 0.94481 0.0
C1004 C 0.6221 0.73003 0.96049 0.0
C1005 C 0.63745 0.70904 0.93138 0.0
C1006 C 0.60021 0.69732 0.96273 0.0
C1007 C 0.5961 0.67106 0.94931 0.0
H1008 H 0.59581 0.42398 0.13256 0.0
H1009 H 0.70386 0.37666 0.14606 0.0
H1010 H 0.68475 0.37344 0.17627 0.0
H1011 H 0.63334 0.37494 0.19806 0.0
H1012 H 0.52382 0.4154 0.18295 0.0
H1013 H 0.54696 0.42967 0.15423 0.0
C1014 C 0.61566 0.41385 0.14213 0.0
C1015 C 0.65111 0.40025 0.13697 0.0
C1016 C 0.60365 0.4098 0.15921 0.0
C1017 C 0.67632 0.38719 0.14964 0.0
C1018 C 0.66526 0.38499 0.16691 0.0
C1019 C 0.61494 0.38736 0.18847 0.0
C1020 C 0.57677 0.39343 0.19243 0.0
C1021 C 0.62837 0.39468 0.17173 0.0
C1022 C 0.553 0.40959 0.18 0.0
C1023 C 0.56633 0.41805 0.16363 0.0
H1024 H 0.97598 0.26563 0.41957 0.0
H1025 H 0.86956 0.24067 0.44396 0.0
H1026 H 0.83601 0.25845 0.41788 0.0
H1027 H 0.83628 0.28098 0.38839 0.0
H1028 H 0.94137 0.31004 0.36385 0.0
H1029 H 0.976 0.29068 0.38976 0.0
C1030 C 0.94546 0.26438 0.41926 0.0
C1031 C 0.92545 0.25134 0.4338 0.0
C1032 C 0.92607 0.27508 0.40414 0.0
C1033 C 0.88584 0.24984 0.43298 0.0
C1034 C 0.86655 0.26016 0.41805 0.0
C1035 C 0.86683 0.28276 0.38852 0.0
C1036 C 0.88614 0.29648 0.37399 0.0
C1037 C 0.88634 0.27251 0.40354 0.0
C1038 C 0.92572 0.29913 0.3747 0.0
C1039 C 0.94551 0.28828 0.38958 0.0
H1040 H 0.05435 0.70973 0.67074 0.0
H1041 H 0.95412 0.73827 0.69946 0.0
H1042 H 0.91683 0.7357 0.67326 0.0
H1043 H 0.91044 0.71609 0.64295 0.0
H1044 H 1.0091 0.68364 0.61446 0.0
H1045 H 0.04902 0.69715 0.63961 0.0
C1046 C 0.02441 0.71539 0.67138 0.0
C1047 C 1.00734 0.72321 0.68743 0.0
C1048 C 1.00262 0.71323 0.65615 0.0
C1049 C 0.96849 0.73175 0.68758 0.0
C1050 C 0.94686 0.73021 0.6725 0.0
C1051 C 0.94089 0.71352 0.64208 0.0
C1052 C 0.95701 0.69985 0.62676 0.0
C1053 C 0.96336 0.71985 0.65682 0.0
C1054 C 0.99626 0.6952 0.62595 0.0
C1055 C 0.01897 0.70236 0.64043 0.0
H1056 H 0.68374 0.28365 0.63047 0.0
H1057 H 0.58577 0.32678 0.60417 0.0
H1058 H 0.57515 0.37179 0.62757 0.0
H1059 H 0.5906 0.39507 0.65665 0.0
H1060 H 0.68824 0.35105 0.68311 0.0
H1061 H 0.70227 0.31065 0.65848 0.0
C1062 C 0.6602 0.30305 0.62984 0.0
C1063 C 0.63545 0.30163 0.61564 0.0
C1064 C 0.65419 0.32876 0.64339 0.0
C1065 C 0.6054 0.3274 0.61487 0.0
C1066 C 0.5992 0.35303 0.62831 0.0
C1067 C 0.61541 0.37725 0.65692 0.0
C1068 C 0.63821 0.3761 0.67182 0.0
C1069 C 0.62304 0.35354 0.64278 0.0
C1070 C 0.67012 0.35257 0.67188 0.0
C1071 C 0.67808 0.32924 0.65782 0.0
H1072 H 0.05705 0.35251 0.89274 0.0
H1073 H 0.95013 0.33527 0.86703 0.0
H1074 H 0.92008 0.32303 0.89466 0.0
H1075 H 0.92293 0.32363 0.92646 0.0
H1076 H 0.02969 0.34222 0.95185 0.0
H1077 H 0.06103 0.34656 0.92399 0.0
C1078 C 0.02735 0.34539 0.89298 0.0
C1079 C 1.00601 0.34547 0.87759 0.0
C1080 C 1.01011 0.33841 0.90898 0.0
C1081 C 0.96734 0.33634 0.87854 0.0
C1082 C 0.95007 0.32905 0.89439 0.0
C1083 C 0.95324 0.32721 0.9259 0.0
C1084 C 0.97395 0.33218 0.94128 0.0
C1085 C 0.97101 0.33081 0.90975 0.0
C1086 C 0.01311 0.33801 0.94026 0.0
C1087 C 0.03105 0.34076 0.9243 0.0
H1088 H 0.92499 0.83545 0.1533 0.0
H1089 H 0.9801 0.73302 0.1374 0.0
H1090 H 0.96806 0.70501 0.16568 0.0
H1091 H 0.93426 0.70714 0.19353 0.0
H1092 H 0.87852 0.80992 0.20879 0.0
H1093 H 0.8995 0.84075 0.18244 0.0
C1094 C 0.93522 0.80734 0.15611 0.0
C1095 C 0.95257 0.78592 0.14305 0.0
C1096 C 0.92801 0.79149 0.17235 0.0
C1097 C 0.96556 0.74953 0.14703 0.0
C1098 C 0.95888 0.73365 0.16324 0.0
C1099 C 0.92781 0.73665 0.19134 0.0
C1100 C 0.90488 0.75626 0.20314 0.0
C1101 C 0.93897 0.75392 0.17582 0.0
C1102 C 0.89613 0.79425 0.19993 0.0
C1103 C 0.90789 0.81182 0.1848 0.0
H1104 H 0.59977 0.5486 0.41983 0.0
H1105 H 0.54515 0.58956 0.4656 0.0
H1106 H 0.4894 0.60636 0.44882 0.0
H1107 H 0.45618 0.60918 0.4209 0.0
H1108 H 0.50931 0.56123 0.37589 0.0
H1109 H 0.56518 0.54689 0.39269 0.0
C1110 C 0.57566 0.56111 0.42622 0.0
C1111 C 0.57737 0.56904 0.44396 0.0
C1112 C 0.54317 0.56923 0.41656 0.0
C1113 C 0.54546 0.58454 0.45194 0.0
C1114 C 0.51327 0.59374 0.44233 0.0
C1115 C 0.47965 0.59524 0.41471 0.0
C1116 C 0.47834 0.58714 0.39691 0.0
C1117 C 0.51181 0.58622 0.42458 0.0
C1118 C 0.50947 0.56891 0.38936 0.0
C1119 C 0.54156 0.56042 0.39901 0.0
H1120 H 0.3727 0.28333 0.13356 0.0
H1121 H 0.48938 0.28724 0.11856 0.0
H1122 H 0.50493 0.32378 0.14463 0.0
H1123 H 0.48478 0.35523 0.17151 0.0
H1124 H 0.36936 0.34506 0.18811 0.0
H1125 H 0.35347 0.31059 0.16158 0.0
C1126 C 0.40151 0.2921 0.13612 0.0
C1127 C 0.42989 0.28298 0.12418 0.0
C1128 C 0.41024 0.31215 0.15132 0.0
C1129 C 0.46724 0.29393 0.12764 0.0
C1130 C 0.47601 0.3149 0.14247 0.0
C1131 C 0.45611 0.34563 0.16925 0.0
C1132 C 0.428 0.3533 0.18157 0.0
C1133 C 0.44767 0.32441 0.15434 0.0
C1134 C 0.39124 0.33988 0.17871 0.0
C1135 C 0.38225 0.32008 0.16358 0.0
H1136 H 0.44045 0.65664 0.95198 0.0
H1137 H 0.33228 0.66646 0.92685 0.0
H1138 H 0.36318 0.66531 0.89868 0.0
H1139 H 0.42158 0.66325 0.8812 0.0
H1140 H 0.52924 0.65671 0.90707 0.0
H1141 H 0.49805 0.65565 0.93483 0.0
C1142 C 0.42349 0.65784 0.94035 0.0
C1143 C 0.384 0.66094 0.94154 0.0
C1144 C 0.4415 0.65851 0.92428 0.0
C1145 C 0.36267 0.66357 0.9263 0.0
C1146 C 0.38036 0.66318 0.9102 0.0
C1147 C 0.43812 0.66159 0.89293 0.0
C1148 C 0.47781 0.66029 0.89194 0.0
C1149 C 0.41985 0.66102 0.90902 0.0
C1150 C 0.49882 0.65844 0.90732 0.0
C1151 C 0.48093 0.65741 0.92327 0.0
H1152 H 0.23635 0.75668 0.70685 0.0
H1153 H 0.15972 0.684 0.67877 0.0
H1154 H 0.1689 0.7218 0.65291 0.0
H1155 H 0.19214 0.77973 0.63949 0.0
H1156 H 0.2641 0.85549 0.66837 0.0
H1157 H 0.26411 0.81169 0.69252 0.0
C1158 C 0.22235 0.74848 0.69497 0.0
C1159 C 0.19715 0.71765 0.69481 0.0
C1160 C 0.22664 0.77118 0.68032 0.0
C1161 C 0.17916 0.70763 0.67929 0.0
C1162 C 0.18422 0.72939 0.66452 0.0
C1163 C 0.20789 0.78674 0.65104 0.0
C1164 C 0.22745 0.82135 0.65218 0.0
C1165 C 0.20674 0.76201 0.66509 0.0
C1166 C 0.24875 0.8292 0.66707 0.0
C1167 C 0.24855 0.80423 0.68097 0.0
H1168 H 1.00681 0.45366 0.42919 0.0
H1169 H 0.9855 0.34413 0.45135 0.0
H1170 H 0.92713 0.33888 0.43422 0.0
H1171 H 0.88459 0.36438 0.41133 0.0
H1172 H 0.90975 0.47268 0.38904 0.0
H1173 H 0.9647 0.47951 0.4079 0.0
C1174 C 0.98961 0.42844 0.43038 0.0
C1175 C 1.00076 0.39918 0.44148 0.0
C1176 C 0.95688 0.42548 0.42041 0.0
C1177 C 0.97768 0.36701 0.44286 0.0
C1178 C 0.94442 0.36398 0.43303 0.0
C1179 C 0.90181 0.3897 0.41095 0.0
C1180 C 0.89318 0.41839 0.39904 0.0
C1181 C 0.93398 0.39291 0.42158 0.0
C1182 C 0.916 0.45063 0.39823 0.0
C1183 C 0.94735 0.45438 0.40893 0.0
H1184 H 0.46373 0.68757 0.38266 0.0
H1185 H 0.43177 0.79654 0.36298 0.0
H1186 H 0.43497 0.82329 0.39203 0.0
H1187 H 0.43964 0.81396 0.42323 0.0
H1188 H 0.46818 0.7037 0.44292 0.0
H1189 H 0.47293 0.67943 0.41377 0.0
C1190 C 0.45843 0.71739 0.38465 0.0
C1191 C 0.44766 0.74007 0.37062 0.0
C1192 C 0.45857 0.73218 0.40151 0.0
C1193 C 0.44026 0.77852 0.37353 0.0
C1194 C 0.44165 0.79372 0.39018 0.0
C1195 C 0.44737 0.78473 0.4213 0.0
C1196 C 0.45344 0.76098 0.4356 0.0
C1197 C 0.44953 0.77052 0.40435 0.0
C1198 C 0.46292 0.72294 0.43244 0.0
C1199 C 0.46576 0.70885 0.41566 0.0
H1200 H 0.99678 0.56997 0.1382 0.0
H1201 H 0.9802 0.67709 0.11302 0.0
H1202 H 0.92324 0.68763 0.13039 0.0
H1203 H 0.8836 0.66966 0.15545 0.0
H1204 H 0.9039 0.56365 0.18085 0.0
H1205 H 0.95492 0.54968 0.16078 0.0
C1206 C 0.98088 0.59577 0.13638 0.0
C1207 C 0.99319 0.62306 0.12451 0.0
C1208 C 0.94932 0.60205 0.14668 0.0
C1209 C 0.97163 0.65586 0.12221 0.0
C1210 C 0.93921 0.66191 0.13219 0.0
C1211 C 0.89862 0.64312 0.15625 0.0
C1212 C 0.89015 0.61752 0.16956 0.0
C1213 C 0.92852 0.63572 0.14486 0.0
C1214 C 0.9102 0.58361 0.17073 0.0
C1215 C 0.93931 0.57574 0.15931 0.0
H1216 H 0.1892 0.30377 0.87584 0.0
H1217 H 0.13746 0.41059 0.88808 0.0
H1218 H 0.12547 0.38891 0.91746 0.0
H1219 H 0.12439 0.33668 0.93893 0.0
H1220 H 0.17184 0.2292 0.92495 0.0
H1221 H 0.19048 0.25375 0.89701 0.0
C1222 C 0.17594 0.32274 0.88497 0.0
C1223 C 0.1643 0.35878 0.8797 0.0
C1224 C 0.16769 0.30956 0.90151 0.0
C1225 C 0.14691 0.38272 0.89179 0.0
C1226 C 0.13975 0.37022 0.90856 0.0
C1227 C 0.13898 0.31899 0.92972 0.0
C1228 C 0.1461 0.28105 0.93376 0.0
C1229 C 0.14909 0.33327 0.91344 0.0
C1230 C 0.1653 0.25821 0.92188 0.0
C1231 C 0.17621 0.27232 0.90598 0.0
H1232 H 0.45765 0.29661 0.62996 0.0
H1233 H 0.38124 0.3907 0.63425 0.0
H1234 H 0.40741 0.40583 0.66277 0.0
H1235 H 0.45419 0.39361 0.68583 0.0
H1236 H 0.52884 0.29805 0.68116 0.0
H1237 H 0.50116 0.28235 0.65333 0.0
C1238 C 0.44662 0.32053 0.63707 0.0
C1239 C 0.41778 0.34278 0.62987 0.0
C1240 C 0.46157 0.3288 0.65338 0.0
C1241 C 0.40352 0.37322 0.63945 0.0
C1242 C 0.41851 0.38186 0.65575 0.0
C1243 C 0.464 0.36898 0.67889 0.0
C1244 C 0.49394 0.34724 0.68562 0.0
C1245 C 0.44777 0.35996 0.6628 0.0
C1246 C 0.50639 0.31566 0.67625 0.0
C1247 C 0.49047 0.30657 0.66032 0.0
H1248 H 0.38222 0.22169 0.26122 0.0
H1249 H 0.42379 0.30387 0.29759 0.0
H1250 H 0.38512 0.27556 0.32034 0.0
H1251 H 0.33943 0.22675 0.32986 0.0
H1252 H 0.29382 0.14839 0.29276 0.0
H1253 H 0.33397 0.17548 0.27028 0.0
C1254 C 0.38279 0.23323 0.27416 0.0
C1255 C 0.40605 0.26455 0.27782 0.0
C1256 C 0.35978 0.21737 0.28699 0.0
C1257 C 0.40606 0.27981 0.29452 0.0
C1258 C 0.38407 0.26354 0.3075 0.0
C1259 C 0.33856 0.21565 0.31685 0.0
C1260 C 0.31415 0.18538 0.31293 0.0
C1261 C 0.36089 0.23221 0.30391 0.0
C1262 C 0.31252 0.17161 0.29599 0.0
C1263 C 0.33546 0.18708 0.28319 0.0
H1264 H 0.07519 0.99961 0.57077 0.0
H1265 H 0.15101 0.08316 0.59207 0.0
H1266 H 0.12392 0.1311 0.57321 0.0
H1267 H 0.07929 0.14907 0.55001 0.0
H1268 H 1.00451 0.06428 0.52892 0.0
H1269 H 0.0312 0.01714 0.548 0.0
C1270 C 0.08621 0.02814 0.57121 0.0
C1271 C 0.11533 0.03747 0.58285 0.0
C1272 C 0.07079 0.05548 0.56021 0.0
C1273 C 0.12843 0.07503 0.58341 0.0
C1274 C 0.11307 0.10251 0.57253 0.0
C1275 C 0.06879 0.12032 0.54967 0.0
C1276 C 0.04021 0.11031 0.53783 0.0
C1277 C 0.08427 0.09305 0.56082 0.0
C1278 C 0.02702 0.07279 0.53754 0.0
C1279 C 0.04208 0.04575 0.54858 0.0
H1280 H 0.22844 0.81167 0.76588 0.0
H1281 H 0.20657 0.70388 0.78952 0.0
H1282 H 0.26362 0.71061 0.80702 0.0
H1283 H 0.31968 0.74731 0.81573 0.0
H1284 H 0.34129 0.8551 0.79203 0.0
H1285 H 0.28415 0.84842 0.77466 0.0
C1286 C 0.23578 0.78985 0.77501 0.0
C1287 C 0.213 0.75731 0.77636 0.0
C1288 C 0.26871 0.79389 0.78503 0.0
C1289 C 0.22362 0.72904 0.78807 0.0
C1290 C 0.25624 0.73293 0.79813 0.0
C1291 C 0.31216 0.76917 0.80665 0.0
C1292 C 0.33493 0.8017 0.80524 0.0
C1293 C 0.27912 0.76515 0.79667 0.0
C1294 C 0.32421 0.82998 0.79356 0.0
C1295 C 0.29154 0.82611 0.78355 0.0
H1296 H 0.46029 0.06111 0.0407 0.0
H1297 H 0.56238 0.12489 1.03259 0.0
H1298 H 0.59376 0.068 1.02176 0.0
H1299 H 0.59285 0.99907 1.01604 0.0
H1300 H 0.48992 0.93652 1.02451 0.0
H1301 H 0.45856 0.99377 1.03409 0.0
C1302 C 0.4895 0.06262 0.0367 0.0
C1303 C 0.50906 0.09721 0.03768 0.0
C1304 C 0.50734 0.02984 1.03067 0.0
C1305 C 0.54661 0.09872 1.03194 0.0
C1306 C 0.56461 0.06611 1.02584 0.0
C1307 C 0.56347 0.99804 1.0198 0.0
C1308 C 0.54401 0.96321 1.01971 0.0
C1309 C 0.54536 0.03136 1.02532 0.0
C1310 C 0.50594 0.96256 1.02476 0.0
C1311 C 0.48782 0.99542 1.03015 0.0
H1312 H 0.35222 0.75623 0.30393 0.0
H1313 H 0.25706 0.68009 0.30486 0.0
H1314 H 0.2252 0.71756 0.28298 0.0
H1315 H 0.22383 0.77196 0.26387 0.0
H1316 H 0.31751 0.85001 0.26326 0.0
H1317 H 0.35093 0.81115 0.2843 0.0
C1318 C 0.32468 0.74769 0.29922 0.0
C1319 C 0.30701 0.71542 0.30614 0.0
C1320 C 0.3063 0.76959 0.28662 0.0
C1321 C 0.27109 0.70502 0.3 0.0
C1322 C 0.25291 0.72634 0.28739 0.0
C1323 C 0.25136 0.7809 0.26841 0.0
C1324 C 0.2678 0.81429 0.26202 0.0
C1325 C 0.2701 0.75882 0.28072 0.0
C1326 C 0.3041 0.82447 0.26781 0.0
C1327 C 0.32318 0.80233 0.27995 0.0
H1328 H 0.5654 0.93945 0.5242 0.0
H1329 H 0.44842 0.96201 0.53529 0.0
H1330 H 0.46602 0.02072 0.54971 0.0
H1331 H 0.51437 0.06594 0.55907 0.0
H1332 H 0.63147 0.0442 0.54794 0.0
H1333 H 0.61416 0.98463 0.53402 0.0
C1334 C 0.54379 0.95697 0.52993 0.0
C1335 C 0.50555 0.94624 0.52853 0.0
C1336 C 0.55414 0.9909 0.53825 0.0
C1337 C 0.47796 0.9697 0.53589 0.0
C1338 C 0.48803 1.00327 0.54424 0.0
C1339 C 0.53616 0.04844 0.55348 0.0
C1340 C 0.57422 0.05985 0.55454 0.0
C1341 C 0.52598 0.0143 0.54539 0.0
C1342 C 0.60201 0.03615 0.54749 0.0
C1343 C 0.5921 1.00209 0.53943 0.0
H1344 H 0.20769 0.2445 0.80487 0.0
H1345 H 0.21437 0.35593 0.78295 0.0
H1346 H 0.26957 0.33714 0.76622 0.0
H1347 H 0.3152 0.28856 0.75738 0.0
H1348 H 0.30885 0.1775 0.7799 0.0
H1349 H 0.25396 0.19646 0.79651 0.0
C1350 C 0.22096 0.26461 0.79632 0.0
C1351 C 0.20666 0.30157 0.79514 0.0
C1352 C 0.25276 0.25361 0.78676 0.0
C1353 C 0.22486 0.32742 0.78423 0.0
C1354 C 0.25637 0.31662 0.7746 0.0
C1355 C 0.30215 0.26854 0.76603 0.0
C1356 C 0.31632 0.23145 0.76719 0.0
C1357 C 0.27058 0.27975 0.77574 0.0
C1358 C 0.29845 0.20597 0.77841 0.0
C1359 C 0.26706 0.21687 0.78804 0.0
H1360 H 0.08793 0.04884 1.01101 0.0
H1361 H 0.98654 0.11089 1.02266 0.0
H1362 H 0.96152 0.0566 0.03816 0.0
H1363 H 0.96826 0.99163 0.04835 0.0
H1364 H 0.06975 0.9295 0.03699 0.0
H1365 H 0.09435 0.98335 1.02096 0.0
C1366 C 0.06018 0.05042 1.01675 0.0
C1367 C 0.03922 0.0841 1.01564 0.0
C1368 C 0.04586 0.01898 1.02563 0.0
C1369 C 1.00355 0.08565 1.02347 0.0
C1370 C 0.9891 0.05449 1.03227 0.0
C1371 C 0.99592 0.98986 0.04253 0.0
C1372 C 0.01715 0.95644 0.04402 0.0
C1373 C 1.01007 0.02108 1.03349 0.0
C1374 C 0.05259 0.95461 1.03598 0.0
C1375 C 0.06681 0.98553 1.02689 0.0
H1376 H 0.81712 0.72189 0.78552 0.0
H1377 H 0.80413 0.84023 0.79695 0.0
H1378 H 0.74391 0.82742 0.8111 0.0
H1379 H 0.69448 0.7825 0.8199 0.0
H1380 H 0.70707 0.66433 0.80769 0.0
H1381 H 0.7679 0.67705 0.79437 0.0
C1382 C 0.8014 0.74477 0.79134 0.0
C1383 C 0.8152 0.78195 0.79024 0.0
C1384 C 0.76656 0.73723 0.79926 0.0
C1385 C 0.79403 0.8114 0.79756 0.0
C1386 C 0.75961 0.80408 0.80565 0.0
C1387 C 0.71034 0.75958 0.8142 0.0
C1388 C 0.69609 0.72246 0.8149 0.0
C1389 C 0.74539 0.76713 0.80644 0.0
C1390 C 0.71744 0.69308 0.8076 0.0
C1391 C 0.75225 0.70034 0.7999 0.0
H1392 H 0.66187 0.23317 0.26093 0.0
H1393 H 0.75489 0.15578 0.26578 0.0
H1394 H 0.78524 0.19791 0.28669 0.0
H1395 H 0.78455 0.25637 0.30412 0.0
H1396 H 0.69136 0.33363 0.29859 0.0
H1397 H 0.66168 0.29162 0.27778 0.0
C1398 C 0.68859 0.22528 0.26667 0.0
C1399 C 0.70589 0.19118 0.26183 0.0
C1400 C 0.70584 0.2496 0.27868 0.0
C1401 C 0.74102 0.18193 0.26915 0.0
C1402 C 0.75832 0.20596 0.28118 0.0
C1403 C 0.75793 0.26419 0.29828 0.0
C1404 C 0.7402 0.29814 0.30316 0.0
C1405 C 0.74095 0.23989 0.28608 0.0
C1406 C 0.70545 0.30748 0.29546 0.0
C1407 C 0.68847 0.28353 0.28341 0.0
H1408 H 0.83438 0.29984 0.78959 0.0
H1409 H 0.82798 0.18669 0.76908 0.0
H1410 H 0.76804 0.20155 0.7551 0.0
H1411 H 0.7167 0.24645 0.74912 0.0
H1412 H 0.72366 0.35965 0.76945 0.0
H1413 H 0.78434 0.3452 0.78286 0.0
C1414 C 0.82032 0.27857 0.78183 0.0
C1415 C 0.83584 0.24212 0.78044 0.0
C1416 C 0.78578 0.2873 0.77383 0.0
C1417 C 0.8166 0.21483 0.77053 0.0
C1418 C 0.7823 0.22333 0.7625 0.0
C1419 C 0.73138 0.26785 0.75659 0.0
C1420 C 0.71554 0.30406 0.75832 0.0
C1421 C 0.76639 0.25935 0.76422 0.0
C1422 C 0.73532 0.33168 0.76779 0.0
C1423 C 0.76998 0.32338 0.77551 0.0
H1424 H 0.73563 0.81204 0.32478 0.0
H1425 H 0.64803 0.85142 0.29056 0.0
H1426 H 0.67525 0.81563 0.26698 0.0
H1427 H 0.72182 0.7704 0.25628 0.0
H1428 H 0.81107 0.73249 0.28965 0.0
H1429 H 0.78595 0.77108 0.31323 0.0
C1430 C 0.7228 0.81331 0.31213 0.0
C1431 C 0.68922 0.83387 0.30965 0.0
C1432 C 0.73891 0.79285 0.29844 0.0
C1433 C 0.67315 0.83504 0.29307 0.0
C1434 C 0.68885 0.81474 0.27949 0.0
C1435 C 0.73576 0.77073 0.26872 0.0
C1436 C 0.76792 0.74841 0.27133 0.0
C1437 C 0.72125 0.79298 0.2821 0.0
C1438 C 0.78629 0.74957 0.28737 0.0
C1439 C 0.77181 0.77146 0.30085 0.0
H1440 H 0.47302 0.46627 0.05826 0.0
H1441 H 0.58951 0.50103 0.05469 0.0
H1442 H 0.57007 0.56138 0.04258 0.0
H1443 H 0.52001 0.60374 1.03207 0.0
H1444 H 0.40372 0.56825 1.03533 0.0
H1445 H 0.42317 0.50859 0.04809 0.0
C1446 C 0.49428 0.4868 0.05472 0.0
C1447 C 0.53279 0.47873 0.05742 0.0
C1448 C 0.48293 0.52141 0.04756 0.0
C1449 C 0.5597 0.50633 0.053 0.0
C1450 C 0.54859 0.54089 0.04594 0.0
C1451 C 0.49887 0.58315 1.03572 0.0
C1452 C 0.46039 0.59062 1.03263 0.0
C1453 C 0.51028 0.54871 0.0431 0.0
C1454 C 0.43352 0.56321 0.03728 0.0
C1455 C 0.44462 0.52908 0.04469 0.0
H1456 H 0.06069 0.54301 0.52049 0.0
H1457 H 0.98214 0.45735 0.50359 0.0
H1458 H 0.9369 0.4776 0.52531 0.0
H1459 H 0.91918 0.52019 0.54887 0.0
H1460 H 0.9977 0.60566 0.56607 0.0
H1461 H 0.04318 0.58524 0.54445 0.0
C1462 C 0.03355 0.52905 0.52149 0.0
C1463 C 0.02487 0.49867 0.51046 0.0
C1464 C 1.00764 0.54077 0.5341 0.0
C1465 C 0.98973 0.48049 0.51206 0.0
C1466 C 0.96377 0.49214 0.52444 0.0
C1467 C 0.9464 0.53402 0.54806 0.0
C1468 C 0.95489 0.56448 0.55909 0.0
C1469 C 0.97245 0.52215 0.53558 0.0
C1470 C 0.9902 0.58245 0.55763 0.0
C1471 C 0.0163 0.57072 0.54528 0.0
H1472 H 0.05354 0.47 0.05253 0.0
H1473 H 0.9908 0.57361 0.05779 0.0
H1474 H 0.94844 0.55406 1.03474 0.0
H1475 H 0.92864 0.50743 1.01299 0.0
H1476 H 0.99005 0.40314 1.00814 0.0
H1477 H 0.03285 0.42269 1.03121 0.0
C1478 C 0.03044 0.48816 0.04876 0.0
C1479 C 0.02586 0.52345 0.05685 0.0
C1480 C 1.00571 0.47656 1.03553 0.0
C1481 C 0.99576 0.54668 0.05162 0.0
C1482 C 0.97122 0.53541 0.03847 0.0
C1483 C 0.95153 0.48914 1.01693 0.0
C1484 C 0.95605 0.45388 1.00887 0.0
C1485 C 0.976 0.50051 1.03027 0.0
C1486 C 0.9856 0.43023 1.01428 0.0
C1487 C 1.01023 0.44147 1.02742 0.0
H1488 H 0.47156 0.54147 0.531 0.0
H1489 H 0.56144 0.48186 0.50535 0.0
H1490 H 0.53623 0.42195 0.51557 0.0
H1491 H 0.48925 0.38616 0.53245 0.0
H1492 H 0.40043 0.4466 0.55839 0.0
H1493 H 0.42522 0.50622 0.54779 0.0
C1494 C 0.48599 0.51554 0.52773 0.0
C1495 C 0.51854 0.51663 0.51737 0.0
C1496 C 0.47164 0.48107 0.53386 0.0
C1497 C 0.53616 0.48227 0.51309 0.0
C1498 C 0.52186 0.44782 0.51905 0.0
C1499 C 0.47524 0.41236 0.5357 0.0
C1500 C 0.44315 0.41169 0.54635 0.0
C1501 C 0.48966 0.44685 0.52949 0.0
C1502 C 0.42555 0.44608 0.55053 0.0
C1503 C 0.43956 0.48031 0.54434 0.0
H1504 H 0.14262 1.00989 0.32446 0.0
H1505 H 0.15073 0.10914 0.29263 0.0
H1506 H 0.13881 0.07058 0.26699 0.0
H1507 H 0.13308 1.00803 0.25346 0.0
H1508 H 0.12563 0.90853 0.2851 0.0
H1509 H 0.12963 0.94796 0.31104 0.0
C1510 C 0.14135 0.02322 0.31193 0.0
C1511 C 0.14809 0.06239 0.31047 0.0
C1512 C 0.13472 1.00079 0.29723 0.0
C1513 C 0.14578 0.07916 0.29415 0.0
C1514 C 0.13912 0.05705 0.27947 0.0
C1515 C 0.13174 0.99495 0.26604 0.0
C1516 C 0.12946 0.95528 0.26733 0.0
C1517 C 0.13458 0.01775 0.28083 0.0
C1518 C 0.12729 0.9389 0.28372 0.0
C1519 C 0.1299 0.96146 0.29855 0.0
H1520 H 0.2489 0.81431 0.56635 0.0
H1521 H 0.18493 0.91268 0.55177 0.0
H1522 H 0.22652 0.92255 0.52718 0.0
H1523 H 0.28456 0.90659 0.51129 0.0
H1524 H 0.34832 0.80819 0.52609 0.0
H1525 H 0.30335 0.79514 0.54899 0.0
C1526 C 0.24363 0.83761 0.55767 0.0
C1527 C 0.21387 0.86284 0.56107 0.0
C1528 C 0.26798 0.84345 0.54364 0.0
C1529 C 0.20753 0.89275 0.54955 0.0
C1530 C 0.2315 0.89859 0.53551 0.0
C1531 C 0.28848 0.8821 0.51942 0.0
C1532 C 0.32016 0.85869 0.51701 0.0
C1533 C 0.26241 0.87468 0.53267 0.0
C1534 C 0.32442 0.82688 0.52763 0.0
C1535 C 0.29869 0.81936 0.54078 0.0
H1536 H 0.43493 0.0569 0.77234 0.0
H1537 H 0.3148 0.04318 0.76529 0.0
H1538 H 0.31257 0.99974 0.78955 0.0
H1539 H 0.34474 0.96464 0.81251 0.0
H1540 H 0.4651 0.97667 0.81906 0.0
H1541 H 0.46709 0.02199 0.79544 0.0
C1542 C 0.40825 0.04439 0.77608 0.0
C1543 C 0.3751 0.05333 0.76691 0.0
C1544 C 0.40713 0.01926 0.79007 0.0
C1545 C 0.34081 0.03679 0.77201 0.0
C1546 C 0.33946 1.01199 0.78595 0.0
C1547 C 0.37135 0.97751 0.80892 0.0
C1548 C 0.40469 0.96738 0.81764 0.0
C1549 C 0.37242 1.00299 0.79508 0.0
C1550 C 0.439 0.98397 0.81261 0.0
C1551 C 0.44018 1.00983 0.79906 0.0
H1552 H 0.32606 0.08365 1.03469 0.0
H1553 H 0.31015 0.20029 0.04916 0.0
H1554 H 0.25793 0.20536 1.02879 0.0
H1555 H 0.21691 0.17707 1.00673 0.0
H1556 H 0.23082 0.05992 0.99286 0.0
H1557 H 0.28382 0.05482 1.01299 0.0
C1558 C 0.31109 0.11015 1.03345 0.0
C1559 C 0.32219 0.14154 0.04349 0.0
C1560 C 0.28087 0.1129 1.0217 0.0
C1561 C 0.30229 0.17561 0.04169 0.0
C1562 C 0.27245 0.17861 1.02996 0.0
C1563 C 0.2317 0.15046 1.00799 0.0
C1564 C 0.22007 0.119 0.99815 0.0
C1565 C 0.26163 0.14753 1.01984 0.0
C1566 C 0.23923 0.08462 1.0002 0.0
C1567 C 0.2695 0.08166 1.01175 0.0
H1568 H 0.82288 0.06288 0.79317 0.0
H1569 H 0.94156 0.05284 0.80494 0.0
H1570 H 0.94559 0.99683 0.78673 0.0
H1571 H 0.91574 0.95056 0.76746 0.0
H1572 H 0.79703 0.95984 0.75573 0.0
H1573 H 0.79291 0.01638 0.77373 0.0
C1574 C 0.84958 0.04832 0.79186 0.0
C1575 C 0.88183 0.06214 0.80051 0.0
C1576 C 0.85184 0.01612 0.78121 0.0
C1577 C 0.91624 0.04295 0.79849 0.0
C1578 C 0.91863 1.0109 0.78802 0.0
C1579 C 0.88899 0.96508 0.76869 0.0
C1580 C 0.85678 0.95092 0.76015 0.0
C1581 C 0.88669 0.99732 0.77926 0.0
C1582 C 0.82233 0.97006 0.76209 0.0
C1583 C 0.8199 1.00237 0.77245 0.0
H1584 H 0.72989 0.1697 0.53113 0.0
H1585 H 0.77288 0.12738 0.57936 0.0
H1586 H 0.83399 0.11529 0.56597 0.0
H1587 H 0.87581 0.11844 0.54085 0.0
H1588 H 0.83336 0.16206 0.49276 0.0
H1589 H 0.77139 0.17159 0.50581 0.0
C1590 C 0.75255 0.15774 0.53874 0.0
C1591 C 0.74665 0.1496 0.5563 0.0
C1592 C 0.78775 0.151 0.53096 0.0
C1593 C 0.77649 0.13405 0.56588 0.0
C1594 C 0.8115 0.12709 0.5582 0.0
C1595 C 0.85298 0.12975 0.53313 0.0
C1596 C 0.85942 0.13947 0.51578 0.0
C1597 C 0.81752 0.13565 0.54079 0.0
C1598 C 0.82936 0.15426 0.5061 0.0
C1599 C 0.79389 0.15983 0.51358 0.0
H1600 H 0.53608 0.06732 0.27062 0.0
H1601 H 0.6076 0.9861 0.24519 0.0
H1602 H 0.59288 0.9393 0.26692 0.0
H1603 H 0.56479 0.92292 0.2945 0.0
H1604 H 0.49448 1.00374 0.3208 0.0
H1605 H 0.50298 0.04855 0.2973 0.0
C1606 C 0.54805 0.03925 0.26975 0.0
C1607 C 0.57332 0.03055 0.25639 0.0
C1608 C 0.53973 1.01222 0.28248 0.0
C1609 C 0.58845 0.99391 0.25542 0.0
C1610 C 0.58 0.96695 0.26785 0.0
C1611 C 0.55072 0.95005 0.29499 0.0
C1612 C 0.52933 0.95996 0.30952 0.0
C1613 C 0.5564 0.97603 0.28164 0.0
C1614 C 0.51127 0.99531 0.30983 0.0
C1615 C 0.51629 0.02111 0.29642 0.0
H1616 H 0.73111 0.91616 1.02221 0.0
H1617 H 0.76959 0.80301 1.01148 0.0
H1618 H 0.81893 0.80969 1.03318 0.0
H1619 H 0.85161 0.84739 0.05526 0.0
H1620 H 0.81576 0.96158 0.0652 0.0
H1621 H 0.76498 0.95461 0.04398 0.0
C1622 C 0.75038 0.89302 1.02456 0.0
C1623 C 0.74645 0.85911 1.01514 0.0
C1624 C 0.7791 0.89709 0.03707 0.0
C1625 C 0.77184 0.8295 1.01841 0.0
C1626 C 0.80008 0.8332 1.03091 0.0
C1627 C 0.83245 0.87064 0.05292 0.0
C1628 C 0.8373 0.90484 0.06196 0.0
C1629 C 0.80391 0.86677 0.04037 0.0
C1630 C 0.81261 0.93489 0.05849 0.0
C1631 C 0.7836 0.93095 0.04631 0.0
H1632 H 0.61001 0.43547 0.7884 0.0
H1633 H 0.60845 0.50358 0.74248 0.0
H1634 H 0.60485 0.56082 0.76009 0.0
H1635 H 0.60016 0.59139 0.78845 0.0
H1636 H 0.60338 0.52359 0.83444 0.0
H1637 H 0.60844 0.46633 0.81686 0.0
C1638 C 0.60898 0.46283 0.78222 0.0
C1639 C 0.60925 0.46512 0.76409 0.0
C1640 C 0.60712 0.49567 0.79244 0.0
C1641 C 0.60829 0.5009 0.75635 0.0
C1642 C 0.60613 0.53366 0.76644 0.0
C1643 C 0.602 0.5641 0.79467 0.0
C1644 C 0.60107 0.56183 0.81279 0.0
C1645 C 0.60519 0.53136 0.78448 0.0
C1646 C 0.60398 0.52622 0.82057 0.0
C1647 C 0.60679 0.49345 0.8105 0.0
H1648 H 0.8204 0.32005 1.01861 0.0
H1649 H 0.74565 0.38907 0.98814 0.0
H1650 H 0.69895 0.38812 1.01087 0.0
H1651 H 0.67987 0.37085 0.03993 0.0
H1652 H 0.75278 0.30139 0.07097 0.0
H1653 H 0.79915 0.2994 0.04768 0.0
C1654 C 0.79369 0.3344 1.01689 0.0
C1655 C 0.78687 0.35482 1.00165 0.0
C1656 C 0.76655 0.33406 1.03024 0.0
C1657 C 0.75203 0.37339 0.99972 0.0
C1658 C 0.72514 0.37295 1.01276 0.0
C1659 C 0.70586 0.3552 0.04165 0.0
C1660 C 0.71282 0.33659 0.05729 0.0
C1661 C 0.73229 0.35398 1.02818 0.0
C1662 C 0.74658 0.3161 0.05911 0.0
C1663 C 0.7732 0.31495 0.04577 0.0
H1664 H 0.88174 0.51696 0.31989 0.0
H1665 H 0.86419 0.41753 0.28864 0.0
H1666 H 0.86646 0.45601 0.2626 0.0
H1667 H 0.86783 0.51872 0.24883 0.0
H1668 H 0.88766 0.61783 0.28002 0.0
H1669 H 0.89048 0.57872 0.30584 0.0
C1670 C 0.87889 0.50362 0.30737 0.0
C1671 C 0.87245 0.46437 0.30628 0.0
C1672 C 0.88042 0.52595 0.2924 0.0
C1673 C 0.86923 0.44758 0.28991 0.0
C1674 C 0.87031 0.46965 0.27499 0.0
C1675 C 0.87326 0.53173 0.26125 0.0
C1676 C 0.87718 0.5713 0.26245 0.0
C1677 C 0.87504 0.50897 0.27609 0.0
C1678 C 0.88458 0.58754 0.27866 0.0
C1679 C 0.88599 0.56517 0.29347 0.0
H1680 H 0.6704 0.66684 0.52352 0.0
H1681 H 0.75404 0.63956 0.48529 0.0
H1682 H 0.80438 0.652 0.50612 0.0
H1683 H 0.8245 0.66363 0.53633 0.0
H1684 H 0.74017 0.68825 0.57448 0.0
H1685 H 0.69062 0.68481 0.55262 0.0
C1686 C 0.69963 0.66401 0.51966 0.0
C1687 C 0.70824 0.65178 0.50288 0.0
C1688 C 0.72852 0.67097 0.53176 0.0
C1689 C 0.74641 0.64866 0.49813 0.0
C1690 C 0.77533 0.65577 0.51006 0.0
C1691 C 0.79542 0.66955 0.53965 0.0
C1692 C 0.78597 0.67672 0.55692 0.0
C1693 C 0.76675 0.66612 0.52705 0.0
C1694 C 0.74807 0.68318 0.56121 0.0
C1695 C 0.71969 0.68082 0.54875 0.0
H1696 H 0.45234 0.58882 0.29222 0.0
H1697 H 0.39692 0.50901 0.32556 0.0
H1698 H 0.40418 0.45948 0.3041 0.0
H1699 H 0.42526 0.43827 0.27566 0.0
H1700 H 0.47992 0.5174 0.24177 0.0
H1701 H 0.4737 0.56719 0.26339 0.0
C1702 C 0.44221 0.56051 0.29482 0.0
C1703 C 0.42414 0.55284 0.31056 0.0
C1704 C 0.44597 0.53184 0.28219 0.0
C1705 C 0.41083 0.51596 0.31358 0.0
C1706 C 0.41491 0.48746 0.30128 0.0
C1707 C 0.43566 0.46643 0.27293 0.0
C1708 C 0.45293 0.47386 0.257 0.0
C1709 C 0.43213 0.49506 0.28547 0.0
C1710 C 0.46637 0.51066 0.25384 0.0
C1711 C 0.46295 0.53926 0.26626 0.0
H1712 H 0.27115 0.69659 1.02377 0.0
H1713 H 0.27674 0.57872 1.00954 0.0
H1714 H 0.22593 0.56426 1.02937 0.0
H1715 H 0.18326 0.58359 0.0522 0.0
H1716 H 0.1751 0.7007 0.06679 0.0
H1717 H 0.22311 0.71708 0.04521 0.0
C1718 C 0.26098 0.66782 1.02489 0.0
C1719 C 0.27823 0.63874 1.01524 0.0
C1720 C 0.23136 0.65953 0.03642 0.0
C1721 C 0.26436 0.60169 1.01679 0.0
C1722 C 0.23525 0.59331 1.02818 0.0
C1723 C 0.19173 0.61282 0.05059 0.0
C1724 C 0.17602 0.64086 0.0612 0.0
C1725 C 0.21911 0.6218 0.03827 0.0
C1726 C 0.18677 0.67863 0.05875 0.0
C1727 C 0.21439 0.68789 0.0465 0.0
H1728 H 0.09062 0.48726 0.79919 0.0
H1729 H 0.21087 0.4865 0.80837 0.0
H1730 H 0.21935 0.53724 0.78779 0.0
H1731 H 0.19337 0.58218 0.76716 0.0
H1732 H 0.07332 0.5856 0.75814 0.0
H1733 H 0.0642 0.53371 0.7785 0.0
C1734 C 0.11865 0.49826 0.79671 0.0
C1735 C 0.15 0.48283 0.80543 0.0
C1736 C 0.12349 0.52796 0.78478 0.0
C1737 C 0.1861 0.49764 0.80199 0.0
C1738 C 0.19108 0.52673 0.79014 0.0
C1739 C 0.16516 0.57151 0.76953 0.0
C1740 C 0.13413 0.58777 0.76099 0.0
C1741 C 0.16008 0.54208 0.78143 0.0
C1742 C 0.09778 0.57367 0.76446 0.0
C1743 C 0.09254 0.54397 0.77614 0.0
H1744 H 0.1823 0.43669 0.5202 0.0
H1745 H 0.16274 0.319 0.509 0.0
H1746 H 0.2057 0.30142 0.53258 0.0
H1747 H 0.25335 0.32029 0.55463 0.0
H1748 H 0.27179 0.43885 0.56495 0.0
H1749 H 0.22451 0.45523 0.5435 0.0
C1750 C 0.18717 0.4071 0.52296 0.0
C1751 C 0.16978 0.37916 0.51271 0.0
C1752 C 0.21188 0.39742 0.53634 0.0
C1753 C 0.17583 0.34102 0.51668 0.0
C1754 C 0.20055 0.33104 0.5301 0.0
C1755 C 0.24663 0.34969 0.55236 0.0
C1756 C 0.26654 0.37831 0.56134 0.0
C1757 C 0.21942 0.35907 0.53978 0.0
C1758 C 0.25729 0.41622 0.55821 0.0
C1759 C 0.23024 0.42567 0.5459 0.0
loop_
_geom_bond_atom_site_label_1
_geom_bond_atom_site_label_2
_geom_bond_distance
_geom_bond_site_symmetry_2
_ccdc_geom_bond_type
Cu0 N1 1.999 . S
Cu0 O6 1.974 . S
Cu0 N11 1.985 . S
Cu0 O20 1.959 . S
N1 Cu0 1.999 . S
N1 C3 1.263 . S
N1 C5 1.389 . S
N2 C3 1.358 . S
N2 C4 1.400 . S
C3 N1 1.263 . S
C3 N2 1.358 . S
C3 H9 0.930 . S
C4 N2 1.400 . S
C4 C5 1.351 . S
C4 H21 0.930 . S
C5 N1 1.389 . S
C5 C4 1.351 . S
C5 H10 0.930 . S
O6 Cu0 1.974 . S
O6 C16 1.282 . S
C7 O8 1.261 . S
C7 O20 1.251 . S
O8 C7 1.261 . S
H9 C3 0.930 . S
H10 C5 0.930 . S
N11 Cu0 1.985 . S
N11 C13 1.335 . S
N11 C14 1.390 . S
N12 C13 1.345 . S
N12 C15 1.336 . S
C13 N11 1.335 . S
C13 N12 1.345 . S
C13 H18 0.930 . S
C14 N11 1.390 . S
C14 C15 1.346 . S
C14 H19 0.930 . S
C15 N12 1.336 . S
C15 C14 1.346 . S
C15 H22 0.929 . S
C16 O6 1.282 . S
C16 O17 1.216 . S
O17 C16 1.216 . S
H18 C13 0.930 . S
H19 C14 0.930 . S
O20 Cu0 1.959 . S
O20 C7 1.251 . S
H21 C4 0.930 . S
H22 C15 0.929 . S
Cu23 N24 1.999 . S
Cu23 O29 1.974 . S
Cu23 N34 1.985 . S
Cu23 O43 1.959 . S
N24 Cu23 1.999 . S
N24 C26 1.263 . S
N24 C28 1.389 . S
N25 C26 1.358 . S
N25 C27 1.400 . S
C26 N24 1.263 . S
C26 N25 1.358 . S
C26 H32 0.930 . S
C27 N25 1.400 . S
C27 C28 1.351 . S
C27 H44 0.930 . S
C28 N24 1.389 . S
C28 C27 1.351 . S
C28 H33 0.930 . S
O29 Cu23 1.974 . S
O29 C39 1.282 . S
C30 O31 1.261 . S
C30 O43 1.251 . S
O31 C30 1.261 . S
H32 C26 0.930 . S
H33 C28 0.930 . S
N34 Cu23 1.985 . S
N34 C36 1.335 . S
N34 C37 1.390 . S
N35 C36 1.345 . S
N35 C38 1.336 . S
C36 N34 1.335 . S
C36 N35 1.345 . S
C36 H41 0.930 . S
C37 N34 1.390 . S
C37 C38 1.346 . S
C37 H42 0.930 . S
C38 N35 1.336 . S
C38 C37 1.346 . S
C38 H45 0.929 . S
C39 O29 1.282 . S
C39 O40 1.216 . S
O40 C39 1.216 . S
H41 C36 0.930 . S
H42 C37 0.930 . S
O43 Cu23 1.959 . S
O43 C30 1.251 . S
H44 C27 0.930 . S
H45 C38 0.929 . S
Cu46 N47 1.999 . S
Cu46 O52 1.974 . S
Cu46 N57 1.985 . S
Cu46 O66 1.959 . S
N47 Cu46 1.999 . S
N47 C49 1.263 . S
N47 C51 1.389 . S
N48 C49 1.358 . S
N48 C50 1.400 . S
C49 N47 1.263 . S
C49 N48 1.358 . S
C49 H55 0.930 . S
C50 N48 1.400 . S
C50 C51 1.351 . S
C50 H67 0.930 . S
C51 N47 1.389 . S
C51 C50 1.351 . S
C51 H56 0.930 . S
O52 Cu46 1.974 . S
O52 C62 1.282 . S
C53 O54 1.261 . S
C53 O66 1.251 . S
O54 C53 1.261 . S
H55 C49 0.930 . S
H56 C51 0.930 . S
N57 Cu46 1.985 . S
N57 C59 1.335 . S
N57 C60 1.390 . S
N58 C59 1.345 . S
N58 C61 1.336 . S
C59 N57 1.335 . S
C59 N58 1.345 . S
C59 H64 0.930 . S
C60 N57 1.390 . S
C60 C61 1.346 . S
C60 H65 0.930 . S
C61 N58 1.336 . S
C61 C60 1.346 . S
C61 H68 0.929 . S
C62 O52 1.282 . S
C62 O63 1.216 . S
O63 C62 1.216 . S
H64 C59 0.930 . S
H65 C60 0.930 . S
O66 Cu46 1.959 . S
O66 C53 1.251 . S
H67 C50 0.930 . S
H68 C61 0.929 . S
Cu69 N70 1.999 . S
Cu69 O75 1.974 . S
Cu69 N80 1.985 . S
Cu69 O89 1.959 . S
N70 Cu69 1.999 . S
N70 C72 1.263 . S
N70 C74 1.389 . S
N71 C72 1.358 . S
N71 C73 1.400 . S
C72 N70 1.263 . S
C72 N71 1.358 . S
C72 H78 0.930 . S
C73 N71 1.400 . S
C73 C74 1.351 . S
C73 H90 0.930 . S
C74 N70 1.389 . S
C74 C73 1.351 . S
C74 H79 0.930 . S
O75 Cu69 1.974 . S
O75 C85 1.282 . S
C76 O77 1.261 . S
C76 O89 1.251 . S
O77 C76 1.261 . S
H78 C72 0.930 . S
H79 C74 0.930 . S
N80 Cu69 1.985 . S
N80 C82 1.335 . S
N80 C83 1.390 . S
N81 C82 1.345 . S
N81 C84 1.336 . S
C82 N80 1.335 . S
C82 N81 1.345 . S
C82 H87 0.930 . S
C83 N80 1.390 . S
C83 C84 1.346 . S
C83 H88 0.930 . S
C84 N81 1.336 . S
C84 C83 1.346 . S
C84 H91 0.929 . S
C85 O75 1.282 . S
C85 O86 1.216 . S
O86 C85 1.216 . S
H87 C82 0.930 . S
H88 C83 0.930 . S
O89 Cu69 1.959 . S
O89 C76 1.251 . S
H90 C73 0.930 . S
H91 C84 0.929 . S
Cu92 N93 1.999 . S
Cu92 O98 1.974 . S
Cu92 N103 1.985 . S
Cu92 O112 1.959 . S
N93 Cu92 1.999 . S
N93 C95 1.263 . S
N93 C97 1.389 . S
N94 C95 1.358 . S
N94 C96 1.400 . S
C95 N93 1.263 . S
C95 N94 1.358 . S
C95 H101 0.930 . S
C96 N94 1.400 . S
C96 C97 1.351 . S
C96 H113 0.930 . S
C97 N93 1.389 . S
C97 C96 1.351 . S
C97 H102 0.930 . S
O98 Cu92 1.974 . S
O98 C108 1.282 . S
C99 O100 1.261 . S
C99 O112 1.251 . S
O100 C99 1.261 . S
H101 C95 0.930 . S
H102 C97 0.930 . S
N103 Cu92 1.985 . S
N103 C105 1.335 . S
N103 C106 1.390 . S
N104 C105 1.345 . S
N104 C107 1.336 . S
C105 N103 1.335 . S
C105 N104 1.345 . S
C105 H110 0.930 . S
C106 N103 1.390 . S
C106 C107 1.346 . S
C106 H111 0.930 . S
C107 N104 1.336 . S
C107 C106 1.346 . S
C107 H114 0.929 . S
C108 O98 1.282 . S
C108 O109 1.216 . S
O109 C108 1.216 . S
H110 C105 0.930 . S
H111 C106 0.930 . S
O112 Cu92 1.959 . S
O112 C99 1.251 . S
H113 C96 0.930 . S
H114 C107 0.929 . S
Cu115 N116 1.999 . S
Cu115 O121 1.974 . S
Cu115 N126 1.985 . S
Cu115 O135 1.959 . S
N116 Cu115 1.999 . S
N116 C118 1.263 . S
N116 C120 1.389 . S
N117 C118 1.358 . S
N117 C119 1.400 . S
C118 N116 1.263 . S
C118 N117 1.358 . S
C118 H124 0.930 . S
C119 N117 1.400 . S
C119 C120 1.351 . S
C119 H136 0.930 . S
C120 N116 1.389 . S
C120 C119 1.351 . S
C120 H125 0.930 . S
O121 Cu115 1.974 . S
O121 C131 1.282 . S
C122 O123 1.261 . S
C122 O135 1.251 . S
O123 C122 1.261 . S
H124 C118 0.930 . S
H125 C120 0.930 . S
N126 Cu115 1.985 . S
N126 C128 1.335 . S
N126 C129 1.390 . S
N127 C128 1.345 . S
N127 C130 1.336 . S
C128 N126 1.335 . S
C128 N127 1.345 . S
C128 H133 0.930 . S
C129 N126 1.390 . S
C129 C130 1.346 . S
C129 H134 0.930 . S
C130 N127 1.336 . S
C130 C129 1.346 . S
C130 H137 0.929 . S
C131 O121 1.282 . S
C131 O132 1.216 . S
O132 C131 1.216 . S
H133 C128 0.930 . S
H134 C129 0.930 . S
O135 Cu115 1.959 . S
O135 C122 1.251 . S
H136 C119 0.930 . S
H137 C130 0.929 . S
Cu138 N139 1.999 . S
Cu138 O144 1.974 . S
Cu138 N149 1.985 . S
Cu138 O158 1.959 . S
N139 Cu138 1.999 . S
N139 C141 1.263 . S
N139 C143 1.389 . S
N140 C141 1.358 . S
N140 C142 1.400 . S
C141 N139 1.263 . S
C141 N140 1.358 . S
C141 H147 0.930 . S
C142 N140 1.400 . S
C142 C143 1.351 . S
C142 H159 0.930 . S
C143 N139 1.389 . S
C143 C142 1.351 . S
C143 H148 0.930 . S
O144 Cu138 1.974 . S
O144 C154 1.282 . S
C145 O146 1.261 . S
C145 O158 1.251 . S
O146 C145 1.261 . S
H147 C141 0.930 . S
H148 C143 0.930 . S
N149 Cu138 1.985 . S
N149 C151 1.335 . S
N149 C152 1.390 . S
N150 C151 1.345 . S
N150 C153 1.336 . S
C151 N149 1.335 . S
C151 N150 1.345 . S
C151 H156 0.930 . S
C152 N149 1.390 . S
C152 C153 1.346 . S
C152 H157 0.930 . S
C153 N150 1.336 . S
C153 C152 1.346 . S
C153 H160 0.929 . S
C154 O144 1.282 . S
C154 O155 1.216 . S
O155 C154 1.216 . S
H156 C151 0.930 . S
H157 C152 0.930 . S
O158 Cu138 1.959 . S
O158 C145 1.251 . S
H159 C142 0.930 . S
H160 C153 0.929 . S
Cu161 N162 1.999 . S
Cu161 O167 1.974 . S
Cu161 N172 1.985 . S
Cu161 O181 1.959 . S
N162 Cu161 1.999 . S
N162 C164 1.263 . S
N162 C166 1.389 . S
N163 C164 1.358 . S
N163 C165 1.400 . S
C164 N162 1.263 . S
C164 N163 1.358 . S
C164 H170 0.930 . S
C165 N163 1.400 . S
C165 C166 1.351 . S
C165 H182 0.930 . S
C166 N162 1.389 . S
C166 C165 1.351 . S
C166 H171 0.930 . S
O167 Cu161 1.974 . S
O167 C177 1.282 . S
C168 O169 1.261 . S
C168 O181 1.251 . S
O169 C168 1.261 . S
H170 C164 0.930 . S
H171 C166 0.930 . S
N172 Cu161 1.985 . S
N172 C174 1.335 . S
N172 C175 1.390 . S
N173 C174 1.345 . S
N173 C176 1.336 . S
C174 N172 1.335 . S
C174 N173 1.345 . S
C174 H179 0.930 . S
C175 N172 1.390 . S
C175 C176 1.346 . S
C175 H180 0.930 . S
C176 N173 1.336 . S
C176 C175 1.346 . S
C176 H183 0.929 . S
C177 O167 1.282 . S
C177 O178 1.216 . S
O178 C177 1.216 . S
H179 C174 0.930 . S
H180 C175 0.930 . S
O181 Cu161 1.959 . S
O181 C168 1.251 . S
H182 C165 0.930 . S
H183 C176 0.929 . S
Cu184 N185 1.999 . S
Cu184 O190 1.974 . S
Cu184 N195 1.985 . S
Cu184 O204 1.959 . S
N185 Cu184 1.999 . S
N185 C187 1.263 . S
N185 C189 1.389 . S
N186 C187 1.358 . S
N186 C188 1.400 . S
C187 N185 1.263 . S
C187 N186 1.358 . S
C187 H193 0.930 . S
C188 N186 1.400 . S
C188 C189 1.351 . S
C188 H205 0.930 . S
C189 N185 1.389 . S
C189 C188 1.351 . S
C189 H194 0.930 . S
O190 Cu184 1.974 . S
O190 C200 1.282 . S
C191 O192 1.261 . S
C191 O204 1.251 . S
O192 C191 1.261 . S
H193 C187 0.930 . S
H194 C189 0.930 . S
N195 Cu184 1.985 . S
N195 C197 1.335 . S
N195 C198 1.390 . S
N196 C197 1.345 . S
N196 C199 1.336 . S
C197 N195 1.335 . S
C197 N196 1.345 . S
C197 H202 0.930 . S
C198 N195 1.390 . S
C198 C199 1.346 . S
C198 H203 0.930 . S
C199 N196 1.336 . S
C199 C198 1.346 . S
C199 H206 0.929 . S
C200 O190 1.282 . S
C200 O201 1.216 . S
O201 C200 1.216 . S
H202 C197 0.930 . S
H203 C198 0.930 . S
O204 Cu184 1.959 . S
O204 C191 1.251 . S
H205 C188 0.930 . S
H206 C199 0.929 . S
Cu207 N208 1.999 . S
Cu207 O213 1.974 . S
Cu207 N218 1.985 . S
Cu207 O227 1.959 . S
N208 Cu207 1.999 . S
N208 C210 1.263 . S
N208 C212 1.389 . S
N209 C210 1.358 . S
N209 C211 1.400 . S
C210 N208 1.263 . S
C210 N209 1.358 . S
C210 H216 0.930 . S
C211 N209 1.400 . S
C211 C212 1.351 . S
C211 H228 0.930 . S
C212 N208 1.389 . S
C212 C211 1.351 . S
C212 H217 0.930 . S
O213 Cu207 1.974 . S
O213 C223 1.282 . S
C214 O215 1.261 . S
C214 O227 1.251 . S
O215 C214 1.261 . S
H216 C210 0.930 . S
H217 C212 0.930 . S
N218 Cu207 1.985 . S
N218 C220 1.335 . S
N218 C221 1.390 . S
N219 C220 1.345 . S
N219 C222 1.336 . S
C220 N218 1.335 . S
C220 N219 1.345 . S
C220 H225 0.930 . S
C221 N218 1.390 . S
C221 C222 1.346 . S
C221 H226 0.930 . S
C222 N219 1.336 . S
C222 C221 1.346 . S
C222 H229 0.929 . S
C223 O213 1.282 . S
C223 O224 1.216 . S
O224 C223 1.216 . S
H225 C220 0.930 . S
H226 C221 0.930 . S
O227 Cu207 1.959 . S
O227 C214 1.251 . S
H228 C211 0.930 . S
H229 C222 0.929 . S
Cu230 N231 1.999 . S
Cu230 O236 1.974 . S
Cu230 N241 1.985 . S
Cu230 O250 1.959 . S
N231 Cu230 1.999 . S
N231 C233 1.263 . S
N231 C235 1.389 . S
N232 C233 1.358 . S
N232 C234 1.400 . S
C233 N231 1.263 . S
C233 N232 1.358 . S
C233 H239 0.930 . S
C234 N232 1.400 . S
C234 C235 1.351 . S
C234 H251 0.930 . S
C235 N231 1.389 . S
C235 C234 1.351 . S
C235 H240 0.930 . S
O236 Cu230 1.974 . S
O236 C246 1.282 . S
C237 O238 1.261 . S
C237 O250 1.251 . S
O238 C237 1.261 . S
H239 C233 0.930 . S
H240 C235 0.930 . S
N241 Cu230 1.985 . S
N241 C243 1.335 . S
N241 C244 1.390 . S
N242 C243 1.345 . S
N242 C245 1.336 . S
C243 N241 1.335 . S
C243 N242 1.345 . S
C243 H248 0.930 . S
C244 N241 1.390 . S
C244 C245 1.346 . S
C244 H249 0.930 . S
C245 N242 1.336 . S
C245 C244 1.346 . S
C245 H252 0.929 . S
C246 O236 1.282 . S
C246 O247 1.216 . S
O247 C246 1.216 . S
H248 C243 0.930 . S
H249 C244 0.930 . S
O250 Cu230 1.959 . S
O250 C237 1.251 . S
H251 C234 0.930 . S
H252 C245 0.929 . S
Cu253 N254 1.999 . S
Cu253 O259 1.974 . S
Cu253 N264 1.985 . S
Cu253 O273 1.959 . S
N254 Cu253 1.999 . S
N254 C256 1.263 . S
N254 C258 1.389 . S
N255 C256 1.358 . S
N255 C257 1.400 . S
C256 N254 1.263 . S
C256 N255 1.358 . S
C256 H262 0.930 . S
C257 N255 1.400 . S
C257 C258 1.351 . S
C257 H274 0.930 . S
C258 N254 1.389 . S
C258 C257 1.351 . S
C258 H263 0.930 . S
O259 Cu253 1.974 . S
O259 C269 1.282 . S
C260 O261 1.261 . S
C260 O273 1.251 . S
O261 C260 1.261 . S
H262 C256 0.930 . S
H263 C258 0.930 . S
N264 Cu253 1.985 . S
N264 C266 1.335 . S
N264 C267 1.390 . S
N265 C266 1.345 . S
N265 C268 1.336 . S
C266 N264 1.335 . S
C266 N265 1.345 . S
C266 H271 0.930 . S
C267 N264 1.390 . S
C267 C268 1.346 . S
C267 H272 0.930 . S
C268 N265 1.336 . S
C268 C267 1.346 . S
C268 H275 0.929 . S
C269 O259 1.282 . S
C269 O270 1.216 . S
O270 C269 1.216 . S
H271 C266 0.930 . S
H272 C267 0.930 . S
O273 Cu253 1.959 . S
O273 C260 1.251 . S
H274 C257 0.930 . S
H275 C268 0.929 . S
Cu276 N277 1.999 . S
Cu276 O282 1.974 . S
Cu276 N287 1.985 . S
Cu276 O296 1.959 . S
N277 Cu276 1.999 . S
N277 C279 1.263 . S
N277 C281 1.389 . S
N278 C279 1.358 . S
N278 C280 1.400 . S
C279 N277 1.263 . S
C279 N278 1.358 . S
C279 H285 0.930 . S
C280 N278 1.400 . S
C280 C281 1.351 . S
C280 H297 0.930 . S
C281 N277 1.389 . S
C281 C280 1.351 . S
C281 H286 0.930 . S
O282 Cu276 1.974 . S
O282 C292 1.282 . S
C283 O284 1.261 . S
C283 O296 1.251 . S
O284 C283 1.261 . S
H285 C279 0.930 . S
H286 C281 0.930 . S
N287 Cu276 1.985 . S
N287 C289 1.335 . S
N287 C290 1.390 . S
N288 C289 1.345 . S
N288 C291 1.336 . S
C289 N287 1.335 . S
C289 N288 1.345 . S
C289 H294 0.930 . S
C290 N287 1.390 . S
C290 C291 1.346 . S
C290 H295 0.930 . S
C291 N288 1.336 . S
C291 C290 1.346 . S
C291 H298 0.929 . S
C292 O282 1.282 . S
C292 O293 1.216 . S
O293 C292 1.216 . S
H294 C289 0.930 . S
H295 C290 0.930 . S
O296 Cu276 1.959 . S
O296 C283 1.251 . S
H297 C280 0.930 . S
H298 C291 0.929 . S
Cu299 N300 1.999 . S
Cu299 O305 1.974 . S
Cu299 N310 1.985 . S
Cu299 O319 1.959 . S
N300 Cu299 1.999 . S
N300 C302 1.263 . S
N300 C304 1.389 . S
N301 C302 1.358 . S
N301 C303 1.400 . S
C302 N300 1.263 . S
C302 N301 1.358 . S
C302 H308 0.930 . S
C303 N301 1.400 . S
C303 C304 1.351 . S
C303 H320 0.930 . S
C304 N300 1.389 . S
C304 C303 1.351 . S
C304 H309 0.930 . S
O305 Cu299 1.974 . S
O305 C315 1.282 . S
C306 O307 1.261 . S
C306 O319 1.251 . S
O307 C306 1.261 . S
H308 C302 0.930 . S
H309 C304 0.930 . S
N310 Cu299 1.985 . S
N310 C312 1.335 . S
N310 C313 1.390 . S
N311 C312 1.345 . S
N311 C314 1.336 . S
C312 N310 1.335 . S
C312 N311 1.345 . S
C312 H317 0.930 . S
C313 N310 1.390 . S
C313 C314 1.346 . S
C313 H318 0.930 . S
C314 N311 1.336 . S
C314 C313 1.346 . S
C314 H321 0.929 . S
C315 O305 1.282 . S
C315 O316 1.216 . S
O316 C315 1.216 . S
H317 C312 0.930 . S
H318 C313 0.930 . S
O319 Cu299 1.959 . S
O319 C306 1.251 . S
H320 C303 0.930 . S
H321 C314 0.929 . S
Cu322 N323 1.999 . S
Cu322 O328 1.974 . S
Cu322 N333 1.985 . S
Cu322 O342 1.959 . S
N323 Cu322 1.999 . S
N323 C325 1.263 . S
N323 C327 1.389 . S
N324 C325 1.358 . S
N324 C326 1.400 . S
C325 N323 1.263 . S
C325 N324 1.358 . S
C325 H331 0.930 . S
C326 N324 1.400 . S
C326 C327 1.351 . S
C326 H343 0.930 . S
C327 N323 1.389 . S
C327 C326 1.351 . S
C327 H332 0.930 . S
O328 Cu322 1.974 . S
O328 C338 1.282 . S
C329 O330 1.261 . S
C329 O342 1.251 . S
O330 C329 1.261 . S
H331 C325 0.930 . S
H332 C327 0.930 . S
N333 Cu322 1.985 . S
N333 C335 1.335 . S
N333 C336 1.390 . S
N334 C335 1.345 . S
N334 C337 1.336 . S
C335 N333 1.335 . S
C335 N334 1.345 . S
C335 H340 0.930 . S
C336 N333 1.390 . S
C336 C337 1.346 . S
C336 H341 0.930 . S
C337 N334 1.336 . S
C337 C336 1.346 . S
C337 H344 0.929 . S
C338 O328 1.282 . S
C338 O339 1.216 . S
O339 C338 1.216 . S
H340 C335 0.930 . S
H341 C336 0.930 . S
O342 Cu322 1.959 . S
O342 C329 1.251 . S
H343 C326 0.930 . S
H344 C337 0.929 . S
Cu345 N346 1.999 . S
Cu345 O351 1.974 . S
Cu345 N356 1.985 . S
Cu345 O365 1.959 . S
N346 Cu345 1.999 . S
N346 C348 1.263 . S
N346 C350 1.389 . S
N347 C348 1.358 . S
N347 C349 1.400 . S
C348 N346 1.263 . S
C348 N347 1.358 . S
C348 H354 0.930 . S
C349 N347 1.400 . S
C349 C350 1.351 . S
C349 H366 0.930 . S
C350 N346 1.389 . S
C350 C349 1.351 . S
C350 H355 0.930 . S
O351 Cu345 1.974 . S
O351 C361 1.282 . S
C352 O353 1.261 . S
C352 O365 1.251 . S
O353 C352 1.261 . S
H354 C348 0.930 . S
H355 C350 0.930 . S
N356 Cu345 1.985 . S
N356 C358 1.335 . S
N356 C359 1.390 . S
N357 C358 1.345 . S
N357 C360 1.336 . S
C358 N356 1.335 . S
C358 N357 1.345 . S
C358 H363 0.930 . S
C359 N356 1.390 . S
C359 C360 1.346 . S
C359 H364 0.930 . S
C360 N357 1.336 . S
C360 C359 1.346 . S
C360 H367 0.929 . S
C361 O351 1.282 . S
C361 O362 1.216 . S
O362 C361 1.216 . S
H363 C358 0.930 . S
H364 C359 0.930 . S
O365 Cu345 1.959 . S
O365 C352 1.251 . S
H366 C349 0.930 . S
H367 C360 0.929 . S
Cu368 N369 1.999 . S
Cu368 O374 1.974 . S
Cu368 N379 1.985 . S
Cu368 O388 1.959 . S
N369 Cu368 1.999 . S
N369 C371 1.263 . S
N369 C373 1.389 . S
N370 C371 1.358 . S
N370 C372 1.400 . S
C371 N369 1.263 . S
C371 N370 1.358 . S
C371 H377 0.930 . S
C372 N370 1.400 . S
C372 C373 1.351 . S
C372 H389 0.930 . S
C373 N369 1.389 . S
C373 C372 1.351 . S
C373 H378 0.930 . S
O374 Cu368 1.974 . S
O374 C384 1.282 . S
C375 O376 1.261 . S
C375 O388 1.251 . S
O376 C375 1.261 . S
H377 C371 0.930 . S
H378 C373 0.930 . S
N379 Cu368 1.985 . S
N379 C381 1.335 . S
N379 C382 1.390 . S
N380 C381 1.345 . S
N380 C383 1.336 . S
C381 N379 1.335 . S
C381 N380 1.345 . S
C381 H386 0.930 . S
C382 N379 1.390 . S
C382 C383 1.346 . S
C382 H387 0.930 . S
C383 N380 1.336 . S
C383 C382 1.346 . S
C383 H390 0.929 . S
C384 O374 1.282 . S
C384 O385 1.216 . S
O385 C384 1.216 . S
H386 C381 0.930 . S
H387 C382 0.930 . S
O388 Cu368 1.959 . S
O388 C375 1.251 . S
H389 C372 0.930 . S
H390 C383 0.929 . S
Cu391 N392 1.999 . S
Cu391 O397 1.974 . S
Cu391 N402 1.985 . S
Cu391 O411 1.959 . S
N392 Cu391 1.999 . S
N392 C394 1.263 . S
N392 C396 1.389 . S
N393 C394 1.358 . S
N393 C395 1.400 . S
C394 N392 1.263 . S
C394 N393 1.358 . S
C394 H400 0.930 . S
C395 N393 1.400 . S
C395 C396 1.351 . S
C395 H412 0.930 . S
C396 N392 1.389 . S
C396 C395 1.351 . S
C396 H401 0.930 . S
O397 Cu391 1.974 . S
O397 C407 1.282 . S
C398 O399 1.261 . S
C398 O411 1.251 . S
O399 C398 1.261 . S
H400 C394 0.930 . S
H401 C396 0.930 . S
N402 Cu391 1.985 . S
N402 C404 1.335 . S
N402 C405 1.390 . S
N403 C404 1.345 . S
N403 C406 1.336 . S
C404 N402 1.335 . S
C404 N403 1.345 . S
C404 H409 0.930 . S
C405 N402 1.390 . S
C405 C406 1.346 . S
C405 H410 0.930 . S
C406 N403 1.336 . S
C406 C405 1.346 . S
C406 H413 0.929 . S
C407 O397 1.282 . S
C407 O408 1.216 . S
O408 C407 1.216 . S
H409 C404 0.930 . S
H410 C405 0.930 . S
O411 Cu391 1.959 . S
O411 C398 1.251 . S
H412 C395 0.930 . S
H413 C406 0.929 . S
Cu414 N415 1.999 . S
Cu414 O420 1.974 . S
Cu414 N425 1.985 . S
Cu414 O434 1.959 . S
N415 Cu414 1.999 . S
N415 C417 1.263 . S
N415 C419 1.389 . S
N416 C417 1.358 . S
N416 C418 1.400 . S
C417 N415 1.263 . S
C417 N416 1.358 . S
C417 H423 0.930 . S
C418 N416 1.400 . S
C418 C419 1.351 . S
C418 H435 0.930 . S
C419 N415 1.389 . S
C419 C418 1.351 . S
C419 H424 0.930 . S
O420 Cu414 1.974 . S
O420 C430 1.282 . S
C421 O422 1.261 . S
C421 O434 1.251 . S
O422 C421 1.261 . S
H423 C417 0.930 . S
H424 C419 0.930 . S
N425 Cu414 1.985 . S
N425 C427 1.335 . S
N425 C428 1.390 . S
N426 C427 1.345 . S
N426 C429 1.336 . S
C427 N425 1.335 . S
C427 N426 1.345 . S
C427 H432 0.930 . S
C428 N425 1.390 . S
C428 C429 1.346 . S
C428 H433 0.930 . S
C429 N426 1.336 . S
C429 C428 1.346 . S
C429 H436 0.929 . S
C430 O420 1.282 . S
C430 O431 1.216 . S
O431 C430 1.216 . S
H432 C427 0.930 . S
H433 C428 0.930 . S
O434 Cu414 1.959 . S
O434 C421 1.251 . S
H435 C418 0.930 . S
H436 C429 0.929 . S
Cu437 N438 1.999 . S
Cu437 O443 1.974 . S
Cu437 N448 1.985 . S
Cu437 O457 1.959 . S
N438 Cu437 1.999 . S
N438 C440 1.263 . S
N438 C442 1.389 . S
N439 C440 1.358 . S
N439 C441 1.400 . S
C440 N438 1.263 . S
C440 N439 1.358 . S
C440 H446 0.930 . S
C441 N439 1.400 . S
C441 C442 1.351 . S
C441 H458 0.930 . S
C442 N438 1.389 . S
C442 C441 1.351 . S
C442 H447 0.930 . S
O443 Cu437 1.974 . S
O443 C453 1.282 . S
C444 O445 1.261 . S
C444 O457 1.251 . S
O445 C444 1.261 . S
H446 C440 0.930 . S
H447 C442 0.930 . S
N448 Cu437 1.985 . S
N448 C450 1.335 . S
N448 C451 1.390 . S
N449 C450 1.345 . S
N449 C452 1.336 . S
C450 N448 1.335 . S
C450 N449 1.345 . S
C450 H455 0.930 . S
C451 N448 1.390 . S
C451 C452 1.346 . S
C451 H456 0.930 . S
C452 N449 1.336 . S
C452 C451 1.346 . S
C452 H459 0.929 . S
C453 O443 1.282 . S
C453 O454 1.216 . S
O454 C453 1.216 . S
H455 C450 0.930 . S
H456 C451 0.930 . S
O457 Cu437 1.959 . S
O457 C444 1.251 . S
H458 C441 0.930 . S
H459 C452 0.929 . S
Cu460 N461 1.999 . S
Cu460 O466 1.974 . S
Cu460 N471 1.985 . S
Cu460 O480 1.959 . S
N461 Cu460 1.999 . S
N461 C463 1.263 . S
N461 C465 1.389 . S
N462 C463 1.358 . S
N462 C464 1.400 . S
C463 N461 1.263 . S
C463 N462 1.358 . S
C463 H469 0.930 . S
C464 N462 1.400 . S
C464 C465 1.351 . S
C464 H481 0.930 . S
C465 N461 1.389 . S
C465 C464 1.351 . S
C465 H470 0.930 . S
O466 Cu460 1.974 . S
O466 C476 1.282 . S
C467 O468 1.261 . S
C467 O480 1.251 . S
O468 C467 1.261 . S
H469 C463 0.930 . S
H470 C465 0.930 . S
N471 Cu460 1.985 . S
N471 C473 1.335 . S
N471 C474 1.390 . S
N472 C473 1.345 . S
N472 C475 1.336 . S
C473 N471 1.335 . S
C473 N472 1.345 . S
C473 H478 0.930 . S
C474 N471 1.390 . S
C474 C475 1.346 . S
C474 H479 0.930 . S
C475 N472 1.336 . S
C475 C474 1.346 . S
C475 H482 0.929 . S
C476 O466 1.282 . S
C476 O477 1.216 . S
O477 C476 1.216 . S
H478 C473 0.930 . S
H479 C474 0.930 . S
O480 Cu460 1.959 . S
O480 C467 1.251 . S
H481 C464 0.930 . S
H482 C475 0.929 . S
Cu483 N484 1.999 . S
Cu483 O489 1.974 . S
Cu483 N494 1.985 . S
Cu483 O503 1.959 . S
N484 Cu483 1.999 . S
N484 C486 1.263 . S
N484 C488 1.389 . S
N485 C486 1.358 . S
N485 C487 1.400 . S
C486 N484 1.263 . S
C486 N485 1.358 . S
C486 H492 0.930 . S
C487 N485 1.400 . S
C487 C488 1.351 . S
C487 H504 0.930 . S
C488 N484 1.389 . S
C488 C487 1.351 . S
C488 H493 0.930 . S
O489 Cu483 1.974 . S
O489 C499 1.282 . S
C490 O491 1.261 . S
C490 O503 1.251 . S
O491 C490 1.261 . S
H492 C486 0.930 . S
H493 C488 0.930 . S
N494 Cu483 1.985 . S
N494 C496 1.335 . S
N494 C497 1.390 . S
N495 C496 1.345 . S
N495 C498 1.336 . S
C496 N494 1.335 . S
C496 N495 1.345 . S
C496 H501 0.930 . S
C497 N494 1.390 . S
C497 C498 1.346 . S
C497 H502 0.930 . S
C498 N495 1.336 . S
C498 C497 1.346 . S
C498 H505 0.929 . S
C499 O489 1.282 . S
C499 O500 1.216 . S
O500 C499 1.216 . S
H501 C496 0.930 . S
H502 C497 0.930 . S
O503 Cu483 1.959 . S
O503 C490 1.251 . S
H504 C487 0.930 . S
H505 C498 0.929 . S
Cu506 N507 1.999 . S
Cu506 O512 1.974 . S
Cu506 N517 1.985 . S
Cu506 O526 1.959 . S
N507 Cu506 1.999 . S
N507 C509 1.263 . S
N507 C511 1.389 . S
N508 C509 1.358 . S
N508 C510 1.400 . S
C509 N507 1.263 . S
C509 N508 1.358 . S
C509 H515 0.930 . S
C510 N508 1.400 . S
C510 C511 1.351 . S
C510 H527 0.930 . S
C511 N507 1.389 . S
C511 C510 1.351 . S
C511 H516 0.930 . S
O512 Cu506 1.974 . S
O512 C522 1.282 . S
C513 O514 1.261 . S
C513 O526 1.251 . S
O514 C513 1.261 . S
H515 C509 0.930 . S
H516 C511 0.930 . S
N517 Cu506 1.985 . S
N517 C519 1.335 . S
N517 C520 1.390 . S
N518 C519 1.345 . S
N518 C521 1.336 . S
C519 N517 1.335 . S
C519 N518 1.345 . S
C519 H524 0.930 . S
C520 N517 1.390 . S
C520 C521 1.346 . S
C520 H525 0.930 . S
C521 N518 1.336 . S
C521 C520 1.346 . S
C521 H528 0.929 . S
C522 O512 1.282 . S
C522 O523 1.216 . S
O523 C522 1.216 . S
H524 C519 0.930 . S
H525 C520 0.930 . S
O526 Cu506 1.959 . S
O526 C513 1.251 . S
H527 C510 0.930 . S
H528 C521 0.929 . S
Cu529 N530 1.999 . S
Cu529 O535 1.974 . S
Cu529 N540 1.985 . S
Cu529 O549 1.959 . S
N530 Cu529 1.999 . S
N530 C532 1.263 . S
N530 C534 1.389 . S
N531 C532 1.358 . S
N531 C533 1.400 . S
C532 N530 1.263 . S
C532 N531 1.358 . S
C532 H538 0.930 . S
C533 N531 1.400 . S
C533 C534 1.351 . S
C533 H550 0.930 . S
C534 N530 1.389 . S
C534 C533 1.351 . S
C534 H539 0.930 . S
O535 Cu529 1.974 . S
O535 C545 1.282 . S
C536 O537 1.261 . S
C536 O549 1.251 . S
O537 C536 1.261 . S
H538 C532 0.930 . S
H539 C534 0.930 . S
N540 Cu529 1.985 . S
N540 C542 1.335 . S
N540 C543 1.390 . S
N541 C542 1.345 . S
N541 C544 1.336 . S
C542 N540 1.335 . S
C542 N541 1.345 . S
C542 H547 0.930 . S
C543 N540 1.390 . S
C543 C544 1.346 . S
C543 H548 0.930 . S
C544 N541 1.336 . S
C544 C543 1.346 . S
C544 H551 0.929 . S
C545 O535 1.282 . S
C545 O546 1.216 . S
O546 C545 1.216 . S
H547 C542 0.930 . S
H548 C543 0.930 . S
O549 Cu529 1.959 . S
O549 C536 1.251 . S
H550 C533 0.930 . S
H551 C544 0.929 . S
Cu552 N553 1.999 . S
Cu552 O558 1.974 . S
Cu552 N563 1.985 . S
Cu552 O572 1.959 . S
N553 Cu552 1.999 . S
N553 C555 1.263 . S
N553 C557 1.389 . S
N554 C555 1.358 . S
N554 C556 1.400 . S
C555 N553 1.263 . S
C555 N554 1.358 . S
C555 H561 0.930 . S
C556 N554 1.400 . S
C556 C557 1.351 . S
C556 H573 0.930 . S
C557 N553 1.389 . S
C557 C556 1.351 . S
C557 H562 0.930 . S
O558 Cu552 1.974 . S
O558 C568 1.282 . S
C559 O560 1.261 . S
C559 O572 1.251 . S
O560 C559 1.261 . S
H561 C555 0.930 . S
H562 C557 0.930 . S
N563 Cu552 1.985 . S
N563 C565 1.335 . S
N563 C566 1.390 . S
N564 C565 1.345 . S
N564 C567 1.336 . S
C565 N563 1.335 . S
C565 N564 1.345 . S
C565 H570 0.930 . S
C566 N563 1.390 . S
C566 C567 1.346 . S
C566 H571 0.930 . S
C567 N564 1.336 . S
C567 C566 1.346 . S
C567 H574 0.929 . S
C568 O558 1.282 . S
C568 O569 1.216 . S
O569 C568 1.216 . S
H570 C565 0.930 . S
H571 C566 0.930 . S
O572 Cu552 1.959 . S
O572 C559 1.251 . S
H573 C556 0.930 . S
H574 C567 0.929 . S
Cu575 N576 1.999 . S
Cu575 O581 1.974 . S
Cu575 N586 1.985 . S
Cu575 O595 1.959 . S
N576 Cu575 1.999 . S
N576 C578 1.263 . S
N576 C580 1.389 . S
N577 C578 1.358 . S
N577 C579 1.400 . S
C578 N576 1.263 . S
C578 N577 1.358 . S
C578 H584 0.930 . S
C579 N577 1.400 . S
C579 C580 1.351 . S
C579 H596 0.930 . S
C580 N576 1.389 . S
C580 C579 1.351 . S
C580 H585 0.930 . S
O581 Cu575 1.974 . S
O581 C591 1.282 . S
C582 O583 1.261 . S
C582 O595 1.251 . S
O583 C582 1.261 . S
H584 C578 0.930 . S
H585 C580 0.930 . S
N586 Cu575 1.985 . S
N586 C588 1.335 . S
N586 C589 1.390 . S
N587 C588 1.345 . S
N587 C590 1.336 . S
C588 N586 1.335 . S
C588 N587 1.345 . S
C588 H593 0.930 . S
C589 N586 1.390 . S
C589 C590 1.346 . S
C589 H594 0.930 . S
C590 N587 1.336 . S
C590 C589 1.346 . S
C590 H597 0.929 . S
C591 O581 1.282 . S
C591 O592 1.216 . S
O592 C591 1.216 . S
H593 C588 0.930 . S
H594 C589 0.930 . S
O595 Cu575 1.959 . S
O595 C582 1.251 . S
H596 C579 0.930 . S
H597 C590 0.929 . S
Cu598 N599 1.999 . S
Cu598 O604 1.974 . S
Cu598 N609 1.985 . S
Cu598 O618 1.959 . S
N599 Cu598 1.999 . S
N599 C601 1.263 . S
N599 C603 1.389 . S
N600 C601 1.358 . S
N600 C602 1.400 . S
C601 N599 1.263 . S
C601 N600 1.358 . S
C601 H607 0.930 . S
C602 N600 1.400 . S
C602 C603 1.351 . S
C602 H619 0.930 . S
C603 N599 1.389 . S
C603 C602 1.351 . S
C603 H608 0.930 . S
O604 Cu598 1.974 . S
O604 C614 1.282 . S
C605 O606 1.261 . S
C605 O618 1.251 . S
O606 C605 1.261 . S
H607 C601 0.930 . S
H608 C603 0.930 . S
N609 Cu598 1.985 . S
N609 C611 1.335 . S
N609 C612 1.390 . S
N610 C611 1.345 . S
N610 C613 1.336 . S
C611 N609 1.335 . S
C611 N610 1.345 . S
C611 H616 0.930 . S
C612 N609 1.390 . S
C612 C613 1.346 . S
C612 H617 0.930 . S
C613 N610 1.336 . S
C613 C612 1.346 . S
C613 H620 0.929 . S
C614 O604 1.282 . S
C614 O615 1.216 . S
O615 C614 1.216 . S
H616 C611 0.930 . S
H617 C612 0.930 . S
O618 Cu598 1.959 . S
O618 C605 1.251 . S
H619 C602 0.930 . S
H620 C613 0.929 . S
Cu621 N622 1.999 . S
Cu621 O627 1.974 . S
Cu621 N632 1.985 . S
Cu621 O641 1.959 . S
N622 Cu621 1.999 . S
N622 C624 1.263 . S
N622 C626 1.389 . S
N623 C624 1.358 . S
N623 C625 1.400 . S
C624 N622 1.263 . S
C624 N623 1.358 . S
C624 H630 0.930 . S
C625 N623 1.400 . S
C625 C626 1.351 . S
C625 H642 0.930 . S
C626 N622 1.389 . S
C626 C625 1.351 . S
C626 H631 0.930 . S
O627 Cu621 1.974 . S
O627 C637 1.282 . S
C628 O629 1.261 . S
C628 O641 1.251 . S
O629 C628 1.261 . S
H630 C624 0.930 . S
H631 C626 0.930 . S
N632 Cu621 1.985 . S
N632 C634 1.335 . S
N632 C635 1.390 . S
N633 C634 1.345 . S
N633 C636 1.336 . S
C634 N632 1.335 . S
C634 N633 1.345 . S
C634 H639 0.930 . S
C635 N632 1.390 . S
C635 C636 1.346 . S
C635 H640 0.930 . S
C636 N633 1.336 . S
C636 C635 1.346 . S
C636 H643 0.929 . S
C637 O627 1.282 . S
C637 O638 1.216 . S
O638 C637 1.216 . S
H639 C634 0.930 . S
H640 C635 0.930 . S
O641 Cu621 1.959 . S
O641 C628 1.251 . S
H642 C625 0.930 . S
H643 C636 0.929 . S
Cu644 N645 1.999 . S
Cu644 O650 1.974 . S
Cu644 N655 1.985 . S
Cu644 O664 1.959 . S
N645 Cu644 1.999 . S
N645 C647 1.263 . S
N645 C649 1.389 . S
N646 C647 1.358 . S
N646 C648 1.400 . S
C647 N645 1.263 . S
C647 N646 1.358 . S
C647 H653 0.930 . S
C648 N646 1.400 . S
C648 C649 1.351 . S
C648 H665 0.930 . S
C649 N645 1.389 . S
C649 C648 1.351 . S
C649 H654 0.930 . S
O650 Cu644 1.974 . S
O650 C660 1.282 . S
C651 O652 1.261 . S
C651 O664 1.251 . S
O652 C651 1.261 . S
H653 C647 0.930 . S
H654 C649 0.930 . S
N655 Cu644 1.985 . S
N655 C657 1.335 . S
N655 C658 1.390 . S
N656 C657 1.345 . S
N656 C659 1.336 . S
C657 N655 1.335 . S
C657 N656 1.345 . S
C657 H662 0.930 . S
C658 N655 1.390 . S
C658 C659 1.346 . S
C658 H663 0.930 . S
C659 N656 1.336 . S
C659 C658 1.346 . S
C659 H666 0.929 . S
C660 O650 1.282 . S
C660 O661 1.216 . S
O661 C660 1.216 . S
H662 C657 0.930 . S
H663 C658 0.930 . S
O664 Cu644 1.959 . S
O664 C651 1.251 . S
H665 C648 0.930 . S
H666 C659 0.929 . S
Cu667 N668 1.999 . S
Cu667 O673 1.974 . S
Cu667 N678 1.985 . S
Cu667 O687 1.959 . S
N668 Cu667 1.999 . S
N668 C670 1.263 . S
N668 C672 1.389 . S
N669 C670 1.358 . S
N669 C671 1.400 . S
C670 N668 1.263 . S
C670 N669 1.358 . S
C670 H676 0.930 . S
C671 N669 1.400 . S
C671 C672 1.351 . S
C671 H688 0.930 . S
C672 N668 1.389 . S
C672 C671 1.351 . S
C672 H677 0.930 . S
O673 Cu667 1.974 . S
O673 C683 1.282 . S
C674 O675 1.261 . S
C674 O687 1.251 . S
O675 C674 1.261 . S
H676 C670 0.930 . S
H677 C672 0.930 . S
N678 Cu667 1.985 . S
N678 C680 1.335 . S
N678 C681 1.390 . S
N679 C680 1.345 . S
N679 C682 1.336 . S
C680 N678 1.335 . S
C680 N679 1.345 . S
C680 H685 0.930 . S
C681 N678 1.390 . S
C681 C682 1.346 . S
C681 H686 0.930 . S
C682 N679 1.336 . S
C682 C681 1.346 . S
C682 H689 0.929 . S
C683 O673 1.282 . S
C683 O684 1.216 . S
O684 C683 1.216 . S
H685 C680 0.930 . S
H686 C681 0.930 . S
O687 Cu667 1.959 . S
O687 C674 1.251 . S
H688 C671 0.930 . S
H689 C682 0.929 . S
Cu690 N691 1.999 . S
Cu690 O696 1.974 . S
Cu690 N701 1.985 . S
Cu690 O710 1.959 . S
N691 Cu690 1.999 . S
N691 C693 1.263 . S
N691 C695 1.389 . S
N692 C693 1.358 . S
N692 C694 1.400 . S
C693 N691 1.263 . S
C693 N692 1.358 . S
C693 H699 0.930 . S
C694 N692 1.400 . S
C694 C695 1.351 . S
C694 H711 0.930 . S
C695 N691 1.389 . S
C695 C694 1.351 . S
C695 H700 0.930 . S
O696 Cu690 1.974 . S
O696 C706 1.282 . S
C697 O698 1.261 . S
C697 O710 1.251 . S
O698 C697 1.261 . S
H699 C693 0.930 . S
H700 C695 0.930 . S
N701 Cu690 1.985 . S
N701 C703 1.335 . S
N701 C704 1.390 . S
N702 C703 1.345 . S
N702 C705 1.336 . S
C703 N701 1.335 . S
C703 N702 1.345 . S
C703 H708 0.930 . S
C704 N701 1.390 . S
C704 C705 1.346 . S
C704 H709 0.930 . S
C705 N702 1.336 . S
C705 C704 1.346 . S
C705 H712 0.929 . S
C706 O696 1.282 . S
C706 O707 1.216 . S
O707 C706 1.216 . S
H708 C703 0.930 . S
H709 C704 0.930 . S
O710 Cu690 1.959 . S
O710 C697 1.251 . S
H711 C694 0.930 . S
H712 C705 0.929 . S
Cu713 N714 1.999 . S
Cu713 O719 1.974 . S
Cu713 N724 1.985 . S
Cu713 O733 1.959 . S
N714 Cu713 1.999 . S
N714 C716 1.263 . S
N714 C718 1.389 . S
N715 C716 1.358 . S
N715 C717 1.400 . S
C716 N714 1.263 . S
C716 N715 1.358 . S
C716 H722 0.930 . S
C717 N715 1.400 . S
C717 C718 1.351 . S
C717 H734 0.930 . S
C718 N714 1.389 . S
C718 C717 1.351 . S
C718 H723 0.930 . S
O719 Cu713 1.974 . S
O719 C729 1.282 . S
C720 O721 1.261 . S
C720 O733 1.251 . S
O721 C720 1.261 . S
H722 C716 0.930 . S
H723 C718 0.930 . S
N724 Cu713 1.985 . S
N724 C726 1.335 . S
N724 C727 1.390 . S
N725 C726 1.345 . S
N725 C728 1.336 . S
C726 N724 1.335 . S
C726 N725 1.345 . S
C726 H731 0.930 . S
C727 N724 1.390 . S
C727 C728 1.346 . S
C727 H732 0.930 . S
C728 N725 1.336 . S
C728 C727 1.346 . S
C728 H735 0.929 . S
C729 O719 1.282 . S
C729 O730 1.216 . S
O730 C729 1.216 . S
H731 C726 0.930 . S
H732 C727 0.930 . S
O733 Cu713 1.959 . S
O733 C720 1.251 . S
H734 C717 0.930 . S
H735 C728 0.929 . S
H736 C742 0.930 . S
H737 C745 0.930 . S
H738 C746 0.930 . S
H739 C747 0.930 . S
H740 C750 0.930 . S
H741 C751 0.930 . S
C742 H736 0.930 . S
C742 C743 1.355 . S
C742 C744 1.415 . S
C743 C742 1.355 . S
C743 C745 1.419 . S
C744 C742 1.415 . S
C744 C749 1.425 . S
C744 C751 1.409 . S
C745 H737 0.930 . S
C745 C743 1.419 . S
C745 C746 1.362 . S
C746 H738 0.930 . S
C746 C745 1.362 . S
C746 C749 1.409 . S
C747 H739 0.930 . S
C747 C748 1.355 . S
C747 C749 1.415 . S
C748 C747 1.355 . S
C748 C750 1.419 . S
C749 C744 1.425 . S
C749 C746 1.409 . S
C749 C747 1.415 . S
C750 H740 0.930 . S
C750 C748 1.419 . S
C750 C751 1.362 . S
C751 H741 0.930 . S
C751 C744 1.409 . S
C751 C750 1.362 . S
H752 C758 0.930 . S
H753 C761 0.930 . S
H754 C762 0.930 . S
H755 C763 0.930 . S
H756 C766 0.930 . S
H757 C767 0.924 1_455 S
C758 H752 0.930 . S
C758 C759 1.355 . S
C758 C760 1.415 . S
C759 C758 1.355 . S
C759 C761 1.419 . S
C760 C758 1.415 . S
C760 C765 1.425 1_455 S
C760 C767 1.409 1_455 S
C761 H753 0.930 . S
C761 C759 1.419 . S
C761 C762 1.362 1_455 S
C762 H754 0.930 . S
C762 C761 1.362 1_655 S
C762 C765 1.409 . S
C763 H755 0.930 . S
C763 C764 1.355 . S
C763 C765 1.415 . S
C764 C763 1.355 . S
C764 C766 1.419 . S
C765 C760 1.425 1_655 S
C765 C762 1.409 . S
C765 C763 1.415 . S
C766 H756 0.930 . S
C766 C764 1.419 . S
C766 C767 1.362 . S
C767 H757 0.924 1_655 S
C767 C760 1.409 1_655 S
C767 C766 1.362 . S
H768 C774 0.930 . S
H769 C777 0.930 . S
H770 C778 0.930 . S
H771 C779 0.930 . S
H772 C782 0.930 . S
H773 C783 0.930 . S
C774 H768 0.930 . S
C774 C775 1.355 . S
C774 C776 1.415 . S
C775 C774 1.355 . S
C775 C777 1.419 . S
C776 C774 1.415 . S
C776 C781 1.425 . S
C776 C783 1.409 . S
C777 H769 0.930 . S
C777 C775 1.419 . S
C777 C778 1.362 . S
C778 H770 0.930 . S
C778 C777 1.362 . S
C778 C781 1.409 . S
C779 H771 0.930 . S
C779 C780 1.355 . S
C779 C781 1.415 . S
C780 C779 1.355 . S
C780 C782 1.419 . S
C781 C776 1.425 . S
C781 C778 1.409 . S
C781 C779 1.415 . S
C782 H772 0.930 . S
C782 C780 1.419 . S
C782 C783 1.362 . S
C783 H773 0.930 . S
C783 C776 1.409 . S
C783 C782 1.362 . S
H784 C790 0.930 . S
H785 C793 0.930 . S
H786 C794 0.930 . S
H787 C795 0.930 . S
H788 C798 0.930 . S
H789 C799 0.930 . S
C790 H784 0.930 . S
C790 C791 1.355 . S
C790 C792 1.415 . S
C791 C790 1.355 . S
C791 C793 1.419 . S
C792 C790 1.415 . S
C792 C797 1.425 . S
C792 C799 1.409 . S
C793 H785 0.930 . S
C793 C791 1.419 . S
C793 C794 1.362 . S
C794 H786 0.930 . S
C794 C793 1.362 . S
C794 C797 1.409 . S
C795 H787 0.930 . S
C795 C796 1.355 . S
C795 C797 1.415 . S
C796 C795 1.355 . S
C796 C798 1.419 . S
C797 C792 1.425 . S
C797 C794 1.409 . S
C797 C795 1.415 . S
C798 H788 0.930 . S
C798 C796 1.419 . S
C798 C799 1.362 . S
C799 H789 0.930 . S
C799 C792 1.409 . S
C799 C798 1.362 . S
H800 C806 0.930 . S
H801 C809 0.930 . S
H802 C810 0.930 . S
H803 C811 0.930 . S
H804 C814 0.930 . S
H805 C815 0.930 . S
C806 H800 0.930 . S
C806 C807 1.355 . S
C806 C808 1.415 . S
C807 C806 1.355 . S
C807 C809 1.419 . S
C808 C806 1.415 . S
C808 C813 1.425 . S
C808 C815 1.409 . S
C809 H801 0.930 . S
C809 C807 1.419 . S
C809 C810 1.362 . S
C810 H802 0.930 . S
C810 C809 1.362 . S
C810 C813 1.409 . S
C811 H803 0.930 . S
C811 C812 1.355 . S
C811 C813 1.415 . S
C812 C811 1.355 . S
C812 C814 1.419 . S
C813 C808 1.425 . S
C813 C810 1.409 . S
C813 C811 1.415 . S
C814 H804 0.930 . S
C814 C812 1.419 . S
C814 C815 1.362 . S
C815 H805 0.930 . S
C815 C808 1.409 . S
C815 C814 1.362 . S
H816 C822 0.930 . S
H817 C825 0.930 . S
H818 C826 0.930 . S
H819 C827 0.930 . S
H820 C830 0.930 . S
H821 C831 0.930 . S
C822 H816 0.930 . S
C822 C823 1.355 . S
C822 C824 1.415 . S
C823 C822 1.355 . S
C823 C825 1.419 . S
C824 C822 1.415 . S
C824 C829 1.425 . S
C824 C831 1.409 . S
C825 H817 0.930 . S
C825 C823 1.419 . S
C825 C826 1.362 . S
C826 H818 0.930 . S
C826 C825 1.362 . S
C826 C829 1.409 . S
C827 H819 0.930 . S
C827 C828 1.355 . S
C827 C829 1.415 . S
C828 C827 1.355 . S
C828 C830 1.419 . S
C829 C824 1.425 . S
C829 C826 1.409 . S
C829 C827 1.415 . S
C830 H820 0.930 . S
C830 C828 1.419 . S
C830 C831 1.362 . S
C831 H821 0.930 . S
C831 C824 1.409 . S
C831 C830 1.362 . S
H832 C838 0.930 . S
H833 C841 0.930 . S
H834 C842 0.930 . S
H835 C843 0.930 . S
H836 C846 0.930 . S
H837 C847 0.930 . S
C838 H832 0.930 . S
C838 C839 1.355 . S
C838 C840 1.415 . S
C839 C838 1.355 . S
C839 C841 1.419 . S
C840 C838 1.415 . S
C840 C845 1.425 . S
C840 C847 1.409 . S
C841 H833 0.930 . S
C841 C839 1.419 . S
C841 C842 1.362 . S
C842 H834 0.930 . S
C842 C841 1.362 . S
C842 C845 1.409 . S
C843 H835 0.930 . S
C843 C844 1.355 . S
C843 C845 1.415 . S
C844 C843 1.355 . S
C844 C846 1.419 . S
C845 C840 1.425 . S
C845 C842 1.409 . S
C845 C843 1.415 . S
C846 H836 0.930 . S
C846 C844 1.419 . S
C846 C847 1.362 . S
C847 H837 0.930 . S
C847 C840 1.409 . S
C847 C846 1.362 . S
H848 C854 0.930 . S
H849 C857 0.930 . S
H850 C858 0.930 . S
H851 C859 0.930 . S
H852 C862 0.930 . S
H853 C863 0.930 1_455 S
C854 H848 0.930 . S
C854 C855 1.355 . S
C854 C856 1.415 . S
C855 C854 1.355 . S
C855 C857 1.419 . S
C856 C854 1.415 . S
C856 C861 1.425 1_455 S
C856 C863 1.409 1_455 S
C857 H849 0.930 . S
C857 C855 1.419 . S
C857 C858 1.362 1_455 S
C858 H850 0.930 . S
C858 C857 1.362 1_655 S
C858 C861 1.409 . S
C859 H851 0.930 . S
C859 C860 1.355 . S
C859 C861 1.415 . S
C860 C859 1.355 . S
C860 C862 1.419 . S
C861 C856 1.425 1_655 S
C861 C858 1.409 . S
C861 C859 1.415 . S
C862 H852 0.930 . S
C862 C860 1.419 . S
C862 C863 1.362 . S
C863 H853 0.930 1_655 S
C863 C856 1.409 1_655 S
C863 C862 1.362 . S
H864 C870 0.930 . S
H865 C873 0.930 . S
H866 C874 0.930 . S
H867 C875 0.930 . S
H868 C878 0.930 . S
H869 C879 0.930 . S
C870 H864 0.930 . S
C870 C871 1.355 . S
C870 C872 1.415 . S
C871 C870 1.355 . S
C871 C873 1.419 . S
C872 C870 1.415 . S
C872 C877 1.425 . S
C872 C879 1.409 . S
C873 H865 0.930 . S
C873 C871 1.419 . S
C873 C874 1.362 . S
C874 H866 0.930 . S
C874 C873 1.362 . S
C874 C877 1.409 . S
C875 H867 0.930 . S
C875 C876 1.355 . S
C875 C877 1.415 . S
C876 C875 1.355 . S
C876 C878 1.419 . S
C877 C872 1.425 . S
C877 C874 1.409 . S
C877 C875 1.415 . S
C878 H868 0.930 . S
C878 C876 1.419 . S
C878 C879 1.362 . S
C879 H869 0.930 . S
C879 C872 1.409 . S
C879 C878 1.362 . S
H880 C886 0.930 . S
H881 C889 0.930 . S
H882 C890 0.930 . S
H883 C891 0.930 . S
H884 C894 0.930 . S
H885 C895 0.930 . S
C886 H880 0.930 . S
C886 C887 1.355 . S
C886 C888 1.415 . S
C887 C886 1.355 . S
C887 C889 1.419 . S
C888 C886 1.415 . S
C888 C893 1.425 1_455 S
C888 C895 1.409 . S
C889 H881 0.930 . S
C889 C887 1.419 . S
C889 C890 1.362 1_455 S
C890 H882 0.930 . S
C890 C889 1.362 1_655 S
C890 C893 1.409 . S
C891 H883 0.930 . S
C891 C892 1.355 . S
C891 C893 1.415 . S
C892 C891 1.355 . S
C892 C894 1.419 . S
C893 C888 1.425 1_655 S
C893 C890 1.409 . S
C893 C891 1.415 . S
C894 H884 0.930 . S
C894 C892 1.419 . S
C894 C895 1.362 1_655 S
C895 H885 0.930 . S
C895 C888 1.409 . S
C895 C894 1.362 1_455 S
H896 C902 0.930 . S
H897 C905 0.930 . S
H898 C906 0.930 . S
H899 C907 0.930 . S
H900 C910 0.930 . S
H901 C911 0.930 . S
C902 H896 0.930 . S
C902 C903 1.355 . S
C902 C904 1.415 . S
C903 C902 1.355 . S
C903 C905 1.419 . S
C904 C902 1.415 . S
C904 C909 1.425 . S
C904 C911 1.409 . S
C905 H897 0.930 . S
C905 C903 1.419 . S
C905 C906 1.362 . S
C906 H898 0.930 . S
C906 C905 1.362 . S
C906 C909 1.409 . S
C907 H899 0.930 . S
C907 C908 1.355 . S
C907 C909 1.415 . S
C908 C907 1.355 . S
C908 C910 1.419 . S
C909 C904 1.425 . S
C909 C906 1.409 . S
C909 C907 1.415 . S
C910 H900 0.930 . S
C910 C908 1.419 . S
C910 C911 1.362 . S
C911 H901 0.930 . S
C911 C904 1.409 . S
C911 C910 1.362 . S
H912 C918 0.930 . S
H913 C921 0.930 . S
H914 C922 0.930 . S
H915 C923 0.930 . S
H916 C926 0.930 . S
H917 C927 0.930 . S
C918 H912 0.930 . S
C918 C919 1.355 . S
C918 C920 1.415 . S
C919 C918 1.355 . S
C919 C921 1.419 . S
C920 C918 1.415 . S
C920 C925 1.425 . S
C920 C927 1.409 . S
C921 H913 0.930 . S
C921 C919 1.419 . S
C921 C922 1.362 . S
C922 H914 0.930 . S
C922 C921 1.362 . S
C922 C925 1.409 . S
C923 H915 0.930 . S
C923 C924 1.355 . S
C923 C925 1.415 . S
C924 C923 1.355 . S
C924 C926 1.419 . S
C925 C920 1.425 . S
C925 C922 1.409 . S
C925 C923 1.415 . S
C926 H916 0.930 . S
C926 C924 1.419 . S
C926 C927 1.362 . S
C927 H917 0.930 . S
C927 C920 1.409 . S
C927 C926 1.362 . S
H928 C934 0.930 . S
H929 C937 0.930 . S
H930 C938 0.930 . S
H931 C939 0.930 . S
H932 C942 0.930 . S
H933 C943 0.930 . S
C934 H928 0.930 . S
C934 C935 1.355 . S
C934 C936 1.415 . S
C935 C934 1.355 . S
C935 C937 1.419 . S
C936 C934 1.415 . S
C936 C941 1.425 . S
C936 C943 1.409 . S
C937 H929 0.930 . S
C937 C935 1.419 . S
C937 C938 1.362 . S
C938 H930 0.930 . S
C938 C937 1.362 . S
C938 C941 1.409 . S
C939 H931 0.930 . S
C939 C940 1.355 . S
C939 C941 1.415 . S
C940 C939 1.355 . S
C940 C942 1.419 . S
C941 C936 1.425 . S
C941 C938 1.409 . S
C941 C939 1.415 . S
C942 H932 0.930 . S
C942 C940 1.419 . S
C942 C943 1.362 . S
C943 H933 0.930 . S
C943 C936 1.409 . S
C943 C942 1.362 . S
H944 C950 0.930 . S
H945 C953 0.930 . S
H946 C954 0.930 . S
H947 C955 0.930 . S
H948 C958 0.930 . S
H949 C959 0.930 . S
C950 H944 0.930 . S
C950 C951 1.355 . S
C950 C952 1.415 . S
C951 C950 1.355 . S
C951 C953 1.419 . S
C952 C950 1.415 . S
C952 C957 1.425 . S
C952 C959 1.409 . S
C953 H945 0.930 . S
C953 C951 1.419 . S
C953 C954 1.362 . S
C954 H946 0.930 . S
C954 C953 1.362 . S
C954 C957 1.409 . S
C955 H947 0.930 . S
C955 C956 1.355 . S
C955 C957 1.415 . S
C956 C955 1.355 . S
C956 C958 1.419 . S
C957 C952 1.425 . S
C957 C954 1.409 . S
C957 C955 1.415 . S
C958 H948 0.930 . S
C958 C956 1.419 . S
C958 C959 1.362 . S
C959 H949 0.930 . S
C959 C952 1.409 . S
C959 C958 1.362 . S
H960 C966 0.930 . S
H961 C969 0.930 . S
H962 C970 0.930 . S
H963 C971 0.930 . S
H964 C974 0.930 . S
H965 C975 0.930 . S
C966 H960 0.930 . S
C966 C967 1.355 . S
C966 C968 1.415 . S
C967 C966 1.355 . S
C967 C969 1.419 . S
C968 C966 1.415 . S
C968 C973 1.425 . S
C968 C975 1.409 . S
C969 H961 0.930 . S
C969 C967 1.419 . S
C969 C970 1.362 . S
C970 H962 0.930 . S
C970 C969 1.362 . S
C970 C973 1.409 . S
C971 H963 0.930 . S
C971 C972 1.355 . S
C971 C973 1.415 . S
C972 C971 1.355 . S
C972 C974 1.419 . S
C973 C968 1.425 . S
C973 C970 1.409 . S
C973 C971 1.415 . S
C974 H964 0.930 . S
C974 C972 1.419 . S
C974 C975 1.362 . S
C975 H965 0.930 . S
C975 C968 1.409 . S
C975 C974 1.362 . S
H976 C982 0.930 . S
H977 C985 0.930 . S
H978 C986 0.930 . S
H979 C987 0.930 . S
H980 C990 0.930 . S
H981 C991 0.930 . S
C982 H976 0.930 . S
C982 C983 1.355 . S
C982 C984 1.415 . S
C983 C982 1.355 . S
C983 C985 1.419 . S
C984 C982 1.415 . S
C984 C989 1.425 1_455 S
C984 C991 1.409 . S
C985 H977 0.930 . S
C985 C983 1.419 . S
C985 C986 1.362 1_455 S
C986 H978 0.930 . S
C986 C985 1.362 1_655 S
C986 C989 1.409 . S
C987 H979 0.930 . S
C987 C988 1.355 . S
C987 C989 1.415 . S
C988 C987 1.355 . S
C988 C990 1.419 . S
C989 C984 1.425 1_655 S
C989 C986 1.409 . S
C989 C987 1.415 . S
C990 H980 0.930 . S
C990 C988 1.419 . S
C990 C991 1.362 1_655 S
C991 H981 0.930 . S
C991 C984 1.409 . S
C991 C990 1.362 1_455 S
H992 C998 0.930 . S
H993 C1001 0.930 . S
H994 C1002 0.930 . S
H995 C1003 0.930 . S
H996 C1006 0.930 . S
H997 C1007 0.930 . S
C998 H992 0.930 . S
C998 C999 1.355 . S
C998 C1000 1.415 . S
C999 C998 1.355 . S
C999 C1001 1.419 . S
C1000 C998 1.415 . S
C1000 C1005 1.425 . S
C1000 C1007 1.409 . S
C1001 H993 0.930 . S
C1001 C999 1.419 . S
C1001 C1002 1.362 . S
C1002 H994 0.930 . S
C1002 C1001 1.362 . S
C1002 C1005 1.409 . S
C1003 H995 0.930 . S
C1003 C1004 1.355 . S
C1003 C1005 1.415 . S
C1004 C1003 1.355 . S
C1004 C1006 1.419 . S
C1005 C1000 1.425 . S
C1005 C1002 1.409 . S
C1005 C1003 1.415 . S
C1006 H996 0.930 . S
C1006 C1004 1.419 . S
C1006 C1007 1.362 . S
C1007 H997 0.930 . S
C1007 C1000 1.409 . S
C1007 C1006 1.362 . S
H1008 C1014 0.930 . S
H1009 C1017 0.930 . S
H1010 C1018 0.930 . S
H1011 C1019 0.930 . S
H1012 C1022 0.930 . S
H1013 C1023 0.930 . S
C1014 H1008 0.930 . S
C1014 C1015 1.355 . S
C1014 C1016 1.415 . S
C1015 C1014 1.355 . S
C1015 C1017 1.419 . S
C1016 C1014 1.415 . S
C1016 C1021 1.425 . S
C1016 C1023 1.409 . S
C1017 H1009 0.930 . S
C1017 C1015 1.419 . S
C1017 C1018 1.362 . S
C1018 H1010 0.930 . S
C1018 C1017 1.362 . S
C1018 C1021 1.409 . S
C1019 H1011 0.930 . S
C1019 C1020 1.355 . S
C1019 C1021 1.415 . S
C1020 C1019 1.355 . S
C1020 C1022 1.419 . S
C1021 C1016 1.425 . S
C1021 C1018 1.409 . S
C1021 C1019 1.415 . S
C1022 H1012 0.930 . S
C1022 C1020 1.419 . S
C1022 C1023 1.362 . S
C1023 H1013 0.930 . S
C1023 C1016 1.409 . S
C1023 C1022 1.362 . S
H1024 C1030 0.930 . S
H1025 C1033 0.930 . S
H1026 C1034 0.930 . S
H1027 C1035 0.930 . S
H1028 C1038 0.930 . S
H1029 C1039 0.930 . S
C1030 H1024 0.930 . S
C1030 C1031 1.355 . S
C1030 C1032 1.415 . S
C1031 C1030 1.355 . S
C1031 C1033 1.419 . S
C1032 C1030 1.415 . S
C1032 C1037 1.425 . S
C1032 C1039 1.409 . S
C1033 H1025 0.930 . S
C1033 C1031 1.419 . S
C1033 C1034 1.362 . S
C1034 H1026 0.930 . S
C1034 C1033 1.362 . S
C1034 C1037 1.409 . S
C1035 H1027 0.930 . S
C1035 C1036 1.355 . S
C1035 C1037 1.415 . S
C1036 C1035 1.355 . S
C1036 C1038 1.419 . S
C1037 C1032 1.425 . S
C1037 C1034 1.409 . S
C1037 C1035 1.415 . S
C1038 H1028 0.930 . S
C1038 C1036 1.419 . S
C1038 C1039 1.362 . S
C1039 H1029 0.930 . S
C1039 C1032 1.409 . S
C1039 C1038 1.362 . S
H1040 C1046 0.930 . S
H1041 C1049 0.930 . S
H1042 C1050 0.930 . S
H1043 C1051 0.930 . S
H1044 C1054 0.930 . S
H1045 C1055 0.930 . S
C1046 H1040 0.930 . S
C1046 C1047 1.355 . S
C1046 C1048 1.415 . S
C1047 C1046 1.355 . S
C1047 C1049 1.419 . S
C1048 C1046 1.415 . S
C1048 C1053 1.425 . S
C1048 C1055 1.409 1_455 S
C1049 H1041 0.930 . S
C1049 C1047 1.419 . S
C1049 C1050 1.362 . S
C1050 H1042 0.930 . S
C1050 C1049 1.362 . S
C1050 C1053 1.409 . S
C1051 H1043 0.930 . S
C1051 C1052 1.355 . S
C1051 C1053 1.415 1_655 S
C1052 C1051 1.355 . S
C1052 C1054 1.419 . S
C1053 C1048 1.425 . S
C1053 C1050 1.409 . S
C1053 C1051 1.415 1_455 S
C1054 H1044 0.930 . S
C1054 C1052 1.419 . S
C1054 C1055 1.362 . S
C1055 H1045 0.930 . S
C1055 C1048 1.409 1_655 S
C1055 C1054 1.362 . S
H1056 C1062 0.930 . S
H1057 C1065 0.930 . S
H1058 C1066 0.930 . S
H1059 C1067 0.930 . S
H1060 C1070 0.930 . S
H1061 C1071 0.930 . S
C1062 H1056 0.930 . S
C1062 C1063 1.355 . S
C1062 C1064 1.415 . S
C1063 C1062 1.355 . S
C1063 C1065 1.419 . S
C1064 C1062 1.415 . S
C1064 C1069 1.425 . S
C1064 C1071 1.409 . S
C1065 H1057 0.930 . S
C1065 C1063 1.419 . S
C1065 C1066 1.362 . S
C1066 H1058 0.930 . S
C1066 C1065 1.362 . S
C1066 C1069 1.409 . S
C1067 H1059 0.930 . S
C1067 C1068 1.355 . S
C1067 C1069 1.415 . S
C1068 C1067 1.355 . S
C1068 C1070 1.419 . S
C1069 C1064 1.425 . S
C1069 C1066 1.409 . S
C1069 C1067 1.415 . S
C1070 H1060 0.930 . S
C1070 C1068 1.419 . S
C1070 C1071 1.362 . S
C1071 H1061 0.930 . S
C1071 C1064 1.409 . S
C1071 C1070 1.362 . S
H1072 C1078 0.930 . S
H1073 C1081 0.930 . S
H1074 C1082 0.930 . S
H1075 C1083 0.930 . S
H1076 C1086 0.930 . S
H1077 C1087 0.930 . S
C1078 H1072 0.930 . S
C1078 C1079 1.355 . S
C1078 C1080 1.415 . S
C1079 C1078 1.355 . S
C1079 C1081 1.419 . S
C1080 C1078 1.415 . S
C1080 C1085 1.425 . S
C1080 C1087 1.409 1_455 S
C1081 H1073 0.930 . S
C1081 C1079 1.419 . S
C1081 C1082 1.362 . S
C1082 H1074 0.930 . S
C1082 C1081 1.362 . S
C1082 C1085 1.409 . S
C1083 H1075 0.930 . S
C1083 C1084 1.355 . S
C1083 C1085 1.415 1_655 S
C1084 C1083 1.355 . S
C1084 C1086 1.419 . S
C1085 C1080 1.425 . S
C1085 C1082 1.409 . S
C1085 C1083 1.415 1_455 S
C1086 H1076 0.930 . S
C1086 C1084 1.419 . S
C1086 C1087 1.362 . S
C1087 H1077 0.930 . S
C1087 C1080 1.409 1_655 S
C1087 C1086 1.362 . S
H1088 C1094 0.930 . S
H1089 C1097 0.930 . S
H1090 C1098 0.930 . S
H1091 C1099 0.930 . S
H1092 C1102 0.930 . S
H1093 C1103 0.930 . S
C1094 H1088 0.930 . S
C1094 C1095 1.355 . S
C1094 C1096 1.415 . S
C1095 C1094 1.355 . S
C1095 C1097 1.419 . S
C1096 C1094 1.415 . S
C1096 C1101 1.425 . S
C1096 C1103 1.409 . S
C1097 H1089 0.930 . S
C1097 C1095 1.419 . S
C1097 C1098 1.362 . S
C1098 H1090 0.930 . S
C1098 C1097 1.362 . S
C1098 C1101 1.409 . S
C1099 H1091 0.930 . S
C1099 C1100 1.355 . S
C1099 C1101 1.415 . S
C1100 C1099 1.355 . S
C1100 C1102 1.419 . S
C1101 C1096 1.425 . S
C1101 C1098 1.409 . S
C1101 C1099 1.415 . S
C1102 H1092 0.930 . S
C1102 C1100 1.419 . S
C1102 C1103 1.362 . S
C1103 H1093 0.930 . S
C1103 C1096 1.409 . S
C1103 C1102 1.362 . S
H1104 C1110 0.930 . S
H1105 C1113 0.930 . S
H1106 C1114 0.930 . S
H1107 C1115 0.930 . S
H1108 C1118 0.930 . S
H1109 C1119 0.930 . S
C1110 H1104 0.930 . S
C1110 C1111 1.355 . S
C1110 C1112 1.415 . S
C1111 C1110 1.355 . S
C1111 C1113 1.419 . S
C1112 C1110 1.415 . S
C1112 C1117 1.425 . S
C1112 C1119 1.409 . S
C1113 H1105 0.930 . S
C1113 C1111 1.419 . S
C1113 C1114 1.362 . S
C1114 H1106 0.930 . S
C1114 C1113 1.362 . S
C1114 C1117 1.409 . S
C1115 H1107 0.930 . S
C1115 C1116 1.355 . S
C1115 C1117 1.415 . S
C1116 C1115 1.355 . S
C1116 C1118 1.419 . S
C1117 C1112 1.425 . S
C1117 C1114 1.409 . S
C1117 C1115 1.415 . S
C1118 H1108 0.930 . S
C1118 C1116 1.419 . S
C1118 C1119 1.362 . S
C1119 H1109 0.930 . S
C1119 C1112 1.409 . S
C1119 C1118 1.362 . S
H1120 C1126 0.930 . S
H1121 C1129 0.930 . S
H1122 C1130 0.930 . S
H1123 C1131 0.930 . S
H1124 C1134 0.930 . S
H1125 C1135 0.930 . S
C1126 H1120 0.930 . S
C1126 C1127 1.355 . S
C1126 C1128 1.415 . S
C1127 C1126 1.355 . S
C1127 C1129 1.419 . S
C1128 C1126 1.415 . S
C1128 C1133 1.425 . S
C1128 C1135 1.409 . S
C1129 H1121 0.930 . S
C1129 C1127 1.419 . S
C1129 C1130 1.362 . S
C1130 H1122 0.930 . S
C1130 C1129 1.362 . S
C1130 C1133 1.409 . S
C1131 H1123 0.930 . S
C1131 C1132 1.355 . S
C1131 C1133 1.415 . S
C1132 C1131 1.355 . S
C1132 C1134 1.419 . S
C1133 C1128 1.425 . S
C1133 C1130 1.409 . S
C1133 C1131 1.415 . S
C1134 H1124 0.930 . S
C1134 C1132 1.419 . S
C1134 C1135 1.362 . S
C1135 H1125 0.930 . S
C1135 C1128 1.409 . S
C1135 C1134 1.362 . S
H1136 C1142 0.930 . S
H1137 C1145 0.930 . S
H1138 C1146 0.930 . S
H1139 C1147 0.930 . S
H1140 C1150 0.930 . S
H1141 C1151 0.930 . S
C1142 H1136 0.930 . S
C1142 C1143 1.355 . S
C1142 C1144 1.415 . S
C1143 C1142 1.355 . S
C1143 C1145 1.419 . S
C1144 C1142 1.415 . S
C1144 C1149 1.425 . S
C1144 C1151 1.409 . S
C1145 H1137 0.930 . S
C1145 C1143 1.419 . S
C1145 C1146 1.362 . S
C1146 H1138 0.930 . S
C1146 C1145 1.362 . S
C1146 C1149 1.409 . S
C1147 H1139 0.930 . S
C1147 C1148 1.355 . S
C1147 C1149 1.415 . S
C1148 C1147 1.355 . S
C1148 C1150 1.419 . S
C1149 C1144 1.425 . S
C1149 C1146 1.409 . S
C1149 C1147 1.415 . S
C1150 H1140 0.930 . S
C1150 C1148 1.419 . S
C1150 C1151 1.362 . S
C1151 H1141 0.930 . S
C1151 C1144 1.409 . S
C1151 C1150 1.362 . S
H1152 C1158 0.930 . S
H1153 C1161 0.930 . S
H1154 C1162 0.930 . S
H1155 C1163 0.930 . S
H1156 C1166 0.930 . S
H1157 C1167 0.930 . S
C1158 H1152 0.930 . S
C1158 C1159 1.355 . S
C1158 C1160 1.415 . S
C1159 C1158 1.355 . S
C1159 C1161 1.419 . S
C1160 C1158 1.415 . S
C1160 C1165 1.425 . S
C1160 C1167 1.409 . S
C1161 H1153 0.930 . S
C1161 C1159 1.419 . S
C1161 C1162 1.362 . S
C1162 H1154 0.930 . S
C1162 C1161 1.362 . S
C1162 C1165 1.409 . S
C1163 H1155 0.930 . S
C1163 C1164 1.355 . S
C1163 C1165 1.415 . S
C1164 C1163 1.355 . S
C1164 C1166 1.419 . S
C1165 C1160 1.425 . S
C1165 C1162 1.409 . S
C1165 C1163 1.415 . S
C1166 H1156 0.930 . S
C1166 C1164 1.419 . S
C1166 C1167 1.362 . S
C1167 H1157 0.930 . S
C1167 C1160 1.409 . S
C1167 C1166 1.362 . S
H1168 C1174 0.930 . S
H1169 C1177 0.930 . S
H1170 C1178 0.930 . S
H1171 C1179 0.930 . S
H1172 C1182 0.930 . S
H1173 C1183 0.930 . S
C1174 H1168 0.930 . S
C1174 C1175 1.355 . S
C1174 C1176 1.415 . S
C1175 C1174 1.355 . S
C1175 C1177 1.419 . S
C1176 C1174 1.415 . S
C1176 C1181 1.425 1_455 S
C1176 C1183 1.409 . S
C1177 H1169 0.930 . S
C1177 C1175 1.419 . S
C1177 C1178 1.362 1_455 S
C1178 H1170 0.930 . S
C1178 C1177 1.362 1_655 S
C1178 C1181 1.409 . S
C1179 H1171 0.930 . S
C1179 C1180 1.355 . S
C1179 C1181 1.415 . S
C1180 C1179 1.355 . S
C1180 C1182 1.419 . S
C1181 C1176 1.425 1_655 S
C1181 C1178 1.409 . S
C1181 C1179 1.415 . S
C1182 H1172 0.930 . S
C1182 C1180 1.419 . S
C1182 C1183 1.362 1_655 S
C1183 H1173 0.930 . S
C1183 C1176 1.409 . S
C1183 C1182 1.362 1_455 S
H1184 C1190 0.930 . S
H1185 C1193 0.930 . S
H1186 C1194 0.930 . S
H1187 C1195 0.930 . S
H1188 C1198 0.930 . S
H1189 C1199 0.930 . S
C1190 H1184 0.930 . S
C1190 C1191 1.355 . S
C1190 C1192 1.415 . S
C1191 C1190 1.355 . S
C1191 C1193 1.419 . S
C1192 C1190 1.415 . S
C1192 C1197 1.425 . S
C1192 C1199 1.409 . S
C1193 H1185 0.930 . S
C1193 C1191 1.419 . S
C1193 C1194 1.362 . S
C1194 H1186 0.930 . S
C1194 C1193 1.362 . S
C1194 C1197 1.409 . S
C1195 H1187 0.930 . S
C1195 C1196 1.355 . S
C1195 C1197 1.415 . S
C1196 C1195 1.355 . S
C1196 C1198 1.419 . S
C1197 C1192 1.425 . S
C1197 C1194 1.409 . S
C1197 C1195 1.415 . S
C1198 H1188 0.930 . S
C1198 C1196 1.419 . S
C1198 C1199 1.362 . S
C1199 H1189 0.930 . S
C1199 C1192 1.409 . S
C1199 C1198 1.362 . S
H1200 C1206 0.930 . S
H1201 C1209 0.930 . S
H1202 C1210 0.930 . S
H1203 C1211 0.930 . S
H1204 C1214 0.930 . S
H1205 C1215 0.930 . S
C1206 H1200 0.930 . S
C1206 C1207 1.355 . S
C1206 C1208 1.415 . S
C1207 C1206 1.355 . S
C1207 C1209 1.419 . S
C1208 C1206 1.415 . S
C1208 C1213 1.425 1_455 S
C1208 C1215 1.409 . S
C1209 H1201 0.930 . S
C1209 C1207 1.419 . S
C1209 C1210 1.362 1_455 S
C1210 H1202 0.930 . S
C1210 C1209 1.362 1_655 S
C1210 C1213 1.409 . S
C1211 H1203 0.930 . S
C1211 C1212 1.355 . S
C1211 C1213 1.415 . S
C1212 C1211 1.355 . S
C1212 C1214 1.419 . S
C1213 C1208 1.425 1_655 S
C1213 C1210 1.409 . S
C1213 C1211 1.415 . S
C1214 H1204 0.930 . S
C1214 C1212 1.419 . S
C1214 C1215 1.362 1_655 S
C1215 H1205 0.930 . S
C1215 C1208 1.409 . S
C1215 C1214 1.362 1_455 S
H1216 C1222 0.930 . S
H1217 C1225 0.930 . S
H1218 C1226 0.930 . S
H1219 C1227 0.930 . S
H1220 C1230 0.930 . S
H1221 C1231 0.930 . S
C1222 H1216 0.930 . S
C1222 C1223 1.355 . S
C1222 C1224 1.415 . S
C1223 C1222 1.355 . S
C1223 C1225 1.419 . S
C1224 C1222 1.415 . S
C1224 C1229 1.425 . S
C1224 C1231 1.409 . S
C1225 H1217 0.930 . S
C1225 C1223 1.419 . S
C1225 C1226 1.362 . S
C1226 H1218 0.930 . S
C1226 C1225 1.362 . S
C1226 C1229 1.409 . S
C1227 H1219 0.930 . S
C1227 C1228 1.355 . S
C1227 C1229 1.415 . S
C1228 C1227 1.355 . S
C1228 C1230 1.419 . S
C1229 C1224 1.425 . S
C1229 C1226 1.409 . S
C1229 C1227 1.415 . S
C1230 H1220 0.930 . S
C1230 C1228 1.419 . S
C1230 C1231 1.362 . S
C1231 H1221 0.930 . S
C1231 C1224 1.409 . S
C1231 C1230 1.362 . S
H1232 C1238 0.930 . S
H1233 C1241 0.930 . S
H1234 C1242 0.930 . S
H1235 C1243 0.930 . S
H1236 C1246 0.930 . S
H1237 C1247 0.930 . S
C1238 H1232 0.930 . S
C1238 C1239 1.355 . S
C1238 C1240 1.415 . S
C1239 C1238 1.355 . S
C1239 C1241 1.419 . S
C1240 C1238 1.415 . S
C1240 C1245 1.425 . S
C1240 C1247 1.409 . S
C1241 H1233 0.930 . S
C1241 C1239 1.419 . S
C1241 C1242 1.362 . S
C1242 H1234 0.930 . S
C1242 C1241 1.362 . S
C1242 C1245 1.409 . S
C1243 H1235 0.930 . S
C1243 C1244 1.355 . S
C1243 C1245 1.415 . S
C1244 C1243 1.355 . S
C1244 C1246 1.419 . S
C1245 C1240 1.425 . S
C1245 C1242 1.409 . S
C1245 C1243 1.415 . S
C1246 H1236 0.930 . S
C1246 C1244 1.419 . S
C1246 C1247 1.362 . S
C1247 H1237 0.930 . S
C1247 C1240 1.409 . S
C1247 C1246 1.362 . S
H1248 C1254 0.930 . S
H1249 C1257 0.930 . S
H1250 C1258 0.930 . S
H1251 C1259 0.930 . S
H1252 C1262 0.930 . S
H1253 C1263 0.930 . S
C1254 H1248 0.930 . S
C1254 C1255 1.355 . S
C1254 C1256 1.415 . S
C1255 C1254 1.355 . S
C1255 C1257 1.419 . S
C1256 C1254 1.415 . S
C1256 C1261 1.425 . S
C1256 C1263 1.409 . S
C1257 H1249 0.930 . S
C1257 C1255 1.419 . S
C1257 C1258 1.362 . S
C1258 H1250 0.930 . S
C1258 C1257 1.362 . S
C1258 C1261 1.409 . S
C1259 H1251 0.930 . S
C1259 C1260 1.355 . S
C1259 C1261 1.415 . S
C1260 C1259 1.355 . S
C1260 C1262 1.419 . S
C1261 C1256 1.425 . S
C1261 C1258 1.409 . S
C1261 C1259 1.415 . S
C1262 H1252 0.930 . S
C1262 C1260 1.419 . S
C1262 C1263 1.362 . S
C1263 H1253 0.930 . S
C1263 C1256 1.409 . S
C1263 C1262 1.362 . S
H1264 C1270 0.930 . S
H1265 C1273 0.930 . S
H1266 C1274 0.930 . S
H1267 C1275 0.930 . S
H1268 C1278 0.930 . S
H1269 C1279 0.930 . S
C1270 H1264 0.930 . S
C1270 C1271 1.355 . S
C1270 C1272 1.415 1_455 S
C1271 C1270 1.355 . S
C1271 C1273 1.419 1_565 S
C1272 C1270 1.415 1_655 S
C1272 C1277 1.425 1_665 S
C1272 C1279 1.409 . S
C1273 H1265 0.930 . S
C1273 C1271 1.419 1_545 S
C1273 C1274 1.362 . S
C1274 H1266 0.930 . S
C1274 C1273 1.362 . S
C1274 C1277 1.409 . S
C1275 H1267 0.930 . S
C1275 C1276 1.355 . S
C1275 C1277 1.415 1_655 S
C1276 C1275 1.355 . S
C1276 C1278 1.419 1_545 S
C1277 C1272 1.425 1_445 S
C1277 C1274 1.409 . S
C1277 C1275 1.415 1_455 S
C1278 H1268 0.930 . S
C1278 C1276 1.419 1_565 S
C1278 C1279 1.362 . S
C1279 H1269 0.930 . S
C1279 C1272 1.409 . S
C1279 C1278 1.362 . S
H1280 C1286 0.930 . S
H1281 C1289 0.930 . S
H1282 C1290 0.930 . S
H1283 C1291 0.930 . S
H1284 C1294 0.930 . S
H1285 C1295 0.930 . S
C1286 H1280 0.930 . S
C1286 C1287 1.355 . S
C1286 C1288 1.415 . S
C1287 C1286 1.355 . S
C1287 C1289 1.419 . S
C1288 C1286 1.415 . S
C1288 C1293 1.425 . S
C1288 C1295 1.409 . S
C1289 H1281 0.930 . S
C1289 C1287 1.419 . S
C1289 C1290 1.362 . S
C1290 H1282 0.930 . S
C1290 C1289 1.362 . S
C1290 C1293 1.409 . S
C1291 H1283 0.930 . S
C1291 C1292 1.355 . S
C1291 C1293 1.415 . S
C1292 C1291 1.355 . S
C1292 C1294 1.419 . S
C1293 C1288 1.425 . S
C1293 C1290 1.409 . S
C1293 C1291 1.415 . S
C1294 H1284 0.930 . S
C1294 C1292 1.419 . S
C1294 C1295 1.362 . S
C1295 H1285 0.930 . S
C1295 C1288 1.409 . S
C1295 C1294 1.362 . S
H1296 C1302 0.930 . S
H1297 C1305 0.930 . S
H1298 C1306 0.930 . S
H1299 C1307 0.930 . S
H1300 C1310 0.930 . S
H1301 C1311 0.930 . S
C1302 H1296 0.930 . S
C1302 C1303 1.355 1_565 S
C1302 C1304 1.415 1_554 S
C1303 C1302 1.355 1_545 S
C1303 C1305 1.419 . S
C1304 C1302 1.415 1_556 S
C1304 C1309 1.425 1_566 S
C1304 C1311 1.409 . S
C1305 H1297 0.930 . S
C1305 C1303 1.419 . S
C1305 C1306 1.362 . S
C1306 H1298 0.930 . S
C1306 C1305 1.362 . S
C1306 C1309 1.409 . S
C1307 H1299 0.930 . S
C1307 C1308 1.355 1_545 S
C1307 C1309 1.415 1_556 S
C1308 C1307 1.355 1_565 S
C1308 C1310 1.419 . S
C1309 C1304 1.425 1_544 S
C1309 C1306 1.409 . S
C1309 C1307 1.415 1_554 S
C1310 H1300 0.930 . S
C1310 C1308 1.419 . S
C1310 C1311 1.362 . S
C1311 H1301 0.930 . S
C1311 C1304 1.409 . S
C1311 C1310 1.362 . S
H1312 C1318 0.930 . S
H1313 C1321 0.930 . S
H1314 C1322 0.930 . S
H1315 C1323 0.930 . S
H1316 C1326 0.930 . S
H1317 C1327 0.930 . S
C1318 H1312 0.930 . S
C1318 C1319 1.355 . S
C1318 C1320 1.415 . S
C1319 C1318 1.355 . S
C1319 C1321 1.419 . S
C1320 C1318 1.415 . S
C1320 C1325 1.425 . S
C1320 C1327 1.409 . S
C1321 H1313 0.930 . S
C1321 C1319 1.419 . S
C1321 C1322 1.362 . S
C1322 H1314 0.930 . S
C1322 C1321 1.362 . S
C1322 C1325 1.409 . S
C1323 H1315 0.930 . S
C1323 C1324 1.355 . S
C1323 C1325 1.415 . S
C1324 C1323 1.355 . S
C1324 C1326 1.419 . S
C1325 C1320 1.425 . S
C1325 C1322 1.409 . S
C1325 C1323 1.415 . S
C1326 H1316 0.930 . S
C1326 C1324 1.419 . S
C1326 C1327 1.362 . S
C1327 H1317 0.930 . S
C1327 C1320 1.409 . S
C1327 C1326 1.362 . S
H1328 C1334 0.930 . S
H1329 C1337 0.930 . S
H1330 C1338 0.930 . S
H1331 C1339 0.930 . S
H1332 C1342 0.930 . S
H1333 C1343 0.930 . S
C1334 H1328 0.930 . S
C1334 C1335 1.355 . S
C1334 C1336 1.415 . S
C1335 C1334 1.355 . S
C1335 C1337 1.419 . S
C1336 C1334 1.415 . S
C1336 C1341 1.425 1_565 S
C1336 C1343 1.409 1_565 S
C1337 H1329 0.930 . S
C1337 C1335 1.419 . S
C1337 C1338 1.362 . S
C1338 H1330 0.930 . S
C1338 C1337 1.362 . S
C1338 C1341 1.409 1_565 S
C1339 H1331 0.930 . S
C1339 C1340 1.355 . S
C1339 C1341 1.415 . S
C1340 C1339 1.355 . S
C1340 C1342 1.419 . S
C1341 C1336 1.425 1_545 S
C1341 C1338 1.409 1_545 S
C1341 C1339 1.415 . S
C1342 H1332 0.930 . S
C1342 C1340 1.419 . S
C1342 C1343 1.362 . S
C1343 H1333 0.930 . S
C1343 C1336 1.409 1_545 S
C1343 C1342 1.362 . S
H1344 C1350 0.930 . S
H1345 C1353 0.930 . S
H1346 C1354 0.930 . S
H1347 C1355 0.930 . S
H1348 C1358 0.930 . S
H1349 C1359 0.930 . S
C1350 H1344 0.930 . S
C1350 C1351 1.355 . S
C1350 C1352 1.415 . S
C1351 C1350 1.355 . S
C1351 C1353 1.419 . S
C1352 C1350 1.415 . S
C1352 C1357 1.425 . S
C1352 C1359 1.409 . S
C1353 H1345 0.930 . S
C1353 C1351 1.419 . S
C1353 C1354 1.362 . S
C1354 H1346 0.930 . S
C1354 C1353 1.362 . S
C1354 C1357 1.409 . S
C1355 H1347 0.930 . S
C1355 C1356 1.355 . S
C1355 C1357 1.415 . S
C1356 C1355 1.355 . S
C1356 C1358 1.419 . S
C1357 C1352 1.425 . S
C1357 C1354 1.409 . S
C1357 C1355 1.415 . S
C1358 H1348 0.930 . S
C1358 C1356 1.419 . S
C1358 C1359 1.362 . S
C1359 H1349 0.930 . S
C1359 C1352 1.409 . S
C1359 C1358 1.362 . S
H1360 C1366 0.920 1_564 S
H1361 C1369 0.930 . S
H1362 C1370 0.930 . S
H1363 C1371 0.920 1_546 S
H1364 C1374 0.930 . S
H1365 C1375 0.930 . S
C1366 H1360 0.920 1_546 S
C1366 C1367 1.360 . S
C1366 C1368 1.413 1_546 S
C1367 C1366 1.360 . S
C1367 C1369 1.419 . S
C1368 C1366 1.413 1_564 S
C1368 C1373 1.425 1_464 S
C1368 C1375 1.409 . S
C1369 H1361 0.930 . S
C1369 C1367 1.419 . S
C1369 C1370 1.362 1_455 S
C1370 H1362 0.930 . S
C1370 C1369 1.362 1_655 S
C1370 C1373 1.409 . S
C1371 H1363 0.920 1_564 S
C1371 C1372 1.360 . S
C1371 C1373 1.413 1_564 S
C1372 C1371 1.360 . S
C1372 C1374 1.419 . S
C1373 C1368 1.425 1_646 S
C1373 C1370 1.409 . S
C1373 C1371 1.413 1_546 S
C1374 H1364 0.930 . S
C1374 C1372 1.419 . S
C1374 C1375 1.362 1_655 S
C1375 H1365 0.930 . S
C1375 C1368 1.409 . S
C1375 C1374 1.362 1_455 S
H1376 C1382 0.930 . S
H1377 C1385 0.930 . S
H1378 C1386 0.930 . S
H1379 C1387 0.930 . S
H1380 C1390 0.930 . S
H1381 C1391 0.930 . S
C1382 H1376 0.930 . S
C1382 C1383 1.355 . S
C1382 C1384 1.415 . S
C1383 C1382 1.355 . S
C1383 C1385 1.419 . S
C1384 C1382 1.415 . S
C1384 C1389 1.425 . S
C1384 C1391 1.409 . S
C1385 H1377 0.930 . S
C1385 C1383 1.419 . S
C1385 C1386 1.362 . S
C1386 H1378 0.930 . S
C1386 C1385 1.362 . S
C1386 C1389 1.409 . S
C1387 H1379 0.930 . S
C1387 C1388 1.355 . S
C1387 C1389 1.415 . S
C1388 C1387 1.355 . S
C1388 C1390 1.419 . S
C1389 C1384 1.425 . S
C1389 C1386 1.409 . S
C1389 C1387 1.415 . S
C1390 H1380 0.930 . S
C1390 C1388 1.419 . S
C1390 C1391 1.362 . S
C1391 H1381 0.930 . S
C1391 C1384 1.409 . S
C1391 C1390 1.362 . S
H1392 C1398 0.930 . S
H1393 C1401 0.930 . S
H1394 C1402 0.930 . S
H1395 C1403 0.930 . S
H1396 C1406 0.930 . S
H1397 C1407 0.930 . S
C1398 H1392 0.930 . S
C1398 C1399 1.355 . S
C1398 C1400 1.415 . S
C1399 C1398 1.355 . S
C1399 C1401 1.419 . S
C1400 C1398 1.415 . S
C1400 C1405 1.425 . S
C1400 C1407 1.409 . S
C1401 H1393 0.930 . S
C1401 C1399 1.419 . S
C1401 C1402 1.362 . S
C1402 H1394 0.930 . S
C1402 C1401 1.362 . S
C1402 C1405 1.409 . S
C1403 H1395 0.930 . S
C1403 C1404 1.355 . S
C1403 C1405 1.415 . S
C1404 C1403 1.355 . S
C1404 C1406 1.419 . S
C1405 C1400 1.425 . S
C1405 C1402 1.409 . S
C1405 C1403 1.415 . S
C1406 H1396 0.930 . S
C1406 C1404 1.419 . S
C1406 C1407 1.362 . S
C1407 H1397 0.930 . S
C1407 C1400 1.409 . S
C1407 C1406 1.362 . S
H1408 C1414 0.930 . S
H1409 C1417 0.930 . S
H1410 C1418 0.930 . S
H1411 C1419 0.930 . S
H1412 C1422 0.930 . S
H1413 C1423 0.930 . S
C1414 H1408 0.930 . S
C1414 C1415 1.355 . S
C1414 C1416 1.415 . S
C1415 C1414 1.355 . S
C1415 C1417 1.419 . S
C1416 C1414 1.415 . S
C1416 C1421 1.425 . S
C1416 C1423 1.409 . S
C1417 H1409 0.930 . S
C1417 C1415 1.419 . S
C1417 C1418 1.362 . S
C1418 H1410 0.930 . S
C1418 C1417 1.362 . S
C1418 C1421 1.409 . S
C1419 H1411 0.930 . S
C1419 C1420 1.355 . S
C1419 C1421 1.415 . S
C1420 C1419 1.355 . S
C1420 C1422 1.419 . S
C1421 C1416 1.425 . S
C1421 C1418 1.409 . S
C1421 C1419 1.415 . S
C1422 H1412 0.930 . S
C1422 C1420 1.419 . S
C1422 C1423 1.362 . S
C1423 H1413 0.930 . S
C1423 C1416 1.409 . S
C1423 C1422 1.362 . S
H1424 C1430 0.930 . S
H1425 C1433 0.930 . S
H1426 C1434 0.930 . S
H1427 C1435 0.930 . S
H1428 C1438 0.930 . S
H1429 C1439 0.930 . S
C1430 H1424 0.930 . S
C1430 C1431 1.355 . S
C1430 C1432 1.415 . S
C1431 C1430 1.355 . S
C1431 C1433 1.419 . S
C1432 C1430 1.415 . S
C1432 C1437 1.425 . S
C1432 C1439 1.409 . S
C1433 H1425 0.930 . S
C1433 C1431 1.419 . S
C1433 C1434 1.362 . S
C1434 H1426 0.930 . S
C1434 C1433 1.362 . S
C1434 C1437 1.409 . S
C1435 H1427 0.930 . S
C1435 C1436 1.355 . S
C1435 C1437 1.415 . S
C1436 C1435 1.355 . S
C1436 C1438 1.419 . S
C1437 C1432 1.425 . S
C1437 C1434 1.409 . S
C1437 C1435 1.415 . S
C1438 H1428 0.930 . S
C1438 C1436 1.419 . S
C1438 C1439 1.362 . S
C1439 H1429 0.930 . S
C1439 C1432 1.409 . S
C1439 C1438 1.362 . S
H1440 C1446 0.930 . S
H1441 C1449 0.930 . S
H1442 C1450 0.930 . S
H1443 C1451 0.930 . S
H1444 C1454 0.930 . S
H1445 C1455 0.930 . S
C1446 H1440 0.930 . S
C1446 C1447 1.355 . S
C1446 C1448 1.415 . S
C1447 C1446 1.355 . S
C1447 C1449 1.419 . S
C1448 C1446 1.415 . S
C1448 C1453 1.425 1_554 S
C1448 C1455 1.409 . S
C1449 H1441 0.930 . S
C1449 C1447 1.419 . S
C1449 C1450 1.362 1_554 S
C1450 H1442 0.930 . S
C1450 C1449 1.362 1_556 S
C1450 C1453 1.409 . S
C1451 H1443 0.930 . S
C1451 C1452 1.355 . S
C1451 C1453 1.415 . S
C1452 C1451 1.355 . S
C1452 C1454 1.419 . S
C1453 C1448 1.425 1_556 S
C1453 C1450 1.409 . S
C1453 C1451 1.415 . S
C1454 H1444 0.930 . S
C1454 C1452 1.419 . S
C1454 C1455 1.362 1_556 S
C1455 H1445 0.930 . S
C1455 C1448 1.409 . S
C1455 C1454 1.362 1_554 S
H1456 C1462 0.930 . S
H1457 C1465 0.930 . S
H1458 C1466 0.930 . S
H1459 C1467 0.930 . S
H1460 C1470 0.930 . S
H1461 C1471 0.930 . S
C1462 H1456 0.930 . S
C1462 C1463 1.355 . S
C1462 C1464 1.415 . S
C1463 C1462 1.355 . S
C1463 C1465 1.419 . S
C1464 C1462 1.415 . S
C1464 C1469 1.425 1_455 S
C1464 C1471 1.409 . S
C1465 H1457 0.930 . S
C1465 C1463 1.419 . S
C1465 C1466 1.362 1_455 S
C1466 H1458 0.930 . S
C1466 C1465 1.362 1_655 S
C1466 C1469 1.409 . S
C1467 H1459 0.930 . S
C1467 C1468 1.355 . S
C1467 C1469 1.415 . S
C1468 C1467 1.355 . S
C1468 C1470 1.419 . S
C1469 C1464 1.425 1_655 S
C1469 C1466 1.409 . S
C1469 C1467 1.415 . S
C1470 H1460 0.930 . S
C1470 C1468 1.419 . S
C1470 C1471 1.362 1_655 S
C1471 H1461 0.930 . S
C1471 C1464 1.409 . S
C1471 C1470 1.362 1_455 S
H1472 C1478 0.930 . S
H1473 C1481 0.930 . S
H1474 C1482 0.930 . S
H1475 C1483 0.930 . S
H1476 C1486 0.930 . S
H1477 C1487 0.930 . S
C1478 H1472 0.930 . S
C1478 C1479 1.355 . S
C1478 C1480 1.415 1_554 S
C1479 C1478 1.355 . S
C1479 C1481 1.419 . S
C1480 C1478 1.415 1_556 S
C1480 C1485 1.425 1_456 S
C1480 C1487 1.409 . S
C1481 H1473 0.930 . S
C1481 C1479 1.419 . S
C1481 C1482 1.362 1_455 S
C1482 H1474 0.930 . S
C1482 C1481 1.362 1_655 S
C1482 C1485 1.409 . S
C1483 H1475 0.930 . S
C1483 C1484 1.355 . S
C1483 C1485 1.415 1_556 S
C1484 C1483 1.355 . S
C1484 C1486 1.419 . S
C1485 C1480 1.425 1_654 S
C1485 C1482 1.409 . S
C1485 C1483 1.415 1_554 S
C1486 H1476 0.930 . S
C1486 C1484 1.419 . S
C1486 C1487 1.362 1_655 S
C1487 H1477 0.930 . S
C1487 C1480 1.409 . S
C1487 C1486 1.362 1_455 S
H1488 C1494 0.930 . S
H1489 C1497 0.930 . S
H1490 C1498 0.930 . S
H1491 C1499 0.930 . S
H1492 C1502 0.930 . S
H1493 C1503 0.930 . S
C1494 H1488 0.930 . S
C1494 C1495 1.355 . S
C1494 C1496 1.415 . S
C1495 C1494 1.355 . S
C1495 C1497 1.419 . S
C1496 C1494 1.415 . S
C1496 C1501 1.425 . S
C1496 C1503 1.409 . S
C1497 H1489 0.930 . S
C1497 C1495 1.419 . S
C1497 C1498 1.362 . S
C1498 H1490 0.930 . S
C1498 C1497 1.362 . S
C1498 C1501 1.409 . S
C1499 H1491 0.930 . S
C1499 C1500 1.355 . S
C1499 C1501 1.415 . S
C1500 C1499 1.355 . S
C1500 C1502 1.419 . S
C1501 C1496 1.425 . S
C1501 C1498 1.409 . S
C1501 C1499 1.415 . S
C1502 H1492 0.930 . S
C1502 C1500 1.419 . S
C1502 C1503 1.362 . S
C1503 H1493 0.930 . S
C1503 C1496 1.409 . S
C1503 C1502 1.362 . S
H1504 C1510 0.930 1_565 S
H1505 C1513 0.930 . S
H1506 C1514 0.930 . S
H1507 C1515 0.930 1_545 S
H1508 C1518 0.930 . S
H1509 C1519 0.930 . S
C1510 H1504 0.930 1_545 S
C1510 C1511 1.355 . S
C1510 C1512 1.415 1_545 S
C1511 C1510 1.355 . S
C1511 C1513 1.419 . S
C1512 C1510 1.415 1_565 S
C1512 C1517 1.425 1_565 S
C1512 C1519 1.409 . S
C1513 H1505 0.930 . S
C1513 C1511 1.419 . S
C1513 C1514 1.362 . S
C1514 H1506 0.930 . S
C1514 C1513 1.362 . S
C1514 C1517 1.409 . S
C1515 H1507 0.930 1_565 S
C1515 C1516 1.355 . S
C1515 C1517 1.415 1_565 S
C1516 C1515 1.355 . S
C1516 C1518 1.419 . S
C1517 C1512 1.425 1_545 S
C1517 C1514 1.409 . S
C1517 C1515 1.415 1_545 S
C1518 H1508 0.930 . S
C1518 C1516 1.419 . S
C1518 C1519 1.362 . S
C1519 H1509 0.930 . S
C1519 C1512 1.409 . S
C1519 C1518 1.362 . S
H1520 C1526 0.930 . S
H1521 C1529 0.930 . S
H1522 C1530 0.930 . S
H1523 C1531 0.930 . S
H1524 C1534 0.930 . S
H1525 C1535 0.930 . S
C1526 H1520 0.930 . S
C1526 C1527 1.355 . S
C1526 C1528 1.415 . S
C1527 C1526 1.355 . S
C1527 C1529 1.419 . S
C1528 C1526 1.415 . S
C1528 C1533 1.425 . S
C1528 C1535 1.409 . S
C1529 H1521 0.930 . S
C1529 C1527 1.419 . S
C1529 C1530 1.362 . S
C1530 H1522 0.930 . S
C1530 C1529 1.362 . S
C1530 C1533 1.409 . S
C1531 H1523 0.930 . S
C1531 C1532 1.355 . S
C1531 C1533 1.415 . S
C1532 C1531 1.355 . S
C1532 C1534 1.419 . S
C1533 C1528 1.425 . S
C1533 C1530 1.409 . S
C1533 C1531 1.415 . S
C1534 H1524 0.930 . S
C1534 C1532 1.419 . S
C1534 C1535 1.362 . S
C1535 H1525 0.930 . S
C1535 C1528 1.409 . S
C1535 C1534 1.362 . S
H1536 C1542 0.930 . S
H1537 C1545 0.930 . S
H1538 C1546 0.930 . S
H1539 C1547 0.930 . S
H1540 C1550 0.930 . S
H1541 C1551 0.930 . S
C1542 H1536 0.930 . S
C1542 C1543 1.355 . S
C1542 C1544 1.415 . S
C1543 C1542 1.355 . S
C1543 C1545 1.419 . S
C1544 C1542 1.415 . S
C1544 C1549 1.425 1_545 S
C1544 C1551 1.409 . S
C1545 H1537 0.930 . S
C1545 C1543 1.419 . S
C1545 C1546 1.362 1_545 S
C1546 H1538 0.930 . S
C1546 C1545 1.362 1_565 S
C1546 C1549 1.409 . S
C1547 H1539 0.930 . S
C1547 C1548 1.355 . S
C1547 C1549 1.415 . S
C1548 C1547 1.355 . S
C1548 C1550 1.419 . S
C1549 C1544 1.425 1_565 S
C1549 C1546 1.409 . S
C1549 C1547 1.415 . S
C1550 H1540 0.930 . S
C1550 C1548 1.419 . S
C1550 C1551 1.362 1_565 S
C1551 H1541 0.930 . S
C1551 C1544 1.409 . S
C1551 C1550 1.362 1_545 S
H1552 C1558 0.930 . S
H1553 C1561 0.930 . S
H1554 C1562 0.927 . S
H1555 C1563 0.930 . S
H1556 C1566 0.930 . S
H1557 C1567 0.927 . S
C1558 H1552 0.930 . S
C1558 C1559 1.355 . S
C1558 C1560 1.415 . S
C1559 C1558 1.355 . S
C1559 C1561 1.419 . S
C1560 C1558 1.415 . S
C1560 C1565 1.425 1_554 S
C1560 C1567 1.409 1_554 S
C1561 H1553 0.930 . S
C1561 C1559 1.419 . S
C1561 C1562 1.362 . S
C1562 H1554 0.927 . S
C1562 C1561 1.362 . S
C1562 C1565 1.409 1_554 S
C1563 H1555 0.930 . S
C1563 C1564 1.355 . S
C1563 C1565 1.415 . S
C1564 C1563 1.355 . S
C1564 C1566 1.419 . S
C1565 C1560 1.425 1_556 S
C1565 C1562 1.409 1_556 S
C1565 C1563 1.415 . S
C1566 H1556 0.930 . S
C1566 C1564 1.419 . S
C1566 C1567 1.362 . S
C1567 H1557 0.927 . S
C1567 C1560 1.409 1_556 S
C1567 C1566 1.362 . S
H1568 C1574 0.930 . S
H1569 C1577 0.930 . S
H1570 C1578 0.930 . S
H1571 C1579 0.930 . S
H1572 C1582 0.930 . S
H1573 C1583 0.930 . S
C1574 H1568 0.930 . S
C1574 C1575 1.355 . S
C1574 C1576 1.415 . S
C1575 C1574 1.355 . S
C1575 C1577 1.419 . S
C1576 C1574 1.415 . S
C1576 C1581 1.425 1_545 S
C1576 C1583 1.409 . S
C1577 H1569 0.930 . S
C1577 C1575 1.419 . S
C1577 C1578 1.362 1_545 S
C1578 H1570 0.930 . S
C1578 C1577 1.362 1_565 S
C1578 C1581 1.409 . S
C1579 H1571 0.930 . S
C1579 C1580 1.355 . S
C1579 C1581 1.415 . S
C1580 C1579 1.355 . S
C1580 C1582 1.419 . S
C1581 C1576 1.425 1_565 S
C1581 C1578 1.409 . S
C1581 C1579 1.415 . S
C1582 H1572 0.930 . S
C1582 C1580 1.419 . S
C1582 C1583 1.362 1_565 S
C1583 H1573 0.930 . S
C1583 C1576 1.409 . S
C1583 C1582 1.362 1_545 S
H1584 C1590 0.930 . S
H1585 C1593 0.930 . S
H1586 C1594 0.930 . S
H1587 C1595 0.930 . S
H1588 C1598 0.930 . S
H1589 C1599 0.930 . S
C1590 H1584 0.930 . S
C1590 C1591 1.355 . S
C1590 C1592 1.415 . S
C1591 C1590 1.355 . S
C1591 C1593 1.419 . S
C1592 C1590 1.415 . S
C1592 C1597 1.425 . S
C1592 C1599 1.409 . S
C1593 H1585 0.930 . S
C1593 C1591 1.419 . S
C1593 C1594 1.362 . S
C1594 H1586 0.930 . S
C1594 C1593 1.362 . S
C1594 C1597 1.409 . S
C1595 H1587 0.930 . S
C1595 C1596 1.355 . S
C1595 C1597 1.415 . S
C1596 C1595 1.355 . S
C1596 C1598 1.419 . S
C1597 C1592 1.425 . S
C1597 C1594 1.409 . S
C1597 C1595 1.415 . S
C1598 H1588 0.930 . S
C1598 C1596 1.419 . S
C1598 C1599 1.362 . S
C1599 H1589 0.930 . S
C1599 C1592 1.409 . S
C1599 C1598 1.362 . S
H1600 C1606 0.930 . S
H1601 C1609 0.930 . S
H1602 C1610 0.930 . S
H1603 C1611 0.930 . S
H1604 C1614 0.930 . S
H1605 C1615 0.930 . S
C1606 H1600 0.930 . S
C1606 C1607 1.355 . S
C1606 C1608 1.415 . S
C1607 C1606 1.355 . S
C1607 C1609 1.419 1_545 S
C1608 C1606 1.415 . S
C1608 C1613 1.425 1_545 S
C1608 C1615 1.409 . S
C1609 H1601 0.930 . S
C1609 C1607 1.419 1_565 S
C1609 C1610 1.362 . S
C1610 H1602 0.930 . S
C1610 C1609 1.362 . S
C1610 C1613 1.409 . S
C1611 H1603 0.930 . S
C1611 C1612 1.355 . S
C1611 C1613 1.415 . S
C1612 C1611 1.355 . S
C1612 C1614 1.419 1_565 S
C1613 C1608 1.425 1_565 S
C1613 C1610 1.409 . S
C1613 C1611 1.415 . S
C1614 H1604 0.930 . S
C1614 C1612 1.419 1_545 S
C1614 C1615 1.362 . S
C1615 H1605 0.930 . S
C1615 C1608 1.409 . S
C1615 C1614 1.362 . S
H1616 C1622 0.930 . S
H1617 C1625 0.930 . S
H1618 C1626 0.930 . S
H1619 C1627 0.930 . S
H1620 C1630 0.930 . S
H1621 C1631 0.930 . S
C1622 H1616 0.930 . S
C1622 C1623 1.355 . S
C1622 C1624 1.415 1_556 S
C1623 C1622 1.355 . S
C1623 C1625 1.419 . S
C1624 C1622 1.415 1_554 S
C1624 C1629 1.425 1_554 S
C1624 C1631 1.409 . S
C1625 H1617 0.930 . S
C1625 C1623 1.419 . S
C1625 C1626 1.362 . S
C1626 H1618 0.930 . S
C1626 C1625 1.362 . S
C1626 C1629 1.409 . S
C1627 H1619 0.930 . S
C1627 C1628 1.355 . S
C1627 C1629 1.415 1_554 S
C1628 C1627 1.355 . S
C1628 C1630 1.419 . S
C1629 C1624 1.425 1_556 S
C1629 C1626 1.409 . S
C1629 C1627 1.415 1_556 S
C1630 H1620 0.930 . S
C1630 C1628 1.419 . S
C1630 C1631 1.362 . S
C1631 H1621 0.930 . S
C1631 C1624 1.409 . S
C1631 C1630 1.362 . S
H1632 C1638 0.930 . S
H1633 C1641 0.930 . S
H1634 C1642 0.930 . S
H1635 C1643 0.930 . S
H1636 C1646 0.930 . S
H1637 C1647 0.930 . S
C1638 H1632 0.930 . S
C1638 C1639 1.355 . S
C1638 C1640 1.415 . S
C1639 C1638 1.355 . S
C1639 C1641 1.419 . S
C1640 C1638 1.415 . S
C1640 C1645 1.425 . S
C1640 C1647 1.409 . S
C1641 H1633 0.930 . S
C1641 C1639 1.419 . S
C1641 C1642 1.362 . S
C1642 H1634 0.930 . S
C1642 C1641 1.362 . S
C1642 C1645 1.409 . S
C1643 H1635 0.930 . S
C1643 C1644 1.355 . S
C1643 C1645 1.415 . S
C1644 C1643 1.355 . S
C1644 C1646 1.419 . S
C1645 C1640 1.425 . S
C1645 C1642 1.409 . S
C1645 C1643 1.415 . S
C1646 H1636 0.930 . S
C1646 C1644 1.419 . S
C1646 C1647 1.362 . S
C1647 H1637 0.930 . S
C1647 C1640 1.409 . S
C1647 C1646 1.362 . S
H1648 C1654 0.930 . S
H1649 C1657 0.930 . S
H1650 C1658 0.930 . S
H1651 C1659 0.930 . S
H1652 C1662 0.930 . S
H1653 C1663 0.930 . S
C1654 H1648 0.930 . S
C1654 C1655 1.355 . S
C1654 C1656 1.415 1_556 S
C1655 C1654 1.355 . S
C1655 C1657 1.419 . S
C1656 C1654 1.415 1_554 S
C1656 C1661 1.425 1_554 S
C1656 C1663 1.409 . S
C1657 H1649 0.930 . S
C1657 C1655 1.419 . S
C1657 C1658 1.362 . S
C1658 H1650 0.930 . S
C1658 C1657 1.362 . S
C1658 C1661 1.409 . S
C1659 H1651 0.930 . S
C1659 C1660 1.355 . S
C1659 C1661 1.415 1_554 S
C1660 C1659 1.355 . S
C1660 C1662 1.419 . S
C1661 C1656 1.425 1_556 S
C1661 C1658 1.409 . S
C1661 C1659 1.415 1_556 S
C1662 H1652 0.930 . S
C1662 C1660 1.419 . S
C1662 C1663 1.362 . S
C1663 H1653 0.930 . S
C1663 C1656 1.409 . S
C1663 C1662 1.362 . S
H1664 C1670 0.930 . S
H1665 C1673 0.930 . S
H1666 C1674 0.930 . S
H1667 C1675 0.930 . S
H1668 C1678 0.930 . S
H1669 C1679 0.930 . S
C1670 H1664 0.930 . S
C1670 C1671 1.355 . S
C1670 C1672 1.415 . S
C1671 C1670 1.355 . S
C1671 C1673 1.419 . S
C1672 C1670 1.415 . S
C1672 C1677 1.425 . S
C1672 C1679 1.409 . S
C1673 H1665 0.930 . S
C1673 C1671 1.419 . S
C1673 C1674 1.362 . S
C1674 H1666 0.930 . S
C1674 C1673 1.362 . S
C1674 C1677 1.409 . S
C1675 H1667 0.930 . S
C1675 C1676 1.355 . S
C1675 C1677 1.415 . S
C1676 C1675 1.355 . S
C1676 C1678 1.419 . S
C1677 C1672 1.425 . S
C1677 C1674 1.409 . S
C1677 C1675 1.415 . S
C1678 H1668 0.930 . S
C1678 C1676 1.419 . S
C1678 C1679 1.362 . S
C1679 H1669 0.930 . S
C1679 C1672 1.409 . S
C1679 C1678 1.362 . S
H1680 C1686 0.930 . S
H1681 C1689 0.930 . S
H1682 C1690 0.930 . S
H1683 C1691 0.930 . S
H1684 C1694 0.930 . S
H1685 C1695 0.930 . S
C1686 H1680 0.930 . S
C1686 C1687 1.355 . S
C1686 C1688 1.415 . S
C1687 C1686 1.355 . S
C1687 C1689 1.419 . S
C1688 C1686 1.415 . S
C1688 C1693 1.425 . S
C1688 C1695 1.409 . S
C1689 H1681 0.930 . S
C1689 C1687 1.419 . S
C1689 C1690 1.362 . S
C1690 H1682 0.930 . S
C1690 C1689 1.362 . S
C1690 C1693 1.409 . S
C1691 H1683 0.930 . S
C1691 C1692 1.355 . S
C1691 C1693 1.415 . S
C1692 C1691 1.355 . S
C1692 C1694 1.419 . S
C1693 C1688 1.425 . S
C1693 C1690 1.409 . S
C1693 C1691 1.415 . S
C1694 H1684 0.930 . S
C1694 C1692 1.419 . S
C1694 C1695 1.362 . S
C1695 H1685 0.930 . S
C1695 C1688 1.409 . S
C1695 C1694 1.362 . S
H1696 C1702 0.930 . S
H1697 C1705 0.930 . S
H1698 C1706 0.930 . S
H1699 C1707 0.930 . S
H1700 C1710 0.930 . S
H1701 C1711 0.930 . S
C1702 H1696 0.930 . S
C1702 C1703 1.355 . S
C1702 C1704 1.415 . S
C1703 C1702 1.355 . S
C1703 C1705 1.419 . S
C1704 C1702 1.415 . S
C1704 C1709 1.425 . S
C1704 C1711 1.409 . S
C1705 H1697 0.930 . S
C1705 C1703 1.419 . S
C1705 C1706 1.362 . S
C1706 H1698 0.930 . S
C1706 C1705 1.362 . S
C1706 C1709 1.409 . S
C1707 H1699 0.930 . S
C1707 C1708 1.355 . S
C1707 C1709 1.415 . S
C1708 C1707 1.355 . S
C1708 C1710 1.419 . S
C1709 C1704 1.425 . S
C1709 C1706 1.409 . S
C1709 C1707 1.415 . S
C1710 H1700 0.930 . S
C1710 C1708 1.419 . S
C1710 C1711 1.362 . S
C1711 H1701 0.930 . S
C1711 C1704 1.409 . S
C1711 C1710 1.362 . S
H1712 C1718 0.930 . S
H1713 C1721 0.930 . S
H1714 C1722 0.930 . S
H1715 C1723 0.930 . S
H1716 C1726 0.930 . S
H1717 C1727 0.930 . S
C1718 H1712 0.930 . S
C1718 C1719 1.355 . S
C1718 C1720 1.415 . S
C1719 C1718 1.355 . S
C1719 C1721 1.419 . S
C1720 C1718 1.415 . S
C1720 C1725 1.425 1_556 S
C1720 C1727 1.409 1_556 S
C1721 H1713 0.930 . S
C1721 C1719 1.419 . S
C1721 C1722 1.362 . S
C1722 H1714 0.930 . S
C1722 C1721 1.362 . S
C1722 C1725 1.409 1_556 S
C1723 H1715 0.930 . S
C1723 C1724 1.355 . S
C1723 C1725 1.415 . S
C1724 C1723 1.355 . S
C1724 C1726 1.419 . S
C1725 C1720 1.425 1_554 S
C1725 C1722 1.409 1_554 S
C1725 C1723 1.415 . S
C1726 H1716 0.930 . S
C1726 C1724 1.419 . S
C1726 C1727 1.362 . S
C1727 H1717 0.930 . S
C1727 C1720 1.409 1_554 S
C1727 C1726 1.362 . S
H1728 C1734 0.930 . S
H1729 C1737 0.930 . S
H1730 C1738 0.930 . S
H1731 C1739 0.930 . S
H1732 C1742 0.930 . S
H1733 C1743 0.930 . S
C1734 H1728 0.930 . S
C1734 C1735 1.355 . S
C1734 C1736 1.415 . S
C1735 C1734 1.355 . S
C1735 C1737 1.419 . S
C1736 C1734 1.415 . S
C1736 C1741 1.425 . S
C1736 C1743 1.409 . S
C1737 H1729 0.930 . S
C1737 C1735 1.419 . S
C1737 C1738 1.362 . S
C1738 H1730 0.930 . S
C1738 C1737 1.362 . S
C1738 C1741 1.409 . S
C1739 H1731 0.930 . S
C1739 C1740 1.355 . S
C1739 C1741 1.415 . S
C1740 C1739 1.355 . S
C1740 C1742 1.419 . S
C1741 C1736 1.425 . S
C1741 C1738 1.409 . S
C1741 C1739 1.415 . S
C1742 H1732 0.930 . S
C1742 C1740 1.419 . S
C1742 C1743 1.362 . S
C1743 H1733 0.930 . S
C1743 C1736 1.409 . S
C1743 C1742 1.362 . S
H1744 C1750 0.930 . S
H1745 C1753 0.930 . S
H1746 C1754 0.930 . S
H1747 C1755 0.930 . S
H1748 C1758 0.930 . S
H1749 C1759 0.930 . S
C1750 H1744 0.930 . S
C1750 C1751 1.355 . S
C1750 C1752 1.415 . S
C1751 C1750 1.355 . S
C1751 C1753 1.419 . S
C1752 C1750 1.415 . S
C1752 C1757 1.425 . S
C1752 C1759 1.409 . S
C1753 H1745 0.930 . S
C1753 C1751 1.419 . S
C1753 C1754 1.362 . S
C1754 H1746 0.930 . S
C1754 C1753 1.362 . S
C1754 C1757 1.409 . S
C1755 H1747 0.930 . S
C1755 C1756 1.355 . S
C1755 C1757 1.415 . S
C1756 C1755 1.355 . S
C1756 C1758 1.419 . S
C1757 C1752 1.425 . S
C1757 C1754 1.409 . S
C1757 C1755 1.415 . S
C1758 H1748 0.930 . S
C1758 C1756 1.419 . S
C1758 C1759 1.362 . S
C1759 H1749 0.930 . S
C1759 C1752 1.409 . S
C1759 C1758 1.362 . S
C743 N633 1.483 . S
C748 C7 1.493 . S
C759 C30 1.482 . S
C764 N196 1.468 . S
C775 N587 1.491 . S
C780 C53 1.496 . S
C791 C76 1.463 . S
C796 N242 1.450 . S
C807 C99 1.497 . S
C812 N679 1.492 . S
C823 C122 1.484 . S
C828 N334 1.485 . S
C839 C145 1.495 . S
C844 N725 1.494 . S
C855 C168 1.474 . S
C860 N288 1.459 . S
C871 N449 1.450 . S
C876 C191 1.462 . S
C887 N12 1.450 . S
C892 C214 1.462 . S
C903 N403 1.483 . S
C908 C237 1.492 . S
C919 C260 1.486 . S
C924 N58 1.487 . S
C935 N495 1.467 . S
C940 C283 1.469 . S
C951 N150 1.493 . S
C956 C306 1.497 . S
C967 C329 1.487 . S
C972 N541 1.475 . S
C983 N104 1.450 . S
C988 C352 1.464 . S
C999 C375 1.471 . S
C1004 N265 1.456 . S
C1015 C398 1.486 . S
C1020 N564 1.487 . S
C1031 N219 1.494 . S
C1036 C421 1.495 . S
C1047 N610 1.493 . S
C1052 C444 1.494 . S
C1063 N311 1.450 . S
C1068 C467 1.461 . S
C1079 N702 1.489 . S
C1084 C490 1.488 . S
C1095 N357 1.468 . S
C1100 C513 1.470 . S
C1111 C536 1.478 . S
C1116 N656 1.464 . S
C1127 N81 1.450 . S
C1132 C559 1.464 . S
C1143 C582 1.497 . S
C1148 N380 1.493 . S
C1159 C605 1.490 . S
C1164 N35 1.479 . S
C1175 C628 1.461 . S
C1180 N426 1.452 . S
C1191 C651 1.461 . S
C1196 N127 1.451 . S
C1207 C674 1.462 . S
C1212 N518 1.454 . S
C1223 C697 1.494 . S
C1228 N173 1.486 . S
C1239 C720 1.495 . S
C1244 N472 1.488 . S
C1255 N554 1.387 . S
C1260 N2 1.387 . S
C1271 N25 1.469 . S
C1276 N209 1.469 . S
C1287 N600 1.469 . S
C1292 N48 1.469 . S
C1303 N71 1.360 . S
C1308 N255 1.360 . S
C1319 N646 1.466 . S
C1324 N94 1.466 . S
C1335 N117 1.432 . S
C1340 N301 1.432 . S
C1351 N692 1.413 . S
C1356 N140 1.413 . S
C1367 N163 1.379 . S
C1372 N347 1.379 . S
C1383 N186 1.453 . S
C1388 N370 1.453 . S
C1399 N232 1.459 . S
C1404 N416 1.459 . S
C1415 N278 1.464 . S
C1420 N462 1.464 . S
C1431 N324 1.363 . S
C1436 N508 1.363 . S
C1447 N393 1.440 . S
C1452 N577 1.440 . S
C1463 N623 1.350 . S
C1468 N439 1.350 . S
C1479 N669 1.349 . S
C1484 N485 1.349 . S
C1495 N531 1.451 . S
C1500 N715 1.451 . S
C1511 C16 2.116 . S
C1516 C108 2.118 . S
C1527 C39 2.118 . S
C1532 C131 2.122 . S
C1543 C154 2.119 . S
C1548 C62 2.122 . S
C1559 C85 2.120 . S
C1564 C177 2.116 . S
C1575 C292 2.122 . S
C1580 C200 2.118 . S
C1591 C315 2.118 . S
C1596 C223 2.117 . S
C1607 C246 2.120 . S
C1612 C338 2.121 . S
C1623 C269 2.121 . S
C1628 C361 2.120 . S
C1639 C476 2.116 . S
C1644 C384 2.120 . S
C1655 C499 2.121 . S
C1660 C407 2.119 . S
C1671 C430 2.116 . S
C1676 C522 2.120 . S
C1687 C545 2.121 . S
C1692 C453 2.120 . S
C1703 C660 2.120 . S
C1708 C568 2.121 . S
C1719 C591 2.116 . S
C1724 C683 2.120 . S
C1735 C706 2.116 . S
C1740 C614 2.121 . S
C1751 C637 2.121 . S
C1756 C729 2.120 . S
