# Generated by pormake.
# Topology ukv, (4)-cn, num edge types: 1
# Building blocks:
#     Node 0, Type 0, BuildingBlock: NAHDIM_clean_sbu_0, # of connection points: 4
#     Node 1, Type 0, BuildingBlock: NAHDIM_clean_sbu_0, # of connection points: 4
#     Node 2, Type 0, BuildingBlock: NAHDIM_clean_sbu_0, # of connection points: 4
#     Node 3, Type 0, BuildingBlock: NAHDIM_clean_sbu_0, # of connection points: 4
#     Node 4, Type 0, BuildingBlock: NAHDIM_clean_sbu_0, # of connection points: 4
#     Node 5, Type 0, BuildingBlock: NAHDIM_clean_sbu_0, # of connection points: 4
#     Node 6, Type 0, BuildingBlock: NAHDIM_clean_sbu_0, # of connection points: 4
#     Node 7, Type 0, BuildingBlock: NAHDIM_clean_sbu_0, # of connection points: 4
#     Node 8, Type 0, BuildingBlock: NAHDIM_clean_sbu_0, # of connection points: 4
#     Node 9, Type 0, BuildingBlock: NAHDIM_clean_sbu_0, # of connection points: 4
#     Node 10, Type 0, BuildingBlock: NAHDIM_clean_sbu_0, # of connection points: 4
#     Node 11, Type 0, BuildingBlock: NAHDIM_clean_sbu_0, # of connection points: 4
#     Node 12, Type 0, BuildingBlock: NAHDIM_clean_sbu_0, # of connection points: 4
#     Node 13, Type 0, BuildingBlock: NAHDIM_clean_sbu_0, # of connection points: 4
#     Node 14, Type 0, BuildingBlock: NAHDIM_clean_sbu_0, # of connection points: 4
#     Node 15, Type 0, BuildingBlock: NAHDIM_clean_sbu_0, # of connection points: 4
#     Node 16, Type 0, BuildingBlock: NAHDIM_clean_sbu_0, # of connection points: 4
#     Node 17, Type 0, BuildingBlock: NAHDIM_clean_sbu_0, # of connection points: 4
#     Node 18, Type 0, BuildingBlock: NAHDIM_clean_sbu_0, # of connection points: 4
#     Node 19, Type 0, BuildingBlock: NAHDIM_clean_sbu_0, # of connection points: 4
#     Node 20, Type 0, BuildingBlock: NAHDIM_clean_sbu_0, # of connection points: 4
#     Node 21, Type 0, BuildingBlock: NAHDIM_clean_sbu_0, # of connection points: 4
#     Node 22, Type 0, BuildingBlock: NAHDIM_clean_sbu_0, # of connection points: 4
#     Node 23, Type 0, BuildingBlock: NAHDIM_clean_sbu_0, # of connection points: 4
#     Node 24, Type 0, BuildingBlock: NAHDIM_clean_sbu_0, # of connection points: 4
#     Node 25, Type 0, BuildingBlock: NAHDIM_clean_sbu_0, # of connection points: 4
#     Node 26, Type 0, BuildingBlock: NAHDIM_clean_sbu_0, # of connection points: 4
#     Node 27, Type 0, BuildingBlock: NAHDIM_clean_sbu_0, # of connection points: 4
#     Node 28, Type 0, BuildingBlock: NAHDIM_clean_sbu_0, # of connection points: 4
#     Node 29, Type 0, BuildingBlock: NAHDIM_clean_sbu_0, # of connection points: 4
#     Node 30, Type 0, BuildingBlock: NAHDIM_clean_sbu_0, # of connection points: 4
#     Node 31, Type 0, BuildingBlock: NAHDIM_clean_sbu_0, # of connection points: 4
#     Node 32, Type 0, BuildingBlock: NAHDIM_clean_sbu_0, # of connection points: 4
#     Node 33, Type 0, BuildingBlock: NAHDIM_clean_sbu_0, # of connection points: 4
#     Node 34, Type 0, BuildingBlock: NAHDIM_clean_sbu_0, # of connection points: 4
#     Node 35, Type 0, BuildingBlock: NAHDIM_clean_sbu_0, # of connection points: 4
#     Edge 36, Type (0, 0), BuildingBlock: EZIPEK_clean_linker_0, # of connection points: 2
#     Edge 37, Type (0, 0), BuildingBlock: EZIPEK_clean_linker_0, # of connection points: 2
#     Edge 38, Type (0, 0), BuildingBlock: EZIPEK_clean_linker_0, # of connection points: 2
#     Edge 39, Type (0, 0), BuildingBlock: EZIPEK_clean_linker_0, # of connection points: 2
#     Edge 40, Type (0, 0), BuildingBlock: EZIPEK_clean_linker_0, # of connection points: 2
#     Edge 41, Type (0, 0), BuildingBlock: EZIPEK_clean_linker_0, # of connection points: 2
#     Edge 42, Type (0, 0), BuildingBlock: EZIPEK_clean_linker_0, # of connection points: 2
#     Edge 43, Type (0, 0), BuildingBlock: EZIPEK_clean_linker_0, # of connection points: 2
#     Edge 44, Type (0, 0), BuildingBlock: EZIPEK_clean_linker_0, # of connection points: 2
#     Edge 45, Type (0, 0), BuildingBlock: EZIPEK_clean_linker_0, # of connection points: 2
#     Edge 46, Type (0, 0), BuildingBlock: EZIPEK_clean_linker_0, # of connection points: 2
#     Edge 47, Type (0, 0), BuildingBlock: EZIPEK_clean_linker_0, # of connection points: 2
#     Edge 48, Type (0, 0), BuildingBlock: EZIPEK_clean_linker_0, # of connection points: 2
#     Edge 49, Type (0, 0), BuildingBlock: EZIPEK_clean_linker_0, # of connection points: 2
#     Edge 50, Type (0, 0), BuildingBlock: EZIPEK_clean_linker_0, # of connection points: 2
#     Edge 51, Type (0, 0), BuildingBlock: EZIPEK_clean_linker_0, # of connection points: 2
#     Edge 52, Type (0, 0), BuildingBlock: EZIPEK_clean_linker_0, # of connection points: 2
#     Edge 53, Type (0, 0), BuildingBlock: EZIPEK_clean_linker_0, # of connection points: 2
#     Edge 54, Type (0, 0), BuildingBlock: EZIPEK_clean_linker_0, # of connection points: 2
#     Edge 55, Type (0, 0), BuildingBlock: EZIPEK_clean_linker_0, # of connection points: 2
#     Edge 56, Type (0, 0), BuildingBlock: EZIPEK_clean_linker_0, # of connection points: 2
#     Edge 57, Type (0, 0), BuildingBlock: EZIPEK_clean_linker_0, # of connection points: 2
#     Edge 58, Type (0, 0), BuildingBlock: EZIPEK_clean_linker_0, # of connection points: 2
#     Edge 59, Type (0, 0), BuildingBlock: EZIPEK_clean_linker_0, # of connection points: 2
#     Edge 60, Type (0, 0), BuildingBlock: EZIPEK_clean_linker_0, # of connection points: 2
#     Edge 61, Type (0, 0), BuildingBlock: EZIPEK_clean_linker_0, # of connection points: 2
#     Edge 62, Type (0, 0), BuildingBlock: EZIPEK_clean_linker_0, # of connection points: 2
#     Edge 63, Type (0, 0), BuildingBlock: EZIPEK_clean_linker_0, # of connection points: 2
#     Edge 64, Type (0, 0), BuildingBlock: EZIPEK_clean_linker_0, # of connection points: 2
#     Edge 65, Type (0, 0), BuildingBlock: EZIPEK_clean_linker_0, # of connection points: 2
#     Edge 66, Type (0, 0), BuildingBlock: EZIPEK_clean_linker_0, # of connection points: 2
#     Edge 67, Type (0, 0), BuildingBlock: EZIPEK_clean_linker_0, # of connection points: 2
#     Edge 68, Type (0, 0), BuildingBlock: EZIPEK_clean_linker_0, # of connection points: 2
#     Edge 69, Type (0, 0), BuildingBlock: EZIPEK_clean_linker_0, # of connection points: 2
#     Edge 70, Type (0, 0), BuildingBlock: EZIPEK_clean_linker_0, # of connection points: 2
#     Edge 71, Type (0, 0), BuildingBlock: EZIPEK_clean_linker_0, # of connection points: 2
#     Edge 72, Type (0, 0), BuildingBlock: EZIPEK_clean_linker_0, # of connection points: 2
#     Edge 73, Type (0, 0), BuildingBlock: EZIPEK_clean_linker_0, # of connection points: 2
#     Edge 74, Type (0, 0), BuildingBlock: EZIPEK_clean_linker_0, # of connection points: 2
#     Edge 75, Type (0, 0), BuildingBlock: EZIPEK_clean_linker_0, # of connection points: 2
#     Edge 76, Type (0, 0), BuildingBlock: EZIPEK_clean_linker_0, # of connection points: 2
#     Edge 77, Type (0, 0), BuildingBlock: EZIPEK_clean_linker_0, # of connection points: 2
#     Edge 78, Type (0, 0), BuildingBlock: EZIPEK_clean_linker_0, # of connection points: 2
#     Edge 79, Type (0, 0), BuildingBlock: EZIPEK_clean_linker_0, # of connection points: 2
#     Edge 80, Type (0, 0), BuildingBlock: EZIPEK_clean_linker_0, # of connection points: 2
#     Edge 81, Type (0, 0), BuildingBlock: EZIPEK_clean_linker_0, # of connection points: 2
#     Edge 82, Type (0, 0), BuildingBlock: EZIPEK_clean_linker_0, # of connection points: 2
#     Edge 83, Type (0, 0), BuildingBlock: EZIPEK_clean_linker_0, # of connection points: 2
#     Edge 84, Type (0, 0), BuildingBlock: EZIPEK_clean_linker_0, # of connection points: 2
#     Edge 85, Type (0, 0), BuildingBlock: EZIPEK_clean_linker_0, # of connection points: 2
#     Edge 86, Type (0, 0), BuildingBlock: EZIPEK_clean_linker_0, # of connection points: 2
#     Edge 87, Type (0, 0), BuildingBlock: EZIPEK_clean_linker_0, # of connection points: 2
#     Edge 88, Type (0, 0), BuildingBlock: EZIPEK_clean_linker_0, # of connection points: 2
#     Edge 89, Type (0, 0), BuildingBlock: EZIPEK_clean_linker_0, # of connection points: 2
#     Edge 90, Type (0, 0), BuildingBlock: EZIPEK_clean_linker_0, # of connection points: 2
#     Edge 91, Type (0, 0), BuildingBlock: EZIPEK_clean_linker_0, # of connection points: 2
#     Edge 92, Type (0, 0), BuildingBlock: EZIPEK_clean_linker_0, # of connection points: 2
#     Edge 93, Type (0, 0), BuildingBlock: EZIPEK_clean_linker_0, # of connection points: 2
#     Edge 94, Type (0, 0), BuildingBlock: EZIPEK_clean_linker_0, # of connection points: 2
#     Edge 95, Type (0, 0), BuildingBlock: EZIPEK_clean_linker_0, # of connection points: 2
#     Edge 96, Type (0, 0), BuildingBlock: EZIPEK_clean_linker_0, # of connection points: 2
#     Edge 97, Type (0, 0), BuildingBlock: EZIPEK_clean_linker_0, # of connection points: 2
#     Edge 98, Type (0, 0), BuildingBlock: EZIPEK_clean_linker_0, # of connection points: 2
#     Edge 99, Type (0, 0), BuildingBlock: EZIPEK_clean_linker_0, # of connection points: 2
#     Edge 100, Type (0, 0), BuildingBlock: EZIPEK_clean_linker_0, # of connection points: 2
#     Edge 101, Type (0, 0), BuildingBlock: EZIPEK_clean_linker_0, # of connection points: 2
#     Edge 102, Type (0, 0), BuildingBlock: EZIPEK_clean_linker_0, # of connection points: 2
#     Edge 103, Type (0, 0), BuildingBlock: EZIPEK_clean_linker_0, # of connection points: 2
#     Edge 104, Type (0, 0), BuildingBlock: EZIPEK_clean_linker_0, # of connection points: 2
#     Edge 105, Type (0, 0), BuildingBlock: EZIPEK_clean_linker_0, # of connection points: 2
#     Edge 106, Type (0, 0), BuildingBlock: EZIPEK_clean_linker_0, # of connection points: 2
#     Edge 107, Type (0, 0), BuildingBlock: EZIPEK_clean_linker_0, # of connection points: 2
# Relax obj value: 0.247
# Max RMSD: 0.180
# Mean RMSD: 0.179
data_MOF--net-ukv--node1-NAHDIM_clean_sbu_0--edge1-EZIPEK_clean_linker_0
_symmetry_space_group_name_H-M    P1
_symmetry_Int_Tables_number       1
_symmetry_cell_setting            triclinic
loop_
_symmetry_equiv_pos_as_xyz
'x, y, z'
_cell_length_a     70.935614
_cell_length_b     70.939313
_cell_length_c     14.853113
_cell_angle_alpha  90.041712
_cell_angle_beta   89.981787
_cell_angle_gamma 119.96564
loop_
_atom_site_label
_atom_site_type_symbol
_atom_site_fract_x
_atom_site_fract_y
_atom_site_fract_z
_atom_type_partial_charge
C0 C 0.24264 0.04136 0.16071 0.0
O1 O 0.26108 0.05772 0.18973 0.0
O2 O 0.28305 0.08321 0.02469 0.0
Zn3 Zn 0.25095 0.07299 0.03038 0.0
O4 O 0.24567 0.09361 0.10371 0.0
C5 C 0.24565 0.06909 0.83322 0.0
O6 O 0.25561 0.05769 0.83464 0.0
O7 O 0.23443 0.04346 0.08795 0.0
C8 C 0.22672 0.09126 0.09892 0.0
O9 O 0.21175 0.07557 0.04951 0.0
C10 C 0.295 0.10137 0.98637 0.0
O11 O 0.28626 0.1127 0.95671 0.0
O12 O 0.24098 0.07505 0.90635 0.0
C13 C 0.97629 0.2072 0.12546 0.0
O14 O 0.96209 0.21341 0.14381 0.0
O15 O 0.93638 0.20479 0.97267 0.0
Zn16 Zn 0.94249 0.18044 0.00592 0.0
O17 O 0.92119 0.16017 0.09985 0.0
C18 C 0.92508 0.15881 0.83906 0.0
O19 O 0.91375 0.16865 0.84954 0.0
O20 O 0.97202 0.19319 0.06377 0.0
C21 C 0.90372 0.14266 0.08091 0.0
O22 O 0.89833 0.13717 0.99654 0.0
C23 C 0.91712 0.20163 0.9777 0.0
O24 O 0.90145 0.18293 0.00762 0.0
O25 O 0.9399 0.16233 0.89577 0.0
C26 C 0.79557 0.75719 0.12911 0.0
O27 O 0.79061 0.73694 0.14311 0.0
O28 O 0.80099 0.72514 0.9511 0.0
Zn29 Zn 0.82394 0.7543 0.00167 0.0
O30 O 0.84352 0.75113 0.093 0.0
C31 C 0.85865 0.77259 0.87488 0.0
O32 O 0.86394 0.76009 0.92004 0.0
O33 O 0.80934 0.76823 0.06841 0.0
C34 C 0.84997 0.73734 0.08893 0.0
O35 O 0.84295 0.72283 0.02398 0.0
C36 C 0.80478 0.71567 0.88657 0.0
O37 O 0.82429 0.72475 0.85078 0.0
O38 O 0.84192 0.77358 0.89792 0.0
C39 C 0.05436 0.2425 0.34373 0.0
O40 O 0.071 0.26133 0.32008 0.0
O41 O 0.09406 0.27954 0.50145 0.0
Zn42 Zn 0.0843 0.24783 0.48064 0.0
O43 O 0.10693 0.24498 0.40882 0.0
C44 C 0.10164 0.24465 0.6401 0.0
O45 O 0.11699 0.26265 0.60336 0.0
O46 O 0.05585 0.23296 0.41355 0.0
C47 C 0.10654 0.22684 0.40884 0.0
O48 O 0.09107 0.21026 0.45265 0.0
C49 C 0.08225 0.28552 0.54297 0.0
O50 O 0.06248 0.27098 0.56797 0.0
O51 O 0.08327 0.23444 0.60123 0.0
C52 C 0.75715 0.79578 0.35513 0.0
O53 O 0.73764 0.79243 0.33576 0.0
O54 O 0.7221 0.79993 0.51772 0.0
Zn55 Zn 0.75352 0.82237 0.48937 0.0
O56 O 0.7551 0.84609 0.40699 0.0
C57 C 0.76951 0.85265 0.63428 0.0
O58 O 0.75922 0.8604 0.58796 0.0
O59 O 0.76746 0.80792 0.42144 0.0
C60 C 0.74184 0.85323 0.41077 0.0
O61 O 0.72542 0.84434 0.46722 0.0
C62 C 0.71147 0.80275 0.5802 0.0
O63 O 0.72118 0.82017 0.63108 0.0
O64 O 0.76989 0.83593 0.60595 0.0
C65 C 0.20276 0.96362 0.38107 0.0
O66 O 0.20847 0.94885 0.36763 0.0
O67 O 0.19641 0.92297 0.54324 0.0
Zn68 Zn 0.17408 0.93157 0.50542 0.0
O69 O 0.15093 0.90975 0.42146 0.0
C70 C 0.15464 0.91804 0.67505 0.0
O71 O 0.1642 0.90638 0.66652 0.0
O72 O 0.18847 0.96026 0.44029 0.0
C73 C 0.13825 0.88983 0.44047 0.0
O74 O 0.14023 0.88212 0.51791 0.0
C75 C 0.19818 0.90764 0.50758 0.0
O76 O 0.18603 0.89712 0.43811 0.0
O77 O 0.15808 0.9324 0.61624 0.0
C78 C 0.76778 0.95935 0.85764 0.0
O79 O 0.75195 0.94243 0.81667 0.0
O80 O 0.72311 0.91694 0.98112 0.0
Zn81 Zn 0.75517 0.92666 0.98327 0.0
O82 O 0.76107 0.90752 0.90321 0.0
C83 C 0.75446 0.92364 0.18015 0.0
O84 O 0.74592 0.93633 0.18093 0.0
O85 O 0.77288 0.95732 0.93768 0.0
C86 C 0.77741 0.90518 0.91859 0.0
O87 O 0.79038 0.91527 0.98671 0.0
C88 C 0.7109 0.89853 0.01723 0.0
O89 O 0.7195 0.88683 0.04397 0.0
O90 O 0.7618 0.9205 0.10727 0.0
C91 C 0.04045 0.80287 0.85498 0.0
O92 O 0.0588 0.80583 0.82074 0.0
O93 O 0.0806 0.803 0.01767 0.0
Zn94 Zn 0.06917 0.82361 0.99751 0.0
O95 O 0.08996 0.84846 0.92002 0.0
C96 C 0.07386 0.82998 0.18883 0.0
O97 O 0.07037 0.80998 0.189 0.0
O98 O 0.04012 0.80896 0.93525 0.0
C99 C 0.09069 0.8667 0.92599 0.0
O100 O 0.07789 0.8692 0.98264 0.0
C101 C 0.09489 0.80215 0.96917 0.0
O102 O 0.10142 0.81344 0.89423 0.0
O103 O 0.07053 0.83761 0.11709 0.0
C104 C 0.21268 0.23529 0.88158 0.0
O105 O 0.21615 0.25453 0.85644 0.0
O106 O 0.20767 0.27312 0.04617 0.0
Zn107 Zn 0.18699 0.24208 0.00775 0.0
O108 O 0.16691 0.24328 0.91651 0.0
C109 C 0.17348 0.22667 0.19331 0.0
O110 O 0.19383 0.23264 0.2115 0.0
O111 O 0.20114 0.22641 0.95103 0.0
C112 C 0.14773 0.22722 0.90838 0.0
O113 O 0.14148 0.20971 0.95754 0.0
C114 C 0.19843 0.28139 0.09206 0.0
O115 O 0.17753 0.26954 0.1093 0.0
O116 O 0.16772 0.22689 0.11274 0.0
C117 C 0.96156 0.76274 0.64501 0.0
O118 O 0.94487 0.74732 0.68864 0.0
O119 O 0.91688 0.71885 0.54134 0.0
Zn120 Zn 0.92729 0.7508 0.52997 0.0
O121 O 0.91091 0.75974 0.61233 0.0
C122 C 0.91301 0.74071 0.34556 0.0
O123 O 0.91719 0.72477 0.35568 0.0
O124 O 0.95879 0.76792 0.56611 0.0
C125 C 0.91178 0.77787 0.59928 0.0
O126 O 0.92341 0.7905 0.53267 0.0
C127 C 0.89731 0.7052 0.56098 0.0
O128 O 0.8842 0.71272 0.58039 0.0
O129 O 0.91897 0.75536 0.40569 0.0
C130 C 0.24388 0.19117 0.64774 0.0
O131 O 0.26418 0.19567 0.6544 0.0
O132 O 0.27222 0.18354 0.45643 0.0
Zn133 Zn 0.24285 0.16225 0.50976 0.0
O134 O 0.24466 0.13903 0.58211 0.0
C135 C 0.22713 0.15391 0.32651 0.0
O136 O 0.2439 0.17345 0.31389 0.0
O137 O 0.2315 0.17744 0.58932 0.0
C138 C 0.23669 0.11948 0.55485 0.0
O139 O 0.22708 0.1136 0.47613 0.0
C140 C 0.28863 0.18099 0.46489 0.0
O141 O 0.28722 0.16516 0.51533 0.0
O142 O 0.22267 0.14684 0.40673 0.0
C143 C 0.80927 0.03953 0.65532 0.0
O144 O 0.81005 0.05674 0.69213 0.0
O145 O 0.80206 0.07566 0.5035 0.0
Zn146 Zn 0.82748 0.07039 0.52018 0.0
O147 O 0.85012 0.09226 0.60329 0.0
C148 C 0.8404 0.08495 0.33834 0.0
O149 O 0.82292 0.08678 0.34024 0.0
O150 O 0.81628 0.04077 0.57543 0.0
C151 C 0.86701 0.09059 0.61433 0.0
O152 O 0.86829 0.07466 0.5753 0.0
C153 C 0.80463 0.09465 0.50935 0.0
O154 O 0.82356 0.11069 0.53577 0.0
O155 O 0.84427 0.0758 0.40358 0.0
C156 C 0.91429 0.37641 0.47039 0.0
O157 O 0.93406 0.39223 0.48869 0.0
O158 O 0.94831 0.41343 0.28828 0.0
Zn159 Zn 0.91989 0.40778 0.34465 0.0
O160 O 0.92423 0.42948 0.4417 0.0
C161 C 0.91268 0.43168 0.21894 0.0
O162 O 0.93205 0.44515 0.25107 0.0
O163 O 0.90409 0.37851 0.40431 0.0
C164 C 0.90691 0.42939 0.46475 0.0
O165 O 0.88839 0.4152 0.42724 0.0
C166 C 0.96583 0.43136 0.30027 0.0
O167 O 0.96617 0.44574 0.35694 0.0
O168 O 0.90251 0.4122 0.24758 0.0
C169 C 0.61098 0.53096 0.46759 0.0
O170 O 0.59457 0.5335 0.49145 0.0
O171 O 0.56542 0.52006 0.31751 0.0
Zn172 Zn 0.57989 0.50173 0.33824 0.0
O173 O 0.56181 0.47469 0.41153 0.0
C174 C 0.56484 0.48044 0.17768 0.0
O175 O 0.54831 0.48149 0.21075 0.0
O176 O 0.60883 0.51868 0.40136 0.0
C177 C 0.54123 0.46386 0.41876 0.0
O178 O 0.52923 0.47078 0.37957 0.0
C179 C 0.55326 0.52298 0.37202 0.0
O180 O 0.54913 0.5139 0.45201 0.0
O181 O 0.5829 0.4898 0.21914 0.0
C182 C 0.47005 0.09893 0.45004 0.0
O183 O 0.4668 0.07933 0.46644 0.0
O184 O 0.48005 0.06639 0.28529 0.0
Zn185 Zn 0.49968 0.09764 0.32615 0.0
O186 O 0.52216 0.10017 0.41472 0.0
C187 C 0.51285 0.10814 0.14022 0.0
O188 O 0.49429 0.09019 0.12602 0.0
O189 O 0.48301 0.11015 0.38729 0.0
C190 C 0.53561 0.09393 0.39522 0.0
O191 O 0.53433 0.08486 0.31658 0.0
C192 C 0.4792 0.04996 0.32358 0.0
O193 O 0.49015 0.05255 0.39809 0.0
O194 O 0.51737 0.11509 0.22057 0.0
C195 C 0.69079 0.57509 0.67426 0.0
O196 O 0.70545 0.59476 0.64854 0.0
O197 O 0.73606 0.61488 0.79858 0.0
Zn198 Zn 0.72565 0.5827 0.78828 0.0
O199 O 0.74404 0.57559 0.70862 0.0
C200 C 0.72996 0.58394 0.98019 0.0
O201 O 0.72309 0.59799 0.97524 0.0
O202 O 0.69515 0.56619 0.73909 0.0
C203 C 0.76469 0.58548 0.70868 0.0
O204 O 0.77553 0.60268 0.76017 0.0
C205 C 0.74826 0.63053 0.74695 0.0
O206 O 0.75617 0.62617 0.67499 0.0
O207 O 0.72959 0.57339 0.91057 0.0
C208 C 0.43086 0.13516 0.68512 0.0
O209 O 0.41102 0.13123 0.66878 0.0
O210 O 0.39705 0.13975 0.86134 0.0
Zn211 Zn 0.42743 0.16163 0.82001 0.0
O212 O 0.42553 0.18318 0.73711 0.0
C213 C 0.43924 0.1712 0.00769 0.0
O214 O 0.42433 0.15065 0.01787 0.0
O215 O 0.44145 0.14748 0.7506 0.0
C216 C 0.42853 0.20148 0.76462 0.0
O217 O 0.43285 0.20682 0.84976 0.0
C218 C 0.38543 0.14734 0.892 0.0
O219 O 0.39373 0.1685 0.89633 0.0
O220 O 0.44463 0.17835 0.92796 0.0
C221 C 0.87788 0.30266 0.71261 0.0
O222 O 0.88204 0.28693 0.69528 0.0
O223 O 0.87577 0.26462 0.8809 0.0
Zn224 Zn 0.85269 0.27202 0.84353 0.0
O225 O 0.83092 0.24993 0.75785 0.0
C226 C 0.8257 0.25048 0.98286 0.0
O227 O 0.82945 0.23609 0.94364 0.0
O228 O 0.86581 0.30075 0.7793 0.0
C229 C 0.81537 0.25284 0.73373 0.0
O230 O 0.81465 0.26995 0.76287 0.0
C231 C 0.87552 0.24767 0.8513 0.0
O232 O 0.8612 0.23569 0.78988 0.0
O233 O 0.83508 0.26989 0.95337 0.0
C234 C 0.41744 0.29197 0.20207 0.0
O235 O 0.39664 0.27755 0.19653 0.0
O236 O 0.38549 0.24255 0.32974 0.0
Zn237 Zn 0.41818 0.25898 0.31268 0.0
O238 O 0.42838 0.24214 0.23907 0.0
C239 C 0.41914 0.25649 0.5041 0.0
O240 O 0.40173 0.2585 0.49943 0.0
O241 O 0.42967 0.28824 0.25263 0.0
C242 C 0.41923 0.22154 0.23886 0.0
O243 O 0.40151 0.21015 0.28675 0.0
C244 C 0.37013 0.23056 0.27637 0.0
O245 O 0.37437 0.22864 0.19183 0.0
O246 O 0.4307 0.25979 0.4343 0.0
C247 C 0.70835 0.13978 0.2073 0.0
O248 O 0.72583 0.14013 0.17573 0.0
O249 O 0.74422 0.1376 0.39125 0.0
Zn250 Zn 0.73811 0.16113 0.34697 0.0
O251 O 0.76092 0.18159 0.25934 0.0
C252 C 0.7602 0.18872 0.48389 0.0
O253 O 0.77403 0.1838 0.44747 0.0
O254 O 0.709 0.14779 0.28465 0.0
C255 C 0.75973 0.19808 0.23385 0.0
O256 O 0.7436 0.20063 0.26216 0.0
C257 C 0.76173 0.13777 0.37133 0.0
O258 O 0.77563 0.15252 0.31558 0.0
O259 O 0.7409 0.17999 0.45339 0.0
C260 C 0.8612 0.58065 0.18469 0.0
O261 O 0.873 0.60151 0.20289 0.0
O262 O 0.85129 0.61203 0.34872 0.0
Zn263 Zn 0.82867 0.58382 0.29182 0.0
O264 O 0.80814 0.58826 0.21232 0.0
C265 C 0.81663 0.56796 0.47404 0.0
O266 O 0.83729 0.58173 0.48951 0.0
O267 O 0.84208 0.56979 0.2169 0.0
C268 C 0.7903 0.58577 0.24332 0.0
O269 O 0.78586 0.58197 0.32935 0.0
C270 C 0.84569 0.6251 0.38123 0.0
O271 O 0.82558 0.6209 0.37123 0.0
O272 O 0.81032 0.56453 0.3926 0.0
C273 C 0.63185 0.10138 0.98024 0.0
O274 O 0.61427 0.0842 0.01054 0.0
O275 O 0.59569 0.06269 0.80154 0.0
Zn276 Zn 0.60268 0.09322 0.8387 0.0
O277 O 0.5797 0.09295 0.91975 0.0
C278 C 0.60104 0.10202 0.65003 0.0
O279 O 0.61024 0.09015 0.63689 0.0
O280 O 0.6315 0.10892 0.90299 0.0
C281 C 0.58178 0.11158 0.93437 0.0
O282 O 0.59869 0.12899 0.90139 0.0
C283 C 0.57779 0.04576 0.82131 0.0
O284 O 0.5637 0.04754 0.87275 0.0
O285 O 0.60042 0.10854 0.72893 0.0
C286 C 0.90144 0.54187 0.97395 0.0
O287 O 0.91561 0.53946 0.0221 0.0
O288 O 0.94552 0.54053 0.81994 0.0
Zn289 Zn 0.91411 0.51983 0.85273 0.0
O290 O 0.91318 0.50008 0.95203 0.0
C291 C 0.91137 0.48987 0.73202 0.0
O292 O 0.92664 0.49248 0.78872 0.0
O293 O 0.89774 0.53498 0.89319 0.0
C294 C 0.89603 0.48199 0.96642 0.0
O295 O 0.87825 0.47671 0.92052 0.0
C296 C 0.96129 0.54449 0.87197 0.0
O297 O 0.95739 0.53704 0.95479 0.0
O298 O 0.90161 0.50064 0.74341 0.0
C299 C 0.45435 0.36641 0.96267 0.0
O300 O 0.45426 0.38426 0.98551 0.0
O301 O 0.45962 0.40557 0.77951 0.0
Zn302 Zn 0.47917 0.3941 0.821 0.0
O303 O 0.50132 0.4161 0.90433 0.0
C304 C 0.49073 0.39115 0.63551 0.0
O305 O 0.4701 0.38423 0.61932 0.0
O306 O 0.46347 0.366 0.88954 0.0
C307 C 0.51865 0.41558 0.92017 0.0
O308 O 0.52171 0.40051 0.88303 0.0
C309 C 0.46906 0.42355 0.73707 0.0
O310 O 0.49014 0.43309 0.72311 0.0
O311 O 0.49677 0.3935 0.71706 0.0
C312 C 0.56627 0.69771 0.78122 0.0
O313 O 0.58514 0.71426 0.80526 0.0
O314 O 0.60479 0.73815 0.62457 0.0
Zn315 Zn 0.57278 0.72809 0.6474 0.0
O316 O 0.56985 0.7493 0.72706 0.0
C317 C 0.56953 0.73314 0.45864 0.0
O318 O 0.58517 0.7284 0.454 0.0
O319 O 0.55725 0.69905 0.70944 0.0
C320 C 0.5511 0.7472 0.73724 0.0
O321 O 0.5341 0.73102 0.69822 0.0
C322 C 0.61999 0.7552 0.66119 0.0
O323 O 0.61522 0.76593 0.72039 0.0
O324 O 0.55913 0.72993 0.53178 0.0
C325 C 0.30328 0.87312 0.7968 0.0
O326 O 0.28555 0.87116 0.83351 0.0
O327 O 0.26218 0.87127 0.62463 0.0
Zn328 Zn 0.2728 0.85059 0.65947 0.0
O329 O 0.25179 0.82833 0.74649 0.0
C330 C 0.25152 0.82444 0.51673 0.0
O331 O 0.23739 0.82899 0.55298 0.0
O332 O 0.30246 0.86592 0.71758 0.0
C333 C 0.25412 0.81227 0.76785 0.0
O334 O 0.27063 0.81088 0.7357 0.0
C335 C 0.24891 0.87372 0.67386 0.0
O336 O 0.24368 0.86449 0.75353 0.0
O337 O 0.27067 0.83312 0.54891 0.0
C338 C 0.14136 0.43824 0.8105 0.0
O339 O 0.14441 0.42456 0.85935 0.0
O340 O 0.131 0.38976 0.66069 0.0
Zn341 Zn 0.15626 0.42035 0.67673 0.0
O342 O 0.17771 0.41951 0.76405 0.0
C343 C 0.16602 0.42897 0.47976 0.0
O344 O 0.14534 0.42173 0.46308 0.0
O345 O 0.1455 0.43979 0.72659 0.0
C346 C 0.1954 0.42085 0.7372 0.0
O347 O 0.19993 0.42238 0.65093 0.0
C348 C 0.13414 0.37645 0.61486 0.0
O349 O 0.15337 0.38285 0.57964 0.0
O350 O 0.17267 0.43088 0.56029 0.0
C351 C 0.38078 0.91036 0.0177 0.0
O352 O 0.3983 0.92737 0.98599 0.0
O353 O 0.4203 0.9481 0.18535 0.0
Zn354 Zn 0.41109 0.91685 0.1531 0.0
O355 O 0.43236 0.9155 0.06742 0.0
C356 C 0.43127 0.91074 0.29979 0.0
O357 O 0.44641 0.9291 0.26511 0.0
O358 O 0.38166 0.90242 0.09329 0.0
C359 C 0.42959 0.89695 0.04551 0.0
O360 O 0.41263 0.87924 0.07616 0.0
C361 C 0.43956 0.96352 0.17057 0.0
O362 O 0.45326 0.95944 0.1271 0.0
O363 O 0.41236 0.90126 0.26504 0.0
C364 C 0.10619 0.48691 0.98613 0.0
O365 O 0.09573 0.4941 0.93694 0.0
O366 O 0.06129 0.48462 0.15277 0.0
Zn367 Zn 0.09289 0.50533 0.12626 0.0
O368 O 0.09601 0.52987 0.04793 0.0
C369 C 0.0989 0.50745 0.31736 0.0
O370 O 0.08954 0.48617 0.31195 0.0
O371 O 0.10753 0.48993 0.07085 0.0
C372 C 0.09211 0.54393 0.08306 0.0
O373 O 0.08564 0.54175 0.16719 0.0
C374 C 0.04696 0.46827 0.10965 0.0
O375 O 0.0518 0.46262 0.03264 0.0
O376 O 0.10492 0.51879 0.24607 0.0
C377 C 0.52555 0.62385 0.02293 0.0
O378 O 0.53088 0.60861 0.0176 0.0
O379 O 0.51778 0.58586 0.20342 0.0
Zn380 Zn 0.49684 0.59535 0.1587 0.0
O381 O 0.47389 0.57056 0.08561 0.0
C382 C 0.48998 0.60434 0.34172 0.0
O383 O 0.51108 0.61231 0.3479 0.0
O384 O 0.51149 0.62205 0.08053 0.0
C385 C 0.45529 0.55698 0.1173 0.0
O386 O 0.45043 0.55854 0.20121 0.0
C387 C 0.51044 0.57017 0.25922 0.0
O388 O 0.49018 0.56125 0.28649 0.0
O389 O 0.4815 0.5992 0.26392 0.0
C390 C 0.09365 0.63038 0.50999 0.0
O391 O 0.0732 0.61595 0.4938 0.0
O392 O 0.05645 0.58924 0.66258 0.0
Zn393 Zn 0.08785 0.59799 0.63695 0.0
O394 O 0.08917 0.57534 0.55963 0.0
C395 C 0.09961 0.60671 0.82707 0.0
O396 O 0.09376 0.62156 0.82231 0.0
O397 O 0.10373 0.62675 0.57223 0.0
C398 C 0.09272 0.56083 0.59239 0.0
O399 O 0.0946 0.55953 0.67977 0.0
C400 C 0.04687 0.57456 0.72196 0.0
O401 O 0.05709 0.56517 0.75709 0.0
O402 O 0.10099 0.59767 0.75567 0.0
C403 C 0.3736 0.4748 0.51426 0.0
O404 O 0.39174 0.48275 0.4679 0.0
O405 O 0.41965 0.47876 0.66968 0.0
Zn406 Zn 0.4041 0.49601 0.65462 0.0
O407 O 0.42085 0.52383 0.5844 0.0
C408 C 0.40266 0.49558 0.84758 0.0
O409 O 0.39716 0.47503 0.83895 0.0
O410 O 0.37437 0.47803 0.59875 0.0
C411 C 0.44042 0.53222 0.55802 0.0
O412 O 0.45129 0.52205 0.57279 0.0
C413 C 0.42646 0.47028 0.61227 0.0
O414 O 0.42393 0.47221 0.52585 0.0
O415 O 0.40341 0.50648 0.77861 0.0
C416 C 0.54475 0.9069 0.51951 0.0
O417 O 0.54882 0.92668 0.50072 0.0
O418 O 0.54356 0.94365 0.69387 0.0
Zn419 Zn 0.52069 0.91298 0.65605 0.0
O420 O 0.49863 0.91354 0.57281 0.0
C421 C 0.49466 0.90723 0.80052 0.0
O422 O 0.49849 0.92573 0.76489 0.0
O423 O 0.5335 0.89734 0.58887 0.0
C424 C 0.48244 0.89553 0.54846 0.0
O425 O 0.4808 0.87719 0.57607 0.0
C426 C 0.54076 0.95956 0.67462 0.0
O427 O 0.52448 0.95631 0.62237 0.0
O428 O 0.5035 0.89711 0.76637 0.0
C429 C 0.29264 0.42691 0.31994 0.0
O430 O 0.277 0.4088 0.35464 0.0
O431 O 0.25123 0.38483 0.17332 0.0
Zn432 Zn 0.25989 0.41643 0.18937 0.0
O433 O 0.23788 0.41851 0.26736 0.0
C434 C 0.25327 0.41625 0.99794 0.0
O435 O 0.25619 0.39938 -0.00085 0.0
O436 O 0.28954 0.43383 0.24563 0.0
C437 C 0.23464 0.43448 0.25721 0.0
O438 O 0.24638 0.44986 0.19903 0.0
C439 C 0.23848 0.36959 0.22552 0.0
O440 O 0.23113 0.37411 0.29877 0.0
O441 O 0.25675 0.42753 0.06883 0.0
C442 C 0.57458 0.86434 0.27008 0.0
O443 O 0.594 0.86674 0.28257 0.0
O444 O 0.60545 0.85531 0.09652 0.0
Zn445 Zn 0.57405 0.83538 0.13715 0.0
O446 O 0.57081 0.81148 0.22042 0.0
C447 C 0.56539 0.81494 0.9688 0.0
O448 O 0.5866 0.82371 0.97315 0.0
O449 O 0.5627 0.85209 0.20673 0.0
C450 C 0.57773 0.79843 0.20371 0.0
O451 O 0.58831 0.80047 0.12862 0.0
C452 C 0.62196 0.85597 0.13316 0.0
O453 O 0.61951 0.84409 0.20458 0.0
O454 O 0.55563 0.81946 0.02938 0.0
C455 C 0.13517 0.70723 0.28449 0.0
O456 O 0.13281 0.72387 0.30662 0.0
O457 O 0.14047 0.74689 0.10907 0.0
Zn458 Zn 0.16174 0.7378 0.15411 0.0
O459 O 0.18291 0.75986 0.24142 0.0
C460 C 0.18865 0.75821 0.01451 0.0
O461 O 0.18361 0.77224 0.0479 0.0
O462 O 0.14677 0.70877 0.21656 0.0
C463 C 0.19914 0.7582 0.26643 0.0
O464 O 0.20122 0.74182 0.23769 0.0
C465 C 0.13922 0.76251 0.14488 0.0
O466 O 0.15035 0.77173 0.21832 0.0
O467 O 0.1801 0.73923 0.04809 0.0
C468 C 0.22087 0.00433 0.36456 0.0
C469 C 0.2121 0.98347 0.32424 0.0
C470 C 0.2243 0.00057 0.17612 0.0
C471 C 0.23118 0.02124 0.21545 0.0
N472 N 0.23039 0.04185 0.34358 0.0
N473 N 0.20031 0.96171 0.18857 0.0
C474 C 0.2278 0.02286 0.30871 0.0
C475 C 0.2123 0.98155 0.22903 0.0
N476 N 0.22354 0.00667 0.45579 0.0
N477 N 0.22999 0.99903 0.08965 0.0
H478 H 0.19041 0.94747 0.22436 0.0
H479 H 0.19827 0.95979 0.11905 0.0
H480 H 0.23933 0.01254 0.04911 0.0
H481 H 0.22727 0.98443 0.06129 0.0
H482 H 0.23188 0.0218 0.48732 0.0
H483 H 0.2195 0.99366 0.49924 0.0
H484 H 0.22612 0.04321 0.40942 0.0
H485 H 0.23443 0.05553 0.3042 0.0
C486 C 0.99456 0.21434 0.27631 0.0
C487 C 0.99627 0.21532 0.18093 0.0
C488 C 0.03568 0.23048 0.19379 0.0
C489 C 0.03425 0.2325 0.28837 0.0
N490 N 0.01241 0.23019 0.41744 0.0
N491 N 0.01913 0.22804 0.04869 0.0
C492 C 0.01371 0.22545 0.32924 0.0
C493 C 0.01702 0.22436 0.13942 0.0
N494 N 0.97476 0.20208 0.31669 0.0
N495 N 0.05458 0.23354 0.15603 0.0
H496 H 0.00599 0.22442 0.00656 0.0
H497 H 0.03416 0.23668 0.01671 0.0
H498 H 0.06836 0.23711 0.19383 0.0
H499 H 0.05581 0.23019 0.08865 0.0
H500 H 0.97296 0.19916 0.38579 0.0
H501 H 0.96041 0.19281 0.28059 0.0
H502 H 0.99794 0.22734 0.44748 0.0
H503 H 0.02603 0.23901 0.45813 0.0
C504 C 0.7758 0.77374 0.33682 0.0
C505 C 0.76733 0.7862 0.29757 0.0
C506 C 0.77547 0.77784 0.14715 0.0
C507 C 0.786 0.76736 0.18683 0.0
N508 N 0.80064 0.75993 0.32044 0.0
N509 N 0.76382 0.80434 0.16629 0.0
C510 C 0.78743 0.76658 0.28203 0.0
C511 C 0.76848 0.78945 0.20291 0.0
N512 N 0.77201 0.76793 0.42555 0.0
N513 N 0.77132 0.77601 0.05674 0.0
H514 H 0.75949 0.81387 0.20489 0.0
H515 H 0.76652 0.8089 0.09876 0.0
H516 H 0.77562 0.76715 0.0137 0.0
H517 H 0.76169 0.78144 0.02605 0.0
H518 H 0.77589 0.75697 0.45496 0.0
H519 H 0.76303 0.77227 0.46763 0.0
H520 H 0.80395 0.76117 0.38922 0.0
H521 H 0.81016 0.75538 0.28296 0.0
C522 C 0.76731 0.99122 0.78935 0.0
C523 C 0.77906 0.98046 0.81023 0.0
C524 C 0.81117 0.00893 0.7321 0.0
C525 C 0.79879 0.01865 0.70493 0.0
N526 N 0.76408 0.01703 0.69326 0.0
N527 N 0.81096 0.97699 0.7918 0.0
C528 C 0.77658 0.00926 0.72974 0.0
C529 C 0.80071 0.98877 0.77921 0.0
N530 N 0.74752 0.98454 0.82866 0.0
N531 N 0.83304 0.01931 0.71561 0.0
H532 H 0.80395 0.96232 0.8271 0.0
H533 H 0.82574 0.98088 0.76182 0.0
H534 H 0.84119 0.03387 0.67985 0.0
H535 H 0.84341 0.01438 0.74282 0.0
H536 H 0.73921 0.99314 0.82384 0.0
H537 H 0.74027 0.97142 0.87311 0.0
H538 H 0.74727 0.00942 0.70117 0.0
H539 H 0.77016 0.02995 0.64779 0.0
C540 C 0.01163 0.80577 0.76899 0.0
C541 C 0.02058 0.79291 0.79901 0.0
C542 C 0.9934 0.76189 0.71159 0.0
C543 C 0.98303 0.77396 0.68985 0.0
N544 N 0.98055 0.80652 0.7052 0.0
N545 N 0.01889 0.75816 0.80827 0.0
C546 C 0.99175 0.79574 0.71999 0.0
C547 C 0.01124 0.77082 0.77246 0.0
N548 N 0.02249 0.8277 0.78483 0.0
N549 N 0.98647 0.74207 0.67211 0.0
H550 H 0.03191 0.76413 0.85329 0.0
H551 H 0.01129 0.74138 0.79938 0.0
H552 H 0.97353 0.73515 0.62661 0.0
H553 H 0.99467 0.73338 0.67783 0.0
H554 H 0.0181 0.83833 0.75611 0.0
H555 H 0.03703 0.8356 0.82096 0.0
H556 H 0.98464 0.82138 0.73493 0.0
H557 H 0.9662 0.7999 0.66794 0.0
C558 C 0.23799 0.20156 0.80308 0.0
C559 C 0.23547 0.20198 0.70828 0.0
C560 C 0.21476 0.22078 0.73013 0.0
C561 C 0.22001 0.22317 0.82325 0.0
N562 N 0.23964 0.21866 0.94636 0.0
N563 N 0.22514 0.21596 0.58065 0.0
C564 C 0.23243 0.21429 0.85939 0.0
C565 C 0.22485 0.21266 0.67143 0.0
N566 N 0.2448 0.18832 0.83984 0.0
N567 N 0.19939 0.22532 0.69807 0.0
H568 H 0.23303 0.21103 0.53516 0.0
H569 H 0.21954 0.22561 0.55158 0.0
H570 H 0.19075 0.23024 0.73938 0.0
H571 H 0.19347 0.22181 0.63237 0.0
H572 H 0.24482 0.18575 0.90887 0.0
H573 H 0.24828 0.17813 0.80137 0.0
H574 H 0.25063 0.21448 0.97317 0.0
H575 H 0.23628 0.22822 0.98939 0.0
C576 C 0.88283 0.31805 0.5566 0.0
C577 C 0.88599 0.32159 0.65096 0.0
C578 C 0.90343 0.36086 0.6256 0.0
C579 C 0.90353 0.35739 0.53145 0.0
N580 N 0.89616 0.33246 0.40796 0.0
N581 N 0.90274 0.34678 0.77444 0.0
C582 C 0.89392 0.33591 0.49688 0.0
C583 C 0.89716 0.34311 0.68546 0.0
N584 N 0.86857 0.29781 0.52389 0.0
N585 N 0.90852 0.3809 0.6579 0.0
H586 H 0.89916 0.33433 0.82034 0.0
H587 H 0.91283 0.36228 0.8007 0.0
H588 H 0.91222 0.39412 0.6161 0.0
H589 H 0.90665 0.38373 0.72529 0.0
H590 H 0.86408 0.29486 0.45631 0.0
H591 H 0.85938 0.28443 0.56531 0.0
H592 H 0.89142 0.3171 0.38164 0.0
H593 H 0.9046 0.34505 0.36211 0.0
C594 C 0.65178 0.55377 0.47619 0.0
C595 C 0.63146 0.54158 0.52044 0.0
C596 C 0.64987 0.55246 0.66675 0.0
C597 C 0.6703 0.56284 0.62229 0.0
N598 N 0.69056 0.56787 0.48476 0.0
N599 N 0.61194 0.52466 0.65761 0.0
C600 C 0.67124 0.5619 0.52694 0.0
C601 C 0.63069 0.53956 0.61576 0.0
N602 N 0.6526 0.55847 0.38655 0.0
N603 N 0.64858 0.55559 0.75683 0.0
H604 H 0.59779 0.5141 0.62263 0.0
H605 H 0.61116 0.52113 0.72606 0.0
H606 H 0.66214 0.56542 0.79639 0.0
H607 H 0.63384 0.55017 0.7903 0.0
H608 H 0.66701 0.56916 0.35356 0.0
H609 H 0.63874 0.55358 0.34723 0.0
H610 H 0.69168 0.56552 0.41613 0.0
H611 H 0.70505 0.5728 0.51955 0.0
C612 C 0.44128 0.12912 0.5303 0.0
C613 C 0.44112 0.12611 0.62497 0.0
C614 C 0.46274 0.10821 0.60461 0.0
C615 C 0.46026 0.10853 0.50976 0.0
N616 N 0.4436 0.11586 0.3829 0.0
N617 N 0.44804 0.10884 0.75077 0.0
C618 C 0.44854 0.11805 0.47261 0.0
C619 C 0.45084 0.11455 0.66185 0.0
N620 N 0.43547 0.14332 0.49539 0.0
N621 N 0.47722 0.10286 0.6403 0.0
H622 H 0.43887 0.11254 0.79466 0.0
H623 H 0.45294 0.0985 0.77869 0.0
H624 H 0.48712 0.09916 0.60095 0.0
H625 H 0.48115 0.10447 0.70852 0.0
H626 H 0.43742 0.14774 0.42768 0.0
H627 H 0.43094 0.15252 0.53524 0.0
H628 H 0.43319 0.12058 0.35426 0.0
H629 H 0.44811 0.10739 0.33861 0.0
C630 C 0.42305 0.30803 0.04715 0.0
C631 C 0.42701 0.31111 0.14126 0.0
C632 C 0.4513 0.3501 0.11611 0.0
C633 C 0.44493 0.34738 0.02408 0.0
N634 N 0.42113 0.32412 0.90652 0.0
N635 N 0.44191 0.33571 0.26742 0.0
C636 C 0.42977 0.32644 0.99076 0.0
C637 C 0.44031 0.33234 0.17647 0.0
N638 N 0.41385 0.28764 0.0106 0.0
N639 N 0.46852 0.36928 0.14527 0.0
H640 H 0.43377 0.3232 0.31394 0.0
H641 H 0.44958 0.35117 0.29629 0.0
H642 H 0.47766 0.38245 0.10277 0.0
H643 H 0.47519 0.3713 0.20946 0.0
H644 H 0.41264 0.28483 0.94141 0.0
H645 H 0.40968 0.27373 0.04852 0.0
H646 H 0.40837 0.30944 0.88276 0.0
H647 H 0.42507 0.33725 0.86386 0.0
C648 C 0.67862 0.10778 0.1264 0.0
C649 C 0.6882 0.12992 0.15256 0.0
C650 C 0.6601 0.13317 0.06897 0.0
C651 C 0.65178 0.11163 0.03636 0.0
N652 N 0.65527 0.07967 0.02095 0.0
N653 N 0.69009 0.16474 0.13928 0.0
C654 C 0.66162 0.09925 0.06158 0.0
C655 C 0.67946 0.14291 0.12156 0.0
N656 N 0.68524 0.09467 0.16611 0.0
N657 N 0.64909 0.14405 0.05256 0.0
H658 H 0.70404 0.17246 0.17895 0.0
H659 H 0.68607 0.17552 0.10923 0.0
H660 H 0.63512 0.1377 0.01295 0.0
H661 H 0.6528 0.15867 0.08368 0.0
H662 H 0.67733 0.07787 0.157 0.0
H663 H 0.69739 0.10022 0.21514 0.0
H664 H 0.66341 0.07098 0.02927 0.0
H665 H 0.64309 0.07301 0.97211 0.0
C666 C 0.86873 0.55012 0.15335 0.0
C667 C 0.87002 0.5699 0.12586 0.0
C668 C 0.891 0.57083 0.99248 0.0
C669 C 0.88852 0.55047 0.01793 0.0
N670 N 0.86893 0.51767 0.10489 0.0
N671 N 0.87722 0.5958 0.00645 0.0
C672 C 0.87547 0.53915 0.09296 0.0
C673 C 0.87966 0.57934 0.04154 0.0
N674 N 0.86222 0.54232 0.2386 0.0
N675 N 0.90469 0.58238 0.92363 0.0
H676 H 0.86821 0.60184 0.03821 0.0
H677 H 0.88214 0.60185 0.94158 0.0
H678 H 0.91293 0.57646 0.88518 0.0
H679 H 0.90904 0.5984 0.90895 0.0
H680 H 0.86307 0.52908 0.26409 0.0
H681 H 0.8582 0.55035 0.28711 0.0
H682 H 0.85793 0.50809 0.15458 0.0
H683 H 0.8724 0.50889 0.0579 0.0
C684 C 0.5472 0.65724 0.80819 0.0
C685 C 0.55496 0.67861 0.84165 0.0
C686 C 0.54507 0.66421 0.99496 0.0
C687 C 0.53544 0.6427 0.96052 0.0
N688 N 0.52264 0.61877 0.83131 0.0
N689 N 0.55586 0.70169 0.96344 0.0
C690 C 0.53516 0.63919 0.86618 0.0
C691 C 0.55232 0.6819 0.9341 0.0
N692 N 0.55204 0.65413 0.72232 0.0
N693 N 0.5482 0.66793 0.08551 0.0
H694 H 0.56027 0.71487 0.92052 0.0
H695 H 0.55206 0.70428 0.02839 0.0
H696 H 0.5439 0.65553 0.13255 0.0
H697 H 0.55712 0.68347 0.11307 0.0
H698 H 0.54868 0.63899 0.69783 0.0
H699 H 0.56126 0.6669 0.67818 0.0
H700 H 0.52016 0.61571 0.76245 0.0
H701 H 0.51286 0.6052 0.8709 0.0
C702 C 0.35064 0.91296 0.94185 0.0
C703 C 0.36047 0.90037 0.96389 0.0
C704 C 0.33243 0.86957 0.8777 0.0
C705 C 0.32366 0.88277 0.84993 0.0
N706 N 0.32624 0.91792 0.84305 0.0
N707 N 0.36263 0.86773 0.94423 0.0
C708 C 0.33326 0.90472 0.87865 0.0
C709 C 0.35185 0.87892 0.92974 0.0
N710 N 0.35736 0.93243 0.98413 0.0
N711 N 0.32175 0.84787 0.85735 0.0
H712 H 0.37644 0.87362 0.98448 0.0
H713 H 0.35883 0.85327 0.91146 0.0
H714 H 0.30786 0.84049 0.81724 0.0
H715 H 0.32568 0.83682 0.88535 0.0
H716 H 0.34935 0.9413 0.97834 0.0
H717 H 0.36982 0.93883 0.03185 0.0
H718 H 0.33406 0.93465 0.85379 0.0
H719 H 0.31367 0.91249 0.79597 0.0
C720 C 0.11218 0.4397 0.90012 0.0
C721 C 0.13224 0.4509 0.85306 0.0
C722 C 0.13454 0.48579 0.88874 0.0
C723 C 0.1156 0.47465 0.94284 0.0
N724 N 0.08801 0.44135 0.01114 0.0
N725 N 0.16445 0.4847 0.81454 0.0
C726 C 0.10497 0.45171 0.95224 0.0
C727 C 0.14392 0.474 0.85006 0.0
N728 N 0.09941 0.41764 0.89115 0.0
N729 N 0.14358 0.50765 0.87424 0.0
H730 H 0.17205 0.4767 0.78696 0.0
H731 H 0.17471 0.50146 0.81929 0.0
H732 H 0.13795 0.51709 0.90546 0.0
H733 H 0.15575 0.5162 0.82692 0.0
H734 H 0.08359 0.40884 0.91593 0.0
H735 H 0.1037 0.4083 0.85101 0.0
H736 H 0.08128 0.42502 0.02856 0.0
H737 H 0.08171 0.44941 0.04831 0.0
C738 C 0.11674 0.67102 0.49196 0.0
C739 C 0.10509 0.65003 0.45242 0.0
C740 C 0.112 0.66662 0.30238 0.0
C741 C 0.12534 0.68741 0.34147 0.0
N742 N 0.14488 0.70854 0.47187 0.0
N743 N 0.09661 0.62776 0.31877 0.0
C744 C 0.12903 0.68938 0.43588 0.0
C745 C 0.10414 0.64778 0.35719 0.0
N746 N 0.11536 0.67363 0.58245 0.0
N747 N 0.10601 0.66481 0.21393 0.0
H748 H 0.09163 0.61363 0.35631 0.0
H749 H 0.09758 0.62554 0.24992 0.0
H750 H 0.11086 0.6782 0.17181 0.0
H751 H 0.09448 0.65016 0.18485 0.0
H752 H 0.12174 0.68884 0.61295 0.0
H753 H 0.106 0.66073 0.62583 0.0
H754 H 0.14967 0.71015 0.53907 0.0
H755 H 0.1549 0.72214 0.43285 0.0
C756 C 0.33961 0.47211 0.45091 0.0
C757 C 0.35251 0.46233 0.46735 0.0
C758 C 0.32717 0.43027 0.37971 0.0
C759 C 0.31346 0.43935 0.36889 0.0
N760 N 0.30455 0.46712 0.40567 0.0
N761 N 0.35739 0.43111 0.45981 0.0
C762 C 0.31911 0.45982 0.40749 0.0
C763 C 0.34596 0.44111 0.43516 0.0
N764 N 0.34728 0.49338 0.4741 0.0
N765 N 0.32263 0.41168 0.33434 0.0
H766 H 0.37127 0.43864 0.50009 0.0
H767 H 0.3522 0.41481 0.44681 0.0
H768 H 0.30903 0.40331 0.29297 0.0
H769 H 0.33319 0.40549 0.33154 0.0
H770 H 0.33985 0.5022 0.45463 0.0
H771 H 0.36207 0.5028 0.50723 0.0
H772 H 0.30669 0.48069 0.44131 0.0
H773 H 0.28939 0.45862 0.37434 0.0
C774 C 0.54713 0.8948 0.36284 0.0
C775 C 0.55173 0.89532 0.45625 0.0
C776 C 0.56769 0.87219 0.42803 0.0
C777 C 0.56616 0.87458 0.33372 0.0
N778 N 0.55793 0.89178 0.21153 0.0
N779 N 0.57009 0.88767 0.57558 0.0
C780 C 0.55681 0.88686 0.301 0.0
C781 C 0.56302 0.88486 0.48842 0.0
N782 N 0.53277 0.90096 0.33321 0.0
N783 N 0.57262 0.85713 0.4604 0.0
H784 H 0.56765 0.89737 0.6215 0.0
H785 H 0.5803 0.88218 0.59961 0.0
H786 H 0.57503 0.84666 0.41884 0.0
H787 H 0.57187 0.85334 0.52855 0.0
H788 H 0.52726 0.89883 0.26691 0.0
H789 H 0.52446 0.9059 0.37642 0.0
H790 H 0.5533 0.90255 0.18598 0.0
H791 H 0.56552 0.88695 0.16412 0.0
C792 C 0.21947 0.0882 0.66278 0.0
C793 C 0.23795 0.1033 0.61304 0.0
C794 C 0.26119 0.09343 0.69809 0.0
C795 C 0.24273 0.07822 0.74826 0.0
N796 N 0.2038 0.05718 0.76396 0.0
N797 N 0.27444 0.11527 0.56276 0.0
C798 C 0.22166 0.0743 0.72565 0.0
C799 C 0.25818 0.10424 0.62396 0.0
N800 N 0.20012 0.0878 0.65279 0.0
N801 N 0.28171 0.09882 0.72476 0.0
H802 H 0.27239 0.12282 0.50634 0.0
H803 H 0.28893 0.11489 0.56255 0.0
H804 H 0.28485 0.09173 0.77964 0.0
H805 H 0.29574 0.11168 0.69703 0.0
H806 H 0.18674 0.07899 0.69458 0.0
H807 H 0.1978 0.09737 0.60575 0.0
H808 H 0.18788 0.05221 0.74459 0.0
H809 H 0.205 0.04662 0.8095 0.0
C810 C 0.89142 0.10266 0.74939 0.0
C811 C 0.88585 0.1075 0.66435 0.0
C812 C 0.91297 0.14598 0.68271 0.0
C813 C 0.91751 0.14136 0.77034 0.0
N814 N 0.91759 0.11464 0.87101 0.0
N815 N 0.89559 0.13191 0.53813 0.0
C816 C 0.90899 0.11945 0.79832 0.0
C817 C 0.89806 0.12863 0.627 0.0
N818 N 0.87919 0.08236 0.78566 0.0
N819 N 0.92252 0.1671 0.65436 0.0
H820 H 0.88512 0.11929 0.49555 0.0
H821 H 0.90521 0.14653 0.50462 0.0
H822 H 0.93476 0.17988 0.69129 0.0
H823 H 0.91795 0.17201 0.5963 0.0
H824 H 0.88077 0.07862 0.85203 0.0
H825 H 0.8663 0.06959 0.7515 0.0
H826 H 0.9131 0.0988 0.88972 0.0
H827 H 0.93106 0.12632 0.90621 0.0
C828 C 0.90773 0.79763 0.72981 0.0
C829 C 0.89826 0.78366 0.65499 0.0
C830 C 0.86191 0.77375 0.70872 0.0
C831 C 0.87122 0.78307 0.79286 0.0
N832 N 0.90238 0.80689 0.88175 0.0
N833 N 0.86684 0.76035 0.56524 0.0
C834 C 0.89403 0.79646 0.80189 0.0
C835 C 0.87546 0.77265 0.64104 0.0
N836 N 0.9297 0.81144 0.73234 0.0
N837 N 0.84019 0.76562 0.69488 0.0
H838 H 0.87651 0.76013 0.51271 0.0
H839 H 0.85026 0.74982 0.55559 0.0
H840 H 0.83018 0.76674 0.74342 0.0
H841 H 0.83254 0.7598 0.63309 0.0
H842 H 0.93762 0.82298 0.78256 0.0
H843 H 0.93989 0.81252 0.67954 0.0
H844 H 0.91885 0.81499 0.89785 0.0
H845 H 0.89237 0.80695 0.93322 0.0
C846 C 0.1222 0.21436 0.77653 0.0
C847 C 0.13203 0.22906 0.84912 0.0
C848 C 0.11633 0.2509 0.79655 0.0
C849 C 0.10693 0.23649 0.72264 0.0
N850 N 0.09437 0.20061 0.66136 0.0
N851 N 0.13321 0.25727 0.94377 0.0
C852 C 0.10759 0.21685 0.71912 0.0
C853 C 0.12742 0.24609 0.86412 0.0
N854 N 0.1278 0.19887 0.75888 0.0
N855 N 0.11503 0.26945 0.80081 0.0
H856 H 0.14084 0.2537 0.99564 0.0
H857 H 0.12865 0.26859 0.96204 0.0
H858 H 0.10555 0.2725 0.75611 0.0
H859 H 0.12391 0.28208 0.84597 0.0
H860 H 0.12314 0.18945 0.70055 0.0
H861 H 0.13867 0.19666 0.79851 0.0
H862 H 0.09304 0.18531 0.66112 0.0
H863 H 0.08268 0.20137 0.62182 0.0
C864 C 0.7664 0.85362 0.7997 0.0
C865 C 0.77887 0.86305 0.72126 0.0
C866 C 0.79694 0.89892 0.79275 0.0
C867 C 0.78104 0.89027 0.86173 0.0
N868 N 0.75265 0.85954 0.94057 0.0
N869 N 0.80834 0.89318 0.64553 0.0
C870 C 0.76664 0.86753 0.86915 0.0
C871 C 0.79532 0.88522 0.71981 0.0
N872 N 0.75396 0.83151 0.80569 0.0
N873 N 0.81298 0.92026 0.79599 0.0
H874 H 0.80786 0.88297 0.59379 0.0
H875 H 0.81924 0.90958 0.63409 0.0
H876 H 0.81421 0.93067 0.84816 0.0
H877 H 0.82587 0.92741 0.75076 0.0
H878 H 0.74515 0.82325 0.86255 0.0
H879 H 0.75393 0.82124 0.75532 0.0
H880 H 0.74013 0.84349 0.94613 0.0
H881 H 0.75329 0.86933 0.99438 0.0
C882 C 0.11642 0.90503 0.73027 0.0
C883 C 0.13874 0.91256 0.74912 0.0
C884 C 0.1293 0.89483 0.89639 0.0
C885 C 0.10702 0.88534 0.8734 0.0
N886 N 0.07905 0.88606 0.78434 0.0
N887 N 0.1667 0.92142 0.85928 0.0
C888 C 0.10049 0.89219 0.79581 0.0
C889 C 0.14523 0.90972 0.8358 0.0
N890 N 0.11028 0.9088 0.6481 0.0
N891 N 0.13514 0.88903 0.9748 0.0
H892 H 0.17845 0.93278 0.81578 0.0
H893 H 0.17256 0.92145 0.92354 0.0
H894 H 0.12377 0.8793 0.0232 0.0
H895 H 0.15105 0.89322 0.99087 0.0
H896 H 0.09423 0.90136 0.62596 0.0
H897 H 0.12121 0.9189 0.59956 0.0
H898 H 0.07334 0.89209 0.73389 0.0
H899 H 0.06699 0.87617 0.83011 0.0
C900 C 0.76931 0.90894 0.29579 0.0
C901 C 0.75104 0.90858 0.25546 0.0
C902 C 0.7275 0.87151 0.31041 0.0
C903 C 0.74541 0.87228 0.3562 0.0
N904 N 0.78258 0.894 0.40904 0.0
N905 N 0.71186 0.89187 0.24658 0.0
C906 C 0.76614 0.89164 0.35375 0.0
C907 C 0.72984 0.89072 0.27063 0.0
N908 N 0.78976 0.9257 0.27761 0.0
N909 N 0.7086 0.85213 0.29949 0.0
H910 H 0.71271 0.90568 0.2186 0.0
H911 H 0.69608 0.87997 0.26359 0.0
H912 H 0.70655 0.83734 0.32249 0.0
H913 H 0.69589 0.85033 0.25846 0.0
H914 H 0.80387 0.92549 0.29507 0.0
H915 H 0.79255 0.93939 0.24084 0.0
H916 H 0.79709 0.90865 0.41702 0.0
H917 H 0.78117 0.88203 0.45334 0.0
C918 C 0.08314 0.84993 0.33631 0.0
C919 C 0.08995 0.84566 0.2531 0.0
C920 C 0.12802 0.87208 0.28824 0.0
C921 C 0.12152 0.87514 0.37495 0.0
N922 N 0.0931 0.86616 0.48485 0.0
N923 N 0.11882 0.84982 0.15441 0.0
C924 C 0.09911 0.86376 0.40006 0.0
C925 C 0.11235 0.85603 0.23014 0.0
N926 N 0.0614 0.8412 0.35312 0.0
N927 N 0.14917 0.88444 0.26076 0.0
H928 H 0.10799 0.83865 0.10801 0.0
H929 H 0.13496 0.85454 0.14049 0.0
H930 H 0.16179 0.89505 0.3026 0.0
H931 H 0.1541 0.88527 0.19413 0.0
H932 H 0.05515 0.84539 0.4081 0.0
H933 H 0.04941 0.8307 0.30825 0.0
H934 H 0.07758 0.85644 0.51125 0.0
H935 H 0.10393 0.87732 0.53119 0.0
C936 C 0.1362 0.20651 0.25802 0.0
C937 C 0.15781 0.22419 0.26475 0.0
C938 C 0.14611 0.23988 0.38418 0.0
C939 C 0.12408 0.22475 0.3639 0.0
N940 N 0.09793 0.19467 0.27335 0.0
N941 N 0.18266 0.2599 0.32658 0.0
C942 C 0.119 0.2081 0.29946 0.0
C943 C 0.16274 0.24138 0.32659 0.0
N944 N 0.13219 0.18826 0.21148 0.0
N945 N 0.15124 0.25251 0.45964 0.0
H946 H 0.19546 0.26239 0.28481 0.0
H947 H 0.18587 0.27378 0.36289 0.0
H948 H 0.1395 0.25115 0.50548 0.0
H949 H 0.16718 0.26237 0.48186 0.0
H950 H 0.11706 0.17407 0.21074 0.0
H951 H 0.1446 0.18659 0.18152 0.0
H952 H 0.09365 0.18383 0.2197 0.0
H953 H 0.08485 0.19573 0.29939 0.0
C954 C 0.88727 0.75703 0.15977 0.0
C955 C 0.86617 0.73823 0.1545 0.0
C956 C 0.8757 0.72118 0.2763 0.0
C957 C 0.89732 0.73918 0.2761 0.0
N958 N 0.92481 0.77234 0.20781 0.0
N959 N 0.84092 0.70136 0.20065 0.0
C960 C 0.9034 0.75659 0.21514 0.0
C961 C 0.86068 0.71991 0.20998 0.0
N962 N 0.89197 0.77544 0.11284 0.0
N963 N 0.869 0.70601 0.34352 0.0
H964 H 0.82846 0.70032 0.16002 0.0
H965 H 0.83726 0.68654 0.22964 0.0
H966 H 0.87914 0.70644 0.39493 0.0
H967 H 0.85285 0.69402 0.35351 0.0
H968 H 0.90608 0.79035 0.12272 0.0
H969 H 0.88118 0.77651 0.06874 0.0
H970 H 0.93077 0.78415 0.15761 0.0
H971 H 0.93707 0.7724 0.24686 0.0
C972 C 0.20783 0.09988 0.22095 0.0
C973 C 0.22184 0.10676 0.14499 0.0
C974 C 0.2289 0.14401 0.16519 0.0
C975 C 0.21886 0.13788 0.25069 0.0
N976 N 0.18891 0.10946 0.3321 0.0
N977 N 0.24376 0.13456 0.03686 0.0
C978 C 0.20506 0.11554 0.26974 0.0
C979 C 0.23154 0.12857 0.11379 0.0
N980 N 0.19838 0.07881 0.24994 0.0
N981 N 0.23475 0.16415 0.13206 0.0
H982 H 0.24502 0.1234 0.99517 0.0
H983 H 0.25328 0.15063 0.01592 0.0
H984 H 0.23076 0.17461 0.16573 0.0
H985 H 0.24102 0.16943 0.06783 0.0
H986 H 0.19016 0.07353 0.31098 0.0
H987 H 0.19997 0.06683 0.21579 0.0
H988 H 0.17724 0.09334 0.34497 0.0
H989 H 0.18571 0.12083 0.36266 0.0
C990 C 0.86752 0.12238 0.28857 0.0
C991 C 0.8584 0.09957 0.27822 0.0
C992 C 0.8829 0.10574 0.15179 0.0
C993 C 0.88938 0.12823 0.15317 0.0
N994 N 0.88572 0.15763 0.21731 0.0
N995 N 0.85613 0.06909 0.19741 0.0
C996 C 0.88129 0.13654 0.22051 0.0
C997 C 0.86581 0.09108 0.20939 0.0
N998 N 0.86351 0.13058 0.36491 0.0
N999 N 0.89366 0.09855 0.09804 0.0
H1000 H 0.84393 0.05795 0.23989 0.0
H1001 H 0.85911 0.06194 0.14202 0.0
H1002 H 0.90692 0.109 0.05826 0.0
H1003 H 0.89099 0.08273 0.09989 0.0
H1004 H 0.87158 0.1471 0.38056 0.0
H1005 H 0.85397 0.12074 0.41754 0.0
H1006 H 0.87795 0.16363 0.25806 0.0
H1007 H 0.89575 0.16878 0.16921 0.0
C1008 C 0.90142 0.43535 0.06316 0.0
C1009 C 0.90276 0.4403 0.15609 0.0
C1010 C 0.89809 0.47154 0.1251 0.0
C1011 C 0.89656 0.46664 0.03199 0.0
N1012 N 0.89312 0.44206 0.91225 0.0
N1013 N 0.89619 0.45873 0.27746 0.0
C1014 C 0.8968 0.44778 0.00108 0.0
C1015 C 0.89906 0.45701 0.18754 0.0
N1016 N 0.90591 0.41972 0.03399 0.0
N1017 N 0.89941 0.49047 0.15383 0.0
H1018 H 0.89626 0.44785 0.32415 0.0
H1019 H 0.89147 0.4693 0.30445 0.0
H1020 H 0.89844 0.50144 0.11031 0.0
H1021 H 0.90314 0.49615 0.21976 0.0
H1022 H 0.90795 0.41714 0.96658 0.0
H1023 H 0.90871 0.40993 0.07801 0.0
H1024 H 0.89076 0.42734 0.8871 0.0
H1025 H 0.8911 0.45153 0.86401 0.0
C1026 C 0.55305 0.44302 0.12643 0.0
C1027 C 0.5605 0.46501 0.10369 0.0
C1028 C 0.5463 0.45426 0.95093 0.0
C1029 C 0.5354 0.43222 0.97915 0.0
N1030 N 0.52784 0.40509 0.093 0.0
N1031 N 0.56555 0.4923 0.99548 0.0
C1032 C 0.53901 0.42636 0.06607 0.0
C1033 C 0.55786 0.47088 0.01555 0.0
N1034 N 0.55902 0.43817 0.20679 0.0
N1035 N 0.54558 0.45914 0.86241 0.0
H1036 H 0.57506 0.50478 0.04058 0.0
H1037 H 0.56197 0.49766 0.93614 0.0
H1038 H 0.53723 0.44719 0.81374 0.0
H1039 H 0.55462 0.47472 0.83567 0.0
H1040 H 0.55563 0.42261 0.22473 0.0
H1041 H 0.5691 0.45014 0.25257 0.0
H1042 H 0.5276 0.40008 0.15904 0.0
H1043 H 0.51757 0.39238 0.05038 0.0
C1044 C 0.54369 0.10541 0.93742 0.0
C1045 C 0.56435 0.11372 0.97957 0.0
C1046 C 0.5526 0.12903 0.09982 0.0
C1047 C 0.53074 0.11578 0.07171 0.0
N1048 N 0.50632 0.09798 0.94809 0.0
N1049 N 0.58865 0.13351 0.10208 0.0
C1050 C 0.52652 0.10601 0.98508 0.0
C1051 C 0.56897 0.12582 0.06055 0.0
N1052 N 0.54088 0.09777 0.85105 0.0
N1053 N 0.55782 0.14537 0.1605 0.0
H1054 H 0.60098 0.13113 0.07641 0.0
H1055 H 0.59201 0.1406 0.1658 0.0
H1056 H 0.54646 0.1497 0.18172 0.0
H1057 H 0.57377 0.15648 0.17896 0.0
H1058 H 0.52668 0.09232 0.81387 0.0
H1059 H 0.55348 0.09813 0.81363 0.0
H1060 H 0.50098 0.0884 0.89043 0.0
H1061 H 0.49492 0.10165 0.97487 0.0
C1062 C 0.73781 0.56734 0.11281 0.0
C1063 C 0.74429 0.58539 0.05498 0.0
C1064 C 0.77946 0.60501 0.13211 0.0
C1065 C 0.77406 0.58595 0.18186 0.0
N1066 N 0.74921 0.54794 0.21267 0.0
N1067 N 0.77244 0.62031 -0.00036 0.0
C1068 C 0.75343 0.56685 0.17113 0.0
C1069 C 0.76538 0.60403 0.06225 0.0
N1070 N 0.71666 0.55081 0.11247 0.0
N1071 N 0.79779 0.62418 0.15307 0.0
H1072 H 0.76285 0.62026 0.94644 0.0
H1073 H 0.78846 0.63302 0.99579 0.0
H1074 H 0.80847 0.62553 0.20419 0.0
H1075 H 0.80132 0.63912 0.12574 0.0
H1076 H 0.71034 0.53824 0.15946 0.0
H1077 H 0.70491 0.5507 0.06986 0.0
H1078 H 0.7354 0.53297 0.19977 0.0
H1079 H 0.76035 0.54671 0.25447 0.0
C1080 C 0.43525 0.1796 0.17013 0.0
C1081 C 0.44323 0.18702 0.08209 0.0
C1082 C 0.43869 0.21847 0.10207 0.0
C1083 C 0.42905 0.21053 0.18782 0.0
N1084 N 0.42656 0.18848 0.31658 0.0
N1085 N 0.46514 0.21967 0.99651 0.0
C1086 C 0.42984 0.19252 0.22629 0.0
C1087 C 0.44928 0.2086 0.05888 0.0
N1088 N 0.43313 0.16045 0.19996 0.0
N1089 N 0.43656 0.23422 0.0582 0.0
H1090 H 0.47436 0.21325 0.96969 0.0
H1091 H 0.47083 0.23599 0.98126 0.0
H1092 H 0.427 0.24052 0.08181 0.0
H1093 H 0.44219 0.23906 0.99267 0.0
H1094 H 0.42472 0.15258 0.25825 0.0
H1095 H 0.43989 0.15247 0.16505 0.0
H1096 H 0.42846 0.17657 0.34935 0.0
H1097 H 0.42432 0.19862 0.36077 0.0
C1098 C 0.7875 0.23512 0.03356 0.0
C1099 C 0.80956 0.24306 0.05612 0.0
C1100 C 0.7987 0.22603 0.20438 0.0
C1101 C 0.77672 0.21465 0.17483 0.0
N1102 N 0.75015 0.20704 0.05801 0.0
N1103 N 0.83681 0.24714 0.16281 0.0
C1104 C 0.771 0.21909 0.08904 0.0
C1105 C 0.81536 0.23899 0.14199 0.0
N1106 N 0.78241 0.24284 0.95878 0.0
N1107 N 0.80355 0.22499 0.29257 0.0
H1108 H 0.84933 0.25814 0.1211 0.0
H1109 H 0.84215 0.24245 0.21932 0.0
H1110 H 0.79163 0.21613 0.34033 0.0
H1111 H 0.81898 0.23448 0.32018 0.0
H1112 H 0.76662 0.23906 0.94253 0.0
H1113 H 0.79433 0.25482 0.91803 0.0
H1114 H 0.7456 0.20794 0.99218 0.0
H1115 H 0.73767 0.1947 0.09543 0.0
C1116 C 0.4047 0.22077 0.58286 0.0
C1117 C 0.42082 0.24313 0.57638 0.0
C1118 C 0.44274 0.23799 0.69061 0.0
C1119 C 0.42574 0.21612 0.70212 0.0
N1120 N 0.38836 0.18848 0.67535 0.0
N1121 N 0.45341 0.274 0.63306 0.0
C1122 C 0.40607 0.20803 0.65307 0.0
C1123 C 0.43931 0.25206 0.63323 0.0
N1124 N 0.38869 0.2113 0.51926 0.0
N1125 N 0.4625 0.24501 0.73065 0.0
H1126 H 0.45138 0.28465 0.59114 0.0
H1127 H 0.46598 0.28182 0.67951 0.0
H1128 H 0.46587 0.2351 0.77142 0.0
H1129 H 0.47617 0.26004 0.7172 0.0
H1130 H 0.37816 0.19455 0.51523 0.0
H1131 H 0.38715 0.21972 0.46508 0.0
H1132 H 0.37295 0.18299 0.64802 0.0
H1133 H 0.38843 0.17876 0.72775 0.0
C1134 C 0.79457 0.24308 0.58853 0.0
C1135 C 0.79787 0.23678 0.67516 0.0
C1136 C 0.77062 0.19881 0.64375 0.0
C1137 C 0.76806 0.20507 0.55633 0.0
N1138 N 0.772 0.23308 0.45459 0.0
N1139 N 0.78525 0.21006 0.79407 0.0
C1140 C 0.77815 0.22727 0.53203 0.0
C1141 C 0.78467 0.21503 0.70564 0.0
N1142 N 0.80801 0.26377 0.55803 0.0
N1143 N 0.76004 0.17726 0.66621 0.0
H1144 H 0.79525 0.22163 0.84107 0.0
H1145 H 0.7746 0.19503 0.82263 0.0
H1146 H 0.74827 0.16534 0.62454 0.0
H1147 H 0.76331 0.17114 0.72414 0.0
H1148 H 0.80805 0.26858 0.49178 0.0
H1149 H 0.82034 0.27586 0.59699 0.0
H1150 H 0.77739 0.24913 0.4361 0.0
H1151 H 0.75972 0.22164 0.41334 0.0
C1152 C 0.76898 0.56841 0.56686 0.0
C1153 C 0.77629 0.57671 0.65493 0.0
C1154 C 0.8069 0.57001 0.63668 0.0
C1155 C 0.80021 0.56343 0.54657 0.0
N1156 N 0.76835 0.54361 0.45395 0.0
N1157 N 0.79722 0.57718 0.78447 0.0
C1158 C 0.77899 0.55829 0.52096 0.0
C1159 C 0.79382 0.57508 0.69352 0.0
N1160 N 0.75358 0.57132 0.52401 0.0
N1161 N 0.8255 0.57107 0.66788 0.0
H1162 H 0.78699 0.57922 0.82884 0.0
H1163 H 0.80869 0.57457 0.81721 0.0
H1164 H 0.83333 0.56424 0.63239 0.0
H1165 H 0.83304 0.57864 0.72799 0.0
H1166 H 0.74921 0.56681 0.45706 0.0
H1167 H 0.74708 0.58042 0.55085 0.0
H1168 H 0.75224 0.53846 0.43669 0.0
H1169 H 0.77477 0.53463 0.42475 0.0
C1170 C 0.59112 0.11161 0.50118 0.0
C1171 C 0.58459 0.10049 0.58455 0.0
C1172 C 0.54621 0.08698 0.54754 0.0
C1173 C 0.55253 0.09669 0.46108 0.0
N1174 N 0.58079 0.11789 0.35313 0.0
N1175 N 0.55589 0.07415 0.68017 0.0
C1176 C 0.57496 0.10881 0.43698 0.0
C1177 C 0.56215 0.08735 0.60604 0.0
N1178 N 0.61276 0.12545 0.48511 0.0
N1179 N 0.52498 0.07742 0.57481 0.0
H1180 H 0.56675 0.0741 0.72702 0.0
H1181 H 0.53994 0.06188 0.69196 0.0
H1182 H 0.51218 0.07496 0.53318 0.0
H1183 H 0.52014 0.07319 0.64147 0.0
H1184 H 0.61874 0.13584 0.43 0.0
H1185 H 0.6249 0.12762 0.53055 0.0
H1186 H 0.59642 0.12446 0.32685 0.0
H1187 H 0.56979 0.11828 0.30772 0.0
C1188 C 0.89146 0.43869 0.59866 0.0
C1189 C 0.9074 0.44561 0.5294 0.0
C1190 C 0.92441 0.48295 0.58707 0.0
C1191 C 0.90771 0.4761 0.65237 0.0
N1192 N 0.87226 0.44909 0.70446 0.0
N1193 N 0.93559 0.47557 0.44421 0.0
C1194 C 0.89012 0.45451 0.65244 0.0
C1195 C 0.92293 0.46811 0.51959 0.0
N1196 N 0.87861 0.41704 0.61759 0.0
N1197 N 0.9419 0.50359 0.59037 0.0
H1198 H 0.93464 0.46551 0.39151 0.0
H1199 H 0.94544 0.49204 0.42961 0.0
H1200 H 0.94282 0.51543 0.63482 0.0
H1201 H 0.95596 0.50857 0.5524 0.0
H1202 H 0.86826 0.41133 0.67308 0.0
H1203 H 0.88005 0.40487 0.58439 0.0
H1204 H 0.85811 0.43396 0.7012 0.0
H1205 H 0.87088 0.46047 0.74421 0.0
C1206 C 0.51376 0.42386 0.42331 0.0
C1207 C 0.53079 0.44264 0.46605 0.0
C1208 C 0.52838 0.42009 0.59415 0.0
C1209 C 0.50742 0.40401 0.56532 0.0
N1210 N 0.48298 0.38725 0.44083 0.0
N1211 N 0.55384 0.45858 0.59704 0.0
C1212 C 0.50105 0.40477 0.47556 0.0
C1213 C 0.53831 0.44071 0.55225 0.0
N1214 N 0.5104 0.42406 0.33275 0.0
N1215 N 0.53882 0.41555 0.66046 0.0
H1216 H 0.56068 0.47438 0.57215 0.0
H1217 H 0.55832 0.45789 0.66327 0.0
H1218 H 0.53254 0.39984 0.68608 0.0
H1219 H 0.55473 0.42646 0.68028 0.0
H1220 H 0.49941 0.41041 0.29631 0.0
H1221 H 0.52015 0.43741 0.29203 0.0
H1222 H 0.47563 0.38762 0.38071 0.0
H1223 H 0.47538 0.37221 0.47349 0.0
C1224 C 0.56479 0.75924 0.24254 0.0
C1225 C 0.57456 0.78143 0.2701 0.0
C1226 C 0.58004 0.77155 0.42226 0.0
C1227 C 0.56998 0.74939 0.39505 0.0
N1228 N 0.55059 0.72136 0.28527 0.0
N1229 N 0.58965 0.80859 0.38816 0.0
C1230 C 0.56182 0.74302 0.30662 0.0
C1231 C 0.58146 0.7875 0.36067 0.0
N1232 N 0.5582 0.75367 0.1552 0.0
N1233 N 0.58952 0.77764 0.5055 0.0
H1234 H 0.59422 0.82161 0.34441 0.0
H1235 H 0.5912 0.81326 0.45545 0.0
H1236 H 0.58849 0.7667 0.55455 0.0
H1237 H 0.59984 0.7937 0.52486 0.0
H1238 H 0.55357 0.73852 0.12727 0.0
H1239 H 0.55787 0.76444 0.1086 0.0
H1240 H 0.5424 0.71511 0.2249 0.0
H1241 H 0.54826 0.70921 0.33093 0.0
C1242 C 0.23931 0.81392 0.3582 0.0
C1243 C 0.24405 0.8083 0.44324 0.0
C1244 C 0.221 0.7696 0.40938 0.0
C1245 C 0.21608 0.77518 0.32431 0.0
N1246 N 0.22557 0.80199 0.20724 0.0
N1247 N 0.24506 0.78143 0.53864 0.0
C1248 C 0.22682 0.79718 0.29533 0.0
C1249 C 0.23687 0.7863 0.46478 0.0
N1250 N 0.24624 0.83522 0.33871 0.0
N1251 N 0.20954 0.74865 0.43999 0.0
H1252 H 0.25692 0.79344 0.57938 0.0
H1253 H 0.24183 0.76576 0.55388 0.0
H1254 H 0.19744 0.73594 0.40246 0.0
H1255 H 0.21069 0.74417 0.50563 0.0
H1256 H 0.24103 0.84017 0.2826 0.0
H1257 H 0.25654 0.84794 0.38136 0.0
H1258 H 0.2346 0.81756 0.18025 0.0
H1259 H 0.2172 0.79 0.15893 0.0
C1260 C 0.20193 0.45162 0.40526 0.0
C1261 C 0.18164 0.43197 0.40715 0.0
C1262 C 0.195 0.41656 0.2928 0.0
C1263 C 0.21626 0.43454 0.30392 0.0
N1264 N 0.24063 0.46866 0.37656 0.0
N1265 N 0.15968 0.39441 0.35977 0.0
C1266 C 0.21991 0.45212 0.3608 0.0
C1267 C 0.17823 0.41414 0.35188 0.0
N1268 N 0.2039 0.46982 0.44575 0.0
N1269 N 0.1907 0.40199 0.22463 0.0
H1270 H 0.14692 0.39163 0.40217 0.0
H1271 H 0.15771 0.38027 0.3296 0.0
H1272 H 0.20249 0.40349 0.1786 0.0
H1273 H 0.17503 0.38977 0.20797 0.0
H1274 H 0.21768 0.48516 0.43983 0.0
H1275 H 0.19084 0.46995 0.47765 0.0
H1276 H 0.24445 0.48063 0.42513 0.0
H1277 H 0.25431 0.46946 0.34658 0.0
C1278 C 0.46082 0.88542 0.405 0.0
C1279 C 0.46529 0.89534 0.4913 0.0
C1280 C 0.44134 0.91019 0.45988 0.0
C1281 C 0.43753 0.90089 0.37287 0.0
N1282 N 0.43749 0.87416 0.27335 0.0
N1283 N 0.45504 0.91153 0.61064 0.0
C1284 C 0.44514 0.88653 0.34936 0.0
C1285 C 0.45401 0.90597 0.52194 0.0
N1286 N 0.47255 0.87627 0.37361 0.0
N1287 N 0.43335 0.92357 0.48184 0.0
H1288 H 0.46376 0.90812 0.65801 0.0
H1289 H 0.4457 0.91758 0.63891 0.0
H1290 H 0.42263 0.9255 0.43992 0.0
H1291 H 0.43783 0.93318 0.53959 0.0
H1292 H 0.47179 0.87116 0.3073 0.0
H1293 H 0.48442 0.87534 0.41153 0.0
H1294 H 0.44104 0.86205 0.25596 0.0
H1295 H 0.4257 0.87453 0.23279 0.0
C1296 C 0.07474 0.5293 0.48686 0.0
C1297 C 0.09384 0.54487 0.53196 0.0
C1298 C 0.11583 0.53319 0.44637 0.0
C1299 C 0.09681 0.51791 0.39995 0.0
N1300 N 0.0576 0.49866 0.38451 0.0
N1301 N 0.1318 0.55949 0.5678 0.0
C1302 C 0.07605 0.51499 0.42341 0.0
C1303 C 0.11414 0.54602 0.51626 0.0
N1304 N 0.05544 0.52869 0.50299 0.0
N1305 N 0.13558 0.53588 0.42121 0.0
H1306 H 0.13146 0.5699 0.61653 0.0
H1307 H 0.14647 0.55952 0.56657 0.0
H1308 H 0.13717 0.52588 0.3739 0.0
H1309 H 0.15045 0.54844 0.444 0.0
H1310 H 0.04145 0.5199 0.46449 0.0
H1311 H 0.05354 0.53788 0.55326 0.0
H1312 H 0.04191 0.49396 0.40603 0.0
H1313 H 0.05772 0.48862 0.33374 0.0
C1314 C 0.47159 0.57075 0.55239 0.0
C1315 C 0.45141 0.55419 0.51668 0.0
C1316 C 0.45296 0.57987 0.40365 0.0
C1317 C 0.47546 0.59313 0.42048 0.0
N1318 N 0.50405 0.60619 0.53056 0.0
N1319 N 0.42266 0.54321 0.40589 0.0
C1320 C 0.48412 0.59024 0.50189 0.0
C1321 C 0.4417 0.55895 0.44301 0.0
N1322 N 0.47828 0.56804 0.63532 0.0
N1323 N 0.44263 0.58732 0.3491 0.0
H1324 H 0.41423 0.52724 0.42905 0.0
H1325 H 0.41628 0.54555 0.34647 0.0
H1326 H 0.45077 0.6031 0.323 0.0
H1327 H 0.42585 0.57893 0.33895 0.0
H1328 H 0.49224 0.57976 0.66768 0.0
H1329 H 0.46885 0.55448 0.6756 0.0
H1330 H 0.51279 0.60437 0.58275 0.0
H1331 H 0.51162 0.62171 0.5021 0.0
C1332 C 0.07957 0.58324 0.95876 0.0
C1333 C 0.09964 0.59623 0.91333 0.0
C1334 C 0.11596 0.57831 0.99831 0.0
C1335 C 0.09496 0.56278 0.02979 0.0
N1336 N 0.05627 0.54915 0.0348 0.0
N1337 N 0.13731 0.60707 0.89146 0.0
C1338 C 0.07666 0.56507 0.00994 0.0
C1339 C 0.11803 0.59419 0.9346 0.0
N1340 N 0.06317 0.588 0.95234 0.0
N1341 N 0.13388 0.57808 0.03069 0.0
H1342 H 0.13967 0.61988 0.84951 0.0
H1343 H 0.1506 0.60464 0.89453 0.0
H1344 H 0.13289 0.56673 0.07787 0.0
H1345 H 0.14979 0.59016 0.01692 0.0
H1346 H 0.04897 0.58024 0.99045 0.0
H1347 H 0.06456 0.60121 0.91663 0.0
H1348 H 0.04205 0.5485 0.01227 0.0
H1349 H 0.05335 0.53545 0.07171 0.0
C1350 C 0.44586 0.5238 0.02759 0.0
C1351 C 0.43972 0.53864 0.06083 0.0
C1352 C 0.40578 0.52002 0.97468 0.0
C1353 C 0.41382 0.50784 0.9297 0.0
N1354 N 0.44319 0.50025 0.90519 0.0
N1355 N 0.41431 0.55188 0.06442 0.0
C1356 C 0.43418 0.51003 0.95464 0.0
C1357 C 0.41962 0.53685 0.03509 0.0
N1358 N 0.46267 0.52263 0.0669 0.0
N1359 N 0.38487 0.51535 0.9597 0.0
H1360 H 0.42397 0.56438 0.10899 0.0
H1361 H 0.4011 0.5529 0.0399 0.0
H1362 H 0.37441 0.50302 0.91593 0.0
H1363 H 0.37731 0.52222 0.99645 0.0
H1364 H 0.46661 0.5107 0.05099 0.0
H1365 H 0.47112 0.53212 0.12241 0.0
H1366 H 0.45912 0.50353 0.91429 0.0
H1367 H 0.43563 0.4903 0.84984 0.0
C1368 C 0.48442 0.90761 0.96015 0.0
C1369 C 0.47856 0.89806 0.87374 0.0
C1370 C 0.44017 0.88493 0.90447 0.0
C1371 C 0.44603 0.8954 0.98969 0.0
N1372 N 0.47251 0.91115 0.10905 0.0
N1373 N 0.45122 0.8719 0.775 0.0
C1374 C 0.46783 0.905 0.02097 0.0
C1375 C 0.45647 0.88464 0.85012 0.0
N1376 N 0.50592 0.91973 0.9825 0.0
N1377 N 0.41944 0.87664 0.87268 0.0
H1378 H 0.46304 0.87132 0.73542 0.0
H1379 H 0.43534 0.86039 0.75749 0.0
H1380 H 0.40709 0.87688 0.9096 0.0
H1381 H 0.41485 0.8711 0.80699 0.0
H1382 H 0.5116 0.92956 0.03948 0.0
H1383 H 0.51816 0.92028 0.94167 0.0
H1384 H 0.48769 0.91646 0.13812 0.0
H1385 H 0.46062 0.90911 0.15543 0.0
C1386 C 0.23226 0.43715 0.80959 0.0
C1387 C 0.21048 0.41968 0.80252 0.0
C1388 C 0.21661 0.40095 0.92718 0.0
C1389 C 0.23891 0.41735 0.92876 0.0
N1390 N 0.26884 0.44963 0.86514 0.0
N1391 N 0.18333 0.38287 0.84073 0.0
C1392 C 0.24702 0.43507 0.868 0.0
C1393 C 0.20303 0.40098 0.85743 0.0
N1394 N 0.23856 0.45606 0.76353 0.0
N1395 N 0.20813 0.38585 0.9946 0.0
H1396 H 0.17309 0.38202 0.78858 0.0
H1397 H 0.17812 0.368 0.87265 0.0
H1398 H 0.21741 0.38545 0.04814 0.0
H1399 H 0.19152 0.37509 0.00221 0.0
H1400 H 0.2535 0.47015 0.77299 0.0
H1401 H 0.22813 0.45833 0.72117 0.0
H1402 H 0.27612 0.4616 0.81595 0.0
H1403 H 0.27997 0.44866 0.90807 0.0
C1404 C 0.55688 0.78471 0.75224 0.0
C1405 C 0.54875 0.76364 0.78904 0.0
C1406 C 0.54069 0.77579 0.93059 0.0
C1407 C 0.5536 0.79763 0.90113 0.0
N1408 N 0.57155 0.82324 0.78146 0.0
N1409 N 0.5321 0.73836 0.91153 0.0
C1410 C 0.56062 0.80214 0.81039 0.0
C1411 C 0.53996 0.75882 0.87717 0.0
N1412 N 0.56084 0.78786 0.66187 0.0
N1413 N 0.52932 0.77128 0.00938 0.0
H1414 H 0.53082 0.72541 0.87344 0.0
H1415 H 0.52808 0.73451 0.97904 0.0
H1416 H 0.52899 0.7832 0.04901 0.0
H1417 H 0.51831 0.75555 0.03059 0.0
H1418 H 0.5654 0.80249 0.62918 0.0
H1419 H 0.55759 0.77509 0.61802 0.0
H1420 H 0.57946 0.82811 0.71967 0.0
H1421 H 0.5731 0.83605 0.82148 0.0
C1422 C 0.24336 0.78985 0.90915 0.0
C1423 C 0.23755 0.79461 0.82423 0.0
C1424 C 0.19899 0.76981 0.85592 0.0
C1425 C 0.20481 0.76556 0.94147 0.0
N1426 N 0.23202 0.7661 0.03955 0.0
N1427 N 0.21083 0.78463 0.70633 0.0
C1428 C 0.22689 0.77365 0.96431 0.0
C1429 C 0.21563 0.78312 0.79419 0.0
N1430 N 0.26426 0.80179 0.93982 0.0
N1431 N 0.17753 0.76173 0.83532 0.0
H1432 H 0.22273 0.79397 0.65917 0.0
H1433 H 0.19546 0.77511 0.67819 0.0
H1434 H 0.16499 0.75084 0.87727 0.0
H1435 H 0.17219 0.76647 0.77899 0.0
H1436 H 0.26893 0.80079 0.00528 0.0
H1437 H 0.27675 0.81404 0.90217 0.0
H1438 H 0.24781 0.77 0.05628 0.0
H1439 H 0.22014 0.7541 0.08033 0.0
C1440 C 0.34758 0.11515 0.87097 0.0
C1441 C 0.36289 0.13285 0.92437 0.0
C1442 C 0.33364 0.12801 0.02657 0.0
C1443 C 0.31861 0.11 0.97457 0.0
N1444 N 0.31244 0.08223 0.86604 0.0
N1445 N 0.3714 0.15147 0.06772 0.0
C1446 C 0.32601 0.10209 0.90331 0.0
C1447 C 0.3562 0.13787 0.00687 0.0
N1448 N 0.35296 0.11171 0.78657 0.0
N1449 N 0.32638 0.1359 0.09391 0.0
H1450 H 0.38808 0.15808 0.05771 0.0
H1451 H 0.36748 0.15427 0.13208 0.0
H1452 H 0.3101 0.12829 0.11384 0.0
H1453 H 0.33631 0.15065 0.12617 0.0
H1454 H 0.34159 0.10047 0.7418 0.0
H1455 H 0.36813 0.1215 0.75723 0.0
H1456 H 0.31764 0.07485 0.81924 0.0
H1457 H 0.29658 0.0722 0.8888 0.0
C1458 C 0.90128 0.22514 0.01217 0.0
C1459 C 0.91173 0.21841 0.94925 0.0
C1460 C 0.9043 0.23757 0.8293 0.0
C1461 C 0.89034 0.24055 0.88866 0.0
N1462 N 0.87478 0.23652 0.03718 0.0
N1463 N 0.92361 0.21823 0.79691 0.0
C1464 C 0.88892 0.23455 0.98079 0.0
C1465 C 0.91374 0.22497 0.85772 0.0
N1466 N 0.90339 0.22265 0.10224 0.0
N1467 N 0.90877 0.24714 0.74626 0.0
H1468 H 0.93174 0.21001 0.8152 0.0
H1469 H 0.92288 0.21988 0.72755 0.0
H1470 H 0.90229 0.2567 0.72426 0.0
H1471 H 0.92042 0.2474 0.70285 0.0
H1472 H 0.89794 0.2291 0.15219 0.0
H1473 H 0.91262 0.21605 0.12698 0.0
H1474 H 0.87096 0.22981 0.10149 0.0
H1475 H 0.86567 0.24362 0.01794 0.0
C1476 C 0.75657 0.65811 0.87049 0.0
C1477 C 0.75709 0.65365 0.7777 0.0
C1478 C 0.78335 0.69246 0.75496 0.0
C1479 C 0.78721 0.69479 0.84943 0.0
N1480 N 0.77844 0.67826 0.9975 0.0
N1481 N 0.76684 0.66821 0.62752 0.0
C1482 C 0.77398 0.67726 0.9076 0.0
C1483 C 0.76928 0.67138 0.71839 0.0
N1484 N 0.73892 0.64496 0.92212 0.0
N1485 N 0.79222 0.7105 0.70118 0.0
H1486 H 0.75388 0.6543 0.59927 0.0
H1487 H 0.77743 0.67936 0.58053 0.0
H1488 H 0.80138 0.72622 0.7268 0.0
H1489 H 0.7888 0.71023 0.63293 0.0
H1490 H 0.73754 0.6484 0.98928 0.0
H1491 H 0.72439 0.63292 0.89397 0.0
H1492 H 0.7702 0.66486 0.03993 0.0
H1493 H 0.79168 0.69152 0.02775 0.0
C1494 C 0.11251 0.33829 0.67324 0.0
C1495 C 0.11672 0.35356 0.60369 0.0
C1496 C 0.09513 0.32411 0.49771 0.0
C1497 C 0.0914 0.30876 0.56642 0.0
N1498 N 0.09102 0.301 0.72475 0.0
N1499 N 0.10642 0.36162 0.4611 0.0
C1500 C 0.09822 0.31579 0.65612 0.0
C1501 C 0.10627 0.34664 0.51921 0.0
N1502 N 0.1229 0.3452 0.7542 0.0
N1503 N 0.08831 0.31715 0.41179 0.0
H1504 H 0.11348 0.37804 0.47809 0.0
H1505 H 0.09768 0.35756 0.40106 0.0
H1506 H 0.07889 0.30073 0.39498 0.0
H1507 H 0.09282 0.32758 0.35667 0.0
H1508 H 0.12276 0.33472 0.80356 0.0
H1509 H 0.13269 0.36162 0.77033 0.0
H1510 H 0.09378 0.30533 0.79247 0.0
H1511 H 0.08061 0.28441 0.71459 0.0
C1512 C 0.67271 0.78397 0.52603 0.0
C1513 C 0.688 0.78714 0.59456 0.0
C1514 C 0.65811 0.76457 0.69842 0.0
C1515 C 0.64302 0.76388 0.63412 0.0
N1516 N 0.63555 0.77344 0.48799 0.0
N1517 N 0.6958 0.78019 0.74499 0.0
C1518 C 0.65017 0.77335 0.54762 0.0
C1519 C 0.68082 0.77724 0.6804 0.0
N1520 N 0.67966 0.79141 0.44059 0.0
N1521 N 0.65058 0.75258 0.77564 0.0
H1522 H 0.71245 0.78761 0.73183 0.0
H1523 H 0.69196 0.776 0.81232 0.0
H1524 H 0.63403 0.74298 0.78995 0.0
H1525 H 0.66044 0.75063 0.82211 0.0
H1526 H 0.6693 0.78713 0.38533 0.0
H1527 H 0.69595 0.80077 0.42256 0.0
H1528 H 0.63985 0.7827 0.42939 0.0
H1529 H 0.61889 0.76514 0.49956 0.0
C1530 C 0.20077 0.87812 0.58877 0.0
C1531 C 0.21137 0.89948 0.55255 0.0
C1532 C 0.24651 0.90497 0.60634 0.0
C1533 C 0.23608 0.88288 0.6339 0.0
N1534 N 0.20392 0.84718 0.63505 0.0
N1535 N 0.24453 0.93258 0.51687 0.0
C1536 C 0.21338 0.8691 0.62083 0.0
C1537 C 0.23432 0.9128 0.55889 0.0
N1538 N 0.1786 0.86669 0.59607 0.0
N1539 N 0.26787 0.91859 0.6278 0.0
H1540 H 0.23611 0.93884 0.48193 0.0
H1541 H 0.26135 0.94205 0.51063 0.0
H1542 H 0.27723 0.91334 0.66231 0.0
H1543 H 0.27583 0.93535 0.61805 0.0
H1544 H 0.17017 0.85209 0.6313 0.0
H1545 H 0.1687 0.8728 0.57496 0.0
H1546 H 0.18799 0.83611 0.61621 0.0
H1547 H 0.21246 0.83967 0.65774 0.0
C1548 C 0.67918 0.90142 0.08016 0.0
C1549 C 0.68718 0.88979 0.02972 0.0
C1550 C 0.65151 0.85671 0.038 0.0
C1551 C 0.64361 0.86812 0.08984 0.0
N1552 N 0.64778 0.90216 0.14156 0.0
N1553 N 0.67936 0.85891 0.9369 0.0
C1554 C 0.65674 0.89081 0.10428 0.0
C1555 C 0.67279 0.86819 0.00127 0.0
N1556 N 0.69315 0.92203 0.11007 0.0
N1557 N 0.63885 0.83478 0.02552 0.0
H1558 H 0.69464 0.86725 0.90641 0.0
H1559 H 0.66902 0.84396 0.90688 0.0
H1560 H 0.62276 0.82601 0.04688 0.0
H1561 H 0.64465 0.82509 0.99855 0.0
H1562 H 0.68883 0.93017 0.15671 0.0
H1563 H 0.70957 0.93064 0.09337 0.0
H1564 H 0.6558 0.91907 0.1452 0.0
H1565 H 0.63158 0.89474 0.1622 0.0
C1566 C 0.1401 0.79422 0.06641 0.0
C1567 C 0.12793 0.77233 0.0966 0.0
C1568 C 0.095 0.76902 0.02727 0.0
C1569 C 0.10666 0.79154 0.00627 0.0
N1570 N 0.13962 0.82649 0.01795 0.0
N1571 N 0.09338 0.73948 0.11561 0.0
C1572 C 0.12905 0.80438 0.0285 0.0
C1573 C 0.10526 0.75982 0.07922 0.0
N1574 N 0.16232 0.80519 0.07117 0.0
N1575 N 0.0743 0.75636 0.99544 0.0
H1576 H 0.1003 0.73227 0.15445 0.0
H1577 H 0.07646 0.73046 0.11371 0.0
H1578 H 0.06641 0.76259 0.9566 0.0
H1579 H 0.06567 0.73947 0.00045 0.0
H1580 H 0.17211 0.82007 0.03962 0.0
H1581 H 0.17121 0.79869 0.09992 0.0
H1582 H 0.15506 0.83687 0.04386 0.0
H1583 H 0.13239 0.83484 0.99047 0.0
C1584 C 0.23971 0.33511 0.20268 0.0
C1585 C 0.22851 0.34689 0.1934 0.0
C1586 C 0.20058 0.31749 0.10241 0.0
C1587 C 0.21016 0.3045 0.121 0.0
N1588 N 0.23719 0.29975 0.20073 0.0
N1589 N 0.19618 0.34771 0.14902 0.0
C1590 C 0.2294 0.313 0.17388 0.0
C1591 C 0.20828 0.33758 0.14787 0.0
N1592 N 0.26016 0.34504 0.23881 0.0
N1593 N 0.18477 0.31113 0.038 0.0
H1594 H 0.20129 0.3626 0.18081 0.0
H1595 H 0.18027 0.34044 0.12506 0.0
H1596 H 0.17948 0.29707 -0.00053 0.0
H1597 H 0.17873 0.32101 0.01559 0.0
H1598 H 0.27009 0.33811 0.23828 0.0
H1599 H 0.26779 0.36092 0.2638 0.0
H1600 H 0.24972 0.30444 0.24734 0.0
H1601 H 0.22999 0.28341 0.18247 0.0
C1602 C 0.85432 0.64625 0.52578 0.0
C1603 C 0.86095 0.64363 0.4384 0.0
C1604 C 0.89661 0.67556 0.46498 0.0
C1605 C 0.88783 0.68164 0.5378 0.0
N1606 N 0.86012 0.67051 0.65144 0.0
N1607 N 0.88847 0.65713 0.32176 0.0
C1608 C 0.86722 0.66615 0.5729 0.0
C1609 C 0.88222 0.65848 0.40742 0.0
N1610 N 0.83625 0.62948 0.5648 0.0
N1611 N 0.91856 0.68536 0.45262 0.0
H1612 H 0.87824 0.64542 0.27551 0.0
H1613 H 0.90314 0.66905 0.29409 0.0
H1614 H 0.92962 0.69577 0.50044 0.0
H1615 H 0.92561 0.68047 0.40296 0.0
H1616 H 0.83159 0.62967 0.63108 0.0
H1617 H 0.82695 0.61441 0.53375 0.0
H1618 H 0.84419 0.66151 0.67476 0.0
H1619 H 0.87042 0.6835 0.69294 0.0
C1620 C 0.31518 0.18316 0.34869 0.0
C1621 C 0.30833 0.194 0.40941 0.0
C1622 C 0.33904 0.22905 0.3625 0.0
C1623 C 0.34772 0.21796 0.31314 0.0
N1624 N 0.34531 0.1839 0.27014 0.0
N1625 N 0.31483 0.22718 0.48175 0.0
C1626 C 0.33607 0.19486 0.30837 0.0
C1627 C 0.32044 0.21697 0.41793 0.0
N1628 N 0.30145 0.16182 0.32709 0.0
N1629 N 0.34828 0.25111 0.35467 0.0
H1630 H 0.30142 0.21891 0.52408 0.0
H1631 H 0.32449 0.24359 0.49791 0.0
H1632 H 0.36158 0.26039 0.31294 0.0
H1633 H 0.34146 0.25987 0.38203 0.0
H1634 H 0.30476 0.15378 0.27617 0.0
H1635 H 0.28574 0.1528 0.35319 0.0
H1636 H 0.3387 0.16713 0.27647 0.0
H1637 H 0.36045 0.19154 0.23879 0.0
C1638 C 0.78321 0.11303 0.54133 0.0
C1639 C 0.78721 0.09953 0.48348 0.0
C1640 C 0.76844 0.10641 0.35999 0.0
C1641 C 0.76723 0.12225 0.41411 0.0
N1642 N 0.77216 0.14016 0.55739 0.0
N1643 N 0.77594 0.07668 0.3507 0.0
C1644 C 0.77375 0.12503 0.50591 0.0
C1645 C 0.7774 0.09405 0.39672 0.0
N1646 N 0.78788 0.11366 0.63099 0.0
N1647 N 0.76171 0.10381 0.27225 0.0
H1648 H 0.78091 0.0663 0.37694 0.0
H1649 H 0.76747 0.07083 0.29055 0.0
H1650 H 0.75368 0.11147 0.24525 0.0
H1651 H 0.76488 0.09494 0.22491 0.0
H1652 H 0.78391 0.12169 0.67943 0.0
H1653 H 0.79399 0.10424 0.65852 0.0
H1654 H 0.77912 0.14515 0.62083 0.0
H1655 H 0.76447 0.14851 0.53511 0.0
C1656 C 0.98613 0.44286 0.15381 0.0
C1657 C 0.98543 0.437 0.24576 0.0
C1658 C 0.02351 0.44599 0.23717 0.0
C1659 C 0.02514 0.45514 0.15065 0.0
N1660 N 0.00859 0.46401 0.02828 0.0
N1661 N 0.00342 0.43356 0.37715 0.0
C1662 C 0.00653 0.45375 0.10862 0.0
C1663 C 0.00411 0.43865 0.288 0.0
N1664 N 0.96737 0.43823 0.10985 0.0
N1665 N 0.04035 0.44377 0.26945 0.0
H1666 H 0.98914 0.42687 0.41512 0.0
H1667 H 0.01719 0.43705 0.41468 0.0
H1668 H 0.05451 0.44839 0.23245 0.0
H1669 H 0.0395 0.43549 0.32851 0.0
H1670 H 0.96654 0.44005 0.04066 0.0
H1671 H 0.95218 0.43073 0.14087 0.0
H1672 H 0.99624 0.46591 -0.00028 0.0
H1673 H 0.02321 0.47212 0.99291 0.0
C1674 C 0.5335 0.56415 0.37099 0.0
C1675 C 0.52345 0.56003 0.28509 0.0
C1676 C 0.53068 0.53016 0.26196 0.0
C1677 C 0.54286 0.53572 0.34315 0.0
N1678 N 0.5593 0.56082 0.46696 0.0
N1679 N 0.51653 0.5422 0.14064 0.0
C1680 C 0.54524 0.55352 0.39569 0.0
C1681 C 0.52352 0.54414 0.22765 0.0
N1682 N 0.53154 0.57793 0.42954 0.0
N1683 N 0.52442 0.51065 0.22132 0.0
H1684 H 0.51104 0.55212 0.1131 0.0
H1685 H 0.51816 0.5322 0.09362 0.0
H1686 H 0.52725 0.49895 0.25032 0.0
H1687 H 0.51395 0.50492 0.16618 0.0
H1688 H 0.53632 0.57962 0.49675 0.0
H1689 H 0.5237 0.58653 0.41252 0.0
H1690 H 0.56328 0.57506 0.502 0.0
H1691 H 0.56857 0.55381 0.48593 0.0
C1692 C 0.45948 0.00402 0.15166 0.0
C1693 C 0.4473 0.98566 0.20767 0.0
C1694 C 0.45211 0.0101 0.33349 0.0
C1695 C 0.46719 0.02811 0.28148 0.0
N1696 N 0.48865 0.04136 0.14546 0.0
N1697 N 0.43552 0.97143 0.35824 0.0
C1698 C 0.47173 0.02492 0.1914 0.0
C1699 C 0.44436 0.98869 0.30028 0.0
N1700 N 0.45907 0.0016 0.06029 0.0
N1701 N 0.44487 0.01341 0.41398 0.0
H1702 H 0.43048 0.95553 0.33862 0.0
H1703 H 0.43527 0.97321 0.4278 0.0
H1704 H 0.44984 0.0289 0.43959 0.0
H1705 H 0.43228 0.0009 0.4504 0.0
H1706 H 0.4661 0.01475 0.01608 0.0
H1707 H 0.44967 0.98662 0.02847 0.0
H1708 H 0.49386 0.03915 0.08276 0.0
H1709 H 0.49904 0.05652 0.17383 0.0
C1710 C 0.57079 0.02066 0.68894 0.0
C1711 C 0.57217 0.02414 0.78361 0.0
C1712 C 0.55566 0.98485 0.80865 0.0
C1713 C 0.55468 0.98151 0.71393 0.0
N1714 N 0.56718 0.99652 0.56632 0.0
N1715 N 0.57155 0.01037 0.93242 0.0
C1716 C 0.56424 0.99957 0.65497 0.0
C1717 C 0.56641 0.00646 0.84311 0.0
N1718 N 0.57419 0.03702 0.6312 0.0
N1719 N 0.54526 0.96755 0.86574 0.0
H1720 H 0.57971 0.02604 0.95947 0.0
H1721 H 0.56971 0.99835 0.97764 0.0
H1722 H 0.53751 0.95146 0.84417 0.0
H1723 H 0.54305 0.96918 0.93403 0.0
H1724 H 0.57088 0.03468 0.56249 0.0
H1725 H 0.57841 0.05253 0.6529 0.0
H1726 H 0.57596 0.0093 0.52172 0.0
H1727 H 0.56283 0.98124 0.53988 0.0
C1728 C 0.01863 0.58283 0.78558 0.0
C1729 C 0.02434 0.56755 0.75194 0.0
C1730 C 0.98967 0.53756 0.80584 0.0
C1731 C 0.98319 0.55268 0.83264 0.0
N1732 N 0.98977 0.58943 0.83472 0.0
N1733 N 0.01276 0.53059 0.70814 0.0
C1734 C 0.9971 0.57525 0.81783 0.0
C1735 C 0.00909 0.54496 0.75565 0.0
N1736 N 0.034 0.60438 0.79183 0.0
N1737 N 0.97757 0.51616 0.82989 0.0
H1738 H 0.02638 0.5355 0.66724 0.0
H1739 H 0.00118 0.51417 0.70109 0.0
H1740 H 0.96336 0.51001 0.8678 0.0
H1741 H 0.98278 0.50494 0.81991 0.0
H1742 H 0.03135 0.61578 0.82512 0.0
H1743 H 0.05004 0.61067 0.77082 0.0
H1744 H 0.99827 0.60576 0.81593 0.0
H1745 H 0.97441 0.5845 0.86169 0.0
C1746 C 0.45566 0.46849 0.70112 0.0
C1747 C 0.43713 0.45807 0.64423 0.0
C1748 C 0.43946 0.42468 0.64708 0.0
C1749 C 0.45701 0.43468 0.70903 0.0
N1750 N 0.47834 0.4642 0.81145 0.0
N1751 N 0.40859 0.4249 0.57852 0.0
C1752 C 0.46412 0.45605 0.74078 0.0
C1753 C 0.42825 0.43578 0.62134 0.0
N1754 N 0.46578 0.49047 0.71461 0.0
N1755 N 0.43396 0.40494 0.6102 0.0
H1756 H 0.39968 0.43231 0.55985 0.0
H1757 H 0.40016 0.40811 0.56904 0.0
H1758 H 0.44138 0.39604 0.62856 0.0
H1759 H 0.42317 0.39814 0.55653 0.0
H1760 H 0.48073 0.49928 0.74703 0.0
H1761 H 0.46027 0.50029 0.68656 0.0
H1762 H 0.48228 0.47875 0.84378 0.0
H1763 H 0.48447 0.45537 0.84409 0.0
loop_
_geom_bond_atom_site_label_1
_geom_bond_atom_site_label_2
_geom_bond_distance
_geom_bond_site_symmetry_2
_ccdc_geom_bond_type
C0 O1 1.160 . S
C0 O7 1.185 . S
O1 C0 1.160 . S
O2 Zn3 1.899 1_556 S
O2 C10 1.284 1_556 S
Zn3 O2 1.899 1_554 S
Zn3 O4 2.032 . S
Zn3 O7 2.086 . S
Zn3 O12 1.977 1_554 S
O4 Zn3 2.032 . S
O4 C8 1.278 . S
C5 O6 1.203 . S
C5 O12 1.267 . S
O6 C5 1.203 . S
O7 C0 1.185 . S
O7 Zn3 2.086 . S
C8 O4 1.278 . S
C8 O9 1.211 . S
O9 C8 1.211 . S
C10 O2 1.284 1_554 S
C10 O11 1.273 . S
O11 C10 1.273 . S
O12 Zn3 1.977 1_556 S
O12 C5 1.267 . S
C13 O14 1.160 . S
C13 O20 1.185 . S
O14 C13 1.160 . S
O15 Zn16 1.899 1_556 S
O15 C23 1.284 1_556 S
Zn16 O15 1.899 1_554 S
Zn16 O17 2.032 . S
Zn16 O20 2.086 . S
Zn16 O25 1.977 1_554 S
O17 Zn16 2.032 . S
O17 C21 1.278 . S
C18 O19 1.203 . S
C18 O25 1.267 . S
O19 C18 1.203 . S
O20 C13 1.185 . S
O20 Zn16 2.086 . S
C21 O17 1.278 . S
C21 O22 1.211 . S
O22 C21 1.211 . S
C23 O15 1.284 1_554 S
C23 O24 1.273 . S
O24 C23 1.273 . S
O25 Zn16 1.977 1_556 S
O25 C18 1.267 . S
C26 O27 1.160 . S
C26 O33 1.185 . S
O27 C26 1.160 . S
O28 Zn29 1.899 1_556 S
O28 C36 1.284 1_556 S
Zn29 O28 1.899 1_554 S
Zn29 O30 2.032 . S
Zn29 O33 2.086 . S
Zn29 O38 1.977 1_554 S
O30 Zn29 2.032 . S
O30 C34 1.278 . S
C31 O32 1.203 . S
C31 O38 1.267 . S
O32 C31 1.203 . S
O33 C26 1.185 . S
O33 Zn29 2.086 . S
C34 O30 1.278 . S
C34 O35 1.211 . S
O35 C34 1.211 . S
C36 O28 1.284 1_554 S
C36 O37 1.273 . S
O37 C36 1.273 . S
O38 Zn29 1.977 1_556 S
O38 C31 1.267 . S
C39 O40 1.160 . S
C39 O46 1.185 . S
O40 C39 1.160 . S
O41 Zn42 1.899 . S
O41 C49 1.284 . S
Zn42 O41 1.899 . S
Zn42 O43 2.032 . S
Zn42 O46 2.086 . S
Zn42 O51 1.977 . S
O43 Zn42 2.032 . S
O43 C47 1.278 . S
C44 O45 1.203 . S
C44 O51 1.267 . S
O45 C44 1.203 . S
O46 C39 1.185 . S
O46 Zn42 2.086 . S
C47 O43 1.278 . S
C47 O48 1.211 . S
O48 C47 1.211 . S
C49 O41 1.284 . S
C49 O50 1.273 . S
O50 C49 1.273 . S
O51 Zn42 1.977 . S
O51 C44 1.267 . S
C52 O53 1.160 . S
C52 O59 1.185 . S
O53 C52 1.160 . S
O54 Zn55 1.899 . S
O54 C62 1.284 . S
Zn55 O54 1.899 . S
Zn55 O56 2.032 . S
Zn55 O59 2.086 . S
Zn55 O64 1.977 . S
O56 Zn55 2.032 . S
O56 C60 1.278 . S
C57 O58 1.203 . S
C57 O64 1.267 . S
O58 C57 1.203 . S
O59 C52 1.185 . S
O59 Zn55 2.086 . S
C60 O56 1.278 . S
C60 O61 1.211 . S
O61 C60 1.211 . S
C62 O54 1.284 . S
C62 O63 1.273 . S
O63 C62 1.273 . S
O64 Zn55 1.977 . S
O64 C57 1.267 . S
C65 O66 1.160 . S
C65 O72 1.185 . S
O66 C65 1.160 . S
O67 Zn68 1.899 . S
O67 C75 1.284 . S
Zn68 O67 1.899 . S
Zn68 O69 2.032 . S
Zn68 O72 2.086 . S
Zn68 O77 1.977 . S
O69 Zn68 2.032 . S
O69 C73 1.278 . S
C70 O71 1.203 . S
C70 O77 1.267 . S
O71 C70 1.203 . S
O72 C65 1.185 . S
O72 Zn68 2.086 . S
C73 O69 1.278 . S
C73 O74 1.211 . S
O74 C73 1.211 . S
C75 O67 1.284 . S
C75 O76 1.273 . S
O76 C75 1.273 . S
O77 Zn68 1.977 . S
O77 C70 1.267 . S
C78 O79 1.160 . S
C78 O85 1.185 . S
O79 C78 1.160 . S
O80 Zn81 1.899 1_554 S
O80 C88 1.284 1_554 S
Zn81 O80 1.899 1_556 S
Zn81 O82 2.032 . S
Zn81 O85 2.086 . S
Zn81 O90 1.977 1_556 S
O82 Zn81 2.032 . S
O82 C86 1.278 . S
C83 O84 1.203 . S
C83 O90 1.267 . S
O84 C83 1.203 . S
O85 C78 1.185 . S
O85 Zn81 2.086 . S
C86 O82 1.278 . S
C86 O87 1.211 . S
O87 C86 1.211 . S
C88 O80 1.284 1_556 S
C88 O89 1.273 . S
O89 C88 1.273 . S
O90 Zn81 1.977 1_554 S
O90 C83 1.267 . S
C91 O92 1.160 . S
C91 O98 1.185 . S
O92 C91 1.160 . S
O93 Zn94 1.899 1_554 S
O93 C101 1.284 1_554 S
Zn94 O93 1.899 1_556 S
Zn94 O95 2.032 . S
Zn94 O98 2.086 . S
Zn94 O103 1.977 1_556 S
O95 Zn94 2.032 . S
O95 C99 1.278 . S
C96 O97 1.203 . S
C96 O103 1.267 . S
O97 C96 1.203 . S
O98 C91 1.185 . S
O98 Zn94 2.086 . S
C99 O95 1.278 . S
C99 O100 1.211 . S
O100 C99 1.211 . S
C101 O93 1.284 1_556 S
C101 O102 1.273 . S
O102 C101 1.273 . S
O103 Zn94 1.977 1_554 S
O103 C96 1.267 . S
C104 O105 1.160 . S
C104 O111 1.185 . S
O105 C104 1.160 . S
O106 Zn107 1.899 1_554 S
O106 C114 1.284 1_554 S
Zn107 O106 1.899 1_556 S
Zn107 O108 2.032 . S
Zn107 O111 2.086 . S
Zn107 O116 1.977 1_556 S
O108 Zn107 2.032 . S
O108 C112 1.278 . S
C109 O110 1.203 . S
C109 O116 1.267 . S
O110 C109 1.203 . S
O111 C104 1.185 . S
O111 Zn107 2.086 . S
C112 O108 1.278 . S
C112 O113 1.211 . S
O113 C112 1.211 . S
C114 O106 1.284 1_556 S
C114 O115 1.273 . S
O115 C114 1.273 . S
O116 Zn107 1.977 1_554 S
O116 C109 1.267 . S
C117 O118 1.160 . S
C117 O124 1.185 . S
O118 C117 1.160 . S
O119 Zn120 1.899 . S
O119 C127 1.284 . S
Zn120 O119 1.899 . S
Zn120 O121 2.032 . S
Zn120 O124 2.086 . S
Zn120 O129 1.977 . S
O121 Zn120 2.032 . S
O121 C125 1.278 . S
C122 O123 1.203 . S
C122 O129 1.267 . S
O123 C122 1.203 . S
O124 C117 1.185 . S
O124 Zn120 2.086 . S
C125 O121 1.278 . S
C125 O126 1.211 . S
O126 C125 1.211 . S
C127 O119 1.284 . S
C127 O128 1.273 . S
O128 C127 1.273 . S
O129 Zn120 1.977 . S
O129 C122 1.267 . S
C130 O131 1.160 . S
C130 O137 1.185 . S
O131 C130 1.160 . S
O132 Zn133 1.899 . S
O132 C140 1.284 . S
Zn133 O132 1.899 . S
Zn133 O134 2.032 . S
Zn133 O137 2.086 . S
Zn133 O142 1.977 . S
O134 Zn133 2.032 . S
O134 C138 1.278 . S
C135 O136 1.203 . S
C135 O142 1.267 . S
O136 C135 1.203 . S
O137 C130 1.185 . S
O137 Zn133 2.086 . S
C138 O134 1.278 . S
C138 O139 1.211 . S
O139 C138 1.211 . S
C140 O132 1.284 . S
C140 O141 1.273 . S
O141 C140 1.273 . S
O142 Zn133 1.977 . S
O142 C135 1.267 . S
C143 O144 1.160 . S
C143 O150 1.185 . S
O144 C143 1.160 . S
O145 Zn146 1.899 . S
O145 C153 1.284 . S
Zn146 O145 1.899 . S
Zn146 O147 2.032 . S
Zn146 O150 2.086 . S
Zn146 O155 1.977 . S
O147 Zn146 2.032 . S
O147 C151 1.278 . S
C148 O149 1.203 . S
C148 O155 1.267 . S
O149 C148 1.203 . S
O150 C143 1.185 . S
O150 Zn146 2.086 . S
C151 O147 1.278 . S
C151 O152 1.211 . S
O152 C151 1.211 . S
C153 O145 1.284 . S
C153 O154 1.273 . S
O154 C153 1.273 . S
O155 Zn146 1.977 . S
O155 C148 1.267 . S
C156 O157 1.160 . S
C156 O163 1.185 . S
O157 C156 1.160 . S
O158 Zn159 1.899 . S
O158 C166 1.284 . S
Zn159 O158 1.899 . S
Zn159 O160 2.032 . S
Zn159 O163 2.086 . S
Zn159 O168 1.977 . S
O160 Zn159 2.032 . S
O160 C164 1.278 . S
C161 O162 1.203 . S
C161 O168 1.267 . S
O162 C161 1.203 . S
O163 C156 1.185 . S
O163 Zn159 2.086 . S
C164 O160 1.278 . S
C164 O165 1.211 . S
O165 C164 1.211 . S
C166 O158 1.284 . S
C166 O167 1.273 . S
O167 C166 1.273 . S
O168 Zn159 1.977 . S
O168 C161 1.267 . S
C169 O170 1.160 . S
C169 O176 1.185 . S
O170 C169 1.160 . S
O171 Zn172 1.899 . S
O171 C179 1.284 . S
Zn172 O171 1.899 . S
Zn172 O173 2.032 . S
Zn172 O176 2.086 . S
Zn172 O181 1.977 . S
O173 Zn172 2.032 . S
O173 C177 1.278 . S
C174 O175 1.203 . S
C174 O181 1.267 . S
O175 C174 1.203 . S
O176 C169 1.185 . S
O176 Zn172 2.086 . S
C177 O173 1.278 . S
C177 O178 1.211 . S
O178 C177 1.211 . S
C179 O171 1.284 . S
C179 O180 1.273 . S
O180 C179 1.273 . S
O181 Zn172 1.977 . S
O181 C174 1.267 . S
C182 O183 1.160 . S
C182 O189 1.185 . S
O183 C182 1.160 . S
O184 Zn185 1.899 . S
O184 C192 1.284 . S
Zn185 O184 1.899 . S
Zn185 O186 2.032 . S
Zn185 O189 2.086 . S
Zn185 O194 1.977 . S
O186 Zn185 2.032 . S
O186 C190 1.278 . S
C187 O188 1.203 . S
C187 O194 1.267 . S
O188 C187 1.203 . S
O189 C182 1.185 . S
O189 Zn185 2.086 . S
C190 O186 1.278 . S
C190 O191 1.211 . S
O191 C190 1.211 . S
C192 O184 1.284 . S
C192 O193 1.273 . S
O193 C192 1.273 . S
O194 Zn185 1.977 . S
O194 C187 1.267 . S
C195 O196 1.160 . S
C195 O202 1.185 . S
O196 C195 1.160 . S
O197 Zn198 1.899 . S
O197 C205 1.284 . S
Zn198 O197 1.899 . S
Zn198 O199 2.032 . S
Zn198 O202 2.086 . S
Zn198 O207 1.977 . S
O199 Zn198 2.032 . S
O199 C203 1.278 . S
C200 O201 1.203 . S
C200 O207 1.267 . S
O201 C200 1.203 . S
O202 C195 1.185 . S
O202 Zn198 2.086 . S
C203 O199 1.278 . S
C203 O204 1.211 . S
O204 C203 1.211 . S
C205 O197 1.284 . S
C205 O206 1.273 . S
O206 C205 1.273 . S
O207 Zn198 1.977 . S
O207 C200 1.267 . S
C208 O209 1.160 . S
C208 O215 1.185 . S
O209 C208 1.160 . S
O210 Zn211 1.899 . S
O210 C218 1.284 . S
Zn211 O210 1.899 . S
Zn211 O212 2.032 . S
Zn211 O215 2.086 . S
Zn211 O220 1.977 . S
O212 Zn211 2.032 . S
O212 C216 1.278 . S
C213 O214 1.203 . S
C213 O220 1.267 . S
O214 C213 1.203 . S
O215 C208 1.185 . S
O215 Zn211 2.086 . S
C216 O212 1.278 . S
C216 O217 1.211 . S
O217 C216 1.211 . S
C218 O210 1.284 . S
C218 O219 1.273 . S
O219 C218 1.273 . S
O220 Zn211 1.977 . S
O220 C213 1.267 . S
C221 O222 1.160 . S
C221 O228 1.185 . S
O222 C221 1.160 . S
O223 Zn224 1.899 . S
O223 C231 1.284 . S
Zn224 O223 1.899 . S
Zn224 O225 2.032 . S
Zn224 O228 2.086 . S
Zn224 O233 1.977 . S
O225 Zn224 2.032 . S
O225 C229 1.278 . S
C226 O227 1.203 . S
C226 O233 1.267 . S
O227 C226 1.203 . S
O228 C221 1.185 . S
O228 Zn224 2.086 . S
C229 O225 1.278 . S
C229 O230 1.211 . S
O230 C229 1.211 . S
C231 O223 1.284 . S
C231 O232 1.273 . S
O232 C231 1.273 . S
O233 Zn224 1.977 . S
O233 C226 1.267 . S
C234 O235 1.160 . S
C234 O241 1.185 . S
O235 C234 1.160 . S
O236 Zn237 1.899 . S
O236 C244 1.284 . S
Zn237 O236 1.899 . S
Zn237 O238 2.032 . S
Zn237 O241 2.086 . S
Zn237 O246 1.977 . S
O238 Zn237 2.032 . S
O238 C242 1.278 . S
C239 O240 1.203 . S
C239 O246 1.267 . S
O240 C239 1.203 . S
O241 C234 1.185 . S
O241 Zn237 2.086 . S
C242 O238 1.278 . S
C242 O243 1.211 . S
O243 C242 1.211 . S
C244 O236 1.284 . S
C244 O245 1.273 . S
O245 C244 1.273 . S
O246 Zn237 1.977 . S
O246 C239 1.267 . S
C247 O248 1.160 . S
C247 O254 1.185 . S
O248 C247 1.160 . S
O249 Zn250 1.899 . S
O249 C257 1.284 . S
Zn250 O249 1.899 . S
Zn250 O251 2.032 . S
Zn250 O254 2.086 . S
Zn250 O259 1.977 . S
O251 Zn250 2.032 . S
O251 C255 1.278 . S
C252 O253 1.203 . S
C252 O259 1.267 . S
O253 C252 1.203 . S
O254 C247 1.185 . S
O254 Zn250 2.086 . S
C255 O251 1.278 . S
C255 O256 1.211 . S
O256 C255 1.211 . S
C257 O249 1.284 . S
C257 O258 1.273 . S
O258 C257 1.273 . S
O259 Zn250 1.977 . S
O259 C252 1.267 . S
C260 O261 1.160 . S
C260 O267 1.185 . S
O261 C260 1.160 . S
O262 Zn263 1.899 . S
O262 C270 1.284 . S
Zn263 O262 1.899 . S
Zn263 O264 2.032 . S
Zn263 O267 2.086 . S
Zn263 O272 1.977 . S
O264 Zn263 2.032 . S
O264 C268 1.278 . S
C265 O266 1.203 . S
C265 O272 1.267 . S
O266 C265 1.203 . S
O267 C260 1.185 . S
O267 Zn263 2.086 . S
C268 O264 1.278 . S
C268 O269 1.211 . S
O269 C268 1.211 . S
C270 O262 1.284 . S
C270 O271 1.273 . S
O271 C270 1.273 . S
O272 Zn263 1.977 . S
O272 C265 1.267 . S
C273 O274 1.160 . S
C273 O280 1.185 . S
O274 C273 1.160 . S
O275 Zn276 1.899 . S
O275 C283 1.284 . S
Zn276 O275 1.899 . S
Zn276 O277 2.032 . S
Zn276 O280 2.086 . S
Zn276 O285 1.977 . S
O277 Zn276 2.032 . S
O277 C281 1.277 1_556 S
C278 O279 1.203 . S
C278 O285 1.267 . S
O279 C278 1.203 . S
O280 C273 1.185 . S
O280 Zn276 2.086 . S
C281 O277 1.277 1_554 S
C281 O282 1.205 1_554 S
O282 C281 1.205 1_556 S
C283 O275 1.284 . S
C283 O284 1.273 . S
O284 C283 1.273 . S
O285 Zn276 1.977 . S
O285 C278 1.267 . S
C286 O287 1.160 . S
C286 O293 1.185 . S
O287 C286 1.160 . S
O288 Zn289 1.899 . S
O288 C296 1.284 . S
Zn289 O288 1.899 . S
Zn289 O290 2.032 . S
Zn289 O293 2.086 . S
Zn289 O298 1.977 . S
O290 Zn289 2.032 . S
O290 C294 1.277 1_556 S
C291 O292 1.203 . S
C291 O298 1.267 . S
O292 C291 1.203 . S
O293 C286 1.185 . S
O293 Zn289 2.086 . S
C294 O290 1.277 1_554 S
C294 O295 1.205 1_554 S
O295 C294 1.205 1_556 S
C296 O288 1.284 . S
C296 O297 1.273 . S
O297 C296 1.273 . S
O298 Zn289 1.977 . S
O298 C291 1.267 . S
C299 O300 1.160 . S
C299 O306 1.185 . S
O300 C299 1.160 . S
O301 Zn302 1.899 . S
O301 C309 1.284 . S
Zn302 O301 1.899 . S
Zn302 O303 2.032 . S
Zn302 O306 2.086 . S
Zn302 O311 1.977 . S
O303 Zn302 2.032 . S
O303 C307 1.277 1_556 S
C304 O305 1.203 . S
C304 O311 1.267 . S
O305 C304 1.203 . S
O306 C299 1.185 . S
O306 Zn302 2.086 . S
C307 O303 1.277 1_554 S
C307 O308 1.206 1_554 S
O308 C307 1.206 1_556 S
C309 O301 1.284 . S
C309 O310 1.273 . S
O310 C309 1.273 . S
O311 Zn302 1.977 . S
O311 C304 1.267 . S
C312 O313 1.160 . S
C312 O319 1.185 . S
O313 C312 1.160 . S
O314 Zn315 1.899 . S
O314 C322 1.284 . S
Zn315 O314 1.899 . S
Zn315 O316 2.032 . S
Zn315 O319 2.086 . S
Zn315 O324 1.977 . S
O316 Zn315 2.032 . S
O316 C320 1.278 . S
C317 O318 1.203 . S
C317 O324 1.267 . S
O318 C317 1.203 . S
O319 C312 1.185 . S
O319 Zn315 2.086 . S
C320 O316 1.278 . S
C320 O321 1.211 . S
O321 C320 1.211 . S
C322 O314 1.284 . S
C322 O323 1.273 . S
O323 C322 1.273 . S
O324 Zn315 1.977 . S
O324 C317 1.267 . S
C325 O326 1.160 . S
C325 O332 1.185 . S
O326 C325 1.160 . S
O327 Zn328 1.899 . S
O327 C335 1.284 . S
Zn328 O327 1.899 . S
Zn328 O329 2.032 . S
Zn328 O332 2.086 . S
Zn328 O337 1.977 . S
O329 Zn328 2.032 . S
O329 C333 1.278 . S
C330 O331 1.203 . S
C330 O337 1.267 . S
O331 C330 1.203 . S
O332 C325 1.185 . S
O332 Zn328 2.086 . S
C333 O329 1.278 . S
C333 O334 1.211 . S
O334 C333 1.211 . S
C335 O327 1.284 . S
C335 O336 1.273 . S
O336 C335 1.273 . S
O337 Zn328 1.977 . S
O337 C330 1.267 . S
C338 O339 1.160 . S
C338 O345 1.185 . S
O339 C338 1.160 . S
O340 Zn341 1.899 . S
O340 C348 1.284 . S
Zn341 O340 1.899 . S
Zn341 O342 2.032 . S
Zn341 O345 2.086 . S
Zn341 O350 1.977 . S
O342 Zn341 2.032 . S
O342 C346 1.278 . S
C343 O344 1.203 . S
C343 O350 1.267 . S
O344 C343 1.203 . S
O345 C338 1.185 . S
O345 Zn341 2.086 . S
C346 O342 1.278 . S
C346 O347 1.211 . S
O347 C346 1.211 . S
C348 O340 1.284 . S
C348 O349 1.273 . S
O349 C348 1.273 . S
O350 Zn341 1.977 . S
O350 C343 1.267 . S
C351 O352 1.160 . S
C351 O358 1.185 . S
O352 C351 1.160 . S
O353 Zn354 1.899 . S
O353 C361 1.284 . S
Zn354 O353 1.899 . S
Zn354 O355 2.032 . S
Zn354 O358 2.086 . S
Zn354 O363 1.977 . S
O355 Zn354 2.032 . S
O355 C359 1.277 1_554 S
C356 O357 1.203 . S
C356 O363 1.267 . S
O357 C356 1.203 . S
O358 C351 1.185 . S
O358 Zn354 2.086 . S
C359 O355 1.277 1_556 S
C359 O360 1.205 1_556 S
O360 C359 1.205 1_554 S
C361 O353 1.284 . S
C361 O362 1.273 . S
O362 C361 1.273 . S
O363 Zn354 1.977 . S
O363 C356 1.267 . S
C364 O365 1.160 . S
C364 O371 1.185 . S
O365 C364 1.160 . S
O366 Zn367 1.899 . S
O366 C374 1.284 . S
Zn367 O366 1.899 . S
Zn367 O368 2.032 . S
Zn367 O371 2.086 . S
Zn367 O376 1.977 . S
O368 Zn367 2.032 . S
O368 C372 1.277 1_554 S
C369 O370 1.203 . S
C369 O376 1.267 . S
O370 C369 1.203 . S
O371 C364 1.185 . S
O371 Zn367 2.086 . S
C372 O368 1.277 1_556 S
C372 O373 1.206 1_556 S
O373 C372 1.206 1_554 S
C374 O366 1.284 . S
C374 O375 1.273 . S
O375 C374 1.273 . S
O376 Zn367 1.977 . S
O376 C369 1.267 . S
C377 O378 1.160 . S
C377 O384 1.185 . S
O378 C377 1.160 . S
O379 Zn380 1.899 . S
O379 C387 1.284 . S
Zn380 O379 1.899 . S
Zn380 O381 2.032 . S
Zn380 O384 2.086 . S
Zn380 O389 1.977 . S
O381 Zn380 2.032 . S
O381 C385 1.277 1_554 S
C382 O383 1.203 . S
C382 O389 1.267 . S
O383 C382 1.203 . S
O384 C377 1.185 . S
O384 Zn380 2.086 . S
C385 O381 1.277 1_556 S
C385 O386 1.206 1_556 S
O386 C385 1.206 1_554 S
C387 O379 1.284 . S
C387 O388 1.273 . S
O388 C387 1.273 . S
O389 Zn380 1.977 . S
O389 C382 1.267 . S
C390 O391 1.160 . S
C390 O397 1.185 . S
O391 C390 1.160 . S
O392 Zn393 1.899 . S
O392 C400 1.284 . S
Zn393 O392 1.899 . S
Zn393 O394 2.032 . S
Zn393 O397 2.086 . S
Zn393 O402 1.977 . S
O394 Zn393 2.032 . S
O394 C398 1.278 . S
C395 O396 1.203 . S
C395 O402 1.267 . S
O396 C395 1.203 . S
O397 C390 1.185 . S
O397 Zn393 2.086 . S
C398 O394 1.278 . S
C398 O399 1.211 . S
O399 C398 1.211 . S
C400 O392 1.284 . S
C400 O401 1.273 . S
O401 C400 1.273 . S
O402 Zn393 1.977 . S
O402 C395 1.267 . S
C403 O404 1.160 . S
C403 O410 1.185 . S
O404 C403 1.160 . S
O405 Zn406 1.899 . S
O405 C413 1.284 . S
Zn406 O405 1.899 . S
Zn406 O407 2.032 . S
Zn406 O410 2.086 . S
Zn406 O415 1.977 . S
O407 Zn406 2.032 . S
O407 C411 1.278 . S
C408 O409 1.203 . S
C408 O415 1.267 . S
O409 C408 1.203 . S
O410 C403 1.185 . S
O410 Zn406 2.086 . S
C411 O407 1.278 . S
C411 O412 1.211 . S
O412 C411 1.211 . S
C413 O405 1.284 . S
C413 O414 1.273 . S
O414 C413 1.273 . S
O415 Zn406 1.977 . S
O415 C408 1.267 . S
C416 O417 1.160 . S
C416 O423 1.185 . S
O417 C416 1.160 . S
O418 Zn419 1.899 . S
O418 C426 1.284 . S
Zn419 O418 1.899 . S
Zn419 O420 2.032 . S
Zn419 O423 2.086 . S
Zn419 O428 1.977 . S
O420 Zn419 2.032 . S
O420 C424 1.278 . S
C421 O422 1.203 . S
C421 O428 1.267 . S
O422 C421 1.203 . S
O423 C416 1.185 . S
O423 Zn419 2.086 . S
C424 O420 1.278 . S
C424 O425 1.211 . S
O425 C424 1.211 . S
C426 O418 1.284 . S
C426 O427 1.273 . S
O427 C426 1.273 . S
O428 Zn419 1.977 . S
O428 C421 1.267 . S
C429 O430 1.160 . S
C429 O436 1.185 . S
O430 C429 1.160 . S
O431 Zn432 1.899 . S
O431 C439 1.284 . S
Zn432 O431 1.899 . S
Zn432 O433 2.032 . S
Zn432 O436 2.086 . S
Zn432 O441 1.977 . S
O433 Zn432 2.032 . S
O433 C437 1.278 . S
C434 O435 1.203 . S
C434 O441 1.267 . S
O435 C434 1.203 . S
O436 C429 1.185 . S
O436 Zn432 2.086 . S
C437 O433 1.278 . S
C437 O438 1.211 . S
O438 C437 1.211 . S
C439 O431 1.284 . S
C439 O440 1.273 . S
O440 C439 1.273 . S
O441 Zn432 1.977 . S
O441 C434 1.267 . S
C442 O443 1.160 . S
C442 O449 1.185 . S
O443 C442 1.160 . S
O444 Zn445 1.899 . S
O444 C452 1.284 . S
Zn445 O444 1.899 . S
Zn445 O446 2.032 . S
Zn445 O449 2.086 . S
Zn445 O454 1.977 . S
O446 Zn445 2.032 . S
O446 C450 1.278 . S
C447 O448 1.203 . S
C447 O454 1.267 . S
O448 C447 1.203 . S
O449 C442 1.185 . S
O449 Zn445 2.086 . S
C450 O446 1.278 . S
C450 O451 1.211 . S
O451 C450 1.211 . S
C452 O444 1.284 . S
C452 O453 1.273 . S
O453 C452 1.273 . S
O454 Zn445 1.977 . S
O454 C447 1.267 . S
C455 O456 1.160 . S
C455 O462 1.185 . S
O456 C455 1.160 . S
O457 Zn458 1.899 . S
O457 C465 1.284 . S
Zn458 O457 1.899 . S
Zn458 O459 2.032 . S
Zn458 O462 2.086 . S
Zn458 O467 1.977 . S
O459 Zn458 2.032 . S
O459 C463 1.278 . S
C460 O461 1.203 . S
C460 O467 1.267 . S
O461 C460 1.203 . S
O462 C455 1.185 . S
O462 Zn458 2.086 . S
C463 O459 1.278 . S
C463 O464 1.211 . S
O464 C463 1.211 . S
C465 O457 1.284 . S
C465 O466 1.273 . S
O466 C465 1.273 . S
O467 Zn458 1.977 . S
O467 C460 1.267 . S
C468 C469 1.363 1_545 S
C468 C474 1.379 . S
C468 N476 1.356 . S
C469 C468 1.363 1_565 S
C469 C475 1.363 . S
C470 C471 1.363 1_565 S
C470 C475 1.379 . S
C470 N477 1.356 . S
C471 C470 1.363 1_545 S
C471 C474 1.363 . S
N472 C474 1.356 . S
N472 H484 0.984 . S
N472 H485 0.985 . S
N473 C475 1.356 . S
N473 H478 0.984 . S
N473 H479 0.985 . S
C474 C468 1.379 . S
C474 C471 1.363 . S
C474 N472 1.356 . S
C475 C469 1.363 . S
C475 C470 1.379 . S
C475 N473 1.356 . S
N476 C468 1.356 . S
N476 H482 0.984 . S
N476 H483 0.984 1_545 S
N477 C470 1.356 . S
N477 H480 0.984 1_565 S
N477 H481 0.985 . S
H478 N473 0.984 . S
H479 N473 0.985 . S
H480 N477 0.984 1_545 S
H481 N477 0.985 . S
H482 N476 0.984 . S
H483 N476 0.984 1_565 S
H484 N472 0.984 . S
H485 N472 0.985 . S
C486 C487 1.363 . S
C486 C492 1.379 . S
C486 N494 1.356 . S
C487 C486 1.363 . S
C487 C493 1.363 1_655 S
C488 C489 1.363 . S
C488 C493 1.379 . S
C488 N495 1.356 . S
C489 C488 1.363 . S
C489 C492 1.363 1_455 S
N490 C492 1.356 . S
N490 H502 0.984 . S
N490 H503 1.000 . S
N491 C493 1.356 . S
N491 H496 1.001 . S
N491 H497 0.985 . S
C492 C486 1.379 . S
C492 C489 1.363 1_655 S
C492 N490 1.356 . S
C493 C487 1.363 1_455 S
C493 C488 1.379 . S
C493 N491 1.356 . S
N494 C486 1.356 . S
N494 H500 0.984 . S
N494 H501 0.984 . S
N495 C488 1.356 . S
N495 H498 0.984 . S
N495 H499 0.985 . S
H496 N491 1.001 . S
H497 N491 0.985 . S
H498 N495 0.984 . S
H499 N495 0.985 . S
H500 N494 0.984 . S
H501 N494 0.984 . S
H502 N490 0.984 . S
H503 N490 1.000 . S
C504 C505 1.363 . S
C504 C510 1.379 . S
C504 N512 1.356 . S
C505 C504 1.363 . S
C505 C511 1.363 . S
C506 C507 1.363 . S
C506 C511 1.379 . S
C506 N513 1.356 . S
C507 C506 1.363 . S
C507 C510 1.363 . S
N508 C510 1.356 . S
N508 H520 0.984 . S
N508 H521 0.985 . S
N509 C511 1.356 . S
N509 H514 0.984 . S
N509 H515 0.985 . S
C510 C504 1.379 . S
C510 C507 1.363 . S
C510 N508 1.356 . S
C511 C505 1.363 . S
C511 C506 1.379 . S
C511 N509 1.356 . S
N512 C504 1.356 . S
N512 H518 0.984 . S
N512 H519 0.984 . S
N513 C506 1.356 . S
N513 H516 0.984 . S
N513 H517 0.985 . S
H514 N509 0.984 . S
H515 N509 0.985 . S
H516 N513 0.984 . S
H517 N513 0.985 . S
H518 N512 0.984 . S
H519 N512 0.984 . S
H520 N508 0.984 . S
H521 N508 0.985 . S
C522 C523 1.315 1_545 S
C522 C528 1.404 . S
C522 N530 1.366 1_545 S
C523 C522 1.315 1_565 S
C523 C529 1.363 . S
C524 C525 1.316 1_565 S
C524 C529 1.404 . S
C524 N531 1.366 1_565 S
C525 C524 1.316 1_545 S
C525 C528 1.363 . S
N526 C528 1.356 . S
N526 H538 0.984 . S
N526 H539 0.985 . S
N527 C529 1.356 . S
N527 H532 0.984 . S
N527 H533 0.985 . S
C528 C522 1.404 . S
C528 C525 1.363 . S
C528 N526 1.356 . S
C529 C523 1.363 . S
C529 C524 1.404 . S
C529 N527 1.356 . S
N530 C522 1.366 1_565 S
N530 H536 0.984 1_565 S
N530 H537 0.984 . S
N531 C524 1.366 1_545 S
N531 H534 0.984 . S
N531 H535 0.985 1_545 S
H532 N527 0.984 . S
H533 N527 0.985 . S
H534 N531 0.984 . S
H535 N531 0.985 1_565 S
H536 N530 0.984 1_545 S
H537 N530 0.984 . S
H538 N526 0.984 . S
H539 N526 0.985 . S
C540 C541 1.363 1_655 S
C540 C546 1.379 . S
C540 N548 1.356 1_655 S
C541 C540 1.363 1_455 S
C541 C547 1.363 . S
C542 C543 1.363 1_455 S
C542 C547 1.379 . S
C542 N549 1.356 1_455 S
C543 C542 1.363 1_655 S
C543 C546 1.363 . S
N544 C546 1.356 . S
N544 H556 0.984 . S
N544 H557 0.985 . S
N545 C547 1.356 . S
N545 H550 0.984 . S
N545 H551 0.985 . S
C546 C540 1.379 . S
C546 C543 1.363 . S
C546 N544 1.356 . S
C547 C541 1.363 . S
C547 C542 1.379 . S
C547 N545 1.356 . S
N548 C540 1.356 1_455 S
N548 H554 0.984 1_455 S
N548 H555 0.984 . S
N549 C542 1.356 1_655 S
N549 H552 0.984 . S
N549 H553 0.985 1_655 S
H550 N545 0.984 . S
H551 N545 0.985 . S
H552 N549 0.984 . S
H553 N549 0.985 1_455 S
H554 N548 0.984 1_655 S
H555 N548 0.984 . S
H556 N544 0.984 . S
H557 N544 0.985 . S
C558 C559 1.363 . S
C558 C564 1.379 . S
C558 N566 1.356 . S
C559 C558 1.363 . S
C559 C565 1.363 . S
C560 C561 1.363 . S
C560 C565 1.379 . S
C560 N567 1.356 . S
C561 C560 1.363 . S
C561 C564 1.363 . S
N562 C564 1.356 . S
N562 H574 0.984 . S
N562 H575 0.985 . S
N563 C565 1.356 . S
N563 H568 0.984 . S
N563 H569 0.985 . S
C564 C558 1.379 . S
C564 C561 1.363 . S
C564 N562 1.356 . S
C565 C559 1.363 . S
C565 C560 1.379 . S
C565 N563 1.356 . S
N566 C558 1.356 . S
N566 H572 0.984 . S
N566 H573 0.984 . S
N567 C560 1.356 . S
N567 H570 0.984 . S
N567 H571 0.985 . S
H568 N563 0.984 . S
H569 N563 0.985 . S
H570 N567 0.984 . S
H571 N567 0.985 . S
H572 N566 0.984 . S
H573 N566 0.984 . S
H574 N562 0.984 . S
H575 N562 0.985 . S
C576 C577 1.363 . S
C576 C582 1.379 . S
C576 N584 1.356 . S
C577 C576 1.363 . S
C577 C583 1.363 . S
C578 C579 1.363 . S
C578 C583 1.379 . S
C578 N585 1.356 . S
C579 C578 1.363 . S
C579 C582 1.363 . S
N580 C582 1.356 . S
N580 H592 0.984 . S
N580 H593 0.985 . S
N581 C583 1.356 . S
N581 H586 0.984 . S
N581 H587 0.985 . S
C582 C576 1.379 . S
C582 C579 1.363 . S
C582 N580 1.356 . S
C583 C577 1.363 . S
C583 C578 1.379 . S
C583 N581 1.356 . S
N584 C576 1.356 . S
N584 H590 0.984 . S
N584 H591 0.984 . S
N585 C578 1.356 . S
N585 H588 0.984 . S
N585 H589 0.985 . S
H586 N581 0.984 . S
H587 N581 0.985 . S
H588 N585 0.984 . S
H589 N585 0.985 . S
H590 N584 0.984 . S
H591 N584 0.984 . S
H592 N580 0.984 . S
H593 N580 0.985 . S
C594 C595 1.363 . S
C594 C600 1.379 . S
C594 N602 1.356 . S
C595 C594 1.363 . S
C595 C601 1.363 . S
C596 C597 1.363 . S
C596 C601 1.379 . S
C596 N603 1.356 . S
C597 C596 1.363 . S
C597 C600 1.363 . S
N598 C600 1.356 . S
N598 H610 0.984 . S
N598 H611 0.985 . S
N599 C601 1.356 . S
N599 H604 0.984 . S
N599 H605 0.985 . S
C600 C594 1.379 . S
C600 C597 1.363 . S
C600 N598 1.356 . S
C601 C595 1.363 . S
C601 C596 1.379 . S
C601 N599 1.356 . S
N602 C594 1.356 . S
N602 H608 0.984 . S
N602 H609 0.984 . S
N603 C596 1.356 . S
N603 H606 0.984 . S
N603 H607 0.985 . S
H604 N599 0.984 . S
H605 N599 0.985 . S
H606 N603 0.984 . S
H607 N603 0.985 . S
H608 N602 0.984 . S
H609 N602 0.984 . S
H610 N598 0.984 . S
H611 N598 0.985 . S
C612 C613 1.363 . S
C612 C618 1.379 . S
C612 N620 1.356 . S
C613 C612 1.363 . S
C613 C619 1.363 . S
C614 C615 1.363 . S
C614 C619 1.379 . S
C614 N621 1.356 . S
C615 C614 1.363 . S
C615 C618 1.363 . S
N616 C618 1.356 . S
N616 H628 0.984 . S
N616 H629 0.985 . S
N617 C619 1.356 . S
N617 H622 0.984 . S
N617 H623 0.985 . S
C618 C612 1.379 . S
C618 C615 1.363 . S
C618 N616 1.356 . S
C619 C613 1.363 . S
C619 C614 1.379 . S
C619 N617 1.356 . S
N620 C612 1.356 . S
N620 H626 0.984 . S
N620 H627 0.984 . S
N621 C614 1.356 . S
N621 H624 0.984 . S
N621 H625 0.985 . S
H622 N617 0.984 . S
H623 N617 0.985 . S
H624 N621 0.984 . S
H625 N621 0.985 . S
H626 N620 0.984 . S
H627 N620 0.984 . S
H628 N616 0.984 . S
H629 N616 0.985 . S
C630 C631 1.363 . S
C630 C636 1.379 . S
C630 N638 1.356 . S
C631 C630 1.363 . S
C631 C637 1.363 . S
C632 C633 1.363 . S
C632 C637 1.379 . S
C632 N639 1.356 . S
C633 C632 1.363 . S
C633 C636 1.363 . S
N634 C636 1.356 1_556 S
N634 H646 0.984 . S
N634 H647 0.985 . S
N635 C637 1.356 . S
N635 H640 0.984 . S
N635 H641 0.985 . S
C636 C630 1.379 . S
C636 C633 1.363 . S
C636 N634 1.356 1_554 S
C637 C631 1.363 . S
C637 C632 1.379 . S
C637 N635 1.356 . S
N638 C630 1.356 . S
N638 H644 0.984 . S
N638 H645 0.984 . S
N639 C632 1.356 . S
N639 H642 0.984 1_554 S
N639 H643 0.985 . S
H640 N635 0.984 . S
H641 N635 0.985 . S
H642 N639 0.984 1_556 S
H643 N639 0.985 . S
H644 N638 0.984 . S
H645 N638 0.984 . S
H646 N634 0.984 . S
H647 N634 0.985 . S
C648 C649 1.363 . S
C648 C654 1.379 . S
C648 N656 1.356 . S
C649 C648 1.363 . S
C649 C655 1.363 . S
C650 C651 1.363 . S
C650 C655 1.379 . S
C650 N657 1.356 1_554 S
C651 C650 1.363 . S
C651 C654 1.363 . S
N652 C654 1.356 1_556 S
N652 H664 0.984 1_556 S
N652 H665 0.985 . S
N653 C655 1.356 . S
N653 H658 0.984 . S
N653 H659 0.985 . S
C654 C648 1.379 . S
C654 C651 1.363 . S
C654 N652 1.356 1_554 S
C655 C649 1.363 . S
C655 C650 1.379 . S
C655 N653 1.356 . S
N656 C648 1.356 . S
N656 H662 0.984 . S
N656 H663 0.984 . S
N657 C650 1.356 1_556 S
N657 H660 0.984 . S
N657 H661 0.985 . S
H658 N653 0.984 . S
H659 N653 0.985 . S
H660 N657 0.984 . S
H661 N657 0.985 . S
H662 N656 0.984 . S
H663 N656 0.984 . S
H664 N652 0.984 1_554 S
H665 N652 0.985 . S
C666 C667 1.363 . S
C666 C672 1.379 . S
C666 N674 1.356 . S
C667 C666 1.363 . S
C667 C673 1.363 . S
C668 C669 1.363 . S
C668 C673 1.379 . S
C668 N675 1.356 1_554 S
C669 C668 1.363 . S
C669 C672 1.363 . S
N670 C672 1.356 . S
N670 H682 0.984 . S
N670 H683 0.985 1_554 S
N671 C673 1.356 . S
N671 H676 0.984 . S
N671 H677 0.985 . S
C672 C666 1.379 . S
C672 C669 1.363 . S
C672 N670 1.356 . S
C673 C667 1.363 . S
C673 C668 1.379 . S
C673 N671 1.356 . S
N674 C666 1.356 . S
N674 H680 0.984 . S
N674 H681 0.984 . S
N675 C668 1.356 1_556 S
N675 H678 0.984 . S
N675 H679 0.985 . S
H676 N671 0.984 . S
H677 N671 0.985 . S
H678 N675 0.984 . S
H679 N675 0.985 . S
H680 N674 0.984 . S
H681 N674 0.984 . S
H682 N670 0.984 . S
H683 N670 0.985 1_556 S
C684 C685 1.363 . S
C684 C690 1.379 . S
C684 N692 1.356 . S
C685 C684 1.363 . S
C685 C691 1.363 . S
C686 C687 1.363 . S
C686 C691 1.379 . S
C686 N693 1.356 1_556 S
C687 C686 1.363 . S
C687 C690 1.363 . S
N688 C690 1.356 . S
N688 H700 0.984 . S
N688 H701 0.985 1_556 S
N689 C691 1.356 . S
N689 H694 0.984 . S
N689 H695 0.985 . S
C690 C684 1.379 . S
C690 C687 1.363 . S
C690 N688 1.356 . S
C691 C685 1.363 . S
C691 C686 1.379 . S
C691 N689 1.356 . S
N692 C684 1.356 . S
N692 H698 0.984 . S
N692 H699 0.984 . S
N693 C686 1.356 1_554 S
N693 H696 0.984 . S
N693 H697 0.985 . S
H694 N689 0.984 . S
H695 N689 0.985 . S
H696 N693 0.984 . S
H697 N693 0.985 . S
H698 N692 0.984 . S
H699 N692 0.984 . S
H700 N688 0.984 . S
H701 N688 0.985 1_554 S
C702 C703 1.363 . S
C702 C708 1.379 . S
C702 N710 1.356 1_556 S
C703 C702 1.363 . S
C703 C709 1.363 . S
C704 C705 1.363 . S
C704 C709 1.379 . S
C704 N711 1.356 . S
C705 C704 1.363 . S
C705 C708 1.363 . S
N706 C708 1.356 . S
N706 H718 0.984 . S
N706 H719 0.985 . S
N707 C709 1.356 1_554 S
N707 H712 0.984 . S
N707 H713 0.985 1_554 S
C708 C702 1.379 . S
C708 C705 1.363 . S
C708 N706 1.356 . S
C709 C703 1.363 . S
C709 C704 1.379 . S
C709 N707 1.356 1_556 S
N710 C702 1.356 1_554 S
N710 H716 0.984 . S
N710 H717 0.984 . S
N711 C704 1.356 . S
N711 H714 0.984 . S
N711 H715 0.985 . S
H712 N707 0.984 . S
H713 N707 0.985 1_556 S
H714 N711 0.984 . S
H715 N711 0.985 . S
H716 N710 0.984 . S
H717 N710 0.984 . S
H718 N706 0.984 . S
H719 N706 0.985 . S
C720 C721 1.363 . S
C720 C726 1.379 . S
C720 N728 1.356 . S
C721 C720 1.363 . S
C721 C727 1.363 . S
C722 C723 1.363 . S
C722 C727 1.379 . S
C722 N729 1.356 1_556 S
C723 C722 1.363 . S
C723 C726 1.363 . S
N724 C726 1.356 . S
N724 H736 0.984 . S
N724 H737 0.985 1_556 S
N725 C727 1.356 . S
N725 H730 0.984 . S
N725 H731 0.985 . S
C726 C720 1.379 . S
C726 C723 1.363 . S
C726 N724 1.356 . S
C727 C721 1.363 . S
C727 C722 1.379 . S
C727 N725 1.356 . S
N728 C720 1.356 . S
N728 H734 0.984 . S
N728 H735 0.984 . S
N729 C722 1.356 1_554 S
N729 H732 0.984 . S
N729 H733 0.985 . S
H730 N725 0.984 . S
H731 N725 0.985 . S
H732 N729 0.984 . S
H733 N729 0.985 . S
H734 N728 0.984 . S
H735 N728 0.984 . S
H736 N724 0.984 . S
H737 N724 0.985 1_554 S
C738 C739 1.363 . S
C738 C744 1.379 . S
C738 N746 1.356 . S
C739 C738 1.363 . S
C739 C745 1.363 . S
C740 C741 1.363 . S
C740 C745 1.379 . S
C740 N747 1.356 . S
C741 C740 1.363 . S
C741 C744 1.363 . S
N742 C744 1.356 . S
N742 H754 0.984 . S
N742 H755 0.985 . S
N743 C745 1.356 . S
N743 H748 0.984 . S
N743 H749 0.985 . S
C744 C738 1.379 . S
C744 C741 1.363 . S
C744 N742 1.356 . S
C745 C739 1.363 . S
C745 C740 1.379 . S
C745 N743 1.356 . S
N746 C738 1.356 . S
N746 H752 0.984 . S
N746 H753 0.984 . S
N747 C740 1.356 . S
N747 H750 0.984 . S
N747 H751 0.985 . S
H748 N743 0.984 . S
H749 N743 0.985 . S
H750 N747 0.984 . S
H751 N747 0.985 . S
H752 N746 0.984 . S
H753 N746 0.984 . S
H754 N742 0.984 . S
H755 N742 0.985 . S
C756 C757 1.363 . S
C756 C762 1.379 . S
C756 N764 1.356 . S
C757 C756 1.363 . S
C757 C763 1.363 . S
C758 C759 1.363 . S
C758 C763 1.379 . S
C758 N765 1.356 . S
C759 C758 1.363 . S
C759 C762 1.363 . S
N760 C762 1.356 . S
N760 H772 0.984 . S
N760 H773 0.985 . S
N761 C763 1.356 . S
N761 H766 0.984 . S
N761 H767 0.985 . S
C762 C756 1.379 . S
C762 C759 1.363 . S
C762 N760 1.356 . S
C763 C757 1.363 . S
C763 C758 1.379 . S
C763 N761 1.356 . S
N764 C756 1.356 . S
N764 H770 0.984 . S
N764 H771 0.984 . S
N765 C758 1.356 . S
N765 H768 0.984 . S
N765 H769 0.985 . S
H766 N761 0.984 . S
H767 N761 0.985 . S
H768 N765 0.984 . S
H769 N765 0.985 . S
H770 N764 0.984 . S
H771 N764 0.984 . S
H772 N760 0.984 . S
H773 N760 0.985 . S
C774 C775 1.363 . S
C774 C780 1.379 . S
C774 N782 1.356 . S
C775 C774 1.363 . S
C775 C781 1.363 . S
C776 C777 1.363 . S
C776 C781 1.379 . S
C776 N783 1.356 . S
C777 C776 1.363 . S
C777 C780 1.363 . S
N778 C780 1.356 . S
N778 H790 0.984 . S
N778 H791 0.985 . S
N779 C781 1.356 . S
N779 H784 0.984 . S
N779 H785 0.985 . S
C780 C774 1.379 . S
C780 C777 1.363 . S
C780 N778 1.356 . S
C781 C775 1.363 . S
C781 C776 1.379 . S
C781 N779 1.356 . S
N782 C774 1.356 . S
N782 H788 0.984 . S
N782 H789 0.984 . S
N783 C776 1.356 . S
N783 H786 0.984 . S
N783 H787 0.985 . S
H784 N779 0.984 . S
H785 N779 0.985 . S
H786 N783 0.984 . S
H787 N783 0.985 . S
H788 N782 0.984 . S
H789 N782 0.984 . S
H790 N778 0.984 . S
H791 N778 0.985 . S
C792 C793 1.363 . S
C792 C798 1.379 . S
C792 N800 1.356 . S
C793 C792 1.363 . S
C793 C799 1.363 . S
C794 C795 1.363 . S
C794 C799 1.379 . S
C794 N801 1.356 . S
C795 C794 1.363 . S
C795 C798 1.363 . S
N796 C798 1.356 . S
N796 H808 0.984 . S
N796 H809 0.985 . S
N797 C799 1.356 . S
N797 H802 0.984 . S
N797 H803 0.985 . S
C798 C792 1.379 . S
C798 C795 1.363 . S
C798 N796 1.356 . S
C799 C793 1.363 . S
C799 C794 1.379 . S
C799 N797 1.356 . S
N800 C792 1.356 . S
N800 H806 0.984 . S
N800 H807 0.984 . S
N801 C794 1.356 . S
N801 H804 0.984 . S
N801 H805 0.985 . S
H802 N797 0.984 . S
H803 N797 0.985 . S
H804 N801 0.984 . S
H805 N801 0.985 . S
H806 N800 0.984 . S
H807 N800 0.984 . S
H808 N796 0.984 . S
H809 N796 0.985 . S
C810 C811 1.363 . S
C810 C816 1.379 . S
C810 N818 1.356 . S
C811 C810 1.363 . S
C811 C817 1.363 . S
C812 C813 1.363 . S
C812 C817 1.379 . S
C812 N819 1.356 . S
C813 C812 1.363 . S
C813 C816 1.363 . S
N814 C816 1.356 . S
N814 H826 0.984 1_556 S
N814 H827 0.985 . S
N815 C817 1.356 . S
N815 H820 0.984 . S
N815 H821 0.985 . S
C816 C810 1.379 . S
C816 C813 1.363 . S
C816 N814 1.356 . S
C817 C811 1.363 . S
C817 C812 1.379 . S
C817 N815 1.356 . S
N818 C810 1.356 . S
N818 H824 0.984 . S
N818 H825 0.984 . S
N819 C812 1.356 . S
N819 H822 0.984 . S
N819 H823 0.985 . S
H820 N815 0.984 . S
H821 N815 0.985 . S
H822 N819 0.984 . S
H823 N819 0.985 . S
H824 N818 0.984 . S
H825 N818 0.984 . S
H826 N814 0.984 1_554 S
H827 N814 0.985 . S
C828 C829 1.363 . S
C828 C834 1.379 . S
C828 N836 1.356 . S
C829 C828 1.363 . S
C829 C835 1.363 . S
C830 C831 1.363 . S
C830 C835 1.379 . S
C830 N837 1.356 . S
C831 C830 1.363 . S
C831 C834 1.363 . S
N832 C834 1.356 . S
N832 H844 0.984 . S
N832 H845 0.985 . S
N833 C835 1.356 . S
N833 H838 0.984 . S
N833 H839 0.985 . S
C834 C828 1.379 . S
C834 C831 1.363 . S
C834 N832 1.356 . S
C835 C829 1.363 . S
C835 C830 1.379 . S
C835 N833 1.356 . S
N836 C828 1.356 . S
N836 H842 0.984 . S
N836 H843 0.984 . S
N837 C830 1.356 . S
N837 H840 0.984 . S
N837 H841 0.985 . S
H838 N833 0.984 . S
H839 N833 0.985 . S
H840 N837 0.984 . S
H841 N837 0.985 . S
H842 N836 0.984 . S
H843 N836 0.984 . S
H844 N832 0.984 . S
H845 N832 0.985 . S
C846 C847 1.363 . S
C846 C852 1.379 . S
C846 N854 1.356 . S
C847 C846 1.363 . S
C847 C853 1.363 . S
C848 C849 1.363 . S
C848 C853 1.379 . S
C848 N855 1.356 . S
C849 C848 1.363 . S
C849 C852 1.363 . S
N850 C852 1.356 . S
N850 H862 0.984 . S
N850 H863 0.985 . S
N851 C853 1.356 . S
N851 H856 0.984 . S
N851 H857 0.985 . S
C852 C846 1.379 . S
C852 C849 1.363 . S
C852 N850 1.356 . S
C853 C847 1.363 . S
C853 C848 1.379 . S
C853 N851 1.356 . S
N854 C846 1.356 . S
N854 H860 0.984 . S
N854 H861 0.984 . S
N855 C848 1.356 . S
N855 H858 0.984 . S
N855 H859 0.985 . S
H856 N851 0.984 . S
H857 N851 0.985 . S
H858 N855 0.984 . S
H859 N855 0.985 . S
H860 N854 0.984 . S
H861 N854 0.984 . S
H862 N850 0.984 . S
H863 N850 0.985 . S
C864 C865 1.363 . S
C864 C870 1.379 . S
C864 N872 1.356 . S
C865 C864 1.363 . S
C865 C871 1.363 . S
C866 C867 1.363 . S
C866 C871 1.379 . S
C866 N873 1.356 . S
C867 C866 1.363 . S
C867 C870 1.363 . S
N868 C870 1.356 . S
N868 H880 0.984 . S
N868 H881 0.985 . S
N869 C871 1.356 . S
N869 H874 0.984 . S
N869 H875 0.985 . S
C870 C864 1.379 . S
C870 C867 1.363 . S
C870 N868 1.356 . S
C871 C865 1.363 . S
C871 C866 1.379 . S
C871 N869 1.356 . S
N872 C864 1.356 . S
N872 H878 0.984 . S
N872 H879 0.984 . S
N873 C866 1.356 . S
N873 H876 0.984 . S
N873 H877 0.985 . S
H874 N869 0.984 . S
H875 N869 0.985 . S
H876 N873 0.984 . S
H877 N873 0.985 . S
H878 N872 0.984 . S
H879 N872 0.984 . S
H880 N868 0.984 . S
H881 N868 0.985 . S
C882 C883 1.363 . S
C882 C888 1.379 . S
C882 N890 1.356 . S
C883 C882 1.363 . S
C883 C889 1.363 . S
C884 C885 1.363 . S
C884 C889 1.379 . S
C884 N891 1.356 . S
C885 C884 1.363 . S
C885 C888 1.363 . S
N886 C888 1.356 . S
N886 H898 0.984 . S
N886 H899 0.985 . S
N887 C889 1.356 . S
N887 H892 0.984 . S
N887 H893 0.985 . S
C888 C882 1.379 . S
C888 C885 1.363 . S
C888 N886 1.356 . S
C889 C883 1.363 . S
C889 C884 1.379 . S
C889 N887 1.356 . S
N890 C882 1.356 . S
N890 H896 0.984 . S
N890 H897 0.984 . S
N891 C884 1.356 . S
N891 H894 0.984 . S
N891 H895 0.985 . S
H892 N887 0.984 . S
H893 N887 0.985 . S
H894 N891 0.984 . S
H895 N891 0.985 . S
H896 N890 0.984 . S
H897 N890 0.984 . S
H898 N886 0.984 . S
H899 N886 0.985 . S
C900 C901 1.363 . S
C900 C906 1.379 . S
C900 N908 1.356 . S
C901 C900 1.363 . S
C901 C907 1.363 . S
C902 C903 1.363 . S
C902 C907 1.379 . S
C902 N909 1.356 . S
C903 C902 1.363 . S
C903 C906 1.363 . S
N904 C906 1.356 . S
N904 H916 0.984 . S
N904 H917 0.985 . S
N905 C907 1.356 . S
N905 H910 0.984 . S
N905 H911 0.985 . S
C906 C900 1.379 . S
C906 C903 1.363 . S
C906 N904 1.356 . S
C907 C901 1.363 . S
C907 C902 1.379 . S
C907 N905 1.356 . S
N908 C900 1.356 . S
N908 H914 0.984 . S
N908 H915 0.984 . S
N909 C902 1.356 . S
N909 H912 0.984 . S
N909 H913 0.985 . S
H910 N905 0.984 . S
H911 N905 0.985 . S
H912 N909 0.984 . S
H913 N909 0.985 . S
H914 N908 0.984 . S
H915 N908 0.984 . S
H916 N904 0.984 . S
H917 N904 0.985 . S
C918 C919 1.363 . S
C918 C924 1.379 . S
C918 N926 1.356 . S
C919 C918 1.363 . S
C919 C925 1.363 . S
C920 C921 1.363 . S
C920 C925 1.379 . S
C920 N927 1.356 . S
C921 C920 1.363 . S
C921 C924 1.363 . S
N922 C924 1.356 . S
N922 H934 0.984 . S
N922 H935 0.985 . S
N923 C925 1.356 . S
N923 H928 0.984 . S
N923 H929 0.985 1_554 S
C924 C918 1.379 . S
C924 C921 1.363 . S
C924 N922 1.356 . S
C925 C919 1.363 . S
C925 C920 1.379 . S
C925 N923 1.356 . S
N926 C918 1.356 . S
N926 H932 0.984 . S
N926 H933 0.984 . S
N927 C920 1.356 . S
N927 H930 0.984 . S
N927 H931 0.985 . S
H928 N923 0.984 . S
H929 N923 0.985 1_556 S
H930 N927 0.984 . S
H931 N927 0.985 . S
H932 N926 0.984 . S
H933 N926 0.984 . S
H934 N922 0.984 . S
H935 N922 0.985 . S
C936 C937 1.363 . S
C936 C942 1.379 . S
C936 N944 1.356 . S
C937 C936 1.363 . S
C937 C943 1.363 . S
C938 C939 1.363 . S
C938 C943 1.379 . S
C938 N945 1.356 . S
C939 C938 1.363 . S
C939 C942 1.363 . S
N940 C942 1.356 . S
N940 H952 0.984 . S
N940 H953 0.985 . S
N941 C943 1.356 . S
N941 H946 0.984 . S
N941 H947 0.985 . S
C942 C936 1.379 . S
C942 C939 1.363 . S
C942 N940 1.356 . S
C943 C937 1.363 . S
C943 C938 1.379 . S
C943 N941 1.356 . S
N944 C936 1.356 . S
N944 H950 0.984 . S
N944 H951 0.984 . S
N945 C938 1.356 . S
N945 H948 0.984 . S
N945 H949 0.985 . S
H946 N941 0.984 . S
H947 N941 0.985 . S
H948 N945 0.984 . S
H949 N945 0.985 . S
H950 N944 0.984 . S
H951 N944 0.984 . S
H952 N940 0.984 . S
H953 N940 0.985 . S
C954 C955 1.363 . S
C954 C960 1.379 . S
C954 N962 1.356 . S
C955 C954 1.363 . S
C955 C961 1.363 . S
C956 C957 1.363 . S
C956 C961 1.379 . S
C956 N963 1.356 . S
C957 C956 1.363 . S
C957 C960 1.363 . S
N958 C960 1.356 . S
N958 H970 0.984 . S
N958 H971 0.985 . S
N959 C961 1.356 . S
N959 H964 0.984 . S
N959 H965 0.985 . S
C960 C954 1.379 . S
C960 C957 1.363 . S
C960 N958 1.356 . S
C961 C955 1.363 . S
C961 C956 1.379 . S
C961 N959 1.356 . S
N962 C954 1.356 . S
N962 H968 0.984 . S
N962 H969 0.984 . S
N963 C956 1.356 . S
N963 H966 0.984 . S
N963 H967 0.985 . S
H964 N959 0.984 . S
H965 N959 0.985 . S
H966 N963 0.984 . S
H967 N963 0.985 . S
H968 N962 0.984 . S
H969 N962 0.984 . S
H970 N958 0.984 . S
H971 N958 0.985 . S
C972 C973 1.363 . S
C972 C978 1.379 . S
C972 N980 1.356 . S
C973 C972 1.363 . S
C973 C979 1.363 . S
C974 C975 1.363 . S
C974 C979 1.379 . S
C974 N981 1.356 . S
C975 C974 1.363 . S
C975 C978 1.363 . S
N976 C978 1.356 . S
N976 H988 0.984 . S
N976 H989 0.985 . S
N977 C979 1.356 . S
N977 H982 0.984 . S
N977 H983 0.985 . S
C978 C972 1.379 . S
C978 C975 1.363 . S
C978 N976 1.356 . S
C979 C973 1.363 . S
C979 C974 1.379 . S
C979 N977 1.356 . S
N980 C972 1.356 . S
N980 H986 0.984 . S
N980 H987 0.984 . S
N981 C974 1.356 . S
N981 H984 0.984 . S
N981 H985 0.985 . S
H982 N977 0.984 . S
H983 N977 0.985 . S
H984 N981 0.984 . S
H985 N981 0.985 . S
H986 N980 0.984 . S
H987 N980 0.984 . S
H988 N976 0.984 . S
H989 N976 0.985 . S
C990 C991 1.363 . S
C990 C996 1.379 . S
C990 N998 1.356 . S
C991 C990 1.363 . S
C991 C997 1.363 . S
C992 C993 1.363 . S
C992 C997 1.379 . S
C992 N999 1.356 . S
C993 C992 1.363 . S
C993 C996 1.363 . S
N994 C996 1.356 . S
N994 H1006 0.984 . S
N994 H1007 0.985 . S
N995 C997 1.356 . S
N995 H1000 0.984 . S
N995 H1001 0.985 . S
C996 C990 1.379 . S
C996 C993 1.363 . S
C996 N994 1.356 . S
C997 C991 1.363 . S
C997 C992 1.379 . S
C997 N995 1.356 . S
N998 C990 1.356 . S
N998 H1004 0.984 . S
N998 H1005 0.984 . S
N999 C992 1.356 . S
N999 H1002 0.984 . S
N999 H1003 0.985 . S
H1000 N995 0.984 . S
H1001 N995 0.985 . S
H1002 N999 0.984 . S
H1003 N999 0.985 . S
H1004 N998 0.984 . S
H1005 N998 0.984 . S
H1006 N994 0.984 . S
H1007 N994 0.985 . S
C1008 C1009 1.363 . S
C1008 C1014 1.379 . S
C1008 N1016 1.356 . S
C1009 C1008 1.363 . S
C1009 C1015 1.363 . S
C1010 C1011 1.363 . S
C1010 C1015 1.379 . S
C1010 N1017 1.356 . S
C1011 C1010 1.363 . S
C1011 C1014 1.363 . S
N1012 C1014 1.356 1_556 S
N1012 H1024 0.984 . S
N1012 H1025 0.985 . S
N1013 C1015 1.356 . S
N1013 H1018 0.984 . S
N1013 H1019 0.985 . S
C1014 C1008 1.379 . S
C1014 C1011 1.363 . S
C1014 N1012 1.356 1_554 S
C1015 C1009 1.363 . S
C1015 C1010 1.379 . S
C1015 N1013 1.356 . S
N1016 C1008 1.356 . S
N1016 H1022 0.984 . S
N1016 H1023 0.984 . S
N1017 C1010 1.356 . S
N1017 H1020 0.984 . S
N1017 H1021 0.985 . S
H1018 N1013 0.984 . S
H1019 N1013 0.985 . S
H1020 N1017 0.984 . S
H1021 N1017 0.985 . S
H1022 N1016 0.984 . S
H1023 N1016 0.984 . S
H1024 N1012 0.984 . S
H1025 N1012 0.985 . S
C1026 C1027 1.363 . S
C1026 C1032 1.379 . S
C1026 N1034 1.356 . S
C1027 C1026 1.363 . S
C1027 C1033 1.363 . S
C1028 C1029 1.363 . S
C1028 C1033 1.379 . S
C1028 N1035 1.356 1_554 S
C1029 C1028 1.363 . S
C1029 C1032 1.363 . S
N1030 C1032 1.356 . S
N1030 H1042 0.984 . S
N1030 H1043 0.985 . S
N1031 C1033 1.356 . S
N1031 H1036 0.984 . S
N1031 H1037 0.985 . S
C1032 C1026 1.379 . S
C1032 C1029 1.363 . S
C1032 N1030 1.356 . S
C1033 C1027 1.363 . S
C1033 C1028 1.379 . S
C1033 N1031 1.356 . S
N1034 C1026 1.356 . S
N1034 H1040 0.984 . S
N1034 H1041 0.984 . S
N1035 C1028 1.356 1_556 S
N1035 H1038 0.984 . S
N1035 H1039 0.985 . S
H1036 N1031 0.984 . S
H1037 N1031 0.985 . S
H1038 N1035 0.984 . S
H1039 N1035 0.985 . S
H1040 N1034 0.984 . S
H1041 N1034 0.984 . S
H1042 N1030 0.984 . S
H1043 N1030 0.985 . S
C1044 C1045 1.363 . S
C1044 C1050 1.379 . S
C1044 N1052 1.356 . S
C1045 C1044 1.363 . S
C1045 C1051 1.363 . S
C1046 C1047 1.363 . S
C1046 C1051 1.379 . S
C1046 N1053 1.356 . S
C1047 C1046 1.363 . S
C1047 C1050 1.363 . S
N1048 C1050 1.356 . S
N1048 H1060 0.984 . S
N1048 H1061 0.985 . S
N1049 C1051 1.356 . S
N1049 H1054 0.984 . S
N1049 H1055 0.985 . S
C1050 C1044 1.379 . S
C1050 C1047 1.363 . S
C1050 N1048 1.356 . S
C1051 C1045 1.363 . S
C1051 C1046 1.379 . S
C1051 N1049 1.356 . S
N1052 C1044 1.356 . S
N1052 H1058 0.984 . S
N1052 H1059 0.984 . S
N1053 C1046 1.356 . S
N1053 H1056 0.984 . S
N1053 H1057 0.985 . S
H1054 N1049 0.984 . S
H1055 N1049 0.985 . S
H1056 N1053 0.984 . S
H1057 N1053 0.985 . S
H1058 N1052 0.984 . S
H1059 N1052 0.984 . S
H1060 N1048 0.984 . S
H1061 N1048 0.985 . S
C1062 C1063 1.354 1_554 S
C1062 C1068 1.379 . S
C1062 N1070 1.356 . S
C1063 C1062 1.354 1_556 S
C1063 C1069 1.365 . S
C1064 C1065 1.363 . S
C1064 C1069 1.379 1_554 S
C1064 N1071 1.356 . S
C1065 C1064 1.363 . S
C1065 C1068 1.363 . S
N1066 C1068 1.356 . S
N1066 H1078 0.984 . S
N1066 H1079 0.985 . S
N1067 C1069 1.356 . S
N1067 H1072 0.984 . S
N1067 H1073 0.985 . S
C1068 C1062 1.379 . S
C1068 C1065 1.363 . S
C1068 N1066 1.356 . S
C1069 C1063 1.365 . S
C1069 C1064 1.379 1_556 S
C1069 N1067 1.356 . S
N1070 C1062 1.356 . S
N1070 H1076 0.984 . S
N1070 H1077 0.984 . S
N1071 C1064 1.356 . S
N1071 H1074 0.984 . S
N1071 H1075 0.985 1_554 S
H1072 N1067 0.984 . S
H1073 N1067 0.985 . S
H1074 N1071 0.984 . S
H1075 N1071 0.985 1_556 S
H1076 N1070 0.984 . S
H1077 N1070 0.984 . S
H1078 N1066 0.984 . S
H1079 N1066 0.985 . S
C1080 C1081 1.352 1_554 S
C1080 C1086 1.379 . S
C1080 N1088 1.356 . S
C1081 C1080 1.352 1_556 S
C1081 C1087 1.367 . S
C1082 C1083 1.363 . S
C1082 C1087 1.379 1_554 S
C1082 N1089 1.356 . S
C1083 C1082 1.363 . S
C1083 C1086 1.363 . S
N1084 C1086 1.356 . S
N1084 H1096 0.984 . S
N1084 H1097 0.985 . S
N1085 C1087 1.356 . S
N1085 H1090 0.984 . S
N1085 H1091 0.985 . S
C1086 C1080 1.379 . S
C1086 C1083 1.363 . S
C1086 N1084 1.356 . S
C1087 C1081 1.367 . S
C1087 C1082 1.379 1_556 S
C1087 N1085 1.356 . S
N1088 C1080 1.356 . S
N1088 H1094 0.984 . S
N1088 H1095 0.984 . S
N1089 C1082 1.356 . S
N1089 H1092 0.984 . S
N1089 H1093 0.985 1_554 S
H1090 N1085 0.984 . S
H1091 N1085 0.985 . S
H1092 N1089 0.984 . S
H1093 N1089 0.985 1_556 S
H1094 N1088 0.984 . S
H1095 N1088 0.984 . S
H1096 N1084 0.984 . S
H1097 N1084 0.985 . S
C1098 C1099 1.366 . S
C1098 C1104 1.379 1_556 S
C1098 N1106 1.356 . S
C1099 C1098 1.366 . S
C1099 C1105 1.355 1_556 S
C1100 C1101 1.363 . S
C1100 C1105 1.379 . S
C1100 N1107 1.356 . S
C1101 C1100 1.363 . S
C1101 C1104 1.363 . S
N1102 C1104 1.358 . S
N1102 H1114 0.973 1_554 S
N1102 H1115 0.994 . S
N1103 C1105 1.356 . S
N1103 H1108 0.984 . S
N1103 H1109 0.985 . S
C1104 C1098 1.379 1_554 S
C1104 C1101 1.363 . S
C1104 N1102 1.358 . S
C1105 C1099 1.355 1_554 S
C1105 C1100 1.379 . S
C1105 N1103 1.356 . S
N1106 C1098 1.356 . S
N1106 H1112 0.984 . S
N1106 H1113 0.984 . S
N1107 C1100 1.356 . S
N1107 H1110 0.984 . S
N1107 H1111 0.985 . S
H1108 N1103 0.984 . S
H1109 N1103 0.985 . S
H1110 N1107 0.984 . S
H1111 N1107 0.985 . S
H1112 N1106 0.984 . S
H1113 N1106 0.984 . S
H1114 N1102 0.973 1_556 S
H1115 N1102 0.994 . S
C1116 C1117 1.363 . S
C1116 C1122 1.379 . S
C1116 N1124 1.356 . S
C1117 C1116 1.363 . S
C1117 C1123 1.363 . S
C1118 C1119 1.363 . S
C1118 C1123 1.379 . S
C1118 N1125 1.356 . S
C1119 C1118 1.363 . S
C1119 C1122 1.363 . S
N1120 C1122 1.356 . S
N1120 H1132 0.984 . S
N1120 H1133 0.985 . S
N1121 C1123 1.356 . S
N1121 H1126 0.984 . S
N1121 H1127 0.985 . S
C1122 C1116 1.379 . S
C1122 C1119 1.363 . S
C1122 N1120 1.356 . S
C1123 C1117 1.363 . S
C1123 C1118 1.379 . S
C1123 N1121 1.356 . S
N1124 C1116 1.356 . S
N1124 H1130 0.984 . S
N1124 H1131 0.984 . S
N1125 C1118 1.356 . S
N1125 H1128 0.984 . S
N1125 H1129 0.985 . S
H1126 N1121 0.984 . S
H1127 N1121 0.985 . S
H1128 N1125 0.984 . S
H1129 N1125 0.985 . S
H1130 N1124 0.984 . S
H1131 N1124 0.984 . S
H1132 N1120 0.984 . S
H1133 N1120 0.985 . S
C1134 C1135 1.363 . S
C1134 C1140 1.379 . S
C1134 N1142 1.356 . S
C1135 C1134 1.363 . S
C1135 C1141 1.363 . S
C1136 C1137 1.363 . S
C1136 C1141 1.379 . S
C1136 N1143 1.356 . S
C1137 C1136 1.363 . S
C1137 C1140 1.363 . S
N1138 C1140 1.356 . S
N1138 H1150 0.984 . S
N1138 H1151 0.985 . S
N1139 C1141 1.356 . S
N1139 H1144 0.984 . S
N1139 H1145 0.985 . S
C1140 C1134 1.379 . S
C1140 C1137 1.363 . S
C1140 N1138 1.356 . S
C1141 C1135 1.363 . S
C1141 C1136 1.379 . S
C1141 N1139 1.356 . S
N1142 C1134 1.356 . S
N1142 H1148 0.984 . S
N1142 H1149 0.984 . S
N1143 C1136 1.356 . S
N1143 H1146 0.984 . S
N1143 H1147 0.985 . S
H1144 N1139 0.984 . S
H1145 N1139 0.985 . S
H1146 N1143 0.984 . S
H1147 N1143 0.985 . S
H1148 N1142 0.984 . S
H1149 N1142 0.984 . S
H1150 N1138 0.984 . S
H1151 N1138 0.985 . S
C1152 C1153 1.363 . S
C1152 C1158 1.379 . S
C1152 N1160 1.356 . S
C1153 C1152 1.363 . S
C1153 C1159 1.363 . S
C1154 C1155 1.363 . S
C1154 C1159 1.379 . S
C1154 N1161 1.356 . S
C1155 C1154 1.363 . S
C1155 C1158 1.363 . S
N1156 C1158 1.356 . S
N1156 H1168 0.984 . S
N1156 H1169 0.985 . S
N1157 C1159 1.356 . S
N1157 H1162 0.984 . S
N1157 H1163 0.985 . S
C1158 C1152 1.379 . S
C1158 C1155 1.363 . S
C1158 N1156 1.356 . S
C1159 C1153 1.363 . S
C1159 C1154 1.379 . S
C1159 N1157 1.356 . S
N1160 C1152 1.356 . S
N1160 H1166 0.984 . S
N1160 H1167 0.984 . S
N1161 C1154 1.356 . S
N1161 H1164 0.984 . S
N1161 H1165 0.985 . S
H1162 N1157 0.984 . S
H1163 N1157 0.985 . S
H1164 N1161 0.984 . S
H1165 N1161 0.985 . S
H1166 N1160 0.984 . S
H1167 N1160 0.984 . S
H1168 N1156 0.984 . S
H1169 N1156 0.985 . S
C1170 C1171 1.363 . S
C1170 C1176 1.379 . S
C1170 N1178 1.356 . S
C1171 C1170 1.363 . S
C1171 C1177 1.363 . S
C1172 C1173 1.363 . S
C1172 C1177 1.379 . S
C1172 N1179 1.356 . S
C1173 C1172 1.363 . S
C1173 C1176 1.363 . S
N1174 C1176 1.356 . S
N1174 H1186 0.984 . S
N1174 H1187 0.985 . S
N1175 C1177 1.356 . S
N1175 H1180 0.984 . S
N1175 H1181 0.985 . S
C1176 C1170 1.379 . S
C1176 C1173 1.363 . S
C1176 N1174 1.356 . S
C1177 C1171 1.363 . S
C1177 C1172 1.379 . S
C1177 N1175 1.356 . S
N1178 C1170 1.356 . S
N1178 H1184 0.984 . S
N1178 H1185 0.984 . S
N1179 C1172 1.356 . S
N1179 H1182 0.984 . S
N1179 H1183 0.985 . S
H1180 N1175 0.984 . S
H1181 N1175 0.985 . S
H1182 N1179 0.984 . S
H1183 N1179 0.985 . S
H1184 N1178 0.984 . S
H1185 N1178 0.984 . S
H1186 N1174 0.984 . S
H1187 N1174 0.985 . S
C1188 C1189 1.363 . S
C1188 C1194 1.379 . S
C1188 N1196 1.356 . S
C1189 C1188 1.363 . S
C1189 C1195 1.363 . S
C1190 C1191 1.363 . S
C1190 C1195 1.379 . S
C1190 N1197 1.356 . S
C1191 C1190 1.363 . S
C1191 C1194 1.363 . S
N1192 C1194 1.356 . S
N1192 H1204 0.984 . S
N1192 H1205 0.985 . S
N1193 C1195 1.356 . S
N1193 H1198 0.984 . S
N1193 H1199 0.985 . S
C1194 C1188 1.379 . S
C1194 C1191 1.363 . S
C1194 N1192 1.356 . S
C1195 C1189 1.363 . S
C1195 C1190 1.379 . S
C1195 N1193 1.356 . S
N1196 C1188 1.356 . S
N1196 H1202 0.984 . S
N1196 H1203 0.984 . S
N1197 C1190 1.356 . S
N1197 H1200 0.984 . S
N1197 H1201 0.985 . S
H1198 N1193 0.984 . S
H1199 N1193 0.985 . S
H1200 N1197 0.984 . S
H1201 N1197 0.985 . S
H1202 N1196 0.984 . S
H1203 N1196 0.984 . S
H1204 N1192 0.984 . S
H1205 N1192 0.985 . S
C1206 C1207 1.363 . S
C1206 C1212 1.379 . S
C1206 N1214 1.356 . S
C1207 C1206 1.363 . S
C1207 C1213 1.363 . S
C1208 C1209 1.363 . S
C1208 C1213 1.379 . S
C1208 N1215 1.356 . S
C1209 C1208 1.363 . S
C1209 C1212 1.363 . S
N1210 C1212 1.356 . S
N1210 H1222 0.984 . S
N1210 H1223 0.985 . S
N1211 C1213 1.356 . S
N1211 H1216 0.984 . S
N1211 H1217 0.985 . S
C1212 C1206 1.379 . S
C1212 C1209 1.363 . S
C1212 N1210 1.356 . S
C1213 C1207 1.363 . S
C1213 C1208 1.379 . S
C1213 N1211 1.356 . S
N1214 C1206 1.356 . S
N1214 H1220 0.984 . S
N1214 H1221 0.984 . S
N1215 C1208 1.356 . S
N1215 H1218 0.984 . S
N1215 H1219 0.985 . S
H1216 N1211 0.984 . S
H1217 N1211 0.985 . S
H1218 N1215 0.984 . S
H1219 N1215 0.985 . S
H1220 N1214 0.984 . S
H1221 N1214 0.984 . S
H1222 N1210 0.984 . S
H1223 N1210 0.985 . S
C1224 C1225 1.363 . S
C1224 C1230 1.379 . S
C1224 N1232 1.356 . S
C1225 C1224 1.363 . S
C1225 C1231 1.363 . S
C1226 C1227 1.363 . S
C1226 C1231 1.379 . S
C1226 N1233 1.356 . S
C1227 C1226 1.363 . S
C1227 C1230 1.363 . S
N1228 C1230 1.356 . S
N1228 H1240 0.984 . S
N1228 H1241 0.985 . S
N1229 C1231 1.356 . S
N1229 H1234 0.984 . S
N1229 H1235 0.985 . S
C1230 C1224 1.379 . S
C1230 C1227 1.363 . S
C1230 N1228 1.356 . S
C1231 C1225 1.363 . S
C1231 C1226 1.379 . S
C1231 N1229 1.356 . S
N1232 C1224 1.356 . S
N1232 H1238 0.984 . S
N1232 H1239 0.984 . S
N1233 C1226 1.356 . S
N1233 H1236 0.984 . S
N1233 H1237 0.985 . S
H1234 N1229 0.984 . S
H1235 N1229 0.985 . S
H1236 N1233 0.984 . S
H1237 N1233 0.985 . S
H1238 N1232 0.984 . S
H1239 N1232 0.984 . S
H1240 N1228 0.984 . S
H1241 N1228 0.985 . S
C1242 C1243 1.363 . S
C1242 C1248 1.379 . S
C1242 N1250 1.356 . S
C1243 C1242 1.363 . S
C1243 C1249 1.363 . S
C1244 C1245 1.363 . S
C1244 C1249 1.379 . S
C1244 N1251 1.356 . S
C1245 C1244 1.363 . S
C1245 C1248 1.363 . S
N1246 C1248 1.356 . S
N1246 H1258 0.984 . S
N1246 H1259 0.985 . S
N1247 C1249 1.356 . S
N1247 H1252 0.984 . S
N1247 H1253 0.985 . S
C1248 C1242 1.379 . S
C1248 C1245 1.363 . S
C1248 N1246 1.356 . S
C1249 C1243 1.363 . S
C1249 C1244 1.379 . S
C1249 N1247 1.356 . S
N1250 C1242 1.356 . S
N1250 H1256 0.984 . S
N1250 H1257 0.984 . S
N1251 C1244 1.356 . S
N1251 H1254 0.984 . S
N1251 H1255 0.985 . S
H1252 N1247 0.984 . S
H1253 N1247 0.985 . S
H1254 N1251 0.984 . S
H1255 N1251 0.985 . S
H1256 N1250 0.984 . S
H1257 N1250 0.984 . S
H1258 N1246 0.984 . S
H1259 N1246 0.985 . S
C1260 C1261 1.363 . S
C1260 C1266 1.379 . S
C1260 N1268 1.356 . S
C1261 C1260 1.363 . S
C1261 C1267 1.363 . S
C1262 C1263 1.363 . S
C1262 C1267 1.379 . S
C1262 N1269 1.356 . S
C1263 C1262 1.363 . S
C1263 C1266 1.363 . S
N1264 C1266 1.356 . S
N1264 H1276 0.984 . S
N1264 H1277 0.985 . S
N1265 C1267 1.356 . S
N1265 H1270 0.984 . S
N1265 H1271 0.985 . S
C1266 C1260 1.379 . S
C1266 C1263 1.363 . S
C1266 N1264 1.356 . S
C1267 C1261 1.363 . S
C1267 C1262 1.379 . S
C1267 N1265 1.356 . S
N1268 C1260 1.356 . S
N1268 H1274 0.984 . S
N1268 H1275 0.984 . S
N1269 C1262 1.356 . S
N1269 H1272 0.984 . S
N1269 H1273 0.985 . S
H1270 N1265 0.984 . S
H1271 N1265 0.985 . S
H1272 N1269 0.984 . S
H1273 N1269 0.985 . S
H1274 N1268 0.984 . S
H1275 N1268 0.984 . S
H1276 N1264 0.984 . S
H1277 N1264 0.985 . S
C1278 C1279 1.363 . S
C1278 C1284 1.379 . S
C1278 N1286 1.356 . S
C1279 C1278 1.363 . S
C1279 C1285 1.363 . S
C1280 C1281 1.363 . S
C1280 C1285 1.379 . S
C1280 N1287 1.356 . S
C1281 C1280 1.363 . S
C1281 C1284 1.363 . S
N1282 C1284 1.356 . S
N1282 H1294 0.984 . S
N1282 H1295 0.985 . S
N1283 C1285 1.356 . S
N1283 H1288 0.984 . S
N1283 H1289 0.985 . S
C1284 C1278 1.379 . S
C1284 C1281 1.363 . S
C1284 N1282 1.356 . S
C1285 C1279 1.363 . S
C1285 C1280 1.379 . S
C1285 N1283 1.356 . S
N1286 C1278 1.356 . S
N1286 H1292 0.984 . S
N1286 H1293 0.984 . S
N1287 C1280 1.356 . S
N1287 H1290 0.984 . S
N1287 H1291 0.985 . S
H1288 N1283 0.984 . S
H1289 N1283 0.985 . S
H1290 N1287 0.984 . S
H1291 N1287 0.985 . S
H1292 N1286 0.984 . S
H1293 N1286 0.984 . S
H1294 N1282 0.984 . S
H1295 N1282 0.985 . S
C1296 C1297 1.363 . S
C1296 C1302 1.379 . S
C1296 N1304 1.356 . S
C1297 C1296 1.363 . S
C1297 C1303 1.363 . S
C1298 C1299 1.363 . S
C1298 C1303 1.379 . S
C1298 N1305 1.356 . S
C1299 C1298 1.363 . S
C1299 C1302 1.363 . S
N1300 C1302 1.356 . S
N1300 H1312 0.984 . S
N1300 H1313 0.985 . S
N1301 C1303 1.356 . S
N1301 H1306 0.984 . S
N1301 H1307 0.985 . S
C1302 C1296 1.379 . S
C1302 C1299 1.363 . S
C1302 N1300 1.356 . S
C1303 C1297 1.363 . S
C1303 C1298 1.379 . S
C1303 N1301 1.356 . S
N1304 C1296 1.356 . S
N1304 H1310 0.984 . S
N1304 H1311 0.984 . S
N1305 C1298 1.356 . S
N1305 H1308 0.984 . S
N1305 H1309 0.985 . S
H1306 N1301 0.984 . S
H1307 N1301 0.985 . S
H1308 N1305 0.984 . S
H1309 N1305 0.985 . S
H1310 N1304 0.984 . S
H1311 N1304 0.984 . S
H1312 N1300 0.984 . S
H1313 N1300 0.985 . S
C1314 C1315 1.363 . S
C1314 C1320 1.379 . S
C1314 N1322 1.356 . S
C1315 C1314 1.363 . S
C1315 C1321 1.363 . S
C1316 C1317 1.363 . S
C1316 C1321 1.379 . S
C1316 N1323 1.356 . S
C1317 C1316 1.363 . S
C1317 C1320 1.363 . S
N1318 C1320 1.356 . S
N1318 H1330 0.984 . S
N1318 H1331 0.985 . S
N1319 C1321 1.356 . S
N1319 H1324 0.984 . S
N1319 H1325 0.985 . S
C1320 C1314 1.379 . S
C1320 C1317 1.363 . S
C1320 N1318 1.356 . S
C1321 C1315 1.363 . S
C1321 C1316 1.379 . S
C1321 N1319 1.356 . S
N1322 C1314 1.356 . S
N1322 H1328 0.984 . S
N1322 H1329 0.984 . S
N1323 C1316 1.356 . S
N1323 H1326 0.984 . S
N1323 H1327 0.985 . S
H1324 N1319 0.984 . S
H1325 N1319 0.985 . S
H1326 N1323 0.984 . S
H1327 N1323 0.985 . S
H1328 N1322 0.984 . S
H1329 N1322 0.984 . S
H1330 N1318 0.984 . S
H1331 N1318 0.985 . S
C1332 C1333 1.363 . S
C1332 C1338 1.379 . S
C1332 N1340 1.356 . S
C1333 C1332 1.363 . S
C1333 C1339 1.363 . S
C1334 C1335 1.363 . S
C1334 C1339 1.379 . S
C1334 N1341 1.356 1_556 S
C1335 C1334 1.363 . S
C1335 C1338 1.363 . S
N1336 C1338 1.356 . S
N1336 H1348 0.984 . S
N1336 H1349 0.985 . S
N1337 C1339 1.356 . S
N1337 H1342 0.984 . S
N1337 H1343 0.985 . S
C1338 C1332 1.379 . S
C1338 C1335 1.363 . S
C1338 N1336 1.356 . S
C1339 C1333 1.363 . S
C1339 C1334 1.379 . S
C1339 N1337 1.356 . S
N1340 C1332 1.356 . S
N1340 H1346 0.984 . S
N1340 H1347 0.984 . S
N1341 C1334 1.356 1_554 S
N1341 H1344 0.984 . S
N1341 H1345 0.985 . S
H1342 N1337 0.984 . S
H1343 N1337 0.985 . S
H1344 N1341 0.984 . S
H1345 N1341 0.985 . S
H1346 N1340 0.984 . S
H1347 N1340 0.984 . S
H1348 N1336 0.984 . S
H1349 N1336 0.985 . S
C1350 C1351 1.363 . S
C1350 C1356 1.379 . S
C1350 N1358 1.356 . S
C1351 C1350 1.363 . S
C1351 C1357 1.363 . S
C1352 C1353 1.363 . S
C1352 C1357 1.379 . S
C1352 N1359 1.356 . S
C1353 C1352 1.363 . S
C1353 C1356 1.363 . S
N1354 C1356 1.356 . S
N1354 H1366 0.984 . S
N1354 H1367 0.985 . S
N1355 C1357 1.356 1_554 S
N1355 H1360 0.984 . S
N1355 H1361 0.985 . S
C1356 C1350 1.379 . S
C1356 C1353 1.363 . S
C1356 N1354 1.356 . S
C1357 C1351 1.363 . S
C1357 C1352 1.379 . S
C1357 N1355 1.356 1_556 S
N1358 C1350 1.356 . S
N1358 H1364 0.984 . S
N1358 H1365 0.984 . S
N1359 C1352 1.356 . S
N1359 H1362 0.984 . S
N1359 H1363 0.985 . S
H1360 N1355 0.984 . S
H1361 N1355 0.985 . S
H1362 N1359 0.984 . S
H1363 N1359 0.985 . S
H1364 N1358 0.984 . S
H1365 N1358 0.984 . S
H1366 N1354 0.984 . S
H1367 N1354 0.985 . S
C1368 C1369 1.363 . S
C1368 C1374 1.379 . S
C1368 N1376 1.356 . S
C1369 C1368 1.363 . S
C1369 C1375 1.363 . S
C1370 C1371 1.363 . S
C1370 C1375 1.379 . S
C1370 N1377 1.356 . S
C1371 C1370 1.363 . S
C1371 C1374 1.363 . S
N1372 C1374 1.356 . S
N1372 H1384 0.984 . S
N1372 H1385 0.985 . S
N1373 C1375 1.356 . S
N1373 H1378 0.984 . S
N1373 H1379 0.985 . S
C1374 C1368 1.379 . S
C1374 C1371 1.363 . S
C1374 N1372 1.356 . S
C1375 C1369 1.363 . S
C1375 C1370 1.379 . S
C1375 N1373 1.356 . S
N1376 C1368 1.356 . S
N1376 H1382 0.984 . S
N1376 H1383 0.984 . S
N1377 C1370 1.356 . S
N1377 H1380 0.984 . S
N1377 H1381 0.985 . S
H1378 N1373 0.984 . S
H1379 N1373 0.985 . S
H1380 N1377 0.984 . S
H1381 N1377 0.985 . S
H1382 N1376 0.984 . S
H1383 N1376 0.984 . S
H1384 N1372 0.984 . S
H1385 N1372 0.985 . S
C1386 C1387 1.363 . S
C1386 C1392 1.379 . S
C1386 N1394 1.356 . S
C1387 C1386 1.363 . S
C1387 C1393 1.363 . S
C1388 C1389 1.366 . S
C1388 C1393 1.379 1_554 S
C1388 N1395 1.356 . S
C1389 C1388 1.366 . S
C1389 C1392 1.353 1_554 S
N1390 C1392 1.356 . S
N1390 H1402 0.984 . S
N1390 H1403 0.985 . S
N1391 C1393 1.356 . S
N1391 H1396 0.984 . S
N1391 H1397 0.985 1_556 S
C1392 C1386 1.379 . S
C1392 C1389 1.353 1_556 S
C1392 N1390 1.356 . S
C1393 C1387 1.363 . S
C1393 C1388 1.379 1_556 S
C1393 N1391 1.356 . S
N1394 C1386 1.356 . S
N1394 H1400 0.984 . S
N1394 H1401 0.984 . S
N1395 C1388 1.356 . S
N1395 H1398 0.984 . S
N1395 H1399 0.985 . S
H1396 N1391 0.984 . S
H1397 N1391 0.985 1_554 S
H1398 N1395 0.984 . S
H1399 N1395 0.985 . S
H1400 N1394 0.984 . S
H1401 N1394 0.984 . S
H1402 N1390 0.984 . S
H1403 N1390 0.985 . S
C1404 C1405 1.363 . S
C1404 C1410 1.379 . S
C1404 N1412 1.356 . S
C1405 C1404 1.363 . S
C1405 C1411 1.363 . S
C1406 C1407 1.362 1_556 S
C1406 C1411 1.379 . S
C1406 N1413 1.356 1_556 S
C1407 C1406 1.362 1_554 S
C1407 C1410 1.357 1_554 S
N1408 C1410 1.356 . S
N1408 H1420 0.984 . S
N1408 H1421 0.985 1_556 S
N1409 C1411 1.356 . S
N1409 H1414 0.984 . S
N1409 H1415 0.985 . S
C1410 C1404 1.379 . S
C1410 C1407 1.357 1_556 S
C1410 N1408 1.356 . S
C1411 C1405 1.363 . S
C1411 C1406 1.379 . S
C1411 N1409 1.356 . S
N1412 C1404 1.356 . S
N1412 H1418 0.984 . S
N1412 H1419 0.984 . S
N1413 C1406 1.356 1_554 S
N1413 H1416 0.984 . S
N1413 H1417 0.985 . S
H1414 N1409 0.984 . S
H1415 N1409 0.985 . S
H1416 N1413 0.984 . S
H1417 N1413 0.985 . S
H1418 N1412 0.984 . S
H1419 N1412 0.984 . S
H1420 N1408 0.984 . S
H1421 N1408 0.985 1_554 S
C1422 C1423 1.363 . S
C1422 C1428 1.379 1_556 S
C1422 N1430 1.356 . S
C1423 C1422 1.363 . S
C1423 C1429 1.363 . S
C1424 C1425 1.358 1_556 S
C1424 C1429 1.379 . S
C1424 N1431 1.356 . S
C1425 C1424 1.358 1_554 S
C1425 C1428 1.364 . S
N1426 C1428 1.356 . S
N1426 H1438 0.984 . S
N1426 H1439 0.985 . S
N1427 C1429 1.356 . S
N1427 H1432 0.984 . S
N1427 H1433 0.985 . S
C1428 C1422 1.379 1_554 S
C1428 C1425 1.364 . S
C1428 N1426 1.356 . S
C1429 C1423 1.363 . S
C1429 C1424 1.379 . S
C1429 N1427 1.356 . S
N1430 C1422 1.356 . S
N1430 H1436 0.984 . S
N1430 H1437 0.984 . S
N1431 C1424 1.356 . S
N1431 H1434 0.984 . S
N1431 H1435 0.985 . S
H1432 N1427 0.984 . S
H1433 N1427 0.985 . S
H1434 N1431 0.984 . S
H1435 N1431 0.985 . S
H1436 N1430 0.984 . S
H1437 N1430 0.984 . S
H1438 N1426 0.984 . S
H1439 N1426 0.985 . S
C1440 C1441 1.363 . S
C1440 C1446 1.379 . S
C1440 N1448 1.356 . S
C1441 C1440 1.363 . S
C1441 C1447 1.363 . S
C1442 C1443 1.363 1_554 S
C1442 C1447 1.379 1_554 S
C1442 N1449 1.356 . S
C1443 C1442 1.363 1_556 S
C1443 C1446 1.363 . S
N1444 C1446 1.356 . S
N1444 H1456 0.984 . S
N1444 H1457 0.985 . S
N1445 C1447 1.356 . S
N1445 H1450 0.984 . S
N1445 H1451 0.985 1_556 S
C1446 C1440 1.379 . S
C1446 C1443 1.363 . S
C1446 N1444 1.356 . S
C1447 C1441 1.363 . S
C1447 C1442 1.379 1_556 S
C1447 N1445 1.356 . S
N1448 C1440 1.356 . S
N1448 H1454 0.984 . S
N1448 H1455 0.984 . S
N1449 C1442 1.356 . S
N1449 H1452 0.984 . S
N1449 H1453 0.985 . S
H1450 N1445 0.984 . S
H1451 N1445 0.985 1_554 S
H1452 N1449 0.984 . S
H1453 N1449 0.985 . S
H1454 N1448 0.984 . S
H1455 N1448 0.984 . S
H1456 N1444 0.984 . S
H1457 N1444 0.985 . S
C1458 C1459 1.363 1_554 S
C1458 C1464 1.379 1_554 S
C1458 N1466 1.356 . S
C1459 C1458 1.363 1_556 S
C1459 C1465 1.363 . S
C1460 C1461 1.363 . S
C1460 C1465 1.379 . S
C1460 N1467 1.356 . S
C1461 C1460 1.363 . S
C1461 C1464 1.363 . S
N1462 C1464 1.356 . S
N1462 H1474 0.984 1_556 S
N1462 H1475 0.985 . S
N1463 C1465 1.356 . S
N1463 H1468 0.984 . S
N1463 H1469 0.985 . S
C1464 C1458 1.379 1_556 S
C1464 C1461 1.363 . S
C1464 N1462 1.356 . S
C1465 C1459 1.363 . S
C1465 C1460 1.379 . S
C1465 N1463 1.356 . S
N1466 C1458 1.356 . S
N1466 H1472 0.984 . S
N1466 H1473 0.984 . S
N1467 C1460 1.356 . S
N1467 H1470 0.984 . S
N1467 H1471 0.985 . S
H1468 N1463 0.984 . S
H1469 N1463 0.985 . S
H1470 N1467 0.984 . S
H1471 N1467 0.985 . S
H1472 N1466 0.984 . S
H1473 N1466 0.984 . S
H1474 N1462 0.984 1_554 S
H1475 N1462 0.985 . S
C1476 C1477 1.363 . S
C1476 C1482 1.379 1_556 S
C1476 N1484 1.356 . S
C1477 C1476 1.363 . S
C1477 C1483 1.363 . S
C1478 C1479 1.363 . S
C1478 C1483 1.379 . S
C1478 N1485 1.356 . S
C1479 C1478 1.363 . S
C1479 C1482 1.363 1_556 S
N1480 C1482 1.356 . S
N1480 H1492 0.984 . S
N1480 H1493 0.985 . S
N1481 C1483 1.356 . S
N1481 H1486 0.984 . S
N1481 H1487 0.985 . S
C1482 C1476 1.379 1_554 S
C1482 C1479 1.363 1_554 S
C1482 N1480 1.356 . S
C1483 C1477 1.363 . S
C1483 C1478 1.379 . S
C1483 N1481 1.356 . S
N1484 C1476 1.356 . S
N1484 H1490 0.984 1_556 S
N1484 H1491 0.984 . S
N1485 C1478 1.356 . S
N1485 H1488 0.984 . S
N1485 H1489 0.985 . S
H1486 N1481 0.984 . S
H1487 N1481 0.985 . S
H1488 N1485 0.984 . S
H1489 N1485 0.985 . S
H1490 N1484 0.984 1_554 S
H1491 N1484 0.984 . S
H1492 N1480 0.984 . S
H1493 N1480 0.985 . S
C1494 C1495 1.363 . S
C1494 C1500 1.379 . S
C1494 N1502 1.356 . S
C1495 C1494 1.363 . S
C1495 C1501 1.363 . S
C1496 C1497 1.363 . S
C1496 C1501 1.379 . S
C1496 N1503 1.356 . S
C1497 C1496 1.363 . S
C1497 C1500 1.363 . S
N1498 C1500 1.356 . S
N1498 H1510 0.984 . S
N1498 H1511 0.985 . S
N1499 C1501 1.356 . S
N1499 H1504 0.984 . S
N1499 H1505 0.985 . S
C1500 C1494 1.379 . S
C1500 C1497 1.363 . S
C1500 N1498 1.356 . S
C1501 C1495 1.363 . S
C1501 C1496 1.379 . S
C1501 N1499 1.356 . S
N1502 C1494 1.356 . S
N1502 H1508 0.984 . S
N1502 H1509 0.984 . S
N1503 C1496 1.356 . S
N1503 H1506 0.984 . S
N1503 H1507 0.985 . S
H1504 N1499 0.984 . S
H1505 N1499 0.985 . S
H1506 N1503 0.984 . S
H1507 N1503 0.985 . S
H1508 N1502 0.984 . S
H1509 N1502 0.984 . S
H1510 N1498 0.984 . S
H1511 N1498 0.985 . S
C1512 C1513 1.363 . S
C1512 C1518 1.379 . S
C1512 N1520 1.356 . S
C1513 C1512 1.363 . S
C1513 C1519 1.363 . S
C1514 C1515 1.363 . S
C1514 C1519 1.379 . S
C1514 N1521 1.356 . S
C1515 C1514 1.363 . S
C1515 C1518 1.363 . S
N1516 C1518 1.356 . S
N1516 H1528 0.984 . S
N1516 H1529 0.985 . S
N1517 C1519 1.356 . S
N1517 H1522 0.984 . S
N1517 H1523 0.985 . S
C1518 C1512 1.379 . S
C1518 C1515 1.363 . S
C1518 N1516 1.356 . S
C1519 C1513 1.363 . S
C1519 C1514 1.379 . S
C1519 N1517 1.356 . S
N1520 C1512 1.356 . S
N1520 H1526 0.984 . S
N1520 H1527 0.984 . S
N1521 C1514 1.356 . S
N1521 H1524 0.984 . S
N1521 H1525 0.985 . S
H1522 N1517 0.984 . S
H1523 N1517 0.985 . S
H1524 N1521 0.984 . S
H1525 N1521 0.985 . S
H1526 N1520 0.984 . S
H1527 N1520 0.984 . S
H1528 N1516 0.984 . S
H1529 N1516 0.985 . S
C1530 C1531 1.363 . S
C1530 C1536 1.379 . S
C1530 N1538 1.356 . S
C1531 C1530 1.363 . S
C1531 C1537 1.363 . S
C1532 C1533 1.363 . S
C1532 C1537 1.379 . S
C1532 N1539 1.356 . S
C1533 C1532 1.363 . S
C1533 C1536 1.363 . S
N1534 C1536 1.356 . S
N1534 H1546 0.984 . S
N1534 H1547 0.985 . S
N1535 C1537 1.356 . S
N1535 H1540 0.984 . S
N1535 H1541 0.985 . S
C1536 C1530 1.379 . S
C1536 C1533 1.363 . S
C1536 N1534 1.356 . S
C1537 C1531 1.363 . S
C1537 C1532 1.379 . S
C1537 N1535 1.356 . S
N1538 C1530 1.356 . S
N1538 H1544 0.984 . S
N1538 H1545 0.984 . S
N1539 C1532 1.356 . S
N1539 H1542 0.984 . S
N1539 H1543 0.985 . S
H1540 N1535 0.984 . S
H1541 N1535 0.985 . S
H1542 N1539 0.984 . S
H1543 N1539 0.985 . S
H1544 N1538 0.984 . S
H1545 N1538 0.984 . S
H1546 N1534 0.984 . S
H1547 N1534 0.985 . S
C1548 C1549 1.363 . S
C1548 C1554 1.379 . S
C1548 N1556 1.356 . S
C1549 C1548 1.363 . S
C1549 C1555 1.363 1_554 S
C1550 C1551 1.363 . S
C1550 C1555 1.378 1_554 S
C1550 N1557 1.356 . S
C1551 C1550 1.363 . S
C1551 C1554 1.363 . S
N1552 C1554 1.356 . S
N1552 H1564 0.984 . S
N1552 H1565 0.985 . S
N1553 C1555 1.357 . S
N1553 H1558 0.984 . S
N1553 H1559 0.985 . S
C1554 C1548 1.379 . S
C1554 C1551 1.363 . S
C1554 N1552 1.356 . S
C1555 C1549 1.363 1_556 S
C1555 C1550 1.378 1_556 S
C1555 N1553 1.357 . S
N1556 C1548 1.356 . S
N1556 H1562 0.984 . S
N1556 H1563 0.984 . S
N1557 C1550 1.356 . S
N1557 H1560 0.984 . S
N1557 H1561 0.985 1_554 S
H1558 N1553 0.984 . S
H1559 N1553 0.985 . S
H1560 N1557 0.984 . S
H1561 N1557 0.985 1_556 S
H1562 N1556 0.984 . S
H1563 N1556 0.984 . S
H1564 N1552 0.984 . S
H1565 N1552 0.985 . S
C1566 C1567 1.363 . S
C1566 C1572 1.379 . S
C1566 N1574 1.356 . S
C1567 C1566 1.363 . S
C1567 C1573 1.363 . S
C1568 C1569 1.363 . S
C1568 C1573 1.379 . S
C1568 N1575 1.356 . S
C1569 C1568 1.363 . S
C1569 C1572 1.363 . S
N1570 C1572 1.356 . S
N1570 H1582 0.984 . S
N1570 H1583 0.985 . S
N1571 C1573 1.356 . S
N1571 H1576 0.984 . S
N1571 H1577 0.985 . S
C1572 C1566 1.379 . S
C1572 C1569 1.363 . S
C1572 N1570 1.356 . S
C1573 C1567 1.363 . S
C1573 C1568 1.379 . S
C1573 N1571 1.356 . S
N1574 C1566 1.356 . S
N1574 H1580 0.984 . S
N1574 H1581 0.984 . S
N1575 C1568 1.356 . S
N1575 H1578 0.984 1_554 S
N1575 H1579 0.985 . S
H1576 N1571 0.984 . S
H1577 N1571 0.985 . S
H1578 N1575 0.984 1_556 S
H1579 N1575 0.985 . S
H1580 N1574 0.984 . S
H1581 N1574 0.984 . S
H1582 N1570 0.984 . S
H1583 N1570 0.985 . S
C1584 C1585 1.363 . S
C1584 C1590 1.379 . S
C1584 N1592 1.356 . S
C1585 C1584 1.363 . S
C1585 C1591 1.363 . S
C1586 C1587 1.363 1_556 S
C1586 C1591 1.379 1_556 S
C1586 N1593 1.356 . S
C1587 C1586 1.363 1_554 S
C1587 C1590 1.363 . S
N1588 C1590 1.356 . S
N1588 H1600 0.984 . S
N1588 H1601 0.985 . S
N1589 C1591 1.356 . S
N1589 H1594 0.984 . S
N1589 H1595 0.985 1_554 S
C1590 C1584 1.379 . S
C1590 C1587 1.363 . S
C1590 N1588 1.356 . S
C1591 C1585 1.363 . S
C1591 C1586 1.379 1_554 S
C1591 N1589 1.356 . S
N1592 C1584 1.356 . S
N1592 H1598 0.984 . S
N1592 H1599 0.984 . S
N1593 C1586 1.356 . S
N1593 H1596 0.984 . S
N1593 H1597 0.985 . S
H1594 N1589 0.984 . S
H1595 N1589 0.985 1_556 S
H1596 N1593 0.984 . S
H1597 N1593 0.985 . S
H1598 N1592 0.984 . S
H1599 N1592 0.984 . S
H1600 N1588 0.984 . S
H1601 N1588 0.985 . S
C1602 C1603 1.363 . S
C1602 C1608 1.379 . S
C1602 N1610 1.356 . S
C1603 C1602 1.363 . S
C1603 C1609 1.363 . S
C1604 C1605 1.363 . S
C1604 C1609 1.379 . S
C1604 N1611 1.356 . S
C1605 C1604 1.363 . S
C1605 C1608 1.363 . S
N1606 C1608 1.356 . S
N1606 H1618 0.984 . S
N1606 H1619 0.985 . S
N1607 C1609 1.356 . S
N1607 H1612 0.984 . S
N1607 H1613 0.985 . S
C1608 C1602 1.379 . S
C1608 C1605 1.363 . S
C1608 N1606 1.356 . S
C1609 C1603 1.363 . S
C1609 C1604 1.379 . S
C1609 N1607 1.356 . S
N1610 C1602 1.356 . S
N1610 H1616 0.984 . S
N1610 H1617 0.984 . S
N1611 C1604 1.356 . S
N1611 H1614 0.984 . S
N1611 H1615 0.985 . S
H1612 N1607 0.984 . S
H1613 N1607 0.985 . S
H1614 N1611 0.984 . S
H1615 N1611 0.985 . S
H1616 N1610 0.984 . S
H1617 N1610 0.984 . S
H1618 N1606 0.984 . S
H1619 N1606 0.985 . S
C1620 C1621 1.363 . S
C1620 C1626 1.379 . S
C1620 N1628 1.356 . S
C1621 C1620 1.363 . S
C1621 C1627 1.363 . S
C1622 C1623 1.363 . S
C1622 C1627 1.379 . S
C1622 N1629 1.356 . S
C1623 C1622 1.363 . S
C1623 C1626 1.363 . S
N1624 C1626 1.356 . S
N1624 H1636 0.984 . S
N1624 H1637 0.985 . S
N1625 C1627 1.356 . S
N1625 H1630 0.984 . S
N1625 H1631 0.985 . S
C1626 C1620 1.379 . S
C1626 C1623 1.363 . S
C1626 N1624 1.356 . S
C1627 C1621 1.363 . S
C1627 C1622 1.379 . S
C1627 N1625 1.356 . S
N1628 C1620 1.356 . S
N1628 H1634 0.984 . S
N1628 H1635 0.984 . S
N1629 C1622 1.356 . S
N1629 H1632 0.984 . S
N1629 H1633 0.985 . S
H1630 N1625 0.984 . S
H1631 N1625 0.985 . S
H1632 N1629 0.984 . S
H1633 N1629 0.985 . S
H1634 N1628 0.984 . S
H1635 N1628 0.984 . S
H1636 N1624 0.984 . S
H1637 N1624 0.985 . S
C1638 C1639 1.363 . S
C1638 C1644 1.379 . S
C1638 N1646 1.356 . S
C1639 C1638 1.363 . S
C1639 C1645 1.363 . S
C1640 C1641 1.363 . S
C1640 C1645 1.379 . S
C1640 N1647 1.356 . S
C1641 C1640 1.363 . S
C1641 C1644 1.363 . S
N1642 C1644 1.356 . S
N1642 H1654 0.984 . S
N1642 H1655 0.985 . S
N1643 C1645 1.356 . S
N1643 H1648 0.984 . S
N1643 H1649 0.985 . S
C1644 C1638 1.379 . S
C1644 C1641 1.363 . S
C1644 N1642 1.356 . S
C1645 C1639 1.363 . S
C1645 C1640 1.379 . S
C1645 N1643 1.356 . S
N1646 C1638 1.356 . S
N1646 H1652 0.984 . S
N1646 H1653 0.984 . S
N1647 C1640 1.356 . S
N1647 H1650 0.984 . S
N1647 H1651 0.985 . S
H1648 N1643 0.984 . S
H1649 N1643 0.985 . S
H1650 N1647 0.984 . S
H1651 N1647 0.985 . S
H1652 N1646 0.984 . S
H1653 N1646 0.984 . S
H1654 N1642 0.984 . S
H1655 N1642 0.985 . S
C1656 C1657 1.363 . S
C1656 C1662 1.379 1_655 S
C1656 N1664 1.356 . S
C1657 C1656 1.363 . S
C1657 C1663 1.363 . S
C1658 C1659 1.363 . S
C1658 C1663 1.379 1_455 S
C1658 N1665 1.356 . S
C1659 C1658 1.363 . S
C1659 C1662 1.363 . S
N1660 C1662 1.356 . S
N1660 H1672 0.984 . S
N1660 H1673 0.985 . S
N1661 C1663 1.356 . S
N1661 H1666 0.984 . S
N1661 H1667 0.985 . S
C1662 C1656 1.379 1_455 S
C1662 C1659 1.363 . S
C1662 N1660 1.356 . S
C1663 C1657 1.363 . S
C1663 C1658 1.379 1_655 S
C1663 N1661 1.356 . S
N1664 C1656 1.356 . S
N1664 H1670 0.984 . S
N1664 H1671 0.984 . S
N1665 C1658 1.356 . S
N1665 H1668 0.984 . S
N1665 H1669 0.985 . S
H1666 N1661 0.984 . S
H1667 N1661 0.985 . S
H1668 N1665 0.984 . S
H1669 N1665 0.985 . S
H1670 N1664 0.984 . S
H1671 N1664 0.984 . S
H1672 N1660 0.984 . S
H1673 N1660 0.985 . S
C1674 C1675 1.363 . S
C1674 C1680 1.379 . S
C1674 N1682 1.356 . S
C1675 C1674 1.363 . S
C1675 C1681 1.363 . S
C1676 C1677 1.363 . S
C1676 C1681 1.379 . S
C1676 N1683 1.356 . S
C1677 C1676 1.363 . S
C1677 C1680 1.363 . S
N1678 C1680 1.356 . S
N1678 H1690 0.984 . S
N1678 H1691 0.985 . S
N1679 C1681 1.356 . S
N1679 H1684 0.984 . S
N1679 H1685 0.985 . S
C1680 C1674 1.379 . S
C1680 C1677 1.363 . S
C1680 N1678 1.356 . S
C1681 C1675 1.363 . S
C1681 C1676 1.379 . S
C1681 N1679 1.356 . S
N1682 C1674 1.356 . S
N1682 H1688 0.984 . S
N1682 H1689 0.984 . S
N1683 C1676 1.356 . S
N1683 H1686 0.984 . S
N1683 H1687 0.985 . S
H1684 N1679 0.984 . S
H1685 N1679 0.985 . S
H1686 N1683 0.984 . S
H1687 N1683 0.985 . S
H1688 N1682 0.984 . S
H1689 N1682 0.984 . S
H1690 N1678 0.984 . S
H1691 N1678 0.985 . S
C1692 C1693 1.363 . S
C1692 C1698 1.379 1_565 S
C1692 N1700 1.356 . S
C1693 C1692 1.363 . S
C1693 C1699 1.363 . S
C1694 C1695 1.363 . S
C1694 C1699 1.379 1_545 S
C1694 N1701 1.356 . S
C1695 C1694 1.363 . S
C1695 C1698 1.363 . S
N1696 C1698 1.356 . S
N1696 H1708 0.984 . S
N1696 H1709 0.985 . S
N1697 C1699 1.356 . S
N1697 H1702 0.984 . S
N1697 H1703 0.985 . S
C1698 C1692 1.379 1_545 S
C1698 C1695 1.363 . S
C1698 N1696 1.356 . S
C1699 C1693 1.363 . S
C1699 C1694 1.379 1_565 S
C1699 N1697 1.356 . S
N1700 C1692 1.356 . S
N1700 H1706 0.984 . S
N1700 H1707 0.984 . S
N1701 C1694 1.356 . S
N1701 H1704 0.984 . S
N1701 H1705 0.985 . S
H1702 N1697 0.984 . S
H1703 N1697 0.985 . S
H1704 N1701 0.984 . S
H1705 N1701 0.985 . S
H1706 N1700 0.984 . S
H1707 N1700 0.984 . S
H1708 N1696 0.984 . S
H1709 N1696 0.985 . S
C1710 C1711 1.363 . S
C1710 C1716 1.379 1_545 S
C1710 N1718 1.356 . S
C1711 C1710 1.363 . S
C1711 C1717 1.363 . S
C1712 C1713 1.363 . S
C1712 C1717 1.379 1_565 S
C1712 N1719 1.356 . S
C1713 C1712 1.363 . S
C1713 C1716 1.363 . S
N1714 C1716 1.356 . S
N1714 H1726 0.984 1_565 S
N1714 H1727 0.985 . S
N1715 C1717 1.356 . S
N1715 H1720 0.984 . S
N1715 H1721 0.985 1_545 S
C1716 C1710 1.379 1_565 S
C1716 C1713 1.363 . S
C1716 N1714 1.356 . S
C1717 C1711 1.363 . S
C1717 C1712 1.379 1_545 S
C1717 N1715 1.356 . S
N1718 C1710 1.356 . S
N1718 H1724 0.984 . S
N1718 H1725 0.984 . S
N1719 C1712 1.356 . S
N1719 H1722 0.984 . S
N1719 H1723 0.985 . S
H1720 N1715 0.984 . S
H1721 N1715 0.985 1_565 S
H1722 N1719 0.984 . S
H1723 N1719 0.985 . S
H1724 N1718 0.984 . S
H1725 N1718 0.984 . S
H1726 N1714 0.984 1_545 S
H1727 N1714 0.985 . S
C1728 C1729 1.363 . S
C1728 C1734 1.379 1_455 S
C1728 N1736 1.356 . S
C1729 C1728 1.363 . S
C1729 C1735 1.363 . S
C1730 C1731 1.363 . S
C1730 C1735 1.379 1_655 S
C1730 N1737 1.356 . S
C1731 C1730 1.363 . S
C1731 C1734 1.363 . S
N1732 C1734 1.356 . S
N1732 H1744 0.984 1_655 S
N1732 H1745 0.985 . S
N1733 C1735 1.356 . S
N1733 H1738 0.984 . S
N1733 H1739 0.985 1_455 S
C1734 C1728 1.379 1_655 S
C1734 C1731 1.363 . S
C1734 N1732 1.356 . S
C1735 C1729 1.363 . S
C1735 C1730 1.379 1_455 S
C1735 N1733 1.356 . S
N1736 C1728 1.356 . S
N1736 H1742 0.984 . S
N1736 H1743 0.984 . S
N1737 C1730 1.356 . S
N1737 H1740 0.984 . S
N1737 H1741 0.985 . S
H1738 N1733 0.984 . S
H1739 N1733 0.985 1_655 S
H1740 N1737 0.984 . S
H1741 N1737 0.985 . S
H1742 N1736 0.984 . S
H1743 N1736 0.984 . S
H1744 N1732 0.984 1_455 S
H1745 N1732 0.985 . S
C1746 C1747 1.363 . S
C1746 C1752 1.379 . S
C1746 N1754 1.356 . S
C1747 C1746 1.363 . S
C1747 C1753 1.363 . S
C1748 C1749 1.363 . S
C1748 C1753 1.379 . S
C1748 N1755 1.356 . S
C1749 C1748 1.363 . S
C1749 C1752 1.363 . S
N1750 C1752 1.356 . S
N1750 H1762 0.984 . S
N1750 H1763 0.985 . S
N1751 C1753 1.356 . S
N1751 H1756 0.984 . S
N1751 H1757 0.985 . S
C1752 C1746 1.379 . S
C1752 C1749 1.363 . S
C1752 N1750 1.356 . S
C1753 C1747 1.363 . S
C1753 C1748 1.379 . S
C1753 N1751 1.356 . S
N1754 C1746 1.356 . S
N1754 H1760 0.984 . S
N1754 H1761 0.984 . S
N1755 C1748 1.356 . S
N1755 H1758 0.984 . S
N1755 H1759 0.985 . S
H1756 N1751 0.984 . S
H1757 N1751 0.985 . S
H1758 N1755 0.984 . S
H1759 N1755 0.985 . S
H1760 N1754 0.984 . S
H1761 N1754 0.984 . S
H1762 N1750 0.984 . S
H1763 N1750 0.985 . S
C469 C65 1.473 . S
C471 C0 1.473 . S
C487 C13 1.473 . S
C489 C39 1.473 . S
C505 C52 1.473 . S
C507 C26 1.473 . S
C523 C78 1.473 . S
C525 C143 1.473 . S
C541 C91 1.473 . S
C543 C117 1.473 . S
C559 C130 1.473 . S
C561 C104 1.473 . S
C577 C221 1.473 . S
C579 C156 1.473 . S
C595 C169 1.473 . S
C597 C195 1.473 . S
C613 C208 1.473 . S
C615 C182 1.473 . S
C631 C234 1.473 . S
C633 C299 1.473 1_554 S
C649 C247 1.473 . S
C651 C273 1.473 1_554 S
C667 C260 1.473 . S
C669 C286 1.473 1_554 S
C685 C312 1.473 . S
C687 C377 1.473 1_556 S
C703 C351 1.473 1_556 S
C705 C325 1.473 . S
C721 C338 1.473 . S
C723 C364 1.473 1_556 S
C739 C390 1.473 . S
C741 C455 1.473 . S
C757 C403 1.473 . S
C759 C429 1.473 . S
C775 C416 1.473 . S
C777 C442 1.473 . S
C793 C138 1.208 . S
C795 C5 1.107 . S
C811 C151 1.207 . S
C813 C18 1.107 . S
C829 C125 1.208 . S
C831 C31 1.107 . S
C847 C112 1.208 . S
C849 C44 1.107 . S
C865 C57 1.107 . S
C867 C86 1.208 . S
C883 C70 1.107 . S
C885 C99 1.208 . S
C901 C83 1.107 . S
C903 C60 1.208 . S
C919 C96 1.107 . S
C921 C73 1.208 . S
C937 C109 1.107 . S
C939 C47 1.208 . S
C955 C34 1.208 . S
C957 C122 1.107 . S
C973 C8 1.208 . S
C975 C135 1.107 . S
C991 C148 1.107 . S
C993 C21 1.208 . S
C1009 C161 1.108 . S
C1011 C294 1.215 . S
C1027 C174 1.107 . S
C1029 C307 1.213 . S
C1045 C281 1.215 . S
C1047 C187 1.107 . S
C1063 C200 1.116 . S
C1065 C268 1.208 . S
C1081 C213 1.116 . S
C1083 C242 1.208 . S
C1099 C226 1.114 . S
C1101 C255 1.208 . S
C1117 C239 1.107 . S
C1119 C216 1.208 . S
C1135 C229 1.208 . S
C1137 C252 1.107 . S
C1153 C203 1.208 . S
C1155 C265 1.107 . S
C1171 C278 1.107 . S
C1173 C190 1.208 . S
C1189 C164 1.208 . S
C1191 C291 1.107 . S
C1207 C177 1.208 . S
C1209 C304 1.107 . S
C1225 C450 1.208 . S
C1227 C317 1.107 . S
C1243 C330 1.107 . S
C1245 C463 1.208 . S
C1261 C343 1.107 . S
C1263 C437 1.208 . S
C1279 C424 1.208 . S
C1281 C356 1.107 . S
C1297 C398 1.208 . S
C1299 C369 1.107 . S
C1315 C411 1.208 . S
C1317 C382 1.107 . S
C1333 C395 1.108 . S
C1335 C372 1.214 . S
C1351 C385 1.213 . S
C1353 C408 1.107 . S
C1369 C421 1.107 . S
C1371 C359 1.214 . S
C1387 C346 1.208 . S
C1389 C434 1.116 . S
C1405 C320 1.208 . S
C1407 C447 1.116 . S
C1423 C333 1.208 . S
C1425 C460 1.114 . S
C1441 C218 1.464 . S
C1443 C10 1.465 1_556 S
C1459 C23 1.465 1_556 S
C1461 C231 1.465 . S
C1477 C205 1.465 . S
C1479 C36 1.464 1_556 S
C1495 C348 1.464 . S
C1497 C49 1.464 . S
C1513 C62 1.464 . S
C1515 C322 1.464 . S
C1531 C75 1.464 . S
C1533 C335 1.464 . S
C1549 C88 1.465 1_554 S
C1551 C452 1.464 . S
C1567 C465 1.465 . S
C1569 C101 1.464 1_554 S
C1585 C439 1.465 . S
C1587 C114 1.464 1_554 S
C1603 C270 1.464 . S
C1605 C127 1.464 . S
C1621 C140 1.464 . S
C1623 C244 1.465 . S
C1639 C153 1.464 . S
C1641 C257 1.464 . S
C1657 C166 1.465 . S
C1659 C374 1.465 . S
C1675 C387 1.464 . S
C1677 C179 1.465 . S
C1693 C361 1.465 . S
C1695 C192 1.465 . S
C1711 C283 1.465 . S
C1713 C426 1.465 . S
C1729 C400 1.465 . S
C1731 C296 1.465 . S
C1747 C413 1.465 . S
C1749 C309 1.465 . S
