# Generated by pormake.
# Topology ukf, (4)-cn, num edge types: 1
# Building blocks:
#     Node 0, Type 0, BuildingBlock: TATPOV_clean_sbu_0, # of connection points: 4
#     Node 1, Type 0, BuildingBlock: TATPOV_clean_sbu_0, # of connection points: 4
#     Node 2, Type 0, BuildingBlock: TATPOV_clean_sbu_0, # of connection points: 4
#     Node 3, Type 0, BuildingBlock: TATPOV_clean_sbu_0, # of connection points: 4
#     Node 4, Type 0, BuildingBlock: TATPOV_clean_sbu_0, # of connection points: 4
#     Node 5, Type 0, BuildingBlock: TATPOV_clean_sbu_0, # of connection points: 4
#     Node 6, Type 0, BuildingBlock: TATPOV_clean_sbu_0, # of connection points: 4
#     Node 7, Type 0, BuildingBlock: TATPOV_clean_sbu_0, # of connection points: 4
#     Node 8, Type 0, BuildingBlock: TATPOV_clean_sbu_0, # of connection points: 4
#     Node 9, Type 0, BuildingBlock: TATPOV_clean_sbu_0, # of connection points: 4
#     Node 10, Type 0, BuildingBlock: TATPOV_clean_sbu_0, # of connection points: 4
#     Node 11, Type 0, BuildingBlock: TATPOV_clean_sbu_0, # of connection points: 4
#     Edge 12, Type (0, 0), BuildingBlock: OJICUG_clean_linker_0, # of connection points: 2
#     Edge 13, Type (0, 0), BuildingBlock: OJICUG_clean_linker_0, # of connection points: 2
#     Edge 14, Type (0, 0), BuildingBlock: OJICUG_clean_linker_0, # of connection points: 2
#     Edge 15, Type (0, 0), BuildingBlock: OJICUG_clean_linker_0, # of connection points: 2
#     Edge 16, Type (0, 0), BuildingBlock: OJICUG_clean_linker_0, # of connection points: 2
#     Edge 17, Type (0, 0), BuildingBlock: OJICUG_clean_linker_0, # of connection points: 2
#     Edge 18, Type (0, 0), BuildingBlock: OJICUG_clean_linker_0, # of connection points: 2
#     Edge 19, Type (0, 0), BuildingBlock: OJICUG_clean_linker_0, # of connection points: 2
#     Edge 20, Type (0, 0), BuildingBlock: OJICUG_clean_linker_0, # of connection points: 2
#     Edge 21, Type (0, 0), BuildingBlock: OJICUG_clean_linker_0, # of connection points: 2
#     Edge 22, Type (0, 0), BuildingBlock: OJICUG_clean_linker_0, # of connection points: 2
#     Edge 23, Type (0, 0), BuildingBlock: OJICUG_clean_linker_0, # of connection points: 2
#     Edge 24, Type (0, 0), BuildingBlock: OJICUG_clean_linker_0, # of connection points: 2
#     Edge 25, Type (0, 0), BuildingBlock: OJICUG_clean_linker_0, # of connection points: 2
#     Edge 26, Type (0, 0), BuildingBlock: OJICUG_clean_linker_0, # of connection points: 2
#     Edge 27, Type (0, 0), BuildingBlock: OJICUG_clean_linker_0, # of connection points: 2
#     Edge 28, Type (0, 0), BuildingBlock: OJICUG_clean_linker_0, # of connection points: 2
#     Edge 29, Type (0, 0), BuildingBlock: OJICUG_clean_linker_0, # of connection points: 2
#     Edge 30, Type (0, 0), BuildingBlock: OJICUG_clean_linker_0, # of connection points: 2
#     Edge 31, Type (0, 0), BuildingBlock: OJICUG_clean_linker_0, # of connection points: 2
#     Edge 32, Type (0, 0), BuildingBlock: OJICUG_clean_linker_0, # of connection points: 2
#     Edge 33, Type (0, 0), BuildingBlock: OJICUG_clean_linker_0, # of connection points: 2
#     Edge 34, Type (0, 0), BuildingBlock: OJICUG_clean_linker_0, # of connection points: 2
#     Edge 35, Type (0, 0), BuildingBlock: OJICUG_clean_linker_0, # of connection points: 2
# Relax obj value: 0.149
# Max RMSD: 0.164
# Mean RMSD: 0.164
data_MOF--net-ukf--node1-TATPOV_clean_sbu_0--edge1-OJICUG_clean_linker_0
_symmetry_space_group_name_H-M    P1
_symmetry_Int_Tables_number       1
_symmetry_cell_setting            triclinic
loop_
_symmetry_equiv_pos_as_xyz
'x, y, z'
_cell_length_a     23.457907
_cell_length_b     23.281847
_cell_length_c     45.631643
_cell_angle_alpha  89.986974
_cell_angle_beta   89.06044
_cell_angle_gamma 119.88425
loop_
_atom_site_label
_atom_site_type_symbol
_atom_site_fract_x
_atom_site_fract_y
_atom_site_fract_z
_atom_type_partial_charge
Zn0 Zn 0.38986 0.23772 1.02024 0.0
Zn1 Zn 0.3939 0.22645 0.07825 0.0
O2 O 0.30027 0.15471 0.06574 0.0
O3 O 0.29478 0.17028 1.01855 0.0
O4 O 0.39705 0.21524 0.12239 0.0
O5 O 0.4204 0.33358 1.02466 0.0
O6 O 0.42421 0.32597 0.07258 0.0
C7 C 0.26807 0.13836 0.04194 0.0
C8 C 0.4837 0.20059 0.03724 0.0
O9 O 0.46435 0.20614 0.06281 0.0
O10 O 0.45813 0.20989 1.01482 0.0
C11 C 0.34781 0.19064 0.14004 0.0
O12 O 0.28888 0.17075 0.12982 0.0
C13 C 0.43353 0.36077 0.04952 0.0
Zn14 Zn 0.11334 0.35679 0.35937 0.0
Zn15 Zn 0.12218 0.36023 0.41697 0.0
O16 O 0.10133 0.26629 0.40387 0.0
O17 O 0.08286 0.26043 0.3566 0.0
O18 O 0.12847 0.35788 0.46129 0.0
O19 O 0.051 0.39107 0.36183 0.0
O20 O 0.05574 0.39287 0.40996 0.0
C21 C 0.08672 0.23362 0.38 0.0
C22 C 0.24252 0.44951 0.37864 0.0
O23 O 0.21492 0.43114 0.40384 0.0
O24 O 0.21013 0.42325 0.35577 0.0
C25 C 0.15647 0.41187 0.47544 0.0
O26 O 0.17935 0.46812 0.46097 0.0
C27 C 0.03457 0.40432 0.38635 0.0
Zn28 Zn 0.72202 0.12325 0.68638 0.0
Zn29 Zn 0.7268 0.13454 0.74422 0.0
O30 O 0.80015 0.11464 0.73108 0.0
O31 O 0.78996 0.09536 0.68378 0.0
O32 O 0.73219 0.13725 0.78857 0.0
O33 O 0.62564 0.05885 0.68873 0.0
O34 O 0.62861 0.06847 0.73672 0.0
C35 C 0.81969 0.10032 0.70733 0.0
C36 C 0.75722 0.25436 0.70647 0.0
O37 O 0.74895 0.22795 0.73181 0.0
O38 O 0.75049 0.22059 0.68369 0.0
C39 C 0.78427 0.17832 0.80159 0.0
O40 O 0.83577 0.22035 0.78584 0.0
C41 C 0.59609 0.04495 0.71338 0.0
Zn42 Zn 0.62326 0.77129 1.01875 0.0
Zn43 Zn 0.62498 0.78239 0.07619 0.0
O44 O 0.71661 0.85212 0.05931 0.0
O45 O 0.71857 0.83493 1.01205 0.0
O46 O 0.63495 0.79843 0.12004 0.0
O47 O 0.58801 0.67442 1.02312 0.0
O48 O 0.59079 0.68199 0.07121 0.0
C49 C 0.74721 0.86742 0.03458 0.0
C50 C 0.53324 0.81138 0.04049 0.0
O51 O 0.55307 0.80371 0.06526 0.0
O52 O 0.55795 0.80338 1.01704 0.0
C53 C 0.58784 0.76606 0.13825 0.0
O54 O 0.53109 0.71956 0.12847 0.0
C55 C 0.57664 0.64697 0.04812 0.0
Zn56 Zn 0.81385 0.59042 0.3527 0.0
Zn57 Zn 0.79783 0.58894 0.41074 0.0
O58 O 0.82019 0.68229 0.39583 0.0
O59 O 0.84167 0.68617 0.34854 0.0
O60 O 0.78681 0.59248 0.45497 0.0
O61 O 0.87818 0.55918 0.35777 0.0
O62 O 0.86559 0.55712 0.40573 0.0
C63 C 0.83614 0.71383 0.3714 0.0
C64 C 0.6826 0.49714 0.37211 0.0
O65 O 0.70683 0.51749 0.39734 0.0
O66 O 0.71794 0.52177 0.34923 0.0
C67 C 0.75846 0.53895 0.46995 0.0
O68 O 0.73752 0.48236 0.45637 0.0
C69 C 0.89115 0.54653 0.38296 0.0
Zn70 Zn 0.18938 0.83143 0.68529 0.0
Zn71 Zn 0.1772 0.82241 0.74292 0.0
O72 O 0.10555 0.84122 0.72685 0.0
O73 O 0.12288 0.85974 0.67944 0.0
O74 O 0.16296 0.82005 0.78714 0.0
O75 O 0.28525 0.89548 0.68794 0.0
O76 O 0.27661 0.88868 0.73606 0.0
C77 C 0.08954 0.855 0.70229 0.0
C78 C 0.1519 0.70132 0.70784 0.0
O79 O 0.15749 0.72871 0.73264 0.0
O80 O 0.16075 0.7341 0.68439 0.0
C81 C 0.19999 0.81294 0.8051 0.0
O82 O 0.24963 0.80734 0.79481 0.0
C83 C 0.31189 0.91083 0.71275 0.0
Zn84 Zn 0.72124 0.59498 0.71263 0.0
Zn85 Zn 0.73046 0.59023 0.65479 0.0
O86 O 0.8027 0.68395 0.66762 0.0
O87 O 0.78838 0.69091 0.71493 0.0
O88 O 0.74172 0.59246 0.61035 0.0
O89 O 0.62542 0.56299 0.70997 0.0
O90 O 0.63142 0.55857 0.66192 0.0
C91 C 0.81998 0.71694 0.69138 0.0
C92 C 0.75762 0.49995 0.69373 0.0
O93 O 0.75117 0.5188 0.66837 0.0
O94 O 0.7494 0.52641 0.71645 0.0
C95 C 0.71832 0.53883 0.59596 0.0
O96 O 0.68575 0.48216 0.61022 0.0
C97 C 0.59747 0.54877 0.68544 0.0
Zn98 Zn 0.15662 0.76879 0.05094 0.0
Zn99 Zn 0.17235 0.78152 0.99261 0.0
O100 O 0.14936 0.85282 1.00606 0.0
O101 O 0.12785 0.83612 0.05341 0.0
O102 O 0.18612 0.79244 0.94836 0.0
O103 O 0.0931 0.67259 0.04647 0.0
O104 O 0.10454 0.68222 0.99845 0.0
C105 C 0.13307 0.86861 1.03034 0.0
C106 C 0.28777 0.80779 1.03189 0.0
O107 O 0.26301 0.8024 1.00669 0.0
O108 O 0.25275 0.79761 0.05482 0.0
C109 C 0.14752 0.79755 0.93062 0.0
O110 O 0.09461 0.79686 0.94101 0.0
C111 C 0.07964 0.64645 1.02139 0.0
Zn112 Zn 0.34453 0.12358 0.38339 0.0
Zn113 Zn 0.34444 0.1348 0.32597 0.0
O114 O 0.25284 0.11383 0.34256 0.0
O115 O 0.24972 0.09407 0.38981 0.0
O116 O 0.33487 0.14071 0.28198 0.0
O117 O 0.37707 0.05988 0.37914 0.0
O118 O 0.37736 0.06758 0.33107 0.0
C119 C 0.22185 0.09871 0.3672 0.0
C120 C 0.43707 0.25422 0.3623 0.0
O121 O 0.41702 0.22779 0.33734 0.0
O122 O 0.41188 0.22063 0.38554 0.0
C123 C 0.38385 0.16605 0.2642 0.0
O124 O 0.44318 0.18835 0.27445 0.0
C125 C 0.38936 0.04473 0.35413 0.0
Zn126 Zn 0.1894 0.36117 0.71859 0.0
Zn127 Zn 0.18027 0.3644 0.66022 0.0
O128 O 0.10858 0.27101 0.67428 0.0
O129 O 0.12042 0.26531 0.7217 0.0
O130 O 0.16913 0.36155 0.61607 0.0
O131 O 0.28525 0.3919 0.71354 0.0
O132 O 0.27885 0.39568 0.66558 0.0
C133 C 0.09015 0.23865 0.69846 0.0
C134 C 0.15365 0.45613 0.69898 0.0
O135 O 0.15944 0.43582 0.67376 0.0
O136 O 0.16243 0.43099 0.72189 0.0
C137 C 0.1927 0.41495 0.60112 0.0
O138 O 0.22526 0.47185 0.61464 0.0
C139 C 0.31292 0.40548 0.68845 0.0
Zn140 Zn 0.85521 0.23359 0.04413 0.0
Zn141 Zn 0.84724 0.23005 0.98632 0.0
O142 O 0.86719 0.15611 0.99868 0.0
O143 O 0.88501 0.16716 0.04603 0.0
O144 O 0.84403 0.2255 0.94186 0.0
O145 O 0.91845 0.33037 0.04254 0.0
O146 O 0.91418 0.32837 0.9944 0.0
C147 C 0.88153 0.13734 1.0224 0.0
C148 C 0.72663 0.19876 1.02428 0.0
O149 O 0.75457 0.20872 0.99912 0.0
O150 O 0.75849 0.20371 0.04718 0.0
C151 C 0.79445 0.18059 0.92865 0.0
O152 O 0.74457 0.13543 0.94423 0.0
C153 C 0.93547 0.3605 1.01812 0.0
Zn154 Zn 0.57992 0.82571 0.38216 0.0
Zn155 Zn 0.57476 0.81008 0.32425 0.0
O156 O 0.66863 0.8326 0.33627 0.0
O157 O 0.67539 0.85444 0.38338 0.0
O158 O 0.57162 0.79504 0.28029 0.0
O159 O 0.54776 0.88978 0.37776 0.0
O160 O 0.54368 0.87855 0.32983 0.0
C161 C 0.70147 0.8489 0.35988 0.0
C162 C 0.48625 0.69409 0.36545 0.0
O163 O 0.50489 0.71911 0.33985 0.0
O164 O 0.51231 0.72908 0.38781 0.0
C165 C 0.6185 0.82895 0.2622 0.0
O166 O 0.67362 0.87825 0.27192 0.0
C167 C 0.53386 0.90338 0.35297 0.0
C168 C 0.14748 0.96279 0.0614 0.0
C169 C 0.13875 0.93456 1.03335 0.0
H170 H 0.19604 0.05175 0.08635 0.0
C171 C 0.15345 0.97578 1.00864 0.0
H172 H 0.13496 0.93232 0.081 0.0
C173 C 0.18738 0.04451 1.01181 0.0
C174 C 0.20807 0.07265 0.03968 0.0
H175 H 0.1457 0.95549 0.98676 0.0
H176 H 0.2045 0.07494 0.99214 0.0
C177 C 0.18257 0.03153 0.06455 0.0
C178 C 0.1098 0.14972 0.40252 0.0
C179 C 0.09292 0.17349 0.37778 0.0
H180 H 0.16274 0.10406 0.41853 0.0
C181 C 0.09973 0.15137 0.3499 0.0
H182 H 0.10366 0.16434 0.42436 0.0
C183 C 0.13476 0.11774 0.34646 0.0
C184 C 0.16227 0.10479 0.37091 0.0
H185 H 0.08551 0.16714 0.33034 0.0
H186 H 0.14648 0.10876 0.32448 0.0
C187 C 0.14387 0.11508 0.39911 0.0
C188 C 0.92434 0.12368 0.73093 0.0
C189 C 0.88628 0.10803 0.70563 0.0
H190 H 0.02073 0.17614 0.74847 0.0
C191 C 0.91774 0.11719 0.67808 0.0
H192 H 0.90158 0.11584 0.75251 0.0
C193 C -0.01369 0.1528 0.67569 0.0
C194 C 0.02421 0.17875 0.70085 0.0
H195 H 0.88984 0.1042 0.6581 0.0
H196 H 0.00899 0.16609 0.65404 0.0
C197 C -0.00707 0.15843 0.72855 0.0
C198 C 0.82456 0.96198 1.00252 0.0
C199 C 0.80717 0.93291 1.03069 0.0
H200 H 0.86354 0.05187 0.97754 0.0
C201 C 0.83569 0.97315 0.05513 0.0
H202 H 0.80492 0.93223 0.9831 0.0
C203 C 0.87042 0.04199 0.05185 0.0
C204 C 0.87592 0.07121 1.02414 0.0
H205 H 0.8248 0.95213 0.07707 0.0
H206 H 0.88531 0.07177 0.07146 0.0
C207 C 0.85835 0.03085 0.99927 0.0
C208 C 0.78543 0.82608 0.33691 0.0
C209 C 0.76127 0.84294 0.36184 0.0
H210 H 0.8316 0.77328 0.32043 0.0
C211 C 0.7829 0.83634 0.3896 0.0
H212 H 0.77117 0.8321 0.31516 0.0
C213 C 0.81655 0.80137 0.39273 0.0
C214 C 0.83003 0.77378 0.36807 0.0
H215 H 0.7668 0.85055 0.4093 0.0
H216 H 0.82517 0.78966 0.41461 0.0
C217 C 0.82017 0.79218 0.34001 0.0
C218 C 0.91385 0.79934 0.72086 0.0
C219 C 0.88595 0.7767 0.69319 0.0
H220 H 0.00211 0.84354 0.74562 0.0
C221 C 0.92705 0.80016 0.66816 0.0
H222 H 0.88351 0.7837 0.74063 0.0
C223 C -0.00468 0.83559 0.67106 0.0
C224 C 0.02326 0.84706 0.69904 0.0
H225 H 0.90709 0.78504 0.64647 0.0
H226 H 0.02568 0.84662 0.65142 0.0
C227 C -0.0179 0.83385 0.72379 0.0
C228 C 0.6304 0.18211 0.05509 0.0
C229 C 0.65923 0.18818 1.02716 0.0
H230 H 0.55203 0.18079 0.0802 0.0
C231 C 0.62562 0.19034 1.00237 0.0
H232 H 0.65468 0.17968 0.07466 0.0
C233 C 0.5666 0.19089 1.00558 0.0
C234 C 0.54011 0.18938 1.03364 0.0
H235 H 0.64624 0.1945 0.98054 0.0
H236 H 0.54331 0.19539 0.98609 0.0
C237 C 0.57148 0.18276 0.0583 0.0
C238 C 0.33912 0.52861 0.34778 0.0
C239 C 0.31019 0.5061 0.37572 0.0
H240 H 0.41781 0.60547 0.32261 0.0
C241 C 0.34398 0.54196 0.40049 0.0
H242 H 0.31471 0.50177 0.32825 0.0
C243 C 0.40327 0.60149 0.39723 0.0
C244 C 0.42982 0.6263 0.36915 0.0
H245 H 0.32326 0.5257 0.42233 0.0
H246 H 0.42666 0.62944 0.41669 0.0
C247 C 0.3983 0.58812 0.34453 0.0
C248 C 0.77147 0.34916 0.67529 0.0
C249 C 0.7682 0.32234 0.70332 0.0
H250 H 0.77112 0.42661 0.65023 0.0
C251 C 0.76943 0.35862 0.72811 0.0
H252 H 0.77119 0.32276 0.6557 0.0
C253 C 0.76956 0.41832 0.72494 0.0
C254 C 0.76833 0.44286 0.69692 0.0
H255 H 0.76752 0.33963 0.75 0.0
H256 H 0.76778 0.44371 0.74452 0.0
C257 C 0.77146 0.40878 0.67212 0.0
C258 C 0.38079 0.8186 0.06204 0.0
C259 C 0.35559 0.81988 1.03444 0.0
H260 H 0.45725 0.81552 0.0857 0.0
C261 C 0.39365 0.82706 1.00917 0.0
H262 H 0.35295 0.81371 0.08198 0.0
C263 C 0.45348 0.82828 1.01133 0.0
C264 C 0.47646 0.82225 0.03879 0.0
H265 H 0.37602 0.82893 0.9876 0.0
H266 H 0.48022 0.831 0.99131 0.0
C267 C 0.44067 0.81976 0.0642 0.0
C268 C 0.53 0.35627 0.33923 0.0
C269 C 0.49427 0.32175 0.36446 0.0
H270 H 0.61747 0.43921 0.32184 0.0
C271 C 0.51742 0.34961 0.39212 0.0
H272 H 0.51334 0.33637 0.3176 0.0
C273 C 0.57718 0.40847 0.39458 0.0
C274 C 0.61501 0.44074 0.36943 0.0
H275 H 0.49076 0.32458 0.41202 0.0
H276 H 0.5949 0.42712 0.41626 0.0
C277 C 0.5898 0.41521 0.34169 0.0
C278 C 0.13795 0.54494 0.67632 0.0
C279 C 0.14269 0.51319 0.70156 0.0
H280 H 0.13628 0.6289 0.65855 0.0
C281 C 0.14254 0.53993 0.72919 0.0
H282 H 0.13738 0.52537 0.65472 0.0
C283 C 0.14199 0.59949 0.73141 0.0
C284 C 0.14156 0.63341 0.70604 0.0
H285 H 0.14561 0.51637 0.74911 0.0
H286 H 0.14482 0.62028 0.75293 0.0
C287 C 0.13735 0.60439 0.67854 0.0
C288 C 0.30271 0.15642 0.19143 0.0
C289 C 0.3569 0.18409 0.17181 0.0
H290 H 0.26851 0.12887 0.23583 0.0
C291 C 0.4199 0.20529 0.18285 0.0
H292 H 0.25348 0.13951 0.18372 0.0
C293 C 0.42851 0.19916 0.21276 0.0
C294 C 0.37437 0.17164 0.2324 0.0
H295 H 0.46277 0.22675 0.1684 0.0
H296 H 0.47778 0.21617 0.22045 0.0
C297 C 0.31133 0.15025 0.22135 0.0
C298 C 0.14044 0.35235 0.52364 0.0
C299 C 0.16486 0.41195 0.50765 0.0
H300 H 0.12997 0.30636 0.56563 0.0
C301 C 0.19832 0.4722 0.52271 0.0
H302 H 0.11446 0.30505 0.51274 0.0
C303 C 0.20735 0.47296 0.55295 0.0
C304 C 0.18305 0.41349 0.56897 0.0
H305 H 0.21789 0.51908 0.51114 0.0
H306 H 0.23342 0.52039 0.56374 0.0
C307 C 0.14938 0.35311 0.55397 0.0
C308 C 0.84615 0.22648 0.87918 0.0
C309 C 0.79223 0.17975 0.89613 0.0
H310 H 0.88602 0.26266 0.83619 0.0
C311 C 0.73575 0.13241 0.88168 0.0
H312 H 0.89044 0.26364 0.88957 0.0
C313 C 0.73312 0.13196 0.85105 0.0
C314 C 0.78699 0.17872 0.8341 0.0
H315 H 0.69327 0.0957 0.89402 0.0
H316 H 0.68877 0.09485 0.84068 0.0
C317 C 0.84359 0.2259 0.84854 0.0
C318 C 0.5449 0.74425 0.19023 0.0
C319 C 0.59621 0.78167 0.17 0.0
H320 H 0.51159 0.72959 0.23501 0.0
C321 C 0.65512 0.83464 0.18041 0.0
H322 H 0.49889 0.70306 0.18302 0.0
C323 C 0.66238 0.84998 0.21029 0.0
C324 C 0.61095 0.81268 0.23049 0.0
H325 H 0.69562 0.86462 0.16546 0.0
H326 H 0.70832 0.89125 0.21751 0.0
C327 C 0.55219 0.75951 0.22009 0.0
C328 C 0.70477 0.47984 0.54839 0.0
C329 C 0.72848 0.53966 0.56368 0.0
H330 H 0.69568 0.43273 0.50714 0.0
C331 C 0.76225 0.59967 0.54782 0.0
H332 H 0.67861 0.43266 0.55983 0.0
C333 C 0.77204 0.59971 0.5174 0.0
C334 C 0.74843 0.53975 0.50218 0.0
H335 H 0.78121 0.64667 0.55888 0.0
H336 H 0.79824 0.64674 0.50584 0.0
C337 C 0.71466 0.47988 0.51808 0.0
C338 C 0.21633 0.80014 0.88726 0.0
C339 C 0.16148 0.80273 0.89852 0.0
H340 H 0.27141 0.80125 0.84917 0.0
C341 C 0.11975 0.8095 0.87875 0.0
H342 H 0.24956 0.79494 0.90179 0.0
C343 C 0.13237 0.81322 0.84848 0.0
C344 C 0.18697 0.81012 0.83722 0.0
H345 H 0.07708 0.81172 0.88662 0.0
H346 H 0.09906 0.81817 0.8339 0.0
C347 C 0.22886 0.80372 0.85701 0.0
C348 C 0.52792 0.53865 0.07632 0.0
C349 C 0.54059 0.57373 0.04967 0.0
H350 H 0.48342 0.44298 0.09742 0.0
C351 C 0.51478 0.53813 1.02378 0.0
H352 H 0.54656 0.56479 0.09668 0.0
C353 C 0.47796 0.46951 1.02428 0.0
C354 C 0.4663 0.4339 0.05063 0.0
H355 H 0.52251 0.5632 1.00286 0.0
H356 H 0.45962 0.44441 1.00368 0.0
C357 C 0.49127 0.46908 0.07678 0.0
C358 C 0.95162 0.49645 0.35901 0.0
C359 C 0.9305 0.513 0.385 0.0
H360 H -0.0011 0.44847 0.33912 0.0
C361 C 0.94311 0.49264 0.41201 0.0
H362 H 0.94267 0.51087 0.33776 0.0
C363 C -0.02382 0.4563 0.41281 0.0
C364 C -0.00362 0.43927 0.3866 0.0
H365 H 0.92702 0.50424 0.43242 0.0
H366 H -0.01413 0.44162 0.43383 0.0
C367 C -0.0164 0.4599 0.35979 0.0
C368 C 0.48939 -0.00735 0.68765 0.0
C369 C 0.52325 0.00817 0.71418 0.0
H370 H 0.39745 0.9521 0.66647 0.0
C371 C 0.48696 -0.00684 0.74071 0.0
H372 H 0.51549 0.00393 0.66676 0.0
C373 C 0.4181 0.96285 0.74055 0.0
C374 C 0.38463 0.94778 0.71386 0.0
H375 H 0.51167 0.00507 0.76152 0.0
H376 H 0.39119 0.95088 0.76125 0.0
C377 C 0.42131 0.96335 0.68749 0.0
C378 C 0.48942 0.49506 0.65889 0.0
C379 C 0.52467 0.51411 0.68513 0.0
H380 H 0.39426 0.44513 0.63917 0.0
C381 C 0.48956 0.4954 0.71194 0.0
H382 H 0.51508 0.50823 0.63787 0.0
C383 C 0.42134 0.45848 0.71268 0.0
C384 C 0.38568 0.43966 0.68663 0.0
H385 H 0.51475 0.50852 0.73265 0.0
H386 H 0.39659 0.44554 0.73391 0.0
C387 C 0.42036 0.45841 0.65964 0.0
C388 C 0.02132 0.53579 0.04561 0.0
C389 C 0.04054 0.57344 1.01957 0.0
H390 H -0.02484 0.44023 0.0655 0.0
C391 C 0.02622 0.54042 0.99255 0.0
H392 H 0.03181 0.55929 0.06685 0.0
C393 C -0.00691 0.47096 0.99176 0.0
C394 C 0.97442 0.43368 1.01798 0.0
H395 H 0.04086 0.56812 0.9721 0.0
H396 H -0.01808 0.44659 0.97072 0.0
C397 C -0.01085 0.4671 0.04483 0.0
C398 C 0.48122 0.95946 0.3786 0.0
C399 C 0.49933 0.94199 0.35203 0.0
H400 H 0.43144 0.00316 0.4 0.0
C401 C 0.47955 0.95725 0.32556 0.0
H402 H 0.49495 0.94821 0.39947 0.0
C403 C 0.44256 -0.01032 0.32587 0.0
C404 C 0.42425 0.00647 0.35265 0.0
H405 H 0.49231 0.94392 0.30473 0.0
H406 H 0.42858 0.00173 0.30525 0.0
C407 C 0.44399 -0.00931 0.37891 0.0
loop_
_geom_bond_atom_site_label_1
_geom_bond_atom_site_label_2
_geom_bond_distance
_geom_bond_site_symmetry_2
_ccdc_geom_bond_type
Zn0 O3 2.031 1_556 S
Zn0 O5 2.049 1_556 S
Zn0 O10 2.067 1_556 S
Zn1 O2 1.962 . S
Zn1 O4 1.986 . S
Zn1 O6 1.996 . S
Zn1 O9 1.943 . S
O2 Zn1 1.962 . S
O2 C7 1.254 . S
O3 Zn0 2.031 1_554 S
O3 C7 1.271 . S
O4 Zn1 1.986 . S
O4 C11 1.262 . S
O5 Zn0 2.049 1_554 S
O5 C13 1.260 . S
O6 Zn1 1.996 . S
O6 C13 1.257 . S
C7 O2 1.254 . S
C7 O3 1.271 . S
C8 O9 1.249 . S
C8 O10 1.270 . S
O9 Zn1 1.943 . S
O9 C8 1.249 . S
O10 Zn0 2.067 1_554 S
O10 C8 1.270 . S
C11 O4 1.262 . S
C11 O12 1.232 . S
O12 C11 1.232 . S
C13 O5 1.260 . S
C13 O6 1.257 . S
Zn14 O17 2.031 . S
Zn14 O19 2.049 . S
Zn14 O24 2.067 . S
Zn15 O16 1.962 . S
Zn15 O18 1.986 . S
Zn15 O20 1.996 . S
Zn15 O23 1.943 . S
O16 Zn15 1.962 . S
O16 C21 1.254 . S
O17 Zn14 2.031 . S
O17 C21 1.269 . S
O18 Zn15 1.986 . S
O18 C25 1.262 . S
O19 Zn14 2.049 . S
O19 C27 1.260 . S
O20 Zn15 1.996 . S
O20 C27 1.257 . S
C21 O16 1.254 . S
C21 O17 1.269 . S
C22 O23 1.249 . S
C22 O24 1.270 . S
O23 Zn15 1.943 . S
O23 C22 1.249 . S
O24 Zn14 2.067 . S
O24 C22 1.270 . S
C25 O18 1.262 . S
C25 O26 1.232 . S
O26 C25 1.232 . S
C27 O19 1.260 . S
C27 O20 1.257 . S
Zn28 O31 2.031 . S
Zn28 O33 2.049 . S
Zn28 O38 2.067 . S
Zn29 O30 1.962 . S
Zn29 O32 1.986 . S
Zn29 O34 1.996 . S
Zn29 O37 1.943 . S
O30 Zn29 1.962 . S
O30 C35 1.254 . S
O31 Zn28 2.031 . S
O31 C35 1.269 . S
O32 Zn29 1.986 . S
O32 C39 1.262 . S
O33 Zn28 2.049 . S
O33 C41 1.260 . S
O34 Zn29 1.996 . S
O34 C41 1.257 . S
C35 O30 1.254 . S
C35 O31 1.269 . S
C36 O37 1.249 . S
C36 O38 1.270 . S
O37 Zn29 1.943 . S
O37 C36 1.249 . S
O38 Zn28 2.067 . S
O38 C36 1.270 . S
C39 O32 1.262 . S
C39 O40 1.232 . S
O40 C39 1.232 . S
C41 O33 1.260 . S
C41 O34 1.257 . S
Zn42 O45 2.031 1_556 S
Zn42 O47 2.049 1_556 S
Zn42 O52 2.067 1_556 S
Zn43 O44 1.962 . S
Zn43 O46 1.986 . S
Zn43 O48 1.996 . S
Zn43 O51 1.943 . S
O44 Zn43 1.962 . S
O44 C49 1.254 . S
O45 Zn42 2.031 1_554 S
O45 C49 1.271 . S
O46 Zn43 1.986 . S
O46 C53 1.262 . S
O47 Zn42 2.049 1_554 S
O47 C55 1.260 . S
O48 Zn43 1.996 . S
O48 C55 1.257 . S
C49 O44 1.254 . S
C49 O45 1.271 . S
C50 O51 1.249 . S
C50 O52 1.270 . S
O51 Zn43 1.943 . S
O51 C50 1.249 . S
O52 Zn42 2.067 1_554 S
O52 C50 1.270 . S
C53 O46 1.262 . S
C53 O54 1.232 . S
O54 C53 1.232 . S
C55 O47 1.260 . S
C55 O48 1.257 . S
Zn56 O59 2.031 . S
Zn56 O61 2.049 . S
Zn56 O66 2.067 . S
Zn57 O58 1.962 . S
Zn57 O60 1.986 . S
Zn57 O62 1.996 . S
Zn57 O65 1.943 . S
O58 Zn57 1.962 . S
O58 C63 1.254 . S
O59 Zn56 2.031 . S
O59 C63 1.269 . S
O60 Zn57 1.986 . S
O60 C67 1.262 . S
O61 Zn56 2.049 . S
O61 C69 1.260 . S
O62 Zn57 1.996 . S
O62 C69 1.257 . S
C63 O58 1.254 . S
C63 O59 1.269 . S
C64 O65 1.249 . S
C64 O66 1.270 . S
O65 Zn57 1.943 . S
O65 C64 1.249 . S
O66 Zn56 2.067 . S
O66 C64 1.270 . S
C67 O60 1.262 . S
C67 O68 1.232 . S
O68 C67 1.232 . S
C69 O61 1.260 . S
C69 O62 1.257 . S
Zn70 O73 2.031 . S
Zn70 O75 2.049 . S
Zn70 O80 2.067 . S
Zn71 O72 1.962 . S
Zn71 O74 1.986 . S
Zn71 O76 1.996 . S
Zn71 O79 1.943 . S
O72 Zn71 1.962 . S
O72 C77 1.254 . S
O73 Zn70 2.031 . S
O73 C77 1.269 . S
O74 Zn71 1.986 . S
O74 C81 1.262 . S
O75 Zn70 2.049 . S
O75 C83 1.260 . S
O76 Zn71 1.996 . S
O76 C83 1.257 . S
C77 O72 1.254 . S
C77 O73 1.269 . S
C78 O79 1.249 . S
C78 O80 1.270 . S
O79 Zn71 1.943 . S
O79 C78 1.249 . S
O80 Zn70 2.067 . S
O80 C78 1.270 . S
C81 O74 1.262 . S
C81 O82 1.232 . S
O82 C81 1.232 . S
C83 O75 1.260 . S
C83 O76 1.257 . S
Zn84 O87 2.031 . S
Zn84 O89 2.049 . S
Zn84 O94 2.067 . S
Zn85 O86 1.962 . S
Zn85 O88 1.986 . S
Zn85 O90 1.996 . S
Zn85 O93 1.943 . S
O86 Zn85 1.962 . S
O86 C91 1.254 . S
O87 Zn84 2.031 . S
O87 C91 1.269 . S
O88 Zn85 1.986 . S
O88 C95 1.262 . S
O89 Zn84 2.049 . S
O89 C97 1.260 . S
O90 Zn85 1.996 . S
O90 C97 1.257 . S
C91 O86 1.254 . S
C91 O87 1.269 . S
C92 O93 1.249 . S
C92 O94 1.270 . S
O93 Zn85 1.943 . S
O93 C92 1.249 . S
O94 Zn84 2.067 . S
O94 C92 1.270 . S
C95 O88 1.262 . S
C95 O96 1.232 . S
O96 C95 1.232 . S
C97 O89 1.260 . S
C97 O90 1.257 . S
Zn98 O101 2.031 1_554 S
Zn98 O103 2.049 1_554 S
Zn98 O108 2.067 1_554 S
Zn99 O100 1.962 . S
Zn99 O102 1.986 . S
Zn99 O104 1.996 . S
Zn99 O107 1.943 . S
O100 Zn99 1.962 . S
O100 C105 1.254 . S
O101 Zn98 2.031 1_556 S
O101 C105 1.271 . S
O102 Zn99 1.986 . S
O102 C109 1.262 . S
O103 Zn98 2.049 1_556 S
O103 C111 1.260 . S
O104 Zn99 1.996 . S
O104 C111 1.257 . S
C105 O100 1.254 . S
C105 O101 1.271 . S
C106 O107 1.249 . S
C106 O108 1.270 . S
O107 Zn99 1.943 . S
O107 C106 1.249 . S
O108 Zn98 2.067 1_556 S
O108 C106 1.270 . S
C109 O102 1.262 . S
C109 O110 1.232 . S
O110 C109 1.232 . S
C111 O103 1.260 . S
C111 O104 1.257 . S
Zn112 O115 2.031 . S
Zn112 O117 2.049 . S
Zn112 O122 2.067 . S
Zn113 O114 1.962 . S
Zn113 O116 1.986 . S
Zn113 O118 1.996 . S
Zn113 O121 1.943 . S
O114 Zn113 1.962 . S
O114 C119 1.254 . S
O115 Zn112 2.031 . S
O115 C119 1.269 . S
O116 Zn113 1.986 . S
O116 C123 1.262 . S
O117 Zn112 2.049 . S
O117 C125 1.260 . S
O118 Zn113 1.996 . S
O118 C125 1.257 . S
C119 O114 1.254 . S
C119 O115 1.269 . S
C120 O121 1.249 . S
C120 O122 1.270 . S
O121 Zn113 1.943 . S
O121 C120 1.249 . S
O122 Zn112 2.067 . S
O122 C120 1.270 . S
C123 O116 1.262 . S
C123 O124 1.232 . S
O124 C123 1.232 . S
C125 O117 1.260 . S
C125 O118 1.257 . S
Zn126 O129 2.031 . S
Zn126 O131 2.049 . S
Zn126 O136 2.067 . S
Zn127 O128 1.962 . S
Zn127 O130 1.986 . S
Zn127 O132 1.996 . S
Zn127 O135 1.943 . S
O128 Zn127 1.962 . S
O128 C133 1.254 . S
O129 Zn126 2.031 . S
O129 C133 1.269 . S
O130 Zn127 1.986 . S
O130 C137 1.262 . S
O131 Zn126 2.049 . S
O131 C139 1.260 . S
O132 Zn127 1.996 . S
O132 C139 1.257 . S
C133 O128 1.254 . S
C133 O129 1.269 . S
C134 O135 1.249 . S
C134 O136 1.270 . S
O135 Zn127 1.943 . S
O135 C134 1.249 . S
O136 Zn126 2.067 . S
O136 C134 1.270 . S
C137 O130 1.262 . S
C137 O138 1.232 . S
O138 C137 1.232 . S
C139 O131 1.260 . S
C139 O132 1.257 . S
Zn140 O143 2.031 1_554 S
Zn140 O145 2.049 1_554 S
Zn140 O150 2.067 1_554 S
Zn141 O142 1.962 . S
Zn141 O144 1.986 . S
Zn141 O146 1.996 . S
Zn141 O149 1.943 . S
O142 Zn141 1.962 . S
O142 C147 1.254 . S
O143 Zn140 2.031 1_556 S
O143 C147 1.271 . S
O144 Zn141 1.986 . S
O144 C151 1.262 . S
O145 Zn140 2.049 1_556 S
O145 C153 1.260 . S
O146 Zn141 1.996 . S
O146 C153 1.257 . S
C147 O142 1.254 . S
C147 O143 1.271 . S
C148 O149 1.249 . S
C148 O150 1.270 . S
O149 Zn141 1.943 . S
O149 C148 1.249 . S
O150 Zn140 2.067 1_556 S
O150 C148 1.270 . S
C151 O144 1.262 . S
C151 O152 1.232 . S
O152 C151 1.232 . S
C153 O145 1.260 . S
C153 O146 1.257 . S
Zn154 O157 2.031 . S
Zn154 O159 2.049 . S
Zn154 O164 2.067 . S
Zn155 O156 1.962 . S
Zn155 O158 1.986 . S
Zn155 O160 1.996 . S
Zn155 O163 1.943 . S
O156 Zn155 1.962 . S
O156 C161 1.254 . S
O157 Zn154 2.031 . S
O157 C161 1.269 . S
O158 Zn155 1.986 . S
O158 C165 1.262 . S
O159 Zn154 2.049 . S
O159 C167 1.260 . S
O160 Zn155 1.996 . S
O160 C167 1.257 . S
C161 O156 1.254 . S
C161 O157 1.269 . S
C162 O163 1.249 . S
C162 O164 1.270 . S
O163 Zn155 1.943 . S
O163 C162 1.249 . S
O164 Zn154 2.067 . S
O164 C162 1.270 . S
C165 O158 1.262 . S
C165 O166 1.232 . S
O166 C165 1.232 . S
C167 O159 1.260 . S
C167 O160 1.257 . S
C168 C169 1.387 . S
C168 H172 0.950 . S
C168 C177 1.390 1_566 S
C169 C168 1.387 . S
C169 C171 1.387 . S
H170 C177 0.950 . S
C171 C169 1.387 . S
C171 C173 1.390 1_566 S
C171 H175 0.950 . S
H172 C168 0.950 . S
C173 C171 1.390 1_544 S
C173 C174 1.387 . S
C173 H176 0.950 . S
C174 C173 1.387 . S
C174 C177 1.387 . S
H175 C171 0.950 . S
H176 C173 0.950 . S
C177 C168 1.390 1_544 S
C177 H170 0.950 . S
C177 C174 1.387 . S
C178 C179 1.387 . S
C178 H182 0.950 . S
C178 C187 1.390 . S
C179 C178 1.387 . S
C179 C181 1.387 . S
H180 C187 0.950 . S
C181 C179 1.387 . S
C181 C183 1.390 . S
C181 H185 0.950 . S
H182 C178 0.950 . S
C183 C181 1.390 . S
C183 C184 1.387 . S
C183 H186 0.950 . S
C184 C183 1.387 . S
C184 C187 1.387 . S
H185 C181 0.950 . S
H186 C183 0.950 . S
C187 C178 1.390 . S
C187 H180 0.950 . S
C187 C184 1.387 . S
C188 C189 1.387 . S
C188 H192 0.950 . S
C188 C197 1.390 1_655 S
C189 C188 1.387 . S
C189 C191 1.387 . S
H190 C197 0.950 . S
C191 C189 1.387 . S
C191 C193 1.390 1_655 S
C191 H195 0.950 . S
H192 C188 0.950 . S
C193 C191 1.390 1_455 S
C193 C194 1.387 . S
C193 H196 0.950 . S
C194 C193 1.387 . S
C194 C197 1.387 . S
H195 C191 0.950 . S
H196 C193 0.950 . S
C197 C188 1.390 1_455 S
C197 H190 0.950 . S
C197 C194 1.387 . S
C198 C199 1.387 . S
C198 H202 0.950 . S
C198 C207 1.390 1_564 S
C199 C198 1.387 . S
C199 C201 1.387 . S
H200 C207 0.950 . S
C201 C199 1.387 . S
C201 C203 1.390 1_564 S
C201 H205 0.950 . S
H202 C198 0.950 . S
C203 C201 1.390 1_546 S
C203 C204 1.387 . S
C203 H206 0.950 . S
C204 C203 1.387 . S
C204 C207 1.387 . S
H205 C201 0.950 . S
H206 C203 0.950 . S
C207 C198 1.390 1_546 S
C207 H200 0.950 . S
C207 C204 1.387 . S
C208 C209 1.387 . S
C208 H212 0.950 . S
C208 C217 1.390 . S
C209 C208 1.387 . S
C209 C211 1.387 . S
H210 C217 0.950 . S
C211 C209 1.387 . S
C211 C213 1.390 . S
C211 H215 0.950 . S
H212 C208 0.950 . S
C213 C211 1.390 . S
C213 C214 1.387 . S
C213 H216 0.950 . S
C214 C213 1.387 . S
C214 C217 1.387 . S
H215 C211 0.950 . S
H216 C213 0.950 . S
C217 C208 1.390 . S
C217 H210 0.950 . S
C217 C214 1.387 . S
C218 C219 1.387 . S
C218 H222 0.950 . S
C218 C227 1.390 1_655 S
C219 C218 1.387 . S
C219 C221 1.387 . S
H220 C227 0.950 . S
C221 C219 1.387 . S
C221 C223 1.390 1_655 S
C221 H225 0.950 . S
H222 C218 0.950 . S
C223 C221 1.390 1_455 S
C223 C224 1.387 . S
C223 H226 0.950 . S
C224 C223 1.387 . S
C224 C227 1.387 . S
H225 C221 0.950 . S
H226 C223 0.950 . S
C227 C218 1.390 1_455 S
C227 H220 0.950 . S
C227 C224 1.387 . S
C228 C229 1.387 . S
C228 H232 0.950 . S
C228 C237 1.390 1_556 S
C229 C228 1.387 . S
C229 C231 1.387 . S
H230 C237 0.950 . S
C231 C229 1.387 . S
C231 C233 1.390 1_556 S
C231 H235 0.950 . S
H232 C228 0.950 . S
C233 C231 1.390 1_554 S
C233 C234 1.387 . S
C233 H236 0.950 . S
C234 C233 1.387 . S
C234 C237 1.387 . S
H235 C231 0.950 . S
H236 C233 0.950 . S
C237 C228 1.390 1_554 S
C237 H230 0.950 . S
C237 C234 1.387 . S
C238 C239 1.387 . S
C238 H242 0.950 . S
C238 C247 1.390 . S
C239 C238 1.387 . S
C239 C241 1.387 . S
H240 C247 0.950 . S
C241 C239 1.387 . S
C241 C243 1.390 . S
C241 H245 0.950 . S
H242 C238 0.950 . S
C243 C241 1.390 . S
C243 C244 1.387 . S
C243 H246 0.950 . S
C244 C243 1.387 . S
C244 C247 1.387 . S
H245 C241 0.950 . S
H246 C243 0.950 . S
C247 C238 1.390 . S
C247 H240 0.950 . S
C247 C244 1.387 . S
C248 C249 1.387 . S
C248 H252 0.950 . S
C248 C257 1.390 . S
C249 C248 1.387 . S
C249 C251 1.387 . S
H250 C257 0.950 . S
C251 C249 1.387 . S
C251 C253 1.390 . S
C251 H255 0.950 . S
H252 C248 0.950 . S
C253 C251 1.390 . S
C253 C254 1.387 . S
C253 H256 0.950 . S
C254 C253 1.387 . S
C254 C257 1.387 . S
H255 C251 0.950 . S
H256 C253 0.950 . S
C257 C248 1.390 . S
C257 H250 0.950 . S
C257 C254 1.387 . S
C258 C259 1.387 . S
C258 H262 0.950 . S
C258 C267 1.390 1_556 S
C259 C258 1.387 . S
C259 C261 1.387 . S
H260 C267 0.950 . S
C261 C259 1.387 . S
C261 C263 1.390 1_556 S
C261 H265 0.950 . S
H262 C258 0.950 . S
C263 C261 1.390 1_554 S
C263 C264 1.387 . S
C263 H266 0.950 . S
C264 C263 1.387 . S
C264 C267 1.387 . S
H265 C261 0.950 . S
H266 C263 0.950 . S
C267 C258 1.390 1_554 S
C267 H260 0.950 . S
C267 C264 1.387 . S
C268 C269 1.387 . S
C268 H272 0.950 . S
C268 C277 1.390 . S
C269 C268 1.387 . S
C269 C271 1.387 . S
H270 C277 0.950 . S
C271 C269 1.387 . S
C271 C273 1.390 . S
C271 H275 0.950 . S
H272 C268 0.950 . S
C273 C271 1.390 . S
C273 C274 1.387 . S
C273 H276 0.950 . S
C274 C273 1.387 . S
C274 C277 1.387 . S
H275 C271 0.950 . S
H276 C273 0.950 . S
C277 C268 1.390 . S
C277 H270 0.950 . S
C277 C274 1.387 . S
C278 C279 1.387 . S
C278 H282 0.950 . S
C278 C287 1.390 . S
C279 C278 1.387 . S
C279 C281 1.387 . S
H280 C287 0.950 . S
C281 C279 1.387 . S
C281 C283 1.390 . S
C281 H285 0.950 . S
H282 C278 0.950 . S
C283 C281 1.390 . S
C283 C284 1.387 . S
C283 H286 0.950 . S
C284 C283 1.387 . S
C284 C287 1.387 . S
H285 C281 0.950 . S
H286 C283 0.950 . S
C287 C278 1.390 . S
C287 H280 0.950 . S
C287 C284 1.387 . S
C288 C289 1.387 . S
C288 H292 0.950 . S
C288 C297 1.390 . S
C289 C288 1.387 . S
C289 C291 1.387 . S
H290 C297 0.950 . S
C291 C289 1.387 . S
C291 C293 1.390 . S
C291 H295 0.950 . S
H292 C288 0.950 . S
C293 C291 1.390 . S
C293 C294 1.387 . S
C293 H296 0.950 . S
C294 C293 1.387 . S
C294 C297 1.387 . S
H295 C291 0.950 . S
H296 C293 0.950 . S
C297 C288 1.390 . S
C297 H290 0.950 . S
C297 C294 1.387 . S
C298 C299 1.387 . S
C298 H302 0.950 . S
C298 C307 1.390 . S
C299 C298 1.387 . S
C299 C301 1.387 . S
H300 C307 0.950 . S
C301 C299 1.387 . S
C301 C303 1.390 . S
C301 H305 0.950 . S
H302 C298 0.950 . S
C303 C301 1.390 . S
C303 C304 1.387 . S
C303 H306 0.950 . S
C304 C303 1.387 . S
C304 C307 1.387 . S
H305 C301 0.950 . S
H306 C303 0.950 . S
C307 C298 1.390 . S
C307 H300 0.950 . S
C307 C304 1.387 . S
C308 C309 1.387 . S
C308 H312 0.950 . S
C308 C317 1.390 . S
C309 C308 1.387 . S
C309 C311 1.387 . S
H310 C317 0.950 . S
C311 C309 1.387 . S
C311 C313 1.390 . S
C311 H315 0.950 . S
H312 C308 0.950 . S
C313 C311 1.390 . S
C313 C314 1.387 . S
C313 H316 0.950 . S
C314 C313 1.387 . S
C314 C317 1.387 . S
H315 C311 0.950 . S
H316 C313 0.950 . S
C317 C308 1.390 . S
C317 H310 0.950 . S
C317 C314 1.387 . S
C318 C319 1.387 . S
C318 H322 0.950 . S
C318 C327 1.390 . S
C319 C318 1.387 . S
C319 C321 1.387 . S
H320 C327 0.950 . S
C321 C319 1.387 . S
C321 C323 1.390 . S
C321 H325 0.950 . S
H322 C318 0.950 . S
C323 C321 1.390 . S
C323 C324 1.387 . S
C323 H326 0.950 . S
C324 C323 1.387 . S
C324 C327 1.387 . S
H325 C321 0.950 . S
H326 C323 0.950 . S
C327 C318 1.390 . S
C327 H320 0.950 . S
C327 C324 1.387 . S
C328 C329 1.387 . S
C328 H332 0.950 . S
C328 C337 1.390 . S
C329 C328 1.387 . S
C329 C331 1.387 . S
H330 C337 0.950 . S
C331 C329 1.387 . S
C331 C333 1.390 . S
C331 H335 0.950 . S
H332 C328 0.950 . S
C333 C331 1.390 . S
C333 C334 1.387 . S
C333 H336 0.950 . S
C334 C333 1.387 . S
C334 C337 1.387 . S
H335 C331 0.950 . S
H336 C333 0.950 . S
C337 C328 1.390 . S
C337 H330 0.950 . S
C337 C334 1.387 . S
C338 C339 1.387 . S
C338 H342 0.950 . S
C338 C347 1.390 . S
C339 C338 1.387 . S
C339 C341 1.387 . S
H340 C347 0.950 . S
C341 C339 1.387 . S
C341 C343 1.390 . S
C341 H345 0.950 . S
H342 C338 0.950 . S
C343 C341 1.390 . S
C343 C344 1.387 . S
C343 H346 0.950 . S
C344 C343 1.387 . S
C344 C347 1.387 . S
H345 C341 0.950 . S
H346 C343 0.950 . S
C347 C338 1.390 . S
C347 H340 0.950 . S
C347 C344 1.387 . S
C348 C349 1.387 . S
C348 H352 0.950 . S
C348 C357 1.390 . S
C349 C348 1.387 . S
C349 C351 1.387 . S
H350 C357 0.950 . S
C351 C349 1.387 . S
C351 C353 1.390 . S
C351 H355 0.950 1_554 S
H352 C348 0.950 . S
C353 C351 1.390 . S
C353 C354 1.387 . S
C353 H356 0.950 1_554 S
C354 C353 1.387 . S
C354 C357 1.387 . S
H355 C351 0.950 1_556 S
H356 C353 0.950 1_556 S
C357 C348 1.390 . S
C357 H350 0.950 . S
C357 C354 1.387 . S
C358 C359 1.387 . S
C358 H362 0.950 . S
C358 C367 1.390 1_655 S
C359 C358 1.387 . S
C359 C361 1.387 . S
H360 C367 0.950 . S
C361 C359 1.387 . S
C361 C363 1.390 1_655 S
C361 H365 0.950 . S
H362 C358 0.950 . S
C363 C361 1.390 1_455 S
C363 C364 1.387 . S
C363 H366 0.950 . S
C364 C363 1.387 . S
C364 C367 1.387 . S
H365 C361 0.950 . S
H366 C363 0.950 . S
C367 C358 1.390 1_455 S
C367 H360 0.950 . S
C367 C364 1.387 . S
C368 C369 1.387 . S
C368 H372 0.950 . S
C368 C377 1.390 1_545 S
C369 C368 1.387 . S
C369 C371 1.387 . S
H370 C377 0.950 . S
C371 C369 1.387 . S
C371 C373 1.390 1_545 S
C371 H375 0.950 . S
H372 C368 0.950 . S
C373 C371 1.390 1_565 S
C373 C374 1.387 . S
C373 H376 0.950 . S
C374 C373 1.387 . S
C374 C377 1.387 . S
H375 C371 0.950 . S
H376 C373 0.950 . S
C377 C368 1.390 1_565 S
C377 H370 0.950 . S
C377 C374 1.387 . S
C378 C379 1.387 . S
C378 H382 0.950 . S
C378 C387 1.390 . S
C379 C378 1.387 . S
C379 C381 1.387 . S
H380 C387 0.950 . S
C381 C379 1.387 . S
C381 C383 1.390 . S
C381 H385 0.950 . S
H382 C378 0.950 . S
C383 C381 1.390 . S
C383 C384 1.387 . S
C383 H386 0.950 . S
C384 C383 1.387 . S
C384 C387 1.387 . S
H385 C381 0.950 . S
H386 C383 0.950 . S
C387 C378 1.390 . S
C387 H380 0.950 . S
C387 C384 1.387 . S
C388 C389 1.387 . S
C388 H392 0.950 1_556 S
C388 C397 1.390 1_455 S
C389 C388 1.387 . S
C389 C391 1.387 . S
H390 C397 0.950 1_554 S
C391 C389 1.387 . S
C391 C393 1.390 1_455 S
C391 H395 0.950 . S
H392 C388 0.950 1_554 S
C393 C391 1.390 1_655 S
C393 C394 1.387 . S
C393 H396 0.950 . S
C394 C393 1.387 . S
C394 C397 1.387 . S
H395 C391 0.950 . S
H396 C393 0.950 . S
C397 C388 1.390 1_655 S
C397 H390 0.950 1_556 S
C397 C394 1.387 . S
C398 C399 1.387 . S
C398 H402 0.950 . S
C398 C407 1.390 1_565 S
C399 C398 1.387 . S
C399 C401 1.387 . S
H400 C407 0.950 . S
C401 C399 1.387 . S
C401 C403 1.390 1_565 S
C401 H405 0.950 . S
H402 C398 0.950 . S
C403 C401 1.390 1_545 S
C403 C404 1.387 . S
C403 H406 0.950 . S
C404 C403 1.387 . S
C404 C407 1.387 . S
H405 C401 0.950 . S
H406 C403 0.950 . S
C407 C398 1.390 1_545 S
C407 H400 0.950 . S
C407 C404 1.387 . S
C169 C105 1.419 . S
C174 C7 1.419 . S
C179 C21 1.417 . S
C184 C119 1.419 . S
C189 C35 1.418 . S
C194 C133 1.419 . S
C199 C49 1.419 . S
C204 C147 1.419 . S
C209 C161 1.418 . S
C214 C63 1.419 . S
C219 C91 1.420 . S
C224 C77 1.418 . S
C229 C148 1.357 . S
C234 C8 1.357 . S
C239 C22 1.359 . S
C244 C162 1.357 . S
C249 C36 1.358 . S
C254 C92 1.357 . S
C259 C106 1.359 . S
C264 C50 1.359 . S
C269 C120 1.357 . S
C274 C64 1.358 . S
C279 C134 1.356 . S
C284 C78 1.358 . S
C289 C11 1.561 . S
C294 C123 1.561 . S
C299 C25 1.561 . S
C304 C137 1.561 . S
C309 C151 1.561 . S
C314 C39 1.560 . S
C319 C53 1.561 . S
C324 C165 1.561 . S
C329 C95 1.560 . S
C334 C67 1.560 . S
C339 C109 1.561 . S
C344 C81 1.560 . S
C349 C55 1.398 . S
C354 C13 1.398 . S
C359 C69 1.395 . S
C364 C27 1.395 . S
C369 C41 1.395 . S
C374 C83 1.395 . S
C379 C97 1.398 . S
C384 C139 1.398 . S
C389 C111 1.395 . S
C394 C153 1.395 . S
C399 C167 1.395 . S
C404 C125 1.395 . S
