# Generated by pormake.
# Topology umg, (4)-cn, num edge types: 1
# Building blocks:
#     Node 0, Type 0, BuildingBlock: NAWXER_clean_sbu_0, # of connection points: 4
#     Node 1, Type 0, BuildingBlock: NAWXER_clean_sbu_0, # of connection points: 4
#     Node 2, Type 0, BuildingBlock: NAWXER_clean_sbu_0, # of connection points: 4
#     Node 3, Type 0, BuildingBlock: NAWXER_clean_sbu_0, # of connection points: 4
#     Node 4, Type 0, BuildingBlock: NAWXER_clean_sbu_0, # of connection points: 4
#     Node 5, Type 0, BuildingBlock: NAWXER_clean_sbu_0, # of connection points: 4
#     Node 6, Type 0, BuildingBlock: NAWXER_clean_sbu_0, # of connection points: 4
#     Node 7, Type 0, BuildingBlock: NAWXER_clean_sbu_0, # of connection points: 4
#     Node 8, Type 0, BuildingBlock: NAWXER_clean_sbu_0, # of connection points: 4
#     Node 9, Type 0, BuildingBlock: NAWXER_clean_sbu_0, # of connection points: 4
#     Node 10, Type 0, BuildingBlock: NAWXER_clean_sbu_0, # of connection points: 4
#     Node 11, Type 0, BuildingBlock: NAWXER_clean_sbu_0, # of connection points: 4
#     Edge 12, Type (0, 0), BuildingBlock: CIFDUS_clean_linker_0, # of connection points: 2
#     Edge 13, Type (0, 0), BuildingBlock: CIFDUS_clean_linker_0, # of connection points: 2
#     Edge 14, Type (0, 0), BuildingBlock: CIFDUS_clean_linker_0, # of connection points: 2
#     Edge 15, Type (0, 0), BuildingBlock: CIFDUS_clean_linker_0, # of connection points: 2
#     Edge 16, Type (0, 0), BuildingBlock: CIFDUS_clean_linker_0, # of connection points: 2
#     Edge 17, Type (0, 0), BuildingBlock: CIFDUS_clean_linker_0, # of connection points: 2
#     Edge 18, Type (0, 0), BuildingBlock: CIFDUS_clean_linker_0, # of connection points: 2
#     Edge 19, Type (0, 0), BuildingBlock: CIFDUS_clean_linker_0, # of connection points: 2
#     Edge 20, Type (0, 0), BuildingBlock: CIFDUS_clean_linker_0, # of connection points: 2
#     Edge 21, Type (0, 0), BuildingBlock: CIFDUS_clean_linker_0, # of connection points: 2
#     Edge 22, Type (0, 0), BuildingBlock: CIFDUS_clean_linker_0, # of connection points: 2
#     Edge 23, Type (0, 0), BuildingBlock: CIFDUS_clean_linker_0, # of connection points: 2
#     Edge 24, Type (0, 0), BuildingBlock: CIFDUS_clean_linker_0, # of connection points: 2
#     Edge 25, Type (0, 0), BuildingBlock: CIFDUS_clean_linker_0, # of connection points: 2
#     Edge 26, Type (0, 0), BuildingBlock: CIFDUS_clean_linker_0, # of connection points: 2
#     Edge 27, Type (0, 0), BuildingBlock: CIFDUS_clean_linker_0, # of connection points: 2
#     Edge 28, Type (0, 0), BuildingBlock: CIFDUS_clean_linker_0, # of connection points: 2
#     Edge 29, Type (0, 0), BuildingBlock: CIFDUS_clean_linker_0, # of connection points: 2
#     Edge 30, Type (0, 0), BuildingBlock: CIFDUS_clean_linker_0, # of connection points: 2
#     Edge 31, Type (0, 0), BuildingBlock: CIFDUS_clean_linker_0, # of connection points: 2
#     Edge 32, Type (0, 0), BuildingBlock: CIFDUS_clean_linker_0, # of connection points: 2
#     Edge 33, Type (0, 0), BuildingBlock: CIFDUS_clean_linker_0, # of connection points: 2
#     Edge 34, Type (0, 0), BuildingBlock: CIFDUS_clean_linker_0, # of connection points: 2
#     Edge 35, Type (0, 0), BuildingBlock: CIFDUS_clean_linker_0, # of connection points: 2
# Relax obj value: 0.016
# Max RMSD: 0.161
# Mean RMSD: 0.161
data_MOF--net-umg--node1-NAWXER_clean_sbu_0--edge1-CIFDUS_clean_linker_0
_symmetry_space_group_name_H-M    P1
_symmetry_Int_Tables_number       1
_symmetry_cell_setting            triclinic
loop_
_symmetry_equiv_pos_as_xyz
'x, y, z'
_cell_length_a     25.585847
_cell_length_b     25.668016
_cell_length_c     76.219611
_cell_angle_alpha  89.988639
_cell_angle_beta   89.991297
_cell_angle_gamma 120.12663
loop_
_atom_site_label
_atom_site_type_symbol
_atom_site_fract_x
_atom_site_fract_y
_atom_site_fract_z
_atom_type_partial_charge
C0 C 0.17847 0.52692 0.09237 0.0
C1 C 0.37916 0.54687 0.09299 0.0
O2 O 0.1931 0.48658 0.09365 0.0
Zn3 Zn 0.27968 0.5385 0.09276 0.0
O4 O 0.22041 0.5823 0.09106 0.0
Zn5 Zn 0.31879 0.63133 0.09035 0.0
O6 O 0.3365 0.67134 0.06819 0.0
O7 O 0.29485 0.57279 0.06597 0.0
O8 O 0.38256 0.59844 0.09169 0.0
O9 O 0.32749 0.49974 0.09395 0.0
O10 O 0.30015 0.58769 0.11751 0.0
O11 O 0.33914 0.68317 0.11009 0.0
C12 C 0.31703 0.62479 0.05866 0.0
C13 C 0.32257 0.64322 0.1219 0.0
C14 C 0.70533 0.31235 0.45714 0.0
C15 C 0.69386 0.30553 0.39312 0.0
O16 O 0.67613 0.32875 0.44727 0.0
Zn17 Zn 0.69764 0.30822 0.42511 0.0
O18 O 0.73506 0.28953 0.45028 0.0
Zn19 Zn 0.75325 0.26877 0.42455 0.0
O20 O 0.83993 0.31811 0.42322 0.0
O21 O 0.79335 0.37081 0.42378 0.0
O22 O 0.72555 0.28394 0.39941 0.0
O23 O 0.6688 0.32514 0.40352 0.0
O24 O 0.64964 0.21131 0.42575 0.0
O25 O 0.71745 0.18234 0.42518 0.0
C26 C 0.84246 0.36886 0.42314 0.0
C27 C 0.66244 0.16896 0.4257 0.0
C28 C 0.41362 0.71216 0.7907 0.0
C29 C 0.41188 0.7076 0.7269 0.0
O30 O 0.36896 0.68726 0.78029 0.0
Zn31 Zn 0.41373 0.70814 0.75877 0.0
O32 O 0.4675 0.73889 0.78446 0.0
Zn33 Zn 0.50826 0.75584 0.75869 0.0
O34 O 0.55464 0.84158 0.75811 0.0
O35 O 0.45613 0.80581 0.75824 0.0
O36 O 0.46585 0.73478 0.73311 0.0
O37 O 0.36731 0.68445 0.73738 0.0
O38 O 0.45534 0.65256 0.75907 0.0
O39 O 0.55365 0.71519 0.759 0.0
C40 C 0.51037 0.85086 0.75802 0.0
C41 C 0.50949 0.66163 0.75914 0.0
C42 C 0.70283 0.37241 0.1219 0.0
C43 C 0.70853 0.39105 0.05864 0.0
O44 O 0.68631 0.33249 0.11008 0.0
Zn45 Zn 0.70672 0.38438 0.09034 0.0
O46 O 0.72527 0.42795 0.1175 0.0
Zn47 Zn 0.74583 0.47721 0.09276 0.0
O48 O 0.69802 0.51597 0.09395 0.0
O49 O 0.64296 0.41728 0.09169 0.0
O50 O 0.73069 0.44301 0.06597 0.0
O51 O 0.68906 0.34446 0.06817 0.0
O52 O 0.80509 0.4334 0.09106 0.0
O53 O 0.83241 0.52911 0.09365 0.0
C54 C 0.64635 0.46885 0.09299 0.0
C55 C 0.84703 0.48877 0.09237 0.0
C56 C 0.31918 0.70189 0.45712 0.0
C57 C 0.33061 0.70887 0.3931 0.0
O58 O 0.34836 0.68551 0.44724 0.0
Zn59 Zn 0.32677 0.70601 0.42509 0.0
O60 O 0.28938 0.72466 0.45027 0.0
Zn61 Zn 0.27112 0.74543 0.42456 0.0
O62 O 0.18445 0.69604 0.42324 0.0
O63 O 0.23106 0.64338 0.42379 0.0
O64 O 0.29889 0.73041 0.39941 0.0
O65 O 0.35563 0.68919 0.40349 0.0
O66 O 0.3747 0.80292 0.42574 0.0
O67 O 0.30687 0.83186 0.42519 0.0
C68 C 0.18194 0.6453 0.42316 0.0
C69 C 0.36188 0.84526 0.4257 0.0
C70 C 0.5149 0.16408 0.75812 0.0
C71 C 0.51567 0.35324 0.75917 0.0
O72 O 0.47062 0.17334 0.75822 0.0
Zn73 Zn 0.51697 0.25908 0.75876 0.0
O74 O 0.56914 0.20914 0.75831 0.0
Zn75 Zn 0.61149 0.3068 0.75881 0.0
O76 O 0.65631 0.32782 0.78031 0.0
O77 O 0.55779 0.27617 0.78452 0.0
O78 O 0.56983 0.36234 0.7591 0.0
O79 O 0.47153 0.29969 0.75906 0.0
O80 O 0.55935 0.28015 0.73316 0.0
O81 O 0.65788 0.33048 0.73742 0.0
C82 C 0.61168 0.30298 0.79074 0.0
C83 C 0.61332 0.30734 0.72695 0.0
C84 C 0.50657 0.8491 0.58489 0.0
C85 C 0.48691 0.64922 0.58795 0.0
O86 O 0.5487 0.83668 0.58354 0.0
Zn87 Zn 0.49961 0.7501 0.5865 0.0
O88 O 0.45218 0.80643 0.5874 0.0
Zn89 Zn 0.40376 0.71062 0.59031 0.0
O90 O 0.37234 0.69991 0.61429 0.0
O91 O 0.4715 0.74195 0.61299 0.0
O92 O 0.43658 0.64834 0.58961 0.0
O93 O 0.53563 0.6994 0.58607 0.0
O94 O 0.44699 0.72215 0.56321 0.0
O95 O 0.35072 0.68575 0.56986 0.0
C96 C 0.42315 0.72256 0.62207 0.0
C97 C 0.39176 0.69856 0.55843 0.0
C98 C 0.70849 0.38279 0.89052 0.0
C99 C 0.72007 0.41618 0.95394 0.0
O100 O 0.6885 0.3423 0.90233 0.0
Zn101 Zn 0.71255 0.39681 0.92224 0.0
O102 O 0.73321 0.43844 0.89482 0.0
Zn103 Zn 0.75348 0.49164 0.91806 0.0
O104 O 0.83994 0.54163 0.91653 0.0
O105 O 0.80966 0.44528 0.92041 0.0
O106 O 0.74112 0.46464 0.94488 0.0
O107 O 0.69862 0.36578 0.9461 0.0
O108 O 0.65073 0.42946 0.92 0.0
O109 O 0.70314 0.52765 0.91572 0.0
C110 C 0.8525 0.49983 0.91828 0.0
C111 C 0.65239 0.47963 0.9175 0.0
C112 C 0.32021 0.71788 0.28835 0.0
C113 C 0.33324 0.69153 0.22542 0.0
O114 O 0.34845 0.6954 0.28069 0.0
Zn115 Zn 0.32823 0.70548 0.25687 0.0
O116 O 0.29152 0.73725 0.27915 0.0
Zn117 Zn 0.27382 0.74447 0.25205 0.0
O118 O 0.18694 0.69533 0.25086 0.0
O119 O 0.2321 0.64279 0.25581 0.0
O120 O 0.30249 0.71711 0.22907 0.0
O121 O 0.35675 0.67681 0.23775 0.0
O122 O 0.37737 0.80262 0.25351 0.0
O123 O 0.3094 0.82995 0.24895 0.0
C124 C 0.18346 0.64477 0.25342 0.0
C125 C 0.36437 0.84418 0.25066 0.0
C126 C 0.60224 0.29313 0.6221 0.0
C127 C 0.63391 0.31726 0.55847 0.0
O128 O 0.65308 0.31576 0.61433 0.0
Zn129 Zn 0.62177 0.30516 0.59035 0.0
O130 O 0.55393 0.27379 0.61302 0.0
Zn131 Zn 0.52595 0.26574 0.58651 0.0
O132 O 0.47683 0.17916 0.58355 0.0
O133 O 0.57333 0.20936 0.58743 0.0
O134 O 0.57866 0.29371 0.56324 0.0
O135 O 0.67489 0.33001 0.5699 0.0
O136 O 0.58901 0.36748 0.58963 0.0
O137 O 0.48998 0.31647 0.58607 0.0
C138 C 0.51894 0.16671 0.58491 0.0
C139 C 0.53871 0.36663 0.58796 0.0
C140 C 0.31679 0.63371 0.89053 0.0
C141 C 0.30523 0.60013 0.95394 0.0
O142 O 0.3368 0.67418 0.90234 0.0
Zn143 Zn 0.31273 0.61962 0.92225 0.0
O144 O 0.29206 0.57806 0.89482 0.0
Zn145 Zn 0.2718 0.52479 0.91806 0.0
O146 O 0.18533 0.47483 0.91655 0.0
O147 O 0.21563 0.57117 0.92043 0.0
O148 O 0.28416 0.5517 0.94488 0.0
O149 O 0.32668 0.65056 0.94612 0.0
O150 O 0.37455 0.58696 0.91998 0.0
O151 O 0.32213 0.48879 0.9157 0.0
C152 C 0.17278 0.51663 0.9183 0.0
C153 C 0.37288 0.5368 0.91748 0.0
C154 C 0.70507 0.29768 0.28836 0.0
C155 C 0.69209 0.32413 0.22543 0.0
O156 O 0.67682 0.32016 0.2807 0.0
Zn157 Zn 0.69709 0.31017 0.25688 0.0
O158 O 0.73378 0.27836 0.27915 0.0
Zn159 Zn 0.75152 0.2712 0.25205 0.0
O160 O 0.8384 0.32037 0.25085 0.0
O161 O 0.79322 0.37288 0.25581 0.0
O162 O 0.72285 0.29856 0.22907 0.0
O163 O 0.66857 0.33885 0.23775 0.0
O164 O 0.64798 0.21304 0.25351 0.0
O165 O 0.71598 0.18573 0.24895 0.0
C166 C 0.84186 0.37092 0.25341 0.0
C167 C 0.661 0.17149 0.25067 0.0
H168 H 0.34508 0.69163 0.97796 0.0
H169 H 0.26206 0.49833 0.97362 0.0
H170 H 0.25865 0.48905 1.00539 0.0
H171 H 0.27868 0.53505 0.0345 0.0
H172 H 0.36151 0.72809 0.03923 0.0
H173 H 0.36547 0.73796 0.00734 0.0
C174 C 0.32628 0.64753 0.98397 0.0
C175 C 0.3039 0.59589 0.97335 0.0
C176 C 0.32435 0.64227 1.00237 0.0
C177 C 0.27967 0.53901 0.9814 0.0
C178 C 0.27764 0.53351 0.99962 0.0
C179 C 0.29765 0.57932 0.02859 0.0
C180 C 0.3197 0.63065 0.03929 0.0
C181 C 0.29979 0.58476 0.01024 0.0
C182 C 0.34414 0.68769 0.03134 0.0
C183 C 0.34645 0.69345 0.01307 0.0
H184 H 0.74025 0.26457 0.36847 0.0
H185 H 0.63416 0.35151 0.37434 0.0
H186 H 0.62725 0.35623 0.34236 0.0
H187 H 0.65306 0.33671 0.31266 0.0
H188 H 0.75978 0.24985 0.30773 0.0
H189 H 0.76455 0.24419 0.33943 0.0
C190 C 0.71546 0.28456 0.36283 0.0
C191 C 0.68788 0.30775 0.37383 0.0
C192 C 0.71183 0.28722 0.34456 0.0
C193 C 0.65588 0.33331 0.36619 0.0
C194 C 0.65196 0.33606 0.34791 0.0
C195 C 0.67722 0.31645 0.31853 0.0
C196 C 0.70608 0.29387 0.30775 0.0
C197 C 0.68 0.31332 0.33694 0.0
C198 C 0.73719 0.26773 0.31562 0.0
C199 C 0.74 0.26441 0.3338 0.0
H200 H 0.49735 0.75957 0.70175 0.0
H201 H 0.30457 0.64899 0.70879 0.0
H202 H 0.29003 0.64485 0.67696 0.0
H203 H 0.33294 0.67186 0.64691 0.0
H204 H 0.52644 0.78285 0.64088 0.0
H205 H 0.5394 0.78761 0.67244 0.0
C206 C 0.45204 0.73443 0.69638 0.0
C207 C 0.40223 0.70448 0.70767 0.0
C208 C 0.44402 0.73237 0.67816 0.0
C209 C 0.34385 0.67242 0.70041 0.0
C210 C 0.33546 0.67006 0.68219 0.0
C211 C 0.37781 0.69731 0.65253 0.0
C212 C 0.42853 0.72667 0.64145 0.0
C213 C 0.38531 0.69982 0.6709 0.0
C214 C 0.48645 0.75941 0.64899 0.0
C215 C 0.4941 0.76228 0.6671 0.0
H216 H 0.74678 0.48089 0.03452 0.0
H217 H 0.66413 0.28784 0.0392 0.0
H218 H 0.66009 0.27813 0.0073 0.0
H219 H 0.68035 0.32458 0.97793 0.0
H220 H 0.76319 0.51789 0.97364 0.0
H221 H 0.76668 0.52702 1.00541 0.0
C222 C 0.72783 0.43665 0.02859 0.0
C223 C 0.70585 0.38528 0.03927 0.0
C224 C 0.72565 0.4313 0.01024 0.0
C225 C 0.68145 0.32828 0.03131 0.0
C226 C 0.67909 0.32261 0.01305 0.0
C227 C 0.69913 0.36866 0.98395 0.0
C228 C 0.72144 0.42034 0.97335 0.0
C229 C 0.70112 0.37383 1.00236 0.0
C230 C 0.74564 0.47717 0.98141 0.0
C231 C 0.74772 0.48259 0.99963 0.0
H232 H 0.37172 0.67826 0.31263 0.0
H233 H 0.26589 0.76608 0.30774 0.0
H234 H 0.26096 0.77146 0.33945 0.0
H235 H 0.28481 0.75053 0.36848 0.0
H236 H 0.39002 0.66263 0.3743 0.0
H237 H 0.39713 0.65823 0.34232 0.0
C238 C 0.34773 0.69867 0.31852 0.0
C239 C 0.31915 0.72159 0.30774 0.0
C240 C 0.34484 0.70163 0.33692 0.0
C241 C 0.28826 0.74793 0.31563 0.0
C242 C 0.28534 0.75109 0.3338 0.0
C243 C 0.30945 0.73039 0.36283 0.0
C244 C 0.33671 0.70683 0.37381 0.0
C245 C 0.3132 0.72792 0.34455 0.0
C246 C 0.36854 0.68111 0.36617 0.0
C247 C 0.37258 0.67854 0.34788 0.0
H248 H 0.52783 0.2559 0.70178 0.0
H249 H 0.72067 0.36563 0.70884 0.0
H250 H 0.73526 0.36994 0.677 0.0
H251 H 0.6924 0.34332 0.64695 0.0
H252 H 0.49883 0.2332 0.6409 0.0
H253 H 0.4858 0.22826 0.67246 0.0
C254 C 0.57316 0.28088 0.69642 0.0
C255 C 0.62297 0.31055 0.70771 0.0
C256 C 0.58121 0.28306 0.6782 0.0
C257 C 0.68139 0.34242 0.70045 0.0
C258 C 0.6898 0.34488 0.68223 0.0
C259 C 0.6475 0.31803 0.65257 0.0
C260 C 0.59679 0.28895 0.64148 0.0
C261 C 0.63995 0.31542 0.67094 0.0
C262 C 0.53883 0.25641 0.64902 0.0
C263 C 0.53114 0.25345 0.66713 0.0
H264 H 0.32741 0.74961 0.19667 0.0
H265 H 0.35005 0.60112 0.21282 0.0
H266 H 0.34822 0.57214 0.18208 0.0
H267 H 0.33594 0.5871 0.15056 0.0
H268 H 0.31915 0.73962 0.13488 0.0
H269 H 0.32273 0.76882 0.16548 0.0
C270 C 0.33227 0.71107 0.19346 0.0
C271 C 0.33838 0.67726 0.20695 0.0
C272 C 0.33183 0.6952 0.17584 0.0
C273 C 0.34547 0.62795 0.20262 0.0
C274 C 0.34407 0.61118 0.18507 0.0
C275 C 0.33313 0.6267 0.1539 0.0
C276 C 0.32681 0.66088 0.14052 0.0
C277 C 0.33651 0.64407 0.17157 0.0
C278 C 0.3241 0.71261 0.14495 0.0
C279 C 0.32604 0.72932 0.16244 0.0
H280 H 0.63391 0.3409 0.47647 0.0
H281 H 0.77531 0.29673 0.48123 0.0
H282 H 0.77051 0.30055 0.51315 0.0
H283 H 0.72107 0.30963 0.5399 0.0
H284 H 0.57601 0.3482 0.53475 0.0
H285 H 0.58789 0.35423 0.50295 0.0
C286 C 0.66403 0.3326 0.48448 0.0
C287 C 0.70455 0.31818 0.47645 0.0
C288 C 0.66041 0.3339 0.50283 0.0
C289 C 0.74325 0.30748 0.48706 0.0
C290 C 0.74066 0.30974 0.50534 0.0
C291 C 0.69293 0.32037 0.53179 0.0
C292 C 0.64775 0.32837 0.5396 0.0
C293 C 0.69878 0.32203 0.5134 0.0
C294 C 0.61092 0.34152 0.52897 0.0
C295 C 0.61757 0.34488 0.5108 0.0
H296 H 0.3099 0.63981 0.80835 0.0
H297 H 0.4953 0.7792 0.81614 0.0
H298 H 0.47977 0.77245 0.8479 0.0
H299 H 0.41495 0.72199 0.87363 0.0
H300 H 0.23243 0.57733 0.86548 0.0
H301 H 0.2449 0.59168 0.83375 0.0
C302 C 0.34682 0.66907 0.81697 0.0
C303 C 0.40368 0.70975 0.80988 0.0
C304 C 0.33794 0.66411 0.8352 0.0
C305 C 0.45113 0.74713 0.82127 0.0
C306 C 0.44227 0.74343 0.83943 0.0
C307 C 0.37774 0.6946 0.86485 0.0
C308 C 0.32275 0.64905 0.87176 0.0
C309 C 0.38606 0.70153 0.84657 0.0
C310 C 0.27509 0.61279 0.86035 0.0
C311 C 0.28227 0.62079 0.84224 0.0
H312 H 0.6895 0.42856 0.15054 0.0
H313 H 0.70604 0.27589 0.13489 0.0
H314 H 0.7024 0.24668 0.1655 0.0
H315 H 0.69778 0.26595 0.19669 0.0
H316 H 0.67539 0.4146 0.21281 0.0
H317 H 0.67724 0.44356 0.18206 0.0
C318 C 0.69224 0.38893 0.15389 0.0
C319 C 0.69852 0.35471 0.14051 0.0
C320 C 0.68883 0.37155 0.17156 0.0
C321 C 0.70113 0.30293 0.14496 0.0
C322 C 0.69916 0.28622 0.16245 0.0
C323 C 0.69297 0.30452 0.19346 0.0
C324 C 0.68694 0.33838 0.20696 0.0
C325 C 0.69342 0.32037 0.17585 0.0
C326 C 0.67992 0.38773 0.20261 0.0
C327 C 0.68133 0.40449 0.18506 0.0
H328 H 0.30385 0.70495 0.53989 0.0
H329 H 0.45045 0.66867 0.53468 0.0
H330 H 0.43835 0.6623 0.50289 0.0
H331 H 0.39158 0.67462 0.47643 0.0
H332 H 0.2486 0.71653 0.48123 0.0
H333 H 0.25373 0.71307 0.51316 0.0
C334 C 0.3323 0.69466 0.53177 0.0
C335 C 0.37796 0.6874 0.53956 0.0
C336 C 0.32629 0.69278 0.51338 0.0
C337 C 0.41516 0.67479 0.52892 0.0
C338 C 0.40838 0.67122 0.51075 0.0
C339 C 0.36118 0.68248 0.48445 0.0
C340 C 0.32011 0.69617 0.47644 0.0
C341 C 0.365 0.68143 0.5028 0.0
C342 C 0.28108 0.70635 0.48705 0.0
C343 C 0.28386 0.7043 0.50533 0.0
H344 H 0.61067 0.29386 0.87368 0.0
H345 H 0.79252 0.43977 0.8654 0.0
H346 H 0.78002 0.42514 0.83369 0.0
H347 H 0.71517 0.37627 0.80833 0.0
H348 H 0.53037 0.23559 0.81623 0.0
H349 H 0.54598 0.24276 0.84799 0.0
C350 C 0.64774 0.32148 0.86488 0.0
C351 C 0.70253 0.36745 0.87175 0.0
C352 C 0.63939 0.31436 0.84661 0.0
C353 C 0.75 0.404 0.86031 0.0
C354 C 0.74281 0.39582 0.84221 0.0
C355 C 0.67841 0.34682 0.81698 0.0
C356 C 0.62168 0.30563 0.80992 0.0
C357 C 0.68732 0.35203 0.8352 0.0
C358 C 0.57442 0.26803 0.82133 0.0
C359 C 0.58333 0.27198 0.8395 0.0
H360 H 0.89405 0.41377 0.09226 0.0
H361 H 0.94629 0.60194 0.09246 0.0
H362 H 0.0527 0.63024 0.09238 0.0
H363 H 0.13145 0.60191 0.09227 0.0
H364 H 0.07921 0.41375 0.09245 0.0
H365 H 0.9728 0.38544 0.09237 0.0
C366 C 0.92865 0.461 0.09227 0.0
C367 C 0.91185 0.50555 0.09235 0.0
C368 C 0.99004 0.47711 0.0923 0.0
C369 C 0.9576 0.56654 0.09242 0.0
C370 C 0.01864 0.58286 0.09236 0.0
C371 C 0.09685 0.55469 0.09227 0.0
C372 C 0.11365 0.51013 0.09235 0.0
C373 C 0.03546 0.53857 0.0923 0.0
C374 C 0.0679 0.44914 0.09241 0.0
C375 C 1.00686 0.43282 0.09235 0.0
H376 H 0.5413 0.12653 0.42613 0.0
H377 H 0.67257 0.06772 0.42601 0.0
H378 H 0.5912 0.96273 0.42619 0.0
H379 H 0.48302 0.8877 0.4261 0.0
H380 H 0.35174 0.94649 0.42605 0.0
H381 H 0.4331 0.05149 0.42624 0.0
C382 C 0.55225 0.09082 0.42617 0.0
C383 C 0.61311 0.10516 0.42605 0.0
C384 C 0.50524 0.03052 0.42623 0.0
C385 C 0.62623 0.05813 0.4261 0.0
C386 C 0.5797 0.99802 0.4262 0.0
C387 C 0.47207 0.9234 0.42616 0.0
C388 C 0.41121 0.90906 0.42606 0.0
C389 C 0.51907 0.9837 0.42622 0.0
C390 C 0.39807 0.95608 0.42612 0.0
C391 C 0.44461 0.0162 0.42623 0.0
H392 H 0.59925 0.47295 0.75931 0.0
H393 H 0.40679 0.34893 0.75935 0.0
H394 H 0.38796 0.43311 0.75941 0.0
H395 H 0.42589 0.54192 0.75933 0.0
H396 H 0.61836 0.66593 0.75927 0.0
H397 H 0.63719 0.58175 0.75934 0.0
C398 C 0.55317 0.46427 0.75934 0.0
C399 C 0.50459 0.40463 0.75932 0.0
C400 C 0.54255 0.51291 0.75937 0.0
C401 C 0.44514 0.39433 0.75936 0.0
C402 C 0.43425 0.44248 0.7594 0.0
C403 C 0.47198 0.5506 0.75935 0.0
C404 C 0.52056 0.61024 0.75929 0.0
C405 C 0.48259 0.50195 0.75938 0.0
C406 C 0.58001 0.62053 0.75931 0.0
C407 C 0.59089 0.57239 0.75935 0.0
H408 H 0.60056 0.12848 0.58391 0.0
H409 H 0.40867 0.06302 0.58376 0.0
H410 H 0.38833 0.95923 0.58337 0.0
H411 H 0.42495 0.88733 0.58385 0.0
H412 H 0.61684 0.9528 0.5838 0.0
H413 H 0.63718 0.05659 0.58343 0.0
C414 C 0.5542 0.09159 0.58376 0.0
C415 C 0.50618 0.10365 0.58395 0.0
C416 C 0.54285 0.03208 0.58352 0.0
C417 C 0.44648 0.05515 0.58363 0.0
C418 C 0.43482 0.99576 0.58343 0.0
C419 C 0.47131 0.92422 0.58373 0.0
C420 C 0.51933 0.91216 0.58394 0.0
C421 C 0.48265 0.98374 0.5835 0.0
C422 C 0.57903 0.96067 0.58365 0.0
C423 C 0.59069 0.02006 0.58347 0.0
H424 H 0.38761 0.43873 0.91665 0.0
H425 H 0.48731 0.63321 0.91685 0.0
H426 H 0.58237 0.63293 0.91644 0.0
H427 H 0.63766 0.5777 0.91659 0.0
H428 H 0.53796 0.38322 0.91698 0.0
H429 H 0.4429 0.3835 0.91656 0.0
C430 C 0.43011 0.48103 0.91654 0.0
C431 C 0.43018 0.5358 0.91681 0.0
C432 C 0.48484 0.48068 0.91644 0.0
C433 C 0.48578 0.59026 0.91672 0.0
C434 C 0.5403 0.59025 0.91647 0.0
C435 C 0.59516 0.5354 0.91652 0.0
C436 C 0.59509 0.48063 0.91685 0.0
C437 C 0.54043 0.53575 0.91642 0.0
C438 C 0.53949 0.42617 0.9168 0.0
C439 C 0.48496 0.42618 0.91655 0.0
H440 H 0.07121 0.63263 0.25333 0.0
H441 H 0.16225 0.52942 0.25369 0.0
H442 H 0.06512 0.43593 0.25358 0.0
H443 H 0.95411 0.38307 0.25335 0.0
H444 H 0.86306 0.48627 0.25366 0.0
H445 H 0.9602 0.57976 0.25355 0.0
C446 C 0.06984 0.5897 0.25337 0.0
C447 C 0.12408 0.58822 0.25349 0.0
C448 C 0.01371 0.53591 0.25343 0.0
C449 C 0.12131 0.53207 0.25363 0.0
C450 C 0.06572 0.47845 0.25355 0.0
C451 C 0.95548 0.42599 0.25338 0.0
C452 C 0.90124 0.42747 0.25348 0.0
C453 C 1.01161 0.47979 0.25344 0.0
C454 C 0.90401 0.48362 0.25361 0.0
C455 C 0.9596 0.53724 0.25353 0.0
H456 H 0.63799 0.57087 0.09334 0.0
H457 H 0.52882 0.37687 0.09314 0.0
H458 H 0.43709 0.38385 0.09331 0.0
H459 H 0.38752 0.44484 0.09333 0.0
H460 H 0.49669 0.63884 0.09315 0.0
H461 H 0.58842 0.63187 0.09333 0.0
C462 C 0.59417 0.53004 0.09336 0.0
C463 C 0.59058 0.47339 0.09324 0.0
C464 C 0.54141 0.53433 0.09338 0.0
C465 C 0.5332 0.42109 0.09322 0.0
C466 C 0.48058 0.42502 0.09333 0.0
C467 C 0.43134 0.48567 0.09336 0.0
C468 C 0.43493 0.54232 0.09324 0.0
C469 C 0.4841 0.48138 0.09338 0.0
C470 C 0.49231 0.59463 0.09323 0.0
C471 C 0.54493 0.5907 0.09334 0.0
H472 H 0.95521 0.38243 0.42254 0.0
H473 H 0.86197 0.48357 0.42253 0.0
H474 H 0.95832 0.57771 0.42226 0.0
H475 H 0.0692 0.63172 0.42249 0.0
H476 H 0.16245 0.53059 0.42263 0.0
H477 H 0.06609 0.43643 0.42237 0.0
C478 C 0.95592 0.42503 0.42244 0.0
C479 C 0.90133 0.42575 0.42259 0.0
C480 C 1.01158 0.47921 0.42233 0.0
C481 C 0.90322 0.4815 0.42245 0.0
C482 C 0.95836 0.53551 0.4223 0.0
C483 C 0.06849 0.58912 0.42242 0.0
C484 C 0.12308 0.5884 0.42261 0.0
C485 C 0.01284 0.53493 0.42231 0.0
C486 C 0.1212 0.53265 0.42251 0.0
C487 C 0.06605 0.47864 0.42236 0.0
H488 H 0.59884 0.12874 0.75775 0.0
H489 H 0.4062 0.05928 0.75794 0.0
H490 H 0.38792 0.95644 0.75781 0.0
H491 H 0.42644 0.88621 0.75784 0.0
H492 H 0.61909 0.95565 0.75768 0.0
H493 H 0.63736 0.05849 0.75759 0.0
C494 C 0.55283 0.09115 0.75775 0.0
C495 C 0.50402 0.1018 0.75787 0.0
C496 C 0.54257 0.03208 0.75769 0.0
C497 C 0.44468 0.05247 0.75786 0.0
C498 C 0.43413 0.99358 0.75778 0.0
C499 C 0.47245 0.92379 0.75777 0.0
C500 C 0.52126 0.91314 0.75778 0.0
C501 C 0.48272 0.98286 0.75773 0.0
C502 C 0.5806 0.96247 0.75768 0.0
C503 C 0.59116 0.02136 0.75763 0.0
H504 H 0.58422 0.63247 0.58791 0.0
H505 H 0.38911 0.53577 0.58808 0.0
H506 H 0.38761 0.44016 0.588 0.0
H507 H 0.44141 0.3834 0.58787 0.0
H508 H 0.63652 0.48009 0.58815 0.0
H509 H 0.63803 0.5757 0.58807 0.0
C510 C 0.54139 0.59051 0.58792 0.0
C511 C 0.48698 0.59152 0.588 0.0
C512 C 0.54069 0.53538 0.58796 0.0
C513 C 0.43183 0.53655 0.58806 0.0
C514 C 0.43081 0.48167 0.588 0.0
C515 C 0.48424 0.42536 0.58791 0.0
C516 C 0.53865 0.42435 0.58801 0.0
C517 C 0.48494 0.48048 0.58795 0.0
C518 C 0.5938 0.47931 0.58811 0.0
C519 C 0.59482 0.53419 0.58805 0.0
H520 H 0.13318 0.59693 0.91796 0.0
H521 H 0.06976 0.40609 0.91776 0.0
H522 H 0.96522 0.3844 0.91766 0.0
H523 H 0.89211 0.41954 0.91794 0.0
H524 H 0.95552 0.61038 0.91775 0.0
H525 H 0.06006 0.63208 0.91767 0.0
C526 C 0.09655 0.55053 0.9179 0.0
C527 C 0.10936 0.50319 0.91794 0.0
C528 C 0.03663 0.53839 0.91778 0.0
C529 C 0.06125 0.44339 0.91774 0.0
C530 C 1.00145 0.43094 0.9177 0.0
C531 C 0.92873 0.46594 0.91789 0.0
C532 C 0.91593 0.51328 0.91792 0.0
C533 C 0.98866 0.47809 0.91777 0.0
C534 C 0.96403 0.57308 0.91773 0.0
C535 C 0.02384 0.58553 0.9177 0.0
H536 H 0.48617 0.88905 0.2499 0.0
H537 H 0.35188 0.94385 0.24961 0.0
H538 H 0.43144 0.0495 0.24936 0.0
H539 H 0.5392 0.12661 0.24988 0.0
H540 H 0.6735 0.07182 0.24965 0.0
H541 H 0.59394 0.96617 0.2494 0.0
C542 C 0.47424 0.92406 0.24975 0.0
C543 C 0.413 0.90833 0.24985 0.0
C544 C 0.52029 0.98489 0.24953 0.0
C545 C 0.39854 0.95446 0.24953 0.0
C546 C 0.44406 0.01501 0.24942 0.0
C547 C 0.55114 0.09161 0.24974 0.0
C548 C 0.61238 0.10734 0.24985 0.0
C549 C 0.50509 0.03078 0.24952 0.0
C550 C 0.62684 0.06121 0.24956 0.0
C551 C 0.58132 1.00066 0.24945 0.0
loop_
_geom_bond_atom_site_label_1
_geom_bond_atom_site_label_2
_geom_bond_distance
_geom_bond_site_symmetry_2
_ccdc_geom_bond_type
C0 O2 1.247 . S
C0 O4 1.258 . S
C1 O8 1.247 . S
C1 O9 1.258 . S
O2 C0 1.247 . S
O2 Zn3 2.028 . S
Zn3 O2 2.028 . S
Zn3 O7 2.035 . S
Zn3 O9 2.035 . S
Zn3 O10 2.028 . S
O4 C0 1.258 . S
O4 Zn5 2.035 . S
Zn5 O4 2.035 . S
Zn5 O6 2.028 . S
Zn5 O8 2.028 . S
Zn5 O11 2.035 . S
O6 Zn5 2.028 . S
O6 C12 1.247 . S
O7 Zn3 2.035 . S
O7 C12 1.258 . S
O8 C1 1.247 . S
O8 Zn5 2.028 . S
O9 C1 1.258 . S
O9 Zn3 2.035 . S
O10 Zn3 2.028 . S
O10 C13 1.247 . S
O11 Zn5 2.035 . S
O11 C13 1.258 . S
C12 O6 1.247 . S
C12 O7 1.258 . S
C13 O10 1.247 . S
C13 O11 1.258 . S
C14 O16 1.247 . S
C14 O18 1.258 . S
C15 O22 1.247 . S
C15 O23 1.258 . S
O16 C14 1.247 . S
O16 Zn17 2.028 . S
Zn17 O16 2.028 . S
Zn17 O21 2.035 . S
Zn17 O23 2.035 . S
Zn17 O24 2.028 . S
O18 C14 1.258 . S
O18 Zn19 2.035 . S
Zn19 O18 2.035 . S
Zn19 O20 2.028 . S
Zn19 O22 2.028 . S
Zn19 O25 2.035 . S
O20 Zn19 2.028 . S
O20 C26 1.247 . S
O21 Zn17 2.035 . S
O21 C26 1.258 . S
O22 C15 1.247 . S
O22 Zn19 2.028 . S
O23 C15 1.258 . S
O23 Zn17 2.035 . S
O24 Zn17 2.028 . S
O24 C27 1.247 . S
O25 Zn19 2.035 . S
O25 C27 1.258 . S
C26 O20 1.247 . S
C26 O21 1.258 . S
C27 O24 1.247 . S
C27 O25 1.258 . S
C28 O30 1.247 . S
C28 O32 1.258 . S
C29 O36 1.247 . S
C29 O37 1.258 . S
O30 C28 1.247 . S
O30 Zn31 2.028 . S
Zn31 O30 2.028 . S
Zn31 O35 2.035 . S
Zn31 O37 2.035 . S
Zn31 O38 2.028 . S
O32 C28 1.258 . S
O32 Zn33 2.035 . S
Zn33 O32 2.035 . S
Zn33 O34 2.028 . S
Zn33 O36 2.028 . S
Zn33 O39 2.035 . S
O34 Zn33 2.028 . S
O34 C40 1.247 . S
O35 Zn31 2.035 . S
O35 C40 1.258 . S
O36 C29 1.247 . S
O36 Zn33 2.028 . S
O37 C29 1.258 . S
O37 Zn31 2.035 . S
O38 Zn31 2.028 . S
O38 C41 1.247 . S
O39 Zn33 2.035 . S
O39 C41 1.258 . S
C40 O34 1.247 . S
C40 O35 1.258 . S
C41 O38 1.247 . S
C41 O39 1.258 . S
C42 O44 1.247 . S
C42 O46 1.258 . S
C43 O50 1.247 . S
C43 O51 1.258 . S
O44 C42 1.247 . S
O44 Zn45 2.028 . S
Zn45 O44 2.028 . S
Zn45 O49 2.035 . S
Zn45 O51 2.035 . S
Zn45 O52 2.028 . S
O46 C42 1.258 . S
O46 Zn47 2.035 . S
Zn47 O46 2.035 . S
Zn47 O48 2.028 . S
Zn47 O50 2.028 . S
Zn47 O53 2.035 . S
O48 Zn47 2.028 . S
O48 C54 1.247 . S
O49 Zn45 2.035 . S
O49 C54 1.258 . S
O50 C43 1.247 . S
O50 Zn47 2.028 . S
O51 C43 1.258 . S
O51 Zn45 2.035 . S
O52 Zn45 2.028 . S
O52 C55 1.247 . S
O53 Zn47 2.035 . S
O53 C55 1.258 . S
C54 O48 1.247 . S
C54 O49 1.258 . S
C55 O52 1.247 . S
C55 O53 1.258 . S
C56 O58 1.247 . S
C56 O60 1.258 . S
C57 O64 1.247 . S
C57 O65 1.258 . S
O58 C56 1.247 . S
O58 Zn59 2.028 . S
Zn59 O58 2.028 . S
Zn59 O63 2.035 . S
Zn59 O65 2.035 . S
Zn59 O66 2.028 . S
O60 C56 1.258 . S
O60 Zn61 2.035 . S
Zn61 O60 2.035 . S
Zn61 O62 2.028 . S
Zn61 O64 2.028 . S
Zn61 O67 2.035 . S
O62 Zn61 2.028 . S
O62 C68 1.247 . S
O63 Zn59 2.035 . S
O63 C68 1.258 . S
O64 C57 1.247 . S
O64 Zn61 2.028 . S
O65 C57 1.258 . S
O65 Zn59 2.035 . S
O66 Zn59 2.028 . S
O66 C69 1.247 . S
O67 Zn61 2.035 . S
O67 C69 1.258 . S
C68 O62 1.247 . S
C68 O63 1.258 . S
C69 O66 1.247 . S
C69 O67 1.258 . S
C70 O72 1.247 . S
C70 O74 1.258 . S
C71 O78 1.247 . S
C71 O79 1.258 . S
O72 C70 1.247 . S
O72 Zn73 2.028 . S
Zn73 O72 2.028 . S
Zn73 O77 2.035 . S
Zn73 O79 2.035 . S
Zn73 O80 2.028 . S
O74 C70 1.258 . S
O74 Zn75 2.035 . S
Zn75 O74 2.035 . S
Zn75 O76 2.028 . S
Zn75 O78 2.028 . S
Zn75 O81 2.035 . S
O76 Zn75 2.028 . S
O76 C82 1.247 . S
O77 Zn73 2.035 . S
O77 C82 1.258 . S
O78 C71 1.247 . S
O78 Zn75 2.028 . S
O79 C71 1.258 . S
O79 Zn73 2.035 . S
O80 Zn73 2.028 . S
O80 C83 1.247 . S
O81 Zn75 2.035 . S
O81 C83 1.258 . S
C82 O76 1.247 . S
C82 O77 1.258 . S
C83 O80 1.247 . S
C83 O81 1.258 . S
C84 O86 1.247 . S
C84 O88 1.258 . S
C85 O92 1.247 . S
C85 O93 1.258 . S
O86 C84 1.247 . S
O86 Zn87 2.028 . S
Zn87 O86 2.028 . S
Zn87 O91 2.035 . S
Zn87 O93 2.035 . S
Zn87 O94 2.028 . S
O88 C84 1.258 . S
O88 Zn89 2.035 . S
Zn89 O88 2.035 . S
Zn89 O90 2.028 . S
Zn89 O92 2.028 . S
Zn89 O95 2.035 . S
O90 Zn89 2.028 . S
O90 C96 1.247 . S
O91 Zn87 2.035 . S
O91 C96 1.258 . S
O92 C85 1.247 . S
O92 Zn89 2.028 . S
O93 C85 1.258 . S
O93 Zn87 2.035 . S
O94 Zn87 2.028 . S
O94 C97 1.247 . S
O95 Zn89 2.035 . S
O95 C97 1.258 . S
C96 O90 1.247 . S
C96 O91 1.258 . S
C97 O94 1.247 . S
C97 O95 1.258 . S
C98 O100 1.247 . S
C98 O102 1.258 . S
C99 O106 1.247 . S
C99 O107 1.258 . S
O100 C98 1.247 . S
O100 Zn101 2.028 . S
Zn101 O100 2.028 . S
Zn101 O105 2.035 . S
Zn101 O107 2.035 . S
Zn101 O108 2.028 . S
O102 C98 1.258 . S
O102 Zn103 2.035 . S
Zn103 O102 2.035 . S
Zn103 O104 2.028 . S
Zn103 O106 2.028 . S
Zn103 O109 2.035 . S
O104 Zn103 2.028 . S
O104 C110 1.247 . S
O105 Zn101 2.035 . S
O105 C110 1.258 . S
O106 C99 1.247 . S
O106 Zn103 2.028 . S
O107 C99 1.258 . S
O107 Zn101 2.035 . S
O108 Zn101 2.028 . S
O108 C111 1.247 . S
O109 Zn103 2.035 . S
O109 C111 1.258 . S
C110 O104 1.247 . S
C110 O105 1.258 . S
C111 O108 1.247 . S
C111 O109 1.258 . S
C112 O114 1.247 . S
C112 O116 1.258 . S
C113 O120 1.247 . S
C113 O121 1.258 . S
O114 C112 1.247 . S
O114 Zn115 2.028 . S
Zn115 O114 2.028 . S
Zn115 O119 2.035 . S
Zn115 O121 2.035 . S
Zn115 O122 2.028 . S
O116 C112 1.258 . S
O116 Zn117 2.035 . S
Zn117 O116 2.035 . S
Zn117 O118 2.028 . S
Zn117 O120 2.028 . S
Zn117 O123 2.035 . S
O118 Zn117 2.028 . S
O118 C124 1.247 . S
O119 Zn115 2.035 . S
O119 C124 1.258 . S
O120 C113 1.247 . S
O120 Zn117 2.028 . S
O121 C113 1.258 . S
O121 Zn115 2.035 . S
O122 Zn115 2.028 . S
O122 C125 1.247 . S
O123 Zn117 2.035 . S
O123 C125 1.258 . S
C124 O118 1.247 . S
C124 O119 1.258 . S
C125 O122 1.247 . S
C125 O123 1.258 . S
C126 O128 1.247 . S
C126 O130 1.258 . S
C127 O134 1.247 . S
C127 O135 1.258 . S
O128 C126 1.247 . S
O128 Zn129 2.028 . S
Zn129 O128 2.028 . S
Zn129 O133 2.035 . S
Zn129 O135 2.035 . S
Zn129 O136 2.028 . S
O130 C126 1.258 . S
O130 Zn131 2.035 . S
Zn131 O130 2.035 . S
Zn131 O132 2.028 . S
Zn131 O134 2.028 . S
Zn131 O137 2.035 . S
O132 Zn131 2.028 . S
O132 C138 1.247 . S
O133 Zn129 2.035 . S
O133 C138 1.258 . S
O134 C127 1.247 . S
O134 Zn131 2.028 . S
O135 C127 1.258 . S
O135 Zn129 2.035 . S
O136 Zn129 2.028 . S
O136 C139 1.247 . S
O137 Zn131 2.035 . S
O137 C139 1.258 . S
C138 O132 1.247 . S
C138 O133 1.258 . S
C139 O136 1.247 . S
C139 O137 1.258 . S
C140 O142 1.247 . S
C140 O144 1.258 . S
C141 O148 1.247 . S
C141 O149 1.258 . S
O142 C140 1.247 . S
O142 Zn143 2.028 . S
Zn143 O142 2.028 . S
Zn143 O147 2.035 . S
Zn143 O149 2.035 . S
Zn143 O150 2.028 . S
O144 C140 1.258 . S
O144 Zn145 2.035 . S
Zn145 O144 2.035 . S
Zn145 O146 2.028 . S
Zn145 O148 2.028 . S
Zn145 O151 2.035 . S
O146 Zn145 2.028 . S
O146 C152 1.247 . S
O147 Zn143 2.035 . S
O147 C152 1.258 . S
O148 C141 1.247 . S
O148 Zn145 2.028 . S
O149 C141 1.258 . S
O149 Zn143 2.035 . S
O150 Zn143 2.028 . S
O150 C153 1.247 . S
O151 Zn145 2.035 . S
O151 C153 1.258 . S
C152 O146 1.247 . S
C152 O147 1.258 . S
C153 O150 1.247 . S
C153 O151 1.258 . S
C154 O156 1.247 . S
C154 O158 1.258 . S
C155 O162 1.247 . S
C155 O163 1.258 . S
O156 C154 1.247 . S
O156 Zn157 2.028 . S
Zn157 O156 2.028 . S
Zn157 O161 2.035 . S
Zn157 O163 2.035 . S
Zn157 O164 2.028 . S
O158 C154 1.258 . S
O158 Zn159 2.035 . S
Zn159 O158 2.035 . S
Zn159 O160 2.028 . S
Zn159 O162 2.028 . S
Zn159 O165 2.035 . S
O160 Zn159 2.028 . S
O160 C166 1.247 . S
O161 Zn157 2.035 . S
O161 C166 1.258 . S
O162 C155 1.247 . S
O162 Zn159 2.028 . S
O163 C155 1.258 . S
O163 Zn157 2.035 . S
O164 Zn157 2.028 . S
O164 C167 1.247 . S
O165 Zn159 2.035 . S
O165 C167 1.258 . S
C166 O160 1.247 . S
C166 O161 1.258 . S
C167 O164 1.247 . S
C167 O165 1.258 . S
H168 C174 0.930 . S
H169 C177 0.930 . S
H170 C178 0.930 . S
H171 C179 0.930 . S
H172 C182 0.930 . S
H173 C183 0.930 . S
C174 H168 0.930 . S
C174 C175 1.355 . S
C174 C176 1.415 . S
C175 C174 1.355 . S
C175 C177 1.419 . S
C176 C174 1.415 . S
C176 C181 1.425 1_556 S
C176 C183 1.409 1_556 S
C177 H169 0.930 . S
C177 C175 1.419 . S
C177 C178 1.362 . S
C178 H170 0.930 . S
C178 C177 1.362 . S
C178 C181 1.409 1_556 S
C179 H171 0.930 . S
C179 C180 1.355 . S
C179 C181 1.415 . S
C180 C179 1.355 . S
C180 C182 1.419 . S
C181 C176 1.425 1_554 S
C181 C178 1.409 1_554 S
C181 C179 1.415 . S
C182 H172 0.930 . S
C182 C180 1.419 . S
C182 C183 1.362 . S
C183 H173 0.930 . S
C183 C176 1.409 1_554 S
C183 C182 1.362 . S
H184 C190 0.930 . S
H185 C193 0.930 . S
H186 C194 0.930 . S
H187 C195 0.930 . S
H188 C198 0.930 . S
H189 C199 0.930 . S
C190 H184 0.930 . S
C190 C191 1.355 . S
C190 C192 1.415 . S
C191 C190 1.355 . S
C191 C193 1.419 . S
C192 C190 1.415 . S
C192 C197 1.425 . S
C192 C199 1.409 . S
C193 H185 0.930 . S
C193 C191 1.419 . S
C193 C194 1.362 . S
C194 H186 0.930 . S
C194 C193 1.362 . S
C194 C197 1.409 . S
C195 H187 0.930 . S
C195 C196 1.355 . S
C195 C197 1.415 . S
C196 C195 1.355 . S
C196 C198 1.419 . S
C197 C192 1.425 . S
C197 C194 1.409 . S
C197 C195 1.415 . S
C198 H188 0.930 . S
C198 C196 1.419 . S
C198 C199 1.362 . S
C199 H189 0.930 . S
C199 C192 1.409 . S
C199 C198 1.362 . S
H200 C206 0.930 . S
H201 C209 0.930 . S
H202 C210 0.930 . S
H203 C211 0.930 . S
H204 C214 0.930 . S
H205 C215 0.930 . S
C206 H200 0.930 . S
C206 C207 1.355 . S
C206 C208 1.415 . S
C207 C206 1.355 . S
C207 C209 1.419 . S
C208 C206 1.415 . S
C208 C213 1.425 . S
C208 C215 1.409 . S
C209 H201 0.930 . S
C209 C207 1.419 . S
C209 C210 1.362 . S
C210 H202 0.930 . S
C210 C209 1.362 . S
C210 C213 1.409 . S
C211 H203 0.930 . S
C211 C212 1.355 . S
C211 C213 1.415 . S
C212 C211 1.355 . S
C212 C214 1.419 . S
C213 C208 1.425 . S
C213 C210 1.409 . S
C213 C211 1.415 . S
C214 H204 0.930 . S
C214 C212 1.419 . S
C214 C215 1.362 . S
C215 H205 0.930 . S
C215 C208 1.409 . S
C215 C214 1.362 . S
H216 C222 0.930 . S
H217 C225 0.930 . S
H218 C226 0.930 . S
H219 C227 0.930 . S
H220 C230 0.930 . S
H221 C231 0.930 . S
C222 H216 0.930 . S
C222 C223 1.355 . S
C222 C224 1.415 . S
C223 C222 1.355 . S
C223 C225 1.419 . S
C224 C222 1.415 . S
C224 C229 1.425 1_554 S
C224 C231 1.409 1_554 S
C225 H217 0.930 . S
C225 C223 1.419 . S
C225 C226 1.362 . S
C226 H218 0.930 . S
C226 C225 1.362 . S
C226 C229 1.409 1_554 S
C227 H219 0.930 . S
C227 C228 1.355 . S
C227 C229 1.415 . S
C228 C227 1.355 . S
C228 C230 1.419 . S
C229 C224 1.425 1_556 S
C229 C226 1.409 1_556 S
C229 C227 1.415 . S
C230 H220 0.930 . S
C230 C228 1.419 . S
C230 C231 1.362 . S
C231 H221 0.930 . S
C231 C224 1.409 1_556 S
C231 C230 1.362 . S
H232 C238 0.930 . S
H233 C241 0.930 . S
H234 C242 0.930 . S
H235 C243 0.930 . S
H236 C246 0.930 . S
H237 C247 0.930 . S
C238 H232 0.930 . S
C238 C239 1.355 . S
C238 C240 1.415 . S
C239 C238 1.355 . S
C239 C241 1.419 . S
C240 C238 1.415 . S
C240 C245 1.425 . S
C240 C247 1.409 . S
C241 H233 0.930 . S
C241 C239 1.419 . S
C241 C242 1.362 . S
C242 H234 0.930 . S
C242 C241 1.362 . S
C242 C245 1.409 . S
C243 H235 0.930 . S
C243 C244 1.355 . S
C243 C245 1.415 . S
C244 C243 1.355 . S
C244 C246 1.419 . S
C245 C240 1.425 . S
C245 C242 1.409 . S
C245 C243 1.415 . S
C246 H236 0.930 . S
C246 C244 1.419 . S
C246 C247 1.362 . S
C247 H237 0.930 . S
C247 C240 1.409 . S
C247 C246 1.362 . S
H248 C254 0.930 . S
H249 C257 0.930 . S
H250 C258 0.930 . S
H251 C259 0.930 . S
H252 C262 0.930 . S
H253 C263 0.930 . S
C254 H248 0.930 . S
C254 C255 1.355 . S
C254 C256 1.415 . S
C255 C254 1.355 . S
C255 C257 1.419 . S
C256 C254 1.415 . S
C256 C261 1.425 . S
C256 C263 1.409 . S
C257 H249 0.930 . S
C257 C255 1.419 . S
C257 C258 1.362 . S
C258 H250 0.930 . S
C258 C257 1.362 . S
C258 C261 1.409 . S
C259 H251 0.930 . S
C259 C260 1.355 . S
C259 C261 1.415 . S
C260 C259 1.355 . S
C260 C262 1.419 . S
C261 C256 1.425 . S
C261 C258 1.409 . S
C261 C259 1.415 . S
C262 H252 0.930 . S
C262 C260 1.419 . S
C262 C263 1.362 . S
C263 H253 0.930 . S
C263 C256 1.409 . S
C263 C262 1.362 . S
H264 C270 0.930 . S
H265 C273 0.930 . S
H266 C274 0.930 . S
H267 C275 0.930 . S
H268 C278 0.930 . S
H269 C279 0.930 . S
C270 H264 0.930 . S
C270 C271 1.355 . S
C270 C272 1.415 . S
C271 C270 1.355 . S
C271 C273 1.419 . S
C272 C270 1.415 . S
C272 C277 1.425 . S
C272 C279 1.409 . S
C273 H265 0.930 . S
C273 C271 1.419 . S
C273 C274 1.362 . S
C274 H266 0.930 . S
C274 C273 1.362 . S
C274 C277 1.409 . S
C275 H267 0.930 . S
C275 C276 1.355 . S
C275 C277 1.415 . S
C276 C275 1.355 . S
C276 C278 1.419 . S
C277 C272 1.425 . S
C277 C274 1.409 . S
C277 C275 1.415 . S
C278 H268 0.930 . S
C278 C276 1.419 . S
C278 C279 1.362 . S
C279 H269 0.930 . S
C279 C272 1.409 . S
C279 C278 1.362 . S
H280 C286 0.930 . S
H281 C289 0.930 . S
H282 C290 0.930 . S
H283 C291 0.930 . S
H284 C294 0.930 . S
H285 C295 0.930 . S
C286 H280 0.930 . S
C286 C287 1.355 . S
C286 C288 1.415 . S
C287 C286 1.355 . S
C287 C289 1.419 . S
C288 C286 1.415 . S
C288 C293 1.425 . S
C288 C295 1.409 . S
C289 H281 0.930 . S
C289 C287 1.419 . S
C289 C290 1.362 . S
C290 H282 0.930 . S
C290 C289 1.362 . S
C290 C293 1.409 . S
C291 H283 0.930 . S
C291 C292 1.355 . S
C291 C293 1.415 . S
C292 C291 1.355 . S
C292 C294 1.419 . S
C293 C288 1.425 . S
C293 C290 1.409 . S
C293 C291 1.415 . S
C294 H284 0.930 . S
C294 C292 1.419 . S
C294 C295 1.362 . S
C295 H285 0.930 . S
C295 C288 1.409 . S
C295 C294 1.362 . S
H296 C302 0.930 . S
H297 C305 0.930 . S
H298 C306 0.930 . S
H299 C307 0.930 . S
H300 C310 0.930 . S
H301 C311 0.930 . S
C302 H296 0.930 . S
C302 C303 1.355 . S
C302 C304 1.415 . S
C303 C302 1.355 . S
C303 C305 1.419 . S
C304 C302 1.415 . S
C304 C309 1.425 . S
C304 C311 1.409 . S
C305 H297 0.930 . S
C305 C303 1.419 . S
C305 C306 1.362 . S
C306 H298 0.930 . S
C306 C305 1.362 . S
C306 C309 1.409 . S
C307 H299 0.930 . S
C307 C308 1.355 . S
C307 C309 1.415 . S
C308 C307 1.355 . S
C308 C310 1.419 . S
C309 C304 1.425 . S
C309 C306 1.409 . S
C309 C307 1.415 . S
C310 H300 0.930 . S
C310 C308 1.419 . S
C310 C311 1.362 . S
C311 H301 0.930 . S
C311 C304 1.409 . S
C311 C310 1.362 . S
H312 C318 0.930 . S
H313 C321 0.930 . S
H314 C322 0.930 . S
H315 C323 0.930 . S
H316 C326 0.930 . S
H317 C327 0.930 . S
C318 H312 0.930 . S
C318 C319 1.355 . S
C318 C320 1.415 . S
C319 C318 1.355 . S
C319 C321 1.419 . S
C320 C318 1.415 . S
C320 C325 1.425 . S
C320 C327 1.409 . S
C321 H313 0.930 . S
C321 C319 1.419 . S
C321 C322 1.362 . S
C322 H314 0.930 . S
C322 C321 1.362 . S
C322 C325 1.409 . S
C323 H315 0.930 . S
C323 C324 1.355 . S
C323 C325 1.415 . S
C324 C323 1.355 . S
C324 C326 1.419 . S
C325 C320 1.425 . S
C325 C322 1.409 . S
C325 C323 1.415 . S
C326 H316 0.930 . S
C326 C324 1.419 . S
C326 C327 1.362 . S
C327 H317 0.930 . S
C327 C320 1.409 . S
C327 C326 1.362 . S
H328 C334 0.930 . S
H329 C337 0.930 . S
H330 C338 0.930 . S
H331 C339 0.930 . S
H332 C342 0.930 . S
H333 C343 0.930 . S
C334 H328 0.930 . S
C334 C335 1.355 . S
C334 C336 1.415 . S
C335 C334 1.355 . S
C335 C337 1.419 . S
C336 C334 1.415 . S
C336 C341 1.425 . S
C336 C343 1.409 . S
C337 H329 0.930 . S
C337 C335 1.419 . S
C337 C338 1.362 . S
C338 H330 0.930 . S
C338 C337 1.362 . S
C338 C341 1.409 . S
C339 H331 0.930 . S
C339 C340 1.355 . S
C339 C341 1.415 . S
C340 C339 1.355 . S
C340 C342 1.419 . S
C341 C336 1.425 . S
C341 C338 1.409 . S
C341 C339 1.415 . S
C342 H332 0.930 . S
C342 C340 1.419 . S
C342 C343 1.362 . S
C343 H333 0.930 . S
C343 C336 1.409 . S
C343 C342 1.362 . S
H344 C350 0.930 . S
H345 C353 0.930 . S
H346 C354 0.930 . S
H347 C355 0.930 . S
H348 C358 0.930 . S
H349 C359 0.930 . S
C350 H344 0.930 . S
C350 C351 1.355 . S
C350 C352 1.415 . S
C351 C350 1.355 . S
C351 C353 1.419 . S
C352 C350 1.415 . S
C352 C357 1.425 . S
C352 C359 1.409 . S
C353 H345 0.930 . S
C353 C351 1.419 . S
C353 C354 1.362 . S
C354 H346 0.930 . S
C354 C353 1.362 . S
C354 C357 1.409 . S
C355 H347 0.930 . S
C355 C356 1.355 . S
C355 C357 1.415 . S
C356 C355 1.355 . S
C356 C358 1.419 . S
C357 C352 1.425 . S
C357 C354 1.409 . S
C357 C355 1.415 . S
C358 H348 0.930 . S
C358 C356 1.419 . S
C358 C359 1.362 . S
C359 H349 0.930 . S
C359 C352 1.409 . S
C359 C358 1.362 . S
H360 C366 0.930 . S
H361 C369 0.930 . S
H362 C370 0.930 . S
H363 C371 0.930 . S
H364 C374 0.930 . S
H365 C375 0.930 . S
C366 H360 0.930 . S
C366 C367 1.355 . S
C366 C368 1.415 . S
C367 C366 1.355 . S
C367 C369 1.419 . S
C368 C366 1.415 . S
C368 C373 1.425 1_655 S
C368 C375 1.409 1_655 S
C369 H361 0.930 . S
C369 C367 1.419 . S
C369 C370 1.362 . S
C370 H362 0.930 . S
C370 C369 1.362 . S
C370 C373 1.409 1_655 S
C371 H363 0.930 . S
C371 C372 1.355 . S
C371 C373 1.415 . S
C372 C371 1.355 . S
C372 C374 1.419 . S
C373 C368 1.425 1_455 S
C373 C370 1.409 1_455 S
C373 C371 1.415 . S
C374 H364 0.930 . S
C374 C372 1.419 . S
C374 C375 1.362 . S
C375 H365 0.930 . S
C375 C368 1.409 1_455 S
C375 C374 1.362 . S
H376 C382 0.930 . S
H377 C385 0.930 . S
H378 C386 0.930 . S
H379 C387 0.930 . S
H380 C390 0.930 . S
H381 C391 0.930 . S
C382 H376 0.930 . S
C382 C383 1.355 . S
C382 C384 1.415 . S
C383 C382 1.355 . S
C383 C385 1.419 . S
C384 C382 1.415 . S
C384 C389 1.425 1_545 S
C384 C391 1.409 1_545 S
C385 H377 0.930 . S
C385 C383 1.419 . S
C385 C386 1.362 . S
C386 H378 0.930 . S
C386 C385 1.362 . S
C386 C389 1.409 1_545 S
C387 H379 0.930 . S
C387 C388 1.355 . S
C387 C389 1.415 . S
C388 C387 1.355 . S
C388 C390 1.419 . S
C389 C384 1.425 1_565 S
C389 C386 1.409 1_565 S
C389 C387 1.415 . S
C390 H380 0.930 . S
C390 C388 1.419 . S
C390 C391 1.362 . S
C391 H381 0.930 . S
C391 C384 1.409 1_565 S
C391 C390 1.362 . S
H392 C398 0.930 . S
H393 C401 0.930 . S
H394 C402 0.930 . S
H395 C403 0.930 . S
H396 C406 0.930 . S
H397 C407 0.930 . S
C398 H392 0.930 . S
C398 C399 1.355 . S
C398 C400 1.415 . S
C399 C398 1.355 . S
C399 C401 1.419 . S
C400 C398 1.415 . S
C400 C405 1.425 . S
C400 C407 1.409 . S
C401 H393 0.930 . S
C401 C399 1.419 . S
C401 C402 1.362 . S
C402 H394 0.930 . S
C402 C401 1.362 . S
C402 C405 1.409 . S
C403 H395 0.930 . S
C403 C404 1.355 . S
C403 C405 1.415 . S
C404 C403 1.355 . S
C404 C406 1.419 . S
C405 C400 1.425 . S
C405 C402 1.409 . S
C405 C403 1.415 . S
C406 H396 0.930 . S
C406 C404 1.419 . S
C406 C407 1.362 . S
C407 H397 0.930 . S
C407 C400 1.409 . S
C407 C406 1.362 . S
H408 C414 0.930 . S
H409 C417 0.930 . S
H410 C418 0.930 . S
H411 C419 0.930 . S
H412 C422 0.930 . S
H413 C423 0.930 . S
C414 H408 0.930 . S
C414 C415 1.355 . S
C414 C416 1.415 . S
C415 C414 1.355 . S
C415 C417 1.419 . S
C416 C414 1.415 . S
C416 C421 1.425 1_545 S
C416 C423 1.409 1_545 S
C417 H409 0.930 . S
C417 C415 1.419 . S
C417 C418 1.362 . S
C418 H410 0.930 . S
C418 C417 1.362 . S
C418 C421 1.409 1_545 S
C419 H411 0.930 . S
C419 C420 1.355 . S
C419 C421 1.415 . S
C420 C419 1.355 . S
C420 C422 1.419 . S
C421 C416 1.425 1_565 S
C421 C418 1.409 1_565 S
C421 C419 1.415 . S
C422 H412 0.930 . S
C422 C420 1.419 . S
C422 C423 1.362 . S
C423 H413 0.930 . S
C423 C416 1.409 1_565 S
C423 C422 1.362 . S
H424 C430 0.930 . S
H425 C433 0.930 . S
H426 C434 0.930 . S
H427 C435 0.930 . S
H428 C438 0.930 . S
H429 C439 0.930 . S
C430 H424 0.930 . S
C430 C431 1.355 . S
C430 C432 1.415 . S
C431 C430 1.355 . S
C431 C433 1.419 . S
C432 C430 1.415 . S
C432 C437 1.425 . S
C432 C439 1.409 . S
C433 H425 0.930 . S
C433 C431 1.419 . S
C433 C434 1.362 . S
C434 H426 0.930 . S
C434 C433 1.362 . S
C434 C437 1.409 . S
C435 H427 0.930 . S
C435 C436 1.355 . S
C435 C437 1.415 . S
C436 C435 1.355 . S
C436 C438 1.419 . S
C437 C432 1.425 . S
C437 C434 1.409 . S
C437 C435 1.415 . S
C438 H428 0.930 . S
C438 C436 1.419 . S
C438 C439 1.362 . S
C439 H429 0.930 . S
C439 C432 1.409 . S
C439 C438 1.362 . S
H440 C446 0.930 . S
H441 C449 0.930 . S
H442 C450 0.930 . S
H443 C451 0.930 . S
H444 C454 0.930 . S
H445 C455 0.930 . S
C446 H440 0.930 . S
C446 C447 1.355 . S
C446 C448 1.415 . S
C447 C446 1.355 . S
C447 C449 1.419 . S
C448 C446 1.415 . S
C448 C453 1.425 1_455 S
C448 C455 1.409 1_455 S
C449 H441 0.930 . S
C449 C447 1.419 . S
C449 C450 1.362 . S
C450 H442 0.930 . S
C450 C449 1.362 . S
C450 C453 1.409 1_455 S
C451 H443 0.930 . S
C451 C452 1.355 . S
C451 C453 1.415 . S
C452 C451 1.355 . S
C452 C454 1.419 . S
C453 C448 1.425 1_655 S
C453 C450 1.409 1_655 S
C453 C451 1.415 . S
C454 H444 0.930 . S
C454 C452 1.419 . S
C454 C455 1.362 . S
C455 H445 0.930 . S
C455 C448 1.409 1_655 S
C455 C454 1.362 . S
H456 C462 0.930 . S
H457 C465 0.930 . S
H458 C466 0.930 . S
H459 C467 0.930 . S
H460 C470 0.930 . S
H461 C471 0.930 . S
C462 H456 0.930 . S
C462 C463 1.355 . S
C462 C464 1.415 . S
C463 C462 1.355 . S
C463 C465 1.419 . S
C464 C462 1.415 . S
C464 C469 1.425 . S
C464 C471 1.409 . S
C465 H457 0.930 . S
C465 C463 1.419 . S
C465 C466 1.362 . S
C466 H458 0.930 . S
C466 C465 1.362 . S
C466 C469 1.409 . S
C467 H459 0.930 . S
C467 C468 1.355 . S
C467 C469 1.415 . S
C468 C467 1.355 . S
C468 C470 1.419 . S
C469 C464 1.425 . S
C469 C466 1.409 . S
C469 C467 1.415 . S
C470 H460 0.930 . S
C470 C468 1.419 . S
C470 C471 1.362 . S
C471 H461 0.930 . S
C471 C464 1.409 . S
C471 C470 1.362 . S
H472 C478 0.930 . S
H473 C481 0.930 . S
H474 C482 0.930 . S
H475 C483 0.930 . S
H476 C486 0.930 . S
H477 C487 0.930 . S
C478 H472 0.930 . S
C478 C479 1.355 . S
C478 C480 1.415 . S
C479 C478 1.355 . S
C479 C481 1.419 . S
C480 C478 1.415 . S
C480 C485 1.425 1_655 S
C480 C487 1.409 1_655 S
C481 H473 0.930 . S
C481 C479 1.419 . S
C481 C482 1.362 . S
C482 H474 0.930 . S
C482 C481 1.362 . S
C482 C485 1.409 1_655 S
C483 H475 0.930 . S
C483 C484 1.355 . S
C483 C485 1.415 . S
C484 C483 1.355 . S
C484 C486 1.419 . S
C485 C480 1.425 1_455 S
C485 C482 1.409 1_455 S
C485 C483 1.415 . S
C486 H476 0.930 . S
C486 C484 1.419 . S
C486 C487 1.362 . S
C487 H477 0.930 . S
C487 C480 1.409 1_455 S
C487 C486 1.362 . S
H488 C494 0.930 . S
H489 C497 0.930 . S
H490 C498 0.930 . S
H491 C499 0.930 . S
H492 C502 0.930 . S
H493 C503 0.930 . S
C494 H488 0.930 . S
C494 C495 1.355 . S
C494 C496 1.415 . S
C495 C494 1.355 . S
C495 C497 1.419 . S
C496 C494 1.415 . S
C496 C501 1.425 1_545 S
C496 C503 1.409 1_545 S
C497 H489 0.930 . S
C497 C495 1.419 . S
C497 C498 1.362 . S
C498 H490 0.930 . S
C498 C497 1.362 . S
C498 C501 1.409 1_545 S
C499 H491 0.930 . S
C499 C500 1.355 . S
C499 C501 1.415 . S
C500 C499 1.355 . S
C500 C502 1.419 . S
C501 C496 1.425 1_565 S
C501 C498 1.409 1_565 S
C501 C499 1.415 . S
C502 H492 0.930 . S
C502 C500 1.419 . S
C502 C503 1.362 . S
C503 H493 0.930 . S
C503 C496 1.409 1_565 S
C503 C502 1.362 . S
H504 C510 0.930 . S
H505 C513 0.930 . S
H506 C514 0.930 . S
H507 C515 0.930 . S
H508 C518 0.930 . S
H509 C519 0.930 . S
C510 H504 0.930 . S
C510 C511 1.355 . S
C510 C512 1.415 . S
C511 C510 1.355 . S
C511 C513 1.419 . S
C512 C510 1.415 . S
C512 C517 1.425 . S
C512 C519 1.409 . S
C513 H505 0.930 . S
C513 C511 1.419 . S
C513 C514 1.362 . S
C514 H506 0.930 . S
C514 C513 1.362 . S
C514 C517 1.409 . S
C515 H507 0.930 . S
C515 C516 1.355 . S
C515 C517 1.415 . S
C516 C515 1.355 . S
C516 C518 1.419 . S
C517 C512 1.425 . S
C517 C514 1.409 . S
C517 C515 1.415 . S
C518 H508 0.930 . S
C518 C516 1.419 . S
C518 C519 1.362 . S
C519 H509 0.930 . S
C519 C512 1.409 . S
C519 C518 1.362 . S
H520 C526 0.930 . S
H521 C529 0.930 . S
H522 C530 0.930 1_655 S
H523 C531 0.930 . S
H524 C534 0.930 . S
H525 C535 0.930 1_455 S
C526 H520 0.930 . S
C526 C527 1.355 . S
C526 C528 1.415 . S
C527 C526 1.355 . S
C527 C529 1.419 . S
C528 C526 1.415 . S
C528 C533 1.425 1_455 S
C528 C535 1.409 1_455 S
C529 H521 0.930 . S
C529 C527 1.419 . S
C529 C530 1.362 . S
C530 H522 0.930 1_455 S
C530 C529 1.362 . S
C530 C533 1.409 1_455 S
C531 H523 0.930 . S
C531 C532 1.355 . S
C531 C533 1.415 . S
C532 C531 1.355 . S
C532 C534 1.419 . S
C533 C528 1.425 1_655 S
C533 C530 1.409 1_655 S
C533 C531 1.415 . S
C534 H524 0.930 . S
C534 C532 1.419 . S
C534 C535 1.362 . S
C535 H525 0.930 1_655 S
C535 C528 1.409 1_655 S
C535 C534 1.362 . S
H536 C542 0.930 . S
H537 C545 0.930 . S
H538 C546 0.930 1_545 S
H539 C547 0.930 . S
H540 C550 0.930 . S
H541 C551 0.930 1_565 S
C542 H536 0.930 . S
C542 C543 1.355 . S
C542 C544 1.415 . S
C543 C542 1.355 . S
C543 C545 1.419 . S
C544 C542 1.415 . S
C544 C549 1.425 1_565 S
C544 C551 1.409 1_565 S
C545 H537 0.930 . S
C545 C543 1.419 . S
C545 C546 1.362 . S
C546 H538 0.930 1_565 S
C546 C545 1.362 . S
C546 C549 1.409 1_565 S
C547 H539 0.930 . S
C547 C548 1.355 . S
C547 C549 1.415 . S
C548 C547 1.355 . S
C548 C550 1.419 . S
C549 C544 1.425 1_545 S
C549 C546 1.409 1_545 S
C549 C547 1.415 . S
C550 H540 0.930 . S
C550 C548 1.419 . S
C550 C551 1.362 . S
C551 H541 0.930 1_545 S
C551 C544 1.409 1_545 S
C551 C550 1.362 . S
C175 C141 1.581 . S
C180 C12 1.571 . S
C191 C15 1.573 . S
C196 C154 1.577 . S
C207 C29 1.584 . S
C212 C96 1.601 . S
C223 C43 1.579 . S
C228 C99 1.596 . S
C239 C112 1.572 . S
C244 C57 1.577 . S
C255 C83 1.582 . S
C260 C126 1.599 . S
C271 C113 1.605 . S
C276 C13 1.605 . S
C287 C14 1.629 . S
C292 C127 1.637 . S
C303 C28 1.637 . S
C308 C140 1.630 . S
C319 C42 1.607 . S
C324 C155 1.604 . S
C335 C97 1.637 . S
C340 C56 1.627 . S
C351 C98 1.633 . S
C356 C82 1.637 . S
C367 C55 1.393 . S
C372 C0 1.400 . S
C383 C27 1.393 . S
C388 C69 1.398 . S
C399 C71 1.401 . S
C404 C41 1.393 . S
C415 C138 1.424 . S
C420 C84 1.409 . S
C431 C153 1.441 . S
C436 C111 1.441 . S
C447 C124 1.435 . S
C452 C166 1.442 . S
C463 C54 1.791 . S
C468 C1 1.797 . S
C479 C26 1.795 . S
C484 C68 1.787 . S
C495 C70 1.762 . S
C500 C40 1.771 . S
C511 C85 1.796 . S
C516 C139 1.797 . S
C527 C152 1.760 . S
C532 C110 1.760 . S
C543 C125 1.762 . S
C548 C167 1.766 . S
