# Generated by pormake.
# Topology snl, (6)-cn, num edge types: 1
# Building blocks:
#     Node 0, Type 0, BuildingBlock: LEVNOQ01_clean_sbu_1, # of connection points: 6
#     Node 1, Type 0, BuildingBlock: LEVNOQ01_clean_sbu_1, # of connection points: 6
#     Node 2, Type 0, BuildingBlock: LEVNOQ01_clean_sbu_1, # of connection points: 6
#     Node 3, Type 0, BuildingBlock: LEVNOQ01_clean_sbu_1, # of connection points: 6
#     Node 4, Type 0, BuildingBlock: LEVNOQ01_clean_sbu_1, # of connection points: 6
#     Node 5, Type 0, BuildingBlock: LEVNOQ01_clean_sbu_1, # of connection points: 6
#     Node 6, Type 0, BuildingBlock: LEVNOQ01_clean_sbu_1, # of connection points: 6
#     Node 7, Type 0, BuildingBlock: LEVNOQ01_clean_sbu_1, # of connection points: 6
#     Node 8, Type 0, BuildingBlock: LEVNOQ01_clean_sbu_1, # of connection points: 6
#     Node 9, Type 0, BuildingBlock: LEVNOQ01_clean_sbu_1, # of connection points: 6
#     Node 10, Type 0, BuildingBlock: LEVNOQ01_clean_sbu_1, # of connection points: 6
#     Node 11, Type 0, BuildingBlock: LEVNOQ01_clean_sbu_1, # of connection points: 6
#     Node 12, Type 0, BuildingBlock: LEVNOQ01_clean_sbu_1, # of connection points: 6
#     Node 13, Type 0, BuildingBlock: LEVNOQ01_clean_sbu_1, # of connection points: 6
#     Node 14, Type 0, BuildingBlock: LEVNOQ01_clean_sbu_1, # of connection points: 6
#     Node 15, Type 0, BuildingBlock: LEVNOQ01_clean_sbu_1, # of connection points: 6
#     Edge 16, Type (0, 0), None
#     Edge 17, Type (0, 0), None
#     Edge 18, Type (0, 0), None
#     Edge 19, Type (0, 0), None
#     Edge 20, Type (0, 0), None
#     Edge 21, Type (0, 0), None
#     Edge 22, Type (0, 0), None
#     Edge 23, Type (0, 0), None
#     Edge 24, Type (0, 0), None
#     Edge 25, Type (0, 0), None
#     Edge 26, Type (0, 0), None
#     Edge 27, Type (0, 0), None
#     Edge 28, Type (0, 0), None
#     Edge 29, Type (0, 0), None
#     Edge 30, Type (0, 0), None
#     Edge 31, Type (0, 0), None
#     Edge 32, Type (0, 0), None
#     Edge 33, Type (0, 0), None
#     Edge 34, Type (0, 0), None
#     Edge 35, Type (0, 0), None
#     Edge 36, Type (0, 0), None
#     Edge 37, Type (0, 0), None
#     Edge 38, Type (0, 0), None
#     Edge 39, Type (0, 0), None
#     Edge 40, Type (0, 0), None
#     Edge 41, Type (0, 0), None
#     Edge 42, Type (0, 0), None
#     Edge 43, Type (0, 0), None
#     Edge 44, Type (0, 0), None
#     Edge 45, Type (0, 0), None
#     Edge 46, Type (0, 0), None
#     Edge 47, Type (0, 0), None
#     Edge 48, Type (0, 0), None
#     Edge 49, Type (0, 0), None
#     Edge 50, Type (0, 0), None
#     Edge 51, Type (0, 0), None
#     Edge 52, Type (0, 0), None
#     Edge 53, Type (0, 0), None
#     Edge 54, Type (0, 0), None
#     Edge 55, Type (0, 0), None
#     Edge 56, Type (0, 0), None
#     Edge 57, Type (0, 0), None
#     Edge 58, Type (0, 0), None
#     Edge 59, Type (0, 0), None
#     Edge 60, Type (0, 0), None
#     Edge 61, Type (0, 0), None
#     Edge 62, Type (0, 0), None
#     Edge 63, Type (0, 0), None
# Relax obj value: 0.060
# Max RMSD: 0.117
# Mean RMSD: 0.108
data_MOF--net-snl--node1-LEVNOQ01_clean_sbu_1--edge1-none
_symmetry_space_group_name_H-M    P1
_symmetry_Int_Tables_number       1
_symmetry_cell_setting            triclinic
loop_
_symmetry_equiv_pos_as_xyz
'x, y, z'
_cell_length_a     29.551773
_cell_length_b     29.236722
_cell_length_c     8.0343283
_cell_angle_alpha  88.810631
_cell_angle_beta   87.061111
_cell_angle_gamma 89.577197
loop_
_atom_site_label
_atom_site_type_symbol
_atom_site_fract_x
_atom_site_fract_y
_atom_site_fract_z
_atom_type_partial_charge
O0 O 0.09123 0.65183 0.51429 0.0
Mg1 Mg 0.06257 0.67126 0.28612 0.0
O2 O 0.12146 0.59052 0.39626 0.0
Mg3 Mg 0.11537 0.60604 0.10938 0.0
O4 O 0.03843 0.62624 0.12587 0.0
O5 O -0.00495 0.67138 0.29481 0.0
O6 O 0.11334 0.61887 0.821 0.0
O7 O 0.08627 0.53345 0.04999 0.0
Mg8 Mg 0.18868 0.53359 0.89979 0.0
O9 O 0.18639 0.58091 0.07899 0.0
O10 O 0.16028 0.5689 0.69104 0.0
O11 O 0.14334 0.48535 0.02327 0.0
O12 O 0.25004 0.54559 0.01896 0.0
C13 C 0.12988 0.72192 0.13943 0.0
C14 C 0.11373 0.61506 0.52488 0.0
C15 C -0.00077 0.64348 0.17257 0.0
C16 C 0.13044 0.60061 0.68771 0.0
C17 C 0.10166 0.49404 0.00787 0.0
C18 C 0.22637 0.57043 0.12138 0.0
O19 O 0.08757 0.72645 0.14633 0.0
O20 O 0.14687 0.68148 0.14963 0.0
O21 O 0.58026 0.84467 0.70301 0.0
Mg22 Mg 0.59554 0.8311 0.454 0.0
O23 O 0.62375 0.89642 0.57847 0.0
Mg24 Mg 0.61869 0.88108 0.28602 0.0
O25 O 0.63421 0.79808 0.27856 0.0
O26 O 0.65084 0.79024 0.53542 0.0
O27 O 0.61405 0.8757 -6e-05 0.0
O28 O 0.69684 0.89636 0.24536 0.0
Mg29 Mg 0.63282 0.9818 0.0719 0.0
O30 O 0.60411 0.95516 0.28272 0.0
O31 O 0.60936 0.94442 0.87387 0.0
O32 O 0.7024 0.96483 0.11271 0.0
O33 O 0.59619 0.02771 0.23257 0.0
C34 C 0.51563 0.83584 0.31484 0.0
C35 C 0.60405 0.87979 0.71111 0.0
C36 C 0.64524 0.77091 0.39773 0.0
C37 C 0.60919 0.90107 0.87036 0.0
C38 C 0.72039 0.92925 0.17714 0.0
C39 C 0.59667 -0.0049 0.34164 0.0
O40 O 0.53445 0.80287 0.38778 0.0
O41 O 0.53818 0.8723 0.28487 0.0
O42 O 0.40866 0.33769 0.20809 0.0
Mg43 Mg 0.40105 0.31366 0.45618 0.0
O44 O 0.35646 0.38211 0.31813 0.0
Mg45 Mg 0.36315 0.36835 0.60707 0.0
O46 O 0.34558 0.28549 0.59958 0.0
O47 O 0.38055 0.2557 0.37413 0.0
O48 O 0.36811 0.36171 0.89932 0.0
O49 O 0.28466 0.38202 0.64374 0.0
Mg50 Mg 0.3458 0.46875 0.80942 0.0
O51 O 0.37629 0.44285 0.6049 0.0
O52 O 0.36917 0.43098 0.01372 0.0
O53 O 0.27689 0.4507 0.76378 0.0
O54 O 0.38319 0.51523 0.64536 0.0
C55 C 0.4729 0.33223 0.615 0.0
C56 C 0.37882 0.36772 0.1899 0.0
C57 C 0.35245 0.25121 0.49924 0.0
C58 C 0.37169 0.38768 0.02513 0.0
C59 C 0.26005 0.41477 0.70413 0.0
C60 C 0.38308 0.48292 0.54036 0.0
O61 O 0.46099 0.29456 0.56078 0.0
O62 O 0.44483 0.36557 0.61629 0.0
O63 O 0.88307 0.16329 0.32808 0.0
Mg64 Mg 0.90614 0.19731 0.53365 0.0
O65 O 0.85272 0.10425 0.47311 0.0
Mg66 Mg 0.85979 0.11635 0.75817 0.0
O67 O 0.92965 0.15089 0.71239 0.0
O68 O 0.97391 0.202 0.57625 0.0
O69 O 0.8633 0.12551 0.04171 0.0
O70 O 0.89762 0.04603 0.81144 0.0
Mg71 Mg 0.79139 0.03713 -0.01361 0.0
O72 O 0.79159 0.08645 0.81025 0.0
O73 O 0.81753 0.07586 0.18495 0.0
O74 O 0.84122 -0.00185 0.84288 0.0
O75 O 0.72807 0.0524 0.87551 0.0
C76 C 0.83169 0.2271 0.74929 0.0
C77 C 0.86156 0.12595 0.3351 0.0
C78 C 0.96901 0.16996 0.68826 0.0
C79 C 0.84621 0.10836 0.17896 0.0
C80 C 0.88212 0.00751 0.86766 0.0
C81 C 0.75045 0.08003 0.77657 0.0
O82 O 0.86253 0.2449 0.65476 0.0
O83 O 0.82108 0.18558 0.72573 0.0
O84 O 0.10885 0.30958 0.25232 0.0
Mg85 Mg 0.10846 0.26894 0.04809 0.0
O86 O 0.1108 0.37257 0.09607 0.0
Mg87 Mg 0.11079 0.36115 0.81052 0.0
O88 O 0.12667 0.28151 0.8006 0.0
O89 O 0.1803 0.27441 -0.0273 0.0
O90 O 0.10873 0.35607 0.52768 0.0
O91 O 0.18809 0.37996 0.76695 0.0
Mg92 Mg 0.12105 0.46013 0.58544 0.0
O93 O 0.09309 0.43623 0.80437 0.0
O94 O 0.10106 0.42142 0.38364 0.0
O95 O 0.19128 0.44762 0.62865 0.0
O96 O 0.08367 0.50797 0.7319 0.0
C97 C 0.01493 0.30976 0.93209 0.0
C98 C 0.10809 0.35241 0.23814 0.0
C99 C 0.16 0.25738 0.85247 0.0
C100 C 0.10508 0.37822 0.39051 0.0
C101 C 0.21051 0.41331 0.69693 0.0
C102 C 0.0851 0.47766 0.8502 0.0
O103 O 0.03794 0.27879 0.00356 0.0
O104 O 0.03393 0.34348 0.85238 0.0
O105 O 0.89646 0.83106 0.67568 0.0
Mg106 Mg 0.91173 0.81919 0.92297 0.0
O107 O 0.87393 0.89355 0.80385 0.0
Mg108 Mg 0.87114 0.88013 0.09442 0.0
O109 O 0.85255 0.80051 0.07652 0.0
O110 O 0.90651 0.7528 -0.01498 0.0
O111 O 0.86906 0.87079 0.38213 0.0
O112 O 0.79353 0.89727 0.11094 0.0
Mg113 Mg 0.85718 0.97871 0.305 0.0
O114 O 0.88698 0.95413 0.09743 0.0
O115 O 0.88088 0.93783 0.5014 0.0
O116 O 0.78779 0.96197 0.25811 0.0
O117 O 0.89472 0.02617 0.14488 0.0
C118 C 0.98425 0.85017 0.0827 0.0
C119 C 0.88209 0.87169 0.66964 0.0
C120 C 0.86709 0.75879 0.05478 0.0
C121 C 0.87678 0.89461 0.50929 0.0
C122 C 0.76992 0.92883 0.18401 0.0
C123 C 0.89507 -0.00556 0.0371 0.0
O124 O 0.98188 0.82531 0.95845 0.0
O125 O 0.94818 0.86932 0.13918 0.0
O126 O 0.39105 0.62691 0.84416 0.0
Mg127 Mg 0.39652 0.67223 0.03022 0.0
O128 O 0.3337 0.59839 0.00183 0.0
Mg129 Mg 0.34541 0.60462 0.28949 0.0
O130 O 0.41521 0.63751 0.24512 0.0
O131 O 0.46099 0.68546 0.09978 0.0
O132 O 0.35216 0.60778 0.56971 0.0
O133 O 0.38164 0.53241 0.30874 0.0
Mg134 Mg 0.27657 0.52508 0.50982 0.0
O135 O 0.27701 0.57584 0.33925 0.0
O136 O 0.30251 0.56228 0.71342 0.0
O137 O 0.32541 0.4854 0.36268 0.0
O138 O 0.21425 0.53926 0.39171 0.0
C139 C 0.31795 0.71205 0.21455 0.0
C140 C 0.354 0.60566 0.85919 0.0
C141 C 0.45467 0.65605 0.22036 0.0
C142 C 0.33394 0.59204 0.70678 0.0
C143 C 0.36699 0.49462 0.37414 0.0
C144 C 0.23712 0.5673 0.29581 0.0
O145 O 0.33162 0.70496 0.06609 0.0
O146 O 0.31456 0.67773 0.31381 0.0
O147 O 0.58248 0.15018 0.04279 0.0
Mg148 Mg 0.54464 0.17054 0.84674 0.0
O149 O 0.63002 0.10647 0.89455 0.0
Mg150 Mg 0.62105 0.11791 0.60909 0.0
O151 O 0.54531 0.14057 0.61701 0.0
O152 O 0.49796 0.1185 0.82012 0.0
O153 O 0.61894 0.12712 0.32351 0.0
O154 O 0.59412 0.04378 0.56438 0.0
Mg155 Mg 0.69739 0.04969 0.39269 0.0
O156 O 0.69473 0.09555 0.57831 0.0
O157 O 0.67061 0.08413 0.18352 0.0
O158 O 0.65389 0.00024 0.51936 0.0
O159 O 0.75944 0.06403 0.49477 0.0
C160 C 0.62071 0.23014 0.69492 0.0
C161 C 0.61624 0.12391 0.03263 0.0
C162 C 0.5082 0.12015 0.66388 0.0
C163 C 0.63772 0.11241 0.18725 0.0
C164 C 0.61174 0.00689 0.50676 0.0
C165 C 0.73621 0.08599 0.60731 0.0
O166 O 0.57938 0.22775 0.74743 0.0
O167 O 0.64364 0.19477 0.64746 0.0
O168 O 0.86599 0.30197 0.34132 0.0
Mg169 Mg 0.88171 0.26042 0.13749 0.0
O170 O 0.85753 0.36692 0.19478 0.0
Mg171 Mg 0.86191 0.35687 0.9053 0.0
O172 O 0.84456 0.28337 0.94998 0.0
O173 O 0.83912 0.21201 0.03451 0.0
O174 O 0.86536 0.34627 0.6245 0.0
O175 O 0.78378 0.37071 0.85597 0.0
Mg176 Mg 0.84284 0.45887 0.69453 0.0
O177 O 0.88191 0.43175 0.86497 0.0
O178 O 0.85246 0.41252 0.4903 0.0
O179 O 0.78404 0.44512 0.85181 0.0
O180 O 0.88803 0.5046 0.80374 0.0
C181 C 0.96519 0.30698 0.95751 0.0
C182 C 0.86042 0.34498 0.33368 0.0
C183 C 0.83267 0.24232 0.92012 0.0
C184 C 0.85937 0.36947 0.49087 0.0
C185 C 0.76428 0.40851 0.81877 0.0
C186 C 0.89038 0.47242 0.91386 0.0
O187 O 0.94919 0.27179 0.03581 0.0
O188 O 0.93981 0.34039 0.91403 0.0
O189 O 0.39765 0.13309 0.18385 0.0
Mg190 Mg 0.39548 0.17438 0.38694 0.0
O191 O 0.35436 0.08408 0.32956 0.0
Mg192 Mg 0.35864 0.09569 0.6166 0.0
O193 O 0.35376 0.1765 0.60846 0.0
O194 O 0.32332 0.19081 0.37572 0.0
O195 O 0.36341 0.10066 0.90304 0.0
O196 O 0.27995 0.08614 0.65346 0.0
Mg197 Mg 0.33791 -0.00447 0.83802 0.0
O198 O 0.36918 0.02244 0.63381 0.0
O199 O 0.36011 0.03296 0.03892 0.0
O200 O 0.2707 0.01663 0.77713 0.0
O201 O 0.37773 0.95037 0.6802 0.0
C202 C 0.46812 0.12508 0.56521 0.0
C203 C 0.37287 0.09844 0.19141 0.0
C204 C 0.33178 0.20521 0.51878 0.0
C205 C 0.36464 0.07607 0.0367 0.0
C206 C 0.25479 0.0533 0.71254 0.0
C207 C 0.37922 0.98348 0.57363 0.0
O208 O 0.46006 0.16328 0.49414 0.0
O209 O 0.43601 0.0976 0.60275 0.0
O210 O 0.5623 0.65152 0.75014 0.0
Mg211 Mg 0.56325 0.67324 0.50313 0.0
O212 O 0.60215 0.59715 0.62908 0.0
Mg213 Mg 0.6005 0.6114 0.33777 0.0
O214 O 0.6215 0.69177 0.34899 0.0
O215 O 0.58424 0.7352 0.53875 0.0
O216 O 0.59849 0.61821 0.04749 0.0
O217 O 0.67765 0.59373 0.29846 0.0
Mg218 Mg 0.60927 0.51041 0.1296 0.0
O219 O 0.58533 0.53847 0.33932 0.0
O220 O 0.5827 0.55061 0.93702 0.0
O221 O 0.67873 0.52974 0.14626 0.0
O222 O 0.58076 0.46536 0.32264 0.0
C223 C 0.49037 0.65085 0.33762 0.0
C224 C 0.58477 0.61525 0.76078 0.0
C225 C 0.61613 0.73052 0.42615 0.0
C226 C 0.58926 0.59349 0.92356 0.0
C227 C 0.6988 0.56274 0.21293 0.0
C228 C 0.58419 0.49977 0.41705 0.0
O229 O 0.49999 0.68567 0.41627 0.0
O230 O 0.52049 0.61989 0.31461 0.0
O231 O 0.08753 0.83387 0.56225 0.0
Mg232 Mg 0.06899 0.79182 0.37632 0.0
O233 O 0.13676 0.87311 0.39588 0.0
Mg234 Mg 0.12792 0.86535 0.10648 0.0
O235 O 0.05992 0.82782 0.14559 0.0
O236 O 0.00762 0.82801 0.34408 0.0
O237 O 0.12215 0.86204 0.82909 0.0
O238 O 0.09009 0.93717 0.08194 0.0
Mg239 Mg 0.19474 0.94694 0.88989 0.0
O240 O 0.19482 0.89644 0.06178 0.0
O241 O 0.16854 0.91027 0.68386 0.0
O242 O 0.14439 0.98716 0.02805 0.0
O243 O 0.25719 0.93344 0.01299 0.0
C244 C 0.15433 0.76202 0.19323 0.0
C245 C 0.1199 0.86185 0.54095 0.0
C246 C 0.02042 0.84133 0.19724 0.0
C247 C 0.13852 0.87902 0.69159 0.0
C248 C 0.10294 0.97637 0.0218 0.0
C249 C 0.23457 0.90469 0.10657 0.0
O250 O 0.1403 0.77605 0.33385 0.0
O251 O 0.16223 0.79298 0.08327 0.0
O252 O 0.88455 0.6412 0.67674 0.0
Mg253 Mg 0.88301 0.66776 0.9072 0.0
O254 O 0.84783 0.58844 0.82532 0.0
Mg255 Mg 0.85298 0.60102 0.11416 0.0
O256 O 0.84403 0.68319 0.11687 0.0
O257 O 0.83194 0.71677 0.87476 0.0
O258 O 0.8564 0.60635 0.39636 0.0
O259 O 0.77385 0.59099 0.15346 0.0
Mg260 Mg 0.82946 0.50179 0.32979 0.0
O261 O 0.86589 0.52513 0.12711 0.0
O262 O 0.84893 0.53938 0.53302 0.0
O263 O 0.76314 0.52122 0.2714 0.0
O264 O 0.86769 0.45256 0.19259 0.0
C265 C 0.9602 0.6387 0.07263 0.0
C266 C 0.86282 0.60473 0.68473 0.0
C267 C 0.83602 0.72047 0.03143 0.0
C268 C 0.85508 0.58219 0.53055 0.0
C269 C 0.74801 0.55889 0.21401 0.0
C270 C 0.87824 0.48434 0.08662 0.0
O271 O 0.94849 0.67346 -0.0113 0.0
O272 O 0.9318 0.60726 0.11181 0.0
O273 O 0.06577 0.14605 0.20927 0.0
Mg274 Mg 0.08143 0.18881 0.00374 0.0
O275 O 0.1088 0.09436 0.08334 0.0
Mg276 Mg 0.10545 0.10631 0.79384 0.0
O277 O 0.12438 0.18563 0.7876 0.0
O278 O 0.1527 0.19415 0.02825 0.0
O279 O 0.10049 0.1119 0.50366 0.0
O280 O 0.18252 0.0883 0.76177 0.0
Mg281 Mg 0.11763 0.00612 0.58998 0.0
O282 O 0.08919 0.03101 0.80156 0.0
O283 O 0.09382 0.0439 0.38506 0.0
O284 O 0.18735 0.02111 0.63107 0.0
O285 O 0.0826 0.95841 0.75319 0.0
C286 C 0.00678 0.1612 0.79612 0.0
C287 C 0.08865 0.10975 0.2149 0.0
C288 C 0.15261 0.20673 0.87564 0.0
C289 C 0.09438 0.08728 0.37647 0.0
C290 C 0.20566 0.05525 0.69722 0.0
C291 C 0.08375 -0.00999 0.86177 0.0
O292 O 0.02512 0.19591 0.85498 0.0
O293 O 0.02677 0.12228 0.79754 0.0
O294 O 0.57473 0.37344 0.08527 0.0
Mg295 Mg 0.57784 0.3365 0.86859 0.0
O296 O 0.63915 0.38449 0.94275 0.0
Mg297 Mg 0.62429 0.3813 0.65504 0.0
O298 O 0.54646 0.36274 0.66023 0.0
O299 O 0.51882 0.30568 0.82796 0.0
O300 O 0.61697 0.38152 0.37286 0.0
O301 O 0.59896 0.45743 0.65872 0.0
Mg302 Mg 0.69583 0.44714 0.44996 0.0
O303 O 0.69885 0.4018 0.64759 0.0
O304 O 0.67479 0.41477 0.23183 0.0
O305 O 0.65195 0.5011 0.54174 0.0
O306 O 0.75951 0.43749 0.54348 0.0
C307 C 0.64204 0.27381 0.72955 0.0
C308 C 0.61615 0.38374 0.08125 0.0
C309 C 0.51443 0.3341 0.70511 0.0
C310 C 0.63782 0.39289 0.23585 0.0
C311 C 0.61007 0.49247 0.56795 0.0
C312 C 0.74113 0.4117 0.65978 0.0
O313 O 0.63166 0.28757 0.87371 0.0
O314 O 0.64332 0.30399 0.61437 0.0
O315 O 0.3791 0.81519 0.8978 0.0
Mg316 Mg 0.40915 0.79733 0.12873 0.0
O317 O 0.35081 0.87875 0.00621 0.0
Mg318 Mg 0.35749 0.8647 0.29293 0.0
O319 O 0.43576 0.84544 0.27286 0.0
O320 O 0.47701 0.79512 0.11839 0.0
O321 O 0.35961 0.85074 0.58361 0.0
O322 O 0.38724 0.93692 0.34573 0.0
Mg323 Mg 0.28144 0.9339 0.50946 0.0
O324 O 0.28543 0.88904 0.3232 0.0
O325 O 0.30761 0.895 0.71602 0.0
O326 O 0.32723 0.98032 0.37768 0.0
O327 O 0.22085 0.9225 0.38696 0.0
C328 C 0.34013 0.7515 0.28105 0.0
C329 C 0.35716 0.85228 0.88192 0.0
C330 C 0.47457 0.82681 0.22785 0.0
C331 C 0.33953 0.86535 0.71826 0.0
C332 C 0.36866 0.97336 0.40254 0.0
C333 C 0.24539 0.89967 0.28089 0.0
O334 O 0.38218 0.74657 0.29023 0.0
O335 O 0.32477 0.79163 0.25322 0.0
loop_
_geom_bond_atom_site_label_1
_geom_bond_atom_site_label_2
_geom_bond_distance
_geom_bond_site_symmetry_2
_ccdc_geom_bond_type
O0 Mg1 1.990 . S
O0 C14 1.253 . S
Mg1 O0 1.990 . S
Mg1 O4 2.180 . S
Mg1 O5 2.117 1_455 S
Mg1 O19 2.030 . S
O2 Mg3 2.072 . S
O2 C14 1.260 . S
Mg3 O2 2.072 . S
Mg3 O4 2.099 . S
Mg3 O6 2.079 1_554 S
Mg3 O7 2.072 . S
Mg3 O9 2.099 . S
Mg3 O20 2.079 . S
O4 Mg1 2.180 . S
O4 Mg3 2.099 . S
O4 C15 1.279 . S
O5 Mg1 2.117 1_655 S
O5 C15 1.250 1_655 S
O6 Mg3 2.079 1_556 S
O6 C16 1.264 . S
O7 Mg3 2.072 . S
O7 C17 1.260 . S
Mg8 O9 2.180 1_556 S
Mg8 O10 2.030 . S
Mg8 O11 1.990 . S
Mg8 O12 2.117 1_556 S
O9 Mg3 2.099 . S
O9 Mg8 2.180 1_554 S
O9 C18 1.279 . S
O10 Mg8 2.030 . S
O10 C16 1.248 . S
O11 Mg8 1.990 . S
O11 C17 1.253 1_556 S
O12 Mg8 2.117 1_554 S
O12 C18 1.250 . S
C13 O19 1.248 . S
C13 O20 1.264 . S
C14 O0 1.253 . S
C14 O2 1.260 . S
C15 O4 1.279 . S
C15 O5 1.250 1_455 S
C16 O6 1.264 . S
C16 O10 1.248 . S
C17 O7 1.260 . S
C17 O11 1.253 1_554 S
C18 O9 1.279 . S
C18 O12 1.250 . S
O19 Mg1 2.030 . S
O19 C13 1.248 . S
O20 Mg3 2.079 . S
O20 C13 1.264 . S
O21 Mg22 1.990 . S
O21 C35 1.253 . S
Mg22 O21 1.990 . S
Mg22 O25 2.180 . S
Mg22 O26 2.117 . S
Mg22 O40 2.030 . S
O23 Mg24 2.072 . S
O23 C35 1.260 . S
Mg24 O23 2.072 . S
Mg24 O25 2.099 . S
Mg24 O27 2.079 . S
Mg24 O28 2.072 . S
Mg24 O30 2.099 . S
Mg24 O41 2.079 . S
O25 Mg22 2.180 . S
O25 Mg24 2.099 . S
O25 C36 1.279 . S
O26 Mg22 2.117 . S
O26 C36 1.250 . S
O27 Mg24 2.079 . S
O27 C37 1.264 1_554 S
O28 Mg24 2.072 . S
O28 C38 1.260 . S
Mg29 O30 2.180 . S
Mg29 O31 2.030 1_554 S
Mg29 O32 1.990 . S
Mg29 O33 2.117 1_565 S
O30 Mg24 2.099 . S
O30 Mg29 2.180 . S
O30 C39 1.279 . S
O31 Mg29 2.030 1_556 S
O31 C37 1.248 . S
O32 Mg29 1.990 . S
O32 C38 1.253 . S
O33 Mg29 2.117 1_545 S
O33 C39 1.250 1_545 S
C34 O40 1.248 . S
C34 O41 1.264 . S
C35 O21 1.253 . S
C35 O23 1.260 . S
C36 O25 1.279 . S
C36 O26 1.250 . S
C37 O27 1.264 1_556 S
C37 O31 1.248 . S
C38 O28 1.260 . S
C38 O32 1.253 . S
C39 O30 1.279 . S
C39 O33 1.250 1_565 S
O40 Mg22 2.030 . S
O40 C34 1.248 . S
O41 Mg24 2.079 . S
O41 C34 1.264 . S
O42 Mg43 1.990 . S
O42 C56 1.253 . S
Mg43 O42 1.990 . S
Mg43 O46 2.180 . S
Mg43 O47 2.117 . S
Mg43 O61 2.030 . S
O44 Mg45 2.072 . S
O44 C56 1.260 . S
Mg45 O44 2.072 . S
Mg45 O46 2.099 . S
Mg45 O48 2.079 . S
Mg45 O49 2.072 . S
Mg45 O51 2.099 . S
Mg45 O62 2.079 . S
O46 Mg43 2.180 . S
O46 Mg45 2.099 . S
O46 C57 1.279 . S
O47 Mg43 2.117 . S
O47 C57 1.250 . S
O48 Mg45 2.079 . S
O48 C58 1.264 1_556 S
O49 Mg45 2.072 . S
O49 C59 1.260 . S
Mg50 O51 2.180 . S
Mg50 O52 2.030 1_556 S
Mg50 O53 1.990 . S
Mg50 O54 2.117 . S
O51 Mg45 2.099 . S
O51 Mg50 2.180 . S
O51 C60 1.279 . S
O52 Mg50 2.030 1_554 S
O52 C58 1.248 . S
O53 Mg50 1.990 . S
O53 C59 1.253 . S
O54 Mg50 2.117 . S
O54 C60 1.250 . S
C55 O61 1.248 . S
C55 O62 1.264 . S
C56 O42 1.253 . S
C56 O44 1.260 . S
C57 O46 1.279 . S
C57 O47 1.250 . S
C58 O48 1.264 1_554 S
C58 O52 1.248 . S
C59 O49 1.260 . S
C59 O53 1.253 . S
C60 O51 1.279 . S
C60 O54 1.250 . S
O61 Mg43 2.030 . S
O61 C55 1.248 . S
O62 Mg45 2.079 . S
O62 C55 1.264 . S
O63 Mg64 1.990 . S
O63 C77 1.253 . S
Mg64 O63 1.990 . S
Mg64 O67 2.180 . S
Mg64 O68 2.106 1_655 S
Mg64 O82 2.030 . S
O65 Mg66 2.072 . S
O65 C77 1.260 . S
Mg66 O65 2.072 . S
Mg66 O67 2.099 . S
Mg66 O69 2.079 1_556 S
Mg66 O70 2.072 . S
Mg66 O72 2.099 . S
Mg66 O83 2.079 . S
O67 Mg64 2.180 . S
O67 Mg66 2.099 . S
O67 C78 1.279 . S
O68 Mg64 2.106 1_455 S
O68 C78 1.240 1_455 S
O69 Mg66 2.079 1_554 S
O69 C79 1.264 . S
O70 Mg66 2.072 . S
O70 C80 1.260 . S
Mg71 O72 2.180 1_554 S
Mg71 O73 2.030 . S
Mg71 O74 1.990 . S
Mg71 O75 2.117 1_554 S
O72 Mg66 2.099 . S
O72 Mg71 2.180 1_556 S
O72 C81 1.279 . S
O73 Mg71 2.030 . S
O73 C79 1.248 . S
O74 Mg71 1.990 . S
O74 C80 1.253 1_554 S
O75 Mg71 2.117 1_556 S
O75 C81 1.250 . S
C76 O82 1.248 . S
C76 O83 1.264 . S
C77 O63 1.253 . S
C77 O65 1.260 . S
C78 O67 1.279 . S
C78 O68 1.240 1_655 S
C79 O69 1.264 . S
C79 O73 1.248 . S
C80 O70 1.260 . S
C80 O74 1.253 1_556 S
C81 O72 1.279 . S
C81 O75 1.250 . S
O82 Mg64 2.030 . S
O82 C76 1.248 . S
O83 Mg66 2.079 . S
O83 C76 1.264 . S
O84 Mg85 1.990 . S
O84 C98 1.253 . S
Mg85 O84 1.990 . S
Mg85 O88 2.180 1_554 S
Mg85 O89 2.117 . S
Mg85 O103 2.030 . S
O86 Mg87 2.072 1_554 S
O86 C98 1.260 . S
Mg87 O86 2.072 1_556 S
Mg87 O88 2.099 . S
Mg87 O90 2.079 . S
Mg87 O91 2.072 . S
Mg87 O93 2.099 . S
Mg87 O104 2.079 . S
O88 Mg85 2.180 1_556 S
O88 Mg87 2.099 . S
O88 C99 1.279 . S
O89 Mg85 2.117 . S
O89 C99 1.250 1_554 S
O90 Mg87 2.079 . S
O90 C100 1.264 . S
O91 Mg87 2.072 . S
O91 C101 1.260 . S
Mg92 O93 2.180 . S
Mg92 O94 2.030 . S
Mg92 O95 1.990 . S
Mg92 O96 2.117 . S
O93 Mg87 2.099 . S
O93 Mg92 2.180 . S
O93 C102 1.279 . S
O94 Mg92 2.030 . S
O94 C100 1.248 . S
O95 Mg92 1.990 . S
O95 C101 1.253 . S
O96 Mg92 2.117 . S
O96 C102 1.250 . S
C97 O103 1.248 1_556 S
C97 O104 1.264 . S
C98 O84 1.253 . S
C98 O86 1.260 . S
C99 O88 1.279 . S
C99 O89 1.250 1_556 S
C100 O90 1.264 . S
C100 O94 1.248 . S
C101 O91 1.260 . S
C101 O95 1.253 . S
C102 O93 1.279 . S
C102 O96 1.250 . S
O103 Mg85 2.030 . S
O103 C97 1.248 1_554 S
O104 Mg87 2.079 . S
O104 C97 1.264 . S
O105 Mg106 1.990 . S
O105 C119 1.253 . S
Mg106 O105 1.990 . S
Mg106 O109 2.180 1_556 S
Mg106 O110 2.117 . S
Mg106 O124 2.030 . S
O107 Mg108 2.072 1_556 S
O107 C119 1.260 . S
Mg108 O107 2.072 1_554 S
Mg108 O109 2.099 . S
Mg108 O111 2.079 . S
Mg108 O112 2.072 . S
Mg108 O114 2.099 . S
Mg108 O125 2.079 . S
O109 Mg106 2.180 1_554 S
O109 Mg108 2.099 . S
O109 C120 1.279 . S
O110 Mg106 2.117 . S
O110 C120 1.250 1_556 S
O111 Mg108 2.079 . S
O111 C121 1.264 . S
O112 Mg108 2.072 . S
O112 C122 1.260 . S
Mg113 O114 2.180 . S
Mg113 O115 2.030 . S
Mg113 O116 1.990 . S
Mg113 O117 2.117 1_565 S
O114 Mg108 2.099 . S
O114 Mg113 2.180 . S
O114 C123 1.279 . S
O115 Mg113 2.030 . S
O115 C121 1.248 . S
O116 Mg113 1.990 . S
O116 C122 1.253 . S
O117 Mg113 2.117 1_545 S
O117 C123 1.250 1_545 S
C118 O124 1.248 1_554 S
C118 O125 1.264 . S
C119 O105 1.253 . S
C119 O107 1.260 . S
C120 O109 1.279 . S
C120 O110 1.250 1_554 S
C121 O111 1.264 . S
C121 O115 1.248 . S
C122 O112 1.260 . S
C122 O116 1.253 . S
C123 O114 1.279 . S
C123 O117 1.250 1_565 S
O124 Mg106 2.030 . S
O124 C118 1.248 1_556 S
O125 Mg108 2.079 . S
O125 C118 1.264 . S
O126 Mg127 1.990 1_556 S
O126 C140 1.253 . S
Mg127 O126 1.990 1_554 S
Mg127 O130 2.180 . S
Mg127 O131 2.117 . S
Mg127 O145 2.030 . S
O128 Mg129 2.072 . S
O128 C140 1.260 1_554 S
Mg129 O128 2.072 . S
Mg129 O130 2.099 . S
Mg129 O132 2.079 . S
Mg129 O133 2.072 . S
Mg129 O135 2.099 . S
Mg129 O146 2.079 . S
O130 Mg127 2.180 . S
O130 Mg129 2.099 . S
O130 C141 1.279 . S
O131 Mg127 2.117 . S
O131 C141 1.250 . S
O132 Mg129 2.079 . S
O132 C142 1.264 . S
O133 Mg129 2.072 . S
O133 C143 1.260 . S
Mg134 O135 2.180 . S
Mg134 O136 2.030 . S
Mg134 O137 1.990 . S
Mg134 O138 2.117 . S
O135 Mg129 2.099 . S
O135 Mg134 2.180 . S
O135 C144 1.279 . S
O136 Mg134 2.030 . S
O136 C142 1.248 . S
O137 Mg134 1.990 . S
O137 C143 1.253 . S
O138 Mg134 2.117 . S
O138 C144 1.250 . S
C139 O145 1.248 . S
C139 O146 1.264 . S
C140 O126 1.253 . S
C140 O128 1.260 1_556 S
C141 O130 1.279 . S
C141 O131 1.250 . S
C142 O132 1.264 . S
C142 O136 1.248 . S
C143 O133 1.260 . S
C143 O137 1.253 . S
C144 O135 1.279 . S
C144 O138 1.250 . S
O145 Mg127 2.030 . S
O145 C139 1.248 . S
O146 Mg129 2.079 . S
O146 C139 1.264 . S
O147 Mg148 1.990 1_554 S
O147 C161 1.253 . S
Mg148 O147 1.990 1_556 S
Mg148 O151 2.180 . S
Mg148 O152 2.117 . S
Mg148 O166 2.030 . S
O149 Mg150 2.072 . S
O149 C161 1.260 1_556 S
Mg150 O149 2.072 . S
Mg150 O151 2.099 . S
Mg150 O153 2.079 . S
Mg150 O154 2.072 . S
Mg150 O156 2.099 . S
Mg150 O167 2.079 . S
O151 Mg148 2.180 . S
O151 Mg150 2.099 . S
O151 C162 1.279 . S
O152 Mg148 2.117 . S
O152 C162 1.250 . S
O153 Mg150 2.079 . S
O153 C163 1.264 . S
O154 Mg150 2.072 . S
O154 C164 1.260 . S
Mg155 O156 2.180 . S
Mg155 O157 2.030 . S
Mg155 O158 1.990 . S
Mg155 O159 2.117 . S
O156 Mg150 2.099 . S
O156 Mg155 2.180 . S
O156 C165 1.279 . S
O157 Mg155 2.030 . S
O157 C163 1.248 . S
O158 Mg155 1.990 . S
O158 C164 1.253 . S
O159 Mg155 2.117 . S
O159 C165 1.250 . S
C160 O166 1.248 . S
C160 O167 1.264 . S
C161 O147 1.253 . S
C161 O149 1.260 1_554 S
C162 O151 1.279 . S
C162 O152 1.250 . S
C163 O153 1.264 . S
C163 O157 1.248 . S
C164 O154 1.260 . S
C164 O158 1.253 . S
C165 O156 1.279 . S
C165 O159 1.250 . S
O166 Mg148 2.030 . S
O166 C160 1.248 . S
O167 Mg150 2.079 . S
O167 C160 1.264 . S
O168 Mg169 1.990 . S
O168 C182 1.253 . S
Mg169 O168 1.990 . S
Mg169 O172 2.180 1_554 S
Mg169 O173 2.117 . S
Mg169 O187 2.030 . S
O170 Mg171 2.072 1_554 S
O170 C182 1.260 . S
Mg171 O170 2.072 1_556 S
Mg171 O172 2.099 . S
Mg171 O174 2.079 . S
Mg171 O175 2.072 . S
Mg171 O177 2.099 . S
Mg171 O188 2.079 . S
O172 Mg169 2.180 1_556 S
O172 Mg171 2.099 . S
O172 C183 1.279 . S
O173 Mg169 2.117 . S
O173 C183 1.250 1_554 S
O174 Mg171 2.079 . S
O174 C184 1.264 . S
O175 Mg171 2.072 . S
O175 C185 1.260 . S
Mg176 O177 2.180 . S
Mg176 O178 2.030 . S
Mg176 O179 1.990 . S
Mg176 O180 2.117 . S
O177 Mg171 2.099 . S
O177 Mg176 2.180 . S
O177 C186 1.279 . S
O178 Mg176 2.030 . S
O178 C184 1.248 . S
O179 Mg176 1.990 . S
O179 C185 1.253 . S
O180 Mg176 2.117 . S
O180 C186 1.250 . S
C181 O187 1.248 1_556 S
C181 O188 1.264 . S
C182 O168 1.253 . S
C182 O170 1.260 . S
C183 O172 1.279 . S
C183 O173 1.250 1_556 S
C184 O174 1.264 . S
C184 O178 1.248 . S
C185 O175 1.260 . S
C185 O179 1.253 . S
C186 O177 1.279 . S
C186 O180 1.250 . S
O187 Mg169 2.030 . S
O187 C181 1.248 1_554 S
O188 Mg171 2.079 . S
O188 C181 1.264 . S
O189 Mg190 1.990 . S
O189 C203 1.253 . S
Mg190 O189 1.990 . S
Mg190 O193 2.180 . S
Mg190 O194 2.117 . S
Mg190 O208 2.030 . S
O191 Mg192 2.072 . S
O191 C203 1.260 . S
Mg192 O191 2.072 . S
Mg192 O193 2.099 . S
Mg192 O195 2.079 . S
Mg192 O196 2.072 . S
Mg192 O198 2.099 . S
Mg192 O209 2.079 . S
O193 Mg190 2.180 . S
O193 Mg192 2.099 . S
O193 C204 1.279 . S
O194 Mg190 2.117 . S
O194 C204 1.250 . S
O195 Mg192 2.079 . S
O195 C205 1.264 1_556 S
O196 Mg192 2.072 . S
O196 C206 1.260 . S
Mg197 O198 2.180 . S
Mg197 O199 2.030 1_556 S
Mg197 O200 1.990 . S
Mg197 O201 2.117 1_545 S
O198 Mg192 2.099 . S
O198 Mg197 2.180 . S
O198 C207 1.279 . S
O199 Mg197 2.030 1_554 S
O199 C205 1.248 . S
O200 Mg197 1.990 . S
O200 C206 1.253 . S
O201 Mg197 2.117 1_565 S
O201 C207 1.250 1_565 S
C202 O208 1.248 . S
C202 O209 1.264 . S
C203 O189 1.253 . S
C203 O191 1.260 . S
C204 O193 1.279 . S
C204 O194 1.250 . S
C205 O195 1.264 1_554 S
C205 O199 1.248 . S
C206 O196 1.260 . S
C206 O200 1.253 . S
C207 O198 1.279 . S
C207 O201 1.250 1_545 S
O208 Mg190 2.030 . S
O208 C202 1.248 . S
O209 Mg192 2.079 . S
O209 C202 1.264 . S
O210 Mg211 1.990 . S
O210 C224 1.253 . S
Mg211 O210 1.990 . S
Mg211 O214 2.180 . S
Mg211 O215 2.117 . S
Mg211 O229 2.030 . S
O212 Mg213 2.072 . S
O212 C224 1.260 . S
Mg213 O212 2.072 . S
Mg213 O214 2.099 . S
Mg213 O216 2.079 . S
Mg213 O217 2.072 . S
Mg213 O219 2.099 . S
Mg213 O230 2.079 . S
O214 Mg211 2.180 . S
O214 Mg213 2.099 . S
O214 C225 1.279 . S
O215 Mg211 2.117 . S
O215 C225 1.250 . S
O216 Mg213 2.079 . S
O216 C226 1.264 1_554 S
O217 Mg213 2.072 . S
O217 C227 1.260 . S
Mg218 O219 2.180 . S
Mg218 O220 2.030 1_554 S
Mg218 O221 1.990 . S
Mg218 O222 2.117 . S
O219 Mg213 2.099 . S
O219 Mg218 2.180 . S
O219 C228 1.279 . S
O220 Mg218 2.030 1_556 S
O220 C226 1.248 . S
O221 Mg218 1.990 . S
O221 C227 1.253 . S
O222 Mg218 2.117 . S
O222 C228 1.250 . S
C223 O229 1.248 . S
C223 O230 1.264 . S
C224 O210 1.253 . S
C224 O212 1.260 . S
C225 O214 1.279 . S
C225 O215 1.250 . S
C226 O216 1.264 1_556 S
C226 O220 1.248 . S
C227 O217 1.260 . S
C227 O221 1.253 . S
C228 O219 1.279 . S
C228 O222 1.250 . S
O229 Mg211 2.030 . S
O229 C223 1.248 . S
O230 Mg213 2.079 . S
O230 C223 1.264 . S
O231 Mg232 1.990 . S
O231 C245 1.253 . S
Mg232 O231 1.990 . S
Mg232 O235 2.180 . S
Mg232 O236 2.117 1_455 S
Mg232 O250 2.030 . S
O233 Mg234 2.072 . S
O233 C245 1.260 . S
Mg234 O233 2.072 . S
Mg234 O235 2.099 . S
Mg234 O237 2.079 1_554 S
Mg234 O238 2.072 . S
Mg234 O240 2.099 . S
Mg234 O251 2.079 . S
O235 Mg232 2.180 . S
O235 Mg234 2.099 . S
O235 C246 1.279 . S
O236 Mg232 2.117 1_655 S
O236 C246 1.250 1_655 S
O237 Mg234 2.079 1_556 S
O237 C247 1.264 . S
O238 Mg234 2.072 . S
O238 C248 1.260 . S
Mg239 O240 2.180 1_556 S
Mg239 O241 2.030 . S
Mg239 O242 1.990 . S
Mg239 O243 2.117 1_556 S
O240 Mg234 2.099 . S
O240 Mg239 2.180 1_554 S
O240 C249 1.279 . S
O241 Mg239 2.030 . S
O241 C247 1.248 . S
O242 Mg239 1.990 . S
O242 C248 1.253 1_556 S
O243 Mg239 2.117 1_554 S
O243 C249 1.250 . S
C244 O250 1.248 . S
C244 O251 1.264 . S
C245 O231 1.253 . S
C245 O233 1.260 . S
C246 O235 1.279 . S
C246 O236 1.250 1_455 S
C247 O237 1.264 . S
C247 O241 1.248 . S
C248 O238 1.260 . S
C248 O242 1.253 1_554 S
C249 O240 1.279 . S
C249 O243 1.250 . S
O250 Mg232 2.030 . S
O250 C244 1.248 . S
O251 Mg234 2.079 . S
O251 C244 1.264 . S
O252 Mg253 1.990 . S
O252 C266 1.253 . S
Mg253 O252 1.990 . S
Mg253 O256 2.180 1_556 S
Mg253 O257 2.117 . S
Mg253 O271 2.030 . S
O254 Mg255 2.072 1_556 S
O254 C266 1.260 . S
Mg255 O254 2.072 1_554 S
Mg255 O256 2.099 . S
Mg255 O258 2.079 . S
Mg255 O259 2.072 . S
Mg255 O261 2.099 . S
Mg255 O272 2.079 . S
O256 Mg253 2.180 1_554 S
O256 Mg255 2.099 . S
O256 C267 1.279 . S
O257 Mg253 2.117 . S
O257 C267 1.250 1_556 S
O258 Mg255 2.079 . S
O258 C268 1.264 . S
O259 Mg255 2.072 . S
O259 C269 1.260 . S
Mg260 O261 2.180 . S
Mg260 O262 2.030 . S
Mg260 O263 1.990 . S
Mg260 O264 2.117 . S
O261 Mg255 2.099 . S
O261 Mg260 2.180 . S
O261 C270 1.279 . S
O262 Mg260 2.030 . S
O262 C268 1.248 . S
O263 Mg260 1.990 . S
O263 C269 1.253 . S
O264 Mg260 2.117 . S
O264 C270 1.250 . S
C265 O271 1.248 1_554 S
C265 O272 1.264 . S
C266 O252 1.253 . S
C266 O254 1.260 . S
C267 O256 1.279 . S
C267 O257 1.250 1_554 S
C268 O258 1.264 . S
C268 O262 1.248 . S
C269 O259 1.260 . S
C269 O263 1.253 . S
C270 O261 1.279 . S
C270 O264 1.250 . S
O271 Mg253 2.030 . S
O271 C265 1.248 1_556 S
O272 Mg255 2.079 . S
O272 C265 1.264 . S
O273 Mg274 1.990 . S
O273 C287 1.253 . S
Mg274 O273 1.990 . S
Mg274 O277 2.180 1_554 S
Mg274 O278 2.117 . S
Mg274 O292 2.030 . S
O275 Mg276 2.072 1_554 S
O275 C287 1.260 . S
Mg276 O275 2.072 1_556 S
Mg276 O277 2.099 . S
Mg276 O279 2.079 . S
Mg276 O280 2.072 . S
Mg276 O282 2.099 . S
Mg276 O293 2.079 . S
O277 Mg274 2.180 1_556 S
O277 Mg276 2.099 . S
O277 C288 1.279 . S
O278 Mg274 2.117 . S
O278 C288 1.250 1_554 S
O279 Mg276 2.079 . S
O279 C289 1.264 . S
O280 Mg276 2.072 . S
O280 C290 1.260 . S
Mg281 O282 2.180 . S
Mg281 O283 2.030 . S
Mg281 O284 1.990 . S
Mg281 O285 2.117 1_545 S
O282 Mg276 2.099 . S
O282 Mg281 2.180 . S
O282 C291 1.279 . S
O283 Mg281 2.030 . S
O283 C289 1.248 . S
O284 Mg281 1.990 . S
O284 C290 1.253 . S
O285 Mg281 2.117 1_565 S
O285 C291 1.250 1_565 S
C286 O292 1.248 1_556 S
C286 O293 1.264 . S
C287 O273 1.253 . S
C287 O275 1.260 . S
C288 O277 1.279 . S
C288 O278 1.250 1_556 S
C289 O279 1.264 . S
C289 O283 1.248 . S
C290 O280 1.260 . S
C290 O284 1.253 . S
C291 O282 1.279 . S
C291 O285 1.250 1_545 S
O292 Mg274 2.030 . S
O292 C286 1.248 1_554 S
O293 Mg276 2.079 . S
O293 C286 1.264 . S
O294 Mg295 1.990 1_554 S
O294 C308 1.253 . S
Mg295 O294 1.990 1_556 S
Mg295 O298 2.180 . S
Mg295 O299 2.117 . S
Mg295 O313 2.030 . S
O296 Mg297 2.072 . S
O296 C308 1.260 1_556 S
Mg297 O296 2.072 . S
Mg297 O298 2.099 . S
Mg297 O300 2.079 . S
Mg297 O301 2.072 . S
Mg297 O303 2.099 . S
Mg297 O314 2.079 . S
O298 Mg295 2.180 . S
O298 Mg297 2.099 . S
O298 C309 1.279 . S
O299 Mg295 2.117 . S
O299 C309 1.250 . S
O300 Mg297 2.079 . S
O300 C310 1.264 . S
O301 Mg297 2.072 . S
O301 C311 1.260 . S
Mg302 O303 2.180 . S
Mg302 O304 2.030 . S
Mg302 O305 1.990 . S
Mg302 O306 2.117 . S
O303 Mg297 2.099 . S
O303 Mg302 2.180 . S
O303 C312 1.279 . S
O304 Mg302 2.030 . S
O304 C310 1.248 . S
O305 Mg302 1.990 . S
O305 C311 1.253 . S
O306 Mg302 2.117 . S
O306 C312 1.250 . S
C307 O313 1.248 . S
C307 O314 1.264 . S
C308 O294 1.253 . S
C308 O296 1.260 1_554 S
C309 O298 1.279 . S
C309 O299 1.250 . S
C310 O300 1.264 . S
C310 O304 1.248 . S
C311 O301 1.260 . S
C311 O305 1.253 . S
C312 O303 1.279 . S
C312 O306 1.250 . S
O313 Mg295 2.030 . S
O313 C307 1.248 . S
O314 Mg297 2.079 . S
O314 C307 1.264 . S
O315 Mg316 1.990 1_556 S
O315 C329 1.253 . S
Mg316 O315 1.990 1_554 S
Mg316 O319 2.180 . S
Mg316 O320 2.117 . S
Mg316 O334 2.030 . S
O317 Mg318 2.072 . S
O317 C329 1.260 1_554 S
Mg318 O317 2.072 . S
Mg318 O319 2.099 . S
Mg318 O321 2.079 . S
Mg318 O322 2.072 . S
Mg318 O324 2.099 . S
Mg318 O335 2.079 . S
O319 Mg316 2.180 . S
O319 Mg318 2.099 . S
O319 C330 1.279 . S
O320 Mg316 2.117 . S
O320 C330 1.250 . S
O321 Mg318 2.079 . S
O321 C331 1.264 . S
O322 Mg318 2.072 . S
O322 C332 1.260 . S
Mg323 O324 2.180 . S
Mg323 O325 2.030 . S
Mg323 O326 1.990 . S
Mg323 O327 2.117 . S
O324 Mg318 2.099 . S
O324 Mg323 2.180 . S
O324 C333 1.279 . S
O325 Mg323 2.030 . S
O325 C331 1.248 . S
O326 Mg323 1.990 . S
O326 C332 1.253 . S
O327 Mg323 2.117 . S
O327 C333 1.250 . S
C328 O334 1.248 . S
C328 O335 1.264 . S
C329 O315 1.253 . S
C329 O317 1.260 1_556 S
C330 O319 1.279 . S
C330 O320 1.250 . S
C331 O321 1.264 . S
C331 O325 1.248 . S
C332 O322 1.260 . S
C332 O326 1.253 . S
C333 O324 1.279 . S
C333 O327 1.250 . S
O334 Mg316 2.030 . S
O334 C328 1.248 . S
O335 Mg318 2.079 . S
O335 C328 1.264 . S
C16 C14 1.503 . S
C37 C35 1.495 . S
C56 C58 1.487 . S
C77 C79 1.483 . S
C98 C100 1.497 . S
C119 C121 1.485 . S
C142 C140 1.485 . S
C161 C163 1.504 . S
C182 C184 1.506 . S
C203 C205 1.490 . S
C226 C224 1.489 . S
C245 C247 1.490 . S
C266 C268 1.503 . S
C289 C287 1.488 . S
C310 C308 1.477 . S
C329 C331 1.490 . S
C13 C244 1.274 . S
C34 C330 1.335 . S
C57 C204 0.829 . S
C78 C286 1.359 1_655 S
C99 C288 0.775 . S
C246 C118 1.340 1_455 S
C139 C328 1.255 . S
C162 C202 1.314 . S
C76 C183 1.323 . S
C36 C225 0.848 . S
C267 C120 0.914 . S
C160 C307 1.210 . S
C181 C97 1.277 1_655 S
C141 C223 1.317 . S
C55 C309 1.258 . S
C15 C265 1.398 1_455 S
C17 C102 1.352 1_554 S
C38 C122 1.401 . S
C60 C143 1.351 . S
C81 C165 1.620 . S
C270 C186 1.604 1_554 S
C290 C206 1.413 . S
C228 C311 1.348 . S
C333 C249 1.570 . S
C39 C164 1.342 1_565 S
C101 C59 1.332 . S
C123 C80 1.381 1_564 S
C18 C144 1.562 . S
C332 C207 1.335 1_565 S
C269 C227 1.400 . S
C291 C248 1.340 1_546 S
C312 C185 1.293 . S
