# Generated by pormake.
# Topology wmi, (6)-cn, num edge types: 1
# Building blocks:
#     Node 0, Type 0, BuildingBlock: VOLQOD_clean_sbu_1, # of connection points: 6
#     Node 1, Type 0, BuildingBlock: VOLQOD_clean_sbu_1, # of connection points: 6
#     Node 2, Type 0, BuildingBlock: VOLQOD_clean_sbu_1, # of connection points: 6
#     Node 3, Type 0, BuildingBlock: VOLQOD_clean_sbu_1, # of connection points: 6
#     Node 4, Type 0, BuildingBlock: VOLQOD_clean_sbu_1, # of connection points: 6
#     Node 5, Type 0, BuildingBlock: VOLQOD_clean_sbu_1, # of connection points: 6
#     Node 6, Type 0, BuildingBlock: VOLQOD_clean_sbu_1, # of connection points: 6
#     Node 7, Type 0, BuildingBlock: VOLQOD_clean_sbu_1, # of connection points: 6
#     Node 8, Type 0, BuildingBlock: VOLQOD_clean_sbu_1, # of connection points: 6
#     Node 9, Type 0, BuildingBlock: VOLQOD_clean_sbu_1, # of connection points: 6
#     Node 10, Type 0, BuildingBlock: VOLQOD_clean_sbu_1, # of connection points: 6
#     Node 11, Type 0, BuildingBlock: VOLQOD_clean_sbu_1, # of connection points: 6
#     Node 12, Type 0, BuildingBlock: VOLQOD_clean_sbu_1, # of connection points: 6
#     Node 13, Type 0, BuildingBlock: VOLQOD_clean_sbu_1, # of connection points: 6
#     Node 14, Type 0, BuildingBlock: VOLQOD_clean_sbu_1, # of connection points: 6
#     Node 15, Type 0, BuildingBlock: VOLQOD_clean_sbu_1, # of connection points: 6
#     Node 16, Type 0, BuildingBlock: VOLQOD_clean_sbu_1, # of connection points: 6
#     Node 17, Type 0, BuildingBlock: VOLQOD_clean_sbu_1, # of connection points: 6
#     Edge 18, Type (0, 0), None
#     Edge 19, Type (0, 0), None
#     Edge 20, Type (0, 0), None
#     Edge 21, Type (0, 0), None
#     Edge 22, Type (0, 0), None
#     Edge 23, Type (0, 0), None
#     Edge 24, Type (0, 0), None
#     Edge 25, Type (0, 0), None
#     Edge 26, Type (0, 0), None
#     Edge 27, Type (0, 0), None
#     Edge 28, Type (0, 0), None
#     Edge 29, Type (0, 0), None
#     Edge 30, Type (0, 0), None
#     Edge 31, Type (0, 0), None
#     Edge 32, Type (0, 0), None
#     Edge 33, Type (0, 0), None
#     Edge 34, Type (0, 0), None
#     Edge 35, Type (0, 0), None
#     Edge 36, Type (0, 0), None
#     Edge 37, Type (0, 0), None
#     Edge 38, Type (0, 0), None
#     Edge 39, Type (0, 0), None
#     Edge 40, Type (0, 0), None
#     Edge 41, Type (0, 0), None
#     Edge 42, Type (0, 0), None
#     Edge 43, Type (0, 0), None
#     Edge 44, Type (0, 0), None
#     Edge 45, Type (0, 0), None
#     Edge 46, Type (0, 0), None
#     Edge 47, Type (0, 0), None
#     Edge 48, Type (0, 0), None
#     Edge 49, Type (0, 0), None
#     Edge 50, Type (0, 0), None
#     Edge 51, Type (0, 0), None
#     Edge 52, Type (0, 0), None
#     Edge 53, Type (0, 0), None
#     Edge 54, Type (0, 0), None
#     Edge 55, Type (0, 0), None
#     Edge 56, Type (0, 0), None
#     Edge 57, Type (0, 0), None
#     Edge 58, Type (0, 0), None
#     Edge 59, Type (0, 0), None
#     Edge 60, Type (0, 0), None
#     Edge 61, Type (0, 0), None
#     Edge 62, Type (0, 0), None
#     Edge 63, Type (0, 0), None
#     Edge 64, Type (0, 0), None
#     Edge 65, Type (0, 0), None
#     Edge 66, Type (0, 0), None
#     Edge 67, Type (0, 0), None
#     Edge 68, Type (0, 0), None
#     Edge 69, Type (0, 0), None
#     Edge 70, Type (0, 0), None
#     Edge 71, Type (0, 0), None
# Relax obj value: 0.314
# Max RMSD: 0.231
# Mean RMSD: 0.231
data_MOF--net-wmi--node1-VOLQOD_clean_sbu_1--edge1-none
_symmetry_space_group_name_H-M    P1
_symmetry_Int_Tables_number       1
_symmetry_cell_setting            triclinic
loop_
_symmetry_equiv_pos_as_xyz
'x, y, z'
_cell_length_a     16.422995
_cell_length_b     16.423013
_cell_length_c     50.96874
_cell_angle_alpha  89.998705
_cell_angle_beta   90.002316
_cell_angle_gamma 120.00146
loop_
_atom_site_label
_atom_site_type_symbol
_atom_site_fract_x
_atom_site_fract_y
_atom_site_fract_z
_atom_type_partial_charge
O0 O 0.63107 0.09545 0.09535 0.0
Zn1 Zn 0.49677 -0.02398 0.09786 0.0
O2 O 0.42103 -0.01716 0.06956 0.0
Zn3 Zn 0.30692 -0.02088 0.08079 0.0
Zn4 Zn 0.49144 0.08436 0.04773 0.0
Zn5 Zn 0.39188 0.88575 0.04606 0.0
O6 O 0.19377 0.85843 0.06672 0.0
O7 O 0.27444 0.78423 0.05899 0.0
O8 O 0.41272 0.94558 0.1324 0.0
O9 O 0.28299 0.94211 0.11779 0.0
O10 O 0.32819 0.11612 0.07919 0.0
O11 O 0.47032 0.18436 0.06057 0.0
O12 O 0.45995 0.06232 0.009 0.0
O13 O 0.52398 0.86996 0.08935 0.0
O14 O 0.37448 0.90758 0.0086 0.0
O15 O 0.49094 0.85226 0.0469 0.0
C16 C 0.67184 0.1333 0.07353 0.0
C17 C 0.19866 0.78304 0.06474 0.0
C18 C 0.40489 0.1899 0.07229 0.0
C19 C 0.32768 0.92884 0.13586 0.0
C20 C 0.41103 -0.01444 -0.00335 0.0
C21 C 0.53019 0.84008 0.0667 0.0
O22 O 0.62447 0.12238 0.05278 0.0
O23 O 0.862 0.53515 0.09536 0.0
Zn24 Zn -0.01854 0.52033 0.09786 0.0
O25 O -0.02534 0.43778 0.06956 0.0
Zn26 Zn -0.02165 0.32738 0.08079 0.0
Zn27 Zn 0.87314 0.40669 0.04773 0.0
Zn28 Zn 0.07175 0.5057 0.04606 0.0
O29 O 0.09901 0.33489 0.06672 0.0
O30 O 0.17326 0.48977 0.059 0.0
O31 O 0.01194 0.46675 0.1324 0.0
O32 O 0.01538 0.34047 0.11779 0.0
O33 O 0.84132 0.21166 0.0792 0.0
O34 O 0.77312 0.28558 0.06058 0.0
O35 O 0.89517 0.39721 0.00901 0.0
O36 O 0.08748 0.65363 0.08934 0.0
O37 O 0.04991 0.46643 0.0086 0.0
O38 O 0.10521 0.63824 0.04688 0.0
C39 C 0.82418 0.53812 0.07353 0.0
C40 C 0.17442 0.41515 0.06475 0.0
C41 C 0.76756 0.21461 0.07229 0.0
C42 C 0.02867 0.39844 0.13586 0.0
C43 C -0.02807 0.42502 -0.00334 0.0
C44 C 0.11729 0.68967 0.06669 0.0
O45 O 0.83515 0.50173 0.05278 0.0
O46 O 0.42226 0.32636 0.09535 0.0
Zn47 Zn 0.43713 0.46065 0.09786 0.0
O48 O 0.51968 0.53639 0.06956 0.0
Zn49 Zn 0.63007 0.6505 0.08079 0.0
Zn50 Zn 0.55078 0.46598 0.04773 0.0
Zn51 Zn 0.45173 0.56552 0.04606 0.0
O52 O 0.62251 0.76363 0.06673 0.0
O53 O 0.46763 0.68294 0.059 0.0
O54 O 0.49073 0.5447 0.1324 0.0
O55 O 0.617 0.67443 0.11779 0.0
O56 O 0.7458 0.62921 0.07919 0.0
O57 O 0.67189 0.48706 0.06058 0.0
O58 O 0.56028 0.49751 0.00901 0.0
O59 O 0.30384 0.43342 0.08935 0.0
O60 O 0.49101 0.58298 0.0086 0.0
O61 O 0.31919 0.46641 0.04688 0.0
C62 C 0.41927 0.28561 0.07352 0.0
C63 C 0.54222 0.75872 0.06476 0.0
C64 C 0.74285 0.55249 0.0723 0.0
C65 C 0.55903 0.62975 0.13586 0.0
C66 C 0.53245 0.54644 -0.00334 0.0
C67 C 0.26778 0.42713 0.06669 0.0
O68 O 0.45571 0.33296 0.05277 0.0
O69 O 0.08161 0.64494 0.86918 0.0
Zn70 Zn -0.03783 0.51064 0.86668 0.0
O71 O -0.03103 0.4349 0.89497 0.0
Zn72 Zn -0.03473 0.3208 0.88374 0.0
Zn73 Zn 0.0705 0.50532 0.9168 0.0
Zn74 Zn 0.87188 0.40574 0.91847 0.0
O75 O 0.84459 0.20764 0.89781 0.0
O76 O 0.77037 0.2883 0.90553 0.0
O77 O 0.9317 0.42659 0.83214 0.0
O78 O 0.92824 0.29686 0.84675 0.0
O79 O 0.10228 0.34209 0.88534 0.0
O80 O 0.1705 0.48421 0.90396 0.0
O81 O 0.04846 0.47382 0.95553 0.0
O82 O 0.85612 0.53789 0.87519 0.0
O83 O 0.89371 0.38833 0.95593 0.0
O84 O 0.83838 0.50479 0.91764 0.0
C85 C 0.11945 0.68571 0.891 0.0
C86 C 0.7692 0.21252 0.89979 0.0
C87 C 0.17605 0.41879 0.89225 0.0
C88 C 0.91495 0.34155 0.82867 0.0
C89 C -0.0283 0.42489 0.96788 0.0
C90 C 0.82623 0.54407 0.89783 0.0
O91 O 0.10851 0.63835 0.91175 0.0
O92 O 0.31251 0.43614 0.86918 0.0
Zn93 Zn 0.44682 0.45104 0.86667 0.0
O94 O 0.52256 0.5336 0.89497 0.0
Zn95 Zn 0.63667 0.64398 0.88374 0.0
Zn96 Zn 0.45215 0.56471 0.9168 0.0
Zn97 Zn 0.55168 0.46564 0.91847 0.0
O98 O 0.74981 0.63641 0.89781 0.0
O99 O 0.6691 0.48154 0.90554 0.0
O100 O 0.53086 0.50464 0.83214 0.0
O101 O 0.66059 0.63091 0.84674 0.0
O102 O 0.6154 0.75972 0.88535 0.0
O103 O 0.47326 0.68583 0.90395 0.0
O104 O 0.48366 0.57419 0.95553 0.0
O105 O 0.41962 0.31777 0.87518 0.0
O106 O 0.56911 0.50489 0.95594 0.0
O107 O 0.4526 0.3331 0.91764 0.0
C108 C 0.27177 0.43318 0.89101 0.0
C109 C 0.74489 0.55613 0.89978 0.0
C110 C 0.53869 0.75679 0.89224 0.0
C111 C 0.6159 0.57294 0.82867 0.0
C112 C 0.53258 0.54634 0.96788 0.0
C113 C 0.41338 0.28166 0.89783 0.0
O114 O 0.31913 0.46966 0.91176 0.0
O115 O 0.52132 0.87588 0.86918 0.0
Zn116 Zn 0.50648 -0.00467 0.86667 0.0
O117 O 0.42393 -0.01148 0.89497 0.0
Zn118 Zn 0.31354 -0.00778 0.88374 0.0
Zn119 Zn 0.39285 0.887 0.9168 0.0
Zn120 Zn 0.49188 0.0856 0.91847 0.0
O121 O 0.32108 0.1129 0.89781 0.0
O122 O 0.47597 0.18711 0.90553 0.0
O123 O 0.4529 0.0258 0.83214 0.0
O124 O 0.32662 0.02924 0.84674 0.0
O125 O 0.19782 0.85519 0.88534 0.0
O126 O 0.27174 0.78697 0.90395 0.0
O127 O 0.38334 0.90903 0.95553 0.0
O128 O 0.63977 0.10136 0.87519 0.0
O129 O 0.4526 0.06378 0.95593 0.0
O130 O 0.62441 0.11903 0.91765 0.0
C131 C 0.52434 0.83814 0.89101 0.0
C132 C 0.40136 0.18829 0.89978 0.0
C133 C 0.20077 0.78142 0.89224 0.0
C134 C 0.38459 0.04254 0.82867 0.0
C135 C 0.41115 -0.01421 0.96787 0.0
C136 C 0.67583 0.13114 0.89785 0.0
O137 O 0.48792 0.84907 0.91176 0.0
O138 O 0.29777 0.42881 0.42869 0.0
Zn139 Zn 0.16347 0.30938 0.43119 0.0
O140 O 0.08772 0.31619 0.40289 0.0
Zn141 Zn -0.02638 0.31247 0.41412 0.0
Zn142 Zn 0.15814 0.41771 0.38106 0.0
Zn143 Zn 0.05858 0.2191 0.3794 0.0
O144 O 0.86047 0.19178 0.40005 0.0
O145 O 0.94114 0.11758 0.39233 0.0
O146 O 0.07942 0.27893 0.46573 0.0
O147 O 0.94969 0.27546 0.45112 0.0
O148 O -0.00511 0.44948 0.41252 0.0
O149 O 0.13702 0.51772 0.39391 0.0
O150 O 0.12663 0.39566 0.34234 0.0
O151 O 0.19069 0.20332 0.42268 0.0
O152 O 0.04115 0.24092 0.34193 0.0
O153 O 0.15764 0.18562 0.38023 0.0
C154 C 0.33853 0.46665 0.40686 0.0
C155 C 0.86536 0.1164 0.39808 0.0
C156 C 0.07159 0.52325 0.40562 0.0
C157 C -0.00562 0.26219 0.4692 0.0
C158 C 0.0777 0.3189 0.32999 0.0
C159 C 0.19689 0.17344 0.40004 0.0
O160 O 0.29116 0.45572 0.38612 0.0
O161 O 0.5287 0.8685 0.42869 0.0
Zn162 Zn 0.64815 0.85368 0.43119 0.0
O163 O 0.64135 0.77113 0.40289 0.0
Zn164 Zn 0.64504 0.66073 0.41412 0.0
Zn165 Zn 0.53983 0.74004 0.38106 0.0
Zn166 Zn 0.73844 0.83906 0.37939 0.0
O167 O 0.76571 0.66825 0.40005 0.0
O168 O 0.83995 0.82313 0.39233 0.0
O169 O 0.67863 0.80009 0.46573 0.0
O170 O 0.68208 0.67382 0.45112 0.0
O171 O 0.50802 0.54502 0.41253 0.0
O172 O 0.43981 0.61893 0.39391 0.0
O173 O 0.56185 0.73056 0.34234 0.0
O174 O 0.75417 -0.01303 0.42268 0.0
O175 O 0.71659 0.79979 0.34193 0.0
O176 O 0.77191 0.9716 0.38022 0.0
C177 C 0.49088 0.87147 0.40686 0.0
C178 C 0.84111 0.74851 0.39808 0.0
C179 C 0.43425 0.54797 0.40563 0.0
C180 C 0.69537 0.73179 0.4692 0.0
C181 C 0.63861 0.75838 0.32999 0.0
C182 C 0.78398 0.02302 0.40002 0.0
O183 O 0.50185 0.83508 0.38611 0.0
O184 O 0.08896 0.65971 0.42868 0.0
Zn185 Zn 0.10382 0.79401 0.43119 0.0
O186 O 0.18638 0.86975 0.40289 0.0
Zn187 Zn 0.29677 -0.01615 0.41412 0.0
Zn188 Zn 0.21748 0.79933 0.38106 0.0
Zn189 Zn 0.11843 0.89888 0.37939 0.0
O190 O 0.28921 0.09699 0.40006 0.0
O191 O 0.13433 0.0163 0.39233 0.0
O192 O 0.15742 0.87805 0.46573 0.0
O193 O 0.2837 0.00778 0.45112 0.0
O194 O 0.4125 0.96257 0.41252 0.0
O195 O 0.33859 0.82043 0.39391 0.0
O196 O 0.22696 0.83086 0.34234 0.0
O197 O -0.02946 0.76677 0.42268 0.0
O198 O 0.1577 0.91634 0.34193 0.0
O199 O -0.01411 0.79978 0.38021 0.0
C200 C 0.08597 0.61896 0.40685 0.0
C201 C 0.20892 0.09208 0.39809 0.0
C202 C 0.40955 0.88585 0.40563 0.0
C203 C 0.22573 0.9631 0.4692 0.0
C204 C 0.19913 0.87979 0.32999 0.0
C205 C 0.93448 0.76049 0.40002 0.0
O206 O 0.12242 0.66632 0.3861 0.0
O207 O 0.74826 -0.02172 0.20251 0.0
Zn208 Zn 0.62882 0.84398 0.20001 0.0
O209 O 0.63562 0.76824 0.22831 0.0
Zn210 Zn 0.63191 0.65414 0.21708 0.0
Zn211 Zn 0.73715 0.83867 0.25013 0.0
Zn212 Zn 0.53853 0.7391 0.2518 0.0
O213 O 0.51124 0.54099 0.23115 0.0
O214 O 0.43702 0.62165 0.23887 0.0
O215 O 0.59835 0.75993 0.16547 0.0
O216 O 0.59488 0.63019 0.18008 0.0
O217 O 0.76893 0.67543 0.21868 0.0
O218 O 0.83716 0.81756 0.23729 0.0
O219 O 0.71513 0.80717 0.28886 0.0
O220 O 0.52277 0.87123 0.20852 0.0
O221 O 0.56038 0.7217 0.28927 0.0
O222 O 0.50504 0.83814 0.25097 0.0
C223 C 0.78609 0.01905 0.22433 0.0
C224 C 0.43585 0.54587 0.23313 0.0
C225 C 0.8427 0.75214 0.22558 0.0
C226 C 0.58159 0.67488 0.16201 0.0
C227 C 0.63837 0.75824 0.30121 0.0
C228 C 0.49288 0.87742 0.23116 0.0
O229 O 0.77515 0.97169 0.24508 0.0
O230 O -0.02084 0.76949 0.20251 0.0
Zn231 Zn 0.11347 0.78438 0.20001 0.0
O232 O 0.1892 0.86694 0.22831 0.0
Zn233 Zn 0.30332 -0.02268 0.21708 0.0
Zn234 Zn 0.1188 0.89805 0.25014 0.0
Zn235 Zn 0.21833 0.79898 0.2518 0.0
O236 O 0.41645 0.96975 0.23114 0.0
O237 O 0.33574 0.81488 0.23886 0.0
O238 O 0.19751 0.83797 0.16547 0.0
O239 O 0.32725 0.96425 0.18008 0.0
O240 O 0.28205 0.09306 0.21868 0.0
O241 O 0.13991 0.01917 0.23729 0.0
O242 O 0.15032 0.90753 0.28886 0.0
O243 O 0.08626 0.6511 0.20852 0.0
O244 O 0.23579 0.83824 0.28927 0.0
O245 O 0.11924 0.66644 0.25098 0.0
C246 C 0.93842 0.76653 0.22434 0.0
C247 C 0.41153 0.88947 0.23311 0.0
C248 C 0.20534 0.09013 0.22558 0.0
C249 C 0.28256 0.90627 0.16201 0.0
C250 C 0.19926 0.87969 0.30121 0.0
C251 C 0.08002 0.61501 0.23117 0.0
O252 O -0.01422 0.803 0.24509 0.0
O253 O 0.18797 0.20923 0.20251 0.0
Zn254 Zn 0.17313 0.32867 0.20001 0.0
O255 O 0.09058 0.32186 0.22831 0.0
Zn256 Zn -0.01981 0.32556 0.21708 0.0
Zn257 Zn 0.05949 0.22034 0.25014 0.0
Zn258 Zn 0.15852 0.41894 0.25181 0.0
O259 O -0.01227 0.44624 0.23115 0.0
O260 O 0.14261 0.52046 0.23887 0.0
O261 O 0.11955 0.35914 0.16547 0.0
O262 O -0.00673 0.36259 0.18008 0.0
O263 O 0.86447 0.18854 0.21868 0.0
O264 O 0.93838 0.12031 0.23728 0.0
O265 O 0.04999 0.24237 0.28886 0.0
O266 O 0.30642 0.4347 0.20852 0.0
O267 O 0.11925 0.39712 0.28927 0.0
O268 O 0.29106 0.45238 0.25099 0.0
C269 C 0.19098 0.17147 0.22434 0.0
C270 C 0.06801 0.52163 0.23311 0.0
C271 C 0.86742 0.11477 0.22557 0.0
C272 C 0.05125 0.37589 0.16201 0.0
C273 C 0.07781 0.31913 0.30121 0.0
C274 C 0.34247 0.46449 0.23118 0.0
O275 O 0.15456 0.1824 0.2451 0.0
O276 O -0.03558 0.76213 0.76202 0.0
Zn277 Zn 0.83012 0.6427 0.76453 0.0
O278 O 0.75438 0.64951 0.73623 0.0
Zn279 Zn 0.64027 0.64579 0.74745 0.0
Zn280 Zn 0.82479 0.75103 0.7144 0.0
Zn281 Zn 0.72523 0.55242 0.71273 0.0
O282 O 0.52712 0.5251 0.73339 0.0
O283 O 0.6078 0.45091 0.72566 0.0
O284 O 0.74607 0.61225 0.79906 0.0
O285 O 0.61633 0.60878 0.78445 0.0
O286 O 0.66154 0.7828 0.74585 0.0
O287 O 0.80367 0.85104 0.72724 0.0
O288 O 0.7933 0.72899 0.67567 0.0
O289 O 0.85734 0.53664 0.75602 0.0
O290 O 0.70783 0.57425 0.67526 0.0
O291 O 0.82429 0.51893 0.71356 0.0
C292 C 0.00519 0.79998 0.7402 0.0
C293 C 0.53201 0.44972 0.73141 0.0
C294 C 0.73825 0.85657 0.73895 0.0
C295 C 0.66102 0.5955 0.80253 0.0
C296 C 0.74438 0.65223 0.66332 0.0
C297 C 0.86355 0.50675 0.73337 0.0
O298 O 0.95782 0.78905 0.71945 0.0
O299 O 0.19535 0.20182 0.76202 0.0
Zn300 Zn 0.31481 0.187 0.76453 0.0
O301 O 0.30801 0.10445 0.73623 0.0
Zn302 Zn 0.3117 -0.00595 0.74746 0.0
Zn303 Zn 0.20649 0.07337 0.7144 0.0
Zn304 Zn 0.4051 0.17238 0.71273 0.0
O305 O 0.43237 0.00157 0.73338 0.0
O306 O 0.50661 0.15645 0.72567 0.0
O307 O 0.34529 0.13341 0.79906 0.0
O308 O 0.34874 0.00713 0.78445 0.0
O309 O 0.17467 0.87834 0.74586 0.0
O310 O 0.10647 0.95225 0.72724 0.0
O311 O 0.22852 0.06389 0.67567 0.0
O312 O 0.42083 0.3203 0.75601 0.0
O313 O 0.38326 0.13311 0.67527 0.0
O314 O 0.43856 0.30492 0.71355 0.0
C315 C 0.15754 0.20479 0.7402 0.0
C316 C 0.50777 0.08183 0.73141 0.0
C317 C 0.10091 0.88129 0.73896 0.0
C318 C 0.36203 0.06511 0.80253 0.0
C319 C 0.30528 0.0917 0.66332 0.0
C320 C 0.45064 0.35634 0.73335 0.0
O321 O 0.16851 0.16841 0.71945 0.0
O322 O 0.75561 -0.00697 0.76202 0.0
Zn323 Zn 0.77048 0.12733 0.76453 0.0
O324 O 0.85303 0.20307 0.73623 0.0
Zn325 Zn -0.03657 0.31717 0.74746 0.0
Zn326 Zn 0.88413 0.13265 0.7144 0.0
Zn327 Zn 0.78508 0.2322 0.71273 0.0
O328 O 0.95586 0.43031 0.73339 0.0
O329 O 0.80098 0.34961 0.72567 0.0
O330 O 0.82408 0.21138 0.79906 0.0
O331 O 0.95035 0.34111 0.78445 0.0
O332 O 0.07915 0.29589 0.74585 0.0
O333 O 0.00524 0.15374 0.72725 0.0
O334 O 0.89363 0.16419 0.67567 0.0
O335 O 0.63719 0.10009 0.75601 0.0
O336 O 0.82437 0.24967 0.67527 0.0
O337 O 0.65255 0.13309 0.71355 0.0
C338 C 0.75262 0.95228 0.74019 0.0
C339 C 0.87558 0.4254 0.73143 0.0
C340 C 0.07621 0.21917 0.73896 0.0
C341 C 0.89238 0.29642 0.80253 0.0
C342 C 0.86581 0.21313 0.66332 0.0
C343 C 0.60113 0.09381 0.73335 0.0
O344 O 0.78906 -0.00036 0.71944 0.0
O345 O 0.41497 0.31162 0.53584 0.0
Zn346 Zn 0.29552 0.17733 0.53334 0.0
O347 O 0.30233 0.10159 0.56164 0.0
Zn348 Zn 0.29862 -0.01252 0.55041 0.0
Zn349 Zn 0.40385 0.17201 0.58347 0.0
Zn350 Zn 0.20523 0.07243 0.58514 0.0
O351 O 0.17795 0.87433 0.56448 0.0
O352 O 0.10372 0.95499 0.5722 0.0
O353 O 0.26505 0.09327 0.4988 0.0
O354 O 0.26159 0.96354 0.51341 0.0
O355 O 0.43563 0.00878 0.55201 0.0
O356 O 0.50386 0.1509 0.57063 0.0
O357 O 0.38181 0.14051 0.62219 0.0
O358 O 0.18948 0.20458 0.54185 0.0
O359 O 0.22706 0.05501 0.6226 0.0
O360 O 0.17174 0.17148 0.5843 0.0
C361 C 0.4528 0.3524 0.55767 0.0
C362 C 0.10255 0.8792 0.56645 0.0
C363 C 0.50941 0.08548 0.55891 0.0
C364 C 0.24829 0.00822 0.49534 0.0
C365 C 0.30505 0.09157 0.63454 0.0
C366 C 0.15958 0.21077 0.5645 0.0
O367 O 0.44186 0.30503 0.57842 0.0
O368 O 0.64586 0.10283 0.53585 0.0
Zn369 Zn 0.78017 0.11772 0.53334 0.0
O370 O 0.85591 0.20029 0.56164 0.0
Zn371 Zn -0.02998 0.31067 0.55041 0.0
Zn372 Zn 0.7855 0.2314 0.58347 0.0
Zn373 Zn 0.88504 0.13233 0.58514 0.0
O374 O 0.08316 0.3031 0.56447 0.0
O375 O 0.00245 0.14823 0.5722 0.0
O376 O 0.86421 0.17132 0.4988 0.0
O377 O -0.00605 0.29759 0.51341 0.0
O378 O 0.94876 0.42641 0.55202 0.0
O379 O 0.80662 0.35252 0.57062 0.0
O380 O 0.81702 0.24088 0.62219 0.0
O381 O 0.75297 -0.01555 0.54185 0.0
O382 O 0.90247 0.17158 0.6226 0.0
O383 O 0.78596 -0.00021 0.58431 0.0
C384 C 0.60512 0.09987 0.55768 0.0
C385 C 0.07824 0.22282 0.56645 0.0
C386 C 0.87205 0.42348 0.55891 0.0
C387 C 0.94926 0.23962 0.49534 0.0
C388 C 0.86594 0.21303 0.63454 0.0
C389 C 0.74673 0.94835 0.5645 0.0
O390 O 0.65249 0.13636 0.57842 0.0
O391 O 0.85467 0.54257 0.53584 0.0
Zn392 Zn 0.83983 0.66201 0.53334 0.0
O393 O 0.75729 0.6552 0.56164 0.0
Zn394 Zn 0.64689 0.6589 0.55041 0.0
Zn395 Zn 0.7262 0.55368 0.58347 0.0
Zn396 Zn 0.82523 0.75228 0.58514 0.0
O397 O 0.65444 0.77959 0.56448 0.0
O398 O 0.80932 0.8538 0.5722 0.0
O399 O 0.78624 0.69248 0.4988 0.0
O400 O 0.65996 0.69593 0.51341 0.0
O401 O 0.53117 0.52188 0.55201 0.0
O402 O 0.6051 0.45365 0.57061 0.0
O403 O 0.71669 0.5757 0.62219 0.0
O404 O -0.02688 0.76805 0.54185 0.0
O405 O 0.78595 0.73045 0.6226 0.0
O406 O 0.95777 0.78571 0.58432 0.0
C407 C 0.8577 0.50483 0.55768 0.0
C408 C 0.73472 0.85497 0.56645 0.0
C409 C 0.53413 0.44811 0.5589 0.0
C410 C 0.71794 0.70923 0.49534 0.0
C411 C 0.74451 0.65247 0.63454 0.0
C412 C 0.00918 0.79782 0.56451 0.0
O413 O 0.82128 0.51576 0.57843 0.0
loop_
_geom_bond_atom_site_label_1
_geom_bond_atom_site_label_2
_geom_bond_distance
_geom_bond_site_symmetry_2
_ccdc_geom_bond_type
O0 Zn1 1.953 . S
O0 C16 1.225 . S
Zn1 O0 1.953 . S
Zn1 O2 1.949 . S
Zn1 O8 1.919 . S
Zn1 O13 1.924 1_545 S
O2 Zn1 1.949 . S
O2 Zn3 1.923 . S
O2 Zn4 1.950 . S
O2 Zn5 1.945 1_545 S
Zn3 O2 1.923 . S
Zn3 O6 1.933 1_545 S
Zn3 O9 1.941 . S
Zn3 O10 1.965 . S
Zn4 O2 1.950 . S
Zn4 O11 1.938 . S
Zn4 O12 1.906 . S
Zn4 O22 1.953 . S
Zn5 O2 1.945 1_565 S
Zn5 O7 1.932 . S
Zn5 O14 1.977 . S
Zn5 O15 1.910 . S
O6 Zn3 1.933 1_565 S
O6 C17 1.226 . S
O7 Zn5 1.932 . S
O7 C17 1.307 . S
O8 Zn1 1.919 . S
O8 C19 1.253 1_545 S
O9 Zn3 1.941 . S
O9 C19 1.283 1_545 S
O10 Zn3 1.965 . S
O10 C18 1.303 . S
O11 Zn4 1.938 . S
O11 C18 1.247 . S
O12 Zn4 1.906 . S
O12 C20 1.304 1_545 S
O13 Zn1 1.924 1_565 S
O13 C21 1.311 . S
O14 Zn5 1.977 . S
O14 C20 1.272 . S
O15 Zn5 1.910 . S
O15 C21 1.231 . S
C16 O0 1.225 . S
C16 O22 1.298 . S
C17 O6 1.226 . S
C17 O7 1.307 . S
C18 O10 1.303 . S
C18 O11 1.247 . S
C19 O8 1.253 1_565 S
C19 O9 1.283 1_565 S
C20 O12 1.304 1_565 S
C20 O14 1.272 . S
C21 O13 1.311 . S
C21 O15 1.231 . S
O22 Zn4 1.953 . S
O22 C16 1.298 . S
O23 Zn24 1.953 1_655 S
O23 C39 1.225 . S
Zn24 O23 1.953 1_455 S
Zn24 O25 1.949 . S
Zn24 O31 1.919 . S
Zn24 O36 1.924 . S
O25 Zn24 1.949 . S
O25 Zn26 1.923 . S
O25 Zn27 1.950 1_455 S
O25 Zn28 1.945 . S
Zn26 O25 1.923 . S
Zn26 O29 1.933 . S
Zn26 O32 1.941 . S
Zn26 O33 1.965 1_455 S
Zn27 O25 1.950 1_655 S
Zn27 O34 1.938 . S
Zn27 O35 1.906 . S
Zn27 O45 1.953 . S
Zn28 O25 1.945 . S
Zn28 O30 1.932 . S
Zn28 O37 1.977 . S
Zn28 O38 1.910 . S
O29 Zn26 1.933 . S
O29 C40 1.226 . S
O30 Zn28 1.932 . S
O30 C40 1.307 . S
O31 Zn24 1.919 . S
O31 C42 1.253 . S
O32 Zn26 1.941 . S
O32 C42 1.283 . S
O33 Zn26 1.965 1_655 S
O33 C41 1.303 . S
O34 Zn27 1.938 . S
O34 C41 1.247 . S
O35 Zn27 1.906 . S
O35 C43 1.304 1_655 S
O36 Zn24 1.924 . S
O36 C44 1.311 . S
O37 Zn28 1.977 . S
O37 C43 1.272 . S
O38 Zn28 1.910 . S
O38 C44 1.231 . S
C39 O23 1.225 . S
C39 O45 1.298 . S
C40 O29 1.226 . S
C40 O30 1.307 . S
C41 O33 1.303 . S
C41 O34 1.247 . S
C42 O31 1.253 . S
C42 O32 1.283 . S
C43 O35 1.304 1_455 S
C43 O37 1.272 . S
C44 O36 1.311 . S
C44 O38 1.231 . S
O45 Zn27 1.953 . S
O45 C39 1.298 . S
O46 Zn47 1.953 . S
O46 C62 1.225 . S
Zn47 O46 1.953 . S
Zn47 O48 1.949 . S
Zn47 O54 1.919 . S
Zn47 O59 1.924 . S
O48 Zn47 1.949 . S
O48 Zn49 1.923 . S
O48 Zn50 1.950 . S
O48 Zn51 1.945 . S
Zn49 O48 1.923 . S
Zn49 O52 1.933 . S
Zn49 O55 1.941 . S
Zn49 O56 1.965 . S
Zn50 O48 1.950 . S
Zn50 O57 1.938 . S
Zn50 O58 1.906 . S
Zn50 O68 1.953 . S
Zn51 O48 1.945 . S
Zn51 O53 1.932 . S
Zn51 O60 1.977 . S
Zn51 O61 1.910 . S
O52 Zn49 1.933 . S
O52 C63 1.226 . S
O53 Zn51 1.932 . S
O53 C63 1.307 . S
O54 Zn47 1.919 . S
O54 C65 1.253 . S
O55 Zn49 1.941 . S
O55 C65 1.283 . S
O56 Zn49 1.965 . S
O56 C64 1.303 . S
O57 Zn50 1.938 . S
O57 C64 1.247 . S
O58 Zn50 1.906 . S
O58 C66 1.304 . S
O59 Zn47 1.924 . S
O59 C67 1.311 . S
O60 Zn51 1.977 . S
O60 C66 1.272 . S
O61 Zn51 1.910 . S
O61 C67 1.231 . S
C62 O46 1.225 . S
C62 O68 1.298 . S
C63 O52 1.226 . S
C63 O53 1.307 . S
C64 O56 1.303 . S
C64 O57 1.247 . S
C65 O54 1.253 . S
C65 O55 1.283 . S
C66 O58 1.304 . S
C66 O60 1.272 . S
C67 O59 1.311 . S
C67 O61 1.231 . S
O68 Zn50 1.953 . S
O68 C62 1.298 . S
O69 Zn70 1.953 . S
O69 C85 1.225 . S
Zn70 O69 1.953 . S
Zn70 O71 1.949 . S
Zn70 O77 1.919 . S
Zn70 O82 1.924 1_455 S
O71 Zn70 1.949 . S
O71 Zn72 1.923 . S
O71 Zn73 1.950 . S
O71 Zn74 1.945 1_455 S
Zn72 O71 1.923 . S
Zn72 O75 1.933 1_455 S
Zn72 O78 1.941 . S
Zn72 O79 1.965 . S
Zn73 O71 1.950 . S
Zn73 O80 1.938 . S
Zn73 O81 1.906 . S
Zn73 O91 1.953 . S
Zn74 O71 1.945 1_655 S
Zn74 O76 1.932 . S
Zn74 O83 1.977 . S
Zn74 O84 1.910 . S
O75 Zn72 1.933 1_655 S
O75 C86 1.226 . S
O76 Zn74 1.932 . S
O76 C86 1.307 . S
O77 Zn70 1.919 . S
O77 C88 1.253 1_455 S
O78 Zn72 1.941 . S
O78 C88 1.283 1_455 S
O79 Zn72 1.965 . S
O79 C87 1.303 . S
O80 Zn73 1.938 . S
O80 C87 1.247 . S
O81 Zn73 1.906 . S
O81 C89 1.304 1_455 S
O82 Zn70 1.924 1_655 S
O82 C90 1.311 . S
O83 Zn74 1.977 . S
O83 C89 1.272 . S
O84 Zn74 1.910 . S
O84 C90 1.231 . S
C85 O69 1.225 . S
C85 O91 1.298 . S
C86 O75 1.226 . S
C86 O76 1.307 . S
C87 O79 1.303 . S
C87 O80 1.247 . S
C88 O77 1.253 1_655 S
C88 O78 1.283 1_655 S
C89 O81 1.304 1_655 S
C89 O83 1.272 . S
C90 O82 1.311 . S
C90 O84 1.231 . S
O91 Zn73 1.953 . S
O91 C85 1.298 . S
O92 Zn93 1.953 . S
O92 C108 1.225 . S
Zn93 O92 1.953 . S
Zn93 O94 1.949 . S
Zn93 O100 1.919 . S
Zn93 O105 1.924 . S
O94 Zn93 1.949 . S
O94 Zn95 1.923 . S
O94 Zn96 1.950 . S
O94 Zn97 1.945 . S
Zn95 O94 1.923 . S
Zn95 O98 1.933 . S
Zn95 O101 1.941 . S
Zn95 O102 1.965 . S
Zn96 O94 1.950 . S
Zn96 O103 1.938 . S
Zn96 O104 1.906 . S
Zn96 O114 1.953 . S
Zn97 O94 1.945 . S
Zn97 O99 1.932 . S
Zn97 O106 1.977 . S
Zn97 O107 1.910 . S
O98 Zn95 1.933 . S
O98 C109 1.226 . S
O99 Zn97 1.932 . S
O99 C109 1.307 . S
O100 Zn93 1.919 . S
O100 C111 1.253 . S
O101 Zn95 1.941 . S
O101 C111 1.283 . S
O102 Zn95 1.965 . S
O102 C110 1.303 . S
O103 Zn96 1.938 . S
O103 C110 1.247 . S
O104 Zn96 1.906 . S
O104 C112 1.304 . S
O105 Zn93 1.924 . S
O105 C113 1.311 . S
O106 Zn97 1.977 . S
O106 C112 1.272 . S
O107 Zn97 1.910 . S
O107 C113 1.231 . S
C108 O92 1.225 . S
C108 O114 1.298 . S
C109 O98 1.226 . S
C109 O99 1.307 . S
C110 O102 1.303 . S
C110 O103 1.247 . S
C111 O100 1.253 . S
C111 O101 1.283 . S
C112 O104 1.304 . S
C112 O106 1.272 . S
C113 O105 1.311 . S
C113 O107 1.231 . S
O114 Zn96 1.953 . S
O114 C108 1.298 . S
O115 Zn116 1.953 1_565 S
O115 C131 1.225 . S
Zn116 O115 1.953 1_545 S
Zn116 O117 1.949 . S
Zn116 O123 1.919 . S
Zn116 O128 1.924 . S
O117 Zn116 1.949 . S
O117 Zn118 1.923 . S
O117 Zn119 1.950 1_545 S
O117 Zn120 1.945 . S
Zn118 O117 1.923 . S
Zn118 O121 1.933 . S
Zn118 O124 1.941 . S
Zn118 O125 1.965 1_545 S
Zn119 O117 1.950 1_565 S
Zn119 O126 1.938 . S
Zn119 O127 1.906 . S
Zn119 O137 1.953 . S
Zn120 O117 1.945 . S
Zn120 O122 1.932 . S
Zn120 O129 1.977 . S
Zn120 O130 1.910 . S
O121 Zn118 1.933 . S
O121 C132 1.226 . S
O122 Zn120 1.932 . S
O122 C132 1.307 . S
O123 Zn116 1.919 . S
O123 C134 1.253 . S
O124 Zn118 1.941 . S
O124 C134 1.283 . S
O125 Zn118 1.965 1_565 S
O125 C133 1.303 . S
O126 Zn119 1.938 . S
O126 C133 1.247 . S
O127 Zn119 1.906 . S
O127 C135 1.304 1_565 S
O128 Zn116 1.924 . S
O128 C136 1.311 . S
O129 Zn120 1.977 . S
O129 C135 1.272 . S
O130 Zn120 1.910 . S
O130 C136 1.231 . S
C131 O115 1.225 . S
C131 O137 1.298 . S
C132 O121 1.226 . S
C132 O122 1.307 . S
C133 O125 1.303 . S
C133 O126 1.247 . S
C134 O123 1.253 . S
C134 O124 1.283 . S
C135 O127 1.304 1_545 S
C135 O129 1.272 . S
C136 O128 1.311 . S
C136 O130 1.231 . S
O137 Zn119 1.953 . S
O137 C131 1.298 . S
O138 Zn139 1.953 . S
O138 C154 1.225 . S
Zn139 O138 1.953 . S
Zn139 O140 1.949 . S
Zn139 O146 1.919 . S
Zn139 O151 1.924 . S
O140 Zn139 1.949 . S
O140 Zn141 1.923 . S
O140 Zn142 1.950 . S
O140 Zn143 1.945 . S
Zn141 O140 1.923 . S
Zn141 O144 1.933 1_455 S
Zn141 O147 1.941 . S
Zn141 O148 1.965 . S
Zn142 O140 1.950 . S
Zn142 O149 1.938 . S
Zn142 O150 1.906 . S
Zn142 O160 1.953 . S
Zn143 O140 1.945 . S
Zn143 O145 1.932 1_455 S
Zn143 O152 1.977 . S
Zn143 O153 1.910 . S
O144 Zn141 1.933 1_655 S
O144 C155 1.226 . S
O145 Zn143 1.932 1_655 S
O145 C155 1.307 . S
O146 Zn139 1.919 . S
O146 C157 1.253 . S
O147 Zn141 1.941 . S
O147 C157 1.283 . S
O148 Zn141 1.965 . S
O148 C156 1.303 . S
O149 Zn142 1.938 . S
O149 C156 1.247 . S
O150 Zn142 1.906 . S
O150 C158 1.304 . S
O151 Zn139 1.924 . S
O151 C159 1.311 . S
O152 Zn143 1.977 . S
O152 C158 1.272 . S
O153 Zn143 1.910 . S
O153 C159 1.231 . S
C154 O138 1.225 . S
C154 O160 1.298 . S
C155 O144 1.226 . S
C155 O145 1.307 . S
C156 O148 1.303 . S
C156 O149 1.247 . S
C157 O146 1.253 . S
C157 O147 1.283 . S
C158 O150 1.304 . S
C158 O152 1.272 . S
C159 O151 1.311 . S
C159 O153 1.231 . S
O160 Zn142 1.953 . S
O160 C154 1.298 . S
O161 Zn162 1.953 . S
O161 C177 1.225 . S
Zn162 O161 1.953 . S
Zn162 O163 1.949 . S
Zn162 O169 1.919 . S
Zn162 O174 1.924 1_565 S
O163 Zn162 1.949 . S
O163 Zn164 1.923 . S
O163 Zn165 1.950 . S
O163 Zn166 1.945 . S
Zn164 O163 1.923 . S
Zn164 O167 1.933 . S
Zn164 O170 1.941 . S
Zn164 O171 1.965 . S
Zn165 O163 1.950 . S
Zn165 O172 1.938 . S
Zn165 O173 1.906 . S
Zn165 O183 1.953 . S
Zn166 O163 1.945 . S
Zn166 O168 1.932 . S
Zn166 O175 1.977 . S
Zn166 O176 1.910 1_565 S
O167 Zn164 1.933 . S
O167 C178 1.226 . S
O168 Zn166 1.932 . S
O168 C178 1.307 . S
O169 Zn162 1.919 . S
O169 C180 1.253 . S
O170 Zn164 1.941 . S
O170 C180 1.283 . S
O171 Zn164 1.965 . S
O171 C179 1.303 . S
O172 Zn165 1.938 . S
O172 C179 1.247 . S
O173 Zn165 1.906 . S
O173 C181 1.304 . S
O174 Zn162 1.924 1_545 S
O174 C182 1.311 . S
O175 Zn166 1.977 . S
O175 C181 1.272 . S
O176 Zn166 1.910 1_545 S
O176 C182 1.231 . S
C177 O161 1.225 . S
C177 O183 1.298 . S
C178 O167 1.226 . S
C178 O168 1.307 . S
C179 O171 1.303 . S
C179 O172 1.247 . S
C180 O169 1.253 . S
C180 O170 1.283 . S
C181 O173 1.304 . S
C181 O175 1.272 . S
C182 O174 1.311 . S
C182 O176 1.231 . S
O183 Zn165 1.953 . S
O183 C177 1.298 . S
O184 Zn185 1.953 . S
O184 C200 1.225 . S
Zn185 O184 1.953 . S
Zn185 O186 1.949 . S
Zn185 O192 1.919 . S
Zn185 O197 1.924 . S
O186 Zn185 1.949 . S
O186 Zn187 1.923 1_565 S
O186 Zn188 1.950 . S
O186 Zn189 1.945 . S
Zn187 O186 1.923 1_545 S
Zn187 O190 1.933 . S
Zn187 O193 1.941 . S
Zn187 O194 1.965 . S
Zn188 O186 1.950 . S
Zn188 O195 1.938 . S
Zn188 O196 1.906 . S
Zn188 O206 1.953 . S
Zn189 O186 1.945 . S
Zn189 O191 1.932 1_565 S
Zn189 O198 1.977 . S
Zn189 O199 1.910 . S
O190 Zn187 1.933 . S
O190 C201 1.226 . S
O191 Zn189 1.932 1_545 S
O191 C201 1.307 . S
O192 Zn185 1.919 . S
O192 C203 1.253 . S
O193 Zn187 1.941 . S
O193 C203 1.283 1_545 S
O194 Zn187 1.965 . S
O194 C202 1.303 1_545 S
O195 Zn188 1.938 . S
O195 C202 1.247 . S
O196 Zn188 1.906 . S
O196 C204 1.304 . S
O197 Zn185 1.924 . S
O197 C205 1.311 1_455 S
O198 Zn189 1.977 . S
O198 C204 1.272 . S
O199 Zn189 1.910 . S
O199 C205 1.231 1_455 S
C200 O184 1.225 . S
C200 O206 1.298 . S
C201 O190 1.226 . S
C201 O191 1.307 . S
C202 O194 1.303 1_565 S
C202 O195 1.247 . S
C203 O192 1.253 . S
C203 O193 1.283 1_565 S
C204 O196 1.304 . S
C204 O198 1.272 . S
C205 O197 1.311 1_655 S
C205 O199 1.231 1_655 S
O206 Zn188 1.953 . S
O206 C200 1.298 . S
O207 Zn208 1.953 1_545 S
O207 C223 1.225 . S
Zn208 O207 1.953 1_565 S
Zn208 O209 1.949 . S
Zn208 O215 1.919 . S
Zn208 O220 1.924 . S
O209 Zn208 1.949 . S
O209 Zn210 1.923 . S
O209 Zn211 1.950 . S
O209 Zn212 1.945 . S
Zn210 O209 1.923 . S
Zn210 O213 1.933 . S
Zn210 O216 1.941 . S
Zn210 O217 1.965 . S
Zn211 O209 1.950 . S
Zn211 O218 1.938 . S
Zn211 O219 1.906 . S
Zn211 O229 1.953 1_565 S
Zn212 O209 1.945 . S
Zn212 O214 1.932 . S
Zn212 O221 1.977 . S
Zn212 O222 1.910 . S
O213 Zn210 1.933 . S
O213 C224 1.226 . S
O214 Zn212 1.932 . S
O214 C224 1.307 . S
O215 Zn208 1.919 . S
O215 C226 1.253 . S
O216 Zn210 1.941 . S
O216 C226 1.283 . S
O217 Zn210 1.965 . S
O217 C225 1.303 . S
O218 Zn211 1.938 . S
O218 C225 1.247 . S
O219 Zn211 1.906 . S
O219 C227 1.304 . S
O220 Zn208 1.924 . S
O220 C228 1.311 . S
O221 Zn212 1.977 . S
O221 C227 1.272 . S
O222 Zn212 1.910 . S
O222 C228 1.231 . S
C223 O207 1.225 . S
C223 O229 1.298 . S
C224 O213 1.226 . S
C224 O214 1.307 . S
C225 O217 1.303 . S
C225 O218 1.247 . S
C226 O215 1.253 . S
C226 O216 1.283 . S
C227 O219 1.304 . S
C227 O221 1.272 . S
C228 O220 1.311 . S
C228 O222 1.231 . S
O229 Zn211 1.953 1_545 S
O229 C223 1.298 . S
O230 Zn231 1.953 . S
O230 C246 1.225 1_455 S
Zn231 O230 1.953 . S
Zn231 O232 1.949 . S
Zn231 O238 1.919 . S
Zn231 O243 1.924 . S
O232 Zn231 1.949 . S
O232 Zn233 1.923 1_565 S
O232 Zn234 1.950 . S
O232 Zn235 1.945 . S
Zn233 O232 1.923 1_545 S
Zn233 O236 1.933 . S
Zn233 O239 1.941 . S
Zn233 O240 1.965 . S
Zn234 O232 1.950 . S
Zn234 O241 1.938 1_565 S
Zn234 O242 1.906 . S
Zn234 O252 1.953 . S
Zn235 O232 1.945 . S
Zn235 O237 1.932 . S
Zn235 O244 1.977 . S
Zn235 O245 1.910 . S
O236 Zn233 1.933 . S
O236 C247 1.226 1_545 S
O237 Zn235 1.932 . S
O237 C247 1.307 . S
O238 Zn231 1.919 . S
O238 C249 1.253 . S
O239 Zn233 1.941 . S
O239 C249 1.283 1_545 S
O240 Zn233 1.965 . S
O240 C248 1.303 . S
O241 Zn234 1.938 1_545 S
O241 C248 1.247 . S
O242 Zn234 1.906 . S
O242 C250 1.304 . S
O243 Zn231 1.924 . S
O243 C251 1.311 . S
O244 Zn235 1.977 . S
O244 C250 1.272 . S
O245 Zn235 1.910 . S
O245 C251 1.231 . S
C246 O230 1.225 1_655 S
C246 O252 1.298 1_655 S
C247 O236 1.226 1_565 S
C247 O237 1.307 . S
C248 O240 1.303 . S
C248 O241 1.247 . S
C249 O238 1.253 . S
C249 O239 1.283 1_565 S
C250 O242 1.304 . S
C250 O244 1.272 . S
C251 O243 1.311 . S
C251 O245 1.231 . S
O252 Zn234 1.953 . S
O252 C246 1.298 1_455 S
O253 Zn254 1.953 . S
O253 C269 1.225 . S
Zn254 O253 1.953 . S
Zn254 O255 1.949 . S
Zn254 O261 1.919 . S
Zn254 O266 1.924 . S
O255 Zn254 1.949 . S
O255 Zn256 1.923 . S
O255 Zn257 1.950 . S
O255 Zn258 1.945 . S
Zn256 O255 1.923 . S
Zn256 O259 1.929 1_455 S
Zn256 O262 1.941 . S
Zn256 O263 1.965 1_455 S
Zn257 O255 1.950 . S
Zn257 O264 1.938 1_455 S
Zn257 O265 1.906 . S
Zn257 O275 1.953 . S
Zn258 O255 1.945 . S
Zn258 O260 1.932 . S
Zn258 O267 1.977 . S
Zn258 O268 1.910 . S
O259 Zn256 1.929 1_655 S
O259 C270 1.224 1_655 S
O260 Zn258 1.932 . S
O260 C270 1.307 . S
O261 Zn254 1.919 . S
O261 C272 1.253 . S
O262 Zn256 1.941 . S
O262 C272 1.283 . S
O263 Zn256 1.965 1_655 S
O263 C271 1.303 . S
O264 Zn257 1.938 1_655 S
O264 C271 1.247 . S
O265 Zn257 1.906 . S
O265 C273 1.304 . S
O266 Zn254 1.924 . S
O266 C274 1.311 . S
O267 Zn258 1.977 . S
O267 C273 1.272 . S
O268 Zn258 1.910 . S
O268 C274 1.231 . S
C269 O253 1.225 . S
C269 O275 1.298 . S
C270 O259 1.224 1_455 S
C270 O260 1.307 . S
C271 O263 1.303 . S
C271 O264 1.247 . S
C272 O261 1.253 . S
C272 O262 1.283 . S
C273 O265 1.304 . S
C273 O267 1.272 . S
C274 O266 1.311 . S
C274 O268 1.231 . S
O275 Zn257 1.953 . S
O275 C269 1.298 . S
O276 Zn277 1.953 1_455 S
O276 C292 1.225 . S
Zn277 O276 1.953 1_655 S
Zn277 O278 1.949 . S
Zn277 O284 1.919 . S
Zn277 O289 1.924 . S
O278 Zn277 1.949 . S
O278 Zn279 1.923 . S
O278 Zn280 1.950 . S
O278 Zn281 1.945 . S
Zn279 O278 1.923 . S
Zn279 O282 1.933 . S
Zn279 O285 1.941 . S
Zn279 O286 1.965 . S
Zn280 O278 1.950 . S
Zn280 O287 1.938 . S
Zn280 O288 1.906 . S
Zn280 O298 1.953 1_655 S
Zn281 O278 1.945 . S
Zn281 O283 1.932 . S
Zn281 O290 1.977 . S
Zn281 O291 1.910 . S
O282 Zn279 1.933 . S
O282 C293 1.226 . S
O283 Zn281 1.932 . S
O283 C293 1.307 . S
O284 Zn277 1.919 . S
O284 C295 1.253 . S
O285 Zn279 1.941 . S
O285 C295 1.283 . S
O286 Zn279 1.965 . S
O286 C294 1.303 . S
O287 Zn280 1.938 . S
O287 C294 1.247 . S
O288 Zn280 1.906 . S
O288 C296 1.304 . S
O289 Zn277 1.924 . S
O289 C297 1.311 . S
O290 Zn281 1.977 . S
O290 C296 1.272 . S
O291 Zn281 1.910 . S
O291 C297 1.231 . S
C292 O276 1.225 . S
C292 O298 1.298 . S
C293 O282 1.226 . S
C293 O283 1.307 . S
C294 O286 1.303 . S
C294 O287 1.247 . S
C295 O284 1.253 . S
C295 O285 1.283 . S
C296 O288 1.304 . S
C296 O290 1.272 . S
C297 O289 1.311 . S
C297 O291 1.231 . S
O298 Zn280 1.953 1_455 S
O298 C292 1.298 . S
O299 Zn300 1.953 . S
O299 C315 1.225 . S
Zn300 O299 1.953 . S
Zn300 O301 1.949 . S
Zn300 O307 1.919 . S
Zn300 O312 1.924 . S
O301 Zn300 1.949 . S
O301 Zn302 1.923 . S
O301 Zn303 1.950 . S
O301 Zn304 1.945 . S
Zn302 O301 1.923 . S
Zn302 O305 1.929 1_545 S
Zn302 O308 1.941 . S
Zn302 O309 1.965 1_545 S
Zn303 O301 1.950 . S
Zn303 O310 1.938 1_545 S
Zn303 O311 1.906 . S
Zn303 O321 1.953 . S
Zn304 O301 1.945 . S
Zn304 O306 1.932 . S
Zn304 O313 1.977 . S
Zn304 O314 1.910 . S
O305 Zn302 1.929 1_565 S
O305 C316 1.224 1_565 S
O306 Zn304 1.932 . S
O306 C316 1.307 . S
O307 Zn300 1.919 . S
O307 C318 1.253 . S
O308 Zn302 1.941 . S
O308 C318 1.283 . S
O309 Zn302 1.965 1_565 S
O309 C317 1.303 . S
O310 Zn303 1.938 1_565 S
O310 C317 1.247 . S
O311 Zn303 1.906 . S
O311 C319 1.304 . S
O312 Zn300 1.924 . S
O312 C320 1.311 . S
O313 Zn304 1.977 . S
O313 C319 1.272 . S
O314 Zn304 1.910 . S
O314 C320 1.231 . S
C315 O299 1.225 . S
C315 O321 1.298 . S
C316 O305 1.224 1_545 S
C316 O306 1.307 . S
C317 O309 1.303 . S
C317 O310 1.247 . S
C318 O307 1.253 . S
C318 O308 1.283 . S
C319 O311 1.304 . S
C319 O313 1.272 . S
C320 O312 1.311 . S
C320 O314 1.231 . S
O321 Zn303 1.953 . S
O321 C315 1.298 . S
O322 Zn323 1.953 . S
O322 C338 1.225 1_545 S
Zn323 O322 1.953 . S
Zn323 O324 1.949 . S
Zn323 O330 1.919 . S
Zn323 O335 1.924 . S
O324 Zn323 1.949 . S
O324 Zn325 1.923 1_655 S
O324 Zn326 1.950 . S
O324 Zn327 1.945 . S
Zn325 O324 1.923 1_455 S
Zn325 O328 1.933 . S
Zn325 O331 1.941 . S
Zn325 O332 1.965 . S
Zn326 O324 1.950 . S
Zn326 O333 1.938 1_655 S
Zn326 O334 1.906 . S
Zn326 O344 1.953 . S
Zn327 O324 1.945 . S
Zn327 O329 1.932 . S
Zn327 O336 1.977 . S
Zn327 O337 1.910 . S
O328 Zn325 1.933 . S
O328 C339 1.226 1_455 S
O329 Zn327 1.932 . S
O329 C339 1.307 . S
O330 Zn323 1.919 . S
O330 C341 1.253 . S
O331 Zn325 1.941 . S
O331 C341 1.283 1_455 S
O332 Zn325 1.965 . S
O332 C340 1.303 . S
O333 Zn326 1.938 1_455 S
O333 C340 1.247 . S
O334 Zn326 1.906 . S
O334 C342 1.304 . S
O335 Zn323 1.924 . S
O335 C343 1.311 . S
O336 Zn327 1.977 . S
O336 C342 1.272 . S
O337 Zn327 1.910 . S
O337 C343 1.231 . S
C338 O322 1.225 1_565 S
C338 O344 1.298 1_565 S
C339 O328 1.226 1_655 S
C339 O329 1.307 . S
C340 O332 1.303 . S
C340 O333 1.247 . S
C341 O330 1.253 . S
C341 O331 1.283 1_655 S
C342 O334 1.304 . S
C342 O336 1.272 . S
C343 O335 1.311 . S
C343 O337 1.231 . S
O344 Zn326 1.953 . S
O344 C338 1.298 1_545 S
O345 Zn346 1.953 . S
O345 C361 1.225 . S
Zn346 O345 1.953 . S
Zn346 O347 1.949 . S
Zn346 O353 1.919 . S
Zn346 O358 1.924 . S
O347 Zn346 1.949 . S
O347 Zn348 1.923 . S
O347 Zn349 1.950 . S
O347 Zn350 1.945 . S
Zn348 O347 1.923 . S
Zn348 O351 1.933 1_545 S
Zn348 O354 1.941 . S
Zn348 O355 1.965 . S
Zn349 O347 1.950 . S
Zn349 O356 1.938 . S
Zn349 O357 1.906 . S
Zn349 O367 1.953 . S
Zn350 O347 1.945 . S
Zn350 O352 1.932 1_545 S
Zn350 O359 1.977 . S
Zn350 O360 1.910 . S
O351 Zn348 1.933 1_565 S
O351 C362 1.226 . S
O352 Zn350 1.932 1_565 S
O352 C362 1.307 . S
O353 Zn346 1.919 . S
O353 C364 1.253 . S
O354 Zn348 1.941 . S
O354 C364 1.283 . S
O355 Zn348 1.965 . S
O355 C363 1.303 . S
O356 Zn349 1.938 . S
O356 C363 1.247 . S
O357 Zn349 1.906 . S
O357 C365 1.304 . S
O358 Zn346 1.924 . S
O358 C366 1.311 . S
O359 Zn350 1.977 . S
O359 C365 1.272 . S
O360 Zn350 1.910 . S
O360 C366 1.231 . S
C361 O345 1.225 . S
C361 O367 1.298 . S
C362 O351 1.226 . S
C362 O352 1.307 . S
C363 O355 1.303 . S
C363 O356 1.247 . S
C364 O353 1.253 . S
C364 O354 1.283 . S
C365 O357 1.304 . S
C365 O359 1.272 . S
C366 O358 1.311 . S
C366 O360 1.231 . S
O367 Zn349 1.953 . S
O367 C361 1.298 . S
O368 Zn369 1.953 . S
O368 C384 1.225 . S
Zn369 O368 1.953 . S
Zn369 O370 1.949 . S
Zn369 O376 1.919 . S
Zn369 O381 1.924 . S
O370 Zn369 1.949 . S
O370 Zn371 1.923 1_655 S
O370 Zn372 1.950 . S
O370 Zn373 1.945 . S
Zn371 O370 1.923 1_455 S
Zn371 O374 1.933 . S
Zn371 O377 1.941 . S
Zn371 O378 1.965 . S
Zn372 O370 1.950 . S
Zn372 O379 1.938 . S
Zn372 O380 1.906 . S
Zn372 O390 1.953 . S
Zn373 O370 1.945 . S
Zn373 O375 1.932 1_655 S
Zn373 O382 1.977 . S
Zn373 O383 1.910 . S
O374 Zn371 1.933 . S
O374 C385 1.226 . S
O375 Zn373 1.932 1_455 S
O375 C385 1.307 . S
O376 Zn369 1.919 . S
O376 C387 1.253 . S
O377 Zn371 1.941 . S
O377 C387 1.283 1_455 S
O378 Zn371 1.965 . S
O378 C386 1.303 1_455 S
O379 Zn372 1.938 . S
O379 C386 1.247 . S
O380 Zn372 1.906 . S
O380 C388 1.304 . S
O381 Zn369 1.924 . S
O381 C389 1.311 1_545 S
O382 Zn373 1.977 . S
O382 C388 1.272 . S
O383 Zn373 1.910 . S
O383 C389 1.231 1_545 S
C384 O368 1.225 . S
C384 O390 1.298 . S
C385 O374 1.226 . S
C385 O375 1.307 . S
C386 O378 1.303 1_655 S
C386 O379 1.247 . S
C387 O376 1.253 . S
C387 O377 1.283 1_655 S
C388 O380 1.304 . S
C388 O382 1.272 . S
C389 O381 1.311 1_565 S
C389 O383 1.231 1_565 S
O390 Zn372 1.953 . S
O390 C384 1.298 . S
O391 Zn392 1.953 . S
O391 C407 1.225 . S
Zn392 O391 1.953 . S
Zn392 O393 1.949 . S
Zn392 O399 1.919 . S
Zn392 O404 1.924 1_655 S
O393 Zn392 1.949 . S
O393 Zn394 1.923 . S
O393 Zn395 1.950 . S
O393 Zn396 1.945 . S
Zn394 O393 1.923 . S
Zn394 O397 1.933 . S
Zn394 O400 1.941 . S
Zn394 O401 1.965 . S
Zn395 O393 1.950 . S
Zn395 O402 1.938 . S
Zn395 O403 1.906 . S
Zn395 O413 1.953 . S
Zn396 O393 1.945 . S
Zn396 O398 1.932 . S
Zn396 O405 1.977 . S
Zn396 O406 1.910 1_655 S
O397 Zn394 1.933 . S
O397 C408 1.226 . S
O398 Zn396 1.932 . S
O398 C408 1.307 . S
O399 Zn392 1.919 . S
O399 C410 1.253 . S
O400 Zn394 1.941 . S
O400 C410 1.283 . S
O401 Zn394 1.965 . S
O401 C409 1.303 . S
O402 Zn395 1.938 . S
O402 C409 1.247 . S
O403 Zn395 1.906 . S
O403 C411 1.304 . S
O404 Zn392 1.924 1_455 S
O404 C412 1.311 . S
O405 Zn396 1.977 . S
O405 C411 1.272 . S
O406 Zn396 1.910 1_455 S
O406 C412 1.231 . S
C407 O391 1.225 . S
C407 O413 1.298 . S
C408 O397 1.226 . S
C408 O398 1.307 . S
C409 O401 1.303 . S
C409 O402 1.247 . S
C410 O399 1.253 . S
C410 O400 1.283 . S
C411 O403 1.304 . S
C411 O405 1.272 . S
C412 O404 1.311 . S
C412 O406 1.231 . S
O413 Zn395 1.953 . S
O413 C407 1.298 . S
C21 C63 1.564 . S
C17 C44 1.564 . S
C40 C67 1.563 . S
C90 C109 1.564 . S
C132 C113 1.563 . S
C136 C86 1.564 . S
C201 C159 1.564 . S
C155 C182 1.564 . S
C205 C178 1.563 . S
C247 C228 1.564 . S
C251 C270 1.564 . S
C224 C274 1.564 . S
C297 C339 1.564 . S
C293 C320 1.564 . S
C316 C343 1.564 . S
C385 C366 1.563 . S
C408 C389 1.563 . S
C362 C412 1.564 . S
C20 C135 1.569 1_564 S
C89 C43 1.569 1_656 S
C112 C66 1.569 1_556 S
C158 C273 1.569 . S
C181 C227 1.569 . S
C250 C204 1.569 . S
C296 C411 1.569 . S
C365 C319 1.568 . S
C388 C342 1.569 . S
C249 C19 1.843 . S
C42 C272 1.843 . S
C226 C65 1.844 . S
C88 C341 1.843 . S
C111 C295 1.844 . S
C318 C134 1.843 . S
C387 C157 1.843 1_655 S
C180 C410 1.843 . S
C203 C364 1.843 1_565 S
C62 C18 1.379 . S
C16 C41 1.380 . S
C64 C39 1.379 . S
C108 C87 1.379 . S
C131 C110 1.379 . S
C133 C85 1.380 . S
C200 C156 1.379 . S
C179 C154 1.379 . S
C177 C202 1.379 . S
C225 C246 1.379 . S
C248 C269 1.379 . S
C223 C271 1.379 . S
C294 C338 1.379 . S
C317 C292 1.379 . S
C315 C340 1.379 . S
C363 C384 1.379 . S
C386 C407 1.379 . S
C361 C409 1.379 . S
