# Generated by pormake.
# Topology uot, (4)-cn, num edge types: 1
# Building blocks:
#     Node 0, Type 0, BuildingBlock: QUQFOY_clean_sbu_3, # of connection points: 4
#     Node 1, Type 0, BuildingBlock: QUQFOY_clean_sbu_3, # of connection points: 4
#     Node 2, Type 0, BuildingBlock: QUQFOY_clean_sbu_3, # of connection points: 4
#     Node 3, Type 0, BuildingBlock: QUQFOY_clean_sbu_3, # of connection points: 4
#     Node 4, Type 0, BuildingBlock: QUQFOY_clean_sbu_3, # of connection points: 4
#     Node 5, Type 0, BuildingBlock: QUQFOY_clean_sbu_3, # of connection points: 4
#     Node 6, Type 0, BuildingBlock: QUQFOY_clean_sbu_3, # of connection points: 4
#     Node 7, Type 0, BuildingBlock: QUQFOY_clean_sbu_3, # of connection points: 4
#     Node 8, Type 0, BuildingBlock: QUQFOY_clean_sbu_3, # of connection points: 4
#     Node 9, Type 0, BuildingBlock: QUQFOY_clean_sbu_3, # of connection points: 4
#     Node 10, Type 0, BuildingBlock: QUQFOY_clean_sbu_3, # of connection points: 4
#     Node 11, Type 0, BuildingBlock: QUQFOY_clean_sbu_3, # of connection points: 4
#     Node 12, Type 0, BuildingBlock: QUQFOY_clean_sbu_3, # of connection points: 4
#     Node 13, Type 0, BuildingBlock: QUQFOY_clean_sbu_3, # of connection points: 4
#     Node 14, Type 0, BuildingBlock: QUQFOY_clean_sbu_3, # of connection points: 4
#     Node 15, Type 0, BuildingBlock: QUQFOY_clean_sbu_3, # of connection points: 4
#     Edge 16, Type (0, 0), BuildingBlock: CIFDUS_clean_linker_0, # of connection points: 2
#     Edge 17, Type (0, 0), BuildingBlock: CIFDUS_clean_linker_0, # of connection points: 2
#     Edge 18, Type (0, 0), BuildingBlock: CIFDUS_clean_linker_0, # of connection points: 2
#     Edge 19, Type (0, 0), BuildingBlock: CIFDUS_clean_linker_0, # of connection points: 2
#     Edge 20, Type (0, 0), BuildingBlock: CIFDUS_clean_linker_0, # of connection points: 2
#     Edge 21, Type (0, 0), BuildingBlock: CIFDUS_clean_linker_0, # of connection points: 2
#     Edge 22, Type (0, 0), BuildingBlock: CIFDUS_clean_linker_0, # of connection points: 2
#     Edge 23, Type (0, 0), BuildingBlock: CIFDUS_clean_linker_0, # of connection points: 2
#     Edge 24, Type (0, 0), BuildingBlock: CIFDUS_clean_linker_0, # of connection points: 2
#     Edge 25, Type (0, 0), BuildingBlock: CIFDUS_clean_linker_0, # of connection points: 2
#     Edge 26, Type (0, 0), BuildingBlock: CIFDUS_clean_linker_0, # of connection points: 2
#     Edge 27, Type (0, 0), BuildingBlock: CIFDUS_clean_linker_0, # of connection points: 2
#     Edge 28, Type (0, 0), BuildingBlock: CIFDUS_clean_linker_0, # of connection points: 2
#     Edge 29, Type (0, 0), BuildingBlock: CIFDUS_clean_linker_0, # of connection points: 2
#     Edge 30, Type (0, 0), BuildingBlock: CIFDUS_clean_linker_0, # of connection points: 2
#     Edge 31, Type (0, 0), BuildingBlock: CIFDUS_clean_linker_0, # of connection points: 2
#     Edge 32, Type (0, 0), BuildingBlock: CIFDUS_clean_linker_0, # of connection points: 2
#     Edge 33, Type (0, 0), BuildingBlock: CIFDUS_clean_linker_0, # of connection points: 2
#     Edge 34, Type (0, 0), BuildingBlock: CIFDUS_clean_linker_0, # of connection points: 2
#     Edge 35, Type (0, 0), BuildingBlock: CIFDUS_clean_linker_0, # of connection points: 2
#     Edge 36, Type (0, 0), BuildingBlock: CIFDUS_clean_linker_0, # of connection points: 2
#     Edge 37, Type (0, 0), BuildingBlock: CIFDUS_clean_linker_0, # of connection points: 2
#     Edge 38, Type (0, 0), BuildingBlock: CIFDUS_clean_linker_0, # of connection points: 2
#     Edge 39, Type (0, 0), BuildingBlock: CIFDUS_clean_linker_0, # of connection points: 2
#     Edge 40, Type (0, 0), BuildingBlock: CIFDUS_clean_linker_0, # of connection points: 2
#     Edge 41, Type (0, 0), BuildingBlock: CIFDUS_clean_linker_0, # of connection points: 2
#     Edge 42, Type (0, 0), BuildingBlock: CIFDUS_clean_linker_0, # of connection points: 2
#     Edge 43, Type (0, 0), BuildingBlock: CIFDUS_clean_linker_0, # of connection points: 2
#     Edge 44, Type (0, 0), BuildingBlock: CIFDUS_clean_linker_0, # of connection points: 2
#     Edge 45, Type (0, 0), BuildingBlock: CIFDUS_clean_linker_0, # of connection points: 2
#     Edge 46, Type (0, 0), BuildingBlock: CIFDUS_clean_linker_0, # of connection points: 2
#     Edge 47, Type (0, 0), BuildingBlock: CIFDUS_clean_linker_0, # of connection points: 2
# Relax obj value: 0.066
# Max RMSD: 0.086
# Mean RMSD: 0.086
data_MOF--net-uot--node1-QUQFOY_clean_sbu_3--edge1-CIFDUS_clean_linker_0
_symmetry_space_group_name_H-M    P1
_symmetry_Int_Tables_number       1
_symmetry_cell_setting            triclinic
loop_
_symmetry_equiv_pos_as_xyz
'x, y, z'
_cell_length_a     40.939676
_cell_length_b     41.150953
_cell_length_c     36.805512
_cell_angle_alpha  90.039637
_cell_angle_beta   90.067887
_cell_angle_gamma 89.908583
loop_
_atom_site_label
_atom_site_type_symbol
_atom_site_fract_x
_atom_site_fract_y
_atom_site_fract_z
_atom_type_partial_charge
C0 C 0.13013 0.38524 0.30107 0.0
O1 O 0.11849 0.39533 0.33098 0.0
Cd2 Cd 0.14903 0.43559 0.36425 0.0
O3 O 0.15902 0.39276 0.29168 0.0
Cd4 Cd 0.20945 0.41912 0.31227 0.0
C5 C 0.16838 0.4868 0.29183 0.0
O6 O 0.20185 0.41407 0.37731 0.0
O7 O 0.23631 0.45068 0.36005 0.0
O8 O 0.22795 0.36523 0.30083 0.0
C9 C 0.22289 0.43532 0.38591 0.0
O10 O 0.15327 0.48126 0.32148 0.0
C11 C 0.25448 0.37245 0.2851 0.0
O12 O 0.18961 0.46692 0.27956 0.0
O13 O 0.26089 0.40257 0.28138 0.0
C14 C 0.40165 0.85702 0.66094 0.0
O15 O 0.42279 0.86604 0.6379 0.0
Cd16 Cd 0.45748 0.82743 0.60813 0.0
O17 O 0.39866 0.82717 0.66932 0.0
Cd18 Cd 0.42393 0.77416 0.65432 0.0
C19 C 0.49612 0.80089 0.68515 0.0
O20 O 0.42418 0.78248 0.58921 0.0
O21 O 0.4548 0.74325 0.60816 0.0
O22 O 0.36848 0.75703 0.66308 0.0
C23 C 0.44142 0.75784 0.58169 0.0
O24 O 0.49841 0.8148 0.65436 0.0
C25 C 0.37494 0.73034 0.67869 0.0
O26 O 0.47016 0.78594 0.6941 0.0
O27 O 0.40493 0.72366 0.68375 0.0
C28 C 0.85729 0.57976 0.31441 0.0
O29 O 0.86583 0.56314 0.34186 0.0
Cd30 Cd 0.83125 0.52026 0.3631 0.0
O31 O 0.82877 0.57661 0.30098 0.0
Cd32 Cd 0.77614 0.54848 0.31264 0.0
C33 C 0.81478 0.4839 0.2797 0.0
O34 O 0.77925 0.54264 0.37829 0.0
O35 O 0.74739 0.50884 0.35094 0.0
O36 O 0.75316 0.60211 0.30803 0.0
C37 C 0.75798 0.5204 0.38064 0.0
O38 O 0.82811 0.48284 0.31102 0.0
C39 C 0.72847 0.59432 0.2891 0.0
O40 O 0.79547 0.50692 0.27108 0.0
O41 O 0.72562 0.56454 0.28043 0.0
C42 C 0.56038 0.1287 0.67315 0.0
O43 O 0.54623 0.11797 0.64484 0.0
Cd44 Cd 0.5082 0.15085 0.61085 0.0
O45 O 0.55756 0.15838 0.68254 0.0
Cd46 Cd 0.53523 0.21169 0.66394 0.0
C47 C 0.46164 0.1795 0.68397 0.0
O48 O 0.53669 0.19971 0.60052 0.0
O49 O 0.51327 0.24516 0.61344 0.0
O50 O 0.59091 0.22511 0.6761 0.0
C51 C 0.52173 0.22474 0.58941 0.0
O52 O 0.46528 0.16263 0.65515 0.0
C53 C 0.58558 0.25238 0.69106 0.0
O54 O 0.48402 0.19858 0.6953 0.0
O55 O 0.55586 0.26095 0.69479 0.0
C56 C 0.12166 0.58499 0.65009 0.0
O57 O 0.11118 0.57098 0.62166 0.0
Cd58 Cd 0.14163 0.5265 0.5968 0.0
O59 O 0.14981 0.57809 0.66271 0.0
Cd60 Cd 0.19911 0.54563 0.64818 0.0
C61 C 0.15448 0.48308 0.6763 0.0
O62 O 0.19502 0.54635 0.58248 0.0
O63 O 0.22478 0.50789 0.60487 0.0
O64 O 0.22564 0.59665 0.65808 0.0
C65 C 0.21508 0.52339 0.57709 0.0
O66 O 0.1406 0.48532 0.64537 0.0
C67 C 0.24999 0.58567 0.67554 0.0
O68 O 0.17635 0.50328 0.68591 0.0
O69 O 0.25099 0.55517 0.68096 0.0
C70 C 0.56488 0.8353 0.29563 0.0
O71 O 0.55518 0.84699 0.32567 0.0
Cd72 Cd 0.51545 0.81744 0.36026 0.0
O73 O 0.55727 0.80647 0.28645 0.0
Cd74 Cd 0.53039 0.75707 0.30962 0.0
C75 C 0.46279 0.79827 0.289 0.0
O76 O 0.53768 0.76539 0.37432 0.0
O77 O 0.49854 0.73293 0.35913 0.0
O78 O 0.58315 0.73484 0.29807 0.0
C79 C 0.51602 0.74526 0.38407 0.0
O80 O 0.4688 0.81355 0.31842 0.0
C81 C 0.5739 0.70845 0.28357 0.0
O82 O 0.48236 0.77668 0.27697 0.0
O83 O 0.54323 0.70427 0.28006 0.0
C84 C 0.84587 0.38434 0.64758 0.0
O85 O 0.85652 0.40054 0.62077 0.0
Cd86 Cd 0.82796 0.448 0.60032 0.0
O87 O 0.81825 0.39122 0.66158 0.0
Cd88 Cd 0.77046 0.42757 0.65219 0.0
C89 C 0.81831 0.48686 0.68339 0.0
O90 O 0.77317 0.43229 0.58639 0.0
O91 O 0.74562 0.46971 0.61365 0.0
O92 O 0.74007 0.37809 0.66006 0.0
C93 C 0.75457 0.45683 0.58398 0.0
O94 O 0.83121 0.48614 0.65187 0.0
C95 C 0.71759 0.39011 0.67961 0.0
O96 O 0.79632 0.46657 0.6923 0.0
O97 O 0.71936 0.42028 0.68678 0.0
C98 C 0.40153 0.11183 0.30933 0.0
O99 O 0.41809 0.10105 0.33597 0.0
Cd100 Cd 0.4591 0.13056 0.36814 0.0
O101 O 0.40472 0.14112 0.29841 0.0
Cd102 Cd 0.43459 0.1921 0.31506 0.0
C103 C 0.50544 0.15412 0.29358 0.0
O104 O 0.4319 0.18005 0.37839 0.0
O105 O 0.46057 0.22227 0.36652 0.0
O106 O 0.3834 0.21804 0.29977 0.0
C107 C 0.44931 0.20301 0.39022 0.0
O108 O 0.50237 0.13833 0.32317 0.0
C109 C 0.39582 0.24327 0.28558 0.0
O110 O 0.48349 0.1739 0.28279 0.0
O111 O 0.42679 0.24446 0.28385 0.0
C112 C 0.63694 0.88469 0.79623 0.0
O113 O 0.62464 0.89641 0.82504 0.0
Cd114 Cd 0.64964 0.94309 0.85259 0.0
O115 O 0.66445 0.89482 0.78482 0.0
Cd116 Cd 0.71049 0.93072 0.8013 0.0
C117 C 0.66004 -0.0108 0.77407 0.0
O118 O 0.70508 0.9308 0.86702 0.0
O119 O 0.73157 0.97117 0.84396 0.0
O120 O 0.74016 0.88129 0.79355 0.0
C121 C 0.72214 0.9561 0.8721 0.0
O122 O 0.64632 -0.01542 0.80473 0.0
C123 C 0.76458 0.8932 0.77717 0.0
O124 O 0.68379 0.97146 0.76365 0.0
O125 O 0.76424 0.92366 0.77114 0.0
C126 C 0.89705 0.3424 0.16493 0.0
O127 O 0.91182 0.35416 0.1376 0.0
Cd128 Cd 0.95305 0.32233 0.107 0.0
O129 O 0.90063 0.31264 0.17347 0.0
Cd130 Cd 0.92522 0.26051 0.15532 0.0
C131 C -0.0064 0.29645 0.18544 0.0
O132 O 0.9284 0.27209 0.09141 0.0
O133 O 0.95389 0.22869 0.10837 0.0
O134 O 0.86972 0.24381 0.16209 0.0
C135 C 0.94589 0.24783 0.08286 0.0
O136 O -0.00801 0.31337 0.15646 0.0
C137 C 0.87564 0.21753 0.17888 0.0
O138 O 0.97171 0.27557 0.19316 0.0
O139 O 0.90545 0.21086 0.18544 0.0
C140 C 0.34279 0.09723 0.82291 0.0
O141 O 0.35202 0.08529 0.85299 0.0
Cd142 Cd 0.32868 0.03472 0.87075 0.0
O143 O 0.31776 0.08578 0.80671 0.0
Cd144 Cd 0.27134 0.04722 0.81494 0.0
C145 C 0.32759 -0.00449 0.7863 0.0
O146 O 0.27143 0.04217 0.8806 0.0
O147 O 0.24884 0.00276 0.85105 0.0
O148 O 0.23988 0.09594 0.80814 0.0
C149 C 0.25533 0.01587 0.88139 0.0
O150 O 0.34054 0.00084 0.81724 0.0
C151 C 0.2176 0.08413 0.78818 0.0
O152 O 0.30102 0.00924 0.77687 0.0
O153 O 0.22 0.05421 0.77984 0.0
C154 C 0.08426 0.61031 0.15521 0.0
O155 O 0.06944 0.60237 0.12624 0.0
Cd156 Cd 0.02995 0.63827 0.09963 0.0
O157 O 0.08059 0.63863 0.16865 0.0
Cd158 Cd 0.05388 0.69147 0.15458 0.0
C159 C 0.98342 0.65616 0.17602 0.0
O160 O 0.05632 0.68892 0.08866 0.0
O161 O 0.02039 0.72191 0.11052 0.0
O162 O 0.10795 0.71124 0.16631 0.0
C163 C 0.03555 0.71117 0.08299 0.0
O164 O 0.9859 0.64325 0.14463 0.0
C165 C 0.09982 0.73668 0.18351 0.0
O166 O 0.00623 0.67376 0.18891 0.0
O167 O 0.06941 0.74142 0.18834 0.0
C168 C 0.62127 0.07245 0.14907 0.0
O169 O 0.61083 0.05745 0.12126 0.0
Cd170 Cd 0.6413 0.01211 0.09826 0.0
O171 O 0.64942 0.06601 0.16199 0.0
Cd172 Cd 0.69885 0.03315 0.14935 0.0
C173 C 0.65455 0.97139 0.17964 0.0
O174 O 0.69506 0.0305 0.08363 0.0
O175 O 0.72478 -0.00659 0.10877 0.0
O176 O 0.72599 0.08421 0.15683 0.0
C177 C 0.71489 0.00706 0.07989 0.0
O178 O 0.64073 0.9727 0.14859 0.0
C179 C 0.74973 0.07367 0.17561 0.0
O180 O 0.67617 -0.00796 0.1887 0.0
O181 O 0.75016 0.04344 0.18272 0.0
C182 C 0.06112 0.34808 0.79025 0.0
O183 O 0.04744 0.36106 0.81766 0.0
Cd184 Cd 0.00966 0.33207 0.85557 0.0
O185 O 0.05816 0.31781 0.78378 0.0
Cd186 Cd 0.03589 0.26657 0.80871 0.0
C187 C 0.96275 0.29834 0.78552 0.0
O188 O 0.03799 0.28421 0.87048 0.0
O189 O 0.01289 0.23883 0.86296 0.0
O190 O 0.09125 0.25081 0.79804 0.0
C191 C 0.02211 0.26108 0.88451 0.0
O192 O 0.96645 0.31719 0.81274 0.0
C193 C 0.08537 0.22297 0.78478 0.0
O194 O 0.98497 0.27829 0.77596 0.0
O195 O 0.05548 0.21479 0.78188 0.0
C196 C 0.34508 0.88785 0.15058 0.0
O197 O 0.35394 0.90108 0.12104 0.0
Cd198 Cd 0.32292 0.94478 0.09442 0.0
O199 O 0.31768 0.8951 0.16484 0.0
Cd200 Cd 0.26743 0.9271 0.15333 0.0
C201 C 0.31289 -0.00739 0.17173 0.0
O202 O 0.26792 0.92756 0.08734 0.0
O203 O 0.23805 0.96413 0.11315 0.0
O204 O 0.2423 0.87551 0.16398 0.0
C205 C 0.24799 0.95102 0.084 0.0
O206 O 0.32459 -0.0117 0.13998 0.0
C207 C 0.21884 0.88567 0.18339 0.0
O208 O 0.29281 0.97243 0.18557 0.0
O209 O 0.21773 0.91605 0.18987 0.0
C210 C 0.90604 0.62391 0.80124 0.0
O211 O 0.91642 0.61264 0.83121 0.0
Cd212 Cd 0.9546 0.64458 0.86586 0.0
O213 O 0.91192 0.6532 0.79238 0.0
Cd214 Cd 0.9358 0.70422 0.81548 0.0
C215 C 0.0055 0.66703 0.79452 0.0
O216 O 0.93005 0.69563 0.88044 0.0
O217 O 0.96634 0.73084 0.86434 0.0
O218 O 0.8822 0.72376 0.80214 0.0
C219 C 0.95066 0.71708 0.88973 0.0
O220 O 0.00074 0.65112 0.82377 0.0
C221 C 0.89065 0.75 0.78679 0.0
O222 O 0.98458 0.68754 0.78302 0.0
O223 O 0.92114 0.75568 0.78446 0.0
H224 H 0.32064 0.37606 0.27499 0.0
H225 H 0.23903 0.30982 0.27181 0.0
H226 H 0.27612 0.26386 0.26653 0.0
H227 H 0.33121 0.24198 0.27177 0.0
H228 H 0.41362 0.30693 0.27671 0.0
H229 H 0.37692 0.35381 0.27171 0.0
C230 C 0.31108 0.35162 0.27226 0.0
C231 C 0.27721 0.34628 0.2744 0.0
C232 C 0.33267 0.32502 0.26999 0.0
C233 C 0.26506 0.31451 0.2708 0.0
C234 C 0.28623 0.28817 0.26782 0.0
C235 C 0.3412 0.26638 0.27113 0.0
C236 C 0.37493 0.27105 0.2752 0.0
C237 C 0.32002 0.29305 0.26886 0.0
C238 C 0.38764 0.30275 0.27376 0.0
C239 C 0.36665 0.32956 0.27113 0.0
H240 H 0.3798 0.66527 0.69242 0.0
H241 H 0.31052 0.74418 0.68429 0.0
H242 H 0.26538 0.70594 0.68766 0.0
H243 H 0.24579 0.65026 0.68453 0.0
H244 H 0.31389 0.57041 0.69043 0.0
H245 H 0.35931 0.60879 0.69698 0.0
C246 C 0.35481 0.67406 0.69216 0.0
C247 C 0.34847 0.70741 0.68752 0.0
C248 C 0.32881 0.65178 0.69334 0.0
C249 C 0.31602 0.71855 0.68731 0.0
C250 C 0.29016 0.69672 0.6892 0.0
C251 C 0.27054 0.64123 0.68778 0.0
C252 C 0.27664 0.60769 0.68638 0.0
C253 C 0.29631 0.6633 0.69085 0.0
C254 C 0.30867 0.59622 0.69127 0.0
C255 C 0.33462 0.61815 0.69478 0.0
H256 H 0.63873 0.71678 0.27766 0.0
H257 H 0.56386 0.64351 0.26964 0.0
H258 H 0.60592 0.60108 0.26589 0.0
H259 H 0.66399 0.58478 0.273 0.0
H260 H 0.73744 0.65921 0.28476 0.0
H261 H 0.69591 0.70126 0.27871 0.0
C262 C 0.63153 0.69156 0.2746 0.0
C263 C 0.59827 0.68322 0.27447 0.0
C264 C 0.65565 0.6675 0.27347 0.0
C265 C 0.58935 0.65051 0.26993 0.0
C266 C 0.61339 0.62626 0.26803 0.0
C267 C 0.67086 0.61022 0.27352 0.0
C268 C 0.70364 0.61894 0.27972 0.0
C269 C 0.64662 0.63442 0.27098 0.0
C270 C 0.71231 0.65193 0.28045 0.0
C271 C 0.68859 0.676 0.277 0.0
H272 H 0.58425 0.31797 0.70283 0.0
H273 H 0.64917 0.2353 0.69766 0.0
H274 H 0.69629 0.27121 0.69794 0.0
H275 H 0.71865 0.32566 0.69073 0.0
H276 H 0.65496 0.40906 0.69507 0.0
H277 H 0.60776 0.37339 0.70447 0.0
C278 C 0.60873 0.30787 0.70268 0.0
C279 C 0.61321 0.27408 0.69959 0.0
C280 C 0.63589 0.32877 0.70215 0.0
C281 C 0.64506 0.26127 0.69952 0.0
C282 C 0.67206 0.28177 0.69956 0.0
C283 C 0.69448 0.33604 0.69426 0.0
C284 C 0.69006 0.36975 0.69157 0.0
C285 C 0.66769 0.31549 0.69937 0.0
C286 C 0.65882 0.38306 0.69687 0.0
C287 C 0.63186 0.36268 0.70206 0.0
H288 H 0.76258 0.82937 0.7635 0.0
H289 H 0.82931 0.90992 0.77176 0.0
H290 H 0.87583 0.87219 0.77042 0.0
H291 H 0.89652 0.8156 0.77618 0.0
H292 H 0.82803 0.73609 0.77017 0.0
H293 H 0.78325 0.77407 0.76091 0.0
C294 C 0.78735 0.83871 0.76434 0.0
C295 C 0.79264 0.87218 0.7683 0.0
C296 C 0.81363 0.81699 0.76433 0.0
C297 C 0.82474 0.88414 0.76877 0.0
C298 C 0.85128 0.86256 0.7683 0.0
C299 C 0.87188 0.80668 0.77203 0.0
C300 C 0.86546 0.77317 0.77448 0.0
C301 C 0.84593 0.82882 0.76748 0.0
C302 C 0.83348 0.76183 0.76899 0.0
C303 C 0.80783 0.78351 0.76369 0.0
H304 H 0.74582 0.13848 0.18222 0.0
H305 H 0.81311 0.05835 0.19284 0.0
H306 H 0.85863 0.09655 0.19985 0.0
H307 H 0.87966 0.15276 0.19451 0.0
H308 H 0.81122 0.23193 0.18192 0.0
H309 H 0.76572 0.19407 0.18462 0.0
C310 C 0.77041 0.12936 0.18657 0.0
C311 C 0.7763 0.09578 0.18639 0.0
C312 C 0.79624 0.15131 0.18998 0.0
C313 C 0.80809 0.0842 0.19272 0.0
C314 C 0.83409 0.10601 0.19651 0.0
C315 C 0.85475 0.1617 0.19314 0.0
C316 C 0.84879 0.19498 0.18742 0.0
C317 C 0.82857 0.13964 0.19395 0.0
C318 C 0.81644 0.20634 0.18578 0.0
C319 C 0.79038 0.18473 0.18728 0.0
H320 H 0.0834 0.15712 0.77333 0.0
H321 H 0.14889 0.23926 0.77677 0.0
H322 H 0.19573 0.20308 0.77336 0.0
H323 H 0.21823 0.1485 0.77769 0.0
H324 H 0.15435 0.06542 0.77513 0.0
H325 H 0.10676 0.10146 0.76927 0.0
C326 C 0.10791 0.16704 0.77259 0.0
C327 C 0.11266 0.20079 0.77599 0.0
C328 C 0.13502 0.14595 0.77113 0.0
C329 C 0.14455 0.21335 0.77479 0.0
C330 C 0.17142 0.1927 0.77285 0.0
C331 C 0.1939 0.13827 0.77525 0.0
C332 C 0.18961 0.10453 0.77739 0.0
C333 C 0.16694 0.15901 0.77236 0.0
C334 C 0.15814 0.09142 0.77361 0.0
C335 C 0.13096 0.11203 0.77053 0.0
H336 H 0.22549 0.82151 0.19387 0.0
H337 H 0.15441 0.89878 0.19798 0.0
H338 H 0.11034 0.85876 0.2038 0.0
H339 H 0.092 0.80147 0.19824 0.0
H340 H 0.16439 0.72526 0.19205 0.0
H341 H 0.20795 0.76513 0.19704 0.0
C342 C 0.20038 0.82962 0.19671 0.0
C343 C 0.19306 0.8629 0.19492 0.0
C344 C 0.17539 0.8066 0.19934 0.0
C345 C 0.16057 0.87319 0.19921 0.0
C346 C 0.13539 0.85031 0.20226 0.0
C347 C 0.11729 0.79363 0.19887 0.0
C348 C 0.12499 0.76053 0.19418 0.0
C349 C 0.14244 0.81688 0.20096 0.0
C350 C 0.15785 0.75064 0.19508 0.0
C351 C 0.18281 0.77342 0.19788 0.0
H352 H 0.16159 0.4902 0.21869 0.0
H353 H 0.1514 0.54649 0.31687 0.0
H354 H 0.12716 0.59121 0.28237 0.0
H355 H 0.10437 0.61214 0.22544 0.0
H356 H 0.10993 0.55393 0.12806 0.0
H357 H 0.14044 0.51215 0.16098 0.0
C358 C 0.15466 0.51256 0.2323 0.0
C359 C 0.15839 0.51524 0.27014 0.0
C360 C 0.13949 0.5376 0.21251 0.0
C361 C 0.14875 0.54399 0.2877 0.0
C362 C 0.1348 0.56948 0.26803 0.0
C363 C 0.11258 0.5905 0.21129 0.0
C364 C 0.10479 0.58612 0.17438 0.0
C365 C 0.12932 0.56622 0.23059 0.0
C366 C 0.11541 0.5578 0.15654 0.0
C367 C 0.1329 0.53392 0.17532 0.0
H368 H 0.55966 0.81454 0.67206 0.0
H369 H 0.49059 0.80068 0.7591 0.0
H370 H 0.53004 0.82235 0.80273 0.0
H371 H 0.58099 0.8525 0.81425 0.0
H372 H 0.64987 0.86587 0.72672 0.0
H373 H 0.61381 0.83679 0.68538 0.0
C374 C 0.5535 0.81567 0.70071 0.0
C375 C 0.52213 0.80657 0.71226 0.0
C376 C 0.5761 0.82844 0.72551 0.0
C377 C 0.5146 0.80764 0.7495 0.0
C378 C 0.53704 0.82027 0.77442 0.0
C379 C 0.58834 0.84859 0.78629 0.0
C380 C 0.61777 0.86196 0.77348 0.0
C381 C 0.56739 0.83191 0.76247 0.0
C382 C 0.62719 0.85616 0.7373 0.0
C383 C 0.60654 0.8396 0.71353 0.0
H384 H 0.86987 0.40145 0.14922 0.0
H385 H 0.88111 0.33107 0.23532 0.0
H386 H 0.85472 0.36792 0.27793 0.0
H387 H 0.83239 0.42165 0.29203 0.0
H388 H 0.8186 0.49158 0.20618 0.0
H389 H 0.84164 0.45331 0.16211 0.0
C390 C 0.86625 0.39412 0.17722 0.0
C391 C 0.87778 0.36373 0.18914 0.0
C392 C 0.85068 0.41535 0.20166 0.0
C393 C 0.87252 0.35434 0.2254 0.0
C394 C 0.85752 0.37544 0.24988 0.0
C395 C 0.83412 0.42834 0.26359 0.0
C396 C 0.8242 0.45941 0.25237 0.0
C397 C 0.84711 0.40621 0.23849 0.0
C398 C 0.82607 0.4677 0.2154 0.0
C399 C 0.83942 0.44593 0.19026 0.0
H400 H 0.45752 0.17949 0.75759 0.0
H401 H 0.4009 0.16399 0.66025 0.0
H402 H 0.35622 0.14159 0.69618 0.0
H403 H 0.33707 0.1189 0.75358 0.0
H404 H 0.39549 0.13002 0.8505 0.0
H405 H 0.43533 0.16201 0.81661 0.0
C406 C 0.43501 0.17206 0.74445 0.0
C407 C 0.4325 0.17319 0.70638 0.0
C408 C 0.40994 0.15794 0.76515 0.0
C409 C 0.4034 0.16313 0.68954 0.0
C410 C 0.37792 0.15021 0.71004 0.0
C411 C 0.35816 0.12884 0.76753 0.0
C412 C 0.36348 0.12164 0.80442 0.0
C413 C 0.38148 0.14628 0.74766 0.0
C414 C 0.39094 0.13487 0.82202 0.0
C415 C 0.41381 0.15312 0.80264 0.0
H416 H 0.12552 0.42535 0.66139 0.0
H417 H 0.15658 0.48651 0.75016 0.0
H418 H 0.13078 0.44979 0.7936 0.0
H419 H 0.09631 0.4021 0.80598 0.0
H420 H 0.06801 0.33932 0.71753 0.0
H421 H 0.09583 0.37481 0.67431 0.0
C422 C 0.12689 0.43043 0.69027 0.0
C423 C 0.14264 0.45869 0.70254 0.0
C424 C 0.11229 0.40908 0.7151 0.0
C425 C 0.14464 0.46483 0.74005 0.0
C426 C 0.12972 0.44397 0.7649 0.0
C427 C 0.0964 0.3962 0.77724 0.0
C428 C 0.07986 0.36845 0.76482 0.0
C429 C 0.11297 0.41635 0.75267 0.0
C430 C 0.08058 0.36064 0.72766 0.0
C431 C 0.09639 0.38094 0.70295 0.0
H432 H 0.34132 0.86831 0.22079 0.0
H433 H 0.39942 0.85725 0.12377 0.0
H434 H 0.43897 0.82431 0.15735 0.0
H435 H 0.45963 0.80312 0.21565 0.0
H436 H 0.40367 0.81869 0.31331 0.0
H437 H 0.36041 0.8449 0.27806 0.0
C438 C 0.36239 0.85835 0.20681 0.0
C439 C 0.36746 0.86538 0.16985 0.0
C440 C 0.38545 0.84023 0.22648 0.0
C441 C 0.39504 0.85241 0.15227 0.0
C442 C 0.41766 0.83354 0.17145 0.0
C443 C 0.4376 0.8116 0.22899 0.0
C444 C 0.43466 0.80889 0.26692 0.0
C445 C 0.41347 0.82788 0.20875 0.0
C446 C 0.40636 0.82053 0.2841 0.0
C447 C 0.38172 0.83562 0.264 0.0
H448 H 0.84709 0.54483 0.67016 0.0
H449 H 0.8166 0.48182 0.75731 0.0
H450 H 0.84062 0.51889 0.80186 0.0
H451 H 0.87259 0.56814 0.81575 0.0
H452 H 0.90049 0.63215 0.72831 0.0
H453 H 0.87512 0.59585 0.68427 0.0
C454 C 0.84559 0.5393 0.69892 0.0
C455 C 0.83039 0.51053 0.71042 0.0
C456 C 0.85908 0.56086 0.72434 0.0
C457 C 0.82817 0.50387 0.74779 0.0
C458 C 0.84202 0.52498 0.77327 0.0
C459 C 0.87297 0.57415 0.78707 0.0
C460 C 0.88861 0.60265 0.77532 0.0
C461 C 0.8579 0.55336 0.76182 0.0
C462 C 0.88857 0.61039 0.7381 0.0
C463 C 0.87416 0.58959 0.71284 0.0
H464 H 0.62827 0.09398 0.21814 0.0
H465 H 0.56493 0.10104 0.12464 0.0
H466 H 0.52523 0.13189 0.16041 0.0
H467 H 0.50573 0.15082 0.22008 0.0
H468 H 0.56711 0.13858 0.31439 0.0
H469 H 0.61063 0.11624 0.27642 0.0
C470 C 0.60606 0.10274 0.20535 0.0
C471 C 0.59946 0.09502 0.16885 0.0
C472 C 0.58291 0.1194 0.22635 0.0
C473 C 0.57047 0.10645 0.15279 0.0
C474 C 0.54775 0.12405 0.17323 0.0
C475 C 0.52895 0.14396 0.23209 0.0
C476 C 0.53333 0.14627 0.26988 0.0
C477 C 0.55329 0.12982 0.21031 0.0
C478 C 0.56326 0.13687 0.28532 0.0
C479 C 0.58806 0.12403 0.26367 0.0
H480 H 0.6309 0.04546 0.79342 0.0
H481 H 0.65819 -0.01162 0.69995 0.0
H482 H 0.62954 0.02658 0.66 0.0
H483 H 0.59426 0.07486 0.65224 0.0
H484 H 0.5701 0.13332 0.74584 0.0
H485 H 0.59998 0.09594 0.78519 0.0
C486 C 0.63078 0.04157 0.76426 0.0
C487 C 0.64635 0.01412 0.7496 0.0
C488 C 0.61463 0.06373 0.74156 0.0
C489 C 0.64643 0.00948 0.71179 0.0
C490 C 0.62989 0.03117 0.689 0.0
C491 C 0.59563 0.07935 0.68125 0.0
C492 C 0.57973 0.10655 0.69622 0.0
C493 C 0.61347 0.05812 0.70366 0.0
C494 C 0.58212 0.1125 0.73372 0.0
C495 C 0.59915 0.09113 0.75625 0.0
H496 H 0.07656 0.34841 0.31681 0.0
H497 H 0.13862 0.37883 0.22841 0.0
H498 H 0.10352 0.35094 0.18508 0.0
H499 H 0.05293 0.32198 0.17165 0.0
H500 H -0.00901 0.29005 0.2593 0.0
H501 H 0.02869 0.31376 0.30363 0.0
C502 C 0.08244 0.34871 0.28809 0.0
C503 C 0.10988 0.366 0.27581 0.0
C504 C 0.06229 0.33227 0.26321 0.0
C505 C 0.11757 0.36578 0.23858 0.0
C506 C 0.0975 0.34987 0.21373 0.0
C507 C 0.04795 0.31977 0.2005 0.0
C508 C 0.01914 0.30463 0.21221 0.0
C509 C 0.06951 0.33359 0.22566 0.0
C510 C 0.01312 0.30153 0.24964 0.0
C511 C 0.0345 0.31536 0.27496 0.0
H512 H 0.30315 0.94316 0.75097 0.0
H513 H 0.39047 7e-05 0.76531 0.0
H514 H 0.42044 0.9638 0.72445 0.0
H515 H 0.42247 0.91439 0.68722 0.0
H516 H 0.33733 0.85339 0.67899 0.0
H517 H 0.30561 0.89263 0.71468 0.0
C518 C 0.32865 0.9476 0.74477 0.0
C519 C 0.34471 0.97414 0.76067 0.0
C520 C 0.34601 0.92589 0.72249 0.0
C521 C 0.37782 0.97963 0.75319 0.0
C522 C 0.39489 0.95898 0.72989 0.0
C523 C 0.39685 0.91 0.69291 0.0
C524 C 0.38201 0.88143 0.6803 0.0
C525 C 0.37933 0.93185 0.7147 0.0
C526 C 0.34908 0.87541 0.68843 0.0
C527 C 0.33102 0.89777 0.70882 0.0
H528 H 0.85456 0.60198 0.24523 0.0
H529 H 0.91505 0.60307 0.34132 0.0
H530 H 0.95824 0.6309 0.30771 0.0
H531 H 0.98087 0.64972 0.24939 0.0
H532 H 0.9218 0.64383 0.15251 0.0
H533 H 0.87586 0.62345 0.18808 0.0
C534 C 0.87696 0.6088 0.25903 0.0
C535 C 0.88162 0.60036 0.29569 0.0
C536 C 0.90204 0.62376 0.23926 0.0
C537 C 0.91092 0.60913 0.31304 0.0
C538 C 0.93564 0.625 0.29383 0.0
C539 C 0.95772 0.64455 0.23627 0.0
C540 C 0.95466 0.64819 0.19844 0.0
C541 C 0.93179 0.63168 0.25669 0.0
C542 C 0.92472 0.64102 0.1816 0.0
C543 C 0.89849 0.62934 0.2019 0.0
H544 H 0.62583 0.91352 0.16558 0.0
H545 H 0.6581 0.97497 0.25354 0.0
H546 H 0.63409 0.93764 0.29766 0.0
H547 H 0.60075 0.88929 0.31088 0.0
H548 H 0.57055 0.82699 0.22268 0.0
H549 H 0.59704 0.86282 0.17907 0.0
C550 C 0.62781 0.91859 0.19443 0.0
C551 C 0.64339 0.94706 0.20629 0.0
C552 C 0.61418 0.89697 0.21959 0.0
C553 C 0.64623 0.95315 0.24375 0.0
C554 C 0.63236 0.93192 0.26898 0.0
C555 C 0.60017 0.8835 0.28214 0.0
C556 C 0.58345 0.85573 0.27001 0.0
C557 C 0.61578 0.90405 0.25716 0.0
C558 C 0.58325 0.84823 0.23273 0.0
C559 C 0.59831 0.86876 0.20773 0.0
H560 H 0.83826 0.35738 0.71424 0.0
H561 H 0.90171 0.35669 0.62067 0.0
H562 H 0.94145 0.32371 0.65384 0.0
H563 H 0.96166 0.30248 0.71226 0.0
H564 H 0.90036 0.30862 0.80713 0.0
H565 H 0.85599 0.33135 0.77056 0.0
C566 C 0.86046 0.34948 0.7008 0.0
C567 C 0.86717 0.35984 0.66518 0.0
C568 C 0.88368 0.33154 0.72043 0.0
C569 C 0.8961 0.34936 0.64822 0.0
C570 C 0.91886 0.33052 0.66719 0.0
C571 C 0.93818 0.30783 0.72456 0.0
C572 C 0.93407 0.30386 0.76218 0.0
C573 C 0.91344 0.32248 0.70371 0.0
C574 C 0.90389 0.31148 0.77813 0.0
C575 C 0.87866 0.32466 0.7573 0.0
H576 H 0.38258 0.11494 0.23873 0.0
H577 H 0.3717 0.05793 0.33628 0.0
H578 H 0.3398 0.01761 0.30294 0.0
H579 H 0.31915 -0.00381 0.245 0.0
H580 H 0.33421 0.05093 0.14656 0.0
H581 H 0.35997 0.09459 0.18124 0.0
C582 C 0.37279 0.09393 0.25276 0.0
C583 C 0.37953 0.08935 0.28984 0.0
C584 C 0.35537 0.07032 0.23318 0.0
C585 C 0.36701 0.06185 0.30764 0.0
C586 C 0.34876 0.03879 0.28862 0.0
C587 C 0.32759 0.01793 0.23129 0.0
C588 C 0.32484 0.02037 0.19335 0.0
C589 C 0.34339 0.04242 0.25123 0.0
C590 C 0.33624 0.04847 0.17578 0.0
C591 C 0.35099 0.07341 0.19557 0.0
H592 H 0.12718 0.60254 0.72073 0.0
H593 H 0.06725 0.61677 0.6255 0.0
H594 H 0.02805 0.64807 0.66142 0.0
H595 H 0.00795 0.66602 0.72109 0.0
H596 H 0.06546 0.64682 0.81697 0.0
H597 H 0.10877 0.62326 0.77956 0.0
C598 C 0.10583 0.61295 0.70767 0.0
C599 C 0.10005 0.60722 0.67054 0.0
C600 C 0.08291 0.62991 0.7287 0.0
C601 C 0.07213 0.62066 0.6541 0.0
C602 C 0.04971 0.63854 0.67462 0.0
C603 C 0.03032 0.65736 0.73364 0.0
C604 C 0.03365 0.65816 0.77164 0.0
C605 C 0.05443 0.64258 0.71212 0.0
C606 C 0.06243 0.64637 0.78772 0.0
C607 C 0.0871 0.63282 0.76638 0.0
H608 H 0.22049 0.46106 0.55445 0.0
H609 H 0.22368 0.56018 0.51688 0.0
H610 H 0.23039 0.54141 0.45419 0.0
H611 H 0.23109 0.49683 0.40979 0.0
H612 H 0.22088 0.39798 0.44664 0.0
H613 H 0.22137 0.41638 0.50995 0.0
C614 C 0.22315 0.47845 0.53251 0.0
C615 C 0.22186 0.51188 0.54002 0.0
C616 C 0.22554 0.46747 0.49649 0.0
C617 C 0.22465 0.53431 0.5115 0.0
C618 C 0.22844 0.5236 0.47576 0.0
C619 C 0.2295 0.47935 0.43177 0.0
C620 C 0.22623 0.44614 0.42384 0.0
C621 C 0.22834 0.49025 0.46787 0.0
C622 C 0.22348 0.42368 0.45233 0.0
C623 C 0.22371 0.43419 0.48843 0.0
H624 H 0.45537 0.74275 0.41256 0.0
H625 H 0.55737 0.74173 0.44156 0.0
H626 H 0.54307 0.74139 0.50619 0.0
H627 H 0.50143 0.74588 0.55426 0.0
H628 H 0.39995 0.75452 0.52463 0.0
H629 H 0.41386 0.74714 0.46045 0.0
C630 C 0.47437 0.74191 0.43312 0.0
C631 C 0.50731 0.74195 0.42263 0.0
C632 C 0.46596 0.74329 0.47003 0.0
C633 C 0.53184 0.74161 0.44928 0.0
C634 C 0.52367 0.74148 0.48612 0.0
C635 C 0.48244 0.74559 0.53367 0.0
C636 C 0.44976 0.75037 0.54381 0.0
C637 C 0.49082 0.74293 0.49681 0.0
C638 C 0.42527 0.75075 0.51714 0.0
C639 C 0.43322 0.7466 0.48057 0.0
H640 H 0.75428 0.5482 0.44705 0.0
H641 H 0.74862 0.45582 0.39213 0.0
H642 H 0.74575 0.42771 0.4506 0.0
H643 H 0.74908 0.42937 0.51748 0.0
H644 H 0.75057 0.52196 0.57233 0.0
H645 H 0.75048 0.55015 0.51384 0.0
C646 C 0.75201 0.52195 0.44801 0.0
C647 C 0.75197 0.50401 0.41555 0.0
C648 C 0.74975 0.50606 0.48165 0.0
C649 C 0.74863 0.47008 0.41688 0.0
C650 C 0.74716 0.45401 0.45027 0.0
C651 C 0.74898 0.45572 0.5165 0.0
C652 C 0.75016 0.47362 0.54897 0.0
C653 C 0.74833 0.47172 0.48282 0.0
C654 C 0.74962 0.50772 0.54759 0.0
C655 C 0.74974 0.52383 0.51419 0.0
H656 H 0.47111 0.25418 0.43055 0.0
H657 H 0.45499 0.1506 0.43413 0.0
H658 H 0.47772 0.14818 0.49514 0.0
H659 H 0.50221 0.17512 0.54739 0.0
H660 H 0.51325 0.27922 0.54806 0.0
H661 H 0.49257 0.28199 0.48545 0.0
C662 C 0.4726 0.23118 0.44483 0.0
C663 C 0.46171 0.20259 0.4278 0.0
C664 C 0.48484 0.23007 0.48053 0.0
C665 C 0.46327 0.17294 0.44663 0.0
C666 C 0.47633 0.17149 0.48151 0.0
C667 C 0.50021 0.19839 0.53377 0.0
C668 C 0.50954 0.22687 0.55189 0.0
C669 C 0.48726 0.19983 0.49863 0.0
C670 C 0.50626 0.25698 0.53435 0.0
C671 C 0.49447 0.25854 0.49867 0.0
H672 H 0.71859 0.03875 0.01585 0.0
H673 H 0.72438 0.94324 0.06353 0.0
H674 H 0.72813 0.9188 0.00304 0.0
H675 H 0.72609 0.92458 0.93641 0.0
H676 H 0.72431 0.02037 0.889 0.0
H677 H 0.72291 0.04484 0.94953 0.0
C678 C 0.72098 0.01262 0.01289 0.0
C679 C 0.72088 -0.00726 0.04386 0.0
C680 C 0.72372 -0.00115 0.97815 0.0
C681 C 0.72444 0.95897 0.03994 0.0
C682 C 0.72643 0.945 0.00541 0.0
C683 C 0.72571 0.95081 0.93947 0.0
C684 C 0.72497 0.97069 0.9085 0.0
C685 C 0.72553 0.96468 0.97432 0.0
C686 C 0.72492 0.00462 0.91257 0.0
C687 C 0.72397 0.01861 0.94712 0.0
H688 H 0.00242 0.21172 0.92849 0.0
H689 H 0.01359 0.31591 0.92437 0.0
H690 H -0.01037 0.32098 -0.01533 0.0
H691 H 0.96488 0.29606 0.03835 0.0
H692 H 0.95832 0.19179 0.0459 0.0
H693 H 0.98101 0.18635 -0.01548 0.0
C694 C -0.00036 0.23546 0.94093 0.0
C695 C 0.00947 0.2634 0.92193 0.0
C696 C -0.01343 0.23817 0.97611 0.0
C697 C 0.00619 0.29403 0.93844 0.0
C698 C -0.0076 0.29699 0.97289 0.0
C699 C 0.96832 0.27218 0.02642 0.0
C700 C 0.95962 0.24437 0.04614 0.0
C701 C 0.98233 0.26928 -0.00815 0.0
C702 C 0.96479 0.2135 0.03094 0.0
C703 C 0.97773 0.21041 -0.00406 0.0
H704 H 0.24464 0.04252 0.9474 0.0
H705 H 0.25382 0.95051 0.89221 0.0
H706 H 0.25081 0.92184 0.95031 0.0
H707 H 0.24961 0.92339 0.01723 0.0
H708 H 0.23682 0.01526 0.07194 0.0
H709 H 0.23681 0.04356 0.01364 0.0
C710 C 0.24566 0.01618 0.94819 0.0
C711 C 0.24982 -0.00139 0.91584 0.0
C712 C 0.24333 -0.00011 0.98154 0.0
C713 C 0.25063 0.9645 0.91691 0.0
C714 C 0.24905 0.94812 0.95008 0.0
C715 C 0.24643 0.94955 0.01624 0.0
C716 C 0.24354 0.96727 0.04869 0.0
C717 C 0.24599 0.96561 -0.01738 0.0
C718 C 0.23904 0.0011 0.04723 0.0
C719 C 0.23921 0.01732 0.01395 0.0
H720 H 0.01163 0.72756 0.91531 0.0
H721 H 0.91204 0.71324 0.94955 0.0
H722 H 0.92924 0.71427 0.01332 0.0
H723 H 0.97328 0.71489 0.05898 0.0
H724 H 0.07341 0.72192 0.02397 0.0
H725 H 0.05554 0.72842 0.96084 0.0
C726 C -0.00631 0.72519 0.93681 0.0
C727 C 0.96063 0.72059 0.92799 0.0
C728 C 0.00396 0.72435 0.97319 0.0
C729 C 0.93763 0.71685 0.9559 0.0
C730 C 0.94745 0.7174 -0.00773 0.0
C731 C -0.00895 0.71842 0.03749 0.0
C732 C 0.02452 0.71833 0.04583 0.0
C733 C 0.98063 0.72054 0.00121 0.0
C734 C 0.0475 0.72209 0.01792 0.0
C735 C 0.0373 0.72572 0.98193 0.0
loop_
_geom_bond_atom_site_label_1
_geom_bond_atom_site_label_2
_geom_bond_distance
_geom_bond_site_symmetry_2
_ccdc_geom_bond_type
C0 O1 1.306 . S
C0 O3 1.160 . S
O1 C0 1.306 . S
O1 Cd2 2.228 . S
Cd2 O1 2.228 . S
Cd2 O6 2.273 . S
Cd2 O10 2.277 . S
O3 C0 1.160 . S
O3 Cd4 2.203 . S
Cd4 O3 2.203 . S
Cd4 O6 2.411 . S
Cd4 O7 2.333 . S
Cd4 O8 2.352 . S
Cd4 O12 2.277 . S
Cd4 O13 2.356 . S
C5 O10 1.209 . S
C5 O12 1.226 . S
O6 Cd2 2.273 . S
O6 Cd4 2.411 . S
O6 C9 1.320 . S
O7 Cd4 2.333 . S
O7 C9 1.214 . S
O8 Cd4 2.352 . S
O8 C11 1.258 . S
C9 O6 1.320 . S
C9 O7 1.214 . S
O10 Cd2 2.277 . S
O10 C5 1.209 . S
C11 O8 1.258 . S
C11 O13 1.282 . S
O12 Cd4 2.277 . S
O12 C5 1.226 . S
O13 Cd4 2.356 . S
O13 C11 1.282 . S
C14 O15 1.306 . S
C14 O17 1.160 . S
O15 C14 1.306 . S
O15 Cd16 2.228 . S
Cd16 O15 2.228 . S
Cd16 O20 2.273 . S
Cd16 O24 2.277 . S
O17 C14 1.160 . S
O17 Cd18 2.203 . S
Cd18 O17 2.203 . S
Cd18 O20 2.411 . S
Cd18 O21 2.333 . S
Cd18 O22 2.352 . S
Cd18 O26 2.277 . S
Cd18 O27 2.356 . S
C19 O24 1.209 . S
C19 O26 1.226 . S
O20 Cd16 2.273 . S
O20 Cd18 2.411 . S
O20 C23 1.320 . S
O21 Cd18 2.333 . S
O21 C23 1.214 . S
O22 Cd18 2.352 . S
O22 C25 1.258 . S
C23 O20 1.320 . S
C23 O21 1.214 . S
O24 Cd16 2.277 . S
O24 C19 1.209 . S
C25 O22 1.258 . S
C25 O27 1.282 . S
O26 Cd18 2.277 . S
O26 C19 1.226 . S
O27 Cd18 2.356 . S
O27 C25 1.282 . S
C28 O29 1.306 . S
C28 O31 1.160 . S
O29 C28 1.306 . S
O29 Cd30 2.228 . S
Cd30 O29 2.228 . S
Cd30 O34 2.273 . S
Cd30 O38 2.277 . S
O31 C28 1.160 . S
O31 Cd32 2.203 . S
Cd32 O31 2.203 . S
Cd32 O34 2.411 . S
Cd32 O35 2.333 . S
Cd32 O36 2.352 . S
Cd32 O40 2.277 . S
Cd32 O41 2.356 . S
C33 O38 1.209 . S
C33 O40 1.226 . S
O34 Cd30 2.273 . S
O34 Cd32 2.411 . S
O34 C37 1.320 . S
O35 Cd32 2.333 . S
O35 C37 1.214 . S
O36 Cd32 2.352 . S
O36 C39 1.258 . S
C37 O34 1.320 . S
C37 O35 1.214 . S
O38 Cd30 2.277 . S
O38 C33 1.209 . S
C39 O36 1.258 . S
C39 O41 1.282 . S
O40 Cd32 2.277 . S
O40 C33 1.226 . S
O41 Cd32 2.356 . S
O41 C39 1.282 . S
C42 O43 1.306 . S
C42 O45 1.160 . S
O43 C42 1.306 . S
O43 Cd44 2.228 . S
Cd44 O43 2.228 . S
Cd44 O48 2.273 . S
Cd44 O52 2.277 . S
O45 C42 1.160 . S
O45 Cd46 2.203 . S
Cd46 O45 2.203 . S
Cd46 O48 2.411 . S
Cd46 O49 2.333 . S
Cd46 O50 2.352 . S
Cd46 O54 2.277 . S
Cd46 O55 2.356 . S
C47 O52 1.209 . S
C47 O54 1.226 . S
O48 Cd44 2.273 . S
O48 Cd46 2.411 . S
O48 C51 1.320 . S
O49 Cd46 2.333 . S
O49 C51 1.214 . S
O50 Cd46 2.352 . S
O50 C53 1.258 . S
C51 O48 1.320 . S
C51 O49 1.214 . S
O52 Cd44 2.277 . S
O52 C47 1.209 . S
C53 O50 1.258 . S
C53 O55 1.282 . S
O54 Cd46 2.277 . S
O54 C47 1.226 . S
O55 Cd46 2.356 . S
O55 C53 1.282 . S
C56 O57 1.306 . S
C56 O59 1.160 . S
O57 C56 1.306 . S
O57 Cd58 2.228 . S
Cd58 O57 2.228 . S
Cd58 O62 2.273 . S
Cd58 O66 2.277 . S
O59 C56 1.160 . S
O59 Cd60 2.203 . S
Cd60 O59 2.203 . S
Cd60 O62 2.411 . S
Cd60 O63 2.333 . S
Cd60 O64 2.352 . S
Cd60 O68 2.277 . S
Cd60 O69 2.356 . S
C61 O66 1.209 . S
C61 O68 1.226 . S
O62 Cd58 2.273 . S
O62 Cd60 2.411 . S
O62 C65 1.320 . S
O63 Cd60 2.333 . S
O63 C65 1.214 . S
O64 Cd60 2.352 . S
O64 C67 1.258 . S
C65 O62 1.320 . S
C65 O63 1.214 . S
O66 Cd58 2.277 . S
O66 C61 1.209 . S
C67 O64 1.258 . S
C67 O69 1.282 . S
O68 Cd60 2.277 . S
O68 C61 1.226 . S
O69 Cd60 2.356 . S
O69 C67 1.282 . S
C70 O71 1.306 . S
C70 O73 1.160 . S
O71 C70 1.306 . S
O71 Cd72 2.228 . S
Cd72 O71 2.228 . S
Cd72 O76 2.273 . S
Cd72 O80 2.277 . S
O73 C70 1.160 . S
O73 Cd74 2.203 . S
Cd74 O73 2.203 . S
Cd74 O76 2.411 . S
Cd74 O77 2.333 . S
Cd74 O78 2.352 . S
Cd74 O82 2.277 . S
Cd74 O83 2.356 . S
C75 O80 1.209 . S
C75 O82 1.226 . S
O76 Cd72 2.273 . S
O76 Cd74 2.411 . S
O76 C79 1.320 . S
O77 Cd74 2.333 . S
O77 C79 1.214 . S
O78 Cd74 2.352 . S
O78 C81 1.258 . S
C79 O76 1.320 . S
C79 O77 1.214 . S
O80 Cd72 2.277 . S
O80 C75 1.209 . S
C81 O78 1.258 . S
C81 O83 1.282 . S
O82 Cd74 2.277 . S
O82 C75 1.226 . S
O83 Cd74 2.356 . S
O83 C81 1.282 . S
C84 O85 1.306 . S
C84 O87 1.160 . S
O85 C84 1.306 . S
O85 Cd86 2.228 . S
Cd86 O85 2.228 . S
Cd86 O90 2.273 . S
Cd86 O94 2.277 . S
O87 C84 1.160 . S
O87 Cd88 2.203 . S
Cd88 O87 2.203 . S
Cd88 O90 2.411 . S
Cd88 O91 2.333 . S
Cd88 O92 2.352 . S
Cd88 O96 2.277 . S
Cd88 O97 2.356 . S
C89 O94 1.209 . S
C89 O96 1.226 . S
O90 Cd86 2.273 . S
O90 Cd88 2.411 . S
O90 C93 1.320 . S
O91 Cd88 2.333 . S
O91 C93 1.214 . S
O92 Cd88 2.352 . S
O92 C95 1.258 . S
C93 O90 1.320 . S
C93 O91 1.214 . S
O94 Cd86 2.277 . S
O94 C89 1.209 . S
C95 O92 1.258 . S
C95 O97 1.282 . S
O96 Cd88 2.277 . S
O96 C89 1.226 . S
O97 Cd88 2.356 . S
O97 C95 1.282 . S
C98 O99 1.306 . S
C98 O101 1.160 . S
O99 C98 1.306 . S
O99 Cd100 2.228 . S
Cd100 O99 2.228 . S
Cd100 O104 2.273 . S
Cd100 O108 2.277 . S
O101 C98 1.160 . S
O101 Cd102 2.203 . S
Cd102 O101 2.203 . S
Cd102 O104 2.411 . S
Cd102 O105 2.333 . S
Cd102 O106 2.352 . S
Cd102 O110 2.277 . S
Cd102 O111 2.356 . S
C103 O108 1.209 . S
C103 O110 1.226 . S
O104 Cd100 2.273 . S
O104 Cd102 2.411 . S
O104 C107 1.320 . S
O105 Cd102 2.333 . S
O105 C107 1.214 . S
O106 Cd102 2.352 . S
O106 C109 1.258 . S
C107 O104 1.320 . S
C107 O105 1.214 . S
O108 Cd100 2.277 . S
O108 C103 1.209 . S
C109 O106 1.258 . S
C109 O111 1.282 . S
O110 Cd102 2.277 . S
O110 C103 1.226 . S
O111 Cd102 2.356 . S
O111 C109 1.282 . S
C112 O113 1.306 . S
C112 O115 1.160 . S
O113 C112 1.306 . S
O113 Cd114 2.228 . S
Cd114 O113 2.228 . S
Cd114 O118 2.273 . S
Cd114 O122 2.277 . S
O115 C112 1.160 . S
O115 Cd116 2.203 . S
Cd116 O115 2.203 . S
Cd116 O118 2.411 . S
Cd116 O119 2.333 . S
Cd116 O120 2.352 . S
Cd116 O124 2.277 . S
Cd116 O125 2.356 . S
C117 O122 1.209 1_545 S
C117 O124 1.226 1_545 S
O118 Cd114 2.273 . S
O118 Cd116 2.411 . S
O118 C121 1.320 . S
O119 Cd116 2.333 . S
O119 C121 1.214 . S
O120 Cd116 2.352 . S
O120 C123 1.258 . S
C121 O118 1.320 . S
C121 O119 1.214 . S
O122 Cd114 2.277 . S
O122 C117 1.209 1_565 S
C123 O120 1.258 . S
C123 O125 1.282 . S
O124 Cd116 2.277 . S
O124 C117 1.226 1_565 S
O125 Cd116 2.356 . S
O125 C123 1.282 . S
C126 O127 1.306 . S
C126 O129 1.160 . S
O127 C126 1.306 . S
O127 Cd128 2.228 . S
Cd128 O127 2.228 . S
Cd128 O132 2.273 . S
Cd128 O136 2.277 . S
O129 C126 1.160 . S
O129 Cd130 2.203 . S
Cd130 O129 2.203 . S
Cd130 O132 2.411 . S
Cd130 O133 2.333 . S
Cd130 O134 2.352 . S
Cd130 O138 2.277 . S
Cd130 O139 2.356 . S
C131 O136 1.209 1_455 S
C131 O138 1.226 1_455 S
O132 Cd128 2.273 . S
O132 Cd130 2.411 . S
O132 C135 1.320 . S
O133 Cd130 2.333 . S
O133 C135 1.214 . S
O134 Cd130 2.352 . S
O134 C137 1.258 . S
C135 O132 1.320 . S
C135 O133 1.214 . S
O136 Cd128 2.277 . S
O136 C131 1.209 1_655 S
C137 O134 1.258 . S
C137 O139 1.282 . S
O138 Cd130 2.277 . S
O138 C131 1.226 1_655 S
O139 Cd130 2.356 . S
O139 C137 1.282 . S
C140 O141 1.306 . S
C140 O143 1.160 . S
O141 C140 1.306 . S
O141 Cd142 2.228 . S
Cd142 O141 2.228 . S
Cd142 O146 2.273 . S
Cd142 O150 2.277 . S
O143 C140 1.160 . S
O143 Cd144 2.203 . S
Cd144 O143 2.203 . S
Cd144 O146 2.411 . S
Cd144 O147 2.333 . S
Cd144 O148 2.352 . S
Cd144 O152 2.277 . S
Cd144 O153 2.356 . S
C145 O150 1.209 1_565 S
C145 O152 1.226 1_565 S
O146 Cd142 2.273 . S
O146 Cd144 2.411 . S
O146 C149 1.320 . S
O147 Cd144 2.333 . S
O147 C149 1.214 . S
O148 Cd144 2.352 . S
O148 C151 1.258 . S
C149 O146 1.320 . S
C149 O147 1.214 . S
O150 Cd142 2.277 . S
O150 C145 1.209 1_545 S
C151 O148 1.258 . S
C151 O153 1.282 . S
O152 Cd144 2.277 . S
O152 C145 1.226 1_545 S
O153 Cd144 2.356 . S
O153 C151 1.282 . S
C154 O155 1.306 . S
C154 O157 1.160 . S
O155 C154 1.306 . S
O155 Cd156 2.228 . S
Cd156 O155 2.228 . S
Cd156 O160 2.273 . S
Cd156 O164 2.277 . S
O157 C154 1.160 . S
O157 Cd158 2.203 . S
Cd158 O157 2.203 . S
Cd158 O160 2.411 . S
Cd158 O161 2.333 . S
Cd158 O162 2.352 . S
Cd158 O166 2.277 . S
Cd158 O167 2.356 . S
C159 O164 1.209 1_655 S
C159 O166 1.226 1_655 S
O160 Cd156 2.273 . S
O160 Cd158 2.411 . S
O160 C163 1.320 . S
O161 Cd158 2.333 . S
O161 C163 1.214 . S
O162 Cd158 2.352 . S
O162 C165 1.258 . S
C163 O160 1.320 . S
C163 O161 1.214 . S
O164 Cd156 2.277 . S
O164 C159 1.209 1_455 S
C165 O162 1.258 . S
C165 O167 1.282 . S
O166 Cd158 2.277 . S
O166 C159 1.226 1_455 S
O167 Cd158 2.356 . S
O167 C165 1.282 . S
C168 O169 1.306 . S
C168 O171 1.160 . S
O169 C168 1.306 . S
O169 Cd170 2.228 . S
Cd170 O169 2.228 . S
Cd170 O174 2.273 . S
Cd170 O178 2.277 . S
O171 C168 1.160 . S
O171 Cd172 2.203 . S
Cd172 O171 2.203 . S
Cd172 O174 2.411 . S
Cd172 O175 2.333 . S
Cd172 O176 2.352 . S
Cd172 O180 2.277 . S
Cd172 O181 2.356 . S
C173 O178 1.209 1_565 S
C173 O180 1.226 1_565 S
O174 Cd170 2.273 . S
O174 Cd172 2.411 . S
O174 C177 1.320 . S
O175 Cd172 2.333 . S
O175 C177 1.214 . S
O176 Cd172 2.352 . S
O176 C179 1.258 . S
C177 O174 1.320 . S
C177 O175 1.214 . S
O178 Cd170 2.277 . S
O178 C173 1.209 1_545 S
C179 O176 1.258 . S
C179 O181 1.282 . S
O180 Cd172 2.277 . S
O180 C173 1.226 1_545 S
O181 Cd172 2.356 . S
O181 C179 1.282 . S
C182 O183 1.306 . S
C182 O185 1.160 . S
O183 C182 1.306 . S
O183 Cd184 2.228 . S
Cd184 O183 2.228 . S
Cd184 O188 2.273 . S
Cd184 O192 2.277 . S
O185 C182 1.160 . S
O185 Cd186 2.203 . S
Cd186 O185 2.203 . S
Cd186 O188 2.411 . S
Cd186 O189 2.333 . S
Cd186 O190 2.352 . S
Cd186 O194 2.277 . S
Cd186 O195 2.356 . S
C187 O192 1.209 1_655 S
C187 O194 1.226 1_655 S
O188 Cd184 2.273 . S
O188 Cd186 2.411 . S
O188 C191 1.320 . S
O189 Cd186 2.333 . S
O189 C191 1.214 . S
O190 Cd186 2.352 . S
O190 C193 1.258 . S
C191 O188 1.320 . S
C191 O189 1.214 . S
O192 Cd184 2.277 . S
O192 C187 1.209 1_455 S
C193 O190 1.258 . S
C193 O195 1.282 . S
O194 Cd186 2.277 . S
O194 C187 1.226 1_455 S
O195 Cd186 2.356 . S
O195 C193 1.282 . S
C196 O197 1.306 . S
C196 O199 1.160 . S
O197 C196 1.306 . S
O197 Cd198 2.228 . S
Cd198 O197 2.228 . S
Cd198 O202 2.273 . S
Cd198 O206 2.277 . S
O199 C196 1.160 . S
O199 Cd200 2.203 . S
Cd200 O199 2.203 . S
Cd200 O202 2.411 . S
Cd200 O203 2.333 . S
Cd200 O204 2.352 . S
Cd200 O208 2.277 . S
Cd200 O209 2.356 . S
C201 O206 1.209 1_545 S
C201 O208 1.226 1_545 S
O202 Cd198 2.273 . S
O202 Cd200 2.411 . S
O202 C205 1.320 . S
O203 Cd200 2.333 . S
O203 C205 1.214 . S
O204 Cd200 2.352 . S
O204 C207 1.258 . S
C205 O202 1.320 . S
C205 O203 1.214 . S
O206 Cd198 2.277 . S
O206 C201 1.209 1_565 S
C207 O204 1.258 . S
C207 O209 1.282 . S
O208 Cd200 2.277 . S
O208 C201 1.226 1_565 S
O209 Cd200 2.356 . S
O209 C207 1.282 . S
C210 O211 1.306 . S
C210 O213 1.160 . S
O211 C210 1.306 . S
O211 Cd212 2.228 . S
Cd212 O211 2.228 . S
Cd212 O216 2.273 . S
Cd212 O220 2.277 . S
O213 C210 1.160 . S
O213 Cd214 2.203 . S
Cd214 O213 2.203 . S
Cd214 O216 2.411 . S
Cd214 O217 2.333 . S
Cd214 O218 2.352 . S
Cd214 O222 2.277 . S
Cd214 O223 2.356 . S
C215 O220 1.209 1_455 S
C215 O222 1.226 1_455 S
O216 Cd212 2.273 . S
O216 Cd214 2.411 . S
O216 C219 1.320 . S
O217 Cd214 2.333 . S
O217 C219 1.214 . S
O218 Cd214 2.352 . S
O218 C221 1.258 . S
C219 O216 1.320 . S
C219 O217 1.214 . S
O220 Cd212 2.277 . S
O220 C215 1.209 1_655 S
C221 O218 1.258 . S
C221 O223 1.282 . S
O222 Cd214 2.277 . S
O222 C215 1.226 1_655 S
O223 Cd214 2.356 . S
O223 C221 1.282 . S
H224 C230 0.930 . S
H225 C233 0.930 . S
H226 C234 0.930 . S
H227 C235 0.930 . S
H228 C238 0.930 . S
H229 C239 0.930 . S
C230 H224 0.930 . S
C230 C231 1.355 . S
C230 C232 1.415 . S
C231 C230 1.355 . S
C231 C233 1.419 . S
C232 C230 1.415 . S
C232 C237 1.425 . S
C232 C239 1.409 . S
C233 H225 0.930 . S
C233 C231 1.419 . S
C233 C234 1.362 . S
C234 H226 0.930 . S
C234 C233 1.362 . S
C234 C237 1.409 . S
C235 H227 0.930 . S
C235 C236 1.355 . S
C235 C237 1.415 . S
C236 C235 1.355 . S
C236 C238 1.419 . S
C237 C232 1.425 . S
C237 C234 1.409 . S
C237 C235 1.415 . S
C238 H228 0.930 . S
C238 C236 1.419 . S
C238 C239 1.362 . S
C239 H229 0.930 . S
C239 C232 1.409 . S
C239 C238 1.362 . S
H240 C246 0.930 . S
H241 C249 0.930 . S
H242 C250 0.930 . S
H243 C251 0.930 . S
H244 C254 0.930 . S
H245 C255 0.930 . S
C246 H240 0.930 . S
C246 C247 1.355 . S
C246 C248 1.415 . S
C247 C246 1.355 . S
C247 C249 1.419 . S
C248 C246 1.415 . S
C248 C253 1.425 . S
C248 C255 1.409 . S
C249 H241 0.930 . S
C249 C247 1.419 . S
C249 C250 1.362 . S
C250 H242 0.930 . S
C250 C249 1.362 . S
C250 C253 1.409 . S
C251 H243 0.930 . S
C251 C252 1.355 . S
C251 C253 1.415 . S
C252 C251 1.355 . S
C252 C254 1.419 . S
C253 C248 1.425 . S
C253 C250 1.409 . S
C253 C251 1.415 . S
C254 H244 0.930 . S
C254 C252 1.419 . S
C254 C255 1.362 . S
C255 H245 0.930 . S
C255 C248 1.409 . S
C255 C254 1.362 . S
H256 C262 0.930 . S
H257 C265 0.930 . S
H258 C266 0.930 . S
H259 C267 0.930 . S
H260 C270 0.930 . S
H261 C271 0.930 . S
C262 H256 0.930 . S
C262 C263 1.355 . S
C262 C264 1.415 . S
C263 C262 1.355 . S
C263 C265 1.419 . S
C264 C262 1.415 . S
C264 C269 1.425 . S
C264 C271 1.409 . S
C265 H257 0.930 . S
C265 C263 1.419 . S
C265 C266 1.362 . S
C266 H258 0.930 . S
C266 C265 1.362 . S
C266 C269 1.409 . S
C267 H259 0.930 . S
C267 C268 1.355 . S
C267 C269 1.415 . S
C268 C267 1.355 . S
C268 C270 1.419 . S
C269 C264 1.425 . S
C269 C266 1.409 . S
C269 C267 1.415 . S
C270 H260 0.930 . S
C270 C268 1.419 . S
C270 C271 1.362 . S
C271 H261 0.930 . S
C271 C264 1.409 . S
C271 C270 1.362 . S
H272 C278 0.930 . S
H273 C281 0.930 . S
H274 C282 0.930 . S
H275 C283 0.930 . S
H276 C286 0.930 . S
H277 C287 0.930 . S
C278 H272 0.930 . S
C278 C279 1.355 . S
C278 C280 1.415 . S
C279 C278 1.355 . S
C279 C281 1.419 . S
C280 C278 1.415 . S
C280 C285 1.425 . S
C280 C287 1.409 . S
C281 H273 0.930 . S
C281 C279 1.419 . S
C281 C282 1.362 . S
C282 H274 0.930 . S
C282 C281 1.362 . S
C282 C285 1.409 . S
C283 H275 0.930 . S
C283 C284 1.355 . S
C283 C285 1.415 . S
C284 C283 1.355 . S
C284 C286 1.419 . S
C285 C280 1.425 . S
C285 C282 1.409 . S
C285 C283 1.415 . S
C286 H276 0.930 . S
C286 C284 1.419 . S
C286 C287 1.362 . S
C287 H277 0.930 . S
C287 C280 1.409 . S
C287 C286 1.362 . S
H288 C294 0.930 . S
H289 C297 0.930 . S
H290 C298 0.930 . S
H291 C299 0.930 . S
H292 C302 0.930 . S
H293 C303 0.930 . S
C294 H288 0.930 . S
C294 C295 1.355 . S
C294 C296 1.415 . S
C295 C294 1.355 . S
C295 C297 1.419 . S
C296 C294 1.415 . S
C296 C301 1.425 . S
C296 C303 1.409 . S
C297 H289 0.930 . S
C297 C295 1.419 . S
C297 C298 1.362 . S
C298 H290 0.930 . S
C298 C297 1.362 . S
C298 C301 1.409 . S
C299 H291 0.930 . S
C299 C300 1.355 . S
C299 C301 1.415 . S
C300 C299 1.355 . S
C300 C302 1.419 . S
C301 C296 1.425 . S
C301 C298 1.409 . S
C301 C299 1.415 . S
C302 H292 0.930 . S
C302 C300 1.419 . S
C302 C303 1.362 . S
C303 H293 0.930 . S
C303 C296 1.409 . S
C303 C302 1.362 . S
H304 C310 0.930 . S
H305 C313 0.930 . S
H306 C314 0.930 . S
H307 C315 0.930 . S
H308 C318 0.930 . S
H309 C319 0.930 . S
C310 H304 0.930 . S
C310 C311 1.355 . S
C310 C312 1.415 . S
C311 C310 1.355 . S
C311 C313 1.419 . S
C312 C310 1.415 . S
C312 C317 1.425 . S
C312 C319 1.409 . S
C313 H305 0.930 . S
C313 C311 1.419 . S
C313 C314 1.362 . S
C314 H306 0.930 . S
C314 C313 1.362 . S
C314 C317 1.409 . S
C315 H307 0.930 . S
C315 C316 1.355 . S
C315 C317 1.415 . S
C316 C315 1.355 . S
C316 C318 1.419 . S
C317 C312 1.425 . S
C317 C314 1.409 . S
C317 C315 1.415 . S
C318 H308 0.930 . S
C318 C316 1.419 . S
C318 C319 1.362 . S
C319 H309 0.930 . S
C319 C312 1.409 . S
C319 C318 1.362 . S
H320 C326 0.930 . S
H321 C329 0.930 . S
H322 C330 0.930 . S
H323 C331 0.930 . S
H324 C334 0.930 . S
H325 C335 0.930 . S
C326 H320 0.930 . S
C326 C327 1.355 . S
C326 C328 1.415 . S
C327 C326 1.355 . S
C327 C329 1.419 . S
C328 C326 1.415 . S
C328 C333 1.425 . S
C328 C335 1.409 . S
C329 H321 0.930 . S
C329 C327 1.419 . S
C329 C330 1.362 . S
C330 H322 0.930 . S
C330 C329 1.362 . S
C330 C333 1.409 . S
C331 H323 0.930 . S
C331 C332 1.355 . S
C331 C333 1.415 . S
C332 C331 1.355 . S
C332 C334 1.419 . S
C333 C328 1.425 . S
C333 C330 1.409 . S
C333 C331 1.415 . S
C334 H324 0.930 . S
C334 C332 1.419 . S
C334 C335 1.362 . S
C335 H325 0.930 . S
C335 C328 1.409 . S
C335 C334 1.362 . S
H336 C342 0.930 . S
H337 C345 0.930 . S
H338 C346 0.930 . S
H339 C347 0.930 . S
H340 C350 0.930 . S
H341 C351 0.930 . S
C342 H336 0.930 . S
C342 C343 1.355 . S
C342 C344 1.415 . S
C343 C342 1.355 . S
C343 C345 1.419 . S
C344 C342 1.415 . S
C344 C349 1.425 . S
C344 C351 1.409 . S
C345 H337 0.930 . S
C345 C343 1.419 . S
C345 C346 1.362 . S
C346 H338 0.930 . S
C346 C345 1.362 . S
C346 C349 1.409 . S
C347 H339 0.930 . S
C347 C348 1.355 . S
C347 C349 1.415 . S
C348 C347 1.355 . S
C348 C350 1.419 . S
C349 C344 1.425 . S
C349 C346 1.409 . S
C349 C347 1.415 . S
C350 H340 0.930 . S
C350 C348 1.419 . S
C350 C351 1.362 . S
C351 H341 0.930 . S
C351 C344 1.409 . S
C351 C350 1.362 . S
H352 C358 0.930 . S
H353 C361 0.930 . S
H354 C362 0.930 . S
H355 C363 0.930 . S
H356 C366 0.930 . S
H357 C367 0.930 . S
C358 H352 0.930 . S
C358 C359 1.355 . S
C358 C360 1.415 . S
C359 C358 1.355 . S
C359 C361 1.419 . S
C360 C358 1.415 . S
C360 C365 1.425 . S
C360 C367 1.409 . S
C361 H353 0.930 . S
C361 C359 1.419 . S
C361 C362 1.362 . S
C362 H354 0.930 . S
C362 C361 1.362 . S
C362 C365 1.409 . S
C363 H355 0.930 . S
C363 C364 1.355 . S
C363 C365 1.415 . S
C364 C363 1.355 . S
C364 C366 1.419 . S
C365 C360 1.425 . S
C365 C362 1.409 . S
C365 C363 1.415 . S
C366 H356 0.930 . S
C366 C364 1.419 . S
C366 C367 1.362 . S
C367 H357 0.930 . S
C367 C360 1.409 . S
C367 C366 1.362 . S
H368 C374 0.930 . S
H369 C377 0.930 . S
H370 C378 0.930 . S
H371 C379 0.930 . S
H372 C382 0.930 . S
H373 C383 0.930 . S
C374 H368 0.930 . S
C374 C375 1.355 . S
C374 C376 1.415 . S
C375 C374 1.355 . S
C375 C377 1.419 . S
C376 C374 1.415 . S
C376 C381 1.425 . S
C376 C383 1.409 . S
C377 H369 0.930 . S
C377 C375 1.419 . S
C377 C378 1.362 . S
C378 H370 0.930 . S
C378 C377 1.362 . S
C378 C381 1.409 . S
C379 H371 0.930 . S
C379 C380 1.355 . S
C379 C381 1.415 . S
C380 C379 1.355 . S
C380 C382 1.419 . S
C381 C376 1.425 . S
C381 C378 1.409 . S
C381 C379 1.415 . S
C382 H372 0.930 . S
C382 C380 1.419 . S
C382 C383 1.362 . S
C383 H373 0.930 . S
C383 C376 1.409 . S
C383 C382 1.362 . S
H384 C390 0.930 . S
H385 C393 0.930 . S
H386 C394 0.930 . S
H387 C395 0.930 . S
H388 C398 0.930 . S
H389 C399 0.930 . S
C390 H384 0.930 . S
C390 C391 1.355 . S
C390 C392 1.415 . S
C391 C390 1.355 . S
C391 C393 1.419 . S
C392 C390 1.415 . S
C392 C397 1.425 . S
C392 C399 1.409 . S
C393 H385 0.930 . S
C393 C391 1.419 . S
C393 C394 1.362 . S
C394 H386 0.930 . S
C394 C393 1.362 . S
C394 C397 1.409 . S
C395 H387 0.930 . S
C395 C396 1.355 . S
C395 C397 1.415 . S
C396 C395 1.355 . S
C396 C398 1.419 . S
C397 C392 1.425 . S
C397 C394 1.409 . S
C397 C395 1.415 . S
C398 H388 0.930 . S
C398 C396 1.419 . S
C398 C399 1.362 . S
C399 H389 0.930 . S
C399 C392 1.409 . S
C399 C398 1.362 . S
H400 C406 0.930 . S
H401 C409 0.930 . S
H402 C410 0.930 . S
H403 C411 0.930 . S
H404 C414 0.930 . S
H405 C415 0.930 . S
C406 H400 0.930 . S
C406 C407 1.355 . S
C406 C408 1.415 . S
C407 C406 1.355 . S
C407 C409 1.419 . S
C408 C406 1.415 . S
C408 C413 1.425 . S
C408 C415 1.409 . S
C409 H401 0.930 . S
C409 C407 1.419 . S
C409 C410 1.362 . S
C410 H402 0.930 . S
C410 C409 1.362 . S
C410 C413 1.409 . S
C411 H403 0.930 . S
C411 C412 1.355 . S
C411 C413 1.415 . S
C412 C411 1.355 . S
C412 C414 1.419 . S
C413 C408 1.425 . S
C413 C410 1.409 . S
C413 C411 1.415 . S
C414 H404 0.930 . S
C414 C412 1.419 . S
C414 C415 1.362 . S
C415 H405 0.930 . S
C415 C408 1.409 . S
C415 C414 1.362 . S
H416 C422 0.930 . S
H417 C425 0.930 . S
H418 C426 0.930 . S
H419 C427 0.930 . S
H420 C430 0.930 . S
H421 C431 0.930 . S
C422 H416 0.930 . S
C422 C423 1.355 . S
C422 C424 1.415 . S
C423 C422 1.355 . S
C423 C425 1.419 . S
C424 C422 1.415 . S
C424 C429 1.425 . S
C424 C431 1.409 . S
C425 H417 0.930 . S
C425 C423 1.419 . S
C425 C426 1.362 . S
C426 H418 0.930 . S
C426 C425 1.362 . S
C426 C429 1.409 . S
C427 H419 0.930 . S
C427 C428 1.355 . S
C427 C429 1.415 . S
C428 C427 1.355 . S
C428 C430 1.419 . S
C429 C424 1.425 . S
C429 C426 1.409 . S
C429 C427 1.415 . S
C430 H420 0.930 . S
C430 C428 1.419 . S
C430 C431 1.362 . S
C431 H421 0.930 . S
C431 C424 1.409 . S
C431 C430 1.362 . S
H432 C438 0.930 . S
H433 C441 0.930 . S
H434 C442 0.930 . S
H435 C443 0.930 . S
H436 C446 0.930 . S
H437 C447 0.930 . S
C438 H432 0.930 . S
C438 C439 1.355 . S
C438 C440 1.415 . S
C439 C438 1.355 . S
C439 C441 1.419 . S
C440 C438 1.415 . S
C440 C445 1.425 . S
C440 C447 1.409 . S
C441 H433 0.930 . S
C441 C439 1.419 . S
C441 C442 1.362 . S
C442 H434 0.930 . S
C442 C441 1.362 . S
C442 C445 1.409 . S
C443 H435 0.930 . S
C443 C444 1.355 . S
C443 C445 1.415 . S
C444 C443 1.355 . S
C444 C446 1.419 . S
C445 C440 1.425 . S
C445 C442 1.409 . S
C445 C443 1.415 . S
C446 H436 0.930 . S
C446 C444 1.419 . S
C446 C447 1.362 . S
C447 H437 0.930 . S
C447 C440 1.409 . S
C447 C446 1.362 . S
H448 C454 0.930 . S
H449 C457 0.930 . S
H450 C458 0.930 . S
H451 C459 0.930 . S
H452 C462 0.930 . S
H453 C463 0.930 . S
C454 H448 0.930 . S
C454 C455 1.355 . S
C454 C456 1.415 . S
C455 C454 1.355 . S
C455 C457 1.419 . S
C456 C454 1.415 . S
C456 C461 1.425 . S
C456 C463 1.409 . S
C457 H449 0.930 . S
C457 C455 1.419 . S
C457 C458 1.362 . S
C458 H450 0.930 . S
C458 C457 1.362 . S
C458 C461 1.409 . S
C459 H451 0.930 . S
C459 C460 1.355 . S
C459 C461 1.415 . S
C460 C459 1.355 . S
C460 C462 1.419 . S
C461 C456 1.425 . S
C461 C458 1.409 . S
C461 C459 1.415 . S
C462 H452 0.930 . S
C462 C460 1.419 . S
C462 C463 1.362 . S
C463 H453 0.930 . S
C463 C456 1.409 . S
C463 C462 1.362 . S
H464 C470 0.930 . S
H465 C473 0.930 . S
H466 C474 0.930 . S
H467 C475 0.930 . S
H468 C478 0.930 . S
H469 C479 0.930 . S
C470 H464 0.930 . S
C470 C471 1.355 . S
C470 C472 1.415 . S
C471 C470 1.355 . S
C471 C473 1.419 . S
C472 C470 1.415 . S
C472 C477 1.425 . S
C472 C479 1.409 . S
C473 H465 0.930 . S
C473 C471 1.419 . S
C473 C474 1.362 . S
C474 H466 0.930 . S
C474 C473 1.362 . S
C474 C477 1.409 . S
C475 H467 0.930 . S
C475 C476 1.355 . S
C475 C477 1.415 . S
C476 C475 1.355 . S
C476 C478 1.419 . S
C477 C472 1.425 . S
C477 C474 1.409 . S
C477 C475 1.415 . S
C478 H468 0.930 . S
C478 C476 1.419 . S
C478 C479 1.362 . S
C479 H469 0.930 . S
C479 C472 1.409 . S
C479 C478 1.362 . S
H480 C486 0.930 . S
H481 C489 0.930 . S
H482 C490 0.930 . S
H483 C491 0.930 . S
H484 C494 0.930 . S
H485 C495 0.930 . S
C486 H480 0.930 . S
C486 C487 1.355 . S
C486 C488 1.415 . S
C487 C486 1.355 . S
C487 C489 1.419 . S
C488 C486 1.415 . S
C488 C493 1.425 . S
C488 C495 1.409 . S
C489 H481 0.930 . S
C489 C487 1.419 . S
C489 C490 1.362 . S
C490 H482 0.930 . S
C490 C489 1.362 . S
C490 C493 1.409 . S
C491 H483 0.930 . S
C491 C492 1.355 . S
C491 C493 1.415 . S
C492 C491 1.355 . S
C492 C494 1.419 . S
C493 C488 1.425 . S
C493 C490 1.409 . S
C493 C491 1.415 . S
C494 H484 0.930 . S
C494 C492 1.419 . S
C494 C495 1.362 . S
C495 H485 0.930 . S
C495 C488 1.409 . S
C495 C494 1.362 . S
H496 C502 0.930 . S
H497 C505 0.930 . S
H498 C506 0.930 . S
H499 C507 0.930 . S
H500 C510 0.930 . S
H501 C511 0.930 . S
C502 H496 0.930 . S
C502 C503 1.355 . S
C502 C504 1.415 . S
C503 C502 1.355 . S
C503 C505 1.419 . S
C504 C502 1.415 . S
C504 C509 1.425 . S
C504 C511 1.409 . S
C505 H497 0.930 . S
C505 C503 1.419 . S
C505 C506 1.362 . S
C506 H498 0.930 . S
C506 C505 1.362 . S
C506 C509 1.409 . S
C507 H499 0.930 . S
C507 C508 1.355 . S
C507 C509 1.415 . S
C508 C507 1.355 . S
C508 C510 1.419 . S
C509 C504 1.425 . S
C509 C506 1.409 . S
C509 C507 1.415 . S
C510 H500 0.930 . S
C510 C508 1.419 . S
C510 C511 1.362 . S
C511 H501 0.930 . S
C511 C504 1.409 . S
C511 C510 1.362 . S
H512 C518 0.930 . S
H513 C521 0.930 . S
H514 C522 0.930 . S
H515 C523 0.930 . S
H516 C526 0.930 . S
H517 C527 0.930 . S
C518 H512 0.930 . S
C518 C519 1.355 . S
C518 C520 1.415 . S
C519 C518 1.355 . S
C519 C521 1.419 . S
C520 C518 1.415 . S
C520 C525 1.425 . S
C520 C527 1.409 . S
C521 H513 0.930 . S
C521 C519 1.419 . S
C521 C522 1.362 . S
C522 H514 0.930 . S
C522 C521 1.362 . S
C522 C525 1.409 . S
C523 H515 0.930 . S
C523 C524 1.355 . S
C523 C525 1.415 . S
C524 C523 1.355 . S
C524 C526 1.419 . S
C525 C520 1.425 . S
C525 C522 1.409 . S
C525 C523 1.415 . S
C526 H516 0.930 . S
C526 C524 1.419 . S
C526 C527 1.362 . S
C527 H517 0.930 . S
C527 C520 1.409 . S
C527 C526 1.362 . S
H528 C534 0.930 . S
H529 C537 0.930 . S
H530 C538 0.930 . S
H531 C539 0.930 . S
H532 C542 0.930 . S
H533 C543 0.930 . S
C534 H528 0.930 . S
C534 C535 1.355 . S
C534 C536 1.415 . S
C535 C534 1.355 . S
C535 C537 1.419 . S
C536 C534 1.415 . S
C536 C541 1.425 . S
C536 C543 1.409 . S
C537 H529 0.930 . S
C537 C535 1.419 . S
C537 C538 1.362 . S
C538 H530 0.930 . S
C538 C537 1.362 . S
C538 C541 1.409 . S
C539 H531 0.930 . S
C539 C540 1.355 . S
C539 C541 1.415 . S
C540 C539 1.355 . S
C540 C542 1.419 . S
C541 C536 1.425 . S
C541 C538 1.409 . S
C541 C539 1.415 . S
C542 H532 0.930 . S
C542 C540 1.419 . S
C542 C543 1.362 . S
C543 H533 0.930 . S
C543 C536 1.409 . S
C543 C542 1.362 . S
H544 C550 0.930 . S
H545 C553 0.930 . S
H546 C554 0.930 . S
H547 C555 0.930 . S
H548 C558 0.930 . S
H549 C559 0.930 . S
C550 H544 0.930 . S
C550 C551 1.355 . S
C550 C552 1.415 . S
C551 C550 1.355 . S
C551 C553 1.419 . S
C552 C550 1.415 . S
C552 C557 1.425 . S
C552 C559 1.409 . S
C553 H545 0.930 . S
C553 C551 1.419 . S
C553 C554 1.362 . S
C554 H546 0.930 . S
C554 C553 1.362 . S
C554 C557 1.409 . S
C555 H547 0.930 . S
C555 C556 1.355 . S
C555 C557 1.415 . S
C556 C555 1.355 . S
C556 C558 1.419 . S
C557 C552 1.425 . S
C557 C554 1.409 . S
C557 C555 1.415 . S
C558 H548 0.930 . S
C558 C556 1.419 . S
C558 C559 1.362 . S
C559 H549 0.930 . S
C559 C552 1.409 . S
C559 C558 1.362 . S
H560 C566 0.930 . S
H561 C569 0.930 . S
H562 C570 0.930 . S
H563 C571 0.930 . S
H564 C574 0.930 . S
H565 C575 0.930 . S
C566 H560 0.930 . S
C566 C567 1.355 . S
C566 C568 1.415 . S
C567 C566 1.355 . S
C567 C569 1.419 . S
C568 C566 1.415 . S
C568 C573 1.425 . S
C568 C575 1.409 . S
C569 H561 0.930 . S
C569 C567 1.419 . S
C569 C570 1.362 . S
C570 H562 0.930 . S
C570 C569 1.362 . S
C570 C573 1.409 . S
C571 H563 0.930 . S
C571 C572 1.355 . S
C571 C573 1.415 . S
C572 C571 1.355 . S
C572 C574 1.419 . S
C573 C568 1.425 . S
C573 C570 1.409 . S
C573 C571 1.415 . S
C574 H564 0.930 . S
C574 C572 1.419 . S
C574 C575 1.362 . S
C575 H565 0.930 . S
C575 C568 1.409 . S
C575 C574 1.362 . S
H576 C582 0.930 . S
H577 C585 0.930 . S
H578 C586 0.930 . S
H579 C587 0.930 . S
H580 C590 0.930 . S
H581 C591 0.930 . S
C582 H576 0.930 . S
C582 C583 1.355 . S
C582 C584 1.415 . S
C583 C582 1.355 . S
C583 C585 1.419 . S
C584 C582 1.415 . S
C584 C589 1.425 . S
C584 C591 1.409 . S
C585 H577 0.930 . S
C585 C583 1.419 . S
C585 C586 1.362 . S
C586 H578 0.930 . S
C586 C585 1.362 . S
C586 C589 1.409 . S
C587 H579 0.930 . S
C587 C588 1.355 . S
C587 C589 1.415 . S
C588 C587 1.355 . S
C588 C590 1.419 . S
C589 C584 1.425 . S
C589 C586 1.409 . S
C589 C587 1.415 . S
C590 H580 0.930 . S
C590 C588 1.419 . S
C590 C591 1.362 . S
C591 H581 0.930 . S
C591 C584 1.409 . S
C591 C590 1.362 . S
H592 C598 0.930 . S
H593 C601 0.930 . S
H594 C602 0.930 . S
H595 C603 0.930 . S
H596 C606 0.930 . S
H597 C607 0.930 . S
C598 H592 0.930 . S
C598 C599 1.355 . S
C598 C600 1.415 . S
C599 C598 1.355 . S
C599 C601 1.419 . S
C600 C598 1.415 . S
C600 C605 1.425 . S
C600 C607 1.409 . S
C601 H593 0.930 . S
C601 C599 1.419 . S
C601 C602 1.362 . S
C602 H594 0.930 . S
C602 C601 1.362 . S
C602 C605 1.409 . S
C603 H595 0.930 . S
C603 C604 1.355 . S
C603 C605 1.415 . S
C604 C603 1.355 . S
C604 C606 1.419 . S
C605 C600 1.425 . S
C605 C602 1.409 . S
C605 C603 1.415 . S
C606 H596 0.930 . S
C606 C604 1.419 . S
C606 C607 1.362 . S
C607 H597 0.930 . S
C607 C600 1.409 . S
C607 C606 1.362 . S
H608 C614 0.930 . S
H609 C617 0.930 . S
H610 C618 0.930 . S
H611 C619 0.930 . S
H612 C622 0.930 . S
H613 C623 0.930 . S
C614 H608 0.930 . S
C614 C615 1.355 . S
C614 C616 1.415 . S
C615 C614 1.355 . S
C615 C617 1.419 . S
C616 C614 1.415 . S
C616 C621 1.425 . S
C616 C623 1.409 . S
C617 H609 0.930 . S
C617 C615 1.419 . S
C617 C618 1.362 . S
C618 H610 0.930 . S
C618 C617 1.362 . S
C618 C621 1.409 . S
C619 H611 0.930 . S
C619 C620 1.355 . S
C619 C621 1.415 . S
C620 C619 1.355 . S
C620 C622 1.419 . S
C621 C616 1.425 . S
C621 C618 1.409 . S
C621 C619 1.415 . S
C622 H612 0.930 . S
C622 C620 1.419 . S
C622 C623 1.362 . S
C623 H613 0.930 . S
C623 C616 1.409 . S
C623 C622 1.362 . S
H624 C630 0.930 . S
H625 C633 0.930 . S
H626 C634 0.930 . S
H627 C635 0.930 . S
H628 C638 0.930 . S
H629 C639 0.930 . S
C630 H624 0.930 . S
C630 C631 1.355 . S
C630 C632 1.415 . S
C631 C630 1.355 . S
C631 C633 1.419 . S
C632 C630 1.415 . S
C632 C637 1.425 . S
C632 C639 1.409 . S
C633 H625 0.930 . S
C633 C631 1.419 . S
C633 C634 1.362 . S
C634 H626 0.930 . S
C634 C633 1.362 . S
C634 C637 1.409 . S
C635 H627 0.930 . S
C635 C636 1.355 . S
C635 C637 1.415 . S
C636 C635 1.355 . S
C636 C638 1.419 . S
C637 C632 1.425 . S
C637 C634 1.409 . S
C637 C635 1.415 . S
C638 H628 0.930 . S
C638 C636 1.419 . S
C638 C639 1.362 . S
C639 H629 0.930 . S
C639 C632 1.409 . S
C639 C638 1.362 . S
H640 C646 0.930 . S
H641 C649 0.930 . S
H642 C650 0.930 . S
H643 C651 0.930 . S
H644 C654 0.930 . S
H645 C655 0.930 . S
C646 H640 0.930 . S
C646 C647 1.355 . S
C646 C648 1.415 . S
C647 C646 1.355 . S
C647 C649 1.419 . S
C648 C646 1.415 . S
C648 C653 1.425 . S
C648 C655 1.409 . S
C649 H641 0.930 . S
C649 C647 1.419 . S
C649 C650 1.362 . S
C650 H642 0.930 . S
C650 C649 1.362 . S
C650 C653 1.409 . S
C651 H643 0.930 . S
C651 C652 1.355 . S
C651 C653 1.415 . S
C652 C651 1.355 . S
C652 C654 1.419 . S
C653 C648 1.425 . S
C653 C650 1.409 . S
C653 C651 1.415 . S
C654 H644 0.930 . S
C654 C652 1.419 . S
C654 C655 1.362 . S
C655 H645 0.930 . S
C655 C648 1.409 . S
C655 C654 1.362 . S
H656 C662 0.930 . S
H657 C665 0.930 . S
H658 C666 0.930 . S
H659 C667 0.930 . S
H660 C670 0.930 . S
H661 C671 0.930 . S
C662 H656 0.930 . S
C662 C663 1.355 . S
C662 C664 1.415 . S
C663 C662 1.355 . S
C663 C665 1.419 . S
C664 C662 1.415 . S
C664 C669 1.425 . S
C664 C671 1.409 . S
C665 H657 0.930 . S
C665 C663 1.419 . S
C665 C666 1.362 . S
C666 H658 0.930 . S
C666 C665 1.362 . S
C666 C669 1.409 . S
C667 H659 0.930 . S
C667 C668 1.355 . S
C667 C669 1.415 . S
C668 C667 1.355 . S
C668 C670 1.419 . S
C669 C664 1.425 . S
C669 C666 1.409 . S
C669 C667 1.415 . S
C670 H660 0.930 . S
C670 C668 1.419 . S
C670 C671 1.362 . S
C671 H661 0.930 . S
C671 C664 1.409 . S
C671 C670 1.362 . S
H672 C678 0.930 . S
H673 C681 0.930 . S
H674 C682 0.930 . S
H675 C683 0.930 . S
H676 C686 0.930 . S
H677 C687 0.930 . S
C678 H672 0.930 . S
C678 C679 1.355 . S
C678 C680 1.415 . S
C679 C678 1.355 . S
C679 C681 1.419 1_545 S
C680 C678 1.415 . S
C680 C685 1.425 1_544 S
C680 C687 1.409 1_554 S
C681 H673 0.930 . S
C681 C679 1.419 1_565 S
C681 C682 1.362 . S
C682 H674 0.930 . S
C682 C681 1.362 . S
C682 C685 1.409 1_554 S
C683 H675 0.930 . S
C683 C684 1.355 . S
C683 C685 1.415 . S
C684 C683 1.355 . S
C684 C686 1.419 1_565 S
C685 C680 1.425 1_566 S
C685 C682 1.409 1_556 S
C685 C683 1.415 . S
C686 H676 0.930 . S
C686 C684 1.419 1_545 S
C686 C687 1.362 . S
C687 H677 0.930 . S
C687 C680 1.409 1_556 S
C687 C686 1.362 . S
H688 C694 0.930 . S
H689 C697 0.930 . S
H690 C698 0.930 . S
H691 C699 0.930 . S
H692 C702 0.930 . S
H693 C703 0.930 . S
C694 H688 0.930 . S
C694 C695 1.355 . S
C694 C696 1.415 1_455 S
C695 C694 1.355 . S
C695 C697 1.419 . S
C696 C694 1.415 1_655 S
C696 C701 1.425 1_656 S
C696 C703 1.409 1_556 S
C697 H689 0.930 . S
C697 C695 1.419 . S
C697 C698 1.362 . S
C698 H690 0.930 . S
C698 C697 1.362 . S
C698 C701 1.409 1_556 S
C699 H691 0.930 . S
C699 C700 1.355 . S
C699 C701 1.415 1_655 S
C700 C699 1.355 . S
C700 C702 1.419 . S
C701 C696 1.425 1_454 S
C701 C698 1.409 1_554 S
C701 C699 1.415 1_455 S
C702 H692 0.930 . S
C702 C700 1.419 . S
C702 C703 1.362 . S
C703 H693 0.930 . S
C703 C696 1.409 1_554 S
C703 C702 1.362 . S
H704 C710 0.930 . S
H705 C713 0.930 . S
H706 C714 0.930 . S
H707 C715 0.930 . S
H708 C718 0.930 . S
H709 C719 0.930 . S
C710 H704 0.930 . S
C710 C711 1.355 . S
C710 C712 1.415 . S
C711 C710 1.355 . S
C711 C713 1.419 1_545 S
C712 C710 1.415 . S
C712 C717 1.425 1_546 S
C712 C719 1.409 1_556 S
C713 H705 0.930 . S
C713 C711 1.419 1_565 S
C713 C714 1.362 . S
C714 H706 0.930 . S
C714 C713 1.362 . S
C714 C717 1.409 1_556 S
C715 H707 0.930 . S
C715 C716 1.355 . S
C715 C717 1.415 . S
C716 C715 1.355 . S
C716 C718 1.419 1_565 S
C717 C712 1.425 1_564 S
C717 C714 1.409 1_554 S
C717 C715 1.415 . S
C718 H708 0.930 . S
C718 C716 1.419 1_545 S
C718 C719 1.362 . S
C719 H709 0.930 . S
C719 C712 1.409 1_554 S
C719 C718 1.362 . S
H720 C726 0.930 . S
H721 C729 0.930 . S
H722 C730 0.930 1_554 S
H723 C731 0.930 . S
H724 C734 0.930 . S
H725 C735 0.930 1_556 S
C726 H720 0.930 . S
C726 C727 1.355 1_455 S
C726 C728 1.415 . S
C727 C726 1.355 1_655 S
C727 C729 1.419 . S
C728 C726 1.415 . S
C728 C733 1.425 1_456 S
C728 C735 1.409 1_556 S
C729 H721 0.930 . S
C729 C727 1.419 . S
C729 C730 1.362 . S
C730 H722 0.930 1_556 S
C730 C729 1.362 . S
C730 C733 1.409 1_556 S
C731 H723 0.930 . S
C731 C732 1.355 1_655 S
C731 C733 1.415 . S
C732 C731 1.355 1_455 S
C732 C734 1.419 . S
C733 C728 1.425 1_654 S
C733 C730 1.409 1_554 S
C733 C731 1.415 . S
C734 H724 0.930 . S
C734 C732 1.419 . S
C734 C735 1.362 . S
C735 H725 0.930 1_554 S
C735 C728 1.409 1_554 S
C735 C734 1.362 . S
C231 C11 1.286 . S
C236 C109 1.290 . S
C247 C25 1.282 . S
C252 C67 1.294 . S
C263 C81 1.294 . S
C268 C39 1.283 . S
C279 C53 1.282 . S
C284 C95 1.294 . S
C295 C123 1.290 . S
C300 C221 1.287 . S
C311 C179 1.290 . S
C316 C137 1.286 . S
C327 C193 1.284 . S
C332 C151 1.292 . S
C343 C207 1.288 . S
C348 C165 1.288 . S
C359 C5 1.412 . S
C364 C154 1.390 . S
C375 C19 1.394 . S
C380 C112 1.415 . S
C391 C126 1.420 . S
C396 C33 1.370 . S
C407 C47 1.368 . S
C412 C140 1.401 . S
C423 C61 1.360 . S
C428 C182 1.415 . S
C439 C196 1.390 . S
C444 C75 1.389 . S
C455 C89 1.409 . S
C460 C210 1.405 . S
C471 C168 1.389 . S
C476 C103 1.391 . S
C487 C117 1.360 . S
C492 C42 1.412 . S
C503 C0 1.398 . S
C508 C131 1.414 . S
C519 C145 1.362 . S
C524 C14 1.408 . S
C535 C28 1.389 . S
C540 C159 1.412 . S
C551 C173 1.378 . S
C556 C70 1.420 . S
C567 C84 1.396 . S
C572 C187 1.376 . S
C583 C98 1.391 . S
C588 C201 1.386 . S
C599 C56 1.388 . S
C604 C215 1.396 . S
C615 C65 1.603 . S
C620 C9 1.608 . S
C631 C79 1.607 . S
C636 C23 1.603 . S
C647 C37 1.610 . S
C652 C93 1.603 . S
C663 C107 1.610 . S
C668 C51 1.604 . S
C679 C177 1.610 . S
C684 C121 1.604 . S
C695 C191 1.610 . S
C700 C135 1.603 . S
C711 C149 1.605 . S
C716 C205 1.609 . S
C727 C219 1.609 . S
C732 C163 1.603 . S
