# Generated by pormake.
# Topology ukn, (4)-cn, num edge types: 1
# Building blocks:
#     Node 0, Type 0, BuildingBlock: CEKHIL_clean_sbu_0, # of connection points: 4
#     Node 1, Type 0, BuildingBlock: CEKHIL_clean_sbu_0, # of connection points: 4
#     Node 2, Type 0, BuildingBlock: CEKHIL_clean_sbu_0, # of connection points: 4
#     Node 3, Type 0, BuildingBlock: CEKHIL_clean_sbu_0, # of connection points: 4
#     Node 4, Type 0, BuildingBlock: CEKHIL_clean_sbu_0, # of connection points: 4
#     Node 5, Type 0, BuildingBlock: CEKHIL_clean_sbu_0, # of connection points: 4
#     Node 6, Type 0, BuildingBlock: CEKHIL_clean_sbu_0, # of connection points: 4
#     Node 7, Type 0, BuildingBlock: CEKHIL_clean_sbu_0, # of connection points: 4
#     Node 8, Type 0, BuildingBlock: CEKHIL_clean_sbu_0, # of connection points: 4
#     Node 9, Type 0, BuildingBlock: CEKHIL_clean_sbu_0, # of connection points: 4
#     Node 10, Type 0, BuildingBlock: CEKHIL_clean_sbu_0, # of connection points: 4
#     Node 11, Type 0, BuildingBlock: CEKHIL_clean_sbu_0, # of connection points: 4
#     Node 12, Type 0, BuildingBlock: CEKHIL_clean_sbu_0, # of connection points: 4
#     Node 13, Type 0, BuildingBlock: CEKHIL_clean_sbu_0, # of connection points: 4
#     Node 14, Type 0, BuildingBlock: CEKHIL_clean_sbu_0, # of connection points: 4
#     Node 15, Type 0, BuildingBlock: CEKHIL_clean_sbu_0, # of connection points: 4
#     Node 16, Type 0, BuildingBlock: CEKHIL_clean_sbu_0, # of connection points: 4
#     Node 17, Type 0, BuildingBlock: CEKHIL_clean_sbu_0, # of connection points: 4
#     Node 18, Type 0, BuildingBlock: CEKHIL_clean_sbu_0, # of connection points: 4
#     Node 19, Type 0, BuildingBlock: CEKHIL_clean_sbu_0, # of connection points: 4
#     Node 20, Type 0, BuildingBlock: CEKHIL_clean_sbu_0, # of connection points: 4
#     Node 21, Type 0, BuildingBlock: CEKHIL_clean_sbu_0, # of connection points: 4
#     Node 22, Type 0, BuildingBlock: CEKHIL_clean_sbu_0, # of connection points: 4
#     Node 23, Type 0, BuildingBlock: CEKHIL_clean_sbu_0, # of connection points: 4
#     Node 24, Type 0, BuildingBlock: CEKHIL_clean_sbu_0, # of connection points: 4
#     Node 25, Type 0, BuildingBlock: CEKHIL_clean_sbu_0, # of connection points: 4
#     Node 26, Type 0, BuildingBlock: CEKHIL_clean_sbu_0, # of connection points: 4
#     Node 27, Type 0, BuildingBlock: CEKHIL_clean_sbu_0, # of connection points: 4
#     Node 28, Type 0, BuildingBlock: CEKHIL_clean_sbu_0, # of connection points: 4
#     Node 29, Type 0, BuildingBlock: CEKHIL_clean_sbu_0, # of connection points: 4
#     Node 30, Type 0, BuildingBlock: CEKHIL_clean_sbu_0, # of connection points: 4
#     Node 31, Type 0, BuildingBlock: CEKHIL_clean_sbu_0, # of connection points: 4
#     Node 32, Type 0, BuildingBlock: CEKHIL_clean_sbu_0, # of connection points: 4
#     Node 33, Type 0, BuildingBlock: CEKHIL_clean_sbu_0, # of connection points: 4
#     Node 34, Type 0, BuildingBlock: CEKHIL_clean_sbu_0, # of connection points: 4
#     Node 35, Type 0, BuildingBlock: CEKHIL_clean_sbu_0, # of connection points: 4
#     Edge 36, Type (0, 0), BuildingBlock: UVAHIK_clean_linker_0, # of connection points: 2
#     Edge 37, Type (0, 0), BuildingBlock: UVAHIK_clean_linker_0, # of connection points: 2
#     Edge 38, Type (0, 0), BuildingBlock: UVAHIK_clean_linker_0, # of connection points: 2
#     Edge 39, Type (0, 0), BuildingBlock: UVAHIK_clean_linker_0, # of connection points: 2
#     Edge 40, Type (0, 0), BuildingBlock: UVAHIK_clean_linker_0, # of connection points: 2
#     Edge 41, Type (0, 0), BuildingBlock: UVAHIK_clean_linker_0, # of connection points: 2
#     Edge 42, Type (0, 0), BuildingBlock: UVAHIK_clean_linker_0, # of connection points: 2
#     Edge 43, Type (0, 0), BuildingBlock: UVAHIK_clean_linker_0, # of connection points: 2
#     Edge 44, Type (0, 0), BuildingBlock: UVAHIK_clean_linker_0, # of connection points: 2
#     Edge 45, Type (0, 0), BuildingBlock: UVAHIK_clean_linker_0, # of connection points: 2
#     Edge 46, Type (0, 0), BuildingBlock: UVAHIK_clean_linker_0, # of connection points: 2
#     Edge 47, Type (0, 0), BuildingBlock: UVAHIK_clean_linker_0, # of connection points: 2
#     Edge 48, Type (0, 0), BuildingBlock: UVAHIK_clean_linker_0, # of connection points: 2
#     Edge 49, Type (0, 0), BuildingBlock: UVAHIK_clean_linker_0, # of connection points: 2
#     Edge 50, Type (0, 0), BuildingBlock: UVAHIK_clean_linker_0, # of connection points: 2
#     Edge 51, Type (0, 0), BuildingBlock: UVAHIK_clean_linker_0, # of connection points: 2
#     Edge 52, Type (0, 0), BuildingBlock: UVAHIK_clean_linker_0, # of connection points: 2
#     Edge 53, Type (0, 0), BuildingBlock: UVAHIK_clean_linker_0, # of connection points: 2
#     Edge 54, Type (0, 0), BuildingBlock: UVAHIK_clean_linker_0, # of connection points: 2
#     Edge 55, Type (0, 0), BuildingBlock: UVAHIK_clean_linker_0, # of connection points: 2
#     Edge 56, Type (0, 0), BuildingBlock: UVAHIK_clean_linker_0, # of connection points: 2
#     Edge 57, Type (0, 0), BuildingBlock: UVAHIK_clean_linker_0, # of connection points: 2
#     Edge 58, Type (0, 0), BuildingBlock: UVAHIK_clean_linker_0, # of connection points: 2
#     Edge 59, Type (0, 0), BuildingBlock: UVAHIK_clean_linker_0, # of connection points: 2
#     Edge 60, Type (0, 0), BuildingBlock: UVAHIK_clean_linker_0, # of connection points: 2
#     Edge 61, Type (0, 0), BuildingBlock: UVAHIK_clean_linker_0, # of connection points: 2
#     Edge 62, Type (0, 0), BuildingBlock: UVAHIK_clean_linker_0, # of connection points: 2
#     Edge 63, Type (0, 0), BuildingBlock: UVAHIK_clean_linker_0, # of connection points: 2
#     Edge 64, Type (0, 0), BuildingBlock: UVAHIK_clean_linker_0, # of connection points: 2
#     Edge 65, Type (0, 0), BuildingBlock: UVAHIK_clean_linker_0, # of connection points: 2
#     Edge 66, Type (0, 0), BuildingBlock: UVAHIK_clean_linker_0, # of connection points: 2
#     Edge 67, Type (0, 0), BuildingBlock: UVAHIK_clean_linker_0, # of connection points: 2
#     Edge 68, Type (0, 0), BuildingBlock: UVAHIK_clean_linker_0, # of connection points: 2
#     Edge 69, Type (0, 0), BuildingBlock: UVAHIK_clean_linker_0, # of connection points: 2
#     Edge 70, Type (0, 0), BuildingBlock: UVAHIK_clean_linker_0, # of connection points: 2
#     Edge 71, Type (0, 0), BuildingBlock: UVAHIK_clean_linker_0, # of connection points: 2
#     Edge 72, Type (0, 0), BuildingBlock: UVAHIK_clean_linker_0, # of connection points: 2
#     Edge 73, Type (0, 0), BuildingBlock: UVAHIK_clean_linker_0, # of connection points: 2
#     Edge 74, Type (0, 0), BuildingBlock: UVAHIK_clean_linker_0, # of connection points: 2
#     Edge 75, Type (0, 0), BuildingBlock: UVAHIK_clean_linker_0, # of connection points: 2
#     Edge 76, Type (0, 0), BuildingBlock: UVAHIK_clean_linker_0, # of connection points: 2
#     Edge 77, Type (0, 0), BuildingBlock: UVAHIK_clean_linker_0, # of connection points: 2
#     Edge 78, Type (0, 0), BuildingBlock: UVAHIK_clean_linker_0, # of connection points: 2
#     Edge 79, Type (0, 0), BuildingBlock: UVAHIK_clean_linker_0, # of connection points: 2
#     Edge 80, Type (0, 0), BuildingBlock: UVAHIK_clean_linker_0, # of connection points: 2
#     Edge 81, Type (0, 0), BuildingBlock: UVAHIK_clean_linker_0, # of connection points: 2
#     Edge 82, Type (0, 0), BuildingBlock: UVAHIK_clean_linker_0, # of connection points: 2
#     Edge 83, Type (0, 0), BuildingBlock: UVAHIK_clean_linker_0, # of connection points: 2
#     Edge 84, Type (0, 0), BuildingBlock: UVAHIK_clean_linker_0, # of connection points: 2
#     Edge 85, Type (0, 0), BuildingBlock: UVAHIK_clean_linker_0, # of connection points: 2
#     Edge 86, Type (0, 0), BuildingBlock: UVAHIK_clean_linker_0, # of connection points: 2
#     Edge 87, Type (0, 0), BuildingBlock: UVAHIK_clean_linker_0, # of connection points: 2
#     Edge 88, Type (0, 0), BuildingBlock: UVAHIK_clean_linker_0, # of connection points: 2
#     Edge 89, Type (0, 0), BuildingBlock: UVAHIK_clean_linker_0, # of connection points: 2
#     Edge 90, Type (0, 0), BuildingBlock: UVAHIK_clean_linker_0, # of connection points: 2
#     Edge 91, Type (0, 0), BuildingBlock: UVAHIK_clean_linker_0, # of connection points: 2
#     Edge 92, Type (0, 0), BuildingBlock: UVAHIK_clean_linker_0, # of connection points: 2
#     Edge 93, Type (0, 0), BuildingBlock: UVAHIK_clean_linker_0, # of connection points: 2
#     Edge 94, Type (0, 0), BuildingBlock: UVAHIK_clean_linker_0, # of connection points: 2
#     Edge 95, Type (0, 0), BuildingBlock: UVAHIK_clean_linker_0, # of connection points: 2
#     Edge 96, Type (0, 0), BuildingBlock: UVAHIK_clean_linker_0, # of connection points: 2
#     Edge 97, Type (0, 0), BuildingBlock: UVAHIK_clean_linker_0, # of connection points: 2
#     Edge 98, Type (0, 0), BuildingBlock: UVAHIK_clean_linker_0, # of connection points: 2
#     Edge 99, Type (0, 0), BuildingBlock: UVAHIK_clean_linker_0, # of connection points: 2
#     Edge 100, Type (0, 0), BuildingBlock: UVAHIK_clean_linker_0, # of connection points: 2
#     Edge 101, Type (0, 0), BuildingBlock: UVAHIK_clean_linker_0, # of connection points: 2
#     Edge 102, Type (0, 0), BuildingBlock: UVAHIK_clean_linker_0, # of connection points: 2
#     Edge 103, Type (0, 0), BuildingBlock: UVAHIK_clean_linker_0, # of connection points: 2
#     Edge 104, Type (0, 0), BuildingBlock: UVAHIK_clean_linker_0, # of connection points: 2
#     Edge 105, Type (0, 0), BuildingBlock: UVAHIK_clean_linker_0, # of connection points: 2
#     Edge 106, Type (0, 0), BuildingBlock: UVAHIK_clean_linker_0, # of connection points: 2
#     Edge 107, Type (0, 0), BuildingBlock: UVAHIK_clean_linker_0, # of connection points: 2
# Relax obj value: 0.077
# Max RMSD: 0.097
# Mean RMSD: 0.097
data_MOF--net-ukn--node1-CEKHIL_clean_sbu_0--edge1-UVAHIK_clean_linker_0
_symmetry_space_group_name_H-M    P1
_symmetry_Int_Tables_number       1
_symmetry_cell_setting            triclinic
loop_
_symmetry_equiv_pos_as_xyz
'x, y, z'
_cell_length_a     136.19207
_cell_length_b     136.14084
_cell_length_c     34.2586
_cell_angle_alpha  89.982198
_cell_angle_beta   90.020686
_cell_angle_gamma 119.97753
loop_
_atom_site_label
_atom_site_type_symbol
_atom_site_fract_x
_atom_site_fract_y
_atom_site_fract_z
_atom_type_partial_charge
Co0 Co 0.07953 0.29907 0.08514 0.0
O1 O 0.06448 0.29695 0.08259 0.0
O2 O 0.06911 0.2842 0.06428 0.0
C3 C 0.08346 0.30661 0.14568 0.0
O4 O 0.09394 0.29792 0.08475 0.0
Co5 Co 0.10093 0.32295 0.09579 0.0
O6 O 0.10837 0.31404 0.10892 0.0
C7 C 0.0885 0.31649 0.0206 0.0
C8 C 0.0613 0.28696 0.06835 0.0
C9 C 0.10412 0.30377 0.098 0.0
O10 O 0.08276 0.30602 0.03126 0.0
O11 O 0.09537 0.32445 0.04329 0.0
O12 O 0.07772 0.29564 0.14143 0.0
O13 O 0.08586 0.31239 0.11395 0.0
Co14 Co 0.70882 0.78368 0.08324 0.0
O15 O 0.71097 0.77084 0.07739 0.0
O16 O 0.7237 0.78844 0.06137 0.0
C17 C 0.70139 0.77916 0.14383 0.0
O18 O 0.70972 0.79914 0.08648 0.0
Co19 Co 0.68457 0.78024 0.09589 0.0
O20 O 0.69313 0.79654 0.1099 0.0
C21 C 0.69116 0.77479 0.02037 0.0
C22 C 0.7209 0.7778 0.06319 0.0
C23 C 0.70347 0.80298 0.10026 0.0
O24 O 0.70174 0.78059 0.02959 0.0
O25 O 0.68313 0.77277 0.04423 0.0
O26 O 0.71235 0.78454 0.13943 0.0
O27 O 0.6956 0.77616 0.11209 0.0
Co28 Co 0.22369 0.92746 0.08206 0.0
O29 O 0.23698 0.94191 0.07261 0.0
O30 O 0.21946 0.93786 0.05914 0.0
C31 C 0.22878 0.92526 0.14272 0.0
O32 O 0.20784 0.91365 0.08909 0.0
Co33 Co 0.22532 0.90579 0.09927 0.0
O34 O 0.2098 0.9001 0.11963 0.0
C35 C 0.22883 0.91512 0.01899 0.0
C36 C 0.23024 0.94527 0.05913 0.0
C37 C 0.20372 0.9042 0.10787 0.0
O38 O 0.22544 0.92208 0.0289 0.0
O39 O 0.23005 0.90865 0.04329 0.0
O40 O 0.22391 0.93131 0.13761 0.0
O41 O 0.23097 0.92152 0.11141 0.0
Co42 Co 0.299 0.07794 0.8988 0.0
O43 O 0.29788 0.06358 0.91045 0.0
O44 O 0.28426 0.06764 0.92099 0.0
C45 C 0.30672 0.07973 0.83911 0.0
O46 O 0.29682 0.09159 0.88942 0.0
Co47 Co 0.32217 0.09967 0.88163 0.0
O48 O 0.3125 0.10554 0.86114 0.0
C49 C 0.31602 0.09082 0.96245 0.0
C50 C 0.2877 0.0603 0.92296 0.0
C51 C 0.30219 0.10121 0.87167 0.0
O52 O 0.30576 0.08367 0.9522 0.0
O53 O 0.32378 0.0972 0.93828 0.0
O54 O 0.29577 0.07373 0.84337 0.0
O55 O 0.31244 0.08377 0.87068 0.0
Co56 Co 0.93039 0.22446 0.90011 0.0
O57 O 0.9449 0.23715 0.91365 0.0
O58 O 0.93989 0.21917 0.92354 0.0
C59 C 0.92961 0.23095 0.84028 0.0
O60 O 0.91632 0.20907 0.88903 0.0
Co61 Co 0.90968 0.22746 0.88042 0.0
O62 O 0.90349 0.21207 0.85809 0.0
C63 C 0.91734 0.22891 0.96239 0.0
C64 C 0.94756 0.22983 0.92664 0.0
C65 C 0.90708 0.20551 0.86941 0.0
O66 O 0.92431 0.22552 0.95277 0.0
O67 O 0.91146 0.23085 0.93763 0.0
O68 O 0.93508 0.22548 0.84522 0.0
O69 O 0.92551 0.2328 0.87137 0.0
Co70 Co 0.78276 0.70732 0.90309 0.0
O71 O 0.76987 0.709 0.91446 0.0
O72 O 0.78768 0.72222 0.92515 0.0
C73 C 0.77667 0.69966 0.84336 0.0
O74 O 0.79829 0.70876 0.89379 0.0
Co75 Co 0.78007 0.68354 0.88591 0.0
O76 O 0.79547 0.69284 0.86385 0.0
C77 C 0.77819 0.69019 0.96694 0.0
C78 C 0.77697 0.71913 0.92678 0.0
C79 C 0.80194 0.70304 0.87482 0.0
O80 O 0.78153 0.7005 0.95656 0.0
O81 O 0.77642 0.68229 0.94278 0.0
O82 O 0.78196 0.71063 0.84752 0.0
O83 O 0.77474 0.69394 0.87505 0.0
Co84 Co 0.92835 0.70623 0.89843 0.0
O85 O 0.94348 0.70883 0.90459 0.0
O86 O 0.93809 0.72124 0.91986 0.0
C87 C 0.92544 0.69865 0.83804 0.0
O88 O 0.91355 0.70661 0.89476 0.0
Co89 Co 0.90811 0.68157 0.88732 0.0
O90 O 0.90011 0.68973 0.87117 0.0
C91 C 0.92018 0.68888 0.96242 0.0
C92 C 0.94613 0.71871 0.91861 0.0
C93 C 0.90364 0.70006 0.88022 0.0
O94 O 0.92454 0.69936 0.95246 0.0
O95 O 0.91441 0.6806 0.93913 0.0
O96 O 0.93086 0.70962 0.84215 0.0
O97 O 0.92296 0.69295 0.86997 0.0
Co98 Co 0.29824 0.22155 0.90167 0.0
O99 O 0.29707 0.23468 0.91458 0.0
O100 O 0.28353 0.21693 0.9244 0.0
C101 C 0.30585 0.22774 0.84201 0.0
O102 O 0.29612 0.20579 0.89116 0.0
Co103 Co 0.32144 0.22317 0.88347 0.0
O104 O 0.31181 0.2077 0.86239 0.0
C105 C 0.31537 0.22551 0.96471 0.0
C106 C 0.28695 0.22769 0.92727 0.0
C107 C 0.30151 0.20164 0.87294 0.0
O108 O 0.30509 0.22237 0.95471 0.0
O109 O 0.32313 0.22701 0.94033 0.0
O110 O 0.29491 0.22276 0.84653 0.0
O111 O 0.31163 0.22931 0.87339 0.0
Co112 Co 0.7845 0.07963 0.9012 0.0
O113 O 0.77146 0.06507 0.91186 0.0
O114 O 0.7892 0.06947 0.92308 0.0
C115 C 0.77881 0.08167 0.84133 0.0
O116 O 0.80018 0.09362 0.8927 0.0
Co117 Co 0.78224 0.10102 0.88586 0.0
O118 O 0.79765 0.10707 0.86401 0.0
C119 C 0.77927 0.09151 0.96564 0.0
C120 C 0.77846 0.06195 0.92455 0.0
C121 C 0.80398 0.1031 0.87427 0.0
O122 O 0.78307 0.08495 0.95491 0.0
O123 O 0.77763 0.09782 0.9419 0.0
O124 O 0.78385 0.07574 0.84553 0.0
O125 O 0.77678 0.08534 0.87312 0.0
Co126 Co 0.70799 0.92937 0.08257 0.0
O127 O 0.71008 0.9443 0.07606 0.0
O128 O 0.72281 0.93944 0.06013 0.0
C129 C 0.70076 0.92679 0.14342 0.0
O130 O 0.70898 0.91486 0.08651 0.0
Co131 Co 0.68388 0.90853 0.0971 0.0
O132 O 0.69258 0.90096 0.11137 0.0
C133 C 0.69012 0.91988 0.02019 0.0
C134 C 0.72002 0.94728 0.06197 0.0
C135 C 0.70287 0.90485 0.10105 0.0
O136 O 0.70073 0.92504 0.02921 0.0
O137 O 0.6822 0.91393 0.0445 0.0
O138 O 0.7117 0.93231 0.13856 0.0
O139 O 0.69486 0.92379 0.11193 0.0
Co140 Co 0.07759 0.78157 0.0837 0.0
O141 O 0.0627 0.76865 0.07749 0.0
O142 O 0.06748 0.78621 0.06104 0.0
C143 C 0.0804 0.77725 0.14475 0.0
O144 O 0.09199 0.79712 0.08737 0.0
Co145 Co 0.09861 0.77858 0.09821 0.0
O146 O 0.10561 0.79463 0.11485 0.0
C147 C 0.08717 0.77318 0.0215 0.0
C148 C 0.05968 0.77557 0.06316 0.0
C149 C 0.10174 0.80098 0.10386 0.0
O150 O 0.0819 0.77854 0.03042 0.0
O151 O 0.09329 0.77143 0.04575 0.0
O152 O 0.07467 0.78246 0.13959 0.0
O153 O 0.08335 0.77423 0.11342 0.0
Co154 Co 0.22516 0.29842 0.08205 0.0
O155 O 0.23773 0.29573 0.08436 0.0
O156 O 0.22071 0.2835 0.06153 0.0
C157 C 0.22727 0.30574 0.14255 0.0
O158 O 0.21002 0.298 0.07645 0.0
Co159 Co 0.22925 0.32305 0.08831 0.0
O160 O 0.21249 0.31547 0.08634 0.0
C161 C 0.23684 0.31592 0.01927 0.0
C162 C 0.23106 0.28591 0.06875 0.0
C163 C 0.20617 0.3049 0.07965 0.0
O164 O 0.23034 0.30543 0.02862 0.0
O165 O 0.23859 0.32415 0.04172 0.0
O166 O 0.222 0.29479 0.13784 0.0
O167 O 0.23183 0.31163 0.11162 0.0
Co168 Co 0.74451 0.63129 0.42032 0.0
O169 O 0.72911 0.62804 0.41722 0.0
O170 O 0.73496 0.6163 0.39808 0.0
C171 C 0.74784 0.63842 0.48144 0.0
O172 O 0.75982 0.63184 0.42042 0.0
Co173 Co 0.76369 0.65652 0.43079 0.0
O174 O 0.77324 0.64945 0.43816 0.0
C175 C 0.75134 0.64886 0.3567 0.0
C176 C 0.72666 0.61839 0.40173 0.0
C177 C 0.77013 0.63916 0.4298 0.0
O178 O 0.74747 0.63844 0.36676 0.0
O179 O 0.75683 0.6572 0.37997 0.0
O180 O 0.74276 0.62749 0.47638 0.0
O181 O 0.74961 0.64428 0.45018 0.0
Co182 Co 0.37556 0.11723 0.41634 0.0
O183 O 0.37654 0.10385 0.40625 0.0
O184 O 0.39022 0.12138 0.39405 0.0
C185 C 0.36799 0.11191 0.47653 0.0
O186 O 0.37794 0.13319 0.42411 0.0
Co187 Co 0.35254 0.11619 0.43293 0.0
O188 O 0.36242 0.13176 0.45275 0.0
C189 C 0.35845 0.11283 0.35262 0.0
C190 C 0.38671 0.11057 0.39338 0.0
C191 C 0.37271 0.1376 0.4418 0.0
O192 O 0.36869 0.11586 0.36288 0.0
O193 O 0.35078 0.11175 0.37666 0.0
O194 O 0.37891 0.11664 0.47193 0.0
O195 O 0.3622 0.11002 0.445 0.0
Co196 Co 0.88825 0.25838 0.41856 0.0
O197 O 0.90152 0.27293 0.40999 0.0
O198 O 0.88402 0.26887 0.39633 0.0
C199 C 0.89325 0.25594 0.47909 0.0
O200 O 0.8724 0.24445 0.42477 0.0
Co201 Co 0.89002 0.23671 0.43424 0.0
O202 O 0.87426 0.2305 0.4527 0.0
C203 C 0.89337 0.24627 0.35441 0.0
C204 C 0.89478 0.27633 0.39683 0.0
C205 C 0.86819 0.23469 0.44162 0.0
O206 O 0.89014 0.25331 0.36499 0.0
O207 O 0.89454 0.23965 0.37811 0.0
O208 O 0.88835 0.26197 0.47429 0.0
O209 O 0.89553 0.25235 0.44759 0.0
Co210 Co 0.96511 0.40851 0.23574 0.0
O211 O 0.96315 0.39389 0.24842 0.0
O212 O 0.95034 0.39902 0.25956 0.0
C213 C 0.97219 0.40927 0.17558 0.0
O214 O 0.96403 0.4228 0.22556 0.0
Co215 Co 0.98901 0.42897 0.21584 0.0
O216 O 0.98003 0.43565 0.19541 0.0
C217 C 0.983 0.42081 0.2974 0.0
C218 C 0.95323 0.39125 0.26184 0.0
C219 C 0.96991 0.43218 0.20676 0.0
O220 O 0.97247 0.41441 0.28825 0.0
O221 O 0.99079 0.42642 0.27226 0.0
O222 O 0.96126 0.40396 0.18072 0.0
O223 O 0.97819 0.41325 0.20659 0.0
Co224 Co 0.59521 0.5556 0.23413 0.0
O225 O 0.61009 0.56863 0.24008 0.0
O226 O 0.60538 0.55116 0.25751 0.0
C227 C 0.59225 0.55943 0.17258 0.0
O228 O 0.5809 0.53995 0.23106 0.0
Co229 Co 0.5741 0.55839 0.21976 0.0
O230 O 0.56669 0.54205 0.20681 0.0
C231 C 0.58571 0.56427 0.29587 0.0
C232 C 0.61315 0.5618 0.25507 0.0
C233 C 0.57083 0.53585 0.21691 0.0
O234 O 0.59088 0.5588 0.28717 0.0
O235 O 0.5796 0.56598 0.27149 0.0
O236 O 0.5982 0.5545 0.17851 0.0
O237 O 0.58927 0.56265 0.20344 0.0
Co238 Co 0.44668 0.03858 0.23326 0.0
O239 O 0.43437 0.04159 0.23729 0.0
O240 O 0.4521 0.0537 0.25408 0.0
C241 C 0.44231 0.0309 0.17301 0.0
O242 O 0.46167 0.0385 0.23185 0.0
Co243 Co 0.44168 0.01367 0.22375 0.0
O244 O 0.45811 0.02127 0.21182 0.0
C245 C 0.43677 0.02139 0.29768 0.0
C246 C 0.44163 0.05143 0.25145 0.0
C247 C 0.46499 0.03162 0.22029 0.0
O248 O 0.44307 0.03182 0.28743 0.0
O249 O 0.43422 0.01303 0.27475 0.0
O250 O 0.44808 0.04188 0.17684 0.0
O251 O 0.43875 0.02529 0.20498 0.0
Co252 Co 0.59373 0.03975 0.23727 0.0
O253 O 0.60935 0.04353 0.23969 0.0
O254 O 0.60289 0.05474 0.25949 0.0
C255 C 0.59054 0.03258 0.17628 0.0
O256 O 0.57833 0.03904 0.23737 0.0
Co257 Co 0.57427 0.01475 0.22556 0.0
O258 O 0.56528 0.02212 0.21311 0.0
C259 C 0.5864 0.02204 0.30085 0.0
C260 C 0.61147 0.05312 0.2549 0.0
C261 C 0.56835 0.03223 0.22378 0.0
O262 O 0.59105 0.03255 0.29074 0.0
O263 O 0.5803 0.01383 0.27772 0.0
O264 O 0.59532 0.04351 0.1812 0.0
O265 O 0.58875 0.02674 0.20759 0.0
Co266 Co 0.9649 0.55479 0.2337 0.0
O267 O 0.96266 0.56741 0.24424 0.0
O268 O 0.94994 0.54947 0.2558 0.0
C269 C 0.97246 0.56062 0.17364 0.0
O270 O 0.96407 0.53946 0.22556 0.0
Co271 Co 0.98919 0.55856 0.21875 0.0
O272 O 0.98064 0.54271 0.19973 0.0
C273 C 0.98236 0.56172 0.29749 0.0
C274 C 0.95268 0.5601 0.25721 0.0
C275 C 0.97034 0.53602 0.20919 0.0
O276 O 0.97183 0.5566 0.28732 0.0
O277 O 0.99047 0.56421 0.27346 0.0
O278 O 0.9615 0.55517 0.17791 0.0
O279 O 0.9782 0.56297 0.20545 0.0
Co280 Co 0.44963 0.41104 0.23545 0.0
O281 O 0.43648 0.39656 0.24595 0.0
O282 O 0.45414 0.40089 0.25849 0.0
C283 C 0.44409 0.41287 0.17515 0.0
O284 O 0.46538 0.42492 0.22764 0.0
Co285 Co 0.44771 0.43252 0.218 0.0
O286 O 0.46357 0.43893 0.20007 0.0
C287 C 0.44402 0.42303 0.29805 0.0
C288 C 0.44339 0.39342 0.25954 0.0
C289 C 0.46961 0.43468 0.21092 0.0
O290 O 0.44799 0.41653 0.28848 0.0
O291 O 0.44247 0.42921 0.27347 0.0
O292 O 0.4492 0.40703 0.17998 0.0
O293 O 0.44206 0.41673 0.20648 0.0
Co294 Co 0.37475 0.26066 0.41915 0.0
O295 O 0.37558 0.27495 0.40896 0.0
O296 O 0.38941 0.27129 0.39724 0.0
C297 C 0.36704 0.25834 0.47915 0.0
O298 O 0.3773 0.24719 0.4271 0.0
Co299 Co 0.35186 0.23852 0.43567 0.0
O300 O 0.36185 0.23294 0.45542 0.0
C301 C 0.35783 0.24775 0.35521 0.0
C302 C 0.38582 0.27852 0.39651 0.0
C303 C 0.37216 0.23751 0.44456 0.0
O304 O 0.36802 0.2551 0.36558 0.0
O305 O 0.35017 0.24112 0.37925 0.0
O306 O 0.37796 0.2646 0.47479 0.0
O307 O 0.36133 0.25438 0.44751 0.0
Co308 Co 0.7421 0.11324 0.41714 0.0
O309 O 0.72665 0.10111 0.41244 0.0
O310 O 0.7328 0.11889 0.39475 0.0
C311 C 0.74481 0.10876 0.47813 0.0
O312 O 0.75715 0.12819 0.41927 0.0
Co313 Co 0.76206 0.10856 0.43045 0.0
O314 O 0.7706 0.12494 0.44374 0.0
C315 C 0.75038 0.1037 0.35425 0.0
C316 C 0.72438 0.10856 0.39792 0.0
C317 C 0.76715 0.13169 0.43323 0.0
O318 O 0.74563 0.10953 0.36364 0.0
O319 O 0.75622 0.10146 0.37815 0.0
O320 O 0.73982 0.11471 0.47322 0.0
O321 O 0.74716 0.10523 0.44667 0.0
Co322 Co 0.89118 0.63056 0.41411 0.0
O323 O 0.90322 0.62712 0.41371 0.0
O324 O 0.88581 0.61542 0.39303 0.0
C325 C 0.89446 0.63791 0.47497 0.0
O326 O 0.87651 0.63131 0.41186 0.0
Co327 Co 0.89755 0.65596 0.42203 0.0
O328 O 0.88093 0.64909 0.42822 0.0
C329 C 0.90271 0.64779 0.35008 0.0
C330 C 0.89611 0.61739 0.39857 0.0
C331 C 0.87367 0.63881 0.42024 0.0
O332 O 0.89587 0.63746 0.36028 0.0
O333 O 0.90555 0.65628 0.37267 0.0
O334 O 0.88857 0.62697 0.47022 0.0
O335 O 0.89891 0.64365 0.44373 0.0
Co336 Co 0.41219 0.96324 0.74869 0.0
O337 O 0.39729 0.96098 0.73931 0.0
O338 O 0.40265 0.94848 0.72522 0.0
C339 C 0.41397 0.97024 0.8096 0.0
O340 O 0.42674 0.96246 0.75517 0.0
Co341 Co 0.43269 0.98736 0.76589 0.0
O342 O 0.43976 0.97856 0.78435 0.0
C343 C 0.42327 0.98115 0.68598 0.0
C344 C 0.39472 0.95116 0.72496 0.0
C345 C 0.4363 0.96845 0.77276 0.0
O346 O 0.41712 0.97063 0.69571 0.0
O347 O 0.4293 0.98902 0.71033 0.0
O348 O 0.40856 0.95931 0.8042 0.0
O349 O 0.41727 0.97628 0.77842 0.0
Co350 Co 0.04079 0.44933 0.75393 0.0
O351 O 0.04267 0.43649 0.74361 0.0
O352 O 0.05551 0.4543 0.73052 0.0
C353 C 0.03364 0.44393 0.8146 0.0
O354 O 0.04196 0.46482 0.76167 0.0
Co355 Co 0.01679 0.44609 0.77074 0.0
O356 O 0.02575 0.46191 0.78957 0.0
C357 C 0.02285 0.44205 0.69195 0.0
C358 C 0.05257 0.44361 0.7296 0.0
C359 C 0.03599 0.46844 0.77913 0.0
O360 O 0.03346 0.44727 0.70094 0.0
O361 O 0.01498 0.43987 0.71671 0.0
O362 O 0.04458 0.44918 0.80944 0.0
O363 O 0.02769 0.44149 0.7833 0.0
Co364 Co 0.55768 0.59347 0.75163 0.0
O365 O 0.5711 0.608 0.74453 0.0
O366 O 0.55374 0.60412 0.72915 0.0
C367 C 0.56188 0.59046 0.81263 0.0
O368 O 0.54171 0.57966 0.7561 0.0
Co369 Co 0.55916 0.57161 0.76571 0.0
O370 O 0.54329 0.56544 0.78312 0.0
C371 C 0.56404 0.58231 0.68775 0.0
C372 C 0.56452 0.6115 0.73061 0.0
C373 C 0.53737 0.56984 0.77247 0.0
O374 O 0.56 0.5887 0.69807 0.0
O375 O 0.56522 0.57569 0.71143 0.0
O376 O 0.55731 0.59677 0.80739 0.0
O377 O 0.5645 0.58707 0.78133 0.0
Co378 Co 0.63307 0.74385 0.56705 0.0
O379 O 0.63182 0.72941 0.57779 0.0
O380 O 0.61838 0.73363 0.58979 0.0
C381 C 0.64053 0.74583 0.50685 0.0
O382 O 0.63112 0.75768 0.55869 0.0
Co383 Co 0.65648 0.76538 0.55011 0.0
O384 O 0.64682 0.77118 0.5289 0.0
C385 C 0.65046 0.75606 0.6303 0.0
C386 C 0.62174 0.72622 0.59108 0.0
C387 C 0.63657 0.76711 0.53989 0.0
O388 O 0.64005 0.74938 0.62028 0.0
O389 O 0.65824 0.76232 0.60601 0.0
O390 O 0.6296 0.73983 0.51153 0.0
O391 O 0.64635 0.74962 0.53834 0.0
Co392 Co 0.26319 0.89066 0.56546 0.0
O393 O 0.27838 0.90309 0.57066 0.0
O394 O 0.27301 0.88532 0.58599 0.0
C395 C 0.26024 0.89551 0.50539 0.0
O396 O 0.24826 0.87554 0.56236 0.0
Co397 Co 0.24305 0.8953 0.55488 0.0
O398 O 0.23492 0.87914 0.53887 0.0
C399 C 0.25505 0.89969 0.63024 0.0
C400 C 0.28112 0.89584 0.58379 0.0
C401 C 0.23834 0.87226 0.54802 0.0
O402 O 0.25962 0.89379 0.61977 0.0
O403 O 0.24919 0.90216 0.6072 0.0
O404 O 0.26547 0.88976 0.50902 0.0
O405 O 0.25785 0.89869 0.53754 0.0
Co406 Co 0.11435 0.37318 0.57136 0.0
O407 O 0.10174 0.37582 0.57196 0.0
O408 O 0.11894 0.38798 0.59354 0.0
C409 C 0.11158 0.36628 0.51001 0.0
O410 O 0.12957 0.37358 0.57387 0.0
Co411 Co 0.11046 0.34872 0.56022 0.0
O412 O 0.12701 0.35704 0.55009 0.0
C413 C 0.10357 0.35514 0.63308 0.0
C414 C 0.10853 0.38558 0.58772 0.0
C415 C 0.13343 0.36724 0.56121 0.0
O416 O 0.10962 0.36573 0.62435 0.0
O417 O 0.10198 0.34714 0.60968 0.0
O418 O 0.11697 0.3772 0.51559 0.0
O419 O 0.1074 0.36021 0.54082 0.0
Co420 Co 0.26026 0.37233 0.56882 0.0
O421 O 0.27528 0.37447 0.57352 0.0
O422 O 0.2704 0.38708 0.5913 0.0
C423 C 0.25706 0.36521 0.50768 0.0
O424 O 0.24576 0.37334 0.56742 0.0
Co425 Co 0.23921 0.34835 0.55539 0.0
O426 O 0.23165 0.35714 0.54222 0.0
C427 C 0.25079 0.3545 0.63204 0.0
C428 C 0.27824 0.38431 0.58862 0.0
C429 C 0.23566 0.36736 0.55347 0.0
O430 O 0.25647 0.36503 0.62214 0.0
O431 O 0.24427 0.3466 0.6085 0.0
O432 O 0.26268 0.37615 0.51284 0.0
O433 O 0.25437 0.35922 0.53899 0.0
Co434 Co 0.63208 0.88863 0.56628 0.0
O435 O 0.63061 0.90166 0.57786 0.0
O436 O 0.61728 0.88385 0.58851 0.0
C437 C 0.63974 0.89453 0.50652 0.0
O438 O 0.63033 0.87297 0.55708 0.0
Co439 Co 0.65562 0.89079 0.54982 0.0
O440 O 0.64619 0.87537 0.52801 0.0
C441 C 0.6493 0.89372 0.62999 0.0
C442 C 0.62052 0.89459 0.59061 0.0
C443 C 0.63591 0.86911 0.53851 0.0
O444 O 0.6389 0.88987 0.61969 0.0
O445 O 0.65719 0.89544 0.60588 0.0
O446 O 0.62879 0.88948 0.51079 0.0
O447 O 0.64547 0.89641 0.53819 0.0
Co448 Co 0.116 0.74407 0.56684 0.0
O449 O 0.10326 0.72921 0.57537 0.0
O450 O 0.12101 0.73417 0.5891 0.0
C451 C 0.11053 0.74599 0.50648 0.0
O452 O 0.13142 0.75857 0.56053 0.0
Co453 Co 0.11263 0.76479 0.55072 0.0
O454 O 0.12845 0.77173 0.53184 0.0
C455 C 0.1093 0.75499 0.63026 0.0
C456 C 0.11038 0.7263 0.58854 0.0
C457 C 0.13504 0.76816 0.54304 0.0
O458 O 0.11368 0.74887 0.6203 0.0
O459 O 0.10745 0.76105 0.60606 0.0
O460 O 0.11613 0.74063 0.511 0.0
O461 O 0.10803 0.74933 0.53806 0.0
Co462 Co 0.04102 0.59518 0.75254 0.0
O463 O 0.04303 0.60968 0.73756 0.0
O464 O 0.05572 0.60429 0.72809 0.0
C465 C 0.03413 0.59513 0.81256 0.0
O466 O 0.04214 0.58105 0.76492 0.0
Co467 Co 0.01731 0.57491 0.77527 0.0
O468 O 0.02641 0.5685 0.79694 0.0
C469 C 0.02298 0.58176 0.69226 0.0
C470 C 0.05293 0.6121 0.72449 0.0
C471 C 0.03646 0.57189 0.78497 0.0
O472 O 0.03348 0.58862 0.70066 0.0
O473 O 0.01535 0.57636 0.71811 0.0
O474 O 0.04504 0.60036 0.80696 0.0
O475 O 0.02801 0.59078 0.78198 0.0
Co476 Co 0.41037 0.44769 0.7519 0.0
O477 O 0.39555 0.43464 0.74593 0.0
O478 O 0.40004 0.45214 0.72981 0.0
C479 C 0.4134 0.44338 0.8127 0.0
O480 O 0.42469 0.46331 0.75534 0.0
Co481 Co 0.43152 0.44482 0.76514 0.0
O482 O 0.43855 0.46091 0.78131 0.0
C483 C 0.41987 0.43949 0.68886 0.0
C484 C 0.39236 0.44145 0.73183 0.0
C485 C 0.43457 0.46723 0.77089 0.0
O486 O 0.41461 0.4448 0.69832 0.0
O487 O 0.42605 0.43769 0.7127 0.0
O488 O 0.40756 0.44848 0.80796 0.0
O489 O 0.41632 0.44043 0.78113 0.0
Co490 Co 0.5605 0.9663 0.75058 0.0
O491 O 0.57289 0.96336 0.74855 0.0
O492 O 0.5555 0.95148 0.72785 0.0
C493 C 0.56373 0.9731 0.81204 0.0
O494 O 0.54544 0.96625 0.74978 0.0
Co495 Co 0.56507 0.99097 0.76308 0.0
O496 O 0.54867 0.98283 0.77547 0.0
C497 C 0.57133 0.98443 0.68918 0.0
C498 C 0.56588 0.95367 0.73285 0.0
C499 C 0.54194 0.9727 0.76428 0.0
O500 O 0.56509 0.97383 0.69766 0.0
O501 O 0.57321 0.99243 0.71299 0.0
O502 O 0.55812 0.96219 0.80631 0.0
O503 O 0.56785 0.97919 0.78123 0.0
C504 C 0.12063 0.30277 0.12487 0.0
C505 C 0.11162 0.2988 0.09815 0.0
C506 C 0.12865 0.29927 0.12223 0.0
C507 C 0.14268 0.28752 0.11758 0.0
H508 H 0.15715 0.29442 0.01595 0.0
C509 C 0.18583 0.28976 0.08925 0.0
C510 C 0.19387 0.30056 0.07539 0.0
C511 C 0.17425 0.28633 0.08878 0.0
C512 C 0.15309 0.29227 0.04431 0.0
H513 H 0.10365 0.28767 0.04872 0.0
H514 H 0.11793 0.28177 0.04342 0.0
H515 H 0.13898 0.29371 0.02415 0.0
H516 H 0.19613 0.31592 0.04816 0.0
H517 H 0.176 0.30983 0.04641 0.0
H518 H 0.1571 0.28663 0.13809 0.0
C519 C 0.11868 0.28751 0.06663 0.0
C520 C 0.14267 0.2918 0.04897 0.0
C521 C 0.1105 0.29085 0.06975 0.0
C522 C 0.19012 0.30759 0.05928 0.0
C523 C 0.17859 0.30407 0.058 0.0
C524 C 0.15304 0.28784 0.11279 0.0
C525 C 0.12795 0.29187 0.09241 0.0
C526 C 0.13758 0.28986 0.08598 0.0
C527 C 0.17055 0.29351 0.07344 0.0
C528 C 0.15855 0.29066 0.07644 0.0
H529 H 0.12166 0.30884 0.14723 0.0
H530 H 0.13576 0.30287 0.14227 0.0
H531 H 0.13891 0.28594 0.14637 0.0
H532 H 0.18851 0.2842 0.10193 0.0
H533 H 0.1682 0.27815 0.10092 0.0
C534 C 0.70338 0.81944 0.13168 0.0
C535 C 0.70811 0.81537 0.10408 0.0
C536 C 0.70674 0.83093 0.13328 0.0
C537 C 0.71708 0.85578 0.0711 0.0
H538 H 0.71847 0.87054 0.16943 0.0
C539 C 0.7161 0.89797 0.0794 0.0
C540 C 0.7076 0.89717 0.10472 0.0
C541 C 0.71947 0.88976 0.08046 0.0
C542 C 0.71817 0.86657 0.1417 0.0
H543 H 0.72037 0.82024 0.05724 0.0
H544 H 0.72615 0.84047 0.05961 0.0
H545 H 0.7186 0.85268 0.16929 0.0
H546 H 0.69646 0.88753 0.15238 0.0
H547 H 0.70236 0.87341 0.1545 0.0
H548 H 0.71611 0.86944 0.04367 0.0
C549 C 0.71986 0.83469 0.0801 0.0
C550 C 0.71824 0.85635 0.14162 0.0
C551 C 0.7166 0.82314 0.07889 0.0
C552 C 0.70297 0.88835 0.13229 0.0
C553 C 0.70643 0.8803 0.13373 0.0
C554 C 0.717 0.86604 0.07119 0.0
C555 C 0.71485 0.83867 0.10706 0.0
C556 C 0.71724 0.8506 0.10645 0.0
C557 C 0.71456 0.88075 0.10739 0.0
C558 C 0.71708 0.8713 0.10661 0.0
H559 H 0.69688 0.81369 0.15167 0.0
H560 H 0.7026 0.83366 0.15406 0.0
H561 H 0.71624 0.85154 0.04352 0.0
H562 H 0.71981 0.90466 0.05777 0.0
H563 H 0.72578 0.89036 0.05989 0.0
C564 C 0.11062 0.82108 0.07976 0.0
C565 C 0.10919 0.81331 0.10928 0.0
C566 C 0.11934 0.83243 0.08251 0.0
C567 C 0.14729 0.84822 0.12919 0.0
H568 H 0.14764 0.87529 0.09196 0.0
C569 C 0.18726 0.89047 0.14723 0.0
C570 C 0.19136 0.89708 0.11334 0.0
C571 C 0.176 0.8818 0.14954 0.0
C572 C 0.14764 0.86778 0.10238 0.0
H573 H 0.11489 0.81144 0.16637 0.0
H574 H 0.1297 0.83117 0.17195 0.0
H575 H 0.12985 0.85697 0.09083 0.0
H576 H 0.18674 0.90045 0.05648 0.0
H577 H 0.16698 0.88499 0.06006 0.0
H578 H 0.16495 0.85874 0.14012 0.0
C579 C 0.12447 0.82852 0.14594 0.0
C580 C 0.13748 0.85731 0.10169 0.0
C581 C 0.11595 0.81723 0.14289 0.0
C582 C 0.18376 0.89547 0.08297 0.0
C583 C 0.17246 0.88663 0.08505 0.0
C584 C 0.15733 0.85858 0.12996 0.0
C585 C 0.12664 0.83614 0.11505 0.0
C586 C 0.13719 0.84742 0.11548 0.0
C587 C 0.16863 0.87938 0.11768 0.0
C588 C 0.15765 0.86852 0.11694 0.0
H589 H 0.1055 0.81824 0.05353 0.0
H590 H 0.12078 0.83808 0.05822 0.0
H591 H 0.14752 0.84075 0.13877 0.0
H592 H 0.19292 0.89165 0.17129 0.0
H593 H 0.17323 0.87657 0.17555 0.0
C594 C 0.28815 0.10722 0.89119 0.0
C595 C 0.29667 0.10812 0.86578 0.0
C596 C 0.28431 0.11504 0.88898 0.0
C597 C 0.28486 0.13776 0.82656 0.0
H598 H 0.28725 0.15299 0.92465 0.0
C599 C 0.30015 0.18503 0.83722 0.0
C600 C 0.29606 0.18924 0.86666 0.0
C601 C 0.29635 0.17346 0.83446 0.0
C602 C 0.28626 0.1487 0.89709 0.0
H603 H 0.30723 0.11736 0.81644 0.0
H604 H 0.30052 0.13084 0.81242 0.0
H605 H 0.28741 0.13516 0.92449 0.0
H606 H 0.28431 0.1845 0.91508 0.0
H607 H 0.27771 0.16416 0.91049 0.0
H608 H 0.28429 0.15158 0.79901 0.0
C609 C 0.2968 0.12418 0.83412 0.0
C610 C 0.28635 0.13846 0.897 0.0
C611 C 0.30072 0.1165 0.83664 0.0
C612 C 0.28761 0.18151 0.89206 0.0
C613 C 0.28389 0.16988 0.88959 0.0
C614 C 0.28477 0.14798 0.82664 0.0
C615 C 0.28878 0.12376 0.86091 0.0
C616 C 0.28612 0.13312 0.8616 0.0
C617 C 0.28842 0.16577 0.86127 0.0
C618 C 0.28594 0.15381 0.86178 0.0
H619 H 0.28487 0.10086 0.91399 0.0
H620 H 0.27807 0.11446 0.90987 0.0
H621 H 0.28445 0.13373 0.79886 0.0
H622 H 0.3066 0.19075 0.81702 0.0
H623 H 0.30011 0.17062 0.81256 0.0
C624 C 0.82432 0.11183 0.89546 0.0
C625 C 0.81626 0.11034 0.86698 0.0
C626 C 0.8356 0.12061 0.89171 0.0
C627 C 0.85061 0.14869 0.84597 0.0
H628 H 0.8782 0.14947 0.87926 0.0
C629 C 0.89248 0.18957 0.82982 0.0
C630 C 0.89955 0.19322 0.86275 0.0
C631 C 0.88374 0.17835 0.82672 0.0
C632 C 0.87055 0.14937 0.86998 0.0
H633 H 0.81384 0.11598 0.81052 0.0
H634 H 0.83347 0.13093 0.80329 0.0
H635 H 0.86012 0.13146 0.88039 0.0
H636 H 0.90356 0.18782 0.91701 0.0
H637 H 0.888 0.16817 0.91217 0.0
H638 H 0.86073 0.16648 0.8365 0.0
C639 C 0.83109 0.12567 0.8292 0.0
C640 C 0.86021 0.13907 0.87063 0.0
C641 C 0.81985 0.11707 0.8332 0.0
C642 C 0.89823 0.18522 0.89126 0.0
C643 C 0.88932 0.17396 0.88844 0.0
C644 C 0.86083 0.1589 0.84537 0.0
C645 C 0.83897 0.12793 0.85924 0.0
C646 C 0.85013 0.13862 0.85831 0.0
C647 C 0.88169 0.17054 0.85687 0.0
C648 C 0.87097 0.1594 0.85706 0.0
H649 H 0.82174 0.10676 0.92184 0.0
H650 H 0.84147 0.12212 0.91535 0.0
H651 H 0.84298 0.14877 0.8375 0.0
H652 H 0.89342 0.19552 0.80709 0.0
H653 H 0.87824 0.17592 0.80141 0.0
C654 C 0.81791 0.70421 0.8361 0.0
C655 C 0.81423 0.70777 0.86864 0.0
C656 C 0.82901 0.70632 0.83397 0.0
C657 C 0.85781 0.72118 0.87686 0.0
H658 H 0.85653 0.69274 0.85264 0.0
C659 C 0.89496 0.71176 0.90131 0.0
C660 C 0.89569 0.70434 0.87446 0.0
C661 C 0.88613 0.71423 0.8985 0.0
C662 C 0.85713 0.70083 0.85879 0.0
H663 H 0.81953 0.71715 0.92295 0.0
H664 H 0.83905 0.72069 0.91955 0.0
H665 H 0.83936 0.69384 0.85055 0.0
H666 H 0.8885 0.69459 0.82168 0.0
H667 H 0.87349 0.6992 0.81588 0.0
H668 H 0.87572 0.72809 0.88537 0.0
C669 C 0.83332 0.71635 0.89556 0.0
C670 C 0.84725 0.70145 0.85764 0.0
C671 C 0.82216 0.71433 0.8975 0.0
C672 C 0.888 0.70014 0.84325 0.0
C673 C 0.87936 0.70275 0.84007 0.0
C674 C 0.86781 0.72057 0.87782 0.0
C675 C 0.83667 0.71189 0.8646 0.0
C676 C 0.84745 0.71163 0.86619 0.0
C677 C 0.878 0.70942 0.86853 0.0
C678 C 0.86758 0.71039 0.86831 0.0
H679 H 0.81202 0.69928 0.81313 0.0
H680 H 0.83143 0.70303 0.80924 0.0
H681 H 0.85819 0.72912 0.88382 0.0
H682 H 0.90081 0.71512 0.92564 0.0
H683 H 0.88534 0.71941 0.92088 0.0
C684 C 0.85267 0.6246 0.41248 0.0
C685 C 0.8615 0.63565 0.42114 0.0
C686 C 0.84127 0.62194 0.41453 0.0
C687 C 0.82355 0.63136 0.46367 0.0
H688 H 0.80318 0.62059 0.37484 0.0
C689 C 0.79003 0.64379 0.44303 0.0
C690 C 0.77902 0.63584 0.43058 0.0
C691 C 0.79861 0.64108 0.44364 0.0
C692 C 0.80867 0.62336 0.40018 0.0
H693 H 0.86513 0.65255 0.43793 0.0
H694 H 0.84557 0.64789 0.44169 0.0
H695 H 0.82119 0.62051 0.37231 0.0
H696 H 0.76851 0.61873 0.40865 0.0
H697 H 0.78374 0.61399 0.40964 0.0
H698 H 0.81142 0.63468 0.49106 0.0
C699 C 0.84739 0.64126 0.43369 0.0
C700 C 0.81896 0.62331 0.39872 0.0
C701 C 0.85865 0.64393 0.43135 0.0
C702 C 0.77687 0.62505 0.41855 0.0
C703 C 0.78558 0.62234 0.41896 0.0
C704 C 0.81333 0.63138 0.46518 0.0
C705 C 0.83857 0.63025 0.42577 0.0
C706 C 0.82669 0.62777 0.42987 0.0
C707 C 0.79653 0.63033 0.43186 0.0
C708 C 0.80601 0.62787 0.43284 0.0
H709 H 0.85454 0.61803 0.40439 0.0
H710 H 0.8346 0.61339 0.40816 0.0
H711 H 0.82928 0.63468 0.48833 0.0
H712 H 0.79211 0.65222 0.45231 0.0
H713 H 0.807 0.64753 0.45291 0.0
C714 C 0.38667 0.15753 0.42095 0.0
C715 C 0.37838 0.15003 0.44728 0.0
C716 C 0.39062 0.16921 0.423 0.0
C717 C 0.39086 0.19163 0.48612 0.0
H718 H 0.38699 0.20396 0.38907 0.0
C719 C 0.37429 0.22256 0.47906 0.0
C720 C 0.37794 0.23084 0.44965 0.0
C721 C 0.37844 0.21506 0.48091 0.0
C722 C 0.38841 0.20081 0.41628 0.0
H723 H 0.36838 0.14895 0.49801 0.0
H724 H 0.37528 0.16917 0.50179 0.0
H725 H 0.38709 0.1861 0.38851 0.0
H726 H 0.38925 0.23812 0.4002 0.0
H727 H 0.39642 0.2248 0.40308 0.0
H728 H 0.39154 0.20601 0.51414 0.0
C729 C 0.37874 0.16612 0.47949 0.0
C730 C 0.38847 0.19056 0.41596 0.0
C731 C 0.3747 0.1545 0.47712 0.0
C732 C 0.38629 0.23183 0.42324 0.0
C733 C 0.39035 0.22418 0.42475 0.0
C734 C 0.3908 0.20186 0.48644 0.0
C735 C 0.38651 0.1736 0.45185 0.0
C736 C 0.38919 0.18561 0.4511 0.0
C737 C 0.38627 0.21556 0.45314 0.0
C738 C 0.38907 0.20631 0.45174 0.0
H739 H 0.38966 0.15433 0.39761 0.0
H740 H 0.39665 0.17478 0.40142 0.0
H741 H 0.39165 0.18814 0.51358 0.0
H742 H 0.36792 0.22164 0.5 0.0
H743 H 0.37502 0.20845 0.50288 0.0
C744 C 0.85142 0.21896 0.47475 0.0
C745 C 0.85575 0.22738 0.44576 0.0
C746 C 0.83996 0.21074 0.47539 0.0
C747 C 0.81616 0.19557 0.40849 0.0
H748 H 0.80053 0.18108 0.50449 0.0
C749 C 0.7743 0.1519 0.41227 0.0
C750 C 0.77518 0.14404 0.4366 0.0
C751 C 0.78245 0.16347 0.41409 0.0
C752 C 0.80475 0.18508 0.47741 0.0
H753 H 0.85131 0.23417 0.39587 0.0
H754 H 0.83113 0.21968 0.39688 0.0
H755 H 0.81781 0.19955 0.50707 0.0
H756 H 0.78501 0.14223 0.48297 0.0
H757 H 0.79902 0.16231 0.48654 0.0
H758 H 0.80323 0.18086 0.37903 0.0
C759 C 0.83669 0.21944 0.41902 0.0
C760 C 0.81466 0.19564 0.47886 0.0
C761 C 0.84821 0.22779 0.41863 0.0
C762 C 0.78412 0.14804 0.46364 0.0
C763 C 0.79211 0.15957 0.46593 0.0
C764 C 0.80618 0.18501 0.40703 0.0
C765 C 0.83249 0.21067 0.44691 0.0
C766 C 0.82075 0.2008 0.44457 0.0
C767 C 0.79146 0.1674 0.44089 0.0
C768 C 0.80063 0.17946 0.44162 0.0
H769 H 0.85699 0.21846 0.49623 0.0
H770 H 0.83711 0.20407 0.49703 0.0
H771 H 0.82066 0.19924 0.38153 0.0
H772 H 0.76752 0.14907 0.39108 0.0
H773 H 0.78175 0.16933 0.39447 0.0
C774 C 0.95892 0.51564 0.2307 0.0
C775 C 0.96595 0.52375 0.20305 0.0
C776 C 0.95677 0.50443 0.22831 0.0
C777 C 0.9709 0.48954 0.18888 0.0
H778 H 0.94337 0.46178 0.21594 0.0
C779 C 0.96925 0.44745 0.16893 0.0
C780 C 0.96541 0.43998 0.20085 0.0
C781 C 0.96706 0.4564 0.16675 0.0
C782 C 0.95112 0.46949 0.20848 0.0
H783 H 0.97531 0.52629 0.14933 0.0
H784 H 0.97127 0.50681 0.14438 0.0
H785 H 0.94355 0.47994 0.21647 0.0
H786 H 0.95554 0.43554 0.25414 0.0
H787 H 0.95187 0.45143 0.25071 0.0
H788 H 0.97858 0.47933 0.18139 0.0
C789 C 0.96775 0.50911 0.16874 0.0
C790 C 0.95123 0.47987 0.2088 0.0
C791 C 0.97001 0.52027 0.17141 0.0
C792 C 0.95859 0.44116 0.22916 0.0
C793 C 0.95649 0.45026 0.22719 0.0
C794 C 0.97079 0.47926 0.1885 0.0
C795 C 0.96154 0.50117 0.19804 0.0
C796 C 0.96111 0.49 0.19849 0.0
C797 C 0.96112 0.45824 0.19672 0.0
C798 C 0.96089 0.46907 0.19779 0.0
H799 H 0.9557 0.51812 0.25545 0.0
H800 H 0.95194 0.49852 0.25133 0.0
H801 H 0.97877 0.49719 0.18207 0.0
H802 H 0.97437 0.44664 0.14634 0.0
H803 H 0.97047 0.46219 0.14229 0.0
C804 C 0.56422 0.51575 0.23812 0.0
C805 C 0.56344 0.52343 0.21262 0.0
C806 C 0.55623 0.50412 0.23617 0.0
C807 C 0.53385 0.48222 0.17262 0.0
H808 H 0.51778 0.46899 0.26912 0.0
C809 C 0.48653 0.45041 0.17814 0.0
C810 C 0.48206 0.44182 0.20654 0.0
C811 C 0.49811 0.45823 0.17695 0.0
C812 C 0.52231 0.47241 0.24202 0.0
H813 H 0.55414 0.52489 0.1637 0.0
H814 H 0.54041 0.50479 0.16005 0.0
H815 H 0.53565 0.48696 0.27075 0.0
H816 H 0.48634 0.43438 0.25491 0.0
H817 H 0.50669 0.44823 0.25314 0.0
H818 H 0.52024 0.46799 0.14368 0.0
C819 C 0.5471 0.50765 0.18164 0.0
C820 C 0.53257 0.48272 0.24297 0.0
C821 C 0.55492 0.5192 0.18397 0.0
C822 C 0.48954 0.4409 0.23264 0.0
C823 C 0.50117 0.44886 0.23179 0.0
C824 C 0.52362 0.47194 0.17167 0.0
C825 C 0.54751 0.49998 0.20815 0.0
C826 C 0.53819 0.48797 0.2081 0.0
C827 C 0.50554 0.45774 0.20436 0.0
C828 C 0.5175 0.46716 0.20619 0.0
H829 H 0.57069 0.51878 0.26054 0.0
H830 H 0.55676 0.4984 0.25693 0.0
H831 H 0.5381 0.48595 0.14533 0.0
H832 H 0.48101 0.45131 0.15746 0.0
H833 H 0.50115 0.46503 0.15572 0.0
C834 C 0.56083 0.04522 0.24237 0.0
C835 C 0.55986 0.03599 0.22072 0.0
C836 C 0.55227 0.0481 0.24066 0.0
C837 C 0.52782 0.04392 0.18044 0.0
H838 H 0.51434 0.04578 0.27782 0.0
C839 C 0.48093 0.02955 0.19392 0.0
C840 C 0.47729 0.0356 0.21729 0.0
C841 C 0.49234 0.03261 0.19254 0.0
C842 C 0.51815 0.04553 0.25035 0.0
H843 H 0.54932 0.02284 0.17925 0.0
H844 H 0.53459 0.02785 0.17627 0.0
H845 H 0.53236 0.04584 0.27871 0.0
H846 H 0.48286 0.0498 0.25704 0.0
H847 H 0.50295 0.05508 0.25503 0.0
H848 H 0.51342 0.04307 0.15216 0.0
C849 C 0.54192 0.0329 0.1945 0.0
C850 C 0.52846 0.04557 0.25085 0.0
C851 C 0.55034 0.02996 0.19653 0.0
C852 C 0.4854 0.04498 0.23869 0.0
C853 C 0.49688 0.04797 0.2377 0.0
C854 C 0.51756 0.04387 0.17994 0.0
C855 C 0.54271 0.04193 0.21674 0.0
C856 C 0.53316 0.04429 0.21598 0.0
C857 C 0.50044 0.04177 0.2147 0.0
C858 C 0.51237 0.04422 0.21496 0.0
H859 H 0.56806 0.05003 0.2613 0.0
H860 H 0.55311 0.05512 0.25808 0.0
H861 H 0.53136 0.04316 0.15302 0.0
H862 H 0.47493 0.02231 0.1769 0.0
H863 H 0.49476 0.02754 0.17499 0.0
C864 C 0.44527 0.95738 0.74782 0.0
C865 C 0.44429 0.96414 0.77688 0.0
C866 C 0.45458 0.9556 0.74774 0.0
C867 C 0.48402 0.97137 0.77839 0.0
H868 H 0.48594 0.94439 0.75737 0.0
C869 C 0.5259 0.97286 0.79804 0.0
C870 C 0.52966 0.96852 0.76803 0.0
C871 C 0.51466 0.97028 0.79967 0.0
C872 C 0.4855 0.95199 0.76291 0.0
H873 H 0.4515 0.97324 0.83081 0.0
H874 H 0.46749 0.96997 0.83107 0.0
H875 H 0.46726 0.94314 0.75989 0.0
H876 H 0.5244 0.95747 0.71752 0.0
H877 H 0.50457 0.95313 0.71978 0.0
H878 H 0.50205 0.98031 0.78093 0.0
C879 C 0.46132 0.96632 0.80775 0.0
C880 C 0.47484 0.95127 0.76442 0.0
C881 C 0.45215 0.96817 0.80766 0.0
C882 C 0.52173 0.96096 0.74088 0.0
C883 C 0.5104 0.95847 0.74224 0.0
C884 C 0.49456 0.97209 0.77673 0.0
C885 C 0.46295 0.96051 0.77684 0.0
C886 C 0.47402 0.96094 0.77306 0.0
C887 C 0.50686 0.96343 0.77096 0.0
C888 C 0.49546 0.9624 0.76988 0.0
H889 H 0.43933 0.95418 0.72373 0.0
H890 H 0.45562 0.95106 0.72362 0.0
H891 H 0.48369 0.97904 0.78387 0.0
H892 H 0.53175 0.97849 0.81992 0.0
H893 H 0.51214 0.97396 0.82288 0.0
C894 C 0.03738 0.55684 0.82333 0.0
C895 C 0.04105 0.56419 0.79112 0.0
C896 C 0.03972 0.54799 0.82571 0.0
C897 C 0.05565 0.53499 0.78257 0.0
H898 H 0.02835 0.50725 0.81137 0.0
C899 C 0.04736 0.48878 0.75739 0.0
C900 C 0.04067 0.48072 0.7857 0.0
C901 C 0.04968 0.50004 0.76057 0.0
C902 C 0.03613 0.51492 0.80389 0.0
H903 H 0.05078 0.56857 0.73752 0.0
H904 H 0.05467 0.55285 0.74118 0.0
H905 H 0.02844 0.52504 0.81286 0.0
H906 H 0.03219 0.47827 0.8413 0.0
H907 H 0.03652 0.49782 0.84751 0.0
H908 H 0.0632 0.52459 0.77282 0.0
C909 C 0.05008 0.55403 0.76483 0.0
C910 C 0.03618 0.52517 0.80478 0.0
C911 C 0.04785 0.56303 0.76271 0.0
C912 C 0.0372 0.48428 0.81872 0.0
C913 C 0.03963 0.49547 0.82215 0.0
C914 C 0.0556 0.52464 0.78165 0.0
C915 C 0.04562 0.54613 0.79559 0.0
C916 C 0.04595 0.53536 0.79457 0.0
C917 C 0.04542 0.50336 0.79229 0.0
C918 C 0.04584 0.5145 0.79275 0.0
H919 H 0.03228 0.55764 0.846 0.0
H920 H 0.03645 0.54227 0.85041 0.0
H921 H 0.0633 0.5427 0.77439 0.0
H922 H 0.05012 0.48624 0.7316 0.0
H923 H 0.05418 0.50592 0.7371 0.0
C924 C 0.44901 0.48358 0.80891 0.0
C925 C 0.44208 0.47957 0.77574 0.0
C926 C 0.45768 0.49483 0.81115 0.0
C927 C 0.4709 0.52344 0.76556 0.0
H928 H 0.4983 0.52445 0.80254 0.0
C929 C 0.5175 0.5613 0.74674 0.0
C930 C 0.52499 0.56278 0.77735 0.0
C931 C 0.50615 0.55251 0.74842 0.0
C932 C 0.49071 0.5244 0.79273 0.0
H933 H 0.43822 0.48432 0.71995 0.0
H934 H 0.45372 0.5041 0.72323 0.0
H935 H 0.48069 0.5066 0.80192 0.0
H936 H 0.52634 0.55719 0.83524 0.0
H937 H 0.5066 0.54222 0.83883 0.0
H938 H 0.48125 0.5414 0.75554 0.0
C939 C 0.45232 0.49855 0.7478 0.0
C940 C 0.48057 0.51412 0.79239 0.0
C941 C 0.44346 0.48724 0.74587 0.0
C942 C 0.52076 0.5561 0.81103 0.0
C943 C 0.50947 0.5475 0.81296 0.0
C944 C 0.48116 0.53383 0.76581 0.0
C945 C 0.45981 0.50232 0.77985 0.0
C946 C 0.47049 0.51349 0.77936 0.0
C947 C 0.50219 0.5452 0.7809 0.0
C948 C 0.49115 0.53441 0.77994 0.0
H949 H 0.448 0.47787 0.83262 0.0
H950 H 0.46305 0.49755 0.83679 0.0
H951 H 0.46328 0.52322 0.75516 0.0
H952 H 0.52059 0.56634 0.7204 0.0
H953 H 0.50074 0.55096 0.7233 0.0
C954 C 0.63362 0.85303 0.49772 0.0
C955 C 0.6308 0.85681 0.5317 0.0
C956 C 0.6309 0.84175 0.49413 0.0
C957 C 0.6157 0.81291 0.5387 0.0
H958 H 0.64219 0.8122 0.50119 0.0
C959 C 0.62502 0.77575 0.56235 0.0
C960 C 0.63132 0.77418 0.53306 0.0
C961 C 0.62232 0.78441 0.55881 0.0
C962 C 0.6346 0.81214 0.51103 0.0
H963 H 0.6222 0.85164 0.58744 0.0
H964 H 0.61774 0.83187 0.58179 0.0
H965 H 0.64209 0.82987 0.50083 0.0
H966 H 0.63867 0.77947 0.47551 0.0
H967 H 0.63361 0.79418 0.4686 0.0
H968 H 0.60841 0.79506 0.54989 0.0
C969 C 0.62189 0.8376 0.5576 0.0
C970 C 0.63454 0.82233 0.51081 0.0
C971 C 0.62445 0.84891 0.56089 0.0
C972 C 0.63396 0.78064 0.49878 0.0
C973 C 0.63112 0.78911 0.49496 0.0
C974 C 0.61576 0.80262 0.53895 0.0
C975 C 0.62554 0.83403 0.52486 0.0
C976 C 0.62509 0.82288 0.52439 0.0
C977 C 0.62579 0.7915 0.52572 0.0
C978 C 0.62522 0.80213 0.52486 0.0
H979 H 0.63837 0.85892 0.47454 0.0
H980 H 0.63352 0.8392 0.46799 0.0
H981 H 0.6083 0.81306 0.54946 0.0
H982 H 0.62291 0.77087 0.58912 0.0
H983 H 0.61821 0.78602 0.58301 0.0
C984 C 0.1511 0.78377 0.50708 0.0
C985 C 0.14735 0.77603 0.53819 0.0
C986 C 0.16221 0.79277 0.50597 0.0
C987 C 0.19107 0.80566 0.54758 0.0
H988 H 0.19054 0.83343 0.52757 0.0
C989 C 0.22944 0.85189 0.56988 0.0
C990 C 0.23016 0.86003 0.54297 0.0
C991 C 0.22035 0.84069 0.56809 0.0
C992 C 0.19092 0.82577 0.53265 0.0
H993 H 0.15253 0.7711 0.59101 0.0
H994 H 0.1721 0.78709 0.58939 0.0
H995 H 0.17302 0.81545 0.52606 0.0
H996 H 0.22265 0.86263 0.49105 0.0
H997 H 0.20715 0.84319 0.48718 0.0
H998 H 0.20912 0.81622 0.55432 0.0
C999 C 0.1664 0.7861 0.56575 0.0
C1000 C 0.18084 0.81544 0.53182 0.0
C1001 C 0.15521 0.77696 0.56668 0.0
C1002 C 0.22218 0.85659 0.51266 0.0
C1003 C 0.21327 0.84545 0.51057 0.0
C1004 C 0.20127 0.81611 0.54828 0.0
C1005 C 0.16984 0.79436 0.53621 0.0
C1006 C 0.18077 0.80523 0.5386 0.0
C1007 C 0.21195 0.83747 0.53915 0.0
C1008 C 0.2013 0.82627 0.54014 0.0
H1009 H 0.14528 0.78316 0.48435 0.0
H1010 H 0.1647 0.79882 0.48226 0.0
H1011 H 0.19126 0.79793 0.55316 0.0
H1012 H 0.23549 0.85433 0.59353 0.0
H1013 H 0.21959 0.83473 0.59049 0.0
C1014 C 0.21946 0.36829 0.52368 0.0
C1015 C 0.22801 0.37214 0.55214 0.0
C1016 C 0.21133 0.37165 0.5245 0.0
C1017 C 0.19616 0.37969 0.5926 0.0
H1018 H 0.18385 0.38464 0.49731 0.0
C1019 C 0.15323 0.37942 0.58745 0.0
C1020 C 0.14581 0.37174 0.55947 0.0
C1021 C 0.16477 0.38266 0.58722 0.0
C1022 C 0.18723 0.38335 0.52423 0.0
H1023 H 0.23496 0.38283 0.60321 0.0
H1024 H 0.22049 0.38858 0.60512 0.0
H1025 H 0.20184 0.3848 0.49544 0.0
H1026 H 0.14472 0.36187 0.50834 0.0
H1027 H 0.16473 0.36762 0.50751 0.0
H1028 H 0.18123 0.3777 0.62099 0.0
C1029 C 0.22019 0.383 0.58202 0.0
C1030 C 0.19752 0.38343 0.52316 0.0
C1031 C 0.22849 0.37977 0.58079 0.0
C1032 C 0.15022 0.36774 0.53043 0.0
C1033 C 0.16171 0.37112 0.52976 0.0
C1034 C 0.18582 0.3796 0.59367 0.0
C1035 C 0.21144 0.37885 0.55411 0.0
C1036 C 0.20188 0.38116 0.557 0.0
C1037 C 0.1691 0.37847 0.55844 0.0
C1038 C 0.18105 0.38098 0.55917 0.0
H1039 H 0.2189 0.36245 0.50116 0.0
H1040 H 0.20464 0.36819 0.50284 0.0
H1041 H 0.19926 0.37784 0.61912 0.0
H1042 H 0.15004 0.38259 0.61026 0.0
H1043 H 0.17028 0.38834 0.60968 0.0
C1044 C 0.04144 0.28296 0.05999 0.0
C1045 C 0.04936 0.27926 0.05692 0.0
C1046 C 0.03017 0.2759 0.04903 0.0
C1047 C 0.01156 0.25095 0.98873 0.0
H1048 H 0.98812 0.25278 0.04706 0.0
C1049 C 0.96324 0.22637 0.94848 0.0
C1050 C 0.95875 0.23365 0.94477 0.0
C1051 C 0.97404 0.23034 0.96476 0.0
C1052 C 0.99457 0.25214 0.03058 0.0
H1053 H 0.05165 0.2652 0.03991 0.0
H1054 H 0.03183 0.25273 0.02109 0.0
H1055 H 0.00754 0.26252 0.07124 0.0
H1056 H 0.9619 0.25067 0.95584 0.0
H1057 H 0.9805 0.25747 0.98484 0.0
H1058 H 0.99844 0.24059 0.9479 0.0
C1059 C 0.0344 0.26117 0.03168 0.0
C1060 C 0.00571 0.25777 0.04427 0.0
C1061 C 0.04574 0.26829 0.04262 0.0
C1062 C 0.96514 0.24486 0.95817 0.0
C1063 C 0.97577 0.24874 0.975 0.0
C1064 C 1.00034 0.2452 0.9752 0.0
C1065 C 0.02647 0.2649 0.03489 0.0
C1066 C 0.01442 0.25757 0.02288 0.0
C1067 C 0.98036 0.24156 0.97835 0.0
C1068 C 0.99182 0.24605 -0.00458 0.0
H1069 H 0.04395 0.29139 0.0706 0.0
H1070 H 0.0244 0.27917 0.05105 0.0
H1071 H 0.01805 0.25063 0.97144 0.0
H1072 H 0.9585 0.21769 0.93827 0.0
H1073 H 0.9774 0.22465 0.96705 0.0
C1074 C 0.76114 0.72228 0.9462 0.0
C1075 C 0.77283 0.72668 0.9412 0.0
C1076 C 0.75692 0.72927 0.95787 0.0
C1077 C 0.76433 0.75649 0.00495 0.0
H1078 H 0.73602 0.75042 0.95706 0.0
C1079 C 0.73974 0.78089 0.03897 0.0
C1080 C 0.72829 0.77353 0.04841 0.0
C1081 C 0.74647 0.77657 0.02438 0.0
C1082 C 0.74394 0.75224 0.97062 0.0
H1083 H 0.78933 0.74186 0.94545 0.0
H1084 H 0.78189 0.7542 0.96561 0.0
H1085 H 0.74553 0.74042 0.93407 0.0
H1086 H 0.71495 0.75589 0.05006 0.0
H1087 H 0.72654 0.74846 0.02417 0.0
H1088 H 0.76256 0.76833 0.0417 0.0
C1089 C 0.77601 0.74528 0.96064 0.0
C1090 C 0.74937 0.74647 0.95763 0.0
C1091 C 0.78027 0.73823 0.94902 0.0
C1092 C 0.72373 0.76181 0.04311 0.0
C1093 C 0.73035 0.75754 0.02808 0.0
C1094 C 0.7589 0.76237 0.0178 0.0
C1095 C 0.76425 0.74089 0.96461 0.0
C1096 C 0.75943 0.74823 0.97544 0.0
C1097 C 0.74176 0.76485 0.01835 0.0
C1098 C 0.74847 0.76002 0.00149 0.0
H1099 H 0.75518 0.7134 0.94091 0.0
H1100 H 0.74785 0.72551 0.96167 0.0
H1101 H 0.77206 0.75805 0.01931 0.0
H1102 H 0.7435 0.78996 0.04286 0.0
H1103 H 0.75525 0.78237 0.01707 0.0
C1104 C 0.22765 0.96135 0.03526 0.0
C1105 C 0.23481 0.95706 0.04513 0.0
C1106 C 0.23223 0.97271 0.02371 0.0
C1107 C 0.259 1.00037 0.02981 0.0
H1108 H 0.24692 0.00922 0.94269 0.0
C1109 C 0.28547 0.04208 0.94781 0.0
C1110 C 0.28055 0.04875 0.93899 0.0
C1111 C 0.27891 0.03117 0.96291 0.0
C1112 C 0.25028 0.00688 0.96742 0.0
H1113 H 0.25236 0.96119 0.0494 0.0
H1114 H 0.26027 0.98073 0.02874 0.0
H1115 H 0.23715 0.98942 0.9646 0.0
H1116 H 0.26484 0.04916 0.93876 0.0
H1117 H 0.25326 0.02987 0.96478 0.0
H1118 H 0.2723 0.01768 0.03189 0.0
C1119 C 0.25114 0.97551 0.03082 0.0
C1120 C 0.24469 0.99556 0.98 0.0
C1121 C 0.24659 0.96424 0.04243 0.0
C1122 C 0.26887 0.04423 0.94539 0.0
C1123 C 0.26224 0.03319 0.96008 0.0
C1124 C 0.26459 0.01161 0.01711 0.0
C1125 C 0.24405 0.97995 0.02183 0.0
C1126 C 0.24916 0.99212 0.01074 0.0
C1127 C 0.26724 0.02659 0.96924 0.0
C1128 C 0.26046 0.01494 0.98523 0.0
H1129 H 0.21853 0.95601 0.03706 0.0
H1130 H 0.22653 0.97587 0.01706 0.0
H1131 H 0.26251 0.9981 0.05428 0.0
H1132 H 0.29443 0.0453 0.94323 0.0
H1133 H 0.28297 0.02624 0.96921 0.0
C1134 C 0.96153 0.73779 0.9423 0.0
C1135 C 0.9576 0.72627 0.93444 0.0
C1136 C 0.97238 0.74468 0.95813 0.0
C1137 C 0.99341 0.74298 0.01877 0.0
H1138 H 0.01662 0.76971 0.96574 0.0
C1139 C 0.04022 0.75963 0.04949 0.0
C1140 C 0.04789 0.77135 0.04993 0.0
C1141 C 0.02903 0.75541 0.03763 0.0
C1142 C 0.01019 0.7624 0.98136 0.0
H1143 H 0.96193 0.71296 0.9371 0.0
H1144 H 0.98061 0.72485 0.96535 0.0
H1145 H 0.99709 0.76014 0.94114 0.0
H1146 H 0.04983 0.78786 0.03798 0.0
H1147 H 0.0301 0.78046 0.01762 0.0
H1148 H 0.00631 0.74507 0.05886 0.0
C1149 C 0.97538 0.72858 0.95906 0.0
C1150 C 0.99903 0.75693 0.96722 0.0
C1151 C 0.9647 0.7218 0.94268 0.0
C1152 C 0.04411 0.77878 0.03794 0.0
C1153 C 0.03283 0.77454 0.02616 0.0
C1154 C 0.00447 0.74848 0.03312 0.0
C1155 C 0.97932 0.74006 0.9671 0.0
C1156 C 0.99064 0.74697 0.98514 0.0
C1157 C 0.02513 0.76278 0.02616 0.0
C1158 C 0.0131 0.75803 0.01384 0.0
H1159 H 0.95624 0.74147 0.93618 0.0
H1160 H 0.97526 0.75352 0.9641 0.0
H1161 H 0.98704 0.7354 0.03344 0.0
H1162 H 0.04286 0.75365 0.05817 0.0
H1163 H 0.02346 0.74631 0.03704 0.0
C1164 C 0.28494 0.24324 0.95756 0.0
C1165 C 0.27985 0.23194 0.94484 0.0
C1166 C 0.27842 0.24743 0.97423 0.0
C1167 C 0.25046 0.24439 0.97535 0.0
H1168 H 0.26084 0.26164 0.07145 0.0
C1169 C 0.22808 0.26726 0.04317 0.0
C1170 C 0.23532 0.27814 0.05833 0.0
C1171 C 0.23237 0.2602 0.03229 0.0
C1172 C 0.25786 0.25694 0.04442 0.0
H1173 H 0.26392 0.21617 0.93929 0.0
H1174 H 0.25241 0.22366 0.96772 0.0
H1175 H 0.27049 0.25196 0.04641 0.0
H1176 H 0.25273 0.29014 0.07384 0.0
H1177 H 0.26022 0.27807 0.05417 0.0
H1178 H 0.23816 0.2498 0.97229 0.0
C1179 C 0.26148 0.22919 0.96503 0.0
C1180 C 0.26336 0.25134 0.03024 0.0
C1181 C 0.26806 0.22491 0.94894 0.0
C1182 C 0.24689 0.28178 0.06256 0.0
C1183 C 0.25118 0.27479 0.05151 0.0
C1184 C 0.24502 0.25012 0.9893 0.0
C1185 C 0.26664 0.24048 0.97804 0.0
C1186 C 0.25988 0.24521 -0.00483 0.0
C1187 C 0.244 0.2639 0.03623 0.0
C1188 C 0.24884 0.2567 0.02355 0.0
H1189 H 0.294 0.24886 0.9549 0.0
H1190 H 0.2826 0.2562 0.98364 0.0
H1191 H 0.24765 0.23975 0.94813 0.0
H1192 H 0.21911 0.26422 0.0396 0.0
H1193 H 0.22657 0.25184 0.02096 0.0
C1194 C 0.76272 0.04382 0.9508 0.0
C1195 C 0.77421 0.05043 0.94068 0.0
C1196 C 0.75851 0.03297 0.96628 0.0
C1197 C 0.76237 0.00847 0.96921 0.0
H1198 H 0.74303 1.00058 0.06045 0.0
C1199 C 0.73885 0.9629 0.03698 0.0
C1200 C 0.72763 0.9591 0.04885 0.0
C1201 C 0.74592 0.97423 0.02561 0.0
C1202 C 0.74834 0.0026 0.03479 0.0
H1203 H 0.7903 0.05079 0.93842 0.0
H1204 H 0.78279 0.03155 0.96494 0.0
H1205 H 0.75291 0.02008 0.03717 0.0
H1206 H 0.71497 0.96414 0.05715 0.0
H1207 H 0.72708 0.98361 0.03686 0.0
H1208 H 0.75741 0.99084 0.96594 0.0
C1209 C 0.77712 0.03489 0.96106 0.0
C1210 C 0.75404 0.01379 0.0216 0.0
C1211 C 0.7814 0.04589 0.94608 0.0
C1212 C 0.7236 0.96679 0.04858 0.0
C1213 C 0.73059 0.97802 0.03719 0.0
C1214 C 0.75656 0.99719 0.98224 0.0
C1215 C 0.76563 0.02838 0.97161 0.0
C1216 C 0.76088 0.0168 0.98814 0.0
C1217 C 0.74188 0.98195 0.02597 0.0
C1218 C 0.74922 0.99407 0.01459 0.0
H1219 H 0.75696 0.04706 0.94707 0.0
H1220 H 0.74959 0.02809 0.97374 0.0
H1221 H 0.76758 0.01057 0.94326 0.0
H1222 H 0.7422 0.95716 0.03685 0.0
H1223 H 0.75458 0.97698 0.0172 0.0
C1224 C 0.63243 0.57783 0.27076 0.0
C1225 C 0.62491 0.5661 0.26884 0.0
C1226 C 0.64358 0.58208 0.28326 0.0
C1227 C 0.66252 0.57466 0.33773 0.0
H1228 H 0.68561 0.60262 0.29041 0.0
C1229 C 0.71156 0.59952 0.37497 0.0
C1230 C 0.71509 0.6107 0.38672 0.0
C1231 C 0.70066 0.59264 0.35935 0.0
C1232 C 0.67926 0.59476 0.30368 0.0
H1233 H 0.62319 0.54958 0.27876 0.0
H1234 H 0.64284 0.55702 0.29996 0.0
H1235 H 0.66642 0.59319 0.26424 0.0
H1236 H 0.70992 0.62338 0.39156 0.0
H1237 H 0.6912 0.61155 0.36363 0.0
H1238 H 0.67559 0.57638 0.37721 0.0
C1239 C 0.64004 0.56294 0.29225 0.0
C1240 C 0.66824 0.5894 0.28898 0.0
C1241 C 0.62879 0.55867 0.27996 0.0
C1242 C 0.7075 0.61481 0.38288 0.0
C1243 C 0.69678 0.60807 0.36674 0.0
C1244 C 0.67365 0.57998 0.35217 0.0
C1245 C 0.6476 0.57472 0.29379 0.0
C1246 C 0.65961 0.57949 0.30659 0.0
C1247 C 0.69328 0.59697 0.35454 0.0
C1248 C 0.68202 0.59025 0.33593 0.0
H1249 H 0.6297 0.58379 0.26283 0.0
H1250 H 0.64902 0.59118 0.28505 0.0
H1251 H 0.65611 0.56706 0.35212 0.0
H1252 H 0.71722 0.59612 0.37766 0.0
H1253 H 0.69812 0.58409 0.3501 0.0
C1254 C 0.44556 0.07051 0.27633 0.0
C1255 C 0.43782 0.05922 0.26595 0.0
C1256 C 0.44166 0.07753 0.29144 0.0
C1257 C 0.41804 0.07584 0.34646 0.0
H1258 H 0.42413 0.10414 0.29847 0.0
C1259 C 0.38922 0.09422 0.37535 0.0
C1260 C 0.3939 0.10599 0.37917 0.0
C1261 C 0.39589 0.08967 0.3632 0.0
C1262 C 0.4225 0.09636 0.31267 0.0
H1263 H 0.41997 0.0465 0.26298 0.0
H1264 H 0.41327 0.05862 0.28987 0.0
H1265 H 0.43385 0.09425 0.27447 0.0
H1266 H 0.40925 0.12226 0.37271 0.0
H1267 H 0.42102 0.11426 0.35187 0.0
H1268 H 0.40673 0.07778 0.38453 0.0
C1269 C 0.42231 0.06206 0.28623 0.0
C1270 C 0.42807 0.09071 0.29889 0.0
C1271 C 0.42617 0.05515 0.27064 0.0
C1272 C 0.40541 0.11314 0.37003 0.0
C1273 C 0.41213 0.10856 0.35798 0.0
C1274 C 0.4126 0.0815 0.36044 0.0
C1275 C 0.42999 0.07328 0.29707 0.0
C1276 C 0.4256 0.08023 0.31495 0.0
C1277 C 0.40746 0.09675 0.35485 0.0
C1278 C 0.41446 0.09163 0.34291 0.0
H1279 H 0.45459 0.07388 0.27296 0.0
H1280 H 0.44773 0.08617 0.29961 0.0
H1281 H 0.41613 0.06785 0.35973 0.0
H1282 H 0.38036 0.08846 0.38175 0.0
H1283 H 0.39191 0.08055 0.36013 0.0
C1284 C 0.91111 0.29561 0.38309 0.0
C1285 C 0.89933 0.28822 0.38386 0.0
C1286 C 0.91562 0.30694 0.37232 0.0
C1287 C 0.9094 0.32693 0.31992 0.0
H1288 H 0.93626 0.3491 0.37524 0.0
C1289 C 0.93411 0.37562 0.28455 0.0
C1290 C 0.9458 0.37993 0.27919 0.0
C1291 C 0.92724 0.36468 0.29981 0.0
C1292 C 0.92875 0.34301 0.35956 0.0
H1293 H 0.88303 0.28692 0.3733 0.0
H1294 H 0.89095 0.30688 0.35464 0.0
H1295 H 0.92634 0.32946 0.3971 0.0
H1296 H 0.95946 0.37623 0.28625 0.0
H1297 H 0.9476 0.35739 0.31327 0.0
H1298 H 0.91198 0.34063 0.28213 0.0
C1299 C 0.89668 0.30383 0.36221 0.0
C1300 C 0.92308 0.33174 0.37194 0.0
C1301 C 0.89214 0.29241 0.373 0.0
C1302 C 0.95049 0.37318 0.28992 0.0
C1303 C 0.9437 0.36239 0.30564 0.0
C1304 C 0.91505 0.33828 0.30765 0.0
C1305 C 0.90849 0.31126 0.36218 0.0
C1306 C 0.91355 0.32347 0.35159 0.0
C1307 C 0.93201 0.35799 0.31067 0.0
C1308 C 0.92498 0.34636 0.3267 0.0
H1309 H 0.9169 0.29267 0.39093 0.0
H1310 H 0.92475 0.31231 0.3717 0.0
H1311 H 0.90209 0.32079 0.30353 0.0
H1312 H 0.93026 0.38063 0.27642 0.0
H1313 H 0.91825 0.36149 0.30345 0.0
C1314 C 0.71073 0.11222 0.35996 0.0
C1315 C 0.71275 0.10529 0.38523 0.0
C1316 C 0.69974 0.10868 0.34643 0.0
C1317 C 0.66948 0.08908 0.36735 0.0
H1318 H 0.66526 0.08846 0.25524 0.0
C1319 C 0.62502 0.06984 0.29546 0.0
C1320 C 0.62309 0.06155 0.26731 0.0
C1321 C 0.63601 0.07711 0.30936 0.0
C1322 C 0.66633 0.08868 0.28662 0.0
H1323 H 0.70482 0.08941 0.41719 0.0
H1324 H 0.6857 0.08334 0.39414 0.0
H1325 H 0.68445 0.09771 0.28234 0.0
H1326 H 0.63116 0.05469 0.23047 0.0
H1327 H 0.65029 0.06748 0.2541 0.0
H1328 H 0.65136 0.07977 0.37157 0.0
C1329 C 0.69257 0.09148 0.38465 0.0
C1330 C 0.6773 0.09403 0.30213 0.0
C1331 C 0.70355 0.09493 0.39762 0.0
C1332 C 0.63238 0.06096 0.25228 0.0
C1333 C 0.64335 0.06834 0.26561 0.0
C1334 C 0.65851 0.08387 0.35187 0.0
C1335 C 0.69056 0.09824 0.35855 0.0
C1336 C 0.67899 0.09401 0.34259 0.0
C1337 C 0.64527 0.07637 0.29474 0.0
C1338 C 0.65682 0.08335 0.31129 0.0
H1339 H 0.71766 0.12025 0.3499 0.0
H1340 H 0.69841 0.11406 0.3264 0.0
H1341 H 0.67054 0.08902 0.39867 0.0
H1342 H 0.61801 0.07046 0.30763 0.0
H1343 H 0.63727 0.08324 0.33178 0.0
C1344 C 0.91143 0.61258 0.3917 0.0
C1345 C 0.89994 0.60932 0.38725 0.0
C1346 C 0.91544 0.60539 0.38042 0.0
C1347 C 0.90916 0.58094 0.31718 0.0
H1348 H 0.93412 0.58219 0.37591 0.0
C1349 C 0.93337 0.55646 0.27801 0.0
C1350 C 0.9451 0.5639 0.27388 0.0
C1351 C 0.92639 0.56035 0.29359 0.0
C1352 C 0.92711 0.5817 0.35934 0.0
H1353 H 0.88361 0.59583 0.36753 0.0
H1354 H 0.89063 0.58306 0.3482 0.0
H1355 H 0.92427 0.59163 0.40119 0.0
H1356 H 0.95869 0.58116 0.28323 0.0
H1357 H 0.94661 0.58779 0.31125 0.0
H1358 H 0.91216 0.57096 0.2753 0.0
C1359 C 0.89655 0.5913 0.36013 0.0
C1360 C 0.9215 0.58717 0.37364 0.0
C1361 C 0.89251 0.59859 0.37136 0.0
C1362 C 0.9497 0.57522 0.28591 0.0
C1363 C 0.94279 0.57902 0.30213 0.0
C1364 C 0.91471 0.57531 0.3031 0.0
C1365 C 0.90809 0.59463 0.36462 0.0
C1366 C 0.91273 0.58724 0.3521 0.0
C1367 C 0.93108 0.57165 0.30612 0.0
C1368 C 0.92397 0.57596 0.32349 0.0
H1369 H 0.91744 0.62082 0.40351 0.0
H1370 H 0.92442 0.60842 0.38343 0.0
H1371 H 0.90248 0.58083 0.29973 0.0
H1372 H 0.9296 0.5477 0.26886 0.0
H1373 H 0.91737 0.55451 0.29641 0.0
C1374 C 0.44621 0.3775 0.28347 0.0
C1375 C 0.43901 0.38193 0.27606 0.0
C1376 C 0.44181 0.36652 0.2987 0.0
C1377 C 0.41773 0.34497 0.3552 0.0
H1378 H 0.42322 0.32278 0.3039 0.0
C1379 C 0.38839 0.29753 0.38022 0.0
C1380 C 0.39301 0.29036 0.38302 0.0
C1381 C 0.3951 0.30882 0.36896 0.0
C1382 C 0.42175 0.32891 0.31898 0.0
H1383 H 0.42164 0.3784 0.27918 0.0
H1384 H 0.41407 0.35945 0.30608 0.0
H1385 H 0.4333 0.34255 0.2819 0.0
H1386 H 0.40833 0.28941 0.37568 0.0
H1387 H 0.42017 0.3093 0.3563 0.0
H1388 H 0.40619 0.33148 0.39214 0.0
C1389 C 0.42307 0.3644 0.30013 0.0
C1390 C 0.42751 0.34022 0.30635 0.0
C1391 C 0.42741 0.37524 0.28448 0.0
C1392 C 0.40452 0.29473 0.37375 0.0
C1393 C 0.41128 0.3061 0.36254 0.0
C1394 C 0.41205 0.33373 0.36797 0.0
C1395 C 0.4302 0.3599 0.3074 0.0
C1396 C 0.42532 0.34828 0.32369 0.0
C1397 C 0.40667 0.31332 0.36042 0.0
C1398 C 0.41373 0.32548 0.34934 0.0
H1399 H 0.45519 0.38246 0.2772 0.0
H1400 H 0.44749 0.36326 0.30412 0.0
H1401 H 0.41603 0.35105 0.36959 0.0
H1402 H 0.37954 0.29442 0.38682 0.0
H1403 H 0.39118 0.31403 0.36672 0.0
C1404 C 0.30101 0.91127 0.59445 0.0
C1405 C 0.29295 0.89965 0.59574 0.0
C1406 C 0.31221 0.91516 0.60537 0.0
C1407 C 0.33062 0.90798 0.66285 0.0
H1408 H 0.35407 0.93384 0.60676 0.0
C1409 C 0.3792 0.93205 0.70206 0.0
C1410 C 0.38339 0.94371 0.70787 0.0
C1411 C 0.36838 0.92518 0.68604 0.0
C1412 C 0.34762 0.92658 0.62255 0.0
H1413 H 0.29034 0.88299 0.60975 0.0
H1414 H 0.31012 0.88984 0.62867 0.0
H1415 H 0.33471 0.92428 0.58216 0.0
H1416 H 0.37961 0.95732 0.70101 0.0
H1417 H 0.36097 0.94544 0.67235 0.0
H1418 H 0.34371 0.91047 0.70347 0.0
C1419 C 0.30767 0.89592 0.61937 0.0
C1420 C 0.33652 0.92113 0.60864 0.0
C1421 C 0.29636 0.89199 0.60842 0.0
C1422 C 0.37662 0.94837 0.69705 0.0
C1423 C 0.36597 0.94159 0.68044 0.0
C1424 C 0.34182 0.91339 0.67659 0.0
C1425 C 0.31574 0.90757 0.61769 0.0
C1426 C 0.32778 0.91204 0.62937 0.0
C1427 C 0.36172 0.92994 0.67478 0.0
C1428 C 0.35033 0.92297 0.65722 0.0
H1429 H 0.29868 0.91743 0.58516 0.0
H1430 H 0.31808 0.92421 0.60465 0.0
H1431 H 0.32411 0.90102 0.67957 0.0
H1432 H 0.38424 0.92824 0.71023 0.0
H1433 H 0.36527 0.91621 0.68193 0.0
C1434 C 0.07153 0.44682 0.70656 0.0
C1435 C 0.05984 0.43954 0.7123 0.0
C1436 C 0.07824 0.44267 0.69049 0.0
C1437 C 0.07646 0.42026 0.62721 0.0
H1438 H 0.10212 0.42242 0.68389 0.0
C1439 C 0.09273 0.38967 0.59622 0.0
C1440 C 0.10435 0.39335 0.59914 0.0
C1441 C 0.08854 0.39673 0.60734 0.0
C1442 C 0.09513 0.42192 0.66723 0.0
H1443 H 0.04601 0.42228 0.70522 0.0
H1444 H 0.0576 0.41518 0.67648 0.0
H1445 H 0.09267 0.43254 0.70784 0.0
H1446 H 0.12072 0.40741 0.61588 0.0
H1447 H 0.11339 0.41991 0.63475 0.0
H1448 H 0.0788 0.40971 0.58661 0.0
C1449 C 0.06161 0.42404 0.68464 0.0
C1450 C 0.08971 0.4277 0.68103 0.0
C1451 C 0.05499 0.4281 0.7013 0.0
C1452 C 0.11171 0.40432 0.61334 0.0
C1453 C 0.1075 0.41146 0.62431 0.0
C1454 C 0.08194 0.41463 0.61317 0.0
C1455 C 0.07329 0.43125 0.67911 0.0
C1456 C 0.08012 0.42664 0.66174 0.0
C1457 C 0.09584 0.40774 0.62138 0.0
C1458 C 0.09111 0.41506 0.63366 0.0
H1459 H 0.0755 0.45567 0.71486 0.0
H1460 H 0.08723 0.4484 0.68648 0.0
H1461 H 0.06919 0.41944 0.61147 0.0
H1462 H 0.0868 0.38124 0.58573 0.0
H1463 H 0.07948 0.39342 0.60556 0.0
C1464 C 0.5621 0.62766 0.70669 0.0
C1465 C 0.56921 0.62337 0.71731 0.0
C1466 C 0.56673 0.63901 0.69513 0.0
C1467 C 0.59354 0.66674 0.70081 0.0
H1468 H 0.58126 0.67518 0.61322 0.0
C1469 C 0.61964 0.70809 0.61631 0.0
C1470 C 0.61467 0.71472 0.60758 0.0
C1471 C 0.61318 0.69725 0.63203 0.0
C1472 C 0.58468 0.67296 0.63807 0.0
H1473 H 0.58672 0.62752 0.7232 0.0
H1474 H 0.59474 0.64708 0.70238 0.0
H1475 H 0.57161 0.65549 0.63596 0.0
H1476 H 0.59896 0.71513 0.60816 0.0
H1477 H 0.58753 0.69594 0.63518 0.0
H1478 H 0.60681 0.68408 0.70204 0.0
C1479 C 0.58561 0.64185 0.7039 0.0
C1480 C 0.57915 0.66169 0.65114 0.0
C1481 C 0.581 0.63058 0.71559 0.0
C1482 C 0.60302 0.71022 0.61469 0.0
C1483 C 0.59649 0.69925 0.62997 0.0
C1484 C 0.59909 0.67793 0.68756 0.0
C1485 C 0.57856 0.64627 0.6939 0.0
C1486 C 0.58368 0.65839 0.68213 0.0
C1487 C 0.60154 0.6927 0.63903 0.0
C1488 C 0.59486 0.68111 0.65555 0.0
H1489 H 0.55297 0.62231 0.70776 0.0
H1490 H 0.56105 0.64215 0.68782 0.0
H1491 H 0.5971 0.6646 0.72544 0.0
H1492 H 0.62859 0.71131 0.61124 0.0
H1493 H 0.61728 0.69236 0.63828 0.0
C1494 C 0.37647 0.44427 0.70734 0.0
C1495 C 0.38054 0.43701 0.71845 0.0
C1496 C 0.36517 0.4398 0.69532 0.0
C1497 C 0.33723 0.41309 0.6997 0.0
H1498 H 0.3294 0.4255 0.6109 0.0
C1499 C 0.29689 0.387 0.61034 0.0
C1500 C 0.28985 0.39164 0.60378 0.0
C1501 C 0.3077 0.3936 0.62615 0.0
C1502 C 0.33146 0.42205 0.63605 0.0
H1503 H 0.37604 0.41939 0.72477 0.0
H1504 H 0.35664 0.41167 0.70312 0.0
H1505 H 0.34893 0.43515 0.63538 0.0
H1506 H 0.28872 0.40694 0.60787 0.0
H1507 H 0.3079 0.41865 0.63478 0.0
H1508 H 0.31992 0.39973 0.69924 0.0
C1509 C 0.36197 0.4208 0.70466 0.0
C1510 C 0.34263 0.42758 0.65016 0.0
C1511 C 0.37316 0.42524 0.71683 0.0
C1512 C 0.29396 0.40313 0.61269 0.0
C1513 C 0.30491 0.40983 0.62794 0.0
C1514 C 0.32616 0.40752 0.68534 0.0
C1515 C 0.35776 0.42799 0.6941 0.0
C1516 C 0.34571 0.42299 0.68157 0.0
C1517 C 0.31181 0.40506 0.63526 0.0
C1518 C 0.32323 0.4118 0.65288 0.0
H1519 H 0.38197 0.45339 0.70829 0.0
H1520 H 0.36221 0.44559 0.68754 0.0
H1521 H 0.33918 0.40948 0.72466 0.0
H1522 H 0.29398 0.37817 0.60389 0.0
H1523 H 0.31288 0.38975 0.63118 0.0
C1524 C 0.60152 0.89161 0.6119 0.0
C1525 C 0.61329 0.89875 0.60767 0.0
C1526 C 0.59484 0.8958 0.62778 0.0
C1527 C 0.59651 0.91777 0.69299 0.0
H1528 H 0.57167 0.91678 0.63437 0.0
C1529 C 0.58132 0.94913 0.72389 0.0
C1530 C 0.56978 0.94573 0.72084 0.0
C1531 C 0.58528 0.9419 0.71255 0.0
C1532 C 0.57843 0.91694 0.65153 0.0
H1533 H 0.6273 0.91579 0.6172 0.0
H1534 H 0.61573 0.92297 0.64561 0.0
H1535 H 0.58097 0.90652 0.61031 0.0
H1536 H 0.55328 0.93202 0.70342 0.0
H1537 H 0.5602 0.91921 0.68397 0.0
H1538 H 0.59412 0.92816 0.73412 0.0
C1539 C 0.61165 0.91418 0.63642 0.0
C1540 C 0.58376 0.91108 0.63768 0.0
C1541 C 0.61826 0.91008 0.61996 0.0
C1542 C 0.56223 0.93488 0.70611 0.0
C1543 C 0.5662 0.92756 0.69484 0.0
C1544 C 0.59113 0.92349 0.70704 0.0
C1545 C 0.59989 0.90711 0.64046 0.0
C1546 C 0.59307 0.91175 0.65771 0.0
C1547 C 0.57779 0.93099 0.6981 0.0
C1548 C 0.58228 0.92349 0.68583 0.0
H1549 H 0.59748 0.88284 0.60257 0.0
H1550 H 0.58578 0.89019 0.63063 0.0
H1551 H 0.60357 0.91826 0.7093 0.0
H1552 H 0.5874 0.95747 0.73477 0.0
H1553 H 0.59429 0.94497 0.71455 0.0
C1554 C 0.05597 0.62994 0.69341 0.0
C1555 C 0.06052 0.62326 0.70645 0.0
C1556 C 0.06296 0.64063 0.67731 0.0
C1557 C 0.09143 0.6648 0.67861 0.0
H1558 H 0.08139 0.67311 0.58471 0.0
C1559 C 0.11383 0.71079 0.61332 0.0
C1560 C 0.10632 0.71449 0.6014 0.0
C1561 C 0.10969 0.69942 0.62396 0.0
C1562 C 0.08431 0.67095 0.61103 0.0
H1563 H 0.07599 0.62257 0.71294 0.0
H1564 H 0.08835 0.64155 0.68532 0.0
H1565 H 0.0715 0.65348 0.60675 0.0
H1566 H 0.08859 0.70921 0.59228 0.0
H1567 H 0.08146 0.68966 0.61102 0.0
H1568 H 0.10396 0.68244 0.68372 0.0
C1569 C 0.07932 0.63837 0.68739 0.0
C1570 C 0.07867 0.6597 0.62353 0.0
C1571 C 0.07225 0.62752 0.70297 0.0
C1572 C 0.09464 0.70666 0.60094 0.0
C1573 C 0.09054 0.69539 0.61144 0.0
C1574 C 0.09707 0.67614 0.66619 0.0
C1575 C 0.0747 0.645 0.67428 0.0
C1576 C 0.08193 0.65656 0.65806 0.0
C1577 C 0.09799 0.69156 0.62261 0.0
C1578 C 0.09331 0.6794 0.63294 0.0
H1579 H 0.04697 0.6269 0.69562 0.0
H1580 H 0.05917 0.64559 0.66787 0.0
H1581 H 0.09411 0.6626 0.7054 0.0
H1582 H 0.12288 0.71664 0.61402 0.0
H1583 H 0.11564 0.69673 0.63249 0.0
C1584 C 0.08908 0.34081 0.67774 0.0
C1585 C 0.09841 0.35175 0.67222 0.0
C1586 C 0.08501 0.33683 0.71509 0.0
C1587 C 0.08671 0.345 0.8191 0.0
H1588 H 0.08381 0.31552 0.83715 0.0
C1589 C 0.09367 0.33114 0.96875 0.0
C1590 C 0.08716 0.31975 0.98054 0.0
C1591 C 0.09253 0.33448 0.93144 0.0
C1592 C 0.08432 0.32363 0.83257 0.0
H1593 H 0.11028 0.36739 0.70121 0.0
H1594 H 0.10331 0.36032 0.76694 0.0
H1595 H 0.08624 0.32282 0.77103 0.0
H1596 H 0.07417 0.30296 0.96223 0.0
H1597 H 0.07221 0.30885 0.8965 0.0
H1598 H 0.08515 0.34592 0.88096 0.0
C1599 C 0.09909 0.35487 0.74222 0.0
C1600 C 0.08573 0.32784 0.79463 0.0
C1601 C 0.10312 0.35891 0.70464 0.0
C1602 C 0.07937 0.31178 0.95402 0.0
C1603 C 0.07824 0.31515 0.91643 0.0
C1604 C 0.08527 0.34077 0.85709 0.0
C1605 C 0.09023 0.34365 0.74785 0.0
C1606 C 0.08724 0.3387 0.78757 0.0
C1607 C 0.08484 0.32655 0.90479 0.0
C1608 C 0.08441 0.33019 0.86432 0.0
H1609 H 0.0851 0.33517 0.65321 0.0
H1610 H 0.078 0.32825 0.71842 0.0
H1611 H 0.08765 0.3533 0.81449 0.0
H1612 H 0.09978 0.33755 0.98822 0.0
H1613 H 0.09793 0.34327 0.92318 0.0
C1614 C 0.69479 0.77573 0.94821 0.0
C1615 C 0.6878 0.77029 0.98045 0.0
C1616 C 0.69074 0.77215 0.9103 0.0
C1617 C 0.66353 0.75782 0.85821 0.0
H1618 H 0.68201 0.75911 0.77025 0.0
C1619 C 0.64659 0.7485 0.69912 0.0
C1620 C 0.65392 0.75639 0.67145 0.0
C1621 C 0.65038 0.74857 0.73721 0.0
C1622 C 0.67676 0.75873 0.79459 0.0
H1623 H 0.67157 0.75623 -0.00139 0.0
H1624 H 0.66465 0.74987 0.93286 0.0
H1625 H 0.68978 0.76201 0.83622 0.0
H1626 H 0.67089 0.77072 0.66256 0.0
H1627 H 0.67733 0.77087 0.72844 0.0
H1628 H 0.6506 0.75481 0.81657 0.0
C1629 C 0.67306 0.75712 0.93659 0.0
C1630 C 0.68121 0.7604 0.83229 0.0
C1631 C 0.67705 0.76076 0.97425 0.0
C1632 C 0.66501 0.76443 0.68288 0.0
C1633 C 0.66877 0.76447 0.72065 0.0
C1634 C 0.65907 0.75613 0.82055 0.0
C1635 C 0.67969 0.763 0.90417 0.0
C1636 C 0.67472 0.76018 0.86444 0.0
C1637 C 0.66156 0.7565 0.74813 0.0
C1638 C 0.66573 0.75683 0.7883 0.0
H1639 H 0.70313 0.78308 0.9522 0.0
H1640 H 0.69604 0.77688 0.88586 0.0
H1641 H 0.65834 0.75774 0.8823 0.0
H1642 H 0.63802 0.74217 0.69124 0.0
H1643 H 0.64463 0.74232 0.75789 0.0
C1644 C 0.2338 0.92322 0.95105 0.0
C1645 C 0.23196 0.91466 0.97794 0.0
C1646 C 0.23778 0.92312 0.91344 0.0
C1647 C 0.25287 0.91134 0.8582 0.0
H1648 H 0.23901 0.91635 0.76735 0.0
C1649 C 0.25627 0.89707 0.7022 0.0
C1650 C 0.25609 0.90362 0.67088 0.0
C1651 C 0.25526 0.90002 0.74055 0.0
C1652 C 0.24314 0.91514 0.79241 0.0
H1653 H 0.23237 0.89902 0.98574 0.0
H1654 H 0.23912 0.89882 0.92057 0.0
H1655 H 0.2331 0.91854 0.83226 0.0
H1656 H 0.25587 0.91894 0.65498 0.0
H1657 H 0.25445 0.92422 0.72162 0.0
H1658 H 0.26276 0.90773 0.81831 0.0
C1659 C 0.2378 0.90576 0.92871 0.0
C1660 C 0.23973 0.91639 0.8296 0.0
C1661 C 0.23384 0.90585 0.96604 0.0
C1662 C 0.25579 0.9136 0.67861 0.0
C1663 C 0.25492 0.9166 0.71675 0.0
C1664 C 0.2563 0.91011 0.82099 0.0
C1665 C 0.23999 0.91446 0.90219 0.0
C1666 C 0.2444 0.91428 0.86285 0.0
C1667 C 0.25419 0.90962 0.74805 0.0
C1668 C 0.25135 0.91183 0.78767 0.0
H1669 H 0.23247 0.93015 0.95935 0.0
H1670 H 0.23938 0.92993 0.89349 0.0
H1671 H 0.25676 0.90985 0.88339 0.0
H1672 H 0.2565 0.88934 0.69696 0.0
H1673 H 0.25469 0.89443 0.76406 0.0
C1674 C 0.31355 0.08262 0.03001 0.0
C1675 C 0.31941 0.09168 0.00385 0.0
C1676 C 0.31772 0.08322 0.06789 0.0
C1677 C 0.32526 0.09012 0.15262 0.0
H1678 H 0.35791 0.10608 0.16679 0.0
C1679 C 0.34538 0.11035 0.29805 0.0
C1680 C 0.35498 0.11005 0.31139 0.0
C1681 C 0.34117 0.10666 0.26067 0.0
C1682 C 0.34878 0.10144 0.16341 0.0
H1683 H 0.33386 0.10864 -0.00253 0.0
H1684 H 0.34087 0.10978 0.06318 0.0
H1685 H 0.34998 0.10173 0.10117 0.0
H1686 H 0.36789 0.10589 0.2956 0.0
H1687 H 0.36045 0.09934 0.2297 0.0
H1688 H 0.32405 0.08978 0.21487 0.0
C1689 C 0.33333 0.10206 0.05432 0.0
C1690 C 0.34423 0.09906 0.12579 0.0
C1691 C 0.32923 0.10145 0.01669 0.0
C1692 C 0.36051 0.10628 0.286 0.0
C1693 C 0.35622 0.10249 0.24839 0.0
C1694 C 0.32981 0.09243 0.19025 0.0
C1695 C 0.32777 0.0929 0.08016 0.0
C1696 C 0.33244 0.09375 0.11997 0.0
C1697 C 0.34639 0.10249 0.23561 0.0
C1698 C 0.34162 0.09848 0.19602 0.0
H1699 H 0.30599 0.07496 0.02084 0.0
H1700 H 0.31323 0.07603 0.08721 0.0
H1701 H 0.31614 0.08598 0.14918 0.0
H1702 H 0.34101 0.11336 0.31669 0.0
H1703 H 0.33381 0.10713 0.25137 0.0
C1704 C 0.90003 0.25516 0.28827 0.0
C1705 C 0.89616 0.24573 0.31312 0.0
C1706 C 0.90381 0.25478 0.25054 0.0
C1707 C 0.91367 0.23846 0.19118 0.0
H1708 H 0.90524 0.25051 0.10307 0.0
C1709 C 0.9063 0.23122 0.01579 0.0
C1710 C 0.91607 0.23104 0.00385 0.0
C1711 C 0.9053 0.23422 0.05377 0.0
C1712 C 0.90764 0.24708 0.1274 0.0
H1713 H 0.89265 0.22836 0.31738 0.0
H1714 H 0.89884 0.2276 0.2518 0.0
H1715 H 0.90053 0.25351 0.1689 0.0
H1716 H 0.9324 0.23364 0.02266 0.0
H1717 H 0.9307 0.23902 0.08952 0.0
H1718 H 0.9202 0.23148 0.14958 0.0
C1719 C 0.89941 0.23543 0.26161 0.0
C1720 C 0.90507 0.24893 0.16517 0.0
C1721 C 0.89574 0.23583 0.29914 0.0
C1722 C 0.92474 0.23365 0.03113 0.0
C1723 C 0.92377 0.23675 0.06932 0.0
C1724 C 0.91616 0.23653 0.1534 0.0
C1725 C 0.9037 0.24495 0.23708 0.0
C1726 C 0.90775 0.24435 0.19742 0.0
C1727 C 0.91409 0.23722 0.08083 0.0
C1728 C 0.91286 0.24053 0.12104 0.0
H1729 H 0.90051 0.26292 0.2984 0.0
H1730 H 0.90707 0.26227 0.23231 0.0
H1731 H 0.9161 0.23506 0.21551 0.0
H1732 H 0.89938 0.2291 -0.00436 0.0
H1733 H 0.89757 0.23413 0.06194 0.0
C1734 C 0.75142 0.66214 0.30658 0.0
C1735 C 0.75049 0.65164 0.3157 0.0
C1736 C 0.75283 0.66589 0.26803 0.0
C1737 C 0.76611 0.66344 0.18048 0.0
H1738 H 0.75302 0.67972 0.1298 0.0
C1739 C 0.77473 0.67649 0.02045 0.0
C1740 C 0.77592 0.68692 0.00853 0.0
C1741 C 0.77153 0.67262 0.0584 0.0
C1742 C 0.75686 0.67534 0.14388 0.0
H1743 H 0.74937 0.63641 0.29147 0.0
H1744 H 0.75197 0.64303 0.22383 0.0
H1745 H 0.74595 0.67099 0.1938 0.0
H1746 H 0.77503 0.70164 0.02764 0.0
H1747 H 0.76956 0.69487 0.09488 0.0
H1748 H 0.7772 0.66795 0.13147 0.0
C1749 C 0.75168 0.64837 0.24669 0.0
C1750 C 0.75274 0.67027 0.18025 0.0
C1751 C 0.75012 0.64456 0.28529 0.0
C1752 C 0.77419 0.69358 0.03598 0.0
C1753 C 0.77096 0.68966 0.07429 0.0
C1754 C 0.77028 0.66858 0.14446 0.0
C1755 C 0.75346 0.65924 0.23795 0.0
C1756 C 0.75727 0.66417 0.19865 0.0
C1757 C 0.76951 0.67908 0.08571 0.0
C1758 C 0.76563 0.67448 0.12551 0.0
H1759 H 0.75157 0.66771 0.32945 0.0
H1760 H 0.75418 0.67429 0.26212 0.0
H1761 H 0.76997 0.65907 0.19452 0.0
H1762 H 0.77605 0.67115 0.00021 0.0
H1763 H 0.77034 0.66437 0.06599 0.0
C1764 C 0.92347 0.6767 0.00812 0.0
C1765 C 0.92179 0.68596 0.00235 0.0
C1766 C 0.92371 0.67289 0.04566 0.0
C1767 C 0.92453 0.6799 0.15127 0.0
H1768 H 0.90899 0.64717 0.16202 0.0
C1769 C 0.91776 0.65968 0.30244 0.0
C1770 C 0.90698 0.65034 0.30975 0.0
C1771 C 0.92121 0.66343 0.26438 0.0
C1772 C 0.9133 0.65632 0.15963 0.0
H1773 H 0.91949 0.69883 0.031 0.0
H1774 H 0.91937 0.69188 0.09694 0.0
H1775 H 0.91191 0.65555 0.09759 0.0
H1776 H 0.89157 0.63719 0.28318 0.0
H1777 H 0.89736 0.64397 0.21659 0.0
H1778 H 0.92521 0.68064 0.21347 0.0
C1779 C 0.92081 0.68771 0.07255 0.0
C1780 C 0.91515 0.66116 0.12253 0.0
C1781 C 0.92083 0.69168 0.03483 0.0
C1782 C 0.89995 0.64439 0.27822 0.0
C1783 C 0.90331 0.64828 0.24007 0.0
C1784 C 0.92253 0.67505 0.18842 0.0
C1785 C 0.92199 0.67808 0.07834 0.0
C1786 C 0.9207 0.67302 0.11785 0.0
C1787 C 0.91386 0.65807 0.2328 0.0
C1788 C 0.91678 0.66319 0.19311 0.0
H1789 H 0.92443 0.67227 0.98344 0.0
H1790 H 0.92501 0.66571 0.04893 0.0
H1791 H 0.92898 0.68906 0.14886 0.0
H1792 H 0.92341 0.66431 0.32634 0.0
H1793 H 0.92953 0.67076 0.25986 0.0
C1794 C 0.32842 0.22773 0.01909 0.0
C1795 C 0.31879 0.22803 0.00604 0.0
C1796 C 0.33262 0.23132 0.05657 0.0
C1797 C 0.32501 0.23647 0.15416 0.0
H1798 H 0.35766 0.25213 0.16827 0.0
C1799 C 0.36019 0.25588 0.28752 0.0
C1800 C 0.35442 0.24685 0.31382 0.0
C1801 C 0.35603 0.25515 0.24955 0.0
C1802 C 0.34854 0.24793 0.16484 0.0
H1803 H 0.30583 0.23205 0.02238 0.0
H1804 H 0.31326 0.23844 0.08832 0.0
H1805 H 0.34972 0.24811 0.10259 0.0
H1806 H 0.34011 0.22978 0.32032 0.0
H1807 H 0.33311 0.22845 0.25456 0.0
H1808 H 0.32383 0.23635 0.21638 0.0
C1809 C 0.3175 0.23535 0.06943 0.0
C1810 C 0.34398 0.24549 0.12723 0.0
C1811 C 0.31322 0.23166 0.03178 0.0
C1812 C 0.34468 0.23698 0.30104 0.0
C1813 C 0.34058 0.23624 0.26336 0.0
C1814 C 0.32958 0.23897 0.19174 0.0
C1815 C 0.32737 0.23539 0.08195 0.0
C1816 C 0.33216 0.23939 0.12152 0.0
C1817 C 0.34606 0.24537 0.23736 0.0
C1818 C 0.34138 0.24437 0.19752 0.0
H1819 H 0.33282 0.22484 0.00012 0.0
H1820 H 0.34001 0.23088 0.06566 0.0
H1821 H 0.31588 0.23179 0.15084 0.0
H1822 H 0.36769 0.26361 0.29661 0.0
H1823 H 0.36045 0.26232 0.23008 0.0
C1824 C 0.7734 0.0998 0.01944 0.0
C1825 C 0.77606 0.09157 0.0069 0.0
C1826 C 0.76922 0.09938 0.0568 0.0
C1827 C 0.76786 0.08868 0.15536 0.0
H1828 H 0.74309 0.09486 0.16646 0.0
C1829 C 0.75093 0.09025 0.30643 0.0
C1830 C 0.7497 0.09974 0.31372 0.0
C1831 C 0.75213 0.08737 0.26843 0.0
C1832 C 0.75003 0.09317 0.16386 0.0
H1833 H 0.77673 0.0766 0.0245 0.0
H1834 H 0.76946 0.07594 0.0905 0.0
H1835 H 0.7496 0.09344 0.10145 0.0
H1836 H 0.74799 0.11321 0.28686 0.0
H1837 H 0.75033 0.10833 0.22013 0.0
H1838 H 0.76856 0.08874 0.21763 0.0
C1839 C 0.77061 0.08269 0.07097 0.0
C1840 C 0.75375 0.09234 0.12668 0.0
C1841 C 0.7748 0.08309 0.03328 0.0
C1842 C 0.74894 0.10586 0.28205 0.0
C1843 C 0.75025 0.10304 0.24387 0.0
C1844 C 0.76417 0.08954 0.19255 0.0
C1845 C 0.76759 0.09073 0.08277 0.0
C1846 C 0.76286 0.09033 0.12207 0.0
C1847 C 0.75223 0.09397 0.23681 0.0
C1848 C 0.75534 0.09199 0.19723 0.0
H1849 H 0.77439 0.10655 0.00017 0.0
H1850 H 0.76726 0.10587 0.06539 0.0
H1851 H 0.77496 0.08722 0.15271 0.0
H1852 H 0.75132 0.08523 0.33029 0.0
H1853 H 0.75331 0.08016 0.26393 0.0
C1854 C 0.6638 0.90019 0.68288 0.0
C1855 C 0.65265 0.89686 0.67124 0.0
C1856 C 0.66748 0.90408 0.72057 0.0
C1857 C 0.65779 0.90304 0.82031 0.0
H1858 H 0.68799 0.9289 0.83434 0.0
C1859 C 0.6756 0.91853 0.97312 0.0
C1860 C 0.6866 0.92041 0.97988 0.0
C1861 C 0.6715 0.91751 0.93527 0.0
C1862 C 0.67957 0.92165 0.83088 0.0
H1863 H 0.63655 0.89477 0.69064 0.0
H1864 H 0.64303 0.90151 0.75717 0.0
H1865 H 0.68024 0.9232 0.76865 0.0
H1866 H 0.70217 0.92341 0.9523 0.0
H1867 H 0.69489 0.92139 0.88569 0.0
H1868 H 0.6572 0.90126 0.88232 0.0
C1869 C 0.64888 0.90111 0.7367 0.0
C1870 C 0.67512 0.91839 0.79334 0.0
C1871 C 0.64517 0.89724 0.69868 0.0
C1872 C 0.69365 0.92193 0.9479 0.0
C1873 C 0.68949 0.9208 0.90981 0.0
C1874 C 0.66224 0.90628 0.85783 0.0
C1875 C 0.66013 0.90472 0.74775 0.0
C1876 C 0.66428 0.90892 0.78766 0.0
C1877 C 0.67824 0.91826 0.90322 0.0
C1878 C 0.67325 0.9155 0.8635 0.0
H1879 H 0.66979 0.89993 0.66274 0.0
H1880 H 0.6761 0.90653 0.72851 0.0
H1881 H 0.64946 0.89564 0.8168 0.0
H1882 H 0.67004 0.91756 -0.00278 0.0
H1883 H 0.66291 0.91585 0.93114 0.0
C1884 C 0.10653 0.74789 0.69967 0.0
C1885 C 0.10594 0.75505 0.67133 0.0
C1886 C 0.10292 0.74791 0.73797 0.0
C1887 C 0.08543 0.75643 0.79619 0.0
H1888 H 0.10492 0.75844 0.88184 0.0
C1889 C 0.08415 0.77375 0.9493 0.0
C1890 C 0.08643 0.76883 0.98151 0.0
C1891 C 0.08482 0.77028 0.91137 0.0
C1892 C 0.09927 0.75769 0.85834 0.0
H1893 H 0.10119 0.76792 0.66134 0.0
H1894 H 0.09513 0.76801 0.72747 0.0
H1895 H 0.10944 0.75537 0.81587 0.0
H1896 H 0.09022 0.75578 -0.00044 0.0
H1897 H 0.09119 0.74968 0.93387 0.0
H1898 H 0.07541 0.75905 0.83865 0.0
C1899 C 0.09813 0.76222 0.72014 0.0
C1900 C 0.10186 0.75591 0.82055 0.0
C1901 C 0.10173 0.76223 0.68218 0.0
C1902 C 0.08868 0.75993 0.97527 0.0
C1903 C 0.08926 0.75643 0.93762 0.0
C1904 C 0.08283 0.75822 0.83401 0.0
C1905 C 0.09863 0.75505 0.74844 0.0
C1906 C 0.0951 0.75549 0.78898 0.0
C1907 C 0.08768 0.76179 0.90522 0.0
C1908 C 0.08983 0.75905 0.8654 0.0
H1909 H 0.10968 0.74223 0.69226 0.0
H1910 H 0.10339 0.74227 0.75926 0.0
H1911 H 0.07995 0.75596 0.77244 0.0
H1912 H 0.08235 0.78059 0.95328 0.0
H1913 H 0.08359 0.7746 0.88691 0.0
C1914 C 0.2516 0.3296 0.97389 0.0
C1915 C 0.24199 0.3189 0.98006 0.0
C1916 C 0.25546 0.33342 0.93621 0.0
C1917 C 0.25229 0.32514 0.83188 0.0
H1918 H 0.25604 0.35505 0.81588 0.0
C1919 C 0.24498 0.33974 0.6839 0.0
C1920 C 0.25187 0.35109 0.67215 0.0
C1921 C 0.24605 0.33624 0.72102 0.0
C1922 C 0.25527 0.34681 0.81984 0.0
H1923 H 0.22943 0.30342 0.95191 0.0
H1924 H 0.23604 0.31019 0.88569 0.0
H1925 H 0.25414 0.3477 0.88174 0.0
H1926 H 0.26537 0.36764 0.6904 0.0
H1927 H 0.26722 0.36146 0.75574 0.0
H1928 H 0.25308 0.32415 0.76972 0.0
C1929 C 0.24065 0.3156 0.91009 0.0
C1930 C 0.25418 0.34257 0.85764 0.0
C1931 C 0.23683 0.31172 0.94797 0.0
C1932 C 0.25988 0.35886 0.6986 0.0
C1933 C 0.26095 0.35532 0.73596 0.0
C1934 C 0.25342 0.3294 0.79403 0.0
C1935 C 0.24974 0.32666 0.90384 0.0
C1936 C 0.2524 0.33159 0.86402 0.0
C1937 C 0.25405 0.34395 0.74748 0.0
C1938 C 0.2546 0.34015 0.78758 0.0
H1939 H 0.25591 0.33523 -0.00183 0.0
H1940 H 0.26265 0.34187 0.93236 0.0
H1941 H 0.2511 0.31672 0.83594 0.0
H1942 H 0.23868 0.3335 0.66448 0.0
H1943 H 0.24042 0.32749 0.72925 0.0
C1944 C 0.00802 0.42972 0.64421 0.0
C1945 C 0.01927 0.43825 0.65141 0.0
C1946 C 0.00412 0.42651 0.60624 0.0
C1947 C 0.01299 0.42793 0.50376 0.0
H1948 H 0.98368 0.42508 0.48228 0.0
C1949 C 0.99797 0.42921 0.34871 0.0
C1950 C 0.98658 0.42176 0.33871 0.0
C1951 C 1.00166 0.43005 0.38706 0.0
C1952 C 0.99178 0.42565 0.48791 0.0
H1953 H 0.0354 0.44973 0.62442 0.0
H1954 H 0.02848 0.44424 0.55744 0.0
H1955 H 0.99108 0.42883 0.54858 0.0
H1956 H 0.97011 0.40935 0.36151 0.0
H1957 H 0.97662 0.41087 0.42905 0.0
H1958 H 0.01374 0.42495 0.4428 0.0
C1959 C 0.02273 0.44 0.58146 0.0
C1960 C 0.99604 0.42782 0.52588 0.0
C1961 C 0.02669 0.44318 0.61973 0.0
C1962 C 0.97893 0.4152 0.36823 0.0
C1963 C 0.98265 0.41607 0.40686 0.0
C1964 C 0.00872 0.42577 0.46573 0.0
C1965 C 0.01133 0.43179 0.5744 0.0
C1966 C 0.00673 0.42909 0.53417 0.0
C1967 C 0.99408 0.42348 0.41655 0.0
C1968 C 0.99813 0.42475 0.45736 0.0
H1969 H 1.00213 0.42556 0.668 0.0
H1970 H 0.99538 0.41996 0.60182 0.0
H1971 H 0.02117 0.42869 0.50935 0.0
H1972 H 0.00413 0.43446 0.32692 0.0
H1973 H 0.01046 0.43601 0.39371 0.0
C1974 C 0.5841 0.5775 0.34205 0.0
C1975 C 0.58651 0.56871 0.3358 0.0
C1976 C 0.58366 0.5811 0.3797 0.0
C1977 C 0.5907 0.57972 0.48311 0.0
H1978 H 0.56408 0.58242 0.50277 0.0
C1979 C 0.57214 0.57558 0.63587 0.0
C1980 C 0.56771 0.58255 0.64686 0.0
C1981 C 0.57581 0.57573 0.59787 0.0
C1982 C 0.57167 0.58192 0.49768 0.0
H1983 H 0.59097 0.55723 0.36404 0.0
H1984 H 0.58996 0.56338 0.43034 0.0
H1985 H 0.56835 0.57929 0.43654 0.0
H1986 H 0.56375 0.59525 0.62622 0.0
H1987 H 0.57017 0.59546 0.55926 0.0
H1988 H 0.59384 0.58207 0.54457 0.0
C1989 C 0.58852 0.56755 0.4059 0.0
C1990 C 0.57412 0.58011 0.45971 0.0
C1991 C 0.58905 0.56399 0.368 0.0
C1992 C 0.56707 0.58973 0.61871 0.0
C1993 C 0.57073 0.58985 0.58041 0.0
C1994 C 0.58825 0.58154 0.52113 0.0
C1995 C 0.58553 0.57595 0.41212 0.0
C1996 C 0.58355 0.57879 0.45209 0.0
C1997 C 0.57516 0.58285 0.56968 0.0
C1998 C 0.57857 0.58242 0.52891 0.0
H1999 H 0.58235 0.5815 0.31779 0.0
H2000 H 0.58162 0.58778 0.38344 0.0
H2001 H 0.59813 0.57893 0.47807 0.0
H2002 H 0.57277 0.56991 0.65659 0.0
H2003 H 0.57894 0.57006 0.59039 0.0
C2004 C 0.4315 0.99553 0.63288 0.0
C2005 C 0.42323 0.98462 0.64512 0.0
C2006 C 0.43108 0.9994 0.5957 0.0
C2007 C 0.42009 0.99003 0.4973 0.0
H2008 H 0.42758 0.02138 0.48514 0.0
C2009 C 0.42259 0.00831 0.34567 0.0
C2010 C 0.43257 0.01859 0.33809 0.0
C2011 C 0.41941 0.00455 0.38384 0.0
C2012 C 0.4255 0.01262 0.48808 0.0
H2013 H 0.40816 0.96911 0.62743 0.0
H2014 H 0.40745 0.97594 0.56188 0.0
H2015 H 0.42589 0.0135 0.55046 0.0
H2016 H 0.44661 0.03344 0.3644 0.0
H2017 H 0.4412 0.02674 0.43149 0.0
H2018 H 0.42 0.9892 0.43509 0.0
C2019 C 0.41426 0.98145 0.58137 0.0
C2020 C 0.42453 0.00811 0.52542 0.0
C2021 C 0.41468 0.97754 0.6188 0.0
C2022 C 0.43889 0.02546 0.36949 0.0
C2023 C 0.43577 0.02163 0.40786 0.0
C2024 C 0.42106 0.99454 0.46 0.0
C2025 C 0.42238 0.9925 0.56973 0.0
C2026 C 0.42207 0.99684 0.53037 0.0
C2027 C 0.42621 0.01094 0.41527 0.0
C2028 C 0.42398 0.00594 0.45497 0.0
H2029 H 0.43829 1.00117 0.65218 0.0
H2030 H 0.43763 0.00783 0.58723 0.0
H2031 H 0.4183 0.98137 0.50017 0.0
H2032 H 0.41741 0.00296 0.32196 0.0
H2033 H 0.41183 0.99644 0.38866 0.0
C2034 C 0.57187 0.98063 0.61762 0.0
C2035 C 0.57646 0.98784 0.65 0.0
C2036 C 0.57598 0.98465 0.58008 0.0
C2037 C 0.58893 0.01146 0.52718 0.0
H2038 H 0.5911 0.99382 0.44237 0.0
C2039 C 0.59529 0.02727 0.36773 0.0
C2040 C 0.58798 0.01901 0.34095 0.0
C2041 C 0.59655 0.02411 0.40551 0.0
C2042 C 0.59053 0.99886 0.4658 0.0
H2043 H 0.58963 0.00451 0.66895 0.0
H2044 H 0.59678 0.01141 0.60382 0.0
H2045 H 0.58831 0.98652 0.50904 0.0
H2046 H 0.5764 1.00095 0.33293 0.0
H2047 H 0.5784 0.9956 0.39825 0.0
H2048 H 0.59059 0.02353 0.48404 0.0
C2049 C 0.58984 0.00279 0.60718 0.0
C2050 C 0.58893 0.99467 0.50388 0.0
C2051 C 0.58572 0.99882 0.64447 0.0
C2052 C 0.58212 0.00757 0.35261 0.0
C2053 C 0.58337 0.00445 0.39011 0.0
C2054 C 0.59045 0.01561 0.48913 0.0
C2055 C 0.58477 0.9959 0.57449 0.0
C2056 C 0.58785 1.00081 0.5348 0.0
C2057 C 0.59054 0.01266 0.41711 0.0
C2058 C 0.59093 0.0092 0.45788 0.0
H2059 H 0.56477 0.97211 0.62103 0.0
H2060 H 0.57188 0.97916 0.55532 0.0
H2061 H 0.58801 0.01635 0.55038 0.0
H2062 H 0.6 0.03614 0.35959 0.0
H2063 H 0.6022 0.03062 0.42567 0.0
C2064 C 0.97792 0.55907 0.36929 0.0
C2065 C 0.98553 0.56485 0.33876 0.0
C2066 C 0.98155 0.56146 0.40815 0.0
C2067 C 0.00425 0.58264 0.47183 0.0
H2068 H 0.99746 0.55662 0.53641 0.0
C2069 C 0.02633 0.58666 0.62062 0.0
C2070 C 0.0192 0.57994 0.65101 0.0
C2071 C 0.02228 0.58507 0.58219 0.0
C2072 C 0.99934 0.56398 0.51891 0.0
H2073 H 1.00266 0.57813 0.325 0.0
H2074 H 0.00891 0.58224 0.39233 0.0
H2075 H 0.98937 0.55372 0.47116 0.0
H2076 H 1.00224 0.56616 0.66451 0.0
H2077 H 0.99528 0.56356 0.59837 0.0
H2078 H 0.01424 0.59291 0.51966 0.0
C2079 C 1.00019 0.57586 0.38648 0.0
C2080 C 0.99466 0.56231 0.48161 0.0
C2081 C 0.99662 0.57342 0.34785 0.0
C2082 C 0.00802 0.57153 0.642 0.0
C2083 C 0.00401 0.56995 0.60388 0.0
C2084 C 0.00891 0.58432 0.50926 0.0
C2085 C 0.99279 0.56976 0.41702 0.0
C2086 C 0.99709 0.57162 0.45764 0.0
C2087 C 0.01105 0.5767 0.57352 0.0
C2088 C 0.0065 0.575 0.5332 0.0
H2089 H 0.96932 0.55246 0.36316 0.0
H2090 H 0.97564 0.5567 0.43125 0.0
H2091 H 0.00622 0.58998 0.45402 0.0
H2092 H 0.03497 0.59321 0.62655 0.0
H2093 H 0.02794 0.59033 0.55926 0.0
C2094 C 0.44059 0.4157 0.36713 0.0
C2095 C 0.44068 0.42327 0.339 0.0
C2096 C 0.43681 0.41572 0.40512 0.0
C2097 C 0.41973 0.42495 0.46207 0.0
H2098 H 0.4377 0.42493 0.5497 0.0
C2099 C 0.41733 0.44073 0.61674 0.0
C2100 C 0.41913 0.43534 0.6486 0.0
C2101 C 0.41819 0.43755 0.57857 0.0
C2102 C 0.43245 0.42474 0.52562 0.0
H2103 H 0.43705 0.43693 0.32912 0.0
H2104 H 0.43066 0.437 0.39492 0.0
H2105 H 0.44279 0.42239 0.48395 0.0
H2106 H 0.42218 0.42174 0.66576 0.0
H2107 H 0.42341 0.41608 0.59959 0.0
H2108 H 0.40953 0.42754 0.5038 0.0
C2109 C 0.43327 0.43091 0.38755 0.0
C2110 C 0.43538 0.42328 0.48794 0.0
C2111 C 0.43704 0.43091 0.34983 0.0
C2112 C 0.42102 0.42623 0.64173 0.0
C2113 C 0.42175 0.423 0.60382 0.0
C2114 C 0.41678 0.4264 0.4998 0.0
C2115 C 0.43303 0.42328 0.41555 0.0
C2116 C 0.42918 0.42358 0.45573 0.0
C2117 C 0.42074 0.42886 0.57182 0.0
C2118 C 0.42322 0.42647 0.53193 0.0
H2119 H 0.44328 0.40967 0.35971 0.0
H2120 H 0.4367 0.40973 0.42617 0.0
H2121 H 0.41468 0.42503 0.43777 0.0
H2122 H 0.41584 0.44775 0.62124 0.0
H2123 H 0.41739 0.44226 0.55446 0.0
C2124 C 0.08498 0.30652 0.21904 0.0
C2125 C 0.08752 0.31245 0.18353 0.0
C2126 C 0.08861 0.31247 0.25441 0.0
C2127 C 0.09702 0.34057 0.29614 0.0
H2128 H 0.10965 0.33136 0.38042 0.0
C2129 C 0.11427 0.36714 0.43712 0.0
C2130 C 0.11062 0.36084 0.47182 0.0
C2131 C 0.11263 0.3616 0.4012 0.0
C2132 C 0.1061 0.33401 0.35716 0.0
H2133 H 0.09609 0.32922 0.15719 0.0
H2134 H 0.10242 0.33943 0.21821 0.0
H2135 H 0.10394 0.32044 0.3198 0.0
H2136 H 0.10265 0.34384 0.4962 0.0
H2137 H 0.0998 0.3343 0.43418 0.0
H2138 H 0.099 0.35402 0.33351 0.0
C2139 C 0.0975 0.33025 0.21905 0.0
C2140 C 0.10279 0.32772 0.32257 0.0
C2141 C 0.09392 0.32436 0.184 0.0
C2142 C 0.10559 0.34898 0.47004 0.0
C2143 C 0.10402 0.34348 0.43442 0.0
C2144 C 0.10031 0.34683 0.33068 0.0
C2145 C 0.09478 0.32442 0.25468 0.0
C2146 C 0.09819 0.33092 0.29173 0.0
C2147 C 0.10739 0.34969 0.39953 0.0
C2148 C 0.10481 0.34359 0.36169 0.0
H2149 H 0.08008 0.29735 0.21951 0.0
H2150 H 0.08635 0.30775 0.28153 0.0
H2151 H 0.09336 0.34316 0.27308 0.0
H2152 H 0.1182 0.3763 0.43766 0.0
H2153 H 0.1154 0.36662 0.37473 0.0
C2154 C 0.64015 0.74637 0.43334 0.0
C2155 C 0.64623 0.74917 0.46856 0.0
C2156 C 0.64595 0.74993 0.39769 0.0
C2157 C 0.67376 0.77107 0.35626 0.0
H2158 H 0.66499 0.75012 0.26943 0.0
C2159 C 0.70147 0.77959 0.21741 0.0
C2160 C 0.69554 0.77668 0.18187 0.0
C2161 C 0.69551 0.7766 0.25285 0.0
C2162 C 0.66748 0.7561 0.29333 0.0
H2163 H 0.66309 0.75772 0.49408 0.0
H2164 H 0.67305 0.76375 0.43255 0.0
H2165 H 0.65393 0.7442 0.32954 0.0
H2166 H 0.67877 0.76861 0.15558 0.0
H2167 H 0.66855 0.76359 0.21672 0.0
H2168 H 0.68736 0.78295 0.32006 0.0
C2169 C 0.66387 0.75903 0.43217 0.0
C2170 C 0.66112 0.75272 0.32766 0.0
C2171 C 0.65813 0.75549 0.46749 0.0
C2172 C 0.68363 0.77095 0.18241 0.0
C2173 C 0.67773 0.76797 0.21751 0.0
C2174 C 0.68014 0.77445 0.32192 0.0
C2175 C 0.65788 0.75635 0.39687 0.0
C2176 C 0.66421 0.76015 0.35956 0.0
C2177 C 0.68357 0.77063 0.25312 0.0
C2178 C 0.67706 0.767 0.2901 0.0
H2179 H 0.63098 0.74153 0.43335 0.0
H2180 H 0.6411 0.74778 0.37086 0.0
H2181 H 0.67627 0.77704 0.38021 0.0
H2182 H 0.71065 0.78401 0.21782 0.0
H2183 H 0.70023 0.77872 0.27996 0.0
C2184 C 0.22844 0.92552 0.21627 0.0
C2185 C 0.23107 0.92199 0.18127 0.0
C2186 C 0.23089 0.9223 0.25224 0.0
C2187 C 0.23716 0.90116 0.29653 0.0
H2188 H 0.25181 0.92373 0.37761 0.0
C2189 C 0.25853 0.89414 0.4321 0.0
C2190 C 0.25658 0.89793 0.4678 0.0
C2191 C 0.25503 0.89677 0.39705 0.0
C2192 C 0.24763 0.91729 0.35538 0.0
H2193 H 0.23834 0.91235 0.15648 0.0
H2194 H 0.24261 0.90687 0.2185 0.0
H2195 H 0.24573 0.92878 0.31764 0.0
H2196 H 0.24934 0.90732 0.49484 0.0
H2197 H 0.24321 0.91173 0.43435 0.0
H2198 H 0.23914 0.8897 0.33417 0.0
C2199 C 0.23852 0.91194 0.21851 0.0
C2200 C 0.2441 0.92018 0.32113 0.0
C2201 C 0.23612 0.91517 0.18287 0.0
C2202 C 0.25102 0.90428 0.46784 0.0
C2203 C 0.24756 0.9069 0.43309 0.0
C2204 C 0.24069 0.89827 0.33078 0.0
C2205 C 0.23595 0.91545 0.25361 0.0
C2206 C 0.23891 0.91217 0.29121 0.0
C2207 C 0.24958 0.90325 0.39727 0.0
C2208 C 0.246 0.90632 0.36052 0.0
H2209 H 0.22454 0.93077 0.21587 0.0
H2210 H 0.22877 0.92509 0.27891 0.0
H2211 H 0.23305 0.89475 0.27417 0.0
H2212 H 0.26278 0.88922 0.43124 0.0
H2213 H 0.25675 0.89389 0.36978 0.0
C2214 C 0.35043 0.10447 0.51601 0.0
C2215 C 0.36227 0.10926 0.51485 0.0
C2216 C 0.34465 0.10157 0.55137 0.0
C2217 C 0.34676 0.09426 0.65275 0.0
H2218 H 0.32156 0.09958 0.66829 0.0
C2219 C 0.32447 0.08769 0.80054 0.0
C2220 C 0.31258 0.08247 0.80108 0.0
C2221 C 0.33038 0.09071 0.76543 0.0
C2222 C 0.32847 0.0979 0.66413 0.0
H2223 H 0.37737 0.11485 0.54997 0.0
H2224 H 0.36718 0.10979 0.61251 0.0
H2225 H 0.33279 0.10621 0.60865 0.0
H2226 H 0.29753 0.07624 0.7652 0.0
H2227 H 0.30797 0.0816 0.70311 0.0
H2228 H 0.34246 0.08601 0.70838 0.0
C2229 C 0.36241 0.10822 0.58571 0.0
C2230 C 0.33494 0.10174 0.63008 0.0
C2231 C 0.36824 0.11117 0.55003 0.0
C2232 C 0.30669 0.08024 0.76559 0.0
C2233 C 0.31266 0.08336 0.73019 0.0
C2234 C 0.34031 0.09046 0.68686 0.0
C2235 C 0.35053 0.10338 0.58665 0.0
C2236 C 0.34413 0.09991 0.62392 0.0
C2237 C 0.32458 0.08863 0.72987 0.0
C2238 C 0.33109 0.09223 0.69288 0.0
H2239 H 0.34553 0.10282 0.48945 0.0
H2240 H 0.3355 0.09768 0.55095 0.0
H2241 H 0.35365 0.09256 0.6486 0.0
H2242 H 0.32927 0.08952 0.82739 0.0
H2243 H 0.33955 0.09489 0.76621 0.0
C2244 C 0.92798 0.22914 0.76711 0.0
C2245 C 0.92712 0.2341 0.8019 0.0
C2246 C 0.92453 0.23164 0.73168 0.0
C2247 C 0.91838 0.25253 0.68473 0.0
H2248 H 0.89899 0.22749 0.61675 0.0
C2249 C 0.89506 0.25797 0.55219 0.0
C2250 C 0.8959 0.25293 0.51753 0.0
C2251 C 0.89845 0.2555 0.58779 0.0
C2252 C 0.90445 0.23458 0.63533 0.0
H2253 H 0.92243 0.24584 0.82687 0.0
H2254 H 0.9165 0.25014 0.76563 0.0
H2255 H 0.90685 0.2239 0.67549 0.0
H2256 H 0.90066 0.24117 0.49312 0.0
H2257 H 0.90648 0.23694 0.55456 0.0
H2258 H 0.91599 0.26321 0.64455 0.0
C2259 C 0.91982 0.24438 0.76535 0.0
C2260 C 0.909 0.23253 0.66882 0.0
C2261 C 0.92315 0.24184 0.80052 0.0
C2262 C 0.89988 0.2452 0.51926 0.0
C2263 C 0.90317 0.2427 0.5546 0.0
C2264 C 0.91383 0.25458 0.65123 0.0
C2265 C 0.92033 0.23922 0.73059 0.0
C2266 C 0.91602 0.24148 0.69388 0.0
C2267 C 0.90262 0.24789 0.58921 0.0
C2268 C 0.90685 0.24563 0.62611 0.0
H2269 H 0.93099 0.22313 0.76743 0.0
H2270 H 0.9251 0.22761 0.70521 0.0
H2271 H 0.92384 0.25962 0.70332 0.0
H2272 H 0.89203 0.26396 0.55168 0.0
H2273 H 0.89785 0.25957 0.61413 0.0
C2274 C 0.7673 0.68187 0.80496 0.0
C2275 C 0.77384 0.69377 0.80537 0.0
C2276 C 0.7648 0.67589 0.77005 0.0
C2277 C 0.77449 0.67788 0.66906 0.0
H2278 H 0.74439 0.65201 0.65352 0.0
C2279 C 0.75855 0.65594 0.52085 0.0
C2280 C 0.75176 0.64407 0.51962 0.0
C2281 C 0.76184 0.66165 0.55634 0.0
C2282 C 0.75288 0.65909 0.65772 0.0
H2283 H 0.78283 0.70877 0.76942 0.0
H2284 H 0.77834 0.69824 0.70759 0.0
H2285 H 0.74861 0.66326 0.71294 0.0
H2286 H 0.74329 0.62882 0.55468 0.0
H2287 H 0.74903 0.63888 0.61741 0.0
H2288 H 0.7787 0.67376 0.61354 0.0
C2289 C 0.77525 0.69357 0.73466 0.0
C2290 C 0.75529 0.66558 0.69164 0.0
C2291 C 0.77776 0.69961 0.7699 0.0
C2292 C 0.74852 0.63797 0.5548 0.0
C2293 C 0.75175 0.64373 0.59058 0.0
C2294 C 0.77207 0.6714 0.63507 0.0
C2295 C 0.76875 0.68164 0.73448 0.0
C2296 C 0.76612 0.67505 0.69768 0.0
C2297 C 0.75838 0.65564 0.5916 0.0
C2298 C 0.76122 0.66197 0.62898 0.0
H2299 H 0.76414 0.67709 0.8318 0.0
H2300 H 0.75993 0.66672 0.77105 0.0
H2301 H 0.78297 0.685 0.67319 0.0
H2302 H 0.7612 0.66092 0.49432 0.0
H2303 H 0.7668 0.67082 0.55609 0.0
C2304 C 0.90126 0.65555 0.51397 0.0
C2305 C 0.89586 0.64365 0.51283 0.0
C2306 C 0.90328 0.66126 0.54941 0.0
C2307 C 0.90769 0.65816 0.65271 0.0
H2308 H 0.90466 0.68487 0.66482 0.0
C2309 C 0.91541 0.68082 0.79974 0.0
C2310 C 0.92154 0.69274 0.80019 0.0
C2311 C 0.9117 0.67491 0.76475 0.0
C2312 C 0.90567 0.67751 0.6617 0.0
H2313 H 0.88807 0.62837 0.5479 0.0
H2314 H 0.89168 0.63841 0.61038 0.0
H2315 H 0.89844 0.67391 0.60434 0.0
H2316 H 0.92846 0.70783 0.76423 0.0
H2317 H 0.92204 0.69741 0.70234 0.0
H2318 H 0.91506 0.6618 0.70968 0.0
C2319 C 0.89438 0.64329 0.58362 0.0
C2320 C 0.90206 0.6712 0.62718 0.0
C2321 C 0.89227 0.63754 0.54794 0.0
C2322 C 0.92377 0.69865 0.76472 0.0
C2323 C 0.92004 0.69268 0.7294 0.0
C2324 C 0.91131 0.66447 0.68712 0.0
C2325 C 0.90001 0.65522 0.58467 0.0
C2326 C 0.90307 0.66148 0.62227 0.0
C2327 C 0.91405 0.68073 0.72911 0.0
C2328 C 0.91035 0.67422 0.69204 0.0
H2329 H 0.90413 0.66053 0.48747 0.0
H2330 H 0.90776 0.67044 0.5492 0.0
H2331 H 0.90879 0.65085 0.64954 0.0
H2332 H 0.91348 0.67598 0.82653 0.0
H2333 H 0.90692 0.66573 0.76569 0.0
C2334 C 0.30567 0.2277 0.76846 0.0
C2335 C 0.31164 0.23104 0.80388 0.0
C2336 C 0.31156 0.23076 0.73291 0.0
C2337 C 0.33923 0.2514 0.68985 0.0
H2338 H 0.33136 0.22866 0.6094 0.0
C2339 C 0.36716 0.25909 0.55267 0.0
C2340 C 0.36123 0.25526 0.51731 0.0
C2341 C 0.36126 0.25611 0.58822 0.0
C2342 C 0.3336 0.23514 0.63145 0.0
H2343 H 0.3284 0.24032 0.82991 0.0
H2344 H 0.33855 0.24557 0.76848 0.0
H2345 H 0.32017 0.22376 0.6692 0.0
H2346 H 0.34451 0.24534 0.49142 0.0
H2347 H 0.33436 0.24032 0.5527 0.0
H2348 H 0.35263 0.2628 0.65208 0.0
C2349 C 0.32937 0.24068 0.76787 0.0
C2350 C 0.32716 0.23233 0.66561 0.0
C2351 C 0.32353 0.23758 0.80312 0.0
C2352 C 0.34937 0.24839 0.51814 0.0
C2353 C 0.34352 0.24543 0.55337 0.0
C2354 C 0.34565 0.25422 0.65565 0.0
C2355 C 0.32349 0.23729 0.73237 0.0
C2356 C 0.32992 0.24042 0.6952 0.0
C2357 C 0.34936 0.24923 0.58884 0.0
C2358 C 0.3429 0.24613 0.62603 0.0
H2359 H 0.2965 0.22265 0.76823 0.0
H2360 H 0.30681 0.22808 0.70589 0.0
H2361 H 0.34149 0.25785 0.71204 0.0
H2362 H 0.3763 0.26438 0.55287 0.0
H2363 H 0.366 0.2591 0.61517 0.0
C2364 C 0.77124 0.09179 0.80229 0.0
C2365 C 0.77609 0.08479 0.80318 0.0
C2366 C 0.76832 0.09472 0.76702 0.0
C2367 C 0.76083 0.08524 0.66595 0.0
H2368 H 0.76628 0.11578 0.64928 0.0
C2369 C 0.75349 0.09981 0.51756 0.0
C2370 C 0.74832 0.10652 0.51635 0.0
C2371 C 0.7569 0.0974 0.55282 0.0
C2372 C 0.76457 0.10719 0.65375 0.0
H2373 H 0.78179 0.07544 0.76769 0.0
H2374 H 0.77665 0.0806 0.7054 0.0
H2375 H 0.77291 0.11126 0.70923 0.0
H2376 H 0.74272 0.11606 0.55129 0.0
H2377 H 0.74868 0.11176 0.61372 0.0
H2378 H 0.75246 0.08114 0.61061 0.0
C2379 C 0.77507 0.08375 0.73232 0.0
C2380 C 0.76841 0.10461 0.68796 0.0
C2381 C 0.77805 0.08083 0.76786 0.0
C2382 C 0.74667 0.11085 0.55138 0.0
C2383 C 0.75013 0.10844 0.58699 0.0
C2384 C 0.75699 0.08782 0.63179 0.0
C2385 C 0.77015 0.09072 0.73162 0.0
C2386 C 0.76657 0.0936 0.69444 0.0
C2387 C 0.75521 0.10161 0.58798 0.0
C2388 C 0.75884 0.09883 0.62523 0.0
H2389 H 0.76955 0.09495 0.82897 0.0
H2390 H 0.76438 0.09994 0.76758 0.0
H2391 H 0.75909 0.07664 0.67041 0.0
H2392 H 0.75493 0.09634 0.49113 0.0
H2393 H 0.76098 0.09232 0.55243 0.0
C2394 C 0.70106 0.92577 0.2169 0.0
C2395 C 0.69505 0.92367 0.18173 0.0
C2396 C 0.69523 0.92266 0.25258 0.0
C2397 C 0.6678 0.91604 0.29669 0.0
H2398 H 0.67524 0.90043 0.37566 0.0
C2399 C 0.63967 0.89534 0.43303 0.0
C2400 C 0.64558 0.89736 0.4684 0.0
C2401 C 0.64559 0.89832 0.39753 0.0
C2402 C 0.67311 0.90486 0.35397 0.0
H2403 H 0.67824 0.91667 0.15631 0.0
H2404 H 0.66822 0.91127 0.21783 0.0
H2405 H 0.68642 0.90679 0.31578 0.0
H2406 H 0.66229 0.9041 0.49435 0.0
H2407 H 0.67247 0.90928 0.43309 0.0
H2408 H 0.6545 0.91413 0.33484 0.0
C2409 C 0.67739 0.9154 0.21821 0.0
C2410 C 0.67955 0.90854 0.31981 0.0
C2411 C 0.68316 0.91844 0.18286 0.0
C2412 C 0.65745 0.90235 0.46763 0.0
C2413 C 0.66331 0.90527 0.43243 0.0
C2414 C 0.66136 0.91237 0.33084 0.0
C2415 C 0.68332 0.9175 0.25348 0.0
C2416 C 0.67693 0.91414 0.29075 0.0
C2417 C 0.65749 0.90331 0.39697 0.0
C2418 C 0.66396 0.90674 0.35987 0.0
H2419 H 0.71022 0.92978 0.21683 0.0
H2420 H 0.70002 0.92441 0.27943 0.0
H2421 H 0.66566 0.92046 0.27499 0.0
H2422 H 0.63053 0.89151 0.43279 0.0
H2423 H 0.64087 0.89666 0.37055 0.0
C2424 C 0.10008 0.75314 0.46765 0.0
C2425 C 0.10753 0.74881 0.46839 0.0
C2426 C 0.09727 0.75628 0.43265 0.0
C2427 C 0.10741 0.76541 0.33321 0.0
H2428 H 0.07637 0.75816 0.31476 0.0
C2429 C 0.09162 0.77116 0.18458 0.0
C2430 C 0.08406 0.77535 0.18318 0.0
C2431 C 0.09486 0.76869 0.22006 0.0
C2432 C 0.0851 0.7604 0.31981 0.0
H2433 H 0.11782 0.74426 0.43295 0.0
H2434 H 0.11286 0.74981 0.37093 0.0
H2435 H 0.08104 0.75136 0.37388 0.0
H2436 H 0.07407 0.78042 0.21801 0.0
H2437 H 0.0797 0.77596 0.28082 0.0
H2438 H 0.11144 0.77439 0.27894 0.0
C2439 C 0.10926 0.7508 0.39783 0.0
C2440 C 0.08777 0.75646 0.35351 0.0
C2441 C 0.11205 0.74757 0.43315 0.0
C2442 C 0.07991 0.7772 0.21826 0.0
C2443 C 0.08309 0.77461 0.25406 0.0
C2444 C 0.10474 0.76935 0.29947 0.0
C2445 C 0.10184 0.7552 0.39735 0.0
C2446 C 0.09895 0.75892 0.36058 0.0
C2447 C 0.09056 0.77027 0.25517 0.0
C2448 C 0.09354 0.76685 0.29237 0.0
H2449 H 0.09642 0.75418 0.49431 0.0
H2450 H 0.09167 0.75978 0.43339 0.0
H2451 H 0.11613 0.76761 0.33819 0.0
H2452 H 0.09496 0.76958 0.15815 0.0
H2453 H 0.10047 0.7652 0.21986 0.0
C2454 C 0.23276 0.32316 0.18138 0.0
C2455 C 0.22827 0.31136 0.18036 0.0
C2456 C 0.23477 0.32887 0.21683 0.0
C2457 C 0.24104 0.32636 0.31882 0.0
H2458 H 0.23613 0.35181 0.33462 0.0
C2459 C 0.24768 0.34771 0.46763 0.0
C2460 C 0.2534 0.35962 0.46925 0.0
C2461 C 0.24426 0.34206 0.43211 0.0
C2462 C 0.23766 0.34481 0.3304 0.0
H2463 H 0.22195 0.29619 0.21564 0.0
H2464 H 0.22549 0.3062 0.2781 0.0
H2465 H 0.22982 0.34089 0.27399 0.0
H2466 H 0.25988 0.37497 0.43481 0.0
H2467 H 0.25387 0.36498 0.3719 0.0
H2468 H 0.24894 0.33027 0.37495 0.0
C2469 C 0.22753 0.31103 0.25126 0.0
C2470 C 0.23401 0.33852 0.29582 0.0
C2471 C 0.22544 0.30529 0.21559 0.0
C2472 C 0.25551 0.36579 0.43439 0.0
C2473 C 0.25203 0.36008 0.39851 0.0
C2474 C 0.24468 0.33262 0.35329 0.0
C2475 C 0.2324 0.32291 0.2522 0.0
C2476 C 0.23566 0.32922 0.28969 0.0
C2477 C 0.24646 0.34814 0.3971 0.0
C2478 C 0.243 0.34189 0.35955 0.0
H2479 H 0.235 0.3281 0.15473 0.0
H2480 H 0.23862 0.33801 0.21649 0.0
H2481 H 0.24267 0.31942 0.31464 0.0
H2482 H 0.24587 0.34267 0.49392 0.0
H2483 H 0.23982 0.33288 0.43211 0.0
C2484 C 0.03399 0.44243 0.88789 0.0
C2485 C 0.02805 0.44131 0.85314 0.0
C2486 C 0.02817 0.43919 0.9236 0.0
C2487 C 1.00141 0.43362 0.9707 0.0
H2488 H 0.00643 0.41396 0.03954 0.0
C2489 C 0.97209 0.41085 0.10233 0.0
C2490 C 0.9778 0.41156 0.13722 0.0
C2491 C 0.97806 0.41409 0.06694 0.0
C2492 C 0.00498 0.41951 0.02073 0.0
H2493 H 0.01144 0.43615 0.82867 0.0
H2494 H 1.00149 0.4307 0.89022 0.0
H2495 H 0.01804 0.42159 0.981 0.0
H2496 H 0.99407 0.41575 0.16242 0.0
H2497 H 0.00437 0.42136 0.10136 0.0
H2498 H 0.98838 0.43157 0.01039 0.0
C2499 C 0.01058 0.43409 0.89024 0.0
C2500 C 0.01168 0.42393 0.98738 0.0
C2501 C 0.01631 0.43718 0.85484 0.0
C2502 C 0.98943 0.41516 0.136 0.0
C2503 C 0.99534 0.41831 0.10091 0.0
C2504 C 0.99473 0.42922 0.00407 0.0
C2505 C 0.01639 0.43496 0.92497 0.0
C2506 C 0.00993 0.43099 0.96195 0.0
C2507 C 0.98979 0.41796 0.06604 0.0
C2508 C 0.99644 0.42211 0.02943 0.0
H2509 H 0.04303 0.44557 0.8874 0.0
H2510 H 0.03286 0.44 0.95008 0.0
H2511 H 0.99994 0.43913 0.95177 0.0
H2512 H 0.96313 0.40811 0.10253 0.0
H2513 H 0.97354 0.41364 0.04038 0.0
C2514 C 0.59546 0.56325 0.1007 0.0
C2515 C 0.58854 0.56092 0.13372 0.0
C2516 C 0.59236 0.56605 0.06516 0.0
C2517 C 0.56829 0.56261 0.00871 0.0
H2518 H 0.5883 0.59227 0.96411 0.0
C2519 C 0.5638 0.5766 0.85436 0.0
C2520 C 0.56355 0.58676 0.85129 0.0
C2521 C 0.56624 0.5733 0.88981 0.0
C2522 C 0.58263 0.58401 0.9765 0.0
H2523 H 0.57276 0.5592 0.15508 0.0
H2524 H 0.56717 0.56355 0.09307 0.0
H2525 H 0.59428 0.58604 0.02226 0.0
H2526 H 0.56557 0.60143 0.88294 0.0
H2527 H 0.57028 0.59577 0.94542 0.0
H2528 H 0.55674 0.56046 0.96259 0.0
C2529 C 0.57505 0.56343 0.09472 0.0
C2530 C 0.5861 0.5804 0.00928 0.0
C2531 C 0.57828 0.56095 0.13023 0.0
C2532 C 0.56565 0.59352 0.88464 0.0
C2533 C 0.5684 0.59034 0.92014 0.0
C2534 C 0.56493 0.56612 0.97555 0.0
C2535 C 0.58215 0.56622 0.06211 0.0
C2536 C 0.57893 0.56969 0.02568 0.0
C2537 C 0.56874 0.58021 0.9228 0.0
C2538 C 0.57204 0.57686 0.95932 0.0
H2539 H 0.60346 0.56336 0.10277 0.0
H2540 H 0.59793 0.56815 0.04019 0.0
H2541 H 0.56261 0.55434 0.02106 0.0
H2542 H 0.56224 0.5712 0.82928 0.0
H2543 H 0.56651 0.56548 0.89116 0.0
C2544 C 0.44397 0.03067 0.09979 0.0
C2545 C 0.44027 0.02487 0.13544 0.0
C2546 C 0.44158 0.02458 0.06471 0.0
C2547 C 0.42172 0.99638 0.0232 0.0
H2548 H 0.44401 0.00537 0.94063 0.0
C2549 C 0.41417 0.9695 0.88312 0.0
C2550 C 0.41716 0.97575 0.84825 0.0
C2551 C 0.41735 0.97512 0.91918 0.0
C2552 C 0.43769 0.00278 0.96341 0.0
H2553 H 0.43137 0.0082 0.16237 0.0
H2554 H 0.42744 0.99774 0.10189 0.0
H2555 H 0.44892 0.01638 0.00091 0.0
H2556 H 0.42576 0.99276 0.82381 0.0
H2557 H 0.4312 0.00241 0.88602 0.0
H2558 H 0.41047 0.98283 0.98562 0.0
C2559 C 0.43196 0.00692 0.10065 0.0
C2560 C 0.44048 0.00912 -0.00219 0.0
C2561 C 0.43431 0.01295 0.13542 0.0
C2562 C 0.42338 0.98766 0.85008 0.0
C2563 C 0.42658 0.99322 0.8858 0.0
C2564 C 0.41893 0.99003 0.98884 0.0
C2565 C 0.43545 0.01263 0.06485 0.0
C2566 C 0.43251 0.00602 0.02803 0.0
C2567 C 0.42362 0.98705 0.92076 0.0
C2568 C 0.42685 0.99322 0.95846 0.0
H2569 H 0.44858 0.03985 0.09898 0.0
H2570 H 0.44432 0.02922 0.03748 0.0
H2571 H 0.41533 0.99385 0.04575 0.0
H2572 H 0.40938 0.96032 0.88255 0.0
H2573 H 0.41498 0.97015 0.94577 0.0
C2574 C 0.56992 0.99043 0.85199 0.0
C2575 C 0.56474 0.97855 0.85021 0.0
C2576 C 0.57135 0.99592 0.88752 0.0
C2577 C 0.57474 0.99269 0.99106 0.0
H2578 H 0.57037 0.01865 0.00159 0.0
C2579 C 0.58065 0.01487 0.13758 0.0
C2580 C 0.58661 0.02679 0.13832 0.0
C2581 C 0.57718 0.00902 0.10247 0.0
C2582 C 0.57174 0.01149 -0.00108 0.0
H2583 H 0.55682 0.96307 0.88424 0.0
H2584 H 0.55946 0.97276 0.94711 0.0
H2585 H 0.56498 0.00773 0.9409 0.0
H2586 H 0.59341 0.04195 0.10275 0.0
H2587 H 0.58743 0.03162 0.04051 0.0
H2588 H 0.58168 0.99652 0.0486 0.0
C2589 C 0.56239 0.97777 0.92066 0.0
C2590 C 0.5686 0.00521 0.96432 0.0
C2591 C 0.56086 0.97223 0.88481 0.0
C2592 C 0.58884 0.03277 0.103 0.0
C2593 C 0.58538 0.02686 0.06751 0.0
C2594 C 0.5779 0.99897 0.02553 0.0
C2595 C 0.56771 0.98969 0.92228 0.0
C2596 C 0.57012 0.99577 0.96001 0.0
C2597 C 0.57965 0.01491 0.06698 0.0
C2598 C 0.57644 0.00845 0.02985 0.0
H2599 H 0.57305 0.99558 0.82593 0.0
H2600 H 0.57564 0.0051 0.88784 0.0
H2601 H 0.57623 0.98561 0.98829 0.0
H2602 H 0.57872 0.00997 0.16422 0.0
H2603 H 0.57257 0.99984 0.10318 0.0
C2604 C 0.01702 0.58949 0.85268 0.0
C2605 C 0.02866 0.59319 0.85114 0.0
C2606 C 0.01123 0.58658 0.88805 0.0
C2607 C 0.01237 0.57652 0.98606 0.0
H2608 H 0.98848 0.58343 0.00746 0.0
C2609 C 0.99013 0.56806 0.13462 0.0
C2610 C 0.97832 0.56357 0.13552 0.0
C2611 C 0.99606 0.5714 0.09958 0.0
C2612 C 0.99502 0.58131 0.00161 0.0
H2613 H 0.0435 0.59707 0.88559 0.0
H2614 H 0.03332 0.59197 0.94821 0.0
H2615 H 1.00003 0.59098 0.94877 0.0
H2616 H 0.96345 0.55898 0.1002 0.0
H2617 H 0.97394 0.56496 0.03824 0.0
H2618 H 0.00738 0.56689 0.03901 0.0
C2619 C 0.02868 0.59125 0.92168 0.0
C2620 C 1.00168 0.58568 0.96814 0.0
C2621 C 0.03453 0.59425 0.88601 0.0
C2622 C 0.97254 0.56239 0.10035 0.0
C2623 C 0.97854 0.56586 0.06503 0.0
C2624 C 0.00574 0.57218 0.01958 0.0
C2625 C 0.01693 0.58727 0.92294 0.0
C2626 C 0.01041 0.5833 0.9599 0.0
C2627 C 0.99038 0.57043 0.06442 0.0
C2628 C 0.99699 0.57453 0.02771 0.0
H2629 H 0.01226 0.58862 0.8263 0.0
H2630 H 1.00219 0.58342 0.88781 0.0
H2631 H 0.01887 0.57435 0.98019 0.0
H2632 H 0.99489 0.56915 0.16114 0.0
H2633 H 0.00518 0.57504 0.1002 0.0
C2634 C 0.44506 0.41365 0.10164 0.0
C2635 C 0.44098 0.41549 0.13689 0.0
C2636 C 0.44218 0.41668 0.06608 0.0
C2637 C 0.421 0.42277 0.02181 0.0
H2638 H 0.44441 0.4397 0.94524 0.0
C2639 C 0.4131 0.44333 0.88622 0.0
C2640 C 0.41709 0.44138 0.85094 0.0
C2641 C 0.4163 0.44068 0.92185 0.0
C2642 C 0.43777 0.43492 0.96627 0.0
H2643 H 0.43055 0.42172 0.1626 0.0
H2644 H 0.42561 0.42695 0.10123 0.0
H2645 H 0.44915 0.43308 0.00472 0.0
H2646 H 0.42773 0.43537 0.82537 0.0
H2647 H 0.43324 0.43083 0.88683 0.0
H2648 H 0.40961 0.42458 0.98338 0.0
C2649 C 0.43095 0.42314 0.10071 0.0
C2650 C 0.44048 0.43108 0.00018 0.0
C2651 C 0.43387 0.42022 0.13594 0.0
C2652 C 0.42451 0.43702 0.85198 0.0
C2653 C 0.42775 0.43446 0.88731 0.0
C2654 C 0.41829 0.42661 0.98792 0.0
C2655 C 0.43509 0.42146 0.06539 0.0
C2656 C 0.43213 0.42498 0.02833 0.0
C2657 C 0.42362 0.43615 0.92263 0.0
C2658 C 0.42664 0.43271 0.95976 0.0
H2659 H 0.45056 0.41003 0.10159 0.0
H2660 H 0.44545 0.41524 0.03918 0.0
H2661 H 0.41435 0.41798 0.04282 0.0
H2662 H 0.40738 0.44669 0.88625 0.0
H2663 H 0.41305 0.44214 0.94874 0.0
loop_
_geom_bond_atom_site_label_1
_geom_bond_atom_site_label_2
_geom_bond_distance
_geom_bond_site_symmetry_2
_ccdc_geom_bond_type
Co0 O1 2.216 . S
Co0 O2 2.091 . S
Co0 O4 2.004 . S
Co0 O10 2.021 . S
Co0 O12 2.137 . S
Co0 O13 2.244 . S
O1 Co0 2.216 . S
O1 C8 1.247 . S
O2 Co0 2.091 . S
O2 C8 1.261 . S
C3 O12 1.247 . S
C3 O13 1.272 . S
O4 Co0 2.004 . S
O4 C9 1.259 . S
Co5 O6 2.061 . S
Co5 O11 2.052 . S
Co5 O13 2.135 . S
O6 Co5 2.061 . S
O6 C9 1.235 . S
C7 O10 1.238 . S
C7 O11 1.241 . S
C8 O1 1.247 . S
C8 O2 1.261 . S
C9 O4 1.259 . S
C9 O6 1.235 . S
O10 Co0 2.021 . S
O10 C7 1.238 . S
O11 Co5 2.052 . S
O11 C7 1.241 . S
O12 Co0 2.137 . S
O12 C3 1.247 . S
O13 Co0 2.244 . S
O13 C3 1.272 . S
O13 Co5 2.135 . S
Co14 O15 2.216 . S
Co14 O16 2.091 . S
Co14 O18 2.004 . S
Co14 O24 2.021 . S
Co14 O26 2.137 . S
Co14 O27 2.244 . S
O15 Co14 2.216 . S
O15 C22 1.247 . S
O16 Co14 2.091 . S
O16 C22 1.261 . S
C17 O26 1.247 . S
C17 O27 1.272 . S
O18 Co14 2.004 . S
O18 C23 1.259 . S
Co19 O20 2.061 . S
Co19 O25 2.052 . S
Co19 O27 2.135 . S
O20 Co19 2.061 . S
O20 C23 1.235 . S
C21 O24 1.238 . S
C21 O25 1.241 . S
C22 O15 1.247 . S
C22 O16 1.261 . S
C23 O18 1.259 . S
C23 O20 1.235 . S
O24 Co14 2.021 . S
O24 C21 1.238 . S
O25 Co19 2.052 . S
O25 C21 1.241 . S
O26 Co14 2.137 . S
O26 C17 1.247 . S
O27 Co14 2.244 . S
O27 C17 1.272 . S
O27 Co19 2.135 . S
Co28 O29 2.216 . S
Co28 O30 2.091 . S
Co28 O32 2.004 . S
Co28 O38 2.021 . S
Co28 O40 2.137 . S
Co28 O41 2.244 . S
O29 Co28 2.216 . S
O29 C36 1.247 . S
O30 Co28 2.091 . S
O30 C36 1.261 . S
C31 O40 1.247 . S
C31 O41 1.272 . S
O32 Co28 2.004 . S
O32 C37 1.259 . S
Co33 O34 2.061 . S
Co33 O39 2.052 . S
Co33 O41 2.135 . S
O34 Co33 2.061 . S
O34 C37 1.235 . S
C35 O38 1.238 . S
C35 O39 1.241 . S
C36 O29 1.247 . S
C36 O30 1.261 . S
C37 O32 1.259 . S
C37 O34 1.235 . S
O38 Co28 2.021 . S
O38 C35 1.238 . S
O39 Co33 2.052 . S
O39 C35 1.241 . S
O40 Co28 2.137 . S
O40 C31 1.247 . S
O41 Co28 2.244 . S
O41 C31 1.272 . S
O41 Co33 2.135 . S
Co42 O43 2.216 . S
Co42 O44 2.091 . S
Co42 O46 2.004 . S
Co42 O52 2.021 . S
Co42 O54 2.137 . S
Co42 O55 2.244 . S
O43 Co42 2.216 . S
O43 C50 1.247 . S
O44 Co42 2.091 . S
O44 C50 1.261 . S
C45 O54 1.247 . S
C45 O55 1.272 . S
O46 Co42 2.004 . S
O46 C51 1.259 . S
Co47 O48 2.061 . S
Co47 O53 2.052 . S
Co47 O55 2.135 . S
O48 Co47 2.061 . S
O48 C51 1.235 . S
C49 O52 1.238 . S
C49 O53 1.241 . S
C50 O43 1.247 . S
C50 O44 1.261 . S
C51 O46 1.259 . S
C51 O48 1.235 . S
O52 Co42 2.021 . S
O52 C49 1.238 . S
O53 Co47 2.052 . S
O53 C49 1.241 . S
O54 Co42 2.137 . S
O54 C45 1.247 . S
O55 Co42 2.244 . S
O55 C45 1.272 . S
O55 Co47 2.135 . S
Co56 O57 2.216 . S
Co56 O58 2.091 . S
Co56 O60 2.004 . S
Co56 O66 2.021 . S
Co56 O68 2.137 . S
Co56 O69 2.244 . S
O57 Co56 2.216 . S
O57 C64 1.247 . S
O58 Co56 2.091 . S
O58 C64 1.261 . S
C59 O68 1.247 . S
C59 O69 1.272 . S
O60 Co56 2.004 . S
O60 C65 1.259 . S
Co61 O62 2.061 . S
Co61 O67 2.052 . S
Co61 O69 2.135 . S
O62 Co61 2.061 . S
O62 C65 1.235 . S
C63 O66 1.238 . S
C63 O67 1.241 . S
C64 O57 1.247 . S
C64 O58 1.261 . S
C65 O60 1.259 . S
C65 O62 1.235 . S
O66 Co56 2.021 . S
O66 C63 1.238 . S
O67 Co61 2.052 . S
O67 C63 1.241 . S
O68 Co56 2.137 . S
O68 C59 1.247 . S
O69 Co56 2.244 . S
O69 C59 1.272 . S
O69 Co61 2.135 . S
Co70 O71 2.216 . S
Co70 O72 2.091 . S
Co70 O74 2.004 . S
Co70 O80 2.021 . S
Co70 O82 2.137 . S
Co70 O83 2.244 . S
O71 Co70 2.216 . S
O71 C78 1.247 . S
O72 Co70 2.091 . S
O72 C78 1.261 . S
C73 O82 1.247 . S
C73 O83 1.272 . S
O74 Co70 2.004 . S
O74 C79 1.259 . S
Co75 O76 2.061 . S
Co75 O81 2.052 . S
Co75 O83 2.135 . S
O76 Co75 2.061 . S
O76 C79 1.235 . S
C77 O80 1.238 . S
C77 O81 1.241 . S
C78 O71 1.247 . S
C78 O72 1.261 . S
C79 O74 1.259 . S
C79 O76 1.235 . S
O80 Co70 2.021 . S
O80 C77 1.238 . S
O81 Co75 2.052 . S
O81 C77 1.241 . S
O82 Co70 2.137 . S
O82 C73 1.247 . S
O83 Co70 2.244 . S
O83 C73 1.272 . S
O83 Co75 2.135 . S
Co84 O85 2.216 . S
Co84 O86 2.091 . S
Co84 O88 2.004 . S
Co84 O94 2.021 . S
Co84 O96 2.137 . S
Co84 O97 2.244 . S
O85 Co84 2.216 . S
O85 C92 1.247 . S
O86 Co84 2.091 . S
O86 C92 1.261 . S
C87 O96 1.247 . S
C87 O97 1.272 . S
O88 Co84 2.004 . S
O88 C93 1.259 . S
Co89 O90 2.061 . S
Co89 O95 2.052 . S
Co89 O97 2.135 . S
O90 Co89 2.061 . S
O90 C93 1.235 . S
C91 O94 1.238 . S
C91 O95 1.241 . S
C92 O85 1.247 . S
C92 O86 1.261 . S
C93 O88 1.259 . S
C93 O90 1.235 . S
O94 Co84 2.021 . S
O94 C91 1.238 . S
O95 Co89 2.052 . S
O95 C91 1.241 . S
O96 Co84 2.137 . S
O96 C87 1.247 . S
O97 Co84 2.244 . S
O97 C87 1.272 . S
O97 Co89 2.135 . S
Co98 O99 2.216 . S
Co98 O100 2.091 . S
Co98 O102 2.004 . S
Co98 O108 2.021 . S
Co98 O110 2.137 . S
Co98 O111 2.244 . S
O99 Co98 2.216 . S
O99 C106 1.247 . S
O100 Co98 2.091 . S
O100 C106 1.261 . S
C101 O110 1.247 . S
C101 O111 1.272 . S
O102 Co98 2.004 . S
O102 C107 1.259 . S
Co103 O104 2.061 . S
Co103 O109 2.052 . S
Co103 O111 2.135 . S
O104 Co103 2.061 . S
O104 C107 1.235 . S
C105 O108 1.238 . S
C105 O109 1.241 . S
C106 O99 1.247 . S
C106 O100 1.261 . S
C107 O102 1.259 . S
C107 O104 1.235 . S
O108 Co98 2.021 . S
O108 C105 1.238 . S
O109 Co103 2.052 . S
O109 C105 1.241 . S
O110 Co98 2.137 . S
O110 C101 1.247 . S
O111 Co98 2.244 . S
O111 C101 1.272 . S
O111 Co103 2.135 . S
Co112 O113 2.216 . S
Co112 O114 2.091 . S
Co112 O116 2.004 . S
Co112 O122 2.021 . S
Co112 O124 2.137 . S
Co112 O125 2.244 . S
O113 Co112 2.216 . S
O113 C120 1.247 . S
O114 Co112 2.091 . S
O114 C120 1.261 . S
C115 O124 1.247 . S
C115 O125 1.272 . S
O116 Co112 2.004 . S
O116 C121 1.259 . S
Co117 O118 2.061 . S
Co117 O123 2.052 . S
Co117 O125 2.135 . S
O118 Co117 2.061 . S
O118 C121 1.235 . S
C119 O122 1.238 . S
C119 O123 1.241 . S
C120 O113 1.247 . S
C120 O114 1.261 . S
C121 O116 1.259 . S
C121 O118 1.235 . S
O122 Co112 2.021 . S
O122 C119 1.238 . S
O123 Co117 2.052 . S
O123 C119 1.241 . S
O124 Co112 2.137 . S
O124 C115 1.247 . S
O125 Co112 2.244 . S
O125 C115 1.272 . S
O125 Co117 2.135 . S
Co126 O127 2.216 . S
Co126 O128 2.091 . S
Co126 O130 2.004 . S
Co126 O136 2.021 . S
Co126 O138 2.137 . S
Co126 O139 2.244 . S
O127 Co126 2.216 . S
O127 C134 1.247 . S
O128 Co126 2.091 . S
O128 C134 1.261 . S
C129 O138 1.247 . S
C129 O139 1.272 . S
O130 Co126 2.004 . S
O130 C135 1.259 . S
Co131 O132 2.061 . S
Co131 O137 2.052 . S
Co131 O139 2.135 . S
O132 Co131 2.061 . S
O132 C135 1.235 . S
C133 O136 1.238 . S
C133 O137 1.241 . S
C134 O127 1.247 . S
C134 O128 1.261 . S
C135 O130 1.259 . S
C135 O132 1.235 . S
O136 Co126 2.021 . S
O136 C133 1.238 . S
O137 Co131 2.052 . S
O137 C133 1.241 . S
O138 Co126 2.137 . S
O138 C129 1.247 . S
O139 Co126 2.244 . S
O139 C129 1.272 . S
O139 Co131 2.135 . S
Co140 O141 2.216 . S
Co140 O142 2.091 . S
Co140 O144 2.004 . S
Co140 O150 2.021 . S
Co140 O152 2.137 . S
Co140 O153 2.244 . S
O141 Co140 2.216 . S
O141 C148 1.247 . S
O142 Co140 2.091 . S
O142 C148 1.261 . S
C143 O152 1.247 . S
C143 O153 1.272 . S
O144 Co140 2.004 . S
O144 C149 1.259 . S
Co145 O146 2.061 . S
Co145 O151 2.052 . S
Co145 O153 2.135 . S
O146 Co145 2.061 . S
O146 C149 1.235 . S
C147 O150 1.238 . S
C147 O151 1.241 . S
C148 O141 1.247 . S
C148 O142 1.261 . S
C149 O144 1.259 . S
C149 O146 1.235 . S
O150 Co140 2.021 . S
O150 C147 1.238 . S
O151 Co145 2.052 . S
O151 C147 1.241 . S
O152 Co140 2.137 . S
O152 C143 1.247 . S
O153 Co140 2.244 . S
O153 C143 1.272 . S
O153 Co145 2.135 . S
Co154 O155 2.216 . S
Co154 O156 2.091 . S
Co154 O158 2.004 . S
Co154 O164 2.021 . S
Co154 O166 2.137 . S
Co154 O167 2.244 . S
O155 Co154 2.216 . S
O155 C162 1.247 . S
O156 Co154 2.091 . S
O156 C162 1.261 . S
C157 O166 1.247 . S
C157 O167 1.272 . S
O158 Co154 2.004 . S
O158 C163 1.259 . S
Co159 O160 2.061 . S
Co159 O165 2.052 . S
Co159 O167 2.135 . S
O160 Co159 2.061 . S
O160 C163 1.235 . S
C161 O164 1.238 . S
C161 O165 1.241 . S
C162 O155 1.247 . S
C162 O156 1.261 . S
C163 O158 1.259 . S
C163 O160 1.235 . S
O164 Co154 2.021 . S
O164 C161 1.238 . S
O165 Co159 2.052 . S
O165 C161 1.241 . S
O166 Co154 2.137 . S
O166 C157 1.247 . S
O167 Co154 2.244 . S
O167 C157 1.272 . S
O167 Co159 2.135 . S
Co168 O169 2.216 . S
Co168 O170 2.091 . S
Co168 O172 2.004 . S
Co168 O178 2.021 . S
Co168 O180 2.137 . S
Co168 O181 2.244 . S
O169 Co168 2.216 . S
O169 C176 1.247 . S
O170 Co168 2.091 . S
O170 C176 1.261 . S
C171 O180 1.247 . S
C171 O181 1.272 . S
O172 Co168 2.004 . S
O172 C177 1.259 . S
Co173 O174 2.061 . S
Co173 O179 2.052 . S
Co173 O181 2.135 . S
O174 Co173 2.061 . S
O174 C177 1.235 . S
C175 O178 1.238 . S
C175 O179 1.241 . S
C176 O169 1.247 . S
C176 O170 1.261 . S
C177 O172 1.259 . S
C177 O174 1.235 . S
O178 Co168 2.021 . S
O178 C175 1.238 . S
O179 Co173 2.052 . S
O179 C175 1.241 . S
O180 Co168 2.137 . S
O180 C171 1.247 . S
O181 Co168 2.244 . S
O181 C171 1.272 . S
O181 Co173 2.135 . S
Co182 O183 2.216 . S
Co182 O184 2.091 . S
Co182 O186 2.004 . S
Co182 O192 2.021 . S
Co182 O194 2.137 . S
Co182 O195 2.244 . S
O183 Co182 2.216 . S
O183 C190 1.247 . S
O184 Co182 2.091 . S
O184 C190 1.261 . S
C185 O194 1.247 . S
C185 O195 1.272 . S
O186 Co182 2.004 . S
O186 C191 1.259 . S
Co187 O188 2.061 . S
Co187 O193 2.052 . S
Co187 O195 2.135 . S
O188 Co187 2.061 . S
O188 C191 1.235 . S
C189 O192 1.238 . S
C189 O193 1.241 . S
C190 O183 1.247 . S
C190 O184 1.261 . S
C191 O186 1.259 . S
C191 O188 1.235 . S
O192 Co182 2.021 . S
O192 C189 1.238 . S
O193 Co187 2.052 . S
O193 C189 1.241 . S
O194 Co182 2.137 . S
O194 C185 1.247 . S
O195 Co182 2.244 . S
O195 C185 1.272 . S
O195 Co187 2.135 . S
Co196 O197 2.216 . S
Co196 O198 2.091 . S
Co196 O200 2.004 . S
Co196 O206 2.021 . S
Co196 O208 2.137 . S
Co196 O209 2.244 . S
O197 Co196 2.216 . S
O197 C204 1.247 . S
O198 Co196 2.091 . S
O198 C204 1.261 . S
C199 O208 1.247 . S
C199 O209 1.272 . S
O200 Co196 2.004 . S
O200 C205 1.259 . S
Co201 O202 2.061 . S
Co201 O207 2.052 . S
Co201 O209 2.135 . S
O202 Co201 2.061 . S
O202 C205 1.235 . S
C203 O206 1.238 . S
C203 O207 1.241 . S
C204 O197 1.247 . S
C204 O198 1.261 . S
C205 O200 1.259 . S
C205 O202 1.235 . S
O206 Co196 2.021 . S
O206 C203 1.238 . S
O207 Co201 2.052 . S
O207 C203 1.241 . S
O208 Co196 2.137 . S
O208 C199 1.247 . S
O209 Co196 2.244 . S
O209 C199 1.272 . S
O209 Co201 2.135 . S
Co210 O211 2.216 . S
Co210 O212 2.091 . S
Co210 O214 2.004 . S
Co210 O220 2.021 . S
Co210 O222 2.137 . S
Co210 O223 2.244 . S
O211 Co210 2.216 . S
O211 C218 1.247 . S
O212 Co210 2.091 . S
O212 C218 1.261 . S
C213 O222 1.247 . S
C213 O223 1.272 . S
O214 Co210 2.004 . S
O214 C219 1.259 . S
Co215 O216 2.061 . S
Co215 O221 2.052 . S
Co215 O223 2.135 . S
O216 Co215 2.061 . S
O216 C219 1.235 . S
C217 O220 1.238 . S
C217 O221 1.241 . S
C218 O211 1.247 . S
C218 O212 1.261 . S
C219 O214 1.259 . S
C219 O216 1.235 . S
O220 Co210 2.021 . S
O220 C217 1.238 . S
O221 Co215 2.052 . S
O221 C217 1.241 . S
O222 Co210 2.137 . S
O222 C213 1.247 . S
O223 Co210 2.244 . S
O223 C213 1.272 . S
O223 Co215 2.135 . S
Co224 O225 2.216 . S
Co224 O226 2.091 . S
Co224 O228 2.004 . S
Co224 O234 2.021 . S
Co224 O236 2.137 . S
Co224 O237 2.244 . S
O225 Co224 2.216 . S
O225 C232 1.247 . S
O226 Co224 2.091 . S
O226 C232 1.261 . S
C227 O236 1.247 . S
C227 O237 1.272 . S
O228 Co224 2.004 . S
O228 C233 1.259 . S
Co229 O230 2.061 . S
Co229 O235 2.052 . S
Co229 O237 2.135 . S
O230 Co229 2.061 . S
O230 C233 1.235 . S
C231 O234 1.238 . S
C231 O235 1.241 . S
C232 O225 1.247 . S
C232 O226 1.261 . S
C233 O228 1.259 . S
C233 O230 1.235 . S
O234 Co224 2.021 . S
O234 C231 1.238 . S
O235 Co229 2.052 . S
O235 C231 1.241 . S
O236 Co224 2.137 . S
O236 C227 1.247 . S
O237 Co224 2.244 . S
O237 C227 1.272 . S
O237 Co229 2.135 . S
Co238 O239 2.216 . S
Co238 O240 2.091 . S
Co238 O242 2.004 . S
Co238 O248 2.021 . S
Co238 O250 2.137 . S
Co238 O251 2.244 . S
O239 Co238 2.216 . S
O239 C246 1.247 . S
O240 Co238 2.091 . S
O240 C246 1.261 . S
C241 O250 1.247 . S
C241 O251 1.272 . S
O242 Co238 2.004 . S
O242 C247 1.259 . S
Co243 O244 2.061 . S
Co243 O249 2.052 . S
Co243 O251 2.135 . S
O244 Co243 2.061 . S
O244 C247 1.235 . S
C245 O248 1.238 . S
C245 O249 1.241 . S
C246 O239 1.247 . S
C246 O240 1.261 . S
C247 O242 1.259 . S
C247 O244 1.235 . S
O248 Co238 2.021 . S
O248 C245 1.238 . S
O249 Co243 2.052 . S
O249 C245 1.241 . S
O250 Co238 2.137 . S
O250 C241 1.247 . S
O251 Co238 2.244 . S
O251 C241 1.272 . S
O251 Co243 2.135 . S
Co252 O253 2.216 . S
Co252 O254 2.091 . S
Co252 O256 2.004 . S
Co252 O262 2.021 . S
Co252 O264 2.137 . S
Co252 O265 2.244 . S
O253 Co252 2.216 . S
O253 C260 1.247 . S
O254 Co252 2.091 . S
O254 C260 1.261 . S
C255 O264 1.247 . S
C255 O265 1.272 . S
O256 Co252 2.004 . S
O256 C261 1.259 . S
Co257 O258 2.061 . S
Co257 O263 2.052 . S
Co257 O265 2.135 . S
O258 Co257 2.061 . S
O258 C261 1.235 . S
C259 O262 1.238 . S
C259 O263 1.241 . S
C260 O253 1.247 . S
C260 O254 1.261 . S
C261 O256 1.259 . S
C261 O258 1.235 . S
O262 Co252 2.021 . S
O262 C259 1.238 . S
O263 Co257 2.052 . S
O263 C259 1.241 . S
O264 Co252 2.137 . S
O264 C255 1.247 . S
O265 Co252 2.244 . S
O265 C255 1.272 . S
O265 Co257 2.135 . S
Co266 O267 2.216 . S
Co266 O268 2.091 . S
Co266 O270 2.004 . S
Co266 O276 2.021 . S
Co266 O278 2.137 . S
Co266 O279 2.244 . S
O267 Co266 2.216 . S
O267 C274 1.247 . S
O268 Co266 2.091 . S
O268 C274 1.261 . S
C269 O278 1.247 . S
C269 O279 1.272 . S
O270 Co266 2.004 . S
O270 C275 1.259 . S
Co271 O272 2.061 . S
Co271 O277 2.052 . S
Co271 O279 2.135 . S
O272 Co271 2.061 . S
O272 C275 1.235 . S
C273 O276 1.238 . S
C273 O277 1.241 . S
C274 O267 1.247 . S
C274 O268 1.261 . S
C275 O270 1.259 . S
C275 O272 1.235 . S
O276 Co266 2.021 . S
O276 C273 1.238 . S
O277 Co271 2.052 . S
O277 C273 1.241 . S
O278 Co266 2.137 . S
O278 C269 1.247 . S
O279 Co266 2.244 . S
O279 C269 1.272 . S
O279 Co271 2.135 . S
Co280 O281 2.216 . S
Co280 O282 2.091 . S
Co280 O284 2.004 . S
Co280 O290 2.021 . S
Co280 O292 2.137 . S
Co280 O293 2.244 . S
O281 Co280 2.216 . S
O281 C288 1.247 . S
O282 Co280 2.091 . S
O282 C288 1.261 . S
C283 O292 1.247 . S
C283 O293 1.272 . S
O284 Co280 2.004 . S
O284 C289 1.259 . S
Co285 O286 2.061 . S
Co285 O291 2.052 . S
Co285 O293 2.135 . S
O286 Co285 2.061 . S
O286 C289 1.235 . S
C287 O290 1.238 . S
C287 O291 1.241 . S
C288 O281 1.247 . S
C288 O282 1.261 . S
C289 O284 1.259 . S
C289 O286 1.235 . S
O290 Co280 2.021 . S
O290 C287 1.238 . S
O291 Co285 2.052 . S
O291 C287 1.241 . S
O292 Co280 2.137 . S
O292 C283 1.247 . S
O293 Co280 2.244 . S
O293 C283 1.272 . S
O293 Co285 2.135 . S
Co294 O295 2.216 . S
Co294 O296 2.091 . S
Co294 O298 2.004 . S
Co294 O304 2.021 . S
Co294 O306 2.137 . S
Co294 O307 2.244 . S
O295 Co294 2.216 . S
O295 C302 1.247 . S
O296 Co294 2.091 . S
O296 C302 1.261 . S
C297 O306 1.247 . S
C297 O307 1.272 . S
O298 Co294 2.004 . S
O298 C303 1.259 . S
Co299 O300 2.061 . S
Co299 O305 2.052 . S
Co299 O307 2.135 . S
O300 Co299 2.061 . S
O300 C303 1.235 . S
C301 O304 1.238 . S
C301 O305 1.241 . S
C302 O295 1.247 . S
C302 O296 1.261 . S
C303 O298 1.259 . S
C303 O300 1.235 . S
O304 Co294 2.021 . S
O304 C301 1.238 . S
O305 Co299 2.052 . S
O305 C301 1.241 . S
O306 Co294 2.137 . S
O306 C297 1.247 . S
O307 Co294 2.244 . S
O307 C297 1.272 . S
O307 Co299 2.135 . S
Co308 O309 2.216 . S
Co308 O310 2.091 . S
Co308 O312 2.004 . S
Co308 O318 2.021 . S
Co308 O320 2.137 . S
Co308 O321 2.244 . S
O309 Co308 2.216 . S
O309 C316 1.247 . S
O310 Co308 2.091 . S
O310 C316 1.261 . S
C311 O320 1.247 . S
C311 O321 1.272 . S
O312 Co308 2.004 . S
O312 C317 1.259 . S
Co313 O314 2.061 . S
Co313 O319 2.052 . S
Co313 O321 2.135 . S
O314 Co313 2.061 . S
O314 C317 1.235 . S
C315 O318 1.238 . S
C315 O319 1.241 . S
C316 O309 1.247 . S
C316 O310 1.261 . S
C317 O312 1.259 . S
C317 O314 1.235 . S
O318 Co308 2.021 . S
O318 C315 1.238 . S
O319 Co313 2.052 . S
O319 C315 1.241 . S
O320 Co308 2.137 . S
O320 C311 1.247 . S
O321 Co308 2.244 . S
O321 C311 1.272 . S
O321 Co313 2.135 . S
Co322 O323 2.216 . S
Co322 O324 2.091 . S
Co322 O326 2.004 . S
Co322 O332 2.021 . S
Co322 O334 2.137 . S
Co322 O335 2.244 . S
O323 Co322 2.216 . S
O323 C330 1.247 . S
O324 Co322 2.091 . S
O324 C330 1.261 . S
C325 O334 1.247 . S
C325 O335 1.272 . S
O326 Co322 2.004 . S
O326 C331 1.259 . S
Co327 O328 2.061 . S
Co327 O333 2.052 . S
Co327 O335 2.135 . S
O328 Co327 2.061 . S
O328 C331 1.235 . S
C329 O332 1.238 . S
C329 O333 1.241 . S
C330 O323 1.247 . S
C330 O324 1.261 . S
C331 O326 1.259 . S
C331 O328 1.235 . S
O332 Co322 2.021 . S
O332 C329 1.238 . S
O333 Co327 2.052 . S
O333 C329 1.241 . S
O334 Co322 2.137 . S
O334 C325 1.247 . S
O335 Co322 2.244 . S
O335 C325 1.272 . S
O335 Co327 2.135 . S
Co336 O337 2.216 . S
Co336 O338 2.091 . S
Co336 O340 2.004 . S
Co336 O346 2.021 . S
Co336 O348 2.137 . S
Co336 O349 2.244 . S
O337 Co336 2.216 . S
O337 C344 1.247 . S
O338 Co336 2.091 . S
O338 C344 1.261 . S
C339 O348 1.247 . S
C339 O349 1.272 . S
O340 Co336 2.004 . S
O340 C345 1.259 . S
Co341 O342 2.061 . S
Co341 O347 2.052 . S
Co341 O349 2.135 . S
O342 Co341 2.061 . S
O342 C345 1.235 . S
C343 O346 1.238 . S
C343 O347 1.241 . S
C344 O337 1.247 . S
C344 O338 1.261 . S
C345 O340 1.259 . S
C345 O342 1.235 . S
O346 Co336 2.021 . S
O346 C343 1.238 . S
O347 Co341 2.052 . S
O347 C343 1.241 . S
O348 Co336 2.137 . S
O348 C339 1.247 . S
O349 Co336 2.244 . S
O349 C339 1.272 . S
O349 Co341 2.135 . S
Co350 O351 2.216 . S
Co350 O352 2.091 . S
Co350 O354 2.004 . S
Co350 O360 2.021 . S
Co350 O362 2.137 . S
Co350 O363 2.244 . S
O351 Co350 2.216 . S
O351 C358 1.247 . S
O352 Co350 2.091 . S
O352 C358 1.261 . S
C353 O362 1.247 . S
C353 O363 1.272 . S
O354 Co350 2.004 . S
O354 C359 1.259 . S
Co355 O356 2.061 . S
Co355 O361 2.052 . S
Co355 O363 2.135 . S
O356 Co355 2.061 . S
O356 C359 1.235 . S
C357 O360 1.238 . S
C357 O361 1.241 . S
C358 O351 1.247 . S
C358 O352 1.261 . S
C359 O354 1.259 . S
C359 O356 1.235 . S
O360 Co350 2.021 . S
O360 C357 1.238 . S
O361 Co355 2.052 . S
O361 C357 1.241 . S
O362 Co350 2.137 . S
O362 C353 1.247 . S
O363 Co350 2.244 . S
O363 C353 1.272 . S
O363 Co355 2.135 . S
Co364 O365 2.216 . S
Co364 O366 2.091 . S
Co364 O368 2.004 . S
Co364 O374 2.021 . S
Co364 O376 2.137 . S
Co364 O377 2.244 . S
O365 Co364 2.216 . S
O365 C372 1.247 . S
O366 Co364 2.091 . S
O366 C372 1.261 . S
C367 O376 1.247 . S
C367 O377 1.272 . S
O368 Co364 2.004 . S
O368 C373 1.259 . S
Co369 O370 2.061 . S
Co369 O375 2.052 . S
Co369 O377 2.135 . S
O370 Co369 2.061 . S
O370 C373 1.235 . S
C371 O374 1.238 . S
C371 O375 1.241 . S
C372 O365 1.247 . S
C372 O366 1.261 . S
C373 O368 1.259 . S
C373 O370 1.235 . S
O374 Co364 2.021 . S
O374 C371 1.238 . S
O375 Co369 2.052 . S
O375 C371 1.241 . S
O376 Co364 2.137 . S
O376 C367 1.247 . S
O377 Co364 2.244 . S
O377 C367 1.272 . S
O377 Co369 2.135 . S
Co378 O379 2.216 . S
Co378 O380 2.091 . S
Co378 O382 2.004 . S
Co378 O388 2.021 . S
Co378 O390 2.137 . S
Co378 O391 2.244 . S
O379 Co378 2.216 . S
O379 C386 1.247 . S
O380 Co378 2.091 . S
O380 C386 1.261 . S
C381 O390 1.247 . S
C381 O391 1.272 . S
O382 Co378 2.004 . S
O382 C387 1.259 . S
Co383 O384 2.061 . S
Co383 O389 2.052 . S
Co383 O391 2.135 . S
O384 Co383 2.061 . S
O384 C387 1.235 . S
C385 O388 1.238 . S
C385 O389 1.241 . S
C386 O379 1.247 . S
C386 O380 1.261 . S
C387 O382 1.259 . S
C387 O384 1.235 . S
O388 Co378 2.021 . S
O388 C385 1.238 . S
O389 Co383 2.052 . S
O389 C385 1.241 . S
O390 Co378 2.137 . S
O390 C381 1.247 . S
O391 Co378 2.244 . S
O391 C381 1.272 . S
O391 Co383 2.135 . S
Co392 O393 2.216 . S
Co392 O394 2.091 . S
Co392 O396 2.004 . S
Co392 O402 2.021 . S
Co392 O404 2.137 . S
Co392 O405 2.244 . S
O393 Co392 2.216 . S
O393 C400 1.247 . S
O394 Co392 2.091 . S
O394 C400 1.261 . S
C395 O404 1.247 . S
C395 O405 1.272 . S
O396 Co392 2.004 . S
O396 C401 1.259 . S
Co397 O398 2.061 . S
Co397 O403 2.052 . S
Co397 O405 2.135 . S
O398 Co397 2.061 . S
O398 C401 1.235 . S
C399 O402 1.238 . S
C399 O403 1.241 . S
C400 O393 1.247 . S
C400 O394 1.261 . S
C401 O396 1.259 . S
C401 O398 1.235 . S
O402 Co392 2.021 . S
O402 C399 1.238 . S
O403 Co397 2.052 . S
O403 C399 1.241 . S
O404 Co392 2.137 . S
O404 C395 1.247 . S
O405 Co392 2.244 . S
O405 C395 1.272 . S
O405 Co397 2.135 . S
Co406 O407 2.216 . S
Co406 O408 2.091 . S
Co406 O410 2.004 . S
Co406 O416 2.021 . S
Co406 O418 2.137 . S
Co406 O419 2.244 . S
O407 Co406 2.216 . S
O407 C414 1.247 . S
O408 Co406 2.091 . S
O408 C414 1.261 . S
C409 O418 1.247 . S
C409 O419 1.272 . S
O410 Co406 2.004 . S
O410 C415 1.259 . S
Co411 O412 2.061 . S
Co411 O417 2.052 . S
Co411 O419 2.135 . S
O412 Co411 2.061 . S
O412 C415 1.235 . S
C413 O416 1.238 . S
C413 O417 1.241 . S
C414 O407 1.247 . S
C414 O408 1.261 . S
C415 O410 1.259 . S
C415 O412 1.235 . S
O416 Co406 2.021 . S
O416 C413 1.238 . S
O417 Co411 2.052 . S
O417 C413 1.241 . S
O418 Co406 2.137 . S
O418 C409 1.247 . S
O419 Co406 2.244 . S
O419 C409 1.272 . S
O419 Co411 2.135 . S
Co420 O421 2.216 . S
Co420 O422 2.091 . S
Co420 O424 2.004 . S
Co420 O430 2.021 . S
Co420 O432 2.137 . S
Co420 O433 2.244 . S
O421 Co420 2.216 . S
O421 C428 1.247 . S
O422 Co420 2.091 . S
O422 C428 1.261 . S
C423 O432 1.247 . S
C423 O433 1.272 . S
O424 Co420 2.004 . S
O424 C429 1.259 . S
Co425 O426 2.061 . S
Co425 O431 2.052 . S
Co425 O433 2.135 . S
O426 Co425 2.061 . S
O426 C429 1.235 . S
C427 O430 1.238 . S
C427 O431 1.241 . S
C428 O421 1.247 . S
C428 O422 1.261 . S
C429 O424 1.259 . S
C429 O426 1.235 . S
O430 Co420 2.021 . S
O430 C427 1.238 . S
O431 Co425 2.052 . S
O431 C427 1.241 . S
O432 Co420 2.137 . S
O432 C423 1.247 . S
O433 Co420 2.244 . S
O433 C423 1.272 . S
O433 Co425 2.135 . S
Co434 O435 2.216 . S
Co434 O436 2.091 . S
Co434 O438 2.004 . S
Co434 O444 2.021 . S
Co434 O446 2.137 . S
Co434 O447 2.244 . S
O435 Co434 2.216 . S
O435 C442 1.247 . S
O436 Co434 2.091 . S
O436 C442 1.261 . S
C437 O446 1.247 . S
C437 O447 1.272 . S
O438 Co434 2.004 . S
O438 C443 1.259 . S
Co439 O440 2.061 . S
Co439 O445 2.052 . S
Co439 O447 2.135 . S
O440 Co439 2.061 . S
O440 C443 1.235 . S
C441 O444 1.238 . S
C441 O445 1.241 . S
C442 O435 1.247 . S
C442 O436 1.261 . S
C443 O438 1.259 . S
C443 O440 1.235 . S
O444 Co434 2.021 . S
O444 C441 1.238 . S
O445 Co439 2.052 . S
O445 C441 1.241 . S
O446 Co434 2.137 . S
O446 C437 1.247 . S
O447 Co434 2.244 . S
O447 C437 1.272 . S
O447 Co439 2.135 . S
Co448 O449 2.216 . S
Co448 O450 2.091 . S
Co448 O452 2.004 . S
Co448 O458 2.021 . S
Co448 O460 2.137 . S
Co448 O461 2.244 . S
O449 Co448 2.216 . S
O449 C456 1.247 . S
O450 Co448 2.091 . S
O450 C456 1.261 . S
C451 O460 1.247 . S
C451 O461 1.272 . S
O452 Co448 2.004 . S
O452 C457 1.259 . S
Co453 O454 2.061 . S
Co453 O459 2.052 . S
Co453 O461 2.135 . S
O454 Co453 2.061 . S
O454 C457 1.235 . S
C455 O458 1.238 . S
C455 O459 1.241 . S
C456 O449 1.247 . S
C456 O450 1.261 . S
C457 O452 1.259 . S
C457 O454 1.235 . S
O458 Co448 2.021 . S
O458 C455 1.238 . S
O459 Co453 2.052 . S
O459 C455 1.241 . S
O460 Co448 2.137 . S
O460 C451 1.247 . S
O461 Co448 2.244 . S
O461 C451 1.272 . S
O461 Co453 2.135 . S
Co462 O463 2.216 . S
Co462 O464 2.091 . S
Co462 O466 2.004 . S
Co462 O472 2.021 . S
Co462 O474 2.137 . S
Co462 O475 2.244 . S
O463 Co462 2.216 . S
O463 C470 1.247 . S
O464 Co462 2.091 . S
O464 C470 1.261 . S
C465 O474 1.247 . S
C465 O475 1.272 . S
O466 Co462 2.004 . S
O466 C471 1.259 . S
Co467 O468 2.061 . S
Co467 O473 2.052 . S
Co467 O475 2.135 . S
O468 Co467 2.061 . S
O468 C471 1.235 . S
C469 O472 1.238 . S
C469 O473 1.241 . S
C470 O463 1.247 . S
C470 O464 1.261 . S
C471 O466 1.259 . S
C471 O468 1.235 . S
O472 Co462 2.021 . S
O472 C469 1.238 . S
O473 Co467 2.052 . S
O473 C469 1.241 . S
O474 Co462 2.137 . S
O474 C465 1.247 . S
O475 Co462 2.244 . S
O475 C465 1.272 . S
O475 Co467 2.135 . S
Co476 O477 2.216 . S
Co476 O478 2.091 . S
Co476 O480 2.004 . S
Co476 O486 2.021 . S
Co476 O488 2.137 . S
Co476 O489 2.244 . S
O477 Co476 2.216 . S
O477 C484 1.247 . S
O478 Co476 2.091 . S
O478 C484 1.261 . S
C479 O488 1.247 . S
C479 O489 1.272 . S
O480 Co476 2.004 . S
O480 C485 1.259 . S
Co481 O482 2.061 . S
Co481 O487 2.052 . S
Co481 O489 2.135 . S
O482 Co481 2.061 . S
O482 C485 1.235 . S
C483 O486 1.238 . S
C483 O487 1.241 . S
C484 O477 1.247 . S
C484 O478 1.261 . S
C485 O480 1.259 . S
C485 O482 1.235 . S
O486 Co476 2.021 . S
O486 C483 1.238 . S
O487 Co481 2.052 . S
O487 C483 1.241 . S
O488 Co476 2.137 . S
O488 C479 1.247 . S
O489 Co476 2.244 . S
O489 C479 1.272 . S
O489 Co481 2.135 . S
Co490 O491 2.216 . S
Co490 O492 2.091 . S
Co490 O494 2.004 . S
Co490 O500 2.021 . S
Co490 O502 2.137 . S
Co490 O503 2.244 . S
O491 Co490 2.216 . S
O491 C498 1.247 . S
O492 Co490 2.091 . S
O492 C498 1.261 . S
C493 O502 1.247 . S
C493 O503 1.272 . S
O494 Co490 2.004 . S
O494 C499 1.259 . S
Co495 O496 2.061 . S
Co495 O501 2.052 . S
Co495 O503 2.135 . S
O496 Co495 2.061 . S
O496 C499 1.235 . S
C497 O500 1.238 . S
C497 O501 1.241 . S
C498 O491 1.247 . S
C498 O492 1.261 . S
C499 O494 1.259 . S
C499 O496 1.235 . S
O500 Co490 2.021 . S
O500 C497 1.238 . S
O501 Co495 2.052 . S
O501 C497 1.241 . S
O502 Co490 2.137 . S
O502 C493 1.247 . S
O503 Co490 2.244 . S
O503 C493 1.272 . S
O503 Co495 2.135 . S
C504 C505 1.349 . S
C504 C506 1.327 . S
C504 H529 0.950 . S
C505 C504 1.349 . S
C505 C521 1.349 . S
C506 C504 1.327 . S
C506 C525 1.429 . S
C506 H530 0.950 . S
C507 C524 1.574 . S
C507 C526 1.368 . S
C507 H531 0.949 . S
H508 C512 0.949 . S
C509 C510 1.349 . S
C509 C511 1.327 . S
C509 H532 0.950 . S
C510 C509 1.349 . S
C510 C522 1.349 . S
C511 C509 1.327 . S
C511 C527 1.429 . S
C511 H533 0.950 . S
C512 H508 0.949 . S
C512 C520 1.574 . S
C512 C528 1.368 . S
H513 C521 0.950 . S
H514 C519 0.950 . S
H515 C520 0.949 . S
H516 C522 0.950 . S
H517 C523 0.950 . S
H518 C524 0.949 . S
C519 H514 0.950 . S
C519 C521 1.327 . S
C519 C525 1.429 . S
C520 C512 1.574 . S
C520 H515 0.949 . S
C520 C526 1.368 . S
C521 C505 1.349 . S
C521 H513 0.950 . S
C521 C519 1.327 . S
C522 C510 1.349 . S
C522 H516 0.950 . S
C522 C523 1.327 . S
C523 H517 0.950 . S
C523 C522 1.327 . S
C523 C527 1.429 . S
C524 C507 1.574 . S
C524 H518 0.949 . S
C524 C528 1.368 . S
C525 C506 1.429 . S
C525 C519 1.429 . S
C525 C526 1.523 . S
C526 C507 1.368 . S
C526 C520 1.368 . S
C526 C525 1.523 . S
C527 C511 1.429 . S
C527 C523 1.429 . S
C527 C528 1.523 . S
C528 C512 1.368 . S
C528 C524 1.368 . S
C528 C527 1.523 . S
H529 C504 0.950 . S
H530 C506 0.950 . S
H531 C507 0.949 . S
H532 C509 0.950 . S
H533 C511 0.950 . S
C534 C535 1.349 . S
C534 C536 1.327 . S
C534 H559 0.950 . S
C535 C534 1.349 . S
C535 C551 1.349 . S
C536 C534 1.327 . S
C536 C555 1.429 . S
C536 H560 0.950 . S
C537 C554 1.574 . S
C537 C556 1.368 . S
C537 H561 0.949 . S
H538 C542 0.949 . S
C539 C540 1.349 . S
C539 C541 1.327 . S
C539 H562 0.950 . S
C540 C539 1.349 . S
C540 C552 1.349 . S
C541 C539 1.327 . S
C541 C557 1.429 . S
C541 H563 0.950 . S
C542 H538 0.949 . S
C542 C550 1.574 . S
C542 C558 1.368 . S
H543 C551 0.950 . S
H544 C549 0.950 . S
H545 C550 0.949 . S
H546 C552 0.950 . S
H547 C553 0.950 . S
H548 C554 0.949 . S
C549 H544 0.950 . S
C549 C551 1.327 . S
C549 C555 1.429 . S
C550 C542 1.574 . S
C550 H545 0.949 . S
C550 C556 1.368 . S
C551 C535 1.349 . S
C551 H543 0.950 . S
C551 C549 1.327 . S
C552 C540 1.349 . S
C552 H546 0.950 . S
C552 C553 1.327 . S
C553 H547 0.950 . S
C553 C552 1.327 . S
C553 C557 1.429 . S
C554 C537 1.574 . S
C554 H548 0.949 . S
C554 C558 1.368 . S
C555 C536 1.429 . S
C555 C549 1.429 . S
C555 C556 1.523 . S
C556 C537 1.368 . S
C556 C550 1.368 . S
C556 C555 1.523 . S
C557 C541 1.429 . S
C557 C553 1.429 . S
C557 C558 1.523 . S
C558 C542 1.368 . S
C558 C554 1.368 . S
C558 C557 1.523 . S
H559 C534 0.950 . S
H560 C536 0.950 . S
H561 C537 0.949 . S
H562 C539 0.950 . S
H563 C541 0.950 . S
C564 C565 1.349 . S
C564 C566 1.327 . S
C564 H589 0.950 . S
C565 C564 1.349 . S
C565 C581 1.349 . S
C566 C564 1.327 . S
C566 C585 1.429 . S
C566 H590 0.950 . S
C567 C584 1.574 . S
C567 C586 1.368 . S
C567 H591 0.949 . S
H568 C572 0.949 . S
C569 C570 1.349 . S
C569 C571 1.327 . S
C569 H592 0.950 . S
C570 C569 1.349 . S
C570 C582 1.349 . S
C571 C569 1.327 . S
C571 C587 1.429 . S
C571 H593 0.950 . S
C572 H568 0.949 . S
C572 C580 1.574 . S
C572 C588 1.368 . S
H573 C581 0.950 . S
H574 C579 0.950 . S
H575 C580 0.949 . S
H576 C582 0.950 . S
H577 C583 0.950 . S
H578 C584 0.949 . S
C579 H574 0.950 . S
C579 C581 1.327 . S
C579 C585 1.429 . S
C580 C572 1.574 . S
C580 H575 0.949 . S
C580 C586 1.368 . S
C581 C565 1.349 . S
C581 H573 0.950 . S
C581 C579 1.327 . S
C582 C570 1.349 . S
C582 H576 0.950 . S
C582 C583 1.327 . S
C583 H577 0.950 . S
C583 C582 1.327 . S
C583 C587 1.429 . S
C584 C567 1.574 . S
C584 H578 0.949 . S
C584 C588 1.368 . S
C585 C566 1.429 . S
C585 C579 1.429 . S
C585 C586 1.523 . S
C586 C567 1.368 . S
C586 C580 1.368 . S
C586 C585 1.523 . S
C587 C571 1.429 . S
C587 C583 1.429 . S
C587 C588 1.523 . S
C588 C572 1.368 . S
C588 C584 1.368 . S
C588 C587 1.523 . S
H589 C564 0.950 . S
H590 C566 0.950 . S
H591 C567 0.949 . S
H592 C569 0.950 . S
H593 C571 0.950 . S
C594 C595 1.349 . S
C594 C596 1.327 . S
C594 H619 0.950 . S
C595 C594 1.349 . S
C595 C611 1.349 . S
C596 C594 1.327 . S
C596 C615 1.429 . S
C596 H620 0.950 . S
C597 C614 1.574 . S
C597 C616 1.368 . S
C597 H621 0.949 . S
H598 C602 0.949 . S
C599 C600 1.349 . S
C599 C601 1.327 . S
C599 H622 0.950 . S
C600 C599 1.349 . S
C600 C612 1.349 . S
C601 C599 1.327 . S
C601 C617 1.429 . S
C601 H623 0.950 . S
C602 H598 0.949 . S
C602 C610 1.574 . S
C602 C618 1.368 . S
H603 C611 0.950 . S
H604 C609 0.950 . S
H605 C610 0.949 . S
H606 C612 0.950 . S
H607 C613 0.950 . S
H608 C614 0.949 . S
C609 H604 0.950 . S
C609 C611 1.327 . S
C609 C615 1.429 . S
C610 C602 1.574 . S
C610 H605 0.949 . S
C610 C616 1.368 . S
C611 C595 1.349 . S
C611 H603 0.950 . S
C611 C609 1.327 . S
C612 C600 1.349 . S
C612 H606 0.950 . S
C612 C613 1.327 . S
C613 H607 0.950 . S
C613 C612 1.327 . S
C613 C617 1.429 . S
C614 C597 1.574 . S
C614 H608 0.949 . S
C614 C618 1.368 . S
C615 C596 1.429 . S
C615 C609 1.429 . S
C615 C616 1.523 . S
C616 C597 1.368 . S
C616 C610 1.368 . S
C616 C615 1.523 . S
C617 C601 1.429 . S
C617 C613 1.429 . S
C617 C618 1.523 . S
C618 C602 1.368 . S
C618 C614 1.368 . S
C618 C617 1.523 . S
H619 C594 0.950 . S
H620 C596 0.950 . S
H621 C597 0.949 . S
H622 C599 0.950 . S
H623 C601 0.950 . S
C624 C625 1.349 . S
C624 C626 1.327 . S
C624 H649 0.950 . S
C625 C624 1.349 . S
C625 C641 1.349 . S
C626 C624 1.327 . S
C626 C645 1.429 . S
C626 H650 0.950 . S
C627 C644 1.574 . S
C627 C646 1.368 . S
C627 H651 0.949 . S
H628 C632 0.949 . S
C629 C630 1.349 . S
C629 C631 1.327 . S
C629 H652 0.950 . S
C630 C629 1.349 . S
C630 C642 1.349 . S
C631 C629 1.327 . S
C631 C647 1.429 . S
C631 H653 0.950 . S
C632 H628 0.949 . S
C632 C640 1.574 . S
C632 C648 1.368 . S
H633 C641 0.950 . S
H634 C639 0.950 . S
H635 C640 0.949 . S
H636 C642 0.950 . S
H637 C643 0.950 . S
H638 C644 0.949 . S
C639 H634 0.950 . S
C639 C641 1.327 . S
C639 C645 1.429 . S
C640 C632 1.574 . S
C640 H635 0.949 . S
C640 C646 1.368 . S
C641 C625 1.349 . S
C641 H633 0.950 . S
C641 C639 1.327 . S
C642 C630 1.349 . S
C642 H636 0.950 . S
C642 C643 1.327 . S
C643 H637 0.950 . S
C643 C642 1.327 . S
C643 C647 1.429 . S
C644 C627 1.574 . S
C644 H638 0.949 . S
C644 C648 1.368 . S
C645 C626 1.429 . S
C645 C639 1.429 . S
C645 C646 1.523 . S
C646 C627 1.368 . S
C646 C640 1.368 . S
C646 C645 1.523 . S
C647 C631 1.429 . S
C647 C643 1.429 . S
C647 C648 1.523 . S
C648 C632 1.368 . S
C648 C644 1.368 . S
C648 C647 1.523 . S
H649 C624 0.950 . S
H650 C626 0.950 . S
H651 C627 0.949 . S
H652 C629 0.950 . S
H653 C631 0.950 . S
C654 C655 1.349 . S
C654 C656 1.327 . S
C654 H679 0.950 . S
C655 C654 1.349 . S
C655 C671 1.349 . S
C656 C654 1.327 . S
C656 C675 1.429 . S
C656 H680 0.950 . S
C657 C674 1.574 . S
C657 C676 1.368 . S
C657 H681 0.949 . S
H658 C662 0.949 . S
C659 C660 1.349 . S
C659 C661 1.327 . S
C659 H682 0.950 . S
C660 C659 1.349 . S
C660 C672 1.349 . S
C661 C659 1.327 . S
C661 C677 1.429 . S
C661 H683 0.950 . S
C662 H658 0.949 . S
C662 C670 1.574 . S
C662 C678 1.368 . S
H663 C671 0.950 . S
H664 C669 0.950 . S
H665 C670 0.949 . S
H666 C672 0.950 . S
H667 C673 0.950 . S
H668 C674 0.949 . S
C669 H664 0.950 . S
C669 C671 1.327 . S
C669 C675 1.429 . S
C670 C662 1.574 . S
C670 H665 0.949 . S
C670 C676 1.368 . S
C671 C655 1.349 . S
C671 H663 0.950 . S
C671 C669 1.327 . S
C672 C660 1.349 . S
C672 H666 0.950 . S
C672 C673 1.327 . S
C673 H667 0.950 . S
C673 C672 1.327 . S
C673 C677 1.429 . S
C674 C657 1.574 . S
C674 H668 0.949 . S
C674 C678 1.368 . S
C675 C656 1.429 . S
C675 C669 1.429 . S
C675 C676 1.523 . S
C676 C657 1.368 . S
C676 C670 1.368 . S
C676 C675 1.523 . S
C677 C661 1.429 . S
C677 C673 1.429 . S
C677 C678 1.523 . S
C678 C662 1.368 . S
C678 C674 1.368 . S
C678 C677 1.523 . S
H679 C654 0.950 . S
H680 C656 0.950 . S
H681 C657 0.949 . S
H682 C659 0.950 . S
H683 C661 0.950 . S
C684 C685 1.349 . S
C684 C686 1.327 . S
C684 H709 0.950 . S
C685 C684 1.349 . S
C685 C701 1.349 . S
C686 C684 1.327 . S
C686 C705 1.429 . S
C686 H710 0.950 . S
C687 C704 1.574 . S
C687 C706 1.368 . S
C687 H711 0.949 . S
H688 C692 0.949 . S
C689 C690 1.349 . S
C689 C691 1.327 . S
C689 H712 0.950 . S
C690 C689 1.349 . S
C690 C702 1.349 . S
C691 C689 1.327 . S
C691 C707 1.429 . S
C691 H713 0.950 . S
C692 H688 0.949 . S
C692 C700 1.574 . S
C692 C708 1.368 . S
H693 C701 0.950 . S
H694 C699 0.950 . S
H695 C700 0.949 . S
H696 C702 0.950 . S
H697 C703 0.950 . S
H698 C704 0.949 . S
C699 H694 0.950 . S
C699 C701 1.327 . S
C699 C705 1.429 . S
C700 C692 1.574 . S
C700 H695 0.949 . S
C700 C706 1.368 . S
C701 C685 1.349 . S
C701 H693 0.950 . S
C701 C699 1.327 . S
C702 C690 1.349 . S
C702 H696 0.950 . S
C702 C703 1.327 . S
C703 H697 0.950 . S
C703 C702 1.327 . S
C703 C707 1.429 . S
C704 C687 1.574 . S
C704 H698 0.949 . S
C704 C708 1.368 . S
C705 C686 1.429 . S
C705 C699 1.429 . S
C705 C706 1.523 . S
C706 C687 1.368 . S
C706 C700 1.368 . S
C706 C705 1.523 . S
C707 C691 1.429 . S
C707 C703 1.429 . S
C707 C708 1.523 . S
C708 C692 1.368 . S
C708 C704 1.368 . S
C708 C707 1.523 . S
H709 C684 0.950 . S
H710 C686 0.950 . S
H711 C687 0.949 . S
H712 C689 0.950 . S
H713 C691 0.950 . S
C714 C715 1.349 . S
C714 C716 1.327 . S
C714 H739 0.950 . S
C715 C714 1.349 . S
C715 C731 1.349 . S
C716 C714 1.327 . S
C716 C735 1.429 . S
C716 H740 0.950 . S
C717 C734 1.574 . S
C717 C736 1.368 . S
C717 H741 0.949 . S
H718 C722 0.949 . S
C719 C720 1.349 . S
C719 C721 1.327 . S
C719 H742 0.950 . S
C720 C719 1.349 . S
C720 C732 1.349 . S
C721 C719 1.327 . S
C721 C737 1.429 . S
C721 H743 0.950 . S
C722 H718 0.949 . S
C722 C730 1.574 . S
C722 C738 1.368 . S
H723 C731 0.950 . S
H724 C729 0.950 . S
H725 C730 0.949 . S
H726 C732 0.950 . S
H727 C733 0.950 . S
H728 C734 0.949 . S
C729 H724 0.950 . S
C729 C731 1.327 . S
C729 C735 1.429 . S
C730 C722 1.574 . S
C730 H725 0.949 . S
C730 C736 1.368 . S
C731 C715 1.349 . S
C731 H723 0.950 . S
C731 C729 1.327 . S
C732 C720 1.349 . S
C732 H726 0.950 . S
C732 C733 1.327 . S
C733 H727 0.950 . S
C733 C732 1.327 . S
C733 C737 1.429 . S
C734 C717 1.574 . S
C734 H728 0.949 . S
C734 C738 1.368 . S
C735 C716 1.429 . S
C735 C729 1.429 . S
C735 C736 1.523 . S
C736 C717 1.368 . S
C736 C730 1.368 . S
C736 C735 1.523 . S
C737 C721 1.429 . S
C737 C733 1.429 . S
C737 C738 1.523 . S
C738 C722 1.368 . S
C738 C734 1.368 . S
C738 C737 1.523 . S
H739 C714 0.950 . S
H740 C716 0.950 . S
H741 C717 0.949 . S
H742 C719 0.950 . S
H743 C721 0.950 . S
C744 C745 1.349 . S
C744 C746 1.327 . S
C744 H769 0.950 . S
C745 C744 1.349 . S
C745 C761 1.349 . S
C746 C744 1.327 . S
C746 C765 1.429 . S
C746 H770 0.950 . S
C747 C764 1.574 . S
C747 C766 1.368 . S
C747 H771 0.949 . S
H748 C752 0.949 . S
C749 C750 1.349 . S
C749 C751 1.327 . S
C749 H772 0.950 . S
C750 C749 1.349 . S
C750 C762 1.349 . S
C751 C749 1.327 . S
C751 C767 1.429 . S
C751 H773 0.950 . S
C752 H748 0.949 . S
C752 C760 1.574 . S
C752 C768 1.368 . S
H753 C761 0.950 . S
H754 C759 0.950 . S
H755 C760 0.949 . S
H756 C762 0.950 . S
H757 C763 0.950 . S
H758 C764 0.949 . S
C759 H754 0.950 . S
C759 C761 1.327 . S
C759 C765 1.429 . S
C760 C752 1.574 . S
C760 H755 0.949 . S
C760 C766 1.368 . S
C761 C745 1.349 . S
C761 H753 0.950 . S
C761 C759 1.327 . S
C762 C750 1.349 . S
C762 H756 0.950 . S
C762 C763 1.327 . S
C763 H757 0.950 . S
C763 C762 1.327 . S
C763 C767 1.429 . S
C764 C747 1.574 . S
C764 H758 0.949 . S
C764 C768 1.368 . S
C765 C746 1.429 . S
C765 C759 1.429 . S
C765 C766 1.523 . S
C766 C747 1.368 . S
C766 C760 1.368 . S
C766 C765 1.523 . S
C767 C751 1.429 . S
C767 C763 1.429 . S
C767 C768 1.523 . S
C768 C752 1.368 . S
C768 C764 1.368 . S
C768 C767 1.523 . S
H769 C744 0.950 . S
H770 C746 0.950 . S
H771 C747 0.949 . S
H772 C749 0.950 . S
H773 C751 0.950 . S
C774 C775 1.349 . S
C774 C776 1.327 . S
C774 H799 0.950 . S
C775 C774 1.349 . S
C775 C791 1.349 . S
C776 C774 1.327 . S
C776 C795 1.429 . S
C776 H800 0.950 . S
C777 C794 1.574 . S
C777 C796 1.368 . S
C777 H801 0.949 . S
H778 C782 0.949 . S
C779 C780 1.349 . S
C779 C781 1.327 . S
C779 H802 0.950 . S
C780 C779 1.349 . S
C780 C792 1.349 . S
C781 C779 1.327 . S
C781 C797 1.429 . S
C781 H803 0.950 . S
C782 H778 0.949 . S
C782 C790 1.574 . S
C782 C798 1.368 . S
H783 C791 0.950 . S
H784 C789 0.950 . S
H785 C790 0.949 . S
H786 C792 0.950 . S
H787 C793 0.950 . S
H788 C794 0.949 . S
C789 H784 0.950 . S
C789 C791 1.327 . S
C789 C795 1.429 . S
C790 C782 1.574 . S
C790 H785 0.949 . S
C790 C796 1.368 . S
C791 C775 1.349 . S
C791 H783 0.950 . S
C791 C789 1.327 . S
C792 C780 1.349 . S
C792 H786 0.950 . S
C792 C793 1.327 . S
C793 H787 0.950 . S
C793 C792 1.327 . S
C793 C797 1.429 . S
C794 C777 1.574 . S
C794 H788 0.949 . S
C794 C798 1.368 . S
C795 C776 1.429 . S
C795 C789 1.429 . S
C795 C796 1.523 . S
C796 C777 1.368 . S
C796 C790 1.368 . S
C796 C795 1.523 . S
C797 C781 1.429 . S
C797 C793 1.429 . S
C797 C798 1.523 . S
C798 C782 1.368 . S
C798 C794 1.368 . S
C798 C797 1.523 . S
H799 C774 0.950 . S
H800 C776 0.950 . S
H801 C777 0.949 . S
H802 C779 0.950 . S
H803 C781 0.950 . S
C804 C805 1.349 . S
C804 C806 1.327 . S
C804 H829 0.950 . S
C805 C804 1.349 . S
C805 C821 1.349 . S
C806 C804 1.327 . S
C806 C825 1.429 . S
C806 H830 0.950 . S
C807 C824 1.574 . S
C807 C826 1.368 . S
C807 H831 0.949 . S
H808 C812 0.949 . S
C809 C810 1.349 . S
C809 C811 1.327 . S
C809 H832 0.950 . S
C810 C809 1.349 . S
C810 C822 1.349 . S
C811 C809 1.327 . S
C811 C827 1.429 . S
C811 H833 0.950 . S
C812 H808 0.949 . S
C812 C820 1.574 . S
C812 C828 1.368 . S
H813 C821 0.950 . S
H814 C819 0.950 . S
H815 C820 0.949 . S
H816 C822 0.950 . S
H817 C823 0.950 . S
H818 C824 0.949 . S
C819 H814 0.950 . S
C819 C821 1.327 . S
C819 C825 1.429 . S
C820 C812 1.574 . S
C820 H815 0.949 . S
C820 C826 1.368 . S
C821 C805 1.349 . S
C821 H813 0.950 . S
C821 C819 1.327 . S
C822 C810 1.349 . S
C822 H816 0.950 . S
C822 C823 1.327 . S
C823 H817 0.950 . S
C823 C822 1.327 . S
C823 C827 1.429 . S
C824 C807 1.574 . S
C824 H818 0.949 . S
C824 C828 1.368 . S
C825 C806 1.429 . S
C825 C819 1.429 . S
C825 C826 1.523 . S
C826 C807 1.368 . S
C826 C820 1.368 . S
C826 C825 1.523 . S
C827 C811 1.429 . S
C827 C823 1.429 . S
C827 C828 1.523 . S
C828 C812 1.368 . S
C828 C824 1.368 . S
C828 C827 1.523 . S
H829 C804 0.950 . S
H830 C806 0.950 . S
H831 C807 0.949 . S
H832 C809 0.950 . S
H833 C811 0.950 . S
C834 C835 1.349 . S
C834 C836 1.327 . S
C834 H859 0.950 . S
C835 C834 1.349 . S
C835 C851 1.349 . S
C836 C834 1.327 . S
C836 C855 1.429 . S
C836 H860 0.950 . S
C837 C854 1.574 . S
C837 C856 1.368 . S
C837 H861 0.949 . S
H838 C842 0.949 . S
C839 C840 1.349 . S
C839 C841 1.327 . S
C839 H862 0.950 . S
C840 C839 1.349 . S
C840 C852 1.349 . S
C841 C839 1.327 . S
C841 C857 1.429 . S
C841 H863 0.950 . S
C842 H838 0.949 . S
C842 C850 1.574 . S
C842 C858 1.368 . S
H843 C851 0.950 . S
H844 C849 0.950 . S
H845 C850 0.949 . S
H846 C852 0.950 . S
H847 C853 0.950 . S
H848 C854 0.949 . S
C849 H844 0.950 . S
C849 C851 1.327 . S
C849 C855 1.429 . S
C850 C842 1.574 . S
C850 H845 0.949 . S
C850 C856 1.368 . S
C851 C835 1.349 . S
C851 H843 0.950 . S
C851 C849 1.327 . S
C852 C840 1.349 . S
C852 H846 0.950 . S
C852 C853 1.327 . S
C853 H847 0.950 . S
C853 C852 1.327 . S
C853 C857 1.429 . S
C854 C837 1.574 . S
C854 H848 0.949 . S
C854 C858 1.368 . S
C855 C836 1.429 . S
C855 C849 1.429 . S
C855 C856 1.523 . S
C856 C837 1.368 . S
C856 C850 1.368 . S
C856 C855 1.523 . S
C857 C841 1.429 . S
C857 C853 1.429 . S
C857 C858 1.523 . S
C858 C842 1.368 . S
C858 C854 1.368 . S
C858 C857 1.523 . S
H859 C834 0.950 . S
H860 C836 0.950 . S
H861 C837 0.949 . S
H862 C839 0.950 . S
H863 C841 0.950 . S
C864 C865 1.349 . S
C864 C866 1.327 . S
C864 H889 0.950 . S
C865 C864 1.349 . S
C865 C881 1.349 . S
C866 C864 1.327 . S
C866 C885 1.429 . S
C866 H890 0.950 . S
C867 C884 1.574 . S
C867 C886 1.368 . S
C867 H891 0.949 . S
H868 C872 0.949 . S
C869 C870 1.349 . S
C869 C871 1.327 . S
C869 H892 0.950 . S
C870 C869 1.349 . S
C870 C882 1.349 . S
C871 C869 1.327 . S
C871 C887 1.429 . S
C871 H893 0.950 . S
C872 H868 0.949 . S
C872 C880 1.574 . S
C872 C888 1.368 . S
H873 C881 0.950 . S
H874 C879 0.950 . S
H875 C880 0.949 . S
H876 C882 0.950 . S
H877 C883 0.950 . S
H878 C884 0.949 . S
C879 H874 0.950 . S
C879 C881 1.327 . S
C879 C885 1.429 . S
C880 C872 1.574 . S
C880 H875 0.949 . S
C880 C886 1.368 . S
C881 C865 1.349 . S
C881 H873 0.950 . S
C881 C879 1.327 . S
C882 C870 1.349 . S
C882 H876 0.950 . S
C882 C883 1.327 . S
C883 H877 0.950 . S
C883 C882 1.327 . S
C883 C887 1.429 . S
C884 C867 1.574 . S
C884 H878 0.949 . S
C884 C888 1.368 . S
C885 C866 1.429 . S
C885 C879 1.429 . S
C885 C886 1.523 . S
C886 C867 1.368 . S
C886 C880 1.368 . S
C886 C885 1.523 . S
C887 C871 1.429 . S
C887 C883 1.429 . S
C887 C888 1.523 . S
C888 C872 1.368 . S
C888 C884 1.368 . S
C888 C887 1.523 . S
H889 C864 0.950 . S
H890 C866 0.950 . S
H891 C867 0.949 . S
H892 C869 0.950 . S
H893 C871 0.950 . S
C894 C895 1.349 . S
C894 C896 1.327 . S
C894 H919 0.950 . S
C895 C894 1.349 . S
C895 C911 1.349 . S
C896 C894 1.327 . S
C896 C915 1.429 . S
C896 H920 0.950 . S
C897 C914 1.574 . S
C897 C916 1.368 . S
C897 H921 0.949 . S
H898 C902 0.949 . S
C899 C900 1.349 . S
C899 C901 1.327 . S
C899 H922 0.950 . S
C900 C899 1.349 . S
C900 C912 1.349 . S
C901 C899 1.327 . S
C901 C917 1.429 . S
C901 H923 0.950 . S
C902 H898 0.949 . S
C902 C910 1.574 . S
C902 C918 1.368 . S
H903 C911 0.950 . S
H904 C909 0.950 . S
H905 C910 0.949 . S
H906 C912 0.950 . S
H907 C913 0.950 . S
H908 C914 0.949 . S
C909 H904 0.950 . S
C909 C911 1.327 . S
C909 C915 1.429 . S
C910 C902 1.574 . S
C910 H905 0.949 . S
C910 C916 1.368 . S
C911 C895 1.349 . S
C911 H903 0.950 . S
C911 C909 1.327 . S
C912 C900 1.349 . S
C912 H906 0.950 . S
C912 C913 1.327 . S
C913 H907 0.950 . S
C913 C912 1.327 . S
C913 C917 1.429 . S
C914 C897 1.574 . S
C914 H908 0.949 . S
C914 C918 1.368 . S
C915 C896 1.429 . S
C915 C909 1.429 . S
C915 C916 1.523 . S
C916 C897 1.368 . S
C916 C910 1.368 . S
C916 C915 1.523 . S
C917 C901 1.429 . S
C917 C913 1.429 . S
C917 C918 1.523 . S
C918 C902 1.368 . S
C918 C914 1.368 . S
C918 C917 1.523 . S
H919 C894 0.950 . S
H920 C896 0.950 . S
H921 C897 0.949 . S
H922 C899 0.950 . S
H923 C901 0.950 . S
C924 C925 1.349 . S
C924 C926 1.327 . S
C924 H949 0.950 . S
C925 C924 1.349 . S
C925 C941 1.349 . S
C926 C924 1.327 . S
C926 C945 1.429 . S
C926 H950 0.950 . S
C927 C944 1.574 . S
C927 C946 1.368 . S
C927 H951 0.949 . S
H928 C932 0.949 . S
C929 C930 1.349 . S
C929 C931 1.327 . S
C929 H952 0.950 . S
C930 C929 1.349 . S
C930 C942 1.349 . S
C931 C929 1.327 . S
C931 C947 1.429 . S
C931 H953 0.950 . S
C932 H928 0.949 . S
C932 C940 1.574 . S
C932 C948 1.368 . S
H933 C941 0.950 . S
H934 C939 0.950 . S
H935 C940 0.949 . S
H936 C942 0.950 . S
H937 C943 0.950 . S
H938 C944 0.949 . S
C939 H934 0.950 . S
C939 C941 1.327 . S
C939 C945 1.429 . S
C940 C932 1.574 . S
C940 H935 0.949 . S
C940 C946 1.368 . S
C941 C925 1.349 . S
C941 H933 0.950 . S
C941 C939 1.327 . S
C942 C930 1.349 . S
C942 H936 0.950 . S
C942 C943 1.327 . S
C943 H937 0.950 . S
C943 C942 1.327 . S
C943 C947 1.429 . S
C944 C927 1.574 . S
C944 H938 0.949 . S
C944 C948 1.368 . S
C945 C926 1.429 . S
C945 C939 1.429 . S
C945 C946 1.523 . S
C946 C927 1.368 . S
C946 C940 1.368 . S
C946 C945 1.523 . S
C947 C931 1.429 . S
C947 C943 1.429 . S
C947 C948 1.523 . S
C948 C932 1.368 . S
C948 C944 1.368 . S
C948 C947 1.523 . S
H949 C924 0.950 . S
H950 C926 0.950 . S
H951 C927 0.949 . S
H952 C929 0.950 . S
H953 C931 0.950 . S
C954 C955 1.349 . S
C954 C956 1.327 . S
C954 H979 0.950 . S
C955 C954 1.349 . S
C955 C971 1.349 . S
C956 C954 1.327 . S
C956 C975 1.429 . S
C956 H980 0.950 . S
C957 C974 1.574 . S
C957 C976 1.368 . S
C957 H981 0.949 . S
H958 C962 0.949 . S
C959 C960 1.349 . S
C959 C961 1.327 . S
C959 H982 0.950 . S
C960 C959 1.349 . S
C960 C972 1.349 . S
C961 C959 1.327 . S
C961 C977 1.429 . S
C961 H983 0.950 . S
C962 H958 0.949 . S
C962 C970 1.574 . S
C962 C978 1.368 . S
H963 C971 0.950 . S
H964 C969 0.950 . S
H965 C970 0.949 . S
H966 C972 0.950 . S
H967 C973 0.950 . S
H968 C974 0.949 . S
C969 H964 0.950 . S
C969 C971 1.327 . S
C969 C975 1.429 . S
C970 C962 1.574 . S
C970 H965 0.949 . S
C970 C976 1.368 . S
C971 C955 1.349 . S
C971 H963 0.950 . S
C971 C969 1.327 . S
C972 C960 1.349 . S
C972 H966 0.950 . S
C972 C973 1.327 . S
C973 H967 0.950 . S
C973 C972 1.327 . S
C973 C977 1.429 . S
C974 C957 1.574 . S
C974 H968 0.949 . S
C974 C978 1.368 . S
C975 C956 1.429 . S
C975 C969 1.429 . S
C975 C976 1.523 . S
C976 C957 1.368 . S
C976 C970 1.368 . S
C976 C975 1.523 . S
C977 C961 1.429 . S
C977 C973 1.429 . S
C977 C978 1.523 . S
C978 C962 1.368 . S
C978 C974 1.368 . S
C978 C977 1.523 . S
H979 C954 0.950 . S
H980 C956 0.950 . S
H981 C957 0.949 . S
H982 C959 0.950 . S
H983 C961 0.950 . S
C984 C985 1.349 . S
C984 C986 1.327 . S
C984 H1009 0.950 . S
C985 C984 1.349 . S
C985 C1001 1.349 . S
C986 C984 1.327 . S
C986 C1005 1.429 . S
C986 H1010 0.950 . S
C987 C1004 1.574 . S
C987 C1006 1.368 . S
C987 H1011 0.949 . S
H988 C992 0.949 . S
C989 C990 1.349 . S
C989 C991 1.327 . S
C989 H1012 0.950 . S
C990 C989 1.349 . S
C990 C1002 1.349 . S
C991 C989 1.327 . S
C991 C1007 1.429 . S
C991 H1013 0.950 . S
C992 H988 0.949 . S
C992 C1000 1.574 . S
C992 C1008 1.368 . S
H993 C1001 0.950 . S
H994 C999 0.950 . S
H995 C1000 0.949 . S
H996 C1002 0.950 . S
H997 C1003 0.950 . S
H998 C1004 0.949 . S
C999 H994 0.950 . S
C999 C1001 1.327 . S
C999 C1005 1.429 . S
C1000 C992 1.574 . S
C1000 H995 0.949 . S
C1000 C1006 1.368 . S
C1001 C985 1.349 . S
C1001 H993 0.950 . S
C1001 C999 1.327 . S
C1002 C990 1.349 . S
C1002 H996 0.950 . S
C1002 C1003 1.327 . S
C1003 H997 0.950 . S
C1003 C1002 1.327 . S
C1003 C1007 1.429 . S
C1004 C987 1.574 . S
C1004 H998 0.949 . S
C1004 C1008 1.368 . S
C1005 C986 1.429 . S
C1005 C999 1.429 . S
C1005 C1006 1.523 . S
C1006 C987 1.368 . S
C1006 C1000 1.368 . S
C1006 C1005 1.523 . S
C1007 C991 1.429 . S
C1007 C1003 1.429 . S
C1007 C1008 1.523 . S
C1008 C992 1.368 . S
C1008 C1004 1.368 . S
C1008 C1007 1.523 . S
H1009 C984 0.950 . S
H1010 C986 0.950 . S
H1011 C987 0.949 . S
H1012 C989 0.950 . S
H1013 C991 0.950 . S
C1014 C1015 1.349 . S
C1014 C1016 1.327 . S
C1014 H1039 0.950 . S
C1015 C1014 1.349 . S
C1015 C1031 1.349 . S
C1016 C1014 1.327 . S
C1016 C1035 1.429 . S
C1016 H1040 0.950 . S
C1017 C1034 1.574 . S
C1017 C1036 1.368 . S
C1017 H1041 0.949 . S
H1018 C1022 0.949 . S
C1019 C1020 1.349 . S
C1019 C1021 1.327 . S
C1019 H1042 0.950 . S
C1020 C1019 1.349 . S
C1020 C1032 1.349 . S
C1021 C1019 1.327 . S
C1021 C1037 1.429 . S
C1021 H1043 0.950 . S
C1022 H1018 0.949 . S
C1022 C1030 1.574 . S
C1022 C1038 1.368 . S
H1023 C1031 0.950 . S
H1024 C1029 0.950 . S
H1025 C1030 0.949 . S
H1026 C1032 0.950 . S
H1027 C1033 0.950 . S
H1028 C1034 0.949 . S
C1029 H1024 0.950 . S
C1029 C1031 1.327 . S
C1029 C1035 1.429 . S
C1030 C1022 1.574 . S
C1030 H1025 0.949 . S
C1030 C1036 1.368 . S
C1031 C1015 1.349 . S
C1031 H1023 0.950 . S
C1031 C1029 1.327 . S
C1032 C1020 1.349 . S
C1032 H1026 0.950 . S
C1032 C1033 1.327 . S
C1033 H1027 0.950 . S
C1033 C1032 1.327 . S
C1033 C1037 1.429 . S
C1034 C1017 1.574 . S
C1034 H1028 0.949 . S
C1034 C1038 1.368 . S
C1035 C1016 1.429 . S
C1035 C1029 1.429 . S
C1035 C1036 1.523 . S
C1036 C1017 1.368 . S
C1036 C1030 1.368 . S
C1036 C1035 1.523 . S
C1037 C1021 1.429 . S
C1037 C1033 1.429 . S
C1037 C1038 1.523 . S
C1038 C1022 1.368 . S
C1038 C1034 1.368 . S
C1038 C1037 1.523 . S
H1039 C1014 0.950 . S
H1040 C1016 0.950 . S
H1041 C1017 0.949 . S
H1042 C1019 0.950 . S
H1043 C1021 0.950 . S
C1044 C1045 1.349 . S
C1044 C1046 1.327 . S
C1044 H1069 0.950 . S
C1045 C1044 1.349 . S
C1045 C1061 1.349 . S
C1046 C1044 1.327 . S
C1046 C1065 1.429 . S
C1046 H1070 0.950 . S
C1047 C1064 1.574 1_455 S
C1047 C1066 1.368 1_556 S
C1047 H1071 0.949 . S
H1048 C1052 0.949 . S
C1049 C1050 1.349 . S
C1049 C1051 1.327 . S
C1049 H1072 0.950 . S
C1050 C1049 1.349 . S
C1050 C1062 1.349 . S
C1051 C1049 1.327 . S
C1051 C1067 1.429 . S
C1051 H1073 0.950 . S
C1052 H1048 0.949 . S
C1052 C1060 1.574 1_655 S
C1052 C1068 1.368 1_554 S
H1053 C1061 0.950 1_556 S
H1054 C1059 0.950 1_556 S
H1055 C1060 0.949 . S
H1056 C1062 0.950 1_554 S
H1057 C1063 0.950 1_554 S
H1058 C1064 0.949 . S
C1059 H1054 0.950 1_554 S
C1059 C1061 1.327 . S
C1059 C1065 1.429 . S
C1060 C1052 1.574 1_455 S
C1060 H1055 0.949 . S
C1060 C1066 1.368 . S
C1061 C1045 1.349 . S
C1061 H1053 0.950 1_554 S
C1061 C1059 1.327 . S
C1062 C1050 1.349 . S
C1062 H1056 0.950 1_556 S
C1062 C1063 1.327 . S
C1063 H1057 0.950 1_556 S
C1063 C1062 1.327 . S
C1063 C1067 1.429 . S
C1064 C1047 1.574 1_655 S
C1064 H1058 0.949 . S
C1064 C1068 1.368 . S
C1065 C1046 1.429 . S
C1065 C1059 1.429 . S
C1065 C1066 1.523 . S
C1066 C1047 1.368 1_554 S
C1066 C1060 1.368 . S
C1066 C1065 1.523 . S
C1067 C1051 1.429 . S
C1067 C1063 1.429 . S
C1067 C1068 1.523 . S
C1068 C1052 1.368 1_556 S
C1068 C1064 1.368 . S
C1068 C1067 1.523 . S
H1069 C1044 0.950 . S
H1070 C1046 0.950 . S
H1071 C1047 0.949 . S
H1072 C1049 0.950 . S
H1073 C1051 0.950 . S
C1074 C1075 1.349 . S
C1074 C1076 1.327 . S
C1074 H1099 0.950 . S
C1075 C1074 1.349 . S
C1075 C1091 1.349 . S
C1076 C1074 1.327 . S
C1076 C1095 1.429 . S
C1076 H1100 0.950 . S
C1077 C1094 1.574 . S
C1077 C1096 1.368 1_554 S
C1077 H1101 0.949 . S
H1078 C1082 0.949 . S
C1079 C1080 1.349 . S
C1079 C1081 1.327 . S
C1079 H1102 0.950 . S
C1080 C1079 1.349 . S
C1080 C1092 1.349 . S
C1081 C1079 1.327 . S
C1081 C1097 1.429 . S
C1081 H1103 0.950 . S
C1082 H1078 0.949 . S
C1082 C1090 1.574 . S
C1082 C1098 1.368 1_556 S
H1083 C1091 0.950 . S
H1084 C1089 0.950 1_554 S
H1085 C1090 0.949 . S
H1086 C1092 0.950 . S
H1087 C1093 0.950 1_556 S
H1088 C1094 0.949 . S
C1089 H1084 0.950 1_556 S
C1089 C1091 1.327 . S
C1089 C1095 1.429 . S
C1090 C1082 1.574 . S
C1090 H1085 0.949 . S
C1090 C1096 1.368 . S
C1091 C1075 1.349 . S
C1091 H1083 0.950 . S
C1091 C1089 1.327 . S
C1092 C1080 1.349 . S
C1092 H1086 0.950 . S
C1092 C1093 1.327 . S
C1093 H1087 0.950 1_554 S
C1093 C1092 1.327 . S
C1093 C1097 1.429 . S
C1094 C1077 1.574 . S
C1094 H1088 0.949 . S
C1094 C1098 1.368 . S
C1095 C1076 1.429 . S
C1095 C1089 1.429 . S
C1095 C1096 1.523 . S
C1096 C1077 1.368 1_556 S
C1096 C1090 1.368 . S
C1096 C1095 1.523 . S
C1097 C1081 1.429 . S
C1097 C1093 1.429 . S
C1097 C1098 1.523 . S
C1098 C1082 1.368 1_554 S
C1098 C1094 1.368 . S
C1098 C1097 1.523 . S
H1099 C1074 0.950 . S
H1100 C1076 0.950 . S
H1101 C1077 0.949 . S
H1102 C1079 0.950 . S
H1103 C1081 0.950 . S
C1104 C1105 1.349 . S
C1104 C1106 1.327 . S
C1104 H1129 0.950 . S
C1105 C1104 1.349 . S
C1105 C1121 1.349 . S
C1106 C1104 1.327 . S
C1106 C1125 1.429 . S
C1106 H1130 0.950 1_554 S
C1107 C1124 1.574 1_565 S
C1107 C1126 1.368 . S
C1107 H1131 0.949 . S
H1108 C1112 0.949 . S
C1109 C1110 1.349 . S
C1109 C1111 1.327 . S
C1109 H1132 0.950 . S
C1110 C1109 1.349 . S
C1110 C1122 1.349 . S
C1111 C1109 1.327 . S
C1111 C1127 1.429 . S
C1111 H1133 0.950 1_556 S
C1112 H1108 0.949 . S
C1112 C1120 1.574 1_545 S
C1112 C1128 1.368 . S
H1113 C1121 0.950 . S
H1114 C1119 0.950 . S
H1115 C1120 0.949 . S
H1116 C1122 0.950 . S
H1117 C1123 0.950 . S
H1118 C1124 0.949 . S
C1119 H1114 0.950 . S
C1119 C1121 1.327 . S
C1119 C1125 1.429 . S
C1120 C1112 1.574 1_565 S
C1120 H1115 0.949 . S
C1120 C1126 1.368 1_556 S
C1121 C1105 1.349 . S
C1121 H1113 0.950 . S
C1121 C1119 1.327 . S
C1122 C1110 1.349 . S
C1122 H1116 0.950 . S
C1122 C1123 1.327 . S
C1123 H1117 0.950 . S
C1123 C1122 1.327 . S
C1123 C1127 1.429 . S
C1124 C1107 1.574 1_545 S
C1124 H1118 0.949 . S
C1124 C1128 1.368 1_554 S
C1125 C1106 1.429 . S
C1125 C1119 1.429 . S
C1125 C1126 1.523 . S
C1126 C1107 1.368 . S
C1126 C1120 1.368 1_554 S
C1126 C1125 1.523 . S
C1127 C1111 1.429 . S
C1127 C1123 1.429 . S
C1127 C1128 1.523 . S
C1128 C1112 1.368 . S
C1128 C1124 1.368 1_556 S
C1128 C1127 1.523 . S
H1129 C1104 0.950 . S
H1130 C1106 0.950 1_556 S
H1131 C1107 0.949 . S
H1132 C1109 0.950 . S
H1133 C1111 0.950 1_554 S
C1134 C1135 1.349 . S
C1134 C1136 1.327 . S
C1134 H1159 0.950 . S
C1135 C1134 1.349 . S
C1135 C1151 1.349 . S
C1136 C1134 1.327 . S
C1136 C1155 1.429 . S
C1136 H1160 0.950 . S
C1137 C1154 1.574 1_655 S
C1137 C1156 1.368 1_554 S
C1137 H1161 0.949 . S
H1138 C1142 0.949 . S
C1139 C1140 1.349 . S
C1139 C1141 1.327 . S
C1139 H1162 0.950 . S
C1140 C1139 1.349 . S
C1140 C1152 1.349 . S
C1141 C1139 1.327 . S
C1141 C1157 1.429 . S
C1141 H1163 0.950 . S
C1142 H1138 0.949 . S
C1142 C1150 1.574 1_455 S
C1142 C1158 1.368 1_556 S
H1143 C1151 0.950 . S
H1144 C1149 0.950 1_554 S
H1145 C1150 0.949 . S
H1146 C1152 0.950 . S
H1147 C1153 0.950 1_556 S
H1148 C1154 0.949 . S
C1149 H1144 0.950 1_556 S
C1149 C1151 1.327 . S
C1149 C1155 1.429 . S
C1150 C1142 1.574 1_655 S
C1150 H1145 0.949 . S
C1150 C1156 1.368 . S
C1151 C1135 1.349 . S
C1151 H1143 0.950 . S
C1151 C1149 1.327 . S
C1152 C1140 1.349 . S
C1152 H1146 0.950 . S
C1152 C1153 1.327 . S
C1153 H1147 0.950 1_554 S
C1153 C1152 1.327 . S
C1153 C1157 1.429 . S
C1154 C1137 1.574 1_455 S
C1154 H1148 0.949 . S
C1154 C1158 1.368 . S
C1155 C1136 1.429 . S
C1155 C1149 1.429 . S
C1155 C1156 1.523 . S
C1156 C1137 1.368 1_556 S
C1156 C1150 1.368 . S
C1156 C1155 1.523 . S
C1157 C1141 1.429 . S
C1157 C1153 1.429 . S
C1157 C1158 1.523 . S
C1158 C1142 1.368 1_554 S
C1158 C1154 1.368 . S
C1158 C1157 1.523 . S
H1159 C1134 0.950 . S
H1160 C1136 0.950 . S
H1161 C1137 0.949 . S
H1162 C1139 0.950 . S
H1163 C1141 0.950 . S
C1164 C1165 1.349 . S
C1164 C1166 1.327 . S
C1164 H1189 0.950 . S
C1165 C1164 1.349 . S
C1165 C1181 1.349 . S
C1166 C1164 1.327 . S
C1166 C1185 1.429 . S
C1166 H1190 0.950 1_556 S
C1167 C1184 1.574 . S
C1167 C1186 1.368 . S
C1167 H1191 0.949 . S
H1168 C1172 0.949 . S
C1169 C1170 1.349 . S
C1169 C1171 1.327 . S
C1169 H1192 0.950 . S
C1170 C1169 1.349 . S
C1170 C1182 1.349 . S
C1171 C1169 1.327 . S
C1171 C1187 1.429 . S
C1171 H1193 0.950 1_554 S
C1172 H1168 0.949 . S
C1172 C1180 1.574 . S
C1172 C1188 1.368 . S
H1173 C1181 0.950 . S
H1174 C1179 0.950 . S
H1175 C1180 0.949 . S
H1176 C1182 0.950 . S
H1177 C1183 0.950 . S
H1178 C1184 0.949 . S
C1179 H1174 0.950 . S
C1179 C1181 1.327 . S
C1179 C1185 1.429 . S
C1180 C1172 1.574 . S
C1180 H1175 0.949 . S
C1180 C1186 1.368 1_554 S
C1181 C1165 1.349 . S
C1181 H1173 0.950 . S
C1181 C1179 1.327 . S
C1182 C1170 1.349 . S
C1182 H1176 0.950 . S
C1182 C1183 1.327 . S
C1183 H1177 0.950 . S
C1183 C1182 1.327 . S
C1183 C1187 1.429 . S
C1184 C1167 1.574 . S
C1184 H1178 0.949 . S
C1184 C1188 1.368 1_556 S
C1185 C1166 1.429 . S
C1185 C1179 1.429 . S
C1185 C1186 1.523 . S
C1186 C1167 1.368 . S
C1186 C1180 1.368 1_556 S
C1186 C1185 1.523 . S
C1187 C1171 1.429 . S
C1187 C1183 1.429 . S
C1187 C1188 1.523 . S
C1188 C1172 1.368 . S
C1188 C1184 1.368 1_554 S
C1188 C1187 1.523 . S
H1189 C1164 0.950 . S
H1190 C1166 0.950 1_554 S
H1191 C1167 0.949 . S
H1192 C1169 0.950 . S
H1193 C1171 0.950 1_556 S
C1194 C1195 1.349 . S
C1194 C1196 1.327 . S
C1194 H1219 0.950 . S
C1195 C1194 1.349 . S
C1195 C1211 1.349 . S
C1196 C1194 1.327 . S
C1196 C1215 1.429 . S
C1196 H1220 0.950 1_556 S
C1197 C1214 1.574 1_545 S
C1197 C1216 1.368 . S
C1197 H1221 0.949 . S
H1198 C1202 0.949 . S
C1199 C1200 1.349 . S
C1199 C1201 1.327 . S
C1199 H1222 0.950 . S
C1200 C1199 1.349 . S
C1200 C1212 1.349 . S
C1201 C1199 1.327 . S
C1201 C1217 1.429 . S
C1201 H1223 0.950 1_554 S
C1202 H1198 0.949 . S
C1202 C1210 1.574 1_565 S
C1202 C1218 1.368 . S
H1203 C1211 0.950 . S
H1204 C1209 0.950 . S
H1205 C1210 0.949 . S
H1206 C1212 0.950 . S
H1207 C1213 0.950 . S
H1208 C1214 0.949 . S
C1209 H1204 0.950 . S
C1209 C1211 1.327 . S
C1209 C1215 1.429 . S
C1210 C1202 1.574 1_545 S
C1210 H1205 0.949 . S
C1210 C1216 1.368 1_554 S
C1211 C1195 1.349 . S
C1211 H1203 0.950 . S
C1211 C1209 1.327 . S
C1212 C1200 1.349 . S
C1212 H1206 0.950 . S
C1212 C1213 1.327 . S
C1213 H1207 0.950 . S
C1213 C1212 1.327 . S
C1213 C1217 1.429 . S
C1214 C1197 1.574 1_565 S
C1214 H1208 0.949 . S
C1214 C1218 1.368 1_556 S
C1215 C1196 1.429 . S
C1215 C1209 1.429 . S
C1215 C1216 1.523 . S
C1216 C1197 1.368 . S
C1216 C1210 1.368 1_556 S
C1216 C1215 1.523 . S
C1217 C1201 1.429 . S
C1217 C1213 1.429 . S
C1217 C1218 1.523 . S
C1218 C1202 1.368 . S
C1218 C1214 1.368 1_554 S
C1218 C1217 1.523 . S
H1219 C1194 0.950 . S
H1220 C1196 0.950 1_554 S
H1221 C1197 0.949 . S
H1222 C1199 0.950 . S
H1223 C1201 0.950 1_556 S
C1224 C1225 1.349 . S
C1224 C1226 1.327 . S
C1224 H1249 0.950 . S
C1225 C1224 1.349 . S
C1225 C1241 1.349 . S
C1226 C1224 1.327 . S
C1226 C1245 1.429 . S
C1226 H1250 0.950 . S
C1227 C1244 1.574 . S
C1227 C1246 1.368 . S
C1227 H1251 0.949 . S
H1228 C1232 0.949 . S
C1229 C1230 1.349 . S
C1229 C1231 1.327 . S
C1229 H1252 0.950 . S
C1230 C1229 1.349 . S
C1230 C1242 1.349 . S
C1231 C1229 1.327 . S
C1231 C1247 1.429 . S
C1231 H1253 0.950 . S
C1232 H1228 0.949 . S
C1232 C1240 1.574 . S
C1232 C1248 1.368 . S
H1233 C1241 0.950 . S
H1234 C1239 0.950 . S
H1235 C1240 0.949 . S
H1236 C1242 0.950 . S
H1237 C1243 0.950 . S
H1238 C1244 0.949 . S
C1239 H1234 0.950 . S
C1239 C1241 1.327 . S
C1239 C1245 1.429 . S
C1240 C1232 1.574 . S
C1240 H1235 0.949 . S
C1240 C1246 1.368 . S
C1241 C1225 1.349 . S
C1241 H1233 0.950 . S
C1241 C1239 1.327 . S
C1242 C1230 1.349 . S
C1242 H1236 0.950 . S
C1242 C1243 1.327 . S
C1243 H1237 0.950 . S
C1243 C1242 1.327 . S
C1243 C1247 1.429 . S
C1244 C1227 1.574 . S
C1244 H1238 0.949 . S
C1244 C1248 1.368 . S
C1245 C1226 1.429 . S
C1245 C1239 1.429 . S
C1245 C1246 1.523 . S
C1246 C1227 1.368 . S
C1246 C1240 1.368 . S
C1246 C1245 1.523 . S
C1247 C1231 1.429 . S
C1247 C1243 1.429 . S
C1247 C1248 1.523 . S
C1248 C1232 1.368 . S
C1248 C1244 1.368 . S
C1248 C1247 1.523 . S
H1249 C1224 0.950 . S
H1250 C1226 0.950 . S
H1251 C1227 0.949 . S
H1252 C1229 0.950 . S
H1253 C1231 0.950 . S
C1254 C1255 1.349 . S
C1254 C1256 1.327 . S
C1254 H1279 0.950 . S
C1255 C1254 1.349 . S
C1255 C1271 1.349 . S
C1256 C1254 1.327 . S
C1256 C1275 1.429 . S
C1256 H1280 0.950 . S
C1257 C1274 1.574 . S
C1257 C1276 1.368 . S
C1257 H1281 0.949 . S
H1258 C1262 0.949 . S
C1259 C1260 1.349 . S
C1259 C1261 1.327 . S
C1259 H1282 0.950 . S
C1260 C1259 1.349 . S
C1260 C1272 1.349 . S
C1261 C1259 1.327 . S
C1261 C1277 1.429 . S
C1261 H1283 0.950 . S
C1262 H1258 0.949 . S
C1262 C1270 1.574 . S
C1262 C1278 1.368 . S
H1263 C1271 0.950 . S
H1264 C1269 0.950 . S
H1265 C1270 0.949 . S
H1266 C1272 0.950 . S
H1267 C1273 0.950 . S
H1268 C1274 0.949 . S
C1269 H1264 0.950 . S
C1269 C1271 1.327 . S
C1269 C1275 1.429 . S
C1270 C1262 1.574 . S
C1270 H1265 0.949 . S
C1270 C1276 1.368 . S
C1271 C1255 1.349 . S
C1271 H1263 0.950 . S
C1271 C1269 1.327 . S
C1272 C1260 1.349 . S
C1272 H1266 0.950 . S
C1272 C1273 1.327 . S
C1273 H1267 0.950 . S
C1273 C1272 1.327 . S
C1273 C1277 1.429 . S
C1274 C1257 1.574 . S
C1274 H1268 0.949 . S
C1274 C1278 1.368 . S
C1275 C1256 1.429 . S
C1275 C1269 1.429 . S
C1275 C1276 1.523 . S
C1276 C1257 1.368 . S
C1276 C1270 1.368 . S
C1276 C1275 1.523 . S
C1277 C1261 1.429 . S
C1277 C1273 1.429 . S
C1277 C1278 1.523 . S
C1278 C1262 1.368 . S
C1278 C1274 1.368 . S
C1278 C1277 1.523 . S
H1279 C1254 0.950 . S
H1280 C1256 0.950 . S
H1281 C1257 0.949 . S
H1282 C1259 0.950 . S
H1283 C1261 0.950 . S
C1284 C1285 1.349 . S
C1284 C1286 1.327 . S
C1284 H1309 0.950 . S
C1285 C1284 1.349 . S
C1285 C1301 1.349 . S
C1286 C1284 1.327 . S
C1286 C1305 1.429 . S
C1286 H1310 0.950 . S
C1287 C1304 1.574 . S
C1287 C1306 1.368 . S
C1287 H1311 0.949 . S
H1288 C1292 0.949 . S
C1289 C1290 1.349 . S
C1289 C1291 1.327 . S
C1289 H1312 0.950 . S
C1290 C1289 1.349 . S
C1290 C1302 1.349 . S
C1291 C1289 1.327 . S
C1291 C1307 1.429 . S
C1291 H1313 0.950 . S
C1292 H1288 0.949 . S
C1292 C1300 1.574 . S
C1292 C1308 1.368 . S
H1293 C1301 0.950 . S
H1294 C1299 0.950 . S
H1295 C1300 0.949 . S
H1296 C1302 0.950 . S
H1297 C1303 0.950 . S
H1298 C1304 0.949 . S
C1299 H1294 0.950 . S
C1299 C1301 1.327 . S
C1299 C1305 1.429 . S
C1300 C1292 1.574 . S
C1300 H1295 0.949 . S
C1300 C1306 1.368 . S
C1301 C1285 1.349 . S
C1301 H1293 0.950 . S
C1301 C1299 1.327 . S
C1302 C1290 1.349 . S
C1302 H1296 0.950 . S
C1302 C1303 1.327 . S
C1303 H1297 0.950 . S
C1303 C1302 1.327 . S
C1303 C1307 1.429 . S
C1304 C1287 1.574 . S
C1304 H1298 0.949 . S
C1304 C1308 1.368 . S
C1305 C1286 1.429 . S
C1305 C1299 1.429 . S
C1305 C1306 1.523 . S
C1306 C1287 1.368 . S
C1306 C1300 1.368 . S
C1306 C1305 1.523 . S
C1307 C1291 1.429 . S
C1307 C1303 1.429 . S
C1307 C1308 1.523 . S
C1308 C1292 1.368 . S
C1308 C1304 1.368 . S
C1308 C1307 1.523 . S
H1309 C1284 0.950 . S
H1310 C1286 0.950 . S
H1311 C1287 0.949 . S
H1312 C1289 0.950 . S
H1313 C1291 0.950 . S
C1314 C1315 1.349 . S
C1314 C1316 1.327 . S
C1314 H1339 0.950 . S
C1315 C1314 1.349 . S
C1315 C1331 1.349 . S
C1316 C1314 1.327 . S
C1316 C1335 1.429 . S
C1316 H1340 0.950 . S
C1317 C1334 1.574 . S
C1317 C1336 1.368 . S
C1317 H1341 0.949 . S
H1318 C1322 0.949 . S
C1319 C1320 1.349 . S
C1319 C1321 1.327 . S
C1319 H1342 0.950 . S
C1320 C1319 1.349 . S
C1320 C1332 1.349 . S
C1321 C1319 1.327 . S
C1321 C1337 1.429 . S
C1321 H1343 0.950 . S
C1322 H1318 0.949 . S
C1322 C1330 1.574 . S
C1322 C1338 1.368 . S
H1323 C1331 0.950 . S
H1324 C1329 0.950 . S
H1325 C1330 0.949 . S
H1326 C1332 0.950 . S
H1327 C1333 0.950 . S
H1328 C1334 0.949 . S
C1329 H1324 0.950 . S
C1329 C1331 1.327 . S
C1329 C1335 1.429 . S
C1330 C1322 1.574 . S
C1330 H1325 0.949 . S
C1330 C1336 1.368 . S
C1331 C1315 1.349 . S
C1331 H1323 0.950 . S
C1331 C1329 1.327 . S
C1332 C1320 1.349 . S
C1332 H1326 0.950 . S
C1332 C1333 1.327 . S
C1333 H1327 0.950 . S
C1333 C1332 1.327 . S
C1333 C1337 1.429 . S
C1334 C1317 1.574 . S
C1334 H1328 0.949 . S
C1334 C1338 1.368 . S
C1335 C1316 1.429 . S
C1335 C1329 1.429 . S
C1335 C1336 1.523 . S
C1336 C1317 1.368 . S
C1336 C1330 1.368 . S
C1336 C1335 1.523 . S
C1337 C1321 1.429 . S
C1337 C1333 1.429 . S
C1337 C1338 1.523 . S
C1338 C1322 1.368 . S
C1338 C1334 1.368 . S
C1338 C1337 1.523 . S
H1339 C1314 0.950 . S
H1340 C1316 0.950 . S
H1341 C1317 0.949 . S
H1342 C1319 0.950 . S
H1343 C1321 0.950 . S
C1344 C1345 1.349 . S
C1344 C1346 1.327 . S
C1344 H1369 0.950 . S
C1345 C1344 1.349 . S
C1345 C1361 1.349 . S
C1346 C1344 1.327 . S
C1346 C1365 1.429 . S
C1346 H1370 0.950 . S
C1347 C1364 1.574 . S
C1347 C1366 1.368 . S
C1347 H1371 0.949 . S
H1348 C1352 0.949 . S
C1349 C1350 1.349 . S
C1349 C1351 1.327 . S
C1349 H1372 0.950 . S
C1350 C1349 1.349 . S
C1350 C1362 1.349 . S
C1351 C1349 1.327 . S
C1351 C1367 1.429 . S
C1351 H1373 0.950 . S
C1352 H1348 0.949 . S
C1352 C1360 1.574 . S
C1352 C1368 1.368 . S
H1353 C1361 0.950 . S
H1354 C1359 0.950 . S
H1355 C1360 0.949 . S
H1356 C1362 0.950 . S
H1357 C1363 0.950 . S
H1358 C1364 0.949 . S
C1359 H1354 0.950 . S
C1359 C1361 1.327 . S
C1359 C1365 1.429 . S
C1360 C1352 1.574 . S
C1360 H1355 0.949 . S
C1360 C1366 1.368 . S
C1361 C1345 1.349 . S
C1361 H1353 0.950 . S
C1361 C1359 1.327 . S
C1362 C1350 1.349 . S
C1362 H1356 0.950 . S
C1362 C1363 1.327 . S
C1363 H1357 0.950 . S
C1363 C1362 1.327 . S
C1363 C1367 1.429 . S
C1364 C1347 1.574 . S
C1364 H1358 0.949 . S
C1364 C1368 1.368 . S
C1365 C1346 1.429 . S
C1365 C1359 1.429 . S
C1365 C1366 1.523 . S
C1366 C1347 1.368 . S
C1366 C1360 1.368 . S
C1366 C1365 1.523 . S
C1367 C1351 1.429 . S
C1367 C1363 1.429 . S
C1367 C1368 1.523 . S
C1368 C1352 1.368 . S
C1368 C1364 1.368 . S
C1368 C1367 1.523 . S
H1369 C1344 0.950 . S
H1370 C1346 0.950 . S
H1371 C1347 0.949 . S
H1372 C1349 0.950 . S
H1373 C1351 0.950 . S
C1374 C1375 1.349 . S
C1374 C1376 1.327 . S
C1374 H1399 0.950 . S
C1375 C1374 1.349 . S
C1375 C1391 1.349 . S
C1376 C1374 1.327 . S
C1376 C1395 1.429 . S
C1376 H1400 0.950 . S
C1377 C1394 1.574 . S
C1377 C1396 1.368 . S
C1377 H1401 0.949 . S
H1378 C1382 0.949 . S
C1379 C1380 1.349 . S
C1379 C1381 1.327 . S
C1379 H1402 0.950 . S
C1380 C1379 1.349 . S
C1380 C1392 1.349 . S
C1381 C1379 1.327 . S
C1381 C1397 1.429 . S
C1381 H1403 0.950 . S
C1382 H1378 0.949 . S
C1382 C1390 1.574 . S
C1382 C1398 1.368 . S
H1383 C1391 0.950 . S
H1384 C1389 0.950 . S
H1385 C1390 0.949 . S
H1386 C1392 0.950 . S
H1387 C1393 0.950 . S
H1388 C1394 0.949 . S
C1389 H1384 0.950 . S
C1389 C1391 1.327 . S
C1389 C1395 1.429 . S
C1390 C1382 1.574 . S
C1390 H1385 0.949 . S
C1390 C1396 1.368 . S
C1391 C1375 1.349 . S
C1391 H1383 0.950 . S
C1391 C1389 1.327 . S
C1392 C1380 1.349 . S
C1392 H1386 0.950 . S
C1392 C1393 1.327 . S
C1393 H1387 0.950 . S
C1393 C1392 1.327 . S
C1393 C1397 1.429 . S
C1394 C1377 1.574 . S
C1394 H1388 0.949 . S
C1394 C1398 1.368 . S
C1395 C1376 1.429 . S
C1395 C1389 1.429 . S
C1395 C1396 1.523 . S
C1396 C1377 1.368 . S
C1396 C1390 1.368 . S
C1396 C1395 1.523 . S
C1397 C1381 1.429 . S
C1397 C1393 1.429 . S
C1397 C1398 1.523 . S
C1398 C1382 1.368 . S
C1398 C1394 1.368 . S
C1398 C1397 1.523 . S
H1399 C1374 0.950 . S
H1400 C1376 0.950 . S
H1401 C1377 0.949 . S
H1402 C1379 0.950 . S
H1403 C1381 0.950 . S
C1404 C1405 1.349 . S
C1404 C1406 1.327 . S
C1404 H1429 0.950 . S
C1405 C1404 1.349 . S
C1405 C1421 1.349 . S
C1406 C1404 1.327 . S
C1406 C1425 1.429 . S
C1406 H1430 0.950 . S
C1407 C1424 1.574 . S
C1407 C1426 1.368 . S
C1407 H1431 0.949 . S
H1408 C1412 0.949 . S
C1409 C1410 1.349 . S
C1409 C1411 1.327 . S
C1409 H1432 0.950 . S
C1410 C1409 1.349 . S
C1410 C1422 1.349 . S
C1411 C1409 1.327 . S
C1411 C1427 1.429 . S
C1411 H1433 0.950 . S
C1412 H1408 0.949 . S
C1412 C1420 1.574 . S
C1412 C1428 1.368 . S
H1413 C1421 0.950 . S
H1414 C1419 0.950 . S
H1415 C1420 0.949 . S
H1416 C1422 0.950 . S
H1417 C1423 0.950 . S
H1418 C1424 0.949 . S
C1419 H1414 0.950 . S
C1419 C1421 1.327 . S
C1419 C1425 1.429 . S
C1420 C1412 1.574 . S
C1420 H1415 0.949 . S
C1420 C1426 1.368 . S
C1421 C1405 1.349 . S
C1421 H1413 0.950 . S
C1421 C1419 1.327 . S
C1422 C1410 1.349 . S
C1422 H1416 0.950 . S
C1422 C1423 1.327 . S
C1423 H1417 0.950 . S
C1423 C1422 1.327 . S
C1423 C1427 1.429 . S
C1424 C1407 1.574 . S
C1424 H1418 0.949 . S
C1424 C1428 1.368 . S
C1425 C1406 1.429 . S
C1425 C1419 1.429 . S
C1425 C1426 1.523 . S
C1426 C1407 1.368 . S
C1426 C1420 1.368 . S
C1426 C1425 1.523 . S
C1427 C1411 1.429 . S
C1427 C1423 1.429 . S
C1427 C1428 1.523 . S
C1428 C1412 1.368 . S
C1428 C1424 1.368 . S
C1428 C1427 1.523 . S
H1429 C1404 0.950 . S
H1430 C1406 0.950 . S
H1431 C1407 0.949 . S
H1432 C1409 0.950 . S
H1433 C1411 0.950 . S
C1434 C1435 1.349 . S
C1434 C1436 1.327 . S
C1434 H1459 0.950 . S
C1435 C1434 1.349 . S
C1435 C1451 1.349 . S
C1436 C1434 1.327 . S
C1436 C1455 1.429 . S
C1436 H1460 0.950 . S
C1437 C1454 1.574 . S
C1437 C1456 1.368 . S
C1437 H1461 0.949 . S
H1438 C1442 0.949 . S
C1439 C1440 1.349 . S
C1439 C1441 1.327 . S
C1439 H1462 0.950 . S
C1440 C1439 1.349 . S
C1440 C1452 1.349 . S
C1441 C1439 1.327 . S
C1441 C1457 1.429 . S
C1441 H1463 0.950 . S
C1442 H1438 0.949 . S
C1442 C1450 1.574 . S
C1442 C1458 1.368 . S
H1443 C1451 0.950 . S
H1444 C1449 0.950 . S
H1445 C1450 0.949 . S
H1446 C1452 0.950 . S
H1447 C1453 0.950 . S
H1448 C1454 0.949 . S
C1449 H1444 0.950 . S
C1449 C1451 1.327 . S
C1449 C1455 1.429 . S
C1450 C1442 1.574 . S
C1450 H1445 0.949 . S
C1450 C1456 1.368 . S
C1451 C1435 1.349 . S
C1451 H1443 0.950 . S
C1451 C1449 1.327 . S
C1452 C1440 1.349 . S
C1452 H1446 0.950 . S
C1452 C1453 1.327 . S
C1453 H1447 0.950 . S
C1453 C1452 1.327 . S
C1453 C1457 1.429 . S
C1454 C1437 1.574 . S
C1454 H1448 0.949 . S
C1454 C1458 1.368 . S
C1455 C1436 1.429 . S
C1455 C1449 1.429 . S
C1455 C1456 1.523 . S
C1456 C1437 1.368 . S
C1456 C1450 1.368 . S
C1456 C1455 1.523 . S
C1457 C1441 1.429 . S
C1457 C1453 1.429 . S
C1457 C1458 1.523 . S
C1458 C1442 1.368 . S
C1458 C1454 1.368 . S
C1458 C1457 1.523 . S
H1459 C1434 0.950 . S
H1460 C1436 0.950 . S
H1461 C1437 0.949 . S
H1462 C1439 0.950 . S
H1463 C1441 0.950 . S
C1464 C1465 1.349 . S
C1464 C1466 1.327 . S
C1464 H1489 0.950 . S
C1465 C1464 1.349 . S
C1465 C1481 1.349 . S
C1466 C1464 1.327 . S
C1466 C1485 1.429 . S
C1466 H1490 0.950 . S
C1467 C1484 1.574 . S
C1467 C1486 1.368 . S
C1467 H1491 0.949 . S
H1468 C1472 0.949 . S
C1469 C1470 1.349 . S
C1469 C1471 1.327 . S
C1469 H1492 0.950 . S
C1470 C1469 1.349 . S
C1470 C1482 1.349 . S
C1471 C1469 1.327 . S
C1471 C1487 1.429 . S
C1471 H1493 0.950 . S
C1472 H1468 0.949 . S
C1472 C1480 1.574 . S
C1472 C1488 1.368 . S
H1473 C1481 0.950 . S
H1474 C1479 0.950 . S
H1475 C1480 0.949 . S
H1476 C1482 0.950 . S
H1477 C1483 0.950 . S
H1478 C1484 0.949 . S
C1479 H1474 0.950 . S
C1479 C1481 1.327 . S
C1479 C1485 1.429 . S
C1480 C1472 1.574 . S
C1480 H1475 0.949 . S
C1480 C1486 1.368 . S
C1481 C1465 1.349 . S
C1481 H1473 0.950 . S
C1481 C1479 1.327 . S
C1482 C1470 1.349 . S
C1482 H1476 0.950 . S
C1482 C1483 1.327 . S
C1483 H1477 0.950 . S
C1483 C1482 1.327 . S
C1483 C1487 1.429 . S
C1484 C1467 1.574 . S
C1484 H1478 0.949 . S
C1484 C1488 1.368 . S
C1485 C1466 1.429 . S
C1485 C1479 1.429 . S
C1485 C1486 1.523 . S
C1486 C1467 1.368 . S
C1486 C1480 1.368 . S
C1486 C1485 1.523 . S
C1487 C1471 1.429 . S
C1487 C1483 1.429 . S
C1487 C1488 1.523 . S
C1488 C1472 1.368 . S
C1488 C1484 1.368 . S
C1488 C1487 1.523 . S
H1489 C1464 0.950 . S
H1490 C1466 0.950 . S
H1491 C1467 0.949 . S
H1492 C1469 0.950 . S
H1493 C1471 0.950 . S
C1494 C1495 1.349 . S
C1494 C1496 1.327 . S
C1494 H1519 0.950 . S
C1495 C1494 1.349 . S
C1495 C1511 1.349 . S
C1496 C1494 1.327 . S
C1496 C1515 1.429 . S
C1496 H1520 0.950 . S
C1497 C1514 1.574 . S
C1497 C1516 1.368 . S
C1497 H1521 0.949 . S
H1498 C1502 0.949 . S
C1499 C1500 1.349 . S
C1499 C1501 1.327 . S
C1499 H1522 0.950 . S
C1500 C1499 1.349 . S
C1500 C1512 1.349 . S
C1501 C1499 1.327 . S
C1501 C1517 1.429 . S
C1501 H1523 0.950 . S
C1502 H1498 0.949 . S
C1502 C1510 1.574 . S
C1502 C1518 1.368 . S
H1503 C1511 0.950 . S
H1504 C1509 0.950 . S
H1505 C1510 0.949 . S
H1506 C1512 0.950 . S
H1507 C1513 0.950 . S
H1508 C1514 0.949 . S
C1509 H1504 0.950 . S
C1509 C1511 1.327 . S
C1509 C1515 1.429 . S
C1510 C1502 1.574 . S
C1510 H1505 0.949 . S
C1510 C1516 1.368 . S
C1511 C1495 1.349 . S
C1511 H1503 0.950 . S
C1511 C1509 1.327 . S
C1512 C1500 1.349 . S
C1512 H1506 0.950 . S
C1512 C1513 1.327 . S
C1513 H1507 0.950 . S
C1513 C1512 1.327 . S
C1513 C1517 1.429 . S
C1514 C1497 1.574 . S
C1514 H1508 0.949 . S
C1514 C1518 1.368 . S
C1515 C1496 1.429 . S
C1515 C1509 1.429 . S
C1515 C1516 1.523 . S
C1516 C1497 1.368 . S
C1516 C1510 1.368 . S
C1516 C1515 1.523 . S
C1517 C1501 1.429 . S
C1517 C1513 1.429 . S
C1517 C1518 1.523 . S
C1518 C1502 1.368 . S
C1518 C1514 1.368 . S
C1518 C1517 1.523 . S
H1519 C1494 0.950 . S
H1520 C1496 0.950 . S
H1521 C1497 0.949 . S
H1522 C1499 0.950 . S
H1523 C1501 0.950 . S
C1524 C1525 1.349 . S
C1524 C1526 1.327 . S
C1524 H1549 0.950 . S
C1525 C1524 1.349 . S
C1525 C1541 1.349 . S
C1526 C1524 1.327 . S
C1526 C1545 1.429 . S
C1526 H1550 0.950 . S
C1527 C1544 1.574 . S
C1527 C1546 1.368 . S
C1527 H1551 0.949 . S
H1528 C1532 0.949 . S
C1529 C1530 1.349 . S
C1529 C1531 1.327 . S
C1529 H1552 0.950 . S
C1530 C1529 1.349 . S
C1530 C1542 1.349 . S
C1531 C1529 1.327 . S
C1531 C1547 1.429 . S
C1531 H1553 0.950 . S
C1532 H1528 0.949 . S
C1532 C1540 1.574 . S
C1532 C1548 1.368 . S
H1533 C1541 0.950 . S
H1534 C1539 0.950 . S
H1535 C1540 0.949 . S
H1536 C1542 0.950 . S
H1537 C1543 0.950 . S
H1538 C1544 0.949 . S
C1539 H1534 0.950 . S
C1539 C1541 1.327 . S
C1539 C1545 1.429 . S
C1540 C1532 1.574 . S
C1540 H1535 0.949 . S
C1540 C1546 1.368 . S
C1541 C1525 1.349 . S
C1541 H1533 0.950 . S
C1541 C1539 1.327 . S
C1542 C1530 1.349 . S
C1542 H1536 0.950 . S
C1542 C1543 1.327 . S
C1543 H1537 0.950 . S
C1543 C1542 1.327 . S
C1543 C1547 1.429 . S
C1544 C1527 1.574 . S
C1544 H1538 0.949 . S
C1544 C1548 1.368 . S
C1545 C1526 1.429 . S
C1545 C1539 1.429 . S
C1545 C1546 1.523 . S
C1546 C1527 1.368 . S
C1546 C1540 1.368 . S
C1546 C1545 1.523 . S
C1547 C1531 1.429 . S
C1547 C1543 1.429 . S
C1547 C1548 1.523 . S
C1548 C1532 1.368 . S
C1548 C1544 1.368 . S
C1548 C1547 1.523 . S
H1549 C1524 0.950 . S
H1550 C1526 0.950 . S
H1551 C1527 0.949 . S
H1552 C1529 0.950 . S
H1553 C1531 0.950 . S
C1554 C1555 1.349 . S
C1554 C1556 1.327 . S
C1554 H1579 0.950 . S
C1555 C1554 1.349 . S
C1555 C1571 1.349 . S
C1556 C1554 1.327 . S
C1556 C1575 1.429 . S
C1556 H1580 0.950 . S
C1557 C1574 1.574 . S
C1557 C1576 1.368 . S
C1557 H1581 0.949 . S
H1558 C1562 0.949 . S
C1559 C1560 1.349 . S
C1559 C1561 1.327 . S
C1559 H1582 0.950 . S
C1560 C1559 1.349 . S
C1560 C1572 1.349 . S
C1561 C1559 1.327 . S
C1561 C1577 1.429 . S
C1561 H1583 0.950 . S
C1562 H1558 0.949 . S
C1562 C1570 1.574 . S
C1562 C1578 1.368 . S
H1563 C1571 0.950 . S
H1564 C1569 0.950 . S
H1565 C1570 0.949 . S
H1566 C1572 0.950 . S
H1567 C1573 0.950 . S
H1568 C1574 0.949 . S
C1569 H1564 0.950 . S
C1569 C1571 1.327 . S
C1569 C1575 1.429 . S
C1570 C1562 1.574 . S
C1570 H1565 0.949 . S
C1570 C1576 1.368 . S
C1571 C1555 1.349 . S
C1571 H1563 0.950 . S
C1571 C1569 1.327 . S
C1572 C1560 1.349 . S
C1572 H1566 0.950 . S
C1572 C1573 1.327 . S
C1573 H1567 0.950 . S
C1573 C1572 1.327 . S
C1573 C1577 1.429 . S
C1574 C1557 1.574 . S
C1574 H1568 0.949 . S
C1574 C1578 1.368 . S
C1575 C1556 1.429 . S
C1575 C1569 1.429 . S
C1575 C1576 1.523 . S
C1576 C1557 1.368 . S
C1576 C1570 1.368 . S
C1576 C1575 1.523 . S
C1577 C1561 1.429 . S
C1577 C1573 1.429 . S
C1577 C1578 1.523 . S
C1578 C1562 1.368 . S
C1578 C1574 1.368 . S
C1578 C1577 1.523 . S
H1579 C1554 0.950 . S
H1580 C1556 0.950 . S
H1581 C1557 0.949 . S
H1582 C1559 0.950 . S
H1583 C1561 0.950 . S
C1584 C1585 1.349 . S
C1584 C1586 1.327 . S
C1584 H1609 0.950 . S
C1585 C1584 1.349 . S
C1585 C1601 1.349 . S
C1586 C1584 1.327 . S
C1586 C1605 1.429 . S
C1586 H1610 0.950 . S
C1587 C1604 1.574 . S
C1587 C1606 1.368 . S
C1587 H1611 0.949 . S
H1588 C1592 0.949 . S
C1589 C1590 1.349 . S
C1589 C1591 1.327 . S
C1589 H1612 0.950 . S
C1590 C1589 1.349 . S
C1590 C1602 1.349 . S
C1591 C1589 1.327 . S
C1591 C1607 1.429 . S
C1591 H1613 0.950 . S
C1592 H1588 0.949 . S
C1592 C1600 1.574 . S
C1592 C1608 1.368 . S
H1593 C1601 0.950 . S
H1594 C1599 0.950 . S
H1595 C1600 0.949 . S
H1596 C1602 0.950 . S
H1597 C1603 0.950 . S
H1598 C1604 0.949 . S
C1599 H1594 0.950 . S
C1599 C1601 1.327 . S
C1599 C1605 1.429 . S
C1600 C1592 1.574 . S
C1600 H1595 0.949 . S
C1600 C1606 1.368 . S
C1601 C1585 1.349 . S
C1601 H1593 0.950 . S
C1601 C1599 1.327 . S
C1602 C1590 1.349 . S
C1602 H1596 0.950 . S
C1602 C1603 1.327 . S
C1603 H1597 0.950 . S
C1603 C1602 1.327 . S
C1603 C1607 1.429 . S
C1604 C1587 1.574 . S
C1604 H1598 0.949 . S
C1604 C1608 1.368 . S
C1605 C1586 1.429 . S
C1605 C1599 1.429 . S
C1605 C1606 1.523 . S
C1606 C1587 1.368 . S
C1606 C1600 1.368 . S
C1606 C1605 1.523 . S
C1607 C1591 1.429 . S
C1607 C1603 1.429 . S
C1607 C1608 1.523 . S
C1608 C1592 1.368 . S
C1608 C1604 1.368 . S
C1608 C1607 1.523 . S
H1609 C1584 0.950 . S
H1610 C1586 0.950 . S
H1611 C1587 0.949 . S
H1612 C1589 0.950 . S
H1613 C1591 0.950 . S
C1614 C1615 1.349 . S
C1614 C1616 1.327 . S
C1614 H1639 0.950 . S
C1615 C1614 1.349 . S
C1615 C1631 1.349 . S
C1616 C1614 1.327 . S
C1616 C1635 1.429 . S
C1616 H1640 0.950 . S
C1617 C1634 1.574 . S
C1617 C1636 1.368 . S
C1617 H1641 0.949 . S
H1618 C1622 0.949 . S
C1619 C1620 1.349 . S
C1619 C1621 1.327 . S
C1619 H1642 0.950 . S
C1620 C1619 1.349 . S
C1620 C1632 1.349 . S
C1621 C1619 1.327 . S
C1621 C1637 1.429 . S
C1621 H1643 0.950 . S
C1622 H1618 0.949 . S
C1622 C1630 1.574 . S
C1622 C1638 1.368 . S
H1623 C1631 0.950 1_554 S
H1624 C1629 0.950 . S
H1625 C1630 0.949 . S
H1626 C1632 0.950 . S
H1627 C1633 0.950 . S
H1628 C1634 0.949 . S
C1629 H1624 0.950 . S
C1629 C1631 1.327 . S
C1629 C1635 1.429 . S
C1630 C1622 1.574 . S
C1630 H1625 0.949 . S
C1630 C1636 1.368 . S
C1631 C1615 1.349 . S
C1631 H1623 0.950 1_556 S
C1631 C1629 1.327 . S
C1632 C1620 1.349 . S
C1632 H1626 0.950 . S
C1632 C1633 1.327 . S
C1633 H1627 0.950 . S
C1633 C1632 1.327 . S
C1633 C1637 1.429 . S
C1634 C1617 1.574 . S
C1634 H1628 0.949 . S
C1634 C1638 1.368 . S
C1635 C1616 1.429 . S
C1635 C1629 1.429 . S
C1635 C1636 1.523 . S
C1636 C1617 1.368 . S
C1636 C1630 1.368 . S
C1636 C1635 1.523 . S
C1637 C1621 1.429 . S
C1637 C1633 1.429 . S
C1637 C1638 1.523 . S
C1638 C1622 1.368 . S
C1638 C1634 1.368 . S
C1638 C1637 1.523 . S
H1639 C1614 0.950 . S
H1640 C1616 0.950 . S
H1641 C1617 0.949 . S
H1642 C1619 0.950 . S
H1643 C1621 0.950 . S
C1644 C1645 1.349 . S
C1644 C1646 1.327 . S
C1644 H1669 0.950 . S
C1645 C1644 1.349 . S
C1645 C1661 1.349 . S
C1646 C1644 1.327 . S
C1646 C1665 1.429 . S
C1646 H1670 0.950 . S
C1647 C1664 1.574 . S
C1647 C1666 1.368 . S
C1647 H1671 0.949 . S
H1648 C1652 0.949 . S
C1649 C1650 1.349 . S
C1649 C1651 1.327 . S
C1649 H1672 0.950 . S
C1650 C1649 1.349 . S
C1650 C1662 1.349 . S
C1651 C1649 1.327 . S
C1651 C1667 1.429 . S
C1651 H1673 0.950 . S
C1652 H1648 0.949 . S
C1652 C1660 1.574 . S
C1652 C1668 1.368 . S
H1653 C1661 0.950 . S
H1654 C1659 0.950 . S
H1655 C1660 0.949 . S
H1656 C1662 0.950 . S
H1657 C1663 0.950 . S
H1658 C1664 0.949 . S
C1659 H1654 0.950 . S
C1659 C1661 1.327 . S
C1659 C1665 1.429 . S
C1660 C1652 1.574 . S
C1660 H1655 0.949 . S
C1660 C1666 1.368 . S
C1661 C1645 1.349 . S
C1661 H1653 0.950 . S
C1661 C1659 1.327 . S
C1662 C1650 1.349 . S
C1662 H1656 0.950 . S
C1662 C1663 1.327 . S
C1663 H1657 0.950 . S
C1663 C1662 1.327 . S
C1663 C1667 1.429 . S
C1664 C1647 1.574 . S
C1664 H1658 0.949 . S
C1664 C1668 1.368 . S
C1665 C1646 1.429 . S
C1665 C1659 1.429 . S
C1665 C1666 1.523 . S
C1666 C1647 1.368 . S
C1666 C1660 1.368 . S
C1666 C1665 1.523 . S
C1667 C1651 1.429 . S
C1667 C1663 1.429 . S
C1667 C1668 1.523 . S
C1668 C1652 1.368 . S
C1668 C1664 1.368 . S
C1668 C1667 1.523 . S
H1669 C1644 0.950 . S
H1670 C1646 0.950 . S
H1671 C1647 0.949 . S
H1672 C1649 0.950 . S
H1673 C1651 0.950 . S
C1674 C1675 1.349 . S
C1674 C1676 1.327 . S
C1674 H1699 0.950 . S
C1675 C1674 1.349 . S
C1675 C1691 1.349 . S
C1676 C1674 1.327 . S
C1676 C1695 1.429 . S
C1676 H1700 0.950 . S
C1677 C1694 1.574 . S
C1677 C1696 1.368 . S
C1677 H1701 0.949 . S
H1678 C1682 0.949 . S
C1679 C1680 1.349 . S
C1679 C1681 1.327 . S
C1679 H1702 0.950 . S
C1680 C1679 1.349 . S
C1680 C1692 1.349 . S
C1681 C1679 1.327 . S
C1681 C1697 1.429 . S
C1681 H1703 0.950 . S
C1682 H1678 0.949 . S
C1682 C1690 1.574 . S
C1682 C1698 1.368 . S
H1683 C1691 0.950 . S
H1684 C1689 0.950 . S
H1685 C1690 0.949 . S
H1686 C1692 0.950 . S
H1687 C1693 0.950 . S
H1688 C1694 0.949 . S
C1689 H1684 0.950 . S
C1689 C1691 1.327 . S
C1689 C1695 1.429 . S
C1690 C1682 1.574 . S
C1690 H1685 0.949 . S
C1690 C1696 1.368 . S
C1691 C1675 1.349 . S
C1691 H1683 0.950 . S
C1691 C1689 1.327 . S
C1692 C1680 1.349 . S
C1692 H1686 0.950 . S
C1692 C1693 1.327 . S
C1693 H1687 0.950 . S
C1693 C1692 1.327 . S
C1693 C1697 1.429 . S
C1694 C1677 1.574 . S
C1694 H1688 0.949 . S
C1694 C1698 1.368 . S
C1695 C1676 1.429 . S
C1695 C1689 1.429 . S
C1695 C1696 1.523 . S
C1696 C1677 1.368 . S
C1696 C1690 1.368 . S
C1696 C1695 1.523 . S
C1697 C1681 1.429 . S
C1697 C1693 1.429 . S
C1697 C1698 1.523 . S
C1698 C1682 1.368 . S
C1698 C1694 1.368 . S
C1698 C1697 1.523 . S
H1699 C1674 0.950 . S
H1700 C1676 0.950 . S
H1701 C1677 0.949 . S
H1702 C1679 0.950 . S
H1703 C1681 0.950 . S
C1704 C1705 1.349 . S
C1704 C1706 1.327 . S
C1704 H1729 0.950 . S
C1705 C1704 1.349 . S
C1705 C1721 1.349 . S
C1706 C1704 1.327 . S
C1706 C1725 1.429 . S
C1706 H1730 0.950 . S
C1707 C1724 1.574 . S
C1707 C1726 1.368 . S
C1707 H1731 0.949 . S
H1708 C1712 0.949 . S
C1709 C1710 1.349 . S
C1709 C1711 1.327 . S
C1709 H1732 0.950 . S
C1710 C1709 1.349 . S
C1710 C1722 1.349 . S
C1711 C1709 1.327 . S
C1711 C1727 1.429 . S
C1711 H1733 0.950 . S
C1712 H1708 0.949 . S
C1712 C1720 1.574 . S
C1712 C1728 1.368 . S
H1713 C1721 0.950 . S
H1714 C1719 0.950 . S
H1715 C1720 0.949 . S
H1716 C1722 0.950 . S
H1717 C1723 0.950 . S
H1718 C1724 0.949 . S
C1719 H1714 0.950 . S
C1719 C1721 1.327 . S
C1719 C1725 1.429 . S
C1720 C1712 1.574 . S
C1720 H1715 0.949 . S
C1720 C1726 1.368 . S
C1721 C1705 1.349 . S
C1721 H1713 0.950 . S
C1721 C1719 1.327 . S
C1722 C1710 1.349 . S
C1722 H1716 0.950 . S
C1722 C1723 1.327 . S
C1723 H1717 0.950 . S
C1723 C1722 1.327 . S
C1723 C1727 1.429 . S
C1724 C1707 1.574 . S
C1724 H1718 0.949 . S
C1724 C1728 1.368 . S
C1725 C1706 1.429 . S
C1725 C1719 1.429 . S
C1725 C1726 1.523 . S
C1726 C1707 1.368 . S
C1726 C1720 1.368 . S
C1726 C1725 1.523 . S
C1727 C1711 1.429 . S
C1727 C1723 1.429 . S
C1727 C1728 1.523 . S
C1728 C1712 1.368 . S
C1728 C1724 1.368 . S
C1728 C1727 1.523 . S
H1729 C1704 0.950 . S
H1730 C1706 0.950 . S
H1731 C1707 0.949 . S
H1732 C1709 0.950 . S
H1733 C1711 0.950 . S
C1734 C1735 1.349 . S
C1734 C1736 1.327 . S
C1734 H1759 0.950 . S
C1735 C1734 1.349 . S
C1735 C1751 1.349 . S
C1736 C1734 1.327 . S
C1736 C1755 1.429 . S
C1736 H1760 0.950 . S
C1737 C1754 1.574 . S
C1737 C1756 1.368 . S
C1737 H1761 0.949 . S
H1738 C1742 0.949 . S
C1739 C1740 1.349 . S
C1739 C1741 1.327 . S
C1739 H1762 0.950 . S
C1740 C1739 1.349 . S
C1740 C1752 1.349 . S
C1741 C1739 1.327 . S
C1741 C1757 1.429 . S
C1741 H1763 0.950 . S
C1742 H1738 0.949 . S
C1742 C1750 1.574 . S
C1742 C1758 1.368 . S
H1743 C1751 0.950 . S
H1744 C1749 0.950 . S
H1745 C1750 0.949 . S
H1746 C1752 0.950 . S
H1747 C1753 0.950 . S
H1748 C1754 0.949 . S
C1749 H1744 0.950 . S
C1749 C1751 1.327 . S
C1749 C1755 1.429 . S
C1750 C1742 1.574 . S
C1750 H1745 0.949 . S
C1750 C1756 1.368 . S
C1751 C1735 1.349 . S
C1751 H1743 0.950 . S
C1751 C1749 1.327 . S
C1752 C1740 1.349 . S
C1752 H1746 0.950 . S
C1752 C1753 1.327 . S
C1753 H1747 0.950 . S
C1753 C1752 1.327 . S
C1753 C1757 1.429 . S
C1754 C1737 1.574 . S
C1754 H1748 0.949 . S
C1754 C1758 1.368 . S
C1755 C1736 1.429 . S
C1755 C1749 1.429 . S
C1755 C1756 1.523 . S
C1756 C1737 1.368 . S
C1756 C1750 1.368 . S
C1756 C1755 1.523 . S
C1757 C1741 1.429 . S
C1757 C1753 1.429 . S
C1757 C1758 1.523 . S
C1758 C1742 1.368 . S
C1758 C1754 1.368 . S
C1758 C1757 1.523 . S
H1759 C1734 0.950 . S
H1760 C1736 0.950 . S
H1761 C1737 0.949 . S
H1762 C1739 0.950 . S
H1763 C1741 0.950 . S
C1764 C1765 1.349 . S
C1764 C1766 1.327 . S
C1764 H1789 0.950 1_554 S
C1765 C1764 1.349 . S
C1765 C1781 1.349 . S
C1766 C1764 1.327 . S
C1766 C1785 1.429 . S
C1766 H1790 0.950 . S
C1767 C1784 1.574 . S
C1767 C1786 1.368 . S
C1767 H1791 0.949 . S
H1768 C1772 0.949 . S
C1769 C1770 1.349 . S
C1769 C1771 1.327 . S
C1769 H1792 0.950 . S
C1770 C1769 1.349 . S
C1770 C1782 1.349 . S
C1771 C1769 1.327 . S
C1771 C1787 1.429 . S
C1771 H1793 0.950 . S
C1772 H1768 0.949 . S
C1772 C1780 1.574 . S
C1772 C1788 1.368 . S
H1773 C1781 0.950 . S
H1774 C1779 0.950 . S
H1775 C1780 0.949 . S
H1776 C1782 0.950 . S
H1777 C1783 0.950 . S
H1778 C1784 0.949 . S
C1779 H1774 0.950 . S
C1779 C1781 1.327 . S
C1779 C1785 1.429 . S
C1780 C1772 1.574 . S
C1780 H1775 0.949 . S
C1780 C1786 1.368 . S
C1781 C1765 1.349 . S
C1781 H1773 0.950 . S
C1781 C1779 1.327 . S
C1782 C1770 1.349 . S
C1782 H1776 0.950 . S
C1782 C1783 1.327 . S
C1783 H1777 0.950 . S
C1783 C1782 1.327 . S
C1783 C1787 1.429 . S
C1784 C1767 1.574 . S
C1784 H1778 0.949 . S
C1784 C1788 1.368 . S
C1785 C1766 1.429 . S
C1785 C1779 1.429 . S
C1785 C1786 1.523 . S
C1786 C1767 1.368 . S
C1786 C1780 1.368 . S
C1786 C1785 1.523 . S
C1787 C1771 1.429 . S
C1787 C1783 1.429 . S
C1787 C1788 1.523 . S
C1788 C1772 1.368 . S
C1788 C1784 1.368 . S
C1788 C1787 1.523 . S
H1789 C1764 0.950 1_556 S
H1790 C1766 0.950 . S
H1791 C1767 0.949 . S
H1792 C1769 0.950 . S
H1793 C1771 0.950 . S
C1794 C1795 1.349 . S
C1794 C1796 1.327 . S
C1794 H1819 0.950 . S
C1795 C1794 1.349 . S
C1795 C1811 1.349 . S
C1796 C1794 1.327 . S
C1796 C1815 1.429 . S
C1796 H1820 0.950 . S
C1797 C1814 1.574 . S
C1797 C1816 1.368 . S
C1797 H1821 0.949 . S
H1798 C1802 0.949 . S
C1799 C1800 1.349 . S
C1799 C1801 1.327 . S
C1799 H1822 0.950 . S
C1800 C1799 1.349 . S
C1800 C1812 1.349 . S
C1801 C1799 1.327 . S
C1801 C1817 1.429 . S
C1801 H1823 0.950 . S
C1802 H1798 0.949 . S
C1802 C1810 1.574 . S
C1802 C1818 1.368 . S
H1803 C1811 0.950 . S
H1804 C1809 0.950 . S
H1805 C1810 0.949 . S
H1806 C1812 0.950 . S
H1807 C1813 0.950 . S
H1808 C1814 0.949 . S
C1809 H1804 0.950 . S
C1809 C1811 1.327 . S
C1809 C1815 1.429 . S
C1810 C1802 1.574 . S
C1810 H1805 0.949 . S
C1810 C1816 1.368 . S
C1811 C1795 1.349 . S
C1811 H1803 0.950 . S
C1811 C1809 1.327 . S
C1812 C1800 1.349 . S
C1812 H1806 0.950 . S
C1812 C1813 1.327 . S
C1813 H1807 0.950 . S
C1813 C1812 1.327 . S
C1813 C1817 1.429 . S
C1814 C1797 1.574 . S
C1814 H1808 0.949 . S
C1814 C1818 1.368 . S
C1815 C1796 1.429 . S
C1815 C1809 1.429 . S
C1815 C1816 1.523 . S
C1816 C1797 1.368 . S
C1816 C1810 1.368 . S
C1816 C1815 1.523 . S
C1817 C1801 1.429 . S
C1817 C1813 1.429 . S
C1817 C1818 1.523 . S
C1818 C1802 1.368 . S
C1818 C1814 1.368 . S
C1818 C1817 1.523 . S
H1819 C1794 0.950 . S
H1820 C1796 0.950 . S
H1821 C1797 0.949 . S
H1822 C1799 0.950 . S
H1823 C1801 0.950 . S
C1824 C1825 1.349 . S
C1824 C1826 1.327 . S
C1824 H1849 0.968 . S
C1825 C1824 1.349 . S
C1825 C1841 1.349 . S
C1826 C1824 1.327 . S
C1826 C1845 1.429 . S
C1826 H1850 0.950 . S
C1827 C1844 1.574 . S
C1827 C1846 1.368 . S
C1827 H1851 0.949 . S
H1828 C1832 0.949 . S
C1829 C1830 1.349 . S
C1829 C1831 1.327 . S
C1829 H1852 0.950 . S
C1830 C1829 1.349 . S
C1830 C1842 1.349 . S
C1831 C1829 1.327 . S
C1831 C1847 1.429 . S
C1831 H1853 0.950 . S
C1832 H1828 0.949 . S
C1832 C1840 1.574 . S
C1832 C1848 1.368 . S
H1833 C1841 0.950 . S
H1834 C1839 0.950 . S
H1835 C1840 0.949 . S
H1836 C1842 0.950 . S
H1837 C1843 0.950 . S
H1838 C1844 0.949 . S
C1839 H1834 0.950 . S
C1839 C1841 1.327 . S
C1839 C1845 1.429 . S
C1840 C1832 1.574 . S
C1840 H1835 0.949 . S
C1840 C1846 1.368 . S
C1841 C1825 1.349 . S
C1841 H1833 0.950 . S
C1841 C1839 1.327 . S
C1842 C1830 1.349 . S
C1842 H1836 0.950 . S
C1842 C1843 1.327 . S
C1843 H1837 0.950 . S
C1843 C1842 1.327 . S
C1843 C1847 1.429 . S
C1844 C1827 1.574 . S
C1844 H1838 0.949 . S
C1844 C1848 1.368 . S
C1845 C1826 1.429 . S
C1845 C1839 1.429 . S
C1845 C1846 1.523 . S
C1846 C1827 1.368 . S
C1846 C1840 1.368 . S
C1846 C1845 1.523 . S
C1847 C1831 1.429 . S
C1847 C1843 1.429 . S
C1847 C1848 1.523 . S
C1848 C1832 1.368 . S
C1848 C1844 1.368 . S
C1848 C1847 1.523 . S
H1849 C1824 0.968 . S
H1850 C1826 0.950 . S
H1851 C1827 0.949 . S
H1852 C1829 0.950 . S
H1853 C1831 0.950 . S
C1854 C1855 1.349 . S
C1854 C1856 1.327 . S
C1854 H1879 0.950 . S
C1855 C1854 1.349 . S
C1855 C1871 1.349 . S
C1856 C1854 1.327 . S
C1856 C1875 1.429 . S
C1856 H1880 0.950 . S
C1857 C1874 1.574 . S
C1857 C1876 1.368 . S
C1857 H1881 0.949 . S
H1858 C1862 0.949 . S
C1859 C1860 1.349 . S
C1859 C1861 1.327 . S
C1859 H1882 0.950 . S
C1860 C1859 1.349 . S
C1860 C1872 1.349 . S
C1861 C1859 1.327 . S
C1861 C1877 1.429 . S
C1861 H1883 0.950 . S
C1862 H1858 0.949 . S
C1862 C1870 1.574 . S
C1862 C1878 1.368 . S
H1863 C1871 0.950 . S
H1864 C1869 0.950 . S
H1865 C1870 0.949 . S
H1866 C1872 0.950 . S
H1867 C1873 0.950 . S
H1868 C1874 0.949 . S
C1869 H1864 0.950 . S
C1869 C1871 1.327 . S
C1869 C1875 1.429 . S
C1870 C1862 1.574 . S
C1870 H1865 0.949 . S
C1870 C1876 1.368 . S
C1871 C1855 1.349 . S
C1871 H1863 0.950 . S
C1871 C1869 1.327 . S
C1872 C1860 1.349 . S
C1872 H1866 0.950 . S
C1872 C1873 1.327 . S
C1873 H1867 0.950 . S
C1873 C1872 1.327 . S
C1873 C1877 1.429 . S
C1874 C1857 1.574 . S
C1874 H1868 0.949 . S
C1874 C1878 1.368 . S
C1875 C1856 1.429 . S
C1875 C1869 1.429 . S
C1875 C1876 1.523 . S
C1876 C1857 1.368 . S
C1876 C1870 1.368 . S
C1876 C1875 1.523 . S
C1877 C1861 1.429 . S
C1877 C1873 1.429 . S
C1877 C1878 1.523 . S
C1878 C1862 1.368 . S
C1878 C1874 1.368 . S
C1878 C1877 1.523 . S
H1879 C1854 0.950 . S
H1880 C1856 0.950 . S
H1881 C1857 0.949 . S
H1882 C1859 0.950 . S
H1883 C1861 0.950 . S
C1884 C1885 1.349 . S
C1884 C1886 1.327 . S
C1884 H1909 0.950 . S
C1885 C1884 1.349 . S
C1885 C1901 1.349 . S
C1886 C1884 1.327 . S
C1886 C1905 1.429 . S
C1886 H1910 0.950 . S
C1887 C1904 1.574 . S
C1887 C1906 1.368 . S
C1887 H1911 0.949 . S
H1888 C1892 0.949 . S
C1889 C1890 1.349 . S
C1889 C1891 1.327 . S
C1889 H1912 0.950 . S
C1890 C1889 1.349 . S
C1890 C1902 1.349 . S
C1891 C1889 1.327 . S
C1891 C1907 1.429 . S
C1891 H1913 0.950 . S
C1892 H1888 0.949 . S
C1892 C1900 1.574 . S
C1892 C1908 1.368 . S
H1893 C1901 0.950 . S
H1894 C1899 0.950 . S
H1895 C1900 0.949 . S
H1896 C1902 0.950 1_554 S
H1897 C1903 0.950 . S
H1898 C1904 0.949 . S
C1899 H1894 0.950 . S
C1899 C1901 1.327 . S
C1899 C1905 1.429 . S
C1900 C1892 1.574 . S
C1900 H1895 0.949 . S
C1900 C1906 1.368 . S
C1901 C1885 1.349 . S
C1901 H1893 0.950 . S
C1901 C1899 1.327 . S
C1902 C1890 1.349 . S
C1902 H1896 0.950 1_556 S
C1902 C1903 1.327 . S
C1903 H1897 0.950 . S
C1903 C1902 1.327 . S
C1903 C1907 1.429 . S
C1904 C1887 1.574 . S
C1904 H1898 0.949 . S
C1904 C1908 1.368 . S
C1905 C1886 1.429 . S
C1905 C1899 1.429 . S
C1905 C1906 1.523 . S
C1906 C1887 1.368 . S
C1906 C1900 1.368 . S
C1906 C1905 1.523 . S
C1907 C1891 1.429 . S
C1907 C1903 1.429 . S
C1907 C1908 1.523 . S
C1908 C1892 1.368 . S
C1908 C1904 1.368 . S
C1908 C1907 1.523 . S
H1909 C1884 0.950 . S
H1910 C1886 0.950 . S
H1911 C1887 0.949 . S
H1912 C1889 0.950 . S
H1913 C1891 0.950 . S
C1914 C1915 1.349 . S
C1914 C1916 1.327 . S
C1914 H1939 0.928 1_556 S
C1915 C1914 1.349 . S
C1915 C1931 1.349 . S
C1916 C1914 1.327 . S
C1916 C1935 1.429 . S
C1916 H1940 0.950 . S
C1917 C1934 1.574 . S
C1917 C1936 1.368 . S
C1917 H1941 0.949 . S
H1918 C1922 0.949 . S
C1919 C1920 1.349 . S
C1919 C1921 1.327 . S
C1919 H1942 0.950 . S
C1920 C1919 1.349 . S
C1920 C1932 1.349 . S
C1921 C1919 1.327 . S
C1921 C1937 1.429 . S
C1921 H1943 0.950 . S
C1922 H1918 0.949 . S
C1922 C1930 1.574 . S
C1922 C1938 1.368 . S
H1923 C1931 0.950 . S
H1924 C1929 0.950 . S
H1925 C1930 0.949 . S
H1926 C1932 0.950 . S
H1927 C1933 0.950 . S
H1928 C1934 0.949 . S
C1929 H1924 0.950 . S
C1929 C1931 1.327 . S
C1929 C1935 1.429 . S
C1930 C1922 1.574 . S
C1930 H1925 0.949 . S
C1930 C1936 1.368 . S
C1931 C1915 1.349 . S
C1931 H1923 0.950 . S
C1931 C1929 1.327 . S
C1932 C1920 1.349 . S
C1932 H1926 0.950 . S
C1932 C1933 1.327 . S
C1933 H1927 0.950 . S
C1933 C1932 1.327 . S
C1933 C1937 1.429 . S
C1934 C1917 1.574 . S
C1934 H1928 0.949 . S
C1934 C1938 1.368 . S
C1935 C1916 1.429 . S
C1935 C1929 1.429 . S
C1935 C1936 1.523 . S
C1936 C1917 1.368 . S
C1936 C1930 1.368 . S
C1936 C1935 1.523 . S
C1937 C1921 1.429 . S
C1937 C1933 1.429 . S
C1937 C1938 1.523 . S
C1938 C1922 1.368 . S
C1938 C1934 1.368 . S
C1938 C1937 1.523 . S
H1939 C1914 0.928 1_554 S
H1940 C1916 0.950 . S
H1941 C1917 0.949 . S
H1942 C1919 0.950 . S
H1943 C1921 0.950 . S
C1944 C1945 1.349 . S
C1944 C1946 1.327 . S
C1944 H1969 0.950 . S
C1945 C1944 1.349 . S
C1945 C1961 1.349 . S
C1946 C1944 1.327 . S
C1946 C1965 1.429 . S
C1946 H1970 0.950 1_455 S
C1947 C1964 1.574 . S
C1947 C1966 1.368 . S
C1947 H1971 0.949 . S
H1948 C1952 0.949 . S
C1949 C1950 1.349 . S
C1949 C1951 1.327 . S
C1949 H1972 0.950 . S
C1950 C1949 1.349 . S
C1950 C1962 1.349 . S
C1951 C1949 1.327 . S
C1951 C1967 1.429 . S
C1951 H1973 0.950 1_655 S
C1952 H1948 0.949 . S
C1952 C1960 1.574 . S
C1952 C1968 1.368 . S
H1953 C1961 0.950 . S
H1954 C1959 0.950 . S
H1955 C1960 0.949 . S
H1956 C1962 0.950 . S
H1957 C1963 0.950 . S
H1958 C1964 0.949 . S
C1959 H1954 0.950 . S
C1959 C1961 1.327 . S
C1959 C1965 1.429 . S
C1960 C1952 1.574 . S
C1960 H1955 0.949 . S
C1960 C1966 1.368 1_655 S
C1961 C1945 1.349 . S
C1961 H1953 0.950 . S
C1961 C1959 1.327 . S
C1962 C1950 1.349 . S
C1962 H1956 0.950 . S
C1962 C1963 1.327 . S
C1963 H1957 0.950 . S
C1963 C1962 1.327 . S
C1963 C1967 1.429 . S
C1964 C1947 1.574 . S
C1964 H1958 0.949 . S
C1964 C1968 1.368 1_455 S
C1965 C1946 1.429 . S
C1965 C1959 1.429 . S
C1965 C1966 1.523 . S
C1966 C1947 1.368 . S
C1966 C1960 1.368 1_455 S
C1966 C1965 1.523 . S
C1967 C1951 1.429 . S
C1967 C1963 1.429 . S
C1967 C1968 1.523 . S
C1968 C1952 1.368 . S
C1968 C1964 1.368 1_655 S
C1968 C1967 1.523 . S
H1969 C1944 0.950 . S
H1970 C1946 0.950 1_655 S
H1971 C1947 0.949 . S
H1972 C1949 0.950 . S
H1973 C1951 0.950 1_455 S
C1974 C1975 1.349 . S
C1974 C1976 1.327 . S
C1974 H1999 0.950 . S
C1975 C1974 1.349 . S
C1975 C1991 1.349 . S
C1976 C1974 1.327 . S
C1976 C1995 1.429 . S
C1976 H2000 0.950 . S
C1977 C1994 1.574 . S
C1977 C1996 1.368 . S
C1977 H2001 0.949 . S
H1978 C1982 0.949 . S
C1979 C1980 1.349 . S
C1979 C1981 1.327 . S
C1979 H2002 0.950 . S
C1980 C1979 1.349 . S
C1980 C1992 1.349 . S
C1981 C1979 1.327 . S
C1981 C1997 1.429 . S
C1981 H2003 0.950 . S
C1982 H1978 0.949 . S
C1982 C1990 1.574 . S
C1982 C1998 1.368 . S
H1983 C1991 0.950 . S
H1984 C1989 0.950 . S
H1985 C1990 0.949 . S
H1986 C1992 0.950 . S
H1987 C1993 0.950 . S
H1988 C1994 0.949 . S
C1989 H1984 0.950 . S
C1989 C1991 1.327 . S
C1989 C1995 1.429 . S
C1990 C1982 1.574 . S
C1990 H1985 0.949 . S
C1990 C1996 1.368 . S
C1991 C1975 1.349 . S
C1991 H1983 0.950 . S
C1991 C1989 1.327 . S
C1992 C1980 1.349 . S
C1992 H1986 0.950 . S
C1992 C1993 1.327 . S
C1993 H1987 0.950 . S
C1993 C1992 1.327 . S
C1993 C1997 1.429 . S
C1994 C1977 1.574 . S
C1994 H1988 0.949 . S
C1994 C1998 1.368 . S
C1995 C1976 1.429 . S
C1995 C1989 1.429 . S
C1995 C1996 1.523 . S
C1996 C1977 1.368 . S
C1996 C1990 1.368 . S
C1996 C1995 1.523 . S
C1997 C1981 1.429 . S
C1997 C1993 1.429 . S
C1997 C1998 1.523 . S
C1998 C1982 1.368 . S
C1998 C1994 1.368 . S
C1998 C1997 1.523 . S
H1999 C1974 0.950 . S
H2000 C1976 0.950 . S
H2001 C1977 0.949 . S
H2002 C1979 0.950 . S
H2003 C1981 0.950 . S
C2004 C2005 1.349 . S
C2004 C2006 1.327 . S
C2004 H2029 0.950 . S
C2005 C2004 1.349 . S
C2005 C2021 1.349 . S
C2006 C2004 1.327 . S
C2006 C2025 1.429 . S
C2006 H2030 0.916 1_565 S
C2007 C2024 1.574 . S
C2007 C2026 1.368 . S
C2007 H2031 0.949 . S
H2008 C2012 0.949 . S
C2009 C2010 1.349 . S
C2009 C2011 1.327 . S
C2009 H2032 0.950 . S
C2010 C2009 1.349 . S
C2010 C2022 1.349 . S
C2011 C2009 1.327 . S
C2011 C2027 1.429 . S
C2011 H2033 0.915 1_545 S
C2012 H2008 0.949 . S
C2012 C2020 1.574 . S
C2012 C2028 1.368 . S
H2013 C2021 0.950 . S
H2014 C2019 0.950 . S
H2015 C2020 0.949 . S
H2016 C2022 0.950 . S
H2017 C2023 0.950 . S
H2018 C2024 0.949 . S
C2019 H2014 0.950 . S
C2019 C2021 1.327 . S
C2019 C2025 1.429 . S
C2020 C2012 1.574 . S
C2020 H2015 0.949 . S
C2020 C2026 1.368 1_545 S
C2021 C2005 1.349 . S
C2021 H2013 0.950 . S
C2021 C2019 1.327 . S
C2022 C2010 1.349 . S
C2022 H2016 0.950 . S
C2022 C2023 1.327 . S
C2023 H2017 0.950 . S
C2023 C2022 1.327 . S
C2023 C2027 1.429 . S
C2024 C2007 1.574 . S
C2024 H2018 0.949 . S
C2024 C2028 1.368 1_565 S
C2025 C2006 1.429 . S
C2025 C2019 1.429 . S
C2025 C2026 1.523 . S
C2026 C2007 1.368 . S
C2026 C2020 1.368 1_565 S
C2026 C2025 1.523 . S
C2027 C2011 1.429 . S
C2027 C2023 1.429 . S
C2027 C2028 1.523 . S
C2028 C2012 1.368 . S
C2028 C2024 1.368 1_545 S
C2028 C2027 1.523 . S
H2029 C2004 0.950 . S
H2030 C2006 0.916 1_545 S
H2031 C2007 0.949 . S
H2032 C2009 0.950 . S
H2033 C2011 0.915 1_565 S
C2034 C2035 1.349 . S
C2034 C2036 1.327 . S
C2034 H2059 0.950 . S
C2035 C2034 1.349 . S
C2035 C2051 1.349 . S
C2036 C2034 1.327 . S
C2036 C2055 1.429 . S
C2036 H2060 0.950 . S
C2037 C2054 1.574 . S
C2037 C2056 1.368 1_545 S
C2037 H2061 0.949 . S
H2038 C2042 0.949 . S
C2039 C2040 1.349 . S
C2039 C2041 1.327 . S
C2039 H2062 0.950 . S
C2040 C2039 1.349 . S
C2040 C2052 1.349 . S
C2041 C2039 1.327 . S
C2041 C2057 1.429 . S
C2041 H2063 0.950 . S
C2042 H2038 0.949 . S
C2042 C2050 1.574 . S
C2042 C2058 1.368 1_565 S
H2043 C2051 0.950 . S
H2044 C2049 0.950 . S
H2045 C2050 0.949 . S
H2046 C2052 0.950 . S
H2047 C2053 0.950 . S
H2048 C2054 0.949 . S
C2049 H2044 0.950 . S
C2049 C2051 1.327 . S
C2049 C2055 1.429 . S
C2050 C2042 1.574 . S
C2050 H2045 0.949 . S
C2050 C2056 1.368 . S
C2051 C2035 1.349 . S
C2051 H2043 0.950 . S
C2051 C2049 1.327 . S
C2052 C2040 1.349 . S
C2052 H2046 0.950 . S
C2052 C2053 1.327 . S
C2053 H2047 0.950 . S
C2053 C2052 1.327 . S
C2053 C2057 1.429 . S
C2054 C2037 1.574 . S
C2054 H2048 0.949 . S
C2054 C2058 1.368 . S
C2055 C2036 1.429 . S
C2055 C2049 1.429 . S
C2055 C2056 1.523 . S
C2056 C2037 1.368 1_565 S
C2056 C2050 1.368 . S
C2056 C2055 1.523 . S
C2057 C2041 1.429 . S
C2057 C2053 1.429 . S
C2057 C2058 1.523 . S
C2058 C2042 1.368 1_545 S
C2058 C2054 1.368 . S
C2058 C2057 1.523 . S
H2059 C2034 0.950 . S
H2060 C2036 0.950 . S
H2061 C2037 0.949 . S
H2062 C2039 0.950 . S
H2063 C2041 0.950 . S
C2064 C2065 1.349 . S
C2064 C2066 1.327 . S
C2064 H2089 0.950 . S
C2065 C2064 1.349 . S
C2065 C2081 1.349 . S
C2066 C2064 1.327 . S
C2066 C2085 1.429 . S
C2066 H2090 0.950 . S
C2067 C2084 1.574 1_655 S
C2067 C2086 1.368 . S
C2067 H2091 0.949 . S
H2068 C2072 0.949 . S
C2069 C2070 1.349 . S
C2069 C2071 1.327 . S
C2069 H2092 0.950 . S
C2070 C2069 1.349 . S
C2070 C2082 1.349 . S
C2071 C2069 1.327 . S
C2071 C2087 1.429 . S
C2071 H2093 0.950 . S
C2072 H2068 0.949 . S
C2072 C2080 1.574 1_455 S
C2072 C2088 1.368 . S
H2073 C2081 0.950 . S
H2074 C2079 0.950 . S
H2075 C2080 0.949 . S
H2076 C2082 0.950 . S
H2077 C2083 0.950 . S
H2078 C2084 0.949 . S
C2079 H2074 0.950 . S
C2079 C2081 1.327 . S
C2079 C2085 1.429 . S
C2080 C2072 1.574 1_655 S
C2080 H2075 0.949 . S
C2080 C2086 1.368 . S
C2081 C2065 1.349 . S
C2081 H2073 0.950 . S
C2081 C2079 1.327 . S
C2082 C2070 1.349 . S
C2082 H2076 0.950 . S
C2082 C2083 1.327 . S
C2083 H2077 0.950 . S
C2083 C2082 1.327 . S
C2083 C2087 1.429 . S
C2084 C2067 1.574 1_455 S
C2084 H2078 0.949 . S
C2084 C2088 1.368 . S
C2085 C2066 1.429 . S
C2085 C2079 1.429 . S
C2085 C2086 1.523 . S
C2086 C2067 1.368 . S
C2086 C2080 1.368 . S
C2086 C2085 1.523 . S
C2087 C2071 1.429 . S
C2087 C2083 1.429 . S
C2087 C2088 1.523 . S
C2088 C2072 1.368 . S
C2088 C2084 1.368 . S
C2088 C2087 1.523 . S
H2089 C2064 0.950 . S
H2090 C2066 0.950 . S
H2091 C2067 0.949 . S
H2092 C2069 0.950 . S
H2093 C2071 0.950 . S
C2094 C2095 1.349 . S
C2094 C2096 1.327 . S
C2094 H2119 0.950 . S
C2095 C2094 1.349 . S
C2095 C2111 1.349 . S
C2096 C2094 1.327 . S
C2096 C2115 1.429 . S
C2096 H2120 0.950 . S
C2097 C2114 1.574 . S
C2097 C2116 1.368 . S
C2097 H2121 0.949 . S
H2098 C2102 0.949 . S
C2099 C2100 1.349 . S
C2099 C2101 1.327 . S
C2099 H2122 0.950 . S
C2100 C2099 1.349 . S
C2100 C2112 1.349 . S
C2101 C2099 1.327 . S
C2101 C2117 1.429 . S
C2101 H2123 0.950 . S
C2102 H2098 0.949 . S
C2102 C2110 1.574 . S
C2102 C2118 1.368 . S
H2103 C2111 0.950 . S
H2104 C2109 0.950 . S
H2105 C2110 0.949 . S
H2106 C2112 0.950 . S
H2107 C2113 0.950 . S
H2108 C2114 0.949 . S
C2109 H2104 0.950 . S
C2109 C2111 1.327 . S
C2109 C2115 1.429 . S
C2110 C2102 1.574 . S
C2110 H2105 0.949 . S
C2110 C2116 1.368 . S
C2111 C2095 1.349 . S
C2111 H2103 0.950 . S
C2111 C2109 1.327 . S
C2112 C2100 1.349 . S
C2112 H2106 0.950 . S
C2112 C2113 1.327 . S
C2113 H2107 0.950 . S
C2113 C2112 1.327 . S
C2113 C2117 1.429 . S
C2114 C2097 1.574 . S
C2114 H2108 0.949 . S
C2114 C2118 1.368 . S
C2115 C2096 1.429 . S
C2115 C2109 1.429 . S
C2115 C2116 1.523 . S
C2116 C2097 1.368 . S
C2116 C2110 1.368 . S
C2116 C2115 1.523 . S
C2117 C2101 1.429 . S
C2117 C2113 1.429 . S
C2117 C2118 1.523 . S
C2118 C2102 1.368 . S
C2118 C2114 1.368 . S
C2118 C2117 1.523 . S
H2119 C2094 0.950 . S
H2120 C2096 0.950 . S
H2121 C2097 0.949 . S
H2122 C2099 0.950 . S
H2123 C2101 0.950 . S
C2124 C2125 1.349 . S
C2124 C2126 1.327 . S
C2124 H2149 0.950 . S
C2125 C2124 1.349 . S
C2125 C2141 1.349 . S
C2126 C2124 1.327 . S
C2126 C2145 1.429 . S
C2126 H2150 0.950 . S
C2127 C2144 1.574 . S
C2127 C2146 1.368 . S
C2127 H2151 0.949 . S
H2128 C2132 0.949 . S
C2129 C2130 1.349 . S
C2129 C2131 1.327 . S
C2129 H2152 0.950 . S
C2130 C2129 1.349 . S
C2130 C2142 1.349 . S
C2131 C2129 1.327 . S
C2131 C2147 1.429 . S
C2131 H2153 0.950 . S
C2132 H2128 0.949 . S
C2132 C2140 1.574 . S
C2132 C2148 1.368 . S
H2133 C2141 0.950 . S
H2134 C2139 0.950 . S
H2135 C2140 0.949 . S
H2136 C2142 0.950 . S
H2137 C2143 0.950 . S
H2138 C2144 0.949 . S
C2139 H2134 0.950 . S
C2139 C2141 1.327 . S
C2139 C2145 1.429 . S
C2140 C2132 1.574 . S
C2140 H2135 0.949 . S
C2140 C2146 1.368 . S
C2141 C2125 1.349 . S
C2141 H2133 0.950 . S
C2141 C2139 1.327 . S
C2142 C2130 1.349 . S
C2142 H2136 0.950 . S
C2142 C2143 1.327 . S
C2143 H2137 0.950 . S
C2143 C2142 1.327 . S
C2143 C2147 1.429 . S
C2144 C2127 1.574 . S
C2144 H2138 0.949 . S
C2144 C2148 1.368 . S
C2145 C2126 1.429 . S
C2145 C2139 1.429 . S
C2145 C2146 1.523 . S
C2146 C2127 1.368 . S
C2146 C2140 1.368 . S
C2146 C2145 1.523 . S
C2147 C2131 1.429 . S
C2147 C2143 1.429 . S
C2147 C2148 1.523 . S
C2148 C2132 1.368 . S
C2148 C2144 1.368 . S
C2148 C2147 1.523 . S
H2149 C2124 0.950 . S
H2150 C2126 0.950 . S
H2151 C2127 0.949 . S
H2152 C2129 0.950 . S
H2153 C2131 0.950 . S
C2154 C2155 1.349 . S
C2154 C2156 1.327 . S
C2154 H2179 0.950 . S
C2155 C2154 1.349 . S
C2155 C2171 1.349 . S
C2156 C2154 1.327 . S
C2156 C2175 1.429 . S
C2156 H2180 0.950 . S
C2157 C2174 1.574 . S
C2157 C2176 1.368 . S
C2157 H2181 0.949 . S
H2158 C2162 0.949 . S
C2159 C2160 1.349 . S
C2159 C2161 1.327 . S
C2159 H2182 0.950 . S
C2160 C2159 1.349 . S
C2160 C2172 1.349 . S
C2161 C2159 1.327 . S
C2161 C2177 1.429 . S
C2161 H2183 0.950 . S
C2162 H2158 0.949 . S
C2162 C2170 1.574 . S
C2162 C2178 1.368 . S
H2163 C2171 0.950 . S
H2164 C2169 0.950 . S
H2165 C2170 0.949 . S
H2166 C2172 0.950 . S
H2167 C2173 0.950 . S
H2168 C2174 0.949 . S
C2169 H2164 0.950 . S
C2169 C2171 1.327 . S
C2169 C2175 1.429 . S
C2170 C2162 1.574 . S
C2170 H2165 0.949 . S
C2170 C2176 1.368 . S
C2171 C2155 1.349 . S
C2171 H2163 0.950 . S
C2171 C2169 1.327 . S
C2172 C2160 1.349 . S
C2172 H2166 0.950 . S
C2172 C2173 1.327 . S
C2173 H2167 0.950 . S
C2173 C2172 1.327 . S
C2173 C2177 1.429 . S
C2174 C2157 1.574 . S
C2174 H2168 0.949 . S
C2174 C2178 1.368 . S
C2175 C2156 1.429 . S
C2175 C2169 1.429 . S
C2175 C2176 1.523 . S
C2176 C2157 1.368 . S
C2176 C2170 1.368 . S
C2176 C2175 1.523 . S
C2177 C2161 1.429 . S
C2177 C2173 1.429 . S
C2177 C2178 1.523 . S
C2178 C2162 1.368 . S
C2178 C2174 1.368 . S
C2178 C2177 1.523 . S
H2179 C2154 0.950 . S
H2180 C2156 0.950 . S
H2181 C2157 0.949 . S
H2182 C2159 0.950 . S
H2183 C2161 0.950 . S
C2184 C2185 1.349 . S
C2184 C2186 1.327 . S
C2184 H2209 0.950 . S
C2185 C2184 1.349 . S
C2185 C2201 1.349 . S
C2186 C2184 1.327 . S
C2186 C2205 1.429 . S
C2186 H2210 0.950 . S
C2187 C2204 1.574 . S
C2187 C2206 1.368 . S
C2187 H2211 0.949 . S
H2188 C2192 0.949 . S
C2189 C2190 1.349 . S
C2189 C2191 1.327 . S
C2189 H2212 0.950 . S
C2190 C2189 1.349 . S
C2190 C2202 1.349 . S
C2191 C2189 1.327 . S
C2191 C2207 1.429 . S
C2191 H2213 0.950 . S
C2192 H2188 0.949 . S
C2192 C2200 1.574 . S
C2192 C2208 1.368 . S
H2193 C2201 0.950 . S
H2194 C2199 0.950 . S
H2195 C2200 0.949 . S
H2196 C2202 0.950 . S
H2197 C2203 0.950 . S
H2198 C2204 0.949 . S
C2199 H2194 0.950 . S
C2199 C2201 1.327 . S
C2199 C2205 1.429 . S
C2200 C2192 1.574 . S
C2200 H2195 0.949 . S
C2200 C2206 1.368 . S
C2201 C2185 1.349 . S
C2201 H2193 0.950 . S
C2201 C2199 1.327 . S
C2202 C2190 1.349 . S
C2202 H2196 0.950 . S
C2202 C2203 1.327 . S
C2203 H2197 0.950 . S
C2203 C2202 1.327 . S
C2203 C2207 1.429 . S
C2204 C2187 1.574 . S
C2204 H2198 0.949 . S
C2204 C2208 1.368 . S
C2205 C2186 1.429 . S
C2205 C2199 1.429 . S
C2205 C2206 1.523 . S
C2206 C2187 1.368 . S
C2206 C2200 1.368 . S
C2206 C2205 1.523 . S
C2207 C2191 1.429 . S
C2207 C2203 1.429 . S
C2207 C2208 1.523 . S
C2208 C2192 1.368 . S
C2208 C2204 1.368 . S
C2208 C2207 1.523 . S
H2209 C2184 0.950 . S
H2210 C2186 0.950 . S
H2211 C2187 0.949 . S
H2212 C2189 0.950 . S
H2213 C2191 0.950 . S
C2214 C2215 1.349 . S
C2214 C2216 1.327 . S
C2214 H2239 0.950 . S
C2215 C2214 1.349 . S
C2215 C2231 1.349 . S
C2216 C2214 1.327 . S
C2216 C2235 1.429 . S
C2216 H2240 0.950 . S
C2217 C2234 1.574 . S
C2217 C2236 1.368 . S
C2217 H2241 0.949 . S
H2218 C2222 0.949 . S
C2219 C2220 1.349 . S
C2219 C2221 1.327 . S
C2219 H2242 0.950 . S
C2220 C2219 1.349 . S
C2220 C2232 1.349 . S
C2221 C2219 1.327 . S
C2221 C2237 1.429 . S
C2221 H2243 0.950 . S
C2222 H2218 0.949 . S
C2222 C2230 1.574 . S
C2222 C2238 1.368 . S
H2223 C2231 0.950 . S
H2224 C2229 0.950 . S
H2225 C2230 0.949 . S
H2226 C2232 0.950 . S
H2227 C2233 0.950 . S
H2228 C2234 0.949 . S
C2229 H2224 0.950 . S
C2229 C2231 1.327 . S
C2229 C2235 1.429 . S
C2230 C2222 1.574 . S
C2230 H2225 0.949 . S
C2230 C2236 1.368 . S
C2231 C2215 1.349 . S
C2231 H2223 0.950 . S
C2231 C2229 1.327 . S
C2232 C2220 1.349 . S
C2232 H2226 0.950 . S
C2232 C2233 1.327 . S
C2233 H2227 0.950 . S
C2233 C2232 1.327 . S
C2233 C2237 1.429 . S
C2234 C2217 1.574 . S
C2234 H2228 0.949 . S
C2234 C2238 1.368 . S
C2235 C2216 1.429 . S
C2235 C2229 1.429 . S
C2235 C2236 1.523 . S
C2236 C2217 1.368 . S
C2236 C2230 1.368 . S
C2236 C2235 1.523 . S
C2237 C2221 1.429 . S
C2237 C2233 1.429 . S
C2237 C2238 1.523 . S
C2238 C2222 1.368 . S
C2238 C2234 1.368 . S
C2238 C2237 1.523 . S
H2239 C2214 0.950 . S
H2240 C2216 0.950 . S
H2241 C2217 0.949 . S
H2242 C2219 0.950 . S
H2243 C2221 0.950 . S
C2244 C2245 1.349 . S
C2244 C2246 1.327 . S
C2244 H2269 0.950 . S
C2245 C2244 1.349 . S
C2245 C2261 1.349 . S
C2246 C2244 1.327 . S
C2246 C2265 1.429 . S
C2246 H2270 0.950 . S
C2247 C2264 1.574 . S
C2247 C2266 1.368 . S
C2247 H2271 0.949 . S
H2248 C2252 0.949 . S
C2249 C2250 1.349 . S
C2249 C2251 1.327 . S
C2249 H2272 0.950 . S
C2250 C2249 1.349 . S
C2250 C2262 1.349 . S
C2251 C2249 1.327 . S
C2251 C2267 1.429 . S
C2251 H2273 0.950 . S
C2252 H2248 0.949 . S
C2252 C2260 1.574 . S
C2252 C2268 1.368 . S
H2253 C2261 0.950 . S
H2254 C2259 0.950 . S
H2255 C2260 0.949 . S
H2256 C2262 0.950 . S
H2257 C2263 0.950 . S
H2258 C2264 0.949 . S
C2259 H2254 0.950 . S
C2259 C2261 1.327 . S
C2259 C2265 1.429 . S
C2260 C2252 1.574 . S
C2260 H2255 0.949 . S
C2260 C2266 1.368 . S
C2261 C2245 1.349 . S
C2261 H2253 0.950 . S
C2261 C2259 1.327 . S
C2262 C2250 1.349 . S
C2262 H2256 0.950 . S
C2262 C2263 1.327 . S
C2263 H2257 0.950 . S
C2263 C2262 1.327 . S
C2263 C2267 1.429 . S
C2264 C2247 1.574 . S
C2264 H2258 0.949 . S
C2264 C2268 1.368 . S
C2265 C2246 1.429 . S
C2265 C2259 1.429 . S
C2265 C2266 1.523 . S
C2266 C2247 1.368 . S
C2266 C2260 1.368 . S
C2266 C2265 1.523 . S
C2267 C2251 1.429 . S
C2267 C2263 1.429 . S
C2267 C2268 1.523 . S
C2268 C2252 1.368 . S
C2268 C2264 1.368 . S
C2268 C2267 1.523 . S
H2269 C2244 0.950 . S
H2270 C2246 0.950 . S
H2271 C2247 0.949 . S
H2272 C2249 0.950 . S
H2273 C2251 0.950 . S
C2274 C2275 1.349 . S
C2274 C2276 1.327 . S
C2274 H2299 0.950 . S
C2275 C2274 1.349 . S
C2275 C2291 1.349 . S
C2276 C2274 1.327 . S
C2276 C2295 1.429 . S
C2276 H2300 0.950 . S
C2277 C2294 1.574 . S
C2277 C2296 1.368 . S
C2277 H2301 0.949 . S
H2278 C2282 0.949 . S
C2279 C2280 1.349 . S
C2279 C2281 1.327 . S
C2279 H2302 0.950 . S
C2280 C2279 1.349 . S
C2280 C2292 1.349 . S
C2281 C2279 1.327 . S
C2281 C2297 1.429 . S
C2281 H2303 0.950 . S
C2282 H2278 0.949 . S
C2282 C2290 1.574 . S
C2282 C2298 1.368 . S
H2283 C2291 0.950 . S
H2284 C2289 0.950 . S
H2285 C2290 0.949 . S
H2286 C2292 0.950 . S
H2287 C2293 0.950 . S
H2288 C2294 0.949 . S
C2289 H2284 0.950 . S
C2289 C2291 1.327 . S
C2289 C2295 1.429 . S
C2290 C2282 1.574 . S
C2290 H2285 0.949 . S
C2290 C2296 1.368 . S
C2291 C2275 1.349 . S
C2291 H2283 0.950 . S
C2291 C2289 1.327 . S
C2292 C2280 1.349 . S
C2292 H2286 0.950 . S
C2292 C2293 1.327 . S
C2293 H2287 0.950 . S
C2293 C2292 1.327 . S
C2293 C2297 1.429 . S
C2294 C2277 1.574 . S
C2294 H2288 0.949 . S
C2294 C2298 1.368 . S
C2295 C2276 1.429 . S
C2295 C2289 1.429 . S
C2295 C2296 1.523 . S
C2296 C2277 1.368 . S
C2296 C2290 1.368 . S
C2296 C2295 1.523 . S
C2297 C2281 1.429 . S
C2297 C2293 1.429 . S
C2297 C2298 1.523 . S
C2298 C2282 1.368 . S
C2298 C2294 1.368 . S
C2298 C2297 1.523 . S
H2299 C2274 0.950 . S
H2300 C2276 0.950 . S
H2301 C2277 0.949 . S
H2302 C2279 0.950 . S
H2303 C2281 0.950 . S
C2304 C2305 1.349 . S
C2304 C2306 1.327 . S
C2304 H2329 0.950 . S
C2305 C2304 1.349 . S
C2305 C2321 1.349 . S
C2306 C2304 1.327 . S
C2306 C2325 1.429 . S
C2306 H2330 0.950 . S
C2307 C2324 1.574 . S
C2307 C2326 1.368 . S
C2307 H2331 0.949 . S
H2308 C2312 0.949 . S
C2309 C2310 1.349 . S
C2309 C2311 1.327 . S
C2309 H2332 0.950 . S
C2310 C2309 1.349 . S
C2310 C2322 1.349 . S
C2311 C2309 1.327 . S
C2311 C2327 1.429 . S
C2311 H2333 0.950 . S
C2312 H2308 0.949 . S
C2312 C2320 1.574 . S
C2312 C2328 1.368 . S
H2313 C2321 0.950 . S
H2314 C2319 0.950 . S
H2315 C2320 0.949 . S
H2316 C2322 0.950 . S
H2317 C2323 0.950 . S
H2318 C2324 0.949 . S
C2319 H2314 0.950 . S
C2319 C2321 1.327 . S
C2319 C2325 1.429 . S
C2320 C2312 1.574 . S
C2320 H2315 0.949 . S
C2320 C2326 1.368 . S
C2321 C2305 1.349 . S
C2321 H2313 0.950 . S
C2321 C2319 1.327 . S
C2322 C2310 1.349 . S
C2322 H2316 0.950 . S
C2322 C2323 1.327 . S
C2323 H2317 0.950 . S
C2323 C2322 1.327 . S
C2323 C2327 1.429 . S
C2324 C2307 1.574 . S
C2324 H2318 0.949 . S
C2324 C2328 1.368 . S
C2325 C2306 1.429 . S
C2325 C2319 1.429 . S
C2325 C2326 1.523 . S
C2326 C2307 1.368 . S
C2326 C2320 1.368 . S
C2326 C2325 1.523 . S
C2327 C2311 1.429 . S
C2327 C2323 1.429 . S
C2327 C2328 1.523 . S
C2328 C2312 1.368 . S
C2328 C2324 1.368 . S
C2328 C2327 1.523 . S
H2329 C2304 0.950 . S
H2330 C2306 0.950 . S
H2331 C2307 0.949 . S
H2332 C2309 0.950 . S
H2333 C2311 0.950 . S
C2334 C2335 1.349 . S
C2334 C2336 1.327 . S
C2334 H2359 0.950 . S
C2335 C2334 1.349 . S
C2335 C2351 1.349 . S
C2336 C2334 1.327 . S
C2336 C2355 1.429 . S
C2336 H2360 0.950 . S
C2337 C2354 1.574 . S
C2337 C2356 1.368 . S
C2337 H2361 0.949 . S
H2338 C2342 0.949 . S
C2339 C2340 1.349 . S
C2339 C2341 1.327 . S
C2339 H2362 0.950 . S
C2340 C2339 1.349 . S
C2340 C2352 1.349 . S
C2341 C2339 1.327 . S
C2341 C2357 1.429 . S
C2341 H2363 0.950 . S
C2342 H2338 0.949 . S
C2342 C2350 1.574 . S
C2342 C2358 1.368 . S
H2343 C2351 0.950 . S
H2344 C2349 0.950 . S
H2345 C2350 0.949 . S
H2346 C2352 0.950 . S
H2347 C2353 0.950 . S
H2348 C2354 0.949 . S
C2349 H2344 0.950 . S
C2349 C2351 1.327 . S
C2349 C2355 1.429 . S
C2350 C2342 1.574 . S
C2350 H2345 0.949 . S
C2350 C2356 1.368 . S
C2351 C2335 1.349 . S
C2351 H2343 0.950 . S
C2351 C2349 1.327 . S
C2352 C2340 1.349 . S
C2352 H2346 0.950 . S
C2352 C2353 1.327 . S
C2353 H2347 0.950 . S
C2353 C2352 1.327 . S
C2353 C2357 1.429 . S
C2354 C2337 1.574 . S
C2354 H2348 0.949 . S
C2354 C2358 1.368 . S
C2355 C2336 1.429 . S
C2355 C2349 1.429 . S
C2355 C2356 1.523 . S
C2356 C2337 1.368 . S
C2356 C2350 1.368 . S
C2356 C2355 1.523 . S
C2357 C2341 1.429 . S
C2357 C2353 1.429 . S
C2357 C2358 1.523 . S
C2358 C2342 1.368 . S
C2358 C2354 1.368 . S
C2358 C2357 1.523 . S
H2359 C2334 0.950 . S
H2360 C2336 0.950 . S
H2361 C2337 0.949 . S
H2362 C2339 0.950 . S
H2363 C2341 0.950 . S
C2364 C2365 1.349 . S
C2364 C2366 1.327 . S
C2364 H2389 0.950 . S
C2365 C2364 1.349 . S
C2365 C2381 1.349 . S
C2366 C2364 1.327 . S
C2366 C2385 1.429 . S
C2366 H2390 0.950 . S
C2367 C2384 1.574 . S
C2367 C2386 1.368 . S
C2367 H2391 0.949 . S
H2368 C2372 0.949 . S
C2369 C2370 1.349 . S
C2369 C2371 1.327 . S
C2369 H2392 0.950 . S
C2370 C2369 1.349 . S
C2370 C2382 1.349 . S
C2371 C2369 1.327 . S
C2371 C2387 1.429 . S
C2371 H2393 0.950 . S
C2372 H2368 0.949 . S
C2372 C2380 1.574 . S
C2372 C2388 1.368 . S
H2373 C2381 0.950 . S
H2374 C2379 0.950 . S
H2375 C2380 0.949 . S
H2376 C2382 0.950 . S
H2377 C2383 0.950 . S
H2378 C2384 0.949 . S
C2379 H2374 0.950 . S
C2379 C2381 1.327 . S
C2379 C2385 1.429 . S
C2380 C2372 1.574 . S
C2380 H2375 0.949 . S
C2380 C2386 1.368 . S
C2381 C2365 1.349 . S
C2381 H2373 0.950 . S
C2381 C2379 1.327 . S
C2382 C2370 1.349 . S
C2382 H2376 0.950 . S
C2382 C2383 1.327 . S
C2383 H2377 0.950 . S
C2383 C2382 1.327 . S
C2383 C2387 1.429 . S
C2384 C2367 1.574 . S
C2384 H2378 0.949 . S
C2384 C2388 1.368 . S
C2385 C2366 1.429 . S
C2385 C2379 1.429 . S
C2385 C2386 1.523 . S
C2386 C2367 1.368 . S
C2386 C2380 1.368 . S
C2386 C2385 1.523 . S
C2387 C2371 1.429 . S
C2387 C2383 1.429 . S
C2387 C2388 1.523 . S
C2388 C2372 1.368 . S
C2388 C2384 1.368 . S
C2388 C2387 1.523 . S
H2389 C2364 0.950 . S
H2390 C2366 0.950 . S
H2391 C2367 0.949 . S
H2392 C2369 0.950 . S
H2393 C2371 0.950 . S
C2394 C2395 1.349 . S
C2394 C2396 1.327 . S
C2394 H2419 0.950 . S
C2395 C2394 1.349 . S
C2395 C2411 1.349 . S
C2396 C2394 1.327 . S
C2396 C2415 1.429 . S
C2396 H2420 0.950 . S
C2397 C2414 1.574 . S
C2397 C2416 1.368 . S
C2397 H2421 0.949 . S
H2398 C2402 0.949 . S
C2399 C2400 1.349 . S
C2399 C2401 1.327 . S
C2399 H2422 0.950 . S
C2400 C2399 1.349 . S
C2400 C2412 1.349 . S
C2401 C2399 1.327 . S
C2401 C2417 1.429 . S
C2401 H2423 0.950 . S
C2402 H2398 0.949 . S
C2402 C2410 1.574 . S
C2402 C2418 1.368 . S
H2403 C2411 0.950 . S
H2404 C2409 0.950 . S
H2405 C2410 0.949 . S
H2406 C2412 0.950 . S
H2407 C2413 0.950 . S
H2408 C2414 0.949 . S
C2409 H2404 0.950 . S
C2409 C2411 1.327 . S
C2409 C2415 1.429 . S
C2410 C2402 1.574 . S
C2410 H2405 0.949 . S
C2410 C2416 1.368 . S
C2411 C2395 1.349 . S
C2411 H2403 0.950 . S
C2411 C2409 1.327 . S
C2412 C2400 1.349 . S
C2412 H2406 0.950 . S
C2412 C2413 1.327 . S
C2413 H2407 0.950 . S
C2413 C2412 1.327 . S
C2413 C2417 1.429 . S
C2414 C2397 1.574 . S
C2414 H2408 0.949 . S
C2414 C2418 1.368 . S
C2415 C2396 1.429 . S
C2415 C2409 1.429 . S
C2415 C2416 1.523 . S
C2416 C2397 1.368 . S
C2416 C2410 1.368 . S
C2416 C2415 1.523 . S
C2417 C2401 1.429 . S
C2417 C2413 1.429 . S
C2417 C2418 1.523 . S
C2418 C2402 1.368 . S
C2418 C2414 1.368 . S
C2418 C2417 1.523 . S
H2419 C2394 0.950 . S
H2420 C2396 0.950 . S
H2421 C2397 0.949 . S
H2422 C2399 0.950 . S
H2423 C2401 0.950 . S
C2424 C2425 1.349 . S
C2424 C2426 1.327 . S
C2424 H2449 0.950 . S
C2425 C2424 1.349 . S
C2425 C2441 1.349 . S
C2426 C2424 1.327 . S
C2426 C2445 1.429 . S
C2426 H2450 0.950 . S
C2427 C2444 1.574 . S
C2427 C2446 1.368 . S
C2427 H2451 0.949 . S
H2428 C2432 0.949 . S
C2429 C2430 1.349 . S
C2429 C2431 1.327 . S
C2429 H2452 0.950 . S
C2430 C2429 1.349 . S
C2430 C2442 1.349 . S
C2431 C2429 1.327 . S
C2431 C2447 1.429 . S
C2431 H2453 0.950 . S
C2432 H2428 0.949 . S
C2432 C2440 1.574 . S
C2432 C2448 1.368 . S
H2433 C2441 0.950 . S
H2434 C2439 0.950 . S
H2435 C2440 0.949 . S
H2436 C2442 0.950 . S
H2437 C2443 0.950 . S
H2438 C2444 0.949 . S
C2439 H2434 0.950 . S
C2439 C2441 1.327 . S
C2439 C2445 1.429 . S
C2440 C2432 1.574 . S
C2440 H2435 0.949 . S
C2440 C2446 1.368 . S
C2441 C2425 1.349 . S
C2441 H2433 0.950 . S
C2441 C2439 1.327 . S
C2442 C2430 1.349 . S
C2442 H2436 0.950 . S
C2442 C2443 1.327 . S
C2443 H2437 0.950 . S
C2443 C2442 1.327 . S
C2443 C2447 1.429 . S
C2444 C2427 1.574 . S
C2444 H2438 0.949 . S
C2444 C2448 1.368 . S
C2445 C2426 1.429 . S
C2445 C2439 1.429 . S
C2445 C2446 1.523 . S
C2446 C2427 1.368 . S
C2446 C2440 1.368 . S
C2446 C2445 1.523 . S
C2447 C2431 1.429 . S
C2447 C2443 1.429 . S
C2447 C2448 1.523 . S
C2448 C2432 1.368 . S
C2448 C2444 1.368 . S
C2448 C2447 1.523 . S
H2449 C2424 0.950 . S
H2450 C2426 0.950 . S
H2451 C2427 0.949 . S
H2452 C2429 0.950 . S
H2453 C2431 0.950 . S
C2454 C2455 1.349 . S
C2454 C2456 1.327 . S
C2454 H2479 0.950 . S
C2455 C2454 1.349 . S
C2455 C2471 1.349 . S
C2456 C2454 1.327 . S
C2456 C2475 1.429 . S
C2456 H2480 0.950 . S
C2457 C2474 1.574 . S
C2457 C2476 1.368 . S
C2457 H2481 0.949 . S
H2458 C2462 0.949 . S
C2459 C2460 1.349 . S
C2459 C2461 1.327 . S
C2459 H2482 0.950 . S
C2460 C2459 1.349 . S
C2460 C2472 1.349 . S
C2461 C2459 1.327 . S
C2461 C2477 1.429 . S
C2461 H2483 0.950 . S
C2462 H2458 0.949 . S
C2462 C2470 1.574 . S
C2462 C2478 1.368 . S
H2463 C2471 0.950 . S
H2464 C2469 0.950 . S
H2465 C2470 0.949 . S
H2466 C2472 0.950 . S
H2467 C2473 0.950 . S
H2468 C2474 0.949 . S
C2469 H2464 0.950 . S
C2469 C2471 1.327 . S
C2469 C2475 1.429 . S
C2470 C2462 1.574 . S
C2470 H2465 0.949 . S
C2470 C2476 1.368 . S
C2471 C2455 1.349 . S
C2471 H2463 0.950 . S
C2471 C2469 1.327 . S
C2472 C2460 1.349 . S
C2472 H2466 0.950 . S
C2472 C2473 1.327 . S
C2473 H2467 0.950 . S
C2473 C2472 1.327 . S
C2473 C2477 1.429 . S
C2474 C2457 1.574 . S
C2474 H2468 0.949 . S
C2474 C2478 1.368 . S
C2475 C2456 1.429 . S
C2475 C2469 1.429 . S
C2475 C2476 1.523 . S
C2476 C2457 1.368 . S
C2476 C2470 1.368 . S
C2476 C2475 1.523 . S
C2477 C2461 1.429 . S
C2477 C2473 1.429 . S
C2477 C2478 1.523 . S
C2478 C2462 1.368 . S
C2478 C2474 1.368 . S
C2478 C2477 1.523 . S
H2479 C2454 0.950 . S
H2480 C2456 0.950 . S
H2481 C2457 0.949 . S
H2482 C2459 0.950 . S
H2483 C2461 0.950 . S
C2484 C2485 1.349 . S
C2484 C2486 1.327 . S
C2484 H2509 0.950 . S
C2485 C2484 1.349 . S
C2485 C2501 1.349 . S
C2486 C2484 1.327 . S
C2486 C2505 1.429 . S
C2486 H2510 0.950 . S
C2487 C2504 1.574 1_456 S
C2487 C2506 1.368 . S
C2487 H2511 0.949 . S
H2488 C2492 0.949 . S
C2489 C2490 1.349 . S
C2489 C2491 1.327 . S
C2489 H2512 0.950 . S
C2490 C2489 1.349 . S
C2490 C2502 1.349 . S
C2491 C2489 1.327 . S
C2491 C2507 1.429 . S
C2491 H2513 0.950 . S
C2492 H2488 0.949 . S
C2492 C2500 1.574 1_654 S
C2492 C2508 1.368 . S
H2493 C2501 0.950 . S
H2494 C2499 0.950 . S
H2495 C2500 0.949 . S
H2496 C2502 0.950 . S
H2497 C2503 0.950 . S
H2498 C2504 0.949 . S
C2499 H2494 0.950 . S
C2499 C2501 1.327 . S
C2499 C2505 1.429 . S
C2500 C2492 1.574 1_456 S
C2500 H2495 0.949 . S
C2500 C2506 1.368 . S
C2501 C2485 1.349 . S
C2501 H2493 0.950 . S
C2501 C2499 1.327 . S
C2502 C2490 1.349 . S
C2502 H2496 0.950 . S
C2502 C2503 1.327 . S
C2503 H2497 0.950 . S
C2503 C2502 1.327 . S
C2503 C2507 1.429 . S
C2504 C2487 1.574 1_654 S
C2504 H2498 0.949 . S
C2504 C2508 1.368 . S
C2505 C2486 1.429 . S
C2505 C2499 1.429 . S
C2505 C2506 1.523 . S
C2506 C2487 1.368 . S
C2506 C2500 1.368 . S
C2506 C2505 1.523 . S
C2507 C2491 1.429 . S
C2507 C2503 1.429 . S
C2507 C2508 1.523 . S
C2508 C2492 1.368 . S
C2508 C2504 1.368 . S
C2508 C2507 1.523 . S
H2509 C2484 0.950 . S
H2510 C2486 0.950 . S
H2511 C2487 0.949 . S
H2512 C2489 0.950 . S
H2513 C2491 0.950 . S
C2514 C2515 1.349 . S
C2514 C2516 1.327 . S
C2514 H2539 0.950 . S
C2515 C2514 1.349 . S
C2515 C2531 1.349 . S
C2516 C2514 1.327 . S
C2516 C2535 1.429 . S
C2516 H2540 0.950 . S
C2517 C2534 1.574 1_554 S
C2517 C2536 1.368 . S
C2517 H2541 0.949 . S
H2518 C2522 0.949 . S
C2519 C2520 1.349 . S
C2519 C2521 1.327 . S
C2519 H2542 0.950 . S
C2520 C2519 1.349 . S
C2520 C2532 1.349 . S
C2521 C2519 1.327 . S
C2521 C2537 1.429 . S
C2521 H2543 0.950 . S
C2522 H2518 0.949 . S
C2522 C2530 1.574 1_556 S
C2522 C2538 1.368 . S
H2523 C2531 0.950 . S
H2524 C2529 0.950 . S
H2525 C2530 0.949 . S
H2526 C2532 0.950 . S
H2527 C2533 0.950 . S
H2528 C2534 0.949 . S
C2529 H2524 0.950 . S
C2529 C2531 1.327 . S
C2529 C2535 1.429 . S
C2530 C2522 1.574 1_554 S
C2530 H2525 0.949 . S
C2530 C2536 1.368 . S
C2531 C2515 1.349 . S
C2531 H2523 0.950 . S
C2531 C2529 1.327 . S
C2532 C2520 1.349 . S
C2532 H2526 0.950 . S
C2532 C2533 1.327 . S
C2533 H2527 0.950 . S
C2533 C2532 1.327 . S
C2533 C2537 1.429 . S
C2534 C2517 1.574 1_556 S
C2534 H2528 0.949 . S
C2534 C2538 1.368 . S
C2535 C2516 1.429 . S
C2535 C2529 1.429 . S
C2535 C2536 1.523 . S
C2536 C2517 1.368 . S
C2536 C2530 1.368 . S
C2536 C2535 1.523 . S
C2537 C2521 1.429 . S
C2537 C2533 1.429 . S
C2537 C2538 1.523 . S
C2538 C2522 1.368 . S
C2538 C2534 1.368 . S
C2538 C2537 1.523 . S
H2539 C2514 0.950 . S
H2540 C2516 0.950 . S
H2541 C2517 0.949 . S
H2542 C2519 0.950 . S
H2543 C2521 0.950 . S
C2544 C2545 1.349 . S
C2544 C2546 1.327 . S
C2544 H2569 0.950 . S
C2545 C2544 1.349 . S
C2545 C2561 1.349 . S
C2546 C2544 1.327 . S
C2546 C2565 1.429 . S
C2546 H2570 0.950 . S
C2547 C2564 1.574 1_554 S
C2547 C2566 1.368 1_565 S
C2547 H2571 0.949 . S
H2548 C2552 0.949 . S
C2549 C2550 1.349 . S
C2549 C2551 1.327 . S
C2549 H2572 0.950 . S
C2550 C2549 1.349 . S
C2550 C2562 1.349 . S
C2551 C2549 1.327 . S
C2551 C2567 1.429 . S
C2551 H2573 0.950 . S
C2552 H2548 0.949 . S
C2552 C2560 1.574 1_556 S
C2552 C2568 1.368 1_545 S
H2553 C2561 0.950 . S
H2554 C2559 0.914 1_565 S
H2555 C2560 0.949 . S
H2556 C2562 0.950 . S
H2557 C2563 0.916 1_545 S
H2558 C2564 0.949 . S
C2559 H2554 0.914 1_545 S
C2559 C2561 1.327 . S
C2559 C2565 1.429 . S
C2560 C2552 1.574 1_554 S
C2560 H2555 0.949 . S
C2560 C2566 1.368 . S
C2561 C2545 1.349 . S
C2561 H2553 0.950 . S
C2561 C2559 1.327 . S
C2562 C2550 1.349 . S
C2562 H2556 0.950 . S
C2562 C2563 1.327 . S
C2563 H2557 0.916 1_565 S
C2563 C2562 1.327 . S
C2563 C2567 1.429 . S
C2564 C2547 1.574 1_556 S
C2564 H2558 0.949 . S
C2564 C2568 1.368 . S
C2565 C2546 1.429 . S
C2565 C2559 1.429 . S
C2565 C2566 1.523 . S
C2566 C2547 1.368 1_545 S
C2566 C2560 1.368 . S
C2566 C2565 1.523 . S
C2567 C2551 1.429 . S
C2567 C2563 1.429 . S
C2567 C2568 1.523 . S
C2568 C2552 1.368 1_565 S
C2568 C2564 1.368 . S
C2568 C2567 1.523 . S
H2569 C2544 0.950 . S
H2570 C2546 0.950 . S
H2571 C2547 0.949 . S
H2572 C2549 0.950 . S
H2573 C2551 0.950 . S
C2574 C2575 1.349 . S
C2574 C2576 1.327 . S
C2574 H2599 0.950 . S
C2575 C2574 1.349 . S
C2575 C2591 1.349 . S
C2576 C2574 1.327 . S
C2576 C2595 1.429 . S
C2576 H2600 0.950 1_565 S
C2577 C2594 1.574 1_556 S
C2577 C2596 1.368 . S
C2577 H2601 0.949 . S
H2578 C2582 0.949 . S
C2579 C2580 1.349 . S
C2579 C2581 1.327 . S
C2579 H2602 0.950 . S
C2580 C2579 1.349 . S
C2580 C2592 1.349 . S
C2581 C2579 1.327 . S
C2581 C2597 1.429 . S
C2581 H2603 0.950 1_545 S
C2582 H2578 0.949 . S
C2582 C2590 1.574 1_554 S
C2582 C2598 1.368 . S
H2583 C2591 0.950 . S
H2584 C2589 0.950 . S
H2585 C2590 0.949 . S
H2586 C2592 0.950 . S
H2587 C2593 0.950 . S
H2588 C2594 0.949 . S
C2589 H2584 0.950 . S
C2589 C2591 1.327 . S
C2589 C2595 1.429 . S
C2590 C2582 1.574 1_556 S
C2590 H2585 0.949 . S
C2590 C2596 1.368 1_545 S
C2591 C2575 1.349 . S
C2591 H2583 0.950 . S
C2591 C2589 1.327 . S
C2592 C2580 1.349 . S
C2592 H2586 0.950 . S
C2592 C2593 1.327 . S
C2593 H2587 0.950 . S
C2593 C2592 1.327 . S
C2593 C2597 1.429 . S
C2594 C2577 1.574 1_554 S
C2594 H2588 0.949 . S
C2594 C2598 1.368 1_565 S
C2595 C2576 1.429 . S
C2595 C2589 1.429 . S
C2595 C2596 1.523 . S
C2596 C2577 1.368 . S
C2596 C2590 1.368 1_565 S
C2596 C2595 1.523 . S
C2597 C2581 1.429 . S
C2597 C2593 1.429 . S
C2597 C2598 1.523 . S
C2598 C2582 1.368 . S
C2598 C2594 1.368 1_545 S
C2598 C2597 1.523 . S
H2599 C2574 0.950 . S
H2600 C2576 0.950 1_545 S
H2601 C2577 0.949 . S
H2602 C2579 0.950 . S
H2603 C2581 0.950 1_565 S
C2604 C2605 1.349 . S
C2604 C2606 1.327 . S
C2604 H2629 0.950 . S
C2605 C2604 1.349 . S
C2605 C2621 1.349 . S
C2606 C2604 1.327 . S
C2606 C2625 1.429 . S
C2606 H2630 0.950 . S
C2607 C2624 1.574 1_456 S
C2607 C2626 1.368 . S
C2607 H2631 0.949 . S
H2608 C2612 0.949 . S
C2609 C2610 1.349 . S
C2609 C2611 1.327 . S
C2609 H2632 0.950 . S
C2610 C2609 1.349 . S
C2610 C2622 1.349 . S
C2611 C2609 1.327 . S
C2611 C2627 1.429 . S
C2611 H2633 0.950 . S
C2612 H2608 0.949 . S
C2612 C2620 1.574 1_654 S
C2612 C2628 1.368 . S
H2613 C2621 0.950 . S
H2614 C2619 0.950 . S
H2615 C2620 0.949 . S
H2616 C2622 0.950 . S
H2617 C2623 0.950 . S
H2618 C2624 0.949 . S
C2619 H2614 0.950 . S
C2619 C2621 1.327 . S
C2619 C2625 1.429 . S
C2620 C2612 1.574 1_456 S
C2620 H2615 0.949 . S
C2620 C2626 1.368 . S
C2621 C2605 1.349 . S
C2621 H2613 0.950 . S
C2621 C2619 1.327 . S
C2622 C2610 1.349 . S
C2622 H2616 0.950 . S
C2622 C2623 1.327 . S
C2623 H2617 0.950 . S
C2623 C2622 1.327 . S
C2623 C2627 1.429 . S
C2624 C2607 1.574 1_654 S
C2624 H2618 0.949 . S
C2624 C2628 1.368 . S
C2625 C2606 1.429 . S
C2625 C2619 1.429 . S
C2625 C2626 1.523 . S
C2626 C2607 1.368 . S
C2626 C2620 1.368 . S
C2626 C2625 1.523 . S
C2627 C2611 1.429 . S
C2627 C2623 1.429 . S
C2627 C2628 1.523 . S
C2628 C2612 1.368 . S
C2628 C2624 1.368 . S
C2628 C2627 1.523 . S
H2629 C2604 0.950 . S
H2630 C2606 0.950 . S
H2631 C2607 0.949 . S
H2632 C2609 0.950 . S
H2633 C2611 0.950 . S
C2634 C2635 1.349 . S
C2634 C2636 1.327 . S
C2634 H2659 0.950 . S
C2635 C2634 1.349 . S
C2635 C2651 1.349 . S
C2636 C2634 1.327 . S
C2636 C2655 1.429 . S
C2636 H2660 0.950 . S
C2637 C2654 1.574 1_554 S
C2637 C2656 1.368 . S
C2637 H2661 0.949 . S
H2638 C2642 0.949 . S
C2639 C2640 1.349 . S
C2639 C2641 1.327 . S
C2639 H2662 0.950 . S
C2640 C2639 1.349 . S
C2640 C2652 1.349 . S
C2641 C2639 1.327 . S
C2641 C2657 1.429 . S
C2641 H2663 0.950 . S
C2642 H2638 0.949 . S
C2642 C2650 1.574 1_556 S
C2642 C2658 1.368 . S
H2643 C2651 0.950 . S
H2644 C2649 0.950 . S
H2645 C2650 0.949 . S
H2646 C2652 0.950 . S
H2647 C2653 0.950 . S
H2648 C2654 0.949 . S
C2649 H2644 0.950 . S
C2649 C2651 1.327 . S
C2649 C2655 1.429 . S
C2650 C2642 1.574 1_554 S
C2650 H2645 0.949 . S
C2650 C2656 1.368 . S
C2651 C2635 1.349 . S
C2651 H2643 0.950 . S
C2651 C2649 1.327 . S
C2652 C2640 1.349 . S
C2652 H2646 0.950 . S
C2652 C2653 1.327 . S
C2653 H2647 0.950 . S
C2653 C2652 1.327 . S
C2653 C2657 1.429 . S
C2654 C2637 1.574 1_556 S
C2654 H2648 0.949 . S
C2654 C2658 1.368 . S
C2655 C2636 1.429 . S
C2655 C2649 1.429 . S
C2655 C2656 1.523 . S
C2656 C2637 1.368 . S
C2656 C2650 1.368 . S
C2656 C2655 1.523 . S
C2657 C2641 1.429 . S
C2657 C2653 1.429 . S
C2657 C2658 1.523 . S
C2658 C2642 1.368 . S
C2658 C2654 1.368 . S
C2658 C2657 1.523 . S
H2659 C2634 0.950 . S
H2660 C2636 0.950 . S
H2661 C2637 0.949 . S
H2662 C2639 0.950 . S
H2663 C2641 0.950 . S
C505 C9 1.288 . S
C510 C163 1.288 . S
C535 C23 1.288 . S
C540 C135 1.288 . S
C565 C149 1.288 . S
C570 C37 1.288 . S
C595 C51 1.288 . S
C600 C107 1.288 . S
C625 C121 1.288 . S
C630 C65 1.288 . S
C655 C79 1.288 . S
C660 C93 1.288 . S
C685 C331 1.287 . S
C690 C177 1.287 . S
C715 C191 1.287 . S
C720 C303 1.287 . S
C745 C205 1.288 . S
C750 C317 1.288 . S
C775 C275 1.288 . S
C780 C219 1.288 . S
C805 C233 1.288 . S
C810 C289 1.288 . S
C835 C261 1.287 . S
C840 C247 1.288 . S
C865 C345 1.288 . S
C870 C499 1.288 . S
C895 C471 1.288 . S
C900 C359 1.288 . S
C925 C485 1.288 . S
C930 C373 1.288 . S
C955 C443 1.287 . S
C960 C387 1.287 . S
C985 C457 1.288 . S
C990 C401 1.288 . S
C1015 C429 1.287 . S
C1020 C415 1.288 . S
C1045 C8 1.302 . S
C1050 C64 1.302 . S
C1075 C78 1.302 . S
C1080 C22 1.302 . S
C1105 C36 1.302 . S
C1110 C50 1.302 . S
C1135 C92 1.302 . S
C1140 C148 1.302 . S
C1165 C106 1.302 . S
C1170 C162 1.302 . S
C1195 C120 1.302 . S
C1200 C134 1.302 . S
C1225 C232 1.302 . S
C1230 C176 1.302 . S
C1255 C246 1.302 . S
C1260 C190 1.302 . S
C1285 C204 1.302 . S
C1290 C218 1.302 . S
C1315 C316 1.302 . S
C1320 C260 1.302 . S
C1345 C330 1.302 . S
C1350 C274 1.302 . S
C1375 C288 1.302 . S
C1380 C302 1.302 . S
C1405 C400 1.302 . S
C1410 C344 1.302 . S
C1435 C358 1.302 . S
C1440 C414 1.302 . S
C1465 C372 1.302 . S
C1470 C386 1.302 . S
C1495 C484 1.302 . S
C1500 C428 1.302 . S
C1525 C442 1.302 . S
C1530 C498 1.302 . S
C1555 C470 1.302 . S
C1560 C456 1.302 . S
C1585 C413 0.891 . S
C1590 C7 0.891 1_556 S
C1615 C21 0.891 1_556 S
C1620 C385 0.891 . S
C1645 C35 0.891 1_556 S
C1650 C399 0.891 . S
C1675 C49 0.891 1_554 S
C1680 C189 0.891 . S
C1705 C203 0.891 . S
C1710 C63 0.891 1_554 S
C1735 C175 0.891 . S
C1740 C77 0.891 1_554 S
C1765 C91 0.891 1_554 S
C1770 C329 0.891 . S
C1795 C105 0.891 1_554 S
C1800 C301 0.891 . S
C1825 C119 0.891 1_554 S
C1830 C315 0.891 . S
C1855 C441 0.891 . S
C1860 C133 0.891 1_556 S
C1885 C455 0.891 . S
C1890 C147 0.891 1_556 S
C1915 C161 0.891 1_556 S
C1920 C427 0.891 . S
C1945 C357 0.890 . S
C1950 C217 0.890 . S
C1975 C231 0.891 . S
C1980 C371 0.891 . S
C2005 C343 0.890 . S
C2010 C245 0.890 . S
C2035 C497 0.890 . S
C2040 C259 0.890 . S
C2065 C273 0.890 . S
C2070 C469 0.890 . S
C2095 C287 0.891 . S
C2100 C483 0.891 . S
C2125 C3 1.742 . S
C2130 C409 1.742 . S
C2155 C381 1.742 . S
C2160 C17 1.742 . S
C2185 C31 1.742 . S
C2190 C395 1.742 . S
C2215 C185 1.742 . S
C2220 C45 1.742 . S
C2245 C59 1.742 . S
C2250 C199 1.742 . S
C2275 C73 1.742 . S
C2280 C171 1.742 . S
C2305 C325 1.742 . S
C2310 C87 1.742 . S
C2335 C101 1.742 . S
C2340 C297 1.742 . S
C2365 C115 1.742 . S
C2370 C311 1.742 . S
C2395 C129 1.742 . S
C2400 C437 1.742 . S
C2425 C451 1.742 . S
C2430 C143 1.742 . S
C2455 C157 1.742 . S
C2460 C423 1.742 . S
C2485 C353 1.742 . S
C2490 C213 1.742 . S
C2515 C227 1.741 . S
C2520 C367 1.741 . S
C2545 C241 1.742 . S
C2550 C339 1.742 . S
C2575 C493 1.742 . S
C2580 C255 1.742 . S
C2605 C465 1.742 . S
C2610 C269 1.742 . S
C2635 C283 1.741 . S
C2640 C479 1.741 . S
