# Generated by pormake.
# Topology wje, (4)-cn, num edge types: 1
# Building blocks:
#     Node 0, Type 0, BuildingBlock: NAHDIM_clean_sbu_0, # of connection points: 4
#     Node 1, Type 0, BuildingBlock: NAHDIM_clean_sbu_0, # of connection points: 4
#     Node 2, Type 0, BuildingBlock: NAHDIM_clean_sbu_0, # of connection points: 4
#     Node 3, Type 0, BuildingBlock: NAHDIM_clean_sbu_0, # of connection points: 4
#     Node 4, Type 0, BuildingBlock: NAHDIM_clean_sbu_0, # of connection points: 4
#     Node 5, Type 0, BuildingBlock: NAHDIM_clean_sbu_0, # of connection points: 4
#     Node 6, Type 0, BuildingBlock: NAHDIM_clean_sbu_0, # of connection points: 4
#     Node 7, Type 0, BuildingBlock: NAHDIM_clean_sbu_0, # of connection points: 4
#     Node 8, Type 0, BuildingBlock: NAHDIM_clean_sbu_0, # of connection points: 4
#     Node 9, Type 0, BuildingBlock: NAHDIM_clean_sbu_0, # of connection points: 4
#     Node 10, Type 0, BuildingBlock: NAHDIM_clean_sbu_0, # of connection points: 4
#     Node 11, Type 0, BuildingBlock: NAHDIM_clean_sbu_0, # of connection points: 4
#     Edge 12, Type (0, 0), BuildingBlock: MIFKUJ_clean_linker_0, # of connection points: 2
#     Edge 13, Type (0, 0), BuildingBlock: MIFKUJ_clean_linker_0, # of connection points: 2
#     Edge 14, Type (0, 0), BuildingBlock: MIFKUJ_clean_linker_0, # of connection points: 2
#     Edge 15, Type (0, 0), BuildingBlock: MIFKUJ_clean_linker_0, # of connection points: 2
#     Edge 16, Type (0, 0), BuildingBlock: MIFKUJ_clean_linker_0, # of connection points: 2
#     Edge 17, Type (0, 0), BuildingBlock: MIFKUJ_clean_linker_0, # of connection points: 2
#     Edge 18, Type (0, 0), BuildingBlock: MIFKUJ_clean_linker_0, # of connection points: 2
#     Edge 19, Type (0, 0), BuildingBlock: MIFKUJ_clean_linker_0, # of connection points: 2
#     Edge 20, Type (0, 0), BuildingBlock: MIFKUJ_clean_linker_0, # of connection points: 2
#     Edge 21, Type (0, 0), BuildingBlock: MIFKUJ_clean_linker_0, # of connection points: 2
#     Edge 22, Type (0, 0), BuildingBlock: MIFKUJ_clean_linker_0, # of connection points: 2
#     Edge 23, Type (0, 0), BuildingBlock: MIFKUJ_clean_linker_0, # of connection points: 2
#     Edge 24, Type (0, 0), BuildingBlock: MIFKUJ_clean_linker_0, # of connection points: 2
#     Edge 25, Type (0, 0), BuildingBlock: MIFKUJ_clean_linker_0, # of connection points: 2
#     Edge 26, Type (0, 0), BuildingBlock: MIFKUJ_clean_linker_0, # of connection points: 2
#     Edge 27, Type (0, 0), BuildingBlock: MIFKUJ_clean_linker_0, # of connection points: 2
#     Edge 28, Type (0, 0), BuildingBlock: MIFKUJ_clean_linker_0, # of connection points: 2
#     Edge 29, Type (0, 0), BuildingBlock: MIFKUJ_clean_linker_0, # of connection points: 2
#     Edge 30, Type (0, 0), BuildingBlock: MIFKUJ_clean_linker_0, # of connection points: 2
#     Edge 31, Type (0, 0), BuildingBlock: MIFKUJ_clean_linker_0, # of connection points: 2
#     Edge 32, Type (0, 0), BuildingBlock: MIFKUJ_clean_linker_0, # of connection points: 2
#     Edge 33, Type (0, 0), BuildingBlock: MIFKUJ_clean_linker_0, # of connection points: 2
#     Edge 34, Type (0, 0), BuildingBlock: MIFKUJ_clean_linker_0, # of connection points: 2
#     Edge 35, Type (0, 0), BuildingBlock: MIFKUJ_clean_linker_0, # of connection points: 2
# Relax obj value: 0.170
# Max RMSD: 0.139
# Mean RMSD: 0.139
data_MOF--net-wje--node1-NAHDIM_clean_sbu_0--edge1-MIFKUJ_clean_linker_0
_symmetry_space_group_name_H-M    P1
_symmetry_Int_Tables_number       1
_symmetry_cell_setting            triclinic
loop_
_symmetry_equiv_pos_as_xyz
'x, y, z'
_cell_length_a     53.412768
_cell_length_b     53.414618
_cell_length_c     46.115408
_cell_angle_alpha  89.942161
_cell_angle_beta   90.07896
_cell_angle_gamma 119.99167
loop_
_atom_site_label
_atom_site_type_symbol
_atom_site_fract_x
_atom_site_fract_y
_atom_site_fract_z
_atom_type_partial_charge
C0 C 0.28752 0.0374 0.26352 0.0
O1 O 0.26253 0.01499 0.27067 0.0
O2 O 0.27413 0.96846 0.2829 0.0
Zn3 Zn 0.30898 0.00579 0.29488 0.0
O4 O 0.34571 0.00428 0.28967 0.0
C5 C 0.2966 0.98908 0.35358 0.0
O6 O 0.29073 0.96443 0.34161 0.0
O7 O 0.31071 0.03845 0.27184 0.0
C8 C 0.3461 0.98071 0.29129 0.0
O9 O 0.3219 0.95638 0.29578 0.0
C10 C 0.27182 0.95238 0.26159 0.0
O11 O 0.29374 0.96009 0.2439 0.0
O12 O 0.3049 0.0112 0.33751 0.0
C13 C 0.27047 0.32275 0.57876 0.0
O14 O 0.29425 0.32766 0.56547 0.0
O15 O 0.3148 0.3004 0.62725 0.0
Zn16 Zn 0.30608 0.33283 0.62835 0.0
O17 O 0.33973 0.36939 0.61321 0.0
C18 C 0.28214 0.31861 0.68577 0.0
O19 O 0.26243 0.29505 0.67281 0.0
O20 O 0.27016 0.32345 0.60627 0.0
C21 C 0.36028 0.36997 0.59882 0.0
O22 O 0.35937 0.34557 0.59242 0.0
C23 C 0.29498 0.2741 0.62586 0.0
O24 O 0.26816 0.26788 0.62153 0.0
O25 O 0.30177 0.33869 0.67062 0.0
C26 C 0.97321 0.26385 0.91789 0.0
O27 O 0.99336 0.25928 0.9287 0.0
O28 O 0.04305 0.31766 0.93948 0.0
Zn29 Zn 0.00625 0.31821 0.94686 0.0
O30 O 0.01039 0.35692 0.93755 0.0
C31 C 0.0174 0.31731 0.00745 0.0
O32 O 0.04412 0.32995 0.9979 0.0
O33 O 0.97423 0.28771 0.92294 0.0
C34 C 0.02783 0.37946 0.95159 0.0
O35 O 0.04398 0.37754 0.97196 0.0
C36 C 0.06644 0.33787 0.92896 0.0
O37 O 0.06742 0.36151 0.91941 0.0
O38 O -0.00321 0.3097 0.98943 0.0
C39 C 0.68501 0.94515 0.27794 0.0
O40 O 0.70649 0.9672 0.29119 0.0
O41 O 0.68255 0.99434 0.32716 0.0
Zn42 Zn 0.64995 0.95414 0.3197 0.0
O43 O 0.6136 0.95504 0.31132 0.0
C44 C 0.66674 0.93269 0.36776 0.0
O45 O 0.69006 0.9418 0.3518 0.0
O46 O 0.65929 0.93584 0.28667 0.0
C47 C 0.60727 0.97087 0.32663 0.0
O48 O 0.62462 0.98623 0.34783 0.0
C49 C 0.68563 0.01759 0.31637 0.0
O50 O 0.66694 0.01645 0.29711 0.0
O51 O 0.64506 0.9332 0.35709 0.0
C52 C 0.72293 0.67534 0.56927 0.0
O53 O 0.70103 0.67378 0.55472 0.0
O54 O 0.68404 0.70691 0.60959 0.0
Zn55 Zn 0.68752 0.67174 0.61688 0.0
O56 O 0.65118 0.63638 0.60392 0.0
C57 C 0.71258 0.69111 0.67266 0.0
O58 O 0.73266 0.71187 0.65684 0.0
O59 O 0.72205 0.67476 0.59678 0.0
C60 C 0.62736 0.63593 0.60731 0.0
O61 O 0.62757 0.65857 0.61871 0.0
C62 C 0.70526 0.73201 0.60476 0.0
O63 O 0.73119 0.73541 0.60125 0.0
O64 O 0.69133 0.67004 0.66006 0.0
C65 C 0.01455 0.72866 0.90245 0.0
O66 O 0.98987 0.72675 0.9097 0.0
O67 O 0.9553 0.66864 0.93964 0.0
Zn68 Zn -0.00305 0.6794 0.94102 0.0
O69 O 0.00068 0.64467 0.93264 0.0
C70 C 0.00135 0.70758 0.99487 0.0
O71 O 0.98636 0.71682 0.98035 0.0
O72 O 0.02135 0.71094 0.91315 0.0
C73 C 0.02295 0.64428 0.94167 0.0
O74 O 0.04299 0.6668 0.95574 0.0
C75 C 0.93901 0.64965 0.95794 0.0
O76 O 0.94975 0.63679 0.97379 0.0
O77 O 0.00987 0.69218 0.98192 0.0
C78 C 0.95222 0.67308 0.41064 0.0
O79 O 0.97471 0.67366 0.42295 0.0
O80 O 0.01698 0.69649 0.366 0.0
Zn81 Zn 0.97686 0.66347 0.35997 0.0
O82 O 0.97454 0.62596 0.37032 0.0
C83 C 0.98459 0.65999 0.29976 0.0
O84 O 0.00216 0.65159 0.30999 0.0
O85 O 0.94863 0.66903 0.38347 0.0
C86 C 0.954 0.60225 0.36079 0.0
O87 O 0.934 0.60257 0.34444 0.0
C88 C 0.03911 0.69353 0.36438 0.0
O89 O 0.03563 0.66742 0.36287 0.0
O90 O 0.96929 0.66487 0.31743 0.0
C91 C 0.24367 0.95279 0.73925 0.0
O92 O 0.24293 0.97384 0.72522 0.0
O93 O 0.30586 0.02302 0.73461 0.0
Zn94 Zn 0.30227 0.98532 0.72216 0.0
O95 O 0.33824 0.98389 0.73192 0.0
C96 C 0.29318 0.00051 0.66426 0.0
O97 O 0.29296 0.02192 0.67797 0.0
O98 O 0.26746 0.9529 0.74109 0.0
C99 C 0.35976 0.99692 0.71502 0.0
O100 O 0.35753 0.01056 0.6923 0.0
C101 C 0.32931 0.04639 0.73949 0.0
O102 O 0.35378 0.04619 0.74009 0.0
O103 O 0.29639 0.98195 0.67865 0.0
C104 C 0.32223 0.25707 0.06255 0.0
O105 O 0.30181 0.25483 0.04499 0.0
O106 O 0.32159 0.31679 0.02783 0.0
Zn107 Zn 0.35595 0.31169 0.03363 0.0
O108 O 0.39064 0.34881 0.04689 0.0
C109 C 0.37309 0.32395 0.97604 0.0
O110 O 0.38372 0.34997 0.98713 0.0
O111 O 0.34718 0.27941 0.06127 0.0
C112 C 0.38892 0.36639 0.06419 0.0
O113 O 0.36373 0.35984 0.07522 0.0
C114 C 0.30343 0.31758 0.04494 0.0
O115 O 0.3057 0.31538 0.07306 0.0
O116 O 0.36222 0.30235 0.99308 0.0
C117 C 0.02968 0.30672 0.424 0.0
O118 O 0.00612 0.30146 0.43799 0.0
O119 O 0.96089 0.27234 0.38663 0.0
Zn120 Zn -0.00277 0.30847 0.37547 0.0
O121 O 0.99328 0.34325 0.38358 0.0
C122 C 0.98217 0.28912 0.31625 0.0
O123 O 0.95728 0.27084 0.32813 0.0
O124 O 0.03098 0.31079 0.39678 0.0
C125 C 0.97344 0.34509 0.3702 0.0
O126 O 0.95642 0.32418 0.35248 0.0
C127 C 0.94071 0.27085 0.4024 0.0
O128 O 0.94405 0.29423 0.41533 0.0
O129 O 0.00277 0.30705 0.33229 0.0
C130 C 0.74163 0.04733 0.74613 0.0
O131 O 0.74125 0.02318 0.73977 0.0
O132 O 0.68621 0.98138 0.72131 0.0
Zn133 Zn 0.68755 0.01932 0.71557 0.0
O134 O 0.64977 0.01649 0.72701 0.0
C135 C 0.71304 0.0229 0.66044 0.0
O136 O 0.73112 0.0191 0.67663 0.0
O137 O 0.72078 0.05071 0.73793 0.0
C138 C 0.63004 0.00888 0.70796 0.0
O139 O 0.6349 0.00318 0.68154 0.0
C140 C 0.66392 0.95723 0.71571 0.0
O141 O 0.63944 0.95634 0.70981 0.0
O142 O 0.69358 0.0262 0.67267 0.0
C143 C 0.69793 0.76313 0.06139 0.0
O144 O 0.72099 0.76198 0.05361 0.0
O145 O 0.70343 0.70476 0.03386 0.0
Zn146 Zn 0.66812 0.70861 0.03134 0.0
O147 O 0.6339 0.6719 0.04536 0.0
C148 C 0.68425 0.73265 0.97486 0.0
O149 O 0.70689 0.75219 0.98919 0.0
O150 O 0.67307 0.74281 0.05401 0.0
C151 C 0.6302 0.6486 0.03405 0.0
O152 O 0.64844 0.64998 0.01415 0.0
C153 C 0.70771 0.68886 0.05129 0.0
O154 O 0.68862 0.67453 0.07162 0.0
O155 O 0.66332 0.71268 0.98886 0.0
H156 H 0.24257 0.03856 0.23636 0.0
H157 H 0.24506 0.07593 0.20379 0.0
H158 H 0.33742 0.12566 0.21602 0.0
H159 H 0.33517 0.08853 0.24864 0.0
H160 H 0.31122 0.15914 0.2184 0.0
H161 H 0.31093 0.08583 0.15663 0.0
H162 H 0.29129 0.03625 0.13795 0.0
H163 H 0.21299 0.03444 0.1127 0.0
H164 H 0.23203 0.08391 0.13162 0.0
H165 H 0.36049 0.25393 0.09952 0.0
H166 H 0.35071 0.21641 0.13516 0.0
H167 H 0.26078 0.17108 0.11026 0.0
H168 H 0.2705 0.20838 0.07402 0.0
H169 H 0.28087 0.13455 0.11573 0.0
H170 H 0.28206 0.20897 0.17359 0.0
H171 H 0.30102 0.25842 0.19233 0.0
H172 H 0.37606 0.25818 0.22547 0.0
H173 H 0.35775 0.20885 0.20655 0.0
C174 C 0.26339 0.05753 0.23226 0.0
C175 C 0.28871 0.06053 0.24495 0.0
C176 C 0.26476 0.07879 0.2136 0.0
C177 C 0.29145 0.10338 0.20735 0.0
C178 C 0.31662 0.10681 0.22059 0.0
C179 C 0.3153 0.08551 0.23912 0.0
C180 C 0.29338 0.12527 0.18643 0.0
C181 C 0.30482 0.15387 0.19589 0.0
C182 C 0.28417 0.1181 0.15732 0.0
C183 C 0.27277 0.08842 0.14584 0.0
C184 C 0.28943 0.07476 0.14732 0.0
C185 C 0.27843 0.0467 0.13664 0.0
C186 C 0.25088 0.03217 0.12422 0.0
C187 C 0.23431 0.04571 0.12238 0.0
C188 C 0.2452 0.07376 0.13305 0.0
C189 C 0.3386 0.23602 0.1016 0.0
C190 C 0.31624 0.23417 0.08399 0.0
C191 C 0.33302 0.21466 0.12212 0.0
C192 C 0.30493 0.19121 0.12569 0.0
C193 C 0.28259 0.18909 0.10793 0.0
C194 C 0.28818 0.21042 0.08726 0.0
C195 C 0.29918 0.16863 0.14756 0.0
C196 C 0.287 0.13986 0.1383 0.0
C197 C 0.30756 0.17563 0.17691 0.0
C198 C 0.31862 0.20527 0.18844 0.0
C199 C 0.30271 0.21953 0.18468 0.0
C200 C 0.31332 0.24753 0.19537 0.0
C201 C 0.33976 0.26146 0.21003 0.0
C202 C 0.3556 0.24737 0.21409 0.0
C203 C 0.34509 0.21938 0.20342 0.0
H204 H 0.34794 0.28313 0.21828 0.0
H205 H 0.2424 0.01045 0.11597 0.0
H206 H 0.21742 0.3096 0.5996 0.0
H207 H 0.17603 0.30441 0.572 0.0
H208 H 0.22406 0.31987 0.49249 0.0
H209 H 0.26571 0.32533 0.51995 0.0
H210 H 0.19839 0.35265 0.49633 0.0
H211 H 0.17038 0.25301 0.50826 0.0
H212 H 0.16064 0.20917 0.53523 0.0
H213 H 0.09481 0.21357 0.58454 0.0
H214 H 0.10444 0.2577 0.55813 0.0
H215 H 0.08081 0.31598 0.4012 0.0
H216 H 0.12122 0.31686 0.4269 0.0
H217 H 0.07478 0.30018 0.50762 0.0
H218 H 0.03401 0.29886 0.48201 0.0
H219 H 0.0998 0.26713 0.50215 0.0
H220 H 0.12884 0.36748 0.49155 0.0
H221 H 0.1387 0.41159 0.46501 0.0
H222 H 0.20277 0.40606 0.41366 0.0
H223 H 0.193 0.36167 0.43965 0.0
C224 C 0.21914 0.31171 0.57622 0.0
C225 C 0.24487 0.31795 0.56195 0.0
C226 C 0.19541 0.3086 0.56048 0.0
C227 C 0.19695 0.31157 0.5302 0.0
C228 C 0.22248 0.31748 0.51585 0.0
C229 C 0.2462 0.32051 0.53157 0.0
C230 C 0.17232 0.30975 0.51368 0.0
C231 C 0.17692 0.33377 0.4972 0.0
C232 C 0.14421 0.28539 0.51549 0.0
C233 C 0.13833 0.25883 0.53139 0.0
C234 C 0.154 0.24477 0.52502 0.0
C235 C 0.14846 0.21984 0.54018 0.0
C236 C 0.12717 0.20863 0.56164 0.0
C237 C 0.11132 0.2223 0.56793 0.0
C238 C 0.11679 0.24725 0.55286 0.0
C239 C 0.07916 0.31253 0.42443 0.0
C240 C 0.05423 0.30747 0.4396 0.0
C241 C 0.10232 0.31312 0.43909 0.0
C242 C 0.1011 0.30888 0.4692 0.0
C243 C 0.07614 0.30352 0.48437 0.0
C244 C 0.05292 0.30289 0.46971 0.0
C245 C 0.12588 0.31006 0.48486 0.0
C246 C 0.1213 0.28596 0.50119 0.0
C247 C 0.15403 0.33437 0.48298 0.0
C248 C 0.15997 0.36108 0.46735 0.0
C249 C 0.14486 0.37554 0.47444 0.0
C250 C 0.15047 0.40061 0.45953 0.0
C251 C 0.17129 0.41157 0.43761 0.0
C252 C 0.18661 0.39752 0.43061 0.0
C253 C 0.18107 0.37241 0.44544 0.0
H254 H 0.17561 0.43099 0.42609 0.0
H255 H 0.12291 0.18933 0.57334 0.0
H256 H 0.78956 0.0469 0.76605 0.0
H257 H 0.82924 0.08404 0.79462 0.0
H258 H 0.78831 0.13614 0.79323 0.0
H259 H 0.74863 0.09923 0.76426 0.0
H260 H 0.84583 0.16817 0.78272 0.0
H261 H 0.78446 0.09775 0.85311 0.0
H262 H 0.75651 0.04895 0.87422 0.0
H263 H 0.83389 0.04365 0.88137 0.0
H264 H 0.86226 0.0923 0.85992 0.0
H265 H 0.9266 0.26525 0.89533 0.0
H266 H 0.88786 0.22858 0.86551 0.0
H267 H 0.92801 0.17581 0.86942 0.0
H268 H 0.96662 0.21217 0.89978 0.0
H269 H 0.87115 0.14405 0.87829 0.0
H270 H 0.93272 0.21448 0.80839 0.0
H271 H 0.96084 0.26315 0.78703 0.0
H272 H 0.8835 0.26837 0.7786 0.0
H273 H 0.85496 0.21986 0.80029 0.0
C274 C 0.78897 0.06625 0.77178 0.0
C275 C 0.76586 0.07006 0.76301 0.0
C276 C 0.81163 0.08741 0.78819 0.0
C277 C 0.8115 0.11264 0.79634 0.0
C278 C 0.78875 0.11676 0.78721 0.0
C279 C 0.76607 0.09562 0.77073 0.0
C280 C 0.8351 0.13472 0.81446 0.0
C281 C 0.85115 0.16302 0.80379 0.0
C282 C 0.84243 0.12775 0.84161 0.0
C283 C 0.82544 0.09855 0.85466 0.0
C284 C 0.79548 0.08609 0.85898 0.0
C285 C 0.77957 0.05847 0.87104 0.0
C286 C 0.7934 0.04318 0.87906 0.0
C287 C 0.8232 0.05551 0.87511 0.0
C288 C 0.83921 0.08311 0.86303 0.0
C289 C 0.92724 0.24586 0.88984 0.0
C290 C 0.94974 0.24164 0.89986 0.0
C291 C 0.90513 0.22498 0.87267 0.0
C292 C 0.90527 0.19965 0.86492 0.0
C293 C 0.92754 0.19525 0.87511 0.0
C294 C 0.94961 0.21607 0.8924 0.0
C295 C 0.88192 0.17755 0.84657 0.0
C296 C 0.86589 0.14922 0.8572 0.0
C297 C 0.87465 0.1845 0.81936 0.0
C298 C 0.89175 0.21364 0.80622 0.0
C299 C 0.92174 0.22609 0.80219 0.0
C300 C 0.93775 0.25364 0.78999 0.0
C301 C 0.92398 0.26887 0.78153 0.0
C302 C 0.89415 0.25656 0.7852 0.0
C303 C 0.87804 0.22903 0.79742 0.0
H304 H 0.93641 0.29019 0.77209 0.0
H305 H 0.78104 0.02179 0.88839 0.0
H306 H 0.74747 0.80856 0.08335 0.0
H307 H 0.75144 0.84626 0.11631 0.0
H308 H 0.6588 0.80914 0.11426 0.0
H309 H 0.65464 0.77168 0.08111 0.0
H310 H 0.68644 0.86765 0.11154 0.0
H311 H 0.6915 0.79441 0.16948 0.0
H312 H 0.71196 0.76383 0.18386 0.0
H313 H 0.79394 0.83959 0.20079 0.0
H314 H 0.77402 0.87063 0.18614 0.0
H315 H 0.64523 0.90395 0.24198 0.0
H316 H 0.65411 0.88032 0.2013 0.0
H317 H 0.74595 0.93103 0.21659 0.0
H318 H 0.73726 0.95488 0.25756 0.0
H319 H 0.72705 0.87314 0.20972 0.0
H320 H 0.71915 0.9463 0.15893 0.0
H321 H 0.69792 0.9764 0.14543 0.0
H322 H 0.62107 0.90105 0.11547 0.0
H323 H 0.64166 0.87041 0.12919 0.0
C324 C 0.72796 0.80856 0.08973 0.0
C325 C 0.7007 0.78699 0.07981 0.0
C326 C 0.73028 0.83008 0.1086 0.0
C327 C 0.70539 0.83027 0.11793 0.0
C328 C 0.67828 0.80936 0.10729 0.0
C329 C 0.67594 0.78788 0.08845 0.0
C330 C 0.70716 0.85135 0.13979 0.0
C331 C 0.69521 0.86881 0.13305 0.0
C332 C 0.71944 0.85345 0.16753 0.0
C333 C 0.73139 0.83481 0.17637 0.0
C334 C 0.71395 0.80453 0.17604 0.0
C335 C 0.72543 0.78712 0.18428 0.0
C336 C 0.75426 0.79976 0.19314 0.0
C337 C 0.77163 0.82984 0.19386 0.0
C338 C 0.76026 0.84734 0.1856 0.0
C339 C 0.66734 0.9102 0.23667 0.0
C340 C 0.69055 0.93127 0.25301 0.0
C341 C 0.67238 0.8968 0.21329 0.0
C342 C 0.7007 0.9042 0.20576 0.0
C343 C 0.72395 0.92517 0.22201 0.0
C344 C 0.71894 0.93876 0.24536 0.0
C345 C 0.70559 0.88885 0.18173 0.0
C346 C 0.71879 0.87245 0.18805 0.0
C347 C 0.69441 0.88769 0.15363 0.0
C348 C 0.6819 0.90603 0.14528 0.0
C349 C 0.69763 0.93611 0.14968 0.0
C350 C 0.68573 0.95327 0.14194 0.0
C351 C 0.65814 0.94064 0.12965 0.0
C352 C 0.64243 0.91081 0.125 0.0
C353 C 0.65423 0.89353 0.13272 0.0
H354 H 0.64897 0.95397 0.12367 0.0
H355 H 0.76311 0.78624 0.19952 0.0
H356 H 0.90374 0.67287 0.39153 0.0
H357 H 0.86779 0.67696 0.42049 0.0
H358 H 0.91647 0.68523 0.49816 0.0
H359 H 0.95249 0.68077 0.46932 0.0
H360 H 0.85986 0.64681 0.50508 0.0
H361 H 0.91595 0.74362 0.47028 0.0
H362 H 0.94078 0.78208 0.43384 0.0
H363 H 0.85996 0.75554 0.39087 0.0
H364 H 0.83467 0.71664 0.42682 0.0
H365 H 0.77274 0.68188 0.59305 0.0
H366 H 0.81419 0.68476 0.56764 0.0
H367 H 0.77179 0.67646 0.48561 0.0
H368 H 0.7304 0.67404 0.51081 0.0
H369 H 0.82804 0.71767 0.48349 0.0
H370 H 0.77276 0.61891 0.51632 0.0
H371 H 0.74792 0.58022 0.55256 0.0
H372 H 0.8276 0.61061 0.59915 0.0
H373 H 0.85284 0.64974 0.56337 0.0
C374 C 0.90692 0.6757 0.41475 0.0
C375 C 0.93098 0.67649 0.42814 0.0
C376 C 0.88642 0.67819 0.43126 0.0
C377 C 0.88966 0.68174 0.46142 0.0
C378 C 0.91366 0.6826 0.47488 0.0
C379 C 0.93421 0.68009 0.45837 0.0
C380 C 0.8673 0.68334 0.47892 0.0
C381 C 0.85325 0.66264 0.50073 0.0
C382 C 0.85833 0.70363 0.47278 0.0
C383 C 0.87345 0.72705 0.45113 0.0
C384 C 0.90349 0.74583 0.45293 0.0
C385 C 0.91765 0.76774 0.43239 0.0
C386 C 0.90196 0.77121 0.41002 0.0
C387 C 0.87208 0.75281 0.40819 0.0
C388 C 0.85782 0.73085 0.42867 0.0
C389 C 0.77223 0.6807 0.56959 0.0
C390 C 0.74821 0.67756 0.55392 0.0
C391 C 0.79591 0.68228 0.55513 0.0
C392 C 0.79589 0.68047 0.52478 0.0
C393 C 0.77219 0.67787 0.50906 0.0
C394 C 0.74853 0.67639 0.52349 0.0
C395 C 0.82041 0.68094 0.50937 0.0
C396 C 0.83484 0.70201 0.48797 0.0
C397 C 0.82974 0.661 0.51587 0.0
C398 C 0.81461 0.63743 0.53734 0.0
C399 C 0.78493 0.61748 0.53442 0.0
C400 C 0.77079 0.59545 0.55485 0.0
C401 C 0.78615 0.59301 0.57819 0.0
C402 C 0.81571 0.61256 0.58109 0.0
C403 C 0.82995 0.63465 0.56073 0.0
H404 H 0.77517 0.57594 0.59398 0.0
H405 H 0.91296 0.78819 0.39414 0.0
H406 H 0.19046 0.94831 0.74285 0.0
H407 H 0.14706 0.90994 0.76623 0.0
H408 H 0.19371 0.86632 0.78975 0.0
H409 H 0.23711 0.90441 0.76636 0.0
H410 H 0.13966 0.82916 0.76772 0.0
H411 H 0.18299 0.90625 0.83884 0.0
H412 H 0.20176 0.95614 0.85627 0.0
H413 H 0.11906 0.94889 0.84097 0.0
H414 H 0.09991 0.89905 0.82309 0.0
H415 H 0.06701 0.7381 0.88409 0.0
H416 H 0.10079 0.7758 0.85168 0.0
H417 H 0.0417 0.80823 0.84226 0.0
H418 H 0.00767 0.77057 0.87527 0.0
H419 H 0.09613 0.85136 0.85179 0.0
H420 H 0.05077 0.77213 0.78673 0.0
H421 H 0.03162 0.72215 0.7695 0.0
H422 H 0.11686 0.73305 0.77248 0.0
H423 H 0.13649 0.78299 0.79013 0.0
C424 C 0.19147 0.93051 0.75294 0.0
C425 C 0.21726 0.92945 0.75288 0.0
C426 C 0.16667 0.90866 0.76631 0.0
C427 C 0.16728 0.88544 0.77984 0.0
C428 C 0.19283 0.88407 0.77937 0.0
C429 C 0.21763 0.90592 0.76611 0.0
C430 C 0.14156 0.86272 0.79506 0.0
C431 C 0.13019 0.83394 0.7862 0.0
C432 C 0.12864 0.86917 0.81848 0.0
C433 C 0.14013 0.89907 0.8293 0.0
C434 C 0.16889 0.91539 0.83896 0.0
C435 C 0.17958 0.94363 0.84897 0.0
C436 C 0.16164 0.95571 0.84964 0.0
C437 C 0.13295 0.93953 0.84039 0.0
C438 C 0.12216 0.91128 0.83033 0.0
C439 C 0.06104 0.75312 0.87508 0.0
C440 C 0.0346 0.75129 0.88223 0.0
C441 C 0.08034 0.77458 0.85638 0.0
C442 C 0.07355 0.79452 0.84419 0.0
C443 C 0.04725 0.79291 0.85132 0.0
C444 C 0.02785 0.77138 0.87014 0.0
C445 C 0.09469 0.81765 0.82497 0.0
C446 C 0.10519 0.84653 0.83301 0.0
C447 C 0.10673 0.8113 0.80069 0.0
C448 C 0.09507 0.78128 0.78993 0.0
C449 C 0.06541 0.76382 0.7839 0.0
C450 C 0.05447 0.7355 0.77403 0.0
C451 C 0.073 0.72442 0.76994 0.0
C452 C 0.10253 0.74167 0.77566 0.0
C453 C 0.11358 0.77 0.78556 0.0
H454 H 0.06449 0.70248 0.7623 0.0
H455 H 0.16996 0.97758 0.8574 0.0
H456 H 0.35408 0.93545 0.27856 0.0
H457 H 0.39925 0.93441 0.28027 0.0
H458 H 0.4453 0.02455 0.30444 0.0
H459 H 0.40033 0.02601 0.30144 0.0
H460 H 0.47739 0.01463 0.26971 0.0
H461 H 0.42326 0.96865 0.35538 0.0
H462 H 0.38085 0.93396 0.38374 0.0
H463 H 0.38378 0.86319 0.34306 0.0
H464 H 0.426 0.89748 0.31416 0.0
H465 H 0.59535 0.01284 0.34302 0.0
H466 H 0.55149 0.01505 0.33267 0.0
H467 H 0.51586 0.93432 0.28631 0.0
H468 H 0.55986 0.93218 0.29603 0.0
H469 H 0.47911 0.93907 0.33101 0.0
H470 H 0.53661 0.98837 0.24706 0.0
H471 H 0.58043 0.02521 0.22206 0.0
H472 H 0.57277 0.0926 0.26445 0.0
H473 H 0.52912 0.05613 0.29007 0.0
C474 C 0.37389 0.9551 0.28399 0.0
C475 C 0.37369 0.98074 0.29015 0.0
C476 C 0.39966 0.95446 0.28509 0.0
C477 C 0.42556 0.97922 0.29319 0.0
C478 C 0.42557 0.00514 0.29827 0.0
C479 C 0.39986 0.00594 0.29661 0.0
C480 C 0.45237 0.97782 0.29737 0.0
C481 C 0.47779 -0.00172 0.28336 0.0
C482 C 0.45291 0.95631 0.31496 0.0
C483 C 0.4276 0.93563 0.3324 0.0
C484 C 0.41473 0.94569 0.35234 0.0
C485 C 0.39075 0.9261 0.36853 0.0
C486 C 0.37958 0.89639 0.36515 0.0
C487 C 0.39243 0.88621 0.34563 0.0
C488 C 0.4164 0.90571 0.32935 0.0
C489 C 0.5782 0.99559 0.33058 0.0
C490 C 0.58096 0.97231 0.32035 0.0
C491 C 0.55328 0.99697 0.32459 0.0
C492 C 0.53064 0.9749 0.30866 0.0
C493 C 0.53322 0.95155 0.29858 0.0
C494 C 0.55834 0.95041 0.3041 0.0
C495 C 0.50385 0.97576 0.30333 0.0
C496 C 0.47853 0.95527 0.31725 0.0
C497 C 0.50358 -0.00245 0.28617 0.0
C498 C 0.52976 0.01951 0.27072 0.0
C499 C 0.54442 0.01104 0.25128 0.0
C500 C 0.5692 0.03185 0.23695 0.0
C501 C 0.57943 0.06123 0.24173 0.0
C502 C 0.56485 0.06984 0.2608 0.0
C503 C 0.54007 0.04911 0.27521 0.0
H504 H 0.59861 0.07731 0.2306 0.0
H505 H 0.36101 0.88126 0.3777 0.0
H506 H 0.57314 0.62846 0.61192 0.0
H507 H 0.52717 0.58409 0.60418 0.0
H508 H 0.57263 0.53964 0.57945 0.0
H509 H 0.61886 0.58413 0.58681 0.0
H510 H 0.52434 0.52401 0.54536 0.0
H511 H 0.5484 0.53263 0.64668 0.0
H512 H 0.56248 0.55706 0.69415 0.0
H513 H 0.4856 0.56366 0.69538 0.0
H514 H 0.47126 0.53962 0.64769 0.0
H515 H 0.41183 0.37953 0.57658 0.0
H516 H 0.45643 0.42598 0.57149 0.0
H517 H 0.41203 0.47013 0.60077 0.0
H518 H 0.36755 0.42385 0.60637 0.0
H519 H 0.45994 0.48628 0.6311 0.0
H520 H 0.43461 0.4752 0.53029 0.0
H521 H 0.42074 0.45029 0.48306 0.0
H522 H 0.49962 0.44738 0.48095 0.0
H523 H 0.51378 0.47192 0.52838 0.0
C524 C 0.57342 0.60935 0.60459 0.0
C525 C 0.59965 0.60972 0.60031 0.0
C526 C 0.54712 0.58401 0.60019 0.0
C527 C 0.54656 0.55853 0.59165 0.0
C528 C 0.57265 0.5591 0.5861 0.0
C529 C 0.59902 0.58449 0.59045 0.0
C530 C 0.51879 0.53096 0.59032 0.0
C531 C 0.51032 0.51554 0.56413 0.0
C532 C 0.5004 0.52025 0.61474 0.0
C533 C 0.50892 0.5346 0.64348 0.0
C534 C 0.53461 0.5395 0.65697 0.0
C535 C 0.54262 0.55324 0.68393 0.0
C536 C 0.52499 0.56198 0.69774 0.0
C537 C 0.49926 0.55692 0.68464 0.0
C538 C 0.49118 0.54322 0.65765 0.0
C539 C 0.41145 0.39915 0.5815 0.0
C540 C 0.38623 0.398 0.59214 0.0
C541 C 0.43693 0.4257 0.57845 0.0
C542 C 0.43752 0.45151 0.5857 0.0
C543 C 0.41205 0.45045 0.59515 0.0
C544 C 0.38665 0.42397 0.59831 0.0
C545 C 0.46513 0.47934 0.586 0.0
C546 C 0.47374 0.49476 0.61217 0.0
C547 C 0.48358 0.4899 0.56158 0.0
C548 C 0.47513 0.47516 0.53304 0.0
C549 C 0.44889 0.46903 0.51988 0.0
C550 C 0.441 0.45502 0.49304 0.0
C551 C 0.45925 0.44719 0.47905 0.0
C552 C 0.48548 0.45342 0.49183 0.0
C553 C 0.49346 0.46741 0.51868 0.0
H554 H 0.4531 0.43635 0.45827 0.0
H555 H 0.53122 0.57261 0.71861 0.0
H556 H 0.98857 0.59653 0.90898 0.0
H557 H 0.99108 0.55222 0.90513 0.0
H558 H 0.06492 0.58838 0.96237 0.0
H559 H 0.06304 0.63304 0.96573 0.0
H560 H 0.07214 0.55926 0.91953 0.0
H561 H -0.00344 0.54151 0.98735 0.0
H562 H 0.95168 0.53959 0.00365 0.0
H563 H 0.9041 0.47883 0.93614 0.0
H564 H 0.9488 0.48069 0.91918 0.0
H565 H 0.06466 0.43195 0.97566 0.0
H566 H 0.06525 0.47749 0.96812 0.0
H567 H 0.99498 0.43577 0.90704 0.0
H568 H 0.99408 0.38999 0.91457 0.0
H569 H 0.98532 0.46703 0.9477 0.0
H570 H 0.06164 0.48214 0.88296 0.0
H571 H 0.10695 0.48393 0.86858 0.0
H572 H 0.15368 0.54946 0.9325 0.0
H573 H 0.10857 0.54778 0.94756 0.0
C574 C 0.00547 0.59513 0.92059 0.0
C575 C 0.02546 0.61817 0.93788 0.0
C576 C 0.00682 0.56977 0.91843 0.0
C577 C 0.02789 0.56684 0.93385 0.0
C578 C 0.04846 0.59017 0.95033 0.0
C579 C 0.04729 0.61565 0.9523 0.0
C580 C 0.02786 0.5391 0.93378 0.0
C581 C 0.05324 0.53912 0.92591 0.0
C582 C 0.003 0.51275 0.94155 0.0
C583 C 0.97607 0.51148 0.95181 0.0
C584 C 0.97656 0.5279 0.97585 0.0
C585 C 0.95115 0.5268 0.98523 0.0
C586 C 0.92507 0.50917 0.97089 0.0
C587 C 0.92433 0.49252 0.94719 0.0
C588 C 0.94969 0.49357 0.9377 0.0
C589 C 0.04946 0.43247 0.96045 0.0
C590 C 0.02927 0.40735 0.94576 0.0
C591 C 0.04994 0.45856 0.95606 0.0
C592 C 0.03031 0.46001 0.93685 0.0
C593 C 0.01034 0.43507 0.9219 0.0
C594 C 0.00991 0.40897 0.9262 0.0
C595 C 0.02965 0.48722 0.93365 0.0
C596 C 0.00413 0.48711 0.941 0.0
C597 C 0.05445 0.51348 0.92565 0.0
C598 C 0.08166 0.51466 0.91654 0.0
C599 C 0.08154 0.49678 0.8941 0.0
C600 C 0.1072 0.4978 0.8858 0.0
C601 C 0.13317 0.51676 0.89965 0.0
C602 C 0.13354 0.53478 0.9218 0.0
C603 C 0.10794 0.53382 0.9302 0.0
H604 H 0.15301 0.51752 0.8932 0.0
H605 H 0.90542 0.50834 0.97818 0.0
H606 H 0.99007 0.59392 0.39644 0.0
H607 H 0.99171 0.54945 0.40349 0.0
H608 H 0.91957 0.50453 0.34502 0.0
H609 H 0.91737 0.54879 0.3383 0.0
H610 H 0.91489 0.47122 0.39104 0.0
H611 H 0.9886 0.53028 0.32178 0.0
H612 H 0.03137 0.57479 0.30444 0.0
H613 H 0.08185 0.56996 0.37449 0.0
H614 H 0.03924 0.52562 0.39249 0.0
H615 H 0.93306 0.35503 0.34485 0.0
H616 H 0.92854 0.39813 0.34898 0.0
H617 H 0.00099 0.43596 0.40794 0.0
H618 H 0.00593 0.39296 0.40366 0.0
H619 H 0.00621 0.47327 0.36592 0.0
H620 H 0.93287 0.41143 0.43277 0.0
H621 H 0.88992 0.36667 0.44933 0.0
H622 H 0.83857 0.37617 0.38323 0.0
H623 H 0.88131 0.42078 0.366 0.0
C624 C 0.9744 0.57453 0.38524 0.0
C625 C 0.95374 0.57493 0.36659 0.0
C626 C 0.97541 0.54916 0.38926 0.0
C627 C 0.95606 0.52383 0.37442 0.0
C628 C 0.93475 0.52388 0.35662 0.0
C629 C 0.93359 0.54921 0.35273 0.0
C630 C 0.95879 0.49763 0.37642 0.0
C631 C 0.93476 0.47157 0.38532 0.0
C632 C 0.98496 0.49831 0.36961 0.0
C633 C 0.01066 0.52482 0.35865 0.0
C634 C 0.00877 0.53883 0.3336 0.0
C635 C 0.03299 0.56401 0.32364 0.0
C636 C 0.05929 0.57524 0.3384 0.0
C637 C 0.06145 0.56126 0.3631 0.0
C638 C 0.03728 0.5361 0.37319 0.0
C639 C 0.94794 0.37241 0.35887 0.0
C640 C 0.9699 0.37061 0.37389 0.0
C641 C 0.94521 0.39697 0.36132 0.0
C642 C 0.96424 0.4201 0.379 0.0
C643 C 0.98604 0.41829 0.39424 0.0
C644 C 0.98879 0.3937 0.3918 0.0
C645 C 0.96224 0.44674 0.38032 0.0
C646 C 0.98641 0.47292 0.37196 0.0
C647 C 0.93618 0.4461 0.38754 0.0
C648 C 0.91037 0.41934 0.39795 0.0
C649 C 0.91247 0.40387 0.42162 0.0
C650 C 0.88815 0.37854 0.43115 0.0
C651 C 0.86155 0.36855 0.4173 0.0
C652 C 0.85919 0.38392 0.39393 0.0
C653 C 0.88345 0.40925 0.38429 0.0
H654 H 0.84275 0.34894 0.42471 0.0
H655 H 0.07802 0.59474 0.33065 0.0
H656 H 0.61375 0.02297 0.759 0.0
H657 H 0.56679 0.01841 0.77034 0.0
H658 H 0.53587 0.98379 0.68492 0.0
H659 H 0.58237 0.98809 0.67349 0.0
H660 H 0.53971 0.04402 0.74412 0.0
H661 H 0.46565 0.93321 0.68803 0.0
H662 H 0.46456 0.88701 0.68015 0.0
H663 H 0.51754 0.90233 0.75555 0.0
H664 H 0.51861 0.9484 0.76416 0.0
H665 H 0.41134 0.02901 0.68757 0.0
H666 H 0.45663 0.02971 0.69687 0.0
H667 H 0.41595 0.96715 0.76537 0.0
H668 H 0.37029 0.96626 0.75618 0.0
H669 H 0.44696 0.9529 0.72856 0.0
H670 H 0.46301 0.03427 0.78386 0.0
H671 H 0.46395 0.08 0.79424 0.0
H672 H 0.52647 0.12234 0.72669 0.0
H673 H 0.52559 0.07675 0.71559 0.0
C674 C 0.59687 0.01424 0.74271 0.0
C675 C 0.60176 0.00589 0.71534 0.0
C676 C 0.57011 0.01169 0.74922 0.0
C677 C 0.54779 0.00044 0.72859 0.0
C678 C 0.55265 0.99206 0.70133 0.0
C679 C 0.57933 0.99471 0.69477 0.0
C680 C 0.51971 -0.00147 0.73474 0.0
C681 C 0.51941 0.02407 0.74102 0.0
C682 C 0.49326 0.97232 0.7314 0.0
C683 C 0.49234 0.94437 0.72663 0.0
C684 C 0.47692 0.92664 0.70304 0.0
C685 C 0.47634 0.90049 0.69842 0.0
C686 C 0.49102 0.89177 0.7173 0.0
C687 C 0.50625 0.90915 0.74089 0.0
C688 C 0.50688 0.93531 0.74563 0.0
C689 C 0.41198 0.01545 0.7047 0.0
C690 C 0.38722 -0.00245 0.72113 0.0
C691 C 0.43795 0.01602 0.7101 0.0
C692 C 0.43969 -0.00127 0.73202 0.0
C693 C 0.41503 0.98076 0.74846 0.0
C694 C 0.38902 0.98031 0.74319 0.0
C695 C 0.46707 -0.00136 0.73658 0.0
C696 C 0.46723 0.97274 0.73225 0.0
C697 C 0.49335 0.02444 0.74214 0.0
C698 C 0.49411 0.05201 0.7488 0.0
C699 C 0.47682 0.05328 0.77108 0.0
C700 C 0.47736 0.07918 0.77711 0.0
C701 C 0.49523 0.10405 0.76111 0.0
C702 C 0.51264 0.10306 0.73907 0.0
C703 C 0.51216 0.07719 0.73293 0.0
H704 H 0.49561 0.12408 0.76582 0.0
H705 H 0.49056 0.87153 0.71367 0.0
H706 H 0.44442 0.38585 0.04659 0.0
H707 H 0.48549 0.43478 0.05082 0.0
H708 H 0.4325 0.46109 0.09745 0.0
H709 H 0.39111 0.41211 0.09317 0.0
H710 H 0.46077 0.49709 0.05296 0.0
H711 H 0.48574 0.45759 0.13259 0.0
H712 H 0.49443 0.42249 0.15898 0.0
H713 H 0.56334 0.43862 0.10042 0.0
H714 H 0.5548 0.47353 0.07339 0.0
H715 H 0.58442 0.63804 0.06883 0.0
H716 H 0.54348 0.5909 0.08226 0.0
H717 H 0.58031 0.54835 0.03339 0.0
H718 H 0.6212 0.59522 0.01988 0.0
H719 H 0.55888 0.52264 0.08702 0.0
H720 H 0.52852 0.55644 0.00389 0.0
H721 H 0.5194 0.59108 0.9771 0.0
H722 H 0.46007 0.58516 0.04313 0.0
H723 H 0.46916 0.55076 0.07053 0.0
C724 C 0.44156 0.40191 0.0581 0.0
C725 C 0.41447 0.39513 0.06944 0.0
C726 C 0.46511 0.42984 0.06064 0.0
C727 C 0.46208 0.45149 0.07463 0.0
C728 C 0.43528 0.44464 0.08664 0.0
C729 C 0.41169 0.41664 0.08422 0.0
C730 C 0.48633 0.48169 0.07453 0.0
C731 C 0.48207 0.50284 0.06105 0.0
C732 C 0.51419 0.48902 0.08464 0.0
C733 C 0.51948 0.46806 0.10083 0.0
C734 C 0.5026 0.4535 0.12519 0.0
C735 C 0.50753 0.43366 0.14029 0.0
C736 C 0.52939 0.42829 0.13135 0.0
C737 C 0.54641 0.4428 0.10731 0.0
C738 C 0.54156 0.46265 0.09211 0.0
C739 C 0.58386 0.61864 0.06108 0.0
C740 C 0.60591 0.62033 0.04312 0.0
C741 C 0.56048 0.59177 0.06876 0.0
C742 C 0.55887 0.56622 0.05868 0.0
C743 C 0.58122 0.56785 0.04142 0.0
C744 C 0.60447 0.59465 0.03358 0.0
C745 C 0.53335 0.5377 0.06495 0.0
C746 C 0.53742 0.51693 0.07951 0.0
C747 C 0.50528 0.53069 0.05588 0.0
C748 C 0.4998 0.55134 0.03943 0.0
C749 C 0.51373 0.56274 0.01283 0.0
C750 C 0.50853 0.58228 0.99751 0.0
C751 C 0.48924 0.5904 0.00846 0.0
C752 C 0.47505 0.57891 0.03471 0.0
C753 C 0.48021 0.55938 0.05014 0.0
H754 H 0.48523 0.60552 0.99656 0.0
H755 H 0.53317 0.41292 0.14308 0.0
H756 H 0.08815 0.69444 0.34539 0.0
H757 H 0.13042 0.73546 0.32328 0.0
H758 H 0.0956 0.79081 0.34378 0.0
H759 H 0.05338 0.75012 0.36578 0.0
H760 H 0.10792 0.79102 0.28576 0.0
H761 H 0.15401 0.79873 0.37847 0.0
H762 H 0.1709 0.78086 0.41906 0.0
H763 H 0.22328 0.76416 0.36049 0.0
H764 H 0.20639 0.78159 0.31947 0.0
H765 H 0.21709 0.93578 0.27795 0.0
H766 H 0.1782 0.88651 0.28716 0.0
H767 H 0.23159 0.85317 0.25486 0.0
H768 H 0.27061 0.90272 0.24509 0.0
H769 H 0.21174 0.83549 0.31107 0.0
H770 H 0.17179 0.83406 0.21964 0.0
H771 H 0.15441 0.85003 0.17793 0.0
H772 H 0.09029 0.85279 0.23172 0.0
H773 H 0.10755 0.83726 0.27388 0.0
C774 C 0.08984 0.7155 0.34585 0.0
C775 C 0.06726 0.71898 0.35703 0.0
C776 C 0.11398 0.73888 0.33316 0.0
C777 C 0.1159 0.76601 0.33166 0.0
C778 C 0.09432 0.76992 0.3445 0.0
C779 C 0.07027 0.74666 0.35717 0.0
C780 C 0.13895 0.78985 0.3147 0.0
C781 C 0.13064 0.80092 0.29135 0.0
C782 C 0.16859 0.80168 0.32123 0.0
C783 C 0.17864 0.7911 0.34586 0.0
C784 C 0.16889 0.79097 0.3742 0.0
C785 C 0.17852 0.78099 0.3973 0.0
C786 C 0.19807 0.77128 0.39234 0.0
C787 C 0.20809 0.77162 0.36429 0.0
C788 C 0.19851 0.78156 0.34111 0.0
C789 C 0.22019 0.91789 0.27198 0.0
C790 C 0.24676 0.92294 0.26087 0.0
C791 C 0.19797 0.88978 0.27717 0.0
C792 C 0.20207 0.86625 0.27167 0.0
C793 C 0.22805 0.8711 0.25912 0.0
C794 C 0.25018 0.89933 0.2534 0.0
C795 C 0.18059 0.83739 0.28273 0.0
C796 C 0.18911 0.82527 0.305 0.0
C797 C 0.1511 0.82442 0.27507 0.0
C798 C 0.14119 0.83474 0.25003 0.0
C799 C 0.15424 0.83844 0.22269 0.0
C800 C 0.14433 0.84731 0.19893 0.0
C801 C 0.1213 0.85249 0.20219 0.0
C802 C 0.10815 0.84881 0.22923 0.0
C803 C 0.11798 0.83995 0.25307 0.0
H804 H 0.11363 0.8593 0.18374 0.0
H805 H 0.20551 0.76358 0.41025 0.0
H806 H 0.25636 0.218 0.63958 0.0
H807 H 0.26692 0.1829 0.66215 0.0
H808 H 0.35831 0.24353 0.65596 0.0
H809 H 0.348 0.27892 0.6334 0.0
H810 H 0.34346 0.1865 0.64229 0.0
H811 H 0.32766 0.23847 0.71758 0.0
H812 H 0.30184 0.25877 0.74398 0.0
H813 H 0.22999 0.17338 0.75779 0.0
H814 H 0.25511 0.15257 0.73081 0.0
H815 H 0.37601 0.10099 0.73447 0.0
H816 H 0.37501 0.14448 0.71963 0.0
H817 H 0.28184 0.09739 0.72341 0.0
H818 H 0.2826 0.05411 0.73866 0.0
H819 H 0.30363 0.15276 0.74095 0.0
H820 H 0.31724 0.1016 0.66078 0.0
H821 H 0.34341 0.08094 0.63536 0.0
H822 H 0.41947 0.16484 0.63139 0.0
H823 H 0.39396 0.18595 0.65725 0.0
C824 C 0.27872 0.22373 0.64253 0.0
C825 C 0.30135 0.25132 0.63492 0.0
C826 C 0.2847 0.20372 0.6556 0.0
C827 C 0.31336 0.21089 0.66116 0.0
C828 C 0.33605 0.23773 0.65201 0.0
C829 C 0.3301 0.25787 0.63914 0.0
C830 C 0.31947 0.19075 0.67757 0.0
C831 C 0.33516 0.17945 0.66403 0.0
C832 C 0.30845 0.18149 0.70586 0.0
C833 C 0.29318 0.19397 0.72192 0.0
C834 C 0.30623 0.22403 0.72598 0.0
C835 C 0.29173 0.23563 0.74112 0.0
C836 C 0.26428 0.21737 0.75259 0.0
C837 C 0.25125 0.18749 0.74888 0.0
C838 C 0.2656 0.17578 0.73365 0.0
C839 C 0.35535 0.10011 0.73292 0.0
C840 C 0.32935 0.07399 0.73726 0.0
C841 C 0.35482 0.12493 0.72427 0.0
C842 C 0.32833 0.1239 0.71977 0.0
C843 C 0.30251 0.09856 0.72655 0.0
C844 C 0.303 0.07382 0.73521 0.0
C845 C 0.32702 0.14801 0.70544 0.0
C846 C 0.31223 0.16008 0.71935 0.0
C847 C 0.33879 0.15791 0.67747 0.0
C848 C 0.35381 0.1453 0.66124 0.0
C849 C 0.33959 0.11562 0.65461 0.0
C850 C 0.35428 0.10383 0.64011 0.0
C851 C 0.38307 0.12155 0.63186 0.0
C852 C 0.39718 0.15114 0.63787 0.0
C853 C 0.38263 0.16303 0.65244 0.0
H854 H 0.39446 0.11235 0.62087 0.0
H855 H 0.25308 0.2263 0.76439 0.0
H856 H 0.27886 0.29944 0.99207 0.0
H857 H 0.2408 0.30555 0.97004 0.0
H858 H 0.23756 0.35027 0.04667 0.0
H859 H 0.27471 0.34263 0.06951 0.0
H860 H 0.18647 0.31717 0.03008 0.0
H861 H 0.27132 0.38613 0.97942 0.0
H862 H 0.31621 0.4036 0.95116 0.0
H863 H 0.26842 0.34501 0.88222 0.0
H864 H 0.22331 0.32712 0.91006 0.0
H865 H 0.12242 0.38239 0.92554 0.0
H866 H 0.16564 0.38159 0.94204 0.0
H867 H 0.11416 0.28996 0.95806 0.0
H868 H 0.07096 0.29059 0.94203 0.0
H869 H 0.19519 0.35292 0.92908 0.0
H870 H 0.13028 0.27604 0.02342 0.0
H871 H 0.0873 0.26428 0.05307 0.0
H872 H 0.10049 0.34945 0.03827 0.0
H873 H 0.14341 0.36165 0.00873 0.0
C874 C 0.26998 0.31054 0.00425 0.0
C875 C 0.27975 0.32069 0.03244 0.0
C876 C 0.24841 0.31428 0.99151 0.0
C877 C 0.23682 0.3291 0.00632 0.0
C878 C 0.2463 0.33892 0.03472 0.0
C879 C 0.26745 0.33454 0.04779 0.0
C880 C 0.21409 0.33336 0.99251 0.0
C881 C 0.18856 0.32513 0.00805 0.0
C882 C 0.21684 0.34423 0.96388 0.0
C883 C 0.24395 0.35517 0.94693 0.0
C884 C 0.27041 0.37691 0.95827 0.0
C885 C 0.29589 0.38692 0.94229 0.0
C886 C 0.29518 0.37546 0.91488 0.0
C887 C 0.26896 0.35397 0.90337 0.0
C888 C 0.24341 0.34393 0.91922 0.0
C889 C 0.12043 0.36196 0.93194 0.0
C890 C 0.09323 0.33663 0.93294 0.0
C891 C 0.14514 0.36155 0.94136 0.0
C892 C 0.14291 0.33584 0.95182 0.0
C893 C 0.11619 0.31013 0.95057 0.0
C894 C 0.09155 0.31053 0.94134 0.0
C895 C 0.16769 0.33613 0.9665 0.0
C896 C 0.19342 0.34516 0.95115 0.0
C897 C 0.16556 0.32683 0.99559 0.0
C898 C 0.13989 0.31964 0.01368 0.0
C899 C 0.12399 0.29224 0.02659 0.0
C900 C 0.09959 0.28547 0.04332 0.0
C901 C 0.09102 0.30603 0.04745 0.0
C902 C 0.10691 0.33342 0.03493 0.0
C903 C 0.13126 0.34026 0.01815 0.0
H904 H 0.07214 0.30075 0.06043 0.0
H905 H 0.31493 0.38324 0.90255 0.0
H906 H 0.92725 0.21961 0.37712 0.0
H907 H 0.87919 0.17913 0.36718 0.0
H908 H 0.84098 0.22129 0.4144 0.0
H909 H 0.8893 0.2623 0.42448 0.0
H910 H 0.81316 0.1598 0.42308 0.0
H911 H 0.8416 0.22875 0.34691 0.0
H912 H 0.87439 0.26289 0.31014 0.0
H913 H 0.87643 0.19336 0.26566 0.0
H914 H 0.84399 0.15883 0.30246 0.0
H915 H 0.69526 0.0719 0.30376 0.0
H916 H 0.7333 0.11793 0.32356 0.0
H917 H 0.76625 0.07239 0.37367 0.0
H918 H 0.72869 0.0266 0.35399 0.0
H919 H 0.79062 0.14214 0.31804 0.0
H920 H 0.79255 0.10515 0.43661 0.0
H921 H 0.7583 0.07495 0.47472 0.0
H922 H 0.69146 0.08567 0.43517 0.0
H923 H 0.72522 0.1158 0.39676 0.0
C924 C 0.90872 0.22017 0.38587 0.0
C925 C 0.91207 0.24437 0.40127 0.0
C926 C 0.88128 0.19703 0.38009 0.0
C927 C 0.85667 0.19758 0.38962 0.0
C928 C 0.85983 0.22066 0.40676 0.0
C929 C 0.88741 0.24401 0.41249 0.0
C930 C 0.82788 0.17487 0.37974 0.0
C931 C 0.80806 0.15594 0.40016 0.0
C932 C 0.82102 0.17058 0.34986 0.0
C933 C 0.84046 0.19121 0.32755 0.0
C934 C 0.84921 0.22076 0.32942 0.0
C935 C 0.8677 0.24018 0.30855 0.0
C936 C 0.87745 0.23029 0.28556 0.0
C937 C 0.8688 0.20097 0.28345 0.0
C938 C 0.85033 0.18145 0.3043 0.0
C939 C 0.71063 0.07173 0.31899 0.0
C940 C 0.70892 0.04561 0.32735 0.0
C941 C 0.73222 0.098 0.33038 0.0
C942 C 0.75222 0.09849 0.35048 0.0
C943 C 0.75062 0.07246 0.35871 0.0
C944 C 0.72925 0.0463 0.34722 0.0
C945 C 0.77626 0.1262 0.36131 0.0
C946 C 0.79536 0.14613 0.34101 0.0
C947 C 0.78212 0.13167 0.39131 0.0
C948 C 0.76142 0.11268 0.41376 0.0
C949 C 0.77054 0.10106 0.43605 0.0
C950 C 0.75121 0.08394 0.45769 0.0
C951 C 0.72278 0.07853 0.45745 0.0
C952 C 0.71351 0.08993 0.43536 0.0
C953 C 0.73268 0.10687 0.41354 0.0
H954 H 0.70789 0.06538 0.47429 0.0
H955 H 0.89163 0.24534 0.26934 0.0
H956 H 0.6546 0.73257 0.60828 0.0
H957 H 0.64804 0.77208 0.62542 0.0
H958 H 0.74053 0.82793 0.62973 0.0
H959 H 0.74734 0.78837 0.61269 0.0
H960 H 0.71489 0.82658 0.68045 0.0
H961 H 0.70281 0.84391 0.5819 0.0
H962 H 0.68427 0.83295 0.53179 0.0
H963 H 0.59776 0.80081 0.56289 0.0
H964 H 0.61577 0.81134 0.61325 0.0
H965 H 0.71399 0.95544 0.7124 0.0
H966 H 0.71989 0.91597 0.69422 0.0
H967 H 0.6273 0.86194 0.68716 0.0
H968 H 0.6212 0.90182 0.70455 0.0
H969 H 0.65231 0.86143 0.63845 0.0
H970 H 0.66725 0.8475 0.73804 0.0
H971 H 0.68831 0.86218 0.78695 0.0
H972 H 0.77317 0.89207 0.75222 0.0
H973 H 0.75262 0.87778 0.70305 0.0
C974 C 0.67358 0.75344 0.61224 0.0
C975 C 0.7015 0.75729 0.60936 0.0
C976 C 0.66978 0.77603 0.62195 0.0
C977 C 0.69381 0.8029 0.6289 0.0
C978 C 0.72173 0.80731 0.62454 0.0
C979 C 0.72556 0.78473 0.61465 0.0
C980 C 0.68959 0.8252 0.64341 0.0
C981 C 0.70168 0.83468 0.67104 0.0
C982 C 0.67168 0.83505 0.63149 0.0
C983 C 0.6606 0.82805 0.60136 0.0
C984 C 0.67979 0.83418 0.57807 0.0
C985 C 0.66939 0.82816 0.54962 0.0
C986 C 0.63984 0.81609 0.54417 0.0
C987 C 0.62064 0.8101 0.56716 0.0
C988 C 0.63093 0.81612 0.59565 0.0
C989 C 0.6948 0.93498 0.70763 0.0
C990 C 0.66709 0.93178 0.70987 0.0
C991 C 0.69823 0.91234 0.69733 0.0
C992 C 0.67402 0.88588 0.68959 0.0
C993 C 0.64626 0.88219 0.69304 0.0
C994 C 0.64282 0.90495 0.70308 0.0
C995 C 0.67795 0.86322 0.67537 0.0
C996 C 0.66558 0.85342 0.64789 0.0
C997 C 0.69601 0.85348 0.68725 0.0
C998 C 0.70842 0.86181 0.71683 0.0
C999 C 0.69042 0.85739 0.74081 0.0
C1000 C 0.70226 0.8656 0.76858 0.0
C1001 C 0.73207 0.87817 0.77267 0.0
C1002 C 0.75009 0.88241 0.74901 0.0
C1003 C 0.73835 0.87418 0.7212 0.0
H1004 H 0.7412 0.88452 0.79419 0.0
H1005 H 0.63183 0.81145 0.52212 0.0
H1006 H 0.71967 0.65021 0.07838 0.0
H1007 H 0.75604 0.6374 0.064 0.0
H1008 H 0.78577 0.70184 0.99641 0.0
H1009 H 0.74974 0.71469 0.01044 0.0
H1010 H 0.77454 0.64908 0.97643 0.0
H1011 H 0.82537 0.71314 0.05712 0.0
H1012 H 0.83118 0.72897 0.10813 0.0
H1013 H 0.82214 0.64804 0.13571 0.0
H1014 H 0.81601 0.63164 0.08485 0.0
H1015 H 0.9127 0.67711 0.93333 0.0
H1016 H 0.86889 0.67615 0.94989 0.0
H1017 H 0.85657 0.61281 0.01487 0.0
H1018 H 0.90075 0.61406 -0.00118 0.0
H1019 H 0.85398 0.65667 0.03838 0.0
H1020 H 0.81082 0.59539 0.95723 0.0
H1021 H 0.80437 0.57882 0.9065 0.0
H1022 H 0.79692 0.65184 0.87971 0.0
H1023 H 0.80392 0.66921 0.93018 0.0
C1024 C 0.73425 0.66192 0.06074 0.0
C1025 C 0.73174 0.68337 0.04547 0.0
C1026 C 0.75496 0.65456 0.05255 0.0
C1027 C 0.77344 0.66861 0.02907 0.0
C1028 C 0.77155 0.69061 0.01445 0.0
C1029 C 0.751 0.69801 0.02262 0.0
C1030 C 0.79419 0.65994 0.01874 0.0
C1031 C 0.79206 0.65086 0.98986 0.0
C1032 C 0.81622 0.66118 0.03671 0.0
C1033 C 0.81986 0.67103 0.06724 0.0
C1034 C 0.82436 0.69863 0.07409 0.0
C1035 C 0.82778 0.70773 0.10297 0.0
C1036 C 0.82691 0.68948 0.12516 0.0
C1037 C 0.82269 0.66211 0.11851 0.0
C1038 C 0.81927 0.65292 0.08967 0.0
C1039 C 0.90041 0.66257 0.9508 0.0
C1040 C 0.91028 0.64577 0.96485 0.0
C1041 C 0.87528 0.66196 0.96017 0.0
C1042 C 0.8594 0.64432 0.98356 0.0
C1043 C 0.86855 0.62662 0.99684 0.0
C1044 C 0.89374 0.62728 0.98754 0.0
C1045 C 0.83489 0.64647 0.9957 0.0
C1046 C 0.83623 0.65429 0.02498 0.0
C1047 C 0.81201 0.64392 0.97808 0.0
C1048 C 0.8082 0.63377 0.94755 0.0
C1049 C 0.80815 0.60812 0.9405 0.0
C1050 C 0.80434 0.59855 0.91178 0.0
C1051 C 0.80033 0.61431 0.88988 0.0
C1052 C 0.8001 0.63968 0.89668 0.0
C1053 C 0.80398 0.64939 0.92536 0.0
H1054 H 0.79733 0.60683 0.86767 0.0
H1055 H 0.8296 0.69657 0.1475 0.0
H1056 H 0.28445 0.94687 0.39344 0.0
H1057 H 0.28171 0.94982 0.44592 0.0
H1058 H 0.30031 0.03802 0.43842 0.0
H1059 H 0.30377 0.03545 0.38565 0.0
H1060 H 0.3314 0.03315 0.48065 0.0
H1061 H 0.23172 0.98282 0.4541 0.0
H1062 H 0.18766 0.94538 0.42987 0.0
H1063 H 0.19309 0.87926 0.47773 0.0
H1064 H 0.23744 0.91629 0.50198 0.0
H1065 H 0.29307 0.04028 0.62717 0.0
H1066 H 0.29211 0.03892 0.57421 0.0
H1067 H 0.28697 0.95575 0.57593 0.0
H1068 H 0.28846 0.95712 0.62902 0.0
H1069 H 0.24751 0.95966 0.53686 0.0
H1070 H 0.3488 0.01064 0.56125 0.0
H1071 H 0.39306 0.04847 0.58486 0.0
H1072 H 0.38355 0.11414 0.5409 0.0
H1073 H 0.33897 0.07666 0.51729 0.0
C1074 C 0.28784 0.96689 0.40287 0.0
C1075 C 0.29425 0.99092 0.38535 0.0
C1076 C 0.28612 0.96848 0.43292 0.0
C1077 C 0.29036 0.99399 0.44608 0.0
C1078 C 0.29685 0.01808 0.42869 0.0
C1079 C 0.29876 0.01657 0.39856 0.0
C1080 C 0.28884 0.99561 0.47808 0.0
C1081 C 0.31282 0.01739 0.49288 0.0
C1082 C 0.26483 0.9747 0.4941 0.0
C1083 C 0.23805 0.95234 0.47968 0.0
C1084 C 0.22364 0.96029 0.45931 0.0
C1085 C 0.1986 0.93914 0.4456 0.0
C1086 C 0.18762 0.90996 0.45221 0.0
C1087 C 0.20163 0.90187 0.47262 0.0
C1088 C 0.22671 0.92294 0.48638 0.0
C1089 C 0.29176 0.02169 0.61633 0.0
C1090 C 0.29111 -0.00109 0.63229 0.0
C1091 C 0.29121 0.02097 0.58608 0.0
C1092 C 0.28968 -0.00266 0.57126 0.0
C1093 C 0.2882 0.97418 0.58707 0.0
C1094 C 0.28913 0.97505 0.61735 0.0
C1095 C 0.2901 0.99702 0.53922 0.0
C1096 C 0.26593 0.9755 0.5245 0.0
C1097 C 0.31383 0.01827 0.52327 0.0
C1098 C 0.34041 0.04085 0.53772 0.0
C1099 C 0.35598 0.03315 0.55684 0.0
C1100 C 0.38116 0.05452 0.57016 0.0
C1101 C 0.39111 0.08368 0.56435 0.0
C1102 C 0.37582 0.09154 0.54534 0.0
C1103 C 0.35061 0.07024 0.53197 0.0
H1104 H 0.41073 0.10019 0.57452 0.0
H1105 H 0.16823 0.89361 0.44156 0.0
H1106 H 0.33573 0.27412 0.94725 0.0
H1107 H 0.31793 0.27058 0.89766 0.0
H1108 H 0.37848 0.3612 0.88442 0.0
H1109 H 0.39609 0.36501 0.93395 0.0
H1110 H 0.32446 0.34846 0.87231 0.0
H1111 H 0.38496 0.30798 0.85037 0.0
H1112 H 0.40322 0.27391 0.85441 0.0
H1113 H 0.31937 0.2034 0.83206 0.0
H1114 H 0.30043 0.23697 0.8284 0.0
H1115 H 0.32031 0.36383 0.71937 0.0
H1116 H 0.33108 0.36222 0.77058 0.0
H1117 H 0.2617 0.2739 0.77579 0.0
H1118 H 0.25094 0.27502 0.72436 0.0
H1119 H 0.31501 0.28147 0.79329 0.0
H1120 H 0.2552 0.32167 0.81223 0.0
H1121 H 0.23607 0.35504 0.80862 0.0
H1122 H 0.31783 0.42544 0.83643 0.0
H1123 H 0.33766 0.39261 0.83971 0.0
C1124 C 0.34581 0.29311 0.93351 0.0
C1125 C 0.36715 0.31993 0.94458 0.0
C1126 C 0.33556 0.29105 0.90518 0.0
C1127 C 0.34673 0.31569 0.88745 0.0
C1128 C 0.36939 0.34199 0.89785 0.0
C1129 C 0.37953 0.34409 0.92612 0.0
C1130 C 0.33324 0.31492 0.85913 0.0
C1131 C 0.32277 0.3341 0.85485 0.0
C1132 C 0.32988 0.29525 0.83689 0.0
C1133 C 0.34115 0.27497 0.83959 0.0
C1134 C 0.37029 0.28517 0.84671 0.0
C1135 C 0.3808 0.26594 0.84885 0.0
C1136 C 0.36244 0.23649 0.84363 0.0
C1137 C 0.33354 0.2262 0.83621 0.0
C1138 C 0.32291 0.24532 0.83412 0.0
C1139 C 0.30695 0.3442 0.73149 0.0
C1140 C 0.28498 0.31944 0.7177 0.0
C1141 C 0.31309 0.34335 0.76079 0.0
C1142 C 0.29734 0.3178 0.77678 0.0
C1143 C 0.27426 0.29365 0.76359 0.0
C1144 C 0.26805 0.29444 0.73429 0.0
C1145 C 0.30699 0.31555 0.80624 0.0
C1146 C 0.31659 0.29573 0.81079 0.0
C1147 C 0.30958 0.33462 0.82873 0.0
C1148 C 0.29805 0.3547 0.82585 0.0
C1149 C 0.26927 0.34435 0.81714 0.0
C1150 C 0.25825 0.36316 0.81527 0.0
C1151 C 0.27575 0.39236 0.8222 0.0
C1152 C 0.30431 0.40282 0.831 0.0
C1153 C 0.31546 0.38412 0.83286 0.0
H1154 H 0.26715 0.40687 0.82082 0.0
H1155 H 0.37063 0.22165 0.84524 0.0
H1156 H 0.94222 0.25416 0.27634 0.0
H1157 H 0.94635 0.25738 0.22361 0.0
H1158 H 0.03376 0.32854 0.23125 0.0
H1159 H 0.02947 0.326 0.28408 0.0
H1160 H 0.00429 0.34032 0.19245 0.0
H1161 H 0.0191 0.26018 0.21176 0.0
H1162 H 0.00714 0.21281 0.23221 0.0
H1163 H 0.92846 0.17192 0.18275 0.0
H1164 H 0.93979 0.21913 0.16228 0.0
H1165 H 0.05543 0.34521 0.05106 0.0
H1166 H 0.04697 0.33822 0.10312 0.0
H1167 H 0.95806 0.27357 0.08732 0.0
H1168 H 0.96659 0.28016 0.03482 0.0
H1169 H 0.98503 0.25722 0.12954 0.0
H1170 H 0.97179 0.33761 0.10861 0.0
H1171 H 0.9846 0.3851 0.08788 0.0
H1172 H 0.06123 0.42566 0.14044 0.0
H1173 H 0.0491 0.37832 0.16118 0.0
C1174 C 0.96234 0.27049 0.26682 0.0
C1175 C 0.98546 0.28993 0.28439 0.0
C1176 C 0.96473 0.27216 0.23666 0.0
C1177 C 0.99044 0.29306 0.22349 0.0
C1178 C 0.0137 0.31227 0.24098 0.0
C1179 C 0.01126 0.31071 0.27116 0.0
C1180 C 0.99285 0.2955 0.19148 0.0
C1181 C 0.00043 0.32223 0.17873 0.0
C1182 C 0.98694 0.27166 0.17354 0.0
C1183 C 0.98015 0.24323 0.18572 0.0
C1184 C -0.00086 0.24112 0.20542 0.0
C1185 C 0.99249 0.21429 0.21698 0.0
C1186 C 0.96702 0.18938 0.20884 0.0
C1187 C 0.94817 0.19124 0.18906 0.0
C1188 C 0.9547 0.21802 0.17745 0.0
C1189 C 0.03416 0.32928 0.0586 0.0
C1190 C 0.01175 0.31306 0.03889 0.0
C1191 C 0.02929 0.3255 0.08837 0.0
C1192 C 0.00185 0.30554 0.09902 0.0
C1193 C 0.97939 0.2891 0.07945 0.0
C1194 C 0.98425 0.29298 0.04955 0.0
C1195 C -0.00313 0.3021 0.13068 0.0
C1196 C 0.98874 0.27522 0.14331 0.0
C1197 C 0.00237 0.32581 0.14856 0.0
C1198 C 0.00965 0.35437 0.13627 0.0
C1199 C 0.99149 0.35662 0.11559 0.0
C1200 C -0.00139 0.38352 0.10386 0.0
C1201 C 0.02374 0.40837 0.11279 0.0
C1202 C 0.04178 0.40638 0.13352 0.0
C1203 C 0.03477 0.37953 0.1453 0.0
H1204 H 0.02922 0.42918 0.10369 0.0
H1205 H 0.96191 0.16863 0.21782 0.0
H1206 H 0.62493 0.92141 0.40808 0.0
H1207 H 0.63272 0.93143 0.4599 0.0
H1208 H 0.72027 0.94859 0.45139 0.0
H1209 H 0.71277 0.93861 0.39942 0.0
H1210 H 0.6913 0.92295 0.50735 0.0
H1211 H 0.71284 0.00193 0.44091 0.0
H1212 H 0.69908 0.0222 0.39996 0.0
H1213 H 0.62735 0.01484 0.44876 0.0
H1214 H 0.6402 0.9937 0.4898 0.0
H1215 H 0.75175 0.01661 0.62698 0.0
H1216 H 0.7449 -0.00091 0.57702 0.0
H1217 H 0.66335 -0.0026 0.57323 0.0
H1218 H 0.6704 0.01567 0.62277 0.0
H1219 H 0.69006 0.01433 0.52306 0.0
H1220 H 0.66932 0.93838 0.59088 0.0
H1221 H 0.68051 0.91557 0.63138 0.0
H1222 H 0.74688 0.91363 0.58068 0.0
H1223 H 0.73702 0.93776 0.54026 0.0
C1224 C 0.64556 0.92635 0.41731 0.0
C1225 C 0.66849 0.92997 0.3995 0.0
C1226 C 0.64993 0.93201 0.44696 0.0
C1227 C 0.67722 0.94129 0.4592 0.0
C1228 C 0.69909 0.94156 0.44221 0.0
C1229 C 0.69478 0.93597 0.41249 0.0
C1230 C 0.68436 0.95556 0.48784 0.0
C1231 C 0.69136 0.94306 0.51087 0.0
C1232 C 0.68399 0.98159 0.49224 0.0
C1233 C 0.67728 0.9959 0.46829 0.0
C1234 C 0.694 0.00442 0.44284 0.0
C1235 C 0.6863 0.01596 0.41956 0.0
C1236 C 0.66222 0.01958 0.42163 0.0
C1237 C 0.64591 0.01188 0.44712 0.0
C1238 C 0.65338 9e-05 0.4704 0.0
C1239 C 0.73262 0.01304 0.61532 0.0
C1240 C 0.71146 0.01723 0.62894 0.0
C1241 C 0.72866 0.00285 0.58683 0.0
C1242 C 0.70327 0.99624 0.57167 0.0
C1243 C 0.68301 0.00216 0.58459 0.0
C1244 C 0.68709 0.01262 0.61294 0.0
C1245 C 0.69695 0.98173 0.54303 0.0
C1246 C 0.69013 0.99425 0.51979 0.0
C1247 C 0.69727 0.95557 0.53861 0.0
C1248 C 0.70272 0.94034 0.56266 0.0
C1249 C 0.68651 0.93339 0.58843 0.0
C1250 C 0.69265 0.92023 0.61141 0.0
C1251 C 0.71446 0.91321 0.60865 0.0
C1252 C 0.73009 0.91922 0.58284 0.0
C1253 C 0.72433 0.93277 0.55993 0.0
H1254 H 0.71927 0.9031 0.62648 0.0
H1255 H 0.65636 0.0286 0.40359 0.0
H1256 H 0.64907 0.68699 0.94021 0.0
H1257 H 0.65556 0.68113 0.88874 0.0
H1258 H 0.72879 0.76762 0.88586 0.0
H1259 H 0.7227 0.77363 0.93758 0.0
H1260 H 0.69047 0.75261 0.83745 0.0
H1261 H 0.74371 0.71742 0.89014 0.0
H1262 H 0.75195 0.68874 0.9269 0.0
H1263 H 0.68611 0.6103 0.88785 0.0
H1264 H 0.67719 0.63854 0.85106 0.0
H1265 H 0.74874 0.7383 0.70503 0.0
H1266 H 0.74497 0.74585 0.7567 0.0
H1267 H 0.67247 0.65925 0.76399 0.0
H1268 H 0.67597 0.65146 0.7122 0.0
H1269 H 0.71221 0.6755 0.81042 0.0
H1270 H 0.65827 0.71162 0.75858 0.0
H1271 H 0.65125 0.74093 0.72156 0.0
H1272 H 0.72025 0.81838 0.75895 0.0
H1273 H 0.7278 0.78955 0.79609 0.0
C1274 C 0.66629 0.70496 0.92858 0.0
C1275 C 0.68549 0.73074 0.94299 0.0
C1276 C 0.67005 0.70149 0.89922 0.0
C1277 C 0.69287 0.72381 0.88372 0.0
C1278 C 0.71114 0.75013 0.89758 0.0
C1279 C 0.70762 0.75351 0.92708 0.0
C1280 C 0.69821 0.71915 0.85331 0.0
C1281 C 0.69561 0.73603 0.83154 0.0
C1282 C 0.70452 0.69722 0.84572 0.0
C1283 C 0.70955 0.68012 0.86802 0.0
C1284 C 0.73076 0.69407 0.88957 0.0
C1285 C 0.73562 0.67789 0.91037 0.0
C1286 C 0.71952 0.64772 0.90975 0.0
C1287 C 0.69854 0.63367 0.88832 0.0
C1288 C 0.69359 0.64975 0.86747 0.0
C1289 C 0.73223 0.72069 0.71765 0.0
C1290 C 0.71252 0.69433 0.70448 0.0
C1291 C 0.73005 0.72511 0.74715 0.0
C1292 C 0.70822 0.70323 0.76399 0.0
C1293 C 0.6894 0.67641 0.75127 0.0
C1294 C 0.69141 0.67203 0.72169 0.0
C1295 C 0.70424 0.70881 0.79455 0.0
C1296 C 0.70712 0.6921 0.81635 0.0
C1297 C 0.69832 0.73098 0.80219 0.0
C1298 C 0.69375 0.74841 0.77996 0.0
C1299 C 0.67207 0.7349 0.75879 0.0
C1300 C 0.66794 0.75144 0.73783 0.0
C1301 C 0.68527 0.78152 0.73793 0.0
C1302 C 0.70678 0.79511 0.75896 0.0
C1303 C 0.71096 0.77869 0.77999 0.0
H1304 H 0.68195 0.79426 0.72177 0.0
H1305 H 0.72337 0.63524 0.92583 0.0
H1306 H 0.01748 0.65503 0.25751 0.0
H1307 H 0.02154 0.66974 0.20689 0.0
H1308 H 0.95811 0.69599 0.22075 0.0
H1309 H 0.95367 0.68102 0.2716 0.0
H1310 H 0.94819 0.6664 0.17094 0.0
H1311 H 0.02854 0.74719 0.21457 0.0
H1312 H 0.07237 0.77353 0.24454 0.0
H1313 H 0.11655 0.74216 0.19107 0.0
H1314 H 0.07287 0.7154 0.16089 0.0
H1315 H 0.97612 0.7293 0.03074 0.0
H1316 H 0.97506 0.72804 0.08375 0.0
H1317 H 0.03126 0.6917 0.084 0.0
H1318 H 0.03255 0.69295 0.03104 0.0
H1319 H 0.04424 0.73261 0.12789 0.0
H1320 H 0.96042 0.64786 0.08766 0.0
H1321 H 0.91645 0.62343 0.05747 0.0
H1322 H 0.8788 0.66533 0.10526 0.0
H1323 H 0.92267 0.69026 0.13551 0.0
C1324 C 0.00425 0.66378 0.24983 0.0
C1325 C 0.98529 0.66692 0.26862 0.0
C1326 C 0.00679 0.67242 0.22092 0.0
C1327 C 0.99055 0.68448 0.21022 0.0
C1328 C 0.971 0.68693 0.22866 0.0
C1329 C 0.96845 0.67831 0.25767 0.0
C1330 C 0.99366 0.69386 0.17954 0.0
C1331 C 0.96911 0.68133 0.16167 0.0
C1332 C 0.021 0.71319 0.16739 0.0
C1333 C 0.04731 0.72907 0.18561 0.0
C1334 C 0.04752 0.7457 0.20934 0.0
C1335 C 0.07238 0.76077 0.22634 0.0
C1336 C 0.09721 0.75943 0.21978 0.0
C1337 C 0.09728 0.74313 0.19614 0.0
C1338 C 0.07249 0.72806 0.17905 0.0
C1339 C 0.98869 0.72154 0.04207 0.0
C1340 C 0.00419 0.71094 0.0267 0.0
C1341 C 0.98798 0.72075 0.07234 0.0
C1342 C 0.00276 0.70941 0.0877 0.0
C1343 C 0.01965 0.70047 0.0725 0.0
C1344 C 0.02028 0.70111 0.04224 0.0
C1345 C -0.00109 0.70466 0.11936 0.0
C1346 C 0.02331 0.71804 0.13736 0.0
C1347 C 0.9714 0.68634 0.13168 0.0
C1348 C 0.94492 0.67112 0.11367 0.0
C1349 C 0.94283 0.652 0.0916 0.0
C1350 C 0.91791 0.63804 0.0745 0.0
C1351 C 0.89483 0.64282 0.07945 0.0
C1352 C 0.89665 0.66161 0.10147 0.0
C1353 C 0.92153 0.67565 0.11861 0.0
H1354 H 0.8755 0.63187 0.06633 0.0
H1355 H 0.11642 0.77101 0.23298 0.0
loop_
_geom_bond_atom_site_label_1
_geom_bond_atom_site_label_2
_geom_bond_distance
_geom_bond_site_symmetry_2
_ccdc_geom_bond_type
C0 O1 1.160 . S
C0 O7 1.185 . S
O1 C0 1.160 . S
O2 Zn3 1.899 1_565 S
O2 C10 1.284 . S
Zn3 O2 1.899 1_545 S
Zn3 O4 2.032 . S
Zn3 O7 2.086 . S
Zn3 O12 1.977 . S
O4 Zn3 2.032 . S
O4 C8 1.278 1_545 S
C5 O6 1.203 1_545 S
C5 O12 1.267 . S
O6 C5 1.203 1_565 S
O7 C0 1.185 . S
O7 Zn3 2.086 . S
C8 O4 1.278 1_565 S
C8 O9 1.211 . S
O9 C8 1.211 . S
C10 O2 1.284 . S
C10 O11 1.273 . S
O11 C10 1.273 . S
O12 Zn3 1.977 . S
O12 C5 1.267 . S
C13 O14 1.160 . S
C13 O20 1.185 . S
O14 C13 1.160 . S
O15 Zn16 1.899 . S
O15 C23 1.284 . S
Zn16 O15 1.899 . S
Zn16 O17 2.032 . S
Zn16 O20 2.086 . S
Zn16 O25 1.977 . S
O17 Zn16 2.032 . S
O17 C21 1.278 . S
C18 O19 1.203 . S
C18 O25 1.267 . S
O19 C18 1.203 . S
O20 C13 1.185 . S
O20 Zn16 2.086 . S
C21 O17 1.278 . S
C21 O22 1.211 . S
O22 C21 1.211 . S
C23 O15 1.284 . S
C23 O24 1.273 . S
O24 C23 1.273 . S
O25 Zn16 1.977 . S
O25 C18 1.267 . S
C26 O27 1.160 . S
C26 O33 1.185 . S
O27 C26 1.160 . S
O28 Zn29 1.899 1_455 S
O28 C36 1.284 . S
Zn29 O28 1.899 1_655 S
Zn29 O30 2.032 . S
Zn29 O33 2.086 . S
Zn29 O38 1.977 1_556 S
O30 Zn29 2.032 . S
O30 C34 1.278 1_655 S
C31 O32 1.203 1_655 S
C31 O38 1.267 . S
O32 C31 1.203 1_455 S
O33 C26 1.185 . S
O33 Zn29 2.086 . S
C34 O30 1.278 1_455 S
C34 O35 1.211 . S
O35 C34 1.211 . S
C36 O28 1.284 . S
C36 O37 1.273 . S
O37 C36 1.273 . S
O38 Zn29 1.977 1_554 S
O38 C31 1.267 . S
C39 O40 1.160 . S
C39 O46 1.185 . S
O40 C39 1.160 . S
O41 Zn42 1.899 1_545 S
O41 C49 1.284 . S
Zn42 O41 1.899 1_565 S
Zn42 O43 2.032 . S
Zn42 O46 2.086 . S
Zn42 O51 1.977 . S
O43 Zn42 2.032 . S
O43 C47 1.278 1_565 S
C44 O45 1.203 1_565 S
C44 O51 1.267 . S
O45 C44 1.203 1_545 S
O46 C39 1.185 . S
O46 Zn42 2.086 . S
C47 O43 1.278 1_545 S
C47 O48 1.211 . S
O48 C47 1.211 . S
C49 O41 1.284 . S
C49 O50 1.273 . S
O50 C49 1.273 . S
O51 Zn42 1.977 . S
O51 C44 1.267 . S
C52 O53 1.160 . S
C52 O59 1.185 . S
O53 C52 1.160 . S
O54 Zn55 1.899 . S
O54 C62 1.284 . S
Zn55 O54 1.899 . S
Zn55 O56 2.032 . S
Zn55 O59 2.086 . S
Zn55 O64 1.977 . S
O56 Zn55 2.032 . S
O56 C60 1.278 . S
C57 O58 1.203 . S
C57 O64 1.267 . S
O58 C57 1.203 . S
O59 C52 1.185 . S
O59 Zn55 2.086 . S
C60 O56 1.278 . S
C60 O61 1.211 . S
O61 C60 1.211 . S
C62 O54 1.284 . S
C62 O63 1.273 . S
O63 C62 1.273 . S
O64 Zn55 1.977 . S
O64 C57 1.267 . S
C65 O66 1.160 . S
C65 O72 1.185 . S
O66 C65 1.160 . S
O67 Zn68 1.899 1_655 S
O67 C75 1.284 . S
Zn68 O67 1.899 1_455 S
Zn68 O69 2.032 . S
Zn68 O72 2.086 . S
Zn68 O77 1.977 1_556 S
O69 Zn68 2.032 . S
O69 C73 1.278 1_455 S
C70 O71 1.203 1_455 S
C70 O77 1.267 . S
O71 C70 1.203 1_655 S
O72 C65 1.185 . S
O72 Zn68 2.086 . S
C73 O69 1.278 1_655 S
C73 O74 1.211 . S
O74 C73 1.211 . S
C75 O67 1.284 . S
C75 O76 1.273 . S
O76 C75 1.273 . S
O77 Zn68 1.977 1_554 S
O77 C70 1.267 . S
C78 O79 1.160 . S
C78 O85 1.185 . S
O79 C78 1.160 . S
O80 Zn81 1.899 1_455 S
O80 C88 1.284 . S
Zn81 O80 1.899 1_655 S
Zn81 O82 2.032 . S
Zn81 O85 2.086 . S
Zn81 O90 1.977 . S
O82 Zn81 2.032 . S
O82 C86 1.278 1_655 S
C83 O84 1.203 1_655 S
C83 O90 1.267 . S
O84 C83 1.203 1_455 S
O85 C78 1.185 . S
O85 Zn81 2.086 . S
C86 O82 1.278 1_455 S
C86 O87 1.211 . S
O87 C86 1.211 . S
C88 O80 1.284 . S
C88 O89 1.273 . S
O89 C88 1.273 . S
O90 Zn81 1.977 . S
O90 C83 1.267 . S
C91 O92 1.160 . S
C91 O98 1.185 . S
O92 C91 1.160 . S
O93 Zn94 1.899 1_545 S
O93 C101 1.284 . S
Zn94 O93 1.899 1_565 S
Zn94 O95 2.032 . S
Zn94 O98 2.086 . S
Zn94 O103 1.977 . S
O95 Zn94 2.032 . S
O95 C99 1.278 1_565 S
C96 O97 1.203 1_565 S
C96 O103 1.267 . S
O97 C96 1.203 1_545 S
O98 C91 1.185 . S
O98 Zn94 2.086 . S
C99 O95 1.278 1_545 S
C99 O100 1.211 . S
O100 C99 1.211 . S
C101 O93 1.284 . S
C101 O102 1.273 . S
O102 C101 1.273 . S
O103 Zn94 1.977 . S
O103 C96 1.267 . S
C104 O105 1.160 . S
C104 O111 1.185 . S
O105 C104 1.160 . S
O106 Zn107 1.899 . S
O106 C114 1.284 . S
Zn107 O106 1.899 . S
Zn107 O108 2.032 . S
Zn107 O111 2.086 . S
Zn107 O116 1.977 1_554 S
O108 Zn107 2.032 . S
O108 C112 1.278 . S
C109 O110 1.203 . S
C109 O116 1.267 . S
O110 C109 1.203 . S
O111 C104 1.185 . S
O111 Zn107 2.086 . S
C112 O108 1.278 . S
C112 O113 1.211 . S
O113 C112 1.211 . S
C114 O106 1.284 . S
C114 O115 1.273 . S
O115 C114 1.273 . S
O116 Zn107 1.977 1_556 S
O116 C109 1.267 . S
C117 O118 1.160 . S
C117 O124 1.185 . S
O118 C117 1.160 . S
O119 Zn120 1.899 1_655 S
O119 C127 1.284 . S
Zn120 O119 1.899 1_455 S
Zn120 O121 2.032 . S
Zn120 O124 2.086 . S
Zn120 O129 1.977 . S
O121 Zn120 2.032 . S
O121 C125 1.278 1_455 S
C122 O123 1.203 1_455 S
C122 O129 1.267 . S
O123 C122 1.203 1_655 S
O124 C117 1.185 . S
O124 Zn120 2.086 . S
C125 O121 1.278 1_655 S
C125 O126 1.211 . S
O126 C125 1.211 . S
C127 O119 1.284 . S
C127 O128 1.273 . S
O128 C127 1.273 . S
O129 Zn120 1.977 . S
O129 C122 1.267 . S
C130 O131 1.160 . S
C130 O137 1.185 . S
O131 C130 1.160 . S
O132 Zn133 1.899 1_565 S
O132 C140 1.284 . S
Zn133 O132 1.899 1_545 S
Zn133 O134 2.032 . S
Zn133 O137 2.086 . S
Zn133 O142 1.977 . S
O134 Zn133 2.032 . S
O134 C138 1.278 1_545 S
C135 O136 1.203 1_545 S
C135 O142 1.267 . S
O136 C135 1.203 1_565 S
O137 C130 1.185 . S
O137 Zn133 2.086 . S
C138 O134 1.278 1_565 S
C138 O139 1.211 . S
O139 C138 1.211 . S
C140 O132 1.284 . S
C140 O141 1.273 . S
O141 C140 1.273 . S
O142 Zn133 1.977 . S
O142 C135 1.267 . S
C143 O144 1.160 . S
C143 O150 1.185 . S
O144 C143 1.160 . S
O145 Zn146 1.899 . S
O145 C153 1.284 . S
Zn146 O145 1.899 . S
Zn146 O147 2.032 . S
Zn146 O150 2.086 . S
Zn146 O155 1.977 1_554 S
O147 Zn146 2.032 . S
O147 C151 1.278 . S
C148 O149 1.203 . S
C148 O155 1.267 . S
O149 C148 1.203 . S
O150 C143 1.185 . S
O150 Zn146 2.086 . S
C151 O147 1.278 . S
C151 O152 1.211 . S
O152 C151 1.211 . S
C153 O145 1.284 . S
C153 O154 1.273 . S
O154 C153 1.273 . S
O155 Zn146 1.977 1_556 S
O155 C148 1.267 . S
H156 C174 0.951 . S
H157 C176 0.951 . S
H158 C178 0.950 . S
H159 C179 0.950 . S
H160 C181 0.950 . S
H161 C184 0.950 . S
H162 C185 0.950 . S
H163 C187 0.950 . S
H164 C188 0.950 . S
H165 C189 0.951 . S
H166 C191 0.951 . S
H167 C193 0.950 . S
H168 C194 0.950 . S
H169 C196 0.950 . S
H170 C199 0.950 . S
H171 C200 0.950 . S
H172 C202 0.950 . S
H173 C203 0.950 . S
C174 H156 0.951 . S
C174 C175 1.366 . S
C174 C176 1.388 . S
C175 C174 1.366 . S
C175 C179 1.385 . S
C176 H157 0.951 . S
C176 C174 1.388 . S
C176 C177 1.366 . S
C177 C176 1.366 . S
C177 C178 1.414 . S
C177 C180 1.499 . S
C178 H158 0.950 . S
C178 C177 1.414 . S
C178 C179 1.374 . S
C179 H159 0.950 . S
C179 C175 1.385 . S
C179 C178 1.374 . S
C180 C177 1.499 . S
C180 C181 1.373 . S
C180 C182 1.389 . S
C181 H160 0.950 . S
C181 C180 1.373 . S
C181 C197 1.377 . S
C182 C180 1.389 . S
C182 C183 1.524 . S
C182 C196 1.377 . S
C183 C182 1.524 . S
C183 C184 1.397 . S
C183 C188 1.363 . S
C184 H161 0.950 . S
C184 C183 1.397 . S
C184 C185 1.334 . S
C185 H162 0.950 . S
C185 C184 1.334 . S
C185 C186 1.287 . S
C186 C185 1.287 . S
C186 C187 1.524 . S
C186 H205 0.913 . S
C187 H163 0.950 . S
C187 C186 1.524 . S
C187 C188 1.415 . S
C188 H164 0.950 . S
C188 C183 1.363 . S
C188 C187 1.415 . S
C189 H165 0.951 . S
C189 C190 1.366 . S
C189 C191 1.388 . S
C190 C189 1.366 . S
C190 C194 1.385 . S
C191 H166 0.951 . S
C191 C189 1.388 . S
C191 C192 1.366 . S
C192 C191 1.366 . S
C192 C193 1.414 . S
C192 C195 1.499 . S
C193 H167 0.950 . S
C193 C192 1.414 . S
C193 C194 1.374 . S
C194 H168 0.950 . S
C194 C190 1.385 . S
C194 C193 1.374 . S
C195 C192 1.499 . S
C195 C196 1.373 . S
C195 C197 1.389 . S
C196 H169 0.950 . S
C196 C182 1.377 . S
C196 C195 1.373 . S
C197 C181 1.377 . S
C197 C195 1.389 . S
C197 C198 1.524 . S
C198 C197 1.524 . S
C198 C199 1.397 . S
C198 C203 1.363 . S
C199 H170 0.950 . S
C199 C198 1.397 . S
C199 C200 1.334 . S
C200 H171 0.950 . S
C200 C199 1.334 . S
C200 C201 1.287 . S
C201 C200 1.287 . S
C201 C202 1.524 . S
C201 H204 0.999 . S
C202 H172 0.950 . S
C202 C201 1.524 . S
C202 C203 1.415 . S
C203 H173 0.950 . S
C203 C198 1.363 . S
C203 C202 1.415 . S
H204 C201 0.999 . S
H205 C186 0.913 . S
H206 C224 0.951 . S
H207 C226 0.951 . S
H208 C228 0.950 . S
H209 C229 0.950 . S
H210 C231 0.950 . S
H211 C234 0.950 . S
H212 C235 0.950 . S
H213 C237 0.950 . S
H214 C238 0.950 . S
H215 C239 0.951 . S
H216 C241 0.951 . S
H217 C243 0.950 . S
H218 C244 0.950 . S
H219 C246 0.950 . S
H220 C249 0.950 . S
H221 C250 0.950 . S
H222 C252 0.950 . S
H223 C253 0.950 . S
C224 H206 0.951 . S
C224 C225 1.366 . S
C224 C226 1.388 . S
C225 C224 1.366 . S
C225 C229 1.385 . S
C226 H207 0.951 . S
C226 C224 1.388 . S
C226 C227 1.366 . S
C227 C226 1.366 . S
C227 C228 1.414 . S
C227 C230 1.499 . S
C228 H208 0.950 . S
C228 C227 1.414 . S
C228 C229 1.374 . S
C229 H209 0.950 . S
C229 C225 1.385 . S
C229 C228 1.374 . S
C230 C227 1.499 . S
C230 C231 1.373 . S
C230 C232 1.389 . S
C231 H210 0.950 . S
C231 C230 1.373 . S
C231 C247 1.377 . S
C232 C230 1.389 . S
C232 C233 1.524 . S
C232 C246 1.377 . S
C233 C232 1.524 . S
C233 C234 1.397 . S
C233 C238 1.363 . S
C234 H211 0.950 . S
C234 C233 1.397 . S
C234 C235 1.334 . S
C235 H212 0.950 . S
C235 C234 1.334 . S
C235 C236 1.287 . S
C236 C235 1.287 . S
C236 C237 1.524 . S
C236 H255 0.913 . S
C237 H213 0.950 . S
C237 C236 1.524 . S
C237 C238 1.415 . S
C238 H214 0.950 . S
C238 C233 1.363 . S
C238 C237 1.415 . S
C239 H215 0.951 . S
C239 C240 1.366 . S
C239 C241 1.388 . S
C240 C239 1.366 . S
C240 C244 1.385 . S
C241 H216 0.951 . S
C241 C239 1.388 . S
C241 C242 1.366 . S
C242 C241 1.366 . S
C242 C243 1.414 . S
C242 C245 1.499 . S
C243 H217 0.950 . S
C243 C242 1.414 . S
C243 C244 1.374 . S
C244 H218 0.950 . S
C244 C240 1.385 . S
C244 C243 1.374 . S
C245 C242 1.499 . S
C245 C246 1.373 . S
C245 C247 1.389 . S
C246 H219 0.950 . S
C246 C232 1.377 . S
C246 C245 1.373 . S
C247 C231 1.377 . S
C247 C245 1.389 . S
C247 C248 1.524 . S
C248 C247 1.524 . S
C248 C249 1.397 . S
C248 C253 1.363 . S
C249 H220 0.950 . S
C249 C248 1.397 . S
C249 C250 1.334 . S
C250 H221 0.950 . S
C250 C249 1.334 . S
C250 C251 1.287 . S
C251 C250 1.287 . S
C251 C252 1.524 . S
C251 H254 0.999 . S
C252 H222 0.950 . S
C252 C251 1.524 . S
C252 C253 1.415 . S
C253 H223 0.950 . S
C253 C248 1.363 . S
C253 C252 1.415 . S
H254 C251 0.999 . S
H255 C236 0.913 . S
H256 C274 0.951 . S
H257 C276 0.951 . S
H258 C278 0.950 . S
H259 C279 0.950 . S
H260 C281 0.950 . S
H261 C284 0.950 . S
H262 C285 0.950 . S
H263 C287 0.950 . S
H264 C288 0.950 . S
H265 C289 0.951 . S
H266 C291 0.951 . S
H267 C293 0.950 . S
H268 C294 0.950 . S
H269 C296 0.950 . S
H270 C299 0.950 . S
H271 C300 0.950 . S
H272 C302 0.950 . S
H273 C303 0.950 . S
C274 H256 0.951 . S
C274 C275 1.366 . S
C274 C276 1.388 . S
C275 C274 1.366 . S
C275 C279 1.385 . S
C276 H257 0.951 . S
C276 C274 1.388 . S
C276 C277 1.366 . S
C277 C276 1.366 . S
C277 C278 1.414 . S
C277 C280 1.499 . S
C278 H258 0.950 . S
C278 C277 1.414 . S
C278 C279 1.374 . S
C279 H259 0.950 . S
C279 C275 1.385 . S
C279 C278 1.374 . S
C280 C277 1.499 . S
C280 C281 1.373 . S
C280 C282 1.389 . S
C281 H260 0.950 . S
C281 C280 1.373 . S
C281 C297 1.377 . S
C282 C280 1.389 . S
C282 C283 1.524 . S
C282 C296 1.377 . S
C283 C282 1.524 . S
C283 C284 1.397 . S
C283 C288 1.363 . S
C284 H261 0.950 . S
C284 C283 1.397 . S
C284 C285 1.334 . S
C285 H262 0.950 . S
C285 C284 1.334 . S
C285 C286 1.287 . S
C286 C285 1.287 . S
C286 C287 1.524 . S
C286 H305 0.913 . S
C287 H263 0.950 . S
C287 C286 1.524 . S
C287 C288 1.415 . S
C288 H264 0.950 . S
C288 C283 1.363 . S
C288 C287 1.415 . S
C289 H265 0.951 . S
C289 C290 1.366 . S
C289 C291 1.388 . S
C290 C289 1.366 . S
C290 C294 1.385 . S
C291 H266 0.951 . S
C291 C289 1.388 . S
C291 C292 1.366 . S
C292 C291 1.366 . S
C292 C293 1.414 . S
C292 C295 1.499 . S
C293 H267 0.950 . S
C293 C292 1.414 . S
C293 C294 1.374 . S
C294 H268 0.950 . S
C294 C290 1.385 . S
C294 C293 1.374 . S
C295 C292 1.499 . S
C295 C296 1.373 . S
C295 C297 1.389 . S
C296 H269 0.950 . S
C296 C282 1.377 . S
C296 C295 1.373 . S
C297 C281 1.377 . S
C297 C295 1.389 . S
C297 C298 1.524 . S
C298 C297 1.524 . S
C298 C299 1.397 . S
C298 C303 1.363 . S
C299 H270 0.950 . S
C299 C298 1.397 . S
C299 C300 1.334 . S
C300 H271 0.950 . S
C300 C299 1.334 . S
C300 C301 1.287 . S
C301 C300 1.287 . S
C301 C302 1.524 . S
C301 H304 0.999 . S
C302 H272 0.950 . S
C302 C301 1.524 . S
C302 C303 1.415 . S
C303 H273 0.950 . S
C303 C298 1.363 . S
C303 C302 1.415 . S
H304 C301 0.999 . S
H305 C286 0.913 . S
H306 C324 0.951 . S
H307 C326 0.951 . S
H308 C328 0.950 . S
H309 C329 0.950 . S
H310 C331 0.950 . S
H311 C334 0.950 . S
H312 C335 0.950 . S
H313 C337 0.950 . S
H314 C338 0.950 . S
H315 C339 0.951 . S
H316 C341 0.951 . S
H317 C343 0.950 . S
H318 C344 0.950 . S
H319 C346 0.950 . S
H320 C349 0.950 . S
H321 C350 0.950 . S
H322 C352 0.950 . S
H323 C353 0.950 . S
C324 H306 0.951 . S
C324 C325 1.366 . S
C324 C326 1.388 . S
C325 C324 1.366 . S
C325 C329 1.385 . S
C326 H307 0.951 . S
C326 C324 1.388 . S
C326 C327 1.366 . S
C327 C326 1.366 . S
C327 C328 1.414 . S
C327 C330 1.499 . S
C328 H308 0.950 . S
C328 C327 1.414 . S
C328 C329 1.374 . S
C329 H309 0.950 . S
C329 C325 1.385 . S
C329 C328 1.374 . S
C330 C327 1.499 . S
C330 C331 1.373 . S
C330 C332 1.389 . S
C331 H310 0.950 . S
C331 C330 1.373 . S
C331 C347 1.377 . S
C332 C330 1.389 . S
C332 C333 1.524 . S
C332 C346 1.377 . S
C333 C332 1.524 . S
C333 C334 1.397 . S
C333 C338 1.363 . S
C334 H311 0.950 . S
C334 C333 1.397 . S
C334 C335 1.334 . S
C335 H312 0.950 . S
C335 C334 1.334 . S
C335 C336 1.287 . S
C336 C335 1.287 . S
C336 C337 1.524 . S
C336 H355 0.913 . S
C337 H313 0.950 . S
C337 C336 1.524 . S
C337 C338 1.415 . S
C338 H314 0.950 . S
C338 C333 1.363 . S
C338 C337 1.415 . S
C339 H315 0.951 . S
C339 C340 1.366 . S
C339 C341 1.388 . S
C340 C339 1.366 . S
C340 C344 1.385 . S
C341 H316 0.951 . S
C341 C339 1.388 . S
C341 C342 1.366 . S
C342 C341 1.366 . S
C342 C343 1.414 . S
C342 C345 1.499 . S
C343 H317 0.950 . S
C343 C342 1.414 . S
C343 C344 1.374 . S
C344 H318 0.950 . S
C344 C340 1.385 . S
C344 C343 1.374 . S
C345 C342 1.499 . S
C345 C346 1.373 . S
C345 C347 1.389 . S
C346 H319 0.950 . S
C346 C332 1.377 . S
C346 C345 1.373 . S
C347 C331 1.377 . S
C347 C345 1.389 . S
C347 C348 1.524 . S
C348 C347 1.524 . S
C348 C349 1.397 . S
C348 C353 1.363 . S
C349 H320 0.950 . S
C349 C348 1.397 . S
C349 C350 1.334 . S
C350 H321 0.950 . S
C350 C349 1.334 . S
C350 C351 1.287 . S
C351 C350 1.287 . S
C351 C352 1.524 . S
C351 H354 0.999 . S
C352 H322 0.950 . S
C352 C351 1.524 . S
C352 C353 1.415 . S
C353 H323 0.950 . S
C353 C348 1.363 . S
C353 C352 1.415 . S
H354 C351 0.999 . S
H355 C336 0.913 . S
H356 C374 0.951 . S
H357 C376 0.951 . S
H358 C378 0.950 . S
H359 C379 0.950 . S
H360 C381 0.950 . S
H361 C384 0.950 . S
H362 C385 0.950 . S
H363 C387 0.950 . S
H364 C388 0.950 . S
H365 C389 0.951 . S
H366 C391 0.951 . S
H367 C393 0.950 . S
H368 C394 0.950 . S
H369 C396 0.950 . S
H370 C399 0.950 . S
H371 C400 0.950 . S
H372 C402 0.950 . S
H373 C403 0.950 . S
C374 H356 0.951 . S
C374 C375 1.366 . S
C374 C376 1.388 . S
C375 C374 1.366 . S
C375 C379 1.385 . S
C376 H357 0.951 . S
C376 C374 1.388 . S
C376 C377 1.366 . S
C377 C376 1.366 . S
C377 C378 1.414 . S
C377 C380 1.499 . S
C378 H358 0.950 . S
C378 C377 1.414 . S
C378 C379 1.374 . S
C379 H359 0.950 . S
C379 C375 1.385 . S
C379 C378 1.374 . S
C380 C377 1.499 . S
C380 C381 1.373 . S
C380 C382 1.389 . S
C381 H360 0.950 . S
C381 C380 1.373 . S
C381 C397 1.377 . S
C382 C380 1.389 . S
C382 C383 1.524 . S
C382 C396 1.377 . S
C383 C382 1.524 . S
C383 C384 1.397 . S
C383 C388 1.363 . S
C384 H361 0.950 . S
C384 C383 1.397 . S
C384 C385 1.334 . S
C385 H362 0.950 . S
C385 C384 1.334 . S
C385 C386 1.287 . S
C386 C385 1.287 . S
C386 C387 1.524 . S
C386 H405 0.913 . S
C387 H363 0.950 . S
C387 C386 1.524 . S
C387 C388 1.415 . S
C388 H364 0.950 . S
C388 C383 1.363 . S
C388 C387 1.415 . S
C389 H365 0.951 . S
C389 C390 1.366 . S
C389 C391 1.388 . S
C390 C389 1.366 . S
C390 C394 1.385 . S
C391 H366 0.951 . S
C391 C389 1.388 . S
C391 C392 1.366 . S
C392 C391 1.366 . S
C392 C393 1.414 . S
C392 C395 1.499 . S
C393 H367 0.950 . S
C393 C392 1.414 . S
C393 C394 1.374 . S
C394 H368 0.950 . S
C394 C390 1.385 . S
C394 C393 1.374 . S
C395 C392 1.499 . S
C395 C396 1.373 . S
C395 C397 1.389 . S
C396 H369 0.950 . S
C396 C382 1.377 . S
C396 C395 1.373 . S
C397 C381 1.377 . S
C397 C395 1.389 . S
C397 C398 1.524 . S
C398 C397 1.524 . S
C398 C399 1.397 . S
C398 C403 1.363 . S
C399 H370 0.950 . S
C399 C398 1.397 . S
C399 C400 1.334 . S
C400 H371 0.950 . S
C400 C399 1.334 . S
C400 C401 1.287 . S
C401 C400 1.287 . S
C401 C402 1.524 . S
C401 H404 0.999 . S
C402 H372 0.950 . S
C402 C401 1.524 . S
C402 C403 1.415 . S
C403 H373 0.950 . S
C403 C398 1.363 . S
C403 C402 1.415 . S
H404 C401 0.999 . S
H405 C386 0.913 . S
H406 C424 0.951 . S
H407 C426 0.951 . S
H408 C428 0.950 . S
H409 C429 0.950 . S
H410 C431 0.950 . S
H411 C434 0.950 . S
H412 C435 0.950 . S
H413 C437 0.950 . S
H414 C438 0.950 . S
H415 C439 0.951 . S
H416 C441 0.951 . S
H417 C443 0.950 . S
H418 C444 0.950 . S
H419 C446 0.950 . S
H420 C449 0.950 . S
H421 C450 0.950 . S
H422 C452 0.950 . S
H423 C453 0.950 . S
C424 H406 0.951 . S
C424 C425 1.366 . S
C424 C426 1.388 . S
C425 C424 1.366 . S
C425 C429 1.385 . S
C426 H407 0.951 . S
C426 C424 1.388 . S
C426 C427 1.366 . S
C427 C426 1.366 . S
C427 C428 1.414 . S
C427 C430 1.499 . S
C428 H408 0.950 . S
C428 C427 1.414 . S
C428 C429 1.374 . S
C429 H409 0.950 . S
C429 C425 1.385 . S
C429 C428 1.374 . S
C430 C427 1.499 . S
C430 C431 1.373 . S
C430 C432 1.389 . S
C431 H410 0.950 . S
C431 C430 1.373 . S
C431 C447 1.377 . S
C432 C430 1.389 . S
C432 C433 1.524 . S
C432 C446 1.377 . S
C433 C432 1.524 . S
C433 C434 1.397 . S
C433 C438 1.363 . S
C434 H411 0.950 . S
C434 C433 1.397 . S
C434 C435 1.334 . S
C435 H412 0.950 . S
C435 C434 1.334 . S
C435 C436 1.287 . S
C436 C435 1.287 . S
C436 C437 1.524 . S
C436 H455 0.913 . S
C437 H413 0.950 . S
C437 C436 1.524 . S
C437 C438 1.415 . S
C438 H414 0.950 . S
C438 C433 1.363 . S
C438 C437 1.415 . S
C439 H415 0.951 . S
C439 C440 1.366 . S
C439 C441 1.388 . S
C440 C439 1.366 . S
C440 C444 1.385 . S
C441 H416 0.951 . S
C441 C439 1.388 . S
C441 C442 1.366 . S
C442 C441 1.366 . S
C442 C443 1.414 . S
C442 C445 1.499 . S
C443 H417 0.950 . S
C443 C442 1.414 . S
C443 C444 1.374 . S
C444 H418 0.950 . S
C444 C440 1.385 . S
C444 C443 1.374 . S
C445 C442 1.499 . S
C445 C446 1.373 . S
C445 C447 1.389 . S
C446 H419 0.950 . S
C446 C432 1.377 . S
C446 C445 1.373 . S
C447 C431 1.377 . S
C447 C445 1.389 . S
C447 C448 1.524 . S
C448 C447 1.524 . S
C448 C449 1.397 . S
C448 C453 1.363 . S
C449 H420 0.950 . S
C449 C448 1.397 . S
C449 C450 1.334 . S
C450 H421 0.950 . S
C450 C449 1.334 . S
C450 C451 1.287 . S
C451 C450 1.287 . S
C451 C452 1.524 . S
C451 H454 0.999 . S
C452 H422 0.950 . S
C452 C451 1.524 . S
C452 C453 1.415 . S
C453 H423 0.950 . S
C453 C448 1.363 . S
C453 C452 1.415 . S
H454 C451 0.999 . S
H455 C436 0.913 . S
H456 C474 0.951 . S
H457 C476 0.951 . S
H458 C478 0.950 . S
H459 C479 0.950 . S
H460 C481 0.950 . S
H461 C484 0.950 . S
H462 C485 0.950 . S
H463 C487 0.950 . S
H464 C488 0.950 . S
H465 C489 0.951 . S
H466 C491 0.951 . S
H467 C493 0.950 . S
H468 C494 0.950 . S
H469 C496 0.950 . S
H470 C499 0.950 . S
H471 C500 0.950 . S
H472 C502 0.950 . S
H473 C503 0.950 . S
C474 H456 0.951 . S
C474 C475 1.366 . S
C474 C476 1.388 . S
C475 C474 1.366 . S
C475 C479 1.385 1_565 S
C476 H457 0.951 . S
C476 C474 1.388 . S
C476 C477 1.366 . S
C477 C476 1.366 . S
C477 C478 1.414 1_565 S
C477 C480 1.487 . S
C478 H458 0.950 . S
C478 C477 1.414 1_545 S
C478 C479 1.374 . S
C479 H459 0.950 . S
C479 C475 1.385 1_545 S
C479 C478 1.374 . S
C480 C477 1.487 . S
C480 C481 1.361 1_565 S
C480 C482 1.414 . S
C481 H460 0.950 . S
C481 C480 1.361 1_545 S
C481 C497 1.377 . S
C482 C480 1.414 . S
C482 C483 1.524 . S
C482 C496 1.377 . S
C483 C482 1.524 . S
C483 C484 1.397 . S
C483 C488 1.363 . S
C484 H461 0.950 . S
C484 C483 1.397 . S
C484 C485 1.334 . S
C485 H462 0.950 . S
C485 C484 1.334 . S
C485 C486 1.287 . S
C486 C485 1.287 . S
C486 C487 1.524 . S
C486 H505 0.913 . S
C487 H463 0.950 . S
C487 C486 1.524 . S
C487 C488 1.415 . S
C488 H464 0.950 . S
C488 C483 1.363 . S
C488 C487 1.415 . S
C489 H465 0.951 . S
C489 C490 1.366 . S
C489 C491 1.388 . S
C490 C489 1.366 . S
C490 C494 1.385 1_545 S
C491 H466 0.951 . S
C491 C489 1.388 . S
C491 C492 1.366 . S
C492 C491 1.366 . S
C492 C493 1.414 1_545 S
C492 C495 1.487 . S
C493 H467 0.950 . S
C493 C492 1.414 1_565 S
C493 C494 1.374 . S
C494 H468 0.950 . S
C494 C490 1.385 1_565 S
C494 C493 1.374 . S
C495 C492 1.487 . S
C495 C496 1.361 1_545 S
C495 C497 1.414 . S
C496 H469 0.950 . S
C496 C482 1.377 . S
C496 C495 1.361 1_565 S
C497 C481 1.377 . S
C497 C495 1.414 . S
C497 C498 1.524 . S
C498 C497 1.524 . S
C498 C499 1.397 . S
C498 C503 1.363 . S
C499 H470 0.950 . S
C499 C498 1.397 . S
C499 C500 1.334 . S
C500 H471 0.950 . S
C500 C499 1.334 . S
C500 C501 1.287 . S
C501 C500 1.287 . S
C501 C502 1.524 . S
C501 H504 0.999 . S
C502 H472 0.950 . S
C502 C501 1.524 . S
C502 C503 1.415 . S
C503 H473 0.950 . S
C503 C498 1.363 . S
C503 C502 1.415 . S
H504 C501 0.999 . S
H505 C486 0.913 . S
H506 C524 0.951 . S
H507 C526 0.951 . S
H508 C528 0.950 . S
H509 C529 0.950 . S
H510 C531 0.950 . S
H511 C534 0.950 . S
H512 C535 0.950 . S
H513 C537 0.950 . S
H514 C538 0.950 . S
H515 C539 0.951 . S
H516 C541 0.951 . S
H517 C543 0.950 . S
H518 C544 0.950 . S
H519 C546 0.950 . S
H520 C549 0.950 . S
H521 C550 0.950 . S
H522 C552 0.950 . S
H523 C553 0.950 . S
C524 H506 0.951 . S
C524 C525 1.366 . S
C524 C526 1.388 . S
C525 C524 1.366 . S
C525 C529 1.385 . S
C526 H507 0.951 . S
C526 C524 1.388 . S
C526 C527 1.366 . S
C527 C526 1.366 . S
C527 C528 1.414 . S
C527 C530 1.499 . S
C528 H508 0.950 . S
C528 C527 1.414 . S
C528 C529 1.374 . S
C529 H509 0.950 . S
C529 C525 1.385 . S
C529 C528 1.374 . S
C530 C527 1.499 . S
C530 C531 1.373 . S
C530 C532 1.389 . S
C531 H510 0.950 . S
C531 C530 1.373 . S
C531 C547 1.377 . S
C532 C530 1.389 . S
C532 C533 1.524 . S
C532 C546 1.377 . S
C533 C532 1.524 . S
C533 C534 1.397 . S
C533 C538 1.363 . S
C534 H511 0.950 . S
C534 C533 1.397 . S
C534 C535 1.334 . S
C535 H512 0.950 . S
C535 C534 1.334 . S
C535 C536 1.287 . S
C536 C535 1.287 . S
C536 C537 1.524 . S
C536 H555 0.913 . S
C537 H513 0.950 . S
C537 C536 1.524 . S
C537 C538 1.415 . S
C538 H514 0.950 . S
C538 C533 1.363 . S
C538 C537 1.415 . S
C539 H515 0.951 . S
C539 C540 1.366 . S
C539 C541 1.388 . S
C540 C539 1.366 . S
C540 C544 1.385 . S
C541 H516 0.951 . S
C541 C539 1.388 . S
C541 C542 1.366 . S
C542 C541 1.366 . S
C542 C543 1.414 . S
C542 C545 1.499 . S
C543 H517 0.950 . S
C543 C542 1.414 . S
C543 C544 1.374 . S
C544 H518 0.950 . S
C544 C540 1.385 . S
C544 C543 1.374 . S
C545 C542 1.499 . S
C545 C546 1.373 . S
C545 C547 1.389 . S
C546 H519 0.950 . S
C546 C532 1.377 . S
C546 C545 1.373 . S
C547 C531 1.377 . S
C547 C545 1.389 . S
C547 C548 1.524 . S
C548 C547 1.524 . S
C548 C549 1.397 . S
C548 C553 1.363 . S
C549 H520 0.950 . S
C549 C548 1.397 . S
C549 C550 1.334 . S
C550 H521 0.950 . S
C550 C549 1.334 . S
C550 C551 1.287 . S
C551 C550 1.287 . S
C551 C552 1.524 . S
C551 H554 0.999 . S
C552 H522 0.950 . S
C552 C551 1.524 . S
C552 C553 1.415 . S
C553 H523 0.950 . S
C553 C548 1.363 . S
C553 C552 1.415 . S
H554 C551 0.999 . S
H555 C536 0.913 . S
H556 C574 0.951 . S
H557 C576 0.951 . S
H558 C578 0.950 . S
H559 C579 0.950 . S
H560 C581 0.950 . S
H561 C584 0.950 . S
H562 C585 0.950 1_554 S
H563 C587 0.950 . S
H564 C588 0.950 . S
H565 C589 0.951 . S
H566 C591 0.951 . S
H567 C593 0.950 . S
H568 C594 0.950 . S
H569 C596 0.950 . S
H570 C599 0.950 . S
H571 C600 0.950 . S
H572 C602 0.950 . S
H573 C603 0.950 . S
C574 H556 0.951 . S
C574 C575 1.366 . S
C574 C576 1.388 . S
C575 C574 1.366 . S
C575 C579 1.385 1_655 S
C576 H557 0.951 . S
C576 C574 1.388 . S
C576 C577 1.366 . S
C577 C576 1.366 . S
C577 C578 1.414 1_655 S
C577 C580 1.499 . S
C578 H558 0.950 . S
C578 C577 1.414 1_455 S
C578 C579 1.374 . S
C579 H559 0.950 . S
C579 C575 1.385 1_455 S
C579 C578 1.374 . S
C580 C577 1.499 . S
C580 C581 1.373 1_655 S
C580 C582 1.389 . S
C581 H560 0.950 . S
C581 C580 1.373 1_455 S
C581 C597 1.377 . S
C582 C580 1.389 . S
C582 C583 1.524 . S
C582 C596 1.377 . S
C583 C582 1.524 . S
C583 C584 1.397 . S
C583 C588 1.363 . S
C584 H561 0.950 . S
C584 C583 1.397 . S
C584 C585 1.334 . S
C585 H562 0.950 1_556 S
C585 C584 1.334 . S
C585 C586 1.287 . S
C586 C585 1.287 . S
C586 C587 1.524 . S
C586 H605 0.913 . S
C587 H563 0.950 . S
C587 C586 1.524 . S
C587 C588 1.415 . S
C588 H564 0.950 . S
C588 C583 1.363 . S
C588 C587 1.415 . S
C589 H565 0.951 . S
C589 C590 1.366 . S
C589 C591 1.388 . S
C590 C589 1.366 . S
C590 C594 1.385 1_455 S
C591 H566 0.951 . S
C591 C589 1.388 . S
C591 C592 1.366 . S
C592 C591 1.366 . S
C592 C593 1.414 1_455 S
C592 C595 1.499 . S
C593 H567 0.950 . S
C593 C592 1.414 1_655 S
C593 C594 1.374 . S
C594 H568 0.950 . S
C594 C590 1.385 1_655 S
C594 C593 1.374 . S
C595 C592 1.499 . S
C595 C596 1.373 1_455 S
C595 C597 1.389 . S
C596 H569 0.950 . S
C596 C582 1.377 . S
C596 C595 1.373 1_655 S
C597 C581 1.377 . S
C597 C595 1.389 . S
C597 C598 1.524 . S
C598 C597 1.524 . S
C598 C599 1.397 . S
C598 C603 1.363 . S
C599 H570 0.950 . S
C599 C598 1.397 . S
C599 C600 1.334 . S
C600 H571 0.950 . S
C600 C599 1.334 . S
C600 C601 1.287 . S
C601 C600 1.287 . S
C601 C602 1.524 . S
C601 H604 0.999 . S
C602 H572 0.950 . S
C602 C601 1.524 . S
C602 C603 1.415 . S
C603 H573 0.950 . S
C603 C598 1.363 . S
C603 C602 1.415 . S
H604 C601 0.999 . S
H605 C586 0.913 . S
H606 C624 0.939 . S
H607 C626 0.948 . S
H608 C628 0.950 . S
H609 C629 0.950 . S
H610 C631 0.950 . S
H611 C634 0.950 . S
H612 C635 0.950 . S
H613 C637 0.950 . S
H614 C638 0.950 . S
H615 C639 0.939 . S
H616 C641 0.948 . S
H617 C643 0.950 . S
H618 C644 0.950 . S
H619 C646 0.950 . S
H620 C649 0.950 . S
H621 C650 0.950 . S
H622 C652 0.950 . S
H623 C653 0.950 . S
C624 H606 0.939 . S
C624 C625 1.357 . S
C624 C626 1.409 . S
C625 C624 1.357 . S
C625 C629 1.385 . S
C626 H607 0.948 . S
C626 C624 1.409 . S
C626 C627 1.366 . S
C627 C626 1.366 . S
C627 C628 1.414 . S
C627 C630 1.499 . S
C628 H608 0.950 . S
C628 C627 1.414 . S
C628 C629 1.374 . S
C629 H609 0.950 . S
C629 C625 1.385 . S
C629 C628 1.374 . S
C630 C627 1.499 . S
C630 C631 1.373 1_455 S
C630 C632 1.389 . S
C631 H610 0.950 . S
C631 C630 1.373 1_655 S
C631 C647 1.377 . S
C632 C630 1.389 . S
C632 C633 1.524 . S
C632 C646 1.377 . S
C633 C632 1.524 . S
C633 C634 1.397 . S
C633 C638 1.363 . S
C634 H611 0.950 . S
C634 C633 1.397 . S
C634 C635 1.334 . S
C635 H612 0.950 . S
C635 C634 1.334 . S
C635 C636 1.287 . S
C636 C635 1.287 . S
C636 C637 1.524 . S
C636 H655 0.913 . S
C637 H613 0.950 . S
C637 C636 1.524 . S
C637 C638 1.415 . S
C638 H614 0.950 . S
C638 C633 1.363 . S
C638 C637 1.415 . S
C639 H615 0.939 . S
C639 C640 1.357 . S
C639 C641 1.409 . S
C640 C639 1.357 . S
C640 C644 1.385 . S
C641 H616 0.948 . S
C641 C639 1.409 . S
C641 C642 1.366 . S
C642 C641 1.366 . S
C642 C643 1.414 . S
C642 C645 1.499 . S
C643 H617 0.950 . S
C643 C642 1.414 . S
C643 C644 1.374 . S
C644 H618 0.950 . S
C644 C640 1.385 . S
C644 C643 1.374 . S
C645 C642 1.499 . S
C645 C646 1.373 1_655 S
C645 C647 1.389 . S
C646 H619 0.950 . S
C646 C632 1.377 . S
C646 C645 1.373 1_455 S
C647 C631 1.377 . S
C647 C645 1.389 . S
C647 C648 1.524 . S
C648 C647 1.524 . S
C648 C649 1.397 . S
C648 C653 1.363 . S
C649 H620 0.950 . S
C649 C648 1.397 . S
C649 C650 1.334 . S
C650 H621 0.950 . S
C650 C649 1.334 . S
C650 C651 1.287 . S
C651 C650 1.287 . S
C651 C652 1.524 . S
C651 H654 0.999 . S
C652 H622 0.950 . S
C652 C651 1.524 . S
C652 C653 1.415 . S
C653 H623 0.950 . S
C653 C648 1.363 . S
C653 C652 1.415 . S
H654 C651 0.999 . S
H655 C636 0.913 . S
H656 C674 0.951 . S
H657 C676 0.951 . S
H658 C678 0.950 . S
H659 C679 0.950 . S
H660 C681 0.950 . S
H661 C684 0.950 . S
H662 C685 0.950 . S
H663 C687 0.950 . S
H664 C688 0.950 . S
H665 C689 0.951 . S
H666 C691 0.951 . S
H667 C693 0.950 . S
H668 C694 0.950 . S
H669 C696 0.950 . S
H670 C699 0.950 . S
H671 C700 0.950 . S
H672 C702 0.950 . S
H673 C703 0.950 . S
C674 H656 0.951 . S
C674 C675 1.366 . S
C674 C676 1.388 . S
C675 C674 1.366 . S
C675 C679 1.385 1_565 S
C676 H657 0.951 . S
C676 C674 1.388 . S
C676 C677 1.366 . S
C677 C676 1.366 . S
C677 C678 1.414 1_565 S
C677 C680 1.499 . S
C678 H658 0.950 . S
C678 C677 1.414 1_545 S
C678 C679 1.374 . S
C679 H659 0.950 . S
C679 C675 1.385 1_545 S
C679 C678 1.374 . S
C680 C677 1.499 . S
C680 C681 1.373 1_565 S
C680 C682 1.389 . S
C681 H660 0.950 . S
C681 C680 1.373 1_545 S
C681 C697 1.377 . S
C682 C680 1.389 . S
C682 C683 1.524 . S
C682 C696 1.377 . S
C683 C682 1.524 . S
C683 C684 1.397 . S
C683 C688 1.363 . S
C684 H661 0.950 . S
C684 C683 1.397 . S
C684 C685 1.334 . S
C685 H662 0.950 . S
C685 C684 1.334 . S
C685 C686 1.287 . S
C686 C685 1.287 . S
C686 C687 1.524 . S
C686 H705 0.913 . S
C687 H663 0.950 . S
C687 C686 1.524 . S
C687 C688 1.415 . S
C688 H664 0.950 . S
C688 C683 1.363 . S
C688 C687 1.415 . S
C689 H665 0.951 . S
C689 C690 1.366 . S
C689 C691 1.388 . S
C690 C689 1.366 . S
C690 C694 1.385 1_545 S
C691 H666 0.951 . S
C691 C689 1.388 . S
C691 C692 1.366 . S
C692 C691 1.366 . S
C692 C693 1.414 1_545 S
C692 C695 1.499 . S
C693 H667 0.950 . S
C693 C692 1.414 1_565 S
C693 C694 1.374 . S
C694 H668 0.950 . S
C694 C690 1.385 1_565 S
C694 C693 1.374 . S
C695 C692 1.499 . S
C695 C696 1.373 1_545 S
C695 C697 1.389 . S
C696 H669 0.950 . S
C696 C682 1.377 . S
C696 C695 1.373 1_565 S
C697 C681 1.377 . S
C697 C695 1.389 . S
C697 C698 1.524 . S
C698 C697 1.524 . S
C698 C699 1.397 . S
C698 C703 1.363 . S
C699 H670 0.950 . S
C699 C698 1.397 . S
C699 C700 1.334 . S
C700 H671 0.950 . S
C700 C699 1.334 . S
C700 C701 1.287 . S
C701 C700 1.287 . S
C701 C702 1.524 . S
C701 H704 0.999 . S
C702 H672 0.950 . S
C702 C701 1.524 . S
C702 C703 1.415 . S
C703 H673 0.950 . S
C703 C698 1.363 . S
C703 C702 1.415 . S
H704 C701 0.999 . S
H705 C686 0.913 . S
H706 C724 0.951 . S
H707 C726 0.951 . S
H708 C728 0.950 . S
H709 C729 0.950 . S
H710 C731 0.950 . S
H711 C734 0.950 . S
H712 C735 0.950 . S
H713 C737 0.950 . S
H714 C738 0.950 . S
H715 C739 0.951 . S
H716 C741 0.951 . S
H717 C743 0.950 . S
H718 C744 0.950 . S
H719 C746 0.950 . S
H720 C749 0.950 . S
H721 C750 0.950 . S
H722 C752 0.950 . S
H723 C753 0.950 . S
C724 H706 0.951 . S
C724 C725 1.366 . S
C724 C726 1.388 . S
C725 C724 1.366 . S
C725 C729 1.385 . S
C726 H707 0.951 . S
C726 C724 1.388 . S
C726 C727 1.366 . S
C727 C726 1.366 . S
C727 C728 1.414 . S
C727 C730 1.499 . S
C728 H708 0.950 . S
C728 C727 1.414 . S
C728 C729 1.374 . S
C729 H709 0.950 . S
C729 C725 1.385 . S
C729 C728 1.374 . S
C730 C727 1.499 . S
C730 C731 1.373 . S
C730 C732 1.389 . S
C731 H710 0.950 . S
C731 C730 1.373 . S
C731 C747 1.377 . S
C732 C730 1.389 . S
C732 C733 1.524 . S
C732 C746 1.377 . S
C733 C732 1.524 . S
C733 C734 1.397 . S
C733 C738 1.363 . S
C734 H711 0.950 . S
C734 C733 1.397 . S
C734 C735 1.334 . S
C735 H712 0.950 . S
C735 C734 1.334 . S
C735 C736 1.287 . S
C736 C735 1.287 . S
C736 C737 1.524 . S
C736 H755 0.913 . S
C737 H713 0.950 . S
C737 C736 1.524 . S
C737 C738 1.415 . S
C738 H714 0.950 . S
C738 C733 1.363 . S
C738 C737 1.415 . S
C739 H715 0.951 . S
C739 C740 1.366 . S
C739 C741 1.388 . S
C740 C739 1.366 . S
C740 C744 1.385 . S
C741 H716 0.951 . S
C741 C739 1.388 . S
C741 C742 1.366 . S
C742 C741 1.366 . S
C742 C743 1.414 . S
C742 C745 1.499 . S
C743 H717 0.950 . S
C743 C742 1.414 . S
C743 C744 1.374 . S
C744 H718 0.950 . S
C744 C740 1.385 . S
C744 C743 1.374 . S
C745 C742 1.499 . S
C745 C746 1.373 . S
C745 C747 1.389 . S
C746 H719 0.950 . S
C746 C732 1.377 . S
C746 C745 1.373 . S
C747 C731 1.377 . S
C747 C745 1.389 . S
C747 C748 1.524 1_554 S
C748 C747 1.524 1_556 S
C748 C749 1.397 . S
C748 C753 1.363 . S
C749 H720 0.950 . S
C749 C748 1.397 . S
C749 C750 1.334 . S
C750 H721 0.950 . S
C750 C749 1.334 . S
C750 C751 1.287 . S
C751 C750 1.287 . S
C751 C752 1.524 . S
C751 H754 0.999 . S
C752 H722 0.950 . S
C752 C751 1.524 . S
C752 C753 1.415 . S
C753 H723 0.950 . S
C753 C748 1.363 . S
C753 C752 1.415 . S
H754 C751 0.999 . S
H755 C736 0.913 . S
H756 C774 0.951 . S
H757 C776 0.951 . S
H758 C778 0.950 . S
H759 C779 0.950 . S
H760 C781 0.950 . S
H761 C784 0.950 . S
H762 C785 0.950 . S
H763 C787 0.950 . S
H764 C788 0.950 . S
H765 C789 0.951 . S
H766 C791 0.951 . S
H767 C793 0.950 . S
H768 C794 0.950 . S
H769 C796 0.950 . S
H770 C799 0.950 . S
H771 C800 0.950 . S
H772 C802 0.950 . S
H773 C803 0.950 . S
C774 H756 0.951 . S
C774 C775 1.366 . S
C774 C776 1.388 . S
C775 C774 1.366 . S
C775 C779 1.385 . S
C776 H757 0.951 . S
C776 C774 1.388 . S
C776 C777 1.366 . S
C777 C776 1.366 . S
C777 C778 1.414 . S
C777 C780 1.499 . S
C778 H758 0.950 . S
C778 C777 1.414 . S
C778 C779 1.374 . S
C779 H759 0.950 . S
C779 C775 1.385 . S
C779 C778 1.374 . S
C780 C777 1.499 . S
C780 C781 1.373 . S
C780 C782 1.389 . S
C781 H760 0.950 . S
C781 C780 1.373 . S
C781 C797 1.377 . S
C782 C780 1.389 . S
C782 C783 1.524 . S
C782 C796 1.377 . S
C783 C782 1.524 . S
C783 C784 1.397 . S
C783 C788 1.363 . S
C784 H761 0.950 . S
C784 C783 1.397 . S
C784 C785 1.334 . S
C785 H762 0.950 . S
C785 C784 1.334 . S
C785 C786 1.287 . S
C786 C785 1.287 . S
C786 C787 1.524 . S
C786 H805 0.913 . S
C787 H763 0.950 . S
C787 C786 1.524 . S
C787 C788 1.415 . S
C788 H764 0.950 . S
C788 C783 1.363 . S
C788 C787 1.415 . S
C789 H765 0.951 . S
C789 C790 1.366 . S
C789 C791 1.388 . S
C790 C789 1.366 . S
C790 C794 1.385 . S
C791 H766 0.951 . S
C791 C789 1.388 . S
C791 C792 1.366 . S
C792 C791 1.366 . S
C792 C793 1.414 . S
C792 C795 1.499 . S
C793 H767 0.950 . S
C793 C792 1.414 . S
C793 C794 1.374 . S
C794 H768 0.950 . S
C794 C790 1.385 . S
C794 C793 1.374 . S
C795 C792 1.499 . S
C795 C796 1.373 . S
C795 C797 1.389 . S
C796 H769 0.950 . S
C796 C782 1.377 . S
C796 C795 1.373 . S
C797 C781 1.377 . S
C797 C795 1.389 . S
C797 C798 1.524 . S
C798 C797 1.524 . S
C798 C799 1.397 . S
C798 C803 1.363 . S
C799 H770 0.950 . S
C799 C798 1.397 . S
C799 C800 1.334 . S
C800 H771 0.950 . S
C800 C799 1.334 . S
C800 C801 1.287 . S
C801 C800 1.287 . S
C801 C802 1.524 . S
C801 H804 0.999 . S
C802 H772 0.950 . S
C802 C801 1.524 . S
C802 C803 1.415 . S
C803 H773 0.950 . S
C803 C798 1.363 . S
C803 C802 1.415 . S
H804 C801 0.999 . S
H805 C786 0.913 . S
H806 C824 0.951 . S
H807 C826 0.951 . S
H808 C828 0.950 . S
H809 C829 0.950 . S
H810 C831 0.950 . S
H811 C834 0.950 . S
H812 C835 0.950 . S
H813 C837 0.950 . S
H814 C838 0.950 . S
H815 C839 0.951 . S
H816 C841 0.951 . S
H817 C843 0.950 . S
H818 C844 0.950 . S
H819 C846 0.950 . S
H820 C849 0.950 . S
H821 C850 0.950 . S
H822 C852 0.950 . S
H823 C853 0.950 . S
C824 H806 0.951 . S
C824 C825 1.366 . S
C824 C826 1.388 . S
C825 C824 1.366 . S
C825 C829 1.385 . S
C826 H807 0.951 . S
C826 C824 1.388 . S
C826 C827 1.366 . S
C827 C826 1.366 . S
C827 C828 1.414 . S
C827 C830 1.499 . S
C828 H808 0.950 . S
C828 C827 1.414 . S
C828 C829 1.374 . S
C829 H809 0.950 . S
C829 C825 1.385 . S
C829 C828 1.374 . S
C830 C827 1.499 . S
C830 C831 1.373 . S
C830 C832 1.389 . S
C831 H810 0.950 . S
C831 C830 1.373 . S
C831 C847 1.377 . S
C832 C830 1.389 . S
C832 C833 1.524 . S
C832 C846 1.377 . S
C833 C832 1.524 . S
C833 C834 1.397 . S
C833 C838 1.363 . S
C834 H811 0.950 . S
C834 C833 1.397 . S
C834 C835 1.334 . S
C835 H812 0.950 . S
C835 C834 1.334 . S
C835 C836 1.287 . S
C836 C835 1.287 . S
C836 C837 1.524 . S
C836 H855 0.913 . S
C837 H813 0.950 . S
C837 C836 1.524 . S
C837 C838 1.415 . S
C838 H814 0.950 . S
C838 C833 1.363 . S
C838 C837 1.415 . S
C839 H815 0.951 . S
C839 C840 1.366 . S
C839 C841 1.388 . S
C840 C839 1.366 . S
C840 C844 1.385 . S
C841 H816 0.951 . S
C841 C839 1.388 . S
C841 C842 1.366 . S
C842 C841 1.366 . S
C842 C843 1.414 . S
C842 C845 1.499 . S
C843 H817 0.950 . S
C843 C842 1.414 . S
C843 C844 1.374 . S
C844 H818 0.950 . S
C844 C840 1.385 . S
C844 C843 1.374 . S
C845 C842 1.499 . S
C845 C846 1.373 . S
C845 C847 1.389 . S
C846 H819 0.950 . S
C846 C832 1.377 . S
C846 C845 1.373 . S
C847 C831 1.377 . S
C847 C845 1.389 . S
C847 C848 1.524 . S
C848 C847 1.524 . S
C848 C849 1.397 . S
C848 C853 1.363 . S
C849 H820 0.950 . S
C849 C848 1.397 . S
C849 C850 1.334 . S
C850 H821 0.950 . S
C850 C849 1.334 . S
C850 C851 1.287 . S
C851 C850 1.287 . S
C851 C852 1.524 . S
C851 H854 0.999 . S
C852 H822 0.950 . S
C852 C851 1.524 . S
C852 C853 1.415 . S
C853 H823 0.950 . S
C853 C848 1.363 . S
C853 C852 1.415 . S
H854 C851 0.999 . S
H855 C836 0.913 . S
H856 C874 0.951 . S
H857 C876 0.951 . S
H858 C878 0.950 . S
H859 C879 0.950 . S
H860 C881 0.950 . S
H861 C884 0.950 . S
H862 C885 0.950 . S
H863 C887 0.950 . S
H864 C888 0.950 . S
H865 C889 0.951 . S
H866 C891 0.951 . S
H867 C893 0.950 . S
H868 C894 0.950 . S
H869 C896 0.950 . S
H870 C899 0.950 . S
H871 C900 0.950 . S
H872 C902 0.950 . S
H873 C903 0.950 . S
C874 H856 0.951 . S
C874 C875 1.366 . S
C874 C876 1.388 . S
C875 C874 1.366 . S
C875 C879 1.385 . S
C876 H857 0.951 . S
C876 C874 1.388 . S
C876 C877 1.366 . S
C877 C876 1.366 . S
C877 C878 1.414 . S
C877 C880 1.499 . S
C878 H858 0.950 . S
C878 C877 1.414 . S
C878 C879 1.374 . S
C879 H859 0.950 . S
C879 C875 1.385 . S
C879 C878 1.374 . S
C880 C877 1.499 . S
C880 C881 1.373 . S
C880 C882 1.389 1_554 S
C881 H860 0.950 . S
C881 C880 1.373 . S
C881 C897 1.377 . S
C882 C880 1.389 1_556 S
C882 C883 1.524 . S
C882 C896 1.377 . S
C883 C882 1.524 . S
C883 C884 1.397 . S
C883 C888 1.363 . S
C884 H861 0.950 . S
C884 C883 1.397 . S
C884 C885 1.334 . S
C885 H862 0.950 . S
C885 C884 1.334 . S
C885 C886 1.287 . S
C886 C885 1.287 . S
C886 C887 1.524 . S
C886 H905 0.913 . S
C887 H863 0.950 . S
C887 C886 1.524 . S
C887 C888 1.415 . S
C888 H864 0.950 . S
C888 C883 1.363 . S
C888 C887 1.415 . S
C889 H865 0.951 . S
C889 C890 1.366 . S
C889 C891 1.388 . S
C890 C889 1.366 . S
C890 C894 1.385 . S
C891 H866 0.951 . S
C891 C889 1.388 . S
C891 C892 1.366 . S
C892 C891 1.366 . S
C892 C893 1.414 . S
C892 C895 1.499 . S
C893 H867 0.950 . S
C893 C892 1.414 . S
C893 C894 1.374 . S
C894 H868 0.950 . S
C894 C890 1.385 . S
C894 C893 1.374 . S
C895 C892 1.499 . S
C895 C896 1.373 . S
C895 C897 1.389 1_556 S
C896 H869 0.950 . S
C896 C882 1.377 . S
C896 C895 1.373 . S
C897 C881 1.377 . S
C897 C895 1.389 1_554 S
C897 C898 1.524 . S
C898 C897 1.524 . S
C898 C899 1.397 . S
C898 C903 1.363 . S
C899 H870 0.950 . S
C899 C898 1.397 . S
C899 C900 1.334 . S
C900 H871 0.950 . S
C900 C899 1.334 . S
C900 C901 1.287 . S
C901 C900 1.287 . S
C901 C902 1.524 . S
C901 H904 0.999 . S
C902 H872 0.950 . S
C902 C901 1.524 . S
C902 C903 1.415 . S
C903 H873 0.950 . S
C903 C898 1.363 . S
C903 C902 1.415 . S
H904 C901 0.999 . S
H905 C886 0.913 . S
H906 C924 0.951 . S
H907 C926 0.951 . S
H908 C928 0.950 . S
H909 C929 0.950 . S
H910 C931 0.950 . S
H911 C934 0.950 . S
H912 C935 0.950 . S
H913 C937 0.950 . S
H914 C938 0.950 . S
H915 C939 0.951 . S
H916 C941 0.951 . S
H917 C943 0.950 . S
H918 C944 0.950 . S
H919 C946 0.950 . S
H920 C949 0.950 . S
H921 C950 0.950 . S
H922 C952 0.950 . S
H923 C953 0.950 . S
C924 H906 0.951 . S
C924 C925 1.366 . S
C924 C926 1.388 . S
C925 C924 1.366 . S
C925 C929 1.385 . S
C926 H907 0.951 . S
C926 C924 1.388 . S
C926 C927 1.366 . S
C927 C926 1.366 . S
C927 C928 1.414 . S
C927 C930 1.499 . S
C928 H908 0.950 . S
C928 C927 1.414 . S
C928 C929 1.374 . S
C929 H909 0.950 . S
C929 C925 1.385 . S
C929 C928 1.374 . S
C930 C927 1.499 . S
C930 C931 1.373 . S
C930 C932 1.389 . S
C931 H910 0.950 . S
C931 C930 1.373 . S
C931 C947 1.377 . S
C932 C930 1.389 . S
C932 C933 1.524 . S
C932 C946 1.377 . S
C933 C932 1.524 . S
C933 C934 1.397 . S
C933 C938 1.363 . S
C934 H911 0.950 . S
C934 C933 1.397 . S
C934 C935 1.334 . S
C935 H912 0.950 . S
C935 C934 1.334 . S
C935 C936 1.287 . S
C936 C935 1.287 . S
C936 C937 1.524 . S
C936 H955 0.913 . S
C937 H913 0.950 . S
C937 C936 1.524 . S
C937 C938 1.415 . S
C938 H914 0.950 . S
C938 C933 1.363 . S
C938 C937 1.415 . S
C939 H915 0.951 . S
C939 C940 1.366 . S
C939 C941 1.388 . S
C940 C939 1.366 . S
C940 C944 1.385 . S
C941 H916 0.951 . S
C941 C939 1.388 . S
C941 C942 1.366 . S
C942 C941 1.366 . S
C942 C943 1.414 . S
C942 C945 1.499 . S
C943 H917 0.950 . S
C943 C942 1.414 . S
C943 C944 1.374 . S
C944 H918 0.950 . S
C944 C940 1.385 . S
C944 C943 1.374 . S
C945 C942 1.499 . S
C945 C946 1.373 . S
C945 C947 1.389 . S
C946 H919 0.950 . S
C946 C932 1.377 . S
C946 C945 1.373 . S
C947 C931 1.377 . S
C947 C945 1.389 . S
C947 C948 1.524 . S
C948 C947 1.524 . S
C948 C949 1.397 . S
C948 C953 1.363 . S
C949 H920 0.950 . S
C949 C948 1.397 . S
C949 C950 1.334 . S
C950 H921 0.950 . S
C950 C949 1.334 . S
C950 C951 1.287 . S
C951 C950 1.287 . S
C951 C952 1.524 . S
C951 H954 0.999 . S
C952 H922 0.950 . S
C952 C951 1.524 . S
C952 C953 1.415 . S
C953 H923 0.950 . S
C953 C948 1.363 . S
C953 C952 1.415 . S
H954 C951 0.999 . S
H955 C936 0.913 . S
H956 C974 0.951 . S
H957 C976 0.951 . S
H958 C978 0.950 . S
H959 C979 0.950 . S
H960 C981 0.950 . S
H961 C984 0.950 . S
H962 C985 0.950 . S
H963 C987 0.950 . S
H964 C988 0.950 . S
H965 C989 0.951 . S
H966 C991 0.951 . S
H967 C993 0.950 . S
H968 C994 0.950 . S
H969 C996 0.950 . S
H970 C999 0.950 . S
H971 C1000 0.950 . S
H972 C1002 0.950 . S
H973 C1003 0.950 . S
C974 H956 0.951 . S
C974 C975 1.366 . S
C974 C976 1.388 . S
C975 C974 1.366 . S
C975 C979 1.385 . S
C976 H957 0.951 . S
C976 C974 1.388 . S
C976 C977 1.366 . S
C977 C976 1.366 . S
C977 C978 1.414 . S
C977 C980 1.499 . S
C978 H958 0.950 . S
C978 C977 1.414 . S
C978 C979 1.374 . S
C979 H959 0.950 . S
C979 C975 1.385 . S
C979 C978 1.374 . S
C980 C977 1.499 . S
C980 C981 1.373 . S
C980 C982 1.389 . S
C981 H960 0.950 . S
C981 C980 1.373 . S
C981 C997 1.377 . S
C982 C980 1.389 . S
C982 C983 1.524 . S
C982 C996 1.377 . S
C983 C982 1.524 . S
C983 C984 1.397 . S
C983 C988 1.363 . S
C984 H961 0.950 . S
C984 C983 1.397 . S
C984 C985 1.334 . S
C985 H962 0.950 . S
C985 C984 1.334 . S
C985 C986 1.287 . S
C986 C985 1.287 . S
C986 C987 1.524 . S
C986 H1005 0.913 . S
C987 H963 0.950 . S
C987 C986 1.524 . S
C987 C988 1.415 . S
C988 H964 0.950 . S
C988 C983 1.363 . S
C988 C987 1.415 . S
C989 H965 0.951 . S
C989 C990 1.366 . S
C989 C991 1.388 . S
C990 C989 1.366 . S
C990 C994 1.385 . S
C991 H966 0.951 . S
C991 C989 1.388 . S
C991 C992 1.366 . S
C992 C991 1.366 . S
C992 C993 1.414 . S
C992 C995 1.499 . S
C993 H967 0.950 . S
C993 C992 1.414 . S
C993 C994 1.374 . S
C994 H968 0.950 . S
C994 C990 1.385 . S
C994 C993 1.374 . S
C995 C992 1.499 . S
C995 C996 1.373 . S
C995 C997 1.389 . S
C996 H969 0.950 . S
C996 C982 1.377 . S
C996 C995 1.373 . S
C997 C981 1.377 . S
C997 C995 1.389 . S
C997 C998 1.524 . S
C998 C997 1.524 . S
C998 C999 1.397 . S
C998 C1003 1.363 . S
C999 H970 0.950 . S
C999 C998 1.397 . S
C999 C1000 1.334 . S
C1000 H971 0.950 . S
C1000 C999 1.334 . S
C1000 C1001 1.287 . S
C1001 C1000 1.287 . S
C1001 C1002 1.524 . S
C1001 H1004 0.999 . S
C1002 H972 0.950 . S
C1002 C1001 1.524 . S
C1002 C1003 1.415 . S
C1003 H973 0.950 . S
C1003 C998 1.363 . S
C1003 C1002 1.415 . S
H1004 C1001 0.999 . S
H1005 C986 0.913 . S
H1006 C1024 0.951 . S
H1007 C1026 0.951 . S
H1008 C1028 0.950 1_556 S
H1009 C1029 0.956 . S
H1010 C1031 0.950 . S
H1011 C1034 0.950 . S
H1012 C1035 0.950 . S
H1013 C1037 0.950 . S
H1014 C1038 0.950 . S
H1015 C1039 0.951 . S
H1016 C1041 0.951 . S
H1017 C1043 0.950 1_554 S
H1018 C1044 0.957 . S
H1019 C1046 0.950 . S
H1020 C1049 0.950 . S
H1021 C1050 0.950 . S
H1022 C1052 0.950 . S
H1023 C1053 0.950 . S
C1024 H1006 0.951 . S
C1024 C1025 1.366 . S
C1024 C1026 1.388 . S
C1025 C1024 1.366 . S
C1025 C1029 1.385 . S
C1026 H1007 0.951 . S
C1026 C1024 1.388 . S
C1026 C1027 1.366 . S
C1027 C1026 1.366 . S
C1027 C1028 1.414 . S
C1027 C1030 1.499 . S
C1028 H1008 0.950 1_554 S
C1028 C1027 1.414 . S
C1028 C1029 1.374 . S
C1029 H1009 0.956 . S
C1029 C1025 1.385 . S
C1029 C1028 1.374 . S
C1030 C1027 1.499 . S
C1030 C1031 1.373 1_554 S
C1030 C1032 1.389 . S
C1031 H1010 0.950 . S
C1031 C1030 1.373 1_556 S
C1031 C1047 1.377 . S
C1032 C1030 1.389 . S
C1032 C1033 1.524 . S
C1032 C1046 1.377 . S
C1033 C1032 1.524 . S
C1033 C1034 1.397 . S
C1033 C1038 1.363 . S
C1034 H1011 0.950 . S
C1034 C1033 1.397 . S
C1034 C1035 1.334 . S
C1035 H1012 0.950 . S
C1035 C1034 1.334 . S
C1035 C1036 1.287 . S
C1036 C1035 1.287 . S
C1036 C1037 1.524 . S
C1036 H1055 0.913 . S
C1037 H1013 0.950 . S
C1037 C1036 1.524 . S
C1037 C1038 1.415 . S
C1038 H1014 0.950 . S
C1038 C1033 1.363 . S
C1038 C1037 1.415 . S
C1039 H1015 0.951 . S
C1039 C1040 1.366 . S
C1039 C1041 1.388 . S
C1040 C1039 1.366 . S
C1040 C1044 1.385 . S
C1041 H1016 0.951 . S
C1041 C1039 1.388 . S
C1041 C1042 1.366 . S
C1042 C1041 1.366 . S
C1042 C1043 1.414 . S
C1042 C1045 1.499 . S
C1043 H1017 0.950 1_556 S
C1043 C1042 1.414 . S
C1043 C1044 1.374 . S
C1044 H1018 0.957 . S
C1044 C1040 1.385 . S
C1044 C1043 1.374 . S
C1045 C1042 1.499 . S
C1045 C1046 1.373 1_556 S
C1045 C1047 1.389 . S
C1046 H1019 0.950 . S
C1046 C1032 1.377 . S
C1046 C1045 1.373 1_554 S
C1047 C1031 1.377 . S
C1047 C1045 1.389 . S
C1047 C1048 1.524 . S
C1048 C1047 1.524 . S
C1048 C1049 1.397 . S
C1048 C1053 1.363 . S
C1049 H1020 0.950 . S
C1049 C1048 1.397 . S
C1049 C1050 1.334 . S
C1050 H1021 0.950 . S
C1050 C1049 1.334 . S
C1050 C1051 1.287 . S
C1051 C1050 1.287 . S
C1051 C1052 1.524 . S
C1051 H1054 0.999 . S
C1052 H1022 0.950 . S
C1052 C1051 1.524 . S
C1052 C1053 1.415 . S
C1053 H1023 0.950 . S
C1053 C1048 1.363 . S
C1053 C1052 1.415 . S
H1054 C1051 0.999 . S
H1055 C1036 0.913 . S
H1056 C1074 0.951 . S
H1057 C1076 0.951 . S
H1058 C1078 0.950 . S
H1059 C1079 0.950 . S
H1060 C1081 0.950 . S
H1061 C1084 0.950 . S
H1062 C1085 0.950 . S
H1063 C1087 0.950 . S
H1064 C1088 0.950 . S
H1065 C1089 0.951 . S
H1066 C1091 0.951 . S
H1067 C1093 0.950 . S
H1068 C1094 0.950 . S
H1069 C1096 0.950 . S
H1070 C1099 0.950 . S
H1071 C1100 0.950 . S
H1072 C1102 0.950 . S
H1073 C1103 0.950 . S
C1074 H1056 0.951 . S
C1074 C1075 1.366 1_565 S
C1074 C1076 1.388 . S
C1075 C1074 1.366 1_545 S
C1075 C1079 1.385 . S
C1076 H1057 0.951 . S
C1076 C1074 1.388 . S
C1076 C1077 1.366 1_565 S
C1077 C1076 1.366 1_545 S
C1077 C1078 1.414 . S
C1077 C1080 1.499 . S
C1078 H1058 0.950 . S
C1078 C1077 1.414 . S
C1078 C1079 1.374 . S
C1079 H1059 0.950 . S
C1079 C1075 1.385 . S
C1079 C1078 1.374 . S
C1080 C1077 1.499 . S
C1080 C1081 1.373 . S
C1080 C1082 1.389 1_545 S
C1081 H1060 0.950 . S
C1081 C1080 1.373 . S
C1081 C1097 1.377 . S
C1082 C1080 1.389 1_565 S
C1082 C1083 1.524 . S
C1082 C1096 1.377 . S
C1083 C1082 1.524 . S
C1083 C1084 1.397 1_565 S
C1083 C1088 1.363 . S
C1084 H1061 0.950 . S
C1084 C1083 1.397 1_545 S
C1084 C1085 1.334 . S
C1085 H1062 0.950 . S
C1085 C1084 1.334 . S
C1085 C1086 1.287 . S
C1086 C1085 1.287 . S
C1086 C1087 1.524 1_545 S
C1086 H1105 0.913 . S
C1087 H1063 0.950 . S
C1087 C1086 1.524 1_565 S
C1087 C1088 1.415 . S
C1088 H1064 0.950 . S
C1088 C1083 1.363 . S
C1088 C1087 1.415 . S
C1089 H1065 0.951 . S
C1089 C1090 1.366 1_545 S
C1089 C1091 1.388 . S
C1090 C1089 1.366 1_565 S
C1090 C1094 1.385 . S
C1091 H1066 0.951 . S
C1091 C1089 1.388 . S
C1091 C1092 1.366 1_545 S
C1092 C1091 1.366 1_565 S
C1092 C1093 1.414 . S
C1092 C1095 1.499 . S
C1093 H1067 0.950 . S
C1093 C1092 1.414 . S
C1093 C1094 1.374 . S
C1094 H1068 0.950 . S
C1094 C1090 1.385 . S
C1094 C1093 1.374 . S
C1095 C1092 1.499 . S
C1095 C1096 1.373 . S
C1095 C1097 1.389 1_565 S
C1096 H1069 0.950 . S
C1096 C1082 1.377 . S
C1096 C1095 1.373 . S
C1097 C1081 1.377 . S
C1097 C1095 1.389 1_545 S
C1097 C1098 1.524 . S
C1098 C1097 1.524 . S
C1098 C1099 1.397 1_545 S
C1098 C1103 1.363 . S
C1099 H1070 0.950 . S
C1099 C1098 1.397 1_565 S
C1099 C1100 1.334 . S
C1100 H1071 0.950 . S
C1100 C1099 1.334 . S
C1100 C1101 1.287 . S
C1101 C1100 1.287 . S
C1101 C1102 1.524 1_565 S
C1101 H1104 0.999 . S
C1102 H1072 0.950 . S
C1102 C1101 1.524 1_545 S
C1102 C1103 1.415 . S
C1103 H1073 0.950 . S
C1103 C1098 1.363 . S
C1103 C1102 1.415 . S
H1104 C1101 0.999 . S
H1105 C1086 0.913 . S
H1106 C1124 0.951 . S
H1107 C1126 0.951 . S
H1108 C1128 0.950 . S
H1109 C1129 0.950 . S
H1110 C1131 0.950 . S
H1111 C1134 0.950 . S
H1112 C1135 0.950 . S
H1113 C1137 0.950 . S
H1114 C1138 0.950 . S
H1115 C1139 0.951 . S
H1116 C1141 0.951 . S
H1117 C1143 0.950 . S
H1118 C1144 0.950 . S
H1119 C1146 0.950 . S
H1120 C1149 0.950 . S
H1121 C1150 0.950 . S
H1122 C1152 0.950 . S
H1123 C1153 0.950 . S
C1124 H1106 0.951 . S
C1124 C1125 1.366 . S
C1124 C1126 1.388 . S
C1125 C1124 1.366 . S
C1125 C1129 1.385 . S
C1126 H1107 0.951 . S
C1126 C1124 1.388 . S
C1126 C1127 1.366 . S
C1127 C1126 1.366 . S
C1127 C1128 1.414 . S
C1127 C1130 1.499 . S
C1128 H1108 0.950 . S
C1128 C1127 1.414 . S
C1128 C1129 1.374 . S
C1129 H1109 0.950 . S
C1129 C1125 1.385 . S
C1129 C1128 1.374 . S
C1130 C1127 1.499 . S
C1130 C1131 1.373 . S
C1130 C1132 1.389 . S
C1131 H1110 0.950 . S
C1131 C1130 1.373 . S
C1131 C1147 1.377 . S
C1132 C1130 1.389 . S
C1132 C1133 1.524 . S
C1132 C1146 1.377 . S
C1133 C1132 1.524 . S
C1133 C1134 1.397 . S
C1133 C1138 1.363 . S
C1134 H1111 0.950 . S
C1134 C1133 1.397 . S
C1134 C1135 1.334 . S
C1135 H1112 0.950 . S
C1135 C1134 1.334 . S
C1135 C1136 1.287 . S
C1136 C1135 1.287 . S
C1136 C1137 1.524 . S
C1136 H1155 0.913 . S
C1137 H1113 0.950 . S
C1137 C1136 1.524 . S
C1137 C1138 1.415 . S
C1138 H1114 0.950 . S
C1138 C1133 1.363 . S
C1138 C1137 1.415 . S
C1139 H1115 0.951 . S
C1139 C1140 1.366 . S
C1139 C1141 1.388 . S
C1140 C1139 1.366 . S
C1140 C1144 1.385 . S
C1141 H1116 0.951 . S
C1141 C1139 1.388 . S
C1141 C1142 1.366 . S
C1142 C1141 1.366 . S
C1142 C1143 1.414 . S
C1142 C1145 1.499 . S
C1143 H1117 0.950 . S
C1143 C1142 1.414 . S
C1143 C1144 1.374 . S
C1144 H1118 0.950 . S
C1144 C1140 1.385 . S
C1144 C1143 1.374 . S
C1145 C1142 1.499 . S
C1145 C1146 1.373 . S
C1145 C1147 1.389 . S
C1146 H1119 0.950 . S
C1146 C1132 1.377 . S
C1146 C1145 1.373 . S
C1147 C1131 1.377 . S
C1147 C1145 1.389 . S
C1147 C1148 1.524 . S
C1148 C1147 1.524 . S
C1148 C1149 1.397 . S
C1148 C1153 1.363 . S
C1149 H1120 0.950 . S
C1149 C1148 1.397 . S
C1149 C1150 1.334 . S
C1150 H1121 0.950 . S
C1150 C1149 1.334 . S
C1150 C1151 1.287 . S
C1151 C1150 1.287 . S
C1151 C1152 1.524 . S
C1151 H1154 0.999 . S
C1152 H1122 0.950 . S
C1152 C1151 1.524 . S
C1152 C1153 1.415 . S
C1153 H1123 0.950 . S
C1153 C1148 1.363 . S
C1153 C1152 1.415 . S
H1154 C1151 0.999 . S
H1155 C1136 0.913 . S
H1156 C1174 0.951 . S
H1157 C1176 0.951 . S
H1158 C1178 0.950 . S
H1159 C1179 0.950 . S
H1160 C1181 0.950 . S
H1161 C1184 0.950 . S
H1162 C1185 0.950 . S
H1163 C1187 0.950 . S
H1164 C1188 0.950 . S
H1165 C1189 0.951 . S
H1166 C1191 0.951 . S
H1167 C1193 0.950 . S
H1168 C1194 0.950 . S
H1169 C1196 0.950 . S
H1170 C1199 0.950 . S
H1171 C1200 0.950 . S
H1172 C1202 0.950 . S
H1173 C1203 0.950 . S
C1174 H1156 0.951 . S
C1174 C1175 1.366 1_655 S
C1174 C1176 1.388 . S
C1175 C1174 1.366 1_455 S
C1175 C1179 1.385 . S
C1176 H1157 0.951 . S
C1176 C1174 1.388 . S
C1176 C1177 1.366 1_655 S
C1177 C1176 1.366 1_455 S
C1177 C1178 1.414 . S
C1177 C1180 1.499 . S
C1178 H1158 0.950 . S
C1178 C1177 1.414 . S
C1178 C1179 1.374 . S
C1179 H1159 0.950 . S
C1179 C1175 1.385 . S
C1179 C1178 1.374 . S
C1180 C1177 1.499 . S
C1180 C1181 1.373 . S
C1180 C1182 1.389 1_455 S
C1181 H1160 0.950 . S
C1181 C1180 1.373 . S
C1181 C1197 1.377 . S
C1182 C1180 1.389 1_655 S
C1182 C1183 1.524 . S
C1182 C1196 1.377 . S
C1183 C1182 1.524 . S
C1183 C1184 1.397 1_655 S
C1183 C1188 1.363 . S
C1184 H1161 0.950 . S
C1184 C1183 1.397 1_455 S
C1184 C1185 1.334 . S
C1185 H1162 0.950 . S
C1185 C1184 1.334 . S
C1185 C1186 1.287 1_455 S
C1186 C1185 1.287 1_655 S
C1186 C1187 1.524 . S
C1186 H1205 0.913 . S
C1187 H1163 0.950 . S
C1187 C1186 1.524 . S
C1187 C1188 1.415 . S
C1188 H1164 0.950 . S
C1188 C1183 1.363 . S
C1188 C1187 1.415 . S
C1189 H1165 0.951 . S
C1189 C1190 1.366 1_455 S
C1189 C1191 1.388 . S
C1190 C1189 1.366 1_655 S
C1190 C1194 1.385 . S
C1191 H1166 0.951 . S
C1191 C1189 1.388 . S
C1191 C1192 1.366 1_455 S
C1192 C1191 1.366 1_655 S
C1192 C1193 1.414 . S
C1192 C1195 1.499 . S
C1193 H1167 0.950 . S
C1193 C1192 1.414 . S
C1193 C1194 1.374 . S
C1194 H1168 0.950 . S
C1194 C1190 1.385 . S
C1194 C1193 1.374 . S
C1195 C1192 1.499 . S
C1195 C1196 1.373 . S
C1195 C1197 1.389 1_655 S
C1196 H1169 0.950 . S
C1196 C1182 1.377 . S
C1196 C1195 1.373 . S
C1197 C1181 1.377 . S
C1197 C1195 1.389 1_455 S
C1197 C1198 1.524 . S
C1198 C1197 1.524 . S
C1198 C1199 1.397 1_455 S
C1198 C1203 1.363 . S
C1199 H1170 0.950 . S
C1199 C1198 1.397 1_655 S
C1199 C1200 1.334 . S
C1200 H1171 0.950 . S
C1200 C1199 1.334 . S
C1200 C1201 1.287 1_655 S
C1201 C1200 1.287 1_455 S
C1201 C1202 1.524 . S
C1201 H1204 0.999 . S
C1202 H1172 0.950 . S
C1202 C1201 1.524 . S
C1202 C1203 1.415 . S
C1203 H1173 0.950 . S
C1203 C1198 1.363 . S
C1203 C1202 1.415 . S
H1204 C1201 0.999 . S
H1205 C1186 0.913 . S
H1206 C1224 0.951 1_545 S
H1207 C1226 0.951 . S
H1208 C1228 0.950 . S
H1209 C1229 0.950 . S
H1210 C1231 0.950 . S
H1211 C1234 0.950 . S
H1212 C1235 0.950 . S
H1213 C1237 0.950 . S
H1214 C1238 0.950 . S
H1215 C1239 0.951 1_565 S
H1216 C1241 0.951 . S
H1217 C1243 0.950 . S
H1218 C1244 0.950 . S
H1219 C1246 0.950 . S
H1220 C1249 0.950 . S
H1221 C1250 0.950 . S
H1222 C1252 0.950 . S
H1223 C1253 0.950 . S
C1224 H1206 0.951 1_565 S
C1224 C1225 1.366 . S
C1224 C1226 1.388 1_565 S
C1225 C1224 1.366 . S
C1225 C1229 1.385 . S
C1226 H1207 0.951 . S
C1226 C1224 1.388 1_545 S
C1226 C1227 1.366 1_545 S
C1227 C1226 1.366 1_565 S
C1227 C1228 1.414 . S
C1227 C1230 1.499 . S
C1228 H1208 0.950 . S
C1228 C1227 1.414 . S
C1228 C1229 1.374 . S
C1229 H1209 0.950 . S
C1229 C1225 1.385 . S
C1229 C1228 1.374 . S
C1230 C1227 1.499 . S
C1230 C1231 1.373 . S
C1230 C1232 1.389 1_565 S
C1231 H1210 0.950 . S
C1231 C1230 1.373 . S
C1231 C1247 1.377 . S
C1232 C1230 1.389 1_545 S
C1232 C1233 1.524 . S
C1232 C1246 1.377 . S
C1233 C1232 1.524 . S
C1233 C1234 1.397 . S
C1233 C1238 1.363 . S
C1234 H1211 0.950 . S
C1234 C1233 1.397 . S
C1234 C1235 1.334 . S
C1235 H1212 0.950 . S
C1235 C1234 1.334 . S
C1235 C1236 1.287 . S
C1236 C1235 1.287 . S
C1236 C1237 1.524 . S
C1236 H1255 0.913 . S
C1237 H1213 0.950 . S
C1237 C1236 1.524 . S
C1237 C1238 1.415 . S
C1238 H1214 0.950 . S
C1238 C1233 1.363 . S
C1238 C1237 1.415 . S
C1239 H1215 0.951 1_545 S
C1239 C1240 1.366 . S
C1239 C1241 1.388 1_545 S
C1240 C1239 1.366 . S
C1240 C1244 1.385 . S
C1241 H1216 0.951 . S
C1241 C1239 1.388 1_565 S
C1241 C1242 1.366 1_565 S
C1242 C1241 1.366 1_545 S
C1242 C1243 1.414 . S
C1242 C1245 1.499 . S
C1243 H1217 0.950 . S
C1243 C1242 1.414 . S
C1243 C1244 1.374 . S
C1244 H1218 0.950 . S
C1244 C1240 1.385 . S
C1244 C1243 1.374 . S
C1245 C1242 1.499 . S
C1245 C1246 1.373 . S
C1245 C1247 1.389 1_545 S
C1246 H1219 0.950 . S
C1246 C1232 1.377 . S
C1246 C1245 1.373 . S
C1247 C1231 1.377 . S
C1247 C1245 1.389 1_565 S
C1247 C1248 1.524 . S
C1248 C1247 1.524 . S
C1248 C1249 1.397 . S
C1248 C1253 1.363 . S
C1249 H1220 0.950 . S
C1249 C1248 1.397 . S
C1249 C1250 1.334 . S
C1250 H1221 0.950 . S
C1250 C1249 1.334 . S
C1250 C1251 1.287 . S
C1251 C1250 1.287 . S
C1251 C1252 1.524 . S
C1251 H1254 0.999 . S
C1252 H1222 0.950 . S
C1252 C1251 1.524 . S
C1252 C1253 1.415 . S
C1253 H1223 0.950 . S
C1253 C1248 1.363 . S
C1253 C1252 1.415 . S
H1254 C1251 0.999 . S
H1255 C1236 0.913 . S
H1256 C1274 0.951 . S
H1257 C1276 0.951 . S
H1258 C1278 0.950 . S
H1259 C1279 0.950 . S
H1260 C1281 0.950 . S
H1261 C1284 0.950 . S
H1262 C1285 0.950 . S
H1263 C1287 0.950 . S
H1264 C1288 0.950 . S
H1265 C1289 0.951 . S
H1266 C1291 0.951 . S
H1267 C1293 0.950 . S
H1268 C1294 0.950 . S
H1269 C1296 0.950 . S
H1270 C1299 0.950 . S
H1271 C1300 0.950 . S
H1272 C1302 0.950 . S
H1273 C1303 0.950 . S
C1274 H1256 0.951 . S
C1274 C1275 1.366 . S
C1274 C1276 1.388 . S
C1275 C1274 1.366 . S
C1275 C1279 1.385 . S
C1276 H1257 0.951 . S
C1276 C1274 1.388 . S
C1276 C1277 1.366 . S
C1277 C1276 1.366 . S
C1277 C1278 1.414 . S
C1277 C1280 1.499 . S
C1278 H1258 0.950 . S
C1278 C1277 1.414 . S
C1278 C1279 1.374 . S
C1279 H1259 0.950 . S
C1279 C1275 1.385 . S
C1279 C1278 1.374 . S
C1280 C1277 1.499 . S
C1280 C1281 1.373 . S
C1280 C1282 1.389 . S
C1281 H1260 0.950 . S
C1281 C1280 1.373 . S
C1281 C1297 1.377 . S
C1282 C1280 1.389 . S
C1282 C1283 1.524 . S
C1282 C1296 1.377 . S
C1283 C1282 1.524 . S
C1283 C1284 1.397 . S
C1283 C1288 1.363 . S
C1284 H1261 0.950 . S
C1284 C1283 1.397 . S
C1284 C1285 1.334 . S
C1285 H1262 0.950 . S
C1285 C1284 1.334 . S
C1285 C1286 1.287 . S
C1286 C1285 1.287 . S
C1286 C1287 1.524 . S
C1286 H1305 0.913 . S
C1287 H1263 0.950 . S
C1287 C1286 1.524 . S
C1287 C1288 1.415 . S
C1288 H1264 0.950 . S
C1288 C1283 1.363 . S
C1288 C1287 1.415 . S
C1289 H1265 0.951 . S
C1289 C1290 1.366 . S
C1289 C1291 1.388 . S
C1290 C1289 1.366 . S
C1290 C1294 1.385 . S
C1291 H1266 0.951 . S
C1291 C1289 1.388 . S
C1291 C1292 1.366 . S
C1292 C1291 1.366 . S
C1292 C1293 1.414 . S
C1292 C1295 1.499 . S
C1293 H1267 0.950 . S
C1293 C1292 1.414 . S
C1293 C1294 1.374 . S
C1294 H1268 0.950 . S
C1294 C1290 1.385 . S
C1294 C1293 1.374 . S
C1295 C1292 1.499 . S
C1295 C1296 1.373 . S
C1295 C1297 1.389 . S
C1296 H1269 0.950 . S
C1296 C1282 1.377 . S
C1296 C1295 1.373 . S
C1297 C1281 1.377 . S
C1297 C1295 1.389 . S
C1297 C1298 1.524 . S
C1298 C1297 1.524 . S
C1298 C1299 1.397 . S
C1298 C1303 1.363 . S
C1299 H1270 0.950 . S
C1299 C1298 1.397 . S
C1299 C1300 1.334 . S
C1300 H1271 0.950 . S
C1300 C1299 1.334 . S
C1300 C1301 1.287 . S
C1301 C1300 1.287 . S
C1301 C1302 1.524 . S
C1301 H1304 0.999 . S
C1302 H1272 0.950 . S
C1302 C1301 1.524 . S
C1302 C1303 1.415 . S
C1303 H1273 0.950 . S
C1303 C1298 1.363 . S
C1303 C1302 1.415 . S
H1304 C1301 0.999 . S
H1305 C1286 0.913 . S
H1306 C1324 0.951 . S
H1307 C1326 0.951 . S
H1308 C1328 0.950 . S
H1309 C1329 0.950 . S
H1310 C1331 0.950 . S
H1311 C1334 0.950 . S
H1312 C1335 0.950 . S
H1313 C1337 0.950 . S
H1314 C1338 0.950 . S
H1315 C1339 0.951 . S
H1316 C1341 0.951 . S
H1317 C1343 0.950 . S
H1318 C1344 0.950 . S
H1319 C1346 0.950 . S
H1320 C1349 0.950 . S
H1321 C1350 0.950 . S
H1322 C1352 0.950 . S
H1323 C1353 0.950 . S
C1324 H1306 0.951 . S
C1324 C1325 1.366 1_455 S
C1324 C1326 1.388 . S
C1325 C1324 1.366 1_655 S
C1325 C1329 1.385 . S
C1326 H1307 0.951 . S
C1326 C1324 1.388 . S
C1326 C1327 1.366 1_455 S
C1327 C1326 1.366 1_655 S
C1327 C1328 1.414 . S
C1327 C1330 1.499 . S
C1328 H1308 0.950 . S
C1328 C1327 1.414 . S
C1328 C1329 1.374 . S
C1329 H1309 0.950 . S
C1329 C1325 1.385 . S
C1329 C1328 1.374 . S
C1330 C1327 1.499 . S
C1330 C1331 1.373 . S
C1330 C1332 1.389 1_655 S
C1331 H1310 0.950 . S
C1331 C1330 1.373 . S
C1331 C1347 1.377 . S
C1332 C1330 1.389 1_455 S
C1332 C1333 1.524 . S
C1332 C1346 1.377 . S
C1333 C1332 1.524 . S
C1333 C1334 1.397 . S
C1333 C1338 1.363 . S
C1334 H1311 0.950 . S
C1334 C1333 1.397 . S
C1334 C1335 1.334 . S
C1335 H1312 0.950 . S
C1335 C1334 1.334 . S
C1335 C1336 1.287 . S
C1336 C1335 1.287 . S
C1336 C1337 1.524 . S
C1336 H1355 0.913 . S
C1337 H1313 0.950 . S
C1337 C1336 1.524 . S
C1337 C1338 1.415 . S
C1338 H1314 0.950 . S
C1338 C1333 1.363 . S
C1338 C1337 1.415 . S
C1339 H1315 0.951 . S
C1339 C1340 1.366 1_655 S
C1339 C1341 1.388 . S
C1340 C1339 1.366 1_455 S
C1340 C1344 1.385 . S
C1341 H1316 0.951 . S
C1341 C1339 1.388 . S
C1341 C1342 1.366 1_655 S
C1342 C1341 1.366 1_455 S
C1342 C1343 1.414 . S
C1342 C1345 1.499 . S
C1343 H1317 0.950 . S
C1343 C1342 1.414 . S
C1343 C1344 1.374 . S
C1344 H1318 0.950 . S
C1344 C1340 1.385 . S
C1344 C1343 1.374 . S
C1345 C1342 1.499 . S
C1345 C1346 1.373 . S
C1345 C1347 1.389 1_455 S
C1346 H1319 0.950 . S
C1346 C1332 1.377 . S
C1346 C1345 1.373 . S
C1347 C1331 1.377 . S
C1347 C1345 1.389 1_655 S
C1347 C1348 1.524 . S
C1348 C1347 1.524 . S
C1348 C1349 1.397 . S
C1348 C1353 1.363 . S
C1349 H1320 0.950 . S
C1349 C1348 1.397 . S
C1349 C1350 1.334 . S
C1350 H1321 0.950 . S
C1350 C1349 1.334 . S
C1350 C1351 1.287 . S
C1351 C1350 1.287 . S
C1351 C1352 1.524 . S
C1351 H1354 0.999 . S
C1352 H1322 0.950 . S
C1352 C1351 1.524 . S
C1352 C1353 1.415 . S
C1353 H1323 0.950 . S
C1353 C1348 1.363 . S
C1353 C1352 1.415 . S
H1354 C1351 0.999 . S
H1355 C1336 0.913 . S
C175 C0 1.797 . S
C190 C104 1.797 . S
C225 C13 1.797 . S
C240 C117 1.797 . S
C275 C130 1.797 . S
C290 C26 1.797 . S
C325 C143 1.797 . S
C340 C39 1.797 . S
C375 C78 1.797 . S
C390 C52 1.797 . S
C425 C91 1.797 . S
C440 C65 1.797 . S
C475 C8 1.281 . S
C490 C47 1.280 . S
C525 C60 1.281 . S
C540 C21 1.280 . S
C575 C73 1.281 . S
C590 C34 1.280 . S
C625 C86 1.280 . S
C640 C125 1.281 . S
C675 C138 1.281 . S
C690 C99 1.280 . S
C725 C112 1.280 . S
C740 C151 1.281 . S
C775 C88 0.761 . S
C790 C10 0.761 . S
C825 C23 0.762 . S
C840 C101 0.763 . S
C875 C114 0.763 . S
C890 C36 0.763 . S
C925 C127 0.763 . S
C940 C49 0.763 . S
C975 C62 0.762 . S
C990 C140 0.761 . S
C1025 C153 0.761 . S
C1040 C75 0.762 . S
C1075 C5 0.788 . S
C1090 C96 0.788 . S
C1125 C109 0.787 . S
C1140 C18 0.787 . S
C1175 C122 0.788 . S
C1190 C31 0.788 . S
C1225 C44 0.789 . S
C1240 C135 0.789 . S
C1275 C148 0.789 . S
C1290 C57 0.789 . S
C1325 C83 0.789 . S
C1340 C70 0.789 . S
