# Generated by pormake.
# Topology uoh, (4)-cn, num edge types: 1
# Building blocks:
#     Node 0, Type 0, BuildingBlock: ICAMEG_clean_sbu_1, # of connection points: 4
#     Node 1, Type 0, BuildingBlock: ICAMEG_clean_sbu_1, # of connection points: 4
#     Node 2, Type 0, BuildingBlock: ICAMEG_clean_sbu_1, # of connection points: 4
#     Node 3, Type 0, BuildingBlock: ICAMEG_clean_sbu_1, # of connection points: 4
#     Node 4, Type 0, BuildingBlock: ICAMEG_clean_sbu_1, # of connection points: 4
#     Node 5, Type 0, BuildingBlock: ICAMEG_clean_sbu_1, # of connection points: 4
#     Node 6, Type 0, BuildingBlock: ICAMEG_clean_sbu_1, # of connection points: 4
#     Node 7, Type 0, BuildingBlock: ICAMEG_clean_sbu_1, # of connection points: 4
#     Node 8, Type 0, BuildingBlock: ICAMEG_clean_sbu_1, # of connection points: 4
#     Node 9, Type 0, BuildingBlock: ICAMEG_clean_sbu_1, # of connection points: 4
#     Node 10, Type 0, BuildingBlock: ICAMEG_clean_sbu_1, # of connection points: 4
#     Node 11, Type 0, BuildingBlock: ICAMEG_clean_sbu_1, # of connection points: 4
#     Node 12, Type 0, BuildingBlock: ICAMEG_clean_sbu_1, # of connection points: 4
#     Node 13, Type 0, BuildingBlock: ICAMEG_clean_sbu_1, # of connection points: 4
#     Node 14, Type 0, BuildingBlock: ICAMEG_clean_sbu_1, # of connection points: 4
#     Node 15, Type 0, BuildingBlock: ICAMEG_clean_sbu_1, # of connection points: 4
#     Node 16, Type 0, BuildingBlock: ICAMEG_clean_sbu_1, # of connection points: 4
#     Node 17, Type 0, BuildingBlock: ICAMEG_clean_sbu_1, # of connection points: 4
#     Node 18, Type 0, BuildingBlock: ICAMEG_clean_sbu_1, # of connection points: 4
#     Node 19, Type 0, BuildingBlock: ICAMEG_clean_sbu_1, # of connection points: 4
#     Node 20, Type 0, BuildingBlock: ICAMEG_clean_sbu_1, # of connection points: 4
#     Node 21, Type 0, BuildingBlock: ICAMEG_clean_sbu_1, # of connection points: 4
#     Node 22, Type 0, BuildingBlock: ICAMEG_clean_sbu_1, # of connection points: 4
#     Node 23, Type 0, BuildingBlock: ICAMEG_clean_sbu_1, # of connection points: 4
#     Node 24, Type 0, BuildingBlock: ICAMEG_clean_sbu_1, # of connection points: 4
#     Node 25, Type 0, BuildingBlock: ICAMEG_clean_sbu_1, # of connection points: 4
#     Node 26, Type 0, BuildingBlock: ICAMEG_clean_sbu_1, # of connection points: 4
#     Node 27, Type 0, BuildingBlock: ICAMEG_clean_sbu_1, # of connection points: 4
#     Node 28, Type 0, BuildingBlock: ICAMEG_clean_sbu_1, # of connection points: 4
#     Node 29, Type 0, BuildingBlock: ICAMEG_clean_sbu_1, # of connection points: 4
#     Node 30, Type 0, BuildingBlock: ICAMEG_clean_sbu_1, # of connection points: 4
#     Node 31, Type 0, BuildingBlock: ICAMEG_clean_sbu_1, # of connection points: 4
#     Node 32, Type 0, BuildingBlock: ICAMEG_clean_sbu_1, # of connection points: 4
#     Node 33, Type 0, BuildingBlock: ICAMEG_clean_sbu_1, # of connection points: 4
#     Node 34, Type 0, BuildingBlock: ICAMEG_clean_sbu_1, # of connection points: 4
#     Node 35, Type 0, BuildingBlock: ICAMEG_clean_sbu_1, # of connection points: 4
#     Edge 36, Type (0, 0), BuildingBlock: CIFDUS_clean_linker_0, # of connection points: 2
#     Edge 37, Type (0, 0), BuildingBlock: CIFDUS_clean_linker_0, # of connection points: 2
#     Edge 38, Type (0, 0), BuildingBlock: CIFDUS_clean_linker_0, # of connection points: 2
#     Edge 39, Type (0, 0), BuildingBlock: CIFDUS_clean_linker_0, # of connection points: 2
#     Edge 40, Type (0, 0), BuildingBlock: CIFDUS_clean_linker_0, # of connection points: 2
#     Edge 41, Type (0, 0), BuildingBlock: CIFDUS_clean_linker_0, # of connection points: 2
#     Edge 42, Type (0, 0), BuildingBlock: CIFDUS_clean_linker_0, # of connection points: 2
#     Edge 43, Type (0, 0), BuildingBlock: CIFDUS_clean_linker_0, # of connection points: 2
#     Edge 44, Type (0, 0), BuildingBlock: CIFDUS_clean_linker_0, # of connection points: 2
#     Edge 45, Type (0, 0), BuildingBlock: CIFDUS_clean_linker_0, # of connection points: 2
#     Edge 46, Type (0, 0), BuildingBlock: CIFDUS_clean_linker_0, # of connection points: 2
#     Edge 47, Type (0, 0), BuildingBlock: CIFDUS_clean_linker_0, # of connection points: 2
#     Edge 48, Type (0, 0), BuildingBlock: CIFDUS_clean_linker_0, # of connection points: 2
#     Edge 49, Type (0, 0), BuildingBlock: CIFDUS_clean_linker_0, # of connection points: 2
#     Edge 50, Type (0, 0), BuildingBlock: CIFDUS_clean_linker_0, # of connection points: 2
#     Edge 51, Type (0, 0), BuildingBlock: CIFDUS_clean_linker_0, # of connection points: 2
#     Edge 52, Type (0, 0), BuildingBlock: CIFDUS_clean_linker_0, # of connection points: 2
#     Edge 53, Type (0, 0), BuildingBlock: CIFDUS_clean_linker_0, # of connection points: 2
#     Edge 54, Type (0, 0), BuildingBlock: CIFDUS_clean_linker_0, # of connection points: 2
#     Edge 55, Type (0, 0), BuildingBlock: CIFDUS_clean_linker_0, # of connection points: 2
#     Edge 56, Type (0, 0), BuildingBlock: CIFDUS_clean_linker_0, # of connection points: 2
#     Edge 57, Type (0, 0), BuildingBlock: CIFDUS_clean_linker_0, # of connection points: 2
#     Edge 58, Type (0, 0), BuildingBlock: CIFDUS_clean_linker_0, # of connection points: 2
#     Edge 59, Type (0, 0), BuildingBlock: CIFDUS_clean_linker_0, # of connection points: 2
#     Edge 60, Type (0, 0), BuildingBlock: CIFDUS_clean_linker_0, # of connection points: 2
#     Edge 61, Type (0, 0), BuildingBlock: CIFDUS_clean_linker_0, # of connection points: 2
#     Edge 62, Type (0, 0), BuildingBlock: CIFDUS_clean_linker_0, # of connection points: 2
#     Edge 63, Type (0, 0), BuildingBlock: CIFDUS_clean_linker_0, # of connection points: 2
#     Edge 64, Type (0, 0), BuildingBlock: CIFDUS_clean_linker_0, # of connection points: 2
#     Edge 65, Type (0, 0), BuildingBlock: CIFDUS_clean_linker_0, # of connection points: 2
#     Edge 66, Type (0, 0), BuildingBlock: CIFDUS_clean_linker_0, # of connection points: 2
#     Edge 67, Type (0, 0), BuildingBlock: CIFDUS_clean_linker_0, # of connection points: 2
#     Edge 68, Type (0, 0), BuildingBlock: CIFDUS_clean_linker_0, # of connection points: 2
#     Edge 69, Type (0, 0), BuildingBlock: CIFDUS_clean_linker_0, # of connection points: 2
#     Edge 70, Type (0, 0), BuildingBlock: CIFDUS_clean_linker_0, # of connection points: 2
#     Edge 71, Type (0, 0), BuildingBlock: CIFDUS_clean_linker_0, # of connection points: 2
#     Edge 72, Type (0, 0), BuildingBlock: CIFDUS_clean_linker_0, # of connection points: 2
#     Edge 73, Type (0, 0), BuildingBlock: CIFDUS_clean_linker_0, # of connection points: 2
#     Edge 74, Type (0, 0), BuildingBlock: CIFDUS_clean_linker_0, # of connection points: 2
#     Edge 75, Type (0, 0), BuildingBlock: CIFDUS_clean_linker_0, # of connection points: 2
#     Edge 76, Type (0, 0), BuildingBlock: CIFDUS_clean_linker_0, # of connection points: 2
#     Edge 77, Type (0, 0), BuildingBlock: CIFDUS_clean_linker_0, # of connection points: 2
#     Edge 78, Type (0, 0), BuildingBlock: CIFDUS_clean_linker_0, # of connection points: 2
#     Edge 79, Type (0, 0), BuildingBlock: CIFDUS_clean_linker_0, # of connection points: 2
#     Edge 80, Type (0, 0), BuildingBlock: CIFDUS_clean_linker_0, # of connection points: 2
#     Edge 81, Type (0, 0), BuildingBlock: CIFDUS_clean_linker_0, # of connection points: 2
#     Edge 82, Type (0, 0), BuildingBlock: CIFDUS_clean_linker_0, # of connection points: 2
#     Edge 83, Type (0, 0), BuildingBlock: CIFDUS_clean_linker_0, # of connection points: 2
#     Edge 84, Type (0, 0), BuildingBlock: CIFDUS_clean_linker_0, # of connection points: 2
#     Edge 85, Type (0, 0), BuildingBlock: CIFDUS_clean_linker_0, # of connection points: 2
#     Edge 86, Type (0, 0), BuildingBlock: CIFDUS_clean_linker_0, # of connection points: 2
#     Edge 87, Type (0, 0), BuildingBlock: CIFDUS_clean_linker_0, # of connection points: 2
#     Edge 88, Type (0, 0), BuildingBlock: CIFDUS_clean_linker_0, # of connection points: 2
#     Edge 89, Type (0, 0), BuildingBlock: CIFDUS_clean_linker_0, # of connection points: 2
#     Edge 90, Type (0, 0), BuildingBlock: CIFDUS_clean_linker_0, # of connection points: 2
#     Edge 91, Type (0, 0), BuildingBlock: CIFDUS_clean_linker_0, # of connection points: 2
#     Edge 92, Type (0, 0), BuildingBlock: CIFDUS_clean_linker_0, # of connection points: 2
#     Edge 93, Type (0, 0), BuildingBlock: CIFDUS_clean_linker_0, # of connection points: 2
#     Edge 94, Type (0, 0), BuildingBlock: CIFDUS_clean_linker_0, # of connection points: 2
#     Edge 95, Type (0, 0), BuildingBlock: CIFDUS_clean_linker_0, # of connection points: 2
#     Edge 96, Type (0, 0), BuildingBlock: CIFDUS_clean_linker_0, # of connection points: 2
#     Edge 97, Type (0, 0), BuildingBlock: CIFDUS_clean_linker_0, # of connection points: 2
#     Edge 98, Type (0, 0), BuildingBlock: CIFDUS_clean_linker_0, # of connection points: 2
#     Edge 99, Type (0, 0), BuildingBlock: CIFDUS_clean_linker_0, # of connection points: 2
#     Edge 100, Type (0, 0), BuildingBlock: CIFDUS_clean_linker_0, # of connection points: 2
#     Edge 101, Type (0, 0), BuildingBlock: CIFDUS_clean_linker_0, # of connection points: 2
#     Edge 102, Type (0, 0), BuildingBlock: CIFDUS_clean_linker_0, # of connection points: 2
#     Edge 103, Type (0, 0), BuildingBlock: CIFDUS_clean_linker_0, # of connection points: 2
#     Edge 104, Type (0, 0), BuildingBlock: CIFDUS_clean_linker_0, # of connection points: 2
#     Edge 105, Type (0, 0), BuildingBlock: CIFDUS_clean_linker_0, # of connection points: 2
#     Edge 106, Type (0, 0), BuildingBlock: CIFDUS_clean_linker_0, # of connection points: 2
#     Edge 107, Type (0, 0), BuildingBlock: CIFDUS_clean_linker_0, # of connection points: 2
# Relax obj value: 0.038
# Max RMSD: 0.080
# Mean RMSD: 0.080
data_MOF--net-uoh--node1-ICAMEG_clean_sbu_1--edge1-CIFDUS_clean_linker_0
_symmetry_space_group_name_H-M    P1
_symmetry_Int_Tables_number       1
_symmetry_cell_setting            triclinic
loop_
_symmetry_equiv_pos_as_xyz
'x, y, z'
_cell_length_a     84.078211
_cell_length_b     84.085965
_cell_length_c     26.495578
_cell_angle_alpha  89.998883
_cell_angle_beta   90.015807
_cell_angle_gamma 120.02252
loop_
_atom_site_label
_atom_site_type_symbol
_atom_site_fract_x
_atom_site_fract_y
_atom_site_fract_z
_atom_type_partial_charge
Co0 Co 0.24737 0.12751 0.22897 0.0
Co1 Co 0.26253 0.17206 0.19426 0.0
O2 O 0.24846 0.15111 0.23892 0.0
C3 C 0.25745 0.13663 0.33609 0.0
O4 O 0.26979 0.15298 0.31992 0.0
C5 C 0.22657 0.17104 0.20881 0.0
O6 O 0.21769 0.15303 0.20664 0.0
O7 O 0.24881 0.15691 0.13492 0.0
O8 O 0.2477 0.13027 0.15314 0.0
H9 H 0.299 0.20327 0.03862 0.0
H10 H 0.2198 0.12894 0.29574 0.0
O11 O 0.24718 0.1243 0.30448 0.0
H12 H 0.18402 0.0856 0.15987 0.0
H13 H 0.22536 0.06114 0.26863 0.0
H14 H 0.26619 0.11396 0.16151 0.0
H15 H 0.21782 0.10051 0.16126 0.0
H16 H 0.22659 0.09091 0.27874 0.0
O17 O 0.24396 0.18012 0.20344 0.0
H18 H 0.28165 0.17721 0.09643 0.0
H19 H 0.2726 0.21152 0.19588 0.0
H20 H 0.26527 0.08442 0.14981 0.0
H21 H 0.18601 0.11415 0.29618 0.0
H22 H 0.24474 0.05774 0.20362 0.0
H23 H 0.16789 0.09235 0.22777 0.0
O24 O 0.27463 0.13975 0.22874 0.0
H25 H 0.26832 0.19646 0.37054 0.0
H26 H 0.30224 0.19692 0.21822 0.0
H27 H 0.31938 0.2149 0.2927 0.0
H28 H 0.30241 0.21479 0.36955 0.0
H29 H 0.25172 0.17847 0.29546 0.0
H30 H 0.28972 0.23792 0.13891 0.0
H31 H 0.30314 0.2339 0.05973 0.0
O32 O 0.2819 0.1651 0.18405 0.0
C33 C 0.24671 0.14136 0.12186 0.0
C34 C 0.29326 0.20521 0.07306 0.0
C35 C 0.28803 0.22465 0.12931 0.0
N36 N 0.27619 0.19285 0.14961 0.0
C37 C 0.28344 0.19051 0.106 0.0
C38 C 0.2783 0.20963 0.16136 0.0
C39 C 0.29556 0.22238 0.0849 0.0
C40 C 0.212 0.11932 0.26616 0.0
N41 N 0.22077 0.11555 0.22862 0.0
C42 C 0.19288 0.11105 0.26647 0.0
C43 C 0.18272 0.09885 0.22802 0.0
C44 C 0.19176 0.09507 0.18988 0.0
C45 C 0.21091 0.10361 0.19076 0.0
C46 C 0.23432 0.07265 0.24485 0.0
C47 C 0.25711 0.10238 0.18477 0.0
C48 C 0.23509 0.08954 0.25044 0.0
N49 N 0.2463 0.10409 0.22034 0.0
C50 C 0.2567 0.0857 0.17811 0.0
C51 C 0.24519 0.07075 0.20836 0.0
C52 C 0.28601 0.15371 0.20326 0.0
C53 C 0.27587 0.19668 0.33722 0.0
C54 C 0.29474 0.19671 0.25158 0.0
C55 C 0.30453 0.20698 0.29359 0.0
C56 C 0.295 0.20692 0.33667 0.0
N57 N 0.27598 0.18668 0.2524 0.0
C58 C 0.26654 0.18659 0.29448 0.0
Co59 Co 0.87839 0.12453 0.21465 0.0
Co60 Co 0.83309 0.09231 0.19603 0.0
O61 O 0.8564 0.10127 0.232 0.0
C62 C 0.8753 0.12658 0.32469 0.0
O63 O 0.85761 0.11989 0.31808 0.0
C64 C 0.83779 0.05923 0.19958 0.0
O65 O 0.85474 0.06925 0.18342 0.0
O66 O 0.84548 0.09428 0.13016 0.0
O67 O 0.87184 0.12081 0.14172 0.0
H68 H 0.79228 0.09255 0.05781 0.0
H69 H 0.88223 0.09734 0.27668 0.0
O70 O 0.88573 0.12919 0.2872 0.0
H71 H 0.91933 0.10607 0.12414 0.0
H72 H 0.94529 0.17271 0.22757 0.0
H73 H 0.88595 0.15579 0.14755 0.0
H74 H 0.90293 0.1233 0.13525 0.0
H75 H 0.91757 0.14321 0.24766 0.0
O76 O 0.82763 0.06637 0.20504 0.0
H77 H 0.82141 0.10393 0.10419 0.0
H78 H 0.79515 0.0607 0.21084 0.0
H79 H 0.91334 0.18534 0.126 0.0
H80 H 0.89854 0.07995 0.26732 0.0
H81 H 0.9433 0.19397 0.16614 0.0
H82 H 0.91722 0.08424 0.19054 0.0
O83 O 0.86454 0.13786 0.22208 0.0
H84 H 0.81839 0.0745 0.37838 0.0
H85 H 0.80756 0.10471 0.23354 0.0
H86 H 0.79282 0.10319 0.3152 0.0
H87 H 0.79815 0.08795 0.38832 0.0
H88 H 0.83306 0.07653 0.29623 0.0
H89 H 0.76577 0.04876 0.16533 0.0
H90 H 0.76418 0.06477 0.08834 0.0
O91 O 0.83754 0.11792 0.18681 0.0
C92 C 0.85995 0.10826 0.1133 0.0
C93 C 0.79278 0.08548 0.09137 0.0
C94 C 0.77791 0.06089 0.15168 0.0
N95 N 0.80997 0.08306 0.16034 0.0
C96 C 0.80923 0.09188 0.11786 0.0
C97 C 0.7946 0.06768 0.17721 0.0
C98 C 0.77703 0.06988 0.1085 0.0
C99 C 0.89048 0.09941 0.2434 0.0
N100 N 0.89172 0.11139 0.20673 0.0
C101 C 0.89962 0.08947 0.23821 0.0
C102 C 0.91007 0.09186 0.19508 0.0
C103 C 0.91125 0.1041 0.15779 0.0
C104 C 0.9019 0.11378 0.16424 0.0
C105 C 0.93234 0.16907 0.20966 0.0
C106 C 0.89896 0.15936 0.16478 0.0
C107 C 0.91659 0.15239 0.22091 0.0
N108 N 0.9002 0.14766 0.19821 0.0
C109 C 0.91441 0.17615 0.15261 0.0
C110 C 0.93121 0.18099 0.1752 0.0
C111 C 0.84914 0.13398 0.20249 0.0
C112 C 0.81591 0.08112 0.34676 0.0
C113 C 0.81005 0.09816 0.26523 0.0
C114 C 0.80161 0.09728 0.31135 0.0
C115 C 0.80459 0.08871 0.35234 0.0
N116 N 0.82114 0.09069 0.26005 0.0
C117 C 0.8241 0.08223 0.30006 0.0
Co118 Co 0.88345 0.76092 0.23438 0.0
Co119 Co 0.91352 0.74728 0.19296 0.0
O120 O 0.90638 0.76046 0.24026 0.0
C121 C 0.88292 0.74907 0.33876 0.0
O122 O 0.88774 0.73757 0.32058 0.0
C123 C 0.9469 0.78461 0.20088 0.0
O124 O 0.93659 0.79198 0.19227 0.0
O125 O 0.90975 0.75994 0.13415 0.0
O126 O 0.88527 0.76179 0.15956 0.0
H127 H 0.90759 0.71091 0.03654 0.0
H128 H 0.91296 0.78783 0.30105 0.0
O129 O 0.88084 0.75983 0.30937 0.0
H130 H 0.90281 0.82494 0.17479 0.0
H131 H 0.83805 0.78048 0.28482 0.0
H132 H 0.85062 0.74234 0.16835 0.0
H133 H 0.88439 0.79111 0.17287 0.0
H134 H 0.86716 0.78013 0.29027 0.0
O135 O 0.93988 0.76722 0.1998 0.0
H136 H 0.89836 0.72707 0.09706 0.0
H137 H 0.94495 0.74026 0.18812 0.0
H138 H 0.8214 0.7424 0.16131 0.0
H139 H 0.93159 0.82164 0.30463 0.0
H140 H 0.81496 0.76157 0.21983 0.0
H141 H 0.92659 0.84042 0.24109 0.0
O142 O 0.86905 0.73364 0.23106 0.0
H143 H 0.93633 0.74355 0.36553 0.0
H144 H 0.90154 0.70814 0.21637 0.0
H145 H 0.90502 0.6919 0.28924 0.0
H146 H 0.92256 0.70963 0.36448 0.0
H147 H 0.93234 0.75922 0.29211 0.0
H148 H 0.95475 0.72433 0.12839 0.0
H149 H 0.93598 0.70946 0.05205 0.0
O150 O 0.88745 0.72675 0.1862 0.0
C151 C 0.89617 0.76238 0.12528 0.0
C152 C 0.91587 0.7173 0.06973 0.0
C153 C 0.94235 0.72486 0.12125 0.0
N154 N 0.92105 0.73453 0.14621 0.0
C155 C 0.91069 0.72644 0.1042 0.0
C156 C 0.93675 0.7339 0.15487 0.0
C157 C 0.9318 0.7165 0.07843 0.0
C158 C 0.91059 0.79593 0.27357 0.0
N159 N 0.89755 0.78752 0.23697 0.0
C160 C 0.92123 0.81506 0.27566 0.0
C161 C 0.91843 0.82559 0.23994 0.0
C162 C 0.90511 0.81691 0.20271 0.0
C163 C 0.89475 0.79775 0.20174 0.0
C164 C 0.84072 0.77211 0.25902 0.0
C165 C 0.84798 0.75082 0.19374 0.0
C166 C 0.85716 0.77183 0.26198 0.0
N167 N 0.86066 0.76136 0.22936 0.0
C168 C 0.83138 0.75075 0.18967 0.0
C169 C 0.82777 0.7615 0.22255 0.0
C170 C 0.87193 0.72238 0.20587 0.0
C171 C 0.92871 0.73568 0.3329 0.0
C172 C 0.90913 0.71596 0.24903 0.0
C173 C 0.9111 0.70669 0.29013 0.0
C174 C 0.92095 0.71664 0.33232 0.0
N175 N 0.91679 0.73463 0.24984 0.0
C176 C 0.92648 0.74449 0.29108 0.0
Co177 Co 0.13147 0.24546 0.28789 0.0
Co178 Co 0.17459 0.2545 0.32027 0.0
O179 O 0.15306 0.24292 0.27641 0.0
C180 C 0.1405 0.25485 0.18005 0.0
O181 O 0.1574 0.26582 0.19544 0.0
C182 C 0.16812 0.21623 0.30694 0.0
O183 O 0.1507 0.20922 0.31852 0.0
O184 O 0.15891 0.24199 0.38016 0.0
O185 O 0.13451 0.24529 0.36354 0.0
H186 H 0.20979 0.28783 0.47565 0.0
H187 H 0.12846 0.21576 0.22122 0.0
O188 O 0.12796 0.24568 0.2124 0.0
H189 H 0.08356 0.18433 0.35761 0.0
H190 H 0.0673 0.23257 0.25191 0.0
H191 H 0.12257 0.2677 0.35688 0.0
H192 H 0.10234 0.21814 0.35587 0.0
H193 H 0.0945 0.22909 0.23994 0.0
O194 O 0.17895 0.23352 0.30816 0.0
H195 H 0.18297 0.27378 0.41885 0.0
H196 H 0.21204 0.25882 0.31609 0.0
H197 H 0.09564 0.27149 0.3704 0.0
H198 H 0.10985 0.18193 0.22122 0.0
H199 H 0.06774 0.25384 0.31768 0.0
H200 H 0.08724 0.166 0.28985 0.0
O201 O 0.14703 0.27273 0.28843 0.0
H202 H 0.19663 0.25781 0.14217 0.0
H203 H 0.20353 0.29312 0.29725 0.0
H204 H 0.22224 0.30901 0.22256 0.0
H205 H 0.21889 0.29132 0.14431 0.0
H206 H 0.178 0.24251 0.21749 0.0
H207 H 0.23913 0.2726 0.37197 0.0
H208 H 0.23814 0.2873 0.45232 0.0
O209 O 0.17131 0.27619 0.33254 0.0
C210 C 0.14456 0.24237 0.39423 0.0
C211 C 0.21041 0.2815 0.44068 0.0
C212 C 0.22687 0.27294 0.38253 0.0
N213 N 0.19596 0.26558 0.36404 0.0
C214 C 0.19527 0.27355 0.40831 0.0
C215 C 0.21146 0.26511 0.35109 0.0
C216 C 0.2263 0.28119 0.42759 0.0
C217 C 0.11853 0.20893 0.25094 0.0
N218 N 0.11641 0.21891 0.28831 0.0
C219 C 0.10808 0.18977 0.25086 0.0
C220 C 0.09542 0.18084 0.28942 0.0
C221 C 0.09336 0.19111 0.32747 0.0
C222 C 0.10406 0.21025 0.32635 0.0
C223 C 0.07935 0.24029 0.27522 0.0
C224 C 0.11043 0.25986 0.33407 0.0
C225 C 0.0948 0.2384 0.26856 0.0
N226 N 0.11003 0.24804 0.29805 0.0
C227 C 0.09525 0.26211 0.34177 0.0
C228 C 0.07961 0.25223 0.31214 0.0
C229 C 0.16159 0.28252 0.31409 0.0
C230 C 0.19826 0.26566 0.17608 0.0
C231 C 0.2019 0.28534 0.26329 0.0
C232 C 0.21259 0.29441 0.22115 0.0
C233 C 0.21072 0.28447 0.17728 0.0
N234 N 0.18969 0.26689 0.26183 0.0
C235 C 0.18781 0.25705 0.21896 0.0
Co236 Co 0.76037 0.88852 0.27573 0.0
Co237 Co 0.74404 0.91805 0.29793 0.0
O238 O 0.75915 0.91065 0.25898 0.0
C239 C 0.75222 0.88444 0.16729 0.0
O240 O 0.74035 0.88992 0.17603 0.0
C241 C 0.77994 0.9535 0.28298 0.0
O242 O 0.78927 0.94484 0.28558 0.0
O243 O 0.75647 0.9177 0.36171 0.0
O244 O 0.7588 0.89256 0.34899 0.0
H245 H 0.70415 0.91455 0.44364 0.0
H246 H 0.78873 0.91607 0.20767 0.0
O247 O 0.76178 0.88347 0.20292 0.0
H248 H 0.82273 0.91269 0.35509 0.0
H249 H 0.78435 0.84459 0.2583 0.0
H250 H 0.73999 0.85712 0.34559 0.0
H251 H 0.78902 0.8933 0.35053 0.0
H252 H 0.78289 0.87251 0.23873 0.0
O253 O 0.76251 0.94473 0.28766 0.0
H254 H 0.72296 0.90539 0.3935 0.0
H255 H 0.73348 0.94687 0.28552 0.0
H256 H 0.74111 0.82914 0.36669 0.0
H257 H 0.82247 0.93553 0.21036 0.0
H258 H 0.76343 0.82273 0.3229 0.0
H259 H 0.83969 0.93395 0.28457 0.0
O260 O 0.73312 0.87314 0.27314 0.0
H261 H 0.74191 0.93372 0.11595 0.0
H262 H 0.70488 0.9023 0.2663 0.0
H263 H 0.6893 0.90173 0.18691 0.0
H264 H 0.70785 0.91756 0.11103 0.0
H265 H 0.75692 0.93375 0.19594 0.0
H266 H 0.71492 0.95658 0.33476 0.0
H267 H 0.70003 0.94032 0.41434 0.0
O268 O 0.72467 0.89182 0.30947 0.0
C269 C 0.75875 0.90466 0.3778 0.0
C270 C 0.71054 0.92172 0.40899 0.0
C271 C 0.7166 0.94533 0.34791 0.0
N272 N 0.72926 0.92553 0.33651 0.0
C273 C 0.72119 0.91658 0.38038 0.0
C274 C 0.72715 0.9398 0.32027 0.0
C275 C 0.70825 0.93619 0.39255 0.0
C276 C 0.79615 0.91517 0.23983 0.0
N277 N 0.78692 0.90353 0.2788 0.0
C278 C 0.81524 0.92628 0.24126 0.0
C279 C 0.82489 0.92541 0.28295 0.0
C280 C 0.81538 0.9135 0.32256 0.0
C281 C 0.79628 0.90261 0.31985 0.0
C282 C 0.77464 0.84728 0.27784 0.0
C283 C 0.74988 0.85454 0.32681 0.0
C284 C 0.77374 0.86307 0.26693 0.0
N285 N 0.76159 0.86662 0.29169 0.0
C286 C 0.75039 0.83862 0.33871 0.0
C287 C 0.76289 0.83502 0.31408 0.0
C288 C 0.72117 0.87599 0.29448 0.0
C289 C 0.73368 0.92683 0.14881 0.0
C290 C 0.71305 0.90915 0.23341 0.0
C291 C 0.70415 0.90883 0.18859 0.0
C292 C 0.71457 0.91773 0.14604 0.0
N293 N 0.73181 0.91812 0.23585 0.0
C294 C 0.74211 0.92689 0.19429 0.0
Co295 Co 0.11572 0.87416 0.26539 0.0
Co296 Co 0.08714 0.83008 0.30721 0.0
O297 O 0.09336 0.85014 0.25934 0.0
C298 C 0.11709 0.86327 0.161 0.0
O299 O 0.11298 0.84714 0.17918 0.0
C300 C 0.05178 0.83053 0.29232 0.0
O301 O 0.06083 0.84855 0.29117 0.0
O302 O 0.08969 0.84634 0.36532 0.0
O303 O 0.11375 0.87309 0.34029 0.0
H304 H 0.09501 0.80183 0.46558 0.0
H305 H 0.08613 0.87057 0.19728 0.0
O306 O 0.1185 0.87586 0.19038 0.0
H307 H 0.09348 0.9166 0.32442 0.0
H308 H 0.15899 0.9398 0.21546 0.0
H309 H 0.14848 0.88973 0.332 0.0
H310 H 0.1129 0.9023 0.32728 0.0
H311 H 0.1307 0.90961 0.20959 0.0
O312 O 0.06026 0.82174 0.30031 0.0
H313 H 0.10283 0.82671 0.40424 0.0
H314 H 0.0577 0.79065 0.31205 0.0
H315 H 0.17688 0.91974 0.33945 0.0
H316 H 0.06656 0.88469 0.19262 0.0
H317 H 0.18229 0.94504 0.2809 0.0
H318 H 0.07014 0.90784 0.25663 0.0
O319 O 0.13122 0.86243 0.269 0.0
H320 H 0.06615 0.80268 0.13456 0.0
H321 H 0.10146 0.80467 0.28542 0.0
H322 H 0.09955 0.78535 0.2131 0.0
H323 H 0.08176 0.78424 0.13699 0.0
H324 H 0.06859 0.82199 0.20749 0.0
H325 H 0.04931 0.7654 0.37258 0.0
H326 H 0.06807 0.7709 0.44994 0.0
O327 O 0.1136 0.83722 0.31488 0.0
C328 C 0.10291 0.86256 0.37441 0.0
C329 C 0.08674 0.79926 0.43199 0.0
C330 C 0.06108 0.77882 0.37984 0.0
N331 N 0.08074 0.81016 0.35457 0.0
C332 C 0.09111 0.81329 0.39708 0.0
C333 C 0.06585 0.7932 0.34578 0.0
C334 C 0.07162 0.78191 0.42321 0.0
C335 C 0.08789 0.88078 0.22494 0.0
N336 N 0.10067 0.88564 0.26241 0.0
C337 C 0.07672 0.88866 0.22225 0.0
C338 C 0.07871 0.90162 0.25823 0.0
C339 C 0.09179 0.90653 0.29632 0.0
C340 C 0.1027 0.89833 0.29786 0.0
C341 C 0.15677 0.9289 0.24128 0.0
C342 C 0.15067 0.9007 0.30658 0.0
C343 C 0.1408 0.91177 0.23809 0.0
N344 N 0.13787 0.89797 0.27071 0.0
C345 C 0.16681 0.91765 0.31089 0.0
C346 C 0.16984 0.93183 0.278 0.0
C347 C 0.12896 0.84872 0.29515 0.0
C348 C 0.07389 0.803 0.16759 0.0
C349 C 0.09375 0.80432 0.2524 0.0
C350 C 0.09267 0.79331 0.2116 0.0
C351 C 0.08268 0.79268 0.16893 0.0
N352 N 0.08507 0.81439 0.25084 0.0
C353 C 0.07524 0.81383 0.20912 0.0
Co354 Co 0.75867 0.87922 0.76521 0.0
Co355 Co 0.74706 0.83615 0.80689 0.0
O356 O 0.75993 0.85671 0.76014 0.0
C357 C 0.74931 0.8683 0.65952 0.0
O358 O 0.73823 0.85159 0.67597 0.0
C359 C 0.78514 0.84155 0.80615 0.0
O360 O 0.79193 0.85878 0.81954 0.0
O361 O 0.75874 0.85278 0.86595 0.0
O362 O 0.75829 0.87794 0.83997 0.0
H363 H 0.71019 0.80438 0.96151 0.0
H364 H 0.78789 0.87888 0.70365 0.0
O365 O 0.75888 0.88115 0.69033 0.0
H366 H 0.82044 0.92648 0.83317 0.0
H367 H 0.77517 0.94347 0.7154 0.0
H368 H 0.737 0.89105 0.82698 0.0
H369 H 0.78658 0.90927 0.83003 0.0
H370 H 0.77715 0.91521 0.71142 0.0
O371 O 0.76785 0.83102 0.80165 0.0
H372 H 0.72598 0.83008 0.90163 0.0
H373 H 0.74183 0.79837 0.81225 0.0
H374 H 0.73467 0.91909 0.83246 0.0
H375 H 0.82178 0.89585 0.7052 0.0
H376 H 0.75385 0.94556 0.7764 0.0
H377 H 0.83827 0.91982 0.77037 0.0
O378 O 0.73136 0.86482 0.76472 0.0
H379 H 0.74603 0.81033 0.63499 0.0
H380 H 0.70856 0.80762 0.78142 0.0
H381 H 0.69356 0.78761 0.70805 0.0
H382 H 0.71234 0.78885 0.63419 0.0
H383 H 0.76045 0.83028 0.70886 0.0
H384 H 0.7263 0.77237 0.87138 0.0
H385 H 0.71027 0.77526 0.94654 0.0
O386 O 0.72568 0.8404 0.81203 0.0
C387 C 0.75971 0.8682 0.87452 0.0
C388 C 0.71708 0.80294 0.92883 0.0
C389 C 0.72615 0.78498 0.87828 0.0
N390 N 0.73471 0.81569 0.8533 0.0
C391 C 0.72602 0.81743 0.89472 0.0
C392 C 0.73495 0.79977 0.84499 0.0
C393 C 0.71715 0.78661 0.92043 0.0
C394 C 0.79499 0.8894 0.73185 0.0
N395 N 0.78529 0.89317 0.76648 0.0
C396 C 0.81417 0.89892 0.73265 0.0
C397 C 0.82341 0.91235 0.76928 0.0
C398 C 0.81342 0.91609 0.80454 0.0
C399 C 0.79425 0.90628 0.80263 0.0
C400 C 0.76678 0.93205 0.74014 0.0
C401 C 0.74549 0.90256 0.80271 0.0
C402 C 0.76783 0.91601 0.73803 0.0
N403 N 0.75735 0.90157 0.76933 0.0
C404 C 0.74407 0.91838 0.80588 0.0
C405 C 0.75482 0.93322 0.77438 0.0
C406 C 0.72053 0.85065 0.79047 0.0
C407 C 0.73771 0.80962 0.66702 0.0
C408 C 0.71683 0.80832 0.74935 0.0
C409 C 0.70826 0.79691 0.70796 0.0
C410 C 0.7188 0.79759 0.66655 0.0
N411 N 0.73539 0.82007 0.74956 0.0
C412 C 0.74581 0.82082 0.70908 0.0
Co413 Co 0.1273 0.87916 0.77516 0.0
Co414 Co 0.17116 0.91409 0.79687 0.0
O415 O 0.14834 0.90318 0.75747 0.0
C416 C 0.13122 0.87701 0.66463 0.0
O417 O 0.14911 0.88598 0.67054 0.0
C418 C 0.16501 0.94632 0.78592 0.0
O419 O 0.14799 0.93645 0.80178 0.0
O420 O 0.15724 0.91218 0.85983 0.0
O421 O 0.13294 0.88404 0.84843 0.0
H422 H 0.21056 0.91891 0.94533 0.0
H423 H 0.12175 0.9043 0.70876 0.0
O424 O 0.12064 0.87324 0.7024 0.0
H425 H 0.08181 0.89363 0.85613 0.0
H426 H 0.06211 0.82698 0.76015 0.0
H427 H 0.12156 0.84948 0.84628 0.0
H428 H 0.10055 0.87864 0.85024 0.0
H429 H 0.08847 0.8574 0.73949 0.0
O430 O 0.17532 0.93929 0.78295 0.0
H431 H 0.18223 0.90515 0.89436 0.0
H432 H 0.20849 0.94694 0.78378 0.0
H433 H 0.09554 0.81907 0.86839 0.0
H434 H 0.10311 0.91945 0.71292 0.0
H435 H 0.06552 0.80762 0.82519 0.0
H436 H 0.08299 0.91416 0.78707 0.0
O437 O 0.14306 0.86768 0.77203 0.0
H438 H 0.18884 0.93017 0.61495 0.0
H439 H 0.19909 0.90356 0.76887 0.0
H440 H 0.21589 0.90519 0.69104 0.0
H441 H 0.21086 0.91863 0.61337 0.0
H442 H 0.17209 0.92799 0.69339 0.0
H443 H 0.23706 0.96123 0.83377 0.0
H444 H 0.23824 0.94716 0.91509 0.0
O445 O 0.16821 0.88939 0.81121 0.0
C446 C 0.14341 0.89756 0.87665 0.0
C447 C 0.21023 0.92515 0.90991 0.0
C448 C 0.22509 0.94891 0.84733 0.0
N449 N 0.1937 0.92517 0.83601 0.0
C450 C 0.19422 0.9174 0.88082 0.0
C451 C 0.20885 0.94078 0.81925 0.0
C452 C 0.22575 0.94101 0.89294 0.0
C453 C 0.1129 0.90181 0.74092 0.0
N454 N 0.11214 0.8905 0.779 0.0
C455 C 0.10243 0.91048 0.74316 0.0
C456 C 0.09116 0.90753 0.78481 0.0
C457 C 0.0905 0.89601 0.82359 0.0
C458 C 0.10118 0.8876 0.82008 0.0
C459 C 0.07509 0.83184 0.77937 0.0
C460 C 0.10852 0.84468 0.82762 0.0
C461 C 0.09008 0.84905 0.7678 0.0
N462 N 0.10649 0.85533 0.79213 0.0
C463 C 0.09384 0.82741 0.84017 0.0
C464 C 0.07702 0.82099 0.81587 0.0
C465 C 0.15817 0.87297 0.79545 0.0
C466 C 0.19118 0.92432 0.64857 0.0
C467 C 0.19668 0.90927 0.73515 0.0
C468 C 0.20631 0.91024 0.69123 0.0
C469 C 0.20351 0.91781 0.64769 0.0
N470 N 0.18459 0.91566 0.73572 0.0
C471 C 0.1818 0.92313 0.69319 0.0
Co472 Co 0.12051 0.24527 0.788 0.0
Co473 Co 0.08661 0.25468 0.81925 0.0
O474 O 0.09649 0.24287 0.7763 0.0
C475 C 0.12093 0.25455 0.68014 0.0
O476 O 0.11524 0.2657 0.69551 0.0
C477 C 0.05469 0.21623 0.81095 0.0
O478 O 0.06481 0.20959 0.8284 0.0
O479 O 0.08986 0.24258 0.88004 0.0
O480 O 0.11734 0.2453 0.86357 0.0
H481 H 0.08471 0.28892 0.97246 0.0
H482 H 0.09349 0.21551 0.72201 0.0
O483 O 0.12418 0.24531 0.71252 0.0
H484 H 0.10679 0.18415 0.85896 0.0
H485 H 0.17145 0.23183 0.7527 0.0
H486 H 0.15175 0.26748 0.85681 0.0
H487 H 0.12217 0.21798 0.85643 0.0
H488 H 0.14086 0.22857 0.74056 0.0
O489 O 0.06128 0.23351 0.80727 0.0
H490 H 0.09754 0.27462 0.91686 0.0
H491 H 0.05332 0.25869 0.81407 0.0
H492 H 0.18238 0.27106 0.87052 0.0
H493 H 0.07789 0.18166 0.72286 0.0
H494 H 0.19241 0.25315 0.81823 0.0
H495 H 0.0845 0.16577 0.79176 0.0
O496 O 0.13241 0.27254 0.78816 0.0
H497 H 0.06787 0.25702 0.64043 0.0
H498 H 0.09623 0.29314 0.79448 0.0
H499 H 0.09336 0.30862 0.7189 0.0
H500 H 0.07905 0.29052 0.64118 0.0
H501 H 0.07125 0.24214 0.71661 0.0
H502 H 0.03995 0.27271 0.86876 0.0
H503 H 0.05571 0.28803 0.94851 0.0
O504 O 0.11163 0.27648 0.83097 0.0
C505 C 0.10449 0.24276 0.89422 0.0
C506 C 0.07774 0.28233 0.93774 0.0
C507 C 0.05261 0.27322 0.87957 0.0
N508 N 0.07627 0.26594 0.86209 0.0
C509 C 0.08497 0.27424 0.90604 0.0
C510 C 0.06023 0.26526 0.84881 0.0
C511 C 0.06146 0.28181 0.9243 0.0
C512 C 0.09655 0.20869 0.75186 0.0
N513 N 0.10882 0.2187 0.7889 0.0
C514 C 0.08763 0.18952 0.75226 0.0
C515 C 0.09132 0.18061 0.79096 0.0
C516 C 0.10382 0.19092 0.82869 0.0
C517 C 0.11246 0.21006 0.82711 0.0
C518 C 0.16722 0.23967 0.77583 0.0
C519 C 0.15595 0.25953 0.8342 0.0
C520 C 0.14993 0.2379 0.76907 0.0
N521 N 0.14446 0.24768 0.79833 0.0
C522 C 0.17334 0.26167 0.842 0.0
C523 C 0.17897 0.25163 0.8126 0.0
C524 C 0.12774 0.28256 0.81304 0.0
C525 C 0.07407 0.26505 0.67412 0.0
C526 C 0.09008 0.28518 0.76075 0.0
C527 C 0.08843 0.29401 0.71811 0.0
C528 C 0.08038 0.28385 0.67453 0.0
N529 N 0.08386 0.26673 0.76008 0.0
C530 C 0.07594 0.25668 0.71748 0.0
Co531 Co 0.87191 0.75464 0.72436 0.0
Co532 Co 0.82766 0.74526 0.70311 0.0
O533 O 0.85081 0.7578 0.74136 0.0
C534 C 0.86803 0.74902 0.83491 0.0
O535 O 0.85015 0.73993 0.82889 0.0
C536 C 0.83249 0.78307 0.72664 0.0
O537 O 0.84963 0.78995 0.74101 0.0
O538 O 0.84119 0.75606 0.63889 0.0
O539 O 0.86613 0.75334 0.6511 0.0
H540 H 0.78768 0.70782 0.55866 0.0
H541 H 0.87834 0.78581 0.79023 0.0
O542 O 0.87863 0.75583 0.79717 0.0
H543 H 0.91712 0.81405 0.64027 0.0
H544 H 0.93715 0.7679 0.74003 0.0
H545 H 0.87768 0.73043 0.6544 0.0
H546 H 0.89808 0.78038 0.64743 0.0
H547 H 0.91076 0.77196 0.76002 0.0
O548 O 0.82324 0.76652 0.7112 0.0
H549 H 0.81625 0.72351 0.60843 0.0
H550 H 0.79021 0.74059 0.71549 0.0
H551 H 0.90374 0.72602 0.63298 0.0
H552 H 0.89736 0.81955 0.78491 0.0
H553 H 0.93376 0.74484 0.67594 0.0
H554 H 0.91689 0.83388 0.70943 0.0
O555 O 0.85634 0.7274 0.72888 0.0
H556 H 0.8117 0.74692 0.88531 0.0
H557 H 0.79949 0.70751 0.73592 0.0
H558 H 0.78319 0.69377 0.81544 0.0
H559 H 0.78919 0.71353 0.89085 0.0
H560 H 0.82793 0.76002 0.80534 0.0
H561 H 0.76141 0.72522 0.66659 0.0
H562 H 0.76 0.70862 0.58766 0.0
O563 O 0.83047 0.72325 0.69282 0.0
C564 C 0.85526 0.75565 0.62251 0.0
C565 C 0.78812 0.71498 0.59303 0.0
C566 C 0.77338 0.72476 0.65357 0.0
N567 N 0.80491 0.73292 0.66494 0.0
C568 C 0.80425 0.72388 0.62143 0.0
C569 C 0.78975 0.73349 0.68102 0.0
C570 C 0.77259 0.71545 0.6093 0.0
C571 C 0.88692 0.79194 0.75746 0.0
N572 N 0.8871 0.78114 0.71924 0.0
C573 C 0.89761 0.81105 0.75457 0.0
C574 C 0.90854 0.81909 0.71218 0.0
C575 C 0.90866 0.80797 0.67334 0.0
C576 C 0.89778 0.78891 0.67751 0.0
C577 C 0.92416 0.75966 0.72094 0.0
C578 C 0.89072 0.73878 0.67297 0.0
C579 C 0.90915 0.76188 0.73214 0.0
N580 N 0.89273 0.75158 0.70798 0.0
C581 C 0.90542 0.73617 0.66081 0.0
C582 C 0.92225 0.74672 0.68497 0.0
C583 C 0.84087 0.7172 0.70764 0.0
C584 C 0.80889 0.73818 0.85264 0.0
C585 C 0.80228 0.7162 0.76857 0.0
C586 C 0.79294 0.70834 0.81349 0.0
C587 C 0.79629 0.71944 0.85576 0.0
N588 N 0.81457 0.73462 0.7657 0.0
C589 C 0.81794 0.74556 0.80706 0.0
Co590 Co 0.24673 0.11622 0.72892 0.0
Co591 Co 0.26211 0.08698 0.69402 0.0
O592 O 0.24799 0.09378 0.73869 0.0
C593 C 0.25715 0.11736 0.83586 0.0
O594 O 0.26946 0.11337 0.81941 0.0
C595 C 0.22599 0.05201 0.70617 0.0
O596 O 0.21723 0.06124 0.70349 0.0
O597 O 0.24852 0.08852 0.63455 0.0
O598 O 0.2469 0.11376 0.65311 0.0
H599 H 0.29891 0.09258 0.53883 0.0
H600 H 0.21949 0.08712 0.79609 0.0
O601 O 0.24674 0.11931 0.80448 0.0
H602 H 0.18312 0.09425 0.66118 0.0
H603 H 0.2244 0.16024 0.76942 0.0
H604 H 0.26519 0.14858 0.66124 0.0
H605 H 0.21691 0.11339 0.66195 0.0
H606 H 0.22588 0.13184 0.77927 0.0
O607 O 0.24344 0.06029 0.70255 0.0
H608 H 0.28144 0.10116 0.59654 0.0
H609 H 0.2721 0.05754 0.69537 0.0
H610 H 0.26402 0.17708 0.64979 0.0
H611 H 0.18572 0.06785 0.79712 0.0
H612 H 0.24351 0.18306 0.70414 0.0
H613 H 0.16731 0.07131 0.7292 0.0
O614 O 0.27399 0.13145 0.72799 0.0
H615 H 0.26751 0.06795 0.87008 0.0
H616 H 0.30176 0.10185 0.7186 0.0
H617 H 0.31874 0.10087 0.79329 0.0
H618 H 0.3016 0.0838 0.86971 0.0
H619 H 0.25107 0.06947 0.79477 0.0
H620 H 0.28933 0.04838 0.63848 0.0
H621 H 0.30295 0.066 0.55967 0.0
O622 O 0.2815 0.11336 0.68418 0.0
C623 C 0.24616 0.10183 0.62171 0.0
C624 C 0.29308 0.08481 0.57312 0.0
C625 C 0.28768 0.06 0.62901 0.0
N626 N 0.27584 0.07993 0.64942 0.0
C627 C 0.2832 0.08963 0.606 0.0
C628 C 0.27789 0.06522 0.66101 0.0
C629 C 0.29532 0.06989 0.58481 0.0
C630 C 0.21156 0.08884 0.76672 0.0
N631 N 0.22015 0.1014 0.72913 0.0
C632 C 0.19245 0.07783 0.76737 0.0
C633 C 0.18213 0.07976 0.72919 0.0
C634 C 0.19099 0.09261 0.69098 0.0
C635 C 0.21013 0.10336 0.69152 0.0
C636 C 0.23335 0.15777 0.7454 0.0
C637 C 0.25612 0.15101 0.68472 0.0
C638 C 0.23426 0.14172 0.75084 0.0
N639 N 0.24546 0.13846 0.72046 0.0
C640 C 0.25557 0.16721 0.67821 0.0
C641 C 0.24407 0.17056 0.70876 0.0
C642 C 0.28543 0.12894 0.70258 0.0
C643 C 0.27513 0.07538 0.83694 0.0
C644 C 0.29419 0.09446 0.75177 0.0
C645 C 0.30389 0.09391 0.7939 0.0
C646 C 0.29426 0.08431 0.83675 0.0
N647 N 0.27543 0.08568 0.75225 0.0
C648 C 0.26589 0.07621 0.79409 0.0
Co649 Co 0.88537 0.13188 0.72549 0.0
Co650 Co 0.91912 0.17396 0.68251 0.0
O651 O 0.90981 0.15379 0.7317 0.0
C652 C 0.88564 0.1439 0.82993 0.0
O653 O 0.89218 0.16062 0.81226 0.0
C654 C 0.9518 0.16917 0.70667 0.0
O655 O 0.94117 0.15198 0.71996 0.0
O656 O 0.91439 0.15642 0.62599 0.0
O657 O 0.88763 0.13236 0.65077 0.0
H658 H 0.9175 0.20397 0.52005 0.0
H659 H 0.91199 0.13029 0.79576 0.0
O660 O 0.88229 0.13073 0.80023 0.0
H661 H 0.89757 0.08167 0.67004 0.0
H662 H 0.83436 0.06912 0.77577 0.0
H663 H 0.85344 0.12088 0.65767 0.0
H664 H 0.88306 0.10085 0.6649 0.0
H665 H 0.86522 0.09651 0.78193 0.0
O666 O 0.9449 0.17866 0.69026 0.0
H667 H 0.906 0.17918 0.58331 0.0
H668 H 0.95223 0.21146 0.67676 0.0
H669 H 0.82251 0.09371 0.64997 0.0
H670 H 0.92661 0.11123 0.8028 0.0
H671 H 0.81279 0.06757 0.7093 0.0
H672 H 0.91948 0.08676 0.73949 0.0
O673 O 0.87362 0.14735 0.7204 0.0
H674 H 0.94154 0.201 0.85488 0.0
H675 H 0.91061 0.20402 0.70007 0.0
H676 H 0.91523 0.22502 0.77058 0.0
H677 H 0.93085 0.22364 0.84866 0.0
H678 H 0.93643 0.1801 0.78374 0.0
H679 H 0.96429 0.23657 0.61433 0.0
H680 H 0.94685 0.23293 0.53536 0.0
O681 O 0.89408 0.1707 0.67301 0.0
C682 C 0.89963 0.14131 0.61704 0.0
C683 C 0.92522 0.20573 0.55434 0.0
C684 C 0.95149 0.22401 0.60721 0.0
N685 N 0.92841 0.19385 0.63375 0.0
C686 C 0.91876 0.19174 0.59035 0.0
C687 C 0.94462 0.20972 0.64236 0.0
C688 C 0.94169 0.22197 0.56293 0.0
C689 C 0.90868 0.11955 0.76836 0.0
N690 N 0.8967 0.11671 0.72996 0.0
C691 C 0.91706 0.10886 0.77241 0.0
C692 C 0.91308 0.09515 0.73683 0.0
C693 C 0.90082 0.09231 0.69781 0.0
C694 C 0.89271 0.10328 0.69494 0.0
C695 C 0.83845 0.0804 0.74963 0.0
C696 C 0.84936 0.10952 0.68346 0.0
C697 C 0.8559 0.09596 0.75297 0.0
N698 N 0.86119 0.11023 0.71994 0.0
C699 C 0.8318 0.09419 0.67899 0.0
C700 C 0.82635 0.07954 0.71232 0.0
C701 C 0.8782 0.1614 0.69274 0.0
C702 C 0.9348 0.2018 0.82096 0.0
C703 C 0.91736 0.20327 0.73394 0.0
C704 C 0.91998 0.21524 0.77372 0.0
C705 C 0.92876 0.21447 0.81749 0.0
N706 N 0.92337 0.19091 0.73754 0.0
C707 C 0.93196 0.19006 0.78039 0.0
Co708 Co 0.91341 0.46198 0.56374 0.0
Co709 Co 0.92229 0.50431 0.52127 0.0
O710 O 0.91117 0.48407 0.57018 0.0
C711 C 0.92474 0.47366 0.66873 0.0
O712 O 0.93514 0.49044 0.65175 0.0
C713 C 0.88503 0.50026 0.54561 0.0
O714 O 0.87849 0.48342 0.56211 0.0
O715 O 0.90942 0.4869 0.46459 0.0
O716 O 0.91174 0.4626 0.48908 0.0
H717 H 0.95444 0.53428 0.35934 0.0
H718 H 0.8852 0.46061 0.6337 0.0
O719 O 0.91513 0.46064 0.63843 0.0
H720 H 0.85083 0.41236 0.50715 0.0
H721 H 0.90075 0.39887 0.61336 0.0
H722 H 0.93416 0.45074 0.49606 0.0
H723 H 0.88457 0.43124 0.50257 0.0
H724 H 0.89767 0.42647 0.61968 0.0
O725 O 0.90133 0.50929 0.52823 0.0
H726 H 0.94075 0.50942 0.42237 0.0
H727 H 0.92709 0.54198 0.5155 0.0
H728 H 0.93754 0.42336 0.48822 0.0
H729 H 0.85148 0.44184 0.64016 0.0
H730 H 0.92076 0.39717 0.54715 0.0
H731 H 0.83406 0.41757 0.57644 0.0
O732 O 0.94069 0.47716 0.55897 0.0
H733 H 0.9268 0.53115 0.69385 0.0
H734 H 0.96092 0.53418 0.53947 0.0
H735 H 0.97728 0.55503 0.61029 0.0
H736 H 0.96019 0.55364 0.68816 0.0
H737 H 0.91104 0.51039 0.62241 0.0
H738 H 0.94052 0.56714 0.45328 0.0
H739 H 0.95439 0.5634 0.37461 0.0
O740 O 0.94395 0.50078 0.51217 0.0
C741 C 0.90875 0.47165 0.45556 0.0
C742 C 0.94848 0.53609 0.39352 0.0
C743 C 0.94064 0.55452 0.44621 0.0
N744 N 0.93318 0.52425 0.47269 0.0
C745 C 0.94073 0.52207 0.42941 0.0
C746 C 0.93301 0.5402 0.48124 0.0
C747 C 0.94843 0.55242 0.40209 0.0
C748 C 0.87774 0.44996 0.6061 0.0
N749 N 0.88686 0.44705 0.56778 0.0
C750 C 0.85863 0.43943 0.60983 0.0
C751 C 0.84886 0.42583 0.57402 0.0
C752 C 0.85826 0.42292 0.53509 0.0
C753 C 0.87737 0.43373 0.53254 0.0
C754 C 0.9081 0.41018 0.5874 0.0
C755 C 0.92673 0.43936 0.52168 0.0
C756 C 0.90644 0.42585 0.59083 0.0
N757 N 0.91562 0.44015 0.55802 0.0
C758 C 0.92874 0.42391 0.51713 0.0
C759 C 0.91933 0.40923 0.55023 0.0
C760 C 0.95031 0.49121 0.53142 0.0
C761 C 0.93438 0.53195 0.66002 0.0
C762 C 0.95339 0.53342 0.57325 0.0
C763 C 0.96272 0.54531 0.6132 0.0
C764 C 0.95312 0.54454 0.65685 0.0
N765 N 0.93498 0.52114 0.57654 0.0
C766 C 0.9255 0.5203 0.61928 0.0
Co767 Co 0.53874 0.45081 0.57275 0.0
Co768 Co 0.49382 0.42259 0.53847 0.0
O769 O 0.51471 0.42877 0.58283 0.0
C770 C 0.5302 0.45225 0.68039 0.0
O771 O 0.51393 0.44867 0.66477 0.0
C772 C 0.49356 0.38689 0.54962 0.0
O773 O 0.51152 0.3956 0.5453 0.0
O774 O 0.50862 0.4236 0.47867 0.0
O775 O 0.53583 0.44845 0.49693 0.0
H776 H 0.46313 0.42939 0.38379 0.0
H777 H 0.53605 0.42114 0.63897 0.0
O778 O 0.54222 0.45381 0.64833 0.0
H779 H 0.57872 0.42721 0.50284 0.0
H780 H 0.60562 0.49335 0.61155 0.0
H781 H 0.55321 0.48328 0.50533 0.0
H782 H 0.56504 0.44719 0.5048 0.0
H783 H 0.57533 0.46546 0.62195 0.0
O784 O 0.48489 0.39569 0.54712 0.0
H785 H 0.48912 0.43717 0.44111 0.0
H786 H 0.45401 0.39414 0.5404 0.0
H787 H 0.58329 0.51128 0.49334 0.0
H788 H 0.54958 0.40101 0.63879 0.0
H789 H 0.60976 0.51646 0.5467 0.0
H790 H 0.57104 0.40395 0.57026 0.0
O791 O 0.52739 0.46667 0.57276 0.0
H792 H 0.46954 0.40426 0.71489 0.0
H793 H 0.47013 0.43867 0.56352 0.0
H794 H 0.45264 0.43839 0.63851 0.0
H795 H 0.45224 0.42106 0.71489 0.0
H796 H 0.48704 0.40508 0.63928 0.0
H797 H 0.42766 0.38579 0.4839 0.0
H798 H 0.43212 0.40353 0.40506 0.0
O799 O 0.50167 0.44919 0.52868 0.0
C800 C 0.52441 0.43666 0.46559 0.0
C801 C 0.461 0.42158 0.41809 0.0
C802 C 0.4411 0.3971 0.47424 0.0
N803 N 0.47308 0.41618 0.49419 0.0
C804 C 0.47566 0.42594 0.45075 0.0
C805 C 0.45609 0.40186 0.50601 0.0
C806 C 0.44361 0.40706 0.43002 0.0
C807 C 0.54552 0.42263 0.60933 0.0
N808 N 0.54981 0.43537 0.57207 0.0
C809 C 0.55308 0.41114 0.60929 0.0
C810 C 0.56509 0.41277 0.57078 0.0
C811 C 0.56939 0.4258 0.53291 0.0
C812 C 0.56156 0.43704 0.53413 0.0
C813 C 0.59421 0.49123 0.58796 0.0
C814 C 0.5647 0.48536 0.5284 0.0
C815 C 0.57702 0.47547 0.59373 0.0
N816 N 0.56257 0.47265 0.56389 0.0
C817 C 0.58168 0.50127 0.52157 0.0
C818 C 0.59652 0.50418 0.55156 0.0
C819 C 0.51357 0.46459 0.54745 0.0
C820 C 0.46956 0.4118 0.68178 0.0
C821 C 0.4701 0.43116 0.59666 0.0
C822 C 0.46012 0.43101 0.63897 0.0
C823 C 0.45988 0.42127 0.68179 0.0
N824 N 0.47956 0.42185 0.59694 0.0
C825 C 0.47937 0.41224 0.63876 0.0
Co826 Co 0.54974 0.08776 0.56717 0.0
Co827 Co 0.57911 0.07261 0.53215 0.0
O828 O 0.5722 0.08655 0.5772 0.0
C829 C 0.5484 0.07729 0.67419 0.0
O830 O 0.55246 0.06501 0.65782 0.0
C831 C 0.61434 0.1085 0.54634 0.0
O832 O 0.60544 0.11757 0.54226 0.0
O833 O 0.57788 0.0866 0.47313 0.0
O834 O 0.55231 0.08763 0.49135 0.0
H835 H 0.57406 0.03675 0.37536 0.0
H836 H 0.57881 0.11501 0.63443 0.0
O837 O 0.54653 0.08772 0.64275 0.0
H838 H 0.57162 0.15137 0.49962 0.0
H839 H 0.50555 0.10995 0.607 0.0
H840 H 0.51746 0.06923 0.4992 0.0
H841 H 0.55252 0.11758 0.5003 0.0
H842 H 0.53398 0.10854 0.61722 0.0
O843 O 0.60581 0.09106 0.54219 0.0
H844 H 0.56533 0.05395 0.43363 0.0
H845 H 0.6083 0.06228 0.53375 0.0
H846 H 0.48893 0.07033 0.48738 0.0
H847 H 0.59805 0.14878 0.63554 0.0
H848 H 0.48282 0.0908 0.54153 0.0
H849 H 0.59455 0.16719 0.56769 0.0
O850 O 0.5346 0.06049 0.56609 0.0
H851 H 0.59716 0.06597 0.70835 0.0
H852 H 0.56395 0.03278 0.55489 0.0
H853 H 0.56446 0.01528 0.62889 0.0
H854 H 0.5812 0.03189 0.70632 0.0
H855 H 0.59609 0.08293 0.63372 0.0
H856 H 0.6176 0.0453 0.47633 0.0
H857 H 0.60038 0.03233 0.39657 0.0
O858 O 0.55273 0.05338 0.52111 0.0
C859 C 0.56439 0.08864 0.46005 0.0
C860 C 0.58166 0.04231 0.41004 0.0
C861 C 0.60611 0.04713 0.46667 0.0
N862 N 0.58625 0.05906 0.48715 0.0
C863 C 0.57676 0.05204 0.44323 0.0
C864 C 0.60082 0.05678 0.49897 0.0
C865 C 0.59643 0.03985 0.42194 0.0
C866 C 0.57708 0.12294 0.60507 0.0
N867 N 0.56451 0.11435 0.56748 0.0
C868 C 0.58807 0.14205 0.60577 0.0
C869 C 0.58612 0.15237 0.56763 0.0
C870 C 0.57327 0.1435 0.5294 0.0
C871 C 0.56253 0.12436 0.52989 0.0
C872 C 0.50808 0.10102 0.58306 0.0
C873 C 0.51498 0.07829 0.5226 0.0
C874 C 0.52414 0.10014 0.58872 0.0
N875 N 0.52747 0.08897 0.55843 0.0
C876 C 0.49876 0.0788 0.51588 0.0
C877 C 0.49533 0.09027 0.54632 0.0
C878 C 0.53715 0.04924 0.53989 0.0
C879 C 0.58988 0.05858 0.67478 0.0
C880 C 0.57118 0.04012 0.5885 0.0
C881 C 0.57148 0.03013 0.63024 0.0
C882 C 0.58089 0.03946 0.67365 0.0
N883 N 0.58003 0.05888 0.5899 0.0
C884 C 0.58931 0.06812 0.6323 0.0
Co885 Co 0.79344 0.58073 0.61826 0.0
Co886 Co 0.83721 0.5888 0.63756 0.0
O887 O 0.81403 0.57719 0.60002 0.0
C888 C 0.79777 0.58792 0.50893 0.0
O889 O 0.81558 0.59726 0.51629 0.0
C890 C 0.82972 0.54984 0.63387 0.0
O891 O 0.81403 0.54399 0.65751 0.0
O892 O 0.82386 0.57799 0.70219 0.0
O893 O 0.79923 0.58134 0.69115 0.0
H894 H 0.87912 0.62425 0.78114 0.0
H895 H 0.78711 0.54988 0.55135 0.0
O896 O 0.78687 0.58028 0.54567 0.0
H897 H 0.74732 0.52105 0.69926 0.0
H898 H 0.72871 0.56904 0.60418 0.0
H899 H 0.78843 0.60505 0.68974 0.0
H900 H 0.76659 0.55475 0.69348 0.0
H901 H 0.75466 0.56438 0.58302 0.0
O902 O 0.84002 0.56685 0.62429 0.0
H903 H 0.85017 0.61006 0.73283 0.0
H904 H 0.87354 0.59122 0.62239 0.0
H905 H 0.76284 0.61005 0.71237 0.0
H906 H 0.76797 0.51612 0.55541 0.0
H907 H 0.73269 0.59196 0.66945 0.0
H908 H 0.74791 0.5015 0.62982 0.0
O909 O 0.80963 0.60792 0.61547 0.0
H910 H 0.85215 0.58768 0.45436 0.0
H911 H 0.86591 0.62649 0.60583 0.0
H912 H 0.88198 0.64041 0.52611 0.0
H913 H 0.87518 0.62095 0.44966 0.0
H914 H 0.8362 0.57437 0.53468 0.0
H915 H 0.90269 0.6051 0.66974 0.0
H916 H 0.90564 0.62182 0.74963 0.0
O917 O 0.8354 0.61131 0.65079 0.0
C918 C 0.81005 0.57877 0.71923 0.0
C919 C 0.87802 0.61704 0.74631 0.0
C920 C 0.89124 0.60627 0.68382 0.0
N921 N 0.86019 0.59992 0.67466 0.0
C922 C 0.86167 0.60901 0.71872 0.0
C923 C 0.87468 0.59841 0.65724 0.0
C924 C 0.89289 0.61566 0.72863 0.0
C925 C 0.7783 0.54361 0.58364 0.0
N926 N 0.77785 0.55427 0.62192 0.0
C927 C 0.76755 0.5245 0.58582 0.0
C928 C 0.75631 0.5163 0.62762 0.0
C929 C 0.75598 0.52726 0.6666 0.0
C930 C 0.76694 0.54633 0.66315 0.0
C931 C 0.74175 0.57695 0.6233 0.0
C932 C 0.77532 0.59699 0.67126 0.0
C933 C 0.7565 0.57438 0.61146 0.0
N934 N 0.77298 0.58425 0.63567 0.0
C935 C 0.76089 0.59994 0.68407 0.0
C936 C 0.74399 0.58981 0.65992 0.0
C937 C 0.82518 0.61773 0.63684 0.0
C938 C 0.85527 0.59629 0.48744 0.0
C939 C 0.86276 0.61795 0.57268 0.0
C940 C 0.87197 0.6259 0.52767 0.0
C941 C 0.86816 0.61497 0.48481 0.0
N942 N 0.85013 0.59962 0.57498 0.0
C943 C 0.84635 0.58882 0.53311 0.0
Co944 Co 0.42667 0.21551 0.60418 0.0
Co945 Co 0.41118 0.24586 0.62266 0.0
O946 O 0.42632 0.23795 0.58633 0.0
C947 C 0.42049 0.21253 0.49473 0.0
O948 O 0.40891 0.21846 0.502 0.0
C949 C 0.448 0.27999 0.61878 0.0
O950 O 0.45548 0.2704 0.63443 0.0
O951 O 0.4224 0.24496 0.68808 0.0
O952 O 0.42406 0.21934 0.67719 0.0
H953 H 0.3697 0.24363 0.76238 0.0
H954 H 0.45637 0.24339 0.53996 0.0
O955 O 0.42911 0.21073 0.53161 0.0
H956 H 0.48746 0.23801 0.69142 0.0
H957 H 0.44919 0.17029 0.59128 0.0
H958 H 0.40477 0.18411 0.67277 0.0
H959 H 0.45383 0.219 0.68231 0.0
H960 H 0.44887 0.19873 0.5706 0.0
O961 O 0.43066 0.27224 0.61291 0.0
H962 H 0.38846 0.23357 0.71554 0.0
H963 H 0.40255 0.27592 0.60759 0.0
H964 H 0.40472 0.15561 0.69495 0.0
H965 H 0.49005 0.26254 0.5473 0.0
H966 H 0.42706 0.14855 0.65407 0.0
H967 H 0.5058 0.25994 0.62353 0.0
O968 O 0.39948 0.20076 0.5983 0.0
H969 H 0.41223 0.26264 0.44015 0.0
H970 H 0.37267 0.23112 0.58656 0.0
H971 H 0.35848 0.23139 0.50536 0.0
H972 H 0.3783 0.24727 0.43146 0.0
H973 H 0.42584 0.26184 0.52189 0.0
H974 H 0.38408 0.28654 0.65354 0.0
H975 H 0.36742 0.2703 0.73141 0.0
O976 O 0.39106 0.21974 0.63303 0.0
C977 C 0.42402 0.23165 0.7052 0.0
C978 C 0.37685 0.25079 0.72842 0.0
C979 C 0.38494 0.27489 0.66738 0.0
N980 N 0.39649 0.25406 0.65869 0.0
C981 C 0.38746 0.24513 0.70167 0.0
C982 C 0.39542 0.26883 0.64159 0.0
C983 C 0.37559 0.26576 0.71105 0.0
C984 C 0.46316 0.24206 0.573 0.0
N985 N 0.45317 0.23003 0.6105 0.0
C986 C 0.48222 0.25299 0.57705 0.0
C987 C 0.49104 0.25155 0.61987 0.0
C988 C 0.48076 0.23925 0.65799 0.0
C989 C 0.46171 0.22856 0.65268 0.0
C990 C 0.43945 0.17326 0.60953 0.0
C991 C 0.41466 0.18124 0.65525 0.0
C992 C 0.4392 0.18934 0.59796 0.0
N993 N 0.42701 0.19323 0.62109 0.0
C994 C 0.41451 0.16503 0.66777 0.0
C995 C 0.42703 0.16106 0.64476 0.0
C996 C 0.38746 0.20383 0.61819 0.0
C997 C 0.40344 0.25572 0.47212 0.0
C998 C 0.38139 0.23797 0.55452 0.0
C999 C 0.37328 0.23813 0.50867 0.0
C1000 C 0.38441 0.24707 0.46724 0.0
N1001 N 0.40008 0.24649 0.55901 0.0
C1002 C 0.41108 0.25531 0.51857 0.0
Co1003 Co 0.78545 0.20624 0.60735 0.0
Co1004 Co 0.75196 0.16368 0.64749 0.0
O1005 O 0.76176 0.1838 0.59833 0.0
C1006 C 0.8044 0.21061 0.51063 0.0
O1007 O 0.81782 0.21131 0.53777 0.0
C1008 C 0.71984 0.16944 0.63008 0.0
O1009 O 0.73032 0.18715 0.63798 0.0
O1010 O 0.75525 0.1809 0.70393 0.0
O1011 O 0.78201 0.20544 0.68174 0.0
H1012 H 0.75096 0.13324 0.81164 0.0
H1013 H 0.75887 0.2062 0.53388 0.0
O1014 O 0.78954 0.20756 0.53219 0.0
H1015 H 0.76872 0.25372 0.65895 0.0
H1016 H 0.8346 0.27118 0.56698 0.0
H1017 H 0.8168 0.21768 0.67752 0.0
H1018 H 0.78508 0.23634 0.66656 0.0
H1019 H 0.80471 0.24286 0.55592 0.0
O1020 O 0.72644 0.15877 0.63395 0.0
H1021 H 0.76346 0.15823 0.74889 0.0
H1022 H 0.71883 0.12616 0.65026 0.0
H1023 H 0.84681 0.24571 0.68984 0.0
H1024 H 0.74239 0.22342 0.52451 0.0
H1025 H 0.85589 0.27272 0.63433 0.0
H1026 H 0.74724 0.24734 0.58742 0.0
O1027 O 0.79776 0.19135 0.61549 0.0
H1028 H 0.73287 0.13656 0.47389 0.0
H1029 H 0.76151 0.13417 0.634 0.0
H1030 H 0.75833 0.1132 0.56473 0.0
H1031 H 0.74385 0.11426 0.48401 0.0
H1032 H 0.73651 0.15742 0.54397 0.0
H1033 H 0.7058 0.10086 0.7121 0.0
H1034 H 0.72192 0.10429 0.79342 0.0
O1035 O 0.77702 0.16751 0.66128 0.0
C1036 C 0.76968 0.19614 0.71436 0.0
C1037 C 0.74382 0.13156 0.77631 0.0
C1038 C 0.71847 0.11341 0.72047 0.0
N1039 N 0.74193 0.14366 0.69586 0.0
C1040 C 0.75085 0.14566 0.74057 0.0
C1041 C 0.72589 0.12781 0.68565 0.0
C1042 C 0.72753 0.11533 0.76607 0.0
C1043 C 0.7612 0.21673 0.5611 0.0
N1044 N 0.77303 0.22035 0.60047 0.0
C1045 C 0.75177 0.22637 0.55573 0.0
C1046 C 0.75447 0.23977 0.59109 0.0
C1047 C 0.76651 0.24334 0.63126 0.0
C1048 C 0.77569 0.23341 0.63545 0.0
C1049 C 0.83079 0.25951 0.59146 0.0
C1050 C 0.82063 0.22937 0.65323 0.0
C1051 C 0.81388 0.24345 0.58543 0.0
N1052 N 0.80897 0.22863 0.61616 0.0
C1053 C 0.83765 0.24521 0.66038 0.0
C1054 C 0.84273 0.26036 0.62924 0.0
C1055 C 0.79314 0.17726 0.6432 0.0
C1056 C 0.73917 0.13594 0.50891 0.0
C1057 C 0.7553 0.13481 0.59891 0.0
C1058 C 0.75348 0.12285 0.55986 0.0
C1059 C 0.74535 0.12345 0.5146 0.0
N1060 N 0.74914 0.14698 0.59313 0.0
C1061 C 0.74122 0.14769 0.54878 0.0
Co1062 Co 0.42741 0.20932 0.09342 0.0
Co1063 Co 0.4134 0.16562 0.13552 0.0
O1064 O 0.42647 0.18569 0.0874 0.0
C1065 C 0.41477 0.19778 0.98973 0.0
O1066 O 0.40313 0.18158 0.00838 0.0
C1067 C 0.45026 0.1687 0.12567 0.0
O1068 O 0.45803 0.18651 0.13258 0.0
O1069 O 0.4269 0.1822 0.1932 0.0
O1070 O 0.4288 0.20859 0.16817 0.0
H1071 H 0.3784 0.13651 0.29474 0.0
H1072 H 0.45357 0.20606 0.02524 0.0
O1073 O 0.42585 0.21063 0.01861 0.0
H1074 H 0.49207 0.2534 0.14981 0.0
H1075 H 0.44771 0.27439 0.04213 0.0
H1076 H 0.40965 0.22422 0.16019 0.0
H1077 H 0.45829 0.23843 0.1535 0.0
H1078 H 0.44679 0.24465 0.03673 0.0
O1079 O 0.43285 0.15864 0.12767 0.0
H1080 H 0.39441 0.16153 0.23304 0.0
H1081 H 0.40541 0.12685 0.14072 0.0
H1082 H 0.41028 0.25377 0.16718 0.0
H1083 H 0.48731 0.22078 0.01988 0.0
H1084 H 0.42942 0.27911 0.10786 0.0
H1085 H 0.50679 0.24461 0.08256 0.0
O1086 O 0.40018 0.19686 0.09815 0.0
H1087 H 0.40752 0.13812 0.96331 0.0
H1088 H 0.37387 0.13899 0.11473 0.0
H1089 H 0.3567 0.11913 0.04292 0.0
H1090 H 0.37354 0.11858 0.96654 0.0
H1091 H 0.42413 0.15793 0.03573 0.0
H1092 H 0.38962 0.10148 0.20161 0.0
H1093 H 0.37592 0.10621 0.27919 0.0
O1094 O 0.39334 0.17174 0.14372 0.0
C1095 C 0.42965 0.19832 0.20214 0.0
C1096 C 0.38427 0.13426 0.26102 0.0
C1097 C 0.39059 0.11461 0.20878 0.0
N1098 N 0.40075 0.14563 0.18318 0.0
C1099 C 0.39332 0.14837 0.22588 0.0
C1100 C 0.39956 0.12904 0.1745 0.0
C1101 C 0.3829 0.11727 0.25229 0.0
C1102 C 0.46197 0.21654 0.05234 0.0
N1103 N 0.45398 0.22145 0.08946 0.0
C1104 C 0.48106 0.22477 0.04925 0.0
C1105 C 0.49198 0.23812 0.08449 0.0
C1106 C 0.48373 0.24305 0.12225 0.0
C1107 C 0.46459 0.2345 0.12423 0.0
C1108 C 0.43936 0.26347 0.06829 0.0
C1109 C 0.41811 0.23522 0.13447 0.0
C1110 C 0.43877 0.2466 0.06538 0.0
N1111 N 0.42833 0.23278 0.09846 0.0
C1112 C 0.41837 0.25191 0.13851 0.0
C1113 C 0.4291 0.26611 0.10518 0.0
C1114 C 0.38903 0.18296 0.12429 0.0
C1115 C 0.40003 0.13819 0.99644 0.0
C1116 C 0.3813 0.13889 0.08157 0.0
C1117 C 0.3715 0.12757 0.04107 0.0
C1118 C 0.38096 0.12726 0.99825 0.0
N1119 N 0.4 0.14957 0.07954 0.0
C1120 C 0.40937 0.14932 0.03768 0.0
Co1121 Co 0.78656 0.21641 0.11785 0.0
Co1122 Co 0.8334 0.24616 0.13247 0.0
O1123 O 0.80982 0.23834 0.09852 0.0
C1124 C 0.79041 0.21108 0.00938 0.0
O1125 O 0.8079 0.21726 0.01802 0.0
C1126 C 0.83219 0.2815 0.11859 0.0
O1127 O 0.81426 0.27257 0.11386 0.0
O1128 O 0.82216 0.2446 0.2001 0.0
O1129 O 0.79265 0.22227 0.19076 0.0
H1130 H 0.87438 0.2419 0.26351 0.0
H1131 H 0.78568 0.2426 0.04459 0.0
O1132 O 0.77978 0.20982 0.04518 0.0
H1133 H 0.74808 0.24166 0.1886 0.0
H1134 H 0.71875 0.17147 0.10349 0.0
H1135 H 0.77576 0.18757 0.19602 0.0
H1136 H 0.76249 0.22232 0.18896 0.0
H1137 H 0.74798 0.19894 0.08001 0.0
O1138 O 0.84082 0.27287 0.12668 0.0
H1139 H 0.84505 0.23245 0.22015 0.0
H1140 H 0.87204 0.27632 0.11575 0.0
H1141 H 0.74679 0.16007 0.22102 0.0
H1142 H 0.77126 0.26192 0.04218 0.0
H1143 H 0.71801 0.15186 0.17459 0.0
H1144 H 0.75238 0.2616 0.11469 0.0
O1145 O 0.79818 0.20067 0.11892 0.0
H1146 H 0.84613 0.26369 0.9493 0.0
H1147 H 0.85687 0.23199 0.09047 0.0
H1148 H 0.87012 0.23273 0.00692 0.0
H1149 H 0.86481 0.2487 0.93563 0.0
H1150 H 0.83297 0.26244 0.03327 0.0
H1151 H 0.90165 0.28633 0.15819 0.0
H1152 H 0.90298 0.26905 0.23257 0.0
O1153 O 0.82746 0.22022 0.13965 0.0
C1154 C 0.80624 0.23345 0.21787 0.0
C1155 C 0.87399 0.24958 0.23121 0.0
C1156 C 0.88928 0.27452 0.17213 0.0
N1157 N 0.85676 0.25388 0.16567 0.0
C1158 C 0.8574 0.2443 0.20653 0.0
C1159 C 0.87244 0.26883 0.1484 0.0
C1160 C 0.89002 0.2648 0.21383 0.0
C1161 C 0.77735 0.24226 0.07608 0.0
N1162 N 0.775 0.23141 0.117 0.0
C1163 C 0.76928 0.25329 0.07459 0.0
C1164 C 0.75871 0.25312 0.11533 0.0
C1165 C 0.75633 0.24197 0.15685 0.0
C1166 C 0.76462 0.23114 0.15702 0.0
C1167 C 0.73119 0.17492 0.12406 0.0
C1168 C 0.76327 0.18415 0.17583 0.0
C1169 C 0.74779 0.19043 0.11086 0.0
N1170 N 0.76354 0.19492 0.13684 0.0
C1171 C 0.74692 0.16853 0.19007 0.0
C1172 C 0.73079 0.16393 0.16397 0.0
C1173 C 0.81418 0.20405 0.13203 0.0
C1174 C 0.84863 0.25678 0.98014 0.0
C1175 C 0.85447 0.23896 0.05966 0.0
C1176 C 0.86204 0.23936 0.01244 0.0
C1177 C 0.85908 0.24833 0.97247 0.0
N1178 N 0.84429 0.24733 0.06696 0.0
C1179 C 0.84131 0.25614 0.02791 0.0
Co1180 Co 0.78544 0.57944 0.10779 0.0
Co1181 Co 0.75672 0.59477 0.14928 0.0
O1182 O 0.76288 0.58078 0.10175 0.0
C1183 C 0.78617 0.5907 0.00269 0.0
O1184 O 0.78197 0.60278 0.01989 0.0
C1185 C 0.7212 0.55894 0.13525 0.0
O1186 O 0.73015 0.5499 0.13229 0.0
O1187 O 0.75944 0.58126 0.20756 0.0
O1188 O 0.78378 0.57907 0.18267 0.0
H1189 H 0.7649 0.6313 0.30699 0.0
H1190 H 0.75569 0.55269 0.04134 0.0
O1191 O 0.78789 0.57992 0.03289 0.0
H1192 H 0.76416 0.51534 0.1705 0.0
H1193 H 0.829 0.55733 0.05903 0.0
H1194 H 0.8185 0.5975 0.17315 0.0
H1195 H 0.78327 0.54912 0.17142 0.0
H1196 H 0.8005 0.55882 0.05319 0.0
O1197 O 0.72983 0.57619 0.14339 0.0
H1198 H 0.77256 0.61403 0.24595 0.0
H1199 H 0.72733 0.60483 0.15402 0.0
H1200 H 0.84713 0.59632 0.18053 0.0
H1201 H 0.73644 0.51893 0.0386 0.0
H1202 H 0.85253 0.57612 0.1232 0.0
H1203 H 0.74058 0.50003 0.10364 0.0
O1204 O 0.80073 0.60674 0.1097 0.0
H1205 H 0.73516 0.60037 0.97669 0.0
H1206 H 0.77084 0.63441 0.12633 0.0
H1207 H 0.76864 0.65147 0.05355 0.0
H1208 H 0.75066 0.63443 0.97806 0.0
H1209 H 0.7379 0.58386 0.05004 0.0
H1210 H 0.71911 0.6219 0.21428 0.0
H1211 H 0.738 0.63533 0.29134 0.0
O1212 O 0.78316 0.61419 0.15618 0.0
C1213 C 0.77281 0.57852 0.2167 0.0
C1214 C 0.75658 0.62554 0.27352 0.0
C1215 C 0.73086 0.62023 0.22152 0.0
N1216 N 0.75043 0.60844 0.1964 0.0
C1217 C 0.76086 0.61575 0.23878 0.0
C1218 C 0.73555 0.61052 0.18762 0.0
C1219 C 0.74147 0.62778 0.26474 0.0
C1220 C 0.7577 0.54454 0.06945 0.0
N1221 N 0.77061 0.55286 0.10641 0.0
C1222 C 0.7467 0.52544 0.06785 0.0
C1223 C 0.74901 0.51484 0.1044 0.0
C1224 C 0.76222 0.52343 0.14197 0.0
C1225 C 0.77295 0.54257 0.14242 0.0
C1226 C 0.82679 0.56615 0.08431 0.0
C1227 C 0.82069 0.58859 0.14826 0.0
C1228 C 0.81069 0.56707 0.08114 0.0
N1229 N 0.80776 0.57811 0.11311 0.0
C1230 C 0.83695 0.58802 0.15254 0.0
C1231 C 0.83998 0.5767 0.12033 0.0
C1232 C 0.79845 0.6182 0.13572 0.0
C1233 C 0.74298 0.60795 0.00944 0.0
C1234 C 0.76305 0.62689 0.09357 0.0
C1235 C 0.76181 0.63663 0.05252 0.0
C1236 C 0.75171 0.62706 0.01019 0.0
N1237 N 0.75443 0.60813 0.09259 0.0
C1238 C 0.7445 0.59866 0.05121 0.0
Co1239 Co 0.53749 0.08618 0.06717 0.0
Co1240 Co 0.49276 0.07028 0.03294 0.0
O1241 O 0.51368 0.08459 0.07749 0.0
C1242 C 0.52881 0.07616 0.17463 0.0
O1243 O 0.5125 0.06359 0.15885 0.0
C1244 C 0.49319 0.10598 0.04587 0.0
O1245 O 0.51109 0.11503 0.04004 0.0
O1246 O 0.50771 0.08421 0.97346 0.0
O1247 O 0.53457 0.08576 0.99139 0.0
H1248 H 0.46174 0.03368 0.87726 0.0
H1249 H 0.53534 0.1134 0.13367 0.0
O1250 O 0.54093 0.08653 0.14269 0.0
H1251 H 0.5783 0.1497 0.99771 0.0
H1252 H 0.6042 0.10947 0.10572 0.0
H1253 H 0.55146 0.06781 0.99944 0.0
H1254 H 0.56412 0.11597 0.99941 0.0
H1255 H 0.57415 0.10759 0.11636 0.0
O1256 O 0.48426 0.08851 0.04286 0.0
H1257 H 0.4878 0.05132 0.9349 0.0
H1258 H 0.45312 0.05954 0.03508 0.0
H1259 H 0.58128 0.06937 0.98721 0.0
H1260 H 0.54937 0.14712 0.13375 0.0
H1261 H 0.60792 0.09033 0.04059 0.0
H1262 H 0.57098 0.1655 0.06531 0.0
O1263 O 0.52568 0.05893 0.06691 0.0
H1264 H 0.46846 0.06385 0.20953 0.0
H1265 H 0.46854 0.03046 0.05662 0.0
H1266 H 0.45083 0.01303 0.1311 0.0
H1267 H 0.45068 0.02974 0.20825 0.0
H1268 H 0.48618 0.08073 0.13443 0.0
H1269 H 0.42672 0.04212 0.9783 0.0
H1270 H 0.43093 0.02898 0.89883 0.0
O1271 O 0.50022 0.05127 0.02223 0.0
C1272 C 0.52334 0.08655 0.96022 0.0
C1273 C 0.45972 0.0393 0.91182 0.0
C1274 C 0.44007 0.04406 0.9685 0.0
N1275 N 0.47197 0.05639 0.98844 0.0
C1276 C 0.47442 0.04928 0.94467 0.0
C1277 C 0.45509 0.05396 1.00043 0.0
C1278 C 0.44244 0.03668 0.92393 0.0
C1279 C 0.54488 0.12132 0.10407 0.0
N1280 N 0.54897 0.11274 0.06672 0.0
C1281 C 0.55272 0.1404 0.10418 0.0
C1282 C 0.56481 0.1507 0.06572 0.0
C1283 C 0.56891 0.14184 0.02775 0.0
C1284 C 0.5608 0.12274 0.02882 0.0
C1285 C 0.59271 0.10033 0.08212 0.0
C1286 C 0.56302 0.07707 0.02252 0.0
C1287 C 0.57566 0.09919 0.08802 0.0
N1288 N 0.56113 0.08775 0.05815 0.0
C1289 C 0.57986 0.07785 0.01556 0.0
C1290 C 0.59479 0.08959 0.04557 0.0
C1291 C 0.51184 0.04741 0.04125 0.0
C1292 C 0.46836 0.05641 0.17608 0.0
C1293 C 0.46863 0.03784 0.09011 0.0
C1294 C 0.45852 0.02789 0.13212 0.0
C1295 C 0.45842 0.03728 0.17537 0.0
N1296 N 0.47836 0.05661 0.09109 0.0
C1297 C 0.4783 0.0659 0.13334 0.0
Co1298 Co 0.90602 0.45217 0.05254 0.0
Co1299 Co 0.91992 0.42053 0.0348 0.0
O1300 O 0.90512 0.42911 0.06982 0.0
C1301 C 0.91169 0.45443 0.16179 0.0
O1302 O 0.92313 0.44837 0.15377 0.0
C1303 C 0.88228 0.38736 0.0355 0.0
O1304 O 0.87566 0.39742 0.01742 0.0
O1305 O 0.90993 0.42258 0.96834 0.0
O1306 O 0.90915 0.44865 0.97962 0.0
H1307 H 0.96222 0.42167 0.89907 0.0
H1308 H 0.87512 0.42459 0.1142 0.0
O1309 O 0.90321 0.4566 0.12516 0.0
H1310 H 0.84655 0.43266 0.96104 0.0
H1311 H 0.88604 0.49936 0.06552 0.0
H1312 H 0.92957 0.4838 0.98633 0.0
H1313 H 0.88015 0.45045 0.97273 0.0
H1314 H 0.88482 0.4701 0.08531 0.0
O1315 O 0.89949 0.39447 0.04294 0.0
H1316 H 0.94389 0.43264 0.94427 0.0
H1317 H 0.92648 0.38911 0.05015 0.0
H1318 H 0.93117 0.51311 0.96506 0.0
H1319 H 0.84144 0.40662 0.10426 0.0
H1320 H 0.90928 0.52105 0.00478 0.0
H1321 H 0.82696 0.41058 0.02717 0.0
O1322 O 0.93317 0.46593 0.06034 0.0
H1323 H 0.9158 0.40236 0.21715 0.0
H1324 H 0.95768 0.43331 0.07435 0.0
H1325 H 0.97047 0.43181 0.1568 0.0
H1326 H 0.94948 0.41622 0.22889 0.0
H1327 H 0.90359 0.40436 0.13423 0.0
H1328 H 0.94449 0.37759 0.00581 0.0
H1329 H 0.96259 0.39395 0.92982 0.0
O1330 O 0.94097 0.44632 0.02658 0.0
C1331 C 0.90918 0.4364 0.95133 0.0
C1332 C 0.95443 0.41445 0.93222 0.0
C1333 C 0.94446 0.3897 0.99209 0.0
N1334 N 0.93423 0.41161 1.00001 0.0
C1335 C 0.94406 0.42062 0.95805 0.0
C1336 C 0.93425 0.39626 0.01697 0.0
C1337 C 0.95462 0.39889 0.94947 0.0
C1338 C 0.86889 0.42651 0.08079 0.0
N1339 N 0.87956 0.43862 0.04425 0.0
C1340 C 0.84982 0.41624 0.07527 0.0
C1341 C 0.84171 0.41845 0.03196 0.0
C1342 C 0.8527 0.43083 0.99483 0.0
C1343 C 0.87172 0.44083 0.0016 0.0
C1344 C 0.89559 0.49601 0.04776 0.0
C1345 C 0.91987 0.48705 0.0033 0.0
C1346 C 0.89496 0.47947 0.05882 0.0
N1347 N 0.90691 0.4751 0.03628 0.0
C1348 C 0.9209 0.50372 0.99132 0.0
C1349 C 0.90863 0.50818 0.01368 0.0
C1350 C 0.94502 0.46232 0.04188 0.0
C1351 C 0.92509 0.40914 0.18598 0.0
C1352 C 0.94845 0.42657 0.10558 0.0
C1353 C 0.95577 0.42572 0.15215 0.0
C1354 C 0.94398 0.41695 0.19257 0.0
N1355 N 0.92989 0.41888 0.0994 0.0
C1356 C 0.91825 0.41023 0.13885 0.0
Co1357 Co 0.55129 0.46181 0.07256 0.0
Co1358 Co 0.58272 0.50599 0.03934 0.0
O1359 O 0.57445 0.48464 0.08315 0.0
C1360 C 0.55049 0.47102 0.1798 0.0
O1361 O 0.55541 0.48761 0.1637 0.0
C1362 C 0.61578 0.5016 0.04802 0.0
O1363 O 0.60556 0.48427 0.03514 0.0
O1364 O 0.58024 0.49075 0.97899 0.0
O1365 O 0.55403 0.46468 0.99686 0.0
H1366 H 0.5806 0.53993 0.88574 0.0
H1367 H 0.57964 0.46183 0.1391 0.0
O1368 O 0.54792 0.45853 0.14811 0.0
H1369 H 0.56972 0.41758 0.00361 0.0
H1370 H 0.50414 0.39614 0.11089 0.0
H1371 H 0.51928 0.45001 0.0045 0.0
H1372 H 0.55208 0.43381 0.00522 0.0
H1373 H 0.53358 0.425 0.12169 0.0
O1374 O 0.60883 0.51202 0.04972 0.0
H1375 H 0.56994 0.51319 0.94216 0.0
H1376 H 0.61428 0.5444 0.04242 0.0
H1377 H 0.48977 0.42139 0.9921 0.0
H1378 H 0.59747 0.4458 0.1392 0.0
H1379 H 0.48203 0.39419 0.04555 0.0
H1380 H 0.59257 0.42352 0.07102 0.0
O1381 O 0.53754 0.47536 0.07182 0.0
H1382 H 0.60203 0.52898 0.21653 0.0
H1383 H 0.57025 0.53265 0.06432 0.0
H1384 H 0.57226 0.55087 0.13945 0.0
H1385 H 0.58828 0.54913 0.21624 0.0
H1386 H 0.5995 0.51081 0.14082 0.0
H1387 H 0.6255 0.57144 0.98684 0.0
H1388 H 0.60857 0.56933 0.90797 0.0
O1389 O 0.55685 0.50076 0.02872 0.0
C1390 C 0.56629 0.47556 0.96566 0.0
C1391 C 0.58806 0.54104 0.92007 0.0
C1392 C 0.61328 0.55872 0.97679 0.0
N1393 N 0.5914 0.52726 0.99571 0.0
C1394 C 0.58207 0.52595 0.95224 0.0
C1395 C 0.60688 0.54334 0.00804 0.0
C1396 C 0.60377 0.55753 0.93255 0.0
C1397 C 0.57732 0.45202 0.10959 0.0
N1398 N 0.56477 0.44867 0.07239 0.0
C1399 C 0.5875 0.44304 0.10972 0.0
C1400 C 0.58477 0.43057 0.07141 0.0
C1401 C 0.57196 0.42724 0.03355 0.0
C1402 C 0.56204 0.4365 0.0346 0.0
C1403 C 0.50737 0.40788 0.08725 0.0
C1404 C 0.51609 0.43818 0.02758 0.0
C1405 C 0.52401 0.42426 0.09324 0.0
N1406 N 0.52823 0.4391 0.06333 0.0
C1407 C 0.49932 0.42204 0.02053 0.0
C1408 C 0.49498 0.40679 0.05058 0.0
C1409 C 0.54097 0.48967 0.04668 0.0
C1410 C 0.59507 0.5299 0.18324 0.0
C1411 C 0.57716 0.53174 0.09765 0.0
C1412 C 0.57831 0.54214 0.14004 0.0
C1413 C 0.58732 0.54118 0.18309 0.0
N1414 N 0.5848 0.5207 0.09809 0.0
C1415 C 0.59368 0.51971 0.14015 0.0
Co1416 Co 0.57879 0.79326 0.90775 0.0
Co1417 Co 0.59464 0.83791 0.86931 0.0
O1418 O 0.58192 0.81775 0.91783 0.0
C1419 C 0.59289 0.78603 0.00123 0.0
O1420 O 0.6033 0.78264 0.97133 0.0
C1421 C 0.55921 0.83778 0.88833 0.0
O1422 O 0.54989 0.8198 0.88477 0.0
O1423 O 0.57947 0.82209 0.81194 0.0
O1424 O 0.57556 0.79461 0.83386 0.0
H1425 H 0.62727 0.86659 0.70683 0.0
H1426 H 0.55633 0.79807 0.98569 0.0
O1427 O 0.58237 0.7914 0.98239 0.0
H1428 H 0.51177 0.75427 0.86321 0.0
H1429 H 0.55285 0.72605 0.9471 0.0
H1430 H 0.5932 0.77705 0.83401 0.0
H1431 H 0.54501 0.76667 0.85129 0.0
H1432 H 0.55723 0.75704 0.96007 0.0
O1433 O 0.57658 0.84646 0.88226 0.0
H1434 H 0.61147 0.84153 0.76847 0.0
H1435 H 0.60491 0.87744 0.86797 0.0
H1436 H 0.58919 0.74628 0.81967 0.0
H1437 H 0.52319 0.78583 0.99939 0.0
H1438 H 0.56889 0.72052 0.87645 0.0
H1439 H 0.50067 0.76381 0.93779 0.0
O1440 O 0.60577 0.8042 0.89643 0.0
H1441 H 0.6056 0.86484 0.04381 0.0
H1442 H 0.6349 0.86293 0.88449 0.0
H1443 H 0.65418 0.8821 0.95475 0.0
H1444 H 0.63953 0.8832 0.03507 0.0
H1445 H 0.58683 0.84569 0.97274 0.0
H1446 H 0.62053 0.90287 0.80723 0.0
H1447 H 0.63189 0.89755 0.72603 0.0
O1448 O 0.61333 0.83044 0.85572 0.0
C1449 C 0.57526 0.80562 0.80134 0.0
C1450 C 0.62239 0.8691 0.74208 0.0
C1451 C 0.61858 0.88945 0.7984 0.0
N1452 N 0.60723 0.85799 0.82177 0.0
C1453 C 0.61344 0.85495 0.77718 0.0
C1454 C 0.60967 0.87496 0.83256 0.0
C1455 C 0.62496 0.88645 0.75286 0.0
C1456 C 0.5466 0.78833 0.95904 0.0
N1457 N 0.5526 0.783 0.91795 0.0
C1458 C 0.52786 0.78152 0.96686 0.0
C1459 C 0.51523 0.76919 0.93223 0.0
C1460 C 0.52145 0.76385 0.89035 0.0
C1461 C 0.5403 0.77096 0.88371 0.0
C1462 C 0.56171 0.73716 0.92205 0.0
C1463 C 0.58432 0.76591 0.85886 0.0
C1464 C 0.56422 0.75473 0.92917 0.0
N1465 N 0.57541 0.76884 0.8977 0.0
C1466 C 0.58211 0.74851 0.85056 0.0
C1467 C 0.57072 0.73407 0.88242 0.0
C1468 C 0.61702 0.81828 0.87101 0.0
C1469 C 0.61214 0.86451 0.00895 0.0
C1470 C 0.62841 0.86325 0.91939 0.0
C1471 C 0.63941 0.87418 0.959 0.0
C1472 C 0.63118 0.8748 0.00405 0.0
N1473 N 0.60973 0.85326 0.9244 0.0
C1474 C 0.60158 0.85374 0.96853 0.0
Co1475 Co 0.2037 0.78256 0.89326 0.0
Co1476 Co 0.16103 0.74779 0.85961 0.0
O1477 O 0.18233 0.75821 0.90444 0.0
C1478 C 0.19418 0.7829 1.00098 0.0
O1479 O 0.17721 0.77643 0.9855 0.0
C1480 C 0.16794 0.71623 0.87427 0.0
O1481 O 0.18542 0.72677 0.86336 0.0
O1482 O 0.17716 0.75124 0.80044 0.0
O1483 O 0.20112 0.77917 0.81765 0.0
H1484 H 0.12637 0.74499 0.70216 0.0
H1485 H 0.20689 0.75632 0.96136 0.0
O1486 O 0.20683 0.78653 0.96878 0.0
H1487 H 0.25278 0.7704 0.8274 0.0
H1488 H 0.26726 0.83477 0.9309 0.0
H1489 H 0.21245 0.81341 0.82325 0.0
H1490 H 0.23348 0.78486 0.82716 0.0
H1491 H 0.24036 0.80385 0.94258 0.0
O1492 O 0.15703 0.72259 0.87247 0.0
H1493 H 0.15288 0.75826 0.76007 0.0
H1494 H 0.12386 0.7142 0.86282 0.0
H1495 H 0.23907 0.84436 0.81 0.0
H1496 H 0.22601 0.74167 0.96332 0.0
H1497 H 0.26675 0.85523 0.86408 0.0
H1498 H 0.24913 0.74866 0.89593 0.0
O1499 O 0.18773 0.79383 0.89096 0.0
H1500 H 0.13825 0.72902 0.03714 0.0
H1501 H 0.13138 0.75665 0.88045 0.0
H1502 H 0.11214 0.75353 0.95413 0.0
H1503 H 0.11547 0.73958 0.03318 0.0
H1504 H 0.1574 0.73264 0.96278 0.0
H1505 H 0.09708 0.70039 0.80583 0.0
H1506 H 0.09821 0.71585 0.72492 0.0
O1507 O 0.16388 0.77252 0.84645 0.0
C1508 C 0.19142 0.76614 0.78676 0.0
C1509 C 0.1257 0.73815 0.73736 0.0
C1510 C 0.10927 0.71311 0.79551 0.0
N1511 N 0.1399 0.73708 0.81493 0.0
C1512 C 0.14066 0.74561 0.77037 0.0
C1513 C 0.1245 0.72097 0.82757 0.0
C1514 C 0.10991 0.72179 0.75013 0.0
C1515 C 0.21704 0.75956 0.93217 0.0
N1516 N 0.21916 0.77152 0.89439 0.0
C1517 C 0.22777 0.75116 0.93336 0.0
C1518 C 0.24072 0.75507 0.89549 0.0
C1519 C 0.24277 0.76726 0.85701 0.0
C1520 C 0.23178 0.77538 0.85701 0.0
C1521 C 0.2553 0.83017 0.90701 0.0
C1522 C 0.22448 0.81798 0.84666 0.0
C1523 C 0.24002 0.81269 0.9135 0.0
N1524 N 0.22492 0.80677 0.88329 0.0
C1525 C 0.2395 0.83555 0.83911 0.0
C1526 C 0.25501 0.84164 0.8695 0.0
C1527 C 0.17332 0.78872 0.86428 0.0
C1528 C 0.13663 0.73508 0.00287 0.0
C1529 C 0.13302 0.75069 0.91478 0.0
C1530 C 0.12202 0.74889 0.95634 0.0
C1531 C 0.12388 0.74104 1.00065 0.0
N1532 N 0.14551 0.74483 0.91723 0.0
C1533 C 0.14738 0.73709 0.96054 0.0
Co1534 Co 0.22207 0.42065 0.8815 0.0
Co1535 Co 0.25541 0.41057 0.84673 0.0
O1536 O 0.24634 0.42299 0.89101 0.0
C1537 C 0.22252 0.41194 0.98991 0.0
O1538 O 0.22853 0.40101 0.97498 0.0
C1539 C 0.28882 0.44811 0.8667 0.0
O1540 O 0.27859 0.45534 0.87792 0.0
O1541 O 0.25152 0.42246 0.78656 0.0
O1542 O 0.22444 0.42027 0.80558 0.0
H1543 H 0.25365 0.37483 0.69271 0.0
H1544 H 0.24892 0.45062 0.94739 0.0
O1545 O 0.21902 0.42091 0.95722 0.0
H1546 H 0.23545 0.48155 0.80963 0.0
H1547 H 0.17177 0.43469 0.92067 0.0
H1548 H 0.19014 0.39832 0.81491 0.0
H1549 H 0.22042 0.44777 0.81226 0.0
H1550 H 0.20237 0.43778 0.93056 0.0
O1551 O 0.28146 0.43134 0.85324 0.0
H1552 H 0.24251 0.39021 0.75012 0.0
H1553 H 0.28783 0.40497 0.84802 0.0
H1554 H 0.15948 0.3949 0.80349 0.0
H1555 H 0.26405 0.48444 0.94664 0.0
H1556 H 0.15012 0.41317 0.85662 0.0
H1557 H 0.2574 0.50012 0.87727 0.0
O1558 O 0.20989 0.39335 0.88244 0.0
H1559 H 0.27655 0.4093 0.02345 0.0
H1560 H 0.24565 0.37216 0.87283 0.0
H1561 H 0.24932 0.3571 0.94817 0.0
H1562 H 0.26492 0.37572 0.02417 0.0
H1563 H 0.27236 0.42375 0.94756 0.0
H1564 H 0.29953 0.38987 0.79143 0.0
H1565 H 0.28236 0.3746 0.71322 0.0
O1566 O 0.23011 0.38901 0.83839 0.0
C1567 C 0.2369 0.42255 0.7738 0.0
C1568 C 0.26124 0.38141 0.72672 0.0
C1569 C 0.287 0.38987 0.78209 0.0
N1570 N 0.26446 0.39843 0.8025 0.0
C1571 C 0.25498 0.39013 0.75943 0.0
C1572 C 0.28033 0.39845 0.81392 0.0
C1573 C 0.27735 0.3813 0.73823 0.0
C1574 C 0.24582 0.45734 0.91735 0.0
N1575 N 0.23381 0.44723 0.87993 0.0
C1576 C 0.25449 0.4765 0.917 0.0
C1577 C 0.25077 0.48529 0.87802 0.0
C1578 C 0.23848 0.47488 0.84002 0.0
C1579 C 0.23008 0.45575 0.84158 0.0
C1580 C 0.17571 0.42669 0.8972 0.0
C1581 C 0.18623 0.40642 0.83791 0.0
C1582 C 0.19301 0.42836 0.90268 0.0
N1583 N 0.1981 0.41837 0.873 0.0
C1584 C 0.16882 0.40438 0.83139 0.0
C1585 C 0.16357 0.41461 0.86125 0.0
C1586 C 0.21421 0.38311 0.85741 0.0
C1587 C 0.26981 0.40106 0.99048 0.0
C1588 C 0.25238 0.38035 0.90577 0.0
C1589 C 0.25447 0.37175 0.9483 0.0
C1590 C 0.26324 0.38221 0.99091 0.0
N1591 N 0.25889 0.39886 0.90557 0.0
C1592 C 0.2675 0.40919 0.94724 0.0
Co1593 Co 0.45814 0.90664 0.92875 0.0
Co1594 Co 0.50191 0.92067 0.9706 0.0
O1595 O 0.48174 0.90752 0.92277 0.0
C1596 C 0.4696 0.91916 0.82492 0.0
O1597 O 0.48582 0.93078 0.84348 0.0
C1598 C 0.49842 0.88358 0.96264 0.0
O1599 O 0.48065 0.87612 0.96991 0.0
O1600 O 0.4854 0.9075 0.02868 0.0
O1601 O 0.45891 0.90536 0.0035 0.0
H1602 H 0.53149 0.95625 0.12876 0.0
H1603 H 0.46131 0.88037 0.86086 0.0
O1604 O 0.45676 0.90811 0.8539 0.0
H1605 H 0.41402 0.8421 0.98575 0.0
H1606 H 0.39305 0.88639 0.87761 0.0
H1607 H 0.44334 0.92455 0.99533 0.0
H1608 H 0.42902 0.87589 0.98909 0.0
H1609 H 0.42275 0.88723 0.87224 0.0
O1610 O 0.50868 0.901 0.96345 0.0
H1611 H 0.50632 0.94011 0.06751 0.0
H1612 H 0.54058 0.92838 0.9757 0.0
H1613 H 0.41382 0.92401 0.00228 0.0
H1614 H 0.44655 0.84662 0.85586 0.0
H1615 H 0.38842 0.90482 0.94313 0.0
H1616 H 0.42275 0.82725 0.91871 0.0
O1617 O 0.47064 0.93388 0.93329 0.0
H1618 H 0.52904 0.92566 0.79831 0.0
H1619 H 0.52866 0.96006 0.94862 0.0
H1620 H 0.54841 0.97685 0.8763 0.0
H1621 H 0.54871 0.95963 0.80047 0.0
H1622 H 0.50934 0.90942 0.87124 0.0
H1623 H 0.5661 0.94429 0.03615 0.0
H1624 H 0.56165 0.95843 0.11324 0.0
O1625 O 0.49596 0.94091 0.9782 0.0
C1626 C 0.46927 0.9047 0.03756 0.0
C1627 C 0.53362 0.95019 0.09524 0.0
C1628 C 0.55303 0.94346 0.0433 0.0
N1629 N 0.52201 0.93341 0.01792 0.0
C1630 C 0.51942 0.94107 0.06036 0.0
C1631 C 0.53852 0.93442 0.00926 0.0
C1632 C 0.55053 0.95139 0.08653 0.0
C1633 C 0.45084 0.87202 0.88803 0.0
N1634 N 0.44596 0.88007 0.92503 0.0
C1635 C 0.44259 0.85292 0.88515 0.0
C1636 C 0.42926 0.84207 0.92047 0.0
C1637 C 0.42436 0.85039 0.95812 0.0
C1638 C 0.43293 0.86953 0.95989 0.0
C1639 C 0.404 0.89476 0.9037 0.0
C1640 C 0.43231 0.91607 0.96968 0.0
C1641 C 0.42085 0.89531 0.9008 0.0
N1642 N 0.4347 0.90578 0.93379 0.0
C1643 C 0.41565 0.91586 0.9737 0.0
C1644 C 0.40141 0.90511 0.94047 0.0
C1645 C 0.48461 0.94512 0.95906 0.0
C1646 C 0.52907 0.93331 0.8312 0.0
C1647 C 0.52865 0.95246 0.91571 0.0
C1648 C 0.53991 0.96205 0.87492 0.0
C1649 C 0.54008 0.95237 0.8324 0.0
N1650 N 0.5179 0.93376 0.91426 0.0
C1651 C 0.51801 0.92418 0.87272 0.0
Co1652 Co 0.08823 0.5471 0.94752 0.0
Co1653 Co 0.07305 0.57666 0.98067 0.0
O1654 O 0.08728 0.56968 0.93697 0.0
C1655 C 0.07834 0.5459 0.84007 0.0
O1656 O 0.06595 0.54988 0.85597 0.0
C1657 C 0.10916 0.61174 0.96672 0.0
O1658 O 0.1181 0.60268 0.96862 0.0
O1659 O 0.08635 0.57511 0.0409 0.0
O1660 O 0.08766 0.54963 0.02332 0.0
H1661 H 0.03576 0.5715 0.13438 0.0
H1662 H 0.11604 0.57597 0.88093 0.0
O1663 O 0.08862 0.54398 0.87198 0.0
H1664 H 0.15132 0.56849 0.0184 0.0
H1665 H 0.11017 0.50257 0.90989 0.0
H1666 H 0.06914 0.51482 0.0152 0.0
H1667 H 0.11751 0.54967 0.01628 0.0
H1668 H 0.10905 0.53113 0.89893 0.0
O1669 O 0.09176 0.60334 0.97191 0.0
H1670 H 0.05337 0.56273 0.0778 0.0
H1671 H 0.06309 0.60613 0.97762 0.0
H1672 H 0.06994 0.48617 0.02776 0.0
H1673 H 0.14985 0.59491 0.88122 0.0
H1674 H 0.09057 0.4799 0.97486 0.0
H1675 H 0.16771 0.59127 0.95043 0.0
O1676 O 0.06094 0.53209 0.94724 0.0
H1677 H 0.06845 0.5953 0.80346 0.0
H1678 H 0.03352 0.56203 0.9548 0.0
H1679 H 0.01688 0.56294 0.87926 0.0
H1680 H 0.03437 0.5797 0.80289 0.0
H1681 H 0.08453 0.59384 0.8796 0.0
H1682 H 0.04572 0.61547 0.03337 0.0
H1683 H 0.03184 0.59805 0.11229 0.0
O1684 O 0.05353 0.55036 0.99046 0.0
C1685 C 0.08839 0.56165 0.05442 0.0
C1686 C 0.04171 0.57918 0.10006 0.0
C1687 C 0.04733 0.60387 0.0434 0.0
N1688 N 0.0592 0.58385 0.02434 0.0
C1689 C 0.05168 0.57426 0.06781 0.0
C1690 C 0.0572 0.59855 0.01206 0.0
C1691 C 0.03953 0.59409 0.08766 0.0
C1692 C 0.12373 0.57417 0.91087 0.0
N1693 N 0.11482 0.5617 0.94845 0.0
C1694 C 0.14287 0.58499 0.91097 0.0
C1695 C 0.15288 0.58297 0.94986 0.0
C1696 C 0.14369 0.57021 0.98804 0.0
C1697 C 0.12454 0.55964 0.98675 0.0
C1698 C 0.10117 0.50517 0.93328 0.0
C1699 C 0.07826 0.51226 0.99234 0.0
C1700 C 0.10046 0.52131 0.9272 0.0
N1701 N 0.08919 0.52473 0.9568 0.0
C1702 C 0.07861 0.49598 0.99948 0.0
C1703 C 0.09017 0.49246 0.96975 0.0
C1704 C 0.04947 0.53478 0.97189 0.0
C1705 C 0.06068 0.58801 0.83656 0.0
C1706 C 0.04124 0.56927 0.92167 0.0
C1707 C 0.03174 0.5698 0.87904 0.0
C1708 C 0.04156 0.57922 0.83623 0.0
N1709 N 0.06 0.57792 0.92171 0.0
C1710 C 0.06972 0.58722 0.87989 0.0
Co1711 Co 0.45884 0.549 0.94322 0.0
Co1712 Co 0.4274 0.50335 0.95931 0.0
O1713 O 0.43623 0.52667 0.92391 0.0
C1714 C 0.46244 0.54583 0.83436 0.0
O1715 O 0.45643 0.52832 0.84214 0.0
C1716 C 0.39377 0.50694 0.95491 0.0
O1717 O 0.40312 0.52332 0.97537 0.0
O1718 O 0.42809 0.51527 0.02493 0.0
O1719 O 0.45425 0.54224 0.01594 0.0
H1720 H 0.42688 0.46248 0.09846 0.0
H1721 H 0.43182 0.5518 0.87756 0.0
O1722 O 0.46425 0.55638 0.87089 0.0
H1723 H 0.43726 0.58824 0.0291 0.0
H1724 H 0.50553 0.61642 0.93287 0.0
H1725 H 0.48949 0.55746 0.01378 0.0
H1726 H 0.45561 0.57289 0.021 0.0
H1727 H 0.47683 0.58815 0.91051 0.0
O1728 O 0.40141 0.49734 0.9472 0.0
H1729 H 0.43822 0.49174 0.05279 0.0
H1730 H 0.39664 0.46517 0.94177 0.0
H1731 H 0.51823 0.5854 0.03766 0.0
H1732 H 0.41332 0.56704 0.88391 0.0
H1733 H 0.52642 0.61517 0.99708 0.0
H1734 H 0.41596 0.58539 0.96017 0.0
O1735 O 0.47304 0.53596 0.93833 0.0
H1736 H 0.41224 0.48897 0.77546 0.0
H1737 H 0.44147 0.47894 0.92406 0.0
H1738 H 0.44154 0.46472 0.84274 0.0
H1739 H 0.42681 0.46966 0.76774 0.0
H1740 H 0.41268 0.50313 0.85732 0.0
H1741 H 0.38475 0.43565 0.9865 0.0
H1742 H 0.39995 0.43416 0.06532 0.0
O1743 O 0.45317 0.50854 0.97164 0.0
C1744 C 0.44151 0.52992 0.04303 0.0
C1745 C 0.42017 0.46294 0.06407 0.0
C1746 C 0.39651 0.44789 0.00127 0.0
N1747 N 0.4182 0.48014 0.99444 0.0
C1748 C 0.42656 0.47946 0.03797 0.0
C1749 C 0.40328 0.46465 0.97616 0.0
C1750 C 0.40505 0.44706 0.04548 0.0
C1751 C 0.43316 0.5599 0.91064 0.0
N1752 N 0.44487 0.56156 0.94869 0.0
C1753 C 0.4226 0.56844 0.91412 0.0
C1754 C 0.42407 0.57871 0.95695 0.0
C1755 C 0.43601 0.58031 0.99566 0.0
C1756 C 0.44634 0.57156 0.9909 0.0
C1757 C 0.50208 0.60355 0.95101 0.0
C1758 C 0.49285 0.57039 0.99639 0.0
C1759 C 0.48585 0.5875 0.93848 0.0
N1760 N 0.48134 0.57122 0.96146 0.0
C1761 C 0.50919 0.58615 0.00987 0.0
C1762 C 0.51379 0.60284 0.98703 0.0
C1763 C 0.46936 0.52064 0.95799 0.0
C1764 C 0.41865 0.48666 0.80791 0.0
C1765 C 0.43512 0.48125 0.89155 0.0
C1766 C 0.43515 0.4731 0.84563 0.0
C1767 C 0.42686 0.47586 0.80358 0.0
N1768 N 0.42704 0.49183 0.8955 0.0
C1769 C 0.41886 0.49457 0.85444 0.0
Co1770 Co 0.08704 0.53592 0.4479 0.0
Co1771 Co 0.07894 0.49301 0.47915 0.0
O1772 O 0.09007 0.51469 0.4361 0.0
C1773 C 0.07747 0.52656 0.34043 0.0
O1774 O 0.06675 0.50967 0.35614 0.0
C1775 C 0.11785 0.50102 0.47214 0.0
O1776 O 0.12367 0.51745 0.49107 0.0
O1777 O 0.0908 0.50854 0.53981 0.0
O1778 O 0.0875 0.53296 0.52337 0.0
H1779 H 0.04573 0.45631 0.63269 0.0
H1780 H 0.11682 0.53931 0.38088 0.0
O1781 O 0.08651 0.53927 0.37249 0.0
H1782 H 0.14799 0.58465 0.51654 0.0
H1783 H 0.09855 0.5996 0.41194 0.0
H1784 H 0.06459 0.54431 0.51753 0.0
H1785 H 0.1142 0.56545 0.51522 0.0
H1786 H 0.10262 0.57276 0.39975 0.0
O1787 O 0.10072 0.48983 0.46682 0.0
H1788 H 0.05915 0.48345 0.57702 0.0
H1789 H 0.07631 0.45633 0.47385 0.0
H1790 H 0.06021 0.57087 0.53127 0.0
H1791 H 0.15063 0.55831 0.38054 0.0
H1792 H 0.07726 0.59878 0.47824 0.0
H1793 H 0.16642 0.58116 0.44877 0.0
O1794 O 0.05983 0.51995 0.44913 0.0
H1795 H 0.07699 0.47202 0.30044 0.0
H1796 H 0.04078 0.46339 0.4548 0.0
H1797 H 0.02554 0.44473 0.37943 0.0
H1798 H 0.04368 0.44896 0.30156 0.0
H1799 H 0.09163 0.49057 0.37641 0.0
H1800 H 0.06317 0.42894 0.52861 0.0
H1801 H 0.04769 0.4288 0.60857 0.0
O1802 O 0.05665 0.49539 0.49132 0.0
C1803 C 0.09042 0.52288 0.5539 0.0
C1804 C 0.05239 0.45619 0.59787 0.0
C1805 C 0.0622 0.44084 0.53948 0.0
N1806 N 0.06838 0.47143 0.52206 0.0
C1807 C 0.05998 0.4715 0.56612 0.0
C1808 C 0.06965 0.4564 0.50869 0.0
C1809 C 0.05351 0.44076 0.58434 0.0
C1810 C 0.1236 0.54933 0.41045 0.0
N1811 N 0.11356 0.55137 0.4478 0.0
C1812 C 0.14274 0.56 0.41017 0.0
C1813 C 0.1516 0.5728 0.44851 0.0
C1814 C 0.14126 0.57476 0.48655 0.0
C1815 C 0.12214 0.56384 0.48565 0.0
C1816 C 0.09108 0.58754 0.43538 0.0
C1817 C 0.07217 0.55646 0.49459 0.0
C1818 C 0.09331 0.5723 0.42861 0.0
N1819 N 0.084 0.55707 0.45827 0.0
C1820 C 0.06958 0.57143 0.50241 0.0
C1821 C 0.07914 0.58708 0.4726 0.0
C1822 C 0.05018 0.5052 0.47418 0.0
C1823 C 0.06895 0.47 0.3342 0.0
C1824 C 0.04876 0.46538 0.42101 0.0
C1825 C 0.04006 0.45473 0.37848 0.0
C1826 C 0.05025 0.4571 0.33482 0.0
N1827 N 0.06711 0.47801 0.42013 0.0
C1828 C 0.07719 0.4804 0.37744 0.0
Co1829 Co 0.46245 0.55358 0.43271 0.0
Co1830 Co 0.50661 0.58298 0.47261 0.0
O1831 O 0.48625 0.57596 0.42563 0.0
C1832 C 0.47376 0.55178 0.32943 0.0
O1833 O 0.48981 0.55601 0.34849 0.0
C1834 C 0.50314 0.61649 0.46463 0.0
O1835 O 0.48545 0.60611 0.473 0.0
O1836 O 0.49052 0.58008 0.53122 0.0
O1837 O 0.46346 0.55616 0.50738 0.0
H1838 H 0.53686 0.57737 0.62986 0.0
H1839 H 0.46611 0.58283 0.36313 0.0
O1840 O 0.46095 0.5503 0.358 0.0
H1841 H 0.41954 0.5757 0.48812 0.0
H1842 H 0.397 0.50941 0.38317 0.0
H1843 H 0.44719 0.52128 0.50095 0.0
H1844 H 0.43389 0.55634 0.49262 0.0
H1845 H 0.42703 0.53787 0.37656 0.0
O1846 O 0.51349 0.60943 0.46483 0.0
H1847 H 0.51138 0.56825 0.56961 0.0
H1848 H 0.5454 0.61377 0.47591 0.0
H1849 H 0.41734 0.49272 0.50916 0.0
H1850 H 0.45201 0.60238 0.35697 0.0
H1851 H 0.39198 0.48664 0.44998 0.0
H1852 H 0.42857 0.5989 0.41987 0.0
O1853 O 0.47445 0.53841 0.43832 0.0
H1854 H 0.5329 0.60423 0.2991 0.0
H1855 H 0.5329 0.56985 0.4499 0.0
H1856 H 0.55216 0.57229 0.37685 0.0
H1857 H 0.55226 0.5896 0.30078 0.0
H1858 H 0.5137 0.6013 0.37277 0.0
H1859 H 0.57123 0.62346 0.53533 0.0
H1860 H 0.56706 0.60516 0.61286 0.0
O1861 O 0.50042 0.55673 0.48085 0.0
C1862 C 0.47423 0.56718 0.54083 0.0
C1863 C 0.53887 0.58543 0.59613 0.0
C1864 C 0.55815 0.61131 0.54311 0.0
N1865 N 0.52694 0.59039 0.51912 0.0
C1866 C 0.52451 0.58031 0.56181 0.0
C1867 C 0.54346 0.60578 0.50966 0.0
C1868 C 0.5558 0.60103 0.5866 0.0
C1869 C 0.45579 0.58112 0.39032 0.0
N1870 N 0.45076 0.5684 0.428 0.0
C1871 C 0.44791 0.59227 0.38678 0.0
C1872 C 0.43479 0.59034 0.42214 0.0
C1873 C 0.42972 0.57733 0.46046 0.0
C1874 C 0.43792 0.56644 0.46289 0.0
C1875 C 0.40792 0.51193 0.40928 0.0
C1876 C 0.43618 0.5188 0.4753 0.0
C1877 C 0.42496 0.52801 0.40568 0.0
N1878 N 0.43878 0.53132 0.4387 0.0
C1879 C 0.41933 0.50257 0.48002 0.0
C1880 C 0.40511 0.49916 0.44678 0.0
C1881 C 0.48859 0.54107 0.46314 0.0
C1882 C 0.53302 0.59671 0.3321 0.0
C1883 C 0.53282 0.57736 0.41689 0.0
C1884 C 0.54379 0.57873 0.37568 0.0
C1885 C 0.54385 0.58846 0.33303 0.0
N1886 N 0.52223 0.58549 0.41571 0.0
C1887 C 0.52224 0.59507 0.37403 0.0
Co1888 Co 0.45211 0.90808 0.43943 0.0
Co1889 Co 0.42117 0.92279 0.45796 0.0
O1890 O 0.42949 0.90803 0.42142 0.0
C1891 C 0.45511 0.91431 0.32999 0.0
O1892 O 0.44894 0.92571 0.3372 0.0
C1893 C 0.38736 0.88571 0.45275 0.0
O1894 O 0.39699 0.87841 0.4694 0.0
O1895 O 0.42212 0.91147 0.52321 0.0
O1896 O 0.44812 0.91054 0.51242 0.0
H1897 H 0.42233 0.96352 0.59841 0.0
H1898 H 0.42456 0.87818 0.37501 0.0
O1899 O 0.45704 0.9058 0.36689 0.0
H1900 H 0.43053 0.84741 0.52631 0.0
H1901 H 0.49823 0.8867 0.42679 0.0
H1902 H 0.48333 0.93035 0.50826 0.0
H1903 H 0.44908 0.88107 0.51741 0.0
H1904 H 0.46952 0.88646 0.40592 0.0
O1905 O 0.39494 0.90305 0.44725 0.0
H1906 H 0.43293 0.94525 0.55137 0.0
H1907 H 0.3907 0.93081 0.44276 0.0
H1908 H 0.51209 0.93095 0.53062 0.0
H1909 H 0.40586 0.84446 0.38215 0.0
H1910 H 0.51971 0.909 0.48976 0.0
H1911 H 0.40877 0.82886 0.4583 0.0
O1912 O 0.46645 0.93528 0.43371 0.0
H1913 H 0.40479 0.92213 0.2752 0.0
H1914 H 0.43545 0.96134 0.42291 0.0
H1915 H 0.43515 0.9757 0.34204 0.0
H1916 H 0.4197 0.95605 0.26749 0.0
H1917 H 0.40562 0.90835 0.3566 0.0
H1918 H 0.37953 0.94878 0.4889 0.0
H1919 H 0.39544 0.96537 0.56721 0.0
O1920 O 0.44715 0.94317 0.46906 0.0
C1921 C 0.43562 0.9102 0.54039 0.0
C1922 C 0.41531 0.95639 0.56427 0.0
C1923 C 0.39128 0.94811 0.50284 0.0
N1924 N 0.41253 0.93707 0.49417 0.0
C1925 C 0.42128 0.94606 0.53739 0.0
C1926 C 0.39764 0.93791 0.47694 0.0
C1927 C 0.40021 0.95741 0.54676 0.0
C1928 C 0.42602 0.87147 0.40802 0.0
N1929 N 0.43796 0.88156 0.44558 0.0
C1930 C 0.41535 0.85238 0.41195 0.0
C1931 C 0.41696 0.84364 0.45473 0.0
C1932 C 0.42916 0.85404 0.49292 0.0
C1933 C 0.43959 0.8731 0.48772 0.0
C1934 C 0.49503 0.89627 0.44504 0.0
C1935 C 0.48644 0.92062 0.49074 0.0
C1936 C 0.47879 0.8962 0.43336 0.0
N1937 N 0.4746 0.90818 0.45649 0.0
C1938 C 0.5028 0.92109 0.50336 0.0
C1939 C 0.50707 0.90879 0.48037 0.0
C1940 C 0.46314 0.94708 0.45399 0.0
C1941 C 0.41152 0.93083 0.30745 0.0
C1942 C 0.42879 0.95269 0.39058 0.0
C1943 C 0.42861 0.9609 0.34493 0.0
C1944 C 0.41992 0.94987 0.30313 0.0
N1945 N 0.42052 0.93401 0.39453 0.0
C1946 C 0.41195 0.9231 0.35373 0.0
Co1947 Co 0.20876 0.42115 0.38149 0.0
Co1948 Co 0.16578 0.41236 0.3464 0.0
O1949 O 0.18727 0.42423 0.3909 0.0
C1950 C 0.19947 0.41262 0.48987 0.0
O1951 O 0.18246 0.402 0.47486 0.0
C1952 C 0.16987 0.4496 0.37221 0.0
O1953 O 0.18636 0.45585 0.3911 0.0
O1954 O 0.1818 0.42407 0.2865 0.0
O1955 O 0.20603 0.42077 0.30555 0.0
H1956 H 0.13154 0.37745 0.19159 0.0
H1957 H 0.21293 0.45159 0.44713 0.0
O1958 O 0.21203 0.42137 0.45723 0.0
H1959 H 0.25753 0.48136 0.30911 0.0
H1960 H 0.27247 0.43329 0.42085 0.0
H1961 H 0.2174 0.39804 0.31523 0.0
H1962 H 0.23794 0.44765 0.31207 0.0
H1963 H 0.24555 0.43738 0.43054 0.0
O1964 O 0.16118 0.43358 0.35282 0.0
H1965 H 0.15799 0.3921 0.24952 0.0
H1966 H 0.12817 0.40783 0.34715 0.0
H1967 H 0.24405 0.39363 0.30401 0.0
H1968 H 0.23243 0.48533 0.44601 0.0
H1969 H 0.27185 0.41133 0.35707 0.0
H1970 H 0.25489 0.50044 0.37652 0.0
O1971 O 0.19294 0.39393 0.38265 0.0
H1972 H 0.14345 0.41085 0.52357 0.0
H1973 H 0.13613 0.37426 0.37097 0.0
H1974 H 0.11695 0.35919 0.44556 0.0
H1975 H 0.12048 0.37753 0.52255 0.0
H1976 H 0.16254 0.4253 0.44853 0.0
H1977 H 0.10146 0.39348 0.29003 0.0
H1978 H 0.10301 0.37809 0.21169 0.0
O1979 O 0.1688 0.39039 0.33791 0.0
C1980 C 0.19618 0.42352 0.27373 0.0
C1981 C 0.13068 0.38409 0.22565 0.0
C1982 C 0.11381 0.39311 0.28086 0.0
N1983 N 0.14463 0.40077 0.30179 0.0
C1984 C 0.14561 0.39239 0.25866 0.0
C1985 C 0.12901 0.40126 0.31298 0.0
C1986 C 0.11469 0.38447 0.23693 0.0
C1987 C 0.22276 0.45805 0.41698 0.0
N1988 N 0.22426 0.44766 0.37969 0.0
C1989 C 0.23373 0.47717 0.41645 0.0
C1990 C 0.2463 0.48563 0.37741 0.0
C1991 C 0.24778 0.47494 0.33954 0.0
C1992 C 0.23657 0.45586 0.34129 0.0
C1993 C 0.26046 0.42553 0.39742 0.0
C1994 C 0.22949 0.4059 0.3382 0.0
C1995 C 0.24516 0.42777 0.40278 0.0
N1996 N 0.22999 0.41809 0.37314 0.0
C1997 C 0.24452 0.40329 0.33179 0.0
C1998 C 0.2601 0.41321 0.36162 0.0
C1999 C 0.17835 0.38404 0.35733 0.0
C2000 C 0.14168 0.40274 0.49013 0.0
C2001 C 0.1378 0.38235 0.4043 0.0
C2002 C 0.12686 0.37373 0.44642 0.0
C2003 C 0.12884 0.38403 0.48958 0.0
N2004 N 0.15032 0.40074 0.40496 0.0
C2005 C 0.15237 0.41089 0.44727 0.0
Co2006 Co 0.57932 0.78711 0.40034 0.0
Co2007 Co 0.59812 0.75928 0.38018 0.0
O2008 O 0.58237 0.76608 0.41844 0.0
C2009 C 0.58784 0.7919 0.51018 0.0
O2010 O 0.59872 0.78508 0.50366 0.0
C2011 C 0.56278 0.72323 0.39158 0.0
O2012 O 0.55314 0.73136 0.38365 0.0
O2013 O 0.58577 0.759 0.31557 0.0
O2014 O 0.57929 0.78163 0.32702 0.0
H2015 H 0.63981 0.76449 0.23735 0.0
H2016 H 0.55384 0.75941 0.47336 0.0
O2017 O 0.57913 0.79352 0.4732 0.0
H2018 H 0.51464 0.75849 0.33363 0.0
H2019 H 0.55286 0.82895 0.41823 0.0
H2020 H 0.59572 0.81638 0.32276 0.0
H2021 H 0.54811 0.77975 0.33197 0.0
H2022 H 0.55651 0.80245 0.44011 0.0
O2023 O 0.58027 0.73246 0.39081 0.0
H2024 H 0.62014 0.77284 0.28628 0.0
H2025 H 0.60964 0.7312 0.39362 0.0
H2026 H 0.59238 0.84294 0.29938 0.0
H2027 H 0.5204 0.73807 0.47695 0.0
H2028 H 0.57082 0.84938 0.34729 0.0
H2029 H 0.50057 0.73747 0.40661 0.0
O2030 O 0.6065 0.80392 0.398 0.0
H2031 H 0.60045 0.74327 0.56181 0.0
H2032 H 0.63729 0.77665 0.41303 0.0
H2033 H 0.65295 0.77749 0.49249 0.0
H2034 H 0.6345 0.76066 0.56755 0.0
H2035 H 0.58533 0.74303 0.48181 0.0
H2036 H 0.62909 0.72229 0.34562 0.0
H2037 H 0.64438 0.73902 0.26693 0.0
O2038 O 0.61665 0.7856 0.36858 0.0
C2039 C 0.58088 0.77018 0.29899 0.0
C2040 C 0.63321 0.75707 0.27154 0.0
C2041 C 0.62717 0.73338 0.33227 0.0
N2042 N 0.61365 0.75246 0.34265 0.0
C2043 C 0.62204 0.76174 0.29943 0.0
C2044 C 0.6161 0.73843 0.35917 0.0
C2045 C 0.63576 0.74278 0.28815 0.0
C2046 C 0.54528 0.75934 0.44284 0.0
N2047 N 0.55292 0.77082 0.40248 0.0
C2048 C 0.52636 0.74718 0.44498 0.0
C2049 C 0.51525 0.74683 0.40547 0.0
C2050 C 0.52314 0.7586 0.36448 0.0
C2051 C 0.54211 0.77056 0.36361 0.0
C2052 C 0.56227 0.82627 0.39703 0.0
C2053 C 0.58623 0.81902 0.34361 0.0
C2054 C 0.56443 0.81131 0.40931 0.0
N2055 N 0.57623 0.80779 0.38253 0.0
C2056 C 0.58443 0.83411 0.33028 0.0
C2057 C 0.57235 0.83773 0.35721 0.0
C2058 C 0.6191 0.80142 0.37947 0.0
C2059 C 0.60864 0.75062 0.52932 0.0
C2060 C 0.62914 0.76941 0.44562 0.0
C2061 C 0.6381 0.76988 0.49046 0.0
C2062 C 0.62774 0.76041 0.53255 0.0
N2063 N 0.61039 0.75977 0.44272 0.0
C2064 C 0.60015 0.75045 0.48383 0.0
Co2065 Co 0.2168 0.7947 0.39361 0.0
Co2066 Co 0.24589 0.8395 0.35967 0.0
O2067 O 0.23938 0.81835 0.40345 0.0
C2068 C 0.21606 0.803 0.50194 0.0
O2069 O 0.22008 0.81948 0.48695 0.0
C2070 C 0.28138 0.83911 0.37217 0.0
O2071 O 0.27248 0.82109 0.37133 0.0
O2072 O 0.24412 0.82462 0.29918 0.0
O2073 O 0.21879 0.79782 0.31767 0.0
H2074 H 0.23932 0.87114 0.20682 0.0
H2075 H 0.24618 0.79592 0.45822 0.0
O2076 O 0.2141 0.791 0.4693 0.0
H2077 H 0.23806 0.75334 0.31966 0.0
H2078 H 0.17279 0.72807 0.43145 0.0
H2079 H 0.18405 0.7814 0.3277 0.0
H2080 H 0.2191 0.76813 0.32362 0.0
H2081 H 0.20134 0.75783 0.44165 0.0
O2082 O 0.27274 0.84788 0.36706 0.0
H2083 H 0.2312 0.84489 0.26336 0.0
H2084 H 0.27503 0.87908 0.36184 0.0
H2085 H 0.15539 0.75187 0.31594 0.0
H2086 H 0.26528 0.78126 0.45609 0.0
H2087 H 0.14962 0.72493 0.36806 0.0
H2088 H 0.26132 0.75984 0.38632 0.0
O2089 O 0.2017 0.80685 0.39551 0.0
H2090 H 0.26537 0.86304 0.53631 0.0
H2091 H 0.23097 0.86403 0.38672 0.0
H2092 H 0.23211 0.88157 0.46252 0.0
H2093 H 0.24944 0.88118 0.538 0.0
H2094 H 0.26369 0.8455 0.45993 0.0
H2095 H 0.28372 0.90567 0.3061 0.0
H2096 H 0.26576 0.90181 0.22806 0.0
O2097 O 0.21944 0.83239 0.35114 0.0
C2098 C 0.23058 0.8091 0.28606 0.0
C2099 C 0.24723 0.87301 0.24076 0.0
C2100 C 0.27217 0.89238 0.29645 0.0
N2101 N 0.25258 0.86044 0.31599 0.0
C2102 C 0.24268 0.85819 0.27299 0.0
C2103 C 0.26721 0.87725 0.32779 0.0
C2104 C 0.26208 0.89021 0.25268 0.0
C2105 C 0.24425 0.78647 0.42804 0.0
N2106 N 0.23151 0.78285 0.39119 0.0
C2107 C 0.25516 0.77827 0.4269 0.0
C2108 C 0.25295 0.76628 0.38769 0.0
C2109 C 0.23992 0.76265 0.35024 0.0
C2110 C 0.22927 0.77112 0.35258 0.0
C2111 C 0.17517 0.73969 0.40841 0.0
C2112 C 0.1817 0.76971 0.35022 0.0
C2113 C 0.1913 0.75658 0.41406 0.0
N2114 N 0.19444 0.77128 0.3849 0.0
C2115 C 0.16542 0.75303 0.34353 0.0
C2116 C 0.16218 0.73794 0.37283 0.0
C2117 C 0.20406 0.82086 0.37072 0.0
C2118 C 0.25783 0.86337 0.50359 0.0
C2119 C 0.23847 0.86371 0.41946 0.0
C2120 C 0.23912 0.87373 0.46224 0.0
C2121 C 0.24886 0.87352 0.50455 0.0
N2122 N 0.24732 0.8538 0.41879 0.0
C2123 C 0.25691 0.85355 0.46013 0.0
H2124 H 0.242 0.13553 0.88332 0.0
H2125 H 0.26805 0.10336 0.9122 0.0
H2126 H 0.26561 0.10661 0.00296 0.0
H2127 H 0.25731 0.11959 0.07421 0.0
H2128 H 0.23347 0.15379 0.04626 0.0
H2129 H 0.23368 0.14864 0.95534 0.0
C2130 C 0.24705 0.12916 0.90953 0.0
C2131 C 0.25521 0.11922 0.89092 0.0
C2132 C 0.24598 0.13143 0.96192 0.0
C2133 C 0.26182 0.11118 0.92541 0.0
C2134 C 0.26038 0.11298 0.97739 0.0
C2135 C 0.2519 0.12571 0.04835 0.0
C2136 C 0.24521 0.13692 0.06717 0.0
C2137 C 0.25263 0.12319 0.99609 0.0
C2138 C 0.23863 0.14504 0.03286 0.0
C2139 C 0.23879 0.14214 0.98083 0.0
H2140 H 0.86411 0.1109 0.87502 0.0
H2141 H 0.89984 0.16852 0.90708 0.0
H2142 H 0.89525 0.16222 0.9975 0.0
H2143 H 0.88137 0.14058 0.06652 0.0
H2144 H 0.8444 0.08309 0.03624 0.0
H2145 H 0.84925 0.08913 0.94529 0.0
C2146 C 0.87091 0.12207 0.90183 0.0
C2147 C 0.88238 0.14016 0.88446 0.0
C2148 C 0.86803 0.11837 0.95371 0.0
C2149 C 0.89092 0.15452 0.91952 0.0
C2150 C 0.88834 0.15091 0.97116 0.0
C2151 C 0.87442 0.12927 0.04027 0.0
C2152 C 0.8627 0.11134 0.05824 0.0
C2153 C 0.877 0.13291 0.98854 0.0
C2154 C 0.85355 0.09699 0.0234 0.0
C2155 C 0.85633 0.10045 0.97149 0.0
H2156 H 0.91142 0.75868 0.03752 0.0
H2157 H 0.8687 0.76831 0.09383 0.0
H2158 H 0.85595 0.76439 0.00968 0.0
H2159 H 0.85552 0.75632 0.9206 0.0
H2160 H 0.89914 0.74888 0.86187 0.0
H2161 H 0.91277 0.75367 0.9462 0.0
C2162 C 0.89952 0.76024 0.03129 0.0
C2163 C 0.89095 0.76351 0.07242 0.0
C2164 C 0.89216 0.75803 0.98237 0.0
C2165 C 0.87556 0.76558 0.06328 0.0
C2166 C 0.86813 0.76327 0.01504 0.0
C2167 C 0.86798 0.75571 0.92647 0.0
C2168 C 0.87616 0.75194 0.88565 0.0
C2169 C 0.87604 0.75905 0.97455 0.0
C2170 C 0.89255 0.75162 0.89313 0.0
C2171 C 0.90036 0.7544 0.94122 0.0
H2172 H 0.12279 0.25316 0.4417 0.0
H2173 H 0.15761 0.2301 0.47118 0.0
H2174 H 0.15287 0.23112 0.56201 0.0
H2175 H 0.13977 0.23978 0.63361 0.0
H2176 H 0.10655 0.26455 0.60265 0.0
H2177 H 0.10979 0.26167 0.51222 0.0
C2178 C 0.12921 0.24814 0.4678 0.0
C2179 C 0.14046 0.24144 0.44927 0.0
C2180 C 0.12683 0.24923 0.52002 0.0
C2181 C 0.14883 0.23527 0.48412 0.0
C2182 C 0.14617 0.2359 0.53618 0.0
C2183 C 0.13319 0.24448 0.60705 0.0
C2184 C 0.12296 0.25243 0.62512 0.0
C2185 C 0.13536 0.24306 0.55467 0.0
C2186 C 0.11461 0.25852 0.59003 0.0
C2187 C 0.1164 0.25682 0.53817 0.0
H2188 H 0.75123 0.87308 0.42359 0.0
H2189 H 0.76663 0.92934 0.45548 0.0
H2190 H 0.76564 0.92308 0.54629 0.0
H2191 H 0.75961 0.90124 0.61596 0.0
H2192 H 0.74198 0.84458 0.58176 0.0
H2193 H 0.74456 0.85143 0.49154 0.0
C2194 C 0.75455 0.88411 0.45009 0.0
C2195 C 0.75919 0.90173 0.43267 0.0
C2196 C 0.75341 0.88027 0.50162 0.0
C2197 C 0.76311 0.91569 0.46792 0.0
C2198 C 0.7625 0.9121 0.51973 0.0
C2199 C 0.75641 0.89042 0.58866 0.0
C2200 C 0.75068 0.87243 0.60525 0.0
C2201 C 0.75756 0.89439 0.53692 0.0
C2202 C 0.74633 0.85848 0.56974 0.0
C2203 C 0.74786 0.86241 0.5183 0.0
H2204 H 0.14323 0.89717 0.5794 0.0
H2205 H 0.10055 0.84539 0.63729 0.0
H2206 H 0.08687 0.83657 0.55297 0.0
H2207 H 0.08795 0.84321 0.46188 0.0
H2208 H 0.12968 0.89624 0.40649 0.0
H2209 H 0.14244 0.90504 0.49067 0.0
C2210 C 0.13097 0.88395 0.57334 0.0
C2211 C 0.12308 0.87179 0.6139 0.0
C2212 C 0.12286 0.87926 0.52531 0.0
C2213 C 0.10693 0.85488 0.60621 0.0
C2214 C 0.09908 0.84987 0.55814 0.0
C2215 C 0.09963 0.8568 0.46831 0.0
C2216 C 0.10795 0.86885 0.42741 0.0
C2217 C 0.107 0.86192 0.51725 0.0
C2218 C 0.12303 0.88649 0.43685 0.0
C2219 C 0.13047 0.89158 0.4851 0.0
H2220 H 0.7519 0.90089 0.08053 0.0
H2221 H 0.75846 0.85686 0.1403 0.0
H2222 H 0.7621 0.84804 0.05477 0.0
H2223 H 0.76237 0.8524 0.96248 0.0
H2224 H 0.75842 0.89844 0.90504 0.0
H2225 H 0.75509 0.90699 0.98986 0.0
C2226 C 0.7541 0.88935 0.07463 0.0
C2227 C 0.75465 0.87935 0.11608 0.0
C2228 C 0.75676 0.88477 0.02576 0.0
C2229 C 0.7579 0.86468 0.10851 0.0
C2230 C 0.75999 0.85965 0.05974 0.0
C2231 C 0.76101 0.86442 0.96857 0.0
C2232 C 0.76039 0.87452 0.92708 0.0
C2233 C 0.75936 0.86956 0.01796 0.0
C2234 C 0.75877 0.89019 0.93591 0.0
C2235 C 0.7568 0.89514 0.98457 0.0
H2236 H 0.13636 0.89651 0.1147 0.0
H2237 H 0.10482 0.83824 0.08504 0.0
H2238 H 0.10972 0.84406 0.99456 0.0
H2239 H 0.12308 0.86534 0.9249 0.0
H2240 H 0.15631 0.9236 0.95238 0.0
H2241 H 0.15059 0.91812 0.04335 0.0
C2242 C 0.13052 0.88511 0.08833 0.0
C2243 C 0.12018 0.86696 0.10641 0.0
C2244 C 0.13368 0.88855 0.03634 0.0
C2245 C 0.11287 0.8523 0.07203 0.0
C2246 C 0.11563 0.85563 0.02035 0.0
C2247 C 0.12903 0.87695 0.95047 0.0
C2248 C 0.13997 0.89491 0.93168 0.0
C2249 C 0.12602 0.87366 0.00223 0.0
C2250 C 0.14778 0.90966 0.9658 0.0
C2251 C 0.14451 0.90652 0.01774 0.0
H2252 H 0.13703 0.25333 0.9416 0.0
H2253 H 0.07924 0.23093 0.97136 0.0
H2254 H 0.08507 0.23201 0.06218 0.0
H2255 H 0.10688 0.24047 0.13368 0.0
H2256 H 0.16481 0.26461 0.10242 0.0
H2257 H 0.15859 0.26173 0.01201 0.0
C2258 C 0.12563 0.24848 0.96777 0.0
C2259 C 0.10767 0.24193 0.94932 0.0
C2260 C 0.12914 0.24961 0.01997 0.0
C2261 C 0.09319 0.23598 0.98424 0.0
C2262 C 0.09652 0.23664 0.0363 0.0
C2263 C 0.11812 0.24504 0.10705 0.0
C2264 C 0.13631 0.25279 0.12504 0.0
C2265 C 0.11449 0.24362 0.05469 0.0
C2266 C 0.1507 0.25872 0.08987 0.0
C2267 C 0.14716 0.25702 0.03802 0.0
H2268 H 0.86251 0.76172 0.38472 0.0
H2269 H 0.89598 0.73714 0.4149 0.0
H2270 H 0.89075 0.73773 0.50534 0.0
H2271 H 0.8766 0.74483 0.57485 0.0
H2272 H 0.84156 0.76775 0.54644 0.0
H2273 H 0.84751 0.76822 0.45563 0.0
C2274 C 0.8687 0.75656 0.41118 0.0
C2275 C 0.87968 0.74945 0.39329 0.0
C2276 C 0.86536 0.75664 0.46308 0.0
C2277 C 0.88744 0.74261 0.42779 0.0
C2278 C 0.88449 0.74299 0.47944 0.0
C2279 C 0.87029 0.75006 0.54908 0.0
C2280 C 0.85876 0.75641 0.56756 0.0
C2281 C 0.87347 0.74993 0.49736 0.0
C2282 C 0.85053 0.76284 0.53324 0.0
C2283 C 0.85393 0.76311 0.48139 0.0
H2284 H 0.25679 0.13424 0.57437 0.0
H2285 H 0.23303 0.07623 0.54594 0.0
H2286 H 0.2335 0.0817 0.45502 0.0
H2287 H 0.24211 0.10326 0.3832 0.0
H2288 H 0.26809 0.16145 0.41261 0.0
H2289 H 0.26532 0.15563 0.50331 0.0
C2290 C 0.25144 0.12274 0.5484 0.0
C2291 C 0.2447 0.10482 0.56706 0.0
C2292 C 0.25233 0.12607 0.49617 0.0
C2293 C 0.23821 0.09015 0.53264 0.0
C2294 C 0.23853 0.09328 0.48062 0.0
C2295 C 0.24707 0.11464 0.40951 0.0
C2296 C 0.25532 0.13277 0.39108 0.0
C2297 C 0.24579 0.11122 0.46187 0.0
C2298 C 0.2618 0.14738 0.42569 0.0
C2299 C 0.26017 0.14406 0.47763 0.0
H2300 H 0.9179 0.15789 0.52946 0.0
H2301 H 0.86959 0.10965 0.58586 0.0
H2302 H 0.85782 0.10106 0.50079 0.0
H2303 H 0.85991 0.10818 0.41067 0.0
H2304 H 0.90873 0.15492 0.35207 0.0
H2305 H 0.92153 0.16316 0.43744 0.0
C2306 C 0.90496 0.14535 0.5231 0.0
C2307 C 0.89458 0.13468 0.56439 0.0
C2308 C 0.89817 0.14031 0.47364 0.0
C2309 C 0.87786 0.11836 0.55515 0.0
C2310 C 0.87101 0.11339 0.50636 0.0
C2311 C 0.87335 0.12015 0.41675 0.0
C2312 C 0.88326 0.13111 0.37568 0.0
C2313 C 0.8808 0.12449 0.46551 0.0
C2314 C 0.90084 0.14636 0.38351 0.0
C2315 C 0.90816 0.15106 0.4322 0.0
H2316 H 0.91146 0.43723 0.24751 0.0
H2317 H 0.90546 0.48195 0.19054 0.0
H2318 H 0.9029 0.49091 0.27689 0.0
H2319 H 0.90427 0.48695 0.36895 0.0
H2320 H 0.90822 0.4406 0.4238 0.0
H2321 H 0.90938 0.43128 0.33813 0.0
C2322 C 0.90952 0.44889 0.25414 0.0
C2323 C 0.90891 0.45909 0.21322 0.0
C2324 C 0.90764 0.45366 0.3035 0.0
C2325 C 0.90603 0.47395 0.22184 0.0
C2326 C 0.90459 0.47908 0.27109 0.0
C2327 C 0.90511 0.47467 0.36216 0.0
C2328 C 0.90647 0.46475 0.40307 0.0
C2329 C 0.90561 0.46916 0.31233 0.0
C2330 C 0.90739 0.44874 0.39336 0.0
C2331 C 0.9081 0.44334 0.34421 0.0
H2332 H 0.53046 0.43775 0.22686 0.0
H2333 H 0.56568 0.49559 0.25651 0.0
H2334 H 0.56194 0.48981 0.34718 0.0
H2335 H 0.54776 0.46865 0.41817 0.0
H2336 H 0.51061 0.41113 0.38955 0.0
H2337 H 0.5161 0.41642 0.29872 0.0
C2338 C 0.53738 0.44906 0.25323 0.0
C2339 C 0.54833 0.46709 0.23483 0.0
C2340 C 0.53484 0.44569 0.30561 0.0
C2341 C 0.55708 0.4816 0.26953 0.0
C2342 C 0.555 0.4783 0.32147 0.0
C2343 C 0.54104 0.4572 0.3922 0.0
C2344 C 0.52891 0.43948 0.41085 0.0
C2345 C 0.5438 0.46044 0.33997 0.0
C2346 C 0.52007 0.4249 0.37634 0.0
C2347 C 0.52317 0.42793 0.32434 0.0
H2348 H 0.53182 0.07753 0.41293 0.0
H2349 H 0.58983 0.10171 0.38375 0.0
H2350 H 0.58413 0.10091 0.29284 0.0
H2351 H 0.56237 0.09192 0.22122 0.0
H2352 H 0.50421 0.0655 0.25163 0.0
H2353 H 0.51026 0.06858 0.34222 0.0
C2354 C 0.54328 0.0829 0.38681 0.0
C2355 C 0.56127 0.08987 0.40529 0.0
C2356 C 0.53982 0.0818 0.33461 0.0
C2357 C 0.57587 0.09637 0.37063 0.0
C2358 C 0.5726 0.09585 0.31861 0.0
C2359 C 0.55104 0.08693 0.24773 0.0
C2360 C 0.53285 0.07847 0.22958 0.0
C2361 C 0.5546 0.08838 0.30007 0.0
C2362 C 0.51832 0.07195 0.26446 0.0
C2363 C 0.52177 0.07375 0.31635 0.0
H2364 H 0.78951 0.59055 0.76658 0.0
H2365 H 0.82414 0.56724 0.79602 0.0
H2366 H 0.81934 0.56844 0.88708 0.0
H2367 H 0.80558 0.57669 0.95777 0.0
H2368 H 0.77278 0.60188 0.92573 0.0
H2369 H 0.77672 0.59943 0.83534 0.0
C2370 C 0.79598 0.58558 0.79256 0.0
C2371 C 0.80705 0.57864 0.77433 0.0
C2372 C 0.79356 0.58677 0.84425 0.0
C2373 C 0.81549 0.57256 0.80901 0.0
C2374 C 0.81277 0.57328 0.86099 0.0
C2375 C 0.79927 0.58159 0.9309 0.0
C2376 C 0.78884 0.58941 0.94823 0.0
C2377 C 0.80187 0.58044 0.87897 0.0
C2378 C 0.78091 0.5959 0.91324 0.0
C2379 C 0.78311 0.59444 0.86164 0.0
H2380 H 0.41194 0.19949 0.75328 0.0
H2381 H 0.43547 0.25756 0.78058 0.0
H2382 H 0.43495 0.25215 0.8718 0.0
H2383 H 0.42774 0.23072 0.94317 0.0
H2384 H 0.4026 0.17253 0.91416 0.0
H2385 H 0.40384 0.17822 0.82345 0.0
C2386 C 0.41714 0.21103 0.779 0.0
C2387 C 0.42401 0.22894 0.76022 0.0
C2388 C 0.41643 0.20776 0.83086 0.0
C2389 C 0.43021 0.24367 0.79421 0.0
C2390 C 0.42991 0.24057 0.84623 0.0
C2391 C 0.42257 0.21931 0.91691 0.0
C2392 C 0.41517 0.20123 0.93514 0.0
C2393 C 0.42305 0.22266 0.8649 0.0
C2394 C 0.4083 0.18654 0.90094 0.0
C2395 C 0.40906 0.18978 0.84917 0.0
H2396 H 0.7505 0.17909 0.80096 0.0
H2397 H 0.79901 0.22787 0.74789 0.0
H2398 H 0.80976 0.23639 0.83376 0.0
H2399 H 0.8067 0.22928 0.92395 0.0
H2400 H 0.75749 0.18232 0.97968 0.0
H2401 H 0.7458 0.1738 0.89317 0.0
C2402 C 0.76325 0.19173 0.8082 0.0
C2403 C 0.774 0.20257 0.76753 0.0
C2404 C 0.76943 0.19679 0.85828 0.0
C2405 C 0.79046 0.21902 0.77801 0.0
C2406 C 0.79674 0.22396 0.8273 0.0
C2407 C 0.79342 0.21719 0.91701 0.0
C2408 C 0.78309 0.20624 0.95766 0.0
C2409 C 0.78658 0.21275 0.8676 0.0
C2410 C 0.76571 0.19085 0.94862 0.0
C2411 C 0.75904 0.18601 0.89926 0.0
H2412 H 0.42475 0.23173 0.40972 0.0
H2413 H 0.42373 0.18323 0.4665 0.0
H2414 H 0.42774 0.17483 0.38074 0.0
H2415 H 0.4298 0.1806 0.28897 0.0
H2416 H 0.43337 0.23077 0.23452 0.0
H2417 H 0.4305 0.23932 0.31991 0.0
C2418 C 0.42545 0.21936 0.40311 0.0
C2419 C 0.42365 0.20792 0.44369 0.0
C2420 C 0.42833 0.21496 0.35421 0.0
C2421 C 0.42498 0.19213 0.43534 0.0
C2422 C 0.42728 0.18735 0.38646 0.0
C2423 C 0.43027 0.19354 0.29582 0.0
C2424 C 0.43145 0.20478 0.25499 0.0
C2425 C 0.42879 0.19859 0.34546 0.0
C2426 C 0.43221 0.22162 0.26487 0.0
C2427 C 0.43051 0.22658 0.31383 0.0
H2428 H 0.77977 0.20968 0.44182 0.0
H2429 H 0.83662 0.22444 0.45863 0.0
H2430 H 0.84271 0.23507 0.37146 0.0
H2431 H 0.83178 0.23933 0.2896 0.0
H2432 H 0.77452 0.22239 0.27061 0.0
H2433 H 0.76887 0.21405 0.35966 0.0
C2434 C 0.79348 0.21517 0.4264 0.0
C2435 C 0.80766 0.21613 0.45679 0.0
C2436 C 0.7969 0.22115 0.37594 0.0
C2437 C 0.82537 0.22336 0.43611 0.0
C2438 C 0.82892 0.22957 0.38626 0.0
C2439 C 0.81812 0.23405 0.30499 0.0
C2440 C 0.80362 0.23153 0.27331 0.0
C2441 C 0.81479 0.22849 0.35577 0.0
C2442 C 0.78596 0.22452 0.29406 0.0
C2443 C 0.78267 0.21961 0.34497 0.0
H2444 H 0.81152 0.58236 0.42321 0.0
H2445 H 0.76662 0.58783 0.48109 0.0
H2446 H 0.75396 0.58428 0.39579 0.0
H2447 H 0.75652 0.58085 0.30408 0.0
H2448 H 0.80049 0.57301 0.24861 0.0
H2449 H 0.81234 0.57587 0.33349 0.0
C2450 C 0.799 0.58281 0.41695 0.0
C2451 C 0.79015 0.58566 0.45779 0.0
C2452 C 0.79152 0.58017 0.3683 0.0
C2453 C 0.7737 0.58578 0.44979 0.0
C2454 C 0.76645 0.58372 0.40116 0.0
C2455 C 0.76851 0.57947 0.31062 0.0
C2456 C 0.77768 0.57701 0.2696 0.0
C2457 C 0.77531 0.581 0.35999 0.0
C2458 C 0.79317 0.57514 0.27909 0.0
C2459 C 0.80008 0.57683 0.32776 0.0
H2460 H 0.52945 0.09165 0.72153 0.0
H2461 H 0.56279 0.0669 0.75064 0.0
H2462 H 0.55925 0.06906 0.84137 0.0
H2463 H 0.54573 0.07674 0.91251 0.0
H2464 H 0.51034 0.09922 0.88447 0.0
H2465 H 0.51571 0.0993 0.79357 0.0
C2466 C 0.53601 0.08683 0.7478 0.0
C2467 C 0.54637 0.07911 0.72924 0.0
C2468 C 0.53355 0.08772 0.8002 0.0
C2469 C 0.55465 0.07279 0.7638 0.0
C2470 C 0.55267 0.07406 0.81576 0.0
C2471 C 0.53938 0.08191 0.88665 0.0
C2472 C 0.52778 0.08814 0.90546 0.0
C2473 C 0.54205 0.08136 0.83441 0.0
C2474 C 0.51938 0.09442 0.87111 0.0
C2475 C 0.52242 0.09443 0.81909 0.0
H2476 H 0.9123 0.44044 0.71322 0.0
H2477 H 0.93416 0.49797 0.74649 0.0
H2478 H 0.93052 0.49113 0.83677 0.0
H2479 H 0.92102 0.46902 0.9053 0.0
H2480 H 0.90063 0.41165 0.8738 0.0
H2481 H 0.90372 0.41824 0.78299 0.0
C2482 C 0.91628 0.45149 0.74025 0.0
C2483 C 0.92343 0.4697 0.72327 0.0
C2484 C 0.91432 0.44748 0.79204 0.0
C2485 C 0.92871 0.48388 0.75865 0.0
C2486 C 0.92655 0.47996 0.81019 0.0
C2487 C 0.91708 0.45786 0.87877 0.0
C2488 C 0.91034 0.4398 0.89633 0.0
C2489 C 0.9193 0.46182 0.82716 0.0
C2490 C 0.90572 0.42563 0.86123 0.0
C2491 C 0.90752 0.42941 0.80942 0.0
H2492 H 0.56386 0.46998 0.72665 0.0
H2493 H 0.50573 0.43861 0.75774 0.0
H2494 H 0.51191 0.44177 0.84826 0.0
H2495 H 0.53359 0.45437 0.91871 0.0
H2496 H 0.59161 0.48781 0.8889 0.0
H2497 H 0.58574 0.48282 0.79807 0.0
C2498 C 0.55257 0.46377 0.75329 0.0
C2499 C 0.53434 0.45408 0.73533 0.0
C2500 C 0.5562 0.46599 0.80561 0.0
C2501 C 0.51987 0.44624 0.7704 0.0
C2502 C 0.52339 0.44799 0.82226 0.0
C2503 C 0.54501 0.46037 0.89249 0.0
C2504 C 0.56305 0.4713 0.91081 0.0
C2505 C 0.54148 0.45794 0.84032 0.0
C2506 C 0.5776 0.47927 0.87596 0.0
C2507 C 0.57424 0.47646 0.82396 0.0
H2508 H 0.58072 0.82602 0.71518 0.0
H2509 H 0.56456 0.7712 0.76659 0.0
H2510 H 0.56752 0.76234 0.68153 0.0
H2511 H 0.57727 0.77068 0.59347 0.0
H2512 H 0.59117 0.82438 0.53934 0.0
H2513 H 0.58682 0.83322 0.62431 0.0
C2514 C 0.5775 0.81205 0.70768 0.0
C2515 C 0.5728 0.79949 0.74782 0.0
C2516 C 0.57923 0.80692 0.65823 0.0
C2517 C 0.56849 0.78134 0.7369 0.0
C2518 C 0.57027 0.77621 0.68814 0.0
C2519 C 0.57934 0.7843 0.60052 0.0
C2520 C 0.58492 0.79704 0.56097 0.0
C2521 C 0.57618 0.78902 0.64885 0.0
C2522 C 0.58709 0.81448 0.56976 0.0
C2523 C 0.58453 0.81949 0.61817 0.0
H2524 H 0.19793 0.76914 0.5475 0.0
H2525 H 0.22966 0.82715 0.58003 0.0
H2526 H 0.22603 0.82071 0.67033 0.0
H2527 H 0.21296 0.79892 0.74015 0.0
H2528 H 0.17936 0.74098 0.70921 0.0
H2529 H 0.18472 0.74706 0.61858 0.0
C2530 C 0.20413 0.78035 0.5744 0.0
C2531 C 0.21405 0.79863 0.55683 0.0
C2532 C 0.20166 0.77657 0.62669 0.0
C2533 C 0.22186 0.81298 0.5923 0.0
C2534 C 0.21984 0.80931 0.64407 0.0
C2535 C 0.20695 0.78754 0.7138 0.0
C2536 C 0.19585 0.76947 0.73186 0.0
C2537 C 0.20965 0.79119 0.66172 0.0
C2538 C 0.18801 0.75501 0.69665 0.0
C2539 C 0.19103 0.75849 0.6447 0.0
H2540 H 0.23319 0.42597 0.53482 0.0
H2541 H 0.17564 0.40333 0.5687 0.0
H2542 H 0.18231 0.40561 0.65888 0.0
H2543 H 0.20419 0.41301 0.72836 0.0
H2544 H 0.26154 0.43397 0.69537 0.0
H2545 H 0.25525 0.43349 0.60506 0.0
C2546 C 0.22212 0.42161 0.56195 0.0
C2547 C 0.20391 0.41446 0.54477 0.0
C2548 C 0.22601 0.42267 0.61411 0.0
C2549 C 0.18975 0.40878 0.58061 0.0
C2550 C 0.19356 0.41012 0.63233 0.0
C2551 C 0.21539 0.41767 0.70159 0.0
C2552 C 0.23336 0.42363 0.71903 0.0
C2553 C 0.21161 0.41692 0.64956 0.0
C2554 C 0.24759 0.42936 0.68332 0.0
C2555 C 0.24399 0.42905 0.63153 0.0
H2556 H 0.48712 0.9049 0.12448 0.0
H2557 H 0.43678 0.90094 0.06985 0.0
H2558 H 0.42826 0.90396 0.15514 0.0
H2559 H 0.43587 0.90989 0.24491 0.0
H2560 H 0.48456 0.91131 0.30188 0.0
H2561 H 0.49297 0.90722 0.21622 0.0
C2562 C 0.47415 0.90439 0.13128 0.0
C2563 C 0.46285 0.90303 0.09042 0.0
C2564 C 0.46912 0.90596 0.18085 0.0
C2565 C 0.44597 0.90222 0.10022 0.0
C2566 C 0.44104 0.90401 0.14912 0.0
C2567 C 0.4483 0.90927 0.23836 0.0
C2568 C 0.45977 0.9112 0.27897 0.0
C2569 C 0.4527 0.90634 0.18952 0.0
C2570 C 0.47562 0.90997 0.2707 0.0
C2571 C 0.48041 0.90762 0.22188 0.0
H2572 H 0.07918 0.52949 0.10191 0.0
H2573 H 0.09951 0.58698 0.13091 0.0
H2574 H 0.09866 0.58143 0.22182 0.0
H2575 H 0.09086 0.55991 0.29354 0.0
H2576 H 0.06857 0.50215 0.26336 0.0
H2577 H 0.07144 0.50815 0.17281 0.0
C2578 C 0.08368 0.54088 0.12799 0.0
C2579 C 0.08956 0.55867 0.10937 0.0
C2580 C 0.08262 0.5375 0.18026 0.0
C2581 C 0.09499 0.57316 0.14404 0.0
C2582 C 0.09446 0.56998 0.19611 0.0
C2583 C 0.08669 0.54866 0.26712 0.0
C2584 C 0.07946 0.53059 0.28539 0.0
C2585 C 0.08807 0.55216 0.21474 0.0
C2586 C 0.07404 0.51617 0.25052 0.0
C2587 C 0.07574 0.51959 0.19862 0.0
H2588 H 0.47344 0.54882 0.09293 0.0
H2589 H 0.41501 0.51565 0.11696 0.0
H2590 H 0.41986 0.51976 0.20856 0.0
H2591 H 0.44095 0.53293 0.2812 0.0
H2592 H 0.49945 0.5646 0.25514 0.0
H2593 H 0.4943 0.56092 0.16418 0.0
C2594 C 0.46169 0.54261 0.11802 0.0
C2595 C 0.44385 0.5322 0.09823 0.0
C2596 C 0.46464 0.54471 0.17005 0.0
C2597 C 0.42885 0.52383 0.13139 0.0
C2598 C 0.43164 0.52618 0.18361 0.0
C2599 C 0.45255 0.53903 0.25552 0.0
C2600 C 0.47056 0.54909 0.27468 0.0
C2601 C 0.4495 0.53661 0.2033 0.0
C2602 C 0.48549 0.55675 0.24122 0.0
C2603 C 0.48255 0.5547 0.18929 0.0
H2604 H 0.09435 0.52839 0.79298 0.0
H2605 H 0.06707 0.55936 0.76332 0.0
H2606 H 0.06974 0.55618 0.67271 0.0
H2607 H 0.07867 0.54372 0.60183 0.0
H2608 H 0.10403 0.51089 0.63006 0.0
H2609 H 0.10339 0.5158 0.72097 0.0
C2610 C 0.08908 0.53451 0.76663 0.0
C2611 C 0.08049 0.54408 0.78505 0.0
C2612 C 0.09032 0.53231 0.71422 0.0
C2613 C 0.07362 0.55182 0.75034 0.0
C2614 C 0.07519 0.55005 0.69841 0.0
C2615 C 0.08427 0.53779 0.62768 0.0
C2616 C 0.09151 0.52704 0.60885 0.0
C2617 C 0.08337 0.54022 0.67991 0.0
C2618 C 0.09843 0.51927 0.64332 0.0
C2619 C 0.09802 0.52203 0.6954 0.0
H2620 H 0.44242 0.53045 0.75095 0.0
H2621 H 0.49164 0.57811 0.8039 0.0
H2622 H 0.49931 0.58994 0.71737 0.0
H2623 H 0.4927 0.5856 0.62613 0.0
H2624 H 0.44189 0.53883 0.57548 0.0
H2625 H 0.43401 0.52805 0.66166 0.0
C2626 C 0.4548 0.54343 0.74332 0.0
C2627 C 0.46666 0.55328 0.78299 0.0
C2628 C 0.45877 0.55037 0.69405 0.0
C2629 C 0.48243 0.57029 0.77341 0.0
C2630 C 0.48679 0.57704 0.72412 0.0
C2631 C 0.47977 0.57323 0.63398 0.0
C2632 C 0.46813 0.56293 0.59402 0.0
C2633 C 0.47513 0.56707 0.68401 0.0
C2634 C 0.45131 0.54699 0.60516 0.0
C2635 C 0.44675 0.54071 0.65455 0.0
H2636 H 0.43659 0.90616 0.77844 0.0
H2637 H 0.49478 0.93137 0.74926 0.0
H2638 H 0.48906 0.93025 0.65861 0.0
H2639 H 0.46779 0.92226 0.58855 0.0
H2640 H 0.4097 0.89862 0.61588 0.0
H2641 H 0.41513 0.89902 0.70708 0.0
C2642 C 0.448 0.91137 0.75215 0.0
C2643 C 0.46609 0.91876 0.77034 0.0
C2644 C 0.44463 0.91095 0.70015 0.0
C2645 C 0.48077 0.92568 0.73609 0.0
C2646 C 0.4775 0.92499 0.68435 0.0
C2647 C 0.45624 0.91702 0.61425 0.0
C2648 C 0.43832 0.91015 0.59546 0.0
C2649 C 0.45952 0.91765 0.66609 0.0
C2650 C 0.4236 0.90388 0.62948 0.0
C2651 C 0.42671 0.90411 0.68149 0.0
H2652 H 0.21842 0.41277 0.22843 0.0
H2653 H 0.18367 0.43562 0.19515 0.0
H2654 H 0.18925 0.43475 0.10486 0.0
H2655 H 0.20312 0.42639 0.03473 0.0
H2656 H 0.23638 0.40192 0.06889 0.0
H2657 H 0.23222 0.40452 0.15904 0.0
C2658 C 0.21219 0.41776 0.2016 0.0
C2659 C 0.2007 0.42436 0.21895 0.0
C2660 C 0.21509 0.41679 0.14957 0.0
C2661 C 0.1926 0.43051 0.18317 0.0
C2662 C 0.19576 0.42998 0.13139 0.0
C2663 C 0.20952 0.4217 0.06191 0.0
C2664 C 0.22004 0.41394 0.0448 0.0
C2665 C 0.20683 0.42296 0.11405 0.0
C2666 C 0.22813 0.40784 0.08073 0.0
C2667 C 0.2258 0.40937 0.13244 0.0
H2668 H 0.57398 0.79199 0.0756 0.0
H2669 H 0.60912 0.76907 0.04879 0.0
H2670 H 0.60674 0.76022 0.13717 0.0
H2671 H 0.59553 0.75977 0.22281 0.0
H2672 H 0.56223 0.78463 0.25101 0.0
H2673 H 0.56261 0.79138 0.1615 0.0
C2674 C 0.58113 0.78508 0.0891 0.0
C2675 C 0.59178 0.78132 0.05552 0.0
C2676 C 0.57985 0.78013 0.14027 0.0
C2677 C 0.60093 0.7723 0.07374 0.0
C2678 C 0.5995 0.76712 0.12433 0.0
C2679 C 0.58818 0.76648 0.20939 0.0
C2680 C 0.57886 0.77164 0.24384 0.0
C2681 C 0.58907 0.77102 0.15801 0.0
C2682 C 0.56948 0.78041 0.22552 0.0
C2683 C 0.56979 0.78442 0.17426 0.0
H2684 H 0.19818 0.78582 0.2397 0.0
H2685 H 0.25544 0.82322 0.20843 0.0
H2686 H 0.24947 0.81798 0.11778 0.0
H2687 H 0.22768 0.80356 0.04685 0.0
H2688 H 0.17013 0.7678 0.07912 0.0
H2689 H 0.17652 0.77165 0.16951 0.0
C2690 C 0.20943 0.79267 0.21319 0.0
C2691 C 0.22729 0.80478 0.23115 0.0
C2692 C 0.2058 0.79 0.16101 0.0
C2693 C 0.24158 0.81377 0.19587 0.0
C2694 C 0.23816 0.81081 0.14393 0.0
C2695 C 0.21655 0.79657 0.07368 0.0
C2696 C 0.19843 0.78541 0.056 0.0
C2697 C 0.22028 0.7991 0.12597 0.0
C2698 C 0.18418 0.77656 0.09144 0.0
C2699 C 0.18783 0.7787 0.14327 0.0
H2700 H 0.20099 0.22757 0.26282 0.0
H2701 H 0.15199 0.17844 0.31066 0.0
H2702 H 0.16528 0.15976 0.28228 0.0
H2703 H 0.19157 0.15772 0.24616 0.0
H2704 H 0.24003 0.20766 0.19895 0.0
H2705 H 0.22609 0.22559 0.22468 0.0
C2706 C 0.19314 0.21277 0.26733 0.0
C2707 C 0.17558 0.20446 0.28945 0.0
C2708 C 0.20079 0.20223 0.25087 0.0
C2709 C 0.16558 0.18522 0.29404 0.0
C2710 C 0.17319 0.17455 0.27778 0.0
C2711 C 0.19897 0.1725 0.24107 0.0
C2712 C 0.21691 0.18128 0.22087 0.0
C2713 C 0.19087 0.18292 0.25637 0.0
C2714 C 0.22631 0.20048 0.21472 0.0
C2715 C 0.21835 0.21081 0.22944 0.0
H2716 H 0.81494 0.97634 0.247 0.0
H2717 H 0.7656 0.97585 0.29514 0.0
H2718 H 0.77916 0.00812 0.27382 0.0
H2719 H 0.8044 0.03631 0.24007 0.0
H2720 H 0.8541 0.0379 0.19087 0.0
H2721 H 0.84103 0.00548 0.21405 0.0
C2722 C 0.80724 0.98335 0.25315 0.0
C2723 C 0.7892 0.97354 0.2725 0.0
C2724 C 0.81512 0.00211 0.24036 0.0
C2725 C 0.77942 0.98289 0.27999 0.0
C2726 C 0.78717 0.00142 0.26782 0.0
C2727 C 0.81246 0.02964 0.23421 0.0
C2728 C 0.8302 0.03958 0.21337 0.0
C2729 C 0.8049 0.01111 0.24759 0.0
C2730 C 0.84038 0.03061 0.20661 0.0
C2731 C 0.83291 0.01206 0.21993 0.0
H2732 H 0.96949 0.77307 0.23784 0.0
H2733 H 0.9684 0.82231 0.1986 0.0
H2734 H 1.00056 0.84105 0.22483 0.0
H2735 H 0.02928 0.84334 0.25813 0.0
H2736 H 0.02926 0.79351 0.2981 0.0
H2737 H 0.99733 0.77527 0.27269 0.0
C2738 C 0.97625 0.7879 0.23471 0.0
C2739 C 0.96652 0.79622 0.21574 0.0
C2740 C 0.99461 0.79856 0.25032 0.0
C2741 C 0.97554 0.8155 0.21275 0.0
C2742 C 0.99395 0.82624 0.22787 0.0
C2743 C 0.02224 0.8285 0.26166 0.0
C2744 C 0.03182 0.8199 0.28 0.0
C2745 C 0.00366 0.81791 0.24673 0.0
C2746 C 0.0224 0.80061 0.28405 0.0
C2747 C 0.00407 0.79009 0.26942 0.0
H2748 H 0.84389 0.81585 0.77668 0.0
H2749 H 0.79866 0.7737 0.69102 0.0
H2750 H 0.78046 0.78813 0.70795 0.0
H2751 H 0.7765 0.81161 0.74968 0.0
H2752 H 0.82126 0.85478 0.8335 0.0
H2753 H 0.84047 0.84112 0.81448 0.0
C2754 C 0.83013 0.80996 0.76129 0.0
C2755 C 0.82265 0.79352 0.73313 0.0
C2756 C 0.81955 0.81842 0.7711 0.0
C2757 C 0.80478 0.78615 0.71339 0.0
C2758 C 0.79429 0.7944 0.723 0.0
C2759 C 0.79047 0.8181 0.76391 0.0
C2760 C 0.79734 0.83407 0.79355 0.0
C2761 C 0.8014 0.81033 0.75243 0.0
C2762 C 0.81559 0.84242 0.81079 0.0
C2763 C 0.82657 0.8346 0.79994 0.0
H2764 H 0.1906 0.02999 0.74043 0.0
H2765 H 0.23901 0.02865 0.69231 0.0
H2766 H 0.22417 0.99609 0.71134 0.0
H2767 H 0.19824 0.96829 0.74381 0.0
H2768 H 0.14952 0.96847 0.79409 0.0
H2769 H 0.16364 0.00111 0.77169 0.0
C2770 C 0.19781 0.02251 0.73375 0.0
C2771 C 0.21597 0.03187 0.71514 0.0
C2772 C 0.18919 0.0036 0.74533 0.0
C2773 C 0.22512 0.02195 0.70693 0.0
C2774 C 0.21664 0.00326 0.71777 0.0
C2775 C 0.1906 0.97537 0.75007 0.0
C2776 C 0.17286 0.9659 0.77109 0.0
C2777 C 0.1988 0.99402 0.73747 0.0
C2778 C 0.16321 0.9754 0.77816 0.0
C2779 C 0.1713 0.99408 0.76538 0.0
H2780 H 0.97162 0.15745 0.76282 0.0
H2781 H 0.97737 0.20286 0.67265 0.0
H2782 H 0.00948 0.22095 0.69631 0.0
H2783 H 0.03547 0.22484 0.74601 0.0
H2784 H 0.03112 0.17993 0.83516 0.0
H2785 H 0.99903 0.16069 0.80828 0.0
C2786 C 0.97998 0.1712 0.74782 0.0
C2787 C 0.97192 0.1788 0.71643 0.0
C2788 C 0.99866 0.18171 0.76172 0.0
C2789 C 0.98302 0.19666 0.69734 0.0
C2790 C 0.00146 0.20709 0.71086 0.0
C2791 C 0.02756 0.21083 0.75963 0.0
C2792 C 0.03562 0.20392 0.79314 0.0
C2793 C 0.00931 0.1999 0.74375 0.0
C2794 C 0.02522 0.18562 0.80954 0.0
C2795 C 0.00686 0.17463 0.7942 0.0
H2796 H 0.85647 0.5563 0.5667 0.0
H2797 H 0.81746 0.51446 0.66664 0.0
H2798 H 0.83023 0.49465 0.64567 0.0
H2799 H 0.85404 0.4902 0.60276 0.0
H2800 H 0.89259 0.53267 0.50299 0.0
H2801 H 0.87836 0.5511 0.52 0.0
C2802 C 0.85066 0.54281 0.58388 0.0
C2803 C 0.83615 0.53698 0.61869 0.0
C2804 C 0.85805 0.53158 0.57174 0.0
C2805 C 0.82866 0.51933 0.63985 0.0
C2806 C 0.836 0.50802 0.62795 0.0
C2807 C 0.85915 0.50337 0.58425 0.0
C2808 C 0.87454 0.51006 0.55202 0.0
C2809 C 0.85091 0.51412 0.59445 0.0
C2810 C 0.88095 0.5272 0.52841 0.0
C2811 C 0.87281 0.53781 0.53808 0.0
H2812 H 0.43634 0.30324 0.58809 0.0
H2813 H 0.48566 0.3016 0.62267 0.0
H2814 H 0.50429 0.33439 0.60297 0.0
H2815 H 0.50647 0.36379 0.57681 0.0
H2816 H 0.45655 0.36458 0.54371 0.0
H2817 H 0.43841 0.33194 0.56179 0.0
C2818 C 0.45117 0.30998 0.5914 0.0
C2819 C 0.45954 0.29989 0.60704 0.0
C2820 C 0.46176 0.32878 0.58016 0.0
C2821 C 0.47881 0.30899 0.61091 0.0
C2822 C 0.48948 0.32776 0.59956 0.0
C2823 C 0.49163 0.35678 0.57328 0.0
C2824 C 0.48296 0.36675 0.55891 0.0
C2825 C 0.48111 0.33783 0.58421 0.0
C2826 C 0.46368 0.3574 0.55486 0.0
C2827 C 0.45323 0.33867 0.56519 0.0
H2828 H 0.6372 0.14479 0.57266 0.0
H2829 H 0.63659 0.09372 0.54708 0.0
H2830 H 0.66873 0.10809 0.57036 0.0
H2831 H 0.69686 0.13459 0.59938 0.0
H2832 H 0.69876 0.18616 0.62547 0.0
H2833 H 0.66638 0.17217 0.60051 0.0
C2834 C 0.64415 0.13686 0.57188 0.0
C2835 C 0.63432 0.11812 0.5582 0.0
C2836 C 0.66288 0.14525 0.58564 0.0
C2837 C 0.64362 0.10809 0.55759 0.0
C2838 C 0.66208 0.1163 0.57095 0.0
C2839 C 0.69027 0.14286 0.59986 0.0
C2840 C 0.70027 0.1614 0.61476 0.0
C2841 C 0.67179 0.13478 0.58539 0.0
C2842 C 0.69142 0.17184 0.6144 0.0
C2843 C 0.67288 0.16383 0.60009 0.0
H2844 H 0.43769 0.13304 0.10164 0.0
H2845 H 0.48791 0.18489 0.11881 0.0
H2846 H 0.50578 0.17031 0.09467 0.0
H2847 H 0.50702 0.14254 0.06877 0.0
H2848 H 0.45616 0.09113 0.05178 0.0
H2849 H 0.4388 0.10592 0.07552 0.0
C2850 C 0.45256 0.14123 0.10037 0.0
C2851 C 0.46141 0.16005 0.11237 0.0
C2852 C 0.46269 0.13282 0.08621 0.0
C2853 C 0.4807 0.17036 0.11002 0.0
C2854 C 0.49093 0.16203 0.09609 0.0
C2855 C 0.49214 0.13461 0.07001 0.0
C2856 C 0.48299 0.1157 0.05842 0.0
C2857 C 0.48207 0.14323 0.08402 0.0
C2858 C 0.46367 0.10566 0.0605 0.0
C2859 C 0.45366 0.1141 0.07417 0.0
H2860 H 0.89145 0.36476 0.08443 0.0
H2861 H 0.84516 0.3658 0.01773 0.0
H2862 H 0.82521 0.33337 0.03964 0.0
H2863 H 0.8212 0.3043 0.07576 0.0
H2864 H 0.86809 0.30421 0.14211 0.0
H2865 H 0.88736 0.33661 0.12254 0.0
C2866 C 0.877 0.35796 0.07451 0.0
C2867 C 0.8699 0.36774 0.04901 0.0
C2868 C 0.86565 0.33939 0.08732 0.0
C2869 C 0.85106 0.35863 0.03712 0.0
C2870 C 0.83963 0.34006 0.0497 0.0
C2871 C 0.83558 0.31143 0.08638 0.0
C2872 C 0.84313 0.30169 0.11018 0.0
C2873 C 0.84679 0.33024 0.07462 0.0
C2874 C 0.86186 0.3112 0.12343 0.0
C2875 C 0.87296 0.3298 0.11224 0.0
H2876 H 0.69839 0.52417 0.0979 0.0
H2877 H 0.69869 0.57311 0.149 0.0
H2878 H 0.6665 0.55974 0.12656 0.0
H2879 H 0.63843 0.53477 0.09047 0.0
H2880 H 0.63714 0.4854 0.03961 0.0
H2881 H 0.66942 0.4983 0.06389 0.0
C2882 C 0.69137 0.53183 0.10454 0.0
C2883 C 0.70111 0.5497 0.12499 0.0
C2884 C 0.67265 0.52405 0.09125 0.0
C2885 C 0.69171 0.55941 0.13311 0.0
C2886 C 0.67323 0.55177 0.12023 0.0
C2887 C 0.64516 0.52679 0.0845 0.0
C2888 C 0.63535 0.50918 0.06276 0.0
C2889 C 0.66362 0.53422 0.0988 0.0
C2890 C 0.64434 0.49902 0.05602 0.0
C2891 C 0.66282 0.50639 0.06996 0.0
H2892 H 0.53411 0.89518 0.94073 0.0
H2893 H 0.48144 0.84586 0.95699 0.0
H2894 H 0.49535 0.82719 0.93514 0.0
H2895 H 0.52274 0.82495 0.91091 0.0
H2896 H 0.57501 0.87492 0.89475 0.0
H2897 H 0.56094 0.89308 0.91686 0.0
C2898 C 0.52561 0.88034 0.93973 0.0
C2899 C 0.50673 0.87199 0.95075 0.0
C2900 C 0.53365 0.86973 0.92689 0.0
C2901 C 0.49601 0.85271 0.9489 0.0
C2902 C 0.50397 0.84201 0.93629 0.0
C2903 C 0.53103 0.83981 0.91208 0.0
C2904 C 0.54996 0.84845 0.90099 0.0
C2905 C 0.5228 0.85037 0.92507 0.0
C2906 C 0.56044 0.86777 0.90296 0.0
C2907 C 0.55241 0.87825 0.9157 0.0
H2908 H 0.14447 0.63393 0.93173 0.0
H2909 H 0.09535 0.63464 0.97591 0.0
H2910 H 0.10933 0.66668 0.95182 0.0
H2911 H 0.1347 0.69419 0.91603 0.0
H2912 H 0.18434 0.69481 0.87124 0.0
H2913 H 0.17098 0.66265 0.89795 0.0
C2914 C 0.13692 0.64116 0.93649 0.0
C2915 C 0.11879 0.63174 0.95539 0.0
C2916 C 0.14506 0.65981 0.92218 0.0
C2917 C 0.10922 0.64137 0.96115 0.0
C2918 C 0.1172 0.65977 0.94736 0.0
C2919 C 0.14268 0.68737 0.91184 0.0
C2920 C 0.16046 0.6969 0.89106 0.0
C2921 C 0.13498 0.66904 0.92731 0.0
C2922 C 0.1706 0.6878 0.88685 0.0
C2923 C 0.16295 0.6694 0.90214 0.0
H2924 H 0.30963 0.4808 0.91709 0.0
H2925 H 0.31366 0.43874 0.83403 0.0
H2926 H 0.34623 0.4534 0.85321 0.0
H2927 H 0.37331 0.4771 0.89645 0.0
H2928 H 0.37028 0.51966 0.97942 0.0
H2929 H 0.33772 0.50593 0.95717 0.0
C2930 C 0.31768 0.47498 0.90271 0.0
C2931 C 0.30905 0.45855 0.87448 0.0
C2932 C 0.33661 0.48348 0.91415 0.0
C2933 C 0.31978 0.45123 0.85626 0.0
C2934 C 0.33847 0.4596 0.8672 0.0
C2935 C 0.36558 0.48344 0.90975 0.0
C2936 C 0.37423 0.49929 0.94007 0.0
C2937 C 0.34696 0.47554 0.89674 0.0
C2938 C 0.36398 0.50741 0.95623 0.0
C2939 C 0.34534 0.49955 0.94352 0.0
H2940 H 0.1117 0.47494 0.40319 0.0
H2941 H 0.15355 0.51413 0.50274 0.0
H2942 H 0.17414 0.50264 0.47807 0.0
H2943 H 0.17932 0.47989 0.43184 0.0
H2944 H 0.13713 0.44165 0.33078 0.0
H2945 H 0.11777 0.45449 0.35211 0.0
C2946 C 0.12535 0.48104 0.41948 0.0
C2947 C 0.13099 0.49519 0.45531 0.0
C2948 C 0.13709 0.47452 0.40479 0.0
C2949 C 0.14885 0.50315 0.47525 0.0
C2950 C 0.1606 0.49656 0.46119 0.0
C2951 C 0.16601 0.47456 0.41393 0.0
C2952 C 0.15966 0.45961 0.38023 0.0
C2953 C 0.15477 0.48205 0.42644 0.0
C2954 C 0.14236 0.45295 0.35734 0.0
C2955 C 0.1312 0.46028 0.36952 0.0
H2956 H 0.53865 0.64081 0.44153 0.0
H2957 H 0.48576 0.63681 0.45946 0.0
H2958 H 0.49926 0.66934 0.43748 0.0
H2959 H 0.52638 0.69916 0.41331 0.0
H2960 H 0.57892 0.70219 0.39581 0.0
H2961 H 0.56521 0.66991 0.41723 0.0
C2962 C 0.53001 0.647 0.44084 0.0
C2963 C 0.5112 0.63632 0.45242 0.0
C2964 C 0.53782 0.66563 0.42801 0.0
C2965 C 0.50029 0.64467 0.45095 0.0
C2966 C 0.50801 0.66329 0.43826 0.0
C2967 C 0.53479 0.69272 0.41396 0.0
C2968 C 0.55371 0.70324 0.40298 0.0
C2969 C 0.52679 0.67394 0.42665 0.0
C2970 C 0.56437 0.6946 0.40426 0.0
C2971 C 0.55654 0.67607 0.41653 0.0
H2972 H 0.36474 0.89677 0.41295 0.0
H2973 H 0.36557 0.84817 0.46118 0.0
H2974 H 0.33305 0.82922 0.43874 0.0
H2975 H 0.30404 0.82662 0.4069 0.0
H2976 H 0.30408 0.87581 0.35968 0.0
H2977 H 0.33652 0.89421 0.38005 0.0
C2978 C 0.35787 0.88203 0.41869 0.0
C2979 C 0.36764 0.87397 0.43907 0.0
C2980 C 0.33924 0.87125 0.40573 0.0
C2981 C 0.35843 0.8548 0.44578 0.0
C2982 C 0.33981 0.84394 0.43288 0.0
C2983 C 0.31119 0.84133 0.4007 0.0
C2984 C 0.3015 0.84975 0.38186 0.0
C2985 C 0.33003 0.85202 0.41295 0.0
C2986 C 0.31104 0.86889 0.37436 0.0
C2987 C 0.32966 0.87949 0.38601 0.0
H2988 H 0.3135 0.18128 0.14904 0.0
H2989 H 0.30067 0.13273 0.2355 0.0
H2990 H 0.33126 0.13744 0.21821 0.0
H2991 H 0.36156 0.15526 0.17861 0.0
H2992 H 0.37425 0.20377 0.09207 0.0
H2993 H 0.34368 0.19901 0.10939 0.0
C2994 C 0.31733 0.1717 0.16431 0.0
C2995 C 0.30472 0.15668 0.19373 0.0
C2996 C 0.33491 0.17444 0.15409 0.0
C2997 C 0.31004 0.14444 0.2129 0.0
C2998 C 0.32755 0.14711 0.20295 0.0
C2999 C 0.35768 0.16481 0.16334 0.0
C3000 C 0.37028 0.17985 0.13391 0.0
C3001 C 0.34008 0.16204 0.17355 0.0
C3002 C 0.3649 0.19205 0.11469 0.0
C3003 C 0.34741 0.18936 0.12465 0.0
H3004 H 0.8452 0.20619 0.17008 0.0
H3005 H 0.79103 0.16708 0.11552 0.0
H3006 H 0.79695 0.14194 0.13355 0.0
H3007 H 0.81756 0.13119 0.16477 0.0
H3008 H 0.87138 0.17069 0.22101 0.0
H3009 H 0.86532 0.19557 0.20283 0.0
C3010 C 0.83461 0.19221 0.16197 0.0
C3011 C 0.81768 0.18862 0.14121 0.0
C3012 C 0.83799 0.17786 0.17308 0.0
C3013 C 0.8042 0.17031 0.13128 0.0
C3014 C 0.80756 0.15592 0.14173 0.0
C3015 C 0.82796 0.14522 0.17334 0.0
C3016 C 0.84494 0.14898 0.19432 0.0
C3017 C 0.82441 0.15954 0.16273 0.0
C3018 C 0.85819 0.1673 0.20508 0.0
C3019 C 0.85477 0.18158 0.19449 0.0
H3020 H 0.79863 0.64594 0.18911 0.0
H3021 H 0.83386 0.63292 0.10105 0.0
H3022 H 0.85966 0.66388 0.11548 0.0
H3023 H 0.87216 0.69461 0.15287 0.0
H3024 H 0.83664 0.70736 0.24061 0.0
H3025 H 0.81102 0.67643 0.22639 0.0
C3026 C 0.81191 0.6498 0.17287 0.0
C3027 C 0.81421 0.63703 0.14383 0.0
C3028 C 0.82668 0.66758 0.18133 0.0
C3029 C 0.83162 0.64241 0.1234 0.0
C3030 C 0.84641 0.66012 0.1317 0.0
C3031 C 0.85885 0.69066 0.16905 0.0
C3032 C 0.85643 0.7034 0.19792 0.0
C3033 C 0.84409 0.67282 0.16061 0.0
C3034 C 0.839 0.69793 0.21836 0.0
C3035 C 0.82429 0.68022 0.2102 0.0
H3036 H 0.19643 0.36555 0.38087 0.0
H3037 H 0.14694 0.35845 0.31033 0.0
H3038 H 0.13752 0.32673 0.29038 0.0
H3039 H 0.14331 0.3009 0.29188 0.0
H3040 H 0.1928 0.30797 0.3623 0.0
H3041 H 0.20213 0.33965 0.38279 0.0
C3042 C 0.18353 0.35706 0.3614 0.0
C3043 C 0.17244 0.36448 0.34743 0.0
C3044 C 0.17818 0.33875 0.34953 0.0
C3045 C 0.15581 0.3532 0.32185 0.0
C3046 C 0.15038 0.335 0.3102 0.0
C3047 C 0.15618 0.30936 0.31151 0.0
C3048 C 0.16732 0.30197 0.32515 0.0
C3049 C 0.16149 0.32764 0.32361 0.0
C3050 C 0.18391 0.31321 0.35099 0.0
C3051 C 0.18929 0.33138 0.36293 0.0
H3052 H 0.64804 0.80115 0.33445 0.0
H3053 H 0.63147 0.83801 0.39752 0.0
H3054 H 0.66143 0.86427 0.37575 0.0
H3055 H 0.6922 0.87665 0.33887 0.0
H3056 H 0.70837 0.83954 0.27517 0.0
H3057 H 0.67844 0.81344 0.29685 0.0
C3058 C 0.65088 0.81489 0.34365 0.0
C3059 C 0.63742 0.81751 0.36786 0.0
C3060 C 0.66802 0.82989 0.33062 0.0
C3061 C 0.64152 0.83551 0.37913 0.0
C3062 C 0.65864 0.85055 0.36655 0.0
C3063 C 0.68921 0.86288 0.32945 0.0
C3064 C 0.70262 0.86015 0.30525 0.0
C3065 C 0.67198 0.84788 0.34221 0.0
C3066 C 0.69838 0.84213 0.29355 0.0
C3067 C 0.68127 0.82717 0.3061 0.0
H3068 H 0.20365 0.84846 0.31781 0.0
H3069 H 0.16861 0.79956 0.40394 0.0
H3070 H 0.14243 0.80389 0.38784 0.0
H3071 H 0.12946 0.82135 0.34906 0.0
H3072 H 0.16448 0.87017 0.26261 0.0
H3073 H 0.1907 0.86594 0.27915 0.0
C3074 C 0.19032 0.83872 0.33328 0.0
C3075 C 0.18819 0.8237 0.36222 0.0
C3076 C 0.17529 0.84123 0.32368 0.0
C3077 C 0.17073 0.81127 0.38169 0.0
C3078 C 0.15572 0.81372 0.37241 0.0
C3079 C 0.1428 0.83109 0.33364 0.0
C3080 C 0.1449 0.84605 0.30442 0.0
C3081 C 0.15784 0.82862 0.34336 0.0
C3082 C 0.16237 0.8585 0.28504 0.0
C3083 C 0.1774 0.85612 0.29456 0.0
H3084 H 0.69328 0.82163 0.84177 0.0
H3085 H 0.70438 0.86999 0.75675 0.0
H3086 H 0.67329 0.86386 0.77333 0.0
H3087 H 0.64349 0.84553 0.81387 0.0
H3088 H 0.63211 0.79718 0.89922 0.0
H3089 H 0.6629 0.80263 0.88031 0.0
C3090 C 0.68892 0.83081 0.82657 0.0
C3091 C 0.70127 0.84631 0.79809 0.0
C3092 C 0.67102 0.82728 0.83645 0.0
C3093 C 0.69526 0.85798 0.77874 0.0
C3094 C 0.67747 0.85451 0.7883 0.0
C3095 C 0.64764 0.83611 0.82844 0.0
C3096 C 0.63545 0.82103 0.8584 0.0
C3097 C 0.66532 0.83931 0.81747 0.0
C3098 C 0.64117 0.80895 0.87637 0.0
C3099 C 0.65879 0.81206 0.86554 0.0
H3100 H 0.19255 0.82601 0.87646 0.0
H3101 H 0.14131 0.78187 0.8189 0.0
H3102 H 0.13232 0.80384 0.79143 0.0
H3103 H 0.13892 0.83565 0.78298 0.0
H3104 H 0.19037 0.87981 0.83948 0.0
H3105 H 0.1993 0.85783 0.86716 0.0
C3106 C 0.17936 0.82117 0.85824 0.0
C3107 C 0.16763 0.80225 0.85026 0.0
C3108 C 0.17432 0.83392 0.84166 0.0
C3109 C 0.15065 0.79631 0.82599 0.0
C3110 C 0.14547 0.80889 0.80996 0.0
C3111 C 0.15214 0.8405 0.801 0.0
C3112 C 0.1639 0.85942 0.80888 0.0
C3113 C 0.15722 0.82774 0.81734 0.0
C3114 C 0.18097 0.86537 0.83266 0.0
C3115 C 0.18612 0.85278 0.84878 0.0
H3116 H 0.17745 0.36557 0.87918 0.0
H3117 H 0.21926 0.35682 0.81192 0.0
H3118 H 0.19638 0.32532 0.7918 0.0
H3119 H 0.16447 0.30014 0.79232 0.0
H3120 H 0.12251 0.30871 0.85927 0.0
H3121 H 0.14542 0.34025 0.87988 0.0
C3122 C 0.18159 0.35676 0.8604 0.0
C3123 C 0.20013 0.36367 0.84743 0.0
C3124 C 0.16829 0.33856 0.84838 0.0
C3125 C 0.20515 0.35199 0.82269 0.0
C3126 C 0.19204 0.33391 0.81094 0.0
C3127 C 0.16028 0.3089 0.8112 0.0
C3128 C 0.14172 0.30197 0.8239 0.0
C3129 C 0.17356 0.32706 0.82337 0.0
C3130 C 0.13666 0.31359 0.84875 0.0
C3131 C 0.14978 0.33168 0.86075 0.0
H3132 H 0.8611 0.69987 0.71352 0.0
H3133 H 0.80743 0.69081 0.67267 0.0
H3134 H 0.79816 0.65977 0.64559 0.0
H3135 H 0.80521 0.63518 0.63193 0.0
H3136 H 0.85872 0.64389 0.67289 0.0
H3137 H 0.86808 0.67502 0.70036 0.0
C3138 C 0.84733 0.69107 0.69912 0.0
C3139 C 0.83503 0.69778 0.69547 0.0
C3140 C 0.84206 0.67316 0.68281 0.0
C3141 C 0.81725 0.68612 0.67626 0.0
C3142 C 0.81191 0.66832 0.66042 0.0
C3143 C 0.81896 0.64388 0.64655 0.0
C3144 C 0.8312 0.63711 0.65002 0.0
C3145 C 0.82423 0.66173 0.66309 0.0
C3146 C 0.84896 0.64867 0.66948 0.0
C3147 C 0.85434 0.6665 0.6855 0.0
H3148 H 0.31331 0.129 0.6499 0.0
H3149 H 0.29912 0.16496 0.7299 0.0
H3150 H 0.3291 0.19125 0.70932 0.0
H3151 H 0.35931 0.20403 0.66893 0.0
H3152 H 0.37353 0.16793 0.58978 0.0
H3153 H 0.34342 0.14175 0.60946 0.0
C3154 C 0.31672 0.14255 0.66306 0.0
C3155 C 0.30389 0.1449 0.69165 0.0
C3156 C 0.33396 0.15764 0.65098 0.0
C3157 C 0.30868 0.16265 0.70809 0.0
C3158 C 0.32582 0.17774 0.69618 0.0
C3159 C 0.35585 0.19047 0.65567 0.0
C3160 C 0.36876 0.18805 0.62773 0.0
C3161 C 0.33856 0.17539 0.66759 0.0
C3162 C 0.36393 0.17029 0.61121 0.0
C3163 C 0.34671 0.15526 0.62258 0.0
H3164 H 0.84185 0.14406 0.71869 0.0
H3165 H 0.88362 0.19151 0.63922 0.0
H3166 H 0.86122 0.20056 0.61698 0.0
H3167 H 0.82967 0.19501 0.619 0.0
H3168 H 0.78786 0.14749 0.69821 0.0
H3169 H 0.81033 0.13861 0.72116 0.0
C3170 C 0.8461 0.15643 0.69673 0.0
C3171 C 0.86447 0.16706 0.68095 0.0
C3172 C 0.83309 0.16158 0.68361 0.0
C3173 C 0.86962 0.18301 0.65219 0.0
C3174 C 0.85679 0.18824 0.63925 0.0
C3175 C 0.82543 0.18268 0.64115 0.0
C3176 C 0.80702 0.17195 0.65646 0.0
C3177 C 0.83846 0.1776 0.65454 0.0
C3178 C 0.80189 0.15606 0.68553 0.0
C3179 C 0.81475 0.15093 0.69887 0.0
H3180 H 0.03207 0.52396 0.45536 0.0
H3181 H 0.02472 0.4739 0.52242 0.0
H3182 H 0.99353 0.46536 0.54717 0.0
H3183 H 0.96823 0.47212 0.55048 0.0
H3184 H 0.97577 0.52214 0.48246 0.0
H3185 H 0.00687 0.5306 0.45811 0.0
C3186 C 0.02365 0.51112 0.47512 0.0
C3187 C 0.03084 0.49962 0.48676 0.0
C3188 C 0.0057 0.50629 0.48963 0.0
C3189 C 0.01964 0.48307 0.51272 0.0
C3190 C 0.00176 0.47816 0.5271 0.0
C3191 C 0.9767 0.48492 0.53061 0.0
C3192 C 0.96957 0.49647 0.51879 0.0
C3193 C 0.99465 0.4897 0.51599 0.0
C3194 C 0.98079 0.51295 0.49251 0.0
C3195 C 0.99864 0.51782 0.47829 0.0
H3196 H 0.51592 0.54046 0.5177 0.0
H3197 H 0.4667 0.50548 0.43253 0.0
H3198 H 0.47004 0.47896 0.4518 0.0
H3199 H 0.48662 0.46559 0.49292 0.0
H3200 H 0.53588 0.50029 0.57813 0.0
H3201 H 0.53267 0.52697 0.55884 0.0
C3202 C 0.50593 0.52706 0.50314 0.0
C3203 C 0.49108 0.52508 0.47354 0.0
C3204 C 0.50785 0.51177 0.51456 0.0
C3205 C 0.47829 0.50753 0.45525 0.0
C3206 C 0.48015 0.4923 0.46635 0.0
C3207 C 0.49668 0.47895 0.50751 0.0
C3208 C 0.51145 0.48083 0.53716 0.0
C3209 C 0.49483 0.49425 0.49607 0.0
C3210 C 0.52432 0.49835 0.55541 0.0
C3211 C 0.52253 0.51365 0.54428 0.0
H3212 H 0.53737 0.02178 0.48589 0.0
H3213 H 0.50108 0.03509 0.5676 0.0
H3214 H 0.475 0.00498 0.5467 0.0
H3215 H 0.46252 0.97487 0.50572 0.0
H3216 H 0.49902 0.9616 0.42494 0.0
H3217 H 0.52494 0.99185 0.44479 0.0
C3218 C 0.52379 0.01815 0.49935 0.0
C3219 C 0.52129 0.03076 0.52854 0.0
C3220 C 0.50883 1.00085 0.48712 0.0
C3221 C 0.5035 0.0257 0.54533 0.0
C3222 C 0.48854 0.00848 0.53326 0.0
C3223 C 0.47611 0.97857 0.49214 0.0
C3224 C 0.47872 0.96588 0.4637 0.0
C3225 C 0.49104 0.99595 0.50415 0.0
C3226 C 0.49651 0.97102 0.44676 0.0
C3227 C 0.51139 0.98833 0.45822 0.0
H3228 H 0.48474 0.01984 0.986 0.0
H3229 H 0.53334 0.03327 0.07299 0.0
H3230 H 0.52936 0.00301 0.05453 0.0
H3231 H 0.5121 0.97277 0.01385 0.0
H3232 H 0.46353 0.95958 0.92688 0.0
H3233 H 0.46764 0.98982 0.94515 0.0
C3234 C 0.49449 0.01621 1.00114 0.0
C3235 C 0.50931 0.0289 0.03107 0.0
C3236 C 0.49218 0.99884 0.99022 0.0
C3237 C 0.52177 0.02383 0.05003 0.0
C3238 C 0.51953 0.00652 0.0394 0.0
C3239 C 0.50241 0.97648 0.99868 0.0
C3240 C 0.48752 0.96381 0.96888 0.0
C3241 C 0.50479 0.99392 0.00949 0.0
C3242 C 0.47514 0.96897 0.94978 0.0
C3243 C 0.47745 0.98629 0.9603 0.0
H3244 H 0.97337 0.46112 0.99523 0.0
H3245 H 0.95983 0.49806 0.0725 0.0
H3246 H 0.99082 0.52351 0.05761 0.0
H3247 H 0.02147 0.53542 0.02166 0.0
H3248 H 0.03511 0.49876 0.94329 0.0
H3249 H 0.00426 0.47308 0.95958 0.0
C3250 C 0.97717 0.4747 0.00911 0.0
C3251 C 0.96419 0.47759 0.03507 0.0
C3252 C 0.995 0.48937 0.99998 0.0
C3253 C 0.96946 0.49536 0.0525 0.0
C3254 C 0.9872 0.50996 0.0439 0.0
C3255 C 0.01777 0.52184 0.00796 0.0
C3256 C 0.03067 0.51912 0.98102 0.0
C3257 C 1.00003 0.50715 0.01743 0.0
C3258 C 0.0255 0.50134 0.96388 0.0
C3259 C 0.00785 0.48662 0.97329 0.0
H3260 H 0.54255 0.51837 0.99413 0.0
H3261 H 0.5047 0.46858 0.07279 0.0
H3262 H 0.47931 0.4735 0.05086 0.0
H3263 H 0.46778 0.49177 0.00937 0.0
H3264 H 0.50562 0.54177 0.93156 0.0
H3265 H 0.53101 0.53674 0.95287 0.0
C3266 C 0.52878 0.50859 0.00672 0.0
C3267 C 0.52564 0.49313 0.03527 0.0
C3268 C 0.51418 0.51145 0.99384 0.0
C3269 C 0.50762 0.48064 0.05101 0.0
C3270 C 0.49304 0.4834 0.03832 0.0
C3271 C 0.48155 0.50157 0.99676 0.0
C3272 C 0.48469 0.51712 0.96867 0.0
C3273 C 0.49615 0.49872 0.00964 0.0
C3274 C 0.50271 0.52965 0.95305 0.0
C3275 C 0.51728 0.52682 0.96536 0.0
loop_
_geom_bond_atom_site_label_1
_geom_bond_atom_site_label_2
_geom_bond_distance
_geom_bond_site_symmetry_2
_ccdc_geom_bond_type
Co0 O2 2.143 . S
Co0 O8 2.074 . S
Co0 O11 2.093 . S
Co0 O24 2.097 . S
Co0 N41 2.151 . S
Co0 N49 2.214 . S
Co1 O2 2.160 . S
Co1 O7 2.058 . S
Co1 O17 2.057 . S
Co1 O32 2.037 . S
Co1 N36 2.145 . S
Co1 N57 2.257 . S
O2 Co0 2.143 . S
O2 Co1 2.160 . S
C3 O4 1.278 . S
C3 O11 1.224 . S
O4 C3 1.278 . S
C5 O6 1.245 . S
C5 O17 1.232 . S
O6 C5 1.245 . S
O7 Co1 2.058 . S
O7 C33 1.269 . S
O8 Co0 2.074 . S
O8 C33 1.257 . S
H9 C34 0.930 . S
H10 C40 0.930 . S
O11 Co0 2.093 . S
O11 C3 1.224 . S
H12 C44 0.929 . S
H13 C46 0.930 . S
H14 C47 0.930 . S
H15 C45 0.929 . S
H16 C48 0.928 . S
O17 Co1 2.057 . S
O17 C5 1.232 . S
H18 C37 0.929 . S
H19 C38 0.929 . S
H20 C50 0.931 . S
H21 C42 0.929 . S
H22 C51 0.930 . S
H23 C43 0.931 . S
O24 Co0 2.097 . S
O24 C52 1.214 . S
H25 C53 0.929 . S
H26 C54 0.929 . S
H27 C55 0.930 . S
H28 C56 0.929 . S
H29 C58 0.930 . S
H30 C35 0.930 . S
H31 C39 0.930 . S
O32 Co1 2.037 . S
O32 C52 1.234 . S
C33 O7 1.269 . S
C33 O8 1.257 . S
C34 H9 0.930 . S
C34 C37 1.388 . S
C34 C39 1.418 . S
C35 H30 0.930 . S
C35 C38 1.404 . S
C35 C39 1.353 . S
N36 Co1 2.145 . S
N36 C37 1.397 . S
N36 C38 1.334 . S
C37 H18 0.929 . S
C37 C34 1.388 . S
C37 N36 1.397 . S
C38 H19 0.929 . S
C38 C35 1.404 . S
C38 N36 1.334 . S
C39 H31 0.930 . S
C39 C34 1.418 . S
C39 C35 1.353 . S
C40 H10 0.930 . S
C40 N41 1.330 . S
C40 C42 1.446 . S
N41 Co0 2.151 . S
N41 C40 1.330 . S
N41 C45 1.418 . S
C42 H21 0.929 . S
C42 C40 1.446 . S
C42 C43 1.332 . S
C43 H23 0.931 . S
C43 C42 1.332 . S
C43 C44 1.267 . S
C44 H12 0.929 . S
C44 C43 1.267 . S
C44 C45 1.251 . S
C45 H15 0.929 . S
C45 N41 1.418 . S
C45 C44 1.251 . S
C46 H13 0.930 . S
C46 C48 1.406 . S
C46 C51 1.261 . S
C47 H14 0.930 . S
C47 N49 1.325 . S
C47 C50 1.357 . S
C48 H16 0.928 . S
C48 C46 1.406 . S
C48 N49 1.261 . S
N49 Co0 2.214 . S
N49 C47 1.325 . S
N49 C48 1.261 . S
C50 H20 0.931 . S
C50 C47 1.357 . S
C50 C51 1.312 . S
C51 H22 0.930 . S
C51 C46 1.261 . S
C51 C50 1.312 . S
C52 O24 1.214 . S
C52 O32 1.234 . S
C53 H25 0.929 . S
C53 C56 1.391 . S
C53 C58 1.391 . S
C54 H26 0.929 . S
C54 C55 1.390 . S
C54 N57 1.391 . S
C55 H27 0.930 . S
C55 C54 1.390 . S
C55 C56 1.392 . S
C56 H28 0.929 . S
C56 C53 1.391 . S
C56 C55 1.392 . S
N57 Co1 2.257 . S
N57 C54 1.391 . S
N57 C58 1.388 . S
C58 H29 0.930 . S
C58 C53 1.391 . S
C58 N57 1.388 . S
Co59 O61 2.143 . S
Co59 O67 2.074 . S
Co59 O70 2.093 . S
Co59 O83 2.097 . S
Co59 N100 2.151 . S
Co59 N108 2.214 . S
Co60 O61 2.160 . S
Co60 O66 2.058 . S
Co60 O76 2.057 . S
Co60 O91 2.037 . S
Co60 N95 2.145 . S
Co60 N116 2.257 . S
O61 Co59 2.143 . S
O61 Co60 2.160 . S
C62 O63 1.278 . S
C62 O70 1.224 . S
O63 C62 1.278 . S
C64 O65 1.245 . S
C64 O76 1.232 . S
O65 C64 1.245 . S
O66 Co60 2.058 . S
O66 C92 1.269 . S
O67 Co59 2.074 . S
O67 C92 1.257 . S
H68 C93 0.930 . S
H69 C99 0.930 . S
O70 Co59 2.093 . S
O70 C62 1.224 . S
H71 C103 0.929 . S
H72 C105 0.930 . S
H73 C106 0.930 . S
H74 C104 0.929 . S
H75 C107 0.928 . S
O76 Co60 2.057 . S
O76 C64 1.232 . S
H77 C96 0.929 . S
H78 C97 0.929 . S
H79 C109 0.931 . S
H80 C101 0.929 . S
H81 C110 0.930 . S
H82 C102 0.931 . S
O83 Co59 2.097 . S
O83 C111 1.214 . S
H84 C112 0.929 . S
H85 C113 0.929 . S
H86 C114 0.930 . S
H87 C115 0.929 . S
H88 C117 0.930 . S
H89 C94 0.930 . S
H90 C98 0.930 . S
O91 Co60 2.037 . S
O91 C111 1.234 . S
C92 O66 1.269 . S
C92 O67 1.257 . S
C93 H68 0.930 . S
C93 C96 1.388 . S
C93 C98 1.418 . S
C94 H89 0.930 . S
C94 C97 1.404 . S
C94 C98 1.353 . S
N95 Co60 2.145 . S
N95 C96 1.397 . S
N95 C97 1.334 . S
C96 H77 0.929 . S
C96 C93 1.388 . S
C96 N95 1.397 . S
C97 H78 0.929 . S
C97 C94 1.404 . S
C97 N95 1.334 . S
C98 H90 0.930 . S
C98 C93 1.418 . S
C98 C94 1.353 . S
C99 H69 0.930 . S
C99 N100 1.330 . S
C99 C101 1.446 . S
N100 Co59 2.151 . S
N100 C99 1.330 . S
N100 C104 1.418 . S
C101 H80 0.929 . S
C101 C99 1.446 . S
C101 C102 1.332 . S
C102 H82 0.931 . S
C102 C101 1.332 . S
C102 C103 1.267 . S
C103 H71 0.929 . S
C103 C102 1.267 . S
C103 C104 1.251 . S
C104 H74 0.929 . S
C104 N100 1.418 . S
C104 C103 1.251 . S
C105 H72 0.930 . S
C105 C107 1.406 . S
C105 C110 1.261 . S
C106 H73 0.930 . S
C106 N108 1.325 . S
C106 C109 1.357 . S
C107 H75 0.928 . S
C107 C105 1.406 . S
C107 N108 1.261 . S
N108 Co59 2.214 . S
N108 C106 1.325 . S
N108 C107 1.261 . S
C109 H79 0.931 . S
C109 C106 1.357 . S
C109 C110 1.312 . S
C110 H81 0.930 . S
C110 C105 1.261 . S
C110 C109 1.312 . S
C111 O83 1.214 . S
C111 O91 1.234 . S
C112 H84 0.929 . S
C112 C115 1.391 . S
C112 C117 1.391 . S
C113 H85 0.929 . S
C113 C114 1.390 . S
C113 N116 1.391 . S
C114 H86 0.930 . S
C114 C113 1.390 . S
C114 C115 1.392 . S
C115 H87 0.929 . S
C115 C112 1.391 . S
C115 C114 1.392 . S
N116 Co60 2.257 . S
N116 C113 1.391 . S
N116 C117 1.388 . S
C117 H88 0.930 . S
C117 C112 1.391 . S
C117 N116 1.388 . S
Co118 O120 2.143 . S
Co118 O126 2.074 . S
Co118 O129 2.093 . S
Co118 O142 2.097 . S
Co118 N159 2.151 . S
Co118 N167 2.214 . S
Co119 O120 2.160 . S
Co119 O125 2.058 . S
Co119 O135 2.057 . S
Co119 O150 2.037 . S
Co119 N154 2.145 . S
Co119 N175 2.257 . S
O120 Co118 2.143 . S
O120 Co119 2.160 . S
C121 O122 1.278 . S
C121 O129 1.224 . S
O122 C121 1.278 . S
C123 O124 1.245 . S
C123 O135 1.232 . S
O124 C123 1.245 . S
O125 Co119 2.058 . S
O125 C151 1.269 . S
O126 Co118 2.074 . S
O126 C151 1.257 . S
H127 C152 0.930 . S
H128 C158 0.930 . S
O129 Co118 2.093 . S
O129 C121 1.224 . S
H130 C162 0.929 . S
H131 C164 0.930 . S
H132 C165 0.930 . S
H133 C163 0.929 . S
H134 C166 0.928 . S
O135 Co119 2.057 . S
O135 C123 1.232 . S
H136 C155 0.929 . S
H137 C156 0.929 . S
H138 C168 0.931 . S
H139 C160 0.929 . S
H140 C169 0.930 . S
H141 C161 0.931 . S
O142 Co118 2.097 . S
O142 C170 1.214 . S
H143 C171 0.929 . S
H144 C172 0.929 . S
H145 C173 0.930 . S
H146 C174 0.929 . S
H147 C176 0.930 . S
H148 C153 0.930 . S
H149 C157 0.930 . S
O150 Co119 2.037 . S
O150 C170 1.234 . S
C151 O125 1.269 . S
C151 O126 1.257 . S
C152 H127 0.930 . S
C152 C155 1.388 . S
C152 C157 1.418 . S
C153 H148 0.930 . S
C153 C156 1.404 . S
C153 C157 1.353 . S
N154 Co119 2.145 . S
N154 C155 1.397 . S
N154 C156 1.334 . S
C155 H136 0.929 . S
C155 C152 1.388 . S
C155 N154 1.397 . S
C156 H137 0.929 . S
C156 C153 1.404 . S
C156 N154 1.334 . S
C157 H149 0.930 . S
C157 C152 1.418 . S
C157 C153 1.353 . S
C158 H128 0.930 . S
C158 N159 1.330 . S
C158 C160 1.446 . S
N159 Co118 2.151 . S
N159 C158 1.330 . S
N159 C163 1.418 . S
C160 H139 0.929 . S
C160 C158 1.446 . S
C160 C161 1.332 . S
C161 H141 0.931 . S
C161 C160 1.332 . S
C161 C162 1.267 . S
C162 H130 0.929 . S
C162 C161 1.267 . S
C162 C163 1.251 . S
C163 H133 0.929 . S
C163 N159 1.418 . S
C163 C162 1.251 . S
C164 H131 0.930 . S
C164 C166 1.406 . S
C164 C169 1.261 . S
C165 H132 0.930 . S
C165 N167 1.325 . S
C165 C168 1.357 . S
C166 H134 0.928 . S
C166 C164 1.406 . S
C166 N167 1.261 . S
N167 Co118 2.214 . S
N167 C165 1.325 . S
N167 C166 1.261 . S
C168 H138 0.931 . S
C168 C165 1.357 . S
C168 C169 1.312 . S
C169 H140 0.930 . S
C169 C164 1.261 . S
C169 C168 1.312 . S
C170 O142 1.214 . S
C170 O150 1.234 . S
C171 H143 0.929 . S
C171 C174 1.391 . S
C171 C176 1.391 . S
C172 H144 0.929 . S
C172 C173 1.390 . S
C172 N175 1.391 . S
C173 H145 0.930 . S
C173 C172 1.390 . S
C173 C174 1.392 . S
C174 H146 0.929 . S
C174 C171 1.391 . S
C174 C173 1.392 . S
N175 Co119 2.257 . S
N175 C172 1.391 . S
N175 C176 1.388 . S
C176 H147 0.930 . S
C176 C171 1.391 . S
C176 N175 1.388 . S
Co177 O179 2.143 . S
Co177 O185 2.074 . S
Co177 O188 2.093 . S
Co177 O201 2.097 . S
Co177 N218 2.151 . S
Co177 N226 2.214 . S
Co178 O179 2.160 . S
Co178 O184 2.058 . S
Co178 O194 2.057 . S
Co178 O209 2.037 . S
Co178 N213 2.145 . S
Co178 N234 2.257 . S
O179 Co177 2.143 . S
O179 Co178 2.160 . S
C180 O181 1.278 . S
C180 O188 1.224 . S
O181 C180 1.278 . S
C182 O183 1.245 . S
C182 O194 1.232 . S
O183 C182 1.245 . S
O184 Co178 2.058 . S
O184 C210 1.269 . S
O185 Co177 2.074 . S
O185 C210 1.257 . S
H186 C211 0.930 . S
H187 C217 0.930 . S
O188 Co177 2.093 . S
O188 C180 1.224 . S
H189 C221 0.929 . S
H190 C223 0.930 . S
H191 C224 0.930 . S
H192 C222 0.929 . S
H193 C225 0.928 . S
O194 Co178 2.057 . S
O194 C182 1.232 . S
H195 C214 0.929 . S
H196 C215 0.929 . S
H197 C227 0.931 . S
H198 C219 0.929 . S
H199 C228 0.930 . S
H200 C220 0.931 . S
O201 Co177 2.097 . S
O201 C229 1.214 . S
H202 C230 0.929 . S
H203 C231 0.929 . S
H204 C232 0.930 . S
H205 C233 0.929 . S
H206 C235 0.930 . S
H207 C212 0.930 . S
H208 C216 0.930 . S
O209 Co178 2.037 . S
O209 C229 1.234 . S
C210 O184 1.269 . S
C210 O185 1.257 . S
C211 H186 0.930 . S
C211 C214 1.388 . S
C211 C216 1.418 . S
C212 H207 0.930 . S
C212 C215 1.404 . S
C212 C216 1.353 . S
N213 Co178 2.145 . S
N213 C214 1.397 . S
N213 C215 1.334 . S
C214 H195 0.929 . S
C214 C211 1.388 . S
C214 N213 1.397 . S
C215 H196 0.929 . S
C215 C212 1.404 . S
C215 N213 1.334 . S
C216 H208 0.930 . S
C216 C211 1.418 . S
C216 C212 1.353 . S
C217 H187 0.930 . S
C217 N218 1.330 . S
C217 C219 1.446 . S
N218 Co177 2.151 . S
N218 C217 1.330 . S
N218 C222 1.418 . S
C219 H198 0.929 . S
C219 C217 1.446 . S
C219 C220 1.332 . S
C220 H200 0.931 . S
C220 C219 1.332 . S
C220 C221 1.267 . S
C221 H189 0.929 . S
C221 C220 1.267 . S
C221 C222 1.251 . S
C222 H192 0.929 . S
C222 N218 1.418 . S
C222 C221 1.251 . S
C223 H190 0.930 . S
C223 C225 1.406 . S
C223 C228 1.261 . S
C224 H191 0.930 . S
C224 N226 1.325 . S
C224 C227 1.357 . S
C225 H193 0.928 . S
C225 C223 1.406 . S
C225 N226 1.261 . S
N226 Co177 2.214 . S
N226 C224 1.325 . S
N226 C225 1.261 . S
C227 H197 0.931 . S
C227 C224 1.357 . S
C227 C228 1.312 . S
C228 H199 0.930 . S
C228 C223 1.261 . S
C228 C227 1.312 . S
C229 O201 1.214 . S
C229 O209 1.234 . S
C230 H202 0.929 . S
C230 C233 1.391 . S
C230 C235 1.391 . S
C231 H203 0.929 . S
C231 C232 1.390 . S
C231 N234 1.391 . S
C232 H204 0.930 . S
C232 C231 1.390 . S
C232 C233 1.392 . S
C233 H205 0.929 . S
C233 C230 1.391 . S
C233 C232 1.392 . S
N234 Co178 2.257 . S
N234 C231 1.391 . S
N234 C235 1.388 . S
C235 H206 0.930 . S
C235 C230 1.391 . S
C235 N234 1.388 . S
Co236 O238 2.143 . S
Co236 O244 2.074 . S
Co236 O247 2.093 . S
Co236 O260 2.097 . S
Co236 N277 2.151 . S
Co236 N285 2.214 . S
Co237 O238 2.160 . S
Co237 O243 2.058 . S
Co237 O253 2.057 . S
Co237 O268 2.037 . S
Co237 N272 2.145 . S
Co237 N293 2.257 . S
O238 Co236 2.143 . S
O238 Co237 2.160 . S
C239 O240 1.278 . S
C239 O247 1.224 . S
O240 C239 1.278 . S
C241 O242 1.245 . S
C241 O253 1.232 . S
O242 C241 1.245 . S
O243 Co237 2.058 . S
O243 C269 1.269 . S
O244 Co236 2.074 . S
O244 C269 1.257 . S
H245 C270 0.930 . S
H246 C276 0.930 . S
O247 Co236 2.093 . S
O247 C239 1.224 . S
H248 C280 0.929 . S
H249 C282 0.930 . S
H250 C283 0.930 . S
H251 C281 0.929 . S
H252 C284 0.928 . S
O253 Co237 2.057 . S
O253 C241 1.232 . S
H254 C273 0.929 . S
H255 C274 0.929 . S
H256 C286 0.931 . S
H257 C278 0.929 . S
H258 C287 0.930 . S
H259 C279 0.931 . S
O260 Co236 2.097 . S
O260 C288 1.214 . S
H261 C289 0.929 . S
H262 C290 0.929 . S
H263 C291 0.930 . S
H264 C292 0.929 . S
H265 C294 0.930 . S
H266 C271 0.930 . S
H267 C275 0.930 . S
O268 Co237 2.037 . S
O268 C288 1.234 . S
C269 O243 1.269 . S
C269 O244 1.257 . S
C270 H245 0.930 . S
C270 C273 1.388 . S
C270 C275 1.418 . S
C271 H266 0.930 . S
C271 C274 1.404 . S
C271 C275 1.353 . S
N272 Co237 2.145 . S
N272 C273 1.397 . S
N272 C274 1.334 . S
C273 H254 0.929 . S
C273 C270 1.388 . S
C273 N272 1.397 . S
C274 H255 0.929 . S
C274 C271 1.404 . S
C274 N272 1.334 . S
C275 H267 0.930 . S
C275 C270 1.418 . S
C275 C271 1.353 . S
C276 H246 0.930 . S
C276 N277 1.330 . S
C276 C278 1.446 . S
N277 Co236 2.151 . S
N277 C276 1.330 . S
N277 C281 1.418 . S
C278 H257 0.929 . S
C278 C276 1.446 . S
C278 C279 1.332 . S
C279 H259 0.931 . S
C279 C278 1.332 . S
C279 C280 1.267 . S
C280 H248 0.929 . S
C280 C279 1.267 . S
C280 C281 1.251 . S
C281 H251 0.929 . S
C281 N277 1.418 . S
C281 C280 1.251 . S
C282 H249 0.930 . S
C282 C284 1.406 . S
C282 C287 1.261 . S
C283 H250 0.930 . S
C283 N285 1.325 . S
C283 C286 1.357 . S
C284 H252 0.928 . S
C284 C282 1.406 . S
C284 N285 1.261 . S
N285 Co236 2.214 . S
N285 C283 1.325 . S
N285 C284 1.261 . S
C286 H256 0.931 . S
C286 C283 1.357 . S
C286 C287 1.312 . S
C287 H258 0.930 . S
C287 C282 1.261 . S
C287 C286 1.312 . S
C288 O260 1.214 . S
C288 O268 1.234 . S
C289 H261 0.929 . S
C289 C292 1.391 . S
C289 C294 1.391 . S
C290 H262 0.929 . S
C290 C291 1.390 . S
C290 N293 1.391 . S
C291 H263 0.930 . S
C291 C290 1.390 . S
C291 C292 1.392 . S
C292 H264 0.929 . S
C292 C289 1.391 . S
C292 C291 1.392 . S
N293 Co237 2.257 . S
N293 C290 1.391 . S
N293 C294 1.388 . S
C294 H265 0.930 . S
C294 C289 1.391 . S
C294 N293 1.388 . S
Co295 O297 2.143 . S
Co295 O303 2.074 . S
Co295 O306 2.093 . S
Co295 O319 2.097 . S
Co295 N336 2.151 . S
Co295 N344 2.214 . S
Co296 O297 2.160 . S
Co296 O302 2.058 . S
Co296 O312 2.057 . S
Co296 O327 2.037 . S
Co296 N331 2.145 . S
Co296 N352 2.257 . S
O297 Co295 2.143 . S
O297 Co296 2.160 . S
C298 O299 1.278 . S
C298 O306 1.224 . S
O299 C298 1.278 . S
C300 O301 1.245 . S
C300 O312 1.232 . S
O301 C300 1.245 . S
O302 Co296 2.058 . S
O302 C328 1.269 . S
O303 Co295 2.074 . S
O303 C328 1.257 . S
H304 C329 0.930 . S
H305 C335 0.930 . S
O306 Co295 2.093 . S
O306 C298 1.224 . S
H307 C339 0.929 . S
H308 C341 0.930 . S
H309 C342 0.930 . S
H310 C340 0.929 . S
H311 C343 0.928 . S
O312 Co296 2.057 . S
O312 C300 1.232 . S
H313 C332 0.929 . S
H314 C333 0.929 . S
H315 C345 0.931 . S
H316 C337 0.929 . S
H317 C346 0.930 . S
H318 C338 0.931 . S
O319 Co295 2.097 . S
O319 C347 1.214 . S
H320 C348 0.929 . S
H321 C349 0.929 . S
H322 C350 0.930 . S
H323 C351 0.929 . S
H324 C353 0.930 . S
H325 C330 0.930 . S
H326 C334 0.930 . S
O327 Co296 2.037 . S
O327 C347 1.234 . S
C328 O302 1.269 . S
C328 O303 1.257 . S
C329 H304 0.930 . S
C329 C332 1.388 . S
C329 C334 1.418 . S
C330 H325 0.930 . S
C330 C333 1.404 . S
C330 C334 1.353 . S
N331 Co296 2.145 . S
N331 C332 1.397 . S
N331 C333 1.334 . S
C332 H313 0.929 . S
C332 C329 1.388 . S
C332 N331 1.397 . S
C333 H314 0.929 . S
C333 C330 1.404 . S
C333 N331 1.334 . S
C334 H326 0.930 . S
C334 C329 1.418 . S
C334 C330 1.353 . S
C335 H305 0.930 . S
C335 N336 1.330 . S
C335 C337 1.446 . S
N336 Co295 2.151 . S
N336 C335 1.330 . S
N336 C340 1.418 . S
C337 H316 0.929 . S
C337 C335 1.446 . S
C337 C338 1.332 . S
C338 H318 0.931 . S
C338 C337 1.332 . S
C338 C339 1.267 . S
C339 H307 0.929 . S
C339 C338 1.267 . S
C339 C340 1.251 . S
C340 H310 0.929 . S
C340 N336 1.418 . S
C340 C339 1.251 . S
C341 H308 0.930 . S
C341 C343 1.406 . S
C341 C346 1.261 . S
C342 H309 0.930 . S
C342 N344 1.325 . S
C342 C345 1.357 . S
C343 H311 0.928 . S
C343 C341 1.406 . S
C343 N344 1.261 . S
N344 Co295 2.214 . S
N344 C342 1.325 . S
N344 C343 1.261 . S
C345 H315 0.931 . S
C345 C342 1.357 . S
C345 C346 1.312 . S
C346 H317 0.930 . S
C346 C341 1.261 . S
C346 C345 1.312 . S
C347 O319 1.214 . S
C347 O327 1.234 . S
C348 H320 0.929 . S
C348 C351 1.391 . S
C348 C353 1.391 . S
C349 H321 0.929 . S
C349 C350 1.390 . S
C349 N352 1.391 . S
C350 H322 0.930 . S
C350 C349 1.390 . S
C350 C351 1.392 . S
C351 H323 0.929 . S
C351 C348 1.391 . S
C351 C350 1.392 . S
N352 Co296 2.257 . S
N352 C349 1.391 . S
N352 C353 1.388 . S
C353 H324 0.930 . S
C353 C348 1.391 . S
C353 N352 1.388 . S
Co354 O356 2.143 . S
Co354 O362 2.074 . S
Co354 O365 2.093 . S
Co354 O378 2.097 . S
Co354 N395 2.151 . S
Co354 N403 2.214 . S
Co355 O356 2.160 . S
Co355 O361 2.058 . S
Co355 O371 2.057 . S
Co355 O386 2.037 . S
Co355 N390 2.145 . S
Co355 N411 2.257 . S
O356 Co354 2.143 . S
O356 Co355 2.160 . S
C357 O358 1.278 . S
C357 O365 1.224 . S
O358 C357 1.278 . S
C359 O360 1.245 . S
C359 O371 1.232 . S
O360 C359 1.245 . S
O361 Co355 2.058 . S
O361 C387 1.269 . S
O362 Co354 2.074 . S
O362 C387 1.257 . S
H363 C388 0.930 . S
H364 C394 0.930 . S
O365 Co354 2.093 . S
O365 C357 1.224 . S
H366 C398 0.929 . S
H367 C400 0.930 . S
H368 C401 0.930 . S
H369 C399 0.929 . S
H370 C402 0.928 . S
O371 Co355 2.057 . S
O371 C359 1.232 . S
H372 C391 0.929 . S
H373 C392 0.929 . S
H374 C404 0.931 . S
H375 C396 0.929 . S
H376 C405 0.930 . S
H377 C397 0.931 . S
O378 Co354 2.097 . S
O378 C406 1.214 . S
H379 C407 0.929 . S
H380 C408 0.929 . S
H381 C409 0.930 . S
H382 C410 0.929 . S
H383 C412 0.930 . S
H384 C389 0.930 . S
H385 C393 0.930 . S
O386 Co355 2.037 . S
O386 C406 1.234 . S
C387 O361 1.269 . S
C387 O362 1.257 . S
C388 H363 0.930 . S
C388 C391 1.388 . S
C388 C393 1.418 . S
C389 H384 0.930 . S
C389 C392 1.404 . S
C389 C393 1.353 . S
N390 Co355 2.145 . S
N390 C391 1.397 . S
N390 C392 1.334 . S
C391 H372 0.929 . S
C391 C388 1.388 . S
C391 N390 1.397 . S
C392 H373 0.929 . S
C392 C389 1.404 . S
C392 N390 1.334 . S
C393 H385 0.930 . S
C393 C388 1.418 . S
C393 C389 1.353 . S
C394 H364 0.930 . S
C394 N395 1.330 . S
C394 C396 1.446 . S
N395 Co354 2.151 . S
N395 C394 1.330 . S
N395 C399 1.418 . S
C396 H375 0.929 . S
C396 C394 1.446 . S
C396 C397 1.332 . S
C397 H377 0.931 . S
C397 C396 1.332 . S
C397 C398 1.267 . S
C398 H366 0.929 . S
C398 C397 1.267 . S
C398 C399 1.251 . S
C399 H369 0.929 . S
C399 N395 1.418 . S
C399 C398 1.251 . S
C400 H367 0.930 . S
C400 C402 1.406 . S
C400 C405 1.261 . S
C401 H368 0.930 . S
C401 N403 1.325 . S
C401 C404 1.357 . S
C402 H370 0.928 . S
C402 C400 1.406 . S
C402 N403 1.261 . S
N403 Co354 2.214 . S
N403 C401 1.325 . S
N403 C402 1.261 . S
C404 H374 0.931 . S
C404 C401 1.357 . S
C404 C405 1.312 . S
C405 H376 0.930 . S
C405 C400 1.261 . S
C405 C404 1.312 . S
C406 O378 1.214 . S
C406 O386 1.234 . S
C407 H379 0.929 . S
C407 C410 1.391 . S
C407 C412 1.391 . S
C408 H380 0.929 . S
C408 C409 1.390 . S
C408 N411 1.391 . S
C409 H381 0.930 . S
C409 C408 1.390 . S
C409 C410 1.392 . S
C410 H382 0.929 . S
C410 C407 1.391 . S
C410 C409 1.392 . S
N411 Co355 2.257 . S
N411 C408 1.391 . S
N411 C412 1.388 . S
C412 H383 0.930 . S
C412 C407 1.391 . S
C412 N411 1.388 . S
Co413 O415 2.143 . S
Co413 O421 2.074 . S
Co413 O424 2.093 . S
Co413 O437 2.097 . S
Co413 N454 2.151 . S
Co413 N462 2.214 . S
Co414 O415 2.160 . S
Co414 O420 2.058 . S
Co414 O430 2.057 . S
Co414 O445 2.037 . S
Co414 N449 2.145 . S
Co414 N470 2.257 . S
O415 Co413 2.143 . S
O415 Co414 2.160 . S
C416 O417 1.278 . S
C416 O424 1.224 . S
O417 C416 1.278 . S
C418 O419 1.245 . S
C418 O430 1.232 . S
O419 C418 1.245 . S
O420 Co414 2.058 . S
O420 C446 1.269 . S
O421 Co413 2.074 . S
O421 C446 1.257 . S
H422 C447 0.930 . S
H423 C453 0.930 . S
O424 Co413 2.093 . S
O424 C416 1.224 . S
H425 C457 0.929 . S
H426 C459 0.930 . S
H427 C460 0.930 . S
H428 C458 0.929 . S
H429 C461 0.928 . S
O430 Co414 2.057 . S
O430 C418 1.232 . S
H431 C450 0.929 . S
H432 C451 0.929 . S
H433 C463 0.931 . S
H434 C455 0.929 . S
H435 C464 0.930 . S
H436 C456 0.931 . S
O437 Co413 2.097 . S
O437 C465 1.214 . S
H438 C466 0.929 . S
H439 C467 0.929 . S
H440 C468 0.930 . S
H441 C469 0.929 . S
H442 C471 0.930 . S
H443 C448 0.930 . S
H444 C452 0.930 . S
O445 Co414 2.037 . S
O445 C465 1.234 . S
C446 O420 1.269 . S
C446 O421 1.257 . S
C447 H422 0.930 . S
C447 C450 1.388 . S
C447 C452 1.418 . S
C448 H443 0.930 . S
C448 C451 1.404 . S
C448 C452 1.353 . S
N449 Co414 2.145 . S
N449 C450 1.397 . S
N449 C451 1.334 . S
C450 H431 0.929 . S
C450 C447 1.388 . S
C450 N449 1.397 . S
C451 H432 0.929 . S
C451 C448 1.404 . S
C451 N449 1.334 . S
C452 H444 0.930 . S
C452 C447 1.418 . S
C452 C448 1.353 . S
C453 H423 0.930 . S
C453 N454 1.330 . S
C453 C455 1.446 . S
N454 Co413 2.151 . S
N454 C453 1.330 . S
N454 C458 1.418 . S
C455 H434 0.929 . S
C455 C453 1.446 . S
C455 C456 1.332 . S
C456 H436 0.931 . S
C456 C455 1.332 . S
C456 C457 1.267 . S
C457 H425 0.929 . S
C457 C456 1.267 . S
C457 C458 1.251 . S
C458 H428 0.929 . S
C458 N454 1.418 . S
C458 C457 1.251 . S
C459 H426 0.930 . S
C459 C461 1.406 . S
C459 C464 1.261 . S
C460 H427 0.930 . S
C460 N462 1.325 . S
C460 C463 1.357 . S
C461 H429 0.928 . S
C461 C459 1.406 . S
C461 N462 1.261 . S
N462 Co413 2.214 . S
N462 C460 1.325 . S
N462 C461 1.261 . S
C463 H433 0.931 . S
C463 C460 1.357 . S
C463 C464 1.312 . S
C464 H435 0.930 . S
C464 C459 1.261 . S
C464 C463 1.312 . S
C465 O437 1.214 . S
C465 O445 1.234 . S
C466 H438 0.929 . S
C466 C469 1.391 . S
C466 C471 1.391 . S
C467 H439 0.929 . S
C467 C468 1.390 . S
C467 N470 1.391 . S
C468 H440 0.930 . S
C468 C467 1.390 . S
C468 C469 1.392 . S
C469 H441 0.929 . S
C469 C466 1.391 . S
C469 C468 1.392 . S
N470 Co414 2.257 . S
N470 C467 1.391 . S
N470 C471 1.388 . S
C471 H442 0.930 . S
C471 C466 1.391 . S
C471 N470 1.388 . S
Co472 O474 2.143 . S
Co472 O480 2.074 . S
Co472 O483 2.093 . S
Co472 O496 2.097 . S
Co472 N513 2.151 . S
Co472 N521 2.214 . S
Co473 O474 2.160 . S
Co473 O479 2.058 . S
Co473 O489 2.057 . S
Co473 O504 2.037 . S
Co473 N508 2.145 . S
Co473 N529 2.257 . S
O474 Co472 2.143 . S
O474 Co473 2.160 . S
C475 O476 1.278 . S
C475 O483 1.224 . S
O476 C475 1.278 . S
C477 O478 1.245 . S
C477 O489 1.232 . S
O478 C477 1.245 . S
O479 Co473 2.058 . S
O479 C505 1.269 . S
O480 Co472 2.074 . S
O480 C505 1.257 . S
H481 C506 0.930 . S
H482 C512 0.930 . S
O483 Co472 2.093 . S
O483 C475 1.224 . S
H484 C516 0.929 . S
H485 C518 0.930 . S
H486 C519 0.930 . S
H487 C517 0.929 . S
H488 C520 0.928 . S
O489 Co473 2.057 . S
O489 C477 1.232 . S
H490 C509 0.929 . S
H491 C510 0.929 . S
H492 C522 0.931 . S
H493 C514 0.929 . S
H494 C523 0.930 . S
H495 C515 0.931 . S
O496 Co472 2.097 . S
O496 C524 1.214 . S
H497 C525 0.929 . S
H498 C526 0.929 . S
H499 C527 0.930 . S
H500 C528 0.929 . S
H501 C530 0.930 . S
H502 C507 0.930 . S
H503 C511 0.930 . S
O504 Co473 2.037 . S
O504 C524 1.234 . S
C505 O479 1.269 . S
C505 O480 1.257 . S
C506 H481 0.930 . S
C506 C509 1.388 . S
C506 C511 1.418 . S
C507 H502 0.930 . S
C507 C510 1.404 . S
C507 C511 1.353 . S
N508 Co473 2.145 . S
N508 C509 1.397 . S
N508 C510 1.334 . S
C509 H490 0.929 . S
C509 C506 1.388 . S
C509 N508 1.397 . S
C510 H491 0.929 . S
C510 C507 1.404 . S
C510 N508 1.334 . S
C511 H503 0.930 . S
C511 C506 1.418 . S
C511 C507 1.353 . S
C512 H482 0.930 . S
C512 N513 1.330 . S
C512 C514 1.446 . S
N513 Co472 2.151 . S
N513 C512 1.330 . S
N513 C517 1.418 . S
C514 H493 0.929 . S
C514 C512 1.446 . S
C514 C515 1.332 . S
C515 H495 0.931 . S
C515 C514 1.332 . S
C515 C516 1.267 . S
C516 H484 0.929 . S
C516 C515 1.267 . S
C516 C517 1.251 . S
C517 H487 0.929 . S
C517 N513 1.418 . S
C517 C516 1.251 . S
C518 H485 0.930 . S
C518 C520 1.406 . S
C518 C523 1.261 . S
C519 H486 0.930 . S
C519 N521 1.325 . S
C519 C522 1.357 . S
C520 H488 0.928 . S
C520 C518 1.406 . S
C520 N521 1.261 . S
N521 Co472 2.214 . S
N521 C519 1.325 . S
N521 C520 1.261 . S
C522 H492 0.931 . S
C522 C519 1.357 . S
C522 C523 1.312 . S
C523 H494 0.930 . S
C523 C518 1.261 . S
C523 C522 1.312 . S
C524 O496 1.214 . S
C524 O504 1.234 . S
C525 H497 0.929 . S
C525 C528 1.391 . S
C525 C530 1.391 . S
C526 H498 0.929 . S
C526 C527 1.390 . S
C526 N529 1.391 . S
C527 H499 0.930 . S
C527 C526 1.390 . S
C527 C528 1.392 . S
C528 H500 0.929 . S
C528 C525 1.391 . S
C528 C527 1.392 . S
N529 Co473 2.257 . S
N529 C526 1.391 . S
N529 C530 1.388 . S
C530 H501 0.930 . S
C530 C525 1.391 . S
C530 N529 1.388 . S
Co531 O533 2.143 . S
Co531 O539 2.074 . S
Co531 O542 2.093 . S
Co531 O555 2.097 . S
Co531 N572 2.151 . S
Co531 N580 2.214 . S
Co532 O533 2.160 . S
Co532 O538 2.058 . S
Co532 O548 2.057 . S
Co532 O563 2.037 . S
Co532 N567 2.145 . S
Co532 N588 2.257 . S
O533 Co531 2.143 . S
O533 Co532 2.160 . S
C534 O535 1.278 . S
C534 O542 1.224 . S
O535 C534 1.278 . S
C536 O537 1.245 . S
C536 O548 1.232 . S
O537 C536 1.245 . S
O538 Co532 2.058 . S
O538 C564 1.269 . S
O539 Co531 2.074 . S
O539 C564 1.257 . S
H540 C565 0.930 . S
H541 C571 0.930 . S
O542 Co531 2.093 . S
O542 C534 1.224 . S
H543 C575 0.929 . S
H544 C577 0.930 . S
H545 C578 0.930 . S
H546 C576 0.929 . S
H547 C579 0.928 . S
O548 Co532 2.057 . S
O548 C536 1.232 . S
H549 C568 0.929 . S
H550 C569 0.929 . S
H551 C581 0.931 . S
H552 C573 0.929 . S
H553 C582 0.930 . S
H554 C574 0.931 . S
O555 Co531 2.097 . S
O555 C583 1.214 . S
H556 C584 0.929 . S
H557 C585 0.929 . S
H558 C586 0.930 . S
H559 C587 0.929 . S
H560 C589 0.930 . S
H561 C566 0.930 . S
H562 C570 0.930 . S
O563 Co532 2.037 . S
O563 C583 1.234 . S
C564 O538 1.269 . S
C564 O539 1.257 . S
C565 H540 0.930 . S
C565 C568 1.388 . S
C565 C570 1.418 . S
C566 H561 0.930 . S
C566 C569 1.404 . S
C566 C570 1.353 . S
N567 Co532 2.145 . S
N567 C568 1.397 . S
N567 C569 1.334 . S
C568 H549 0.929 . S
C568 C565 1.388 . S
C568 N567 1.397 . S
C569 H550 0.929 . S
C569 C566 1.404 . S
C569 N567 1.334 . S
C570 H562 0.930 . S
C570 C565 1.418 . S
C570 C566 1.353 . S
C571 H541 0.930 . S
C571 N572 1.330 . S
C571 C573 1.446 . S
N572 Co531 2.151 . S
N572 C571 1.330 . S
N572 C576 1.418 . S
C573 H552 0.929 . S
C573 C571 1.446 . S
C573 C574 1.332 . S
C574 H554 0.931 . S
C574 C573 1.332 . S
C574 C575 1.267 . S
C575 H543 0.929 . S
C575 C574 1.267 . S
C575 C576 1.251 . S
C576 H546 0.929 . S
C576 N572 1.418 . S
C576 C575 1.251 . S
C577 H544 0.930 . S
C577 C579 1.406 . S
C577 C582 1.261 . S
C578 H545 0.930 . S
C578 N580 1.325 . S
C578 C581 1.357 . S
C579 H547 0.928 . S
C579 C577 1.406 . S
C579 N580 1.261 . S
N580 Co531 2.214 . S
N580 C578 1.325 . S
N580 C579 1.261 . S
C581 H551 0.931 . S
C581 C578 1.357 . S
C581 C582 1.312 . S
C582 H553 0.930 . S
C582 C577 1.261 . S
C582 C581 1.312 . S
C583 O555 1.214 . S
C583 O563 1.234 . S
C584 H556 0.929 . S
C584 C587 1.391 . S
C584 C589 1.391 . S
C585 H557 0.929 . S
C585 C586 1.390 . S
C585 N588 1.391 . S
C586 H558 0.930 . S
C586 C585 1.390 . S
C586 C587 1.392 . S
C587 H559 0.929 . S
C587 C584 1.391 . S
C587 C586 1.392 . S
N588 Co532 2.257 . S
N588 C585 1.391 . S
N588 C589 1.388 . S
C589 H560 0.930 . S
C589 C584 1.391 . S
C589 N588 1.388 . S
Co590 O592 2.143 . S
Co590 O598 2.074 . S
Co590 O601 2.093 . S
Co590 O614 2.097 . S
Co590 N631 2.151 . S
Co590 N639 2.214 . S
Co591 O592 2.160 . S
Co591 O597 2.058 . S
Co591 O607 2.057 . S
Co591 O622 2.037 . S
Co591 N626 2.145 . S
Co591 N647 2.257 . S
O592 Co590 2.143 . S
O592 Co591 2.160 . S
C593 O594 1.278 . S
C593 O601 1.224 . S
O594 C593 1.278 . S
C595 O596 1.245 . S
C595 O607 1.232 . S
O596 C595 1.245 . S
O597 Co591 2.058 . S
O597 C623 1.269 . S
O598 Co590 2.074 . S
O598 C623 1.257 . S
H599 C624 0.930 . S
H600 C630 0.930 . S
O601 Co590 2.093 . S
O601 C593 1.224 . S
H602 C634 0.929 . S
H603 C636 0.930 . S
H604 C637 0.930 . S
H605 C635 0.929 . S
H606 C638 0.928 . S
O607 Co591 2.057 . S
O607 C595 1.232 . S
H608 C627 0.929 . S
H609 C628 0.929 . S
H610 C640 0.931 . S
H611 C632 0.929 . S
H612 C641 0.930 . S
H613 C633 0.931 . S
O614 Co590 2.097 . S
O614 C642 1.214 . S
H615 C643 0.929 . S
H616 C644 0.929 . S
H617 C645 0.930 . S
H618 C646 0.929 . S
H619 C648 0.930 . S
H620 C625 0.930 . S
H621 C629 0.930 . S
O622 Co591 2.037 . S
O622 C642 1.234 . S
C623 O597 1.269 . S
C623 O598 1.257 . S
C624 H599 0.930 . S
C624 C627 1.388 . S
C624 C629 1.418 . S
C625 H620 0.930 . S
C625 C628 1.404 . S
C625 C629 1.353 . S
N626 Co591 2.145 . S
N626 C627 1.397 . S
N626 C628 1.334 . S
C627 H608 0.929 . S
C627 C624 1.388 . S
C627 N626 1.397 . S
C628 H609 0.929 . S
C628 C625 1.404 . S
C628 N626 1.334 . S
C629 H621 0.930 . S
C629 C624 1.418 . S
C629 C625 1.353 . S
C630 H600 0.930 . S
C630 N631 1.330 . S
C630 C632 1.446 . S
N631 Co590 2.151 . S
N631 C630 1.330 . S
N631 C635 1.418 . S
C632 H611 0.929 . S
C632 C630 1.446 . S
C632 C633 1.332 . S
C633 H613 0.931 . S
C633 C632 1.332 . S
C633 C634 1.267 . S
C634 H602 0.929 . S
C634 C633 1.267 . S
C634 C635 1.251 . S
C635 H605 0.929 . S
C635 N631 1.418 . S
C635 C634 1.251 . S
C636 H603 0.930 . S
C636 C638 1.406 . S
C636 C641 1.261 . S
C637 H604 0.930 . S
C637 N639 1.325 . S
C637 C640 1.357 . S
C638 H606 0.928 . S
C638 C636 1.406 . S
C638 N639 1.261 . S
N639 Co590 2.214 . S
N639 C637 1.325 . S
N639 C638 1.261 . S
C640 H610 0.931 . S
C640 C637 1.357 . S
C640 C641 1.312 . S
C641 H612 0.930 . S
C641 C636 1.261 . S
C641 C640 1.312 . S
C642 O614 1.214 . S
C642 O622 1.234 . S
C643 H615 0.929 . S
C643 C646 1.391 . S
C643 C648 1.391 . S
C644 H616 0.929 . S
C644 C645 1.390 . S
C644 N647 1.391 . S
C645 H617 0.930 . S
C645 C644 1.390 . S
C645 C646 1.392 . S
C646 H618 0.929 . S
C646 C643 1.391 . S
C646 C645 1.392 . S
N647 Co591 2.257 . S
N647 C644 1.391 . S
N647 C648 1.388 . S
C648 H619 0.930 . S
C648 C643 1.391 . S
C648 N647 1.388 . S
Co649 O651 2.143 . S
Co649 O657 2.074 . S
Co649 O660 2.093 . S
Co649 O673 2.097 . S
Co649 N690 2.151 . S
Co649 N698 2.214 . S
Co650 O651 2.160 . S
Co650 O656 2.058 . S
Co650 O666 2.057 . S
Co650 O681 2.037 . S
Co650 N685 2.145 . S
Co650 N706 2.257 . S
O651 Co649 2.143 . S
O651 Co650 2.160 . S
C652 O653 1.278 . S
C652 O660 1.224 . S
O653 C652 1.278 . S
C654 O655 1.245 . S
C654 O666 1.232 . S
O655 C654 1.245 . S
O656 Co650 2.058 . S
O656 C682 1.269 . S
O657 Co649 2.074 . S
O657 C682 1.257 . S
H658 C683 0.930 . S
H659 C689 0.930 . S
O660 Co649 2.093 . S
O660 C652 1.224 . S
H661 C693 0.929 . S
H662 C695 0.930 . S
H663 C696 0.930 . S
H664 C694 0.929 . S
H665 C697 0.928 . S
O666 Co650 2.057 . S
O666 C654 1.232 . S
H667 C686 0.929 . S
H668 C687 0.929 . S
H669 C699 0.931 . S
H670 C691 0.929 . S
H671 C700 0.930 . S
H672 C692 0.931 . S
O673 Co649 2.097 . S
O673 C701 1.214 . S
H674 C702 0.929 . S
H675 C703 0.929 . S
H676 C704 0.930 . S
H677 C705 0.929 . S
H678 C707 0.930 . S
H679 C684 0.930 . S
H680 C688 0.930 . S
O681 Co650 2.037 . S
O681 C701 1.234 . S
C682 O656 1.269 . S
C682 O657 1.257 . S
C683 H658 0.930 . S
C683 C686 1.388 . S
C683 C688 1.418 . S
C684 H679 0.930 . S
C684 C687 1.404 . S
C684 C688 1.353 . S
N685 Co650 2.145 . S
N685 C686 1.397 . S
N685 C687 1.334 . S
C686 H667 0.929 . S
C686 C683 1.388 . S
C686 N685 1.397 . S
C687 H668 0.929 . S
C687 C684 1.404 . S
C687 N685 1.334 . S
C688 H680 0.930 . S
C688 C683 1.418 . S
C688 C684 1.353 . S
C689 H659 0.930 . S
C689 N690 1.330 . S
C689 C691 1.446 . S
N690 Co649 2.151 . S
N690 C689 1.330 . S
N690 C694 1.418 . S
C691 H670 0.929 . S
C691 C689 1.446 . S
C691 C692 1.332 . S
C692 H672 0.931 . S
C692 C691 1.332 . S
C692 C693 1.267 . S
C693 H661 0.929 . S
C693 C692 1.267 . S
C693 C694 1.251 . S
C694 H664 0.929 . S
C694 N690 1.418 . S
C694 C693 1.251 . S
C695 H662 0.930 . S
C695 C697 1.406 . S
C695 C700 1.261 . S
C696 H663 0.930 . S
C696 N698 1.325 . S
C696 C699 1.357 . S
C697 H665 0.928 . S
C697 C695 1.406 . S
C697 N698 1.261 . S
N698 Co649 2.214 . S
N698 C696 1.325 . S
N698 C697 1.261 . S
C699 H669 0.931 . S
C699 C696 1.357 . S
C699 C700 1.312 . S
C700 H671 0.930 . S
C700 C695 1.261 . S
C700 C699 1.312 . S
C701 O673 1.214 . S
C701 O681 1.234 . S
C702 H674 0.929 . S
C702 C705 1.391 . S
C702 C707 1.391 . S
C703 H675 0.929 . S
C703 C704 1.390 . S
C703 N706 1.391 . S
C704 H676 0.930 . S
C704 C703 1.390 . S
C704 C705 1.392 . S
C705 H677 0.929 . S
C705 C702 1.391 . S
C705 C704 1.392 . S
N706 Co650 2.257 . S
N706 C703 1.391 . S
N706 C707 1.388 . S
C707 H678 0.930 . S
C707 C702 1.391 . S
C707 N706 1.388 . S
Co708 O710 2.143 . S
Co708 O716 2.074 . S
Co708 O719 2.093 . S
Co708 O732 2.097 . S
Co708 N749 2.151 . S
Co708 N757 2.214 . S
Co709 O710 2.160 . S
Co709 O715 2.058 . S
Co709 O725 2.057 . S
Co709 O740 2.037 . S
Co709 N744 2.145 . S
Co709 N765 2.257 . S
O710 Co708 2.143 . S
O710 Co709 2.160 . S
C711 O712 1.278 . S
C711 O719 1.224 . S
O712 C711 1.278 . S
C713 O714 1.245 . S
C713 O725 1.232 . S
O714 C713 1.245 . S
O715 Co709 2.058 . S
O715 C741 1.269 . S
O716 Co708 2.074 . S
O716 C741 1.257 . S
H717 C742 0.930 . S
H718 C748 0.930 . S
O719 Co708 2.093 . S
O719 C711 1.224 . S
H720 C752 0.929 . S
H721 C754 0.930 . S
H722 C755 0.930 . S
H723 C753 0.929 . S
H724 C756 0.928 . S
O725 Co709 2.057 . S
O725 C713 1.232 . S
H726 C745 0.929 . S
H727 C746 0.929 . S
H728 C758 0.931 . S
H729 C750 0.929 . S
H730 C759 0.930 . S
H731 C751 0.931 . S
O732 Co708 2.097 . S
O732 C760 1.214 . S
H733 C761 0.929 . S
H734 C762 0.929 . S
H735 C763 0.930 . S
H736 C764 0.929 . S
H737 C766 0.930 . S
H738 C743 0.930 . S
H739 C747 0.930 . S
O740 Co709 2.037 . S
O740 C760 1.234 . S
C741 O715 1.269 . S
C741 O716 1.257 . S
C742 H717 0.930 . S
C742 C745 1.388 . S
C742 C747 1.418 . S
C743 H738 0.930 . S
C743 C746 1.404 . S
C743 C747 1.353 . S
N744 Co709 2.145 . S
N744 C745 1.397 . S
N744 C746 1.334 . S
C745 H726 0.929 . S
C745 C742 1.388 . S
C745 N744 1.397 . S
C746 H727 0.929 . S
C746 C743 1.404 . S
C746 N744 1.334 . S
C747 H739 0.930 . S
C747 C742 1.418 . S
C747 C743 1.353 . S
C748 H718 0.930 . S
C748 N749 1.330 . S
C748 C750 1.446 . S
N749 Co708 2.151 . S
N749 C748 1.330 . S
N749 C753 1.418 . S
C750 H729 0.929 . S
C750 C748 1.446 . S
C750 C751 1.332 . S
C751 H731 0.931 . S
C751 C750 1.332 . S
C751 C752 1.267 . S
C752 H720 0.929 . S
C752 C751 1.267 . S
C752 C753 1.251 . S
C753 H723 0.929 . S
C753 N749 1.418 . S
C753 C752 1.251 . S
C754 H721 0.930 . S
C754 C756 1.406 . S
C754 C759 1.261 . S
C755 H722 0.930 . S
C755 N757 1.325 . S
C755 C758 1.357 . S
C756 H724 0.928 . S
C756 C754 1.406 . S
C756 N757 1.261 . S
N757 Co708 2.214 . S
N757 C755 1.325 . S
N757 C756 1.261 . S
C758 H728 0.931 . S
C758 C755 1.357 . S
C758 C759 1.312 . S
C759 H730 0.930 . S
C759 C754 1.261 . S
C759 C758 1.312 . S
C760 O732 1.214 . S
C760 O740 1.234 . S
C761 H733 0.929 . S
C761 C764 1.391 . S
C761 C766 1.391 . S
C762 H734 0.929 . S
C762 C763 1.390 . S
C762 N765 1.391 . S
C763 H735 0.930 . S
C763 C762 1.390 . S
C763 C764 1.392 . S
C764 H736 0.929 . S
C764 C761 1.391 . S
C764 C763 1.392 . S
N765 Co709 2.257 . S
N765 C762 1.391 . S
N765 C766 1.388 . S
C766 H737 0.930 . S
C766 C761 1.391 . S
C766 N765 1.388 . S
Co767 O769 2.143 . S
Co767 O775 2.074 . S
Co767 O778 2.093 . S
Co767 O791 2.097 . S
Co767 N808 2.151 . S
Co767 N816 2.214 . S
Co768 O769 2.160 . S
Co768 O774 2.058 . S
Co768 O784 2.057 . S
Co768 O799 2.037 . S
Co768 N803 2.145 . S
Co768 N824 2.257 . S
O769 Co767 2.143 . S
O769 Co768 2.160 . S
C770 O771 1.278 . S
C770 O778 1.224 . S
O771 C770 1.278 . S
C772 O773 1.245 . S
C772 O784 1.232 . S
O773 C772 1.245 . S
O774 Co768 2.058 . S
O774 C800 1.269 . S
O775 Co767 2.074 . S
O775 C800 1.257 . S
H776 C801 0.930 . S
H777 C807 0.930 . S
O778 Co767 2.093 . S
O778 C770 1.224 . S
H779 C811 0.929 . S
H780 C813 0.930 . S
H781 C814 0.930 . S
H782 C812 0.929 . S
H783 C815 0.928 . S
O784 Co768 2.057 . S
O784 C772 1.232 . S
H785 C804 0.929 . S
H786 C805 0.929 . S
H787 C817 0.931 . S
H788 C809 0.929 . S
H789 C818 0.930 . S
H790 C810 0.931 . S
O791 Co767 2.097 . S
O791 C819 1.214 . S
H792 C820 0.929 . S
H793 C821 0.929 . S
H794 C822 0.930 . S
H795 C823 0.929 . S
H796 C825 0.930 . S
H797 C802 0.930 . S
H798 C806 0.930 . S
O799 Co768 2.037 . S
O799 C819 1.234 . S
C800 O774 1.269 . S
C800 O775 1.257 . S
C801 H776 0.930 . S
C801 C804 1.388 . S
C801 C806 1.418 . S
C802 H797 0.930 . S
C802 C805 1.404 . S
C802 C806 1.353 . S
N803 Co768 2.145 . S
N803 C804 1.397 . S
N803 C805 1.334 . S
C804 H785 0.929 . S
C804 C801 1.388 . S
C804 N803 1.397 . S
C805 H786 0.929 . S
C805 C802 1.404 . S
C805 N803 1.334 . S
C806 H798 0.930 . S
C806 C801 1.418 . S
C806 C802 1.353 . S
C807 H777 0.930 . S
C807 N808 1.330 . S
C807 C809 1.446 . S
N808 Co767 2.151 . S
N808 C807 1.330 . S
N808 C812 1.418 . S
C809 H788 0.929 . S
C809 C807 1.446 . S
C809 C810 1.332 . S
C810 H790 0.931 . S
C810 C809 1.332 . S
C810 C811 1.267 . S
C811 H779 0.929 . S
C811 C810 1.267 . S
C811 C812 1.251 . S
C812 H782 0.929 . S
C812 N808 1.418 . S
C812 C811 1.251 . S
C813 H780 0.930 . S
C813 C815 1.406 . S
C813 C818 1.261 . S
C814 H781 0.930 . S
C814 N816 1.325 . S
C814 C817 1.357 . S
C815 H783 0.928 . S
C815 C813 1.406 . S
C815 N816 1.261 . S
N816 Co767 2.214 . S
N816 C814 1.325 . S
N816 C815 1.261 . S
C817 H787 0.931 . S
C817 C814 1.357 . S
C817 C818 1.312 . S
C818 H789 0.930 . S
C818 C813 1.261 . S
C818 C817 1.312 . S
C819 O791 1.214 . S
C819 O799 1.234 . S
C820 H792 0.929 . S
C820 C823 1.391 . S
C820 C825 1.391 . S
C821 H793 0.929 . S
C821 C822 1.390 . S
C821 N824 1.391 . S
C822 H794 0.930 . S
C822 C821 1.390 . S
C822 C823 1.392 . S
C823 H795 0.929 . S
C823 C820 1.391 . S
C823 C822 1.392 . S
N824 Co768 2.257 . S
N824 C821 1.391 . S
N824 C825 1.388 . S
C825 H796 0.930 . S
C825 C820 1.391 . S
C825 N824 1.388 . S
Co826 O828 2.143 . S
Co826 O834 2.074 . S
Co826 O837 2.093 . S
Co826 O850 2.097 . S
Co826 N867 2.151 . S
Co826 N875 2.214 . S
Co827 O828 2.160 . S
Co827 O833 2.058 . S
Co827 O843 2.057 . S
Co827 O858 2.037 . S
Co827 N862 2.145 . S
Co827 N883 2.257 . S
O828 Co826 2.143 . S
O828 Co827 2.160 . S
C829 O830 1.278 . S
C829 O837 1.224 . S
O830 C829 1.278 . S
C831 O832 1.245 . S
C831 O843 1.232 . S
O832 C831 1.245 . S
O833 Co827 2.058 . S
O833 C859 1.269 . S
O834 Co826 2.074 . S
O834 C859 1.257 . S
H835 C860 0.930 . S
H836 C866 0.930 . S
O837 Co826 2.093 . S
O837 C829 1.224 . S
H838 C870 0.929 . S
H839 C872 0.930 . S
H840 C873 0.930 . S
H841 C871 0.929 . S
H842 C874 0.928 . S
O843 Co827 2.057 . S
O843 C831 1.232 . S
H844 C863 0.929 . S
H845 C864 0.929 . S
H846 C876 0.931 . S
H847 C868 0.929 . S
H848 C877 0.930 . S
H849 C869 0.931 . S
O850 Co826 2.097 . S
O850 C878 1.214 . S
H851 C879 0.929 . S
H852 C880 0.929 . S
H853 C881 0.930 . S
H854 C882 0.929 . S
H855 C884 0.930 . S
H856 C861 0.930 . S
H857 C865 0.930 . S
O858 Co827 2.037 . S
O858 C878 1.234 . S
C859 O833 1.269 . S
C859 O834 1.257 . S
C860 H835 0.930 . S
C860 C863 1.388 . S
C860 C865 1.418 . S
C861 H856 0.930 . S
C861 C864 1.404 . S
C861 C865 1.353 . S
N862 Co827 2.145 . S
N862 C863 1.397 . S
N862 C864 1.334 . S
C863 H844 0.929 . S
C863 C860 1.388 . S
C863 N862 1.397 . S
C864 H845 0.929 . S
C864 C861 1.404 . S
C864 N862 1.334 . S
C865 H857 0.930 . S
C865 C860 1.418 . S
C865 C861 1.353 . S
C866 H836 0.930 . S
C866 N867 1.330 . S
C866 C868 1.446 . S
N867 Co826 2.151 . S
N867 C866 1.330 . S
N867 C871 1.418 . S
C868 H847 0.929 . S
C868 C866 1.446 . S
C868 C869 1.332 . S
C869 H849 0.931 . S
C869 C868 1.332 . S
C869 C870 1.267 . S
C870 H838 0.929 . S
C870 C869 1.267 . S
C870 C871 1.251 . S
C871 H841 0.929 . S
C871 N867 1.418 . S
C871 C870 1.251 . S
C872 H839 0.930 . S
C872 C874 1.406 . S
C872 C877 1.261 . S
C873 H840 0.930 . S
C873 N875 1.325 . S
C873 C876 1.357 . S
C874 H842 0.928 . S
C874 C872 1.406 . S
C874 N875 1.261 . S
N875 Co826 2.214 . S
N875 C873 1.325 . S
N875 C874 1.261 . S
C876 H846 0.931 . S
C876 C873 1.357 . S
C876 C877 1.312 . S
C877 H848 0.930 . S
C877 C872 1.261 . S
C877 C876 1.312 . S
C878 O850 1.214 . S
C878 O858 1.234 . S
C879 H851 0.929 . S
C879 C882 1.391 . S
C879 C884 1.391 . S
C880 H852 0.929 . S
C880 C881 1.390 . S
C880 N883 1.391 . S
C881 H853 0.930 . S
C881 C880 1.390 . S
C881 C882 1.392 . S
C882 H854 0.929 . S
C882 C879 1.391 . S
C882 C881 1.392 . S
N883 Co827 2.257 . S
N883 C880 1.391 . S
N883 C884 1.388 . S
C884 H855 0.930 . S
C884 C879 1.391 . S
C884 N883 1.388 . S
Co885 O887 2.143 . S
Co885 O893 2.074 . S
Co885 O896 2.093 . S
Co885 O909 2.097 . S
Co885 N926 2.151 . S
Co885 N934 2.214 . S
Co886 O887 2.160 . S
Co886 O892 2.058 . S
Co886 O902 2.057 . S
Co886 O917 2.037 . S
Co886 N921 2.145 . S
Co886 N942 2.257 . S
O887 Co885 2.143 . S
O887 Co886 2.160 . S
C888 O889 1.278 . S
C888 O896 1.224 . S
O889 C888 1.278 . S
C890 O891 1.245 . S
C890 O902 1.232 . S
O891 C890 1.245 . S
O892 Co886 2.058 . S
O892 C918 1.269 . S
O893 Co885 2.074 . S
O893 C918 1.257 . S
H894 C919 0.930 . S
H895 C925 0.930 . S
O896 Co885 2.093 . S
O896 C888 1.224 . S
H897 C929 0.929 . S
H898 C931 0.930 . S
H899 C932 0.930 . S
H900 C930 0.929 . S
H901 C933 0.928 . S
O902 Co886 2.057 . S
O902 C890 1.232 . S
H903 C922 0.929 . S
H904 C923 0.929 . S
H905 C935 0.931 . S
H906 C927 0.929 . S
H907 C936 0.930 . S
H908 C928 0.931 . S
O909 Co885 2.097 . S
O909 C937 1.214 . S
H910 C938 0.929 . S
H911 C939 0.929 . S
H912 C940 0.930 . S
H913 C941 0.929 . S
H914 C943 0.930 . S
H915 C920 0.930 . S
H916 C924 0.930 . S
O917 Co886 2.037 . S
O917 C937 1.234 . S
C918 O892 1.269 . S
C918 O893 1.257 . S
C919 H894 0.930 . S
C919 C922 1.388 . S
C919 C924 1.418 . S
C920 H915 0.930 . S
C920 C923 1.404 . S
C920 C924 1.353 . S
N921 Co886 2.145 . S
N921 C922 1.397 . S
N921 C923 1.334 . S
C922 H903 0.929 . S
C922 C919 1.388 . S
C922 N921 1.397 . S
C923 H904 0.929 . S
C923 C920 1.404 . S
C923 N921 1.334 . S
C924 H916 0.930 . S
C924 C919 1.418 . S
C924 C920 1.353 . S
C925 H895 0.930 . S
C925 N926 1.330 . S
C925 C927 1.446 . S
N926 Co885 2.151 . S
N926 C925 1.330 . S
N926 C930 1.418 . S
C927 H906 0.929 . S
C927 C925 1.446 . S
C927 C928 1.332 . S
C928 H908 0.931 . S
C928 C927 1.332 . S
C928 C929 1.267 . S
C929 H897 0.929 . S
C929 C928 1.267 . S
C929 C930 1.251 . S
C930 H900 0.929 . S
C930 N926 1.418 . S
C930 C929 1.251 . S
C931 H898 0.930 . S
C931 C933 1.406 . S
C931 C936 1.261 . S
C932 H899 0.930 . S
C932 N934 1.325 . S
C932 C935 1.357 . S
C933 H901 0.928 . S
C933 C931 1.406 . S
C933 N934 1.261 . S
N934 Co885 2.214 . S
N934 C932 1.325 . S
N934 C933 1.261 . S
C935 H905 0.931 . S
C935 C932 1.357 . S
C935 C936 1.312 . S
C936 H907 0.930 . S
C936 C931 1.261 . S
C936 C935 1.312 . S
C937 O909 1.214 . S
C937 O917 1.234 . S
C938 H910 0.929 . S
C938 C941 1.391 . S
C938 C943 1.391 . S
C939 H911 0.929 . S
C939 C940 1.390 . S
C939 N942 1.391 . S
C940 H912 0.930 . S
C940 C939 1.390 . S
C940 C941 1.392 . S
C941 H913 0.929 . S
C941 C938 1.391 . S
C941 C940 1.392 . S
N942 Co886 2.257 . S
N942 C939 1.391 . S
N942 C943 1.388 . S
C943 H914 0.930 . S
C943 C938 1.391 . S
C943 N942 1.388 . S
Co944 O946 2.143 . S
Co944 O952 2.074 . S
Co944 O955 2.093 . S
Co944 O968 2.097 . S
Co944 N985 2.151 . S
Co944 N993 2.214 . S
Co945 O946 2.160 . S
Co945 O951 2.058 . S
Co945 O961 2.057 . S
Co945 O976 2.037 . S
Co945 N980 2.145 . S
Co945 N1001 2.257 . S
O946 Co944 2.143 . S
O946 Co945 2.160 . S
C947 O948 1.278 . S
C947 O955 1.224 . S
O948 C947 1.278 . S
C949 O950 1.245 . S
C949 O961 1.232 . S
O950 C949 1.245 . S
O951 Co945 2.058 . S
O951 C977 1.269 . S
O952 Co944 2.074 . S
O952 C977 1.257 . S
H953 C978 0.930 . S
H954 C984 0.930 . S
O955 Co944 2.093 . S
O955 C947 1.224 . S
H956 C988 0.929 . S
H957 C990 0.930 . S
H958 C991 0.930 . S
H959 C989 0.929 . S
H960 C992 0.928 . S
O961 Co945 2.057 . S
O961 C949 1.232 . S
H962 C981 0.929 . S
H963 C982 0.929 . S
H964 C994 0.931 . S
H965 C986 0.929 . S
H966 C995 0.930 . S
H967 C987 0.931 . S
O968 Co944 2.097 . S
O968 C996 1.214 . S
H969 C997 0.929 . S
H970 C998 0.929 . S
H971 C999 0.930 . S
H972 C1000 0.929 . S
H973 C1002 0.930 . S
H974 C979 0.930 . S
H975 C983 0.930 . S
O976 Co945 2.037 . S
O976 C996 1.234 . S
C977 O951 1.269 . S
C977 O952 1.257 . S
C978 H953 0.930 . S
C978 C981 1.388 . S
C978 C983 1.418 . S
C979 H974 0.930 . S
C979 C982 1.404 . S
C979 C983 1.353 . S
N980 Co945 2.145 . S
N980 C981 1.397 . S
N980 C982 1.334 . S
C981 H962 0.929 . S
C981 C978 1.388 . S
C981 N980 1.397 . S
C982 H963 0.929 . S
C982 C979 1.404 . S
C982 N980 1.334 . S
C983 H975 0.930 . S
C983 C978 1.418 . S
C983 C979 1.353 . S
C984 H954 0.930 . S
C984 N985 1.330 . S
C984 C986 1.446 . S
N985 Co944 2.151 . S
N985 C984 1.330 . S
N985 C989 1.418 . S
C986 H965 0.929 . S
C986 C984 1.446 . S
C986 C987 1.332 . S
C987 H967 0.931 . S
C987 C986 1.332 . S
C987 C988 1.267 . S
C988 H956 0.929 . S
C988 C987 1.267 . S
C988 C989 1.251 . S
C989 H959 0.929 . S
C989 N985 1.418 . S
C989 C988 1.251 . S
C990 H957 0.930 . S
C990 C992 1.406 . S
C990 C995 1.261 . S
C991 H958 0.930 . S
C991 N993 1.325 . S
C991 C994 1.357 . S
C992 H960 0.928 . S
C992 C990 1.406 . S
C992 N993 1.261 . S
N993 Co944 2.214 . S
N993 C991 1.325 . S
N993 C992 1.261 . S
C994 H964 0.931 . S
C994 C991 1.357 . S
C994 C995 1.312 . S
C995 H966 0.930 . S
C995 C990 1.261 . S
C995 C994 1.312 . S
C996 O968 1.214 . S
C996 O976 1.234 . S
C997 H969 0.929 . S
C997 C1000 1.391 . S
C997 C1002 1.391 . S
C998 H970 0.929 . S
C998 C999 1.390 . S
C998 N1001 1.391 . S
C999 H971 0.930 . S
C999 C998 1.390 . S
C999 C1000 1.392 . S
C1000 H972 0.929 . S
C1000 C997 1.391 . S
C1000 C999 1.392 . S
N1001 Co945 2.257 . S
N1001 C998 1.391 . S
N1001 C1002 1.388 . S
C1002 H973 0.930 . S
C1002 C997 1.391 . S
C1002 N1001 1.388 . S
Co1003 O1005 2.143 . S
Co1003 O1011 2.074 . S
Co1003 O1014 2.093 . S
Co1003 O1027 2.097 . S
Co1003 N1044 2.151 . S
Co1003 N1052 2.214 . S
Co1004 O1005 2.160 . S
Co1004 O1010 2.058 . S
Co1004 O1020 2.057 . S
Co1004 O1035 2.037 . S
Co1004 N1039 2.145 . S
Co1004 N1060 2.257 . S
O1005 Co1003 2.143 . S
O1005 Co1004 2.160 . S
C1006 O1007 1.278 . S
C1006 O1014 1.224 . S
O1007 C1006 1.278 . S
C1008 O1009 1.245 . S
C1008 O1020 1.232 . S
O1009 C1008 1.245 . S
O1010 Co1004 2.058 . S
O1010 C1036 1.269 . S
O1011 Co1003 2.074 . S
O1011 C1036 1.257 . S
H1012 C1037 0.930 . S
H1013 C1043 0.930 . S
O1014 Co1003 2.093 . S
O1014 C1006 1.224 . S
H1015 C1047 0.929 . S
H1016 C1049 0.930 . S
H1017 C1050 0.930 . S
H1018 C1048 0.929 . S
H1019 C1051 0.928 . S
O1020 Co1004 2.057 . S
O1020 C1008 1.232 . S
H1021 C1040 0.929 . S
H1022 C1041 0.929 . S
H1023 C1053 0.931 . S
H1024 C1045 0.929 . S
H1025 C1054 0.930 . S
H1026 C1046 0.931 . S
O1027 Co1003 2.097 . S
O1027 C1055 1.214 . S
H1028 C1056 0.929 . S
H1029 C1057 0.929 . S
H1030 C1058 0.930 . S
H1031 C1059 0.929 . S
H1032 C1061 0.930 . S
H1033 C1038 0.930 . S
H1034 C1042 0.930 . S
O1035 Co1004 2.037 . S
O1035 C1055 1.234 . S
C1036 O1010 1.269 . S
C1036 O1011 1.257 . S
C1037 H1012 0.930 . S
C1037 C1040 1.388 . S
C1037 C1042 1.418 . S
C1038 H1033 0.930 . S
C1038 C1041 1.404 . S
C1038 C1042 1.353 . S
N1039 Co1004 2.145 . S
N1039 C1040 1.397 . S
N1039 C1041 1.334 . S
C1040 H1021 0.929 . S
C1040 C1037 1.388 . S
C1040 N1039 1.397 . S
C1041 H1022 0.929 . S
C1041 C1038 1.404 . S
C1041 N1039 1.334 . S
C1042 H1034 0.930 . S
C1042 C1037 1.418 . S
C1042 C1038 1.353 . S
C1043 H1013 0.930 . S
C1043 N1044 1.330 . S
C1043 C1045 1.446 . S
N1044 Co1003 2.151 . S
N1044 C1043 1.330 . S
N1044 C1048 1.418 . S
C1045 H1024 0.929 . S
C1045 C1043 1.446 . S
C1045 C1046 1.332 . S
C1046 H1026 0.931 . S
C1046 C1045 1.332 . S
C1046 C1047 1.267 . S
C1047 H1015 0.929 . S
C1047 C1046 1.267 . S
C1047 C1048 1.251 . S
C1048 H1018 0.929 . S
C1048 N1044 1.418 . S
C1048 C1047 1.251 . S
C1049 H1016 0.930 . S
C1049 C1051 1.406 . S
C1049 C1054 1.261 . S
C1050 H1017 0.930 . S
C1050 N1052 1.325 . S
C1050 C1053 1.357 . S
C1051 H1019 0.928 . S
C1051 C1049 1.406 . S
C1051 N1052 1.261 . S
N1052 Co1003 2.214 . S
N1052 C1050 1.325 . S
N1052 C1051 1.261 . S
C1053 H1023 0.931 . S
C1053 C1050 1.357 . S
C1053 C1054 1.312 . S
C1054 H1025 0.930 . S
C1054 C1049 1.261 . S
C1054 C1053 1.312 . S
C1055 O1027 1.214 . S
C1055 O1035 1.234 . S
C1056 H1028 0.929 . S
C1056 C1059 1.391 . S
C1056 C1061 1.391 . S
C1057 H1029 0.929 . S
C1057 C1058 1.390 . S
C1057 N1060 1.391 . S
C1058 H1030 0.930 . S
C1058 C1057 1.390 . S
C1058 C1059 1.392 . S
C1059 H1031 0.929 . S
C1059 C1056 1.391 . S
C1059 C1058 1.392 . S
N1060 Co1004 2.257 . S
N1060 C1057 1.391 . S
N1060 C1061 1.388 . S
C1061 H1032 0.930 . S
C1061 C1056 1.391 . S
C1061 N1060 1.388 . S
Co1062 O1064 2.143 . S
Co1062 O1070 2.074 . S
Co1062 O1073 2.093 . S
Co1062 O1086 2.097 . S
Co1062 N1103 2.151 . S
Co1062 N1111 2.214 . S
Co1063 O1064 2.160 . S
Co1063 O1069 2.058 . S
Co1063 O1079 2.057 . S
Co1063 O1094 2.037 . S
Co1063 N1098 2.145 . S
Co1063 N1119 2.257 . S
O1064 Co1062 2.143 . S
O1064 Co1063 2.160 . S
C1065 O1066 1.278 . S
C1065 O1073 1.224 1_556 S
O1066 C1065 1.278 . S
C1067 O1068 1.245 . S
C1067 O1079 1.232 . S
O1068 C1067 1.245 . S
O1069 Co1063 2.058 . S
O1069 C1095 1.269 . S
O1070 Co1062 2.074 . S
O1070 C1095 1.257 . S
H1071 C1096 0.930 . S
H1072 C1102 0.930 . S
O1073 Co1062 2.093 . S
O1073 C1065 1.224 1_554 S
H1074 C1106 0.929 . S
H1075 C1108 0.930 . S
H1076 C1109 0.930 . S
H1077 C1107 0.929 . S
H1078 C1110 0.928 . S
O1079 Co1063 2.057 . S
O1079 C1067 1.232 . S
H1080 C1099 0.929 . S
H1081 C1100 0.929 . S
H1082 C1112 0.931 . S
H1083 C1104 0.929 . S
H1084 C1113 0.930 . S
H1085 C1105 0.931 . S
O1086 Co1062 2.097 . S
O1086 C1114 1.214 . S
H1087 C1115 0.929 . S
H1088 C1116 0.929 . S
H1089 C1117 0.930 . S
H1090 C1118 0.929 . S
H1091 C1120 0.930 . S
H1092 C1097 0.930 . S
H1093 C1101 0.930 . S
O1094 Co1063 2.037 . S
O1094 C1114 1.234 . S
C1095 O1069 1.269 . S
C1095 O1070 1.257 . S
C1096 H1071 0.930 . S
C1096 C1099 1.388 . S
C1096 C1101 1.418 . S
C1097 H1092 0.930 . S
C1097 C1100 1.404 . S
C1097 C1101 1.353 . S
N1098 Co1063 2.145 . S
N1098 C1099 1.397 . S
N1098 C1100 1.334 . S
C1099 H1080 0.929 . S
C1099 C1096 1.388 . S
C1099 N1098 1.397 . S
C1100 H1081 0.929 . S
C1100 C1097 1.404 . S
C1100 N1098 1.334 . S
C1101 H1093 0.930 . S
C1101 C1096 1.418 . S
C1101 C1097 1.353 . S
C1102 H1072 0.930 . S
C1102 N1103 1.330 . S
C1102 C1104 1.446 . S
N1103 Co1062 2.151 . S
N1103 C1102 1.330 . S
N1103 C1107 1.418 . S
C1104 H1083 0.929 . S
C1104 C1102 1.446 . S
C1104 C1105 1.332 . S
C1105 H1085 0.931 . S
C1105 C1104 1.332 . S
C1105 C1106 1.267 . S
C1106 H1074 0.929 . S
C1106 C1105 1.267 . S
C1106 C1107 1.251 . S
C1107 H1077 0.929 . S
C1107 N1103 1.418 . S
C1107 C1106 1.251 . S
C1108 H1075 0.930 . S
C1108 C1110 1.406 . S
C1108 C1113 1.261 . S
C1109 H1076 0.930 . S
C1109 N1111 1.325 . S
C1109 C1112 1.357 . S
C1110 H1078 0.928 . S
C1110 C1108 1.406 . S
C1110 N1111 1.261 . S
N1111 Co1062 2.214 . S
N1111 C1109 1.325 . S
N1111 C1110 1.261 . S
C1112 H1082 0.931 . S
C1112 C1109 1.357 . S
C1112 C1113 1.312 . S
C1113 H1084 0.930 . S
C1113 C1108 1.261 . S
C1113 C1112 1.312 . S
C1114 O1086 1.214 . S
C1114 O1094 1.234 . S
C1115 H1087 0.929 . S
C1115 C1118 1.391 . S
C1115 C1120 1.391 1_556 S
C1116 H1088 0.929 . S
C1116 C1117 1.390 . S
C1116 N1119 1.391 . S
C1117 H1089 0.930 . S
C1117 C1116 1.390 . S
C1117 C1118 1.392 1_554 S
C1118 H1090 0.929 . S
C1118 C1115 1.391 . S
C1118 C1117 1.392 1_556 S
N1119 Co1063 2.257 . S
N1119 C1116 1.391 . S
N1119 C1120 1.388 . S
C1120 H1091 0.930 . S
C1120 C1115 1.391 1_554 S
C1120 N1119 1.388 . S
Co1121 O1123 2.143 . S
Co1121 O1129 2.074 . S
Co1121 O1132 2.093 . S
Co1121 O1145 2.097 . S
Co1121 N1162 2.151 . S
Co1121 N1170 2.214 . S
Co1122 O1123 2.160 . S
Co1122 O1128 2.058 . S
Co1122 O1138 2.057 . S
Co1122 O1153 2.037 . S
Co1122 N1157 2.145 . S
Co1122 N1178 2.257 . S
O1123 Co1121 2.143 . S
O1123 Co1122 2.160 . S
C1124 O1125 1.278 . S
C1124 O1132 1.224 1_556 S
O1125 C1124 1.278 . S
C1126 O1127 1.245 . S
C1126 O1138 1.232 . S
O1127 C1126 1.245 . S
O1128 Co1122 2.058 . S
O1128 C1154 1.269 . S
O1129 Co1121 2.074 . S
O1129 C1154 1.257 . S
H1130 C1155 0.930 . S
H1131 C1161 0.930 . S
O1132 Co1121 2.093 . S
O1132 C1124 1.224 1_554 S
H1133 C1165 0.929 . S
H1134 C1167 0.930 . S
H1135 C1168 0.930 . S
H1136 C1166 0.929 . S
H1137 C1169 0.928 . S
O1138 Co1122 2.057 . S
O1138 C1126 1.232 . S
H1139 C1158 0.929 . S
H1140 C1159 0.929 . S
H1141 C1171 0.931 . S
H1142 C1163 0.929 . S
H1143 C1172 0.930 . S
H1144 C1164 0.931 . S
O1145 Co1121 2.097 . S
O1145 C1173 1.214 . S
H1146 C1174 0.929 . S
H1147 C1175 0.929 . S
H1148 C1176 0.930 . S
H1149 C1177 0.929 . S
H1150 C1179 0.930 . S
H1151 C1156 0.930 . S
H1152 C1160 0.930 . S
O1153 Co1122 2.037 . S
O1153 C1173 1.234 . S
C1154 O1128 1.269 . S
C1154 O1129 1.257 . S
C1155 H1130 0.930 . S
C1155 C1158 1.388 . S
C1155 C1160 1.418 . S
C1156 H1151 0.930 . S
C1156 C1159 1.404 . S
C1156 C1160 1.353 . S
N1157 Co1122 2.145 . S
N1157 C1158 1.397 . S
N1157 C1159 1.334 . S
C1158 H1139 0.929 . S
C1158 C1155 1.388 . S
C1158 N1157 1.397 . S
C1159 H1140 0.929 . S
C1159 C1156 1.404 . S
C1159 N1157 1.334 . S
C1160 H1152 0.930 . S
C1160 C1155 1.418 . S
C1160 C1156 1.353 . S
C1161 H1131 0.930 . S
C1161 N1162 1.330 . S
C1161 C1163 1.446 . S
N1162 Co1121 2.151 . S
N1162 C1161 1.330 . S
N1162 C1166 1.418 . S
C1163 H1142 0.929 . S
C1163 C1161 1.446 . S
C1163 C1164 1.332 . S
C1164 H1144 0.931 . S
C1164 C1163 1.332 . S
C1164 C1165 1.267 . S
C1165 H1133 0.929 . S
C1165 C1164 1.267 . S
C1165 C1166 1.251 . S
C1166 H1136 0.929 . S
C1166 N1162 1.418 . S
C1166 C1165 1.251 . S
C1167 H1134 0.930 . S
C1167 C1169 1.406 . S
C1167 C1172 1.261 . S
C1168 H1135 0.930 . S
C1168 N1170 1.325 . S
C1168 C1171 1.357 . S
C1169 H1137 0.928 . S
C1169 C1167 1.406 . S
C1169 N1170 1.261 . S
N1170 Co1121 2.214 . S
N1170 C1168 1.325 . S
N1170 C1169 1.261 . S
C1171 H1141 0.931 . S
C1171 C1168 1.357 . S
C1171 C1172 1.312 . S
C1172 H1143 0.930 . S
C1172 C1167 1.261 . S
C1172 C1171 1.312 . S
C1173 O1145 1.214 . S
C1173 O1153 1.234 . S
C1174 H1146 0.929 . S
C1174 C1177 1.391 . S
C1174 C1179 1.391 1_556 S
C1175 H1147 0.929 . S
C1175 C1176 1.390 . S
C1175 N1178 1.391 . S
C1176 H1148 0.930 . S
C1176 C1175 1.390 . S
C1176 C1177 1.392 1_554 S
C1177 H1149 0.929 . S
C1177 C1174 1.391 . S
C1177 C1176 1.392 1_556 S
N1178 Co1122 2.257 . S
N1178 C1175 1.391 . S
N1178 C1179 1.388 . S
C1179 H1150 0.930 . S
C1179 C1174 1.391 1_554 S
C1179 N1178 1.388 . S
Co1180 O1182 2.143 . S
Co1180 O1188 2.074 . S
Co1180 O1191 2.093 . S
Co1180 O1204 2.097 . S
Co1180 N1221 2.151 . S
Co1180 N1229 2.214 . S
Co1181 O1182 2.160 . S
Co1181 O1187 2.058 . S
Co1181 O1197 2.057 . S
Co1181 O1212 2.037 . S
Co1181 N1216 2.145 . S
Co1181 N1237 2.257 . S
O1182 Co1180 2.143 . S
O1182 Co1181 2.160 . S
C1183 O1184 1.278 . S
C1183 O1191 1.224 1_556 S
O1184 C1183 1.278 . S
C1185 O1186 1.245 . S
C1185 O1197 1.232 . S
O1186 C1185 1.245 . S
O1187 Co1181 2.058 . S
O1187 C1213 1.269 . S
O1188 Co1180 2.074 . S
O1188 C1213 1.257 . S
H1189 C1214 0.930 . S
H1190 C1220 0.930 . S
O1191 Co1180 2.093 . S
O1191 C1183 1.224 1_554 S
H1192 C1224 0.929 . S
H1193 C1226 0.930 . S
H1194 C1227 0.930 . S
H1195 C1225 0.929 . S
H1196 C1228 0.928 . S
O1197 Co1181 2.057 . S
O1197 C1185 1.232 . S
H1198 C1217 0.929 . S
H1199 C1218 0.929 . S
H1200 C1230 0.931 . S
H1201 C1222 0.929 . S
H1202 C1231 0.930 . S
H1203 C1223 0.931 . S
O1204 Co1180 2.097 . S
O1204 C1232 1.214 . S
H1205 C1233 0.929 . S
H1206 C1234 0.929 . S
H1207 C1235 0.930 . S
H1208 C1236 0.929 . S
H1209 C1238 0.930 . S
H1210 C1215 0.930 . S
H1211 C1219 0.930 . S
O1212 Co1181 2.037 . S
O1212 C1232 1.234 . S
C1213 O1187 1.269 . S
C1213 O1188 1.257 . S
C1214 H1189 0.930 . S
C1214 C1217 1.388 . S
C1214 C1219 1.418 . S
C1215 H1210 0.930 . S
C1215 C1218 1.404 . S
C1215 C1219 1.353 . S
N1216 Co1181 2.145 . S
N1216 C1217 1.397 . S
N1216 C1218 1.334 . S
C1217 H1198 0.929 . S
C1217 C1214 1.388 . S
C1217 N1216 1.397 . S
C1218 H1199 0.929 . S
C1218 C1215 1.404 . S
C1218 N1216 1.334 . S
C1219 H1211 0.930 . S
C1219 C1214 1.418 . S
C1219 C1215 1.353 . S
C1220 H1190 0.930 . S
C1220 N1221 1.330 . S
C1220 C1222 1.446 . S
N1221 Co1180 2.151 . S
N1221 C1220 1.330 . S
N1221 C1225 1.418 . S
C1222 H1201 0.929 . S
C1222 C1220 1.446 . S
C1222 C1223 1.332 . S
C1223 H1203 0.931 . S
C1223 C1222 1.332 . S
C1223 C1224 1.267 . S
C1224 H1192 0.929 . S
C1224 C1223 1.267 . S
C1224 C1225 1.251 . S
C1225 H1195 0.929 . S
C1225 N1221 1.418 . S
C1225 C1224 1.251 . S
C1226 H1193 0.930 . S
C1226 C1228 1.406 . S
C1226 C1231 1.261 . S
C1227 H1194 0.930 . S
C1227 N1229 1.325 . S
C1227 C1230 1.357 . S
C1228 H1196 0.928 . S
C1228 C1226 1.406 . S
C1228 N1229 1.261 . S
N1229 Co1180 2.214 . S
N1229 C1227 1.325 . S
N1229 C1228 1.261 . S
C1230 H1200 0.931 . S
C1230 C1227 1.357 . S
C1230 C1231 1.312 . S
C1231 H1202 0.930 . S
C1231 C1226 1.261 . S
C1231 C1230 1.312 . S
C1232 O1204 1.214 . S
C1232 O1212 1.234 . S
C1233 H1205 0.929 . S
C1233 C1236 1.391 . S
C1233 C1238 1.391 1_556 S
C1234 H1206 0.929 . S
C1234 C1235 1.390 . S
C1234 N1237 1.391 . S
C1235 H1207 0.930 . S
C1235 C1234 1.390 . S
C1235 C1236 1.392 1_554 S
C1236 H1208 0.929 . S
C1236 C1233 1.391 . S
C1236 C1235 1.392 1_556 S
N1237 Co1181 2.257 . S
N1237 C1234 1.391 . S
N1237 C1238 1.388 . S
C1238 H1209 0.930 . S
C1238 C1233 1.391 1_554 S
C1238 N1237 1.388 . S
Co1239 O1241 2.143 . S
Co1239 O1247 2.074 1_554 S
Co1239 O1250 2.093 . S
Co1239 O1263 2.097 . S
Co1239 N1280 2.151 . S
Co1239 N1288 2.214 . S
Co1240 O1241 2.160 . S
Co1240 O1246 2.058 1_554 S
Co1240 O1256 2.057 . S
Co1240 O1271 2.037 . S
Co1240 N1275 2.145 1_554 S
Co1240 N1296 2.257 . S
O1241 Co1239 2.143 . S
O1241 Co1240 2.160 . S
C1242 O1243 1.278 . S
C1242 O1250 1.224 . S
O1243 C1242 1.278 . S
C1244 O1245 1.245 . S
C1244 O1256 1.232 . S
O1245 C1244 1.245 . S
O1246 Co1240 2.058 1_556 S
O1246 C1272 1.269 . S
O1247 Co1239 2.074 1_556 S
O1247 C1272 1.257 . S
H1248 C1273 0.930 . S
H1249 C1279 0.930 . S
O1250 Co1239 2.093 . S
O1250 C1242 1.224 . S
H1251 C1283 0.929 . S
H1252 C1285 0.930 . S
H1253 C1286 0.930 . S
H1254 C1284 0.929 . S
H1255 C1287 0.928 . S
O1256 Co1240 2.057 . S
O1256 C1244 1.232 . S
H1257 C1276 0.929 . S
H1258 C1277 0.916 1_554 S
H1259 C1289 0.931 1_556 S
H1260 C1281 0.929 . S
H1261 C1290 0.930 . S
H1262 C1282 0.931 . S
O1263 Co1239 2.097 . S
O1263 C1291 1.214 . S
H1264 C1292 0.929 . S
H1265 C1293 0.929 . S
H1266 C1294 0.930 . S
H1267 C1295 0.929 . S
H1268 C1297 0.930 . S
H1269 C1274 0.930 . S
H1270 C1278 0.930 . S
O1271 Co1240 2.037 . S
O1271 C1291 1.234 . S
C1272 O1246 1.269 . S
C1272 O1247 1.257 . S
C1273 H1248 0.930 . S
C1273 C1276 1.388 . S
C1273 C1278 1.418 . S
C1274 H1269 0.930 . S
C1274 C1277 1.404 . S
C1274 C1278 1.353 . S
N1275 Co1240 2.145 1_556 S
N1275 C1276 1.397 . S
N1275 C1277 1.334 . S
C1276 H1257 0.929 . S
C1276 C1273 1.388 . S
C1276 N1275 1.397 . S
C1277 H1258 0.916 1_556 S
C1277 C1274 1.404 . S
C1277 N1275 1.334 . S
C1278 H1270 0.930 . S
C1278 C1273 1.418 . S
C1278 C1274 1.353 . S
C1279 H1249 0.930 . S
C1279 N1280 1.330 . S
C1279 C1281 1.446 . S
N1280 Co1239 2.151 . S
N1280 C1279 1.330 . S
N1280 C1284 1.418 . S
C1281 H1260 0.929 . S
C1281 C1279 1.446 . S
C1281 C1282 1.332 . S
C1282 H1262 0.931 . S
C1282 C1281 1.332 . S
C1282 C1283 1.267 . S
C1283 H1251 0.929 . S
C1283 C1282 1.267 . S
C1283 C1284 1.251 . S
C1284 H1254 0.929 . S
C1284 N1280 1.418 . S
C1284 C1283 1.251 . S
C1285 H1252 0.930 . S
C1285 C1287 1.406 . S
C1285 C1290 1.261 . S
C1286 H1253 0.930 . S
C1286 N1288 1.325 . S
C1286 C1289 1.357 . S
C1287 H1255 0.928 . S
C1287 C1285 1.406 . S
C1287 N1288 1.261 . S
N1288 Co1239 2.214 . S
N1288 C1286 1.325 . S
N1288 C1287 1.261 . S
C1289 H1259 0.931 1_554 S
C1289 C1286 1.357 . S
C1289 C1290 1.312 . S
C1290 H1261 0.930 . S
C1290 C1285 1.261 . S
C1290 C1289 1.312 . S
C1291 O1263 1.214 . S
C1291 O1271 1.234 . S
C1292 H1264 0.929 . S
C1292 C1295 1.391 . S
C1292 C1297 1.391 . S
C1293 H1265 0.929 . S
C1293 C1294 1.390 . S
C1293 N1296 1.391 . S
C1294 H1266 0.930 . S
C1294 C1293 1.390 . S
C1294 C1295 1.392 . S
C1295 H1267 0.929 . S
C1295 C1292 1.391 . S
C1295 C1294 1.392 . S
N1296 Co1240 2.257 . S
N1296 C1293 1.391 . S
N1296 C1297 1.388 . S
C1297 H1268 0.930 . S
C1297 C1292 1.391 . S
C1297 N1296 1.388 . S
Co1298 O1300 2.143 . S
Co1298 O1306 2.074 1_554 S
Co1298 O1309 2.093 . S
Co1298 O1322 2.097 . S
Co1298 N1339 2.151 . S
Co1298 N1347 2.214 . S
Co1299 O1300 2.160 . S
Co1299 O1305 2.058 1_554 S
Co1299 O1315 2.057 . S
Co1299 O1330 2.037 . S
Co1299 N1334 2.145 1_554 S
Co1299 N1355 2.257 . S
O1300 Co1298 2.143 . S
O1300 Co1299 2.160 . S
C1301 O1302 1.278 . S
C1301 O1309 1.224 . S
O1302 C1301 1.278 . S
C1303 O1304 1.245 . S
C1303 O1315 1.232 . S
O1304 C1303 1.245 . S
O1305 Co1299 2.058 1_556 S
O1305 C1331 1.269 . S
O1306 Co1298 2.074 1_556 S
O1306 C1331 1.257 . S
H1307 C1332 0.930 . S
H1308 C1338 0.930 . S
O1309 Co1298 2.093 . S
O1309 C1301 1.224 . S
H1310 C1342 0.929 . S
H1311 C1344 0.930 . S
H1312 C1345 0.930 . S
H1313 C1343 0.929 . S
H1314 C1346 0.928 . S
O1315 Co1299 2.057 . S
O1315 C1303 1.232 . S
H1316 C1335 0.929 . S
H1317 C1336 0.917 1_554 S
H1318 C1348 0.931 1_556 S
H1319 C1340 0.929 . S
H1320 C1349 0.930 . S
H1321 C1341 0.931 . S
O1322 Co1298 2.097 . S
O1322 C1350 1.214 . S
H1323 C1351 0.929 . S
H1324 C1352 0.929 . S
H1325 C1353 0.930 . S
H1326 C1354 0.929 . S
H1327 C1356 0.930 . S
H1328 C1333 0.930 . S
H1329 C1337 0.930 . S
O1330 Co1299 2.037 . S
O1330 C1350 1.234 . S
C1331 O1305 1.269 . S
C1331 O1306 1.257 . S
C1332 H1307 0.930 . S
C1332 C1335 1.388 . S
C1332 C1337 1.418 . S
C1333 H1328 0.930 . S
C1333 C1336 1.404 . S
C1333 C1337 1.353 . S
N1334 Co1299 2.145 1_556 S
N1334 C1335 1.397 . S
N1334 C1336 1.334 . S
C1335 H1316 0.929 . S
C1335 C1332 1.388 . S
C1335 N1334 1.397 . S
C1336 H1317 0.917 1_556 S
C1336 C1333 1.404 . S
C1336 N1334 1.334 . S
C1337 H1329 0.930 . S
C1337 C1332 1.418 . S
C1337 C1333 1.353 . S
C1338 H1308 0.930 . S
C1338 N1339 1.330 . S
C1338 C1340 1.446 . S
N1339 Co1298 2.151 . S
N1339 C1338 1.330 . S
N1339 C1343 1.418 . S
C1340 H1319 0.929 . S
C1340 C1338 1.446 . S
C1340 C1341 1.332 . S
C1341 H1321 0.931 . S
C1341 C1340 1.332 . S
C1341 C1342 1.267 . S
C1342 H1310 0.929 . S
C1342 C1341 1.267 . S
C1342 C1343 1.251 . S
C1343 H1313 0.929 . S
C1343 N1339 1.418 . S
C1343 C1342 1.251 . S
C1344 H1311 0.930 . S
C1344 C1346 1.406 . S
C1344 C1349 1.261 . S
C1345 H1312 0.930 . S
C1345 N1347 1.325 . S
C1345 C1348 1.357 . S
C1346 H1314 0.928 . S
C1346 C1344 1.406 . S
C1346 N1347 1.261 . S
N1347 Co1298 2.214 . S
N1347 C1345 1.325 . S
N1347 C1346 1.261 . S
C1348 H1318 0.931 1_554 S
C1348 C1345 1.357 . S
C1348 C1349 1.312 . S
C1349 H1320 0.930 . S
C1349 C1344 1.261 . S
C1349 C1348 1.312 . S
C1350 O1322 1.214 . S
C1350 O1330 1.234 . S
C1351 H1323 0.929 . S
C1351 C1354 1.391 . S
C1351 C1356 1.391 . S
C1352 H1324 0.929 . S
C1352 C1353 1.390 . S
C1352 N1355 1.391 . S
C1353 H1325 0.930 . S
C1353 C1352 1.390 . S
C1353 C1354 1.392 . S
C1354 H1326 0.929 . S
C1354 C1351 1.391 . S
C1354 C1353 1.392 . S
N1355 Co1299 2.257 . S
N1355 C1352 1.391 . S
N1355 C1356 1.388 . S
C1356 H1327 0.930 . S
C1356 C1351 1.391 . S
C1356 N1355 1.388 . S
Co1357 O1359 2.143 . S
Co1357 O1365 2.074 1_554 S
Co1357 O1368 2.093 . S
Co1357 O1381 2.097 . S
Co1357 N1398 2.151 . S
Co1357 N1406 2.214 . S
Co1358 O1359 2.160 . S
Co1358 O1364 2.058 1_554 S
Co1358 O1374 2.057 . S
Co1358 O1389 2.037 . S
Co1358 N1393 2.145 1_554 S
Co1358 N1414 2.257 . S
O1359 Co1357 2.143 . S
O1359 Co1358 2.160 . S
C1360 O1361 1.278 . S
C1360 O1368 1.224 . S
O1361 C1360 1.278 . S
C1362 O1363 1.245 . S
C1362 O1374 1.232 . S
O1363 C1362 1.245 . S
O1364 Co1358 2.058 1_556 S
O1364 C1390 1.269 . S
O1365 Co1357 2.074 1_556 S
O1365 C1390 1.257 . S
H1366 C1391 0.930 . S
H1367 C1397 0.930 . S
O1368 Co1357 2.093 . S
O1368 C1360 1.224 . S
H1369 C1401 0.929 . S
H1370 C1403 0.930 . S
H1371 C1404 0.930 . S
H1372 C1402 0.929 . S
H1373 C1405 0.928 . S
O1374 Co1358 2.057 . S
O1374 C1362 1.232 . S
H1375 C1394 0.929 . S
H1376 C1395 0.916 1_554 S
H1377 C1407 0.931 1_556 S
H1378 C1399 0.929 . S
H1379 C1408 0.930 . S
H1380 C1400 0.931 . S
O1381 Co1357 2.097 . S
O1381 C1409 1.214 . S
H1382 C1410 0.929 . S
H1383 C1411 0.929 . S
H1384 C1412 0.930 . S
H1385 C1413 0.929 . S
H1386 C1415 0.930 . S
H1387 C1392 0.930 . S
H1388 C1396 0.930 . S
O1389 Co1358 2.037 . S
O1389 C1409 1.234 . S
C1390 O1364 1.269 . S
C1390 O1365 1.257 . S
C1391 H1366 0.930 . S
C1391 C1394 1.388 . S
C1391 C1396 1.418 . S
C1392 H1387 0.930 . S
C1392 C1395 1.404 . S
C1392 C1396 1.353 . S
N1393 Co1358 2.145 1_556 S
N1393 C1394 1.397 . S
N1393 C1395 1.334 . S
C1394 H1375 0.929 . S
C1394 C1391 1.388 . S
C1394 N1393 1.397 . S
C1395 H1376 0.916 1_556 S
C1395 C1392 1.404 . S
C1395 N1393 1.334 . S
C1396 H1388 0.930 . S
C1396 C1391 1.418 . S
C1396 C1392 1.353 . S
C1397 H1367 0.930 . S
C1397 N1398 1.330 . S
C1397 C1399 1.446 . S
N1398 Co1357 2.151 . S
N1398 C1397 1.330 . S
N1398 C1402 1.418 . S
C1399 H1378 0.929 . S
C1399 C1397 1.446 . S
C1399 C1400 1.332 . S
C1400 H1380 0.931 . S
C1400 C1399 1.332 . S
C1400 C1401 1.267 . S
C1401 H1369 0.929 . S
C1401 C1400 1.267 . S
C1401 C1402 1.251 . S
C1402 H1372 0.929 . S
C1402 N1398 1.418 . S
C1402 C1401 1.251 . S
C1403 H1370 0.930 . S
C1403 C1405 1.406 . S
C1403 C1408 1.261 . S
C1404 H1371 0.930 . S
C1404 N1406 1.325 . S
C1404 C1407 1.357 . S
C1405 H1373 0.928 . S
C1405 C1403 1.406 . S
C1405 N1406 1.261 . S
N1406 Co1357 2.214 . S
N1406 C1404 1.325 . S
N1406 C1405 1.261 . S
C1407 H1377 0.931 1_554 S
C1407 C1404 1.357 . S
C1407 C1408 1.312 . S
C1408 H1379 0.930 . S
C1408 C1403 1.261 . S
C1408 C1407 1.312 . S
C1409 O1381 1.214 . S
C1409 O1389 1.234 . S
C1410 H1382 0.929 . S
C1410 C1413 1.391 . S
C1410 C1415 1.391 . S
C1411 H1383 0.929 . S
C1411 C1412 1.390 . S
C1411 N1414 1.391 . S
C1412 H1384 0.930 . S
C1412 C1411 1.390 . S
C1412 C1413 1.392 . S
C1413 H1385 0.929 . S
C1413 C1410 1.391 . S
C1413 C1412 1.392 . S
N1414 Co1358 2.257 . S
N1414 C1411 1.391 . S
N1414 C1415 1.388 . S
C1415 H1386 0.930 . S
C1415 C1410 1.391 . S
C1415 N1414 1.388 . S
Co1416 O1418 2.143 . S
Co1416 O1424 2.074 . S
Co1416 O1427 2.093 . S
Co1416 O1440 2.097 . S
Co1416 N1457 2.151 . S
Co1416 N1465 2.214 . S
Co1417 O1418 2.160 . S
Co1417 O1423 2.058 . S
Co1417 O1433 2.057 . S
Co1417 O1448 2.037 . S
Co1417 N1452 2.145 . S
Co1417 N1473 2.257 . S
O1418 Co1416 2.143 . S
O1418 Co1417 2.160 . S
C1419 O1420 1.278 . S
C1419 O1427 1.224 1_554 S
O1420 C1419 1.278 . S
C1421 O1422 1.245 . S
C1421 O1433 1.232 . S
O1422 C1421 1.245 . S
O1423 Co1417 2.058 . S
O1423 C1449 1.269 . S
O1424 Co1416 2.074 . S
O1424 C1449 1.257 . S
H1425 C1450 0.930 . S
H1426 C1456 0.930 . S
O1427 Co1416 2.093 . S
O1427 C1419 1.224 1_556 S
H1428 C1460 0.929 . S
H1429 C1462 0.930 . S
H1430 C1463 0.930 . S
H1431 C1461 0.929 . S
H1432 C1464 0.928 . S
O1433 Co1417 2.057 . S
O1433 C1421 1.232 . S
H1434 C1453 0.929 . S
H1435 C1454 0.929 . S
H1436 C1466 0.931 . S
H1437 C1458 0.929 . S
H1438 C1467 0.930 . S
H1439 C1459 0.931 . S
O1440 Co1416 2.097 . S
O1440 C1468 1.214 . S
H1441 C1469 0.929 . S
H1442 C1470 0.929 . S
H1443 C1471 0.930 . S
H1444 C1472 0.929 . S
H1445 C1474 0.930 . S
H1446 C1451 0.930 . S
H1447 C1455 0.930 . S
O1448 Co1417 2.037 . S
O1448 C1468 1.234 . S
C1449 O1423 1.269 . S
C1449 O1424 1.257 . S
C1450 H1425 0.930 . S
C1450 C1453 1.388 . S
C1450 C1455 1.418 . S
C1451 H1446 0.930 . S
C1451 C1454 1.404 . S
C1451 C1455 1.353 . S
N1452 Co1417 2.145 . S
N1452 C1453 1.397 . S
N1452 C1454 1.334 . S
C1453 H1434 0.929 . S
C1453 C1450 1.388 . S
C1453 N1452 1.397 . S
C1454 H1435 0.929 . S
C1454 C1451 1.404 . S
C1454 N1452 1.334 . S
C1455 H1447 0.930 . S
C1455 C1450 1.418 . S
C1455 C1451 1.353 . S
C1456 H1426 0.930 . S
C1456 N1457 1.330 . S
C1456 C1458 1.446 . S
N1457 Co1416 2.151 . S
N1457 C1456 1.330 . S
N1457 C1461 1.418 . S
C1458 H1437 0.929 . S
C1458 C1456 1.446 . S
C1458 C1459 1.332 . S
C1459 H1439 0.931 . S
C1459 C1458 1.332 . S
C1459 C1460 1.267 . S
C1460 H1428 0.929 . S
C1460 C1459 1.267 . S
C1460 C1461 1.251 . S
C1461 H1431 0.929 . S
C1461 N1457 1.418 . S
C1461 C1460 1.251 . S
C1462 H1429 0.930 . S
C1462 C1464 1.406 . S
C1462 C1467 1.261 . S
C1463 H1430 0.930 . S
C1463 N1465 1.325 . S
C1463 C1466 1.357 . S
C1464 H1432 0.928 . S
C1464 C1462 1.406 . S
C1464 N1465 1.261 . S
N1465 Co1416 2.214 . S
N1465 C1463 1.325 . S
N1465 C1464 1.261 . S
C1466 H1436 0.931 . S
C1466 C1463 1.357 . S
C1466 C1467 1.312 . S
C1467 H1438 0.930 . S
C1467 C1462 1.261 . S
C1467 C1466 1.312 . S
C1468 O1440 1.214 . S
C1468 O1448 1.234 . S
C1469 H1441 0.929 . S
C1469 C1472 1.391 . S
C1469 C1474 1.391 1_554 S
C1470 H1442 0.929 . S
C1470 C1471 1.390 . S
C1470 N1473 1.391 . S
C1471 H1443 0.930 . S
C1471 C1470 1.390 . S
C1471 C1472 1.392 1_556 S
C1472 H1444 0.929 . S
C1472 C1469 1.391 . S
C1472 C1471 1.392 1_554 S
N1473 Co1417 2.257 . S
N1473 C1470 1.391 . S
N1473 C1474 1.388 . S
C1474 H1445 0.930 . S
C1474 C1469 1.391 1_556 S
C1474 N1473 1.388 . S
Co1475 O1477 2.143 . S
Co1475 O1483 2.074 . S
Co1475 O1486 2.093 . S
Co1475 O1499 2.097 . S
Co1475 N1516 2.151 . S
Co1475 N1524 2.214 . S
Co1476 O1477 2.160 . S
Co1476 O1482 2.058 . S
Co1476 O1492 2.057 . S
Co1476 O1507 2.037 . S
Co1476 N1511 2.145 . S
Co1476 N1532 2.257 . S
O1477 Co1475 2.143 . S
O1477 Co1476 2.160 . S
C1478 O1479 1.278 . S
C1478 O1486 1.224 1_554 S
O1479 C1478 1.278 . S
C1480 O1481 1.245 . S
C1480 O1492 1.232 . S
O1481 C1480 1.245 . S
O1482 Co1476 2.058 . S
O1482 C1508 1.269 . S
O1483 Co1475 2.074 . S
O1483 C1508 1.257 . S
H1484 C1509 0.930 . S
H1485 C1515 0.930 . S
O1486 Co1475 2.093 . S
O1486 C1478 1.224 1_556 S
H1487 C1519 0.929 . S
H1488 C1521 0.930 . S
H1489 C1522 0.930 . S
H1490 C1520 0.929 . S
H1491 C1523 0.928 . S
O1492 Co1476 2.057 . S
O1492 C1480 1.232 . S
H1493 C1512 0.929 . S
H1494 C1513 0.929 . S
H1495 C1525 0.931 . S
H1496 C1517 0.929 . S
H1497 C1526 0.930 . S
H1498 C1518 0.931 . S
O1499 Co1475 2.097 . S
O1499 C1527 1.214 . S
H1500 C1528 0.929 . S
H1501 C1529 0.929 . S
H1502 C1530 0.930 . S
H1503 C1531 0.929 . S
H1504 C1533 0.930 . S
H1505 C1510 0.930 . S
H1506 C1514 0.930 . S
O1507 Co1476 2.037 . S
O1507 C1527 1.234 . S
C1508 O1482 1.269 . S
C1508 O1483 1.257 . S
C1509 H1484 0.930 . S
C1509 C1512 1.388 . S
C1509 C1514 1.418 . S
C1510 H1505 0.930 . S
C1510 C1513 1.404 . S
C1510 C1514 1.353 . S
N1511 Co1476 2.145 . S
N1511 C1512 1.397 . S
N1511 C1513 1.334 . S
C1512 H1493 0.929 . S
C1512 C1509 1.388 . S
C1512 N1511 1.397 . S
C1513 H1494 0.929 . S
C1513 C1510 1.404 . S
C1513 N1511 1.334 . S
C1514 H1506 0.930 . S
C1514 C1509 1.418 . S
C1514 C1510 1.353 . S
C1515 H1485 0.930 . S
C1515 N1516 1.330 . S
C1515 C1517 1.446 . S
N1516 Co1475 2.151 . S
N1516 C1515 1.330 . S
N1516 C1520 1.418 . S
C1517 H1496 0.929 . S
C1517 C1515 1.446 . S
C1517 C1518 1.332 . S
C1518 H1498 0.931 . S
C1518 C1517 1.332 . S
C1518 C1519 1.267 . S
C1519 H1487 0.929 . S
C1519 C1518 1.267 . S
C1519 C1520 1.251 . S
C1520 H1490 0.929 . S
C1520 N1516 1.418 . S
C1520 C1519 1.251 . S
C1521 H1488 0.930 . S
C1521 C1523 1.406 . S
C1521 C1526 1.261 . S
C1522 H1489 0.930 . S
C1522 N1524 1.325 . S
C1522 C1525 1.357 . S
C1523 H1491 0.928 . S
C1523 C1521 1.406 . S
C1523 N1524 1.261 . S
N1524 Co1475 2.214 . S
N1524 C1522 1.325 . S
N1524 C1523 1.261 . S
C1525 H1495 0.931 . S
C1525 C1522 1.357 . S
C1525 C1526 1.312 . S
C1526 H1497 0.930 . S
C1526 C1521 1.261 . S
C1526 C1525 1.312 . S
C1527 O1499 1.214 . S
C1527 O1507 1.234 . S
C1528 H1500 0.929 . S
C1528 C1531 1.391 . S
C1528 C1533 1.391 1_554 S
C1529 H1501 0.929 . S
C1529 C1530 1.390 . S
C1529 N1532 1.391 . S
C1530 H1502 0.930 . S
C1530 C1529 1.390 . S
C1530 C1531 1.392 1_556 S
C1531 H1503 0.929 . S
C1531 C1528 1.391 . S
C1531 C1530 1.392 1_554 S
N1532 Co1476 2.257 . S
N1532 C1529 1.391 . S
N1532 C1533 1.388 . S
C1533 H1504 0.930 . S
C1533 C1528 1.391 1_556 S
C1533 N1532 1.388 . S
Co1534 O1536 2.143 . S
Co1534 O1542 2.074 . S
Co1534 O1545 2.093 . S
Co1534 O1558 2.097 . S
Co1534 N1575 2.151 . S
Co1534 N1583 2.214 . S
Co1535 O1536 2.160 . S
Co1535 O1541 2.058 . S
Co1535 O1551 2.057 . S
Co1535 O1566 2.037 . S
Co1535 N1570 2.145 . S
Co1535 N1591 2.257 . S
O1536 Co1534 2.143 . S
O1536 Co1535 2.160 . S
C1537 O1538 1.278 . S
C1537 O1545 1.224 1_554 S
O1538 C1537 1.278 . S
C1539 O1540 1.245 . S
C1539 O1551 1.232 . S
O1540 C1539 1.245 . S
O1541 Co1535 2.058 . S
O1541 C1567 1.269 . S
O1542 Co1534 2.074 . S
O1542 C1567 1.257 . S
H1543 C1568 0.930 . S
H1544 C1574 0.930 . S
O1545 Co1534 2.093 . S
O1545 C1537 1.224 1_556 S
H1546 C1578 0.929 . S
H1547 C1580 0.930 . S
H1548 C1581 0.930 . S
H1549 C1579 0.929 . S
H1550 C1582 0.928 . S
O1551 Co1535 2.057 . S
O1551 C1539 1.232 . S
H1552 C1571 0.929 . S
H1553 C1572 0.929 . S
H1554 C1584 0.931 . S
H1555 C1576 0.929 . S
H1556 C1585 0.930 . S
H1557 C1577 0.931 . S
O1558 Co1534 2.097 . S
O1558 C1586 1.214 . S
H1559 C1587 0.929 . S
H1560 C1588 0.929 . S
H1561 C1589 0.930 . S
H1562 C1590 0.929 . S
H1563 C1592 0.930 . S
H1564 C1569 0.930 . S
H1565 C1573 0.930 . S
O1566 Co1535 2.037 . S
O1566 C1586 1.234 . S
C1567 O1541 1.269 . S
C1567 O1542 1.257 . S
C1568 H1543 0.930 . S
C1568 C1571 1.388 . S
C1568 C1573 1.418 . S
C1569 H1564 0.930 . S
C1569 C1572 1.404 . S
C1569 C1573 1.353 . S
N1570 Co1535 2.145 . S
N1570 C1571 1.397 . S
N1570 C1572 1.334 . S
C1571 H1552 0.929 . S
C1571 C1568 1.388 . S
C1571 N1570 1.397 . S
C1572 H1553 0.929 . S
C1572 C1569 1.404 . S
C1572 N1570 1.334 . S
C1573 H1565 0.930 . S
C1573 C1568 1.418 . S
C1573 C1569 1.353 . S
C1574 H1544 0.930 . S
C1574 N1575 1.330 . S
C1574 C1576 1.446 . S
N1575 Co1534 2.151 . S
N1575 C1574 1.330 . S
N1575 C1579 1.418 . S
C1576 H1555 0.929 . S
C1576 C1574 1.446 . S
C1576 C1577 1.332 . S
C1577 H1557 0.931 . S
C1577 C1576 1.332 . S
C1577 C1578 1.267 . S
C1578 H1546 0.929 . S
C1578 C1577 1.267 . S
C1578 C1579 1.251 . S
C1579 H1549 0.929 . S
C1579 N1575 1.418 . S
C1579 C1578 1.251 . S
C1580 H1547 0.930 . S
C1580 C1582 1.406 . S
C1580 C1585 1.261 . S
C1581 H1548 0.930 . S
C1581 N1583 1.325 . S
C1581 C1584 1.357 . S
C1582 H1550 0.928 . S
C1582 C1580 1.406 . S
C1582 N1583 1.261 . S
N1583 Co1534 2.214 . S
N1583 C1581 1.325 . S
N1583 C1582 1.261 . S
C1584 H1554 0.931 . S
C1584 C1581 1.357 . S
C1584 C1585 1.312 . S
C1585 H1556 0.930 . S
C1585 C1580 1.261 . S
C1585 C1584 1.312 . S
C1586 O1558 1.214 . S
C1586 O1566 1.234 . S
C1587 H1559 0.929 . S
C1587 C1590 1.391 . S
C1587 C1592 1.391 1_554 S
C1588 H1560 0.929 . S
C1588 C1589 1.390 . S
C1588 N1591 1.391 . S
C1589 H1561 0.930 . S
C1589 C1588 1.390 . S
C1589 C1590 1.392 1_556 S
C1590 H1562 0.929 . S
C1590 C1587 1.391 . S
C1590 C1589 1.392 1_554 S
N1591 Co1535 2.257 . S
N1591 C1588 1.391 . S
N1591 C1592 1.388 . S
C1592 H1563 0.930 . S
C1592 C1587 1.391 1_556 S
C1592 N1591 1.388 . S
Co1593 O1595 2.143 . S
Co1593 O1601 2.074 1_556 S
Co1593 O1604 2.093 . S
Co1593 O1617 2.097 . S
Co1593 N1634 2.151 . S
Co1593 N1642 2.214 . S
Co1594 O1595 2.160 . S
Co1594 O1600 2.058 1_556 S
Co1594 O1610 2.057 . S
Co1594 O1625 2.037 . S
Co1594 N1629 2.145 1_556 S
Co1594 N1650 2.257 . S
O1595 Co1593 2.143 . S
O1595 Co1594 2.160 . S
C1596 O1597 1.278 . S
C1596 O1604 1.224 . S
O1597 C1596 1.278 . S
C1598 O1599 1.245 . S
C1598 O1610 1.232 . S
O1599 C1598 1.245 . S
O1600 Co1594 2.058 1_554 S
O1600 C1626 1.269 . S
O1601 Co1593 2.074 1_554 S
O1601 C1626 1.257 . S
H1602 C1627 0.930 . S
H1603 C1633 0.930 . S
O1604 Co1593 2.093 . S
O1604 C1596 1.224 . S
H1605 C1637 0.929 . S
H1606 C1639 0.930 . S
H1607 C1640 0.930 . S
H1608 C1638 0.929 . S
H1609 C1641 0.928 . S
O1610 Co1594 2.057 . S
O1610 C1598 1.232 . S
H1611 C1630 0.929 . S
H1612 C1631 0.916 1_556 S
H1613 C1643 0.931 1_554 S
H1614 C1635 0.929 . S
H1615 C1644 0.930 . S
H1616 C1636 0.931 . S
O1617 Co1593 2.097 . S
O1617 C1645 1.214 . S
H1618 C1646 0.929 . S
H1619 C1647 0.929 . S
H1620 C1648 0.930 . S
H1621 C1649 0.929 . S
H1622 C1651 0.930 . S
H1623 C1628 0.930 . S
H1624 C1632 0.930 . S
O1625 Co1594 2.037 . S
O1625 C1645 1.234 . S
C1626 O1600 1.269 . S
C1626 O1601 1.257 . S
C1627 H1602 0.930 . S
C1627 C1630 1.388 . S
C1627 C1632 1.418 . S
C1628 H1623 0.930 . S
C1628 C1631 1.404 . S
C1628 C1632 1.353 . S
N1629 Co1594 2.145 1_554 S
N1629 C1630 1.397 . S
N1629 C1631 1.334 . S
C1630 H1611 0.929 . S
C1630 C1627 1.388 . S
C1630 N1629 1.397 . S
C1631 H1612 0.916 1_554 S
C1631 C1628 1.404 . S
C1631 N1629 1.334 . S
C1632 H1624 0.930 . S
C1632 C1627 1.418 . S
C1632 C1628 1.353 . S
C1633 H1603 0.930 . S
C1633 N1634 1.330 . S
C1633 C1635 1.446 . S
N1634 Co1593 2.151 . S
N1634 C1633 1.330 . S
N1634 C1638 1.418 . S
C1635 H1614 0.929 . S
C1635 C1633 1.446 . S
C1635 C1636 1.332 . S
C1636 H1616 0.931 . S
C1636 C1635 1.332 . S
C1636 C1637 1.267 . S
C1637 H1605 0.929 . S
C1637 C1636 1.267 . S
C1637 C1638 1.251 . S
C1638 H1608 0.929 . S
C1638 N1634 1.418 . S
C1638 C1637 1.251 . S
C1639 H1606 0.930 . S
C1639 C1641 1.406 . S
C1639 C1644 1.261 . S
C1640 H1607 0.930 . S
C1640 N1642 1.325 . S
C1640 C1643 1.357 . S
C1641 H1609 0.928 . S
C1641 C1639 1.406 . S
C1641 N1642 1.261 . S
N1642 Co1593 2.214 . S
N1642 C1640 1.325 . S
N1642 C1641 1.261 . S
C1643 H1613 0.931 1_556 S
C1643 C1640 1.357 . S
C1643 C1644 1.312 . S
C1644 H1615 0.930 . S
C1644 C1639 1.261 . S
C1644 C1643 1.312 . S
C1645 O1617 1.214 . S
C1645 O1625 1.234 . S
C1646 H1618 0.929 . S
C1646 C1649 1.391 . S
C1646 C1651 1.391 . S
C1647 H1619 0.929 . S
C1647 C1648 1.390 . S
C1647 N1650 1.391 . S
C1648 H1620 0.930 . S
C1648 C1647 1.390 . S
C1648 C1649 1.392 . S
C1649 H1621 0.929 . S
C1649 C1646 1.391 . S
C1649 C1648 1.392 . S
N1650 Co1594 2.257 . S
N1650 C1647 1.391 . S
N1650 C1651 1.388 . S
C1651 H1622 0.930 . S
C1651 C1646 1.391 . S
C1651 N1650 1.388 . S
Co1652 O1654 2.143 . S
Co1652 O1660 2.074 1_556 S
Co1652 O1663 2.093 . S
Co1652 O1676 2.097 . S
Co1652 N1693 2.151 . S
Co1652 N1701 2.214 . S
Co1653 O1654 2.160 . S
Co1653 O1659 2.058 1_556 S
Co1653 O1669 2.057 . S
Co1653 O1684 2.037 . S
Co1653 N1688 2.145 1_556 S
Co1653 N1709 2.257 . S
O1654 Co1652 2.143 . S
O1654 Co1653 2.160 . S
C1655 O1656 1.278 . S
C1655 O1663 1.224 . S
O1656 C1655 1.278 . S
C1657 O1658 1.245 . S
C1657 O1669 1.232 . S
O1658 C1657 1.245 . S
O1659 Co1653 2.058 1_554 S
O1659 C1685 1.269 . S
O1660 Co1652 2.074 1_554 S
O1660 C1685 1.257 . S
H1661 C1686 0.930 . S
H1662 C1692 0.930 . S
O1663 Co1652 2.093 . S
O1663 C1655 1.224 . S
H1664 C1696 0.929 . S
H1665 C1698 0.930 . S
H1666 C1699 0.930 . S
H1667 C1697 0.929 . S
H1668 C1700 0.928 . S
O1669 Co1653 2.057 . S
O1669 C1657 1.232 . S
H1670 C1689 0.929 . S
H1671 C1690 0.917 1_556 S
H1672 C1702 0.931 1_554 S
H1673 C1694 0.929 . S
H1674 C1703 0.930 . S
H1675 C1695 0.931 . S
O1676 Co1652 2.097 . S
O1676 C1704 1.214 . S
H1677 C1705 0.929 . S
H1678 C1706 0.929 . S
H1679 C1707 0.930 . S
H1680 C1708 0.929 . S
H1681 C1710 0.930 . S
H1682 C1687 0.930 . S
H1683 C1691 0.930 . S
O1684 Co1653 2.037 . S
O1684 C1704 1.234 . S
C1685 O1659 1.269 . S
C1685 O1660 1.257 . S
C1686 H1661 0.930 . S
C1686 C1689 1.388 . S
C1686 C1691 1.418 . S
C1687 H1682 0.930 . S
C1687 C1690 1.404 . S
C1687 C1691 1.353 . S
N1688 Co1653 2.145 1_554 S
N1688 C1689 1.397 . S
N1688 C1690 1.334 . S
C1689 H1670 0.929 . S
C1689 C1686 1.388 . S
C1689 N1688 1.397 . S
C1690 H1671 0.917 1_554 S
C1690 C1687 1.404 . S
C1690 N1688 1.334 . S
C1691 H1683 0.930 . S
C1691 C1686 1.418 . S
C1691 C1687 1.353 . S
C1692 H1662 0.930 . S
C1692 N1693 1.330 . S
C1692 C1694 1.446 . S
N1693 Co1652 2.151 . S
N1693 C1692 1.330 . S
N1693 C1697 1.418 . S
C1694 H1673 0.929 . S
C1694 C1692 1.446 . S
C1694 C1695 1.332 . S
C1695 H1675 0.931 . S
C1695 C1694 1.332 . S
C1695 C1696 1.267 . S
C1696 H1664 0.929 . S
C1696 C1695 1.267 . S
C1696 C1697 1.251 . S
C1697 H1667 0.929 . S
C1697 N1693 1.418 . S
C1697 C1696 1.251 . S
C1698 H1665 0.930 . S
C1698 C1700 1.406 . S
C1698 C1703 1.261 . S
C1699 H1666 0.930 . S
C1699 N1701 1.325 . S
C1699 C1702 1.357 . S
C1700 H1668 0.928 . S
C1700 C1698 1.406 . S
C1700 N1701 1.261 . S
N1701 Co1652 2.214 . S
N1701 C1699 1.325 . S
N1701 C1700 1.261 . S
C1702 H1672 0.931 1_556 S
C1702 C1699 1.357 . S
C1702 C1703 1.312 . S
C1703 H1674 0.930 . S
C1703 C1698 1.261 . S
C1703 C1702 1.312 . S
C1704 O1676 1.214 . S
C1704 O1684 1.234 . S
C1705 H1677 0.929 . S
C1705 C1708 1.391 . S
C1705 C1710 1.391 . S
C1706 H1678 0.929 . S
C1706 C1707 1.390 . S
C1706 N1709 1.391 . S
C1707 H1679 0.930 . S
C1707 C1706 1.390 . S
C1707 C1708 1.392 . S
C1708 H1680 0.929 . S
C1708 C1705 1.391 . S
C1708 C1707 1.392 . S
N1709 Co1653 2.257 . S
N1709 C1706 1.391 . S
N1709 C1710 1.388 . S
C1710 H1681 0.930 . S
C1710 C1705 1.391 . S
C1710 N1709 1.388 . S
Co1711 O1713 2.143 . S
Co1711 O1719 2.074 1_556 S
Co1711 O1722 2.093 . S
Co1711 O1735 2.097 . S
Co1711 N1752 2.151 . S
Co1711 N1760 2.214 . S
Co1712 O1713 2.160 . S
Co1712 O1718 2.058 1_556 S
Co1712 O1728 2.057 . S
Co1712 O1743 2.037 . S
Co1712 N1747 2.145 1_556 S
Co1712 N1768 2.257 . S
O1713 Co1711 2.143 . S
O1713 Co1712 2.160 . S
C1714 O1715 1.278 . S
C1714 O1722 1.224 . S
O1715 C1714 1.278 . S
C1716 O1717 1.245 . S
C1716 O1728 1.232 . S
O1717 C1716 1.245 . S
O1718 Co1712 2.058 1_554 S
O1718 C1744 1.269 . S
O1719 Co1711 2.074 1_554 S
O1719 C1744 1.257 . S
H1720 C1745 0.930 . S
H1721 C1751 0.930 . S
O1722 Co1711 2.093 . S
O1722 C1714 1.224 . S
H1723 C1755 0.929 . S
H1724 C1757 0.930 . S
H1725 C1758 0.930 . S
H1726 C1756 0.929 . S
H1727 C1759 0.928 . S
O1728 Co1712 2.057 . S
O1728 C1716 1.232 . S
H1729 C1748 0.929 . S
H1730 C1749 0.916 1_556 S
H1731 C1761 0.931 1_554 S
H1732 C1753 0.929 . S
H1733 C1762 0.930 . S
H1734 C1754 0.931 . S
O1735 Co1711 2.097 . S
O1735 C1763 1.214 . S
H1736 C1764 0.929 . S
H1737 C1765 0.929 . S
H1738 C1766 0.930 . S
H1739 C1767 0.929 . S
H1740 C1769 0.930 . S
H1741 C1746 0.930 . S
H1742 C1750 0.930 . S
O1743 Co1712 2.037 . S
O1743 C1763 1.234 . S
C1744 O1718 1.269 . S
C1744 O1719 1.257 . S
C1745 H1720 0.930 . S
C1745 C1748 1.388 . S
C1745 C1750 1.418 . S
C1746 H1741 0.930 . S
C1746 C1749 1.404 . S
C1746 C1750 1.353 . S
N1747 Co1712 2.145 1_554 S
N1747 C1748 1.397 . S
N1747 C1749 1.334 . S
C1748 H1729 0.929 . S
C1748 C1745 1.388 . S
C1748 N1747 1.397 . S
C1749 H1730 0.916 1_554 S
C1749 C1746 1.404 . S
C1749 N1747 1.334 . S
C1750 H1742 0.930 . S
C1750 C1745 1.418 . S
C1750 C1746 1.353 . S
C1751 H1721 0.930 . S
C1751 N1752 1.330 . S
C1751 C1753 1.446 . S
N1752 Co1711 2.151 . S
N1752 C1751 1.330 . S
N1752 C1756 1.418 . S
C1753 H1732 0.929 . S
C1753 C1751 1.446 . S
C1753 C1754 1.332 . S
C1754 H1734 0.931 . S
C1754 C1753 1.332 . S
C1754 C1755 1.267 . S
C1755 H1723 0.929 . S
C1755 C1754 1.267 . S
C1755 C1756 1.251 . S
C1756 H1726 0.929 . S
C1756 N1752 1.418 . S
C1756 C1755 1.251 . S
C1757 H1724 0.930 . S
C1757 C1759 1.406 . S
C1757 C1762 1.261 . S
C1758 H1725 0.930 . S
C1758 N1760 1.325 . S
C1758 C1761 1.357 . S
C1759 H1727 0.928 . S
C1759 C1757 1.406 . S
C1759 N1760 1.261 . S
N1760 Co1711 2.214 . S
N1760 C1758 1.325 . S
N1760 C1759 1.261 . S
C1761 H1731 0.931 1_556 S
C1761 C1758 1.357 . S
C1761 C1762 1.312 . S
C1762 H1733 0.930 . S
C1762 C1757 1.261 . S
C1762 C1761 1.312 . S
C1763 O1735 1.214 . S
C1763 O1743 1.234 . S
C1764 H1736 0.929 . S
C1764 C1767 1.391 . S
C1764 C1769 1.391 . S
C1765 H1737 0.929 . S
C1765 C1766 1.390 . S
C1765 N1768 1.391 . S
C1766 H1738 0.930 . S
C1766 C1765 1.390 . S
C1766 C1767 1.392 . S
C1767 H1739 0.929 . S
C1767 C1764 1.391 . S
C1767 C1766 1.392 . S
N1768 Co1712 2.257 . S
N1768 C1765 1.391 . S
N1768 C1769 1.388 . S
C1769 H1740 0.930 . S
C1769 C1764 1.391 . S
C1769 N1768 1.388 . S
Co1770 O1772 2.143 . S
Co1770 O1778 2.074 . S
Co1770 O1781 2.093 . S
Co1770 O1794 2.097 . S
Co1770 N1811 2.151 . S
Co1770 N1819 2.214 . S
Co1771 O1772 2.160 . S
Co1771 O1777 2.058 . S
Co1771 O1787 2.057 . S
Co1771 O1802 2.037 . S
Co1771 N1806 2.145 . S
Co1771 N1827 2.257 . S
O1772 Co1770 2.143 . S
O1772 Co1771 2.160 . S
C1773 O1774 1.278 . S
C1773 O1781 1.224 . S
O1774 C1773 1.278 . S
C1775 O1776 1.245 . S
C1775 O1787 1.232 . S
O1776 C1775 1.245 . S
O1777 Co1771 2.058 . S
O1777 C1803 1.269 . S
O1778 Co1770 2.074 . S
O1778 C1803 1.257 . S
H1779 C1804 0.930 . S
H1780 C1810 0.930 . S
O1781 Co1770 2.093 . S
O1781 C1773 1.224 . S
H1782 C1814 0.929 . S
H1783 C1816 0.930 . S
H1784 C1817 0.930 . S
H1785 C1815 0.929 . S
H1786 C1818 0.928 . S
O1787 Co1771 2.057 . S
O1787 C1775 1.232 . S
H1788 C1807 0.929 . S
H1789 C1808 0.929 . S
H1790 C1820 0.931 . S
H1791 C1812 0.929 . S
H1792 C1821 0.930 . S
H1793 C1813 0.931 . S
O1794 Co1770 2.097 . S
O1794 C1822 1.214 . S
H1795 C1823 0.929 . S
H1796 C1824 0.929 . S
H1797 C1825 0.930 . S
H1798 C1826 0.929 . S
H1799 C1828 0.930 . S
H1800 C1805 0.930 . S
H1801 C1809 0.930 . S
O1802 Co1771 2.037 . S
O1802 C1822 1.234 . S
C1803 O1777 1.269 . S
C1803 O1778 1.257 . S
C1804 H1779 0.930 . S
C1804 C1807 1.388 . S
C1804 C1809 1.418 . S
C1805 H1800 0.930 . S
C1805 C1808 1.404 . S
C1805 C1809 1.353 . S
N1806 Co1771 2.145 . S
N1806 C1807 1.397 . S
N1806 C1808 1.334 . S
C1807 H1788 0.929 . S
C1807 C1804 1.388 . S
C1807 N1806 1.397 . S
C1808 H1789 0.929 . S
C1808 C1805 1.404 . S
C1808 N1806 1.334 . S
C1809 H1801 0.930 . S
C1809 C1804 1.418 . S
C1809 C1805 1.353 . S
C1810 H1780 0.930 . S
C1810 N1811 1.330 . S
C1810 C1812 1.446 . S
N1811 Co1770 2.151 . S
N1811 C1810 1.330 . S
N1811 C1815 1.418 . S
C1812 H1791 0.929 . S
C1812 C1810 1.446 . S
C1812 C1813 1.332 . S
C1813 H1793 0.931 . S
C1813 C1812 1.332 . S
C1813 C1814 1.267 . S
C1814 H1782 0.929 . S
C1814 C1813 1.267 . S
C1814 C1815 1.251 . S
C1815 H1785 0.929 . S
C1815 N1811 1.418 . S
C1815 C1814 1.251 . S
C1816 H1783 0.930 . S
C1816 C1818 1.406 . S
C1816 C1821 1.261 . S
C1817 H1784 0.930 . S
C1817 N1819 1.325 . S
C1817 C1820 1.357 . S
C1818 H1786 0.928 . S
C1818 C1816 1.406 . S
C1818 N1819 1.261 . S
N1819 Co1770 2.214 . S
N1819 C1817 1.325 . S
N1819 C1818 1.261 . S
C1820 H1790 0.931 . S
C1820 C1817 1.357 . S
C1820 C1821 1.312 . S
C1821 H1792 0.930 . S
C1821 C1816 1.261 . S
C1821 C1820 1.312 . S
C1822 O1794 1.214 . S
C1822 O1802 1.234 . S
C1823 H1795 0.929 . S
C1823 C1826 1.391 . S
C1823 C1828 1.391 . S
C1824 H1796 0.929 . S
C1824 C1825 1.390 . S
C1824 N1827 1.391 . S
C1825 H1797 0.930 . S
C1825 C1824 1.390 . S
C1825 C1826 1.392 . S
C1826 H1798 0.929 . S
C1826 C1823 1.391 . S
C1826 C1825 1.392 . S
N1827 Co1771 2.257 . S
N1827 C1824 1.391 . S
N1827 C1828 1.388 . S
C1828 H1799 0.930 . S
C1828 C1823 1.391 . S
C1828 N1827 1.388 . S
Co1829 O1831 2.143 . S
Co1829 O1837 2.074 . S
Co1829 O1840 2.093 . S
Co1829 O1853 2.097 . S
Co1829 N1870 2.151 . S
Co1829 N1878 2.214 . S
Co1830 O1831 2.160 . S
Co1830 O1836 2.058 . S
Co1830 O1846 2.057 . S
Co1830 O1861 2.037 . S
Co1830 N1865 2.145 . S
Co1830 N1886 2.257 . S
O1831 Co1829 2.143 . S
O1831 Co1830 2.160 . S
C1832 O1833 1.278 . S
C1832 O1840 1.224 . S
O1833 C1832 1.278 . S
C1834 O1835 1.245 . S
C1834 O1846 1.232 . S
O1835 C1834 1.245 . S
O1836 Co1830 2.058 . S
O1836 C1862 1.269 . S
O1837 Co1829 2.074 . S
O1837 C1862 1.257 . S
H1838 C1863 0.930 . S
H1839 C1869 0.930 . S
O1840 Co1829 2.093 . S
O1840 C1832 1.224 . S
H1841 C1873 0.929 . S
H1842 C1875 0.930 . S
H1843 C1876 0.930 . S
H1844 C1874 0.929 . S
H1845 C1877 0.928 . S
O1846 Co1830 2.057 . S
O1846 C1834 1.232 . S
H1847 C1866 0.929 . S
H1848 C1867 0.929 . S
H1849 C1879 0.931 . S
H1850 C1871 0.929 . S
H1851 C1880 0.930 . S
H1852 C1872 0.931 . S
O1853 Co1829 2.097 . S
O1853 C1881 1.214 . S
H1854 C1882 0.929 . S
H1855 C1883 0.929 . S
H1856 C1884 0.930 . S
H1857 C1885 0.929 . S
H1858 C1887 0.930 . S
H1859 C1864 0.930 . S
H1860 C1868 0.930 . S
O1861 Co1830 2.037 . S
O1861 C1881 1.234 . S
C1862 O1836 1.269 . S
C1862 O1837 1.257 . S
C1863 H1838 0.930 . S
C1863 C1866 1.388 . S
C1863 C1868 1.418 . S
C1864 H1859 0.930 . S
C1864 C1867 1.404 . S
C1864 C1868 1.353 . S
N1865 Co1830 2.145 . S
N1865 C1866 1.397 . S
N1865 C1867 1.334 . S
C1866 H1847 0.929 . S
C1866 C1863 1.388 . S
C1866 N1865 1.397 . S
C1867 H1848 0.929 . S
C1867 C1864 1.404 . S
C1867 N1865 1.334 . S
C1868 H1860 0.930 . S
C1868 C1863 1.418 . S
C1868 C1864 1.353 . S
C1869 H1839 0.930 . S
C1869 N1870 1.330 . S
C1869 C1871 1.446 . S
N1870 Co1829 2.151 . S
N1870 C1869 1.330 . S
N1870 C1874 1.418 . S
C1871 H1850 0.929 . S
C1871 C1869 1.446 . S
C1871 C1872 1.332 . S
C1872 H1852 0.931 . S
C1872 C1871 1.332 . S
C1872 C1873 1.267 . S
C1873 H1841 0.929 . S
C1873 C1872 1.267 . S
C1873 C1874 1.251 . S
C1874 H1844 0.929 . S
C1874 N1870 1.418 . S
C1874 C1873 1.251 . S
C1875 H1842 0.930 . S
C1875 C1877 1.406 . S
C1875 C1880 1.261 . S
C1876 H1843 0.930 . S
C1876 N1878 1.325 . S
C1876 C1879 1.357 . S
C1877 H1845 0.928 . S
C1877 C1875 1.406 . S
C1877 N1878 1.261 . S
N1878 Co1829 2.214 . S
N1878 C1876 1.325 . S
N1878 C1877 1.261 . S
C1879 H1849 0.931 . S
C1879 C1876 1.357 . S
C1879 C1880 1.312 . S
C1880 H1851 0.930 . S
C1880 C1875 1.261 . S
C1880 C1879 1.312 . S
C1881 O1853 1.214 . S
C1881 O1861 1.234 . S
C1882 H1854 0.929 . S
C1882 C1885 1.391 . S
C1882 C1887 1.391 . S
C1883 H1855 0.929 . S
C1883 C1884 1.390 . S
C1883 N1886 1.391 . S
C1884 H1856 0.930 . S
C1884 C1883 1.390 . S
C1884 C1885 1.392 . S
C1885 H1857 0.929 . S
C1885 C1882 1.391 . S
C1885 C1884 1.392 . S
N1886 Co1830 2.257 . S
N1886 C1883 1.391 . S
N1886 C1887 1.388 . S
C1887 H1858 0.930 . S
C1887 C1882 1.391 . S
C1887 N1886 1.388 . S
Co1888 O1890 2.143 . S
Co1888 O1896 2.074 . S
Co1888 O1899 2.093 . S
Co1888 O1912 2.097 . S
Co1888 N1929 2.151 . S
Co1888 N1937 2.214 . S
Co1889 O1890 2.160 . S
Co1889 O1895 2.058 . S
Co1889 O1905 2.057 . S
Co1889 O1920 2.037 . S
Co1889 N1924 2.145 . S
Co1889 N1945 2.257 . S
O1890 Co1888 2.143 . S
O1890 Co1889 2.160 . S
C1891 O1892 1.278 . S
C1891 O1899 1.224 . S
O1892 C1891 1.278 . S
C1893 O1894 1.245 . S
C1893 O1905 1.232 . S
O1894 C1893 1.245 . S
O1895 Co1889 2.058 . S
O1895 C1921 1.269 . S
O1896 Co1888 2.074 . S
O1896 C1921 1.257 . S
H1897 C1922 0.930 . S
H1898 C1928 0.930 . S
O1899 Co1888 2.093 . S
O1899 C1891 1.224 . S
H1900 C1932 0.929 . S
H1901 C1934 0.930 . S
H1902 C1935 0.930 . S
H1903 C1933 0.929 . S
H1904 C1936 0.928 . S
O1905 Co1889 2.057 . S
O1905 C1893 1.232 . S
H1906 C1925 0.929 . S
H1907 C1926 0.929 . S
H1908 C1938 0.931 . S
H1909 C1930 0.929 . S
H1910 C1939 0.930 . S
H1911 C1931 0.931 . S
O1912 Co1888 2.097 . S
O1912 C1940 1.214 . S
H1913 C1941 0.929 . S
H1914 C1942 0.929 . S
H1915 C1943 0.930 . S
H1916 C1944 0.929 . S
H1917 C1946 0.930 . S
H1918 C1923 0.930 . S
H1919 C1927 0.930 . S
O1920 Co1889 2.037 . S
O1920 C1940 1.234 . S
C1921 O1895 1.269 . S
C1921 O1896 1.257 . S
C1922 H1897 0.930 . S
C1922 C1925 1.388 . S
C1922 C1927 1.418 . S
C1923 H1918 0.930 . S
C1923 C1926 1.404 . S
C1923 C1927 1.353 . S
N1924 Co1889 2.145 . S
N1924 C1925 1.397 . S
N1924 C1926 1.334 . S
C1925 H1906 0.929 . S
C1925 C1922 1.388 . S
C1925 N1924 1.397 . S
C1926 H1907 0.929 . S
C1926 C1923 1.404 . S
C1926 N1924 1.334 . S
C1927 H1919 0.930 . S
C1927 C1922 1.418 . S
C1927 C1923 1.353 . S
C1928 H1898 0.930 . S
C1928 N1929 1.330 . S
C1928 C1930 1.446 . S
N1929 Co1888 2.151 . S
N1929 C1928 1.330 . S
N1929 C1933 1.418 . S
C1930 H1909 0.929 . S
C1930 C1928 1.446 . S
C1930 C1931 1.332 . S
C1931 H1911 0.931 . S
C1931 C1930 1.332 . S
C1931 C1932 1.267 . S
C1932 H1900 0.929 . S
C1932 C1931 1.267 . S
C1932 C1933 1.251 . S
C1933 H1903 0.929 . S
C1933 N1929 1.418 . S
C1933 C1932 1.251 . S
C1934 H1901 0.930 . S
C1934 C1936 1.406 . S
C1934 C1939 1.261 . S
C1935 H1902 0.930 . S
C1935 N1937 1.325 . S
C1935 C1938 1.357 . S
C1936 H1904 0.928 . S
C1936 C1934 1.406 . S
C1936 N1937 1.261 . S
N1937 Co1888 2.214 . S
N1937 C1935 1.325 . S
N1937 C1936 1.261 . S
C1938 H1908 0.931 . S
C1938 C1935 1.357 . S
C1938 C1939 1.312 . S
C1939 H1910 0.930 . S
C1939 C1934 1.261 . S
C1939 C1938 1.312 . S
C1940 O1912 1.214 . S
C1940 O1920 1.234 . S
C1941 H1913 0.929 . S
C1941 C1944 1.391 . S
C1941 C1946 1.391 . S
C1942 H1914 0.929 . S
C1942 C1943 1.390 . S
C1942 N1945 1.391 . S
C1943 H1915 0.930 . S
C1943 C1942 1.390 . S
C1943 C1944 1.392 . S
C1944 H1916 0.929 . S
C1944 C1941 1.391 . S
C1944 C1943 1.392 . S
N1945 Co1889 2.257 . S
N1945 C1942 1.391 . S
N1945 C1946 1.388 . S
C1946 H1917 0.930 . S
C1946 C1941 1.391 . S
C1946 N1945 1.388 . S
Co1947 O1949 2.143 . S
Co1947 O1955 2.074 . S
Co1947 O1958 2.093 . S
Co1947 O1971 2.097 . S
Co1947 N1988 2.151 . S
Co1947 N1996 2.214 . S
Co1948 O1949 2.160 . S
Co1948 O1954 2.058 . S
Co1948 O1964 2.057 . S
Co1948 O1979 2.037 . S
Co1948 N1983 2.145 . S
Co1948 N2004 2.257 . S
O1949 Co1947 2.143 . S
O1949 Co1948 2.160 . S
C1950 O1951 1.278 . S
C1950 O1958 1.224 . S
O1951 C1950 1.278 . S
C1952 O1953 1.245 . S
C1952 O1964 1.232 . S
O1953 C1952 1.245 . S
O1954 Co1948 2.058 . S
O1954 C1980 1.269 . S
O1955 Co1947 2.074 . S
O1955 C1980 1.257 . S
H1956 C1981 0.930 . S
H1957 C1987 0.930 . S
O1958 Co1947 2.093 . S
O1958 C1950 1.224 . S
H1959 C1991 0.929 . S
H1960 C1993 0.930 . S
H1961 C1994 0.930 . S
H1962 C1992 0.929 . S
H1963 C1995 0.928 . S
O1964 Co1948 2.057 . S
O1964 C1952 1.232 . S
H1965 C1984 0.929 . S
H1966 C1985 0.929 . S
H1967 C1997 0.931 . S
H1968 C1989 0.929 . S
H1969 C1998 0.930 . S
H1970 C1990 0.931 . S
O1971 Co1947 2.097 . S
O1971 C1999 1.214 . S
H1972 C2000 0.929 . S
H1973 C2001 0.929 . S
H1974 C2002 0.930 . S
H1975 C2003 0.929 . S
H1976 C2005 0.930 . S
H1977 C1982 0.930 . S
H1978 C1986 0.930 . S
O1979 Co1948 2.037 . S
O1979 C1999 1.234 . S
C1980 O1954 1.269 . S
C1980 O1955 1.257 . S
C1981 H1956 0.930 . S
C1981 C1984 1.388 . S
C1981 C1986 1.418 . S
C1982 H1977 0.930 . S
C1982 C1985 1.404 . S
C1982 C1986 1.353 . S
N1983 Co1948 2.145 . S
N1983 C1984 1.397 . S
N1983 C1985 1.334 . S
C1984 H1965 0.929 . S
C1984 C1981 1.388 . S
C1984 N1983 1.397 . S
C1985 H1966 0.929 . S
C1985 C1982 1.404 . S
C1985 N1983 1.334 . S
C1986 H1978 0.930 . S
C1986 C1981 1.418 . S
C1986 C1982 1.353 . S
C1987 H1957 0.930 . S
C1987 N1988 1.330 . S
C1987 C1989 1.446 . S
N1988 Co1947 2.151 . S
N1988 C1987 1.330 . S
N1988 C1992 1.418 . S
C1989 H1968 0.929 . S
C1989 C1987 1.446 . S
C1989 C1990 1.332 . S
C1990 H1970 0.931 . S
C1990 C1989 1.332 . S
C1990 C1991 1.267 . S
C1991 H1959 0.929 . S
C1991 C1990 1.267 . S
C1991 C1992 1.251 . S
C1992 H1962 0.929 . S
C1992 N1988 1.418 . S
C1992 C1991 1.251 . S
C1993 H1960 0.930 . S
C1993 C1995 1.406 . S
C1993 C1998 1.261 . S
C1994 H1961 0.930 . S
C1994 N1996 1.325 . S
C1994 C1997 1.357 . S
C1995 H1963 0.928 . S
C1995 C1993 1.406 . S
C1995 N1996 1.261 . S
N1996 Co1947 2.214 . S
N1996 C1994 1.325 . S
N1996 C1995 1.261 . S
C1997 H1967 0.931 . S
C1997 C1994 1.357 . S
C1997 C1998 1.312 . S
C1998 H1969 0.930 . S
C1998 C1993 1.261 . S
C1998 C1997 1.312 . S
C1999 O1971 1.214 . S
C1999 O1979 1.234 . S
C2000 H1972 0.929 . S
C2000 C2003 1.391 . S
C2000 C2005 1.391 . S
C2001 H1973 0.929 . S
C2001 C2002 1.390 . S
C2001 N2004 1.391 . S
C2002 H1974 0.930 . S
C2002 C2001 1.390 . S
C2002 C2003 1.392 . S
C2003 H1975 0.929 . S
C2003 C2000 1.391 . S
C2003 C2002 1.392 . S
N2004 Co1948 2.257 . S
N2004 C2001 1.391 . S
N2004 C2005 1.388 . S
C2005 H1976 0.930 . S
C2005 C2000 1.391 . S
C2005 N2004 1.388 . S
Co2006 O2008 2.143 . S
Co2006 O2014 2.074 . S
Co2006 O2017 2.093 . S
Co2006 O2030 2.097 . S
Co2006 N2047 2.151 . S
Co2006 N2055 2.214 . S
Co2007 O2008 2.160 . S
Co2007 O2013 2.058 . S
Co2007 O2023 2.057 . S
Co2007 O2038 2.037 . S
Co2007 N2042 2.145 . S
Co2007 N2063 2.257 . S
O2008 Co2006 2.143 . S
O2008 Co2007 2.160 . S
C2009 O2010 1.278 . S
C2009 O2017 1.224 . S
O2010 C2009 1.278 . S
C2011 O2012 1.245 . S
C2011 O2023 1.232 . S
O2012 C2011 1.245 . S
O2013 Co2007 2.058 . S
O2013 C2039 1.269 . S
O2014 Co2006 2.074 . S
O2014 C2039 1.257 . S
H2015 C2040 0.930 . S
H2016 C2046 0.930 . S
O2017 Co2006 2.093 . S
O2017 C2009 1.224 . S
H2018 C2050 0.929 . S
H2019 C2052 0.930 . S
H2020 C2053 0.930 . S
H2021 C2051 0.929 . S
H2022 C2054 0.928 . S
O2023 Co2007 2.057 . S
O2023 C2011 1.232 . S
H2024 C2043 0.929 . S
H2025 C2044 0.929 . S
H2026 C2056 0.931 . S
H2027 C2048 0.929 . S
H2028 C2057 0.930 . S
H2029 C2049 0.931 . S
O2030 Co2006 2.097 . S
O2030 C2058 1.214 . S
H2031 C2059 0.929 . S
H2032 C2060 0.929 . S
H2033 C2061 0.930 . S
H2034 C2062 0.929 . S
H2035 C2064 0.930 . S
H2036 C2041 0.930 . S
H2037 C2045 0.930 . S
O2038 Co2007 2.037 . S
O2038 C2058 1.234 . S
C2039 O2013 1.269 . S
C2039 O2014 1.257 . S
C2040 H2015 0.930 . S
C2040 C2043 1.388 . S
C2040 C2045 1.418 . S
C2041 H2036 0.930 . S
C2041 C2044 1.404 . S
C2041 C2045 1.353 . S
N2042 Co2007 2.145 . S
N2042 C2043 1.397 . S
N2042 C2044 1.334 . S
C2043 H2024 0.929 . S
C2043 C2040 1.388 . S
C2043 N2042 1.397 . S
C2044 H2025 0.929 . S
C2044 C2041 1.404 . S
C2044 N2042 1.334 . S
C2045 H2037 0.930 . S
C2045 C2040 1.418 . S
C2045 C2041 1.353 . S
C2046 H2016 0.930 . S
C2046 N2047 1.330 . S
C2046 C2048 1.446 . S
N2047 Co2006 2.151 . S
N2047 C2046 1.330 . S
N2047 C2051 1.418 . S
C2048 H2027 0.929 . S
C2048 C2046 1.446 . S
C2048 C2049 1.332 . S
C2049 H2029 0.931 . S
C2049 C2048 1.332 . S
C2049 C2050 1.267 . S
C2050 H2018 0.929 . S
C2050 C2049 1.267 . S
C2050 C2051 1.251 . S
C2051 H2021 0.929 . S
C2051 N2047 1.418 . S
C2051 C2050 1.251 . S
C2052 H2019 0.930 . S
C2052 C2054 1.406 . S
C2052 C2057 1.261 . S
C2053 H2020 0.930 . S
C2053 N2055 1.325 . S
C2053 C2056 1.357 . S
C2054 H2022 0.928 . S
C2054 C2052 1.406 . S
C2054 N2055 1.261 . S
N2055 Co2006 2.214 . S
N2055 C2053 1.325 . S
N2055 C2054 1.261 . S
C2056 H2026 0.931 . S
C2056 C2053 1.357 . S
C2056 C2057 1.312 . S
C2057 H2028 0.930 . S
C2057 C2052 1.261 . S
C2057 C2056 1.312 . S
C2058 O2030 1.214 . S
C2058 O2038 1.234 . S
C2059 H2031 0.929 . S
C2059 C2062 1.391 . S
C2059 C2064 1.391 . S
C2060 H2032 0.929 . S
C2060 C2061 1.390 . S
C2060 N2063 1.391 . S
C2061 H2033 0.930 . S
C2061 C2060 1.390 . S
C2061 C2062 1.392 . S
C2062 H2034 0.929 . S
C2062 C2059 1.391 . S
C2062 C2061 1.392 . S
N2063 Co2007 2.257 . S
N2063 C2060 1.391 . S
N2063 C2064 1.388 . S
C2064 H2035 0.930 . S
C2064 C2059 1.391 . S
C2064 N2063 1.388 . S
Co2065 O2067 2.143 . S
Co2065 O2073 2.074 . S
Co2065 O2076 2.093 . S
Co2065 O2089 2.097 . S
Co2065 N2106 2.151 . S
Co2065 N2114 2.214 . S
Co2066 O2067 2.160 . S
Co2066 O2072 2.058 . S
Co2066 O2082 2.057 . S
Co2066 O2097 2.037 . S
Co2066 N2101 2.145 . S
Co2066 N2122 2.257 . S
O2067 Co2065 2.143 . S
O2067 Co2066 2.160 . S
C2068 O2069 1.278 . S
C2068 O2076 1.224 . S
O2069 C2068 1.278 . S
C2070 O2071 1.245 . S
C2070 O2082 1.232 . S
O2071 C2070 1.245 . S
O2072 Co2066 2.058 . S
O2072 C2098 1.269 . S
O2073 Co2065 2.074 . S
O2073 C2098 1.257 . S
H2074 C2099 0.930 . S
H2075 C2105 0.930 . S
O2076 Co2065 2.093 . S
O2076 C2068 1.224 . S
H2077 C2109 0.929 . S
H2078 C2111 0.930 . S
H2079 C2112 0.930 . S
H2080 C2110 0.929 . S
H2081 C2113 0.928 . S
O2082 Co2066 2.057 . S
O2082 C2070 1.232 . S
H2083 C2102 0.929 . S
H2084 C2103 0.929 . S
H2085 C2115 0.931 . S
H2086 C2107 0.929 . S
H2087 C2116 0.930 . S
H2088 C2108 0.931 . S
O2089 Co2065 2.097 . S
O2089 C2117 1.214 . S
H2090 C2118 0.929 . S
H2091 C2119 0.929 . S
H2092 C2120 0.930 . S
H2093 C2121 0.929 . S
H2094 C2123 0.930 . S
H2095 C2100 0.930 . S
H2096 C2104 0.930 . S
O2097 Co2066 2.037 . S
O2097 C2117 1.234 . S
C2098 O2072 1.269 . S
C2098 O2073 1.257 . S
C2099 H2074 0.930 . S
C2099 C2102 1.388 . S
C2099 C2104 1.418 . S
C2100 H2095 0.930 . S
C2100 C2103 1.404 . S
C2100 C2104 1.353 . S
N2101 Co2066 2.145 . S
N2101 C2102 1.397 . S
N2101 C2103 1.334 . S
C2102 H2083 0.929 . S
C2102 C2099 1.388 . S
C2102 N2101 1.397 . S
C2103 H2084 0.929 . S
C2103 C2100 1.404 . S
C2103 N2101 1.334 . S
C2104 H2096 0.930 . S
C2104 C2099 1.418 . S
C2104 C2100 1.353 . S
C2105 H2075 0.930 . S
C2105 N2106 1.330 . S
C2105 C2107 1.446 . S
N2106 Co2065 2.151 . S
N2106 C2105 1.330 . S
N2106 C2110 1.418 . S
C2107 H2086 0.929 . S
C2107 C2105 1.446 . S
C2107 C2108 1.332 . S
C2108 H2088 0.931 . S
C2108 C2107 1.332 . S
C2108 C2109 1.267 . S
C2109 H2077 0.929 . S
C2109 C2108 1.267 . S
C2109 C2110 1.251 . S
C2110 H2080 0.929 . S
C2110 N2106 1.418 . S
C2110 C2109 1.251 . S
C2111 H2078 0.930 . S
C2111 C2113 1.406 . S
C2111 C2116 1.261 . S
C2112 H2079 0.930 . S
C2112 N2114 1.325 . S
C2112 C2115 1.357 . S
C2113 H2081 0.928 . S
C2113 C2111 1.406 . S
C2113 N2114 1.261 . S
N2114 Co2065 2.214 . S
N2114 C2112 1.325 . S
N2114 C2113 1.261 . S
C2115 H2085 0.931 . S
C2115 C2112 1.357 . S
C2115 C2116 1.312 . S
C2116 H2087 0.930 . S
C2116 C2111 1.261 . S
C2116 C2115 1.312 . S
C2117 O2089 1.214 . S
C2117 O2097 1.234 . S
C2118 H2090 0.929 . S
C2118 C2121 1.391 . S
C2118 C2123 1.391 . S
C2119 H2091 0.929 . S
C2119 C2120 1.390 . S
C2119 N2122 1.391 . S
C2120 H2092 0.930 . S
C2120 C2119 1.390 . S
C2120 C2121 1.392 . S
C2121 H2093 0.929 . S
C2121 C2118 1.391 . S
C2121 C2120 1.392 . S
N2122 Co2066 2.257 . S
N2122 C2119 1.391 . S
N2122 C2123 1.388 . S
C2123 H2094 0.930 . S
C2123 C2118 1.391 . S
C2123 N2122 1.388 . S
H2124 C2130 0.930 . S
H2125 C2133 0.930 . S
H2126 C2134 0.930 . S
H2127 C2135 0.930 . S
H2128 C2138 0.930 . S
H2129 C2139 0.930 1_556 S
C2130 H2124 0.930 . S
C2130 C2131 1.355 . S
C2130 C2132 1.415 . S
C2131 C2130 1.355 . S
C2131 C2133 1.419 . S
C2132 C2130 1.415 . S
C2132 C2137 1.425 1_556 S
C2132 C2139 1.409 1_556 S
C2133 H2125 0.930 . S
C2133 C2131 1.419 . S
C2133 C2134 1.362 . S
C2134 H2126 0.930 . S
C2134 C2133 1.362 . S
C2134 C2137 1.409 1_556 S
C2135 H2127 0.930 . S
C2135 C2136 1.355 . S
C2135 C2137 1.415 . S
C2136 C2135 1.355 . S
C2136 C2138 1.419 . S
C2137 C2132 1.425 1_554 S
C2137 C2134 1.409 1_554 S
C2137 C2135 1.415 . S
C2138 H2128 0.930 . S
C2138 C2136 1.419 . S
C2138 C2139 1.362 . S
C2139 H2129 0.930 1_554 S
C2139 C2132 1.409 1_554 S
C2139 C2138 1.362 . S
H2140 C2146 0.930 . S
H2141 C2149 0.930 . S
H2142 C2150 0.930 . S
H2143 C2151 0.930 . S
H2144 C2154 0.930 . S
H2145 C2155 0.930 1_556 S
C2146 H2140 0.930 . S
C2146 C2147 1.355 . S
C2146 C2148 1.415 . S
C2147 C2146 1.355 . S
C2147 C2149 1.419 . S
C2148 C2146 1.415 . S
C2148 C2153 1.425 1_556 S
C2148 C2155 1.409 1_556 S
C2149 H2141 0.930 . S
C2149 C2147 1.419 . S
C2149 C2150 1.362 . S
C2150 H2142 0.930 . S
C2150 C2149 1.362 . S
C2150 C2153 1.409 1_556 S
C2151 H2143 0.930 . S
C2151 C2152 1.355 . S
C2151 C2153 1.415 . S
C2152 C2151 1.355 . S
C2152 C2154 1.419 . S
C2153 C2148 1.425 1_554 S
C2153 C2150 1.409 1_554 S
C2153 C2151 1.415 . S
C2154 H2144 0.930 . S
C2154 C2152 1.419 . S
C2154 C2155 1.362 . S
C2155 H2145 0.930 1_554 S
C2155 C2148 1.409 1_554 S
C2155 C2154 1.362 . S
H2156 C2162 0.930 . S
H2157 C2165 0.930 . S
H2158 C2166 0.930 . S
H2159 C2167 0.930 . S
H2160 C2170 0.930 . S
H2161 C2171 0.930 . S
C2162 H2156 0.930 . S
C2162 C2163 1.355 . S
C2162 C2164 1.415 1_554 S
C2163 C2162 1.355 . S
C2163 C2165 1.419 . S
C2164 C2162 1.415 1_556 S
C2164 C2169 1.425 . S
C2164 C2171 1.409 . S
C2165 H2157 0.930 . S
C2165 C2163 1.419 . S
C2165 C2166 1.362 . S
C2166 H2158 0.930 . S
C2166 C2165 1.362 . S
C2166 C2169 1.409 1_554 S
C2167 H2159 0.930 . S
C2167 C2168 1.355 . S
C2167 C2169 1.415 . S
C2168 C2167 1.355 . S
C2168 C2170 1.419 . S
C2169 C2164 1.425 . S
C2169 C2166 1.409 1_556 S
C2169 C2167 1.415 . S
C2170 H2160 0.930 . S
C2170 C2168 1.419 . S
C2170 C2171 1.362 . S
C2171 H2161 0.930 . S
C2171 C2164 1.409 . S
C2171 C2170 1.362 . S
H2172 C2178 0.930 . S
H2173 C2181 0.930 . S
H2174 C2182 0.930 . S
H2175 C2183 0.930 . S
H2176 C2186 0.930 . S
H2177 C2187 0.930 . S
C2178 H2172 0.930 . S
C2178 C2179 1.355 . S
C2178 C2180 1.415 . S
C2179 C2178 1.355 . S
C2179 C2181 1.419 . S
C2180 C2178 1.415 . S
C2180 C2185 1.425 . S
C2180 C2187 1.409 . S
C2181 H2173 0.930 . S
C2181 C2179 1.419 . S
C2181 C2182 1.362 . S
C2182 H2174 0.930 . S
C2182 C2181 1.362 . S
C2182 C2185 1.409 . S
C2183 H2175 0.930 . S
C2183 C2184 1.355 . S
C2183 C2185 1.415 . S
C2184 C2183 1.355 . S
C2184 C2186 1.419 . S
C2185 C2180 1.425 . S
C2185 C2182 1.409 . S
C2185 C2183 1.415 . S
C2186 H2176 0.930 . S
C2186 C2184 1.419 . S
C2186 C2187 1.362 . S
C2187 H2177 0.930 . S
C2187 C2180 1.409 . S
C2187 C2186 1.362 . S
H2188 C2194 0.930 . S
H2189 C2197 0.930 . S
H2190 C2198 0.930 . S
H2191 C2199 0.930 . S
H2192 C2202 0.930 . S
H2193 C2203 0.930 . S
C2194 H2188 0.930 . S
C2194 C2195 1.355 . S
C2194 C2196 1.415 . S
C2195 C2194 1.355 . S
C2195 C2197 1.419 . S
C2196 C2194 1.415 . S
C2196 C2201 1.425 . S
C2196 C2203 1.409 . S
C2197 H2189 0.930 . S
C2197 C2195 1.419 . S
C2197 C2198 1.362 . S
C2198 H2190 0.930 . S
C2198 C2197 1.362 . S
C2198 C2201 1.409 . S
C2199 H2191 0.930 . S
C2199 C2200 1.355 . S
C2199 C2201 1.415 . S
C2200 C2199 1.355 . S
C2200 C2202 1.419 . S
C2201 C2196 1.425 . S
C2201 C2198 1.409 . S
C2201 C2199 1.415 . S
C2202 H2192 0.930 . S
C2202 C2200 1.419 . S
C2202 C2203 1.362 . S
C2203 H2193 0.930 . S
C2203 C2196 1.409 . S
C2203 C2202 1.362 . S
H2204 C2210 0.930 . S
H2205 C2213 0.930 . S
H2206 C2214 0.930 . S
H2207 C2215 0.930 . S
H2208 C2218 0.930 . S
H2209 C2219 0.930 . S
C2210 H2204 0.930 . S
C2210 C2211 1.355 . S
C2210 C2212 1.415 . S
C2211 C2210 1.355 . S
C2211 C2213 1.419 . S
C2212 C2210 1.415 . S
C2212 C2217 1.425 . S
C2212 C2219 1.409 . S
C2213 H2205 0.930 . S
C2213 C2211 1.419 . S
C2213 C2214 1.362 . S
C2214 H2206 0.930 . S
C2214 C2213 1.362 . S
C2214 C2217 1.409 . S
C2215 H2207 0.930 . S
C2215 C2216 1.355 . S
C2215 C2217 1.415 . S
C2216 C2215 1.355 . S
C2216 C2218 1.419 . S
C2217 C2212 1.425 . S
C2217 C2214 1.409 . S
C2217 C2215 1.415 . S
C2218 H2208 0.930 . S
C2218 C2216 1.419 . S
C2218 C2219 1.362 . S
C2219 H2209 0.930 . S
C2219 C2212 1.409 . S
C2219 C2218 1.362 . S
H2220 C2226 0.930 . S
H2221 C2229 0.930 . S
H2222 C2230 0.930 . S
H2223 C2231 0.930 . S
H2224 C2234 0.930 . S
H2225 C2235 0.930 . S
C2226 H2220 0.930 . S
C2226 C2227 1.355 . S
C2226 C2228 1.415 . S
C2227 C2226 1.355 . S
C2227 C2229 1.419 . S
C2228 C2226 1.415 . S
C2228 C2233 1.425 . S
C2228 C2235 1.409 1_554 S
C2229 H2221 0.930 . S
C2229 C2227 1.419 . S
C2229 C2230 1.362 . S
C2230 H2222 0.930 . S
C2230 C2229 1.362 . S
C2230 C2233 1.409 . S
C2231 H2223 0.930 . S
C2231 C2232 1.355 . S
C2231 C2233 1.415 1_556 S
C2232 C2231 1.355 . S
C2232 C2234 1.419 . S
C2233 C2228 1.425 . S
C2233 C2230 1.409 . S
C2233 C2231 1.415 1_554 S
C2234 H2224 0.930 . S
C2234 C2232 1.419 . S
C2234 C2235 1.362 . S
C2235 H2225 0.930 . S
C2235 C2228 1.409 1_556 S
C2235 C2234 1.362 . S
H2236 C2242 0.930 . S
H2237 C2245 0.930 . S
H2238 C2246 0.930 . S
H2239 C2247 0.930 . S
H2240 C2250 0.930 . S
H2241 C2251 0.930 1_554 S
C2242 H2236 0.930 . S
C2242 C2243 1.355 . S
C2242 C2244 1.415 . S
C2243 C2242 1.355 . S
C2243 C2245 1.419 . S
C2244 C2242 1.415 . S
C2244 C2249 1.425 1_554 S
C2244 C2251 1.409 1_554 S
C2245 H2237 0.930 . S
C2245 C2243 1.419 . S
C2245 C2246 1.362 . S
C2246 H2238 0.930 . S
C2246 C2245 1.362 . S
C2246 C2249 1.409 1_554 S
C2247 H2239 0.930 . S
C2247 C2248 1.355 . S
C2247 C2249 1.415 . S
C2248 C2247 1.355 . S
C2248 C2250 1.419 . S
C2249 C2244 1.425 1_556 S
C2249 C2246 1.409 1_556 S
C2249 C2247 1.415 . S
C2250 H2240 0.930 . S
C2250 C2248 1.419 . S
C2250 C2251 1.362 . S
C2251 H2241 0.930 1_556 S
C2251 C2244 1.409 1_556 S
C2251 C2250 1.362 . S
H2252 C2258 0.930 . S
H2253 C2261 0.930 . S
H2254 C2262 0.930 1_554 S
H2255 C2263 0.930 . S
H2256 C2266 0.930 . S
H2257 C2267 0.930 . S
C2258 H2252 0.930 . S
C2258 C2259 1.355 . S
C2258 C2260 1.415 . S
C2259 C2258 1.355 . S
C2259 C2261 1.419 . S
C2260 C2258 1.415 . S
C2260 C2265 1.425 1_556 S
C2260 C2267 1.409 1_556 S
C2261 H2253 0.930 . S
C2261 C2259 1.419 . S
C2261 C2262 1.362 . S
C2262 H2254 0.930 1_556 S
C2262 C2261 1.362 . S
C2262 C2265 1.409 1_556 S
C2263 H2255 0.930 . S
C2263 C2264 1.355 . S
C2263 C2265 1.415 . S
C2264 C2263 1.355 . S
C2264 C2266 1.419 . S
C2265 C2260 1.425 1_554 S
C2265 C2262 1.409 1_554 S
C2265 C2263 1.415 . S
C2266 H2256 0.930 . S
C2266 C2264 1.419 . S
C2266 C2267 1.362 . S
C2267 H2257 0.930 . S
C2267 C2260 1.409 1_554 S
C2267 C2266 1.362 . S
H2268 C2274 0.930 . S
H2269 C2277 0.930 . S
H2270 C2278 0.930 . S
H2271 C2279 0.930 . S
H2272 C2282 0.930 . S
H2273 C2283 0.930 . S
C2274 H2268 0.930 . S
C2274 C2275 1.355 . S
C2274 C2276 1.415 . S
C2275 C2274 1.355 . S
C2275 C2277 1.419 . S
C2276 C2274 1.415 . S
C2276 C2281 1.425 . S
C2276 C2283 1.409 . S
C2277 H2269 0.930 . S
C2277 C2275 1.419 . S
C2277 C2278 1.362 . S
C2278 H2270 0.930 . S
C2278 C2277 1.362 . S
C2278 C2281 1.409 . S
C2279 H2271 0.930 . S
C2279 C2280 1.355 . S
C2279 C2281 1.415 . S
C2280 C2279 1.355 . S
C2280 C2282 1.419 . S
C2281 C2276 1.425 . S
C2281 C2278 1.409 . S
C2281 C2279 1.415 . S
C2282 H2272 0.930 . S
C2282 C2280 1.419 . S
C2282 C2283 1.362 . S
C2283 H2273 0.930 . S
C2283 C2276 1.409 . S
C2283 C2282 1.362 . S
H2284 C2290 0.930 . S
H2285 C2293 0.930 . S
H2286 C2294 0.930 . S
H2287 C2295 0.930 . S
H2288 C2298 0.930 . S
H2289 C2299 0.930 . S
C2290 H2284 0.930 . S
C2290 C2291 1.355 . S
C2290 C2292 1.415 . S
C2291 C2290 1.355 . S
C2291 C2293 1.419 . S
C2292 C2290 1.415 . S
C2292 C2297 1.425 . S
C2292 C2299 1.409 . S
C2293 H2285 0.930 . S
C2293 C2291 1.419 . S
C2293 C2294 1.362 . S
C2294 H2286 0.930 . S
C2294 C2293 1.362 . S
C2294 C2297 1.409 . S
C2295 H2287 0.930 . S
C2295 C2296 1.355 . S
C2295 C2297 1.415 . S
C2296 C2295 1.355 . S
C2296 C2298 1.419 . S
C2297 C2292 1.425 . S
C2297 C2294 1.409 . S
C2297 C2295 1.415 . S
C2298 H2288 0.930 . S
C2298 C2296 1.419 . S
C2298 C2299 1.362 . S
C2299 H2289 0.930 . S
C2299 C2292 1.409 . S
C2299 C2298 1.362 . S
H2300 C2306 0.930 . S
H2301 C2309 0.930 . S
H2302 C2310 0.930 . S
H2303 C2311 0.930 . S
H2304 C2314 0.930 . S
H2305 C2315 0.930 . S
C2306 H2300 0.930 . S
C2306 C2307 1.355 . S
C2306 C2308 1.415 . S
C2307 C2306 1.355 . S
C2307 C2309 1.419 . S
C2308 C2306 1.415 . S
C2308 C2313 1.425 . S
C2308 C2315 1.409 . S
C2309 H2301 0.930 . S
C2309 C2307 1.419 . S
C2309 C2310 1.362 . S
C2310 H2302 0.930 . S
C2310 C2309 1.362 . S
C2310 C2313 1.409 . S
C2311 H2303 0.930 . S
C2311 C2312 1.355 . S
C2311 C2313 1.415 . S
C2312 C2311 1.355 . S
C2312 C2314 1.419 . S
C2313 C2308 1.425 . S
C2313 C2310 1.409 . S
C2313 C2311 1.415 . S
C2314 H2304 0.930 . S
C2314 C2312 1.419 . S
C2314 C2315 1.362 . S
C2315 H2305 0.930 . S
C2315 C2308 1.409 . S
C2315 C2314 1.362 . S
H2316 C2322 0.930 . S
H2317 C2325 0.930 . S
H2318 C2326 0.930 . S
H2319 C2327 0.930 . S
H2320 C2330 0.930 . S
H2321 C2331 0.930 . S
C2322 H2316 0.930 . S
C2322 C2323 1.355 . S
C2322 C2324 1.415 . S
C2323 C2322 1.355 . S
C2323 C2325 1.419 . S
C2324 C2322 1.415 . S
C2324 C2329 1.425 . S
C2324 C2331 1.409 . S
C2325 H2317 0.930 . S
C2325 C2323 1.419 . S
C2325 C2326 1.362 . S
C2326 H2318 0.930 . S
C2326 C2325 1.362 . S
C2326 C2329 1.409 . S
C2327 H2319 0.930 . S
C2327 C2328 1.355 . S
C2327 C2329 1.415 . S
C2328 C2327 1.355 . S
C2328 C2330 1.419 . S
C2329 C2324 1.425 . S
C2329 C2326 1.409 . S
C2329 C2327 1.415 . S
C2330 H2320 0.930 . S
C2330 C2328 1.419 . S
C2330 C2331 1.362 . S
C2331 H2321 0.930 . S
C2331 C2324 1.409 . S
C2331 C2330 1.362 . S
H2332 C2338 0.930 . S
H2333 C2341 0.930 . S
H2334 C2342 0.930 . S
H2335 C2343 0.930 . S
H2336 C2346 0.930 . S
H2337 C2347 0.930 . S
C2338 H2332 0.930 . S
C2338 C2339 1.355 . S
C2338 C2340 1.415 . S
C2339 C2338 1.355 . S
C2339 C2341 1.419 . S
C2340 C2338 1.415 . S
C2340 C2345 1.425 . S
C2340 C2347 1.409 . S
C2341 H2333 0.930 . S
C2341 C2339 1.419 . S
C2341 C2342 1.362 . S
C2342 H2334 0.930 . S
C2342 C2341 1.362 . S
C2342 C2345 1.409 . S
C2343 H2335 0.930 . S
C2343 C2344 1.355 . S
C2343 C2345 1.415 . S
C2344 C2343 1.355 . S
C2344 C2346 1.419 . S
C2345 C2340 1.425 . S
C2345 C2342 1.409 . S
C2345 C2343 1.415 . S
C2346 H2336 0.930 . S
C2346 C2344 1.419 . S
C2346 C2347 1.362 . S
C2347 H2337 0.930 . S
C2347 C2340 1.409 . S
C2347 C2346 1.362 . S
H2348 C2354 0.930 . S
H2349 C2357 0.930 . S
H2350 C2358 0.930 . S
H2351 C2359 0.930 . S
H2352 C2362 0.930 . S
H2353 C2363 0.930 . S
C2354 H2348 0.930 . S
C2354 C2355 1.355 . S
C2354 C2356 1.415 . S
C2355 C2354 1.355 . S
C2355 C2357 1.419 . S
C2356 C2354 1.415 . S
C2356 C2361 1.425 . S
C2356 C2363 1.409 . S
C2357 H2349 0.930 . S
C2357 C2355 1.419 . S
C2357 C2358 1.362 . S
C2358 H2350 0.930 . S
C2358 C2357 1.362 . S
C2358 C2361 1.409 . S
C2359 H2351 0.930 . S
C2359 C2360 1.355 . S
C2359 C2361 1.415 . S
C2360 C2359 1.355 . S
C2360 C2362 1.419 . S
C2361 C2356 1.425 . S
C2361 C2358 1.409 . S
C2361 C2359 1.415 . S
C2362 H2352 0.930 . S
C2362 C2360 1.419 . S
C2362 C2363 1.362 . S
C2363 H2353 0.930 . S
C2363 C2356 1.409 . S
C2363 C2362 1.362 . S
H2364 C2370 0.930 . S
H2365 C2373 0.930 . S
H2366 C2374 0.930 . S
H2367 C2375 0.930 . S
H2368 C2378 0.930 . S
H2369 C2379 0.930 . S
C2370 H2364 0.930 . S
C2370 C2371 1.355 . S
C2370 C2372 1.415 . S
C2371 C2370 1.355 . S
C2371 C2373 1.419 . S
C2372 C2370 1.415 . S
C2372 C2377 1.425 . S
C2372 C2379 1.409 . S
C2373 H2365 0.930 . S
C2373 C2371 1.419 . S
C2373 C2374 1.362 . S
C2374 H2366 0.930 . S
C2374 C2373 1.362 . S
C2374 C2377 1.409 . S
C2375 H2367 0.930 . S
C2375 C2376 1.355 . S
C2375 C2377 1.415 . S
C2376 C2375 1.355 . S
C2376 C2378 1.419 . S
C2377 C2372 1.425 . S
C2377 C2374 1.409 . S
C2377 C2375 1.415 . S
C2378 H2368 0.930 . S
C2378 C2376 1.419 . S
C2378 C2379 1.362 . S
C2379 H2369 0.930 . S
C2379 C2372 1.409 . S
C2379 C2378 1.362 . S
H2380 C2386 0.930 . S
H2381 C2389 0.930 . S
H2382 C2390 0.930 . S
H2383 C2391 0.930 . S
H2384 C2394 0.930 . S
H2385 C2395 0.930 . S
C2386 H2380 0.930 . S
C2386 C2387 1.355 . S
C2386 C2388 1.415 . S
C2387 C2386 1.355 . S
C2387 C2389 1.419 . S
C2388 C2386 1.415 . S
C2388 C2393 1.425 . S
C2388 C2395 1.409 . S
C2389 H2381 0.930 . S
C2389 C2387 1.419 . S
C2389 C2390 1.362 . S
C2390 H2382 0.930 . S
C2390 C2389 1.362 . S
C2390 C2393 1.409 . S
C2391 H2383 0.930 . S
C2391 C2392 1.355 . S
C2391 C2393 1.415 . S
C2392 C2391 1.355 . S
C2392 C2394 1.419 . S
C2393 C2388 1.425 . S
C2393 C2390 1.409 . S
C2393 C2391 1.415 . S
C2394 H2384 0.930 . S
C2394 C2392 1.419 . S
C2394 C2395 1.362 . S
C2395 H2385 0.930 . S
C2395 C2388 1.409 . S
C2395 C2394 1.362 . S
H2396 C2402 0.930 . S
H2397 C2405 0.930 . S
H2398 C2406 0.930 . S
H2399 C2407 0.930 . S
H2400 C2410 0.930 . S
H2401 C2411 0.930 . S
C2402 H2396 0.930 . S
C2402 C2403 1.355 . S
C2402 C2404 1.415 . S
C2403 C2402 1.355 . S
C2403 C2405 1.419 . S
C2404 C2402 1.415 . S
C2404 C2409 1.425 . S
C2404 C2411 1.409 . S
C2405 H2397 0.930 . S
C2405 C2403 1.419 . S
C2405 C2406 1.362 . S
C2406 H2398 0.930 . S
C2406 C2405 1.362 . S
C2406 C2409 1.409 . S
C2407 H2399 0.930 . S
C2407 C2408 1.355 . S
C2407 C2409 1.415 . S
C2408 C2407 1.355 . S
C2408 C2410 1.419 . S
C2409 C2404 1.425 . S
C2409 C2406 1.409 . S
C2409 C2407 1.415 . S
C2410 H2400 0.930 . S
C2410 C2408 1.419 . S
C2410 C2411 1.362 . S
C2411 H2401 0.930 . S
C2411 C2404 1.409 . S
C2411 C2410 1.362 . S
H2412 C2418 0.930 . S
H2413 C2421 0.930 . S
H2414 C2422 0.930 . S
H2415 C2423 0.930 . S
H2416 C2426 0.930 . S
H2417 C2427 0.930 . S
C2418 H2412 0.930 . S
C2418 C2419 1.355 . S
C2418 C2420 1.415 . S
C2419 C2418 1.355 . S
C2419 C2421 1.419 . S
C2420 C2418 1.415 . S
C2420 C2425 1.425 . S
C2420 C2427 1.409 . S
C2421 H2413 0.930 . S
C2421 C2419 1.419 . S
C2421 C2422 1.362 . S
C2422 H2414 0.930 . S
C2422 C2421 1.362 . S
C2422 C2425 1.409 . S
C2423 H2415 0.930 . S
C2423 C2424 1.355 . S
C2423 C2425 1.415 . S
C2424 C2423 1.355 . S
C2424 C2426 1.419 . S
C2425 C2420 1.425 . S
C2425 C2422 1.409 . S
C2425 C2423 1.415 . S
C2426 H2416 0.930 . S
C2426 C2424 1.419 . S
C2426 C2427 1.362 . S
C2427 H2417 0.930 . S
C2427 C2420 1.409 . S
C2427 C2426 1.362 . S
H2428 C2434 0.930 . S
H2429 C2437 0.930 . S
H2430 C2438 0.930 . S
H2431 C2439 0.930 . S
H2432 C2442 0.930 . S
H2433 C2443 0.930 . S
C2434 H2428 0.930 . S
C2434 C2435 1.355 . S
C2434 C2436 1.415 . S
C2435 C2434 1.355 . S
C2435 C2437 1.419 . S
C2436 C2434 1.415 . S
C2436 C2441 1.425 . S
C2436 C2443 1.409 . S
C2437 H2429 0.930 . S
C2437 C2435 1.419 . S
C2437 C2438 1.362 . S
C2438 H2430 0.930 . S
C2438 C2437 1.362 . S
C2438 C2441 1.409 . S
C2439 H2431 0.930 . S
C2439 C2440 1.355 . S
C2439 C2441 1.415 . S
C2440 C2439 1.355 . S
C2440 C2442 1.419 . S
C2441 C2436 1.425 . S
C2441 C2438 1.409 . S
C2441 C2439 1.415 . S
C2442 H2432 0.930 . S
C2442 C2440 1.419 . S
C2442 C2443 1.362 . S
C2443 H2433 0.930 . S
C2443 C2436 1.409 . S
C2443 C2442 1.362 . S
H2444 C2450 0.930 . S
H2445 C2453 0.930 . S
H2446 C2454 0.930 . S
H2447 C2455 0.930 . S
H2448 C2458 0.930 . S
H2449 C2459 0.930 . S
C2450 H2444 0.930 . S
C2450 C2451 1.355 . S
C2450 C2452 1.415 . S
C2451 C2450 1.355 . S
C2451 C2453 1.419 . S
C2452 C2450 1.415 . S
C2452 C2457 1.425 . S
C2452 C2459 1.409 . S
C2453 H2445 0.930 . S
C2453 C2451 1.419 . S
C2453 C2454 1.362 . S
C2454 H2446 0.930 . S
C2454 C2453 1.362 . S
C2454 C2457 1.409 . S
C2455 H2447 0.930 . S
C2455 C2456 1.355 . S
C2455 C2457 1.415 . S
C2456 C2455 1.355 . S
C2456 C2458 1.419 . S
C2457 C2452 1.425 . S
C2457 C2454 1.409 . S
C2457 C2455 1.415 . S
C2458 H2448 0.930 . S
C2458 C2456 1.419 . S
C2458 C2459 1.362 . S
C2459 H2449 0.930 . S
C2459 C2452 1.409 . S
C2459 C2458 1.362 . S
H2460 C2466 0.930 . S
H2461 C2469 0.930 . S
H2462 C2470 0.930 . S
H2463 C2471 0.930 . S
H2464 C2474 0.930 . S
H2465 C2475 0.930 . S
C2466 H2460 0.930 . S
C2466 C2467 1.355 . S
C2466 C2468 1.415 . S
C2467 C2466 1.355 . S
C2467 C2469 1.419 . S
C2468 C2466 1.415 . S
C2468 C2473 1.425 . S
C2468 C2475 1.409 . S
C2469 H2461 0.930 . S
C2469 C2467 1.419 . S
C2469 C2470 1.362 . S
C2470 H2462 0.930 . S
C2470 C2469 1.362 . S
C2470 C2473 1.409 . S
C2471 H2463 0.930 . S
C2471 C2472 1.355 . S
C2471 C2473 1.415 . S
C2472 C2471 1.355 . S
C2472 C2474 1.419 . S
C2473 C2468 1.425 . S
C2473 C2470 1.409 . S
C2473 C2471 1.415 . S
C2474 H2464 0.930 . S
C2474 C2472 1.419 . S
C2474 C2475 1.362 . S
C2475 H2465 0.930 . S
C2475 C2468 1.409 . S
C2475 C2474 1.362 . S
H2476 C2482 0.930 . S
H2477 C2485 0.930 . S
H2478 C2486 0.930 . S
H2479 C2487 0.930 . S
H2480 C2490 0.930 . S
H2481 C2491 0.930 . S
C2482 H2476 0.930 . S
C2482 C2483 1.355 . S
C2482 C2484 1.415 . S
C2483 C2482 1.355 . S
C2483 C2485 1.419 . S
C2484 C2482 1.415 . S
C2484 C2489 1.425 . S
C2484 C2491 1.409 . S
C2485 H2477 0.930 . S
C2485 C2483 1.419 . S
C2485 C2486 1.362 . S
C2486 H2478 0.930 . S
C2486 C2485 1.362 . S
C2486 C2489 1.409 . S
C2487 H2479 0.930 . S
C2487 C2488 1.355 . S
C2487 C2489 1.415 . S
C2488 C2487 1.355 . S
C2488 C2490 1.419 . S
C2489 C2484 1.425 . S
C2489 C2486 1.409 . S
C2489 C2487 1.415 . S
C2490 H2480 0.930 . S
C2490 C2488 1.419 . S
C2490 C2491 1.362 . S
C2491 H2481 0.930 . S
C2491 C2484 1.409 . S
C2491 C2490 1.362 . S
H2492 C2498 0.930 . S
H2493 C2501 0.930 . S
H2494 C2502 0.930 . S
H2495 C2503 0.930 . S
H2496 C2506 0.930 . S
H2497 C2507 0.930 . S
C2498 H2492 0.930 . S
C2498 C2499 1.355 . S
C2498 C2500 1.415 . S
C2499 C2498 1.355 . S
C2499 C2501 1.419 . S
C2500 C2498 1.415 . S
C2500 C2505 1.425 . S
C2500 C2507 1.409 . S
C2501 H2493 0.930 . S
C2501 C2499 1.419 . S
C2501 C2502 1.362 . S
C2502 H2494 0.930 . S
C2502 C2501 1.362 . S
C2502 C2505 1.409 . S
C2503 H2495 0.930 . S
C2503 C2504 1.355 . S
C2503 C2505 1.415 . S
C2504 C2503 1.355 . S
C2504 C2506 1.419 . S
C2505 C2500 1.425 . S
C2505 C2502 1.409 . S
C2505 C2503 1.415 . S
C2506 H2496 0.930 . S
C2506 C2504 1.419 . S
C2506 C2507 1.362 . S
C2507 H2497 0.930 . S
C2507 C2500 1.409 . S
C2507 C2506 1.362 . S
H2508 C2514 0.930 . S
H2509 C2517 0.930 . S
H2510 C2518 0.930 . S
H2511 C2519 0.930 . S
H2512 C2522 0.930 . S
H2513 C2523 0.930 . S
C2514 H2508 0.930 . S
C2514 C2515 1.355 . S
C2514 C2516 1.415 . S
C2515 C2514 1.355 . S
C2515 C2517 1.419 . S
C2516 C2514 1.415 . S
C2516 C2521 1.425 . S
C2516 C2523 1.409 . S
C2517 H2509 0.930 . S
C2517 C2515 1.419 . S
C2517 C2518 1.362 . S
C2518 H2510 0.930 . S
C2518 C2517 1.362 . S
C2518 C2521 1.409 . S
C2519 H2511 0.930 . S
C2519 C2520 1.355 . S
C2519 C2521 1.415 . S
C2520 C2519 1.355 . S
C2520 C2522 1.419 . S
C2521 C2516 1.425 . S
C2521 C2518 1.409 . S
C2521 C2519 1.415 . S
C2522 H2512 0.930 . S
C2522 C2520 1.419 . S
C2522 C2523 1.362 . S
C2523 H2513 0.930 . S
C2523 C2516 1.409 . S
C2523 C2522 1.362 . S
H2524 C2530 0.930 . S
H2525 C2533 0.930 . S
H2526 C2534 0.930 . S
H2527 C2535 0.930 . S
H2528 C2538 0.930 . S
H2529 C2539 0.930 . S
C2530 H2524 0.930 . S
C2530 C2531 1.355 . S
C2530 C2532 1.415 . S
C2531 C2530 1.355 . S
C2531 C2533 1.419 . S
C2532 C2530 1.415 . S
C2532 C2537 1.425 . S
C2532 C2539 1.409 . S
C2533 H2525 0.930 . S
C2533 C2531 1.419 . S
C2533 C2534 1.362 . S
C2534 H2526 0.930 . S
C2534 C2533 1.362 . S
C2534 C2537 1.409 . S
C2535 H2527 0.930 . S
C2535 C2536 1.355 . S
C2535 C2537 1.415 . S
C2536 C2535 1.355 . S
C2536 C2538 1.419 . S
C2537 C2532 1.425 . S
C2537 C2534 1.409 . S
C2537 C2535 1.415 . S
C2538 H2528 0.930 . S
C2538 C2536 1.419 . S
C2538 C2539 1.362 . S
C2539 H2529 0.930 . S
C2539 C2532 1.409 . S
C2539 C2538 1.362 . S
H2540 C2546 0.930 . S
H2541 C2549 0.930 . S
H2542 C2550 0.930 . S
H2543 C2551 0.930 . S
H2544 C2554 0.930 . S
H2545 C2555 0.930 . S
C2546 H2540 0.930 . S
C2546 C2547 1.355 . S
C2546 C2548 1.415 . S
C2547 C2546 1.355 . S
C2547 C2549 1.419 . S
C2548 C2546 1.415 . S
C2548 C2553 1.425 . S
C2548 C2555 1.409 . S
C2549 H2541 0.930 . S
C2549 C2547 1.419 . S
C2549 C2550 1.362 . S
C2550 H2542 0.930 . S
C2550 C2549 1.362 . S
C2550 C2553 1.409 . S
C2551 H2543 0.930 . S
C2551 C2552 1.355 . S
C2551 C2553 1.415 . S
C2552 C2551 1.355 . S
C2552 C2554 1.419 . S
C2553 C2548 1.425 . S
C2553 C2550 1.409 . S
C2553 C2551 1.415 . S
C2554 H2544 0.930 . S
C2554 C2552 1.419 . S
C2554 C2555 1.362 . S
C2555 H2545 0.930 . S
C2555 C2548 1.409 . S
C2555 C2554 1.362 . S
H2556 C2562 0.930 . S
H2557 C2565 0.930 . S
H2558 C2566 0.930 . S
H2559 C2567 0.930 . S
H2560 C2570 0.930 . S
H2561 C2571 0.930 . S
C2562 H2556 0.930 . S
C2562 C2563 1.355 . S
C2562 C2564 1.415 . S
C2563 C2562 1.355 . S
C2563 C2565 1.419 . S
C2564 C2562 1.415 . S
C2564 C2569 1.425 . S
C2564 C2571 1.409 . S
C2565 H2557 0.930 . S
C2565 C2563 1.419 . S
C2565 C2566 1.362 . S
C2566 H2558 0.930 . S
C2566 C2565 1.362 . S
C2566 C2569 1.409 . S
C2567 H2559 0.930 . S
C2567 C2568 1.355 . S
C2567 C2569 1.415 . S
C2568 C2567 1.355 . S
C2568 C2570 1.419 . S
C2569 C2564 1.425 . S
C2569 C2566 1.409 . S
C2569 C2567 1.415 . S
C2570 H2560 0.930 . S
C2570 C2568 1.419 . S
C2570 C2571 1.362 . S
C2571 H2561 0.930 . S
C2571 C2564 1.409 . S
C2571 C2570 1.362 . S
H2572 C2578 0.930 . S
H2573 C2581 0.930 . S
H2574 C2582 0.930 . S
H2575 C2583 0.930 . S
H2576 C2586 0.930 . S
H2577 C2587 0.930 . S
C2578 H2572 0.930 . S
C2578 C2579 1.355 . S
C2578 C2580 1.415 . S
C2579 C2578 1.355 . S
C2579 C2581 1.419 . S
C2580 C2578 1.415 . S
C2580 C2585 1.425 . S
C2580 C2587 1.409 . S
C2581 H2573 0.930 . S
C2581 C2579 1.419 . S
C2581 C2582 1.362 . S
C2582 H2574 0.930 . S
C2582 C2581 1.362 . S
C2582 C2585 1.409 . S
C2583 H2575 0.930 . S
C2583 C2584 1.355 . S
C2583 C2585 1.415 . S
C2584 C2583 1.355 . S
C2584 C2586 1.419 . S
C2585 C2580 1.425 . S
C2585 C2582 1.409 . S
C2585 C2583 1.415 . S
C2586 H2576 0.930 . S
C2586 C2584 1.419 . S
C2586 C2587 1.362 . S
C2587 H2577 0.930 . S
C2587 C2580 1.409 . S
C2587 C2586 1.362 . S
H2588 C2594 0.930 . S
H2589 C2597 0.930 . S
H2590 C2598 0.930 . S
H2591 C2599 0.930 . S
H2592 C2602 0.930 . S
H2593 C2603 0.930 . S
C2594 H2588 0.930 . S
C2594 C2595 1.355 . S
C2594 C2596 1.415 . S
C2595 C2594 1.355 . S
C2595 C2597 1.419 . S
C2596 C2594 1.415 . S
C2596 C2601 1.425 . S
C2596 C2603 1.409 . S
C2597 H2589 0.930 . S
C2597 C2595 1.419 . S
C2597 C2598 1.362 . S
C2598 H2590 0.930 . S
C2598 C2597 1.362 . S
C2598 C2601 1.409 . S
C2599 H2591 0.930 . S
C2599 C2600 1.355 . S
C2599 C2601 1.415 . S
C2600 C2599 1.355 . S
C2600 C2602 1.419 . S
C2601 C2596 1.425 . S
C2601 C2598 1.409 . S
C2601 C2599 1.415 . S
C2602 H2592 0.930 . S
C2602 C2600 1.419 . S
C2602 C2603 1.362 . S
C2603 H2593 0.930 . S
C2603 C2596 1.409 . S
C2603 C2602 1.362 . S
H2604 C2610 0.930 . S
H2605 C2613 0.930 . S
H2606 C2614 0.930 . S
H2607 C2615 0.930 . S
H2608 C2618 0.930 . S
H2609 C2619 0.930 . S
C2610 H2604 0.930 . S
C2610 C2611 1.355 . S
C2610 C2612 1.415 . S
C2611 C2610 1.355 . S
C2611 C2613 1.419 . S
C2612 C2610 1.415 . S
C2612 C2617 1.425 . S
C2612 C2619 1.409 . S
C2613 H2605 0.930 . S
C2613 C2611 1.419 . S
C2613 C2614 1.362 . S
C2614 H2606 0.930 . S
C2614 C2613 1.362 . S
C2614 C2617 1.409 . S
C2615 H2607 0.930 . S
C2615 C2616 1.355 . S
C2615 C2617 1.415 . S
C2616 C2615 1.355 . S
C2616 C2618 1.419 . S
C2617 C2612 1.425 . S
C2617 C2614 1.409 . S
C2617 C2615 1.415 . S
C2618 H2608 0.930 . S
C2618 C2616 1.419 . S
C2618 C2619 1.362 . S
C2619 H2609 0.930 . S
C2619 C2612 1.409 . S
C2619 C2618 1.362 . S
H2620 C2626 0.930 . S
H2621 C2629 0.930 . S
H2622 C2630 0.930 . S
H2623 C2631 0.930 . S
H2624 C2634 0.930 . S
H2625 C2635 0.930 . S
C2626 H2620 0.930 . S
C2626 C2627 1.355 . S
C2626 C2628 1.415 . S
C2627 C2626 1.355 . S
C2627 C2629 1.419 . S
C2628 C2626 1.415 . S
C2628 C2633 1.425 . S
C2628 C2635 1.409 . S
C2629 H2621 0.930 . S
C2629 C2627 1.419 . S
C2629 C2630 1.362 . S
C2630 H2622 0.930 . S
C2630 C2629 1.362 . S
C2630 C2633 1.409 . S
C2631 H2623 0.930 . S
C2631 C2632 1.355 . S
C2631 C2633 1.415 . S
C2632 C2631 1.355 . S
C2632 C2634 1.419 . S
C2633 C2628 1.425 . S
C2633 C2630 1.409 . S
C2633 C2631 1.415 . S
C2634 H2624 0.930 . S
C2634 C2632 1.419 . S
C2634 C2635 1.362 . S
C2635 H2625 0.930 . S
C2635 C2628 1.409 . S
C2635 C2634 1.362 . S
H2636 C2642 0.930 . S
H2637 C2645 0.930 . S
H2638 C2646 0.930 . S
H2639 C2647 0.930 . S
H2640 C2650 0.930 . S
H2641 C2651 0.930 . S
C2642 H2636 0.930 . S
C2642 C2643 1.355 . S
C2642 C2644 1.415 . S
C2643 C2642 1.355 . S
C2643 C2645 1.419 . S
C2644 C2642 1.415 . S
C2644 C2649 1.425 . S
C2644 C2651 1.409 . S
C2645 H2637 0.930 . S
C2645 C2643 1.419 . S
C2645 C2646 1.362 . S
C2646 H2638 0.930 . S
C2646 C2645 1.362 . S
C2646 C2649 1.409 . S
C2647 H2639 0.930 . S
C2647 C2648 1.355 . S
C2647 C2649 1.415 . S
C2648 C2647 1.355 . S
C2648 C2650 1.419 . S
C2649 C2644 1.425 . S
C2649 C2646 1.409 . S
C2649 C2647 1.415 . S
C2650 H2640 0.930 . S
C2650 C2648 1.419 . S
C2650 C2651 1.362 . S
C2651 H2641 0.930 . S
C2651 C2644 1.409 . S
C2651 C2650 1.362 . S
H2652 C2658 0.930 . S
H2653 C2661 0.930 . S
H2654 C2662 0.930 . S
H2655 C2663 0.930 . S
H2656 C2666 0.930 . S
H2657 C2667 0.930 . S
C2658 H2652 0.930 . S
C2658 C2659 1.355 . S
C2658 C2660 1.415 . S
C2659 C2658 1.355 . S
C2659 C2661 1.419 . S
C2660 C2658 1.415 . S
C2660 C2665 1.425 . S
C2660 C2667 1.409 . S
C2661 H2653 0.930 . S
C2661 C2659 1.419 . S
C2661 C2662 1.362 . S
C2662 H2654 0.930 . S
C2662 C2661 1.362 . S
C2662 C2665 1.409 . S
C2663 H2655 0.930 . S
C2663 C2664 1.355 . S
C2663 C2665 1.415 . S
C2664 C2663 1.355 . S
C2664 C2666 1.419 . S
C2665 C2660 1.425 . S
C2665 C2662 1.409 . S
C2665 C2663 1.415 . S
C2666 H2656 0.930 . S
C2666 C2664 1.419 . S
C2666 C2667 1.362 . S
C2667 H2657 0.930 . S
C2667 C2660 1.409 . S
C2667 C2666 1.362 . S
H2668 C2674 0.930 . S
H2669 C2677 0.930 . S
H2670 C2678 0.930 . S
H2671 C2679 0.930 . S
H2672 C2682 0.930 . S
H2673 C2683 0.930 . S
C2674 H2668 0.930 . S
C2674 C2675 1.355 . S
C2674 C2676 1.415 . S
C2675 C2674 1.355 . S
C2675 C2677 1.419 . S
C2676 C2674 1.415 . S
C2676 C2681 1.425 . S
C2676 C2683 1.409 . S
C2677 H2669 0.930 . S
C2677 C2675 1.419 . S
C2677 C2678 1.362 . S
C2678 H2670 0.930 . S
C2678 C2677 1.362 . S
C2678 C2681 1.409 . S
C2679 H2671 0.930 . S
C2679 C2680 1.355 . S
C2679 C2681 1.415 . S
C2680 C2679 1.355 . S
C2680 C2682 1.419 . S
C2681 C2676 1.425 . S
C2681 C2678 1.409 . S
C2681 C2679 1.415 . S
C2682 H2672 0.930 . S
C2682 C2680 1.419 . S
C2682 C2683 1.362 . S
C2683 H2673 0.930 . S
C2683 C2676 1.409 . S
C2683 C2682 1.362 . S
H2684 C2690 0.930 . S
H2685 C2693 0.930 . S
H2686 C2694 0.930 . S
H2687 C2695 0.930 . S
H2688 C2698 0.930 . S
H2689 C2699 0.930 . S
C2690 H2684 0.930 . S
C2690 C2691 1.355 . S
C2690 C2692 1.415 . S
C2691 C2690 1.355 . S
C2691 C2693 1.419 . S
C2692 C2690 1.415 . S
C2692 C2697 1.425 . S
C2692 C2699 1.409 . S
C2693 H2685 0.930 . S
C2693 C2691 1.419 . S
C2693 C2694 1.362 . S
C2694 H2686 0.930 . S
C2694 C2693 1.362 . S
C2694 C2697 1.409 . S
C2695 H2687 0.930 . S
C2695 C2696 1.355 . S
C2695 C2697 1.415 . S
C2696 C2695 1.355 . S
C2696 C2698 1.419 . S
C2697 C2692 1.425 . S
C2697 C2694 1.409 . S
C2697 C2695 1.415 . S
C2698 H2688 0.930 . S
C2698 C2696 1.419 . S
C2698 C2699 1.362 . S
C2699 H2689 0.930 . S
C2699 C2692 1.409 . S
C2699 C2698 1.362 . S
H2700 C2706 0.930 . S
H2701 C2709 0.930 . S
H2702 C2710 0.930 . S
H2703 C2711 0.930 . S
H2704 C2714 0.930 . S
H2705 C2715 0.930 . S
C2706 H2700 0.930 . S
C2706 C2707 1.355 . S
C2706 C2708 1.415 . S
C2707 C2706 1.355 . S
C2707 C2709 1.419 . S
C2708 C2706 1.415 . S
C2708 C2713 1.425 . S
C2708 C2715 1.409 . S
C2709 H2701 0.930 . S
C2709 C2707 1.419 . S
C2709 C2710 1.362 . S
C2710 H2702 0.930 . S
C2710 C2709 1.362 . S
C2710 C2713 1.409 . S
C2711 H2703 0.930 . S
C2711 C2712 1.355 . S
C2711 C2713 1.415 . S
C2712 C2711 1.355 . S
C2712 C2714 1.419 . S
C2713 C2708 1.425 . S
C2713 C2710 1.409 . S
C2713 C2711 1.415 . S
C2714 H2704 0.930 . S
C2714 C2712 1.419 . S
C2714 C2715 1.362 . S
C2715 H2705 0.930 . S
C2715 C2708 1.409 . S
C2715 C2714 1.362 . S
H2716 C2722 0.930 . S
H2717 C2725 0.930 . S
H2718 C2726 0.930 . S
H2719 C2727 0.930 . S
H2720 C2730 0.930 . S
H2721 C2731 0.930 . S
C2722 H2716 0.930 . S
C2722 C2723 1.355 . S
C2722 C2724 1.415 . S
C2723 C2722 1.355 . S
C2723 C2725 1.419 . S
C2724 C2722 1.415 . S
C2724 C2729 1.425 1_565 S
C2724 C2731 1.409 1_565 S
C2725 H2717 0.930 . S
C2725 C2723 1.419 . S
C2725 C2726 1.362 . S
C2726 H2718 0.930 . S
C2726 C2725 1.362 . S
C2726 C2729 1.409 1_565 S
C2727 H2719 0.930 . S
C2727 C2728 1.355 . S
C2727 C2729 1.415 . S
C2728 C2727 1.355 . S
C2728 C2730 1.419 . S
C2729 C2724 1.425 1_545 S
C2729 C2726 1.409 1_545 S
C2729 C2727 1.415 . S
C2730 H2720 0.930 . S
C2730 C2728 1.419 . S
C2730 C2731 1.362 . S
C2731 H2721 0.930 . S
C2731 C2724 1.409 1_545 S
C2731 C2730 1.362 . S
H2732 C2738 0.930 . S
H2733 C2741 0.930 . S
H2734 C2742 0.930 . S
H2735 C2743 0.930 . S
H2736 C2746 0.930 . S
H2737 C2747 0.930 . S
C2738 H2732 0.930 . S
C2738 C2739 1.355 . S
C2738 C2740 1.415 . S
C2739 C2738 1.355 . S
C2739 C2741 1.419 . S
C2740 C2738 1.415 . S
C2740 C2745 1.425 1_655 S
C2740 C2747 1.409 1_655 S
C2741 H2733 0.930 . S
C2741 C2739 1.419 . S
C2741 C2742 1.362 . S
C2742 H2734 0.930 . S
C2742 C2741 1.362 . S
C2742 C2745 1.409 1_655 S
C2743 H2735 0.930 . S
C2743 C2744 1.355 . S
C2743 C2745 1.415 . S
C2744 C2743 1.355 . S
C2744 C2746 1.419 . S
C2745 C2740 1.425 1_455 S
C2745 C2742 1.409 1_455 S
C2745 C2743 1.415 . S
C2746 H2736 0.930 . S
C2746 C2744 1.419 . S
C2746 C2747 1.362 . S
C2747 H2737 0.930 . S
C2747 C2740 1.409 1_455 S
C2747 C2746 1.362 . S
H2748 C2754 0.930 . S
H2749 C2757 0.930 . S
H2750 C2758 0.930 . S
H2751 C2759 0.930 . S
H2752 C2762 0.930 . S
H2753 C2763 0.930 . S
C2754 H2748 0.930 . S
C2754 C2755 1.355 . S
C2754 C2756 1.415 . S
C2755 C2754 1.355 . S
C2755 C2757 1.419 . S
C2756 C2754 1.415 . S
C2756 C2761 1.425 . S
C2756 C2763 1.409 . S
C2757 H2749 0.930 . S
C2757 C2755 1.419 . S
C2757 C2758 1.362 . S
C2758 H2750 0.930 . S
C2758 C2757 1.362 . S
C2758 C2761 1.409 . S
C2759 H2751 0.930 . S
C2759 C2760 1.355 . S
C2759 C2761 1.415 . S
C2760 C2759 1.355 . S
C2760 C2762 1.419 . S
C2761 C2756 1.425 . S
C2761 C2758 1.409 . S
C2761 C2759 1.415 . S
C2762 H2752 0.930 . S
C2762 C2760 1.419 . S
C2762 C2763 1.362 . S
C2763 H2753 0.930 . S
C2763 C2756 1.409 . S
C2763 C2762 1.362 . S
H2764 C2770 0.930 . S
H2765 C2773 0.930 . S
H2766 C2774 0.930 . S
H2767 C2775 0.930 . S
H2768 C2778 0.930 . S
H2769 C2779 0.930 . S
C2770 H2764 0.930 . S
C2770 C2771 1.355 . S
C2770 C2772 1.415 . S
C2771 C2770 1.355 . S
C2771 C2773 1.419 . S
C2772 C2770 1.415 . S
C2772 C2777 1.425 1_545 S
C2772 C2779 1.409 1_545 S
C2773 H2765 0.930 . S
C2773 C2771 1.419 . S
C2773 C2774 1.362 . S
C2774 H2766 0.930 . S
C2774 C2773 1.362 . S
C2774 C2777 1.409 1_545 S
C2775 H2767 0.930 . S
C2775 C2776 1.355 . S
C2775 C2777 1.415 . S
C2776 C2775 1.355 . S
C2776 C2778 1.419 . S
C2777 C2772 1.425 1_565 S
C2777 C2774 1.409 1_565 S
C2777 C2775 1.415 . S
C2778 H2768 0.930 . S
C2778 C2776 1.419 . S
C2778 C2779 1.362 . S
C2779 H2769 0.930 . S
C2779 C2772 1.409 1_565 S
C2779 C2778 1.362 . S
H2780 C2786 0.930 . S
H2781 C2789 0.930 . S
H2782 C2790 0.930 . S
H2783 C2791 0.930 . S
H2784 C2794 0.930 . S
H2785 C2795 0.930 . S
C2786 H2780 0.930 . S
C2786 C2787 1.355 . S
C2786 C2788 1.415 . S
C2787 C2786 1.355 . S
C2787 C2789 1.419 . S
C2788 C2786 1.415 . S
C2788 C2793 1.425 1_655 S
C2788 C2795 1.409 1_655 S
C2789 H2781 0.930 . S
C2789 C2787 1.419 . S
C2789 C2790 1.362 . S
C2790 H2782 0.930 . S
C2790 C2789 1.362 . S
C2790 C2793 1.409 1_655 S
C2791 H2783 0.930 . S
C2791 C2792 1.355 . S
C2791 C2793 1.415 . S
C2792 C2791 1.355 . S
C2792 C2794 1.419 . S
C2793 C2788 1.425 1_455 S
C2793 C2790 1.409 1_455 S
C2793 C2791 1.415 . S
C2794 H2784 0.930 . S
C2794 C2792 1.419 . S
C2794 C2795 1.362 . S
C2795 H2785 0.930 . S
C2795 C2788 1.409 1_455 S
C2795 C2794 1.362 . S
H2796 C2802 0.930 . S
H2797 C2805 0.930 . S
H2798 C2806 0.930 . S
H2799 C2807 0.930 . S
H2800 C2810 0.930 . S
H2801 C2811 0.930 . S
C2802 H2796 0.930 . S
C2802 C2803 1.355 . S
C2802 C2804 1.415 . S
C2803 C2802 1.355 . S
C2803 C2805 1.419 . S
C2804 C2802 1.415 . S
C2804 C2809 1.425 . S
C2804 C2811 1.409 . S
C2805 H2797 0.930 . S
C2805 C2803 1.419 . S
C2805 C2806 1.362 . S
C2806 H2798 0.930 . S
C2806 C2805 1.362 . S
C2806 C2809 1.409 . S
C2807 H2799 0.930 . S
C2807 C2808 1.355 . S
C2807 C2809 1.415 . S
C2808 C2807 1.355 . S
C2808 C2810 1.419 . S
C2809 C2804 1.425 . S
C2809 C2806 1.409 . S
C2809 C2807 1.415 . S
C2810 H2800 0.930 . S
C2810 C2808 1.419 . S
C2810 C2811 1.362 . S
C2811 H2801 0.930 . S
C2811 C2804 1.409 . S
C2811 C2810 1.362 . S
H2812 C2818 0.930 . S
H2813 C2821 0.930 . S
H2814 C2822 0.930 . S
H2815 C2823 0.930 . S
H2816 C2826 0.930 . S
H2817 C2827 0.930 . S
C2818 H2812 0.930 . S
C2818 C2819 1.355 . S
C2818 C2820 1.415 . S
C2819 C2818 1.355 . S
C2819 C2821 1.419 . S
C2820 C2818 1.415 . S
C2820 C2825 1.425 . S
C2820 C2827 1.409 . S
C2821 H2813 0.930 . S
C2821 C2819 1.419 . S
C2821 C2822 1.362 . S
C2822 H2814 0.930 . S
C2822 C2821 1.362 . S
C2822 C2825 1.409 . S
C2823 H2815 0.930 . S
C2823 C2824 1.355 . S
C2823 C2825 1.415 . S
C2824 C2823 1.355 . S
C2824 C2826 1.419 . S
C2825 C2820 1.425 . S
C2825 C2822 1.409 . S
C2825 C2823 1.415 . S
C2826 H2816 0.930 . S
C2826 C2824 1.419 . S
C2826 C2827 1.362 . S
C2827 H2817 0.930 . S
C2827 C2820 1.409 . S
C2827 C2826 1.362 . S
H2828 C2834 0.930 . S
H2829 C2837 0.930 . S
H2830 C2838 0.930 . S
H2831 C2839 0.930 . S
H2832 C2842 0.930 . S
H2833 C2843 0.930 . S
C2834 H2828 0.930 . S
C2834 C2835 1.355 . S
C2834 C2836 1.415 . S
C2835 C2834 1.355 . S
C2835 C2837 1.419 . S
C2836 C2834 1.415 . S
C2836 C2841 1.425 . S
C2836 C2843 1.409 . S
C2837 H2829 0.930 . S
C2837 C2835 1.419 . S
C2837 C2838 1.362 . S
C2838 H2830 0.930 . S
C2838 C2837 1.362 . S
C2838 C2841 1.409 . S
C2839 H2831 0.930 . S
C2839 C2840 1.355 . S
C2839 C2841 1.415 . S
C2840 C2839 1.355 . S
C2840 C2842 1.419 . S
C2841 C2836 1.425 . S
C2841 C2838 1.409 . S
C2841 C2839 1.415 . S
C2842 H2832 0.930 . S
C2842 C2840 1.419 . S
C2842 C2843 1.362 . S
C2843 H2833 0.930 . S
C2843 C2836 1.409 . S
C2843 C2842 1.362 . S
H2844 C2850 0.930 . S
H2845 C2853 0.930 . S
H2846 C2854 0.930 . S
H2847 C2855 0.930 . S
H2848 C2858 0.930 . S
H2849 C2859 0.930 . S
C2850 H2844 0.930 . S
C2850 C2851 1.355 . S
C2850 C2852 1.415 . S
C2851 C2850 1.355 . S
C2851 C2853 1.419 . S
C2852 C2850 1.415 . S
C2852 C2857 1.425 . S
C2852 C2859 1.409 . S
C2853 H2845 0.930 . S
C2853 C2851 1.419 . S
C2853 C2854 1.362 . S
C2854 H2846 0.930 . S
C2854 C2853 1.362 . S
C2854 C2857 1.409 . S
C2855 H2847 0.930 . S
C2855 C2856 1.355 . S
C2855 C2857 1.415 . S
C2856 C2855 1.355 . S
C2856 C2858 1.419 . S
C2857 C2852 1.425 . S
C2857 C2854 1.409 . S
C2857 C2855 1.415 . S
C2858 H2848 0.930 . S
C2858 C2856 1.419 . S
C2858 C2859 1.362 . S
C2859 H2849 0.930 . S
C2859 C2852 1.409 . S
C2859 C2858 1.362 . S
H2860 C2866 0.930 . S
H2861 C2869 0.930 . S
H2862 C2870 0.930 . S
H2863 C2871 0.930 . S
H2864 C2874 0.930 . S
H2865 C2875 0.930 . S
C2866 H2860 0.930 . S
C2866 C2867 1.355 . S
C2866 C2868 1.415 . S
C2867 C2866 1.355 . S
C2867 C2869 1.419 . S
C2868 C2866 1.415 . S
C2868 C2873 1.425 . S
C2868 C2875 1.409 . S
C2869 H2861 0.930 . S
C2869 C2867 1.419 . S
C2869 C2870 1.362 . S
C2870 H2862 0.930 . S
C2870 C2869 1.362 . S
C2870 C2873 1.409 . S
C2871 H2863 0.930 . S
C2871 C2872 1.355 . S
C2871 C2873 1.415 . S
C2872 C2871 1.355 . S
C2872 C2874 1.419 . S
C2873 C2868 1.425 . S
C2873 C2870 1.409 . S
C2873 C2871 1.415 . S
C2874 H2864 0.930 . S
C2874 C2872 1.419 . S
C2874 C2875 1.362 . S
C2875 H2865 0.930 . S
C2875 C2868 1.409 . S
C2875 C2874 1.362 . S
H2876 C2882 0.930 . S
H2877 C2885 0.930 . S
H2878 C2886 0.930 . S
H2879 C2887 0.930 . S
H2880 C2890 0.930 . S
H2881 C2891 0.930 . S
C2882 H2876 0.930 . S
C2882 C2883 1.355 . S
C2882 C2884 1.415 . S
C2883 C2882 1.355 . S
C2883 C2885 1.419 . S
C2884 C2882 1.415 . S
C2884 C2889 1.425 . S
C2884 C2891 1.409 . S
C2885 H2877 0.930 . S
C2885 C2883 1.419 . S
C2885 C2886 1.362 . S
C2886 H2878 0.930 . S
C2886 C2885 1.362 . S
C2886 C2889 1.409 . S
C2887 H2879 0.930 . S
C2887 C2888 1.355 . S
C2887 C2889 1.415 . S
C2888 C2887 1.355 . S
C2888 C2890 1.419 . S
C2889 C2884 1.425 . S
C2889 C2886 1.409 . S
C2889 C2887 1.415 . S
C2890 H2880 0.930 . S
C2890 C2888 1.419 . S
C2890 C2891 1.362 . S
C2891 H2881 0.930 . S
C2891 C2884 1.409 . S
C2891 C2890 1.362 . S
H2892 C2898 0.930 . S
H2893 C2901 0.930 . S
H2894 C2902 0.930 . S
H2895 C2903 0.930 . S
H2896 C2906 0.930 . S
H2897 C2907 0.930 . S
C2898 H2892 0.930 . S
C2898 C2899 1.355 . S
C2898 C2900 1.415 . S
C2899 C2898 1.355 . S
C2899 C2901 1.419 . S
C2900 C2898 1.415 . S
C2900 C2905 1.425 . S
C2900 C2907 1.409 . S
C2901 H2893 0.930 . S
C2901 C2899 1.419 . S
C2901 C2902 1.362 . S
C2902 H2894 0.930 . S
C2902 C2901 1.362 . S
C2902 C2905 1.409 . S
C2903 H2895 0.930 . S
C2903 C2904 1.355 . S
C2903 C2905 1.415 . S
C2904 C2903 1.355 . S
C2904 C2906 1.419 . S
C2905 C2900 1.425 . S
C2905 C2902 1.409 . S
C2905 C2903 1.415 . S
C2906 H2896 0.930 . S
C2906 C2904 1.419 . S
C2906 C2907 1.362 . S
C2907 H2897 0.930 . S
C2907 C2900 1.409 . S
C2907 C2906 1.362 . S
H2908 C2914 0.930 . S
H2909 C2917 0.930 1_554 S
H2910 C2918 0.930 1_554 S
H2911 C2919 0.930 . S
H2912 C2922 0.930 . S
H2913 C2923 0.930 . S
C2914 H2908 0.930 . S
C2914 C2915 1.355 . S
C2914 C2916 1.415 . S
C2915 C2914 1.355 . S
C2915 C2917 1.419 . S
C2916 C2914 1.415 . S
C2916 C2921 1.425 . S
C2916 C2923 1.409 . S
C2917 H2909 0.930 1_556 S
C2917 C2915 1.419 . S
C2917 C2918 1.362 . S
C2918 H2910 0.930 1_556 S
C2918 C2917 1.362 . S
C2918 C2921 1.409 . S
C2919 H2911 0.930 . S
C2919 C2920 1.355 . S
C2919 C2921 1.415 . S
C2920 C2919 1.355 . S
C2920 C2922 1.419 . S
C2921 C2916 1.425 . S
C2921 C2918 1.409 . S
C2921 C2919 1.415 . S
C2922 H2912 0.930 . S
C2922 C2920 1.419 . S
C2922 C2923 1.362 . S
C2923 H2913 0.930 . S
C2923 C2916 1.409 . S
C2923 C2922 1.362 . S
H2924 C2930 0.930 . S
H2925 C2933 0.930 . S
H2926 C2934 0.930 . S
H2927 C2935 0.930 . S
H2928 C2938 0.930 . S
H2929 C2939 0.930 . S
C2930 H2924 0.930 . S
C2930 C2931 1.355 . S
C2930 C2932 1.415 . S
C2931 C2930 1.355 . S
C2931 C2933 1.419 . S
C2932 C2930 1.415 . S
C2932 C2937 1.425 . S
C2932 C2939 1.409 . S
C2933 H2925 0.930 . S
C2933 C2931 1.419 . S
C2933 C2934 1.362 . S
C2934 H2926 0.930 . S
C2934 C2933 1.362 . S
C2934 C2937 1.409 . S
C2935 H2927 0.930 . S
C2935 C2936 1.355 . S
C2935 C2937 1.415 . S
C2936 C2935 1.355 . S
C2936 C2938 1.419 . S
C2937 C2932 1.425 . S
C2937 C2934 1.409 . S
C2937 C2935 1.415 . S
C2938 H2928 0.930 . S
C2938 C2936 1.419 . S
C2938 C2939 1.362 . S
C2939 H2929 0.930 . S
C2939 C2932 1.409 . S
C2939 C2938 1.362 . S
H2940 C2946 0.930 . S
H2941 C2949 0.930 . S
H2942 C2950 0.930 . S
H2943 C2951 0.930 . S
H2944 C2954 0.930 . S
H2945 C2955 0.930 . S
C2946 H2940 0.930 . S
C2946 C2947 1.355 . S
C2946 C2948 1.415 . S
C2947 C2946 1.355 . S
C2947 C2949 1.419 . S
C2948 C2946 1.415 . S
C2948 C2953 1.425 . S
C2948 C2955 1.409 . S
C2949 H2941 0.930 . S
C2949 C2947 1.419 . S
C2949 C2950 1.362 . S
C2950 H2942 0.930 . S
C2950 C2949 1.362 . S
C2950 C2953 1.409 . S
C2951 H2943 0.930 . S
C2951 C2952 1.355 . S
C2951 C2953 1.415 . S
C2952 C2951 1.355 . S
C2952 C2954 1.419 . S
C2953 C2948 1.425 . S
C2953 C2950 1.409 . S
C2953 C2951 1.415 . S
C2954 H2944 0.930 . S
C2954 C2952 1.419 . S
C2954 C2955 1.362 . S
C2955 H2945 0.930 . S
C2955 C2948 1.409 . S
C2955 C2954 1.362 . S
H2956 C2962 0.930 . S
H2957 C2965 0.930 . S
H2958 C2966 0.930 . S
H2959 C2967 0.930 . S
H2960 C2970 0.930 . S
H2961 C2971 0.930 . S
C2962 H2956 0.930 . S
C2962 C2963 1.355 . S
C2962 C2964 1.415 . S
C2963 C2962 1.355 . S
C2963 C2965 1.419 . S
C2964 C2962 1.415 . S
C2964 C2969 1.425 . S
C2964 C2971 1.409 . S
C2965 H2957 0.930 . S
C2965 C2963 1.419 . S
C2965 C2966 1.362 . S
C2966 H2958 0.930 . S
C2966 C2965 1.362 . S
C2966 C2969 1.409 . S
C2967 H2959 0.930 . S
C2967 C2968 1.355 . S
C2967 C2969 1.415 . S
C2968 C2967 1.355 . S
C2968 C2970 1.419 . S
C2969 C2964 1.425 . S
C2969 C2966 1.409 . S
C2969 C2967 1.415 . S
C2970 H2960 0.930 . S
C2970 C2968 1.419 . S
C2970 C2971 1.362 . S
C2971 H2961 0.930 . S
C2971 C2964 1.409 . S
C2971 C2970 1.362 . S
H2972 C2978 0.930 . S
H2973 C2981 0.930 . S
H2974 C2982 0.930 . S
H2975 C2983 0.930 . S
H2976 C2986 0.930 . S
H2977 C2987 0.930 . S
C2978 H2972 0.930 . S
C2978 C2979 1.355 . S
C2978 C2980 1.415 . S
C2979 C2978 1.355 . S
C2979 C2981 1.419 . S
C2980 C2978 1.415 . S
C2980 C2985 1.425 . S
C2980 C2987 1.409 . S
C2981 H2973 0.930 . S
C2981 C2979 1.419 . S
C2981 C2982 1.362 . S
C2982 H2974 0.930 . S
C2982 C2981 1.362 . S
C2982 C2985 1.409 . S
C2983 H2975 0.930 . S
C2983 C2984 1.355 . S
C2983 C2985 1.415 . S
C2984 C2983 1.355 . S
C2984 C2986 1.419 . S
C2985 C2980 1.425 . S
C2985 C2982 1.409 . S
C2985 C2983 1.415 . S
C2986 H2976 0.930 . S
C2986 C2984 1.419 . S
C2986 C2987 1.362 . S
C2987 H2977 0.930 . S
C2987 C2980 1.409 . S
C2987 C2986 1.362 . S
H2988 C2994 0.930 . S
H2989 C2997 0.930 . S
H2990 C2998 0.930 . S
H2991 C2999 0.930 . S
H2992 C3002 0.930 . S
H2993 C3003 0.930 . S
C2994 H2988 0.930 . S
C2994 C2995 1.355 . S
C2994 C2996 1.415 . S
C2995 C2994 1.355 . S
C2995 C2997 1.419 . S
C2996 C2994 1.415 . S
C2996 C3001 1.425 . S
C2996 C3003 1.409 . S
C2997 H2989 0.930 . S
C2997 C2995 1.419 . S
C2997 C2998 1.362 . S
C2998 H2990 0.930 . S
C2998 C2997 1.362 . S
C2998 C3001 1.409 . S
C2999 H2991 0.930 . S
C2999 C3000 1.355 . S
C2999 C3001 1.415 . S
C3000 C2999 1.355 . S
C3000 C3002 1.419 . S
C3001 C2996 1.425 . S
C3001 C2998 1.409 . S
C3001 C2999 1.415 . S
C3002 H2992 0.930 . S
C3002 C3000 1.419 . S
C3002 C3003 1.362 . S
C3003 H2993 0.930 . S
C3003 C2996 1.409 . S
C3003 C3002 1.362 . S
H3004 C3010 0.930 . S
H3005 C3013 0.930 . S
H3006 C3014 0.930 . S
H3007 C3015 0.930 . S
H3008 C3018 0.930 . S
H3009 C3019 0.930 . S
C3010 H3004 0.930 . S
C3010 C3011 1.355 . S
C3010 C3012 1.415 . S
C3011 C3010 1.355 . S
C3011 C3013 1.419 . S
C3012 C3010 1.415 . S
C3012 C3017 1.425 . S
C3012 C3019 1.409 . S
C3013 H3005 0.930 . S
C3013 C3011 1.419 . S
C3013 C3014 1.362 . S
C3014 H3006 0.930 . S
C3014 C3013 1.362 . S
C3014 C3017 1.409 . S
C3015 H3007 0.930 . S
C3015 C3016 1.355 . S
C3015 C3017 1.415 . S
C3016 C3015 1.355 . S
C3016 C3018 1.419 . S
C3017 C3012 1.425 . S
C3017 C3014 1.409 . S
C3017 C3015 1.415 . S
C3018 H3008 0.930 . S
C3018 C3016 1.419 . S
C3018 C3019 1.362 . S
C3019 H3009 0.930 . S
C3019 C3012 1.409 . S
C3019 C3018 1.362 . S
H3020 C3026 0.930 . S
H3021 C3029 0.930 . S
H3022 C3030 0.930 . S
H3023 C3031 0.930 . S
H3024 C3034 0.930 . S
H3025 C3035 0.930 . S
C3026 H3020 0.930 . S
C3026 C3027 1.355 . S
C3026 C3028 1.415 . S
C3027 C3026 1.355 . S
C3027 C3029 1.419 . S
C3028 C3026 1.415 . S
C3028 C3033 1.425 . S
C3028 C3035 1.409 . S
C3029 H3021 0.930 . S
C3029 C3027 1.419 . S
C3029 C3030 1.362 . S
C3030 H3022 0.930 . S
C3030 C3029 1.362 . S
C3030 C3033 1.409 . S
C3031 H3023 0.930 . S
C3031 C3032 1.355 . S
C3031 C3033 1.415 . S
C3032 C3031 1.355 . S
C3032 C3034 1.419 . S
C3033 C3028 1.425 . S
C3033 C3030 1.409 . S
C3033 C3031 1.415 . S
C3034 H3024 0.930 . S
C3034 C3032 1.419 . S
C3034 C3035 1.362 . S
C3035 H3025 0.930 . S
C3035 C3028 1.409 . S
C3035 C3034 1.362 . S
H3036 C3042 0.930 . S
H3037 C3045 0.930 . S
H3038 C3046 0.930 . S
H3039 C3047 0.930 . S
H3040 C3050 0.930 . S
H3041 C3051 0.930 . S
C3042 H3036 0.930 . S
C3042 C3043 1.355 . S
C3042 C3044 1.415 . S
C3043 C3042 1.355 . S
C3043 C3045 1.419 . S
C3044 C3042 1.415 . S
C3044 C3049 1.425 . S
C3044 C3051 1.409 . S
C3045 H3037 0.930 . S
C3045 C3043 1.419 . S
C3045 C3046 1.362 . S
C3046 H3038 0.930 . S
C3046 C3045 1.362 . S
C3046 C3049 1.409 . S
C3047 H3039 0.930 . S
C3047 C3048 1.355 . S
C3047 C3049 1.415 . S
C3048 C3047 1.355 . S
C3048 C3050 1.419 . S
C3049 C3044 1.425 . S
C3049 C3046 1.409 . S
C3049 C3047 1.415 . S
C3050 H3040 0.930 . S
C3050 C3048 1.419 . S
C3050 C3051 1.362 . S
C3051 H3041 0.930 . S
C3051 C3044 1.409 . S
C3051 C3050 1.362 . S
H3052 C3058 0.930 . S
H3053 C3061 0.930 . S
H3054 C3062 0.930 . S
H3055 C3063 0.930 . S
H3056 C3066 0.930 . S
H3057 C3067 0.930 . S
C3058 H3052 0.930 . S
C3058 C3059 1.355 . S
C3058 C3060 1.415 . S
C3059 C3058 1.355 . S
C3059 C3061 1.419 . S
C3060 C3058 1.415 . S
C3060 C3065 1.425 . S
C3060 C3067 1.409 . S
C3061 H3053 0.930 . S
C3061 C3059 1.419 . S
C3061 C3062 1.362 . S
C3062 H3054 0.930 . S
C3062 C3061 1.362 . S
C3062 C3065 1.409 . S
C3063 H3055 0.930 . S
C3063 C3064 1.355 . S
C3063 C3065 1.415 . S
C3064 C3063 1.355 . S
C3064 C3066 1.419 . S
C3065 C3060 1.425 . S
C3065 C3062 1.409 . S
C3065 C3063 1.415 . S
C3066 H3056 0.930 . S
C3066 C3064 1.419 . S
C3066 C3067 1.362 . S
C3067 H3057 0.930 . S
C3067 C3060 1.409 . S
C3067 C3066 1.362 . S
H3068 C3074 0.930 . S
H3069 C3077 0.930 . S
H3070 C3078 0.930 . S
H3071 C3079 0.930 . S
H3072 C3082 0.930 . S
H3073 C3083 0.930 . S
C3074 H3068 0.930 . S
C3074 C3075 1.355 . S
C3074 C3076 1.415 . S
C3075 C3074 1.355 . S
C3075 C3077 1.419 . S
C3076 C3074 1.415 . S
C3076 C3081 1.425 . S
C3076 C3083 1.409 . S
C3077 H3069 0.930 . S
C3077 C3075 1.419 . S
C3077 C3078 1.362 . S
C3078 H3070 0.930 . S
C3078 C3077 1.362 . S
C3078 C3081 1.409 . S
C3079 H3071 0.930 . S
C3079 C3080 1.355 . S
C3079 C3081 1.415 . S
C3080 C3079 1.355 . S
C3080 C3082 1.419 . S
C3081 C3076 1.425 . S
C3081 C3078 1.409 . S
C3081 C3079 1.415 . S
C3082 H3072 0.930 . S
C3082 C3080 1.419 . S
C3082 C3083 1.362 . S
C3083 H3073 0.930 . S
C3083 C3076 1.409 . S
C3083 C3082 1.362 . S
H3084 C3090 0.930 . S
H3085 C3093 0.930 . S
H3086 C3094 0.930 . S
H3087 C3095 0.930 . S
H3088 C3098 0.930 . S
H3089 C3099 0.930 . S
C3090 H3084 0.930 . S
C3090 C3091 1.355 . S
C3090 C3092 1.415 . S
C3091 C3090 1.355 . S
C3091 C3093 1.419 . S
C3092 C3090 1.415 . S
C3092 C3097 1.425 . S
C3092 C3099 1.409 . S
C3093 H3085 0.930 . S
C3093 C3091 1.419 . S
C3093 C3094 1.362 . S
C3094 H3086 0.930 . S
C3094 C3093 1.362 . S
C3094 C3097 1.409 . S
C3095 H3087 0.930 . S
C3095 C3096 1.355 . S
C3095 C3097 1.415 . S
C3096 C3095 1.355 . S
C3096 C3098 1.419 . S
C3097 C3092 1.425 . S
C3097 C3094 1.409 . S
C3097 C3095 1.415 . S
C3098 H3088 0.930 . S
C3098 C3096 1.419 . S
C3098 C3099 1.362 . S
C3099 H3089 0.930 . S
C3099 C3092 1.409 . S
C3099 C3098 1.362 . S
H3100 C3106 0.930 . S
H3101 C3109 0.930 . S
H3102 C3110 0.930 . S
H3103 C3111 0.930 . S
H3104 C3114 0.930 . S
H3105 C3115 0.930 . S
C3106 H3100 0.930 . S
C3106 C3107 1.355 . S
C3106 C3108 1.415 . S
C3107 C3106 1.355 . S
C3107 C3109 1.419 . S
C3108 C3106 1.415 . S
C3108 C3113 1.425 . S
C3108 C3115 1.409 . S
C3109 H3101 0.930 . S
C3109 C3107 1.419 . S
C3109 C3110 1.362 . S
C3110 H3102 0.930 . S
C3110 C3109 1.362 . S
C3110 C3113 1.409 . S
C3111 H3103 0.930 . S
C3111 C3112 1.355 . S
C3111 C3113 1.415 . S
C3112 C3111 1.355 . S
C3112 C3114 1.419 . S
C3113 C3108 1.425 . S
C3113 C3110 1.409 . S
C3113 C3111 1.415 . S
C3114 H3104 0.930 . S
C3114 C3112 1.419 . S
C3114 C3115 1.362 . S
C3115 H3105 0.930 . S
C3115 C3108 1.409 . S
C3115 C3114 1.362 . S
H3116 C3122 0.930 . S
H3117 C3125 0.930 . S
H3118 C3126 0.930 . S
H3119 C3127 0.930 . S
H3120 C3130 0.930 . S
H3121 C3131 0.930 . S
C3122 H3116 0.930 . S
C3122 C3123 1.355 . S
C3122 C3124 1.415 . S
C3123 C3122 1.355 . S
C3123 C3125 1.419 . S
C3124 C3122 1.415 . S
C3124 C3129 1.425 . S
C3124 C3131 1.409 . S
C3125 H3117 0.930 . S
C3125 C3123 1.419 . S
C3125 C3126 1.362 . S
C3126 H3118 0.930 . S
C3126 C3125 1.362 . S
C3126 C3129 1.409 . S
C3127 H3119 0.930 . S
C3127 C3128 1.355 . S
C3127 C3129 1.415 . S
C3128 C3127 1.355 . S
C3128 C3130 1.419 . S
C3129 C3124 1.425 . S
C3129 C3126 1.409 . S
C3129 C3127 1.415 . S
C3130 H3120 0.930 . S
C3130 C3128 1.419 . S
C3130 C3131 1.362 . S
C3131 H3121 0.930 . S
C3131 C3124 1.409 . S
C3131 C3130 1.362 . S
H3132 C3138 0.930 . S
H3133 C3141 0.930 . S
H3134 C3142 0.930 . S
H3135 C3143 0.930 . S
H3136 C3146 0.930 . S
H3137 C3147 0.930 . S
C3138 H3132 0.930 . S
C3138 C3139 1.355 . S
C3138 C3140 1.415 . S
C3139 C3138 1.355 . S
C3139 C3141 1.419 . S
C3140 C3138 1.415 . S
C3140 C3145 1.425 . S
C3140 C3147 1.409 . S
C3141 H3133 0.930 . S
C3141 C3139 1.419 . S
C3141 C3142 1.362 . S
C3142 H3134 0.930 . S
C3142 C3141 1.362 . S
C3142 C3145 1.409 . S
C3143 H3135 0.930 . S
C3143 C3144 1.355 . S
C3143 C3145 1.415 . S
C3144 C3143 1.355 . S
C3144 C3146 1.419 . S
C3145 C3140 1.425 . S
C3145 C3142 1.409 . S
C3145 C3143 1.415 . S
C3146 H3136 0.930 . S
C3146 C3144 1.419 . S
C3146 C3147 1.362 . S
C3147 H3137 0.930 . S
C3147 C3140 1.409 . S
C3147 C3146 1.362 . S
H3148 C3154 0.930 . S
H3149 C3157 0.930 . S
H3150 C3158 0.930 . S
H3151 C3159 0.930 . S
H3152 C3162 0.930 . S
H3153 C3163 0.930 . S
C3154 H3148 0.930 . S
C3154 C3155 1.355 . S
C3154 C3156 1.415 . S
C3155 C3154 1.355 . S
C3155 C3157 1.419 . S
C3156 C3154 1.415 . S
C3156 C3161 1.425 . S
C3156 C3163 1.409 . S
C3157 H3149 0.930 . S
C3157 C3155 1.419 . S
C3157 C3158 1.362 . S
C3158 H3150 0.930 . S
C3158 C3157 1.362 . S
C3158 C3161 1.409 . S
C3159 H3151 0.930 . S
C3159 C3160 1.355 . S
C3159 C3161 1.415 . S
C3160 C3159 1.355 . S
C3160 C3162 1.419 . S
C3161 C3156 1.425 . S
C3161 C3158 1.409 . S
C3161 C3159 1.415 . S
C3162 H3152 0.930 . S
C3162 C3160 1.419 . S
C3162 C3163 1.362 . S
C3163 H3153 0.930 . S
C3163 C3156 1.409 . S
C3163 C3162 1.362 . S
H3164 C3170 0.930 . S
H3165 C3173 0.930 . S
H3166 C3174 0.930 . S
H3167 C3175 0.930 . S
H3168 C3178 0.930 . S
H3169 C3179 0.930 . S
C3170 H3164 0.930 . S
C3170 C3171 1.355 . S
C3170 C3172 1.415 . S
C3171 C3170 1.355 . S
C3171 C3173 1.419 . S
C3172 C3170 1.415 . S
C3172 C3177 1.425 . S
C3172 C3179 1.409 . S
C3173 H3165 0.930 . S
C3173 C3171 1.419 . S
C3173 C3174 1.362 . S
C3174 H3166 0.930 . S
C3174 C3173 1.362 . S
C3174 C3177 1.409 . S
C3175 H3167 0.930 . S
C3175 C3176 1.355 . S
C3175 C3177 1.415 . S
C3176 C3175 1.355 . S
C3176 C3178 1.419 . S
C3177 C3172 1.425 . S
C3177 C3174 1.409 . S
C3177 C3175 1.415 . S
C3178 H3168 0.930 . S
C3178 C3176 1.419 . S
C3178 C3179 1.362 . S
C3179 H3169 0.930 . S
C3179 C3172 1.409 . S
C3179 C3178 1.362 . S
H3180 C3186 0.930 . S
H3181 C3189 0.930 . S
H3182 C3190 0.930 . S
H3183 C3191 0.930 . S
H3184 C3194 0.930 . S
H3185 C3195 0.930 . S
C3186 H3180 0.930 . S
C3186 C3187 1.355 . S
C3186 C3188 1.415 . S
C3187 C3186 1.355 . S
C3187 C3189 1.419 . S
C3188 C3186 1.415 . S
C3188 C3193 1.425 1_455 S
C3188 C3195 1.409 1_455 S
C3189 H3181 0.930 . S
C3189 C3187 1.419 . S
C3189 C3190 1.362 . S
C3190 H3182 0.930 . S
C3190 C3189 1.362 . S
C3190 C3193 1.409 1_455 S
C3191 H3183 0.930 . S
C3191 C3192 1.355 . S
C3191 C3193 1.415 . S
C3192 C3191 1.355 . S
C3192 C3194 1.419 . S
C3193 C3188 1.425 1_655 S
C3193 C3190 1.409 1_655 S
C3193 C3191 1.415 . S
C3194 H3184 0.930 . S
C3194 C3192 1.419 . S
C3194 C3195 1.362 . S
C3195 H3185 0.930 . S
C3195 C3188 1.409 1_655 S
C3195 C3194 1.362 . S
H3196 C3202 0.930 . S
H3197 C3205 0.930 . S
H3198 C3206 0.930 . S
H3199 C3207 0.930 . S
H3200 C3210 0.930 . S
H3201 C3211 0.930 . S
C3202 H3196 0.930 . S
C3202 C3203 1.355 . S
C3202 C3204 1.415 . S
C3203 C3202 1.355 . S
C3203 C3205 1.419 . S
C3204 C3202 1.415 . S
C3204 C3209 1.425 . S
C3204 C3211 1.409 . S
C3205 H3197 0.930 . S
C3205 C3203 1.419 . S
C3205 C3206 1.362 . S
C3206 H3198 0.930 . S
C3206 C3205 1.362 . S
C3206 C3209 1.409 . S
C3207 H3199 0.930 . S
C3207 C3208 1.355 . S
C3207 C3209 1.415 . S
C3208 C3207 1.355 . S
C3208 C3210 1.419 . S
C3209 C3204 1.425 . S
C3209 C3206 1.409 . S
C3209 C3207 1.415 . S
C3210 H3200 0.930 . S
C3210 C3208 1.419 . S
C3210 C3211 1.362 . S
C3211 H3201 0.930 . S
C3211 C3204 1.409 . S
C3211 C3210 1.362 . S
H3212 C3218 0.930 . S
H3213 C3221 0.930 . S
H3214 C3222 0.930 1_565 S
H3215 C3223 0.930 . S
H3216 C3226 0.930 . S
H3217 C3227 0.930 1_545 S
C3218 H3212 0.930 . S
C3218 C3219 1.355 . S
C3218 C3220 1.415 . S
C3219 C3218 1.355 . S
C3219 C3221 1.419 . S
C3220 C3218 1.415 . S
C3220 C3225 1.425 1_545 S
C3220 C3227 1.409 1_545 S
C3221 H3213 0.930 . S
C3221 C3219 1.419 . S
C3221 C3222 1.362 . S
C3222 H3214 0.930 1_545 S
C3222 C3221 1.362 . S
C3222 C3225 1.409 1_545 S
C3223 H3215 0.930 . S
C3223 C3224 1.355 . S
C3223 C3225 1.415 . S
C3224 C3223 1.355 . S
C3224 C3226 1.419 . S
C3225 C3220 1.425 1_565 S
C3225 C3222 1.409 1_565 S
C3225 C3223 1.415 . S
C3226 H3216 0.930 . S
C3226 C3224 1.419 . S
C3226 C3227 1.362 . S
C3227 H3217 0.930 1_565 S
C3227 C3220 1.409 1_565 S
C3227 C3226 1.362 . S
H3228 C3234 0.930 1_556 S
H3229 C3237 0.930 . S
H3230 C3238 0.930 . S
H3231 C3239 0.930 1_554 S
H3232 C3242 0.930 . S
H3233 C3243 0.930 . S
C3234 H3228 0.930 1_554 S
C3234 C3235 1.355 . S
C3234 C3236 1.415 1_554 S
C3235 C3234 1.355 . S
C3235 C3237 1.419 . S
C3236 C3234 1.415 1_556 S
C3236 C3241 1.425 1_546 S
C3236 C3243 1.409 1_545 S
C3237 H3229 0.930 . S
C3237 C3235 1.419 . S
C3237 C3238 1.362 . S
C3238 H3230 0.930 . S
C3238 C3237 1.362 . S
C3238 C3241 1.409 1_545 S
C3239 H3231 0.930 1_556 S
C3239 C3240 1.355 . S
C3239 C3241 1.415 1_556 S
C3240 C3239 1.355 . S
C3240 C3242 1.419 . S
C3241 C3236 1.425 1_564 S
C3241 C3238 1.409 1_565 S
C3241 C3239 1.415 1_554 S
C3242 H3232 0.930 . S
C3242 C3240 1.419 . S
C3242 C3243 1.362 . S
C3243 H3233 0.930 . S
C3243 C3236 1.409 1_565 S
C3243 C3242 1.362 . S
H3244 C3250 0.930 . S
H3245 C3253 0.930 . S
H3246 C3254 0.930 . S
H3247 C3255 0.930 . S
H3248 C3258 0.930 . S
H3249 C3259 0.930 . S
C3250 H3244 0.930 . S
C3250 C3251 1.355 . S
C3250 C3252 1.418 . S
C3251 C3250 1.355 . S
C3251 C3253 1.419 . S
C3252 C3250 1.418 . S
C3252 C3257 1.425 1_654 S
C3252 C3259 1.406 1_654 S
C3253 H3245 0.930 . S
C3253 C3251 1.419 . S
C3253 C3254 1.362 . S
C3254 H3246 0.930 . S
C3254 C3253 1.362 . S
C3254 C3257 1.406 1_654 S
C3255 H3247 0.930 . S
C3255 C3256 1.355 . S
C3255 C3257 1.418 . S
C3256 C3255 1.355 . S
C3256 C3258 1.419 . S
C3257 C3252 1.425 1_456 S
C3257 C3254 1.406 1_456 S
C3257 C3255 1.418 . S
C3258 H3248 0.930 . S
C3258 C3256 1.419 . S
C3258 C3259 1.362 . S
C3259 H3249 0.930 . S
C3259 C3252 1.406 1_456 S
C3259 C3258 1.362 . S
H3260 C3266 0.930 . S
H3261 C3269 0.930 . S
H3262 C3270 0.930 . S
H3263 C3271 0.930 . S
H3264 C3274 0.930 . S
H3265 C3275 0.930 . S
C3266 H3260 0.930 . S
C3266 C3267 1.355 . S
C3266 C3268 1.415 . S
C3267 C3266 1.355 . S
C3267 C3269 1.419 . S
C3268 C3266 1.415 . S
C3268 C3273 1.425 1_554 S
C3268 C3275 1.409 . S
C3269 H3261 0.930 . S
C3269 C3267 1.419 . S
C3269 C3270 1.362 1_554 S
C3270 H3262 0.930 . S
C3270 C3269 1.362 1_556 S
C3270 C3273 1.409 . S
C3271 H3263 0.930 . S
C3271 C3272 1.355 . S
C3271 C3273 1.415 . S
C3272 C3271 1.355 . S
C3272 C3274 1.419 . S
C3273 C3268 1.425 1_556 S
C3273 C3270 1.409 . S
C3273 C3271 1.415 . S
C3274 H3264 0.930 . S
C3274 C3272 1.419 . S
C3274 C3275 1.362 1_556 S
C3275 H3265 0.930 . S
C3275 C3268 1.409 . S
C3275 C3274 1.362 1_554 S
C2131 C593 1.318 . S
C2136 C33 1.301 . S
C2147 C652 1.304 . S
C2152 C92 1.331 . S
C2163 C151 1.319 . S
C2168 C534 1.332 . S
C2179 C210 1.320 . S
C2184 C475 1.307 . S
C2195 C269 1.287 . S
C2200 C357 1.336 . S
C2211 C416 1.331 . S
C2216 C328 1.320 . S
C2227 C239 1.328 . S
C2232 C387 1.324 . S
C2243 C298 1.325 . S
C2248 C446 1.293 . S
C2259 C505 1.317 . S
C2264 C180 1.308 . S
C2275 C121 1.311 . S
C2280 C564 1.338 . S
C2291 C623 1.298 . S
C2296 C3 1.320 . S
C2307 C682 1.329 . S
C2312 C62 1.324 . S
C2323 C1301 1.328 . S
C2328 C741 1.324 . S
C2339 C1360 1.309 . S
C2344 C800 1.339 . S
C2355 C859 1.307 . S
C2360 C1242 1.314 . S
C2371 C918 1.307 . S
C2376 C1183 1.314 . S
C2387 C977 1.287 . S
C2392 C1065 1.335 . S
C2403 C1036 1.329 . S
C2408 C1124 1.324 . S
C2419 C947 1.332 . S
C2424 C1095 1.318 . S
C2435 C1006 1.317 . S
C2440 C1154 1.335 . S
C2451 C888 1.341 . S
C2456 C1213 1.295 . S
C2467 C829 1.335 . S
C2472 C1272 1.287 . S
C2483 C711 1.322 . S
C2488 C1331 1.296 . S
C2499 C770 1.320 . S
C2504 C1390 1.298 . S
C2515 C1449 1.337 . S
C2520 C2009 1.305 . S
C2531 C2068 1.307 . S
C2536 C1508 1.338 . S
C2547 C1950 1.316 . S
C2552 C1567 1.304 . S
C2563 C1626 1.339 . S
C2568 C1891 1.308 . S
C2579 C1685 1.321 . S
C2584 C1773 1.307 . S
C2595 C1744 1.328 . S
C2600 C1832 1.305 . S
C2611 C1655 1.312 . S
C2616 C1803 1.309 . S
C2627 C1714 1.305 . S
C2632 C1862 1.335 . S
C2643 C1596 1.338 . S
C2648 C1921 1.287 . S
C2659 C1980 1.334 . S
C2664 C1537 1.304 . S
C2675 C1419 1.328 . S
C2680 C2039 1.324 . S
C2691 C2098 1.332 . S
C2696 C1478 1.304 . S
C2707 C182 1.565 . S
C2712 C5 1.561 . S
C2723 C241 1.559 . S
C2728 C64 1.562 . S
C2739 C123 1.566 . S
C2744 C300 1.562 . S
C2755 C536 1.563 . S
C2760 C359 1.566 . S
C2771 C595 1.562 . S
C2776 C418 1.566 . S
C2787 C654 1.559 . S
C2792 C477 1.561 . S
C2803 C890 1.562 . S
C2808 C713 1.559 . S
C2819 C949 1.559 . S
C2824 C772 1.560 . S
C2835 C831 1.567 . S
C2840 C1008 1.567 . S
C2851 C1067 1.567 . S
C2856 C1244 1.564 . S
C2867 C1303 1.567 . S
C2872 C1126 1.566 . S
C2883 C1185 1.559 . S
C2888 C1362 1.562 . S
C2899 C1598 1.562 . S
C2904 C1421 1.559 . S
C2915 C1657 1.566 . S
C2920 C1480 1.567 . S
C2931 C1539 1.561 . S
C2936 C1716 1.564 . S
C2947 C1775 1.567 . S
C2952 C1952 1.564 . S
C2963 C1834 1.566 . S
C2968 C2011 1.563 . S
C2979 C1893 1.567 . S
C2984 C2070 1.564 . S
C2995 C52 1.568 . S
C3000 C1114 1.568 . S
C3011 C1173 1.571 . S
C3016 C111 1.571 . S
C3027 C1232 1.575 . S
C3032 C170 1.575 . S
C3043 C1999 1.564 . S
C3048 C229 1.564 . S
C3059 C2058 1.573 . S
C3064 C288 1.573 . S
C3075 C2117 1.574 . S
C3080 C347 1.574 . S
C3091 C406 1.573 . S
C3096 C1468 1.573 . S
C3107 C1527 1.572 . S
C3112 C465 1.572 . S
C3123 C1586 1.563 . S
C3128 C524 1.563 . S
C3139 C583 1.566 . S
C3144 C937 1.566 . S
C3155 C642 1.575 . S
C3160 C996 1.575 . S
C3171 C701 1.563 . S
C3176 C1055 1.563 . S
C3187 C1822 1.562 . S
C3192 C760 1.562 . S
C3203 C1881 1.575 . S
C3208 C819 1.575 . S
C3219 C878 1.575 . S
C3224 C1940 1.575 . S
C3235 C1291 1.575 . S
C3240 C1645 1.575 . S
C3251 C1350 1.574 . S
C3256 C1704 1.574 . S
C3267 C1409 1.573 . S
C3272 C1763 1.573 . S
