# Generated by pormake.
# Topology gis, (4)-cn, num edge types: 1
# Building blocks:
#     Node 0, Type 0, BuildingBlock: UXUYUI_clean_sbu_0, # of connection points: 4
#     Node 1, Type 0, BuildingBlock: UXUYUI_clean_sbu_0, # of connection points: 4
#     Node 2, Type 0, BuildingBlock: UXUYUI_clean_sbu_0, # of connection points: 4
#     Node 3, Type 0, BuildingBlock: UXUYUI_clean_sbu_0, # of connection points: 4
#     Node 4, Type 0, BuildingBlock: UXUYUI_clean_sbu_0, # of connection points: 4
#     Node 5, Type 0, BuildingBlock: UXUYUI_clean_sbu_0, # of connection points: 4
#     Node 6, Type 0, BuildingBlock: UXUYUI_clean_sbu_0, # of connection points: 4
#     Node 7, Type 0, BuildingBlock: UXUYUI_clean_sbu_0, # of connection points: 4
#     Node 8, Type 0, BuildingBlock: UXUYUI_clean_sbu_0, # of connection points: 4
#     Node 9, Type 0, BuildingBlock: UXUYUI_clean_sbu_0, # of connection points: 4
#     Node 10, Type 0, BuildingBlock: UXUYUI_clean_sbu_0, # of connection points: 4
#     Node 11, Type 0, BuildingBlock: UXUYUI_clean_sbu_0, # of connection points: 4
#     Node 12, Type 0, BuildingBlock: UXUYUI_clean_sbu_0, # of connection points: 4
#     Node 13, Type 0, BuildingBlock: UXUYUI_clean_sbu_0, # of connection points: 4
#     Node 14, Type 0, BuildingBlock: UXUYUI_clean_sbu_0, # of connection points: 4
#     Node 15, Type 0, BuildingBlock: UXUYUI_clean_sbu_0, # of connection points: 4
#     Edge 16, Type (0, 0), BuildingBlock: EZIPEK_clean_linker_0, # of connection points: 2
#     Edge 17, Type (0, 0), BuildingBlock: EZIPEK_clean_linker_0, # of connection points: 2
#     Edge 18, Type (0, 0), BuildingBlock: EZIPEK_clean_linker_0, # of connection points: 2
#     Edge 19, Type (0, 0), BuildingBlock: EZIPEK_clean_linker_0, # of connection points: 2
#     Edge 20, Type (0, 0), BuildingBlock: EZIPEK_clean_linker_0, # of connection points: 2
#     Edge 21, Type (0, 0), BuildingBlock: EZIPEK_clean_linker_0, # of connection points: 2
#     Edge 22, Type (0, 0), BuildingBlock: EZIPEK_clean_linker_0, # of connection points: 2
#     Edge 23, Type (0, 0), BuildingBlock: EZIPEK_clean_linker_0, # of connection points: 2
#     Edge 24, Type (0, 0), BuildingBlock: EZIPEK_clean_linker_0, # of connection points: 2
#     Edge 25, Type (0, 0), BuildingBlock: EZIPEK_clean_linker_0, # of connection points: 2
#     Edge 26, Type (0, 0), BuildingBlock: EZIPEK_clean_linker_0, # of connection points: 2
#     Edge 27, Type (0, 0), BuildingBlock: EZIPEK_clean_linker_0, # of connection points: 2
#     Edge 28, Type (0, 0), BuildingBlock: EZIPEK_clean_linker_0, # of connection points: 2
#     Edge 29, Type (0, 0), BuildingBlock: EZIPEK_clean_linker_0, # of connection points: 2
#     Edge 30, Type (0, 0), BuildingBlock: EZIPEK_clean_linker_0, # of connection points: 2
#     Edge 31, Type (0, 0), BuildingBlock: EZIPEK_clean_linker_0, # of connection points: 2
#     Edge 32, Type (0, 0), BuildingBlock: EZIPEK_clean_linker_0, # of connection points: 2
#     Edge 33, Type (0, 0), BuildingBlock: EZIPEK_clean_linker_0, # of connection points: 2
#     Edge 34, Type (0, 0), BuildingBlock: EZIPEK_clean_linker_0, # of connection points: 2
#     Edge 35, Type (0, 0), BuildingBlock: EZIPEK_clean_linker_0, # of connection points: 2
#     Edge 36, Type (0, 0), BuildingBlock: EZIPEK_clean_linker_0, # of connection points: 2
#     Edge 37, Type (0, 0), BuildingBlock: EZIPEK_clean_linker_0, # of connection points: 2
#     Edge 38, Type (0, 0), BuildingBlock: EZIPEK_clean_linker_0, # of connection points: 2
#     Edge 39, Type (0, 0), BuildingBlock: EZIPEK_clean_linker_0, # of connection points: 2
#     Edge 40, Type (0, 0), BuildingBlock: EZIPEK_clean_linker_0, # of connection points: 2
#     Edge 41, Type (0, 0), BuildingBlock: EZIPEK_clean_linker_0, # of connection points: 2
#     Edge 42, Type (0, 0), BuildingBlock: EZIPEK_clean_linker_0, # of connection points: 2
#     Edge 43, Type (0, 0), BuildingBlock: EZIPEK_clean_linker_0, # of connection points: 2
#     Edge 44, Type (0, 0), BuildingBlock: EZIPEK_clean_linker_0, # of connection points: 2
#     Edge 45, Type (0, 0), BuildingBlock: EZIPEK_clean_linker_0, # of connection points: 2
#     Edge 46, Type (0, 0), BuildingBlock: EZIPEK_clean_linker_0, # of connection points: 2
#     Edge 47, Type (0, 0), BuildingBlock: EZIPEK_clean_linker_0, # of connection points: 2
# Relax obj value: 0.245
# Max RMSD: 0.177
# Mean RMSD: 0.176
data_MOF--net-gis--node1-UXUYUI_clean_sbu_0--edge1-EZIPEK_clean_linker_0
_symmetry_space_group_name_H-M    P1
_symmetry_Int_Tables_number       1
_symmetry_cell_setting            triclinic
loop_
_symmetry_equiv_pos_as_xyz
'x, y, z'
_cell_length_a     55.197259
_cell_length_b     55.194182
_cell_length_c     58.705536
_cell_angle_alpha  90.008115
_cell_angle_beta   90.002686
_cell_angle_gamma 89.995261
loop_
_atom_site_label
_atom_site_type_symbol
_atom_site_fract_x
_atom_site_fract_y
_atom_site_fract_z
_atom_type_partial_charge
Li0 Li 0.16709 0.61679 0.11835 0.0
Li1 Li 0.17788 0.58396 0.14357 0.0
Li2 Li 0.17162 0.57581 0.10273 0.0
Li3 Li 0.13786 0.58458 0.12781 0.0
C4 C 0.21755 0.60789 0.12467 0.0
N5 N 0.25914 0.63026 0.14034 0.0
C6 C 0.21599 0.62726 0.13992 0.0
C7 C 0.24029 0.5999 0.11738 0.0
C8 C 0.2372 0.63834 0.14765 0.0
C9 C 0.2611 0.61144 0.1255 0.0
C10 C 0.15114 0.61465 0.17075 0.0
C11 C 0.14288 0.60319 0.20964 0.0
N12 N 0.14942 0.62575 0.21665 0.0
C13 C 0.1576 0.6378 0.17833 0.0
C14 C 0.14356 0.59727 0.18652 0.0
C15 C 0.15666 0.64302 0.2016 0.0
C16 C 0.15166 0.66453 0.1206 0.0
N17 N 0.1696 0.65035 0.11205 0.0
C18 C 0.19049 0.68499 0.09759 0.0
C19 C 0.18859 0.65993 0.10033 0.0
C20 C 0.17264 0.7 0.10704 0.0
C21 C 0.15289 0.68963 0.11838 0.0
H22 H 0.13671 0.65631 0.12966 0.0
H23 H 0.20251 0.64816 0.09357 0.0
C24 C 0.20413 0.55131 0.17084 0.0
N25 N 0.19723 0.57491 0.16903 0.0
C26 C 0.21858 0.54379 0.18907 0.0
C27 C 0.21855 0.585 0.2031 0.0
C28 C 0.20442 0.59175 0.18454 0.0
C29 C 0.22566 0.56081 0.20547 0.0
H30 H 0.19849 0.53838 0.15806 0.0
H31 H 0.19936 0.61047 0.18253 0.0
C32 C 0.14576 0.60919 0.07633 0.0
N33 N 0.14765 0.62988 0.03353 0.0
C34 C 0.12438 0.61519 0.06493 0.0
C35 C 0.16812 0.61369 0.06598 0.0
C36 C 0.12571 0.62564 0.04329 0.0
C37 C 0.16869 0.62417 0.04433 0.0
C38 C 0.14625 0.53726 0.13412 0.0
C39 C 0.13614 0.52351 0.11654 0.0
C40 C 0.1417 0.53088 0.15676 0.0
C41 C 0.12108 0.50398 0.1219 0.0
C42 C 0.12656 0.51122 0.16143 0.0
N43 N 0.11661 0.49831 0.14405 0.0
C44 C 0.20389 0.54914 0.07464 0.0
C45 C 0.16313 0.5517 0.06193 0.0
C46 C 0.21007 0.53493 0.05581 0.0
N47 N 0.18076 0.55715 0.07725 0.0
C48 C 0.16848 0.5376 0.04294 0.0
C49 C 0.19212 0.52902 0.03986 0.0
H50 H 0.21742 0.55361 0.08726 0.0
H51 H 0.14485 0.55815 0.06461 0.0
C52 C 0.09181 0.58797 0.14934 0.0
N53 N 0.10432 0.57832 0.13156 0.0
C54 C 0.06671 0.58526 0.15059 0.0
C55 C 0.06788 0.56257 0.11534 0.0
C56 C 0.09292 0.56587 0.11468 0.0
C57 C 0.0546 0.57263 0.13333 0.0
H58 H 0.10111 0.59852 0.16209 0.0
H59 H 0.10322 0.55917 0.10033 0.0
O60 O 0.19702 0.59667 0.11693 0.0
O61 O 0.15222 0.60911 0.14804 0.0
O62 O 0.14466 0.59892 0.09751 0.0
O63 O 0.16084 0.5566 0.1292 0.0
H64 H 0.19859 0.63362 0.14583 0.0
H65 H 0.24187 0.58494 0.10557 0.0
H66 H 0.2362 0.65333 0.15948 0.0
H67 H 0.27882 0.60543 0.12 0.0
H68 H 0.13715 0.58985 0.22202 0.0
H69 H 0.1635 0.65153 0.16644 0.0
H70 H 0.13823 0.57941 0.18094 0.0
H71 H 0.16175 0.6608 0.2077 0.0
H72 H 0.20592 0.69264 0.08876 0.0
H73 H 0.13887 0.70088 0.1258 0.0
H74 H 0.22409 0.52502 0.19043 0.0
H75 H 0.22409 0.59855 0.2154 0.0
H76 H 0.10693 0.61177 0.07273 0.0
H77 H 0.18487 0.60913 0.07452 0.0
H78 H 0.1093 0.63037 0.03425 0.0
H79 H 0.18586 0.62775 0.03611 0.0
H80 H 0.13966 0.52801 0.09893 0.0
H81 H 0.14991 0.54086 0.17058 0.0
H82 H 0.11295 0.49334 0.10845 0.0
H83 H 0.1228 0.50616 0.17887 0.0
H84 H 0.22847 0.52847 0.05377 0.0
H85 H 0.1543 0.53323 0.03085 0.0
H86 H 0.05677 0.59351 0.16448 0.0
H87 H 0.05885 0.55306 0.10161 0.0
Li88 Li 0.63063 0.91772 0.36801 0.0
Li89 Li 0.66309 0.92597 0.39501 0.0
Li90 Li 0.67233 0.91706 0.3547 0.0
Li91 Li 0.65828 0.88529 0.37993 0.0
C92 C 0.64522 0.96661 0.36176 0.0
N93 N 0.62674 0.01146 0.35005 0.0
C94 C 0.6368 0.98236 0.37864 0.0
C95 C 0.64473 0.9739 0.33896 0.0
C96 C 0.62737 0.00488 0.37237 0.0
C97 C 0.63519 0.99658 0.33338 0.0
C98 C 0.63449 0.89402 0.42044 0.0
C99 C 0.65537 0.87956 0.45388 0.0
N100 N 0.63369 0.87398 0.46357 0.0
C101 C 0.61243 0.88815 0.43072 0.0
C102 C 0.65616 0.88969 0.43209 0.0
C103 C 0.6124 0.87803 0.45253 0.0
C104 C 0.58527 0.91075 0.34631 0.0
N105 N 0.5979 0.9253 0.36064 0.0
C106 C 0.56318 0.95054 0.36578 0.0
C107 C 0.58703 0.94432 0.37108 0.0
C108 C 0.55017 0.9376 0.34892 0.0
C109 C 0.56141 0.91634 0.34049 0.0
H110 H 0.59352 0.89446 0.3397 0.0
H111 H 0.59668 0.95432 0.38402 0.0
C112 C 0.69472 0.95285 0.42322 0.0
N113 N 0.67151 0.94514 0.42042 0.0
C114 C 0.70082 0.96734 0.44188 0.0
C115 C 0.65902 0.96549 0.45427 0.0
C116 C 0.65372 0.95118 0.43538 0.0
C117 C 0.68275 0.97369 0.45756 0.0
H118 H 0.7084 0.94783 0.4109 0.0
H119 H 0.63538 0.945 0.43252 0.0
C120 C 0.64201 0.88969 0.32626 0.0
N121 N 0.63364 0.88369 0.2802 0.0
C122 C 0.64569 0.86711 0.31604 0.0
C123 C 0.63396 0.90916 0.31308 0.0
C124 C 0.6414 0.86445 0.29272 0.0
C125 C 0.62985 0.90578 0.28982 0.0
C126 C 0.70871 0.89102 0.37612 0.0
C127 C 0.70648 0.87293 0.35959 0.0
C128 C 0.7313 0.89557 0.38596 0.0
C129 C 0.72692 0.85968 0.35316 0.0
C130 C 0.75134 0.88195 0.37906 0.0
N131 N 0.74875 0.86443 0.36294 0.0
C132 C 0.70364 0.94729 0.32959 0.0
C133 C 0.69807 0.90813 0.31376 0.0
C134 C 0.71906 0.95371 0.3117 0.0
N135 N 0.69336 0.92489 0.33015 0.0
C136 C 0.71313 0.91382 0.29554 0.0
C137 C 0.72366 0.93684 0.2944 0.0
H138 H 0.69982 0.96014 0.34303 0.0
H139 H 0.6903 0.89026 0.31483 0.0
C140 C 0.64412 0.83721 0.37518 0.0
N141 N 0.66012 0.8517 0.38628 0.0
C142 C 0.64584 0.8121 0.37711 0.0
C143 C 0.67986 0.81735 0.40266 0.0
C144 C 0.67757 0.8424 0.40014 0.0
C145 C 0.66408 0.80206 0.39072 0.0
H146 H 0.63042 0.84519 0.36436 0.0
H147 H 0.69012 0.85438 0.40868 0.0
O148 O 0.65476 0.94459 0.36763 0.0
O149 O 0.63472 0.90388 0.39906 0.0
O150 O 0.64648 0.89266 0.34902 0.0
O151 O 0.68898 0.9043 0.38274 0.0
H152 H 0.63731 0.97718 0.39639 0.0
H153 H 0.65188 0.96234 0.32571 0.0
H154 H 0.62058 0.01715 0.38525 0.0
H155 H 0.63462 0.0024 0.31579 0.0
H156 H 0.672 0.87613 0.46309 0.0
H157 H 0.59551 0.89138 0.4219 0.0
H158 H 0.67342 0.89413 0.42445 0.0
H159 H 0.59546 0.87339 0.46069 0.0
H160 H 0.55524 0.96484 0.37577 0.0
H161 H 0.55195 0.90333 0.33006 0.0
H162 H 0.71929 0.97354 0.44407 0.0
H163 H 0.64475 0.97027 0.46612 0.0
H164 H 0.65205 0.85186 0.32597 0.0
H165 H 0.63068 0.92661 0.32079 0.0
H166 H 0.64428 0.84712 0.28457 0.0
H167 H 0.6236 0.92071 0.27943 0.0
H168 H 0.68916 0.86909 0.35181 0.0
H169 H 0.73333 0.9095 0.39881 0.0
H170 H 0.72543 0.84562 0.3404 0.0
H171 H 0.76894 0.88529 0.38653 0.0
H172 H 0.72719 0.97156 0.31126 0.0
H173 H 0.71668 0.90037 0.28251 0.0
H174 H 0.63345 0.80062 0.36772 0.0
H175 H 0.69415 0.80997 0.41322 0.0
Li176 Li 0.32513 0.42439 0.60289 0.0
Li177 Li 0.36064 0.41688 0.62615 0.0
Li178 Li 0.32865 0.38492 0.61956 0.0
Li179 Li 0.32049 0.4196 0.64462 0.0
C180 C 0.35578 0.403 0.57492 0.0
N181 N 0.36404 0.41026 0.52901 0.0
C182 C 0.37546 0.41698 0.56776 0.0
C183 C 0.34052 0.3924 0.55875 0.0
C184 C 0.37929 0.4205 0.54446 0.0
C185 C 0.34493 0.39638 0.53562 0.0
C186 C 0.34767 0.46463 0.63924 0.0
C187 C 0.36201 0.48266 0.67416 0.0
N188 N 0.3662 0.50377 0.66289 0.0
C189 C 0.35187 0.48659 0.62805 0.0
C190 C 0.35258 0.46271 0.66251 0.0
C191 C 0.36135 0.50613 0.64028 0.0
C192 C 0.29323 0.43815 0.56685 0.0
N193 N 0.31503 0.44203 0.57702 0.0
C194 C 0.32602 0.47098 0.54873 0.0
C195 C 0.33118 0.4583 0.56862 0.0
C196 C 0.30394 0.46697 0.53764 0.0
C197 C 0.28721 0.45063 0.54692 0.0
H198 H 0.28069 0.42521 0.57402 0.0
H199 H 0.34834 0.46096 0.57714 0.0
C200 C 0.40792 0.40197 0.63503 0.0
N201 N 0.39448 0.42166 0.62922 0.0
C202 C 0.43307 0.40372 0.6365 0.0
C203 C 0.43013 0.44592 0.62568 0.0
C204 C 0.40499 0.44337 0.62448 0.0
C205 C 0.44433 0.42587 0.63167 0.0
H206 H 0.39907 0.38483 0.63825 0.0
H207 H 0.39398 0.45853 0.61921 0.0
C208 C 0.28027 0.39151 0.61818 0.0
N209 N 0.2412 0.36036 0.61526 0.0
C210 C 0.26481 0.38847 0.63683 0.0
C211 C 0.27569 0.37893 0.59797 0.0
C212 C 0.24518 0.3726 0.63503 0.0
C213 C 0.25591 0.36318 0.59687 0.0
C214 C 0.35378 0.38613 0.66867 0.0
C215 C 0.34586 0.36392 0.67737 0.0
C216 C 0.37077 0.39969 0.68092 0.0
C217 C 0.35467 0.3559 0.69837 0.0
C218 C 0.37917 0.39103 0.70183 0.0
N219 N 0.37099 0.36951 0.71007 0.0
C220 C 0.33858 0.3391 0.60109 0.0
C221 C 0.30783 0.33898 0.62934 0.0
C222 C 0.33736 0.31392 0.59928 0.0
N223 N 0.32406 0.35102 0.61607 0.0
C224 C 0.30582 0.31384 0.62791 0.0
C225 C 0.32098 0.30114 0.61298 0.0
H226 H 0.35156 0.34909 0.591 0.0
H227 H 0.29696 0.34881 0.64153 0.0
C228 C 0.2919 0.45149 0.67074 0.0
N229 N 0.30304 0.42949 0.67072 0.0
C230 C 0.27759 0.45846 0.68924 0.0
C231 C 0.28678 0.42012 0.7073 0.0
C232 C 0.30074 0.41385 0.68846 0.0
C233 C 0.27494 0.44254 0.70765 0.0
H234 H 0.29381 0.46338 0.6562 0.0
H235 H 0.30911 0.39623 0.68772 0.0
O236 O 0.35135 0.39989 0.59765 0.0
O237 O 0.33841 0.44534 0.62743 0.0
O238 O 0.29963 0.4069 0.61967 0.0
O239 O 0.34548 0.3941 0.64798 0.0
H240 H 0.38748 0.42526 0.58005 0.0
H241 H 0.32533 0.38137 0.56401 0.0
H242 H 0.39434 0.43144 0.53867 0.0
H243 H 0.33314 0.38847 0.52291 0.0
H244 H 0.3659 0.48139 0.69218 0.0
H245 H 0.34794 0.48852 0.61009 0.0
H246 H 0.34886 0.44613 0.67158 0.0
H247 H 0.36481 0.52319 0.63181 0.0
H248 H 0.33921 0.48354 0.54187 0.0
H249 H 0.27 0.4473 0.53863 0.0
H250 H 0.44368 0.3879 0.64096 0.0
H251 H 0.43845 0.46315 0.62158 0.0
H252 H 0.26792 0.39821 0.65253 0.0
H253 H 0.28741 0.38112 0.58337 0.0
H254 H 0.23313 0.37 0.64935 0.0
H255 H 0.25227 0.35319 0.58139 0.0
H256 H 0.33291 0.35305 0.66813 0.0
H257 H 0.37772 0.41656 0.67427 0.0
H258 H 0.34854 0.33882 0.70534 0.0
H259 H 0.3923 0.40138 0.71146 0.0
H260 H 0.34938 0.30445 0.58773 0.0
H261 H 0.2932 0.30432 0.63885 0.0
H262 H 0.26839 0.4758 0.68907 0.0
H263 H 0.28471 0.40739 0.72121 0.0
Li264 Li 0.83033 0.10993 0.87739 0.0
Li265 Li 0.82325 0.07463 0.8533 0.0
Li266 Li 0.82741 0.06938 0.89505 0.0
Li267 Li 0.8625 0.07791 0.87094 0.0
C268 C 0.78255 0.09724 0.88938 0.0
N269 N 0.74374 0.11719 0.91247 0.0
C270 C 0.75998 0.09922 0.87874 0.0
C271 C 0.78531 0.10525 0.9118 0.0
C272 C 0.7406 0.10941 0.89068 0.0
C273 C 0.7655 0.1153 0.92319 0.0
C274 C 0.84489 0.10706 0.82664 0.0
C275 C 0.85416 0.10109 0.78688 0.0
N276 N 0.83835 0.11905 0.78135 0.0
C277 C 0.82891 0.12563 0.82058 0.0
C278 C 0.85779 0.09483 0.80969 0.0
C279 C 0.82578 0.13135 0.79759 0.0
C280 C 0.84579 0.15692 0.88583 0.0
N281 N 0.82568 0.14375 0.88083 0.0
C282 C 0.80171 0.17971 0.87842 0.0
C283 C 0.80387 0.15455 0.87709 0.0
C284 C 0.82226 0.19364 0.88336 0.0
C285 C 0.84447 0.18211 0.88723 0.0
H286 H 0.86294 0.14782 0.88836 0.0
H287 H 0.78831 0.14376 0.87248 0.0
C288 C 0.81158 0.04497 0.81475 0.0
N289 N 0.80622 0.06539 0.82671 0.0
C290 C 0.79962 0.04008 0.79428 0.0
C291 C 0.77655 0.07699 0.79929 0.0
C292 C 0.7889 0.08114 0.81958 0.0
C293 C 0.78206 0.05638 0.7864 0.0
H294 H 0.82532 0.03268 0.82087 0.0
H295 H 0.78518 0.09728 0.8294 0.0
C296 C 0.86029 0.09936 0.92108 0.0
N297 N 0.87615 0.10958 0.96474 0.0
C298 C 0.87979 0.08662 0.93042 0.0
C299 C 0.84928 0.11775 0.93379 0.0
C300 C 0.88741 0.0919 0.95256 0.0
C301 C 0.85744 0.12253 0.95586 0.0
C302 C 0.85553 0.02971 0.86546 0.0
C303 C 0.85764 0.01068 0.88105 0.0
C304 C 0.8687 0.02897 0.84515 0.0
C305 C 0.8732 0.9914 0.87619 0.0
C306 C 0.88409 0.00939 0.84091 0.0
N307 N 0.88602 0.99117 0.8564 0.0
C308 C 0.79461 0.04843 0.92774 0.0
C309 C 0.83662 0.0418 0.93349 0.0
C310 C 0.78911 0.03577 0.94769 0.0
N311 N 0.81812 0.05165 0.92137 0.0
C312 C 0.83197 0.02883 0.95333 0.0
C313 C 0.80802 0.0259 0.96065 0.0
H314 H 0.78012 0.05562 0.91739 0.0
H315 H 0.85502 0.04378 0.92755 0.0
C316 C 0.90878 0.08996 0.85507 0.0
N317 N 0.89652 0.07362 0.86801 0.0
C318 C 0.93399 0.08882 0.85353 0.0
C319 C 0.93341 0.05376 0.87827 0.0
C320 C 0.90824 0.05571 0.87951 0.0
C321 C 0.94645 0.07066 0.86538 0.0
H322 H 0.89901 0.10418 0.84636 0.0
H323 H 0.89812 0.04324 0.89003 0.0
O324 O 0.80184 0.08776 0.87774 0.0
O325 O 0.84782 0.10088 0.84904 0.0
O326 O 0.85275 0.09458 0.89928 0.0
O327 O 0.84061 0.0489 0.87009 0.0
H328 H 0.75744 0.09299 0.86144 0.0
H329 H 0.80244 0.1033 0.92042 0.0
H330 H 0.72305 0.11111 0.88263 0.0
H331 H 0.76741 0.12152 0.94057 0.0
H332 H 0.86392 0.09167 0.77358 0.0
H333 H 0.81878 0.13529 0.83345 0.0
H334 H 0.87049 0.08068 0.81407 0.0
H335 H 0.81332 0.14554 0.79264 0.0
H336 H 0.78441 0.18827 0.8751 0.0
H337 H 0.86064 0.19252 0.8909 0.0
H338 H 0.80423 0.02406 0.78454 0.0
H339 H 0.76313 0.08992 0.79348 0.0
H340 H 0.88886 0.07265 0.92077 0.0
H341 H 0.83474 0.12846 0.92667 0.0
H342 H 0.90232 0.08198 0.96005 0.0
H343 H 0.84898 0.13663 0.96589 0.0
H344 H 0.84733 0.01074 0.8967 0.0
H345 H 0.86727 0.0435 0.8329 0.0
H346 H 0.87506 0.9766 0.88814 0.0
H347 H 0.89454 0.00871 0.82534 0.0
H348 H 0.77042 0.0336 0.95293 0.0
H349 H 0.8469 0.0212 0.96293 0.0
H350 H 0.9437 0.10218 0.84356 0.0
H351 H 0.94267 0.03969 0.88773 0.0
Li352 Li 0.13593 0.41903 0.86985 0.0
Li353 Li 0.17031 0.42627 0.89539 0.0
Li354 Li 0.17565 0.4226 0.85364 0.0
Li355 Li 0.16755 0.38654 0.87613 0.0
C356 C 0.14311 0.46741 0.86842 0.0
N357 N 0.11269 0.50687 0.86378 0.0
C358 C 0.14014 0.48368 0.88645 0.0
C359 C 0.13085 0.47139 0.84793 0.0
C360 C 0.12463 0.50348 0.88379 0.0
C361 C 0.11547 0.49138 0.84594 0.0
C362 C 0.1364 0.39381 0.91884 0.0
C363 C 0.13984 0.36811 0.95194 0.0
N364 N 0.11917 0.37796 0.96049 0.0
C365 C 0.115 0.40341 0.92782 0.0
C366 C 0.14877 0.37578 0.93088 0.0
C367 C 0.10667 0.39528 0.94895 0.0
C368 C 0.09021 0.40902 0.85133 0.0
N369 N 0.1021 0.42385 0.86607 0.0
C370 C 0.06491 0.44245 0.87737 0.0
C371 C 0.09005 0.44044 0.87892 0.0
C372 C 0.05219 0.42689 0.86279 0.0
C373 C 0.06503 0.41022 0.84943 0.0
H374 H 0.10022 0.39578 0.84156 0.0
H375 H 0.09985 0.45161 0.8909 0.0
C376 C 0.203 0.45049 0.92499 0.0
N377 N 0.17971 0.44298 0.92215 0.0
C378 C 0.20948 0.46385 0.94427 0.0
C379 C 0.16785 0.46166 0.95703 0.0
C380 C 0.16221 0.44835 0.93761 0.0
C381 C 0.19165 0.46964 0.96036 0.0
H382 H 0.21644 0.44642 0.91215 0.0
H383 H 0.14373 0.44297 0.93451 0.0
C384 C 0.15445 0.39223 0.82496 0.0
N385 N 0.16224 0.38378 0.77915 0.0
C386 C 0.16883 0.37274 0.818 0.0
C387 C 0.14371 0.40718 0.80861 0.0
C388 C 0.17262 0.36882 0.79476 0.0
C389 C 0.14797 0.40268 0.78554 0.0
C390 C 0.21515 0.39858 0.8899 0.0
C391 C 0.23742 0.39504 0.87906 0.0
C392 C 0.21253 0.39213 0.91278 0.0
C393 C 0.25658 0.38473 0.89121 0.0
C394 C 0.23212 0.3819 0.92436 0.0
N395 N 0.25355 0.3784 0.91342 0.0
C396 C 0.18981 0.45498 0.81812 0.0
C397 C 0.20986 0.41696 0.8196 0.0
C398 C 0.20229 0.46113 0.79823 0.0
N399 N 0.19359 0.43306 0.82809 0.0
C400 C 0.22252 0.42224 0.79973 0.0
C401 C 0.21852 0.4444 0.78879 0.0
H402 H 0.17691 0.4675 0.82537 0.0
H403 H 0.21248 0.39972 0.82799 0.0
C404 C 0.15184 0.33925 0.88314 0.0
N405 N 0.17195 0.35259 0.87853 0.0
C406 C 0.1532 0.31403 0.88395 0.0
C407 C 0.19596 0.31675 0.87519 0.0
C408 C 0.19376 0.34193 0.8745 0.0
C409 C 0.17545 0.30265 0.87984 0.0
H410 H 0.13467 0.34824 0.88588 0.0
H411 H 0.20929 0.35287 0.87017 0.0
O412 O 0.15811 0.44783 0.87078 0.0
O413 O 0.1446 0.40134 0.89796 0.0
O414 O 0.15102 0.39672 0.84765 0.0
O415 O 0.19618 0.40849 0.87813 0.0
H416 H 0.1497 0.48107 0.90233 0.0
H417 H 0.133 0.45905 0.83378 0.0
H418 H 0.12209 0.51616 0.89764 0.0
H419 H 0.10573 0.49457 0.83024 0.0
H420 H 0.14928 0.35422 0.96144 0.0
H421 H 0.105 0.41714 0.9187 0.0
H422 H 0.16492 0.36752 0.92398 0.0
H423 H 0.09023 0.40273 0.95616 0.0
H424 H 0.0554 0.45536 0.88801 0.0
H425 H 0.05561 0.39789 0.83814 0.0
H426 H 0.22798 0.46998 0.94643 0.0
H427 H 0.1537 0.46615 0.96912 0.0
H428 H 0.17723 0.36095 0.83042 0.0
H429 H 0.1323 0.42215 0.81369 0.0
H430 H 0.18389 0.35394 0.78914 0.0
H431 H 0.13993 0.41423 0.77271 0.0
H432 H 0.23986 0.40011 0.86141 0.0
H433 H 0.19569 0.39533 0.92159 0.0
H434 H 0.27387 0.38177 0.883 0.0
H435 H 0.2303 0.37683 0.94208 0.0
H436 H 0.19898 0.4784 0.79005 0.0
H437 H 0.23503 0.40905 0.79275 0.0
H438 H 0.13706 0.30349 0.88739 0.0
H439 H 0.21328 0.30832 0.87168 0.0
Li440 Li 0.82714 0.92416 0.10638 0.0
Li441 Li 0.86238 0.91789 0.13076 0.0
Li442 Li 0.83328 0.88536 0.12354 0.0
Li443 Li 0.82283 0.91993 0.14737 0.0
C444 C 0.86386 0.88279 0.09004 0.0
N445 N 0.88166 0.84187 0.06871 0.0
C446 C 0.88659 0.87358 0.09601 0.0
C447 C 0.85026 0.87128 0.07311 0.0
C448 C 0.89526 0.85287 0.08502 0.0
C449 C 0.85954 0.85057 0.06258 0.0
C450 C 0.85503 0.965 0.13118 0.0
C451 C 0.88414 0.98977 0.1511 0.0
N452 N 0.88782 0.00283 0.13175 0.0
C453 C 0.85902 0.97873 0.11152 0.0
C454 C 0.86758 0.97064 0.15117 0.0
C455 C 0.87568 0.99777 0.11216 0.0
C456 C 0.79994 0.9592 0.08198 0.0
N457 N 0.81663 0.94115 0.0802 0.0
C458 C 0.82299 0.95005 0.04092 0.0
C459 C 0.82797 0.93623 0.06019 0.0
C460 C 0.80623 0.96905 0.04238 0.0
C461 C 0.79416 0.97331 0.06301 0.0
H462 H 0.79171 0.9631 0.09828 0.0
H463 H 0.84153 0.92215 0.05941 0.0
C464 C 0.90832 0.9145 0.15162 0.0
N465 N 0.89588 0.92439 0.13393 0.0
C466 C 0.93344 0.91692 0.1528 0.0
C467 C 0.93235 0.94014 0.11784 0.0
C468 C 0.90729 0.93702 0.11718 0.0
C469 C 0.94561 0.92964 0.13562 0.0
H470 H 0.89885 0.90401 0.16435 0.0
H471 H 0.89699 0.94403 0.10297 0.0
C472 C 0.7822 0.91008 0.11225 0.0
N473 N 0.74064 0.92337 0.08918 0.0
C474 C 0.7655 0.92575 0.12242 0.0
C475 C 0.77771 0.90107 0.0904 0.0
C476 C 0.7446 0.93225 0.11048 0.0
C477 C 0.75663 0.90806 0.07899 0.0
C478 C 0.84504 0.88986 0.17509 0.0
C479 C 0.83164 0.86945 0.18139 0.0
C480 C 0.85416 0.9053 0.19191 0.0
C481 C 0.82744 0.86491 0.20447 0.0
C482 C 0.84955 0.90014 0.2148 0.0
N483 N 0.83639 0.88023 0.22055 0.0
C484 C 0.84922 0.83773 0.12867 0.0
C485 C 0.81122 0.84092 0.10996 0.0
C486 C 0.84858 0.81255 0.12692 0.0
N487 N 0.8307 0.85129 0.12025 0.0
C488 C 0.8099 0.81576 0.10773 0.0
C489 C 0.82874 0.80144 0.11637 0.0
H490 H 0.86443 0.84654 0.13681 0.0
H491 H 0.79672 0.85216 0.10356 0.0
C492 C 0.80872 0.95079 0.18394 0.0
N493 N 0.80498 0.92914 0.17344 0.0
C494 C 0.79636 0.95632 0.20405 0.0
C495 C 0.77639 0.91733 0.20177 0.0
C496 C 0.78891 0.91268 0.18166 0.0
C497 C 0.78031 0.93924 0.21321 0.0
H498 H 0.82148 0.96359 0.17688 0.0
H499 H 0.78621 0.89574 0.17276 0.0
O500 O 0.85472 0.90262 0.10106 0.0
O501 O 0.83901 0.94609 0.13084 0.0
O502 O 0.80288 0.90367 0.12358 0.0
O503 O 0.84889 0.89493 0.15257 0.0
H504 H 0.89731 0.88214 0.10916 0.0
H505 H 0.83256 0.87807 0.06841 0.0
H506 H 0.91276 0.84548 0.08955 0.0
H507 H 0.84912 0.84136 0.0496 0.0
H508 H 0.89413 0.9942 0.1664 0.0
H509 H 0.84952 0.97465 0.09588 0.0
H510 H 0.86481 0.96013 0.1665 0.0
H511 H 0.87901 0.00848 0.09705 0.0
H512 H 0.83264 0.94648 0.0252 0.0
H513 H 0.78123 0.98797 0.06459 0.0
H514 H 0.94336 0.90842 0.16658 0.0
H515 H 0.94141 0.94979 0.10422 0.0
H516 H 0.76872 0.93298 0.13927 0.0
H517 H 0.79056 0.88913 0.08217 0.0
H518 H 0.73155 0.94442 0.11811 0.0
H519 H 0.75301 0.90138 0.062 0.0
H520 H 0.82426 0.85742 0.16861 0.0
H521 H 0.86444 0.92126 0.18733 0.0
H522 H 0.81698 0.84926 0.20959 0.0
H523 H 0.85637 0.91201 0.22798 0.0
H524 H 0.86333 0.80184 0.13376 0.0
H525 H 0.79433 0.80754 0.09958 0.0
H526 H 0.79956 0.97342 0.21257 0.0
H527 H 0.76395 0.90393 0.20846 0.0
Li528 Li 0.33242 0.61052 0.37612 0.0
Li529 Li 0.32403 0.57534 0.35263 0.0
Li530 Li 0.32881 0.57031 0.39436 0.0
Li531 Li 0.36358 0.57787 0.36924 0.0
C532 C 0.28423 0.59816 0.38917 0.0
N533 N 0.24516 0.61664 0.41293 0.0
C534 C 0.26228 0.60247 0.37801 0.0
C535 C 0.2862 0.60296 0.41246 0.0
C536 C 0.24276 0.61192 0.3903 0.0
C537 C 0.26627 0.61236 0.42416 0.0
C538 C 0.34602 0.60605 0.32492 0.0
C539 C 0.35182 0.59572 0.28538 0.0
N540 N 0.33882 0.61561 0.27923 0.0
C541 C 0.33292 0.62652 0.31822 0.0
C542 C 0.35577 0.59065 0.3084 0.0
C543 C 0.32943 0.631 0.29502 0.0
C544 C 0.34934 0.65735 0.38281 0.0
N545 N 0.32868 0.6445 0.3792 0.0
C546 C 0.30536 0.68091 0.37728 0.0
C547 C 0.30691 0.65567 0.37641 0.0
C548 C 0.32646 0.6945 0.38081 0.0
C549 C 0.34863 0.68258 0.38374 0.0
H550 H 0.36643 0.64794 0.38458 0.0
H551 H 0.29088 0.64513 0.37291 0.0
C552 C 0.30917 0.54393 0.31661 0.0
N553 N 0.30616 0.56592 0.3267 0.0
C554 C 0.29667 0.53843 0.29657 0.0
C555 C 0.27815 0.57817 0.29803 0.0
C556 C 0.29072 0.58276 0.31811 0.0
C557 C 0.28131 0.55592 0.287 0.0
H558 H 0.32144 0.53084 0.32395 0.0
H559 H 0.28864 0.6 0.32663 0.0
C560 C 0.36312 0.60344 0.41819 0.0
N561 N 0.38032 0.6216 0.45901 0.0
C562 C 0.38531 0.59549 0.4269 0.0
C563 C 0.34985 0.6209 0.43012 0.0
C564 C 0.39364 0.60479 0.4476 0.0
C565 C 0.35881 0.62979 0.45075 0.0
C566 C 0.35605 0.52973 0.3676 0.0
C567 C 0.35902 0.5142 0.3862 0.0
C568 C 0.36835 0.52498 0.34728 0.0
C569 C 0.37456 0.49433 0.38425 0.0
C570 C 0.38377 0.50495 0.34602 0.0
N571 N 0.38654 0.49018 0.36438 0.0
C572 C 0.29688 0.54149 0.4202 0.0
C573 C 0.33421 0.55074 0.43829 0.0
C574 C 0.28993 0.52698 0.43857 0.0
N575 N 0.31874 0.55289 0.42041 0.0
C576 C 0.32796 0.53659 0.457 0.0
C577 C 0.30573 0.52441 0.45709 0.0
H578 H 0.28512 0.5433 0.40556 0.0
H579 H 0.35172 0.55938 0.43775 0.0
C580 C 0.40949 0.5869 0.35066 0.0
N581 N 0.39735 0.57262 0.36569 0.0
C582 C 0.43465 0.58536 0.34893 0.0
C583 C 0.43425 0.55394 0.37768 0.0
C584 C 0.40913 0.55628 0.37904 0.0
C585 C 0.44719 0.56891 0.36275 0.0
H586 H 0.39969 0.59997 0.34051 0.0
H587 H 0.39914 0.54562 0.39128 0.0
O588 O 0.30347 0.58891 0.37731 0.0
O589 O 0.3491 0.60102 0.34755 0.0
O590 O 0.35486 0.59465 0.39778 0.0
O591 O 0.34098 0.54933 0.36923 0.0
H592 H 0.26035 0.59865 0.36003 0.0
H593 H 0.3028 0.59919 0.42149 0.0
H594 H 0.22571 0.61546 0.38185 0.0
H595 H 0.26757 0.61617 0.4422 0.0
H596 H 0.35907 0.58383 0.27241 0.0
H597 H 0.3253 0.63866 0.33078 0.0
H598 H 0.3661 0.57485 0.31331 0.0
H599 H 0.31917 0.64666 0.28959 0.0
H600 H 0.28806 0.68976 0.37471 0.0
H601 H 0.36521 0.69272 0.3863 0.0
H602 H 0.29926 0.52104 0.28838 0.0
H603 H 0.26626 0.5919 0.29103 0.0
H604 H 0.39594 0.58215 0.41788 0.0
H605 H 0.33298 0.62782 0.42346 0.0
H606 H 0.41072 0.59867 0.45458 0.0
H607 H 0.3487 0.64329 0.46014 0.0
H608 H 0.3495 0.51746 0.402 0.0
H609 H 0.36619 0.53675 0.3327 0.0
H610 H 0.37712 0.48222 0.39853 0.0
H611 H 0.39355 0.50117 0.33045 0.0
H612 H 0.27273 0.51753 0.43819 0.0
H613 H 0.34059 0.53462 0.47101 0.0
H614 H 0.4443 0.59724 0.33738 0.0
H615 H 0.44359 0.54128 0.38871 0.0
Li616 Li 0.66606 0.11463 0.6218 0.0
Li617 Li 0.67488 0.07882 0.64472 0.0
Li618 Li 0.6694 0.07487 0.60425 0.0
Li619 Li 0.63586 0.08422 0.62984 0.0
C620 C 0.71536 0.10388 0.62906 0.0
N621 N 0.75606 0.1247 0.64831 0.0
C622 C 0.71336 0.11776 0.64892 0.0
C623 C 0.73809 0.10058 0.61904 0.0
C624 C 0.73414 0.12812 0.65838 0.0
C625 C 0.75843 0.11128 0.62901 0.0
C626 C 0.6341 0.1105 0.66688 0.0
C627 C 0.60449 0.0967 0.69423 0.0
N628 N 0.59585 0.11969 0.69608 0.0
C629 C 0.62519 0.13406 0.66939 0.0
C630 C 0.62393 0.09176 0.67972 0.0
C631 C 0.60576 0.13831 0.68412 0.0
C632 C 0.6491 0.16155 0.61738 0.0
N633 N 0.66996 0.14849 0.61654 0.0
C634 C 0.69305 0.18442 0.60978 0.0
C635 C 0.69164 0.15927 0.61208 0.0
C636 C 0.67194 0.19832 0.61195 0.0
C637 C 0.6497 0.18671 0.61538 0.0
H638 H 0.63202 0.15238 0.61999 0.0
H639 H 0.70786 0.14851 0.61047 0.0
C640 C 0.71436 0.05488 0.66542 0.0
N641 N 0.69387 0.06785 0.66959 0.0
C642 C 0.73003 0.049 0.68325 0.0
C643 C 0.70307 0.06981 0.70923 0.0
C644 C 0.68791 0.07518 0.69096 0.0
C645 C 0.72453 0.05697 0.70531 0.0
H646 H 0.71892 0.04984 0.64815 0.0
H647 H 0.6719 0.08599 0.69373 0.0
C648 C 0.64562 0.1103 0.57935 0.0
N649 N 0.64986 0.13223 0.53723 0.0
C650 C 0.62491 0.11607 0.5668 0.0
C651 C 0.66852 0.11572 0.5705 0.0
C652 C 0.62743 0.12715 0.54553 0.0
C653 C 0.67027 0.12679 0.54917 0.0
C654 C 0.6642 0.0333 0.63764 0.0
C655 C 0.68224 0.02032 0.62621 0.0
C656 C 0.65583 0.02502 0.65873 0.0
C657 C 0.69181 0.99944 0.6362 0.0
C658 C 0.66592 0.00409 0.66819 0.0
N659 N 0.68356 0.99185 0.65683 0.0
C660 C 0.70054 0.05496 0.5702 0.0
C661 C 0.65819 0.04954 0.56516 0.0
C662 C 0.70529 0.0419 0.55029 0.0
N663 N 0.67729 0.05831 0.57719 0.0
C664 C 0.66209 0.03653 0.54518 0.0
C665 C 0.68584 0.03252 0.53773 0.0
H666 H 0.71531 0.06214 0.58022 0.0
H667 H 0.63994 0.05255 0.57126 0.0
C668 C 0.58782 0.09929 0.62788 0.0
N669 N 0.6021 0.08019 0.63361 0.0
C670 C 0.56271 0.09747 0.62974 0.0
C671 C 0.56756 0.05645 0.64364 0.0
C672 C 0.59261 0.059 0.64135 0.0
C673 C 0.55246 0.07583 0.6376 0.0
H674 H 0.59599 0.11586 0.62175 0.0
H675 H 0.60447 0.0441 0.64564 0.0
O676 O 0.69544 0.09279 0.61984 0.0
O677 O 0.65281 0.10585 0.65215 0.0
O678 O 0.64334 0.09953 0.60022 0.0
O679 O 0.6549 0.05405 0.62829 0.0
H680 H 0.69602 0.12052 0.65703 0.0
H681 H 0.74002 0.08978 0.60377 0.0
H682 H 0.73284 0.13885 0.67375 0.0
H683 H 0.77613 0.10886 0.62142 0.0
H684 H 0.59626 0.08226 0.70398 0.0
H685 H 0.6333 0.14899 0.6603 0.0
H686 H 0.63077 0.0735 0.67824 0.0
H687 H 0.59863 0.15644 0.68611 0.0
H688 H 0.71042 0.193 0.60684 0.0
H689 H 0.63308 0.19704 0.61681 0.0
H690 H 0.74663 0.03922 0.67979 0.0
H691 H 0.69856 0.07633 0.72611 0.0
H692 H 0.60706 0.11202 0.57345 0.0
H693 H 0.68477 0.11146 0.57996 0.0
H694 H 0.61154 0.13171 0.53563 0.0
H695 H 0.68786 0.13108 0.54212 0.0
H696 H 0.68899 0.02638 0.60992 0.0
H697 H 0.64181 0.03466 0.6678 0.0
H698 H 0.70588 0.98931 0.62759 0.0
H699 H 0.65972 0.9976 0.68456 0.0
H700 H 0.72381 0.03896 0.54485 0.0
H701 H 0.64678 0.02942 0.53576 0.0
H702 H 0.55139 0.11267 0.62494 0.0
H703 H 0.56 0.03952 0.64969 0.0
Li704 Li 0.82405 0.41715 0.85357 0.0
Li705 Li 0.82925 0.4228 0.89417 0.0
Li706 Li 0.8641 0.41239 0.86862 0.0
Li707 Li 0.83375 0.38158 0.87832 0.0
C708 C 0.8373 0.46268 0.8579 0.0
N709 N 0.8228 0.50364 0.83455 0.0
C710 C 0.82026 0.47838 0.86751 0.0
C711 C 0.84719 0.46795 0.83656 0.0
C712 C 0.81313 0.49898 0.85541 0.0
C713 C 0.83954 0.48869 0.82498 0.0
C714 C 0.78408 0.39774 0.89099 0.0
C715 C 0.76411 0.37665 0.92169 0.0
N716 N 0.74285 0.38749 0.91592 0.0
C717 C 0.76195 0.40842 0.88518 0.0
C718 C 0.78511 0.38151 0.90923 0.0
C719 C 0.74135 0.4031 0.89806 0.0
C720 C 0.81014 0.41678 0.8076 0.0
N721 N 0.80525 0.42687 0.82821 0.0
C722 C 0.77091 0.44768 0.81299 0.0
C723 C 0.78625 0.44226 0.83119 0.0
C724 C 0.77525 0.43693 0.79177 0.0
C725 C 0.79529 0.42166 0.78898 0.0
H726 H 0.82511 0.40434 0.8058 0.0
H727 H 0.78266 0.44981 0.84783 0.0
C728 C 0.84027 0.44922 0.93248 0.0
N729 N 0.821 0.44132 0.92015 0.0
C730 C 0.83669 0.46324 0.95191 0.0
C731 C 0.79343 0.46104 0.94547 0.0
C732 C 0.79787 0.44706 0.92607 0.0
C733 C 0.81307 0.46923 0.95849 0.0
H734 H 0.85845 0.44456 0.92717 0.0
H735 H 0.78289 0.44104 0.91572 0.0
C736 C 0.86437 0.38159 0.83355 0.0
N737 N 0.90082 0.3648 0.80541 0.0
C738 C 0.87184 0.35742 0.83483 0.0
C739 C 0.87522 0.39712 0.81776 0.0
C740 C 0.89034 0.3493 0.82049 0.0
C741 C 0.8937 0.38832 0.80376 0.0
C742 C 0.86242 0.3889 0.91928 0.0
C743 C 0.88595 0.38014 0.92241 0.0
C744 C 0.84588 0.38777 0.93728 0.0
C745 C 0.89237 0.36988 0.94331 0.0
C746 C 0.853 0.37743 0.95794 0.0
N747 N 0.87589 0.36873 0.96049 0.0
C748 C 0.90728 0.43937 0.8624 0.0
C749 C 0.91227 0.39673 0.86459 0.0
C750 C 0.93235 0.44262 0.86105 0.0
N751 N 0.89786 0.4167 0.86431 0.0
C752 C 0.93733 0.3991 0.86304 0.0
C753 C 0.94756 0.42227 0.86155 0.0
H754 H 0.89537 0.45493 0.86251 0.0
H755 H 0.9043 0.37897 0.86658 0.0
C756 C 0.80862 0.33767 0.87382 0.0
N757 N 0.82901 0.34789 0.88259 0.0
C758 C 0.80542 0.3126 0.87467 0.0
C759 C 0.84412 0.30914 0.89376 0.0
C760 C 0.8466 0.33425 0.8925 0.0
C761 C 0.82347 0.29817 0.88452 0.0
H762 H 0.79515 0.34897 0.86568 0.0
H763 H 0.86295 0.34271 0.89866 0.0
O764 O 0.84424 0.44225 0.86934 0.0
O765 O 0.80438 0.40271 0.87844 0.0
O766 O 0.84645 0.38993 0.84761 0.0
O767 O 0.85596 0.39921 0.89893 0.0
H768 H 0.81247 0.4746 0.88403 0.0
H769 H 0.86053 0.45608 0.82898 0.0
H770 H 0.79985 0.51122 0.86257 0.0
H771 H 0.84692 0.49291 0.80837 0.0
H772 H 0.7647 0.36417 0.93589 0.0
H773 H 0.7607 0.42077 0.87094 0.0
H774 H 0.80184 0.37251 0.91359 0.0
H775 H 0.72416 0.41138 0.89385 0.0
H776 H 0.75545 0.45944 0.81557 0.0
H777 H 0.7989 0.41303 0.77275 0.0
H778 H 0.85215 0.46937 0.9617 0.0
H779 H 0.77501 0.46552 0.95021 0.0
H780 H 0.86352 0.34508 0.84679 0.0
H781 H 0.86958 0.41583 0.81647 0.0
H782 H 0.89638 0.33068 0.82137 0.0
H783 H 0.90238 0.4002 0.79159 0.0
H784 H 0.89912 0.38112 0.90883 0.0
H785 H 0.82785 0.3951 0.93552 0.0
H786 H 0.91047 0.36288 0.94588 0.0
H787 H 0.84035 0.37643 0.97199 0.0
H788 H 0.93983 0.46073 0.8601 0.0
H789 H 0.94869 0.38311 0.86365 0.0
H790 H 0.78939 0.30449 0.86723 0.0
H791 H 0.85846 0.29832 0.9012 0.0
Li792 Li 0.33425 0.11327 0.61761 0.0
Li793 Li 0.36479 0.0831 0.62848 0.0
Li794 Li 0.33069 0.07145 0.60284 0.0
Li795 Li 0.32474 0.0781 0.64324 0.0
C796 C 0.36192 0.10503 0.57664 0.0
N797 N 0.37181 0.12406 0.53409 0.0
C798 C 0.38548 0.11215 0.57103 0.0
C799 C 0.34347 0.1073 0.56047 0.0
C800 C 0.3901 0.12183 0.54948 0.0
C801 C 0.34881 0.11702 0.53909 0.0
C802 C 0.36495 0.11528 0.66176 0.0
C803 C 0.3944 0.11105 0.69186 0.0
N804 N 0.40241 0.13391 0.68762 0.0
C805 C 0.37334 0.13881 0.65783 0.0
C806 C 0.3754 0.10135 0.67905 0.0
C807 C 0.39232 0.14788 0.67106 0.0
C808 C 0.31067 0.15729 0.62481 0.0
N809 N 0.32891 0.14682 0.61275 0.0
C810 C 0.34134 0.18528 0.59824 0.0
C811 C 0.34408 0.1602 0.59951 0.0
C812 C 0.3231 0.19653 0.61099 0.0
C813 C 0.30742 0.18237 0.6242 0.0
H814 H 0.29915 0.14619 0.63546 0.0
H815 H 0.35889 0.15164 0.59066 0.0
C816 C 0.40812 0.0579 0.63957 0.0
N817 N 0.39849 0.07966 0.63353 0.0
C818 C 0.43317 0.0554 0.64201 0.0
C819 C 0.43772 0.09779 0.63233 0.0
C820 C 0.41266 0.09944 0.62997 0.0
C821 C 0.44812 0.07552 0.63818 0.0
H822 H 0.39641 0.04243 0.64204 0.0
H823 H 0.40448 0.1164 0.62493 0.0
C824 C 0.28428 0.09467 0.60578 0.0
N825 N 0.24134 0.10126 0.5823 0.0
C826 C 0.26388 0.08081 0.61122 0.0
C827 C 0.28262 0.11228 0.58873 0.0
C828 C 0.2424 0.08429 0.59906 0.0
C829 C 0.26082 0.11523 0.57696 0.0
C830 C 0.33936 0.03276 0.64062 0.0
C831 C 0.32421 0.01518 0.63111 0.0
C832 C 0.3482 0.02966 0.66274 0.0
C833 C 0.31783 0.99492 0.64406 0.0
C834 C 0.34135 0.00918 0.67516 0.0
N835 N 0.32643 0.99239 0.66564 0.0
C836 C 0.34136 0.04749 0.56254 0.0
C837 C 0.30042 0.04241 0.5739 0.0
C838 C 0.33758 0.0332 0.54333 0.0
N839 N 0.32282 0.05211 0.57715 0.0
C840 C 0.2959 0.0277 0.555 0.0
C841 C 0.31466 0.02319 0.53948 0.0
H842 H 0.35916 0.05481 0.56591 0.0
H843 H 0.28624 0.04563 0.58616 0.0
C844 C 0.30955 0.08111 0.6887 0.0
N845 N 0.30588 0.06897 0.66886 0.0
C846 C 0.29492 0.07644 0.70754 0.0
C847 C 0.27326 0.04653 0.68533 0.0
C848 C 0.28833 0.05177 0.66689 0.0
C849 C 0.27638 0.05925 0.70577 0.0
H850 H 0.32341 0.09488 0.68971 0.0
H851 H 0.28574 0.04248 0.65088 0.0
O852 O 0.35715 0.09551 0.59771 0.0
O853 O 0.34665 0.10591 0.64872 0.0
O854 O 0.30535 0.09172 0.61779 0.0
O855 O 0.34554 0.05287 0.62832 0.0
H856 H 0.40007 0.11027 0.58319 0.0
H857 H 0.32534 0.1012 0.5642 0.0
H858 H 0.40822 0.12752 0.54497 0.0
H859 H 0.33469 0.11884 0.52643 0.0
H860 H 0.4028 0.10039 0.70515 0.0
H861 H 0.36543 0.14991 0.64462 0.0
H862 H 0.36906 0.08317 0.6824 0.0
H863 H 0.39908 0.16601 0.66812 0.0
H864 H 0.35388 0.1959 0.58815 0.0
H865 H 0.29332 0.1907 0.63437 0.0
H866 H 0.44086 0.03796 0.6464 0.0
H867 H 0.44892 0.11354 0.62913 0.0
H868 H 0.26464 0.06737 0.62457 0.0
H869 H 0.29787 0.12376 0.58472 0.0
H870 H 0.22657 0.07352 0.60297 0.0
H871 H 0.25936 0.12872 0.56367 0.0
H872 H 0.31732 0.01721 0.61398 0.0
H873 H 0.36004 0.04302 0.6703 0.0
H874 H 0.30601 0.98123 0.63696 0.0
H875 H 0.34789 0.00665 0.69236 0.0
H876 H 0.35245 0.02968 0.53174 0.0
H877 H 0.27812 0.01983 0.55255 0.0
H878 H 0.29757 0.08661 0.72314 0.0
H879 H 0.25896 0.03323 0.68354 0.0
Li880 Li 0.66451 0.61435 0.37718 0.0
Li881 Li 0.63477 0.58344 0.36764 0.0
Li882 Li 0.67006 0.57519 0.39398 0.0
Li883 Li 0.67675 0.57979 0.35316 0.0
C884 C 0.63354 0.61604 0.41086 0.0
N885 N 0.61717 0.65529 0.43567 0.0
C886 C 0.61151 0.62703 0.4053 0.0
C887 C 0.64709 0.62478 0.42921 0.0
C888 C 0.60357 0.6469 0.41802 0.0
C889 C 0.63856 0.64472 0.44148 0.0
C890 C 0.64278 0.60497 0.32492 0.0
C891 C 0.63029 0.58262 0.29164 0.0
N892 N 0.62419 0.60378 0.28124 0.0
C893 C 0.63652 0.62651 0.31388 0.0
C894 C 0.63973 0.58286 0.31371 0.0
C895 C 0.62709 0.62553 0.29181 0.0
C896 C 0.68685 0.65841 0.39148 0.0
N897 N 0.66716 0.64824 0.38136 0.0
C898 C 0.64871 0.687 0.37651 0.0
C899 C 0.64833 0.66193 0.37379 0.0
C900 C 0.66875 0.69791 0.3869 0.0
C901 C 0.68803 0.68348 0.39447 0.0
H902 H 0.70163 0.64711 0.39713 0.0
H903 H 0.63298 0.65328 0.36572 0.0
C904 C 0.59113 0.55891 0.3748 0.0
N905 N 0.60141 0.57739 0.36292 0.0
C906 C 0.56609 0.55542 0.37412 0.0
C907 C 0.56285 0.58966 0.34856 0.0
C908 C 0.58789 0.59264 0.34989 0.0
C909 C 0.55178 0.57113 0.36108 0.0
H910 H 0.60233 0.54739 0.38535 0.0
H911 H 0.59634 0.6077 0.34128 0.0
C912 C 0.71609 0.59156 0.38968 0.0
N913 N 0.75895 0.58336 0.41274 0.0
C914 C 0.73488 0.57874 0.3792 0.0
C915 C 0.71919 0.60041 0.4118 0.0
C916 C 0.75639 0.57474 0.39117 0.0
C917 C 0.74096 0.596 0.42321 0.0
C918 C 0.65653 0.53142 0.36225 0.0
C919 C 0.67396 0.51534 0.37058 0.0
C920 C 0.63832 0.52286 0.34778 0.0
C921 C 0.6732 0.49105 0.36392 0.0
C922 C 0.63816 0.49844 0.34152 0.0
N923 N 0.65547 0.48318 0.34963 0.0
C924 C 0.66122 0.55705 0.43715 0.0
C925 C 0.69953 0.54495 0.42277 0.0
C926 C 0.66484 0.54348 0.45686 0.0
N927 N 0.67841 0.55748 0.42058 0.0
C928 C 0.70407 0.53142 0.44239 0.0
C929 C 0.68639 0.53038 0.45949 0.0
H930 H 0.64447 0.5669 0.43484 0.0
H931 H 0.71267 0.54506 0.40916 0.0
C932 C 0.70046 0.5885 0.31235 0.0
N933 N 0.69615 0.57074 0.32787 0.0
C934 C 0.7148 0.58386 0.29334 0.0
C935 C 0.72082 0.54293 0.30698 0.0
C936 C 0.70607 0.54829 0.32564 0.0
C937 C 0.72511 0.56088 0.29061 0.0
H938 H 0.6929 0.60636 0.31485 0.0
H939 H 0.70299 0.53472 0.3385 0.0
O940 O 0.64197 0.59703 0.39819 0.0
O941 O 0.65199 0.6057 0.34655 0.0
O942 O 0.69494 0.5957 0.37818 0.0
O943 O 0.65669 0.55518 0.36896 0.0
H944 H 0.60079 0.62048 0.39116 0.0
H945 H 0.66409 0.61635 0.43381 0.0
H946 H 0.58664 0.6557 0.41382 0.0
H947 H 0.64895 0.65181 0.45561 0.0
H948 H 0.62787 0.56562 0.28276 0.0
H949 H 0.63886 0.6438 0.3223 0.0
H950 H 0.64487 0.56611 0.32186 0.0
H951 H 0.62209 0.64205 0.28308 0.0
H952 H 0.63364 0.6978 0.37044 0.0
H953 H 0.70377 0.69156 0.40245 0.0
H954 H 0.55789 0.54113 0.38414 0.0
H955 H 0.55211 0.60226 0.33864 0.0
H956 H 0.73288 0.57192 0.36204 0.0
H957 H 0.70483 0.61031 0.42018 0.0
H958 H 0.77106 0.56479 0.3833 0.0
H959 H 0.74353 0.60259 0.44039 0.0
H960 H 0.68814 0.52159 0.38181 0.0
H961 H 0.62433 0.53486 0.34154 0.0
H962 H 0.68671 0.47846 0.3701 0.0
H963 H 0.62422 0.49161 0.33027 0.0
H964 H 0.65086 0.54295 0.46981 0.0
H965 H 0.72085 0.52138 0.44399 0.0
H966 H 0.71814 0.59812 0.28106 0.0
H967 H 0.7289 0.52513 0.30538 0.0
Li968 Li 0.16791 0.92709 0.10382 0.0
Li969 Li 0.17553 0.9225 0.14422 0.0
Li970 Li 0.16361 0.88751 0.11981 0.0
Li971 Li 0.13345 0.91824 0.13039 0.0
C972 C 0.21336 0.91303 0.10585 0.0
N973 N 0.2529 0.92565 0.07955 0.0
C974 C 0.2312 0.92836 0.11467 0.0
C975 C 0.21577 0.90388 0.08377 0.0
C976 C 0.25104 0.93456 0.10108 0.0
C977 C 0.23584 0.91056 0.0707 0.0
C978 C 0.15186 0.96854 0.14057 0.0
C979 C 0.1317 0.99244 0.16931 0.0
N980 N 0.1453 0.01195 0.16328 0.0
C981 C 0.16533 0.98897 0.13441 0.0
C982 C 0.13464 0.9704 0.15794 0.0
C983 C 0.16188 0.01069 0.14619 0.0
C984 C 0.16378 0.94059 0.05799 0.0
N985 N 0.17624 0.94513 0.07749 0.0
C986 C 0.19814 0.97722 0.05956 0.0
C987 C 0.1933 0.96288 0.0786 0.0
C988 C 0.18515 0.97316 0.03943 0.0
C989 C 0.16804 0.95446 0.03856 0.0
H990 H 0.15012 0.92658 0.05767 0.0
H991 H 0.20285 0.96616 0.09436 0.0
C992 C 0.20043 0.91332 0.18427 0.0
N993 N 0.19541 0.93136 0.16923 0.0
C994 C 0.21506 0.91778 0.20311 0.0
C995 C 0.22015 0.95909 0.19016 0.0
C996 C 0.20507 0.9539 0.17167 0.0
C997 C 0.22502 0.94087 0.20614 0.0
H998 H 0.19313 0.89538 0.18153 0.0
H999 H 0.20154 0.96766 0.15906 0.0
C1000 C 0.13051 0.88592 0.0875 0.0
N1001 N 0.11128 0.84721 0.06372 0.0
C1002 C 0.10736 0.87729 0.09276 0.0
C1003 C 0.14375 0.87504 0.06997 0.0
C1004 C 0.09797 0.85768 0.08056 0.0
C1005 C 0.13377 0.85541 0.05822 0.0
C1006 C 0.14263 0.89192 0.17196 0.0
C1007 C 0.1352 0.86864 0.17821 0.0
C1008 C 0.14099 0.91081 0.18775 0.0
C1009 C 0.12589 0.86473 0.20003 0.0
C1010 C 0.13162 0.90618 0.20942 0.0
N1011 N 0.12429 0.88343 0.21505 0.0
C1012 C 0.18899 0.84455 0.10808 0.0
C1013 C 0.14814 0.83918 0.11965 0.0
C1014 C 0.19175 0.81959 0.10514 0.0
N1015 N 0.16743 0.85374 0.11523 0.0
C1016 C 0.15006 0.81418 0.11686 0.0
C1017 C 0.1721 0.80426 0.10967 0.0
H1018 H 0.20408 0.85655 0.10491 0.0
H1019 H 0.13128 0.84701 0.12544 0.0
C1020 C 0.08914 0.93933 0.12043 0.0
N1021 N 0.09994 0.92388 0.13533 0.0
C1022 C 0.06405 0.94246 0.12077 0.0
C1023 C 0.06182 0.91445 0.1524 0.0
C1024 C 0.0869 0.91165 0.15128 0.0
C1025 C 0.05022 0.92964 0.13672 0.0
H1026 H 0.09998 0.94854 0.10775 0.0
H1027 H 0.09568 0.89905 0.1626 0.0
O1028 O 0.19366 0.90701 0.1188 0.0
O1029 O 0.1548 0.94722 0.12895 0.0
O1030 O 0.14021 0.9048 0.09954 0.0
O1031 O 0.15176 0.896 0.15061 0.0
H1032 H 0.2297 0.93549 0.13176 0.0
H1033 H 0.20217 0.89195 0.07671 0.0
H1034 H 0.26492 0.9465 0.10764 0.0
H1035 H 0.23782 0.90379 0.05351 0.0
H1036 H 0.11851 0.99406 0.18286 0.0
H1037 H 0.17847 0.98804 0.12079 0.0
H1038 H 0.12346 0.9551 0.16252 0.0
H1039 H 0.17236 0.02655 0.14172 0.0
H1040 H 0.21139 0.99165 0.06064 0.0
H1041 H 0.15767 0.9511 0.02322 0.0
H1042 H 0.21889 0.9033 0.21503 0.0
H1043 H 0.228 0.97697 0.19195 0.0
H1044 H 0.09681 0.88544 0.10625 0.0
H1045 H 0.16165 0.88151 0.06563 0.0
H1046 H 0.08014 0.85074 0.08453 0.0
H1047 H 0.14391 0.84668 0.04476 0.0
H1048 H 0.13657 0.85372 0.16635 0.0
H1049 H 0.14725 0.92876 0.18349 0.0
H1050 H 0.11998 0.84683 0.20505 0.0
H1051 H 0.13028 0.92065 0.22178 0.0
H1052 H 0.20901 0.81228 0.09968 0.0
H1053 H 0.13466 0.80267 0.12057 0.0
H1054 H 0.05545 0.95415 0.10835 0.0
H1055 H 0.05146 0.90413 0.16471 0.0
Li1056 Li 0.83637 0.61303 0.11977 0.0
Li1057 Li 0.8668 0.58052 0.12723 0.0
Li1058 Li 0.83069 0.5742 0.1038 0.0
Li1059 Li 0.82493 0.57835 0.14333 0.0
C1060 C 0.86722 0.61499 0.08593 0.0
N1061 N 0.88482 0.6548 0.06271 0.0
C1062 C 0.88991 0.62458 0.09145 0.0
C1063 C 0.85358 0.62548 0.06847 0.0
C1064 C 0.89848 0.64473 0.07952 0.0
C1065 C 0.86276 0.64566 0.05699 0.0
C1066 C 0.84714 0.60905 0.17119 0.0
C1067 C 0.85059 0.59982 0.21121 0.0
N1068 N 0.83725 0.61986 0.21619 0.0
C1069 C 0.83349 0.62956 0.17669 0.0
C1070 C 0.85577 0.59403 0.18857 0.0
C1071 C 0.82869 0.63471 0.19956 0.0
C1072 C 0.81284 0.65734 0.10884 0.0
N1073 N 0.83369 0.64707 0.11653 0.0
C1074 C 0.85182 0.68594 0.12177 0.0
C1075 C 0.85298 0.66075 0.12301 0.0
C1076 C 0.83049 0.69696 0.11407 0.0
C1077 C 0.81083 0.68252 0.10746 0.0
H1078 H 0.79767 0.64603 0.10416 0.0
H1079 H 0.86915 0.65203 0.12942 0.0
C1080 C 0.91229 0.56459 0.11291 0.0
N1081 N 0.90018 0.57435 0.13087 0.0
C1082 C 0.93745 0.5623 0.11361 0.0
C1083 C 0.93709 0.57967 0.15148 0.0
C1084 C 0.91194 0.58172 0.15001 0.0
C1085 C 0.95 0.5702 0.13297 0.0
H1086 H 0.90247 0.55949 0.0977 0.0
H1087 H 0.90192 0.59001 0.16375 0.0
C1088 C 0.78518 0.58961 0.10782 0.0
N1089 N 0.74306 0.57958 0.08422 0.0
C1090 C 0.76725 0.57513 0.1177 0.0
C1091 C 0.7816 0.59916 0.08603 0.0
C1092 C 0.74609 0.57025 0.10548 0.0
C1093 C 0.76022 0.5938 0.07434 0.0
C1094 C 0.83913 0.5301 0.12083 0.0
C1095 C 0.81717 0.51885 0.12618 0.0
C1096 C 0.85606 0.51799 0.10729 0.0
C1097 C 0.81247 0.49564 0.11778 0.0
C1098 C 0.85069 0.49479 0.09923 0.0
N1099 N 0.82918 0.48419 0.10459 0.0
C1100 C 0.8367 0.55823 0.05912 0.0
C1101 C 0.80135 0.54214 0.07639 0.0
C1102 C 0.8327 0.54444 0.0396 0.0
N1103 N 0.82122 0.55675 0.07708 0.0
C1104 C 0.79654 0.52814 0.05711 0.0
C1105 C 0.8126 0.52901 0.03866 0.0
H1106 H 0.85258 0.56961 0.0602 0.0
H1107 H 0.7896 0.54074 0.091 0.0
C1108 C 0.79014 0.58558 0.1768 0.0
N1109 N 0.80723 0.56962 0.16957 0.0
C1110 C 0.77747 0.58124 0.19688 0.0
C1111 C 0.79968 0.54371 0.20134 0.0
C1112 C 0.81223 0.54896 0.18129 0.0
C1113 C 0.78236 0.5602 0.20937 0.0
H1114 H 0.78672 0.6019 0.16711 0.0
H1115 H 0.82617 0.5368 0.17522 0.0
O1116 O 0.8582 0.59565 0.09778 0.0
O1117 O 0.85154 0.60337 0.14889 0.0
O1118 O 0.80591 0.59475 0.11961 0.0
O1119 O 0.84407 0.5528 0.12891 0.0
H1120 H 0.90065 0.61679 0.10501 0.0
H1121 H 0.83603 0.61822 0.06395 0.0
H1122 H 0.91594 0.65244 0.0837 0.0
H1123 H 0.85233 0.65408 0.04355 0.0
H1124 H 0.85705 0.5883 0.22483 0.0
H1125 H 0.82643 0.64124 0.16347 0.0
H1126 H 0.86598 0.57784 0.18459 0.0
H1127 H 0.81807 0.65047 0.20406 0.0
H1128 H 0.86717 0.69674 0.12714 0.0
H1129 H 0.7941 0.69067 0.10161 0.0
H1130 H 0.94709 0.55521 0.09898 0.0
H1131 H 0.94645 0.58619 0.16649 0.0
H1132 H 0.76972 0.56756 0.13454 0.0
H1133 H 0.79528 0.6104 0.07815 0.0
H1134 H 0.73211 0.55898 0.11286 0.0
H1135 H 0.75728 0.60092 0.0574 0.0
H1136 H 0.80375 0.52808 0.13644 0.0
H1137 H 0.87313 0.52644 0.10298 0.0
H1138 H 0.79549 0.48678 0.12167 0.0
H1139 H 0.86358 0.48523 0.08866 0.0
H1140 H 0.84544 0.54534 0.02559 0.0
H1141 H 0.78096 0.51622 0.05684 0.0
H1142 H 0.76413 0.59422 0.20274 0.0
H1143 H 0.80376 0.52732 0.21075 0.0
Li1144 Li 0.13447 0.0816 0.86859 0.0
Li1145 Li 0.16678 0.11452 0.87501 0.0
Li1146 Li 0.17465 0.07824 0.85193 0.0
Li1147 Li 0.17017 0.07444 0.89154 0.0
C1148 C 0.15015 0.10562 0.82334 0.0
N1149 N 0.15167 0.10782 0.77638 0.0
C1150 C 0.16431 0.12316 0.81252 0.0
C1151 C 0.13673 0.08922 0.81032 0.0
C1152 C 0.16487 0.12395 0.78874 0.0
C1153 C 0.13776 0.09061 0.78658 0.0
C1154 C 0.1409 0.09762 0.91996 0.0
C1155 C 0.15241 0.10893 0.95813 0.0
N1156 N 0.13487 0.09412 0.96656 0.0
C1157 C 0.12289 0.08263 0.92899 0.0
C1158 C 0.15569 0.111 0.93462 0.0
C1159 C 0.12019 0.08104 0.9526 0.0
C1160 C 0.09033 0.05702 0.87511 0.0
N1161 N 0.1009 0.07662 0.86522 0.0
C1162 C 0.06252 0.09157 0.85286 0.0
C1163 C 0.08768 0.09364 0.85402 0.0
C1164 C 0.05111 0.07196 0.86356 0.0
C1165 C 0.06517 0.05437 0.87459 0.0
H1166 H 0.1014 0.04386 0.88395 0.0
H1167 H 0.09666 0.10908 0.84645 0.0
C1168 C 0.19002 0.15905 0.86655 0.0
N1169 N 0.17132 0.14823 0.87768 0.0
C1170 C 0.19259 0.1842 0.8672 0.0
C1171 C 0.15687 0.18641 0.89106 0.0
C1172 C 0.15497 0.16124 0.88993 0.0
C1173 C 0.1757 0.19805 0.87938 0.0
H1174 H 0.20265 0.14814 0.85689 0.0
H1175 H 0.14022 0.15207 0.89845 0.0
C1176 C 0.1666 0.03087 0.86622 0.0
N1177 N 0.18876 0.98615 0.86274 0.0
C1178 C 0.1913 0.02847 0.87083 0.0
C1179 C 0.15312 0.01052 0.85989 0.0
C1180 C 0.20219 0.00571 0.86898 0.0
C1181 C 0.16467 0.98807 0.8582 0.0
C1182 C 0.21711 0.09722 0.88527 0.0
C1183 C 0.23711 0.08304 0.87927 0.0
C1184 C 0.21992 0.11593 0.90111 0.0
C1185 C 0.25945 0.08741 0.88968 0.0
C1186 C 0.24256 0.11974 0.91112 0.0
N1187 N 0.26168 0.1055 0.90527 0.0
C1188 C 0.21097 0.08312 0.81989 0.0
C1189 C 0.18532 0.04947 0.81255 0.0
C1190 C 0.22397 0.07869 0.80001 0.0
N1191 N 0.19198 0.0687 0.82563 0.0
C1192 C 0.198 0.04424 0.79254 0.0
C1193 C 0.21735 0.05919 0.78609 0.0
H1194 H 0.2156 0.09843 0.83053 0.0
H1195 H 0.16988 0.03857 0.81737 0.0
C1196 C 0.16335 0.03883 0.92389 0.0
N1197 N 0.17912 0.05678 0.91826 0.0
C1198 C 0.16666 0.02545 0.94375 0.0
C1199 C 0.20282 0.04878 0.95151 0.0
C1200 C 0.19869 0.06188 0.93153 0.0
C1201 C 0.18648 0.03057 0.9578 0.0
H1202 H 0.1478 0.03532 0.91318 0.0
H1203 H 0.21085 0.07633 0.92702 0.0
O1204 O 0.14969 0.10426 0.84658 0.0
O1205 O 0.14406 0.09914 0.89689 0.0
O1206 O 0.15549 0.05295 0.86786 0.0
O1207 O 0.19521 0.09347 0.87492 0.0
H1208 H 0.17488 0.13591 0.82238 0.0
H1209 H 0.12583 0.07542 0.81848 0.0
H1210 H 0.17583 0.13736 0.78011 0.0
H1211 H 0.12755 0.07798 0.77626 0.0
H1212 H 0.1638 0.11909 0.96969 0.0
H1213 H 0.11127 0.07218 0.91789 0.0
H1214 H 0.16956 0.12283 0.92793 0.0
H1215 H 0.10644 0.06939 0.95983 0.0
H1216 H 0.05201 0.10545 0.84435 0.0
H1217 H 0.05674 0.03912 0.88305 0.0
H1218 H 0.20725 0.19281 0.85799 0.0
H1219 H 0.14355 0.19675 0.9005 0.0
H1220 H 0.20189 0.04397 0.87593 0.0
H1221 H 0.13395 0.01211 0.85628 0.0
H1222 H 0.2213 0.00361 0.87253 0.0
H1223 H 0.15447 0.97216 0.85329 0.0
H1224 H 0.23547 0.06889 0.8666 0.0
H1225 H 0.2048 0.12731 0.90575 0.0
H1226 H 0.27503 0.07649 0.88527 0.0
H1227 H 0.24494 0.13405 0.92351 0.0
H1228 H 0.23878 0.09056 0.79531 0.0
H1229 H 0.19247 0.02916 0.78194 0.0
H1230 H 0.15371 0.01153 0.94833 0.0
H1231 H 0.21819 0.05315 0.96222 0.0
Li1232 Li 0.66854 0.42599 0.60535 0.0
Li1233 Li 0.6739 0.42068 0.64483 0.0
Li1234 Li 0.66279 0.38656 0.62027 0.0
Li1235 Li 0.63233 0.4191 0.62841 0.0
C1236 C 0.71415 0.40914 0.6092 0.0
N1237 N 0.75693 0.41696 0.58592 0.0
C1238 C 0.73261 0.42292 0.61911 0.0
C1239 C 0.71754 0.39914 0.58756 0.0
C1240 C 0.75409 0.4267 0.60704 0.0
C1241 C 0.73926 0.40339 0.57602 0.0
C1242 C 0.66283 0.4692 0.6236 0.0
C1243 C 0.65623 0.5061 0.60248 0.0
N1244 N 0.6788 0.51378 0.60833 0.0
C1245 C 0.68596 0.47747 0.62942 0.0
C1246 C 0.64781 0.48363 0.61006 0.0
C1247 C 0.69369 0.50007 0.62155 0.0
C1248 C 0.66081 0.4446 0.56219 0.0
N1249 N 0.67788 0.44383 0.57886 0.0
C1250 C 0.70374 0.47017 0.55752 0.0
C1251 C 0.69901 0.45641 0.57697 0.0
C1252 C 0.68621 0.47144 0.5403 0.0
C1253 C 0.6646 0.4584 0.54267 0.0
H1254 H 0.64394 0.43492 0.56428 0.0
H1255 H 0.71195 0.45633 0.59071 0.0
C1256 C 0.70945 0.41321 0.67765 0.0
N1257 N 0.69128 0.42848 0.67152 0.0
C1258 C 0.72221 0.41713 0.69777 0.0
C1259 C 0.69749 0.45261 0.70479 0.0
C1260 C 0.68508 0.44792 0.68452 0.0
C1261 C 0.71615 0.43695 0.71151 0.0
H1262 H 0.71373 0.39779 0.66702 0.0
H1263 H 0.67032 0.45955 0.67927 0.0
C1264 C 0.63178 0.38656 0.58556 0.0
N1265 N 0.61319 0.3495 0.5592 0.0
C1266 C 0.60843 0.37779 0.58968 0.0
C1267 C 0.64556 0.3767 0.56788 0.0
C1268 C 0.59938 0.359 0.57618 0.0
C1269 C 0.63588 0.3579 0.5548 0.0
C1270 C 0.65119 0.38915 0.67161 0.0
C1271 C 0.66583 0.36926 0.67686 0.0
C1272 C 0.64094 0.40285 0.68916 0.0
C1273 C 0.67002 0.36341 0.69967 0.0
C1274 C 0.64557 0.39641 0.71176 0.0
N1275 N 0.6599 0.377 0.7165 0.0
C1276 C 0.68753 0.34264 0.61101 0.0
C1277 C 0.6457 0.33875 0.61964 0.0
C1278 C 0.68985 0.31753 0.60914 0.0
N1279 N 0.66569 0.35265 0.61614 0.0
C1280 C 0.64714 0.31362 0.61771 0.0
C1281 C 0.66946 0.30287 0.61257 0.0
H1282 H 0.70322 0.35409 0.60883 0.0
H1283 H 0.62873 0.34721 0.62428 0.0
C1284 C 0.58747 0.4394 0.61683 0.0
N1285 N 0.59889 0.42486 0.63212 0.0
C1286 C 0.56231 0.4417 0.6173 0.0
C1287 C 0.56122 0.41416 0.64938 0.0
C1288 C 0.58643 0.41247 0.64835 0.0
C1289 C 0.54899 0.42863 0.6335 0.0
H1290 H 0.59784 0.44843 0.60372 0.0
H1291 H 0.59597 0.40058 0.6599 0.0
O1292 O 0.69311 0.40501 0.62087 0.0
O1293 O 0.65512 0.44693 0.63081 0.0
O1294 O 0.64113 0.4047 0.59877 0.0
O1295 O 0.64733 0.39551 0.6494 0.0
H1296 H 0.73031 0.4308 0.63583 0.0
H1297 H 0.7035 0.38833 0.57972 0.0
H1298 H 0.76848 0.43742 0.61444 0.0
H1299 H 0.74208 0.39588 0.55921 0.0
H1300 H 0.64486 0.51739 0.59188 0.0
H1301 H 0.69796 0.46643 0.63962 0.0
H1302 H 0.62993 0.47747 0.60529 0.0
H1303 H 0.71159 0.50663 0.62582 0.0
H1304 H 0.72054 0.4802 0.55616 0.0
H1305 H 0.65071 0.45916 0.52965 0.0
H1306 H 0.73647 0.40471 0.70271 0.0
H1307 H 0.6924 0.46794 0.71526 0.0
H1308 H 0.59749 0.3852 0.60327 0.0
H1309 H 0.66356 0.38346 0.56434 0.0
H1310 H 0.58139 0.35194 0.57925 0.0
H1311 H 0.64641 0.34999 0.54115 0.0
H1312 H 0.67404 0.35858 0.66347 0.0
H1313 H 0.62977 0.41845 0.68536 0.0
H1314 H 0.68139 0.34813 0.704 0.0
H1315 H 0.63788 0.40691 0.72553 0.0
H1316 H 0.70735 0.3096 0.6054 0.0
H1317 H 0.6312 0.30262 0.62071 0.0
H1318 H 0.55324 0.4528 0.6047 0.0
H1319 H 0.55131 0.4037 0.6619 0.0
Li1320 Li 0.32642 0.91918 0.35195 0.0
Li1321 Li 0.33191 0.9223 0.39158 0.0
Li1322 Li 0.36707 0.9168 0.36746 0.0
Li1323 Li 0.33606 0.88279 0.37436 0.0
C1324 C 0.33308 0.9664 0.36811 0.0
N1325 N 0.30923 0.0104 0.36867 0.0
C1326 C 0.30804 0.96726 0.37147 0.0
C1327 C 0.34602 0.98792 0.3651 0.0
C1328 C 0.2963 0.98967 0.37169 0.0
C1329 C 0.33362 0.00999 0.36541 0.0
C1330 C 0.28554 0.8976 0.38561 0.0
C1331 C 0.26219 0.87396 0.41231 0.0
N1332 N 0.24187 0.88617 0.40599 0.0
C1333 C 0.26437 0.90973 0.3792 0.0
C1334 C 0.28442 0.87941 0.40215 0.0
C1335 C 0.2425 0.90377 0.38978 0.0
C1336 C 0.29049 0.91393 0.31927 0.0
N1337 N 0.30845 0.92909 0.32615 0.0
C1338 C 0.30119 0.95547 0.29463 0.0
C1339 C 0.314 0.94959 0.31439 0.0
C1340 C 0.28305 0.93973 0.28689 0.0
C1341 C 0.27755 0.91888 0.29945 0.0
H1342 H 0.28668 0.89768 0.32893 0.0
H1343 H 0.32866 0.96108 0.32007 0.0
C1344 C 0.33903 0.95666 0.42507 0.0
N1345 N 0.32277 0.9395 0.41854 0.0
C1346 C 0.33543 0.96984 0.445 0.0
C1347 C 0.29773 0.94837 0.45071 0.0
C1348 C 0.30225 0.93531 0.43079 0.0
C1349 C 0.31468 0.96556 0.45806 0.0
H1350 H 0.35506 0.95981 0.41491 0.0
H1351 H 0.28944 0.9218 0.42537 0.0
C1352 C 0.34965 0.89184 0.32244 0.0
N1353 N 0.34395 0.88849 0.2758 0.0
C1354 C 0.33568 0.87323 0.31307 0.0
C1355 C 0.36088 0.90865 0.3081 0.0
C1356 C 0.33297 0.87187 0.28944 0.0
C1357 C 0.35773 0.90667 0.28456 0.0
C1358 C 0.36378 0.90111 0.41862 0.0
C1359 C 0.38244 0.91633 0.42598 0.0
C1360 C 0.34965 0.88882 0.43463 0.0
C1361 C 0.38637 0.91934 0.44933 0.0
C1362 C 0.35412 0.89235 0.45782 0.0
N1363 N 0.37221 0.90742 0.46463 0.0
C1364 C 0.41742 0.90901 0.37091 0.0
C1365 C 0.40564 0.9433 0.34913 0.0
C1366 C 0.44184 0.91383 0.36665 0.0
N1367 N 0.40001 0.92373 0.36214 0.0
C1368 C 0.4298 0.94868 0.34432 0.0
C1369 C 0.4481 0.93384 0.35319 0.0
H1370 H 0.41229 0.89353 0.38112 0.0
H1371 H 0.39133 0.95456 0.34233 0.0
C1372 C 0.31288 0.83799 0.36701 0.0
N1373 N 0.33221 0.84895 0.377 0.0
C1374 C 0.31039 0.81285 0.368 0.0
C1375 C 0.34755 0.8109 0.38985 0.0
C1376 C 0.34932 0.83608 0.38843 0.0
C1377 C 0.32802 0.79914 0.37936 0.0
H1378 H 0.29958 0.84879 0.35805 0.0
H1379 H 0.36449 0.84537 0.39617 0.0
O1380 O 0.34506 0.9447 0.36803 0.0
O1381 O 0.30701 0.90299 0.37514 0.0
O1382 O 0.35194 0.8939 0.34555 0.0
O1383 O 0.35921 0.89847 0.39586 0.0
H1384 H 0.29782 0.95083 0.374 0.0
H1385 H 0.36544 0.98757 0.36259 0.0
H1386 H 0.27693 0.99059 0.3743 0.0
H1387 H 0.3434 0.0268 0.36308 0.0
H1388 H 0.2611 0.86001 0.42521 0.0
H1389 H 0.26478 0.92354 0.36612 0.0
H1390 H 0.30051 0.86966 0.40718 0.0
H1391 H 0.226 0.91308 0.38505 0.0
H1392 H 0.30576 0.97168 0.28517 0.0
H1393 H 0.26357 0.90647 0.29382 0.0
H1394 H 0.34873 0.98315 0.45025 0.0
H1395 H 0.28147 0.94485 0.4605 0.0
H1396 H 0.32684 0.86011 0.32393 0.0
H1397 H 0.37162 0.92324 0.3151 0.0
H1398 H 0.32209 0.85765 0.28195 0.0
H1399 H 0.36615 0.91966 0.27326 0.0
H1400 H 0.39351 0.92602 0.4138 0.0
H1401 H 0.33529 0.87682 0.42923 0.0
H1402 H 0.4006 0.93123 0.45528 0.0
H1403 H 0.34318 0.88312 0.47041 0.0
H1404 H 0.45567 0.90203 0.3736 0.0
H1405 H 0.4342 0.96418 0.33377 0.0
H1406 H 0.29516 0.80414 0.35974 0.0
H1407 H 0.36142 0.80067 0.39868 0.0
C1408 C 0.18434 0.7644 0.12644 0.0
C1409 C 0.17469 0.77764 0.10782 0.0
C1410 C 0.1649 0.73988 0.08788 0.0
C1411 C 0.17506 0.72669 0.10628 0.0
N1412 N 0.19844 0.72575 0.14096 0.0
N1413 N 0.15968 0.77886 0.0693 0.0
C1414 C 0.18609 0.73879 0.12489 0.0
C1415 C 0.16619 0.76561 0.08802 0.0
N1416 N 0.19086 0.77627 0.14597 0.0
N1417 N 0.15336 0.72778 0.07069 0.0
H1418 H 0.16014 0.79776 0.069 0.0
H1419 H 0.1556 0.77126 0.05355 0.0
H1420 H 0.15282 0.70891 0.06967 0.0
H1421 H 0.14313 0.73628 0.05812 0.0
H1422 H 0.19524 0.7675 0.16111 0.0
H1423 H 0.19037 0.79508 0.14759 0.0
H1424 H 0.20908 0.73359 0.1536 0.0
H1425 H 0.19967 0.70689 0.14063 0.0
C1426 C 0.48617 0.95792 0.35939 0.0
C1427 C 0.47384 0.93893 0.34794 0.0
C1428 C 0.51089 0.92982 0.32677 0.0
C1429 C 0.52411 0.94381 0.34273 0.0
N1430 N 0.52095 0.98429 0.35753 0.0
N1431 N 0.47368 0.90842 0.31839 0.0
C1432 C 0.51096 0.96196 0.35444 0.0
C1433 C 0.48588 0.92551 0.33068 0.0
N1434 N 0.47461 0.97161 0.37541 0.0
N1435 N 0.52142 0.92358 0.30659 0.0
H1436 H 0.45509 0.90551 0.32005 0.0
H1437 H 0.48235 0.89634 0.30744 0.0
H1438 H 0.53877 0.92965 0.30233 0.0
H1439 H 0.51208 0.91525 0.29331 0.0
H1440 H 0.48375 0.98405 0.38565 0.0
H1441 H 0.45636 0.96934 0.3795 0.0
H1442 H 0.51135 0.99893 0.3642 0.0
H1443 H 0.53768 0.98875 0.35033 0.0
C1444 C 0.30673 0.26171 0.59644 0.0
C1445 C 0.32088 0.27431 0.61279 0.0
C1446 C 0.33669 0.23594 0.62767 0.0
C1447 C 0.32178 0.2233 0.61194 0.0
N1448 N 0.29057 0.22322 0.58327 0.0
N1449 N 0.34703 0.27412 0.64571 0.0
C1450 C 0.30617 0.23594 0.59687 0.0
C1451 C 0.3352 0.2616 0.62893 0.0
N1452 N 0.29428 0.27447 0.58025 0.0
N1453 N 0.3527 0.22337 0.64099 0.0
H1454 H 0.34727 0.29298 0.64664 0.0
H1455 H 0.3554 0.26594 0.6596 0.0
H1456 H 0.35356 0.20449 0.64136 0.0
H1457 H 0.36616 0.2315 0.65076 0.0
H1458 H 0.28576 0.26656 0.5663 0.0
H1459 H 0.29357 0.29336 0.57998 0.0
H1460 H 0.2769 0.23117 0.57362 0.0
H1461 H 0.29023 0.20433 0.58269 0.0
C1462 C 0.01151 0.0571 0.84787 0.0
C1463 C 0.0243 0.07076 0.86444 0.0
C1464 C 0.98612 0.08239 0.88279 0.0
C1465 C 0.97328 0.0702 0.86526 0.0
N1466 N 0.97287 0.04756 0.83018 0.0
N1467 N 0.02452 0.09798 0.89659 0.0
C1468 C 0.98574 0.05793 0.84754 0.0
C1469 C 0.0118 0.0838 0.88166 0.0
N1470 N 0.02407 0.04309 0.83271 0.0
N1471 N 0.97371 0.09224 0.90073 0.0
H1472 H 0.0434 0.09859 0.89703 0.0
H1473 H 0.01651 0.11026 0.90773 0.0
H1474 H 0.95485 0.09244 0.90173 0.0
H1475 H 0.98196 0.09888 0.91539 0.0
H1476 H 0.01599 0.03067 0.82175 0.0
H1477 H 0.04295 0.0427 0.832 0.0
H1478 H 0.9807 0.04067 0.81541 0.0
H1479 H 0.95398 0.04703 0.82986 0.0
C1480 C 0.16964 0.26331 0.85942 0.0
C1481 C 0.1769 0.27587 0.87936 0.0
C1482 C 0.18652 0.2374 0.89814 0.0
C1483 C 0.17694 0.22485 0.87907 0.0
N1484 N 0.1566 0.22535 0.84269 0.0
N1485 N 0.18993 0.27549 0.91855 0.0
C1486 C 0.16782 0.23766 0.85995 0.0
C1487 C 0.1848 0.26309 0.89896 0.0
N1488 N 0.16497 0.27593 0.83985 0.0
N1489 N 0.19771 0.22475 0.91518 0.0
H1490 H 0.18937 0.29435 0.91961 0.0
H1491 H 0.19313 0.26713 0.93415 0.0
H1492 H 0.19907 0.20589 0.91518 0.0
H1493 H 0.20729 0.2329 0.92838 0.0
H1494 H 0.16221 0.26771 0.8241 0.0
H1495 H 0.16579 0.29478 0.8389 0.0
H1496 H 0.1471 0.23381 0.8296 0.0
H1497 H 0.15517 0.20651 0.84229 0.0
C1498 C 0.98522 0.91275 0.12238 0.0
C1499 C 0.97242 0.93031 0.13534 0.0
C1500 C 0.01067 0.94891 0.14744 0.0
C1501 C 0.02343 0.93038 0.13576 0.0
N1502 N 0.02368 0.89368 0.11344 0.0
N1503 N 0.97207 0.96396 0.16147 0.0
C1504 C 0.01092 0.91206 0.12352 0.0
C1505 C 0.98491 0.94814 0.1482 0.0
N1506 N 0.97273 0.89699 0.10873 0.0
N1507 N 0.02326 0.96741 0.15748 0.0
H1508 H 0.95317 0.96451 0.1617 0.0
H1509 H 0.97991 0.97569 0.17321 0.0
H1510 H 0.04214 0.96808 0.15785 0.0
H1511 H 0.01521 0.98285 0.16424 0.0
H1512 H 0.98086 0.88569 0.09679 0.0
H1513 H 0.95386 0.8961 0.10826 0.0
H1514 H 0.01576 0.87817 0.10667 0.0
H1515 H 0.04256 0.89317 0.11286 0.0
C1516 C 0.31958 0.73442 0.40023 0.0
C1517 C 0.32566 0.72131 0.38024 0.0
C1518 C 0.33405 0.75917 0.35996 0.0
C1519 C 0.3266 0.77233 0.37951 0.0
N1520 N 0.30867 0.77314 0.41693 0.0
N1521 N 0.33467 0.72068 0.34006 0.0
C1522 C 0.3183 0.76013 0.3993 0.0
C1523 C 0.33169 0.73355 0.35978 0.0
N1524 N 0.31571 0.72229 0.42021 0.0
N1525 N 0.3442 0.7711 0.34191 0.0
H1526 H 0.33346 0.70183 0.33932 0.0
H1527 H 0.3364 0.7287 0.32409 0.0
H1528 H 0.34602 0.7899 0.34128 0.0
H1529 H 0.35253 0.76235 0.32829 0.0
H1530 H 0.31391 0.73083 0.43592 0.0
H1531 H 0.31597 0.70342 0.42138 0.0
H1532 H 0.29997 0.76528 0.43082 0.0
H1533 H 0.30766 0.79202 0.41688 0.0
C1534 C 0.51311 0.06446 0.61946 0.0
C1535 C 0.52579 0.07337 0.63873 0.0
C1536 C 0.48749 0.07964 0.65903 0.0
C1537 C 0.47481 0.07316 0.63892 0.0
N1538 N 0.47484 0.06124 0.59939 0.0
N1539 N 0.52586 0.09074 0.6764 0.0
C1540 C 0.48742 0.06587 0.619 0.0
C1541 C 0.5132 0.0812 0.65848 0.0
N1542 N 0.52567 0.05447 0.6017 0.0
N1543 N 0.47487 0.08398 0.67866 0.0
H1544 H 0.54475 0.09127 0.67691 0.0
H1545 H 0.51778 0.09934 0.69022 0.0
H1546 H 0.45599 0.08335 0.67949 0.0
H1547 H 0.48298 0.08646 0.69449 0.0
H1548 H 0.51751 0.04521 0.5883 0.0
H1549 H 0.54454 0.0538 0.60112 0.0
H1550 H 0.48299 0.05875 0.58358 0.0
H1551 H 0.45597 0.06139 0.59853 0.0
C1552 C 0.82706 0.23323 0.8632 0.0
C1553 C 0.82093 0.22042 0.88333 0.0
C1554 C 0.8132 0.25868 0.90325 0.0
C1555 C 0.82163 0.27142 0.88384 0.0
N1556 N 0.83915 0.27138 0.84618 0.0
N1557 N 0.81021 0.22022 0.92312 0.0
C1558 C 0.82917 0.25885 0.86398 0.0
C1559 C 0.81445 0.23294 0.90354 0.0
N1560 N 0.83043 0.22087 0.84324 0.0
N1561 N 0.80358 0.27122 0.9212 0.0
H1562 H 0.81032 0.20133 0.92377 0.0
H1563 H 0.8081 0.22826 0.93903 0.0
H1564 H 0.80273 0.2901 0.92163 0.0
H1565 H 0.79482 0.26304 0.93487 0.0
H1566 H 0.83227 0.22927 0.82746 0.0
H1567 H 0.82951 0.20203 0.84211 0.0
H1568 H 0.84761 0.2631 0.83238 0.0
H1569 H 0.84057 0.29022 0.84589 0.0
C1570 C 0.68144 0.73857 0.37229 0.0
C1571 C 0.66965 0.72458 0.38926 0.0
C1572 C 0.65505 0.76149 0.40797 0.0
C1573 C 0.66734 0.77546 0.39132 0.0
N1574 N 0.69573 0.77809 0.3602 0.0
N1575 N 0.64885 0.72198 0.42525 0.0
C1576 C 0.68168 0.76421 0.37428 0.0
C1577 C 0.65757 0.73585 0.40776 0.0
N1578 N 0.69158 0.72735 0.35382 0.0
N1579 N 0.6404 0.77273 0.42351 0.0
H1580 H 0.65014 0.70312 0.42544 0.0
H1581 H 0.64201 0.7291 0.44035 0.0
H1582 H 0.63881 0.79153 0.42462 0.0
H1583 H 0.62874 0.76355 0.43444 0.0
H1584 H 0.69787 0.73655 0.33953 0.0
H1585 H 0.69231 0.70856 0.35203 0.0
H1586 H 0.70857 0.77098 0.34908 0.0
H1587 H 0.69595 0.79698 0.36083 0.0
C1588 C 0.83667 0.73692 0.09468 0.0
C1589 C 0.8285 0.7237 0.11393 0.0
C1590 C 0.81734 0.76144 0.13326 0.0
C1591 C 0.82757 0.77469 0.11493 0.0
N1592 N 0.8487 0.77583 0.07902 0.0
N1593 N 0.81314 0.7227 0.15237 0.0
C1594 C 0.83763 0.76264 0.09579 0.0
C1595 C 0.81928 0.73578 0.13343 0.0
N1596 N 0.84313 0.72481 0.07528 0.0
N1597 N 0.80545 0.77345 0.15032 0.0
H1598 H 0.81363 0.70382 0.15292 0.0
H1599 H 0.80906 0.73048 0.16806 0.0
H1600 H 0.8042 0.79229 0.15105 0.0
H1601 H 0.79529 0.76483 0.16286 0.0
H1602 H 0.84685 0.73332 0.05985 0.0
H1603 H 0.84313 0.70595 0.07409 0.0
H1604 H 0.85882 0.76817 0.06591 0.0
H1605 H 0.84903 0.79473 0.07892 0.0
C1606 C 0.67555 0.26339 0.63273 0.0
C1607 C 0.67167 0.27613 0.61205 0.0
C1608 C 0.66852 0.23783 0.59107 0.0
C1609 C 0.67307 0.22513 0.61164 0.0
N1610 N 0.68425 0.22512 0.65136 0.0
N1611 N 0.66765 0.27644 0.57118 0.0
C1612 C 0.67763 0.23773 0.63228 0.0
C1613 C 0.66914 0.26361 0.59107 0.0
N1614 N 0.67658 0.27585 0.65286 0.0
N1615 N 0.663 0.22518 0.57171 0.0
H1616 H 0.66727 0.29533 0.57066 0.0
H1617 H 0.66834 0.26859 0.55509 0.0
H1618 H 0.66335 0.2063 0.5709 0.0
H1619 H 0.65679 0.23316 0.55676 0.0
H1620 H 0.67638 0.26763 0.66881 0.0
H1621 H 0.67623 0.29473 0.6538 0.0
H1622 H 0.69049 0.23322 0.66624 0.0
H1623 H 0.6851 0.20625 0.65193 0.0
C1624 C 0.0126 0.41793 0.88192 0.0
C1625 C 0.02532 0.42686 0.86266 0.0
C1626 C 0.98701 0.43219 0.84216 0.0
C1627 C 0.97427 0.42508 0.86206 0.0
N1628 N 0.97456 0.4164 0.90235 0.0
N1629 N 0.02478 0.44671 0.82608 0.0
C1630 C 0.98697 0.41953 0.88241 0.0
C1631 C 0.01256 0.43526 0.84323 0.0
N1632 N 0.02489 0.40696 0.89932 0.0
N1633 N 0.97483 0.4351 0.82207 0.0
H1634 H 0.0435 0.44935 0.82636 0.0
H1635 H 0.01619 0.45543 0.81258 0.0
H1636 H 0.95612 0.43301 0.82063 0.0
H1637 H 0.98347 0.43767 0.80649 0.0
H1638 H 0.01631 0.39777 0.91255 0.0
H1639 H 0.04368 0.40503 0.89952 0.0
H1640 H 0.98303 0.41483 0.91814 0.0
H1641 H 0.95574 0.41772 0.90348 0.0
C1642 C 0.51231 0.58435 0.37789 0.0
C1643 C 0.52501 0.56962 0.36207 0.0
C1644 C 0.48667 0.5546 0.34639 0.0
C1645 C 0.47401 0.56865 0.36277 0.0
N1646 N 0.47407 0.59455 0.39587 0.0
N1647 N 0.52524 0.53861 0.3332 0.0
C1648 C 0.48665 0.58283 0.37906 0.0
C1649 C 0.51245 0.55408 0.34687 0.0
N1650 N 0.52482 0.60024 0.3914 0.0
N1651 N 0.47398 0.5422 0.33012 0.0
H1652 H 0.54412 0.53831 0.33268 0.0
H1653 H 0.51735 0.525 0.32343 0.0
H1654 H 0.4551 0.54143 0.32982 0.0
H1655 H 0.48194 0.53376 0.31615 0.0
H1656 H 0.51665 0.61362 0.40124 0.0
H1657 H 0.54369 0.6011 0.39186 0.0
H1658 H 0.48219 0.6028 0.40986 0.0
H1659 H 0.4552 0.59482 0.39672 0.0
C1660 C 0.50882 0.44138 0.64963 0.0
C1661 C 0.52215 0.42868 0.63277 0.0
C1662 C 0.48446 0.41709 0.61366 0.0
C1663 C 0.47111 0.42761 0.63178 0.0
N1664 N 0.47017 0.44706 0.66855 0.0
N1665 N 0.52295 0.40109 0.60085 0.0
C1666 C 0.48317 0.43909 0.6502 0.0
C1667 C 0.51006 0.41563 0.61531 0.0
N1668 N 0.52065 0.4561 0.6647 0.0
N1669 N 0.47268 0.40905 0.59461 0.0
H1670 H 0.54176 0.39939 0.60153 0.0
H1671 H 0.51488 0.38908 0.58946 0.0
H1672 H 0.4539 0.40982 0.59275 0.0
H1673 H 0.48161 0.40364 0.57983 0.0
H1674 H 0.5118 0.46781 0.67584 0.0
H1675 H 0.53945 0.45811 0.6648 0.0
H1676 H 0.47811 0.45314 0.68359 0.0
H1677 H 0.45133 0.44589 0.66947 0.0
C1678 C 0.01557 0.55229 0.14402 0.0
C1679 C 0.0278 0.57169 0.13312 0.0
C1680 C 0.98905 0.59071 0.12341 0.0
C1681 C 0.97681 0.57056 0.13303 0.0
N1682 N 0.97766 0.53088 0.15007 0.0
N1683 N 0.0269 0.60774 0.1099 0.0
C1684 C 0.98987 0.55096 0.14269 0.0
C1685 C 0.01473 0.59046 0.12207 0.0
N1686 N 0.02856 0.53548 0.15601 0.0
N1687 N 0.9761 0.61039 0.11612 0.0
H1688 H 0.04576 0.60868 0.10913 0.0
H1689 H 0.01844 0.6202 0.09923 0.0
H1690 H 0.95721 0.61106 0.11626 0.0
H1691 H 0.98396 0.62678 0.11143 0.0
H1692 H 0.02072 0.52239 0.16642 0.0
H1693 H 0.04745 0.53553 0.15674 0.0
H1694 H 0.98612 0.51488 0.15506 0.0
H1695 H 0.95881 0.52957 0.14979 0.0
C1696 C 0.19978 0.52484 0.9982 0.0
C1697 C 0.19757 0.5137 0.01984 0.0
C1698 C 0.19922 0.47361 0.00209 0.0
C1699 C 0.19727 0.48479 0.98045 0.0
N1700 N 0.19476 0.52087 0.95736 0.0
N1701 N 0.19441 0.47772 0.04296 0.0
C1702 C 0.19769 0.51039 0.97829 0.0
C1703 C 0.19746 0.48811 0.02201 0.0
N1704 N 0.2039 0.54922 0.99681 0.0
N1705 N 0.20277 0.44914 0.00348 0.0
H1706 H 0.1936 0.48775 0.05799 0.0
H1707 H 0.19124 0.45931 0.04538 0.0
H1708 H 0.20405 0.4381 0.98909 0.0
H1709 H 0.20658 0.44011 0.01862 0.0
H1710 H 0.20796 0.55814 0.98166 0.0
H1711 H 0.20542 0.56024 0.01118 0.0
H1712 H 0.19195 0.53935 0.95498 0.0
H1713 H 0.19364 0.5109 0.94231 0.0
C1714 C 0.72985 0.95318 0.25514 0.0
C1715 C 0.73983 0.94265 0.27507 0.0
C1716 C 0.77865 0.93656 0.25566 0.0
C1717 C 0.76755 0.94378 0.23496 0.0
N1718 N 0.73325 0.95941 0.2143 0.0
N1719 N 0.77336 0.92469 0.29518 0.0
C1720 C 0.74341 0.95259 0.23456 0.0
C1721 C 0.76429 0.93478 0.27568 0.0
N1722 N 0.70738 0.96359 0.25598 0.0
N1723 N 0.80287 0.93135 0.25603 0.0
H1724 H 0.76369 0.92423 0.31045 0.0
H1725 H 0.78998 0.91586 0.29616 0.0
H1726 H 0.81375 0.93205 0.24153 0.0
H1727 H 0.81268 0.92807 0.27084 0.0
H1728 H 0.69982 0.97354 0.24272 0.0
H1729 H 0.69682 0.96382 0.27071 0.0
H1730 H 0.71495 0.96327 0.21216 0.0
H1731 H 0.74307 0.96026 0.19913 0.0
C1732 C 0.30712 0.46907 0.49531 0.0
C1733 C 0.29904 0.47967 0.51595 0.0
C1734 C 0.28858 0.51714 0.49587 0.0
C1735 C 0.30008 0.50784 0.47615 0.0
N1736 N 0.32014 0.47532 0.45627 0.0
N1737 N 0.28168 0.51316 0.53657 0.0
C1738 C 0.30896 0.48373 0.47551 0.0
C1739 C 0.28928 0.50344 0.51636 0.0
N1740 N 0.31311 0.44502 0.4948 0.0
N1741 N 0.27712 0.53908 0.4949 0.0
H1742 H 0.281 0.5032 0.55166 0.0
H1743 H 0.27704 0.53129 0.53872 0.0
H1744 H 0.27664 0.5496 0.48014 0.0
H1745 H 0.26654 0.54608 0.50801 0.0
H1746 H 0.31702 0.43552 0.47994 0.0
H1747 H 0.31234 0.43394 0.50917 0.0
H1748 H 0.32969 0.45909 0.45546 0.0
H1749 H 0.32088 0.4852 0.44113 0.0
C1750 C 0.76219 0.06921 0.72614 0.0
C1751 C 0.74188 0.05357 0.72424 0.0
C1752 C 0.74966 0.03731 0.76234 0.0
C1753 C 0.77003 0.05286 0.76414 0.0
N1754 N 0.79936 0.07889 0.74617 0.0
N1755 N 0.71936 0.01908 0.73773 0.0
C1756 C 0.77752 0.06724 0.74544 0.0
C1757 C 0.73665 0.03636 0.74148 0.0
N1758 N 0.76607 0.08681 0.71014 0.0
N1759 N 0.74215 0.02434 0.78088 0.0
H1760 H 0.70955 0.01802 0.72256 0.0
H1761 H 0.7162 0.00461 0.74871 0.0
H1762 H 0.75158 0.02418 0.79627 0.0
H1763 H 0.72584 0.0149 0.7815 0.0
H1764 H 0.77882 0.10057 0.71202 0.0
H1765 H 0.7554 0.0888 0.69561 0.0
H1766 H 0.80696 0.08778 0.73226 0.0
H1767 H 0.811 0.07776 0.76014 0.0
C1768 C 0.80409 0.50903 0.97742 0.0
C1769 C 0.80923 0.48392 0.97927 0.0
C1770 C 0.81511 0.48799 0.02039 0.0
C1771 C 0.80927 0.51297 0.01867 0.0
N1772 N 0.793 0.54618 0.99689 0.0
N1773 N 0.81398 0.44835 0.00263 0.0
C1774 C 0.80206 0.52315 0.99756 0.0
C1775 C 0.81288 0.47303 0.00085 0.0
N1776 N 0.80225 0.51958 0.95641 0.0
N1777 N 0.82398 0.47881 0.04035 0.0
H1778 H 0.81243 0.43687 0.98858 0.0
H1779 H 0.81416 0.43921 0.01814 0.0
H1780 H 0.82589 0.48914 0.05509 0.0
H1781 H 0.83121 0.46146 0.04187 0.0
H1782 H 0.80135 0.53824 0.95393 0.0
H1783 H 0.80334 0.50979 0.94125 0.0
H1784 H 0.78522 0.55382 0.98242 0.0
H1785 H 0.79125 0.55696 0.01141 0.0
C1786 C 0.22195 0.06769 0.74457 0.0
C1787 C 0.23027 0.05543 0.76429 0.0
C1788 C 0.26596 0.04096 0.74353 0.0
C1789 C 0.25931 0.05595 0.72495 0.0
N1790 N 0.23192 0.08463 0.70765 0.0
N1791 N 0.25998 0.03073 0.78336 0.0
C1792 C 0.23739 0.06939 0.7253 0.0
C1793 C 0.25212 0.04192 0.76394 0.0
N1794 N 0.19926 0.07764 0.74433 0.0
N1795 N 0.28537 0.02572 0.74147 0.0
H1796 H 0.24975 0.03022 0.7983 0.0
H1797 H 0.27707 0.02299 0.78513 0.0
H1798 H 0.29593 0.02482 0.72675 0.0
H1799 H 0.28992 0.01266 0.75351 0.0
H1800 H 0.1911 0.0847 0.7298 0.0
H1801 H 0.18765 0.07703 0.75833 0.0
H1802 H 0.21782 0.09714 0.70807 0.0
H1803 H 0.24245 0.08594 0.69295 0.0
C1804 C 0.68923 0.48954 0.47824 0.0
C1805 C 0.6899 0.51518 0.48002 0.0
C1806 C 0.68943 0.51232 0.52161 0.0
C1807 C 0.68995 0.48667 0.51982 0.0
N1808 N 0.69664 0.45108 0.49686 0.0
N1809 N 0.69682 0.55075 0.50294 0.0
C1810 C 0.69192 0.47535 0.49822 0.0
C1811 C 0.69203 0.5265 0.50161 0.0
N1812 N 0.68471 0.47873 0.45772 0.0
N1813 N 0.68513 0.52314 0.54216 0.0
H1814 H 0.69908 0.56162 0.48855 0.0
H1815 H 0.7009 0.55955 0.51817 0.0
H1816 H 0.6828 0.51346 0.55724 0.0
H1817 H 0.68184 0.54163 0.54396 0.0
H1818 H 0.68133 0.46026 0.45596 0.0
H1819 H 0.68224 0.48841 0.44265 0.0
H1820 H 0.70058 0.44227 0.48161 0.0
H1821 H 0.69898 0.44021 0.51124 0.0
C1822 C 0.24594 0.95397 0.26637 0.0
C1823 C 0.26984 0.94454 0.2654 0.0
C1824 C 0.26569 0.93685 0.22448 0.0
C1825 C 0.24142 0.94523 0.22567 0.0
N1826 N 0.20949 0.96576 0.24591 0.0
N1827 N 0.30429 0.93101 0.2436 0.0
C1828 C 0.23193 0.95521 0.24606 0.0
C1829 C 0.28035 0.93739 0.24439 0.0
N1830 N 0.23648 0.96092 0.2869 0.0
N1831 N 0.27431 0.92755 0.20444 0.0
H1832 H 0.31533 0.93036 0.25799 0.0
H1833 H 0.31383 0.92779 0.22863 0.0
H1834 H 0.26452 0.92819 0.18924 0.0
H1835 H 0.2907 0.91843 0.2028 0.0
H1836 H 0.21839 0.96534 0.28952 0.0
H1837 H 0.24673 0.9615 0.30183 0.0
H1838 H 0.2022 0.97533 0.25954 0.0
H1839 H 0.19853 0.96634 0.23145 0.0
C1840 C 0.68843 0.02928 0.49537 0.0
C1841 C 0.68993 0.01791 0.51696 0.0
C1842 C 0.69332 0.97814 0.49872 0.0
C1843 C 0.68828 0.9892 0.47745 0.0
N1844 N 0.68051 0.02486 0.45491 0.0
N1845 N 0.69328 0.98184 0.5399 0.0
C1846 C 0.68601 0.01472 0.47553 0.0
C1847 C 0.69257 0.99242 0.51884 0.0
N1848 N 0.68941 0.05399 0.49394 0.0
N1849 N 0.69885 0.954 0.49955 0.0
H1850 H 0.69365 0.99181 0.555 0.0
H1851 H 0.69222 0.96324 0.54258 0.0
H1852 H 0.69919 0.94301 0.48509 0.0
H1853 H 0.70499 0.94523 0.51414 0.0
H1854 H 0.69072 0.06344 0.47865 0.0
H1855 H 0.69091 0.06511 0.50825 0.0
H1856 H 0.67574 0.04296 0.45277 0.0
H1857 H 0.67945 0.01482 0.43989 0.0
C1858 C 0.23445 0.43966 0.72645 0.0
C1859 C 0.25866 0.44828 0.72689 0.0
C1860 C 0.25486 0.45886 0.76721 0.0
C1861 C 0.231 0.44933 0.767 0.0
N1862 N 0.19596 0.43573 0.74614 0.0
N1863 N 0.29037 0.47078 0.74544 0.0
C1864 C 0.22006 0.4415 0.74643 0.0
C1865 C 0.26832 0.45955 0.74658 0.0
N1866 N 0.22569 0.42873 0.70722 0.0
N1867 N 0.26489 0.46625 0.78735 0.0
H1868 H 0.30072 0.47124 0.73058 0.0
H1869 H 0.29764 0.48119 0.75854 0.0
H1870 H 0.2551 0.46694 0.80255 0.0
H1871 H 0.28307 0.47072 0.78934 0.0
H1872 H 0.20936 0.41936 0.70652 0.0
H1873 H 0.23538 0.42803 0.69197 0.0
H1874 H 0.18624 0.43201 0.73137 0.0
H1875 H 0.18506 0.43649 0.76063 0.0
C1876 C 0.79377 0.98893 0.98183 0.0
C1877 C 0.80323 0.01283 0.98222 0.0
C1878 C 0.81279 0.00889 0.02272 0.0
C1879 C 0.80273 0.98522 0.02252 0.0
N1880 N 0.77839 0.955 0.00376 0.0
N1881 N 0.81559 0.04782 0.00384 0.0
C1882 C 0.79144 0.97601 0.00264 0.0
C1883 C 0.81067 0.02356 0.003 0.0
N1884 N 0.78824 0.97811 0.96154 0.0
N1885 N 0.82563 0.01686 0.04118 0.0
H1886 H 0.81406 0.0591 0.98964 0.0
H1887 H 0.81883 0.05713 0.01897 0.0
H1888 H 0.82795 0.00665 0.05596 0.0
H1889 H 0.8357 0.03282 0.04117 0.0
H1890 H 0.78395 0.95981 0.96002 0.0
H1891 H 0.78965 0.98697 0.94591 0.0
H1892 H 0.76783 0.94854 0.99037 0.0
H1893 H 0.77628 0.94522 0.01884 0.0
C1894 C 0.2301 0.54503 0.24517 0.0
C1895 C 0.24112 0.55391 0.22502 0.0
C1896 C 0.28028 0.55703 0.24447 0.0
C1897 C 0.26847 0.55147 0.26528 0.0
N1898 N 0.23297 0.53921 0.28612 0.0
N1899 N 0.27634 0.5674 0.20441 0.0
C1900 C 0.24366 0.54478 0.26576 0.0
C1901 C 0.26625 0.55925 0.22427 0.0
N1902 N 0.20664 0.53706 0.24455 0.0
N1903 N 0.30484 0.56038 0.24419 0.0
H1904 H 0.26682 0.56797 0.18905 0.0
H1905 H 0.29377 0.57439 0.20308 0.0
H1906 H 0.31551 0.55951 0.25882 0.0
H1907 H 0.31504 0.56242 0.22942 0.0
H1908 H 0.19802 0.52839 0.25802 0.0
H1909 H 0.19606 0.53763 0.22984 0.0
H1910 H 0.21443 0.53692 0.28835 0.0
H1911 H 0.24274 0.53766 0.30127 0.0
C1912 C 0.31891 0.98284 0.52049 0.0
C1913 C 0.31089 0.00725 0.5195 0.0
C1914 C 0.30246 0.00333 0.47868 0.0
C1915 C 0.31107 0.97912 0.47955 0.0
N1916 N 0.32403 0.94427 0.50111 0.0
N1917 N 0.29141 0.03988 0.49932 0.0
C1918 C 0.3181 0.96834 0.50048 0.0
C1919 C 0.30141 0.0172 0.49908 0.0
N1920 N 0.32806 0.97389 0.54047 0.0
N1921 N 0.29605 0.01321 0.45816 0.0
H1922 H 0.29105 0.05079 0.51382 0.0
H1923 H 0.28207 0.04747 0.48569 0.0
H1924 H 0.29536 0.00317 0.44311 0.0
H1925 H 0.29233 0.03148 0.45567 0.0
H1926 H 0.3369 0.95732 0.54196 0.0
H1927 H 0.32766 0.98355 0.55574 0.0
H1928 H 0.32701 0.93456 0.51602 0.0
H1929 H 0.32462 0.93335 0.48663 0.0
C1930 C 0.78007 0.56322 0.25181 0.0
C1931 C 0.76927 0.5559 0.23099 0.0
C1932 C 0.73141 0.54608 0.25077 0.0
C1933 C 0.7412 0.55629 0.27092 0.0
N1934 N 0.77444 0.57418 0.29154 0.0
N1935 N 0.73537 0.53995 0.20995 0.0
C1936 C 0.76557 0.56445 0.27178 0.0
C1937 C 0.7452 0.54689 0.23033 0.0
N1938 N 0.80416 0.56903 0.25237 0.0
N1939 N 0.70891 0.53568 0.25128 0.0
H1940 H 0.74541 0.5391 0.19491 0.0
H1941 H 0.71715 0.53591 0.20757 0.0
H1942 H 0.69811 0.5354 0.26585 0.0
H1943 H 0.70147 0.5259 0.23785 0.0
H1944 H 0.81384 0.57232 0.26725 0.0
H1945 H 0.81511 0.56901 0.23792 0.0
H1946 H 0.79093 0.58318 0.29281 0.0
H1947 H 0.76474 0.57414 0.30679 0.0
C1948 C 0.20267 0.98177 0.00094 0.0
C1949 C 0.18818 0.98936 0.01957 0.0
C1950 C 0.17726 0.02653 -0.00076 0.0
C1951 C 0.18919 0.01747 0.97962 0.0
N1952 N 0.21241 0.98636 0.96084 0.0
N1953 N 0.16015 0.01777 0.03635 0.0
C1954 C 0.20186 0.99512 0.98025 0.0
C1955 C 0.17523 0.01156 0.0188 0.0
N1956 N 0.2174 0.962 0.00325 0.0
N1957 N 0.16803 0.04953 -0.00085 0.0
H1958 H 0.15853 0.00755 0.05121 0.0
H1959 H 0.14799 0.03217 0.03566 0.0
H1960 H 0.16889 0.06086 0.98496 0.0
H1961 H 0.16135 0.05818 0.0136 0.0
H1962 H 0.23017 0.95681 0.99116 0.0
H1963 H 0.21821 0.95177 0.01818 0.0
H1964 H 0.21947 0.96895 0.95938 0.0
H1965 H 0.21294 0.99613 0.94563 0.0
C1966 C 0.75015 0.45502 0.73417 0.0
C1967 C 0.72899 0.44047 0.73337 0.0
C1968 C 0.73683 0.42546 0.77187 0.0
C1969 C 0.75798 0.44006 0.77273 0.0
N1970 N 0.78225 0.47237 0.75731 0.0
N1971 N 0.69901 0.41632 0.75267 0.0
C1972 C 0.76381 0.45607 0.75467 0.0
C1973 C 0.72128 0.42718 0.75269 0.0
N1974 N 0.75762 0.46705 0.71506 0.0
N1975 N 0.73227 0.40911 0.78885 0.0
H1976 H 0.68728 0.4171 0.73876 0.0
H1977 H 0.69124 0.40838 0.767 0.0
H1978 H 0.74297 0.40757 0.80341 0.0
H1979 H 0.71883 0.39592 0.78788 0.0
H1980 H 0.77433 0.47566 0.71365 0.0
H1981 H 0.74759 0.46733 0.7 0.0
H1982 H 0.78603 0.4861 0.7457 0.0
H1983 H 0.79262 0.47342 0.77214 0.0
loop_
_geom_bond_atom_site_label_1
_geom_bond_atom_site_label_2
_geom_bond_distance
_geom_bond_site_symmetry_2
_ccdc_geom_bond_type
Li0 N17 1.990 . S
Li0 O60 1.956 . S
Li0 O61 1.970 . S
Li0 O62 1.961 . S
Li1 N25 1.990 . S
Li1 O60 1.970 . S
Li1 O61 1.956 . S
Li1 O63 1.961 . S
Li2 N47 1.990 . S
Li2 O60 1.961 . S
Li2 O62 1.956 . S
Li2 O63 1.970 . S
Li3 N53 1.990 . S
Li3 O61 1.961 . S
Li3 O62 1.970 . S
Li3 O63 1.956 . S
C4 C6 1.348 . S
C4 C7 1.356 . S
C4 O60 1.325 . S
N5 C8 1.314 . S
N5 C9 1.279 . S
C6 C4 1.348 . S
C6 C8 1.353 . S
C6 H64 0.929 . S
C7 C4 1.356 . S
C7 C9 1.358 . S
C7 H65 0.930 . S
C8 N5 1.314 . S
C8 C6 1.353 . S
C8 H66 0.930 . S
C9 N5 1.279 . S
C9 C7 1.358 . S
C9 H67 0.930 . S
C10 C13 1.348 . S
C10 C14 1.356 . S
C10 O61 1.325 . S
C11 N12 1.279 . S
C11 C14 1.358 . S
C11 H68 0.930 . S
N12 C11 1.279 . S
N12 C15 1.314 . S
C13 C10 1.348 . S
C13 C15 1.353 . S
C13 H69 0.929 . S
C14 C10 1.356 . S
C14 C11 1.358 . S
C14 H70 0.930 . S
C15 N12 1.314 . S
C15 C13 1.353 . S
C15 H71 0.930 . S
C16 N17 1.314 . S
C16 C21 1.353 . S
C16 H22 0.930 . S
N17 Li0 1.990 . S
N17 C16 1.314 . S
N17 C19 1.279 . S
C18 C19 1.358 . S
C18 C20 1.356 . S
C18 H72 0.930 . S
C19 N17 1.279 . S
C19 C18 1.358 . S
C19 H23 0.930 . S
C20 C18 1.356 . S
C20 C21 1.348 . S
C21 C16 1.353 . S
C21 C20 1.348 . S
C21 H73 0.929 . S
H22 C16 0.930 . S
H23 C19 0.930 . S
C24 N25 1.314 . S
C24 C26 1.353 . S
C24 H30 0.930 . S
N25 Li1 1.990 . S
N25 C24 1.314 . S
N25 C28 1.279 . S
C26 C24 1.353 . S
C26 C29 1.348 . S
C26 H74 0.929 . S
C27 C28 1.358 . S
C27 C29 1.356 . S
C27 H75 0.930 . S
C28 N25 1.279 . S
C28 C27 1.358 . S
C28 H31 0.930 . S
C29 C26 1.348 . S
C29 C27 1.356 . S
H30 C24 0.930 . S
H31 C28 0.930 . S
C32 C34 1.348 . S
C32 C35 1.356 . S
C32 O62 1.325 . S
N33 C36 1.314 . S
N33 C37 1.279 . S
C34 C32 1.348 . S
C34 C36 1.353 . S
C34 H76 0.929 . S
C35 C32 1.356 . S
C35 C37 1.358 . S
C35 H77 0.930 . S
C36 N33 1.314 . S
C36 C34 1.353 . S
C36 H78 0.930 . S
C37 N33 1.279 . S
C37 C35 1.358 . S
C37 H79 0.930 . S
C38 C39 1.348 . S
C38 C40 1.356 . S
C38 O63 1.325 . S
C39 C38 1.348 . S
C39 C41 1.353 . S
C39 H80 0.929 . S
C40 C38 1.356 . S
C40 C42 1.358 . S
C40 H81 0.930 . S
C41 C39 1.353 . S
C41 N43 1.314 . S
C41 H82 0.930 . S
C42 C40 1.358 . S
C42 N43 1.279 . S
C42 H83 0.930 . S
N43 C41 1.314 . S
N43 C42 1.279 . S
C44 C46 1.353 . S
C44 N47 1.314 . S
C44 H50 0.930 . S
C45 N47 1.279 . S
C45 C48 1.358 . S
C45 H51 0.930 . S
C46 C44 1.353 . S
C46 C49 1.348 . S
C46 H84 0.929 . S
N47 Li2 1.990 . S
N47 C44 1.314 . S
N47 C45 1.279 . S
C48 C45 1.358 . S
C48 C49 1.356 . S
C48 H85 0.930 . S
C49 C46 1.348 . S
C49 C48 1.356 . S
H50 C44 0.930 . S
H51 C45 0.930 . S
C52 N53 1.314 . S
C52 C54 1.353 . S
C52 H58 0.930 . S
N53 Li3 1.990 . S
N53 C52 1.314 . S
N53 C56 1.279 . S
C54 C52 1.353 . S
C54 C57 1.348 . S
C54 H86 0.929 . S
C55 C56 1.358 . S
C55 C57 1.356 . S
C55 H87 0.930 . S
C56 N53 1.279 . S
C56 C55 1.358 . S
C56 H59 0.930 . S
C57 C54 1.348 . S
C57 C55 1.356 . S
H58 C52 0.930 . S
H59 C56 0.930 . S
O60 Li0 1.956 . S
O60 Li1 1.970 . S
O60 Li2 1.961 . S
O60 C4 1.325 . S
O61 Li0 1.970 . S
O61 Li1 1.956 . S
O61 Li3 1.961 . S
O61 C10 1.325 . S
O62 Li0 1.961 . S
O62 Li2 1.956 . S
O62 Li3 1.970 . S
O62 C32 1.325 . S
O63 Li1 1.961 . S
O63 Li2 1.970 . S
O63 Li3 1.956 . S
O63 C38 1.325 . S
H64 C6 0.929 . S
H65 C7 0.930 . S
H66 C8 0.930 . S
H67 C9 0.930 . S
H68 C11 0.930 . S
H69 C13 0.929 . S
H70 C14 0.930 . S
H71 C15 0.930 . S
H72 C18 0.930 . S
H73 C21 0.929 . S
H74 C26 0.929 . S
H75 C27 0.930 . S
H76 C34 0.929 . S
H77 C35 0.930 . S
H78 C36 0.930 . S
H79 C37 0.930 . S
H80 C39 0.929 . S
H81 C40 0.930 . S
H82 C41 0.930 . S
H83 C42 0.930 . S
H84 C46 0.929 . S
H85 C48 0.930 . S
H86 C54 0.929 . S
H87 C55 0.930 . S
Li88 N105 1.990 . S
Li88 O148 1.956 . S
Li88 O149 1.970 . S
Li88 O150 1.961 . S
Li89 N113 1.990 . S
Li89 O148 1.970 . S
Li89 O149 1.956 . S
Li89 O151 1.961 . S
Li90 N135 1.990 . S
Li90 O148 1.961 . S
Li90 O150 1.956 . S
Li90 O151 1.970 . S
Li91 N141 1.990 . S
Li91 O149 1.961 . S
Li91 O150 1.970 . S
Li91 O151 1.956 . S
C92 C94 1.348 . S
C92 C95 1.356 . S
C92 O148 1.325 . S
N93 C96 1.314 . S
N93 C97 1.279 . S
C94 C92 1.348 . S
C94 C96 1.353 1_565 S
C94 H152 0.929 . S
C95 C92 1.356 . S
C95 C97 1.358 1_565 S
C95 H153 0.930 . S
C96 N93 1.314 . S
C96 C94 1.353 1_545 S
C96 H154 0.930 . S
C97 N93 1.279 . S
C97 C95 1.358 1_545 S
C97 H155 0.930 . S
C98 C101 1.348 . S
C98 C102 1.356 . S
C98 O149 1.325 . S
C99 N100 1.279 . S
C99 C102 1.358 . S
C99 H156 0.930 . S
N100 C99 1.279 . S
N100 C103 1.314 . S
C101 C98 1.348 . S
C101 C103 1.353 . S
C101 H157 0.929 . S
C102 C98 1.356 . S
C102 C99 1.358 . S
C102 H158 0.930 . S
C103 N100 1.314 . S
C103 C101 1.353 . S
C103 H159 0.930 . S
C104 N105 1.314 . S
C104 C109 1.353 . S
C104 H110 0.930 . S
N105 Li88 1.990 . S
N105 C104 1.314 . S
N105 C107 1.279 . S
C106 C107 1.358 . S
C106 C108 1.356 . S
C106 H160 0.930 . S
C107 N105 1.279 . S
C107 C106 1.358 . S
C107 H111 0.930 . S
C108 C106 1.356 . S
C108 C109 1.348 . S
C109 C104 1.353 . S
C109 C108 1.348 . S
C109 H161 0.929 . S
H110 C104 0.930 . S
H111 C107 0.930 . S
C112 N113 1.314 . S
C112 C114 1.353 . S
C112 H118 0.930 . S
N113 Li89 1.990 . S
N113 C112 1.314 . S
N113 C116 1.279 . S
C114 C112 1.353 . S
C114 C117 1.348 . S
C114 H162 0.929 . S
C115 C116 1.358 . S
C115 C117 1.356 . S
C115 H163 0.930 . S
C116 N113 1.279 . S
C116 C115 1.358 . S
C116 H119 0.930 . S
C117 C114 1.348 . S
C117 C115 1.356 . S
H118 C112 0.930 . S
H119 C116 0.930 . S
C120 C122 1.348 . S
C120 C123 1.356 . S
C120 O150 1.325 . S
N121 C124 1.314 . S
N121 C125 1.279 . S
C122 C120 1.348 . S
C122 C124 1.353 . S
C122 H164 0.929 . S
C123 C120 1.356 . S
C123 C125 1.358 . S
C123 H165 0.930 . S
C124 N121 1.314 . S
C124 C122 1.353 . S
C124 H166 0.930 . S
C125 N121 1.279 . S
C125 C123 1.358 . S
C125 H167 0.930 . S
C126 C127 1.348 . S
C126 C128 1.356 . S
C126 O151 1.325 . S
C127 C126 1.348 . S
C127 C129 1.353 . S
C127 H168 0.929 . S
C128 C126 1.356 . S
C128 C130 1.358 . S
C128 H169 0.930 . S
C129 C127 1.353 . S
C129 N131 1.314 . S
C129 H170 0.930 . S
C130 C128 1.358 . S
C130 N131 1.279 . S
C130 H171 0.930 . S
N131 C129 1.314 . S
N131 C130 1.279 . S
C132 C134 1.353 . S
C132 N135 1.314 . S
C132 H138 0.930 . S
C133 N135 1.279 . S
C133 C136 1.358 . S
C133 H139 0.930 . S
C134 C132 1.353 . S
C134 C137 1.348 . S
C134 H172 0.929 . S
N135 Li90 1.990 . S
N135 C132 1.314 . S
N135 C133 1.279 . S
C136 C133 1.358 . S
C136 C137 1.356 . S
C136 H173 0.930 . S
C137 C134 1.348 . S
C137 C136 1.356 . S
H138 C132 0.930 . S
H139 C133 0.930 . S
C140 N141 1.314 . S
C140 C142 1.353 . S
C140 H146 0.930 . S
N141 Li91 1.990 . S
N141 C140 1.314 . S
N141 C144 1.279 . S
C142 C140 1.353 . S
C142 C145 1.348 . S
C142 H174 0.929 . S
C143 C144 1.358 . S
C143 C145 1.356 . S
C143 H175 0.930 . S
C144 N141 1.279 . S
C144 C143 1.358 . S
C144 H147 0.930 . S
C145 C142 1.348 . S
C145 C143 1.356 . S
H146 C140 0.930 . S
H147 C144 0.930 . S
O148 Li88 1.956 . S
O148 Li89 1.970 . S
O148 Li90 1.961 . S
O148 C92 1.325 . S
O149 Li88 1.970 . S
O149 Li89 1.956 . S
O149 Li91 1.961 . S
O149 C98 1.325 . S
O150 Li88 1.961 . S
O150 Li90 1.956 . S
O150 Li91 1.970 . S
O150 C120 1.325 . S
O151 Li89 1.961 . S
O151 Li90 1.970 . S
O151 Li91 1.956 . S
O151 C126 1.325 . S
H152 C94 0.929 . S
H153 C95 0.930 . S
H154 C96 0.930 . S
H155 C97 0.930 . S
H156 C99 0.930 . S
H157 C101 0.929 . S
H158 C102 0.930 . S
H159 C103 0.930 . S
H160 C106 0.930 . S
H161 C109 0.929 . S
H162 C114 0.929 . S
H163 C115 0.930 . S
H164 C122 0.929 . S
H165 C123 0.930 . S
H166 C124 0.930 . S
H167 C125 0.930 . S
H168 C127 0.929 . S
H169 C128 0.930 . S
H170 C129 0.930 . S
H171 C130 0.930 . S
H172 C134 0.929 . S
H173 C136 0.930 . S
H174 C142 0.929 . S
H175 C143 0.930 . S
Li176 N193 1.990 . S
Li176 O236 1.956 . S
Li176 O237 1.970 . S
Li176 O238 1.961 . S
Li177 N201 1.990 . S
Li177 O236 1.970 . S
Li177 O237 1.956 . S
Li177 O239 1.961 . S
Li178 N223 1.990 . S
Li178 O236 1.961 . S
Li178 O238 1.956 . S
Li178 O239 1.970 . S
Li179 N229 1.990 . S
Li179 O237 1.961 . S
Li179 O238 1.970 . S
Li179 O239 1.956 . S
C180 C182 1.348 . S
C180 C183 1.356 . S
C180 O236 1.325 . S
N181 C184 1.314 . S
N181 C185 1.279 . S
C182 C180 1.348 . S
C182 C184 1.353 . S
C182 H240 0.929 . S
C183 C180 1.356 . S
C183 C185 1.358 . S
C183 H241 0.930 . S
C184 N181 1.314 . S
C184 C182 1.353 . S
C184 H242 0.930 . S
C185 N181 1.279 . S
C185 C183 1.358 . S
C185 H243 0.930 . S
C186 C189 1.348 . S
C186 C190 1.356 . S
C186 O237 1.325 . S
C187 N188 1.279 . S
C187 C190 1.358 . S
C187 H244 0.930 . S
N188 C187 1.279 . S
N188 C191 1.314 . S
C189 C186 1.348 . S
C189 C191 1.353 . S
C189 H245 0.929 . S
C190 C186 1.356 . S
C190 C187 1.358 . S
C190 H246 0.930 . S
C191 N188 1.314 . S
C191 C189 1.353 . S
C191 H247 0.930 . S
C192 N193 1.314 . S
C192 C197 1.353 . S
C192 H198 0.930 . S
N193 Li176 1.990 . S
N193 C192 1.314 . S
N193 C195 1.279 . S
C194 C195 1.358 . S
C194 C196 1.356 . S
C194 H248 0.930 . S
C195 N193 1.279 . S
C195 C194 1.358 . S
C195 H199 0.930 . S
C196 C194 1.356 . S
C196 C197 1.348 . S
C197 C192 1.353 . S
C197 C196 1.348 . S
C197 H249 0.929 . S
H198 C192 0.930 . S
H199 C195 0.930 . S
C200 N201 1.314 . S
C200 C202 1.353 . S
C200 H206 0.930 . S
N201 Li177 1.990 . S
N201 C200 1.314 . S
N201 C204 1.279 . S
C202 C200 1.353 . S
C202 C205 1.348 . S
C202 H250 0.929 . S
C203 C204 1.358 . S
C203 C205 1.356 . S
C203 H251 0.930 . S
C204 N201 1.279 . S
C204 C203 1.358 . S
C204 H207 0.930 . S
C205 C202 1.348 . S
C205 C203 1.356 . S
H206 C200 0.930 . S
H207 C204 0.930 . S
C208 C210 1.348 . S
C208 C211 1.356 . S
C208 O238 1.325 . S
N209 C212 1.314 . S
N209 C213 1.279 . S
C210 C208 1.348 . S
C210 C212 1.353 . S
C210 H252 0.929 . S
C211 C208 1.356 . S
C211 C213 1.358 . S
C211 H253 0.930 . S
C212 N209 1.314 . S
C212 C210 1.353 . S
C212 H254 0.930 . S
C213 N209 1.279 . S
C213 C211 1.358 . S
C213 H255 0.930 . S
C214 C215 1.348 . S
C214 C216 1.356 . S
C214 O239 1.325 . S
C215 C214 1.348 . S
C215 C217 1.353 . S
C215 H256 0.929 . S
C216 C214 1.356 . S
C216 C218 1.358 . S
C216 H257 0.930 . S
C217 C215 1.353 . S
C217 N219 1.314 . S
C217 H258 0.930 . S
C218 C216 1.358 . S
C218 N219 1.279 . S
C218 H259 0.930 . S
N219 C217 1.314 . S
N219 C218 1.279 . S
C220 C222 1.353 . S
C220 N223 1.314 . S
C220 H226 0.930 . S
C221 N223 1.279 . S
C221 C224 1.358 . S
C221 H227 0.930 . S
C222 C220 1.353 . S
C222 C225 1.348 . S
C222 H260 0.929 . S
N223 Li178 1.990 . S
N223 C220 1.314 . S
N223 C221 1.279 . S
C224 C221 1.358 . S
C224 C225 1.356 . S
C224 H261 0.930 . S
C225 C222 1.348 . S
C225 C224 1.356 . S
H226 C220 0.930 . S
H227 C221 0.930 . S
C228 N229 1.314 . S
C228 C230 1.353 . S
C228 H234 0.930 . S
N229 Li179 1.990 . S
N229 C228 1.314 . S
N229 C232 1.279 . S
C230 C228 1.353 . S
C230 C233 1.348 . S
C230 H262 0.929 . S
C231 C232 1.358 . S
C231 C233 1.356 . S
C231 H263 0.930 . S
C232 N229 1.279 . S
C232 C231 1.358 . S
C232 H235 0.930 . S
C233 C230 1.348 . S
C233 C231 1.356 . S
H234 C228 0.930 . S
H235 C232 0.930 . S
O236 Li176 1.956 . S
O236 Li177 1.970 . S
O236 Li178 1.961 . S
O236 C180 1.325 . S
O237 Li176 1.970 . S
O237 Li177 1.956 . S
O237 Li179 1.961 . S
O237 C186 1.325 . S
O238 Li176 1.961 . S
O238 Li178 1.956 . S
O238 Li179 1.970 . S
O238 C208 1.325 . S
O239 Li177 1.961 . S
O239 Li178 1.970 . S
O239 Li179 1.956 . S
O239 C214 1.325 . S
H240 C182 0.929 . S
H241 C183 0.930 . S
H242 C184 0.930 . S
H243 C185 0.930 . S
H244 C187 0.930 . S
H245 C189 0.929 . S
H246 C190 0.930 . S
H247 C191 0.930 . S
H248 C194 0.930 . S
H249 C197 0.929 . S
H250 C202 0.929 . S
H251 C203 0.930 . S
H252 C210 0.929 . S
H253 C211 0.930 . S
H254 C212 0.930 . S
H255 C213 0.930 . S
H256 C215 0.929 . S
H257 C216 0.930 . S
H258 C217 0.930 . S
H259 C218 0.930 . S
H260 C222 0.929 . S
H261 C224 0.930 . S
H262 C230 0.929 . S
H263 C231 0.930 . S
Li264 N281 1.990 . S
Li264 O324 1.956 . S
Li264 O325 1.970 . S
Li264 O326 1.961 . S
Li265 N289 1.990 . S
Li265 O324 1.970 . S
Li265 O325 1.956 . S
Li265 O327 1.961 . S
Li266 N311 1.990 . S
Li266 O324 1.961 . S
Li266 O326 1.956 . S
Li266 O327 1.970 . S
Li267 N317 1.990 . S
Li267 O325 1.961 . S
Li267 O326 1.970 . S
Li267 O327 1.956 . S
C268 C270 1.348 . S
C268 C271 1.356 . S
C268 O324 1.325 . S
N269 C272 1.314 . S
N269 C273 1.279 . S
C270 C268 1.348 . S
C270 C272 1.353 . S
C270 H328 0.929 . S
C271 C268 1.356 . S
C271 C273 1.358 . S
C271 H329 0.930 . S
C272 N269 1.314 . S
C272 C270 1.353 . S
C272 H330 0.930 . S
C273 N269 1.279 . S
C273 C271 1.358 . S
C273 H331 0.930 . S
C274 C277 1.348 . S
C274 C278 1.356 . S
C274 O325 1.325 . S
C275 N276 1.279 . S
C275 C278 1.358 . S
C275 H332 0.930 . S
N276 C275 1.279 . S
N276 C279 1.314 . S
C277 C274 1.348 . S
C277 C279 1.353 . S
C277 H333 0.929 . S
C278 C274 1.356 . S
C278 C275 1.358 . S
C278 H334 0.930 . S
C279 N276 1.314 . S
C279 C277 1.353 . S
C279 H335 0.930 . S
C280 N281 1.314 . S
C280 C285 1.353 . S
C280 H286 0.930 . S
N281 Li264 1.990 . S
N281 C280 1.314 . S
N281 C283 1.279 . S
C282 C283 1.358 . S
C282 C284 1.356 . S
C282 H336 0.930 . S
C283 N281 1.279 . S
C283 C282 1.358 . S
C283 H287 0.930 . S
C284 C282 1.356 . S
C284 C285 1.348 . S
C285 C280 1.353 . S
C285 C284 1.348 . S
C285 H337 0.929 . S
H286 C280 0.930 . S
H287 C283 0.930 . S
C288 N289 1.314 . S
C288 C290 1.353 . S
C288 H294 0.930 . S
N289 Li265 1.990 . S
N289 C288 1.314 . S
N289 C292 1.279 . S
C290 C288 1.353 . S
C290 C293 1.348 . S
C290 H338 0.929 . S
C291 C292 1.358 . S
C291 C293 1.356 . S
C291 H339 0.930 . S
C292 N289 1.279 . S
C292 C291 1.358 . S
C292 H295 0.930 . S
C293 C290 1.348 . S
C293 C291 1.356 . S
H294 C288 0.930 . S
H295 C292 0.930 . S
C296 C298 1.348 . S
C296 C299 1.356 . S
C296 O326 1.325 . S
N297 C300 1.314 . S
N297 C301 1.279 . S
C298 C296 1.348 . S
C298 C300 1.353 . S
C298 H340 0.929 . S
C299 C296 1.356 . S
C299 C301 1.358 . S
C299 H341 0.930 . S
C300 N297 1.314 . S
C300 C298 1.353 . S
C300 H342 0.930 . S
C301 N297 1.279 . S
C301 C299 1.358 . S
C301 H343 0.930 . S
C302 C303 1.348 . S
C302 C304 1.356 . S
C302 O327 1.325 . S
C303 C302 1.348 . S
C303 C305 1.353 1_545 S
C303 H344 0.929 . S
C304 C302 1.356 . S
C304 C306 1.358 1_545 S
C304 H345 0.930 . S
C305 C303 1.353 1_565 S
C305 N307 1.314 . S
C305 H346 0.930 . S
C306 C304 1.358 1_565 S
C306 N307 1.279 . S
C306 H347 0.930 . S
N307 C305 1.314 . S
N307 C306 1.279 . S
C308 C310 1.353 . S
C308 N311 1.314 . S
C308 H314 0.930 . S
C309 N311 1.279 . S
C309 C312 1.358 . S
C309 H315 0.930 . S
C310 C308 1.353 . S
C310 C313 1.348 . S
C310 H348 0.929 . S
N311 Li266 1.990 . S
N311 C308 1.314 . S
N311 C309 1.279 . S
C312 C309 1.358 . S
C312 C313 1.356 . S
C312 H349 0.930 . S
C313 C310 1.348 . S
C313 C312 1.356 . S
H314 C308 0.930 . S
H315 C309 0.930 . S
C316 N317 1.314 . S
C316 C318 1.353 . S
C316 H322 0.930 . S
N317 Li267 1.990 . S
N317 C316 1.314 . S
N317 C320 1.279 . S
C318 C316 1.353 . S
C318 C321 1.348 . S
C318 H350 0.929 . S
C319 C320 1.358 . S
C319 C321 1.356 . S
C319 H351 0.930 . S
C320 N317 1.279 . S
C320 C319 1.358 . S
C320 H323 0.930 . S
C321 C318 1.348 . S
C321 C319 1.356 . S
H322 C316 0.930 . S
H323 C320 0.930 . S
O324 Li264 1.956 . S
O324 Li265 1.970 . S
O324 Li266 1.961 . S
O324 C268 1.325 . S
O325 Li264 1.970 . S
O325 Li265 1.956 . S
O325 Li267 1.961 . S
O325 C274 1.325 . S
O326 Li264 1.961 . S
O326 Li266 1.956 . S
O326 Li267 1.970 . S
O326 C296 1.325 . S
O327 Li265 1.961 . S
O327 Li266 1.970 . S
O327 Li267 1.956 . S
O327 C302 1.325 . S
H328 C270 0.929 . S
H329 C271 0.930 . S
H330 C272 0.930 . S
H331 C273 0.930 . S
H332 C275 0.930 . S
H333 C277 0.929 . S
H334 C278 0.930 . S
H335 C279 0.930 . S
H336 C282 0.930 . S
H337 C285 0.929 . S
H338 C290 0.929 . S
H339 C291 0.930 . S
H340 C298 0.929 . S
H341 C299 0.930 . S
H342 C300 0.930 . S
H343 C301 0.930 . S
H344 C303 0.929 . S
H345 C304 0.930 . S
H346 C305 0.930 . S
H347 C306 0.930 . S
H348 C310 0.929 . S
H349 C312 0.930 . S
H350 C318 0.929 . S
H351 C319 0.930 . S
Li352 N369 1.990 . S
Li352 O412 1.956 . S
Li352 O413 1.970 . S
Li352 O414 1.961 . S
Li353 N377 1.990 . S
Li353 O412 1.970 . S
Li353 O413 1.956 . S
Li353 O415 1.961 . S
Li354 N399 1.990 . S
Li354 O412 1.961 . S
Li354 O414 1.956 . S
Li354 O415 1.970 . S
Li355 N405 1.990 . S
Li355 O413 1.961 . S
Li355 O414 1.970 . S
Li355 O415 1.956 . S
C356 C358 1.348 . S
C356 C359 1.356 . S
C356 O412 1.325 . S
N357 C360 1.314 . S
N357 C361 1.279 . S
C358 C356 1.348 . S
C358 C360 1.353 . S
C358 H416 0.929 . S
C359 C356 1.356 . S
C359 C361 1.358 . S
C359 H417 0.930 . S
C360 N357 1.314 . S
C360 C358 1.353 . S
C360 H418 0.930 . S
C361 N357 1.279 . S
C361 C359 1.358 . S
C361 H419 0.930 . S
C362 C365 1.348 . S
C362 C366 1.356 . S
C362 O413 1.325 . S
C363 N364 1.279 . S
C363 C366 1.358 . S
C363 H420 0.930 . S
N364 C363 1.279 . S
N364 C367 1.314 . S
C365 C362 1.348 . S
C365 C367 1.353 . S
C365 H421 0.929 . S
C366 C362 1.356 . S
C366 C363 1.358 . S
C366 H422 0.930 . S
C367 N364 1.314 . S
C367 C365 1.353 . S
C367 H423 0.930 . S
C368 N369 1.314 . S
C368 C373 1.353 . S
C368 H374 0.930 . S
N369 Li352 1.990 . S
N369 C368 1.314 . S
N369 C371 1.279 . S
C370 C371 1.358 . S
C370 C372 1.356 . S
C370 H424 0.930 . S
C371 N369 1.279 . S
C371 C370 1.358 . S
C371 H375 0.930 . S
C372 C370 1.356 . S
C372 C373 1.348 . S
C373 C368 1.353 . S
C373 C372 1.348 . S
C373 H425 0.929 . S
H374 C368 0.930 . S
H375 C371 0.930 . S
C376 N377 1.314 . S
C376 C378 1.353 . S
C376 H382 0.930 . S
N377 Li353 1.990 . S
N377 C376 1.314 . S
N377 C380 1.279 . S
C378 C376 1.353 . S
C378 C381 1.348 . S
C378 H426 0.929 . S
C379 C380 1.358 . S
C379 C381 1.356 . S
C379 H427 0.930 . S
C380 N377 1.279 . S
C380 C379 1.358 . S
C380 H383 0.930 . S
C381 C378 1.348 . S
C381 C379 1.356 . S
H382 C376 0.930 . S
H383 C380 0.930 . S
C384 C386 1.348 . S
C384 C387 1.356 . S
C384 O414 1.325 . S
N385 C388 1.314 . S
N385 C389 1.279 . S
C386 C384 1.348 . S
C386 C388 1.353 . S
C386 H428 0.929 . S
C387 C384 1.356 . S
C387 C389 1.358 . S
C387 H429 0.930 . S
C388 N385 1.314 . S
C388 C386 1.353 . S
C388 H430 0.930 . S
C389 N385 1.279 . S
C389 C387 1.358 . S
C389 H431 0.930 . S
C390 C391 1.348 . S
C390 C392 1.356 . S
C390 O415 1.325 . S
C391 C390 1.348 . S
C391 C393 1.353 . S
C391 H432 0.929 . S
C392 C390 1.356 . S
C392 C394 1.358 . S
C392 H433 0.930 . S
C393 C391 1.353 . S
C393 N395 1.314 . S
C393 H434 0.930 . S
C394 C392 1.358 . S
C394 N395 1.279 . S
C394 H435 0.930 . S
N395 C393 1.314 . S
N395 C394 1.279 . S
C396 C398 1.353 . S
C396 N399 1.314 . S
C396 H402 0.930 . S
C397 N399 1.279 . S
C397 C400 1.358 . S
C397 H403 0.930 . S
C398 C396 1.353 . S
C398 C401 1.348 . S
C398 H436 0.929 . S
N399 Li354 1.990 . S
N399 C396 1.314 . S
N399 C397 1.279 . S
C400 C397 1.358 . S
C400 C401 1.356 . S
C400 H437 0.930 . S
C401 C398 1.348 . S
C401 C400 1.356 . S
H402 C396 0.930 . S
H403 C397 0.930 . S
C404 N405 1.314 . S
C404 C406 1.353 . S
C404 H410 0.930 . S
N405 Li355 1.990 . S
N405 C404 1.314 . S
N405 C408 1.279 . S
C406 C404 1.353 . S
C406 C409 1.348 . S
C406 H438 0.929 . S
C407 C408 1.358 . S
C407 C409 1.356 . S
C407 H439 0.930 . S
C408 N405 1.279 . S
C408 C407 1.358 . S
C408 H411 0.930 . S
C409 C406 1.348 . S
C409 C407 1.356 . S
H410 C404 0.930 . S
H411 C408 0.930 . S
O412 Li352 1.956 . S
O412 Li353 1.970 . S
O412 Li354 1.961 . S
O412 C356 1.325 . S
O413 Li352 1.970 . S
O413 Li353 1.956 . S
O413 Li355 1.961 . S
O413 C362 1.325 . S
O414 Li352 1.961 . S
O414 Li354 1.956 . S
O414 Li355 1.970 . S
O414 C384 1.325 . S
O415 Li353 1.961 . S
O415 Li354 1.970 . S
O415 Li355 1.956 . S
O415 C390 1.325 . S
H416 C358 0.929 . S
H417 C359 0.930 . S
H418 C360 0.930 . S
H419 C361 0.930 . S
H420 C363 0.930 . S
H421 C365 0.929 . S
H422 C366 0.930 . S
H423 C367 0.930 . S
H424 C370 0.930 . S
H425 C373 0.929 . S
H426 C378 0.929 . S
H427 C379 0.930 . S
H428 C386 0.929 . S
H429 C387 0.930 . S
H430 C388 0.930 . S
H431 C389 0.930 . S
H432 C391 0.929 . S
H433 C392 0.930 . S
H434 C393 0.930 . S
H435 C394 0.930 . S
H436 C398 0.929 . S
H437 C400 0.930 . S
H438 C406 0.929 . S
H439 C407 0.930 . S
Li440 N457 1.990 . S
Li440 O500 1.956 . S
Li440 O501 1.970 . S
Li440 O502 1.961 . S
Li441 N465 1.990 . S
Li441 O500 1.970 . S
Li441 O501 1.956 . S
Li441 O503 1.961 . S
Li442 N487 1.990 . S
Li442 O500 1.961 . S
Li442 O502 1.956 . S
Li442 O503 1.970 . S
Li443 N493 1.990 . S
Li443 O501 1.961 . S
Li443 O502 1.970 . S
Li443 O503 1.956 . S
C444 C446 1.348 . S
C444 C447 1.356 . S
C444 O500 1.325 . S
N445 C448 1.314 . S
N445 C449 1.279 . S
C446 C444 1.348 . S
C446 C448 1.353 . S
C446 H504 0.929 . S
C447 C444 1.356 . S
C447 C449 1.358 . S
C447 H505 0.930 . S
C448 N445 1.314 . S
C448 C446 1.353 . S
C448 H506 0.930 . S
C449 N445 1.279 . S
C449 C447 1.358 . S
C449 H507 0.930 . S
C450 C453 1.348 . S
C450 C454 1.356 . S
C450 O501 1.325 . S
C451 N452 1.279 . S
C451 C454 1.358 1_545 S
C451 H508 0.930 . S
N452 C451 1.279 . S
N452 C455 1.314 . S
C453 C450 1.348 . S
C453 C455 1.353 1_565 S
C453 H509 0.929 . S
C454 C450 1.356 . S
C454 C451 1.358 1_565 S
C454 H510 0.930 . S
C455 N452 1.314 . S
C455 C453 1.353 1_545 S
C455 H511 0.930 . S
C456 N457 1.314 . S
C456 C461 1.353 . S
C456 H462 0.930 . S
N457 Li440 1.990 . S
N457 C456 1.314 . S
N457 C459 1.279 . S
C458 C459 1.358 . S
C458 C460 1.356 . S
C458 H512 0.930 . S
C459 N457 1.279 . S
C459 C458 1.358 . S
C459 H463 0.930 . S
C460 C458 1.356 . S
C460 C461 1.348 . S
C461 C456 1.353 . S
C461 C460 1.348 . S
C461 H513 0.929 . S
H462 C456 0.930 . S
H463 C459 0.930 . S
C464 N465 1.314 . S
C464 C466 1.353 . S
C464 H470 0.930 . S
N465 Li441 1.990 . S
N465 C464 1.314 . S
N465 C468 1.279 . S
C466 C464 1.353 . S
C466 C469 1.348 . S
C466 H514 0.929 . S
C467 C468 1.358 . S
C467 C469 1.356 . S
C467 H515 0.930 . S
C468 N465 1.279 . S
C468 C467 1.358 . S
C468 H471 0.930 . S
C469 C466 1.348 . S
C469 C467 1.356 . S
H470 C464 0.930 . S
H471 C468 0.930 . S
C472 C474 1.348 . S
C472 C475 1.356 . S
C472 O502 1.325 . S
N473 C476 1.314 . S
N473 C477 1.279 . S
C474 C472 1.348 . S
C474 C476 1.353 . S
C474 H516 0.929 . S
C475 C472 1.356 . S
C475 C477 1.358 . S
C475 H517 0.930 . S
C476 N473 1.314 . S
C476 C474 1.353 . S
C476 H518 0.930 . S
C477 N473 1.279 . S
C477 C475 1.358 . S
C477 H519 0.930 . S
C478 C479 1.348 . S
C478 C480 1.356 . S
C478 O503 1.325 . S
C479 C478 1.348 . S
C479 C481 1.353 . S
C479 H520 0.929 . S
C480 C478 1.356 . S
C480 C482 1.358 . S
C480 H521 0.930 . S
C481 C479 1.353 . S
C481 N483 1.314 . S
C481 H522 0.930 . S
C482 C480 1.358 . S
C482 N483 1.279 . S
C482 H523 0.930 . S
N483 C481 1.314 . S
N483 C482 1.279 . S
C484 C486 1.353 . S
C484 N487 1.314 . S
C484 H490 0.930 . S
C485 N487 1.279 . S
C485 C488 1.358 . S
C485 H491 0.930 . S
C486 C484 1.353 . S
C486 C489 1.348 . S
C486 H524 0.929 . S
N487 Li442 1.990 . S
N487 C484 1.314 . S
N487 C485 1.279 . S
C488 C485 1.358 . S
C488 C489 1.356 . S
C488 H525 0.930 . S
C489 C486 1.348 . S
C489 C488 1.356 . S
H490 C484 0.930 . S
H491 C485 0.930 . S
C492 N493 1.314 . S
C492 C494 1.353 . S
C492 H498 0.930 . S
N493 Li443 1.990 . S
N493 C492 1.314 . S
N493 C496 1.279 . S
C494 C492 1.353 . S
C494 C497 1.348 . S
C494 H526 0.929 . S
C495 C496 1.358 . S
C495 C497 1.356 . S
C495 H527 0.930 . S
C496 N493 1.279 . S
C496 C495 1.358 . S
C496 H499 0.930 . S
C497 C494 1.348 . S
C497 C495 1.356 . S
H498 C492 0.930 . S
H499 C496 0.930 . S
O500 Li440 1.956 . S
O500 Li441 1.970 . S
O500 Li442 1.961 . S
O500 C444 1.325 . S
O501 Li440 1.970 . S
O501 Li441 1.956 . S
O501 Li443 1.961 . S
O501 C450 1.325 . S
O502 Li440 1.961 . S
O502 Li442 1.956 . S
O502 Li443 1.970 . S
O502 C472 1.325 . S
O503 Li441 1.961 . S
O503 Li442 1.970 . S
O503 Li443 1.956 . S
O503 C478 1.325 . S
H504 C446 0.929 . S
H505 C447 0.930 . S
H506 C448 0.930 . S
H507 C449 0.930 . S
H508 C451 0.930 . S
H509 C453 0.929 . S
H510 C454 0.930 . S
H511 C455 0.930 . S
H512 C458 0.930 . S
H513 C461 0.929 . S
H514 C466 0.929 . S
H515 C467 0.930 . S
H516 C474 0.929 . S
H517 C475 0.930 . S
H518 C476 0.930 . S
H519 C477 0.930 . S
H520 C479 0.929 . S
H521 C480 0.930 . S
H522 C481 0.930 . S
H523 C482 0.930 . S
H524 C486 0.929 . S
H525 C488 0.930 . S
H526 C494 0.929 . S
H527 C495 0.930 . S
Li528 N545 1.990 . S
Li528 O588 1.956 . S
Li528 O589 1.970 . S
Li528 O590 1.961 . S
Li529 N553 1.990 . S
Li529 O588 1.970 . S
Li529 O589 1.956 . S
Li529 O591 1.961 . S
Li530 N575 1.990 . S
Li530 O588 1.961 . S
Li530 O590 1.956 . S
Li530 O591 1.970 . S
Li531 N581 1.990 . S
Li531 O589 1.961 . S
Li531 O590 1.970 . S
Li531 O591 1.956 . S
C532 C534 1.348 . S
C532 C535 1.356 . S
C532 O588 1.325 . S
N533 C536 1.314 . S
N533 C537 1.279 . S
C534 C532 1.348 . S
C534 C536 1.353 . S
C534 H592 0.929 . S
C535 C532 1.356 . S
C535 C537 1.358 . S
C535 H593 0.930 . S
C536 N533 1.314 . S
C536 C534 1.353 . S
C536 H594 0.930 . S
C537 N533 1.279 . S
C537 C535 1.358 . S
C537 H595 0.930 . S
C538 C541 1.348 . S
C538 C542 1.356 . S
C538 O589 1.325 . S
C539 N540 1.279 . S
C539 C542 1.358 . S
C539 H596 0.930 . S
N540 C539 1.279 . S
N540 C543 1.314 . S
C541 C538 1.348 . S
C541 C543 1.353 . S
C541 H597 0.929 . S
C542 C538 1.356 . S
C542 C539 1.358 . S
C542 H598 0.930 . S
C543 N540 1.314 . S
C543 C541 1.353 . S
C543 H599 0.930 . S
C544 N545 1.314 . S
C544 C549 1.353 . S
C544 H550 0.930 . S
N545 Li528 1.990 . S
N545 C544 1.314 . S
N545 C547 1.279 . S
C546 C547 1.358 . S
C546 C548 1.356 . S
C546 H600 0.930 . S
C547 N545 1.279 . S
C547 C546 1.358 . S
C547 H551 0.930 . S
C548 C546 1.356 . S
C548 C549 1.348 . S
C549 C544 1.353 . S
C549 C548 1.348 . S
C549 H601 0.929 . S
H550 C544 0.930 . S
H551 C547 0.930 . S
C552 N553 1.314 . S
C552 C554 1.353 . S
C552 H558 0.930 . S
N553 Li529 1.990 . S
N553 C552 1.314 . S
N553 C556 1.279 . S
C554 C552 1.353 . S
C554 C557 1.348 . S
C554 H602 0.929 . S
C555 C556 1.358 . S
C555 C557 1.356 . S
C555 H603 0.930 . S
C556 N553 1.279 . S
C556 C555 1.358 . S
C556 H559 0.930 . S
C557 C554 1.348 . S
C557 C555 1.356 . S
H558 C552 0.930 . S
H559 C556 0.930 . S
C560 C562 1.348 . S
C560 C563 1.356 . S
C560 O590 1.325 . S
N561 C564 1.314 . S
N561 C565 1.279 . S
C562 C560 1.348 . S
C562 C564 1.353 . S
C562 H604 0.929 . S
C563 C560 1.356 . S
C563 C565 1.358 . S
C563 H605 0.930 . S
C564 N561 1.314 . S
C564 C562 1.353 . S
C564 H606 0.930 . S
C565 N561 1.279 . S
C565 C563 1.358 . S
C565 H607 0.930 . S
C566 C567 1.348 . S
C566 C568 1.356 . S
C566 O591 1.325 . S
C567 C566 1.348 . S
C567 C569 1.353 . S
C567 H608 0.929 . S
C568 C566 1.356 . S
C568 C570 1.358 . S
C568 H609 0.930 . S
C569 C567 1.353 . S
C569 N571 1.314 . S
C569 H610 0.930 . S
C570 C568 1.358 . S
C570 N571 1.279 . S
C570 H611 0.930 . S
N571 C569 1.314 . S
N571 C570 1.279 . S
C572 C574 1.353 . S
C572 N575 1.314 . S
C572 H578 0.930 . S
C573 N575 1.279 . S
C573 C576 1.358 . S
C573 H579 0.930 . S
C574 C572 1.353 . S
C574 C577 1.348 . S
C574 H612 0.929 . S
N575 Li530 1.990 . S
N575 C572 1.314 . S
N575 C573 1.279 . S
C576 C573 1.358 . S
C576 C577 1.356 . S
C576 H613 0.930 . S
C577 C574 1.348 . S
C577 C576 1.356 . S
H578 C572 0.930 . S
H579 C573 0.930 . S
C580 N581 1.314 . S
C580 C582 1.353 . S
C580 H586 0.930 . S
N581 Li531 1.990 . S
N581 C580 1.314 . S
N581 C584 1.279 . S
C582 C580 1.353 . S
C582 C585 1.348 . S
C582 H614 0.929 . S
C583 C584 1.358 . S
C583 C585 1.356 . S
C583 H615 0.930 . S
C584 N581 1.279 . S
C584 C583 1.358 . S
C584 H587 0.930 . S
C585 C582 1.348 . S
C585 C583 1.356 . S
H586 C580 0.930 . S
H587 C584 0.930 . S
O588 Li528 1.956 . S
O588 Li529 1.970 . S
O588 Li530 1.961 . S
O588 C532 1.325 . S
O589 Li528 1.970 . S
O589 Li529 1.956 . S
O589 Li531 1.961 . S
O589 C538 1.325 . S
O590 Li528 1.961 . S
O590 Li530 1.956 . S
O590 Li531 1.970 . S
O590 C560 1.325 . S
O591 Li529 1.961 . S
O591 Li530 1.970 . S
O591 Li531 1.956 . S
O591 C566 1.325 . S
H592 C534 0.929 . S
H593 C535 0.930 . S
H594 C536 0.930 . S
H595 C537 0.930 . S
H596 C539 0.930 . S
H597 C541 0.929 . S
H598 C542 0.930 . S
H599 C543 0.930 . S
H600 C546 0.930 . S
H601 C549 0.929 . S
H602 C554 0.929 . S
H603 C555 0.930 . S
H604 C562 0.929 . S
H605 C563 0.930 . S
H606 C564 0.930 . S
H607 C565 0.930 . S
H608 C567 0.929 . S
H609 C568 0.930 . S
H610 C569 0.930 . S
H611 C570 0.930 . S
H612 C574 0.929 . S
H613 C576 0.930 . S
H614 C582 0.929 . S
H615 C583 0.930 . S
Li616 N633 1.990 . S
Li616 O676 1.956 . S
Li616 O677 1.970 . S
Li616 O678 1.961 . S
Li617 N641 1.990 . S
Li617 O676 1.970 . S
Li617 O677 1.956 . S
Li617 O679 1.961 . S
Li618 N663 1.990 . S
Li618 O676 1.961 . S
Li618 O678 1.956 . S
Li618 O679 1.970 . S
Li619 N669 1.990 . S
Li619 O677 1.961 . S
Li619 O678 1.970 . S
Li619 O679 1.956 . S
C620 C622 1.348 . S
C620 C623 1.356 . S
C620 O676 1.325 . S
N621 C624 1.314 . S
N621 C625 1.279 . S
C622 C620 1.348 . S
C622 C624 1.353 . S
C622 H680 0.929 . S
C623 C620 1.356 . S
C623 C625 1.358 . S
C623 H681 0.930 . S
C624 N621 1.314 . S
C624 C622 1.353 . S
C624 H682 0.930 . S
C625 N621 1.279 . S
C625 C623 1.358 . S
C625 H683 0.930 . S
C626 C629 1.348 . S
C626 C630 1.356 . S
C626 O677 1.325 . S
C627 N628 1.279 . S
C627 C630 1.358 . S
C627 H684 0.930 . S
N628 C627 1.279 . S
N628 C631 1.314 . S
C629 C626 1.348 . S
C629 C631 1.353 . S
C629 H685 0.929 . S
C630 C626 1.356 . S
C630 C627 1.358 . S
C630 H686 0.930 . S
C631 N628 1.314 . S
C631 C629 1.353 . S
C631 H687 0.930 . S
C632 N633 1.314 . S
C632 C637 1.353 . S
C632 H638 0.930 . S
N633 Li616 1.990 . S
N633 C632 1.314 . S
N633 C635 1.279 . S
C634 C635 1.358 . S
C634 C636 1.356 . S
C634 H688 0.930 . S
C635 N633 1.279 . S
C635 C634 1.358 . S
C635 H639 0.930 . S
C636 C634 1.356 . S
C636 C637 1.348 . S
C637 C632 1.353 . S
C637 C636 1.348 . S
C637 H689 0.929 . S
H638 C632 0.930 . S
H639 C635 0.930 . S
C640 N641 1.314 . S
C640 C642 1.353 . S
C640 H646 0.930 . S
N641 Li617 1.990 . S
N641 C640 1.314 . S
N641 C644 1.279 . S
C642 C640 1.353 . S
C642 C645 1.348 . S
C642 H690 0.929 . S
C643 C644 1.358 . S
C643 C645 1.356 . S
C643 H691 0.930 . S
C644 N641 1.279 . S
C644 C643 1.358 . S
C644 H647 0.930 . S
C645 C642 1.348 . S
C645 C643 1.356 . S
H646 C640 0.930 . S
H647 C644 0.930 . S
C648 C650 1.348 . S
C648 C651 1.356 . S
C648 O678 1.325 . S
N649 C652 1.314 . S
N649 C653 1.279 . S
C650 C648 1.348 . S
C650 C652 1.353 . S
C650 H692 0.929 . S
C651 C648 1.356 . S
C651 C653 1.358 . S
C651 H693 0.930 . S
C652 N649 1.314 . S
C652 C650 1.353 . S
C652 H694 0.930 . S
C653 N649 1.279 . S
C653 C651 1.358 . S
C653 H695 0.930 . S
C654 C655 1.348 . S
C654 C656 1.356 . S
C654 O679 1.325 . S
C655 C654 1.348 . S
C655 C657 1.353 1_545 S
C655 H696 0.929 . S
C656 C654 1.356 . S
C656 C658 1.358 1_545 S
C656 H697 0.930 . S
C657 C655 1.353 1_565 S
C657 N659 1.314 . S
C657 H698 0.930 . S
C658 C656 1.358 1_565 S
C658 N659 1.279 . S
C658 H699 0.930 . S
N659 C657 1.314 . S
N659 C658 1.279 . S
C660 C662 1.353 . S
C660 N663 1.314 . S
C660 H666 0.930 . S
C661 N663 1.279 . S
C661 C664 1.358 . S
C661 H667 0.930 . S
C662 C660 1.353 . S
C662 C665 1.348 . S
C662 H700 0.929 . S
N663 Li618 1.990 . S
N663 C660 1.314 . S
N663 C661 1.279 . S
C664 C661 1.358 . S
C664 C665 1.356 . S
C664 H701 0.930 . S
C665 C662 1.348 . S
C665 C664 1.356 . S
H666 C660 0.930 . S
H667 C661 0.930 . S
C668 N669 1.314 . S
C668 C670 1.353 . S
C668 H674 0.930 . S
N669 Li619 1.990 . S
N669 C668 1.314 . S
N669 C672 1.279 . S
C670 C668 1.353 . S
C670 C673 1.348 . S
C670 H702 0.929 . S
C671 C672 1.358 . S
C671 C673 1.356 . S
C671 H703 0.930 . S
C672 N669 1.279 . S
C672 C671 1.358 . S
C672 H675 0.930 . S
C673 C670 1.348 . S
C673 C671 1.356 . S
H674 C668 0.930 . S
H675 C672 0.930 . S
O676 Li616 1.956 . S
O676 Li617 1.970 . S
O676 Li618 1.961 . S
O676 C620 1.325 . S
O677 Li616 1.970 . S
O677 Li617 1.956 . S
O677 Li619 1.961 . S
O677 C626 1.325 . S
O678 Li616 1.961 . S
O678 Li618 1.956 . S
O678 Li619 1.970 . S
O678 C648 1.325 . S
O679 Li617 1.961 . S
O679 Li618 1.970 . S
O679 Li619 1.956 . S
O679 C654 1.325 . S
H680 C622 0.929 . S
H681 C623 0.930 . S
H682 C624 0.930 . S
H683 C625 0.930 . S
H684 C627 0.930 . S
H685 C629 0.929 . S
H686 C630 0.930 . S
H687 C631 0.930 . S
H688 C634 0.930 . S
H689 C637 0.929 . S
H690 C642 0.929 . S
H691 C643 0.930 . S
H692 C650 0.929 . S
H693 C651 0.930 . S
H694 C652 0.930 . S
H695 C653 0.930 . S
H696 C655 0.929 . S
H697 C656 0.930 . S
H698 C657 0.930 . S
H699 C658 0.930 . S
H700 C662 0.929 . S
H701 C664 0.930 . S
H702 C670 0.929 . S
H703 C671 0.930 . S
Li704 N721 1.990 . S
Li704 O764 1.956 . S
Li704 O765 1.970 . S
Li704 O766 1.961 . S
Li705 N729 1.990 . S
Li705 O764 1.970 . S
Li705 O765 1.956 . S
Li705 O767 1.961 . S
Li706 N751 1.990 . S
Li706 O764 1.961 . S
Li706 O766 1.956 . S
Li706 O767 1.970 . S
Li707 N757 1.990 . S
Li707 O765 1.961 . S
Li707 O766 1.970 . S
Li707 O767 1.956 . S
C708 C710 1.348 . S
C708 C711 1.356 . S
C708 O764 1.325 . S
N709 C712 1.314 . S
N709 C713 1.279 . S
C710 C708 1.348 . S
C710 C712 1.353 . S
C710 H768 0.929 . S
C711 C708 1.356 . S
C711 C713 1.358 . S
C711 H769 0.930 . S
C712 N709 1.314 . S
C712 C710 1.353 . S
C712 H770 0.930 . S
C713 N709 1.279 . S
C713 C711 1.358 . S
C713 H771 0.930 . S
C714 C717 1.348 . S
C714 C718 1.356 . S
C714 O765 1.325 . S
C715 N716 1.279 . S
C715 C718 1.358 . S
C715 H772 0.930 . S
N716 C715 1.279 . S
N716 C719 1.314 . S
C717 C714 1.348 . S
C717 C719 1.353 . S
C717 H773 0.929 . S
C718 C714 1.356 . S
C718 C715 1.358 . S
C718 H774 0.930 . S
C719 N716 1.314 . S
C719 C717 1.353 . S
C719 H775 0.930 . S
C720 N721 1.314 . S
C720 C725 1.353 . S
C720 H726 0.930 . S
N721 Li704 1.990 . S
N721 C720 1.314 . S
N721 C723 1.279 . S
C722 C723 1.358 . S
C722 C724 1.356 . S
C722 H776 0.930 . S
C723 N721 1.279 . S
C723 C722 1.358 . S
C723 H727 0.930 . S
C724 C722 1.356 . S
C724 C725 1.348 . S
C725 C720 1.353 . S
C725 C724 1.348 . S
C725 H777 0.929 . S
H726 C720 0.930 . S
H727 C723 0.930 . S
C728 N729 1.314 . S
C728 C730 1.353 . S
C728 H734 0.930 . S
N729 Li705 1.990 . S
N729 C728 1.314 . S
N729 C732 1.279 . S
C730 C728 1.353 . S
C730 C733 1.348 . S
C730 H778 0.929 . S
C731 C732 1.358 . S
C731 C733 1.356 . S
C731 H779 0.930 . S
C732 N729 1.279 . S
C732 C731 1.358 . S
C732 H735 0.930 . S
C733 C730 1.348 . S
C733 C731 1.356 . S
H734 C728 0.930 . S
H735 C732 0.930 . S
C736 C738 1.348 . S
C736 C739 1.356 . S
C736 O766 1.325 . S
N737 C740 1.314 . S
N737 C741 1.279 . S
C738 C736 1.348 . S
C738 C740 1.353 . S
C738 H780 0.929 . S
C739 C736 1.356 . S
C739 C741 1.358 . S
C739 H781 0.930 . S
C740 N737 1.314 . S
C740 C738 1.353 . S
C740 H782 0.930 . S
C741 N737 1.279 . S
C741 C739 1.358 . S
C741 H783 0.930 . S
C742 C743 1.348 . S
C742 C744 1.356 . S
C742 O767 1.325 . S
C743 C742 1.348 . S
C743 C745 1.353 . S
C743 H784 0.929 . S
C744 C742 1.356 . S
C744 C746 1.358 . S
C744 H785 0.930 . S
C745 C743 1.353 . S
C745 N747 1.314 . S
C745 H786 0.930 . S
C746 C744 1.358 . S
C746 N747 1.279 . S
C746 H787 0.930 . S
N747 C745 1.314 . S
N747 C746 1.279 . S
C748 C750 1.353 . S
C748 N751 1.314 . S
C748 H754 0.930 . S
C749 N751 1.279 . S
C749 C752 1.358 . S
C749 H755 0.930 . S
C750 C748 1.353 . S
C750 C753 1.348 . S
C750 H788 0.929 . S
N751 Li706 1.990 . S
N751 C748 1.314 . S
N751 C749 1.279 . S
C752 C749 1.358 . S
C752 C753 1.356 . S
C752 H789 0.930 . S
C753 C750 1.348 . S
C753 C752 1.356 . S
H754 C748 0.930 . S
H755 C749 0.930 . S
C756 N757 1.314 . S
C756 C758 1.353 . S
C756 H762 0.930 . S
N757 Li707 1.990 . S
N757 C756 1.314 . S
N757 C760 1.279 . S
C758 C756 1.353 . S
C758 C761 1.348 . S
C758 H790 0.929 . S
C759 C760 1.358 . S
C759 C761 1.356 . S
C759 H791 0.930 . S
C760 N757 1.279 . S
C760 C759 1.358 . S
C760 H763 0.930 . S
C761 C758 1.348 . S
C761 C759 1.356 . S
H762 C756 0.930 . S
H763 C760 0.930 . S
O764 Li704 1.956 . S
O764 Li705 1.970 . S
O764 Li706 1.961 . S
O764 C708 1.325 . S
O765 Li704 1.970 . S
O765 Li705 1.956 . S
O765 Li707 1.961 . S
O765 C714 1.325 . S
O766 Li704 1.961 . S
O766 Li706 1.956 . S
O766 Li707 1.970 . S
O766 C736 1.325 . S
O767 Li705 1.961 . S
O767 Li706 1.970 . S
O767 Li707 1.956 . S
O767 C742 1.325 . S
H768 C710 0.929 . S
H769 C711 0.930 . S
H770 C712 0.930 . S
H771 C713 0.930 . S
H772 C715 0.930 . S
H773 C717 0.929 . S
H774 C718 0.930 . S
H775 C719 0.930 . S
H776 C722 0.930 . S
H777 C725 0.929 . S
H778 C730 0.929 . S
H779 C731 0.930 . S
H780 C738 0.929 . S
H781 C739 0.930 . S
H782 C740 0.930 . S
H783 C741 0.930 . S
H784 C743 0.929 . S
H785 C744 0.930 . S
H786 C745 0.930 . S
H787 C746 0.930 . S
H788 C750 0.929 . S
H789 C752 0.930 . S
H790 C758 0.929 . S
H791 C759 0.930 . S
Li792 N809 1.990 . S
Li792 O852 1.956 . S
Li792 O853 1.970 . S
Li792 O854 1.961 . S
Li793 N817 1.990 . S
Li793 O852 1.970 . S
Li793 O853 1.956 . S
Li793 O855 1.961 . S
Li794 N839 1.990 . S
Li794 O852 1.961 . S
Li794 O854 1.956 . S
Li794 O855 1.970 . S
Li795 N845 1.990 . S
Li795 O853 1.961 . S
Li795 O854 1.970 . S
Li795 O855 1.956 . S
C796 C798 1.348 . S
C796 C799 1.356 . S
C796 O852 1.325 . S
N797 C800 1.314 . S
N797 C801 1.279 . S
C798 C796 1.348 . S
C798 C800 1.353 . S
C798 H856 0.929 . S
C799 C796 1.356 . S
C799 C801 1.358 . S
C799 H857 0.930 . S
C800 N797 1.314 . S
C800 C798 1.353 . S
C800 H858 0.930 . S
C801 N797 1.279 . S
C801 C799 1.358 . S
C801 H859 0.930 . S
C802 C805 1.348 . S
C802 C806 1.356 . S
C802 O853 1.325 . S
C803 N804 1.279 . S
C803 C806 1.358 . S
C803 H860 0.930 . S
N804 C803 1.279 . S
N804 C807 1.314 . S
C805 C802 1.348 . S
C805 C807 1.353 . S
C805 H861 0.929 . S
C806 C802 1.356 . S
C806 C803 1.358 . S
C806 H862 0.930 . S
C807 N804 1.314 . S
C807 C805 1.353 . S
C807 H863 0.930 . S
C808 N809 1.314 . S
C808 C813 1.353 . S
C808 H814 0.930 . S
N809 Li792 1.990 . S
N809 C808 1.314 . S
N809 C811 1.279 . S
C810 C811 1.358 . S
C810 C812 1.356 . S
C810 H864 0.930 . S
C811 N809 1.279 . S
C811 C810 1.358 . S
C811 H815 0.930 . S
C812 C810 1.356 . S
C812 C813 1.348 . S
C813 C808 1.353 . S
C813 C812 1.348 . S
C813 H865 0.929 . S
H814 C808 0.930 . S
H815 C811 0.930 . S
C816 N817 1.314 . S
C816 C818 1.353 . S
C816 H822 0.930 . S
N817 Li793 1.990 . S
N817 C816 1.314 . S
N817 C820 1.279 . S
C818 C816 1.353 . S
C818 C821 1.348 . S
C818 H866 0.929 . S
C819 C820 1.358 . S
C819 C821 1.356 . S
C819 H867 0.930 . S
C820 N817 1.279 . S
C820 C819 1.358 . S
C820 H823 0.930 . S
C821 C818 1.348 . S
C821 C819 1.356 . S
H822 C816 0.930 . S
H823 C820 0.930 . S
C824 C826 1.348 . S
C824 C827 1.356 . S
C824 O854 1.325 . S
N825 C828 1.314 . S
N825 C829 1.279 . S
C826 C824 1.348 . S
C826 C828 1.353 . S
C826 H868 0.929 . S
C827 C824 1.356 . S
C827 C829 1.358 . S
C827 H869 0.930 . S
C828 N825 1.314 . S
C828 C826 1.353 . S
C828 H870 0.930 . S
C829 N825 1.279 . S
C829 C827 1.358 . S
C829 H871 0.930 . S
C830 C831 1.348 . S
C830 C832 1.356 . S
C830 O855 1.325 . S
C831 C830 1.348 . S
C831 C833 1.353 1_545 S
C831 H872 0.929 . S
C832 C830 1.356 . S
C832 C834 1.358 1_545 S
C832 H873 0.930 . S
C833 C831 1.353 1_565 S
C833 N835 1.314 . S
C833 H874 0.930 . S
C834 C832 1.358 1_565 S
C834 N835 1.279 . S
C834 H875 0.930 . S
N835 C833 1.314 . S
N835 C834 1.279 . S
C836 C838 1.353 . S
C836 N839 1.314 . S
C836 H842 0.930 . S
C837 N839 1.279 . S
C837 C840 1.358 . S
C837 H843 0.930 . S
C838 C836 1.353 . S
C838 C841 1.348 . S
C838 H876 0.929 . S
N839 Li794 1.990 . S
N839 C836 1.314 . S
N839 C837 1.279 . S
C840 C837 1.358 . S
C840 C841 1.356 . S
C840 H877 0.930 . S
C841 C838 1.348 . S
C841 C840 1.356 . S
H842 C836 0.930 . S
H843 C837 0.930 . S
C844 N845 1.314 . S
C844 C846 1.353 . S
C844 H850 0.930 . S
N845 Li795 1.990 . S
N845 C844 1.314 . S
N845 C848 1.279 . S
C846 C844 1.353 . S
C846 C849 1.348 . S
C846 H878 0.929 . S
C847 C848 1.358 . S
C847 C849 1.356 . S
C847 H879 0.930 . S
C848 N845 1.279 . S
C848 C847 1.358 . S
C848 H851 0.930 . S
C849 C846 1.348 . S
C849 C847 1.356 . S
H850 C844 0.930 . S
H851 C848 0.930 . S
O852 Li792 1.956 . S
O852 Li793 1.970 . S
O852 Li794 1.961 . S
O852 C796 1.325 . S
O853 Li792 1.970 . S
O853 Li793 1.956 . S
O853 Li795 1.961 . S
O853 C802 1.325 . S
O854 Li792 1.961 . S
O854 Li794 1.956 . S
O854 Li795 1.970 . S
O854 C824 1.325 . S
O855 Li793 1.961 . S
O855 Li794 1.970 . S
O855 Li795 1.956 . S
O855 C830 1.325 . S
H856 C798 0.929 . S
H857 C799 0.930 . S
H858 C800 0.930 . S
H859 C801 0.930 . S
H860 C803 0.930 . S
H861 C805 0.929 . S
H862 C806 0.930 . S
H863 C807 0.930 . S
H864 C810 0.930 . S
H865 C813 0.929 . S
H866 C818 0.929 . S
H867 C819 0.930 . S
H868 C826 0.929 . S
H869 C827 0.930 . S
H870 C828 0.930 . S
H871 C829 0.930 . S
H872 C831 0.929 . S
H873 C832 0.930 . S
H874 C833 0.930 . S
H875 C834 0.930 . S
H876 C838 0.929 . S
H877 C840 0.930 . S
H878 C846 0.929 . S
H879 C847 0.930 . S
Li880 N897 1.990 . S
Li880 O940 1.956 . S
Li880 O941 1.970 . S
Li880 O942 1.961 . S
Li881 N905 1.990 . S
Li881 O940 1.970 . S
Li881 O941 1.956 . S
Li881 O943 1.961 . S
Li882 N927 1.990 . S
Li882 O940 1.961 . S
Li882 O942 1.956 . S
Li882 O943 1.970 . S
Li883 N933 1.990 . S
Li883 O941 1.961 . S
Li883 O942 1.970 . S
Li883 O943 1.956 . S
C884 C886 1.348 . S
C884 C887 1.356 . S
C884 O940 1.325 . S
N885 C888 1.314 . S
N885 C889 1.279 . S
C886 C884 1.348 . S
C886 C888 1.353 . S
C886 H944 0.929 . S
C887 C884 1.356 . S
C887 C889 1.358 . S
C887 H945 0.930 . S
C888 N885 1.314 . S
C888 C886 1.353 . S
C888 H946 0.930 . S
C889 N885 1.279 . S
C889 C887 1.358 . S
C889 H947 0.930 . S
C890 C893 1.348 . S
C890 C894 1.356 . S
C890 O941 1.325 . S
C891 N892 1.279 . S
C891 C894 1.358 . S
C891 H948 0.930 . S
N892 C891 1.279 . S
N892 C895 1.314 . S
C893 C890 1.348 . S
C893 C895 1.353 . S
C893 H949 0.929 . S
C894 C890 1.356 . S
C894 C891 1.358 . S
C894 H950 0.930 . S
C895 N892 1.314 . S
C895 C893 1.353 . S
C895 H951 0.930 . S
C896 N897 1.314 . S
C896 C901 1.353 . S
C896 H902 0.930 . S
N897 Li880 1.990 . S
N897 C896 1.314 . S
N897 C899 1.279 . S
C898 C899 1.358 . S
C898 C900 1.356 . S
C898 H952 0.930 . S
C899 N897 1.279 . S
C899 C898 1.358 . S
C899 H903 0.930 . S
C900 C898 1.356 . S
C900 C901 1.348 . S
C901 C896 1.353 . S
C901 C900 1.348 . S
C901 H953 0.929 . S
H902 C896 0.930 . S
H903 C899 0.930 . S
C904 N905 1.314 . S
C904 C906 1.353 . S
C904 H910 0.930 . S
N905 Li881 1.990 . S
N905 C904 1.314 . S
N905 C908 1.279 . S
C906 C904 1.353 . S
C906 C909 1.348 . S
C906 H954 0.929 . S
C907 C908 1.358 . S
C907 C909 1.356 . S
C907 H955 0.930 . S
C908 N905 1.279 . S
C908 C907 1.358 . S
C908 H911 0.930 . S
C909 C906 1.348 . S
C909 C907 1.356 . S
H910 C904 0.930 . S
H911 C908 0.930 . S
C912 C914 1.348 . S
C912 C915 1.356 . S
C912 O942 1.325 . S
N913 C916 1.314 . S
N913 C917 1.279 . S
C914 C912 1.348 . S
C914 C916 1.353 . S
C914 H956 0.929 . S
C915 C912 1.356 . S
C915 C917 1.358 . S
C915 H957 0.930 . S
C916 N913 1.314 . S
C916 C914 1.353 . S
C916 H958 0.930 . S
C917 N913 1.279 . S
C917 C915 1.358 . S
C917 H959 0.930 . S
C918 C919 1.348 . S
C918 C920 1.356 . S
C918 O943 1.325 . S
C919 C918 1.348 . S
C919 C921 1.353 . S
C919 H960 0.929 . S
C920 C918 1.356 . S
C920 C922 1.358 . S
C920 H961 0.930 . S
C921 C919 1.353 . S
C921 N923 1.314 . S
C921 H962 0.930 . S
C922 C920 1.358 . S
C922 N923 1.279 . S
C922 H963 0.930 . S
N923 C921 1.314 . S
N923 C922 1.279 . S
C924 C926 1.353 . S
C924 N927 1.314 . S
C924 H930 0.930 . S
C925 N927 1.279 . S
C925 C928 1.358 . S
C925 H931 0.930 . S
C926 C924 1.353 . S
C926 C929 1.348 . S
C926 H964 0.929 . S
N927 Li882 1.990 . S
N927 C924 1.314 . S
N927 C925 1.279 . S
C928 C925 1.358 . S
C928 C929 1.356 . S
C928 H965 0.930 . S
C929 C926 1.348 . S
C929 C928 1.356 . S
H930 C924 0.930 . S
H931 C925 0.930 . S
C932 N933 1.314 . S
C932 C934 1.353 . S
C932 H938 0.930 . S
N933 Li883 1.990 . S
N933 C932 1.314 . S
N933 C936 1.279 . S
C934 C932 1.353 . S
C934 C937 1.348 . S
C934 H966 0.929 . S
C935 C936 1.358 . S
C935 C937 1.356 . S
C935 H967 0.930 . S
C936 N933 1.279 . S
C936 C935 1.358 . S
C936 H939 0.930 . S
C937 C934 1.348 . S
C937 C935 1.356 . S
H938 C932 0.930 . S
H939 C936 0.930 . S
O940 Li880 1.956 . S
O940 Li881 1.970 . S
O940 Li882 1.961 . S
O940 C884 1.325 . S
O941 Li880 1.970 . S
O941 Li881 1.956 . S
O941 Li883 1.961 . S
O941 C890 1.325 . S
O942 Li880 1.961 . S
O942 Li882 1.956 . S
O942 Li883 1.970 . S
O942 C912 1.325 . S
O943 Li881 1.961 . S
O943 Li882 1.970 . S
O943 Li883 1.956 . S
O943 C918 1.325 . S
H944 C886 0.929 . S
H945 C887 0.930 . S
H946 C888 0.930 . S
H947 C889 0.930 . S
H948 C891 0.930 . S
H949 C893 0.929 . S
H950 C894 0.930 . S
H951 C895 0.930 . S
H952 C898 0.930 . S
H953 C901 0.929 . S
H954 C906 0.929 . S
H955 C907 0.930 . S
H956 C914 0.929 . S
H957 C915 0.930 . S
H958 C916 0.930 . S
H959 C917 0.930 . S
H960 C919 0.929 . S
H961 C920 0.930 . S
H962 C921 0.930 . S
H963 C922 0.930 . S
H964 C926 0.929 . S
H965 C928 0.930 . S
H966 C934 0.929 . S
H967 C935 0.930 . S
Li968 N985 1.990 . S
Li968 O1028 1.956 . S
Li968 O1029 1.970 . S
Li968 O1030 1.961 . S
Li969 N993 1.990 . S
Li969 O1028 1.970 . S
Li969 O1029 1.956 . S
Li969 O1031 1.961 . S
Li970 N1015 1.990 . S
Li970 O1028 1.961 . S
Li970 O1030 1.956 . S
Li970 O1031 1.970 . S
Li971 N1021 1.990 . S
Li971 O1029 1.961 . S
Li971 O1030 1.970 . S
Li971 O1031 1.956 . S
C972 C974 1.348 . S
C972 C975 1.356 . S
C972 O1028 1.325 . S
N973 C976 1.314 . S
N973 C977 1.279 . S
C974 C972 1.348 . S
C974 C976 1.353 . S
C974 H1032 0.929 . S
C975 C972 1.356 . S
C975 C977 1.358 . S
C975 H1033 0.930 . S
C976 N973 1.314 . S
C976 C974 1.353 . S
C976 H1034 0.930 . S
C977 N973 1.279 . S
C977 C975 1.358 . S
C977 H1035 0.930 . S
C978 C981 1.348 . S
C978 C982 1.356 . S
C978 O1029 1.325 . S
C979 N980 1.279 . S
C979 C982 1.358 1_545 S
C979 H1036 0.930 . S
N980 C979 1.279 . S
N980 C983 1.314 . S
C981 C978 1.348 . S
C981 C983 1.353 1_565 S
C981 H1037 0.929 . S
C982 C978 1.356 . S
C982 C979 1.358 1_565 S
C982 H1038 0.930 . S
C983 N980 1.314 . S
C983 C981 1.353 1_545 S
C983 H1039 0.930 . S
C984 N985 1.314 . S
C984 C989 1.353 . S
C984 H990 0.930 . S
N985 Li968 1.990 . S
N985 C984 1.314 . S
N985 C987 1.279 . S
C986 C987 1.358 . S
C986 C988 1.356 . S
C986 H1040 0.930 . S
C987 N985 1.279 . S
C987 C986 1.358 . S
C987 H991 0.930 . S
C988 C986 1.356 . S
C988 C989 1.348 . S
C989 C984 1.353 . S
C989 C988 1.348 . S
C989 H1041 0.929 . S
H990 C984 0.930 . S
H991 C987 0.930 . S
C992 N993 1.314 . S
C992 C994 1.353 . S
C992 H998 0.930 . S
N993 Li969 1.990 . S
N993 C992 1.314 . S
N993 C996 1.279 . S
C994 C992 1.353 . S
C994 C997 1.348 . S
C994 H1042 0.929 . S
C995 C996 1.358 . S
C995 C997 1.356 . S
C995 H1043 0.930 . S
C996 N993 1.279 . S
C996 C995 1.358 . S
C996 H999 0.930 . S
C997 C994 1.348 . S
C997 C995 1.356 . S
H998 C992 0.930 . S
H999 C996 0.930 . S
C1000 C1002 1.348 . S
C1000 C1003 1.356 . S
C1000 O1030 1.325 . S
N1001 C1004 1.314 . S
N1001 C1005 1.279 . S
C1002 C1000 1.348 . S
C1002 C1004 1.353 . S
C1002 H1044 0.929 . S
C1003 C1000 1.356 . S
C1003 C1005 1.358 . S
C1003 H1045 0.930 . S
C1004 N1001 1.314 . S
C1004 C1002 1.353 . S
C1004 H1046 0.930 . S
C1005 N1001 1.279 . S
C1005 C1003 1.358 . S
C1005 H1047 0.930 . S
C1006 C1007 1.348 . S
C1006 C1008 1.356 . S
C1006 O1031 1.325 . S
C1007 C1006 1.348 . S
C1007 C1009 1.353 . S
C1007 H1048 0.929 . S
C1008 C1006 1.356 . S
C1008 C1010 1.358 . S
C1008 H1049 0.930 . S
C1009 C1007 1.353 . S
C1009 N1011 1.314 . S
C1009 H1050 0.930 . S
C1010 C1008 1.358 . S
C1010 N1011 1.279 . S
C1010 H1051 0.930 . S
N1011 C1009 1.314 . S
N1011 C1010 1.279 . S
C1012 C1014 1.353 . S
C1012 N1015 1.314 . S
C1012 H1018 0.930 . S
C1013 N1015 1.279 . S
C1013 C1016 1.358 . S
C1013 H1019 0.930 . S
C1014 C1012 1.353 . S
C1014 C1017 1.348 . S
C1014 H1052 0.929 . S
N1015 Li970 1.990 . S
N1015 C1012 1.314 . S
N1015 C1013 1.279 . S
C1016 C1013 1.358 . S
C1016 C1017 1.356 . S
C1016 H1053 0.930 . S
C1017 C1014 1.348 . S
C1017 C1016 1.356 . S
H1018 C1012 0.930 . S
H1019 C1013 0.930 . S
C1020 N1021 1.314 . S
C1020 C1022 1.353 . S
C1020 H1026 0.930 . S
N1021 Li971 1.990 . S
N1021 C1020 1.314 . S
N1021 C1024 1.279 . S
C1022 C1020 1.353 . S
C1022 C1025 1.348 . S
C1022 H1054 0.929 . S
C1023 C1024 1.358 . S
C1023 C1025 1.356 . S
C1023 H1055 0.930 . S
C1024 N1021 1.279 . S
C1024 C1023 1.358 . S
C1024 H1027 0.930 . S
C1025 C1022 1.348 . S
C1025 C1023 1.356 . S
H1026 C1020 0.930 . S
H1027 C1024 0.930 . S
O1028 Li968 1.956 . S
O1028 Li969 1.970 . S
O1028 Li970 1.961 . S
O1028 C972 1.325 . S
O1029 Li968 1.970 . S
O1029 Li969 1.956 . S
O1029 Li971 1.961 . S
O1029 C978 1.325 . S
O1030 Li968 1.961 . S
O1030 Li970 1.956 . S
O1030 Li971 1.970 . S
O1030 C1000 1.325 . S
O1031 Li969 1.961 . S
O1031 Li970 1.970 . S
O1031 Li971 1.956 . S
O1031 C1006 1.325 . S
H1032 C974 0.929 . S
H1033 C975 0.930 . S
H1034 C976 0.930 . S
H1035 C977 0.930 . S
H1036 C979 0.930 . S
H1037 C981 0.929 . S
H1038 C982 0.930 . S
H1039 C983 0.930 . S
H1040 C986 0.930 . S
H1041 C989 0.929 . S
H1042 C994 0.929 . S
H1043 C995 0.930 . S
H1044 C1002 0.929 . S
H1045 C1003 0.930 . S
H1046 C1004 0.930 . S
H1047 C1005 0.930 . S
H1048 C1007 0.929 . S
H1049 C1008 0.930 . S
H1050 C1009 0.930 . S
H1051 C1010 0.930 . S
H1052 C1014 0.929 . S
H1053 C1016 0.930 . S
H1054 C1022 0.929 . S
H1055 C1023 0.930 . S
Li1056 N1073 1.990 . S
Li1056 O1116 1.956 . S
Li1056 O1117 1.970 . S
Li1056 O1118 1.961 . S
Li1057 N1081 1.990 . S
Li1057 O1116 1.970 . S
Li1057 O1117 1.956 . S
Li1057 O1119 1.961 . S
Li1058 N1103 1.990 . S
Li1058 O1116 1.961 . S
Li1058 O1118 1.956 . S
Li1058 O1119 1.970 . S
Li1059 N1109 1.990 . S
Li1059 O1117 1.961 . S
Li1059 O1118 1.970 . S
Li1059 O1119 1.956 . S
C1060 C1062 1.348 . S
C1060 C1063 1.356 . S
C1060 O1116 1.325 . S
N1061 C1064 1.314 . S
N1061 C1065 1.279 . S
C1062 C1060 1.348 . S
C1062 C1064 1.353 . S
C1062 H1120 0.929 . S
C1063 C1060 1.356 . S
C1063 C1065 1.358 . S
C1063 H1121 0.930 . S
C1064 N1061 1.314 . S
C1064 C1062 1.353 . S
C1064 H1122 0.930 . S
C1065 N1061 1.279 . S
C1065 C1063 1.358 . S
C1065 H1123 0.930 . S
C1066 C1069 1.348 . S
C1066 C1070 1.356 . S
C1066 O1117 1.325 . S
C1067 N1068 1.279 . S
C1067 C1070 1.358 . S
C1067 H1124 0.930 . S
N1068 C1067 1.279 . S
N1068 C1071 1.314 . S
C1069 C1066 1.348 . S
C1069 C1071 1.353 . S
C1069 H1125 0.929 . S
C1070 C1066 1.356 . S
C1070 C1067 1.358 . S
C1070 H1126 0.930 . S
C1071 N1068 1.314 . S
C1071 C1069 1.353 . S
C1071 H1127 0.930 . S
C1072 N1073 1.314 . S
C1072 C1077 1.353 . S
C1072 H1078 0.930 . S
N1073 Li1056 1.990 . S
N1073 C1072 1.314 . S
N1073 C1075 1.279 . S
C1074 C1075 1.358 . S
C1074 C1076 1.356 . S
C1074 H1128 0.930 . S
C1075 N1073 1.279 . S
C1075 C1074 1.358 . S
C1075 H1079 0.930 . S
C1076 C1074 1.356 . S
C1076 C1077 1.348 . S
C1077 C1072 1.353 . S
C1077 C1076 1.348 . S
C1077 H1129 0.929 . S
H1078 C1072 0.930 . S
H1079 C1075 0.930 . S
C1080 N1081 1.314 . S
C1080 C1082 1.353 . S
C1080 H1086 0.930 . S
N1081 Li1057 1.990 . S
N1081 C1080 1.314 . S
N1081 C1084 1.279 . S
C1082 C1080 1.353 . S
C1082 C1085 1.348 . S
C1082 H1130 0.929 . S
C1083 C1084 1.358 . S
C1083 C1085 1.356 . S
C1083 H1131 0.930 . S
C1084 N1081 1.279 . S
C1084 C1083 1.358 . S
C1084 H1087 0.930 . S
C1085 C1082 1.348 . S
C1085 C1083 1.356 . S
H1086 C1080 0.930 . S
H1087 C1084 0.930 . S
C1088 C1090 1.348 . S
C1088 C1091 1.356 . S
C1088 O1118 1.325 . S
N1089 C1092 1.314 . S
N1089 C1093 1.279 . S
C1090 C1088 1.348 . S
C1090 C1092 1.353 . S
C1090 H1132 0.929 . S
C1091 C1088 1.356 . S
C1091 C1093 1.358 . S
C1091 H1133 0.930 . S
C1092 N1089 1.314 . S
C1092 C1090 1.353 . S
C1092 H1134 0.930 . S
C1093 N1089 1.279 . S
C1093 C1091 1.358 . S
C1093 H1135 0.930 . S
C1094 C1095 1.348 . S
C1094 C1096 1.356 . S
C1094 O1119 1.325 . S
C1095 C1094 1.348 . S
C1095 C1097 1.353 . S
C1095 H1136 0.929 . S
C1096 C1094 1.356 . S
C1096 C1098 1.358 . S
C1096 H1137 0.930 . S
C1097 C1095 1.353 . S
C1097 N1099 1.314 . S
C1097 H1138 0.930 . S
C1098 C1096 1.358 . S
C1098 N1099 1.279 . S
C1098 H1139 0.930 . S
N1099 C1097 1.314 . S
N1099 C1098 1.279 . S
C1100 C1102 1.353 . S
C1100 N1103 1.314 . S
C1100 H1106 0.930 . S
C1101 N1103 1.279 . S
C1101 C1104 1.358 . S
C1101 H1107 0.930 . S
C1102 C1100 1.353 . S
C1102 C1105 1.348 . S
C1102 H1140 0.929 . S
N1103 Li1058 1.990 . S
N1103 C1100 1.314 . S
N1103 C1101 1.279 . S
C1104 C1101 1.358 . S
C1104 C1105 1.356 . S
C1104 H1141 0.930 . S
C1105 C1102 1.348 . S
C1105 C1104 1.356 . S
H1106 C1100 0.930 . S
H1107 C1101 0.930 . S
C1108 N1109 1.314 . S
C1108 C1110 1.353 . S
C1108 H1114 0.930 . S
N1109 Li1059 1.990 . S
N1109 C1108 1.314 . S
N1109 C1112 1.279 . S
C1110 C1108 1.353 . S
C1110 C1113 1.348 . S
C1110 H1142 0.929 . S
C1111 C1112 1.358 . S
C1111 C1113 1.356 . S
C1111 H1143 0.930 . S
C1112 N1109 1.279 . S
C1112 C1111 1.358 . S
C1112 H1115 0.930 . S
C1113 C1110 1.348 . S
C1113 C1111 1.356 . S
H1114 C1108 0.930 . S
H1115 C1112 0.930 . S
O1116 Li1056 1.956 . S
O1116 Li1057 1.970 . S
O1116 Li1058 1.961 . S
O1116 C1060 1.325 . S
O1117 Li1056 1.970 . S
O1117 Li1057 1.956 . S
O1117 Li1059 1.961 . S
O1117 C1066 1.325 . S
O1118 Li1056 1.961 . S
O1118 Li1058 1.956 . S
O1118 Li1059 1.970 . S
O1118 C1088 1.325 . S
O1119 Li1057 1.961 . S
O1119 Li1058 1.970 . S
O1119 Li1059 1.956 . S
O1119 C1094 1.325 . S
H1120 C1062 0.929 . S
H1121 C1063 0.930 . S
H1122 C1064 0.930 . S
H1123 C1065 0.930 . S
H1124 C1067 0.930 . S
H1125 C1069 0.929 . S
H1126 C1070 0.930 . S
H1127 C1071 0.930 . S
H1128 C1074 0.930 . S
H1129 C1077 0.929 . S
H1130 C1082 0.929 . S
H1131 C1083 0.930 . S
H1132 C1090 0.929 . S
H1133 C1091 0.930 . S
H1134 C1092 0.930 . S
H1135 C1093 0.930 . S
H1136 C1095 0.929 . S
H1137 C1096 0.930 . S
H1138 C1097 0.930 . S
H1139 C1098 0.930 . S
H1140 C1102 0.929 . S
H1141 C1104 0.930 . S
H1142 C1110 0.929 . S
H1143 C1111 0.930 . S
Li1144 N1161 1.990 . S
Li1144 O1204 1.956 . S
Li1144 O1205 1.970 . S
Li1144 O1206 1.961 . S
Li1145 N1169 1.990 . S
Li1145 O1204 1.970 . S
Li1145 O1205 1.956 . S
Li1145 O1207 1.961 . S
Li1146 N1191 1.990 . S
Li1146 O1204 1.961 . S
Li1146 O1206 1.956 . S
Li1146 O1207 1.970 . S
Li1147 N1197 1.990 . S
Li1147 O1205 1.961 . S
Li1147 O1206 1.970 . S
Li1147 O1207 1.956 . S
C1148 C1150 1.348 . S
C1148 C1151 1.356 . S
C1148 O1204 1.325 . S
N1149 C1152 1.314 . S
N1149 C1153 1.279 . S
C1150 C1148 1.348 . S
C1150 C1152 1.353 . S
C1150 H1208 0.929 . S
C1151 C1148 1.356 . S
C1151 C1153 1.358 . S
C1151 H1209 0.930 . S
C1152 N1149 1.314 . S
C1152 C1150 1.353 . S
C1152 H1210 0.930 . S
C1153 N1149 1.279 . S
C1153 C1151 1.358 . S
C1153 H1211 0.930 . S
C1154 C1157 1.348 . S
C1154 C1158 1.356 . S
C1154 O1205 1.325 . S
C1155 N1156 1.279 . S
C1155 C1158 1.358 . S
C1155 H1212 0.930 . S
N1156 C1155 1.279 . S
N1156 C1159 1.314 . S
C1157 C1154 1.348 . S
C1157 C1159 1.353 . S
C1157 H1213 0.929 . S
C1158 C1154 1.356 . S
C1158 C1155 1.358 . S
C1158 H1214 0.930 . S
C1159 N1156 1.314 . S
C1159 C1157 1.353 . S
C1159 H1215 0.930 . S
C1160 N1161 1.314 . S
C1160 C1165 1.353 . S
C1160 H1166 0.930 . S
N1161 Li1144 1.990 . S
N1161 C1160 1.314 . S
N1161 C1163 1.279 . S
C1162 C1163 1.358 . S
C1162 C1164 1.356 . S
C1162 H1216 0.930 . S
C1163 N1161 1.279 . S
C1163 C1162 1.358 . S
C1163 H1167 0.930 . S
C1164 C1162 1.356 . S
C1164 C1165 1.348 . S
C1165 C1160 1.353 . S
C1165 C1164 1.348 . S
C1165 H1217 0.929 . S
H1166 C1160 0.930 . S
H1167 C1163 0.930 . S
C1168 N1169 1.314 . S
C1168 C1170 1.353 . S
C1168 H1174 0.930 . S
N1169 Li1145 1.990 . S
N1169 C1168 1.314 . S
N1169 C1172 1.279 . S
C1170 C1168 1.353 . S
C1170 C1173 1.348 . S
C1170 H1218 0.929 . S
C1171 C1172 1.358 . S
C1171 C1173 1.356 . S
C1171 H1219 0.930 . S
C1172 N1169 1.279 . S
C1172 C1171 1.358 . S
C1172 H1175 0.930 . S
C1173 C1170 1.348 . S
C1173 C1171 1.356 . S
H1174 C1168 0.930 . S
H1175 C1172 0.930 . S
C1176 C1178 1.348 . S
C1176 C1179 1.356 . S
C1176 O1206 1.325 . S
N1177 C1180 1.314 . S
N1177 C1181 1.279 . S
C1178 C1176 1.348 . S
C1178 C1180 1.353 1_545 S
C1178 H1220 0.929 . S
C1179 C1176 1.356 . S
C1179 C1181 1.358 1_545 S
C1179 H1221 0.930 . S
C1180 N1177 1.314 . S
C1180 C1178 1.353 1_565 S
C1180 H1222 0.930 . S
C1181 N1177 1.279 . S
C1181 C1179 1.358 1_565 S
C1181 H1223 0.930 . S
C1182 C1183 1.348 . S
C1182 C1184 1.356 . S
C1182 O1207 1.325 . S
C1183 C1182 1.348 . S
C1183 C1185 1.353 . S
C1183 H1224 0.929 . S
C1184 C1182 1.356 . S
C1184 C1186 1.358 . S
C1184 H1225 0.930 . S
C1185 C1183 1.353 . S
C1185 N1187 1.314 . S
C1185 H1226 0.930 . S
C1186 C1184 1.358 . S
C1186 N1187 1.279 . S
C1186 H1227 0.930 . S
N1187 C1185 1.314 . S
N1187 C1186 1.279 . S
C1188 C1190 1.353 . S
C1188 N1191 1.314 . S
C1188 H1194 0.930 . S
C1189 N1191 1.279 . S
C1189 C1192 1.358 . S
C1189 H1195 0.930 . S
C1190 C1188 1.353 . S
C1190 C1193 1.348 . S
C1190 H1228 0.929 . S
N1191 Li1146 1.990 . S
N1191 C1188 1.314 . S
N1191 C1189 1.279 . S
C1192 C1189 1.358 . S
C1192 C1193 1.356 . S
C1192 H1229 0.930 . S
C1193 C1190 1.348 . S
C1193 C1192 1.356 . S
H1194 C1188 0.930 . S
H1195 C1189 0.930 . S
C1196 N1197 1.314 . S
C1196 C1198 1.353 . S
C1196 H1202 0.930 . S
N1197 Li1147 1.990 . S
N1197 C1196 1.314 . S
N1197 C1200 1.279 . S
C1198 C1196 1.353 . S
C1198 C1201 1.348 . S
C1198 H1230 0.929 . S
C1199 C1200 1.358 . S
C1199 C1201 1.356 . S
C1199 H1231 0.930 . S
C1200 N1197 1.279 . S
C1200 C1199 1.358 . S
C1200 H1203 0.930 . S
C1201 C1198 1.348 . S
C1201 C1199 1.356 . S
H1202 C1196 0.930 . S
H1203 C1200 0.930 . S
O1204 Li1144 1.956 . S
O1204 Li1145 1.970 . S
O1204 Li1146 1.961 . S
O1204 C1148 1.325 . S
O1205 Li1144 1.970 . S
O1205 Li1145 1.956 . S
O1205 Li1147 1.961 . S
O1205 C1154 1.325 . S
O1206 Li1144 1.961 . S
O1206 Li1146 1.956 . S
O1206 Li1147 1.970 . S
O1206 C1176 1.325 . S
O1207 Li1145 1.961 . S
O1207 Li1146 1.970 . S
O1207 Li1147 1.956 . S
O1207 C1182 1.325 . S
H1208 C1150 0.929 . S
H1209 C1151 0.930 . S
H1210 C1152 0.930 . S
H1211 C1153 0.930 . S
H1212 C1155 0.930 . S
H1213 C1157 0.929 . S
H1214 C1158 0.930 . S
H1215 C1159 0.930 . S
H1216 C1162 0.930 . S
H1217 C1165 0.929 . S
H1218 C1170 0.929 . S
H1219 C1171 0.930 . S
H1220 C1178 0.929 . S
H1221 C1179 0.930 . S
H1222 C1180 0.930 . S
H1223 C1181 0.930 . S
H1224 C1183 0.929 . S
H1225 C1184 0.930 . S
H1226 C1185 0.930 . S
H1227 C1186 0.930 . S
H1228 C1190 0.929 . S
H1229 C1192 0.930 . S
H1230 C1198 0.929 . S
H1231 C1199 0.930 . S
Li1232 N1249 1.990 . S
Li1232 O1292 1.956 . S
Li1232 O1293 1.970 . S
Li1232 O1294 1.961 . S
Li1233 N1257 1.990 . S
Li1233 O1292 1.970 . S
Li1233 O1293 1.956 . S
Li1233 O1295 1.961 . S
Li1234 N1279 1.990 . S
Li1234 O1292 1.961 . S
Li1234 O1294 1.956 . S
Li1234 O1295 1.970 . S
Li1235 N1285 1.990 . S
Li1235 O1293 1.961 . S
Li1235 O1294 1.970 . S
Li1235 O1295 1.956 . S
C1236 C1238 1.348 . S
C1236 C1239 1.356 . S
C1236 O1292 1.325 . S
N1237 C1240 1.314 . S
N1237 C1241 1.279 . S
C1238 C1236 1.348 . S
C1238 C1240 1.353 . S
C1238 H1296 0.929 . S
C1239 C1236 1.356 . S
C1239 C1241 1.358 . S
C1239 H1297 0.930 . S
C1240 N1237 1.314 . S
C1240 C1238 1.353 . S
C1240 H1298 0.930 . S
C1241 N1237 1.279 . S
C1241 C1239 1.358 . S
C1241 H1299 0.930 . S
C1242 C1245 1.348 . S
C1242 C1246 1.356 . S
C1242 O1293 1.325 . S
C1243 N1244 1.279 . S
C1243 C1246 1.358 . S
C1243 H1300 0.930 . S
N1244 C1243 1.279 . S
N1244 C1247 1.314 . S
C1245 C1242 1.348 . S
C1245 C1247 1.353 . S
C1245 H1301 0.929 . S
C1246 C1242 1.356 . S
C1246 C1243 1.358 . S
C1246 H1302 0.930 . S
C1247 N1244 1.314 . S
C1247 C1245 1.353 . S
C1247 H1303 0.930 . S
C1248 N1249 1.314 . S
C1248 C1253 1.353 . S
C1248 H1254 0.930 . S
N1249 Li1232 1.990 . S
N1249 C1248 1.314 . S
N1249 C1251 1.279 . S
C1250 C1251 1.358 . S
C1250 C1252 1.356 . S
C1250 H1304 0.930 . S
C1251 N1249 1.279 . S
C1251 C1250 1.358 . S
C1251 H1255 0.930 . S
C1252 C1250 1.356 . S
C1252 C1253 1.348 . S
C1253 C1248 1.353 . S
C1253 C1252 1.348 . S
C1253 H1305 0.929 . S
H1254 C1248 0.930 . S
H1255 C1251 0.930 . S
C1256 N1257 1.314 . S
C1256 C1258 1.353 . S
C1256 H1262 0.930 . S
N1257 Li1233 1.990 . S
N1257 C1256 1.314 . S
N1257 C1260 1.279 . S
C1258 C1256 1.353 . S
C1258 C1261 1.348 . S
C1258 H1306 0.929 . S
C1259 C1260 1.358 . S
C1259 C1261 1.356 . S
C1259 H1307 0.930 . S
C1260 N1257 1.279 . S
C1260 C1259 1.358 . S
C1260 H1263 0.930 . S
C1261 C1258 1.348 . S
C1261 C1259 1.356 . S
H1262 C1256 0.930 . S
H1263 C1260 0.930 . S
C1264 C1266 1.348 . S
C1264 C1267 1.356 . S
C1264 O1294 1.325 . S
N1265 C1268 1.314 . S
N1265 C1269 1.279 . S
C1266 C1264 1.348 . S
C1266 C1268 1.353 . S
C1266 H1308 0.929 . S
C1267 C1264 1.356 . S
C1267 C1269 1.358 . S
C1267 H1309 0.930 . S
C1268 N1265 1.314 . S
C1268 C1266 1.353 . S
C1268 H1310 0.930 . S
C1269 N1265 1.279 . S
C1269 C1267 1.358 . S
C1269 H1311 0.930 . S
C1270 C1271 1.348 . S
C1270 C1272 1.356 . S
C1270 O1295 1.325 . S
C1271 C1270 1.348 . S
C1271 C1273 1.353 . S
C1271 H1312 0.929 . S
C1272 C1270 1.356 . S
C1272 C1274 1.358 . S
C1272 H1313 0.930 . S
C1273 C1271 1.353 . S
C1273 N1275 1.314 . S
C1273 H1314 0.930 . S
C1274 C1272 1.358 . S
C1274 N1275 1.279 . S
C1274 H1315 0.930 . S
N1275 C1273 1.314 . S
N1275 C1274 1.279 . S
C1276 C1278 1.353 . S
C1276 N1279 1.314 . S
C1276 H1282 0.930 . S
C1277 N1279 1.279 . S
C1277 C1280 1.358 . S
C1277 H1283 0.930 . S
C1278 C1276 1.353 . S
C1278 C1281 1.348 . S
C1278 H1316 0.929 . S
N1279 Li1234 1.990 . S
N1279 C1276 1.314 . S
N1279 C1277 1.279 . S
C1280 C1277 1.358 . S
C1280 C1281 1.356 . S
C1280 H1317 0.930 . S
C1281 C1278 1.348 . S
C1281 C1280 1.356 . S
H1282 C1276 0.930 . S
H1283 C1277 0.930 . S
C1284 N1285 1.314 . S
C1284 C1286 1.353 . S
C1284 H1290 0.930 . S
N1285 Li1235 1.990 . S
N1285 C1284 1.314 . S
N1285 C1288 1.279 . S
C1286 C1284 1.353 . S
C1286 C1289 1.348 . S
C1286 H1318 0.929 . S
C1287 C1288 1.358 . S
C1287 C1289 1.356 . S
C1287 H1319 0.930 . S
C1288 N1285 1.279 . S
C1288 C1287 1.358 . S
C1288 H1291 0.930 . S
C1289 C1286 1.348 . S
C1289 C1287 1.356 . S
H1290 C1284 0.930 . S
H1291 C1288 0.930 . S
O1292 Li1232 1.956 . S
O1292 Li1233 1.970 . S
O1292 Li1234 1.961 . S
O1292 C1236 1.325 . S
O1293 Li1232 1.970 . S
O1293 Li1233 1.956 . S
O1293 Li1235 1.961 . S
O1293 C1242 1.325 . S
O1294 Li1232 1.961 . S
O1294 Li1234 1.956 . S
O1294 Li1235 1.970 . S
O1294 C1264 1.325 . S
O1295 Li1233 1.961 . S
O1295 Li1234 1.970 . S
O1295 Li1235 1.956 . S
O1295 C1270 1.325 . S
H1296 C1238 0.929 . S
H1297 C1239 0.930 . S
H1298 C1240 0.930 . S
H1299 C1241 0.930 . S
H1300 C1243 0.930 . S
H1301 C1245 0.929 . S
H1302 C1246 0.930 . S
H1303 C1247 0.930 . S
H1304 C1250 0.930 . S
H1305 C1253 0.929 . S
H1306 C1258 0.929 . S
H1307 C1259 0.930 . S
H1308 C1266 0.929 . S
H1309 C1267 0.930 . S
H1310 C1268 0.930 . S
H1311 C1269 0.930 . S
H1312 C1271 0.929 . S
H1313 C1272 0.930 . S
H1314 C1273 0.930 . S
H1315 C1274 0.930 . S
H1316 C1278 0.929 . S
H1317 C1280 0.930 . S
H1318 C1286 0.929 . S
H1319 C1287 0.930 . S
Li1320 N1337 1.990 . S
Li1320 O1380 1.956 . S
Li1320 O1381 1.970 . S
Li1320 O1382 1.961 . S
Li1321 N1345 1.990 . S
Li1321 O1380 1.970 . S
Li1321 O1381 1.956 . S
Li1321 O1383 1.961 . S
Li1322 N1367 1.990 . S
Li1322 O1380 1.961 . S
Li1322 O1382 1.956 . S
Li1322 O1383 1.970 . S
Li1323 N1373 1.990 . S
Li1323 O1381 1.961 . S
Li1323 O1382 1.970 . S
Li1323 O1383 1.956 . S
C1324 C1326 1.348 . S
C1324 C1327 1.356 . S
C1324 O1380 1.325 . S
N1325 C1328 1.314 . S
N1325 C1329 1.279 . S
C1326 C1324 1.348 . S
C1326 C1328 1.353 1_565 S
C1326 H1384 0.929 . S
C1327 C1324 1.356 . S
C1327 C1329 1.358 1_565 S
C1327 H1385 0.930 . S
C1328 N1325 1.314 . S
C1328 C1326 1.353 1_545 S
C1328 H1386 0.930 . S
C1329 N1325 1.279 . S
C1329 C1327 1.358 1_545 S
C1329 H1387 0.930 . S
C1330 C1333 1.348 . S
C1330 C1334 1.356 . S
C1330 O1381 1.325 . S
C1331 N1332 1.279 . S
C1331 C1334 1.358 . S
C1331 H1388 0.930 . S
N1332 C1331 1.279 . S
N1332 C1335 1.314 . S
C1333 C1330 1.348 . S
C1333 C1335 1.353 . S
C1333 H1389 0.929 . S
C1334 C1330 1.356 . S
C1334 C1331 1.358 . S
C1334 H1390 0.930 . S
C1335 N1332 1.314 . S
C1335 C1333 1.353 . S
C1335 H1391 0.930 . S
C1336 N1337 1.314 . S
C1336 C1341 1.353 . S
C1336 H1342 0.930 . S
N1337 Li1320 1.990 . S
N1337 C1336 1.314 . S
N1337 C1339 1.279 . S
C1338 C1339 1.358 . S
C1338 C1340 1.356 . S
C1338 H1392 0.930 . S
C1339 N1337 1.279 . S
C1339 C1338 1.358 . S
C1339 H1343 0.930 . S
C1340 C1338 1.356 . S
C1340 C1341 1.348 . S
C1341 C1336 1.353 . S
C1341 C1340 1.348 . S
C1341 H1393 0.929 . S
H1342 C1336 0.930 . S
H1343 C1339 0.930 . S
C1344 N1345 1.314 . S
C1344 C1346 1.353 . S
C1344 H1350 0.930 . S
N1345 Li1321 1.990 . S
N1345 C1344 1.314 . S
N1345 C1348 1.279 . S
C1346 C1344 1.353 . S
C1346 C1349 1.348 . S
C1346 H1394 0.929 . S
C1347 C1348 1.358 . S
C1347 C1349 1.356 . S
C1347 H1395 0.930 . S
C1348 N1345 1.279 . S
C1348 C1347 1.358 . S
C1348 H1351 0.930 . S
C1349 C1346 1.348 . S
C1349 C1347 1.356 . S
H1350 C1344 0.930 . S
H1351 C1348 0.930 . S
C1352 C1354 1.348 . S
C1352 C1355 1.356 . S
C1352 O1382 1.325 . S
N1353 C1356 1.314 . S
N1353 C1357 1.279 . S
C1354 C1352 1.348 . S
C1354 C1356 1.353 . S
C1354 H1396 0.929 . S
C1355 C1352 1.356 . S
C1355 C1357 1.358 . S
C1355 H1397 0.930 . S
C1356 N1353 1.314 . S
C1356 C1354 1.353 . S
C1356 H1398 0.930 . S
C1357 N1353 1.279 . S
C1357 C1355 1.358 . S
C1357 H1399 0.930 . S
C1358 C1359 1.348 . S
C1358 C1360 1.356 . S
C1358 O1383 1.325 . S
C1359 C1358 1.348 . S
C1359 C1361 1.353 . S
C1359 H1400 0.929 . S
C1360 C1358 1.356 . S
C1360 C1362 1.358 . S
C1360 H1401 0.930 . S
C1361 C1359 1.353 . S
C1361 N1363 1.314 . S
C1361 H1402 0.930 . S
C1362 C1360 1.358 . S
C1362 N1363 1.279 . S
C1362 H1403 0.930 . S
N1363 C1361 1.314 . S
N1363 C1362 1.279 . S
C1364 C1366 1.353 . S
C1364 N1367 1.314 . S
C1364 H1370 0.930 . S
C1365 N1367 1.279 . S
C1365 C1368 1.358 . S
C1365 H1371 0.930 . S
C1366 C1364 1.353 . S
C1366 C1369 1.348 . S
C1366 H1404 0.929 . S
N1367 Li1322 1.990 . S
N1367 C1364 1.314 . S
N1367 C1365 1.279 . S
C1368 C1365 1.358 . S
C1368 C1369 1.356 . S
C1368 H1405 0.930 . S
C1369 C1366 1.348 . S
C1369 C1368 1.356 . S
H1370 C1364 0.930 . S
H1371 C1365 0.930 . S
C1372 N1373 1.314 . S
C1372 C1374 1.353 . S
C1372 H1378 0.930 . S
N1373 Li1323 1.990 . S
N1373 C1372 1.314 . S
N1373 C1376 1.279 . S
C1374 C1372 1.353 . S
C1374 C1377 1.348 . S
C1374 H1406 0.929 . S
C1375 C1376 1.358 . S
C1375 C1377 1.356 . S
C1375 H1407 0.930 . S
C1376 N1373 1.279 . S
C1376 C1375 1.358 . S
C1376 H1379 0.930 . S
C1377 C1374 1.348 . S
C1377 C1375 1.356 . S
H1378 C1372 0.930 . S
H1379 C1376 0.930 . S
O1380 Li1320 1.956 . S
O1380 Li1321 1.970 . S
O1380 Li1322 1.961 . S
O1380 C1324 1.325 . S
O1381 Li1320 1.970 . S
O1381 Li1321 1.956 . S
O1381 Li1323 1.961 . S
O1381 C1330 1.325 . S
O1382 Li1320 1.961 . S
O1382 Li1322 1.956 . S
O1382 Li1323 1.970 . S
O1382 C1352 1.325 . S
O1383 Li1321 1.961 . S
O1383 Li1322 1.970 . S
O1383 Li1323 1.956 . S
O1383 C1358 1.325 . S
H1384 C1326 0.929 . S
H1385 C1327 0.930 . S
H1386 C1328 0.930 . S
H1387 C1329 0.930 . S
H1388 C1331 0.930 . S
H1389 C1333 0.929 . S
H1390 C1334 0.930 . S
H1391 C1335 0.930 . S
H1392 C1338 0.930 . S
H1393 C1341 0.929 . S
H1394 C1346 0.929 . S
H1395 C1347 0.930 . S
H1396 C1354 0.929 . S
H1397 C1355 0.930 . S
H1398 C1356 0.930 . S
H1399 C1357 0.930 . S
H1400 C1359 0.929 . S
H1401 C1360 0.930 . S
H1402 C1361 0.930 . S
H1403 C1362 0.930 . S
H1404 C1366 0.929 . S
H1405 C1368 0.930 . S
H1406 C1374 0.929 . S
H1407 C1375 0.930 . S
C1408 C1409 1.363 . S
C1408 C1414 1.379 . S
C1408 N1416 1.356 . S
C1409 C1408 1.363 . S
C1409 C1415 1.363 . S
C1410 C1411 1.363 . S
C1410 C1415 1.379 . S
C1410 N1417 1.356 . S
C1411 C1410 1.363 . S
C1411 C1414 1.363 . S
N1412 C1414 1.356 . S
N1412 H1424 0.984 . S
N1412 H1425 0.985 . S
N1413 C1415 1.356 . S
N1413 H1418 0.984 . S
N1413 H1419 0.985 . S
C1414 C1408 1.379 . S
C1414 C1411 1.363 . S
C1414 N1412 1.356 . S
C1415 C1409 1.363 . S
C1415 C1410 1.379 . S
C1415 N1413 1.356 . S
N1416 C1408 1.356 . S
N1416 H1422 0.984 . S
N1416 H1423 0.984 . S
N1417 C1410 1.356 . S
N1417 H1420 0.984 . S
N1417 H1421 0.985 . S
H1418 N1413 0.984 . S
H1419 N1413 0.985 . S
H1420 N1417 0.984 . S
H1421 N1417 0.985 . S
H1422 N1416 0.984 . S
H1423 N1416 0.984 . S
H1424 N1412 0.984 . S
H1425 N1412 0.985 . S
C1426 C1427 1.363 . S
C1426 C1432 1.379 . S
C1426 N1434 1.356 . S
C1427 C1426 1.363 . S
C1427 C1433 1.363 . S
C1428 C1429 1.363 . S
C1428 C1433 1.379 . S
C1428 N1435 1.356 . S
C1429 C1428 1.363 . S
C1429 C1432 1.363 . S
N1430 C1432 1.356 . S
N1430 H1442 0.984 . S
N1430 H1443 0.985 . S
N1431 C1433 1.356 . S
N1431 H1436 0.984 . S
N1431 H1437 0.985 . S
C1432 C1426 1.379 . S
C1432 C1429 1.363 . S
C1432 N1430 1.356 . S
C1433 C1427 1.363 . S
C1433 C1428 1.379 . S
C1433 N1431 1.356 . S
N1434 C1426 1.356 . S
N1434 H1440 0.984 . S
N1434 H1441 0.984 . S
N1435 C1428 1.356 . S
N1435 H1438 0.984 . S
N1435 H1439 0.985 . S
H1436 N1431 0.984 . S
H1437 N1431 0.985 . S
H1438 N1435 0.984 . S
H1439 N1435 0.985 . S
H1440 N1434 0.984 . S
H1441 N1434 0.984 . S
H1442 N1430 0.984 . S
H1443 N1430 0.985 . S
C1444 C1445 1.363 . S
C1444 C1450 1.379 . S
C1444 N1452 1.356 . S
C1445 C1444 1.363 . S
C1445 C1451 1.363 . S
C1446 C1447 1.363 . S
C1446 C1451 1.379 . S
C1446 N1453 1.356 . S
C1447 C1446 1.363 . S
C1447 C1450 1.363 . S
N1448 C1450 1.356 . S
N1448 H1460 0.984 . S
N1448 H1461 0.985 . S
N1449 C1451 1.356 . S
N1449 H1454 0.984 . S
N1449 H1455 0.985 . S
C1450 C1444 1.379 . S
C1450 C1447 1.363 . S
C1450 N1448 1.356 . S
C1451 C1445 1.363 . S
C1451 C1446 1.379 . S
C1451 N1449 1.356 . S
N1452 C1444 1.356 . S
N1452 H1458 0.984 . S
N1452 H1459 0.984 . S
N1453 C1446 1.356 . S
N1453 H1456 0.984 . S
N1453 H1457 0.985 . S
H1454 N1449 0.984 . S
H1455 N1449 0.985 . S
H1456 N1453 0.984 . S
H1457 N1453 0.985 . S
H1458 N1452 0.984 . S
H1459 N1452 0.984 . S
H1460 N1448 0.984 . S
H1461 N1448 0.985 . S
C1462 C1463 1.363 . S
C1462 C1468 1.379 1_455 S
C1462 N1470 1.356 . S
C1463 C1462 1.363 . S
C1463 C1469 1.363 . S
C1464 C1465 1.363 . S
C1464 C1469 1.379 1_655 S
C1464 N1471 1.356 . S
C1465 C1464 1.363 . S
C1465 C1468 1.363 . S
N1466 C1468 1.356 . S
N1466 H1478 0.984 . S
N1466 H1479 0.985 . S
N1467 C1469 1.356 . S
N1467 H1472 0.984 . S
N1467 H1473 0.985 . S
C1468 C1462 1.379 1_655 S
C1468 C1465 1.363 . S
C1468 N1466 1.356 . S
C1469 C1463 1.363 . S
C1469 C1464 1.379 1_455 S
C1469 N1467 1.356 . S
N1470 C1462 1.356 . S
N1470 H1476 0.984 . S
N1470 H1477 0.984 . S
N1471 C1464 1.356 . S
N1471 H1474 0.984 . S
N1471 H1475 0.985 . S
H1472 N1467 0.984 . S
H1473 N1467 0.985 . S
H1474 N1471 0.984 . S
H1475 N1471 0.985 . S
H1476 N1470 0.984 . S
H1477 N1470 0.984 . S
H1478 N1466 0.984 . S
H1479 N1466 0.985 . S
C1480 C1481 1.363 . S
C1480 C1486 1.379 . S
C1480 N1488 1.356 . S
C1481 C1480 1.363 . S
C1481 C1487 1.363 . S
C1482 C1483 1.363 . S
C1482 C1487 1.379 . S
C1482 N1489 1.356 . S
C1483 C1482 1.363 . S
C1483 C1486 1.363 . S
N1484 C1486 1.356 . S
N1484 H1496 0.984 . S
N1484 H1497 0.985 . S
N1485 C1487 1.356 . S
N1485 H1490 0.984 . S
N1485 H1491 0.985 . S
C1486 C1480 1.379 . S
C1486 C1483 1.363 . S
C1486 N1484 1.356 . S
C1487 C1481 1.363 . S
C1487 C1482 1.379 . S
C1487 N1485 1.356 . S
N1488 C1480 1.356 . S
N1488 H1494 0.984 . S
N1488 H1495 0.984 . S
N1489 C1482 1.356 . S
N1489 H1492 0.984 . S
N1489 H1493 0.985 . S
H1490 N1485 0.984 . S
H1491 N1485 0.985 . S
H1492 N1489 0.984 . S
H1493 N1489 0.985 . S
H1494 N1488 0.984 . S
H1495 N1488 0.984 . S
H1496 N1484 0.984 . S
H1497 N1484 0.985 . S
C1498 C1499 1.363 . S
C1498 C1504 1.379 1_655 S
C1498 N1506 1.356 . S
C1499 C1498 1.363 . S
C1499 C1505 1.363 . S
C1500 C1501 1.363 . S
C1500 C1505 1.379 1_455 S
C1500 N1507 1.356 . S
C1501 C1500 1.363 . S
C1501 C1504 1.363 . S
N1502 C1504 1.356 . S
N1502 H1514 0.984 . S
N1502 H1515 0.985 . S
N1503 C1505 1.356 . S
N1503 H1508 0.984 . S
N1503 H1509 0.985 . S
C1504 C1498 1.379 1_455 S
C1504 C1501 1.363 . S
C1504 N1502 1.356 . S
C1505 C1499 1.363 . S
C1505 C1500 1.379 1_655 S
C1505 N1503 1.356 . S
N1506 C1498 1.356 . S
N1506 H1512 0.984 . S
N1506 H1513 0.984 . S
N1507 C1500 1.356 . S
N1507 H1510 0.984 . S
N1507 H1511 0.985 . S
H1508 N1503 0.984 . S
H1509 N1503 0.985 . S
H1510 N1507 0.984 . S
H1511 N1507 0.985 . S
H1512 N1506 0.984 . S
H1513 N1506 0.984 . S
H1514 N1502 0.984 . S
H1515 N1502 0.985 . S
C1516 C1517 1.363 . S
C1516 C1522 1.379 . S
C1516 N1524 1.356 . S
C1517 C1516 1.363 . S
C1517 C1523 1.363 . S
C1518 C1519 1.363 . S
C1518 C1523 1.379 . S
C1518 N1525 1.356 . S
C1519 C1518 1.363 . S
C1519 C1522 1.363 . S
N1520 C1522 1.356 . S
N1520 H1532 0.984 . S
N1520 H1533 0.985 . S
N1521 C1523 1.356 . S
N1521 H1526 0.984 . S
N1521 H1527 0.985 . S
C1522 C1516 1.379 . S
C1522 C1519 1.363 . S
C1522 N1520 1.356 . S
C1523 C1517 1.363 . S
C1523 C1518 1.379 . S
C1523 N1521 1.356 . S
N1524 C1516 1.356 . S
N1524 H1530 0.984 . S
N1524 H1531 0.984 . S
N1525 C1518 1.356 . S
N1525 H1528 0.984 . S
N1525 H1529 0.985 . S
H1526 N1521 0.984 . S
H1527 N1521 0.985 . S
H1528 N1525 0.984 . S
H1529 N1525 0.985 . S
H1530 N1524 0.984 . S
H1531 N1524 0.984 . S
H1532 N1520 0.984 . S
H1533 N1520 0.985 . S
C1534 C1535 1.363 . S
C1534 C1540 1.379 . S
C1534 N1542 1.356 . S
C1535 C1534 1.363 . S
C1535 C1541 1.363 . S
C1536 C1537 1.363 . S
C1536 C1541 1.379 . S
C1536 N1543 1.356 . S
C1537 C1536 1.363 . S
C1537 C1540 1.363 . S
N1538 C1540 1.356 . S
N1538 H1550 0.984 . S
N1538 H1551 0.985 . S
N1539 C1541 1.356 . S
N1539 H1544 0.984 . S
N1539 H1545 0.985 . S
C1540 C1534 1.379 . S
C1540 C1537 1.363 . S
C1540 N1538 1.356 . S
C1541 C1535 1.363 . S
C1541 C1536 1.379 . S
C1541 N1539 1.356 . S
N1542 C1534 1.356 . S
N1542 H1548 0.984 . S
N1542 H1549 0.984 . S
N1543 C1536 1.356 . S
N1543 H1546 0.984 . S
N1543 H1547 0.985 . S
H1544 N1539 0.984 . S
H1545 N1539 0.985 . S
H1546 N1543 0.984 . S
H1547 N1543 0.985 . S
H1548 N1542 0.984 . S
H1549 N1542 0.984 . S
H1550 N1538 0.984 . S
H1551 N1538 0.985 . S
C1552 C1553 1.363 . S
C1552 C1558 1.379 . S
C1552 N1560 1.356 . S
C1553 C1552 1.363 . S
C1553 C1559 1.363 . S
C1554 C1555 1.363 . S
C1554 C1559 1.379 . S
C1554 N1561 1.356 . S
C1555 C1554 1.363 . S
C1555 C1558 1.363 . S
N1556 C1558 1.356 . S
N1556 H1568 0.984 . S
N1556 H1569 0.985 . S
N1557 C1559 1.356 . S
N1557 H1562 0.984 . S
N1557 H1563 0.985 . S
C1558 C1552 1.379 . S
C1558 C1555 1.363 . S
C1558 N1556 1.356 . S
C1559 C1553 1.363 . S
C1559 C1554 1.379 . S
C1559 N1557 1.356 . S
N1560 C1552 1.356 . S
N1560 H1566 0.984 . S
N1560 H1567 0.984 . S
N1561 C1554 1.356 . S
N1561 H1564 0.984 . S
N1561 H1565 0.985 . S
H1562 N1557 0.984 . S
H1563 N1557 0.985 . S
H1564 N1561 0.984 . S
H1565 N1561 0.985 . S
H1566 N1560 0.984 . S
H1567 N1560 0.984 . S
H1568 N1556 0.984 . S
H1569 N1556 0.985 . S
C1570 C1571 1.363 . S
C1570 C1576 1.379 . S
C1570 N1578 1.356 . S
C1571 C1570 1.363 . S
C1571 C1577 1.363 . S
C1572 C1573 1.363 . S
C1572 C1577 1.379 . S
C1572 N1579 1.356 . S
C1573 C1572 1.363 . S
C1573 C1576 1.363 . S
N1574 C1576 1.356 . S
N1574 H1586 0.984 . S
N1574 H1587 0.985 . S
N1575 C1577 1.356 . S
N1575 H1580 0.984 . S
N1575 H1581 0.985 . S
C1576 C1570 1.379 . S
C1576 C1573 1.363 . S
C1576 N1574 1.356 . S
C1577 C1571 1.363 . S
C1577 C1572 1.379 . S
C1577 N1575 1.356 . S
N1578 C1570 1.356 . S
N1578 H1584 0.984 . S
N1578 H1585 0.984 . S
N1579 C1572 1.356 . S
N1579 H1582 0.984 . S
N1579 H1583 0.985 . S
H1580 N1575 0.984 . S
H1581 N1575 0.985 . S
H1582 N1579 0.984 . S
H1583 N1579 0.985 . S
H1584 N1578 0.984 . S
H1585 N1578 0.984 . S
H1586 N1574 0.984 . S
H1587 N1574 0.985 . S
C1588 C1589 1.363 . S
C1588 C1594 1.379 . S
C1588 N1596 1.356 . S
C1589 C1588 1.363 . S
C1589 C1595 1.363 . S
C1590 C1591 1.363 . S
C1590 C1595 1.379 . S
C1590 N1597 1.356 . S
C1591 C1590 1.363 . S
C1591 C1594 1.363 . S
N1592 C1594 1.356 . S
N1592 H1604 0.984 . S
N1592 H1605 0.985 . S
N1593 C1595 1.356 . S
N1593 H1598 0.984 . S
N1593 H1599 0.985 . S
C1594 C1588 1.379 . S
C1594 C1591 1.363 . S
C1594 N1592 1.356 . S
C1595 C1589 1.363 . S
C1595 C1590 1.379 . S
C1595 N1593 1.356 . S
N1596 C1588 1.356 . S
N1596 H1602 0.984 . S
N1596 H1603 0.984 . S
N1597 C1590 1.356 . S
N1597 H1600 0.984 . S
N1597 H1601 0.985 . S
H1598 N1593 0.984 . S
H1599 N1593 0.985 . S
H1600 N1597 0.984 . S
H1601 N1597 0.985 . S
H1602 N1596 0.984 . S
H1603 N1596 0.984 . S
H1604 N1592 0.984 . S
H1605 N1592 0.985 . S
C1606 C1607 1.363 . S
C1606 C1612 1.379 . S
C1606 N1614 1.356 . S
C1607 C1606 1.363 . S
C1607 C1613 1.363 . S
C1608 C1609 1.363 . S
C1608 C1613 1.379 . S
C1608 N1615 1.356 . S
C1609 C1608 1.363 . S
C1609 C1612 1.363 . S
N1610 C1612 1.356 . S
N1610 H1622 0.984 . S
N1610 H1623 0.985 . S
N1611 C1613 1.356 . S
N1611 H1616 0.984 . S
N1611 H1617 0.985 . S
C1612 C1606 1.379 . S
C1612 C1609 1.363 . S
C1612 N1610 1.356 . S
C1613 C1607 1.363 . S
C1613 C1608 1.379 . S
C1613 N1611 1.356 . S
N1614 C1606 1.356 . S
N1614 H1620 0.984 . S
N1614 H1621 0.984 . S
N1615 C1608 1.356 . S
N1615 H1618 0.984 . S
N1615 H1619 0.985 . S
H1616 N1611 0.984 . S
H1617 N1611 0.985 . S
H1618 N1615 0.984 . S
H1619 N1615 0.985 . S
H1620 N1614 0.984 . S
H1621 N1614 0.984 . S
H1622 N1610 0.984 . S
H1623 N1610 0.985 . S
C1624 C1625 1.363 . S
C1624 C1630 1.379 1_455 S
C1624 N1632 1.356 . S
C1625 C1624 1.363 . S
C1625 C1631 1.363 . S
C1626 C1627 1.363 . S
C1626 C1631 1.379 1_655 S
C1626 N1633 1.356 . S
C1627 C1626 1.363 . S
C1627 C1630 1.363 . S
N1628 C1630 1.356 . S
N1628 H1640 0.984 . S
N1628 H1641 0.985 . S
N1629 C1631 1.356 . S
N1629 H1634 0.984 . S
N1629 H1635 0.985 . S
C1630 C1624 1.379 1_655 S
C1630 C1627 1.363 . S
C1630 N1628 1.356 . S
C1631 C1625 1.363 . S
C1631 C1626 1.379 1_455 S
C1631 N1629 1.356 . S
N1632 C1624 1.356 . S
N1632 H1638 0.984 . S
N1632 H1639 0.984 . S
N1633 C1626 1.356 . S
N1633 H1636 0.984 . S
N1633 H1637 0.985 . S
H1634 N1629 0.984 . S
H1635 N1629 0.985 . S
H1636 N1633 0.984 . S
H1637 N1633 0.985 . S
H1638 N1632 0.984 . S
H1639 N1632 0.984 . S
H1640 N1628 0.984 . S
H1641 N1628 0.985 . S
C1642 C1643 1.363 . S
C1642 C1648 1.379 . S
C1642 N1650 1.356 . S
C1643 C1642 1.363 . S
C1643 C1649 1.363 . S
C1644 C1645 1.363 . S
C1644 C1649 1.379 . S
C1644 N1651 1.356 . S
C1645 C1644 1.363 . S
C1645 C1648 1.363 . S
N1646 C1648 1.356 . S
N1646 H1658 0.984 . S
N1646 H1659 0.985 . S
N1647 C1649 1.356 . S
N1647 H1652 0.984 . S
N1647 H1653 0.985 . S
C1648 C1642 1.379 . S
C1648 C1645 1.363 . S
C1648 N1646 1.356 . S
C1649 C1643 1.363 . S
C1649 C1644 1.379 . S
C1649 N1647 1.356 . S
N1650 C1642 1.356 . S
N1650 H1656 0.984 . S
N1650 H1657 0.984 . S
N1651 C1644 1.356 . S
N1651 H1654 0.984 . S
N1651 H1655 0.985 . S
H1652 N1647 0.984 . S
H1653 N1647 0.985 . S
H1654 N1651 0.984 . S
H1655 N1651 0.985 . S
H1656 N1650 0.984 . S
H1657 N1650 0.984 . S
H1658 N1646 0.984 . S
H1659 N1646 0.985 . S
C1660 C1661 1.363 . S
C1660 C1666 1.379 . S
C1660 N1668 1.356 . S
C1661 C1660 1.363 . S
C1661 C1667 1.363 . S
C1662 C1663 1.363 . S
C1662 C1667 1.379 . S
C1662 N1669 1.356 . S
C1663 C1662 1.363 . S
C1663 C1666 1.363 . S
N1664 C1666 1.356 . S
N1664 H1676 0.984 . S
N1664 H1677 0.985 . S
N1665 C1667 1.356 . S
N1665 H1670 0.984 . S
N1665 H1671 0.985 . S
C1666 C1660 1.379 . S
C1666 C1663 1.363 . S
C1666 N1664 1.356 . S
C1667 C1661 1.363 . S
C1667 C1662 1.379 . S
C1667 N1665 1.356 . S
N1668 C1660 1.356 . S
N1668 H1674 0.984 . S
N1668 H1675 0.984 . S
N1669 C1662 1.356 . S
N1669 H1672 0.984 . S
N1669 H1673 0.985 . S
H1670 N1665 0.984 . S
H1671 N1665 0.985 . S
H1672 N1669 0.984 . S
H1673 N1669 0.985 . S
H1674 N1668 0.984 . S
H1675 N1668 0.984 . S
H1676 N1664 0.984 . S
H1677 N1664 0.985 . S
C1678 C1679 1.363 . S
C1678 C1684 1.379 1_455 S
C1678 N1686 1.356 . S
C1679 C1678 1.363 . S
C1679 C1685 1.363 . S
C1680 C1681 1.363 . S
C1680 C1685 1.379 1_655 S
C1680 N1687 1.356 . S
C1681 C1680 1.363 . S
C1681 C1684 1.363 . S
N1682 C1684 1.356 . S
N1682 H1694 0.984 . S
N1682 H1695 0.985 . S
N1683 C1685 1.356 . S
N1683 H1688 0.984 . S
N1683 H1689 0.985 . S
C1684 C1678 1.379 1_655 S
C1684 C1681 1.363 . S
C1684 N1682 1.356 . S
C1685 C1679 1.363 . S
C1685 C1680 1.379 1_455 S
C1685 N1683 1.356 . S
N1686 C1678 1.356 . S
N1686 H1692 0.984 . S
N1686 H1693 0.984 . S
N1687 C1680 1.356 . S
N1687 H1690 0.984 . S
N1687 H1691 0.985 . S
H1688 N1683 0.984 . S
H1689 N1683 0.985 . S
H1690 N1687 0.984 . S
H1691 N1687 0.985 . S
H1692 N1686 0.984 . S
H1693 N1686 0.984 . S
H1694 N1682 0.984 . S
H1695 N1682 0.985 . S
C1696 C1697 1.363 . S
C1696 C1702 1.379 1_554 S
C1696 N1704 1.356 . S
C1697 C1696 1.363 . S
C1697 C1703 1.363 . S
C1698 C1699 1.363 . S
C1698 C1703 1.379 1_556 S
C1698 N1705 1.356 . S
C1699 C1698 1.363 . S
C1699 C1702 1.363 . S
N1700 C1702 1.356 . S
N1700 H1712 0.984 . S
N1700 H1713 0.985 . S
N1701 C1703 1.356 . S
N1701 H1706 0.984 . S
N1701 H1707 0.985 . S
C1702 C1696 1.379 1_556 S
C1702 C1699 1.363 . S
C1702 N1700 1.356 . S
C1703 C1697 1.363 . S
C1703 C1698 1.379 1_554 S
C1703 N1701 1.356 . S
N1704 C1696 1.356 . S
N1704 H1710 0.984 . S
N1704 H1711 0.984 . S
N1705 C1698 1.356 . S
N1705 H1708 0.984 . S
N1705 H1709 0.985 . S
H1706 N1701 0.984 . S
H1707 N1701 0.985 . S
H1708 N1705 0.984 . S
H1709 N1705 0.985 . S
H1710 N1704 0.984 . S
H1711 N1704 0.984 . S
H1712 N1700 0.984 . S
H1713 N1700 0.985 . S
C1714 C1715 1.363 . S
C1714 C1720 1.379 . S
C1714 N1722 1.356 . S
C1715 C1714 1.363 . S
C1715 C1721 1.363 . S
C1716 C1717 1.363 . S
C1716 C1721 1.379 . S
C1716 N1723 1.356 . S
C1717 C1716 1.363 . S
C1717 C1720 1.363 . S
N1718 C1720 1.356 . S
N1718 H1730 0.984 . S
N1718 H1731 0.985 . S
N1719 C1721 1.356 . S
N1719 H1724 0.984 . S
N1719 H1725 0.985 . S
C1720 C1714 1.379 . S
C1720 C1717 1.363 . S
C1720 N1718 1.356 . S
C1721 C1715 1.363 . S
C1721 C1716 1.379 . S
C1721 N1719 1.356 . S
N1722 C1714 1.356 . S
N1722 H1728 0.984 . S
N1722 H1729 0.984 . S
N1723 C1716 1.356 . S
N1723 H1726 0.984 . S
N1723 H1727 0.985 . S
H1724 N1719 0.984 . S
H1725 N1719 0.985 . S
H1726 N1723 0.984 . S
H1727 N1723 0.985 . S
H1728 N1722 0.984 . S
H1729 N1722 0.984 . S
H1730 N1718 0.984 . S
H1731 N1718 0.985 . S
C1732 C1733 1.363 . S
C1732 C1738 1.379 . S
C1732 N1740 1.356 . S
C1733 C1732 1.363 . S
C1733 C1739 1.363 . S
C1734 C1735 1.363 . S
C1734 C1739 1.379 . S
C1734 N1741 1.356 . S
C1735 C1734 1.363 . S
C1735 C1738 1.363 . S
N1736 C1738 1.356 . S
N1736 H1748 0.984 . S
N1736 H1749 0.985 . S
N1737 C1739 1.356 . S
N1737 H1742 0.984 . S
N1737 H1743 0.985 . S
C1738 C1732 1.379 . S
C1738 C1735 1.363 . S
C1738 N1736 1.356 . S
C1739 C1733 1.363 . S
C1739 C1734 1.379 . S
C1739 N1737 1.356 . S
N1740 C1732 1.356 . S
N1740 H1746 0.984 . S
N1740 H1747 0.984 . S
N1741 C1734 1.356 . S
N1741 H1744 0.984 . S
N1741 H1745 0.985 . S
H1742 N1737 0.984 . S
H1743 N1737 0.985 . S
H1744 N1741 0.984 . S
H1745 N1741 0.985 . S
H1746 N1740 0.984 . S
H1747 N1740 0.984 . S
H1748 N1736 0.984 . S
H1749 N1736 0.985 . S
C1750 C1751 1.363 . S
C1750 C1756 1.379 . S
C1750 N1758 1.356 . S
C1751 C1750 1.363 . S
C1751 C1757 1.363 . S
C1752 C1753 1.363 . S
C1752 C1757 1.379 . S
C1752 N1759 1.356 . S
C1753 C1752 1.363 . S
C1753 C1756 1.363 . S
N1754 C1756 1.356 . S
N1754 H1766 0.984 . S
N1754 H1767 0.985 . S
N1755 C1757 1.356 . S
N1755 H1760 0.984 . S
N1755 H1761 0.985 . S
C1756 C1750 1.379 . S
C1756 C1753 1.363 . S
C1756 N1754 1.356 . S
C1757 C1751 1.363 . S
C1757 C1752 1.379 . S
C1757 N1755 1.356 . S
N1758 C1750 1.356 . S
N1758 H1764 0.984 . S
N1758 H1765 0.984 . S
N1759 C1752 1.356 . S
N1759 H1762 0.984 . S
N1759 H1763 0.985 . S
H1760 N1755 0.984 . S
H1761 N1755 0.985 . S
H1762 N1759 0.984 . S
H1763 N1759 0.985 . S
H1764 N1758 0.984 . S
H1765 N1758 0.984 . S
H1766 N1754 0.984 . S
H1767 N1754 0.985 . S
C1768 C1769 1.363 . S
C1768 C1774 1.379 1_556 S
C1768 N1776 1.356 . S
C1769 C1768 1.363 . S
C1769 C1775 1.363 . S
C1770 C1771 1.363 . S
C1770 C1775 1.379 1_554 S
C1770 N1777 1.356 . S
C1771 C1770 1.363 . S
C1771 C1774 1.363 . S
N1772 C1774 1.356 . S
N1772 H1784 0.984 . S
N1772 H1785 0.985 . S
N1773 C1775 1.356 . S
N1773 H1778 0.984 . S
N1773 H1779 0.985 . S
C1774 C1768 1.379 1_554 S
C1774 C1771 1.363 . S
C1774 N1772 1.356 . S
C1775 C1769 1.363 . S
C1775 C1770 1.379 1_556 S
C1775 N1773 1.356 . S
N1776 C1768 1.356 . S
N1776 H1782 0.984 . S
N1776 H1783 0.984 . S
N1777 C1770 1.356 . S
N1777 H1780 0.984 . S
N1777 H1781 0.985 . S
H1778 N1773 0.984 . S
H1779 N1773 0.985 . S
H1780 N1777 0.984 . S
H1781 N1777 0.985 . S
H1782 N1776 0.984 . S
H1783 N1776 0.984 . S
H1784 N1772 0.984 . S
H1785 N1772 0.985 . S
C1786 C1787 1.363 . S
C1786 C1792 1.379 . S
C1786 N1794 1.356 . S
C1787 C1786 1.363 . S
C1787 C1793 1.363 . S
C1788 C1789 1.363 . S
C1788 C1793 1.379 . S
C1788 N1795 1.356 . S
C1789 C1788 1.363 . S
C1789 C1792 1.363 . S
N1790 C1792 1.356 . S
N1790 H1802 0.984 . S
N1790 H1803 0.985 . S
N1791 C1793 1.356 . S
N1791 H1796 0.984 . S
N1791 H1797 0.985 . S
C1792 C1786 1.379 . S
C1792 C1789 1.363 . S
C1792 N1790 1.356 . S
C1793 C1787 1.363 . S
C1793 C1788 1.379 . S
C1793 N1791 1.356 . S
N1794 C1786 1.356 . S
N1794 H1800 0.984 . S
N1794 H1801 0.984 . S
N1795 C1788 1.356 . S
N1795 H1798 0.984 . S
N1795 H1799 0.985 . S
H1796 N1791 0.984 . S
H1797 N1791 0.985 . S
H1798 N1795 0.984 . S
H1799 N1795 0.985 . S
H1800 N1794 0.984 . S
H1801 N1794 0.984 . S
H1802 N1790 0.984 . S
H1803 N1790 0.985 . S
C1804 C1805 1.363 . S
C1804 C1810 1.379 . S
C1804 N1812 1.356 . S
C1805 C1804 1.363 . S
C1805 C1811 1.363 . S
C1806 C1807 1.363 . S
C1806 C1811 1.379 . S
C1806 N1813 1.356 . S
C1807 C1806 1.363 . S
C1807 C1810 1.363 . S
N1808 C1810 1.356 . S
N1808 H1820 0.984 . S
N1808 H1821 0.985 . S
N1809 C1811 1.356 . S
N1809 H1814 0.984 . S
N1809 H1815 0.985 . S
C1810 C1804 1.379 . S
C1810 C1807 1.363 . S
C1810 N1808 1.356 . S
C1811 C1805 1.363 . S
C1811 C1806 1.379 . S
C1811 N1809 1.356 . S
N1812 C1804 1.356 . S
N1812 H1818 0.984 . S
N1812 H1819 0.984 . S
N1813 C1806 1.356 . S
N1813 H1816 0.984 . S
N1813 H1817 0.985 . S
H1814 N1809 0.984 . S
H1815 N1809 0.985 . S
H1816 N1813 0.984 . S
H1817 N1813 0.985 . S
H1818 N1812 0.984 . S
H1819 N1812 0.984 . S
H1820 N1808 0.984 . S
H1821 N1808 0.985 . S
C1822 C1823 1.363 . S
C1822 C1828 1.379 . S
C1822 N1830 1.356 . S
C1823 C1822 1.363 . S
C1823 C1829 1.363 . S
C1824 C1825 1.363 . S
C1824 C1829 1.379 . S
C1824 N1831 1.356 . S
C1825 C1824 1.363 . S
C1825 C1828 1.363 . S
N1826 C1828 1.356 . S
N1826 H1838 0.984 . S
N1826 H1839 0.985 . S
N1827 C1829 1.356 . S
N1827 H1832 0.984 . S
N1827 H1833 0.985 . S
C1828 C1822 1.379 . S
C1828 C1825 1.363 . S
C1828 N1826 1.356 . S
C1829 C1823 1.363 . S
C1829 C1824 1.379 . S
C1829 N1827 1.356 . S
N1830 C1822 1.356 . S
N1830 H1836 0.984 . S
N1830 H1837 0.984 . S
N1831 C1824 1.356 . S
N1831 H1834 0.984 . S
N1831 H1835 0.985 . S
H1832 N1827 0.984 . S
H1833 N1827 0.985 . S
H1834 N1831 0.984 . S
H1835 N1831 0.985 . S
H1836 N1830 0.984 . S
H1837 N1830 0.984 . S
H1838 N1826 0.984 . S
H1839 N1826 0.985 . S
C1840 C1841 1.363 . S
C1840 C1846 1.379 . S
C1840 N1848 1.356 . S
C1841 C1840 1.363 . S
C1841 C1847 1.363 1_545 S
C1842 C1843 1.363 . S
C1842 C1847 1.379 . S
C1842 N1849 1.356 . S
C1843 C1842 1.363 . S
C1843 C1846 1.363 1_565 S
N1844 C1846 1.356 . S
N1844 H1856 0.984 . S
N1844 H1857 0.985 . S
N1845 C1847 1.356 . S
N1845 H1850 0.984 . S
N1845 H1851 0.985 . S
C1846 C1840 1.379 . S
C1846 C1843 1.363 1_545 S
C1846 N1844 1.356 . S
C1847 C1841 1.363 1_565 S
C1847 C1842 1.379 . S
C1847 N1845 1.356 . S
N1848 C1840 1.356 . S
N1848 H1854 0.984 . S
N1848 H1855 0.984 . S
N1849 C1842 1.356 . S
N1849 H1852 0.984 . S
N1849 H1853 0.985 . S
H1850 N1845 0.984 . S
H1851 N1845 0.985 . S
H1852 N1849 0.984 . S
H1853 N1849 0.985 . S
H1854 N1848 0.984 . S
H1855 N1848 0.984 . S
H1856 N1844 0.984 . S
H1857 N1844 0.985 . S
C1858 C1859 1.363 . S
C1858 C1864 1.379 . S
C1858 N1866 1.356 . S
C1859 C1858 1.363 . S
C1859 C1865 1.363 . S
C1860 C1861 1.363 . S
C1860 C1865 1.379 . S
C1860 N1867 1.356 . S
C1861 C1860 1.363 . S
C1861 C1864 1.363 . S
N1862 C1864 1.356 . S
N1862 H1874 0.984 . S
N1862 H1875 0.985 . S
N1863 C1865 1.356 . S
N1863 H1868 0.984 . S
N1863 H1869 0.985 . S
C1864 C1858 1.379 . S
C1864 C1861 1.363 . S
C1864 N1862 1.356 . S
C1865 C1859 1.363 . S
C1865 C1860 1.379 . S
C1865 N1863 1.356 . S
N1866 C1858 1.356 . S
N1866 H1872 0.984 . S
N1866 H1873 0.984 . S
N1867 C1860 1.356 . S
N1867 H1870 0.984 . S
N1867 H1871 0.985 . S
H1868 N1863 0.984 . S
H1869 N1863 0.985 . S
H1870 N1867 0.984 . S
H1871 N1867 0.985 . S
H1872 N1866 0.984 . S
H1873 N1866 0.984 . S
H1874 N1862 0.984 . S
H1875 N1862 0.985 . S
C1876 C1877 1.363 1_565 S
C1876 C1882 1.379 1_556 S
C1876 N1884 1.356 . S
C1877 C1876 1.363 1_545 S
C1877 C1883 1.363 . S
C1878 C1879 1.363 1_545 S
C1878 C1883 1.379 1_554 S
C1878 N1885 1.356 . S
C1879 C1878 1.363 1_565 S
C1879 C1882 1.363 . S
N1880 C1882 1.356 . S
N1880 H1892 0.984 . S
N1880 H1893 0.985 . S
N1881 C1883 1.356 . S
N1881 H1886 0.984 . S
N1881 H1887 0.985 . S
C1882 C1876 1.379 1_554 S
C1882 C1879 1.363 . S
C1882 N1880 1.356 . S
C1883 C1877 1.363 . S
C1883 C1878 1.379 1_556 S
C1883 N1881 1.356 . S
N1884 C1876 1.356 . S
N1884 H1890 0.984 . S
N1884 H1891 0.984 . S
N1885 C1878 1.356 . S
N1885 H1888 0.984 . S
N1885 H1889 0.985 . S
H1886 N1881 0.984 . S
H1887 N1881 0.985 . S
H1888 N1885 0.984 . S
H1889 N1885 0.985 . S
H1890 N1884 0.984 . S
H1891 N1884 0.984 . S
H1892 N1880 0.984 . S
H1893 N1880 0.985 . S
C1894 C1895 1.363 . S
C1894 C1900 1.379 . S
C1894 N1902 1.356 . S
C1895 C1894 1.363 . S
C1895 C1901 1.363 . S
C1896 C1897 1.363 . S
C1896 C1901 1.379 . S
C1896 N1903 1.356 . S
C1897 C1896 1.363 . S
C1897 C1900 1.363 . S
N1898 C1900 1.356 . S
N1898 H1910 0.984 . S
N1898 H1911 0.985 . S
N1899 C1901 1.356 . S
N1899 H1904 0.984 . S
N1899 H1905 0.985 . S
C1900 C1894 1.379 . S
C1900 C1897 1.363 . S
C1900 N1898 1.356 . S
C1901 C1895 1.363 . S
C1901 C1896 1.379 . S
C1901 N1899 1.356 . S
N1902 C1894 1.356 . S
N1902 H1908 0.984 . S
N1902 H1909 0.984 . S
N1903 C1896 1.356 . S
N1903 H1906 0.984 . S
N1903 H1907 0.985 . S
H1904 N1899 0.984 . S
H1905 N1899 0.985 . S
H1906 N1903 0.984 . S
H1907 N1903 0.985 . S
H1908 N1902 0.984 . S
H1909 N1902 0.984 . S
H1910 N1898 0.984 . S
H1911 N1898 0.985 . S
C1912 C1913 1.363 1_565 S
C1912 C1918 1.379 . S
C1912 N1920 1.356 . S
C1913 C1912 1.363 1_545 S
C1913 C1919 1.363 . S
C1914 C1915 1.363 1_545 S
C1914 C1919 1.379 . S
C1914 N1921 1.356 . S
C1915 C1914 1.363 1_565 S
C1915 C1918 1.363 . S
N1916 C1918 1.356 . S
N1916 H1928 0.984 . S
N1916 H1929 0.985 . S
N1917 C1919 1.356 . S
N1917 H1922 0.984 . S
N1917 H1923 0.985 . S
C1918 C1912 1.379 . S
C1918 C1915 1.363 . S
C1918 N1916 1.356 . S
C1919 C1913 1.363 . S
C1919 C1914 1.379 . S
C1919 N1917 1.356 . S
N1920 C1912 1.356 . S
N1920 H1926 0.984 . S
N1920 H1927 0.984 . S
N1921 C1914 1.356 . S
N1921 H1924 0.984 . S
N1921 H1925 0.985 . S
H1922 N1917 0.984 . S
H1923 N1917 0.985 . S
H1924 N1921 0.984 . S
H1925 N1921 0.985 . S
H1926 N1920 0.984 . S
H1927 N1920 0.984 . S
H1928 N1916 0.984 . S
H1929 N1916 0.985 . S
C1930 C1931 1.363 . S
C1930 C1936 1.379 . S
C1930 N1938 1.356 . S
C1931 C1930 1.363 . S
C1931 C1937 1.363 . S
C1932 C1933 1.363 . S
C1932 C1937 1.379 . S
C1932 N1939 1.356 . S
C1933 C1932 1.363 . S
C1933 C1936 1.363 . S
N1934 C1936 1.356 . S
N1934 H1946 0.984 . S
N1934 H1947 0.985 . S
N1935 C1937 1.356 . S
N1935 H1940 0.984 . S
N1935 H1941 0.985 . S
C1936 C1930 1.379 . S
C1936 C1933 1.363 . S
C1936 N1934 1.356 . S
C1937 C1931 1.363 . S
C1937 C1932 1.379 . S
C1937 N1935 1.356 . S
N1938 C1930 1.356 . S
N1938 H1944 0.984 . S
N1938 H1945 0.984 . S
N1939 C1932 1.356 . S
N1939 H1942 0.984 . S
N1939 H1943 0.985 . S
H1940 N1935 0.984 . S
H1941 N1935 0.985 . S
H1942 N1939 0.984 . S
H1943 N1939 0.985 . S
H1944 N1938 0.984 . S
H1945 N1938 0.984 . S
H1946 N1934 0.984 . S
H1947 N1934 0.985 . S
C1948 C1949 1.363 . S
C1948 C1954 1.379 1_554 S
C1948 N1956 1.356 . S
C1949 C1948 1.363 . S
C1949 C1955 1.363 1_565 S
C1950 C1951 1.363 . S
C1950 C1955 1.379 1_556 S
C1950 N1957 1.356 . S
C1951 C1950 1.363 . S
C1951 C1954 1.363 1_545 S
N1952 C1954 1.356 . S
N1952 H1964 0.984 . S
N1952 H1965 0.985 . S
N1953 C1955 1.356 . S
N1953 H1958 0.984 . S
N1953 H1959 0.985 . S
C1954 C1948 1.379 1_556 S
C1954 C1951 1.363 1_565 S
C1954 N1952 1.356 . S
C1955 C1949 1.363 1_545 S
C1955 C1950 1.379 1_554 S
C1955 N1953 1.356 . S
N1956 C1948 1.356 . S
N1956 H1962 0.984 . S
N1956 H1963 0.984 . S
N1957 C1950 1.356 . S
N1957 H1960 0.984 . S
N1957 H1961 0.985 . S
H1958 N1953 0.984 . S
H1959 N1953 0.985 . S
H1960 N1957 0.984 . S
H1961 N1957 0.985 . S
H1962 N1956 0.984 . S
H1963 N1956 0.984 . S
H1964 N1952 0.984 . S
H1965 N1952 0.985 . S
C1966 C1967 1.363 . S
C1966 C1972 1.379 . S
C1966 N1974 1.356 . S
C1967 C1966 1.363 . S
C1967 C1973 1.363 . S
C1968 C1969 1.363 . S
C1968 C1973 1.379 . S
C1968 N1975 1.356 . S
C1969 C1968 1.363 . S
C1969 C1972 1.363 . S
N1970 C1972 1.356 . S
N1970 H1982 0.984 . S
N1970 H1983 0.985 . S
N1971 C1973 1.356 . S
N1971 H1976 0.984 . S
N1971 H1977 0.985 . S
C1972 C1966 1.379 . S
C1972 C1969 1.363 . S
C1972 N1970 1.356 . S
C1973 C1967 1.363 . S
C1973 C1968 1.379 . S
C1973 N1971 1.356 . S
N1974 C1966 1.356 . S
N1974 H1980 0.984 . S
N1974 H1981 0.984 . S
N1975 C1968 1.356 . S
N1975 H1978 0.984 . S
N1975 H1979 0.985 . S
H1976 N1971 0.984 . S
H1977 N1971 0.985 . S
H1978 N1975 0.984 . S
H1979 N1975 0.985 . S
H1980 N1974 0.984 . S
H1981 N1974 0.984 . S
H1982 N1970 0.984 . S
H1983 N1970 0.985 . S
C1409 C1017 1.516 . S
C1411 C20 1.517 . S
C1427 C1369 1.516 . S
C1429 C108 1.517 . S
C1445 C225 1.517 . S
C1447 C812 1.516 . S
C1463 C1164 1.516 . S
C1465 C321 1.517 . S
C1481 C409 1.517 . S
C1483 C1173 1.516 . S
C1499 C469 1.517 . S
C1501 C1025 1.516 . S
C1517 C548 1.517 . S
C1519 C1377 1.516 . S
C1535 C673 1.517 . S
C1537 C821 1.516 . S
C1553 C284 1.517 . S
C1555 C761 1.516 . S
C1571 C900 1.516 . S
C1573 C145 1.517 . S
C1589 C1076 1.516 . S
C1591 C489 1.517 . S
C1607 C1281 1.516 . S
C1609 C636 1.517 . S
C1625 C372 1.517 . S
C1627 C753 1.516 . S
C1643 C909 1.516 . S
C1645 C585 1.517 . S
C1661 C1289 1.516 . S
C1663 C205 1.517 . S
C1679 C57 1.517 . S
C1681 C1085 1.516 . S
C1697 C49 1.105 . S
C1699 C381 1.105 . S
C1715 C137 1.105 . S
C1717 C497 1.105 . S
C1733 C196 1.105 . S
C1735 C577 1.105 . S
C1751 C645 1.105 . S
C1753 C293 1.105 . S
C1769 C733 1.107 . S
C1771 C1105 1.107 . S
C1787 C1193 1.107 . S
C1789 C849 1.107 . S
C1805 C929 1.107 . S
C1807 C1252 1.107 . S
C1823 C1340 1.107 . S
C1825 C997 1.107 . S
C1841 C665 1.105 . S
C1843 C117 1.105 . S
C1859 C233 1.105 . S
C1861 C401 1.105 . S
C1877 C313 1.105 . S
C1879 C460 1.105 . S
C1895 C29 1.105 . S
C1897 C557 1.105 . S
C1913 C841 1.107 . S
C1915 C1349 1.107 . S
C1931 C1113 1.107 . S
C1933 C937 1.107 . S
C1949 C988 1.107 . S
C1951 C1201 1.107 . S
C1967 C1261 1.107 . S
C1969 C724 1.107 . S
