# Generated by pormake.
# Topology wiq, (6)-cn, num edge types: 1
# Building blocks:
#     Node 0, Type 0, BuildingBlock: OJICUG_clean_sbu_0, # of connection points: 6
#     Node 1, Type 0, BuildingBlock: OJICUG_clean_sbu_0, # of connection points: 6
#     Node 2, Type 0, BuildingBlock: OJICUG_clean_sbu_0, # of connection points: 6
#     Node 3, Type 0, BuildingBlock: OJICUG_clean_sbu_0, # of connection points: 6
#     Node 4, Type 0, BuildingBlock: OJICUG_clean_sbu_0, # of connection points: 6
#     Node 5, Type 0, BuildingBlock: OJICUG_clean_sbu_0, # of connection points: 6
#     Node 6, Type 0, BuildingBlock: OJICUG_clean_sbu_0, # of connection points: 6
#     Node 7, Type 0, BuildingBlock: OJICUG_clean_sbu_0, # of connection points: 6
#     Node 8, Type 0, BuildingBlock: OJICUG_clean_sbu_0, # of connection points: 6
#     Node 9, Type 0, BuildingBlock: OJICUG_clean_sbu_0, # of connection points: 6
#     Node 10, Type 0, BuildingBlock: OJICUG_clean_sbu_0, # of connection points: 6
#     Node 11, Type 0, BuildingBlock: OJICUG_clean_sbu_0, # of connection points: 6
#     Node 12, Type 0, BuildingBlock: OJICUG_clean_sbu_0, # of connection points: 6
#     Node 13, Type 0, BuildingBlock: OJICUG_clean_sbu_0, # of connection points: 6
#     Node 14, Type 0, BuildingBlock: OJICUG_clean_sbu_0, # of connection points: 6
#     Node 15, Type 0, BuildingBlock: OJICUG_clean_sbu_0, # of connection points: 6
#     Node 16, Type 0, BuildingBlock: OJICUG_clean_sbu_0, # of connection points: 6
#     Node 17, Type 0, BuildingBlock: OJICUG_clean_sbu_0, # of connection points: 6
#     Node 18, Type 0, BuildingBlock: OJICUG_clean_sbu_0, # of connection points: 6
#     Node 19, Type 0, BuildingBlock: OJICUG_clean_sbu_0, # of connection points: 6
#     Node 20, Type 0, BuildingBlock: OJICUG_clean_sbu_0, # of connection points: 6
#     Node 21, Type 0, BuildingBlock: OJICUG_clean_sbu_0, # of connection points: 6
#     Node 22, Type 0, BuildingBlock: OJICUG_clean_sbu_0, # of connection points: 6
#     Node 23, Type 0, BuildingBlock: OJICUG_clean_sbu_0, # of connection points: 6
#     Node 24, Type 0, BuildingBlock: OJICUG_clean_sbu_0, # of connection points: 6
#     Node 25, Type 0, BuildingBlock: OJICUG_clean_sbu_0, # of connection points: 6
#     Node 26, Type 0, BuildingBlock: OJICUG_clean_sbu_0, # of connection points: 6
#     Node 27, Type 0, BuildingBlock: OJICUG_clean_sbu_0, # of connection points: 6
#     Node 28, Type 0, BuildingBlock: OJICUG_clean_sbu_0, # of connection points: 6
#     Node 29, Type 0, BuildingBlock: OJICUG_clean_sbu_0, # of connection points: 6
#     Node 30, Type 0, BuildingBlock: OJICUG_clean_sbu_0, # of connection points: 6
#     Node 31, Type 0, BuildingBlock: OJICUG_clean_sbu_0, # of connection points: 6
#     Edge 32, Type (0, 0), BuildingBlock: XIVTED_clean_linker_0, # of connection points: 2
#     Edge 33, Type (0, 0), BuildingBlock: XIVTED_clean_linker_0, # of connection points: 2
#     Edge 34, Type (0, 0), BuildingBlock: XIVTED_clean_linker_0, # of connection points: 2
#     Edge 35, Type (0, 0), BuildingBlock: XIVTED_clean_linker_0, # of connection points: 2
#     Edge 36, Type (0, 0), BuildingBlock: XIVTED_clean_linker_0, # of connection points: 2
#     Edge 37, Type (0, 0), BuildingBlock: XIVTED_clean_linker_0, # of connection points: 2
#     Edge 38, Type (0, 0), BuildingBlock: XIVTED_clean_linker_0, # of connection points: 2
#     Edge 39, Type (0, 0), BuildingBlock: XIVTED_clean_linker_0, # of connection points: 2
#     Edge 40, Type (0, 0), BuildingBlock: XIVTED_clean_linker_0, # of connection points: 2
#     Edge 41, Type (0, 0), BuildingBlock: XIVTED_clean_linker_0, # of connection points: 2
#     Edge 42, Type (0, 0), BuildingBlock: XIVTED_clean_linker_0, # of connection points: 2
#     Edge 43, Type (0, 0), BuildingBlock: XIVTED_clean_linker_0, # of connection points: 2
#     Edge 44, Type (0, 0), BuildingBlock: XIVTED_clean_linker_0, # of connection points: 2
#     Edge 45, Type (0, 0), BuildingBlock: XIVTED_clean_linker_0, # of connection points: 2
#     Edge 46, Type (0, 0), BuildingBlock: XIVTED_clean_linker_0, # of connection points: 2
#     Edge 47, Type (0, 0), BuildingBlock: XIVTED_clean_linker_0, # of connection points: 2
#     Edge 48, Type (0, 0), BuildingBlock: XIVTED_clean_linker_0, # of connection points: 2
#     Edge 49, Type (0, 0), BuildingBlock: XIVTED_clean_linker_0, # of connection points: 2
#     Edge 50, Type (0, 0), BuildingBlock: XIVTED_clean_linker_0, # of connection points: 2
#     Edge 51, Type (0, 0), BuildingBlock: XIVTED_clean_linker_0, # of connection points: 2
#     Edge 52, Type (0, 0), BuildingBlock: XIVTED_clean_linker_0, # of connection points: 2
#     Edge 53, Type (0, 0), BuildingBlock: XIVTED_clean_linker_0, # of connection points: 2
#     Edge 54, Type (0, 0), BuildingBlock: XIVTED_clean_linker_0, # of connection points: 2
#     Edge 55, Type (0, 0), BuildingBlock: XIVTED_clean_linker_0, # of connection points: 2
#     Edge 56, Type (0, 0), BuildingBlock: XIVTED_clean_linker_0, # of connection points: 2
#     Edge 57, Type (0, 0), BuildingBlock: XIVTED_clean_linker_0, # of connection points: 2
#     Edge 58, Type (0, 0), BuildingBlock: XIVTED_clean_linker_0, # of connection points: 2
#     Edge 59, Type (0, 0), BuildingBlock: XIVTED_clean_linker_0, # of connection points: 2
#     Edge 60, Type (0, 0), BuildingBlock: XIVTED_clean_linker_0, # of connection points: 2
#     Edge 61, Type (0, 0), BuildingBlock: XIVTED_clean_linker_0, # of connection points: 2
#     Edge 62, Type (0, 0), BuildingBlock: XIVTED_clean_linker_0, # of connection points: 2
#     Edge 63, Type (0, 0), BuildingBlock: XIVTED_clean_linker_0, # of connection points: 2
#     Edge 64, Type (0, 0), BuildingBlock: XIVTED_clean_linker_0, # of connection points: 2
#     Edge 65, Type (0, 0), BuildingBlock: XIVTED_clean_linker_0, # of connection points: 2
#     Edge 66, Type (0, 0), BuildingBlock: XIVTED_clean_linker_0, # of connection points: 2
#     Edge 67, Type (0, 0), BuildingBlock: XIVTED_clean_linker_0, # of connection points: 2
#     Edge 68, Type (0, 0), BuildingBlock: XIVTED_clean_linker_0, # of connection points: 2
#     Edge 69, Type (0, 0), BuildingBlock: XIVTED_clean_linker_0, # of connection points: 2
#     Edge 70, Type (0, 0), BuildingBlock: XIVTED_clean_linker_0, # of connection points: 2
#     Edge 71, Type (0, 0), BuildingBlock: XIVTED_clean_linker_0, # of connection points: 2
#     Edge 72, Type (0, 0), BuildingBlock: XIVTED_clean_linker_0, # of connection points: 2
#     Edge 73, Type (0, 0), BuildingBlock: XIVTED_clean_linker_0, # of connection points: 2
#     Edge 74, Type (0, 0), BuildingBlock: XIVTED_clean_linker_0, # of connection points: 2
#     Edge 75, Type (0, 0), BuildingBlock: XIVTED_clean_linker_0, # of connection points: 2
#     Edge 76, Type (0, 0), BuildingBlock: XIVTED_clean_linker_0, # of connection points: 2
#     Edge 77, Type (0, 0), BuildingBlock: XIVTED_clean_linker_0, # of connection points: 2
#     Edge 78, Type (0, 0), BuildingBlock: XIVTED_clean_linker_0, # of connection points: 2
#     Edge 79, Type (0, 0), BuildingBlock: XIVTED_clean_linker_0, # of connection points: 2
#     Edge 80, Type (0, 0), BuildingBlock: XIVTED_clean_linker_0, # of connection points: 2
#     Edge 81, Type (0, 0), BuildingBlock: XIVTED_clean_linker_0, # of connection points: 2
#     Edge 82, Type (0, 0), BuildingBlock: XIVTED_clean_linker_0, # of connection points: 2
#     Edge 83, Type (0, 0), BuildingBlock: XIVTED_clean_linker_0, # of connection points: 2
#     Edge 84, Type (0, 0), BuildingBlock: XIVTED_clean_linker_0, # of connection points: 2
#     Edge 85, Type (0, 0), BuildingBlock: XIVTED_clean_linker_0, # of connection points: 2
#     Edge 86, Type (0, 0), BuildingBlock: XIVTED_clean_linker_0, # of connection points: 2
#     Edge 87, Type (0, 0), BuildingBlock: XIVTED_clean_linker_0, # of connection points: 2
#     Edge 88, Type (0, 0), BuildingBlock: XIVTED_clean_linker_0, # of connection points: 2
#     Edge 89, Type (0, 0), BuildingBlock: XIVTED_clean_linker_0, # of connection points: 2
#     Edge 90, Type (0, 0), BuildingBlock: XIVTED_clean_linker_0, # of connection points: 2
#     Edge 91, Type (0, 0), BuildingBlock: XIVTED_clean_linker_0, # of connection points: 2
#     Edge 92, Type (0, 0), BuildingBlock: XIVTED_clean_linker_0, # of connection points: 2
#     Edge 93, Type (0, 0), BuildingBlock: XIVTED_clean_linker_0, # of connection points: 2
#     Edge 94, Type (0, 0), BuildingBlock: XIVTED_clean_linker_0, # of connection points: 2
#     Edge 95, Type (0, 0), BuildingBlock: XIVTED_clean_linker_0, # of connection points: 2
#     Edge 96, Type (0, 0), BuildingBlock: XIVTED_clean_linker_0, # of connection points: 2
#     Edge 97, Type (0, 0), BuildingBlock: XIVTED_clean_linker_0, # of connection points: 2
#     Edge 98, Type (0, 0), BuildingBlock: XIVTED_clean_linker_0, # of connection points: 2
#     Edge 99, Type (0, 0), BuildingBlock: XIVTED_clean_linker_0, # of connection points: 2
#     Edge 100, Type (0, 0), BuildingBlock: XIVTED_clean_linker_0, # of connection points: 2
#     Edge 101, Type (0, 0), BuildingBlock: XIVTED_clean_linker_0, # of connection points: 2
#     Edge 102, Type (0, 0), BuildingBlock: XIVTED_clean_linker_0, # of connection points: 2
#     Edge 103, Type (0, 0), BuildingBlock: XIVTED_clean_linker_0, # of connection points: 2
#     Edge 104, Type (0, 0), BuildingBlock: XIVTED_clean_linker_0, # of connection points: 2
#     Edge 105, Type (0, 0), BuildingBlock: XIVTED_clean_linker_0, # of connection points: 2
#     Edge 106, Type (0, 0), BuildingBlock: XIVTED_clean_linker_0, # of connection points: 2
#     Edge 107, Type (0, 0), BuildingBlock: XIVTED_clean_linker_0, # of connection points: 2
#     Edge 108, Type (0, 0), BuildingBlock: XIVTED_clean_linker_0, # of connection points: 2
#     Edge 109, Type (0, 0), BuildingBlock: XIVTED_clean_linker_0, # of connection points: 2
#     Edge 110, Type (0, 0), BuildingBlock: XIVTED_clean_linker_0, # of connection points: 2
#     Edge 111, Type (0, 0), BuildingBlock: XIVTED_clean_linker_0, # of connection points: 2
#     Edge 112, Type (0, 0), BuildingBlock: XIVTED_clean_linker_0, # of connection points: 2
#     Edge 113, Type (0, 0), BuildingBlock: XIVTED_clean_linker_0, # of connection points: 2
#     Edge 114, Type (0, 0), BuildingBlock: XIVTED_clean_linker_0, # of connection points: 2
#     Edge 115, Type (0, 0), BuildingBlock: XIVTED_clean_linker_0, # of connection points: 2
#     Edge 116, Type (0, 0), BuildingBlock: XIVTED_clean_linker_0, # of connection points: 2
#     Edge 117, Type (0, 0), BuildingBlock: XIVTED_clean_linker_0, # of connection points: 2
#     Edge 118, Type (0, 0), BuildingBlock: XIVTED_clean_linker_0, # of connection points: 2
#     Edge 119, Type (0, 0), BuildingBlock: XIVTED_clean_linker_0, # of connection points: 2
#     Edge 120, Type (0, 0), BuildingBlock: XIVTED_clean_linker_0, # of connection points: 2
#     Edge 121, Type (0, 0), BuildingBlock: XIVTED_clean_linker_0, # of connection points: 2
#     Edge 122, Type (0, 0), BuildingBlock: XIVTED_clean_linker_0, # of connection points: 2
#     Edge 123, Type (0, 0), BuildingBlock: XIVTED_clean_linker_0, # of connection points: 2
#     Edge 124, Type (0, 0), BuildingBlock: XIVTED_clean_linker_0, # of connection points: 2
#     Edge 125, Type (0, 0), BuildingBlock: XIVTED_clean_linker_0, # of connection points: 2
#     Edge 126, Type (0, 0), BuildingBlock: XIVTED_clean_linker_0, # of connection points: 2
#     Edge 127, Type (0, 0), BuildingBlock: XIVTED_clean_linker_0, # of connection points: 2
# Relax obj value: 0.240
# Max RMSD: 0.192
# Mean RMSD: 0.192
data_MOF--net-wiq--node1-OJICUG_clean_sbu_0--edge1-XIVTED_clean_linker_0
_symmetry_space_group_name_H-M    P1
_symmetry_Int_Tables_number       1
_symmetry_cell_setting            triclinic
loop_
_symmetry_equiv_pos_as_xyz
'x, y, z'
_cell_length_a     50.669657
_cell_length_b     50.69551
_cell_length_c     56.179009
_cell_angle_alpha  90.016295
_cell_angle_beta   89.979759
_cell_angle_gamma 89.941455
loop_
_atom_site_label
_atom_site_type_symbol
_atom_site_fract_x
_atom_site_fract_y
_atom_site_fract_z
_atom_type_partial_charge
Sc0 Sc 0.12964 0.18839 0.25653 0.0
Sc1 Sc 0.14743 0.14371 0.30067 0.0
Sc2 Sc 0.09529 0.12965 0.26128 0.0
O3 O 0.12383 0.15379 0.27302 0.0
C4 C 0.06852 0.18698 0.26193 0.0
C5 C 0.13918 0.20321 0.31143 0.0
C6 C 0.09144 0.11997 0.31676 0.0
C7 C 0.18687 0.17304 0.26445 0.0
C8 C 0.11312 0.15277 0.21226 0.0
C9 C 0.14469 0.09131 0.27035 0.0
O10 O 0.09017 0.19946 0.2631 0.0
O11 O 0.13805 0.17959 0.31895 0.0
O12 O 0.08113 0.12259 0.29635 0.0
O13 O 0.16901 0.17693 0.24914 0.0
O14 O 0.10648 0.13316 0.22477 0.0
O15 O 0.15783 0.10683 0.28372 0.0
O16 O 0.11935 0.17486 0.22122 0.0
O17 O 0.18187 0.16346 0.285 0.0
O18 O 0.12158 0.09634 0.26264 0.0
O19 O 0.14029 0.2088 0.28933 0.0
O20 O 0.06703 0.16202 0.25894 0.0
O21 O 0.11569 0.12491 0.32086 0.0
Sc22 Sc 0.11338 0.84273 0.50929 0.0
Sc23 Sc 0.10022 0.89454 0.54925 0.0
Sc24 Sc 0.05783 0.88187 0.50209 0.0
O25 O 0.09037 0.87244 0.52045 0.0
C26 C 0.09555 0.86487 0.45935 0.0
C27 C 0.15299 0.89095 0.51984 0.0
C28 C 0.07233 0.93701 0.51542 0.0
C29 C 0.12187 0.83755 0.56455 0.0
C30 C 0.05468 0.81995 0.50447 0.0
C31 C 0.04042 0.88728 0.55729 0.0
O32 O 0.11215 0.85362 0.47272 0.0
O33 O 0.1374 0.90473 0.53272 0.0
O34 O 0.07254 0.92081 0.49845 0.0
O35 O 0.11808 0.82757 0.54421 0.0
O36 O 0.04369 0.8425 0.50403 0.0
O37 O 0.06359 0.88467 0.56576 0.0
O38 O 0.07967 0.81665 0.50538 0.0
O39 O 0.1187 0.86205 0.56872 0.0
O40 O 0.03596 0.89003 0.53501 0.0
O41 O 0.14766 0.8678 0.51225 0.0
O42 O 0.07434 0.87492 0.46724 0.0
O43 O 0.08041 0.93022 0.536 0.0
Sc44 Sc 0.39277 0.86046 0.75538 0.0
Sc45 Sc 0.34157 0.84542 0.79551 0.0
Sc46 Sc 0.35423 0.80481 0.7469 0.0
O47 O 0.36342 0.83679 0.76616 0.0
C48 C 0.3707 0.84387 0.70503 0.0
C49 C 0.34443 0.89936 0.76761 0.0
C50 C 0.29891 0.8186 0.76112 0.0
C51 C 0.39849 0.86725 0.81093 0.0
C52 C 0.41619 0.8022 0.74868 0.0
C53 C 0.34932 0.78521 0.80145 0.0
O54 O 0.38176 0.86025 0.71875 0.0
O55 O 0.33103 0.88331 0.78033 0.0
O56 O 0.31494 0.81902 0.74399 0.0
O57 O 0.40823 0.86437 0.79035 0.0
O58 O 0.3938 0.79092 0.74814 0.0
O59 O 0.35156 0.808 0.81084 0.0
O60 O 0.4191 0.82717 0.75032 0.0
O61 O 0.37414 0.86331 0.8153 0.0
O62 O 0.34663 0.78174 0.77904 0.0
O63 O 0.36741 0.89436 0.75941 0.0
O64 O 0.3608 0.82246 0.71251 0.0
O65 O 0.30589 0.82623 0.78179 0.0
Sc66 Sc 0.37919 0.14197 0.00948 0.0
Sc67 Sc 0.39283 0.08907 0.04813 0.0
Sc68 Sc 0.43444 0.10291 0.00061 0.0
O69 O 0.40224 0.11189 0.01966 0.0
C70 C 0.39619 0.1214 0.95882 0.0
C71 C 0.33927 0.09394 0.01992 0.0
C72 C 0.41934 0.04743 0.01257 0.0
C73 C 0.37192 0.14578 0.06503 0.0
C74 C 0.43802 0.16462 0.00438 0.0
C75 C 0.45296 0.09574 0.05519 0.0
O76 O 0.3796 0.132 0.97265 0.0
O77 O 0.35503 0.07974 0.03223 0.0
O78 O 0.41928 0.06423 0.99608 0.0
O79 O 0.37526 0.15623 0.04481 0.0
O80 O 0.44899 0.14207 0.00354 0.0
O81 O 0.43 0.09807 0.0642 0.0
O82 O 0.41302 0.1679 0.00543 0.0
O83 O 0.37518 0.1212 0.06869 0.0
O84 O 0.45687 0.09348 0.0328 0.0
O85 O 0.34473 0.11714 0.01255 0.0
O86 O 0.41755 0.11127 0.96624 0.0
O87 O 0.41181 0.05363 0.03347 0.0
Sc88 Sc 0.13988 0.81367 0.24063 0.0
Sc89 Sc 0.15026 0.85626 0.19329 0.0
Sc90 Sc 0.09868 0.86753 0.23392 0.0
O91 O 0.12885 0.84562 0.22231 0.0
C92 C 0.07825 0.80783 0.23877 0.0
C93 C 0.14472 0.79645 0.18545 0.0
C94 C 0.09258 0.87671 0.17889 0.0
C95 C 0.19376 0.82965 0.22651 0.0
C96 C 0.12157 0.85018 0.2837 0.0
C97 C 0.14558 0.90863 0.22296 0.0
O98 O 0.10118 0.79758 0.23896 0.0
O99 O 0.14095 0.8194 0.17683 0.0
O100 O 0.08287 0.87187 0.19916 0.0
O101 O 0.17787 0.83096 0.24366 0.0
O102 O 0.1099 0.86663 0.27047 0.0
O103 O 0.15972 0.89346 0.20999 0.0
O104 O 0.13234 0.82947 0.27558 0.0
O105 O 0.18653 0.8371 0.20588 0.0
O106 O 0.12261 0.90264 0.2307 0.0
O107 O 0.14856 0.79235 0.20765 0.0
O108 O 0.0741 0.83272 0.23807 0.0
O109 O 0.11713 0.87441 0.17449 0.0
Sc110 Sc 0.43034 0.88474 0.48704 0.0
Sc111 Sc 0.38768 0.89794 0.4402 0.0
Sc112 Sc 0.37524 0.84535 0.47936 0.0
O113 O 0.39788 0.87537 0.4686 0.0
C114 C 0.43434 0.82308 0.48377 0.0
C115 C 0.44748 0.89113 0.43192 0.0
C116 C 0.36658 0.84107 0.42406 0.0
C117 C 0.41485 0.93988 0.47482 0.0
C118 C 0.39303 0.8665 0.52963 0.0
C119 C 0.33503 0.89332 0.46957 0.0
O120 O 0.44524 0.84565 0.48431 0.0
O121 O 0.42431 0.8885 0.42347 0.0
O122 O 0.37076 0.8307 0.44419 0.0
O123 O 0.41467 0.92326 0.49144 0.0
O124 O 0.37631 0.8557 0.5161 0.0
O125 O 0.35048 0.90756 0.45701 0.0
O126 O 0.4142 0.87667 0.52184 0.0
O127 O 0.40723 0.93345 0.45402 0.0
O128 O 0.34061 0.87003 0.47669 0.0
O129 O 0.45195 0.89387 0.45421 0.0
O130 O 0.40934 0.81973 0.48303 0.0
O131 O 0.36934 0.86569 0.42032 0.0
Sc132 Sc 0.35565 0.17852 0.74115 0.0
Sc133 Sc 0.34069 0.13645 0.69432 0.0
Sc134 Sc 0.39427 0.12299 0.7323 0.0
O135 O 0.36415 0.1461 0.7223 0.0
C136 C 0.41734 0.18169 0.73638 0.0
C137 C 0.34769 0.19636 0.68645 0.0
C138 C 0.39692 0.11476 0.67681 0.0
C139 C 0.29989 0.16371 0.73016 0.0
C140 C 0.37475 0.14083 0.78309 0.0
C141 C 0.34564 0.08343 0.72333 0.0
O142 O 0.39486 0.19279 0.73752 0.0
O143 O 0.34975 0.17329 0.67765 0.0
O144 O 0.40782 0.11832 0.6968 0.0
O145 O 0.31699 0.16354 0.7464 0.0
O146 O 0.38509 0.12405 0.76929 0.0
O147 O 0.33132 0.09906 0.71099 0.0
O148 O 0.3645 0.16207 0.77558 0.0
O149 O 0.30568 0.15603 0.70921 0.0
O150 O 0.36909 0.08876 0.73014 0.0
O151 O 0.34578 0.20055 0.70883 0.0
O152 O 0.42048 0.15668 0.73548 0.0
O153 O 0.37229 0.1182 0.6735 0.0
Sc154 Sc 0.05766 0.10932 0.99403 0.0
Sc155 Sc 0.10109 0.09067 0.9492 0.0
Sc156 Sc 0.11626 0.14352 0.98743 0.0
O157 O 0.09177 0.11486 0.97667 0.0
C158 C 0.05886 0.17039 0.98817 0.0
C159 C 0.04149 0.09937 0.93951 0.0
C160 C 0.12515 0.14601 0.93182 0.0
C161 C 0.07128 0.05214 0.98593 0.0
C162 C 0.09437 0.12688 0.03725 0.0
C163 C 0.15416 0.09365 0.97852 0.0
O164 O 0.04633 0.14874 0.98739 0.0
O165 O 0.06492 0.10039 0.93139 0.0
O166 O 0.12238 0.15698 0.95195 0.0
O167 O 0.0694 0.07 0.00153 0.0
O168 O 0.11373 0.13317 0.02426 0.0
O169 O 0.13813 0.08009 0.96598 0.0
O170 O 0.07214 0.12024 0.02882 0.0
O171 O 0.08067 0.05686 0.96526 0.0
O172 O 0.14949 0.11708 0.98563 0.0
O173 O 0.03654 0.09833 0.96174 0.0
O174 O 0.08396 0.17184 0.99031 0.0
O175 O 0.12033 0.12162 0.92837 0.0
Sc176 Sc 0.8947 0.86725 0.73748 0.0
Sc177 Sc 0.84317 0.85229 0.69781 0.0
Sc178 Sc 0.85616 0.81156 0.74615 0.0
O179 O 0.86526 0.84358 0.72693 0.0
C180 C 0.91819 0.80906 0.74407 0.0
C181 C 0.89997 0.87356 0.68188 0.0
C182 C 0.85093 0.79225 0.6915 0.0
C183 C 0.84612 0.90601 0.72576 0.0
C184 C 0.87268 0.85076 0.78792 0.0
C185 C 0.80094 0.82478 0.73203 0.0
O186 O 0.92114 0.83402 0.74245 0.0
O187 O 0.8755 0.87016 0.67785 0.0
O188 O 0.84834 0.78855 0.7139 0.0
O189 O 0.86931 0.90114 0.73353 0.0
O190 O 0.86288 0.82926 0.7805 0.0
O191 O 0.80773 0.83279 0.71146 0.0
O192 O 0.88371 0.86712 0.77415 0.0
O193 O 0.83255 0.88993 0.71326 0.0
O194 O 0.81689 0.82584 0.74919 0.0
O195 O 0.90996 0.8708 0.70237 0.0
O196 O 0.89578 0.7978 0.74471 0.0
O197 O 0.85334 0.81512 0.68235 0.0
Sc198 Sc 0.87422 0.1427 0.48463 0.0
Sc199 Sc 0.88954 0.08997 0.44614 0.0
Sc200 Sc 0.93112 0.10582 0.49322 0.0
O201 O 0.8983 0.11329 0.47446 0.0
C202 C 0.9321 0.16759 0.48873 0.0
C203 C 0.86656 0.14581 0.42894 0.0
C204 C 0.94953 0.0983 0.43864 0.0
C205 C 0.8359 0.09334 0.47465 0.0
C206 C 0.89281 0.1238 0.53535 0.0
C207 C 0.91769 0.04944 0.482 0.0
O208 O 0.907 0.17001 0.488 0.0
O209 O 0.87117 0.12145 0.42526 0.0
O210 O 0.95366 0.09675 0.46103 0.0
O211 O 0.84074 0.11658 0.48223 0.0
O212 O 0.9143 0.11413 0.5277 0.0
O213 O 0.90931 0.05521 0.46124 0.0
O214 O 0.87558 0.13348 0.52163 0.0
O215 O 0.85194 0.07977 0.46203 0.0
O216 O 0.91819 0.06645 0.49836 0.0
O217 O 0.8691 0.15637 0.44922 0.0
O218 O 0.94387 0.14546 0.48963 0.0
O219 O 0.92644 0.09967 0.42978 0.0
Sc220 Sc 0.59819 0.12592 0.23198 0.0
Sc221 Sc 0.65162 0.13815 0.19355 0.0
Sc222 Sc 0.63779 0.18073 0.2403 0.0
O223 O 0.62855 0.1484 0.22164 0.0
C224 C 0.57618 0.18514 0.23597 0.0
C225 C 0.59495 0.11722 0.17663 0.0
C226 C 0.64527 0.19805 0.1854 0.0
C227 C 0.6461 0.08539 0.22276 0.0
C228 C 0.61842 0.14364 0.28256 0.0
C229 C 0.69301 0.16518 0.22884 0.0
O230 O 0.57265 0.16017 0.23519 0.0
O231 O 0.61963 0.12006 0.17316 0.0
O232 O 0.64769 0.20235 0.20774 0.0
O233 O 0.62278 0.09119 0.22968 0.0
O234 O 0.62894 0.16467 0.2749 0.0
O235 O 0.687 0.15753 0.20794 0.0
O236 O 0.60775 0.12698 0.26888 0.0
O237 O 0.66065 0.10075 0.21037 0.0
O238 O 0.67609 0.16468 0.24522 0.0
O239 O 0.58423 0.12138 0.19662 0.0
O240 O 0.59884 0.19585 0.23695 0.0
O241 O 0.64273 0.17495 0.17677 0.0
Sc242 Sc 0.60919 0.84457 0.97751 0.0
Sc243 Sc 0.60076 0.89795 0.9392 0.0
Sc244 Sc 0.55836 0.88859 0.98683 0.0
O245 O 0.5891 0.87639 0.96761 0.0
C246 C 0.54869 0.82795 0.98533 0.0
C247 C 0.61521 0.83909 0.92293 0.0
C248 C 0.5405 0.89496 0.93194 0.0
C249 C 0.65384 0.88751 0.96485 0.0
C250 C 0.59677 0.86819 0.02796 0.0
C251 C 0.5768 0.94168 0.97353 0.0
O252 O 0.57335 0.82282 0.98472 0.0
O253 O 0.61725 0.86396 0.91988 0.0
O254 O 0.53676 0.89899 0.95422 0.0
O255 O 0.64616 0.86431 0.97043 0.0
O256 O 0.57546 0.87889 0.02094 0.0
O257 O 0.58331 0.93482 0.95255 0.0
O258 O 0.61259 0.85672 0.01386 0.0
O259 O 0.63861 0.90505 0.95599 0.0
O260 O 0.57833 0.9252 0.99016 0.0
O261 O 0.60767 0.82919 0.94246 0.0
O262 O 0.53943 0.85123 0.98487 0.0
O263 O 0.56329 0.89063 0.92308 0.0
Sc264 Sc 0.89675 0.12787 0.7618 0.0
Sc265 Sc 0.84289 0.14257 0.79976 0.0
Sc266 Sc 0.86176 0.18664 0.75422 0.0
O267 O 0.86711 0.15235 0.77201 0.0
C268 C 0.92419 0.18388 0.75863 0.0
C269 C 0.89858 0.12015 0.81802 0.0
C270 C 0.85289 0.20364 0.80889 0.0
C271 C 0.84772 0.08923 0.77003 0.0
C272 C 0.8773 0.14862 0.71137 0.0
C273 C 0.80269 0.17067 0.76355 0.0
O274 O 0.92583 0.15903 0.76152 0.0
O275 O 0.87504 0.12781 0.82196 0.0
O276 O 0.8571 0.20887 0.78701 0.0
O277 O 0.86986 0.09527 0.76086 0.0
O278 O 0.86571 0.16901 0.71935 0.0
O279 O 0.80729 0.15744 0.78239 0.0
O280 O 0.88946 0.13259 0.72471 0.0
O281 O 0.83543 0.1038 0.78487 0.0
O282 O 0.82071 0.18069 0.75091 0.0
O283 O 0.90843 0.11944 0.79733 0.0
O284 O 0.90249 0.19582 0.75553 0.0
O285 O 0.84843 0.18037 0.81639 0.0
Sc286 Sc 0.55647 0.10227 0.49978 0.0
Sc287 Sc 0.59819 0.08803 0.54714 0.0
Sc288 Sc 0.61199 0.1409 0.50848 0.0
O289 O 0.5888 0.11097 0.51873 0.0
C290 C 0.59446 0.12078 0.45782 0.0
C291 C 0.57153 0.04665 0.51147 0.0
C292 C 0.65169 0.09259 0.51869 0.0
C293 C 0.53809 0.09488 0.55439 0.0
C294 C 0.55324 0.16398 0.50393 0.0
C295 C 0.61953 0.14453 0.56406 0.0
O296 O 0.57316 0.11068 0.46535 0.0
O297 O 0.57913 0.05275 0.53237 0.0
O298 O 0.64627 0.11576 0.51119 0.0
O299 O 0.53411 0.09278 0.532 0.0
O300 O 0.57826 0.16709 0.50487 0.0
O301 O 0.61588 0.12003 0.56777 0.0
O302 O 0.54215 0.14151 0.50295 0.0
O303 O 0.56107 0.09711 0.56333 0.0
O304 O 0.61641 0.15499 0.54381 0.0
O305 O 0.57145 0.06352 0.49503 0.0
O306 O 0.61119 0.1312 0.47158 0.0
O307 O 0.63596 0.07858 0.53119 0.0
Sc308 Sc 0.6338 0.80611 0.24568 0.0
Sc309 Sc 0.64517 0.84721 0.29403 0.0
Sc310 Sc 0.59466 0.8615 0.25316 0.0
O311 O 0.62378 0.83807 0.26456 0.0
C312 C 0.6183 0.84483 0.20326 0.0
C313 C 0.68778 0.8184 0.26151 0.0
C314 C 0.64297 0.90048 0.26544 0.0
C315 C 0.63662 0.78743 0.30076 0.0
C316 C 0.57188 0.80299 0.24625 0.0
C317 C 0.5881 0.86913 0.3084 0.0
O318 O 0.62821 0.82351 0.21101 0.0
O319 O 0.68076 0.8265 0.28197 0.0
O320 O 0.61984 0.89555 0.25751 0.0
O321 O 0.64036 0.7835 0.27849 0.0
O322 O 0.56873 0.82796 0.24789 0.0
O323 O 0.61257 0.86622 0.31279 0.0
O324 O 0.59437 0.79183 0.2459 0.0
O325 O 0.63396 0.81043 0.30966 0.0
O326 O 0.57844 0.86529 0.28793 0.0
O327 O 0.67261 0.82161 0.24406 0.0
O328 O 0.60662 0.8611 0.21671 0.0
O329 O 0.65648 0.88442 0.27808 0.0
Sc330 Sc 0.93277 0.8939 0.0041 0.0
Sc331 Sc 0.8892 0.90176 0.05114 0.0
Sc332 Sc 0.8847 0.84724 0.01386 0.0
O333 O 0.90274 0.88029 0.02333 0.0
C334 C 0.89537 0.87118 0.96326 0.0
C335 C 0.9121 0.94593 0.01713 0.0
C336 C 0.83743 0.88782 0.02489 0.0
C337 C 0.94944 0.90176 0.05912 0.0
C338 C 0.94599 0.83393 0.00539 0.0
C339 C 0.87831 0.8426 0.06814 0.0
O340 O 0.91617 0.88302 0.97006 0.0
O341 O 0.90508 0.93928 0.038 0.0
O342 O 0.84656 0.86475 0.02078 0.0
O343 O 0.9533 0.90555 0.03683 0.0
O344 O 0.92164 0.82757 0.00624 0.0
O345 O 0.87404 0.86729 0.07037 0.0
O346 O 0.95405 0.85764 0.00617 0.0
O347 O 0.92676 0.89661 0.06788 0.0
O348 O 0.88748 0.8327 0.04916 0.0
O349 O 0.91056 0.92923 0.00069 0.0
O350 O 0.88036 0.85893 0.97752 0.0
O351 O 0.85151 0.90653 0.03335 0.0
Sc352 Sc 0.63536 0.68231 0.74453 0.0
Sc353 Sc 0.64846 0.6387 0.7907 0.0
Sc354 Sc 0.59801 0.62546 0.74966 0.0
O355 O 0.62684 0.64881 0.76183 0.0
C356 C 0.57396 0.68403 0.74583 0.0
C357 C 0.64111 0.69853 0.79957 0.0
C358 C 0.59082 0.61779 0.80487 0.0
C359 C 0.69092 0.66691 0.75682 0.0
C360 C 0.61996 0.64533 0.70089 0.0
C361 C 0.64544 0.58556 0.76184 0.0
O362 O 0.59599 0.69571 0.74799 0.0
O363 O 0.63839 0.67521 0.80756 0.0
O364 O 0.5813 0.62123 0.78425 0.0
O365 O 0.67456 0.66834 0.73993 0.0
O366 O 0.61169 0.6266 0.71372 0.0
O367 O 0.65904 0.60135 0.7746 0.0
O368 O 0.62676 0.6675 0.70935 0.0
O369 O 0.68416 0.65804 0.77719 0.0
O370 O 0.62253 0.59097 0.75381 0.0
O371 O 0.64444 0.70336 0.77747 0.0
O372 O 0.57168 0.65896 0.74432 0.0
O373 O 0.61529 0.62066 0.80943 0.0
Sc374 Sc 0.61536 0.34457 0.00768 0.0
Sc375 Sc 0.60189 0.39642 0.04749 0.0
Sc376 Sc 0.56029 0.38399 -0.00019 0.0
O377 O 0.59234 0.37425 0.01863 0.0
C378 C 0.5983 0.36667 0.9575 0.0
C379 C 0.65512 0.39264 0.01877 0.0
C380 C 0.57388 0.43845 0.0136 0.0
C381 C 0.62332 0.33945 0.06299 0.0
C382 C 0.55639 0.32224 0.00209 0.0
C383 C 0.5421 0.3892 0.05475 0.0
O384 O 0.61483 0.35549 0.97102 0.0
O385 O 0.63926 0.40665 0.03121 0.0
O386 O 0.57633 0.42244 -0.00333 0.0
O387 O 0.61932 0.32935 0.04272 0.0
O388 O 0.54546 0.34483 0.00155 0.0
O389 O 0.56508 0.3863 0.0636 0.0
O390 O 0.58139 0.31887 0.00323 0.0
O391 O 0.62048 0.36402 0.06699 0.0
O392 O 0.53812 0.39236 0.03244 0.0
O393 O 0.6498 0.36943 0.01125 0.0
O394 O 0.57706 0.37675 0.96523 0.0
O395 O 0.58163 0.43195 0.03434 0.0
Sc396 Sc 0.88972 0.36346 0.26606 0.0
Sc397 Sc 0.8362 0.35075 0.30421 0.0
Sc398 Sc 0.84908 0.30976 0.25606 0.0
O399 O 0.85904 0.34112 0.27575 0.0
C400 C 0.86901 0.34805 0.21484 0.0
C401 C 0.84235 0.40424 0.2763 0.0
C402 C 0.79437 0.32509 0.26864 0.0
C403 C 0.89319 0.37018 0.32175 0.0
C404 C 0.91058 0.3041 0.26001 0.0
C405 C 0.84203 0.29056 0.31059 0.0
O406 O 0.88034 0.36381 0.22897 0.0
O407 O 0.82754 0.3887 0.28826 0.0
O408 O 0.81106 0.32682 0.25217 0.0
O409 O 0.90379 0.36649 0.30162 0.0
O410 O 0.88779 0.29379 0.25837 0.0
O411 O 0.84477 0.31332 0.31989 0.0
O412 O 0.91452 0.32892 0.26198 0.0
O413 O 0.86843 0.36787 0.32505 0.0
O414 O 0.83945 0.28702 0.28815 0.0
O415 O 0.86564 0.39842 0.26932 0.0
O416 O 0.85776 0.32715 0.22194 0.0
O417 O 0.80055 0.33203 0.28969 0.0
Sc418 Sc 0.87305 0.64577 0.51502 0.0
Sc419 Sc 0.8825 0.59162 0.55304 0.0
Sc420 Sc 0.92607 0.60377 0.50671 0.0
O421 O 0.89412 0.61442 0.52527 0.0
C422 C 0.88979 0.62472 0.46452 0.0
C423 C 0.83051 0.5997 0.5233 0.0
C424 C 0.90862 0.54944 0.5181 0.0
C425 C 0.86435 0.64912 0.57019 0.0
C426 C 0.93322 0.66501 0.51073 0.0
C427 C 0.9425 0.59537 0.56167 0.0
O428 O 0.87339 0.63594 0.47814 0.0
O429 O 0.84525 0.58413 0.53532 0.0
O430 O 0.90816 0.56632 0.50172 0.0
O431 O 0.86968 0.65984 0.55044 0.0
O432 O 0.94311 0.64195 0.51014 0.0
O433 O 0.91946 0.59892 0.57024 0.0
O434 O 0.9084 0.66951 0.5114 0.0
O435 O 0.86529 0.62425 0.57332 0.0
O436 O 0.94684 0.59279 0.53935 0.0
O437 O 0.83711 0.62314 0.51747 0.0
O438 O 0.91049 0.61355 0.47221 0.0
O439 O 0.90085 0.55563 0.53891 0.0
Sc440 Sc 0.63468 0.30603 0.73996 0.0
Sc441 Sc 0.64742 0.34697 0.69193 0.0
Sc442 Sc 0.59576 0.36134 0.73177 0.0
O443 O 0.62518 0.33794 0.7209 0.0
C444 C 0.57288 0.30269 0.7378 0.0
C445 C 0.63958 0.28719 0.68517 0.0
C446 C 0.59062 0.36877 0.67641 0.0
C447 C 0.68925 0.31921 0.72607 0.0
C448 C 0.61783 0.34457 0.78203 0.0
C449 C 0.64419 0.40047 0.72025 0.0
O450 O 0.59539 0.29156 0.7384 0.0
O451 O 0.63693 0.31009 0.67614 0.0
O452 O 0.58052 0.36515 0.69674 0.0
O453 O 0.67322 0.32192 0.74294 0.0
O454 O 0.60676 0.36106 0.76841 0.0
O455 O 0.65802 0.38441 0.70786 0.0
O456 O 0.62767 0.32318 0.77443 0.0
O457 O 0.6828 0.32661 0.70522 0.0
O458 O 0.62096 0.39545 0.72789 0.0
O459 O 0.64278 0.28341 0.7075 0.0
O460 O 0.56973 0.32769 0.73649 0.0
O461 O 0.61514 0.36559 0.67235 0.0
Sc462 Sc 0.93531 0.38805 -0.00191 0.0
Sc463 Sc 0.89448 0.40025 0.9498 0.0
Sc464 Sc 0.88031 0.34865 0.98934 0.0
O465 O 0.90349 0.37833 0.97889 0.0
C466 C 0.93908 0.32628 0.99611 0.0
C467 C 0.9544 0.39142 0.94334 0.0
C468 C 0.87363 0.34337 0.93391 0.0
C469 C 0.92208 0.44249 0.98363 0.0
C470 C 0.89623 0.37103 0.03985 0.0
C471 C 0.84075 0.39677 0.97752 0.0
O472 O 0.95003 0.34881 -0.00302 0.0
O473 O 0.93137 0.38913 0.93449 0.0
O474 O 0.87731 0.33321 0.95421 0.0
O475 O 0.91956 0.4267 0.0007 0.0
O476 O 0.88012 0.35973 0.02601 0.0
O477 O 0.85687 0.41088 0.96546 0.0
O478 O 0.9176 0.38123 0.03251 0.0
O479 O 0.91472 0.43571 0.96286 0.0
O480 O 0.84593 0.37353 0.98505 0.0
O481 O 0.95833 0.39566 0.96555 0.0
O482 O 0.91414 0.32299 0.99436 0.0
O483 O 0.87605 0.36801 0.93015 0.0
Sc484 Sc 0.86006 0.68638 0.24629 0.0
Sc485 Sc 0.84375 0.64164 0.20048 0.0
Sc486 Sc 0.89812 0.62952 0.23846 0.0
O487 O 0.86727 0.6525 0.22834 0.0
C488 C 0.92266 0.68689 0.24254 0.0
C489 C 0.85127 0.70315 0.19175 0.0
C490 C 0.90064 0.62264 0.18221 0.0
C491 C 0.80181 0.66787 0.23611 0.0
C492 C 0.87656 0.64857 0.28877 0.0
C493 C 0.85118 0.58836 0.22986 0.0
O494 O 0.90039 0.6977 0.24575 0.0
O495 O 0.84769 0.67977 0.18413 0.0
O496 O 0.91062 0.62228 0.20285 0.0
O497 O 0.81916 0.67873 0.24894 0.0
O498 O 0.88999 0.63343 0.27554 0.0
O499 O 0.83808 0.60249 0.21525 0.0
O500 O 0.86411 0.66844 0.28083 0.0
O501 O 0.80735 0.65463 0.21749 0.0
O502 O 0.87308 0.59542 0.23894 0.0
O503 O 0.85507 0.7085 0.21364 0.0
O504 O 0.92547 0.66221 0.2392 0.0
O505 O 0.87665 0.62876 0.17843 0.0
Sc506 Sc 0.55314 0.60306 0.48504 0.0
Sc507 Sc 0.59589 0.58769 0.43888 0.0
Sc508 Sc 0.60965 0.6401 0.47767 0.0
O509 O 0.5862 0.61079 0.4669 0.0
C510 C 0.55094 0.66408 0.48129 0.0
C511 C 0.53609 0.5942 0.43054 0.0
C512 C 0.61666 0.6447 0.42231 0.0
C513 C 0.56862 0.54718 0.47524 0.0
C514 C 0.59082 0.62063 0.52744 0.0
C515 C 0.64947 0.59234 0.4666 0.0
O516 O 0.53934 0.64195 0.47977 0.0
O517 O 0.55922 0.59691 0.42207 0.0
O518 O 0.61295 0.65514 0.44253 0.0
O519 O 0.56791 0.56452 0.49133 0.0
O520 O 0.60949 0.62778 0.51399 0.0
O521 O 0.63332 0.57784 0.45511 0.0
O522 O 0.56834 0.61393 0.5196 0.0
O523 O 0.57649 0.55276 0.45424 0.0
O524 O 0.6443 0.61574 0.47351 0.0
O525 O 0.53169 0.59185 0.45282 0.0
O526 O 0.57602 0.66648 0.48282 0.0
O527 O 0.61392 0.62 0.41861 0.0
Sc528 Sc 0.39589 0.36292 0.23192 0.0
Sc529 Sc 0.3433 0.34962 0.19277 0.0
Sc530 Sc 0.35703 0.30743 0.23984 0.0
O531 O 0.36599 0.33991 0.22125 0.0
C532 C 0.41882 0.30412 0.23611 0.0
C533 C 0.39994 0.37103 0.17644 0.0
C534 C 0.3502 0.28965 0.18503 0.0
C535 C 0.3476 0.40268 0.2218 0.0
C536 C 0.37508 0.34497 0.28227 0.0
C537 C 0.30151 0.32286 0.22785 0.0
O538 O 0.42204 0.32913 0.23537 0.0
O539 O 0.37545 0.36747 0.17257 0.0
O540 O 0.34791 0.28541 0.20737 0.0
O541 O 0.37075 0.39722 0.22938 0.0
O542 O 0.365 0.32379 0.27448 0.0
O543 O 0.30783 0.33056 0.20704 0.0
O544 O 0.38584 0.36173 0.26875 0.0
O545 O 0.33373 0.38712 0.20902 0.0
O546 O 0.31826 0.32239 0.24439 0.0
O547 O 0.41027 0.36772 0.19671 0.0
O548 O 0.3963 0.29313 0.2369 0.0
O549 O 0.35249 0.31272 0.17632 0.0
Sc550 Sc 0.37484 0.64271 0.97744 0.0
Sc551 Sc 0.39134 0.5879 0.94116 0.0
Sc552 Sc 0.43523 0.6106 0.98519 0.0
O553 O 0.40041 0.61371 0.96786 0.0
C554 C 0.42992 0.67235 0.97733 0.0
C555 C 0.36602 0.64165 0.92137 0.0
C556 C 0.45169 0.59928 0.93076 0.0
C557 C 0.33826 0.59172 0.97158 0.0
C558 C 0.39762 0.62725 0.02811 0.0
C559 C 0.42195 0.55078 0.97869 0.0
O560 O 0.40483 0.67302 0.97623 0.0
O561 O 0.37448 0.61826 0.91813 0.0
O562 O 0.45699 0.60386 0.95254 0.0
O563 O 0.34342 0.61458 0.97967 0.0
O564 O 0.4186 0.61679 0.02012 0.0
O565 O 0.40887 0.55405 0.9595 0.0
O566 O 0.38028 0.63728 0.0147 0.0
O567 O 0.35321 0.57922 0.95716 0.0
O568 O 0.43023 0.56975 0.99124 0.0
O569 O 0.36542 0.65244 0.94166 0.0
O570 O 0.44302 0.65135 0.98061 0.0
O571 O 0.42838 0.59464 0.92344 0.0
Sc572 Sc 0.09192 0.62644 0.73439 0.0
Sc573 Sc 0.14538 0.63553 0.6958 0.0
Sc574 Sc 0.1337 0.67953 0.74185 0.0
O575 O 0.12297 0.64747 0.72368 0.0
C576 C 0.07235 0.68633 0.73955 0.0
C577 C 0.08757 0.61707 0.67982 0.0
C578 C 0.14051 0.69529 0.68646 0.0
C579 C 0.13804 0.58414 0.72595 0.0
C580 C 0.11444 0.64273 0.78437 0.0
C581 C 0.18803 0.66245 0.72957 0.0
O582 O 0.06814 0.66151 0.7392 0.0
O583 O 0.11249 0.61707 0.67665 0.0
O584 O 0.14359 0.69993 0.70869 0.0
O585 O 0.11421 0.59043 0.73076 0.0
O586 O 0.12485 0.66379 0.77657 0.0
O587 O 0.1814 0.65468 0.70889 0.0
O588 O 0.10315 0.62623 0.77092 0.0
O589 O 0.15388 0.59899 0.71437 0.0
O590 O 0.1715 0.66207 0.74625 0.0
O591 O 0.07705 0.62403 0.69925 0.0
O592 O 0.09531 0.69642 0.73917 0.0
O593 O 0.13707 0.6721 0.67816 0.0
Sc594 Sc 0.10899 0.34789 0.49145 0.0
Sc595 Sc 0.09485 0.39987 0.45213 0.0
Sc596 Sc 0.05307 0.38638 0.49983 0.0
O597 O 0.08556 0.37756 0.48096 0.0
C598 C 0.05058 0.32453 0.49701 0.0
C599 C 0.11606 0.34302 0.43592 0.0
C600 C 0.03474 0.39208 0.44482 0.0
C601 C 0.14849 0.396 0.48017 0.0
C602 C 0.09193 0.36948 0.54195 0.0
C603 C 0.06719 0.44193 0.48662 0.0
O604 O 0.0756 0.32163 0.49582 0.0
O605 O 0.1128 0.36756 0.43206 0.0
O606 O 0.03042 0.39435 0.46719 0.0
O607 O 0.14321 0.37291 0.48791 0.0
O608 O 0.07038 0.37932 0.53453 0.0
O609 O 0.07545 0.43537 0.46604 0.0
O610 O 0.1084 0.35867 0.52811 0.0
O611 O 0.13256 0.40991 0.46778 0.0
O612 O 0.06712 0.4256 0.50351 0.0
O613 O 0.1129 0.33289 0.4563 0.0
O614 O 0.03927 0.34689 0.49779 0.0
O615 O 0.05789 0.39016 0.43615 0.0
Sc616 Sc 0.39051 0.62738 0.2541 0.0
Sc617 Sc 0.33759 0.64037 0.29293 0.0
Sc618 Sc 0.35167 0.68294 0.24626 0.0
O619 O 0.36052 0.65031 0.26468 0.0
C620 C 0.41336 0.68619 0.25009 0.0
C621 C 0.39411 0.61875 0.30948 0.0
C622 C 0.34451 0.70022 0.30118 0.0
C623 C 0.34227 0.58752 0.2638 0.0
C624 C 0.37057 0.64581 0.2037 0.0
C625 C 0.29622 0.66804 0.25793 0.0
O626 O 0.41652 0.66117 0.2506 0.0
O627 O 0.3695 0.62194 0.3131 0.0
O628 O 0.34208 0.7046 0.27887 0.0
O629 O 0.36554 0.59302 0.25659 0.0
O630 O 0.36041 0.66696 0.21158 0.0
O631 O 0.30235 0.65997 0.27867 0.0
O632 O 0.38075 0.62867 0.21721 0.0
O633 O 0.32804 0.60307 0.2763 0.0
O634 O 0.31299 0.66782 0.24139 0.0
O635 O 0.4047 0.62267 0.2894 0.0
O636 O 0.39086 0.69732 0.24961 0.0
O637 O 0.3469 0.67707 0.30973 0.0
Sc638 Sc 0.05951 0.61632 0.00348 0.0
Sc639 Sc 0.10303 0.59605 0.04909 0.0
Sc640 Sc 0.12 0.64838 0.0102 0.0
O641 O 0.09416 0.62022 0.02104 0.0
C642 C 0.09836 0.62747 0.96047 0.0
C643 C 0.07266 0.55644 0.01431 0.0
C644 C 0.15678 0.59817 0.01953 0.0
C645 C 0.04217 0.6096 0.05802 0.0
C646 C 0.06599 0.67883 0.00463 0.0
C647 C 0.12717 0.65118 0.0665 0.0
O648 O 0.0778 0.6166 0.96888 0.0
O649 O 0.08778 0.56057 0.03203 0.0
O650 O 0.15133 0.62001 0.00957 0.0
O651 O 0.03724 0.61531 0.03638 0.0
O652 O 0.09056 0.67928 0.00923 0.0
O653 O 0.1181 0.62827 0.07082 0.0
O654 O 0.05308 0.65766 0.00188 0.0
O655 O 0.06499 0.60265 0.06522 0.0
O656 O 0.12905 0.66034 0.0456 0.0
O657 O 0.06197 0.57475 0.0025 0.0
O658 O 0.11451 0.64023 0.97326 0.0
O659 O 0.14194 0.58713 0.03491 0.0
Sc660 Sc 0.14408 0.30699 0.75649 0.0
Sc661 Sc 0.15564 0.34754 0.80494 0.0
Sc662 Sc 0.10211 0.35914 0.7675 0.0
O663 O 0.13336 0.3376 0.7765 0.0
C664 C 0.12394 0.34741 0.71651 0.0
C665 C 0.19812 0.32358 0.76916 0.0
C666 C 0.14661 0.40168 0.78081 0.0
C667 C 0.15169 0.28729 0.81082 0.0
C668 C 0.08331 0.29957 0.75812 0.0
C669 C 0.09736 0.36105 0.82265 0.0
O670 O 0.13372 0.32541 0.72297 0.0
O671 O 0.19179 0.32978 0.79037 0.0
O672 O 0.12286 0.39541 0.77573 0.0
O673 O 0.15477 0.28402 0.78835 0.0
O674 O 0.07916 0.32441 0.75889 0.0
O675 O 0.12223 0.36377 0.82541 0.0
O676 O 0.10619 0.28939 0.75894 0.0
O677 O 0.14788 0.30986 0.82022 0.0
O678 O 0.08722 0.35581 0.80262 0.0
O679 O 0.18138 0.32561 0.75276 0.0
O680 O 0.11405 0.36368 0.73118 0.0
O681 O 0.16356 0.38547 0.78905 0.0
Sc682 Sc 0.42939 0.38153 0.5007 0.0
Sc683 Sc 0.38775 0.3953 0.5482 0.0
Sc684 Sc 0.37358 0.34313 0.50884 0.0
O685 O 0.39696 0.37277 0.51948 0.0
C686 C 0.39137 0.36385 0.45847 0.0
C687 C 0.41451 0.43711 0.51293 0.0
C688 C 0.33412 0.39144 0.51987 0.0
C689 C 0.44781 0.38824 0.5553 0.0
C690 C 0.43222 0.31977 0.50411 0.0
C691 C 0.3663 0.33858 0.56445 0.0
O692 O 0.41275 0.37357 0.4662 0.0
O693 O 0.40686 0.43077 0.53377 0.0
O694 O 0.33941 0.36839 0.51197 0.0
O695 O 0.45178 0.39063 0.53294 0.0
O696 O 0.40717 0.31678 0.50485 0.0
O697 O 0.3701 0.36301 0.56847 0.0
O698 O 0.44343 0.34218 0.50354 0.0
O699 O 0.42484 0.38588 0.56422 0.0
O700 O 0.36914 0.32847 0.54401 0.0
O701 O 0.41473 0.42043 0.49631 0.0
O702 O 0.37442 0.35344 0.47204 0.0
O703 O 0.34997 0.40511 0.53255 0.0
H704 H 0.16752 0.05396 0.29875 0.0
H705 H 0.16879 0.94606 0.19481 0.0
H706 H 0.14705 0.07103 0.22589 0.0
H707 H 0.14551 0.92974 0.26714 0.0
H708 H 0.17856 0.9919 0.20643 0.0
H709 H 0.17746 0.00816 0.28715 0.0
C710 C 0.16592 0.04822 0.28023 0.0
C711 C 0.15621 0.06593 0.26324 0.0
C712 C 0.17191 0.97802 0.2198 0.0
C713 C 0.16765 0.01427 0.24993 0.0
C714 C 0.16641 0.952 0.21322 0.0
C715 C 0.15601 0.93447 0.23003 0.0
C716 C 0.16745 0.98612 0.24339 0.0
C717 C 0.15315 0.94294 0.25365 0.0
C718 C 0.17145 0.0222 0.27366 0.0
C719 C 0.15423 0.05769 0.23949 0.0
N720 N 0.15869 0.96825 0.25963 0.0
N721 N 0.15971 0.03234 0.23352 0.0
H722 H 0.2966 0.91562 0.44188 0.0
H723 H 0.19089 0.91374 0.5478 0.0
H724 H 0.31532 0.89435 0.51422 0.0
H725 H 0.17284 0.89271 0.47526 0.0
H726 H 0.2364 0.9241 0.5355 0.0
H727 H 0.25084 0.92474 0.45431 0.0
C728 C 0.2912 0.91362 0.46045 0.0
C729 C 0.30939 0.90397 0.47706 0.0
C730 C 0.22222 0.91782 0.52224 0.0
C731 C 0.2578 0.91452 0.49132 0.0
C732 C 0.19637 0.91202 0.52922 0.0
C733 C 0.17846 0.90208 0.51251 0.0
C734 C 0.22977 0.91409 0.49839 0.0
C735 C 0.18635 0.90003 0.48866 0.0
C736 C 0.26522 0.9187 0.4675 0.0
C737 C 0.3016 0.90149 0.5009 0.0
N738 N 0.21151 0.90581 0.4823 0.0
N739 N 0.27629 0.90656 0.50733 0.0
H740 H 0.34701 0.06297 0.76769 0.0
H741 H 0.33873 0.91927 0.72337 0.0
H742 H 0.32069 0.04587 0.6964 0.0
H743 H 0.32585 0.93795 0.79729 0.0
H744 H 0.32911 0.96509 0.71286 0.0
H745 H 0.33658 0.01774 0.77938 0.0
C746 C 0.33855 0.0497 0.75462 0.0
C747 C 0.33489 0.05789 0.73103 0.0
C748 C 0.3277 0.95909 0.73132 0.0
C749 C 0.32348 0.00609 0.74409 0.0
C750 C 0.33324 0.93301 0.73731 0.0
C751 C 0.33314 0.92507 0.7612 0.0
C752 C 0.32291 0.97751 0.74946 0.0
C753 C 0.32603 0.94344 0.77867 0.0
C754 C 0.33249 0.02397 0.76132 0.0
C755 C 0.3238 0.04016 0.71475 0.0
N756 N 0.32179 0.96906 0.77251 0.0
N757 N 0.31905 0.0148 0.72145 0.0
H758 H 0.31765 0.09366 0.97597 0.0
H759 H 0.17503 0.09162 0.02276 0.0
H760 H 0.30195 0.07115 0.04857 0.0
H761 H 0.19158 0.07134 0.94977 0.0
H762 H 0.22092 0.08189 0.0331 0.0
H763 H 0.27189 0.08351 0.96565 0.0
C764 C 0.30458 0.08609 0.98962 0.0
C765 C 0.31333 0.08337 0.01315 0.0
C766 C 0.21441 0.07889 0.01494 0.0
C767 C 0.26097 0.07234 0.00166 0.0
C768 C 0.18829 0.08449 0.00905 0.0
C769 C 0.17975 0.08233 0.9854 0.0
C770 C 0.23225 0.07196 -0.00311 0.0
C771 C 0.19753 0.07313 0.96821 0.0
C772 C 0.27855 0.08018 0.98372 0.0
C773 C 0.29581 0.07346 0.03023 0.0
N774 N 0.22321 0.06888 0.97419 0.0
N775 N 0.27018 0.06888 0.02427 0.0
H776 H 0.84225 0.92585 0.77016 0.0
H777 H 0.84566 0.0692 0.72544 0.0
H778 H 0.82517 0.94408 0.69685 0.0
H779 H 0.82441 0.05165 0.79804 0.0
H780 H 0.83453 0.02404 0.71416 0.0
H781 H 0.83197 0.97138 0.78107 0.0
C782 C 0.83574 0.93943 0.75646 0.0
C783 C 0.83471 0.93151 0.73259 0.0
C784 C 0.83167 0.03017 0.73245 0.0
C785 C 0.82363 0.9836 0.74476 0.0
C786 C 0.83815 0.05586 0.73891 0.0
C787 C 0.83624 0.06387 0.76274 0.0
C788 C 0.82401 0.01217 0.75009 0.0
C789 C 0.82623 0.04607 0.7795 0.0
C790 C 0.82979 0.96534 0.76268 0.0
C791 C 0.82617 0.94961 0.71544 0.0
N792 N 0.82109 0.02075 0.77297 0.0
N793 N 0.82156 0.97511 0.72178 0.0
H794 H 0.79904 0.07081 0.44549 0.0
H795 H 0.6887 0.06964 0.54752 0.0
H796 H 0.81435 0.09137 0.51865 0.0
H797 H 0.67356 0.09209 0.47478 0.0
H798 H 0.73489 0.06021 0.53672 0.0
H799 H 0.7529 0.06112 0.45619 0.0
C800 C 0.79284 0.0725 0.46389 0.0
C801 C 0.8102 0.08211 0.48122 0.0
C802 C 0.72121 0.06659 0.52307 0.0
C803 C 0.7581 0.07094 0.49352 0.0
C804 C 0.69496 0.07185 0.52919 0.0
C805 C 0.67763 0.0819 0.51202 0.0
C806 C 0.72976 0.07096 0.49959 0.0
C807 C 0.68657 0.08464 0.48853 0.0
C808 C 0.76662 0.06711 0.46995 0.0
C809 C 0.80133 0.08423 0.50479 0.0
N810 N 0.7121 0.07935 0.483 0.0
N811 N 0.7758 0.07886 0.51025 0.0
H812 H 0.64511 0.06449 0.26699 0.0
H813 H 0.64642 0.92123 0.22129 0.0
H814 H 0.66919 0.04736 0.19504 0.0
H815 H 0.66397 0.93814 0.29477 0.0
H816 H 0.65696 0.96689 0.21096 0.0
H817 H 0.65412 0.0187 0.278 0.0
C818 C 0.65281 0.0511 0.25364 0.0
C819 C 0.65628 0.05947 0.23007 0.0
C820 C 0.65915 0.96051 0.22926 0.0
C821 C 0.66598 0.00707 0.24235 0.0
C822 C 0.65306 0.93454 0.23515 0.0
C823 C 0.65425 0.92616 0.25889 0.0
C824 C 0.66561 0.97841 0.24738 0.0
C825 C 0.6629 0.94398 0.27626 0.0
C826 C 0.65805 0.02504 0.25994 0.0
C827 C 0.66631 0.04153 0.2134 0.0
N828 N 0.66767 0.96954 0.27024 0.0
N829 N 0.67023 0.0159 0.21973 0.0
H830 H 0.81109 0.93492 0.01568 0.0
H831 H 0.69444 0.85527 0.95511 0.0
H832 H 0.79998 0.85051 0.01873 0.0
H833 H 0.67693 0.93193 0.98446 0.0
H834 H 0.73949 0.85905 0.9695 0.0
H835 H 0.76628 0.93918 -0.0015 0.0
C836 C 0.7992 0.91742 0.01308 0.0
C837 C 0.80949 0.89228 0.01829 0.0
C838 C 0.72592 0.87522 0.97265 0.0
C839 C 0.75915 0.89699 -0.00167 0.0
C840 C 0.70029 0.87314 0.9643 0.0
C841 C 0.68197 0.89316 0.96892 0.0
C842 C 0.7334 0.89737 0.98599 0.0
C843 C 0.69061 0.91607 0.98064 0.0
C844 C 0.77382 0.91987 0.00319 0.0
C845 C 0.79325 0.87026 0.01458 0.0
N846 N 0.71582 0.91747 0.98918 0.0
N847 N 0.76917 0.87314 0.00462 0.0
H848 H 0.66725 0.54873 0.79155 0.0
H849 H 0.66732 0.43684 0.6909 0.0
H850 H 0.64711 0.5632 0.71816 0.0
H851 H 0.64502 0.42298 0.76388 0.0
H852 H 0.67705 0.48309 0.7011 0.0
H853 H 0.6763 0.50229 0.78147 0.0
C854 C 0.6655 0.54226 0.77324 0.0
C855 C 0.6562 0.5595 0.75566 0.0
C856 C 0.67063 0.46968 0.71493 0.0
C857 C 0.66665 0.50704 0.74406 0.0
C858 C 0.66521 0.44339 0.70916 0.0
C859 C 0.65513 0.42639 0.72657 0.0
C860 C 0.66639 0.47862 0.73832 0.0
C861 C 0.65251 0.43571 0.74995 0.0
C862 C 0.67052 0.51587 0.76753 0.0
C863 C 0.654 0.55028 0.73221 0.0
N864 N 0.65795 0.46128 0.75515 0.0
N865 N 0.65902 0.5246 0.72708 0.0
H866 H 0.80344 0.41653 0.94721 0.0
H867 H 0.69103 0.41752 0.04747 0.0
H868 H 0.8184 0.39953 0.02115 0.0
H869 H 0.67825 0.39141 0.97535 0.0
H870 H 0.73717 0.42777 0.03715 0.0
H871 H 0.75667 0.42438 0.95697 0.0
C872 C 0.79699 0.41528 0.96556 0.0
C873 C 0.8145 0.40724 0.98342 0.0
C874 C 0.72401 0.42035 0.02352 0.0
C875 C 0.76165 0.41626 0.99465 0.0
C876 C 0.69779 0.41462 0.02936 0.0
C877 C 0.68112 0.40335 0.01227 0.0
C878 C 0.73321 0.41528 0.00035 0.0
C879 C 0.69072 0.39978 0.98907 0.0
C880 C 0.77041 0.41959 0.97109 0.0
C881 C 0.8053 0.40555 0.00691 0.0
N882 N 0.71619 0.4056 0.98379 0.0
N883 N 0.77942 0.40986 0.01186 0.0
H884 H 0.83863 0.42347 0.23168 0.0
H885 H 0.85215 0.5678 0.2743 0.0
H886 H 0.82512 0.44422 0.30505 0.0
H887 H 0.82659 0.55061 0.20276 0.0
H888 H 0.84035 0.52302 0.2862 0.0
H889 H 0.83174 0.46955 0.22032 0.0
C890 C 0.83354 0.43775 0.24529 0.0
C891 C 0.83245 0.4303 0.26929 0.0
C892 C 0.83683 0.52913 0.268 0.0
C893 C 0.82539 0.48295 0.25661 0.0
C894 C 0.84373 0.55459 0.26116 0.0
C895 C 0.84063 0.56266 0.23745 0.0
C896 C 0.82745 0.51136 0.25085 0.0
C897 C 0.82936 0.54501 0.22118 0.0
C898 C 0.82958 0.46398 0.23883 0.0
C899 C 0.82598 0.44934 0.28635 0.0
N900 N 0.82371 0.51989 0.22807 0.0
N901 N 0.82328 0.47503 0.27975 0.0
H902 H 0.69155 0.58602 0.43723 0.0
H903 H 0.79318 0.56862 0.54538 0.0
H904 H 0.66671 0.57748 0.51014 0.0
H905 H 0.81033 0.60918 0.4797 0.0
H906 H 0.74888 0.55803 0.52986 0.0
H907 H 0.73757 0.57992 0.44987 0.0
C908 C 0.69581 0.58193 0.45576 0.0
C909 C 0.67562 0.58207 0.47272 0.0
C910 C 0.76258 0.56891 0.51881 0.0
C911 C 0.72775 0.57558 0.48734 0.0
C912 C 0.78775 0.57489 0.52761 0.0
C913 C 0.80508 0.59017 0.51393 0.0
C914 C 0.75519 0.57782 0.49605 0.0
C915 C 0.79728 0.59778 0.49098 0.0
C916 C 0.72197 0.57868 0.46301 0.0
C917 C 0.68195 0.57732 0.49662 0.0
N918 N 0.77289 0.59163 0.4828 0.0
N919 N 0.70757 0.57446 0.50331 0.0
H920 H 0.34807 0.42435 0.26577 0.0
H921 H 0.34078 0.56662 0.21958 0.0
H922 H 0.32302 0.43937 0.19371 0.0
H923 H 0.32144 0.54947 0.29265 0.0
H924 H 0.33231 0.52052 0.20922 0.0
H925 H 0.33667 0.46973 0.27638 0.0
C926 C 0.33973 0.43719 0.25229 0.0
C927 C 0.33667 0.42839 0.22881 0.0
C928 C 0.32924 0.52694 0.2274 0.0
C929 C 0.32414 0.48028 0.24065 0.0
C930 C 0.33414 0.55316 0.23331 0.0
C931 C 0.33189 0.56159 0.25698 0.0
C932 C 0.32294 0.50892 0.24547 0.0
C933 C 0.32331 0.54358 0.2742 0.0
C934 C 0.33309 0.46298 0.25837 0.0
C935 C 0.32568 0.44557 0.21199 0.0
N936 N 0.31976 0.51782 0.26821 0.0
N937 N 0.32038 0.47101 0.2181 0.0
H938 H 0.32022 0.58812 0.01673 0.0
H939 H 0.17539 0.5923 0.97475 0.0
H940 H 0.29927 0.56988 0.94425 0.0
H941 H 0.19482 0.57605 0.04798 0.0
H942 H 0.22 0.57949 0.96306 0.0
H943 H 0.27492 0.57884 0.02904 0.0
C944 C 0.30612 0.58147 0.00352 0.0
C945 C 0.31325 0.57993 0.97945 0.0
C946 C 0.21442 0.57809 0.98162 0.0
C947 C 0.26132 0.57006 0.99323 0.0
C948 C 0.18901 0.58551 0.9883 0.0
C949 C 0.18168 0.58549 0.01237 0.0
C950 C 0.23287 0.57138 -0.00077 0.0
C951 C 0.19985 0.57639 0.02925 0.0
C952 C 0.28031 0.57615 0.01054 0.0
C953 C 0.29443 0.57127 0.96298 0.0
N954 N 0.22491 0.57029 0.02243 0.0
N955 N 0.26906 0.56728 0.97008 0.0
H956 H 0.12773 0.5673 0.77023 0.0
H957 H 0.18452 0.4218 0.75124 0.0
H958 H 0.16992 0.54516 0.70658 0.0
H959 H 0.12412 0.444 0.80139 0.0
H960 H 0.18937 0.4686 0.7399 0.0
H961 H 0.13719 0.52432 0.78727 0.0
C962 C 0.13918 0.55331 0.75988 0.0
C963 C 0.14755 0.55945 0.73677 0.0
C964 C 0.17549 0.46321 0.75373 0.0
C965 C 0.1582 0.50992 0.75611 0.0
C966 C 0.17289 0.43667 0.7603 0.0
C967 C 0.15395 0.42935 0.77727 0.0
C968 C 0.15921 0.48225 0.76449 0.0
C969 C 0.13895 0.44902 0.78826 0.0
C970 C 0.1446 0.52879 0.76964 0.0
C971 C 0.1629 0.54095 0.72438 0.0
N972 N 0.14184 0.47453 0.78163 0.0
N973 N 0.16737 0.51666 0.73407 0.0
H974 H 0.18526 0.41674 0.44992 0.0
H975 H 0.29862 0.41617 0.5491 0.0
H976 H 0.17127 0.39793 0.52367 0.0
H977 H 0.31063 0.39089 0.47661 0.0
H978 H 0.25243 0.42679 0.53928 0.0
H979 H 0.23203 0.42477 0.45939 0.0
C980 C 0.19192 0.41512 0.46818 0.0
C981 C 0.1747 0.40648 0.48605 0.0
C982 C 0.26544 0.41949 0.52546 0.0
C983 C 0.22753 0.41575 0.49695 0.0
C984 C 0.29168 0.41353 0.53102 0.0
C985 C 0.30813 0.40237 0.51367 0.0
C986 C 0.25601 0.41473 0.50233 0.0
C987 C 0.29832 0.39916 0.49051 0.0
C988 C 0.21849 0.41955 0.47354 0.0
C989 C 0.18416 0.40437 0.50942 0.0
N990 N 0.27282 0.40518 0.48552 0.0
N991 N 0.21002 0.4088 0.51421 0.0
H992 H 0.27341 0.31546 0.26842 0.0
H993 H 0.21349 0.17902 0.22282 0.0
H994 H 0.28016 0.28847 0.19585 0.0
H995 H 0.21322 0.20361 0.29629 0.0
H996 H 0.23974 0.2178 0.21267 0.0
H997 H 0.24901 0.27547 0.27832 0.0
C998 C 0.2689 0.3015 0.25438 0.0
C999 C 0.27878 0.30526 0.23129 0.0
C1000 C 0.23443 0.21446 0.23109 0.0
C1001 C 0.25192 0.25895 0.24269 0.0
C1002 C 0.21992 0.19206 0.23696 0.0
C1003 C 0.21116 0.18819 0.26041 0.0
C1004 C 0.24 0.23317 0.2488 0.0
C1005 C 0.21974 0.20576 0.27803 0.0
C1006 C 0.25546 0.27844 0.26014 0.0
C1007 C 0.27266 0.28648 0.21381 0.0
N1008 N 0.23326 0.22782 0.27178 0.0
N1009 N 0.25993 0.2639 0.21996 0.0
H1010 H 0.94888 0.02509 0.44891 0.0
H1011 H 0.0394 0.95823 0.549 0.0
H1012 H 0.92862 0.02393 0.5235 0.0
H1013 H 0.06143 0.96441 0.47502 0.0
H1014 H -0.00097 0.98294 0.5404 0.0
H1015 H 0.9887 -0.00024 0.45787 0.0
C1016 C 0.95227 0.01865 0.46704 0.0
C1017 C 0.93544 0.02668 0.4855 0.0
C1018 C 0.01291 0.97926 0.52612 0.0
C1019 C 0.98152 -0.00131 0.49604 0.0
C1020 C 0.03625 0.96564 0.53114 0.0
C1021 C 0.0538 0.95927 0.51268 0.0
C1022 C 0.00715 0.98648 0.50251 0.0
C1023 C 0.04838 0.96889 0.48975 0.0
C1024 C 0.97533 0.00468 0.47224 0.0
C1025 C 0.94114 0.01819 0.50875 0.0
N1026 N 0.02539 0.9817 0.48525 0.0
N1027 N 0.96387 0.00497 0.51341 0.0
H1028 H 0.27679 0.78664 0.79489 0.0
H1029 H 0.2095 0.69508 0.69593 0.0
H1030 H 0.27179 0.80742 0.72054 0.0
H1031 H 0.21432 0.67447 0.77032 0.0
H1032 H 0.23384 0.73562 0.7043 0.0
H1033 H 0.25178 0.7465 0.78661 0.0
C1034 C 0.2696 0.78327 0.77699 0.0
C1035 C 0.27646 0.80035 0.75835 0.0
C1036 C 0.22992 0.72204 0.71875 0.0
C1037 C 0.24882 0.75394 0.74857 0.0
C1038 C 0.2165 0.6986 0.71387 0.0
C1039 C 0.20988 0.68138 0.73248 0.0
C1040 C 0.23674 0.72822 0.74236 0.0
C1041 C 0.21901 0.68726 0.75548 0.0
C1042 C 0.25579 0.76005 0.77216 0.0
C1043 C 0.267 0.79469 0.73541 0.0
N1044 N 0.23169 0.71033 0.75982 0.0
N1045 N 0.25398 0.7718 0.7311 0.0
H1046 H 0.45309 0.02525 0.0448 0.0
H1047 H 0.54102 0.96109 0.94141 0.0
H1048 H 0.42839 0.02059 0.97144 0.0
H1049 H 0.5664 0.96829 0.01443 0.0
H1050 H 0.49991 0.98362 0.95176 0.0
H1051 H 0.49336 0.00129 0.0345 0.0
C1052 C 0.45562 0.01826 0.02672 0.0
C1053 C 0.43741 0.02497 0.00892 0.0
C1054 C 0.51465 0.98063 0.96545 0.0
C1055 C 0.48393 -0.00139 -0.00321 0.0
C1056 C 0.53838 0.96826 0.95942 0.0
C1057 C 0.55716 0.96281 0.97711 0.0
C1058 C 0.50974 0.98756 0.98928 0.0
C1059 C 0.5524 0.97211 0.00027 0.0
C1060 C 0.47891 0.00509 0.02071 0.0
C1061 C 0.442 0.01585 0.98567 0.0
N1062 N 0.52904 0.98372 0.00576 0.0
N1063 N 0.46499 0.00349 0.98019 0.0
H1064 H 0.21218 0.79543 0.19259 0.0
H1065 H 0.2745 0.70047 0.29154 0.0
H1066 H 0.22092 0.81673 0.26655 0.0
H1067 H 0.27039 0.68046 0.21697 0.0
H1068 H 0.25161 0.74181 0.28306 0.0
H1069 H 0.23411 0.75347 0.20081 0.0
C1070 C 0.21957 0.79172 0.21038 0.0
C1071 C 0.21468 0.80959 0.22895 0.0
C1072 C 0.25533 0.72818 0.26859 0.0
C1073 C 0.23875 0.76119 0.23868 0.0
C1074 C 0.26789 0.70429 0.27352 0.0
C1075 C 0.27445 0.68705 0.2549 0.0
C1076 C 0.24927 0.7348 0.24491 0.0
C1077 C 0.26578 0.69329 0.23182 0.0
C1078 C 0.2316 0.7675 0.21517 0.0
C1079 C 0.22426 0.80346 0.25174 0.0
N1080 N 0.25397 0.71683 0.22741 0.0
N1081 N 0.23551 0.77964 0.25603 0.0
H1082 H 0.42272 0.96846 0.51505 0.0
H1083 H 0.56381 0.01877 0.47075 0.0
H1084 H 0.45071 0.95921 0.44302 0.0
H1085 H 0.53641 0.02589 0.54316 0.0
H1086 H 0.52335 -0.00479 0.46055 0.0
H1087 H 0.46339 0.9917 0.52511 0.0
C1088 C 0.43706 0.97219 0.50114 0.0
C1089 C 0.43333 0.96196 0.47817 0.0
C1090 C 0.52636 0.00149 0.47877 0.0
C1091 C 0.48041 0.98747 0.48978 0.0
C1092 C 0.54967 0.01449 0.4847 0.0
C1093 C 0.55347 0.02426 0.50783 0.0
C1094 C 0.50663 -0.0016 0.49608 0.0
C1095 C 0.53442 0.01848 0.52517 0.0
C1096 C 0.46049 0.98499 0.507 0.0
C1097 C 0.45264 0.96703 0.46088 0.0
N1098 N 0.51159 0.00629 0.51885 0.0
N1099 N 0.47557 0.97909 0.46714 0.0
H1100 H 0.22452 0.31418 0.72792 0.0
H1101 H 0.2725 0.17183 0.7711 0.0
H1102 H 0.21704 0.28649 0.80022 0.0
H1103 H 0.27944 0.19931 0.69873 0.0
H1104 H 0.24974 0.21268 0.78161 0.0
H1105 H 0.24607 0.27276 0.71719 0.0
C1106 C 0.22821 0.29969 0.74171 0.0
C1107 C 0.21898 0.3038 0.76499 0.0
C1108 C 0.2558 0.20962 0.76333 0.0
C1109 C 0.24265 0.25591 0.75264 0.0
C1110 C 0.26834 0.18609 0.75723 0.0
C1111 C 0.27784 0.18218 0.73402 0.0
C1112 C 0.25289 0.22946 0.74611 0.0
C1113 C 0.27222 0.20139 0.71678 0.0
C1114 C 0.24008 0.27586 0.73548 0.0
C1115 C 0.22404 0.28429 0.78211 0.0
N1116 N 0.26049 0.22443 0.72327 0.0
N1117 N 0.2352 0.26101 0.7755 0.0
H1118 H 0.94504 0.96676 0.05113 0.0
H1119 H 0.0431 0.02489 0.95258 0.0
H1120 H 0.92764 0.96933 0.97595 0.0
H1121 H 0.05842 0.02878 0.02805 0.0
H1122 H 0.00298 -0.00013 0.96075 0.0
H1123 H 0.98711 0.98861 0.04329 0.0
C1124 C 0.94965 0.97266 0.03307 0.0
C1125 C 0.9328 0.96615 0.01414 0.0
C1126 C 0.01535 0.00579 0.97552 0.0
C1127 C 0.98133 0.99025 0.00496 0.0
C1128 C 0.0386 0.0196 0.97081 0.0
C1129 C 0.05401 0.02911 0.98968 0.0
C1130 C 0.00758 0.00146 -0.00077 0.0
C1131 C 0.04695 0.02196 0.01299 0.0
C1132 C 0.97393 0.98469 0.02855 0.0
C1133 C 0.94008 0.97393 0.99106 0.0
N1134 N 0.02402 0.00893 0.01715 0.0
N1135 N 0.96391 0.98528 0.98709 0.0
H1136 H 0.71461 0.69563 0.792 0.0
H1137 H 0.77959 0.79371 0.69714 0.0
H1138 H 0.71781 0.67996 0.71655 0.0
H1139 H 0.77557 0.80965 0.77255 0.0
H1140 H 0.75615 0.75232 0.70374 0.0
H1141 H 0.73993 0.73595 0.78557 0.0
C1142 C 0.7215 0.70012 0.7742 0.0
C1143 C 0.71393 0.68452 0.75474 0.0
C1144 C 0.76008 0.76504 0.71881 0.0
C1145 C 0.74193 0.73115 0.74713 0.0
C1146 C 0.773 0.78897 0.71498 0.0
C1147 C 0.77961 0.80516 0.73435 0.0
C1148 C 0.75372 0.7573 0.74215 0.0
C1149 C 0.77094 0.7977 0.75712 0.0
C1150 C 0.73549 0.72346 0.77046 0.0
C1151 C 0.7231 0.69156 0.73202 0.0
N1152 N 0.75872 0.77418 0.76044 0.0
N1153 N 0.73626 0.71458 0.72878 0.0
H1154 H 0.71355 0.20007 0.1967 0.0
H1155 H 0.77485 0.28924 0.30054 0.0
H1156 H 0.71964 0.17501 0.26987 0.0
H1157 H 0.7685 0.31437 0.22739 0.0
H1158 H 0.75316 0.24783 0.28996 0.0
H1159 H 0.73605 0.2411 0.20713 0.0
C1160 C 0.72056 0.20272 0.21476 0.0
C1161 C 0.71471 0.18412 0.23247 0.0
C1162 C 0.75613 0.26258 0.27629 0.0
C1163 C 0.73937 0.23147 0.24475 0.0
C1164 C 0.76801 0.28649 0.28244 0.0
C1165 C 0.77348 0.30529 0.2648 0.0
C1166 C 0.74971 0.25751 0.25236 0.0
C1167 C 0.76465 0.30037 0.24152 0.0
C1168 C 0.73289 0.22642 0.22084 0.0
C1169 C 0.72377 0.18889 0.2557 0.0
N1170 N 0.75351 0.27683 0.23591 0.0
N1171 N 0.73531 0.21224 0.26125 0.0
H1172 H 0.76865 0.19233 0.7953 0.0
H1173 H 0.70729 0.28344 0.69311 0.0
H1174 H 0.77863 0.17586 0.72057 0.0
H1175 H 0.71408 0.30562 0.76703 0.0
H1176 H 0.72865 0.24128 0.70236 0.0
H1177 H 0.73944 0.22899 0.7851 0.0
C1178 C 0.76358 0.19555 0.77678 0.0
C1179 C 0.77626 0.18132 0.75872 0.0
C1180 C 0.7257 0.25553 0.71648 0.0
C1181 C 0.74405 0.22388 0.74687 0.0
C1182 C 0.71404 0.27983 0.71111 0.0
C1183 C 0.70904 0.29814 0.72932 0.0
C1184 C 0.73223 0.24956 0.74019 0.0
C1185 C 0.71762 0.29208 0.75245 0.0
C1186 C 0.74748 0.21694 0.77092 0.0
C1187 C 0.76931 0.18659 0.73499 0.0
N1188 N 0.72853 0.26824 0.75726 0.0
N1189 N 0.75415 0.20788 0.72968 0.0
H1190 H 0.76705 0.68477 0.20263 0.0
H1191 H 0.70529 0.78534 0.29696 0.0
H1192 H 0.77698 0.67619 0.27843 0.0
H1193 H 0.71076 0.79935 0.2213 0.0
H1194 H 0.72594 0.74214 0.29108 0.0
H1195 H 0.73654 0.72122 0.20971 0.0
C1196 C 0.76176 0.68965 0.2208 0.0
C1197 C 0.7749 0.67785 0.23998 0.0
C1198 C 0.72277 0.7548 0.27582 0.0
C1199 C 0.7411 0.72019 0.2482 0.0
C1200 C 0.71147 0.77968 0.27922 0.0
C1201 C 0.70642 0.79608 0.25959 0.0
C1202 C 0.72893 0.74628 0.25267 0.0
C1203 C 0.71433 0.78738 0.23694 0.0
C1204 C 0.74485 0.71093 0.22484 0.0
C1205 C 0.76745 0.68511 0.26317 0.0
N1206 N 0.725 0.76304 0.23409 0.0
N1207 N 0.75156 0.70633 0.26666 0.0
H1208 H 0.53958 0.45761 0.0474 0.0
H1209 H 0.44392 0.51642 0.94723 0.0
H1210 H 0.55873 0.46252 0.97266 0.0
H1211 H 0.43115 0.52912 0.02224 0.0
H1212 H 0.48151 0.48813 0.9568 0.0
H1213 H 0.49736 0.47944 0.03921 0.0
C1214 C 0.5353 0.46401 0.02941 0.0
C1215 C 0.55278 0.45833 0.01068 0.0
C1216 C 0.47011 0.49661 0.97121 0.0
C1217 C 0.5041 0.48212 0.00107 0.0
C1218 C 0.44822 0.51223 0.96574 0.0
C1219 C 0.4346 0.5253 0.98397 0.0
C1220 C 0.47822 0.49402 0.99504 0.0
C1221 C 0.44132 0.51948 0.00767 0.0
C1222 C 0.51098 0.47598 0.02467 0.0
C1223 C 0.54587 0.46654 0.98763 0.0
N1224 N 0.46302 0.50469 0.01255 0.0
N1225 N 0.52199 0.47774 0.98345 0.0
H1226 H 0.03547 0.46407 0.45267 0.0
H1227 H 0.94117 0.52763 0.55166 0.0
H1228 H 0.05538 0.46875 0.52723 0.0
H1229 H 0.92176 0.52441 0.47692 0.0
H1230 H 0.98238 0.5044 0.54326 0.0
H1231 H 0.99475 0.48831 0.4608 0.0
C1232 C 0.03179 0.47107 0.4706 0.0
C1233 C 0.04879 0.4643 0.48933 0.0
C1234 C 0.96893 0.50843 0.52873 0.0
C1235 C 0.00173 0.491 0.49893 0.0
C1236 C 0.94511 0.52121 0.53361 0.0
C1237 C 0.92801 0.52799 0.51494 0.0
C1238 C 0.97563 0.50239 0.50505 0.0
C1239 C 0.93444 0.51959 0.49182 0.0
C1240 C 0.00824 0.48442 0.47533 0.0
C1241 C 0.04273 0.47349 0.51229 0.0
N1242 N 0.95787 0.50752 0.48748 0.0
N1243 N 0.01952 0.48602 0.51651 0.0
H1244 H 0.06614 0.53178 0.97186 0.0
H1245 H 0.93539 0.4682 0.02426 0.0
H1246 H 0.0503 0.52403 0.04687 0.0
H1247 H 0.95744 0.46052 0.95037 0.0
H1248 H 0.97733 0.48995 0.03223 0.0
H1249 H 0.02865 0.50303 0.96329 0.0
C1250 C 0.05553 0.5229 0.98656 0.0
C1251 C 0.06119 0.5303 0.0101 0.0
C1252 C 0.97296 0.48371 0.01423 0.0
C1253 C 0.01752 0.49872 0.00044 0.0
C1254 C 0.9488 0.47174 0.00957 0.0
C1255 C 0.94285 0.46261 0.98661 0.0
C1256 C 0.99137 0.48671 0.99577 0.0
C1257 C 0.96104 0.46754 0.96828 0.0
C1258 C 0.03379 0.50696 0.98165 0.0
C1259 C 0.04666 0.51866 0.0285 0.0
N1260 N 0.98461 0.47911 0.9733 0.0
N1261 N 0.025 0.50398 0.02326 0.0
H1262 H 0.56118 0.52018 0.51648 0.0
H1263 H 0.42161 0.46554 0.47247 0.0
H1264 H 0.53414 0.52493 0.44383 0.0
H1265 H 0.44958 0.45794 0.54464 0.0
H1266 H 0.46166 0.48977 0.46227 0.0
H1267 H 0.52118 0.49597 0.52695 0.0
C1268 C 0.54723 0.51526 0.50255 0.0
C1269 C 0.551 0.52452 0.47925 0.0
C1270 C 0.45888 0.48321 0.48044 0.0
C1271 C 0.50465 0.4979 0.49129 0.0
C1272 C 0.43579 0.46984 0.48638 0.0
C1273 C 0.43226 0.45977 0.50943 0.0
C1274 C 0.47867 0.48643 0.49767 0.0
C1275 C 0.45136 0.4656 0.52672 0.0
C1276 C 0.52418 0.50188 0.50863 0.0
C1277 C 0.53218 0.51791 0.46195 0.0
N1278 N 0.47397 0.47821 0.52039 0.0
N1279 N 0.50959 0.50536 0.46841 0.0
H1280 H 0.14571 0.19955 0.35958 0.0
H1281 H 0.11353 0.35121 0.38717 0.0
H1282 H 0.13189 0.25647 0.30377 0.0
H1283 H 0.1349 0.29298 0.43986 0.0
H1284 H 0.12175 0.31822 0.35584 0.0
H1285 H 0.14307 0.23476 0.38881 0.0
C1286 C 0.14218 0.21949 0.35342 0.0
C1287 C 0.1389 0.22495 0.32913 0.0
C1288 C 0.1248 0.31284 0.37429 0.0
C1289 C 0.13571 0.26569 0.36276 0.0
C1290 C 0.12019 0.33167 0.39215 0.0
C1291 C 0.12324 0.32483 0.41623 0.0
C1292 C 0.13251 0.28711 0.38064 0.0
C1293 C 0.1319 0.29918 0.42162 0.0
C1294 C 0.14073 0.23969 0.37018 0.0
C1295 C 0.13455 0.25132 0.32231 0.0
N1296 N 0.13605 0.28134 0.40405 0.0
N1297 N 0.13289 0.2707 0.33906 0.0
H1298 H 0.98711 0.88248 0.54793 0.0
H1299 H 0.94898 0.89478 0.68573 0.0
H1300 H 0.04255 0.89329 0.60547 0.0
H1301 H 0.89316 0.86727 0.63326 0.0
H1302 H 0.98156 0.90071 0.65461 0.0
H1303 H 0.95094 0.88226 0.57715 0.0
C1304 C 0.99169 0.88493 0.56663 0.0
C1305 C 0.01798 0.88776 0.57425 0.0
C1306 C 0.96219 0.89346 0.64977 0.0
C1307 C 0.97678 0.88774 0.60758 0.0
C1308 C 0.94347 0.89009 0.66758 0.0
C1309 C 0.91833 0.88015 0.66219 0.0
C1310 C 0.95598 0.88678 0.6262 0.0
C1311 C 0.91233 0.87489 0.63822 0.0
C1312 C 0.97105 0.88476 0.58326 0.0
C1313 C 0.02271 0.89083 0.5987 0.0
N1314 N 0.93115 0.87803 0.62107 0.0
N1315 N 0.00238 0.89075 0.61438 0.0
H1316 H 0.36023 0.73351 0.79006 0.0
H1317 H 0.33243 0.68328 0.92246 0.0
H1318 H 0.33812 0.7836 0.84895 0.0
H1319 H 0.38154 0.63879 0.87414 0.0
H1320 H 0.32565 0.71629 0.89173 0.0
H1321 H 0.36077 0.69548 0.81726 0.0
C1322 C 0.35535 0.73649 0.80864 0.0
C1323 C 0.34926 0.76183 0.81728 0.0
C1324 C 0.33775 0.69922 0.8877 0.0
C1325 C 0.34947 0.71848 0.84822 0.0
C1326 C 0.34156 0.68026 0.90522 0.0
C1327 C 0.35794 0.65839 0.90101 0.0
C1328 C 0.35038 0.69651 0.86565 0.0
C1329 C 0.36884 0.65538 0.87816 0.0
C1330 C 0.35572 0.71482 0.8241 0.0
C1331 C 0.34316 0.76454 0.84151 0.0
N1332 N 0.36512 0.67446 0.86134 0.0
N1333 N 0.34335 0.74317 0.85605 0.0
H1334 H 0.54863 0.09118 0.18102 0.0
H1335 H 0.50553 0.10354 0.04453 0.0
H1336 H 0.60046 0.12433 0.12792 0.0
H1337 H 0.45283 0.0875 0.10317 0.0
H1338 H 0.54259 0.10516 0.07274 0.0
H1339 H 0.51598 0.08267 0.15046 0.0
C1340 C 0.55323 0.09655 0.16282 0.0
C1341 C 0.57719 0.10888 0.15709 0.0
C1342 C 0.52291 0.10116 0.07931 0.0
C1343 C 0.53946 0.09934 0.12178 0.0
C1344 C 0.50176 0.10016 0.06326 0.0
C1345 C 0.47596 0.09554 0.07151 0.0
C1346 C 0.5182 0.09718 0.10368 0.0
C1347 C 0.47226 0.09136 0.09596 0.0
C1348 C 0.53449 0.0917 0.14534 0.0
C1349 C 0.58219 0.11489 0.1331 0.0
N1350 N 0.49308 0.0923 0.11109 0.0
N1351 N 0.56329 0.11034 0.11628 0.0
H1352 H 0.1154 0.64709 0.11451 0.0
H1353 H 0.1527 0.79723 0.13745 0.0
H1354 H 0.15516 0.69682 0.06343 0.0
H1355 H 0.13751 0.74388 0.19575 0.0
H1356 H 0.15185 0.76006 0.11008 0.0
H1357 H 0.12239 0.68126 0.14498 0.0
C1358 C 0.12592 0.66492 0.10978 0.0
C1359 C 0.13435 0.6692 0.08626 0.0
C1360 C 0.14886 0.75637 0.12887 0.0
C1361 C 0.14206 0.7083 0.1208 0.0
C1362 C 0.14921 0.77766 0.14452 0.0
C1363 C 0.14509 0.7737 0.16893 0.0
C1364 C 0.14397 0.73085 0.13754 0.0
C1365 C 0.14084 0.7478 0.17704 0.0
C1366 C 0.12982 0.68442 0.12714 0.0
C1367 C 0.14787 0.69273 0.08117 0.0
N1368 N 0.14013 0.72734 0.16134 0.0
N1369 N 0.15101 0.71141 0.09817 0.0
H1370 H 0.50069 0.8858 0.44144 0.0
H1371 H 0.5387 0.88917 0.30319 0.0
H1372 H 0.44551 0.89637 0.38364 0.0
H1373 H 0.59477 0.86641 0.3573 0.0
H1374 H 0.50611 0.89749 0.33384 0.0
H1375 H 0.5368 0.88361 0.41227 0.0
C1376 C 0.49616 0.88785 0.42269 0.0
C1377 C 0.46995 0.8911 0.415 0.0
C1378 C 0.52553 0.89076 0.33915 0.0
C1379 C 0.5111 0.88874 0.38169 0.0
C1380 C 0.54425 0.886 0.32159 0.0
C1381 C 0.56949 0.87673 0.32761 0.0
C1382 C 0.53183 0.88615 0.36311 0.0
C1383 C 0.57552 0.87344 0.35185 0.0
C1384 C 0.51678 0.88654 0.40608 0.0
C1385 C 0.46529 0.89361 0.39048 0.0
N1386 N 0.5567 0.87792 0.36876 0.0
N1387 N 0.48559 0.89234 0.3748 0.0
H1388 H 0.34182 0.29129 0.56006 0.0
H1389 H 0.35479 0.24909 0.69673 0.0
H1390 H 0.37365 0.344 0.61313 0.0
H1391 H 0.3399 0.19569 0.63837 0.0
H1392 H 0.35601 0.2859 0.66829 0.0
H1393 H 0.33436 0.25842 0.59061 0.0
C1394 C 0.34715 0.29605 0.57823 0.0
C1395 C 0.35877 0.32037 0.58394 0.0
C1396 C 0.35237 0.26612 0.66182 0.0
C1397 C 0.35037 0.28236 0.61928 0.0
C1398 C 0.3516 0.2451 0.67801 0.0
C1399 C 0.34738 0.21918 0.66992 0.0
C1400 C 0.34858 0.26116 0.63747 0.0
C1401 C 0.34343 0.21522 0.64547 0.0
C1402 C 0.34289 0.27716 0.59572 0.0
C1403 C 0.36474 0.32547 0.60793 0.0
N1404 N 0.34414 0.23593 0.6302 0.0
N1405 N 0.36072 0.30647 0.62476 0.0
H1406 H 0.8935 0.13097 0.86621 0.0
H1407 H 0.04295 0.08976 0.89165 0.0
H1408 H 0.94472 0.09293 0.81519 0.0
H1409 H 0.98904 0.10951 0.94847 0.0
H1410 H 0.00647 0.09172 0.86354 0.0
H1411 H 0.92713 0.12343 0.89712 0.0
C1412 C 0.91156 0.12073 0.86157 0.0
C1413 C 0.91638 0.11289 0.83797 0.0
C1414 C 0.0025 0.09548 0.88217 0.0
C1415 C 0.95489 0.10453 0.87302 0.0
C1416 C 0.02341 0.09446 0.89825 0.0
C1417 C 0.01913 0.09953 0.92248 0.0
C1418 C 0.97703 0.10195 0.89022 0.0
C1419 C 0.99326 0.10539 0.92995 0.0
C1420 C 0.93077 0.11653 0.87917 0.0
C1421 C 0.9402 0.09974 0.833 0.0
N1422 N 0.9732 0.10666 0.91385 0.0
N1423 N 0.95854 0.09623 0.85025 0.0
H1424 H 0.84031 0.6965 0.56615 0.0
H1425 H 0.85645 0.73939 0.70237 0.0
H1426 H 0.87186 0.6431 0.61878 0.0
H1427 H 0.84386 0.79257 0.64342 0.0
H1428 H 0.85611 0.70213 0.67429 0.0
H1429 H 0.83412 0.72961 0.59679 0.0
C1430 C 0.84577 0.69165 0.58428 0.0
C1431 C 0.85698 0.66711 0.58985 0.0
C1432 C 0.85335 0.72199 0.66763 0.0
C1433 C 0.85022 0.70535 0.62523 0.0
C1434 C 0.85351 0.74325 0.6836 0.0
C1435 C 0.85035 0.76922 0.67524 0.0
C1436 C 0.84964 0.72679 0.64324 0.0
C1437 C 0.84661 0.77301 0.65074 0.0
C1438 C 0.84229 0.71065 0.6018 0.0
C1439 C 0.86322 0.66183 0.61374 0.0
N1440 N 0.84635 0.7521 0.63571 0.0
N1441 N 0.86005 0.68098 0.63061 0.0
H1442 H 0.00201 0.10711 0.44892 0.0
H1443 H 0.04519 0.09345 0.31248 0.0
H1444 H 0.94926 0.08971 0.39066 0.0
H1445 H 0.09655 0.12774 0.36538 0.0
H1446 H 0.01246 0.08517 0.34307 0.0
H1447 H 0.0389 0.10889 0.42056 0.0
C1448 C -0.00181 0.10349 0.43024 0.0
C1449 C 0.97241 0.0984 0.42216 0.0
C1450 C 0.0309 0.09439 0.34813 0.0
C1451 C 0.01451 0.10022 0.38978 0.0
C1452 C 0.0497 0.0991 0.33063 0.0
C1453 C 0.07357 0.11167 0.33628 0.0
C1454 C 0.03573 0.10237 0.37163 0.0
C1455 C 0.07838 0.11808 0.36023 0.0
C1456 C 0.01925 0.10457 0.4141 0.0
C1457 C 0.96867 0.09392 0.39775 0.0
N1458 N 0.05946 0.11361 0.37705 0.0
N1459 N 0.98942 0.09494 0.38252 0.0
H1460 H 0.64603 0.29132 0.05795 0.0
H1461 H 0.63909 0.25098 0.19547 0.0
H1462 H 0.61872 0.34554 0.11189 0.0
H1463 H 0.65167 0.19686 0.13718 0.0
H1464 H 0.6371 0.2875 0.16677 0.0
H1465 H 0.65448 0.25864 0.08846 0.0
C1466 C 0.64189 0.29644 0.07631 0.0
C1467 C 0.63127 0.32116 0.0823 0.0
C1468 C 0.64042 0.26763 0.16037 0.0
C1469 C 0.64082 0.28337 0.11762 0.0
C1470 C 0.64164 0.24677 0.17671 0.0
C1471 C 0.6454 0.22073 0.16873 0.0
C1472 C 0.64327 0.26238 0.13595 0.0
C1473 C 0.64851 0.2165 0.14421 0.0
C1474 C 0.64672 0.27767 0.09378 0.0
C1475 C 0.62682 0.3267 0.10648 0.0
N1476 N 0.64735 0.23704 0.12879 0.0
N1477 N 0.63136 0.30781 0.1233 0.0
H1478 H 0.44618 0.89069 0.80532 0.0
H1479 H 0.48772 0.88871 0.94271 0.0
H1480 H 0.3931 0.86306 0.86002 0.0
H1481 H 0.54097 0.90079 0.88372 0.0
H1482 H 0.45092 0.88507 0.91433 0.0
H1483 H 0.47873 0.90078 0.83546 0.0
C1484 C 0.44129 0.88676 0.82375 0.0
C1485 C 0.41691 0.87559 0.83005 0.0
C1486 C 0.47066 0.88869 0.90771 0.0
C1487 C 0.45461 0.88715 0.86501 0.0
C1488 C 0.49165 0.8909 0.92386 0.0
C1489 C 0.51754 0.89491 0.91558 0.0
C1490 C 0.47563 0.89083 0.88318 0.0
C1491 C 0.52146 0.89746 0.89097 0.0
C1492 C 0.46 0.89257 0.84103 0.0
C1493 C 0.41168 0.87151 0.85435 0.0
N1494 N 0.50081 0.89534 0.87574 0.0
N1495 N 0.43052 0.87706 0.871 0.0
H1496 H 0.87766 0.35153 0.88532 0.0
H1497 H 0.84069 0.2012 0.85625 0.0
H1498 H 0.85463 0.29338 0.93746 0.0
H1499 H 0.86618 0.25593 0.80201 0.0
H1500 H 0.84284 0.2364 0.88547 0.0
H1501 H 0.87044 0.31861 0.85379 0.0
C1502 C 0.87081 0.33201 0.89012 0.0
C1503 C 0.86697 0.32518 0.91411 0.0
C1504 C 0.84792 0.24084 0.86718 0.0
C1505 C 0.85881 0.28752 0.87827 0.0
C1506 C 0.84672 0.22064 0.85041 0.0
C1507 C 0.85341 0.22545 0.82656 0.0
C1508 C 0.85597 0.26621 0.86025 0.0
C1509 C 0.8609 0.25124 0.82019 0.0
C1510 C 0.86682 0.31321 0.87215 0.0
C1511 C 0.85817 0.29954 0.91929 0.0
N1512 N 0.86211 0.27063 0.83696 0.0
N1513 N 0.85452 0.28174 0.90159 0.0
H1514 H 0.4855 0.10309 0.54405 0.0
H1515 H 0.44285 0.08779 0.68043 0.0
H1516 H 0.53842 0.08581 0.60223 0.0
H1517 H 0.39122 0.12315 0.62832 0.0
H1518 H 0.47527 0.07967 0.64953 0.0
H1519 H 0.44855 0.10427 0.57243 0.0
C1520 C 0.48934 0.09935 0.56271 0.0
C1521 C 0.51517 0.09451 0.57079 0.0
C1522 C 0.45684 0.0891 0.6447 0.0
C1523 C 0.47306 0.09563 0.60314 0.0
C1524 C 0.43823 0.09372 0.66237 0.0
C1525 C 0.41441 0.10656 0.65703 0.0
C1526 C 0.45188 0.09748 0.62134 0.0
C1527 C 0.40938 0.11329 0.6332 0.0
C1528 C 0.46826 0.1001 0.57886 0.0
C1529 C 0.51896 0.08987 0.59515 0.0
N1530 N 0.42816 0.10895 0.6162 0.0
N1531 N 0.4982 0.09056 0.61038 0.0
H1532 H 0.63075 0.73458 0.28996 0.0
H1533 H 0.64092 0.69199 0.42671 0.0
H1534 H 0.6413 0.78795 0.34911 0.0
H1535 H 0.60964 0.63913 0.37352 0.0
H1536 H 0.64826 0.72494 0.39623 0.0
H1537 H 0.62891 0.69754 0.31823 0.0
C1538 C 0.6328 0.73852 0.30882 0.0
C1539 C 0.63604 0.76449 0.31716 0.0
C1540 C 0.63987 0.70615 0.39107 0.0
C1541 C 0.63422 0.72228 0.34939 0.0
C1542 C 0.63569 0.68722 0.40851 0.0
C1543 C 0.62425 0.66283 0.40276 0.0
C1544 C 0.6325 0.70096 0.36748 0.0
C1545 C 0.61841 0.65771 0.37874 0.0
C1546 C 0.63169 0.71738 0.32489 0.0
C1547 C 0.63856 0.76839 0.34178 0.0
N1548 N 0.62235 0.67677 0.36193 0.0
N1549 N 0.63763 0.74759 0.35691 0.0
H1550 H 0.04419 0.8984 0.18546 0.0
H1551 H 0.00236 0.89849 0.04825 0.0
H1552 H 0.09808 0.87493 0.12977 0.0
H1553 H 0.94868 0.90695 0.10747 0.0
H1554 H 0.03932 0.89618 0.07646 0.0
H1555 H 0.01113 0.90847 0.15571 0.0
C1556 C 0.04915 0.89541 0.16689 0.0
C1557 C 0.07388 0.88536 0.16015 0.0
C1558 C 0.01945 0.89874 0.08319 0.0
C1559 C 0.03566 0.89686 0.12571 0.0
C1560 C -0.00165 0.90017 0.06713 0.0
C1561 C 0.97232 0.90273 0.07552 0.0
C1562 C 0.01443 0.90015 0.10774 0.0
C1563 C 0.96832 0.90472 0.10015 0.0
C1564 C 0.03016 0.9012 0.14986 0.0
C1565 C 0.07922 0.88248 0.13575 0.0
N1566 N 0.98909 0.90332 0.11531 0.0
N1567 N 0.0601 0.88794 0.11935 0.0
H1568 H 0.63842 0.75198 0.79027 0.0
H1569 H 0.62918 0.78795 0.92862 0.0
H1570 H 0.64166 0.69595 0.84809 0.0
H1571 H 0.61827 0.84684 0.87398 0.0
H1572 H 0.63799 0.7553 0.89835 0.0
H1573 H 0.63478 0.78787 0.81951 0.0
C1574 C 0.63855 0.7472 0.80905 0.0
C1575 C 0.64022 0.72081 0.81669 0.0
C1576 C 0.63373 0.7753 0.89279 0.0
C1577 C 0.63612 0.76174 0.85011 0.0
C1578 C 0.62862 0.79409 0.91016 0.0
C1579 C 0.62258 0.82021 0.90388 0.0
C1580 C 0.63272 0.78237 0.86869 0.0
C1581 C 0.62273 0.8269 0.8796 0.0
C1582 C 0.63641 0.76771 0.8257 0.0
C1583 C 0.64025 0.71586 0.84125 0.0
N1584 N 0.62748 0.80799 0.8628 0.0
N1585 N 0.63818 0.73606 0.85696 0.0
H1586 H 0.48931 0.38318 0.04417 0.0
H1587 H 0.44683 0.39618 0.18072 0.0
H1588 H 0.54278 0.39598 0.10288 0.0
H1589 H 0.39437 0.36358 0.12783 0.0
H1590 H 0.47966 0.40372 0.15009 0.0
H1591 H 0.45232 0.38234 0.07249 0.0
C1592 C 0.49327 0.38596 0.06294 0.0
C1593 C 0.51924 0.38948 0.07118 0.0
C1594 C 0.46097 0.39501 0.14505 0.0
C1595 C 0.47711 0.38879 0.10345 0.0
C1596 C 0.44213 0.39072 0.16256 0.0
C1597 C 0.41794 0.37882 0.15691 0.0
C1598 C 0.45584 0.38726 0.12155 0.0
C1599 C 0.41283 0.37269 0.13296 0.0
C1600 C 0.47217 0.38543 0.07905 0.0
C1601 C 0.5232 0.39296 0.09568 0.0
N1602 N 0.43181 0.37671 0.11611 0.0
N1603 N 0.50241 0.39253 0.11087 0.0
H1604 H 0.87503 0.14073 0.38034 0.0
H1605 H 0.8314 0.29002 0.35809 0.0
H1606 H 0.83911 0.19146 0.43291 0.0
H1607 H 0.85215 0.23838 0.29991 0.0
H1608 H 0.83361 0.2528 0.38518 0.0
H1609 H 0.8658 0.17445 0.34979 0.0
C1610 C 0.86487 0.15869 0.38538 0.0
C1611 C 0.8582 0.16344 0.40928 0.0
C1612 C 0.83753 0.24942 0.36648 0.0
C1613 C 0.84782 0.20194 0.37469 0.0
C1614 C 0.83636 0.27078 0.35097 0.0
C1615 C 0.84175 0.26739 0.32669 0.0
C1616 C 0.84451 0.22433 0.35785 0.0
C1617 C 0.84783 0.24186 0.31852 0.0
C1618 C 0.8597 0.17794 0.36799 0.0
C1619 C 0.84509 0.18708 0.41483 0.0
N1620 N 0.84933 0.2213 0.33412 0.0
N1621 N 0.84058 0.2054 0.39778 0.0
H1622 H 0.94126 0.58843 0.60982 0.0
H1623 H 0.09426 0.61868 0.63084 0.0
H1624 H -0.00457 0.60008 0.55142 0.0
H1625 H 0.03898 0.59611 0.68562 0.0
H1626 H 0.06001 0.6097 0.60072 0.0
H1627 H 0.9782 0.5894 0.63733 0.0
C1628 C 0.96097 0.59112 0.60275 0.0
C1629 C 0.96518 0.59437 0.57827 0.0
C1630 C 0.0556 0.60647 0.61935 0.0
C1631 C 0.00788 0.59567 0.60986 0.0
C1632 C 0.07514 0.61148 0.63648 0.0
C1633 C 0.06932 0.60855 0.66077 0.0
C1634 C 0.03027 0.59845 0.62671 0.0
C1635 C 0.04423 0.59917 0.66714 0.0
C1636 C 0.98216 0.5916 0.6185 0.0
C1637 C 0.99127 0.59754 0.57018 0.0
N1638 N 0.02569 0.59469 0.6503 0.0
N1639 N 0.01165 0.59838 0.58597 0.0
H1640 H 0.64578 0.19077 0.5599 0.0
H1641 H 0.63254 0.2346 0.69611 0.0
H1642 H 0.61127 0.13942 0.61266 0.0
H1643 H 0.64646 0.28727 0.63704 0.0
H1644 H 0.63102 0.19739 0.66802 0.0
H1645 H 0.6536 0.22362 0.59042 0.0
C1646 C 0.63995 0.18631 0.57802 0.0
C1647 C 0.62744 0.16243 0.58364 0.0
C1648 C 0.6345 0.21711 0.66133 0.0
C1649 C 0.63622 0.20039 0.61891 0.0
C1650 C 0.63543 0.23834 0.6773 0.0
C1651 C 0.63947 0.26416 0.66891 0.0
C1652 C 0.63801 0.22177 0.6369 0.0
C1653 C 0.64306 0.26782 0.64438 0.0
C1654 C 0.64441 0.20517 0.59547 0.0
C1655 C 0.62086 0.15763 0.60755 0.0
N1656 N 0.64226 0.24693 0.62933 0.0
N1657 N 0.62506 0.17663 0.62435 0.0
H1658 H 0.00772 0.39919 0.95235 0.0
H1659 H 0.04773 0.34183 0.8251 0.0
H1660 H 0.95337 0.37605 0.89693 0.0
H1661 H 0.104 0.38663 0.86627 0.0
H1662 H 0.0148 0.34932 0.85537 0.0
H1663 H 0.04464 0.3913 0.92459 0.0
C1664 C 0.0035 0.39256 0.93443 0.0
C1665 C 0.9773 0.38823 0.92704 0.0
C1666 C 0.03428 0.35765 0.85793 0.0
C1667 C 0.0193 0.37896 0.89552 0.0
C1668 C 0.05324 0.35334 0.84057 0.0
C1669 C 0.07867 0.36402 0.84285 0.0
C1670 C 0.04044 0.37282 0.87802 0.0
C1671 C 0.08459 0.37819 0.86371 0.0
C1672 C 0.02457 0.38811 0.91865 0.0
C1673 C 0.97307 0.37972 0.90359 0.0
N1674 N 0.06549 0.38238 0.88051 0.0
N1675 N 0.99376 0.37528 0.88885 0.0
H1676 H 0.87177 0.85241 0.1163 0.0
H1677 H 0.84269 0.70008 0.14381 0.0
H1678 H 0.86888 0.79023 0.06382 0.0
H1679 H 0.8611 0.756 0.19942 0.0
H1680 H 0.84625 0.7352 0.11465 0.0
H1681 H 0.86236 0.81946 0.14745 0.0
C1682 C 0.869 0.83195 0.11132 0.0
C1683 C 0.87139 0.82403 0.08747 0.0
C1684 C 0.84947 0.73988 0.13323 0.0
C1685 C 0.86049 0.78655 0.1227 0.0
C1686 C 0.8474 0.71977 0.14996 0.0
C1687 C 0.85184 0.72494 0.17416 0.0
C1688 C 0.85608 0.76551 0.1406 0.0
C1689 C 0.85766 0.75103 0.18094 0.0
C1690 C 0.86372 0.8132 0.12906 0.0
C1691 C 0.8676 0.79728 0.08197 0.0
N1692 N 0.85977 0.77036 0.16422 0.0
N1693 N 0.86239 0.77961 0.0994 0.0
H1694 H 0.53762 0.58508 0.38278 0.0
H1695 H 0.38705 0.62332 0.35824 0.0
H1696 H 0.48331 0.6025 0.43991 0.0
H1697 H 0.44194 0.59526 0.30515 0.0
H1698 H 0.42025 0.61391 0.38916 0.0
H1699 H 0.50133 0.58716 0.35467 0.0
C1700 C 0.518 0.58928 0.38945 0.0
C1701 C 0.51358 0.59381 0.41374 0.0
C1702 C 0.4248 0.6096 0.37073 0.0
C1703 C 0.47161 0.59641 0.38142 0.0
C1704 C 0.40586 0.61488 0.35313 0.0
C1705 C 0.41186 0.61045 0.32904 0.0
C1706 C 0.44975 0.59982 0.36408 0.0
C1707 C 0.43654 0.59948 0.32341 0.0
C1708 C 0.49718 0.5904 0.37335 0.0
C1709 C 0.4876 0.5989 0.42131 0.0
N1710 N 0.45452 0.59476 0.3407 0.0
N1711 N 0.46759 0.60034 0.40516 0.0
H1712 H 0.37855 0.1396 0.11373 0.0
H1713 H 0.34144 0.29057 0.13719 0.0
H1714 H 0.34778 0.19325 0.0609 0.0
H1715 H 0.35866 0.237 0.19488 0.0
H1716 H 0.3432 0.25388 0.1095 0.0
H1717 H 0.37033 0.17337 0.14447 0.0
C1718 C 0.36975 0.15825 0.10865 0.0
C1719 C 0.36422 0.16374 0.08466 0.0
C1720 C 0.34647 0.24998 0.12821 0.0
C1721 C 0.35499 0.20228 0.11946 0.0
C1722 C 0.34556 0.27104 0.14407 0.0
C1723 C 0.35006 0.26694 0.16841 0.0
C1724 C 0.35222 0.22448 0.13656 0.0
C1725 C 0.35507 0.24105 0.17624 0.0
C1726 C 0.36516 0.17751 0.12615 0.0
C1727 C 0.35284 0.18824 0.07906 0.0
N1728 N 0.35626 0.22079 0.16032 0.0
N1729 N 0.34884 0.20655 0.09623 0.0
H1730 H 0.50415 0.61091 0.93821 0.0
H1731 H 0.54075 0.599 0.80014 0.0
H1732 H 0.44922 0.5886 0.88298 0.0
H1733 H 0.59763 0.62164 0.85358 0.0
H1734 H 0.50809 0.59232 0.83115 0.0
H1735 H 0.53937 0.61261 0.90842 0.0
C1736 C 0.49946 0.60626 0.91988 0.0
C1737 C 0.47355 0.5997 0.91314 0.0
C1738 C 0.52771 0.59861 0.83621 0.0
C1739 C 0.51388 0.6016 0.87897 0.0
C1740 C 0.54647 0.60245 0.81846 0.0
C1741 C 0.57201 0.61113 0.82419 0.0
C1742 C 0.5343 0.60361 0.86004 0.0
C1743 C 0.5782 0.61495 0.84832 0.0
C1744 C 0.51963 0.60723 0.90288 0.0
C1745 C 0.46878 0.59387 0.88909 0.0
N1746 N 0.55939 0.61139 0.86538 0.0
N1747 N 0.48869 0.59503 0.87295 0.0
H1748 H 0.13668 0.74831 0.6965 0.0
H1749 H 0.14447 0.78936 0.55933 0.0
H1750 H 0.14535 0.69371 0.63799 0.0
H1751 H 0.11699 0.84329 0.61345 0.0
H1752 H 0.15203 0.7562 0.58965 0.0
H1753 H 0.13567 0.78489 0.66791 0.0
C1754 C 0.13855 0.74399 0.67769 0.0
C1755 C 0.14097 0.71782 0.66964 0.0
C1756 C 0.14445 0.77528 0.59502 0.0
C1757 C 0.13999 0.75958 0.63698 0.0
C1758 C 0.14014 0.79433 0.57768 0.0
C1759 C 0.12967 0.81909 0.58378 0.0
C1760 C 0.13822 0.78079 0.61882 0.0
C1761 C 0.12497 0.82443 0.60795 0.0
C1762 C 0.1379 0.76489 0.66142 0.0
C1763 C 0.14326 0.71347 0.64507 0.0
N1764 N 0.12903 0.80529 0.62463 0.0
N1765 N 0.14271 0.73409 0.62968 0.0
H1766 H 0.88535 0.36538 0.37054 0.0
H1767 H 0.03644 0.40094 0.39709 0.0
H1768 H 0.9423 0.39106 0.31831 0.0
H1769 H 0.98171 0.38302 0.45372 0.0
H1770 H 0.00059 0.39865 0.36869 0.0
H1771 H 0.91842 0.37327 0.40198 0.0
C1772 C 0.9046 0.37295 0.3657 0.0
C1773 C 0.91112 0.37725 0.34168 0.0
C1774 C -0.00379 0.39529 0.3873 0.0
C1775 C 0.94889 0.38617 0.37737 0.0
C1776 C 0.01681 0.39652 0.40361 0.0
C1777 C 0.01222 0.39197 0.42789 0.0
C1778 C 0.97057 0.38919 0.39507 0.0
C1779 C 0.98617 0.38664 0.43517 0.0
C1780 C 0.92347 0.37735 0.38362 0.0
C1781 C 0.93639 0.38703 0.33647 0.0
N1782 N 0.96632 0.38516 0.41878 0.0
N1783 N 0.95423 0.39097 0.35405 0.0
H1784 H 0.34318 0.79331 0.42878 0.0
H1785 H 0.35098 0.75312 0.29125 0.0
H1786 H 0.3716 0.8473 0.37521 0.0
H1787 H 0.33805 0.69896 0.3494 0.0
H1788 H 0.35296 0.78959 0.32003 0.0
H1789 H 0.33474 0.76079 0.39813 0.0
C1790 C 0.34755 0.79842 0.41048 0.0
C1791 C 0.35851 0.823 0.40463 0.0
C1792 C 0.34957 0.76971 0.32638 0.0
C1793 C 0.34897 0.7854 0.36916 0.0
C1794 C 0.34837 0.74889 0.31 0.0
C1795 C 0.3445 0.72285 0.31791 0.0
C1796 C 0.34659 0.76444 0.35078 0.0
C1797 C 0.34129 0.71859 0.34241 0.0
C1798 C 0.34273 0.77974 0.39293 0.0
C1799 C 0.36325 0.82856 0.3805 0.0
N1800 N 0.34243 0.7391 0.35788 0.0
N1801 N 0.35871 0.80974 0.3636 0.0
H1802 H 0.89454 0.63519 0.13461 0.0
H1803 H 0.04365 0.5945 0.10472 0.0
H1804 H 0.94829 0.59797 0.18391 0.0
H1805 H 0.99074 0.62615 0.05161 0.0
H1806 H 0.00786 0.59513 0.13344 0.0
H1807 H 0.92806 0.63071 0.10319 0.0
C1808 C 0.91317 0.62576 0.13875 0.0
C1809 C 0.91867 0.61717 0.162 0.0
C1810 C 0.00396 0.60191 0.1155 0.0
C1811 C 0.95706 0.61226 0.12634 0.0
C1812 C 0.02451 0.60166 0.09905 0.0
C1813 C 0.02033 0.61037 0.07564 0.0
C1814 C 0.9789 0.61107 0.10871 0.0
C1815 C 0.99493 0.61928 0.06945 0.0
C1816 C 0.93233 0.62335 0.12086 0.0
C1817 C 0.94321 0.6052 0.16636 0.0
N1818 N 0.97518 0.61948 0.08591 0.0
N1819 N 0.96145 0.60328 0.14881 0.0
H1820 H 0.16515 0.28701 0.85759 0.0
H1821 H 0.11799 0.13941 0.88323 0.0
H1822 H 0.14027 0.23513 0.80101 0.0
H1823 H 0.15236 0.1919 0.93515 0.0
H1824 H 0.12832 0.17189 0.85193 0.0
H1825 H 0.16285 0.25046 0.88535 0.0
C1826 C 0.15929 0.26782 0.85097 0.0
C1827 C 0.15267 0.26421 0.82697 0.0
C1828 C 0.13383 0.17605 0.87016 0.0
C1829 C 0.14968 0.22191 0.85894 0.0
C1830 C 0.12803 0.15751 0.888 0.0
C1831 C 0.13397 0.1631 0.91191 0.0
C1832 C 0.14568 0.20019 0.8764 0.0
C1833 C 0.14695 0.18687 0.91707 0.0
C1834 C 0.15803 0.24684 0.86686 0.0
C1835 C 0.14554 0.23875 0.81939 0.0
N1836 N 0.15214 0.20449 0.89957 0.0
N1837 N 0.14389 0.21858 0.83541 0.0
H1838 H 0.54322 0.39297 0.6813 0.0
H1839 H 0.50055 0.38159 0.54465 0.0
H1840 H 0.59604 0.36234 0.62766 0.0
H1841 H 0.44733 0.39544 0.60341 0.0
H1842 H 0.53756 0.38034 0.5729 0.0
H1843 H 0.5102 0.4008 0.65092 0.0
C1844 C 0.54796 0.38799 0.66303 0.0
C1845 C 0.57234 0.37659 0.65709 0.0
C1846 C 0.51777 0.38376 0.5795 0.0
C1847 C 0.53419 0.38538 0.62198 0.0
C1848 C 0.49665 0.38454 0.56342 0.0
C1849 C 0.47073 0.38847 0.57168 0.0
C1850 C 0.51291 0.38724 0.60391 0.0
C1851 C 0.46686 0.39212 0.59618 0.0
C1852 C 0.52901 0.39246 0.64565 0.0
C1853 C 0.57745 0.37106 0.63302 0.0
N1854 N 0.48766 0.39141 0.61134 0.0
N1855 N 0.55837 0.37524 0.61629 0.0
H1856 H 0.06447 0.23719 0.27824 0.0
H1857 H 0.9108 0.25088 0.25194 0.0
H1858 H 0.01763 0.17315 0.2501 0.0
H1859 H 0.96222 0.31625 0.26893 0.0
H1860 H 0.94854 0.22116 0.25393 0.0
H1861 H 0.02574 0.26508 0.27843 0.0
C1862 C 0.04598 0.22894 0.27208 0.0
C1863 C 0.04434 0.20287 0.26379 0.0
C1864 C 0.95152 0.24201 0.25717 0.0
C1865 C -0.00022 0.23492 0.26399 0.0
C1866 C 0.93002 0.25903 0.25604 0.0
C1867 C 0.93338 0.28615 0.26027 0.0
C1868 C 0.97647 0.25217 0.26267 0.0
C1869 C 0.95871 0.29554 0.26547 0.0
C1870 C 0.02384 0.24495 0.2722 0.0
C1871 C 0.01974 0.19318 0.2565 0.0
N1872 N 0.97929 0.27852 0.26657 0.0
N1873 N -0.00167 0.20934 0.25663 0.0
H1874 H 0.00116 0.81961 0.4998 0.0
H1875 H 0.9872 0.6637 0.51239 0.0
H1876 H 0.06801 0.76754 0.50909 0.0
H1877 H 0.9212 0.71757 0.50772 0.0
H1878 H 0.01729 0.70106 0.51029 0.0
H1879 H 0.97194 0.78191 0.50133 0.0
C1880 C 0.00978 0.80021 0.50213 0.0
C1881 C 0.03716 0.79677 0.50441 0.0
C1882 C -0.00377 0.70468 0.50975 0.0
C1883 C 0.00354 0.75336 0.50624 0.0
C1884 C 0.97899 0.68338 0.51094 0.0
C1885 C 0.95157 0.68751 0.51017 0.0
C1886 C 0.98599 0.73026 0.50773 0.0
C1887 C 0.94214 0.71342 0.50838 0.0
C1888 C 0.99299 0.77866 0.50303 0.0
C1889 C 0.04704 0.77111 0.50727 0.0
N1890 N 0.95936 0.73382 0.50718 0.0
N1891 N 0.03018 0.75032 0.50815 0.0
H1892 H 0.46826 0.81703 0.74866 0.0
H1893 H 0.52196 0.66866 0.74354 0.0
H1894 H 0.4177 0.74844 0.7458 0.0
H1895 H 0.57186 0.73773 0.74655 0.0
H1896 H 0.48327 0.69753 0.74334 0.0
H1897 H 0.50663 0.78802 0.74697 0.0
C1898 C 0.4652 0.79592 0.74765 0.0
C1899 C 0.43973 0.78519 0.74741 0.0
C1900 C 0.50274 0.70629 0.744 0.0
C1901 C 0.48346 0.7519 0.74548 0.0
C1902 C 0.5248 0.68982 0.7441 0.0
C1903 C 0.55018 0.70075 0.74514 0.0
C1904 C 0.50619 0.73378 0.74494 0.0
C1905 C 0.5527 0.72834 0.74582 0.0
C1906 C 0.4871 0.77935 0.74667 0.0
C1907 C 0.43696 0.75764 0.74605 0.0
N1908 N 0.53099 0.74387 0.74575 0.0
N1909 N 0.45858 0.74195 0.74517 0.0
H1910 H 0.49189 0.1651 0.00487 0.0
H1911 H 0.50253 0.3218 5e-05 0.0
H1912 H 0.42418 0.21704 0.00319 0.0
H1913 H 0.57013 0.26982 0.00357 0.0
H1914 H 0.47364 0.28364 0.00053 0.0
H1915 H 0.52074 0.20326 0.00392 0.0
C1916 C 0.48302 0.18454 0.00428 0.0
C1917 C 0.45548 0.18785 0.00405 0.0
C1918 C 0.49478 0.28056 0.00117 0.0
C1919 C 0.48862 0.23169 0.00298 0.0
C1920 C 0.51137 0.30235 0.00087 0.0
C1921 C 0.53889 0.29903 0.00178 0.0
C1922 C 0.50571 0.25521 0.00239 0.0
C1923 C 0.54907 0.27333 0.00284 0.0
C1924 C 0.49958 0.20634 0.00375 0.0
C1925 C 0.44526 0.21355 0.00338 0.0
N1926 N 0.53243 0.25237 0.00313 0.0
N1927 N 0.46187 0.23453 0.00285 0.0
H1928 H 0.92321 0.74022 0.24844 0.0
H1929 H 0.07913 0.75398 0.2361 0.0
H1930 H 0.97498 0.6737 0.23626 0.0
H1931 H 0.0257 0.82015 0.24255 0.0
H1932 H 0.04161 0.72413 0.23721 0.0
H1933 H 0.96096 0.76937 0.24756 0.0
C1934 C 0.94255 0.73165 0.2456 0.0
C1935 C 0.94589 0.70436 0.2424 0.0
C1936 C 0.03811 0.74516 0.23837 0.0
C1937 C 0.98938 0.73796 0.24134 0.0
C1938 C 0.05951 0.76229 0.23779 0.0
C1939 C 0.05556 0.78969 0.2393 0.0
C1940 C 0.01257 0.75547 0.24054 0.0
C1941 C 0.02969 0.79921 0.24133 0.0
C1942 C 0.96414 0.74842 0.24507 0.0
C1943 C 0.97148 0.69458 0.23881 0.0
N1944 N 0.00916 0.78209 0.24193 0.0
N1945 N 0.99232 0.71142 0.23837 0.0
H1946 H 0.49732 0.66583 0.47802 0.0
H1947 H 0.48823 0.82237 0.48609 0.0
H1948 H 0.56572 0.71616 0.48518 0.0
H1949 H 0.42045 0.77087 0.4815 0.0
H1950 H 0.51698 0.78395 0.48556 0.0
H1951 H 0.46917 0.70438 0.4789 0.0
C1952 C 0.50651 0.68501 0.47978 0.0
C1953 C 0.53403 0.68773 0.48157 0.0
C1954 C 0.49583 0.78107 0.4847 0.0
C1955 C 0.50161 0.73213 0.48258 0.0
C1956 C 0.47933 0.80299 0.485 0.0
C1957 C 0.45181 0.79985 0.48383 0.0
C1958 C 0.48476 0.75582 0.48318 0.0
C1959 C 0.44151 0.77425 0.48245 0.0
C1960 C 0.49031 0.70706 0.4803 0.0
C1961 C 0.54463 0.71315 0.48377 0.0
N1962 N 0.45803 0.7532 0.48213 0.0
N1963 N 0.52834 0.73444 0.48422 0.0
H1964 H 0.46968 0.1675 0.73728 0.0
H1965 H 0.52057 0.31687 0.73605 0.0
H1966 H 0.41813 0.2355 0.73528 0.0
H1967 H 0.57203 0.24892 0.74015 0.0
H1968 H 0.48261 0.28725 0.73556 0.0
H1969 H 0.50764 0.19713 0.73784 0.0
C1970 C 0.46633 0.1886 0.73693 0.0
C1971 C 0.44069 0.19899 0.73631 0.0
C1972 C 0.50224 0.27888 0.7366 0.0
C1973 C 0.48392 0.23294 0.73698 0.0
C1974 C 0.52391 0.29578 0.73692 0.0
C1975 C 0.54953 0.28541 0.73814 0.0
C1976 C 0.50629 0.25147 0.73749 0.0
C1977 C 0.55266 0.25788 0.73919 0.0
C1978 C 0.48799 0.20551 0.73729 0.0
C1979 C 0.43752 0.22654 0.73587 0.0
N1980 N 0.53129 0.24189 0.73881 0.0
N1981 N 0.45889 0.24253 0.73623 0.0
H1982 H 0.92574 0.27482 0.98753 0.0
H1983 H 0.0735 0.22103 -6e-05 0.0
H1984 H 0.99226 0.32493 0.00408 0.0
H1985 H 0.00751 0.17468 0.97497 0.0
H1986 H 0.04435 0.25957 0.00219 0.0
H1987 H 0.9557 0.23736 0.98464 0.0
C1988 C 0.94659 0.27792 0.99072 0.0
C1989 C 0.95649 0.30304 0.99597 0.0
C1990 C 0.03638 0.24093 0.99614 0.0
C1991 C 0.99091 0.26036 0.99249 0.0
C1992 C 0.05302 0.21902 0.99475 0.0
C1993 C 0.04286 0.19459 0.98753 0.0
C1994 C 0.00955 0.23821 0.99028 0.0
C1995 C 0.01616 0.19304 0.98099 0.0
C1996 C 0.96373 0.25657 0.98892 0.0
C1997 C 0.98375 0.30592 -0.00014 0.0
N1998 N 0.00043 0.21449 0.98265 0.0
N1999 N 3e-05 0.28481 -0.002 0.0
H2000 H 0.02015 0.67357 0.74418 0.0
H2001 H 0.97039 0.82316 0.73976 0.0
H2002 H 0.07275 0.74027 0.73756 0.0
H2003 H 0.91944 0.75572 0.74991 0.0
H2004 H 0.00844 0.79344 0.7393 0.0
H2005 H 0.98296 0.70387 0.74634 0.0
C2006 C 0.0239 0.69457 0.74316 0.0
C2007 C 0.0496 0.70438 0.74068 0.0
C2008 C 0.9889 0.78524 0.7417 0.0
C2009 C 0.00712 0.73918 0.74318 0.0
C2010 C 0.9672 0.80218 0.742 0.0
C2011 C 0.94168 0.79193 0.74476 0.0
C2012 C 0.98494 0.75796 0.74416 0.0
C2013 C 0.9387 0.76457 0.74759 0.0
C2014 C 0.00265 0.71189 0.74445 0.0
C2015 C 0.05326 0.73182 0.73951 0.0
N2016 N 0.96005 0.74857 0.74714 0.0
N2017 N 0.03221 0.74828 0.74074 0.0
H2018 H 0.06534 0.27268 0.49258 0.0
H2019 H 0.91676 0.21942 0.49288 0.0
H2020 H -0.00316 0.32291 0.50032 0.0
H2021 H 0.98568 0.16975 0.48536 0.0
H2022 H 0.94571 0.2579 0.49519 0.0
H2023 H 0.03619 0.23454 0.49008 0.0
C2024 C 0.04422 0.27569 0.49387 0.0
C2025 C 0.03355 0.30103 0.49663 0.0
C2026 C 0.95442 0.23853 0.49301 0.0
C2027 C 0.00011 0.25758 0.49364 0.0
C2028 C 0.93791 0.21661 0.49162 0.0
C2029 C 0.94879 0.19133 0.48907 0.0
C2030 C 0.98191 0.23505 0.4918 0.0
C2031 C 0.97636 0.18882 0.48753 0.0
C2032 C 0.02757 0.25393 0.49237 0.0
C2033 C 0.006 0.30376 0.49815 0.0
N2034 N 0.99194 0.2104 0.48897 0.0
N2035 N 0.99023 0.28229 0.49658 0.0
H2036 H 0.41928 0.25031 0.23579 0.0
H2037 H 0.57608 0.23903 0.23578 0.0
H2038 H 0.47131 0.31787 0.23585 0.0
H2039 H 0.52369 0.17175 0.23548 0.0
H2040 H 0.53801 0.26816 0.23557 0.0
H2041 H 0.45741 0.2214 0.23546 0.0
C2042 C 0.43874 0.25914 0.23576 0.0
C2043 C 0.44207 0.28665 0.23591 0.0
C2044 C 0.53483 0.24704 0.23555 0.0
C2045 C 0.48591 0.25342 0.23549 0.0
C2046 C 0.55657 0.23032 0.23569 0.0
C2047 C 0.55309 0.20282 0.23572 0.0
C2048 C 0.5094 0.23624 0.23544 0.0
C2049 C 0.52732 0.19279 0.2355 0.0
C2050 C 0.46053 0.24253 0.23555 0.0
C2051 C 0.4678 0.29681 0.23577 0.0
N2052 N 0.50643 0.20954 0.23539 0.0
N2053 N 0.48878 0.28014 0.23559 0.0
H2054 H 0.49472 0.82984 0.98929 0.0
H2055 H 0.48003 0.6766 0.96151 0.0
H2056 H 0.55985 0.77567 0.97978 0.0
H2057 H 0.41491 0.72327 0.98786 0.0
H2058 H 0.50803 0.71525 0.96272 0.0
H2059 H 0.46401 0.79295 0.98506 0.0
C2060 C 0.50259 0.81021 0.98647 0.0
C2061 C 0.52993 0.80582 0.98487 0.0
C2062 C 0.48762 0.71716 0.96822 0.0
C2063 C 0.49496 0.76388 0.97972 0.0
C2064 C 0.47159 0.69511 0.96748 0.0
C2065 C 0.44527 0.69672 0.97503 0.0
C2066 C 0.47736 0.74107 0.97665 0.0
C2067 C 0.43518 0.72128 0.98204 0.0
C2068 C 0.48503 0.78925 0.984 0.0
C2069 C 0.53898 0.78003 0.98119 0.0
N2070 N 0.45141 0.7426 0.98293 0.0
N2071 N 0.52151 0.76008 0.97864 0.0
H2072 H 0.92658 0.23735 0.75724 0.0
H2073 H 0.08345 0.24551 0.75877 0.0
H2074 H 0.97629 0.16802 0.76024 0.0
H2075 H 0.03118 0.31286 0.75512 0.0
H2076 H 0.04509 0.21644 0.75875 0.0
H2077 H 0.96538 0.26479 0.75629 0.0
C2078 C 0.94571 0.2278 0.75769 0.0
C2079 C 0.94815 0.20024 0.75872 0.0
C2080 C 0.0421 0.23758 0.75789 0.0
C2081 C 0.99297 0.2319 0.75766 0.0
C2082 C 0.06394 0.25421 0.75784 0.0
C2083 C 0.0605 0.28171 0.75699 0.0
C2084 C 0.01673 0.24856 0.75708 0.0
C2085 C 0.03481 0.29183 0.75585 0.0
C2086 C 0.96794 0.24359 0.75714 0.0
C2087 C 0.97353 0.18918 0.75943 0.0
N2088 N 0.01393 0.27523 0.75598 0.0
N2089 N -0.00493 0.20512 0.75885 0.0
H2090 H 0.41791 0.26747 0.50433 0.0
H2091 H 0.56738 0.21627 0.50461 0.0
H2092 H 0.48605 0.31876 0.50391 0.0
H2093 H 0.49938 0.16482 0.50359 0.0
H2094 H 0.53772 0.25426 0.50475 0.0
H2095 H 0.44751 0.2294 0.50442 0.0
C2096 C 0.43903 0.27075 0.50424 0.0
C2097 C 0.44947 0.29635 0.50407 0.0
C2098 C 0.52935 0.23462 0.50448 0.0
C2099 C 0.48337 0.25301 0.5042 0.0
C2100 C 0.54627 0.21295 0.50441 0.0
C2101 C 0.5359 0.18733 0.50403 0.0
C2102 C 0.50191 0.23059 0.50421 0.0
C2103 C 0.50834 0.1842 0.50381 0.0
C2104 C 0.45592 0.24903 0.50429 0.0
C2105 C 0.47703 0.29941 0.50399 0.0
N2106 N 0.49232 0.20558 0.5039 0.0
N2107 N 0.493 0.278 0.50406 0.0
H2108 H 0.41434 0.73996 0.25242 0.0
H2109 H 0.5708 0.74939 0.24149 0.0
H2110 H 0.46553 0.67196 0.2467 0.0
H2111 H 0.5197 0.8172 0.24938 0.0
H2112 H 0.53235 0.72087 0.24222 0.0
H2113 H 0.4527 0.7685 0.2506 0.0
C2114 C 0.43366 0.73097 0.25078 0.0
C2115 C 0.43671 0.70345 0.24964 0.0
C2116 C 0.52953 0.74198 0.24374 0.0
C2117 C 0.48075 0.7362 0.24754 0.0
C2118 C 0.55148 0.75835 0.2433 0.0
C2119 C 0.54849 0.7858 0.24546 0.0
C2120 C 0.50437 0.75308 0.24638 0.0
C2121 C 0.52295 0.79618 0.24768 0.0
C2122 C 0.45557 0.74735 0.24974 0.0
C2123 C 0.46225 0.69304 0.24764 0.0
N2124 N 0.50184 0.77976 0.24814 0.0
N2125 N 0.48334 0.70947 0.24662 0.0
H2126 H -0.00091 0.83632 0.01485 0.0
H2127 H 0.02034 0.68533 0.98051 0.0
H2128 H 0.9377 0.78325 0.99141 0.0
H2129 H 0.07784 0.72857 0.02171 0.0
H2130 H 0.99311 0.72442 0.97837 0.0
H2131 H 0.03095 0.79995 0.01229 0.0
C2132 C 0.99236 0.8171 0.00904 0.0
C2133 C 0.96569 0.81271 0.00342 0.0
C2134 C 0.01166 0.72549 0.9879 0.0
C2135 C 0.00187 0.77144 0.00035 0.0
C2136 C 0.02727 0.70313 0.98916 0.0
C2137 C 0.05116 0.70357 0.00175 0.0
C2138 C 0.01982 0.74859 -0.00062 0.0
C2139 C 0.05941 0.7274 0.01202 0.0
C2140 C 0.01051 0.79643 0.00766 0.0
C2141 C 0.95798 0.78748 0.9961 0.0
N2142 N 0.04355 0.74906 0.01083 0.0
N2143 N 0.976 0.76784 0.99477 0.0
H2144 H 0.13687 0.11242 0.06397 0.0
H2145 H 0.09485 0.18821 0.17975 0.0
H2146 H 0.05924 0.14697 0.06907 0.0
H2147 H 0.12907 0.11057 0.18598 0.0
H2148 H 0.09016 0.18123 0.13662 0.0
H2149 H 0.14254 0.11879 0.1071 0.0
C2150 C 0.12105 0.12125 0.07423 0.0
C2151 C 0.09748 0.12902 0.06318 0.0
C2152 C 0.09883 0.16588 0.14752 0.0
C2153 C 0.1042 0.13711 0.1118 0.0
C2154 C 0.1017 0.1699 0.17195 0.0
C2155 C 0.11231 0.14989 0.18625 0.0
C2156 C 0.10739 0.14206 0.13741 0.0
C2157 C 0.12068 0.12638 0.17544 0.0
C2158 C 0.12429 0.12485 0.09867 0.0
C2159 C 0.07755 0.14047 0.07709 0.0
N2160 N 0.11826 0.12315 0.15153 0.0
N2161 N 0.08149 0.14453 0.10072 0.0
H2162 H 0.06836 0.89118 0.42432 0.0
H2163 H 0.14761 0.8226 0.31858 0.0
H2164 H 0.13527 0.83972 0.43547 0.0
H2165 H 0.09398 0.8879 0.30808 0.0
H2166 H 0.14314 0.82829 0.36157 0.0
H2167 H 0.07698 0.88986 0.38152 0.0
C2168 C 0.08489 0.87969 0.41781 0.0
C2169 C 0.10099 0.86541 0.43352 0.0
C2170 C 0.13253 0.84149 0.34983 0.0
C2171 C 0.11089 0.86376 0.38464 0.0
C2172 C 0.13505 0.83823 0.32528 0.0
C2173 C 0.12101 0.85465 0.30968 0.0
C2174 C 0.11566 0.86112 0.3588 0.0
C2175 C 0.10512 0.87469 0.3194 0.0
C2176 C 0.08985 0.87902 0.39339 0.0
C2177 C 0.12225 0.85098 0.42406 0.0
N2178 N 0.10269 0.87719 0.34334 0.0
N2179 N 0.12645 0.85037 0.40023 0.0
H2180 H 0.34469 0.8173 0.66952 0.0
H2181 H 0.42059 0.8916 0.56513 0.0
H2182 H 0.39724 0.88302 0.68164 0.0
H2183 H 0.35379 0.84035 0.55322 0.0
H2184 H 0.41291 0.8883 0.60799 0.0
H2185 H 0.34816 0.82502 0.62672 0.0
C2186 C 0.35682 0.83343 0.66322 0.0
C2187 C 0.37083 0.84941 0.67921 0.0
C2188 C 0.39984 0.87795 0.59594 0.0
C2189 C 0.37502 0.85821 0.63029 0.0
C2190 C 0.40427 0.87977 0.57149 0.0
C2191 C 0.38794 0.86611 0.55553 0.0
C2192 C 0.37913 0.86215 0.60448 0.0
C2193 C 0.36697 0.85117 0.56481 0.0
C2194 C 0.35875 0.83786 0.63878 0.0
C2195 C 0.38613 0.87014 0.67 0.0
N2196 N 0.36331 0.84943 0.58867 0.0
N2197 N 0.38801 0.87378 0.64614 0.0
H2198 H 0.40146 0.10156 0.80621 0.0
H2199 H 0.35654 0.14764 0.93579 0.0
H2200 H 0.35024 0.16831 0.81894 0.0
H2201 H 0.42335 0.09651 0.92297 0.0
H2202 H 0.34923 0.15048 0.89301 0.0
H2203 H 0.40479 0.0947 0.84903 0.0
C2204 C 0.39077 0.11471 0.81798 0.0
C2205 C 0.37568 0.13571 0.80894 0.0
C2206 C 0.36543 0.13859 0.89958 0.0
C2207 C 0.37945 0.12784 0.85798 0.0
C2208 C 0.36961 0.13686 0.92402 0.0
C2209 C 0.39075 0.12195 0.93301 0.0
C2210 C 0.38238 0.12516 0.884 0.0
C2211 C 0.40695 0.1084 0.91684 0.0
C2212 C 0.39278 0.11079 0.84243 0.0
C2213 C 0.36226 0.15202 0.8251 0.0
N2214 N 0.40245 0.11037 0.89308 0.0
N2215 N 0.3645 0.14776 0.84887 0.0
H2216 H 0.85728 0.84197 0.94092 0.0
H2217 H 0.89583 0.89236 0.81087 0.0
H2218 H 0.91856 0.89917 0.9271 0.0
H2219 H 0.8494 0.82236 0.82388 0.0
H2220 H 0.89861 0.8997 0.85363 0.0
H2221 H 0.84871 0.83924 0.89827 0.0
C2222 C 0.86884 0.8541 0.92897 0.0
C2223 C 0.88887 0.87067 0.93762 0.0
C2224 C 0.88772 0.88281 0.84711 0.0
C2225 C 0.87905 0.8676 0.88879 0.0
C2226 C 0.88604 0.8786 0.82268 0.0
C2227 C 0.87258 0.85651 0.81372 0.0
C2228 C 0.87575 0.86491 0.86277 0.0
C2229 C 0.86018 0.83951 0.82996 0.0
C2230 C 0.86394 0.85246 0.90461 0.0
C2231 C 0.90311 0.88596 0.92124 0.0
N2232 N 0.86217 0.84401 0.85373 0.0
N2233 N 0.89796 0.88399 0.89759 0.0
H2234 H 0.85358 0.15049 0.55871 0.0
H2235 H 0.90433 0.10988 0.68795 0.0
H2236 H 0.92142 0.10067 0.57118 0.0
H2237 H 0.85092 0.175 0.67568 0.0
H2238 H 0.90623 0.10204 0.64533 0.0
H2239 H 0.84793 0.15523 0.60163 0.0
C2240 C 0.8672 0.14037 0.57044 0.0
C2241 C 0.88814 0.12525 0.56129 0.0
C2242 C 0.89406 0.11802 0.65195 0.0
C2243 C 0.88168 0.13067 0.61042 0.0
C2244 C 0.89289 0.12253 0.67633 0.0
C2245 C 0.87755 0.1433 0.68548 0.0
C2246 C 0.8797 0.13425 0.63647 0.0
C2247 C 0.86313 0.15889 0.66944 0.0
C2248 C 0.86398 0.1432 0.59494 0.0
C2249 C 0.90511 0.11264 0.5774 0.0
N2250 N 0.86459 0.15406 0.64566 0.0
N2251 N 0.90152 0.11567 0.60119 0.0
H2252 H 0.56726 0.09582 0.4221 0.0
H2253 H 0.64341 0.17092 0.31824 0.0
H2254 H 0.6335 0.14764 0.43459 0.0
H2255 H 0.59117 0.105 0.30589 0.0
H2256 H 0.63935 0.16348 0.36106 0.0
H2257 H 0.57497 0.09964 0.37932 0.0
C2258 C 0.58347 0.1079 0.41588 0.0
C2259 C 0.59965 0.12154 0.43197 0.0
C2260 C 0.62893 0.15056 0.34893 0.0
C2261 C 0.60848 0.1261 0.38309 0.0
C2262 C 0.63118 0.15484 0.3245 0.0
C2263 C 0.6175 0.13867 0.30844 0.0
C2264 C 0.61268 0.13015 0.35734 0.0
C2265 C 0.60205 0.11802 0.31759 0.0
C2266 C 0.58791 0.11002 0.39146 0.0
C2267 C 0.62047 0.1368 0.42287 0.0
N2268 N 0.5999 0.11448 0.34143 0.0
N2269 N 0.62415 0.13883 0.39903 0.0
H2270 H 0.64333 0.81683 0.1679 0.0
H2271 H 0.57258 0.8962 0.06357 0.0
H2272 H 0.59467 0.88568 0.17963 0.0
H2273 H 0.6346 0.8393 0.0511 0.0
H2274 H 0.58074 0.89277 0.10627 0.0
H2275 H 0.64089 0.82485 0.12504 0.0
C2276 C 0.6323 0.83372 0.16152 0.0
C2277 C 0.61899 0.85044 0.17743 0.0
C2278 C 0.59271 0.8812 0.09417 0.0
C2279 C 0.616 0.85962 0.12843 0.0
C2280 C 0.58801 0.8831 0.06978 0.0
C2281 C 0.60278 0.86788 0.05371 0.0
C2282 C 0.61212 0.86374 0.1026 0.0
C2283 C 0.62266 0.85137 0.06282 0.0
C2284 C 0.63095 0.8383 0.13705 0.0
C2285 C 0.60513 0.87212 0.16809 0.0
N2286 N 0.62657 0.84955 0.08667 0.0
N2287 N 0.6038 0.87592 0.14422 0.0
H2288 H 0.55674 0.63934 0.56073 0.0
H2289 H 0.6346 0.60197 0.67542 0.0
H2290 H 0.63462 0.60611 0.55233 0.0
H2291 H 0.60244 0.68036 0.66798 0.0
H2292 H 0.6284 0.59502 0.6324 0.0
H2293 H 0.5658 0.64594 0.60329 0.0
C2294 C 0.57555 0.63307 0.56797 0.0
C2295 C 0.595 0.62217 0.55323 0.0
C2296 C 0.62297 0.61376 0.64029 0.0
C2297 C 0.60521 0.62935 0.60139 0.0
C2298 C 0.62648 0.61774 0.66464 0.0
C2299 C 0.61916 0.64182 0.675 0.0
C2300 C 0.6112 0.63365 0.62662 0.0
C2301 C 0.60858 0.66165 0.66048 0.0
C2302 C 0.58075 0.63705 0.59205 0.0
C2303 C 0.6192 0.61464 0.56327 0.0
N2304 N 0.60446 0.65697 0.63699 0.0
N2305 N 0.6236 0.61814 0.58691 0.0
H2306 H 0.64435 0.3178 0.81706 0.0
H2307 H 0.57122 0.39297 0.9225 0.0
H2308 H 0.59195 0.38393 0.80583 0.0
H2309 H 0.63724 0.34034 0.93353 0.0
H2310 H 0.57845 0.38997 0.87961 0.0
H2311 H 0.64201 0.32569 0.85989 0.0
C2312 C 0.63247 0.33404 0.82357 0.0
C2313 C 0.61816 0.35008 0.80783 0.0
C2314 C 0.59148 0.37926 0.89145 0.0
C2315 C 0.61531 0.35912 0.85677 0.0
C2316 C 0.58732 0.38091 0.91594 0.0
C2317 C 0.6035 0.36672 0.93164 0.0
C2318 C 0.61177 0.3631 0.88262 0.0
C2319 C 0.62418 0.35155 0.92211 0.0
C2320 C 0.6312 0.33859 0.84801 0.0
C2321 C 0.60323 0.37098 0.81728 0.0
N2322 N 0.62756 0.34995 0.8982 0.0
N2323 N 0.60201 0.37474 0.84115 0.0
H2324 H 0.92324 0.39578 0.07595 0.0
H2325 H 0.84279 0.32295 0.17859 0.0
H2326 H 0.85569 0.34594 0.06266 0.0
H2327 H 0.89799 0.38607 0.19219 0.0
H2328 H 0.84744 0.33097 0.13594 0.0
H2329 H 0.91454 0.39248 0.11866 0.0
C2330 C 0.90651 0.38428 0.08196 0.0
C2331 C 0.89031 0.37097 0.06565 0.0
C2332 C 0.85838 0.34318 0.14828 0.0
C2333 C 0.88036 0.36699 0.11448 0.0
C2334 C 0.85578 0.33857 0.17265 0.0
C2335 C 0.87014 0.35373 0.18903 0.0
C2336 C 0.87567 0.36291 0.14022 0.0
C2337 C 0.88657 0.37383 0.18025 0.0
C2338 C 0.90153 0.38245 0.10634 0.0
C2339 C 0.86882 0.35647 0.07452 0.0
N2340 N 0.88905 0.37767 0.15644 0.0
N2341 N 0.86462 0.35469 0.09831 0.0
H2342 H 0.85144 0.6523 0.44086 0.0
H2343 H 0.90268 0.6093 0.31232 0.0
H2344 H 0.91729 0.59962 0.42913 0.0
H2345 H 0.8493 0.67461 0.32399 0.0
H2346 H 0.90349 0.60119 0.35495 0.0
H2347 H 0.8458 0.65619 0.39791 0.0
C2348 C 0.86462 0.6414 0.42929 0.0
C2349 C 0.88506 0.62577 0.43863 0.0
C2350 C 0.89156 0.61725 0.34818 0.0
C2351 C 0.87862 0.63019 0.38949 0.0
C2352 C 0.89104 0.62193 0.32381 0.0
C2353 C 0.87608 0.64288 0.31453 0.0
C2354 C 0.87698 0.63356 0.36345 0.0
C2355 C 0.86127 0.65839 0.33036 0.0
C2356 C 0.8614 0.64371 0.40477 0.0
C2357 C 0.90144 0.61206 0.42274 0.0
N2358 N 0.86217 0.65346 0.3541 0.0
N2359 N 0.8979 0.61467 0.39892 0.0
H2360 H 0.35224 0.33781 0.43454 0.0
H2361 H 0.401 0.38417 0.30615 0.0
H2362 H 0.41918 0.38908 0.42333 0.0
H2363 H 0.34942 0.31749 0.31742 0.0
H2364 H 0.40286 0.39102 0.34905 0.0
H2365 H 0.34606 0.33516 0.39156 0.0
C2366 C 0.36555 0.34867 0.42307 0.0
C2367 C 0.38642 0.36354 0.43257 0.0
C2368 C 0.39108 0.37495 0.34211 0.0
C2369 C 0.37937 0.36054 0.38338 0.0
C2370 C 0.38994 0.37103 0.31761 0.0
C2371 C 0.37519 0.35005 0.30815 0.0
C2372 C 0.37725 0.35791 0.35728 0.0
C2373 C 0.36122 0.33376 0.32392 0.0
C2374 C 0.36203 0.34705 0.39854 0.0
C2375 C 0.40298 0.37721 0.41681 0.0
N2376 N 0.36264 0.33801 0.34775 0.0
N2377 N 0.39912 0.37533 0.39296 0.0
H2378 H 0.34663 0.67429 0.16822 0.0
H2379 H 0.42531 0.60228 0.06368 0.0
H2380 H 0.39844 0.6078 0.17995 0.0
H2381 H 0.35941 0.65481 0.05172 0.0
H2382 H 0.41728 0.60536 0.10656 0.0
H2383 H 0.35231 0.66859 0.12535 0.0
C2384 C 0.35907 0.65841 0.1618 0.0
C2385 C 0.37215 0.64157 0.17772 0.0
C2386 C 0.40454 0.61609 0.09448 0.0
C2387 C 0.3789 0.63509 0.12874 0.0
C2388 C 0.40918 0.61442 0.07004 0.0
C2389 C 0.39307 0.62834 0.05407 0.0
C2390 C 0.38384 0.63199 0.10297 0.0
C2391 C 0.37236 0.64369 0.06332 0.0
C2392 C 0.36229 0.65515 0.13734 0.0
C2393 C 0.38797 0.62127 0.16837 0.0
N2394 N 0.36844 0.6452 0.08715 0.0
N2395 N 0.39106 0.61873 0.14449 0.0
H2396 H 0.13836 0.65118 0.9359 0.0
H2397 H 0.08789 0.60405 0.80843 0.0
H2398 H 0.07002 0.6014 0.92602 0.0
H2399 H 0.14123 0.66944 0.8192 0.0
H2400 H 0.08624 0.59735 0.85139 0.0
H2401 H 0.1447 0.65221 0.89302 0.0
C2402 C 0.12474 0.64031 0.92476 0.0
C2403 C 0.10339 0.62641 0.93461 0.0
C2404 C 0.09836 0.61308 0.8443 0.0
C2405 C 0.11067 0.62759 0.88542 0.0
C2406 C 0.09939 0.61692 0.81979 0.0
C2407 C 0.11454 0.63754 0.8102 0.0
C2408 C 0.11273 0.62984 0.85932 0.0
C2409 C 0.12909 0.65348 0.8258 0.0
C2410 C 0.12838 0.64099 0.90025 0.0
C2411 C 0.08658 0.61257 0.91921 0.0
N2412 N 0.12777 0.64933 0.84963 0.0
N2413 N 0.09051 0.61361 0.89531 0.0
H2414 H 0.06422 0.39292 0.57857 0.0
H2415 H 0.14958 0.32294 0.67964 0.0
H2416 H 0.13356 0.34582 0.56428 0.0
H2417 H 0.09406 0.38546 0.69469 0.0
H2418 H 0.14331 0.33069 0.63714 0.0
H2419 H 0.07397 0.39009 0.62123 0.0
C2420 C 0.08152 0.38211 0.58434 0.0
C2421 C 0.09797 0.36946 0.56776 0.0
C2422 C 0.13266 0.34287 0.64975 0.0
C2423 C 0.10913 0.36605 0.61646 0.0
C2424 C 0.13622 0.33842 0.67403 0.0
C2425 C 0.12226 0.35348 0.69079 0.0
C2426 C 0.11476 0.36229 0.64211 0.0
C2427 C 0.10527 0.37337 0.68243 0.0
C2428 C 0.08711 0.38056 0.60868 0.0
C2429 C 0.1202 0.35582 0.57632 0.0
N2430 N 0.10179 0.37702 0.65867 0.0
N2431 N 0.12499 0.35433 0.60003 0.0
loop_
_geom_bond_atom_site_label_1
_geom_bond_atom_site_label_2
_geom_bond_distance
_geom_bond_site_symmetry_2
_ccdc_geom_bond_type
Sc0 O3 2.025 . S
Sc0 O10 2.105 . S
Sc0 O13 2.105 . S
Sc0 O16 2.105 . S
Sc0 O19 2.105 . S
Sc1 O3 2.025 . S
Sc1 O11 2.105 . S
Sc1 O15 2.105 . S
Sc1 O17 2.105 . S
Sc1 O21 2.105 . S
Sc2 O3 2.025 . S
Sc2 O12 2.105 . S
Sc2 O14 2.105 . S
Sc2 O18 2.105 . S
Sc2 O20 2.105 . S
O3 Sc0 2.025 . S
O3 Sc1 2.025 . S
O3 Sc2 2.025 . S
C4 O10 1.268 . S
C4 O20 1.268 . S
C5 O11 1.268 . S
C5 O19 1.268 . S
C6 O12 1.268 . S
C6 O21 1.268 . S
C7 O13 1.268 . S
C7 O17 1.268 . S
C8 O14 1.268 . S
C8 O16 1.268 . S
C9 O15 1.268 . S
C9 O18 1.268 . S
O10 Sc0 2.105 . S
O10 C4 1.268 . S
O11 Sc1 2.105 . S
O11 C5 1.268 . S
O12 Sc2 2.105 . S
O12 C6 1.268 . S
O13 Sc0 2.105 . S
O13 C7 1.268 . S
O14 Sc2 2.105 . S
O14 C8 1.268 . S
O15 Sc1 2.105 . S
O15 C9 1.268 . S
O16 Sc0 2.105 . S
O16 C8 1.268 . S
O17 Sc1 2.105 . S
O17 C7 1.268 . S
O18 Sc2 2.105 . S
O18 C9 1.268 . S
O19 Sc0 2.105 . S
O19 C5 1.268 . S
O20 Sc2 2.105 . S
O20 C4 1.268 . S
O21 Sc1 2.105 . S
O21 C6 1.268 . S
Sc22 O25 2.025 . S
Sc22 O32 2.105 . S
Sc22 O35 2.105 . S
Sc22 O38 2.105 . S
Sc22 O41 2.105 . S
Sc23 O25 2.025 . S
Sc23 O33 2.105 . S
Sc23 O37 2.105 . S
Sc23 O39 2.105 . S
Sc23 O43 2.105 . S
Sc24 O25 2.025 . S
Sc24 O34 2.105 . S
Sc24 O36 2.105 . S
Sc24 O40 2.105 . S
Sc24 O42 2.105 . S
O25 Sc22 2.025 . S
O25 Sc23 2.025 . S
O25 Sc24 2.025 . S
C26 O32 1.268 . S
C26 O42 1.268 . S
C27 O33 1.268 . S
C27 O41 1.268 . S
C28 O34 1.268 . S
C28 O43 1.268 . S
C29 O35 1.268 . S
C29 O39 1.268 . S
C30 O36 1.268 . S
C30 O38 1.268 . S
C31 O37 1.268 . S
C31 O40 1.268 . S
O32 Sc22 2.105 . S
O32 C26 1.268 . S
O33 Sc23 2.105 . S
O33 C27 1.268 . S
O34 Sc24 2.105 . S
O34 C28 1.268 . S
O35 Sc22 2.105 . S
O35 C29 1.268 . S
O36 Sc24 2.105 . S
O36 C30 1.268 . S
O37 Sc23 2.105 . S
O37 C31 1.268 . S
O38 Sc22 2.105 . S
O38 C30 1.268 . S
O39 Sc23 2.105 . S
O39 C29 1.268 . S
O40 Sc24 2.105 . S
O40 C31 1.268 . S
O41 Sc22 2.105 . S
O41 C27 1.268 . S
O42 Sc24 2.105 . S
O42 C26 1.268 . S
O43 Sc23 2.105 . S
O43 C28 1.268 . S
Sc44 O47 2.025 . S
Sc44 O54 2.105 . S
Sc44 O57 2.105 . S
Sc44 O60 2.105 . S
Sc44 O63 2.105 . S
Sc45 O47 2.025 . S
Sc45 O55 2.105 . S
Sc45 O59 2.105 . S
Sc45 O61 2.105 . S
Sc45 O65 2.105 . S
Sc46 O47 2.025 . S
Sc46 O56 2.105 . S
Sc46 O58 2.105 . S
Sc46 O62 2.105 . S
Sc46 O64 2.105 . S
O47 Sc44 2.025 . S
O47 Sc45 2.025 . S
O47 Sc46 2.025 . S
C48 O54 1.268 . S
C48 O64 1.268 . S
C49 O55 1.268 . S
C49 O63 1.268 . S
C50 O56 1.268 . S
C50 O65 1.268 . S
C51 O57 1.268 . S
C51 O61 1.268 . S
C52 O58 1.268 . S
C52 O60 1.268 . S
C53 O59 1.268 . S
C53 O62 1.268 . S
O54 Sc44 2.105 . S
O54 C48 1.268 . S
O55 Sc45 2.105 . S
O55 C49 1.268 . S
O56 Sc46 2.105 . S
O56 C50 1.268 . S
O57 Sc44 2.105 . S
O57 C51 1.268 . S
O58 Sc46 2.105 . S
O58 C52 1.268 . S
O59 Sc45 2.105 . S
O59 C53 1.268 . S
O60 Sc44 2.105 . S
O60 C52 1.268 . S
O61 Sc45 2.105 . S
O61 C51 1.268 . S
O62 Sc46 2.105 . S
O62 C53 1.268 . S
O63 Sc44 2.105 . S
O63 C49 1.268 . S
O64 Sc46 2.105 . S
O64 C48 1.268 . S
O65 Sc45 2.105 . S
O65 C50 1.268 . S
Sc66 O69 2.025 . S
Sc66 O76 2.105 1_554 S
Sc66 O79 2.105 . S
Sc66 O82 2.105 . S
Sc66 O85 2.105 . S
Sc67 O69 2.025 . S
Sc67 O77 2.105 . S
Sc67 O81 2.105 . S
Sc67 O83 2.105 . S
Sc67 O87 2.105 . S
Sc68 O69 2.025 . S
Sc68 O78 2.105 . S
Sc68 O80 2.105 . S
Sc68 O84 2.105 . S
Sc68 O86 2.105 1_554 S
O69 Sc66 2.025 . S
O69 Sc67 2.025 . S
O69 Sc68 2.025 . S
C70 O76 1.268 . S
C70 O86 1.268 . S
C71 O77 1.268 . S
C71 O85 1.268 . S
C72 O78 1.268 . S
C72 O87 1.268 . S
C73 O79 1.268 . S
C73 O83 1.268 . S
C74 O80 1.268 . S
C74 O82 1.268 . S
C75 O81 1.268 . S
C75 O84 1.268 . S
O76 Sc66 2.105 1_556 S
O76 C70 1.268 . S
O77 Sc67 2.105 . S
O77 C71 1.268 . S
O78 Sc68 2.105 . S
O78 C72 1.268 . S
O79 Sc66 2.105 . S
O79 C73 1.268 . S
O80 Sc68 2.105 . S
O80 C74 1.268 . S
O81 Sc67 2.105 . S
O81 C75 1.268 . S
O82 Sc66 2.105 . S
O82 C74 1.268 . S
O83 Sc67 2.105 . S
O83 C73 1.268 . S
O84 Sc68 2.105 . S
O84 C75 1.268 . S
O85 Sc66 2.105 . S
O85 C71 1.268 . S
O86 Sc68 2.105 1_556 S
O86 C70 1.268 . S
O87 Sc67 2.105 . S
O87 C72 1.268 . S
Sc88 O91 2.025 . S
Sc88 O98 2.105 . S
Sc88 O101 2.105 . S
Sc88 O104 2.105 . S
Sc88 O107 2.105 . S
Sc89 O91 2.025 . S
Sc89 O99 2.105 . S
Sc89 O103 2.105 . S
Sc89 O105 2.105 . S
Sc89 O109 2.105 . S
Sc90 O91 2.025 . S
Sc90 O100 2.105 . S
Sc90 O102 2.105 . S
Sc90 O106 2.105 . S
Sc90 O108 2.105 . S
O91 Sc88 2.025 . S
O91 Sc89 2.025 . S
O91 Sc90 2.025 . S
C92 O98 1.268 . S
C92 O108 1.268 . S
C93 O99 1.268 . S
C93 O107 1.268 . S
C94 O100 1.268 . S
C94 O109 1.268 . S
C95 O101 1.268 . S
C95 O105 1.268 . S
C96 O102 1.268 . S
C96 O104 1.268 . S
C97 O103 1.268 . S
C97 O106 1.268 . S
O98 Sc88 2.105 . S
O98 C92 1.268 . S
O99 Sc89 2.105 . S
O99 C93 1.268 . S
O100 Sc90 2.105 . S
O100 C94 1.268 . S
O101 Sc88 2.105 . S
O101 C95 1.268 . S
O102 Sc90 2.105 . S
O102 C96 1.268 . S
O103 Sc89 2.105 . S
O103 C97 1.268 . S
O104 Sc88 2.105 . S
O104 C96 1.268 . S
O105 Sc89 2.105 . S
O105 C95 1.268 . S
O106 Sc90 2.105 . S
O106 C97 1.268 . S
O107 Sc88 2.105 . S
O107 C93 1.268 . S
O108 Sc90 2.105 . S
O108 C92 1.268 . S
O109 Sc89 2.105 . S
O109 C94 1.268 . S
Sc110 O113 2.025 . S
Sc110 O120 2.105 . S
Sc110 O123 2.105 . S
Sc110 O126 2.105 . S
Sc110 O129 2.105 . S
Sc111 O113 2.025 . S
Sc111 O121 2.105 . S
Sc111 O125 2.105 . S
Sc111 O127 2.105 . S
Sc111 O131 2.105 . S
Sc112 O113 2.025 . S
Sc112 O122 2.105 . S
Sc112 O124 2.105 . S
Sc112 O128 2.105 . S
Sc112 O130 2.105 . S
O113 Sc110 2.025 . S
O113 Sc111 2.025 . S
O113 Sc112 2.025 . S
C114 O120 1.268 . S
C114 O130 1.268 . S
C115 O121 1.268 . S
C115 O129 1.268 . S
C116 O122 1.268 . S
C116 O131 1.268 . S
C117 O123 1.268 . S
C117 O127 1.268 . S
C118 O124 1.268 . S
C118 O126 1.268 . S
C119 O125 1.268 . S
C119 O128 1.268 . S
O120 Sc110 2.105 . S
O120 C114 1.268 . S
O121 Sc111 2.105 . S
O121 C115 1.268 . S
O122 Sc112 2.105 . S
O122 C116 1.268 . S
O123 Sc110 2.105 . S
O123 C117 1.268 . S
O124 Sc112 2.105 . S
O124 C118 1.268 . S
O125 Sc111 2.105 . S
O125 C119 1.268 . S
O126 Sc110 2.105 . S
O126 C118 1.268 . S
O127 Sc111 2.105 . S
O127 C117 1.268 . S
O128 Sc112 2.105 . S
O128 C119 1.268 . S
O129 Sc110 2.105 . S
O129 C115 1.268 . S
O130 Sc112 2.105 . S
O130 C114 1.268 . S
O131 Sc111 2.105 . S
O131 C116 1.268 . S
Sc132 O135 2.025 . S
Sc132 O142 2.105 . S
Sc132 O145 2.105 . S
Sc132 O148 2.105 . S
Sc132 O151 2.105 . S
Sc133 O135 2.025 . S
Sc133 O143 2.105 . S
Sc133 O147 2.105 . S
Sc133 O149 2.105 . S
Sc133 O153 2.105 . S
Sc134 O135 2.025 . S
Sc134 O144 2.105 . S
Sc134 O146 2.105 . S
Sc134 O150 2.105 . S
Sc134 O152 2.105 . S
O135 Sc132 2.025 . S
O135 Sc133 2.025 . S
O135 Sc134 2.025 . S
C136 O142 1.268 . S
C136 O152 1.268 . S
C137 O143 1.268 . S
C137 O151 1.268 . S
C138 O144 1.268 . S
C138 O153 1.268 . S
C139 O145 1.268 . S
C139 O149 1.268 . S
C140 O146 1.268 . S
C140 O148 1.268 . S
C141 O147 1.268 . S
C141 O150 1.268 . S
O142 Sc132 2.105 . S
O142 C136 1.268 . S
O143 Sc133 2.105 . S
O143 C137 1.268 . S
O144 Sc134 2.105 . S
O144 C138 1.268 . S
O145 Sc132 2.105 . S
O145 C139 1.268 . S
O146 Sc134 2.105 . S
O146 C140 1.268 . S
O147 Sc133 2.105 . S
O147 C141 1.268 . S
O148 Sc132 2.105 . S
O148 C140 1.268 . S
O149 Sc133 2.105 . S
O149 C139 1.268 . S
O150 Sc134 2.105 . S
O150 C141 1.268 . S
O151 Sc132 2.105 . S
O151 C137 1.268 . S
O152 Sc134 2.105 . S
O152 C136 1.268 . S
O153 Sc133 2.105 . S
O153 C138 1.268 . S
Sc154 O157 2.025 . S
Sc154 O164 2.105 . S
Sc154 O167 2.105 . S
Sc154 O170 2.105 1_556 S
Sc154 O173 2.105 . S
Sc155 O157 2.025 . S
Sc155 O165 2.105 . S
Sc155 O169 2.105 . S
Sc155 O171 2.105 . S
Sc155 O175 2.105 . S
Sc156 O157 2.025 . S
Sc156 O166 2.105 . S
Sc156 O168 2.105 1_556 S
Sc156 O172 2.105 . S
Sc156 O174 2.105 . S
O157 Sc154 2.025 . S
O157 Sc155 2.025 . S
O157 Sc156 2.025 . S
C158 O164 1.268 . S
C158 O174 1.268 . S
C159 O165 1.268 . S
C159 O173 1.268 . S
C160 O166 1.268 . S
C160 O175 1.268 . S
C161 O167 1.268 . S
C161 O171 1.268 . S
C162 O168 1.268 . S
C162 O170 1.268 . S
C163 O169 1.268 . S
C163 O172 1.268 . S
O164 Sc154 2.105 . S
O164 C158 1.268 . S
O165 Sc155 2.105 . S
O165 C159 1.268 . S
O166 Sc156 2.105 . S
O166 C160 1.268 . S
O167 Sc154 2.105 . S
O167 C161 1.268 . S
O168 Sc156 2.105 1_554 S
O168 C162 1.268 . S
O169 Sc155 2.105 . S
O169 C163 1.268 . S
O170 Sc154 2.105 1_554 S
O170 C162 1.268 . S
O171 Sc155 2.105 . S
O171 C161 1.268 . S
O172 Sc156 2.105 . S
O172 C163 1.268 . S
O173 Sc154 2.105 . S
O173 C159 1.268 . S
O174 Sc156 2.105 . S
O174 C158 1.268 . S
O175 Sc155 2.105 . S
O175 C160 1.268 . S
Sc176 O179 2.025 . S
Sc176 O186 2.105 . S
Sc176 O189 2.105 . S
Sc176 O192 2.105 . S
Sc176 O195 2.105 . S
Sc177 O179 2.025 . S
Sc177 O187 2.105 . S
Sc177 O191 2.105 . S
Sc177 O193 2.105 . S
Sc177 O197 2.105 . S
Sc178 O179 2.025 . S
Sc178 O188 2.105 . S
Sc178 O190 2.105 . S
Sc178 O194 2.105 . S
Sc178 O196 2.105 . S
O179 Sc176 2.025 . S
O179 Sc177 2.025 . S
O179 Sc178 2.025 . S
C180 O186 1.268 . S
C180 O196 1.268 . S
C181 O187 1.268 . S
C181 O195 1.268 . S
C182 O188 1.268 . S
C182 O197 1.268 . S
C183 O189 1.268 . S
C183 O193 1.268 . S
C184 O190 1.268 . S
C184 O192 1.268 . S
C185 O191 1.268 . S
C185 O194 1.268 . S
O186 Sc176 2.105 . S
O186 C180 1.268 . S
O187 Sc177 2.105 . S
O187 C181 1.268 . S
O188 Sc178 2.105 . S
O188 C182 1.268 . S
O189 Sc176 2.105 . S
O189 C183 1.268 . S
O190 Sc178 2.105 . S
O190 C184 1.268 . S
O191 Sc177 2.105 . S
O191 C185 1.268 . S
O192 Sc176 2.105 . S
O192 C184 1.268 . S
O193 Sc177 2.105 . S
O193 C183 1.268 . S
O194 Sc178 2.105 . S
O194 C185 1.268 . S
O195 Sc176 2.105 . S
O195 C181 1.268 . S
O196 Sc178 2.105 . S
O196 C180 1.268 . S
O197 Sc177 2.105 . S
O197 C182 1.268 . S
Sc198 O201 2.025 . S
Sc198 O208 2.105 . S
Sc198 O211 2.105 . S
Sc198 O214 2.105 . S
Sc198 O217 2.105 . S
Sc199 O201 2.025 . S
Sc199 O209 2.105 . S
Sc199 O213 2.105 . S
Sc199 O215 2.105 . S
Sc199 O219 2.105 . S
Sc200 O201 2.025 . S
Sc200 O210 2.105 . S
Sc200 O212 2.105 . S
Sc200 O216 2.105 . S
Sc200 O218 2.105 . S
O201 Sc198 2.025 . S
O201 Sc199 2.025 . S
O201 Sc200 2.025 . S
C202 O208 1.268 . S
C202 O218 1.268 . S
C203 O209 1.268 . S
C203 O217 1.268 . S
C204 O210 1.268 . S
C204 O219 1.268 . S
C205 O211 1.268 . S
C205 O215 1.268 . S
C206 O212 1.268 . S
C206 O214 1.268 . S
C207 O213 1.268 . S
C207 O216 1.268 . S
O208 Sc198 2.105 . S
O208 C202 1.268 . S
O209 Sc199 2.105 . S
O209 C203 1.268 . S
O210 Sc200 2.105 . S
O210 C204 1.268 . S
O211 Sc198 2.105 . S
O211 C205 1.268 . S
O212 Sc200 2.105 . S
O212 C206 1.268 . S
O213 Sc199 2.105 . S
O213 C207 1.268 . S
O214 Sc198 2.105 . S
O214 C206 1.268 . S
O215 Sc199 2.105 . S
O215 C205 1.268 . S
O216 Sc200 2.105 . S
O216 C207 1.268 . S
O217 Sc198 2.105 . S
O217 C203 1.268 . S
O218 Sc200 2.105 . S
O218 C202 1.268 . S
O219 Sc199 2.105 . S
O219 C204 1.268 . S
Sc220 O223 2.025 . S
Sc220 O230 2.105 . S
Sc220 O233 2.105 . S
Sc220 O236 2.105 . S
Sc220 O239 2.105 . S
Sc221 O223 2.025 . S
Sc221 O231 2.105 . S
Sc221 O235 2.105 . S
Sc221 O237 2.105 . S
Sc221 O241 2.105 . S
Sc222 O223 2.025 . S
Sc222 O232 2.105 . S
Sc222 O234 2.105 . S
Sc222 O238 2.105 . S
Sc222 O240 2.105 . S
O223 Sc220 2.025 . S
O223 Sc221 2.025 . S
O223 Sc222 2.025 . S
C224 O230 1.268 . S
C224 O240 1.268 . S
C225 O231 1.268 . S
C225 O239 1.268 . S
C226 O232 1.268 . S
C226 O241 1.268 . S
C227 O233 1.268 . S
C227 O237 1.268 . S
C228 O234 1.268 . S
C228 O236 1.268 . S
C229 O235 1.268 . S
C229 O238 1.268 . S
O230 Sc220 2.105 . S
O230 C224 1.268 . S
O231 Sc221 2.105 . S
O231 C225 1.268 . S
O232 Sc222 2.105 . S
O232 C226 1.268 . S
O233 Sc220 2.105 . S
O233 C227 1.268 . S
O234 Sc222 2.105 . S
O234 C228 1.268 . S
O235 Sc221 2.105 . S
O235 C229 1.268 . S
O236 Sc220 2.105 . S
O236 C228 1.268 . S
O237 Sc221 2.105 . S
O237 C227 1.268 . S
O238 Sc222 2.105 . S
O238 C229 1.268 . S
O239 Sc220 2.105 . S
O239 C225 1.268 . S
O240 Sc222 2.105 . S
O240 C224 1.268 . S
O241 Sc221 2.105 . S
O241 C226 1.268 . S
Sc242 O245 2.025 . S
Sc242 O252 2.105 . S
Sc242 O255 2.105 . S
Sc242 O258 2.105 1_556 S
Sc242 O261 2.105 . S
Sc243 O245 2.025 . S
Sc243 O253 2.105 . S
Sc243 O257 2.105 . S
Sc243 O259 2.105 . S
Sc243 O263 2.105 . S
Sc244 O245 2.025 . S
Sc244 O254 2.105 . S
Sc244 O256 2.105 1_556 S
Sc244 O260 2.105 . S
Sc244 O262 2.105 . S
O245 Sc242 2.025 . S
O245 Sc243 2.025 . S
O245 Sc244 2.025 . S
C246 O252 1.268 . S
C246 O262 1.268 . S
C247 O253 1.268 . S
C247 O261 1.268 . S
C248 O254 1.268 . S
C248 O263 1.268 . S
C249 O255 1.268 . S
C249 O259 1.268 . S
C250 O256 1.268 . S
C250 O258 1.268 . S
C251 O257 1.268 . S
C251 O260 1.268 . S
O252 Sc242 2.105 . S
O252 C246 1.268 . S
O253 Sc243 2.105 . S
O253 C247 1.268 . S
O254 Sc244 2.105 . S
O254 C248 1.268 . S
O255 Sc242 2.105 . S
O255 C249 1.268 . S
O256 Sc244 2.105 1_554 S
O256 C250 1.268 . S
O257 Sc243 2.105 . S
O257 C251 1.268 . S
O258 Sc242 2.105 1_554 S
O258 C250 1.268 . S
O259 Sc243 2.105 . S
O259 C249 1.268 . S
O260 Sc244 2.105 . S
O260 C251 1.268 . S
O261 Sc242 2.105 . S
O261 C247 1.268 . S
O262 Sc244 2.105 . S
O262 C246 1.268 . S
O263 Sc243 2.105 . S
O263 C248 1.268 . S
Sc264 O267 2.025 . S
Sc264 O274 2.105 . S
Sc264 O277 2.105 . S
Sc264 O280 2.105 . S
Sc264 O283 2.105 . S
Sc265 O267 2.025 . S
Sc265 O275 2.105 . S
Sc265 O279 2.105 . S
Sc265 O281 2.105 . S
Sc265 O285 2.105 . S
Sc266 O267 2.025 . S
Sc266 O276 2.105 . S
Sc266 O278 2.105 . S
Sc266 O282 2.105 . S
Sc266 O284 2.105 . S
O267 Sc264 2.025 . S
O267 Sc265 2.025 . S
O267 Sc266 2.025 . S
C268 O274 1.268 . S
C268 O284 1.268 . S
C269 O275 1.268 . S
C269 O283 1.268 . S
C270 O276 1.268 . S
C270 O285 1.268 . S
C271 O277 1.268 . S
C271 O281 1.268 . S
C272 O278 1.268 . S
C272 O280 1.268 . S
C273 O279 1.268 . S
C273 O282 1.268 . S
O274 Sc264 2.105 . S
O274 C268 1.268 . S
O275 Sc265 2.105 . S
O275 C269 1.268 . S
O276 Sc266 2.105 . S
O276 C270 1.268 . S
O277 Sc264 2.105 . S
O277 C271 1.268 . S
O278 Sc266 2.105 . S
O278 C272 1.268 . S
O279 Sc265 2.105 . S
O279 C273 1.268 . S
O280 Sc264 2.105 . S
O280 C272 1.268 . S
O281 Sc265 2.105 . S
O281 C271 1.268 . S
O282 Sc266 2.105 . S
O282 C273 1.268 . S
O283 Sc264 2.105 . S
O283 C269 1.268 . S
O284 Sc266 2.105 . S
O284 C268 1.268 . S
O285 Sc265 2.105 . S
O285 C270 1.268 . S
Sc286 O289 2.025 . S
Sc286 O296 2.105 . S
Sc286 O299 2.105 . S
Sc286 O302 2.105 . S
Sc286 O305 2.105 . S
Sc287 O289 2.025 . S
Sc287 O297 2.105 . S
Sc287 O301 2.105 . S
Sc287 O303 2.105 . S
Sc287 O307 2.105 . S
Sc288 O289 2.025 . S
Sc288 O298 2.105 . S
Sc288 O300 2.105 . S
Sc288 O304 2.105 . S
Sc288 O306 2.105 . S
O289 Sc286 2.025 . S
O289 Sc287 2.025 . S
O289 Sc288 2.025 . S
C290 O296 1.268 . S
C290 O306 1.268 . S
C291 O297 1.268 . S
C291 O305 1.268 . S
C292 O298 1.268 . S
C292 O307 1.268 . S
C293 O299 1.268 . S
C293 O303 1.268 . S
C294 O300 1.268 . S
C294 O302 1.268 . S
C295 O301 1.268 . S
C295 O304 1.268 . S
O296 Sc286 2.105 . S
O296 C290 1.268 . S
O297 Sc287 2.105 . S
O297 C291 1.268 . S
O298 Sc288 2.105 . S
O298 C292 1.268 . S
O299 Sc286 2.105 . S
O299 C293 1.268 . S
O300 Sc288 2.105 . S
O300 C294 1.268 . S
O301 Sc287 2.105 . S
O301 C295 1.268 . S
O302 Sc286 2.105 . S
O302 C294 1.268 . S
O303 Sc287 2.105 . S
O303 C293 1.268 . S
O304 Sc288 2.105 . S
O304 C295 1.268 . S
O305 Sc286 2.105 . S
O305 C291 1.268 . S
O306 Sc288 2.105 . S
O306 C290 1.268 . S
O307 Sc287 2.105 . S
O307 C292 1.268 . S
Sc308 O311 2.025 . S
Sc308 O318 2.105 . S
Sc308 O321 2.105 . S
Sc308 O324 2.105 . S
Sc308 O327 2.105 . S
Sc309 O311 2.025 . S
Sc309 O319 2.105 . S
Sc309 O323 2.105 . S
Sc309 O325 2.105 . S
Sc309 O329 2.105 . S
Sc310 O311 2.025 . S
Sc310 O320 2.105 . S
Sc310 O322 2.105 . S
Sc310 O326 2.105 . S
Sc310 O328 2.105 . S
O311 Sc308 2.025 . S
O311 Sc309 2.025 . S
O311 Sc310 2.025 . S
C312 O318 1.268 . S
C312 O328 1.268 . S
C313 O319 1.268 . S
C313 O327 1.268 . S
C314 O320 1.268 . S
C314 O329 1.268 . S
C315 O321 1.268 . S
C315 O325 1.268 . S
C316 O322 1.268 . S
C316 O324 1.268 . S
C317 O323 1.268 . S
C317 O326 1.268 . S
O318 Sc308 2.105 . S
O318 C312 1.268 . S
O319 Sc309 2.105 . S
O319 C313 1.268 . S
O320 Sc310 2.105 . S
O320 C314 1.268 . S
O321 Sc308 2.105 . S
O321 C315 1.268 . S
O322 Sc310 2.105 . S
O322 C316 1.268 . S
O323 Sc309 2.105 . S
O323 C317 1.268 . S
O324 Sc308 2.105 . S
O324 C316 1.268 . S
O325 Sc309 2.105 . S
O325 C315 1.268 . S
O326 Sc310 2.105 . S
O326 C317 1.268 . S
O327 Sc308 2.105 . S
O327 C313 1.268 . S
O328 Sc310 2.105 . S
O328 C312 1.268 . S
O329 Sc309 2.105 . S
O329 C314 1.268 . S
Sc330 O333 2.025 . S
Sc330 O340 2.105 1_554 S
Sc330 O343 2.105 . S
Sc330 O346 2.105 . S
Sc330 O349 2.105 . S
Sc331 O333 2.025 . S
Sc331 O341 2.105 . S
Sc331 O345 2.105 . S
Sc331 O347 2.105 . S
Sc331 O351 2.105 . S
Sc332 O333 2.025 . S
Sc332 O342 2.105 . S
Sc332 O344 2.105 . S
Sc332 O348 2.105 . S
Sc332 O350 2.105 1_554 S
O333 Sc330 2.025 . S
O333 Sc331 2.025 . S
O333 Sc332 2.025 . S
C334 O340 1.268 . S
C334 O350 1.268 . S
C335 O341 1.268 . S
C335 O349 1.268 . S
C336 O342 1.268 . S
C336 O351 1.268 . S
C337 O343 1.268 . S
C337 O347 1.268 . S
C338 O344 1.268 . S
C338 O346 1.268 . S
C339 O345 1.268 . S
C339 O348 1.268 . S
O340 Sc330 2.105 1_556 S
O340 C334 1.268 . S
O341 Sc331 2.105 . S
O341 C335 1.268 . S
O342 Sc332 2.105 . S
O342 C336 1.268 . S
O343 Sc330 2.105 . S
O343 C337 1.268 . S
O344 Sc332 2.105 . S
O344 C338 1.268 . S
O345 Sc331 2.105 . S
O345 C339 1.268 . S
O346 Sc330 2.105 . S
O346 C338 1.268 . S
O347 Sc331 2.105 . S
O347 C337 1.268 . S
O348 Sc332 2.105 . S
O348 C339 1.268 . S
O349 Sc330 2.105 . S
O349 C335 1.268 . S
O350 Sc332 2.105 1_556 S
O350 C334 1.268 . S
O351 Sc331 2.105 . S
O351 C336 1.268 . S
Sc352 O355 2.025 . S
Sc352 O362 2.105 . S
Sc352 O365 2.105 . S
Sc352 O368 2.105 . S
Sc352 O371 2.105 . S
Sc353 O355 2.025 . S
Sc353 O363 2.105 . S
Sc353 O367 2.105 . S
Sc353 O369 2.105 . S
Sc353 O373 2.105 . S
Sc354 O355 2.025 . S
Sc354 O364 2.105 . S
Sc354 O366 2.105 . S
Sc354 O370 2.105 . S
Sc354 O372 2.105 . S
O355 Sc352 2.025 . S
O355 Sc353 2.025 . S
O355 Sc354 2.025 . S
C356 O362 1.268 . S
C356 O372 1.268 . S
C357 O363 1.268 . S
C357 O371 1.268 . S
C358 O364 1.268 . S
C358 O373 1.268 . S
C359 O365 1.268 . S
C359 O369 1.268 . S
C360 O366 1.268 . S
C360 O368 1.268 . S
C361 O367 1.268 . S
C361 O370 1.268 . S
O362 Sc352 2.105 . S
O362 C356 1.268 . S
O363 Sc353 2.105 . S
O363 C357 1.268 . S
O364 Sc354 2.105 . S
O364 C358 1.268 . S
O365 Sc352 2.105 . S
O365 C359 1.268 . S
O366 Sc354 2.105 . S
O366 C360 1.268 . S
O367 Sc353 2.105 . S
O367 C361 1.268 . S
O368 Sc352 2.105 . S
O368 C360 1.268 . S
O369 Sc353 2.105 . S
O369 C359 1.268 . S
O370 Sc354 2.105 . S
O370 C361 1.268 . S
O371 Sc352 2.105 . S
O371 C357 1.268 . S
O372 Sc354 2.105 . S
O372 C356 1.268 . S
O373 Sc353 2.105 . S
O373 C358 1.268 . S
Sc374 O377 2.025 . S
Sc374 O384 2.105 1_554 S
Sc374 O387 2.105 . S
Sc374 O390 2.105 . S
Sc374 O393 2.105 . S
Sc375 O377 2.025 . S
Sc375 O385 2.105 . S
Sc375 O389 2.105 . S
Sc375 O391 2.105 . S
Sc375 O395 2.105 . S
Sc376 O377 2.025 . S
Sc376 O386 2.105 . S
Sc376 O388 2.105 . S
Sc376 O392 2.105 . S
Sc376 O394 2.105 1_554 S
O377 Sc374 2.025 . S
O377 Sc375 2.025 . S
O377 Sc376 2.025 . S
C378 O384 1.268 . S
C378 O394 1.268 . S
C379 O385 1.268 . S
C379 O393 1.268 . S
C380 O386 1.268 . S
C380 O395 1.268 . S
C381 O387 1.268 . S
C381 O391 1.268 . S
C382 O388 1.268 . S
C382 O390 1.268 . S
C383 O389 1.268 . S
C383 O392 1.268 . S
O384 Sc374 2.105 1_556 S
O384 C378 1.268 . S
O385 Sc375 2.105 . S
O385 C379 1.268 . S
O386 Sc376 2.105 . S
O386 C380 1.268 . S
O387 Sc374 2.105 . S
O387 C381 1.268 . S
O388 Sc376 2.105 . S
O388 C382 1.268 . S
O389 Sc375 2.105 . S
O389 C383 1.268 . S
O390 Sc374 2.105 . S
O390 C382 1.268 . S
O391 Sc375 2.105 . S
O391 C381 1.268 . S
O392 Sc376 2.105 . S
O392 C383 1.268 . S
O393 Sc374 2.105 . S
O393 C379 1.268 . S
O394 Sc376 2.105 1_556 S
O394 C378 1.268 . S
O395 Sc375 2.105 . S
O395 C380 1.268 . S
Sc396 O399 2.025 . S
Sc396 O406 2.105 . S
Sc396 O409 2.105 . S
Sc396 O412 2.105 . S
Sc396 O415 2.105 . S
Sc397 O399 2.025 . S
Sc397 O407 2.105 . S
Sc397 O411 2.105 . S
Sc397 O413 2.105 . S
Sc397 O417 2.105 . S
Sc398 O399 2.025 . S
Sc398 O408 2.105 . S
Sc398 O410 2.105 . S
Sc398 O414 2.105 . S
Sc398 O416 2.105 . S
O399 Sc396 2.025 . S
O399 Sc397 2.025 . S
O399 Sc398 2.025 . S
C400 O406 1.268 . S
C400 O416 1.268 . S
C401 O407 1.268 . S
C401 O415 1.268 . S
C402 O408 1.268 . S
C402 O417 1.268 . S
C403 O409 1.268 . S
C403 O413 1.268 . S
C404 O410 1.268 . S
C404 O412 1.268 . S
C405 O411 1.268 . S
C405 O414 1.268 . S
O406 Sc396 2.105 . S
O406 C400 1.268 . S
O407 Sc397 2.105 . S
O407 C401 1.268 . S
O408 Sc398 2.105 . S
O408 C402 1.268 . S
O409 Sc396 2.105 . S
O409 C403 1.268 . S
O410 Sc398 2.105 . S
O410 C404 1.268 . S
O411 Sc397 2.105 . S
O411 C405 1.268 . S
O412 Sc396 2.105 . S
O412 C404 1.268 . S
O413 Sc397 2.105 . S
O413 C403 1.268 . S
O414 Sc398 2.105 . S
O414 C405 1.268 . S
O415 Sc396 2.105 . S
O415 C401 1.268 . S
O416 Sc398 2.105 . S
O416 C400 1.268 . S
O417 Sc397 2.105 . S
O417 C402 1.268 . S
Sc418 O421 2.025 . S
Sc418 O428 2.105 . S
Sc418 O431 2.105 . S
Sc418 O434 2.105 . S
Sc418 O437 2.105 . S
Sc419 O421 2.025 . S
Sc419 O429 2.105 . S
Sc419 O433 2.105 . S
Sc419 O435 2.105 . S
Sc419 O439 2.105 . S
Sc420 O421 2.025 . S
Sc420 O430 2.105 . S
Sc420 O432 2.105 . S
Sc420 O436 2.105 . S
Sc420 O438 2.105 . S
O421 Sc418 2.025 . S
O421 Sc419 2.025 . S
O421 Sc420 2.025 . S
C422 O428 1.268 . S
C422 O438 1.268 . S
C423 O429 1.268 . S
C423 O437 1.268 . S
C424 O430 1.268 . S
C424 O439 1.268 . S
C425 O431 1.268 . S
C425 O435 1.268 . S
C426 O432 1.268 . S
C426 O434 1.268 . S
C427 O433 1.268 . S
C427 O436 1.268 . S
O428 Sc418 2.105 . S
O428 C422 1.268 . S
O429 Sc419 2.105 . S
O429 C423 1.268 . S
O430 Sc420 2.105 . S
O430 C424 1.268 . S
O431 Sc418 2.105 . S
O431 C425 1.268 . S
O432 Sc420 2.105 . S
O432 C426 1.268 . S
O433 Sc419 2.105 . S
O433 C427 1.268 . S
O434 Sc418 2.105 . S
O434 C426 1.268 . S
O435 Sc419 2.105 . S
O435 C425 1.268 . S
O436 Sc420 2.105 . S
O436 C427 1.268 . S
O437 Sc418 2.105 . S
O437 C423 1.268 . S
O438 Sc420 2.105 . S
O438 C422 1.268 . S
O439 Sc419 2.105 . S
O439 C424 1.268 . S
Sc440 O443 2.025 . S
Sc440 O450 2.105 . S
Sc440 O453 2.105 . S
Sc440 O456 2.105 . S
Sc440 O459 2.105 . S
Sc441 O443 2.025 . S
Sc441 O451 2.105 . S
Sc441 O455 2.105 . S
Sc441 O457 2.105 . S
Sc441 O461 2.105 . S
Sc442 O443 2.025 . S
Sc442 O452 2.105 . S
Sc442 O454 2.105 . S
Sc442 O458 2.105 . S
Sc442 O460 2.105 . S
O443 Sc440 2.025 . S
O443 Sc441 2.025 . S
O443 Sc442 2.025 . S
C444 O450 1.268 . S
C444 O460 1.268 . S
C445 O451 1.268 . S
C445 O459 1.268 . S
C446 O452 1.268 . S
C446 O461 1.268 . S
C447 O453 1.268 . S
C447 O457 1.268 . S
C448 O454 1.268 . S
C448 O456 1.268 . S
C449 O455 1.268 . S
C449 O458 1.268 . S
O450 Sc440 2.105 . S
O450 C444 1.268 . S
O451 Sc441 2.105 . S
O451 C445 1.268 . S
O452 Sc442 2.105 . S
O452 C446 1.268 . S
O453 Sc440 2.105 . S
O453 C447 1.268 . S
O454 Sc442 2.105 . S
O454 C448 1.268 . S
O455 Sc441 2.105 . S
O455 C449 1.268 . S
O456 Sc440 2.105 . S
O456 C448 1.268 . S
O457 Sc441 2.105 . S
O457 C447 1.268 . S
O458 Sc442 2.105 . S
O458 C449 1.268 . S
O459 Sc440 2.105 . S
O459 C445 1.268 . S
O460 Sc442 2.105 . S
O460 C444 1.268 . S
O461 Sc441 2.105 . S
O461 C446 1.268 . S
Sc462 O465 2.025 . S
Sc462 O472 2.105 . S
Sc462 O475 2.105 . S
Sc462 O478 2.105 1_556 S
Sc462 O481 2.105 . S
Sc463 O465 2.025 . S
Sc463 O473 2.105 . S
Sc463 O477 2.105 . S
Sc463 O479 2.105 . S
Sc463 O483 2.105 . S
Sc464 O465 2.025 . S
Sc464 O474 2.105 . S
Sc464 O476 2.105 1_556 S
Sc464 O480 2.105 . S
Sc464 O482 2.105 . S
O465 Sc462 2.025 . S
O465 Sc463 2.025 . S
O465 Sc464 2.025 . S
C466 O472 1.268 . S
C466 O482 1.268 . S
C467 O473 1.268 . S
C467 O481 1.268 . S
C468 O474 1.268 . S
C468 O483 1.268 . S
C469 O475 1.268 . S
C469 O479 1.268 . S
C470 O476 1.268 . S
C470 O478 1.268 . S
C471 O477 1.268 . S
C471 O480 1.268 . S
O472 Sc462 2.105 . S
O472 C466 1.268 . S
O473 Sc463 2.105 . S
O473 C467 1.268 . S
O474 Sc464 2.105 . S
O474 C468 1.268 . S
O475 Sc462 2.105 . S
O475 C469 1.268 . S
O476 Sc464 2.105 1_554 S
O476 C470 1.268 . S
O477 Sc463 2.105 . S
O477 C471 1.268 . S
O478 Sc462 2.105 1_554 S
O478 C470 1.268 . S
O479 Sc463 2.105 . S
O479 C469 1.268 . S
O480 Sc464 2.105 . S
O480 C471 1.268 . S
O481 Sc462 2.105 . S
O481 C467 1.268 . S
O482 Sc464 2.105 . S
O482 C466 1.268 . S
O483 Sc463 2.105 . S
O483 C468 1.268 . S
Sc484 O487 2.025 . S
Sc484 O494 2.105 . S
Sc484 O497 2.105 . S
Sc484 O500 2.105 . S
Sc484 O503 2.105 . S
Sc485 O487 2.025 . S
Sc485 O495 2.105 . S
Sc485 O499 2.105 . S
Sc485 O501 2.105 . S
Sc485 O505 2.105 . S
Sc486 O487 2.025 . S
Sc486 O496 2.105 . S
Sc486 O498 2.105 . S
Sc486 O502 2.105 . S
Sc486 O504 2.105 . S
O487 Sc484 2.025 . S
O487 Sc485 2.025 . S
O487 Sc486 2.025 . S
C488 O494 1.268 . S
C488 O504 1.268 . S
C489 O495 1.268 . S
C489 O503 1.268 . S
C490 O496 1.268 . S
C490 O505 1.268 . S
C491 O497 1.268 . S
C491 O501 1.268 . S
C492 O498 1.268 . S
C492 O500 1.268 . S
C493 O499 1.268 . S
C493 O502 1.268 . S
O494 Sc484 2.105 . S
O494 C488 1.268 . S
O495 Sc485 2.105 . S
O495 C489 1.268 . S
O496 Sc486 2.105 . S
O496 C490 1.268 . S
O497 Sc484 2.105 . S
O497 C491 1.268 . S
O498 Sc486 2.105 . S
O498 C492 1.268 . S
O499 Sc485 2.105 . S
O499 C493 1.268 . S
O500 Sc484 2.105 . S
O500 C492 1.268 . S
O501 Sc485 2.105 . S
O501 C491 1.268 . S
O502 Sc486 2.105 . S
O502 C493 1.268 . S
O503 Sc484 2.105 . S
O503 C489 1.268 . S
O504 Sc486 2.105 . S
O504 C488 1.268 . S
O505 Sc485 2.105 . S
O505 C490 1.268 . S
Sc506 O509 2.025 . S
Sc506 O516 2.105 . S
Sc506 O519 2.105 . S
Sc506 O522 2.105 . S
Sc506 O525 2.105 . S
Sc507 O509 2.025 . S
Sc507 O517 2.105 . S
Sc507 O521 2.105 . S
Sc507 O523 2.105 . S
Sc507 O527 2.105 . S
Sc508 O509 2.025 . S
Sc508 O518 2.105 . S
Sc508 O520 2.105 . S
Sc508 O524 2.105 . S
Sc508 O526 2.105 . S
O509 Sc506 2.025 . S
O509 Sc507 2.025 . S
O509 Sc508 2.025 . S
C510 O516 1.268 . S
C510 O526 1.268 . S
C511 O517 1.268 . S
C511 O525 1.268 . S
C512 O518 1.268 . S
C512 O527 1.268 . S
C513 O519 1.268 . S
C513 O523 1.268 . S
C514 O520 1.268 . S
C514 O522 1.268 . S
C515 O521 1.268 . S
C515 O524 1.268 . S
O516 Sc506 2.105 . S
O516 C510 1.268 . S
O517 Sc507 2.105 . S
O517 C511 1.268 . S
O518 Sc508 2.105 . S
O518 C512 1.268 . S
O519 Sc506 2.105 . S
O519 C513 1.268 . S
O520 Sc508 2.105 . S
O520 C514 1.268 . S
O521 Sc507 2.105 . S
O521 C515 1.268 . S
O522 Sc506 2.105 . S
O522 C514 1.268 . S
O523 Sc507 2.105 . S
O523 C513 1.268 . S
O524 Sc508 2.105 . S
O524 C515 1.268 . S
O525 Sc506 2.105 . S
O525 C511 1.268 . S
O526 Sc508 2.105 . S
O526 C510 1.268 . S
O527 Sc507 2.105 . S
O527 C512 1.268 . S
Sc528 O531 2.025 . S
Sc528 O538 2.105 . S
Sc528 O541 2.105 . S
Sc528 O544 2.105 . S
Sc528 O547 2.105 . S
Sc529 O531 2.025 . S
Sc529 O539 2.105 . S
Sc529 O543 2.105 . S
Sc529 O545 2.105 . S
Sc529 O549 2.105 . S
Sc530 O531 2.025 . S
Sc530 O540 2.105 . S
Sc530 O542 2.105 . S
Sc530 O546 2.105 . S
Sc530 O548 2.105 . S
O531 Sc528 2.025 . S
O531 Sc529 2.025 . S
O531 Sc530 2.025 . S
C532 O538 1.268 . S
C532 O548 1.268 . S
C533 O539 1.268 . S
C533 O547 1.268 . S
C534 O540 1.268 . S
C534 O549 1.268 . S
C535 O541 1.268 . S
C535 O545 1.268 . S
C536 O542 1.268 . S
C536 O544 1.268 . S
C537 O543 1.268 . S
C537 O546 1.268 . S
O538 Sc528 2.105 . S
O538 C532 1.268 . S
O539 Sc529 2.105 . S
O539 C533 1.268 . S
O540 Sc530 2.105 . S
O540 C534 1.268 . S
O541 Sc528 2.105 . S
O541 C535 1.268 . S
O542 Sc530 2.105 . S
O542 C536 1.268 . S
O543 Sc529 2.105 . S
O543 C537 1.268 . S
O544 Sc528 2.105 . S
O544 C536 1.268 . S
O545 Sc529 2.105 . S
O545 C535 1.268 . S
O546 Sc530 2.105 . S
O546 C537 1.268 . S
O547 Sc528 2.105 . S
O547 C533 1.268 . S
O548 Sc530 2.105 . S
O548 C532 1.268 . S
O549 Sc529 2.105 . S
O549 C534 1.268 . S
Sc550 O553 2.025 . S
Sc550 O560 2.105 . S
Sc550 O563 2.105 . S
Sc550 O566 2.105 1_556 S
Sc550 O569 2.105 . S
Sc551 O553 2.025 . S
Sc551 O561 2.105 . S
Sc551 O565 2.105 . S
Sc551 O567 2.105 . S
Sc551 O571 2.105 . S
Sc552 O553 2.025 . S
Sc552 O562 2.105 . S
Sc552 O564 2.105 1_556 S
Sc552 O568 2.105 . S
Sc552 O570 2.105 . S
O553 Sc550 2.025 . S
O553 Sc551 2.025 . S
O553 Sc552 2.025 . S
C554 O560 1.268 . S
C554 O570 1.268 . S
C555 O561 1.268 . S
C555 O569 1.268 . S
C556 O562 1.268 . S
C556 O571 1.268 . S
C557 O563 1.268 . S
C557 O567 1.268 . S
C558 O564 1.268 . S
C558 O566 1.268 . S
C559 O565 1.268 . S
C559 O568 1.268 . S
O560 Sc550 2.105 . S
O560 C554 1.268 . S
O561 Sc551 2.105 . S
O561 C555 1.268 . S
O562 Sc552 2.105 . S
O562 C556 1.268 . S
O563 Sc550 2.105 . S
O563 C557 1.268 . S
O564 Sc552 2.105 1_554 S
O564 C558 1.268 . S
O565 Sc551 2.105 . S
O565 C559 1.268 . S
O566 Sc550 2.105 1_554 S
O566 C558 1.268 . S
O567 Sc551 2.105 . S
O567 C557 1.268 . S
O568 Sc552 2.105 . S
O568 C559 1.268 . S
O569 Sc550 2.105 . S
O569 C555 1.268 . S
O570 Sc552 2.105 . S
O570 C554 1.268 . S
O571 Sc551 2.105 . S
O571 C556 1.268 . S
Sc572 O575 2.025 . S
Sc572 O582 2.105 . S
Sc572 O585 2.105 . S
Sc572 O588 2.105 . S
Sc572 O591 2.105 . S
Sc573 O575 2.025 . S
Sc573 O583 2.105 . S
Sc573 O587 2.105 . S
Sc573 O589 2.105 . S
Sc573 O593 2.105 . S
Sc574 O575 2.025 . S
Sc574 O584 2.105 . S
Sc574 O586 2.105 . S
Sc574 O590 2.105 . S
Sc574 O592 2.105 . S
O575 Sc572 2.025 . S
O575 Sc573 2.025 . S
O575 Sc574 2.025 . S
C576 O582 1.268 . S
C576 O592 1.268 . S
C577 O583 1.268 . S
C577 O591 1.268 . S
C578 O584 1.268 . S
C578 O593 1.268 . S
C579 O585 1.268 . S
C579 O589 1.268 . S
C580 O586 1.268 . S
C580 O588 1.268 . S
C581 O587 1.268 . S
C581 O590 1.268 . S
O582 Sc572 2.105 . S
O582 C576 1.268 . S
O583 Sc573 2.105 . S
O583 C577 1.268 . S
O584 Sc574 2.105 . S
O584 C578 1.268 . S
O585 Sc572 2.105 . S
O585 C579 1.268 . S
O586 Sc574 2.105 . S
O586 C580 1.268 . S
O587 Sc573 2.105 . S
O587 C581 1.268 . S
O588 Sc572 2.105 . S
O588 C580 1.268 . S
O589 Sc573 2.105 . S
O589 C579 1.268 . S
O590 Sc574 2.105 . S
O590 C581 1.268 . S
O591 Sc572 2.105 . S
O591 C577 1.268 . S
O592 Sc574 2.105 . S
O592 C576 1.268 . S
O593 Sc573 2.105 . S
O593 C578 1.268 . S
Sc594 O597 2.025 . S
Sc594 O604 2.105 . S
Sc594 O607 2.105 . S
Sc594 O610 2.105 . S
Sc594 O613 2.105 . S
Sc595 O597 2.025 . S
Sc595 O605 2.105 . S
Sc595 O609 2.105 . S
Sc595 O611 2.105 . S
Sc595 O615 2.105 . S
Sc596 O597 2.025 . S
Sc596 O606 2.105 . S
Sc596 O608 2.105 . S
Sc596 O612 2.105 . S
Sc596 O614 2.105 . S
O597 Sc594 2.025 . S
O597 Sc595 2.025 . S
O597 Sc596 2.025 . S
C598 O604 1.268 . S
C598 O614 1.268 . S
C599 O605 1.268 . S
C599 O613 1.268 . S
C600 O606 1.268 . S
C600 O615 1.268 . S
C601 O607 1.268 . S
C601 O611 1.268 . S
C602 O608 1.268 . S
C602 O610 1.268 . S
C603 O609 1.268 . S
C603 O612 1.268 . S
O604 Sc594 2.105 . S
O604 C598 1.268 . S
O605 Sc595 2.105 . S
O605 C599 1.268 . S
O606 Sc596 2.105 . S
O606 C600 1.268 . S
O607 Sc594 2.105 . S
O607 C601 1.268 . S
O608 Sc596 2.105 . S
O608 C602 1.268 . S
O609 Sc595 2.105 . S
O609 C603 1.268 . S
O610 Sc594 2.105 . S
O610 C602 1.268 . S
O611 Sc595 2.105 . S
O611 C601 1.268 . S
O612 Sc596 2.105 . S
O612 C603 1.268 . S
O613 Sc594 2.105 . S
O613 C599 1.268 . S
O614 Sc596 2.105 . S
O614 C598 1.268 . S
O615 Sc595 2.105 . S
O615 C600 1.268 . S
Sc616 O619 2.025 . S
Sc616 O626 2.105 . S
Sc616 O629 2.105 . S
Sc616 O632 2.105 . S
Sc616 O635 2.105 . S
Sc617 O619 2.025 . S
Sc617 O627 2.105 . S
Sc617 O631 2.105 . S
Sc617 O633 2.105 . S
Sc617 O637 2.105 . S
Sc618 O619 2.025 . S
Sc618 O628 2.105 . S
Sc618 O630 2.105 . S
Sc618 O634 2.105 . S
Sc618 O636 2.105 . S
O619 Sc616 2.025 . S
O619 Sc617 2.025 . S
O619 Sc618 2.025 . S
C620 O626 1.268 . S
C620 O636 1.268 . S
C621 O627 1.268 . S
C621 O635 1.268 . S
C622 O628 1.268 . S
C622 O637 1.268 . S
C623 O629 1.268 . S
C623 O633 1.268 . S
C624 O630 1.268 . S
C624 O632 1.268 . S
C625 O631 1.268 . S
C625 O634 1.268 . S
O626 Sc616 2.105 . S
O626 C620 1.268 . S
O627 Sc617 2.105 . S
O627 C621 1.268 . S
O628 Sc618 2.105 . S
O628 C622 1.268 . S
O629 Sc616 2.105 . S
O629 C623 1.268 . S
O630 Sc618 2.105 . S
O630 C624 1.268 . S
O631 Sc617 2.105 . S
O631 C625 1.268 . S
O632 Sc616 2.105 . S
O632 C624 1.268 . S
O633 Sc617 2.105 . S
O633 C623 1.268 . S
O634 Sc618 2.105 . S
O634 C625 1.268 . S
O635 Sc616 2.105 . S
O635 C621 1.268 . S
O636 Sc618 2.105 . S
O636 C620 1.268 . S
O637 Sc617 2.105 . S
O637 C622 1.268 . S
Sc638 O641 2.025 . S
Sc638 O648 2.105 1_554 S
Sc638 O651 2.105 . S
Sc638 O654 2.105 . S
Sc638 O657 2.105 . S
Sc639 O641 2.025 . S
Sc639 O649 2.105 . S
Sc639 O653 2.105 . S
Sc639 O655 2.105 . S
Sc639 O659 2.105 . S
Sc640 O641 2.025 . S
Sc640 O650 2.105 . S
Sc640 O652 2.105 . S
Sc640 O656 2.105 . S
Sc640 O658 2.105 1_554 S
O641 Sc638 2.025 . S
O641 Sc639 2.025 . S
O641 Sc640 2.025 . S
C642 O648 1.268 . S
C642 O658 1.268 . S
C643 O649 1.268 . S
C643 O657 1.268 . S
C644 O650 1.268 . S
C644 O659 1.268 . S
C645 O651 1.268 . S
C645 O655 1.268 . S
C646 O652 1.268 . S
C646 O654 1.268 . S
C647 O653 1.268 . S
C647 O656 1.268 . S
O648 Sc638 2.105 1_556 S
O648 C642 1.268 . S
O649 Sc639 2.105 . S
O649 C643 1.268 . S
O650 Sc640 2.105 . S
O650 C644 1.268 . S
O651 Sc638 2.105 . S
O651 C645 1.268 . S
O652 Sc640 2.105 . S
O652 C646 1.268 . S
O653 Sc639 2.105 . S
O653 C647 1.268 . S
O654 Sc638 2.105 . S
O654 C646 1.268 . S
O655 Sc639 2.105 . S
O655 C645 1.268 . S
O656 Sc640 2.105 . S
O656 C647 1.268 . S
O657 Sc638 2.105 . S
O657 C643 1.268 . S
O658 Sc640 2.105 1_556 S
O658 C642 1.268 . S
O659 Sc639 2.105 . S
O659 C644 1.268 . S
Sc660 O663 2.025 . S
Sc660 O670 2.105 . S
Sc660 O673 2.105 . S
Sc660 O676 2.105 . S
Sc660 O679 2.105 . S
Sc661 O663 2.025 . S
Sc661 O671 2.105 . S
Sc661 O675 2.105 . S
Sc661 O677 2.105 . S
Sc661 O681 2.105 . S
Sc662 O663 2.025 . S
Sc662 O672 2.105 . S
Sc662 O674 2.105 . S
Sc662 O678 2.105 . S
Sc662 O680 2.105 . S
O663 Sc660 2.025 . S
O663 Sc661 2.025 . S
O663 Sc662 2.025 . S
C664 O670 1.268 . S
C664 O680 1.268 . S
C665 O671 1.268 . S
C665 O679 1.268 . S
C666 O672 1.268 . S
C666 O681 1.268 . S
C667 O673 1.268 . S
C667 O677 1.268 . S
C668 O674 1.268 . S
C668 O676 1.268 . S
C669 O675 1.268 . S
C669 O678 1.268 . S
O670 Sc660 2.105 . S
O670 C664 1.268 . S
O671 Sc661 2.105 . S
O671 C665 1.268 . S
O672 Sc662 2.105 . S
O672 C666 1.268 . S
O673 Sc660 2.105 . S
O673 C667 1.268 . S
O674 Sc662 2.105 . S
O674 C668 1.268 . S
O675 Sc661 2.105 . S
O675 C669 1.268 . S
O676 Sc660 2.105 . S
O676 C668 1.268 . S
O677 Sc661 2.105 . S
O677 C667 1.268 . S
O678 Sc662 2.105 . S
O678 C669 1.268 . S
O679 Sc660 2.105 . S
O679 C665 1.268 . S
O680 Sc662 2.105 . S
O680 C664 1.268 . S
O681 Sc661 2.105 . S
O681 C666 1.268 . S
Sc682 O685 2.025 . S
Sc682 O692 2.105 . S
Sc682 O695 2.105 . S
Sc682 O698 2.105 . S
Sc682 O701 2.105 . S
Sc683 O685 2.025 . S
Sc683 O693 2.105 . S
Sc683 O697 2.105 . S
Sc683 O699 2.105 . S
Sc683 O703 2.105 . S
Sc684 O685 2.025 . S
Sc684 O694 2.105 . S
Sc684 O696 2.105 . S
Sc684 O700 2.105 . S
Sc684 O702 2.105 . S
O685 Sc682 2.025 . S
O685 Sc683 2.025 . S
O685 Sc684 2.025 . S
C686 O692 1.268 . S
C686 O702 1.268 . S
C687 O693 1.268 . S
C687 O701 1.268 . S
C688 O694 1.268 . S
C688 O703 1.268 . S
C689 O695 1.268 . S
C689 O699 1.268 . S
C690 O696 1.268 . S
C690 O698 1.268 . S
C691 O697 1.268 . S
C691 O700 1.268 . S
O692 Sc682 2.105 . S
O692 C686 1.268 . S
O693 Sc683 2.105 . S
O693 C687 1.268 . S
O694 Sc684 2.105 . S
O694 C688 1.268 . S
O695 Sc682 2.105 . S
O695 C689 1.268 . S
O696 Sc684 2.105 . S
O696 C690 1.268 . S
O697 Sc683 2.105 . S
O697 C691 1.268 . S
O698 Sc682 2.105 . S
O698 C690 1.268 . S
O699 Sc683 2.105 . S
O699 C689 1.268 . S
O700 Sc684 2.105 . S
O700 C691 1.268 . S
O701 Sc682 2.105 . S
O701 C687 1.268 . S
O702 Sc684 2.105 . S
O702 C686 1.268 . S
O703 Sc683 2.105 . S
O703 C688 1.268 . S
H704 C710 0.930 . S
H705 C714 0.930 . S
H706 C719 0.929 . S
H707 C717 0.929 . S
H708 C712 0.929 . S
H709 C718 0.929 . S
C710 H704 0.930 . S
C710 C711 1.367 . S
C710 C718 1.378 . S
C711 C710 1.367 . S
C711 C719 1.433 . S
C712 H708 0.929 . S
C712 C714 1.378 . S
C712 C716 1.350 . S
C713 C716 1.463 1_545 S
C713 C718 1.350 . S
C713 N721 1.427 . S
C714 H705 0.930 . S
C714 C712 1.378 . S
C714 C715 1.367 . S
C715 C714 1.367 . S
C715 C717 1.433 . S
C716 C712 1.350 . S
C716 C713 1.463 1_565 S
C716 N720 1.427 . S
C717 H707 0.929 . S
C717 C715 1.433 . S
C717 N720 1.384 . S
C718 H709 0.929 . S
C718 C710 1.378 . S
C718 C713 1.350 . S
C719 H706 0.929 . S
C719 C711 1.433 . S
C719 N721 1.384 . S
N720 C716 1.427 . S
N720 C717 1.384 . S
N721 C713 1.427 . S
N721 C719 1.384 . S
H722 C728 0.930 . S
H723 C732 0.930 . S
H724 C737 0.929 . S
H725 C735 0.929 . S
H726 C730 0.929 . S
H727 C736 0.929 . S
C728 H722 0.930 . S
C728 C729 1.367 . S
C728 C736 1.378 . S
C729 C728 1.367 . S
C729 C737 1.433 . S
C730 H726 0.929 . S
C730 C732 1.378 . S
C730 C734 1.350 . S
C731 C734 1.463 . S
C731 C736 1.350 . S
C731 N739 1.427 . S
C732 H723 0.930 . S
C732 C730 1.378 . S
C732 C733 1.367 . S
C733 C732 1.367 . S
C733 C735 1.433 . S
C734 C730 1.350 . S
C734 C731 1.463 . S
C734 N738 1.427 . S
C735 H725 0.929 . S
C735 C733 1.433 . S
C735 N738 1.384 . S
C736 H727 0.929 . S
C736 C728 1.378 . S
C736 C731 1.350 . S
C737 H724 0.929 . S
C737 C729 1.433 . S
C737 N739 1.384 . S
N738 C734 1.427 . S
N738 C735 1.384 . S
N739 C731 1.427 . S
N739 C737 1.384 . S
H740 C746 0.930 . S
H741 C750 0.930 . S
H742 C755 0.929 . S
H743 C753 0.929 . S
H744 C748 0.929 . S
H745 C754 0.929 . S
C746 H740 0.930 . S
C746 C747 1.367 . S
C746 C754 1.378 . S
C747 C746 1.367 . S
C747 C755 1.433 . S
C748 H744 0.929 . S
C748 C750 1.378 . S
C748 C752 1.350 . S
C749 C752 1.463 1_545 S
C749 C754 1.350 . S
C749 N757 1.427 . S
C750 H741 0.930 . S
C750 C748 1.378 . S
C750 C751 1.367 . S
C751 C750 1.367 . S
C751 C753 1.433 . S
C752 C748 1.350 . S
C752 C749 1.463 1_565 S
C752 N756 1.427 . S
C753 H743 0.929 . S
C753 C751 1.433 . S
C753 N756 1.384 . S
C754 H745 0.929 . S
C754 C746 1.378 . S
C754 C749 1.350 . S
C755 H742 0.929 . S
C755 C747 1.433 . S
C755 N757 1.384 . S
N756 C752 1.427 . S
N756 C753 1.384 . S
N757 C749 1.427 . S
N757 C755 1.384 . S
H758 C764 0.930 1_556 S
H759 C768 0.930 1_554 S
H760 C773 0.929 . S
H761 C771 0.929 . S
H762 C766 0.929 . S
H763 C772 0.929 . S
C764 H758 0.930 1_554 S
C764 C765 1.367 . S
C764 C772 1.378 1_554 S
C765 C764 1.367 . S
C765 C773 1.433 . S
C766 H762 0.929 . S
C766 C768 1.378 1_554 S
C766 C770 1.350 1_554 S
C767 C770 1.463 1_554 S
C767 C772 1.350 1_554 S
C767 N775 1.427 . S
C768 H759 0.930 1_556 S
C768 C766 1.378 1_556 S
C768 C769 1.367 . S
C769 C768 1.367 . S
C769 C771 1.433 . S
C770 C766 1.350 1_556 S
C770 C767 1.463 1_556 S
C770 N774 1.427 . S
C771 H761 0.929 . S
C771 C769 1.433 . S
C771 N774 1.384 . S
C772 H763 0.929 . S
C772 C764 1.378 1_556 S
C772 C767 1.350 1_556 S
C773 H760 0.929 . S
C773 C765 1.433 . S
C773 N775 1.384 . S
N774 C770 1.427 . S
N774 C771 1.384 . S
N775 C767 1.427 . S
N775 C773 1.384 . S
H776 C782 0.930 . S
H777 C786 0.930 . S
H778 C791 0.929 . S
H779 C789 0.929 . S
H780 C784 0.929 . S
H781 C790 0.929 . S
C782 H776 0.930 . S
C782 C783 1.367 . S
C782 C790 1.378 . S
C783 C782 1.367 . S
C783 C791 1.433 . S
C784 H780 0.929 . S
C784 C786 1.378 . S
C784 C788 1.350 . S
C785 C788 1.463 1_565 S
C785 C790 1.350 . S
C785 N793 1.427 . S
C786 H777 0.930 . S
C786 C784 1.378 . S
C786 C787 1.367 . S
C787 C786 1.367 . S
C787 C789 1.433 . S
C788 C784 1.350 . S
C788 C785 1.463 1_545 S
C788 N792 1.427 . S
C789 H779 0.929 . S
C789 C787 1.433 . S
C789 N792 1.384 . S
C790 H781 0.929 . S
C790 C782 1.378 . S
C790 C785 1.350 . S
C791 H778 0.929 . S
C791 C783 1.433 . S
C791 N793 1.384 . S
N792 C788 1.427 . S
N792 C789 1.384 . S
N793 C785 1.427 . S
N793 C791 1.384 . S
H794 C800 0.930 . S
H795 C804 0.930 . S
H796 C809 0.929 . S
H797 C807 0.929 . S
H798 C802 0.929 . S
H799 C808 0.929 . S
C800 H794 0.930 . S
C800 C801 1.367 . S
C800 C808 1.378 . S
C801 C800 1.367 . S
C801 C809 1.433 . S
C802 H798 0.929 . S
C802 C804 1.378 . S
C802 C806 1.350 . S
C803 C806 1.463 . S
C803 C808 1.350 . S
C803 N811 1.427 . S
C804 H795 0.930 . S
C804 C802 1.378 . S
C804 C805 1.367 . S
C805 C804 1.367 . S
C805 C807 1.433 . S
C806 C802 1.350 . S
C806 C803 1.463 . S
C806 N810 1.427 . S
C807 H797 0.929 . S
C807 C805 1.433 . S
C807 N810 1.384 . S
C808 H799 0.929 . S
C808 C800 1.378 . S
C808 C803 1.350 . S
C809 H796 0.929 . S
C809 C801 1.433 . S
C809 N811 1.384 . S
N810 C806 1.427 . S
N810 C807 1.384 . S
N811 C803 1.427 . S
N811 C809 1.384 . S
H812 C818 0.930 . S
H813 C822 0.930 . S
H814 C827 0.929 . S
H815 C825 0.929 . S
H816 C820 0.929 . S
H817 C826 0.929 . S
C818 H812 0.930 . S
C818 C819 1.367 . S
C818 C826 1.378 . S
C819 C818 1.367 . S
C819 C827 1.433 . S
C820 H816 0.929 . S
C820 C822 1.378 . S
C820 C824 1.350 . S
C821 C824 1.463 1_545 S
C821 C826 1.350 . S
C821 N829 1.427 . S
C822 H813 0.930 . S
C822 C820 1.378 . S
C822 C823 1.367 . S
C823 C822 1.367 . S
C823 C825 1.433 . S
C824 C820 1.350 . S
C824 C821 1.463 1_565 S
C824 N828 1.427 . S
C825 H815 0.929 . S
C825 C823 1.433 . S
C825 N828 1.384 . S
C826 H817 0.929 . S
C826 C818 1.378 . S
C826 C821 1.350 . S
C827 H814 0.929 . S
C827 C819 1.433 . S
C827 N829 1.384 . S
N828 C824 1.427 . S
N828 C825 1.384 . S
N829 C821 1.427 . S
N829 C827 1.384 . S
H830 C836 0.930 . S
H831 C840 0.930 . S
H832 C845 0.929 . S
H833 C843 0.929 . S
H834 C838 0.929 . S
H835 C844 0.929 . S
C836 H830 0.930 . S
C836 C837 1.367 . S
C836 C844 1.378 . S
C837 C836 1.367 . S
C837 C845 1.433 . S
C838 H834 0.929 . S
C838 C840 1.378 . S
C838 C842 1.350 . S
C839 C842 1.463 1_554 S
C839 C844 1.350 . S
C839 N847 1.427 . S
C840 H831 0.930 . S
C840 C838 1.378 . S
C840 C841 1.367 . S
C841 C840 1.367 . S
C841 C843 1.433 . S
C842 C838 1.350 . S
C842 C839 1.463 1_556 S
C842 N846 1.427 . S
C843 H833 0.929 . S
C843 C841 1.433 . S
C843 N846 1.384 . S
C844 H835 0.929 . S
C844 C836 1.378 . S
C844 C839 1.350 . S
C845 H832 0.929 . S
C845 C837 1.433 . S
C845 N847 1.384 . S
N846 C842 1.427 . S
N846 C843 1.384 . S
N847 C839 1.427 . S
N847 C845 1.384 . S
H848 C854 0.930 . S
H849 C858 0.930 . S
H850 C863 0.929 . S
H851 C861 0.929 . S
H852 C856 0.929 . S
H853 C862 0.929 . S
C854 H848 0.930 . S
C854 C855 1.367 . S
C854 C862 1.378 . S
C855 C854 1.367 . S
C855 C863 1.433 . S
C856 H852 0.929 . S
C856 C858 1.378 . S
C856 C860 1.350 . S
C857 C860 1.463 . S
C857 C862 1.350 . S
C857 N865 1.427 . S
C858 H849 0.930 . S
C858 C856 1.378 . S
C858 C859 1.367 . S
C859 C858 1.367 . S
C859 C861 1.433 . S
C860 C856 1.350 . S
C860 C857 1.463 . S
C860 N864 1.427 . S
C861 H851 0.929 . S
C861 C859 1.433 . S
C861 N864 1.384 . S
C862 H853 0.929 . S
C862 C854 1.378 . S
C862 C857 1.350 . S
C863 H850 0.929 . S
C863 C855 1.433 . S
C863 N865 1.384 . S
N864 C860 1.427 . S
N864 C861 1.384 . S
N865 C857 1.427 . S
N865 C863 1.384 . S
H866 C872 0.930 . S
H867 C876 0.930 . S
H868 C881 0.929 . S
H869 C879 0.929 . S
H870 C874 0.929 . S
H871 C880 0.929 . S
C872 H866 0.930 . S
C872 C873 1.367 . S
C872 C880 1.378 . S
C873 C872 1.367 . S
C873 C881 1.433 . S
C874 H870 0.929 . S
C874 C876 1.378 . S
C874 C878 1.350 . S
C875 C878 1.463 1_556 S
C875 C880 1.350 . S
C875 N883 1.422 1_556 S
C876 H867 0.930 . S
C876 C874 1.378 . S
C876 C877 1.367 . S
C877 C876 1.367 . S
C877 C879 1.433 . S
C878 C874 1.350 . S
C878 C875 1.463 1_554 S
C878 N882 1.422 1_554 S
C879 H869 0.929 . S
C879 C877 1.433 . S
C879 N882 1.377 1_554 S
C880 H871 0.929 . S
C880 C872 1.378 . S
C880 C875 1.350 . S
C881 H868 0.929 . S
C881 C873 1.433 . S
C881 N883 1.377 1_556 S
N882 C878 1.422 1_556 S
N882 C879 1.377 1_556 S
N883 C875 1.422 1_554 S
N883 C881 1.377 1_554 S
H884 C890 0.930 . S
H885 C894 0.930 . S
H886 C899 0.929 . S
H887 C897 0.929 . S
H888 C892 0.929 . S
H889 C898 0.929 . S
C890 H884 0.930 . S
C890 C891 1.367 . S
C890 C898 1.378 . S
C891 C890 1.367 . S
C891 C899 1.433 . S
C892 H888 0.929 . S
C892 C894 1.378 . S
C892 C896 1.350 . S
C893 C896 1.463 . S
C893 C898 1.350 . S
C893 N901 1.427 . S
C894 H885 0.930 . S
C894 C892 1.378 . S
C894 C895 1.367 . S
C895 C894 1.367 . S
C895 C897 1.433 . S
C896 C892 1.350 . S
C896 C893 1.463 . S
C896 N900 1.427 . S
C897 H887 0.929 . S
C897 C895 1.433 . S
C897 N900 1.384 . S
C898 H889 0.929 . S
C898 C890 1.378 . S
C898 C893 1.350 . S
C899 H886 0.929 . S
C899 C891 1.433 . S
C899 N901 1.384 . S
N900 C896 1.427 . S
N900 C897 1.384 . S
N901 C893 1.427 . S
N901 C899 1.384 . S
H902 C908 0.930 . S
H903 C912 0.930 . S
H904 C917 0.929 . S
H905 C915 0.929 . S
H906 C910 0.929 . S
H907 C916 0.929 . S
C908 H902 0.930 . S
C908 C909 1.367 . S
C908 C916 1.378 . S
C909 C908 1.367 . S
C909 C917 1.433 . S
C910 H906 0.929 . S
C910 C912 1.378 . S
C910 C914 1.350 . S
C911 C914 1.463 . S
C911 C916 1.350 . S
C911 N919 1.427 . S
C912 H903 0.930 . S
C912 C910 1.378 . S
C912 C913 1.367 . S
C913 C912 1.367 . S
C913 C915 1.433 . S
C914 C910 1.350 . S
C914 C911 1.463 . S
C914 N918 1.427 . S
C915 H905 0.929 . S
C915 C913 1.433 . S
C915 N918 1.384 . S
C916 H907 0.929 . S
C916 C908 1.378 . S
C916 C911 1.350 . S
C917 H904 0.929 . S
C917 C909 1.433 . S
C917 N919 1.384 . S
N918 C914 1.427 . S
N918 C915 1.384 . S
N919 C911 1.427 . S
N919 C917 1.384 . S
H920 C926 0.930 . S
H921 C930 0.930 . S
H922 C935 0.929 . S
H923 C933 0.929 . S
H924 C928 0.929 . S
H925 C934 0.929 . S
C926 H920 0.930 . S
C926 C927 1.367 . S
C926 C934 1.378 . S
C927 C926 1.367 . S
C927 C935 1.433 . S
C928 H924 0.929 . S
C928 C930 1.378 . S
C928 C932 1.350 . S
C929 C932 1.463 . S
C929 C934 1.350 . S
C929 N937 1.427 . S
C930 H921 0.930 . S
C930 C928 1.378 . S
C930 C931 1.367 . S
C931 C930 1.367 . S
C931 C933 1.433 . S
C932 C928 1.350 . S
C932 C929 1.463 . S
C932 N936 1.427 . S
C933 H923 0.929 . S
C933 C931 1.433 . S
C933 N936 1.384 . S
C934 H925 0.929 . S
C934 C926 1.378 . S
C934 C929 1.350 . S
C935 H922 0.929 . S
C935 C927 1.433 . S
C935 N937 1.384 . S
N936 C932 1.427 . S
N936 C933 1.384 . S
N937 C929 1.427 . S
N937 C935 1.384 . S
H938 C944 0.930 1_554 S
H939 C948 0.930 1_556 S
H940 C953 0.929 . S
H941 C951 0.929 . S
H942 C946 0.929 . S
H943 C952 0.929 . S
C944 H938 0.930 1_556 S
C944 C945 1.367 . S
C944 C952 1.378 1_556 S
C945 C944 1.367 . S
C945 C953 1.433 . S
C946 H942 0.929 . S
C946 C948 1.378 1_556 S
C946 C950 1.350 1_556 S
C947 C950 1.463 1_556 S
C947 C952 1.350 1_556 S
C947 N955 1.427 . S
C948 H939 0.930 1_554 S
C948 C946 1.378 1_554 S
C948 C949 1.367 . S
C949 C948 1.367 . S
C949 C951 1.433 . S
C950 C946 1.350 1_554 S
C950 C947 1.463 1_554 S
C950 N954 1.427 . S
C951 H941 0.929 . S
C951 C949 1.433 . S
C951 N954 1.384 . S
C952 H943 0.929 . S
C952 C944 1.378 1_554 S
C952 C947 1.350 1_554 S
C953 H940 0.929 . S
C953 C945 1.433 . S
C953 N955 1.384 . S
N954 C950 1.427 . S
N954 C951 1.384 . S
N955 C947 1.427 . S
N955 C953 1.384 . S
H956 C962 0.930 . S
H957 C966 0.930 . S
H958 C971 0.929 . S
H959 C969 0.929 . S
H960 C964 0.929 . S
H961 C970 0.929 . S
C962 H956 0.930 . S
C962 C963 1.367 . S
C962 C970 1.378 . S
C963 C962 1.367 . S
C963 C971 1.433 . S
C964 H960 0.929 . S
C964 C966 1.378 . S
C964 C968 1.350 . S
C965 C968 1.463 . S
C965 C970 1.350 . S
C965 N973 1.427 . S
C966 H957 0.930 . S
C966 C964 1.378 . S
C966 C967 1.367 . S
C967 C966 1.367 . S
C967 C969 1.433 . S
C968 C964 1.350 . S
C968 C965 1.463 . S
C968 N972 1.427 . S
C969 H959 0.929 . S
C969 C967 1.433 . S
C969 N972 1.384 . S
C970 H961 0.929 . S
C970 C962 1.378 . S
C970 C965 1.350 . S
C971 H958 0.929 . S
C971 C963 1.433 . S
C971 N973 1.384 . S
N972 C968 1.427 . S
N972 C969 1.384 . S
N973 C965 1.427 . S
N973 C971 1.384 . S
H974 C980 0.930 . S
H975 C984 0.930 . S
H976 C989 0.929 . S
H977 C987 0.929 . S
H978 C982 0.929 . S
H979 C988 0.929 . S
C980 H974 0.930 . S
C980 C981 1.367 . S
C980 C988 1.378 . S
C981 C980 1.367 . S
C981 C989 1.433 . S
C982 H978 0.929 . S
C982 C984 1.378 . S
C982 C986 1.350 . S
C983 C986 1.463 . S
C983 C988 1.350 . S
C983 N991 1.427 . S
C984 H975 0.930 . S
C984 C982 1.378 . S
C984 C985 1.367 . S
C985 C984 1.367 . S
C985 C987 1.433 . S
C986 C982 1.350 . S
C986 C983 1.463 . S
C986 N990 1.427 . S
C987 H977 0.929 . S
C987 C985 1.433 . S
C987 N990 1.384 . S
C988 H979 0.929 . S
C988 C980 1.378 . S
C988 C983 1.350 . S
C989 H976 0.929 . S
C989 C981 1.433 . S
C989 N991 1.384 . S
N990 C986 1.427 . S
N990 C987 1.384 . S
N991 C983 1.427 . S
N991 C989 1.384 . S
H992 C998 0.930 . S
H993 C1002 0.930 . S
H994 C1007 0.929 . S
H995 C1005 0.929 . S
H996 C1000 0.929 . S
H997 C1006 0.929 . S
C998 H992 0.930 . S
C998 C999 1.367 . S
C998 C1006 1.378 . S
C999 C998 1.367 . S
C999 C1007 1.433 . S
C1000 H996 0.929 . S
C1000 C1002 1.378 . S
C1000 C1004 1.350 . S
C1001 C1004 1.463 . S
C1001 C1006 1.350 . S
C1001 N1009 1.427 . S
C1002 H993 0.930 . S
C1002 C1000 1.378 . S
C1002 C1003 1.367 . S
C1003 C1002 1.367 . S
C1003 C1005 1.433 . S
C1004 C1000 1.350 . S
C1004 C1001 1.463 . S
C1004 N1008 1.427 . S
C1005 H995 0.929 . S
C1005 C1003 1.433 . S
C1005 N1008 1.384 . S
C1006 H997 0.929 . S
C1006 C998 1.378 . S
C1006 C1001 1.350 . S
C1007 H994 0.929 . S
C1007 C999 1.433 . S
C1007 N1009 1.384 . S
N1008 C1004 1.427 . S
N1008 C1005 1.384 . S
N1009 C1001 1.427 . S
N1009 C1007 1.384 . S
H1010 C1016 0.930 . S
H1011 C1020 0.930 . S
H1012 C1025 0.929 . S
H1013 C1023 0.929 . S
H1014 C1018 0.929 . S
H1015 C1024 0.929 . S
C1016 H1010 0.930 . S
C1016 C1017 1.367 . S
C1016 C1024 1.378 . S
C1017 C1016 1.367 . S
C1017 C1025 1.433 . S
C1018 H1014 0.929 . S
C1018 C1020 1.378 . S
C1018 C1022 1.350 . S
C1019 C1022 1.463 1_645 S
C1019 C1024 1.350 . S
C1019 N1027 1.427 . S
C1020 H1011 0.930 . S
C1020 C1018 1.378 . S
C1020 C1021 1.367 . S
C1021 C1020 1.367 . S
C1021 C1023 1.433 . S
C1022 C1018 1.350 . S
C1022 C1019 1.463 1_465 S
C1022 N1026 1.427 . S
C1023 H1013 0.929 . S
C1023 C1021 1.433 . S
C1023 N1026 1.384 . S
C1024 H1015 0.929 . S
C1024 C1016 1.378 . S
C1024 C1019 1.350 . S
C1025 H1012 0.929 . S
C1025 C1017 1.433 . S
C1025 N1027 1.384 . S
N1026 C1022 1.427 . S
N1026 C1023 1.384 . S
N1027 C1019 1.427 . S
N1027 C1025 1.384 . S
H1028 C1034 0.930 . S
H1029 C1038 0.930 . S
H1030 C1043 0.929 . S
H1031 C1041 0.929 . S
H1032 C1036 0.929 . S
H1033 C1042 0.929 . S
C1034 H1028 0.930 . S
C1034 C1035 1.367 . S
C1034 C1042 1.378 . S
C1035 C1034 1.367 . S
C1035 C1043 1.433 . S
C1036 H1032 0.929 . S
C1036 C1038 1.378 . S
C1036 C1040 1.350 . S
C1037 C1040 1.463 . S
C1037 C1042 1.350 . S
C1037 N1045 1.427 . S
C1038 H1029 0.930 . S
C1038 C1036 1.378 . S
C1038 C1039 1.367 . S
C1039 C1038 1.367 . S
C1039 C1041 1.433 . S
C1040 C1036 1.350 . S
C1040 C1037 1.463 . S
C1040 N1044 1.427 . S
C1041 H1031 0.929 . S
C1041 C1039 1.433 . S
C1041 N1044 1.384 . S
C1042 H1033 0.929 . S
C1042 C1034 1.378 . S
C1042 C1037 1.350 . S
C1043 H1030 0.929 . S
C1043 C1035 1.433 . S
C1043 N1045 1.384 . S
N1044 C1040 1.427 . S
N1044 C1041 1.384 . S
N1045 C1037 1.427 . S
N1045 C1043 1.384 . S
H1046 C1052 0.930 . S
H1047 C1056 0.930 . S
H1048 C1061 0.929 . S
H1049 C1059 0.929 . S
H1050 C1054 0.929 1_545 S
H1051 C1060 0.929 1_565 S
C1052 H1046 0.930 . S
C1052 C1053 1.367 . S
C1052 C1060 1.378 . S
C1053 C1052 1.367 . S
C1053 C1061 1.433 1_554 S
C1054 H1050 0.929 1_565 S
C1054 C1056 1.378 . S
C1054 C1058 1.350 . S
C1055 C1058 1.463 1_544 S
C1055 C1060 1.350 . S
C1055 N1063 1.427 1_554 S
C1056 H1047 0.930 . S
C1056 C1054 1.378 . S
C1056 C1057 1.367 . S
C1057 C1056 1.367 . S
C1057 C1059 1.433 1_556 S
C1058 C1054 1.350 . S
C1058 C1055 1.463 1_566 S
C1058 N1062 1.427 1_556 S
C1059 H1049 0.929 . S
C1059 C1057 1.433 1_554 S
C1059 N1062 1.384 . S
C1060 H1051 0.929 1_545 S
C1060 C1052 1.378 . S
C1060 C1055 1.350 . S
C1061 H1048 0.929 . S
C1061 C1053 1.433 1_556 S
C1061 N1063 1.384 . S
N1062 C1058 1.427 1_554 S
N1062 C1059 1.384 . S
N1063 C1055 1.427 1_556 S
N1063 C1061 1.384 . S
H1064 C1070 0.930 . S
H1065 C1074 0.930 . S
H1066 C1079 0.929 . S
H1067 C1077 0.929 . S
H1068 C1072 0.929 . S
H1069 C1078 0.929 . S
C1070 H1064 0.930 . S
C1070 C1071 1.367 . S
C1070 C1078 1.378 . S
C1071 C1070 1.367 . S
C1071 C1079 1.433 . S
C1072 H1068 0.929 . S
C1072 C1074 1.378 . S
C1072 C1076 1.350 . S
C1073 C1076 1.463 . S
C1073 C1078 1.350 . S
C1073 N1081 1.427 . S
C1074 H1065 0.930 . S
C1074 C1072 1.378 . S
C1074 C1075 1.367 . S
C1075 C1074 1.367 . S
C1075 C1077 1.433 . S
C1076 C1072 1.350 . S
C1076 C1073 1.463 . S
C1076 N1080 1.427 . S
C1077 H1067 0.929 . S
C1077 C1075 1.433 . S
C1077 N1080 1.384 . S
C1078 H1069 0.929 . S
C1078 C1070 1.378 . S
C1078 C1073 1.350 . S
C1079 H1066 0.929 . S
C1079 C1071 1.433 . S
C1079 N1081 1.384 . S
N1080 C1076 1.427 . S
N1080 C1077 1.384 . S
N1081 C1073 1.427 . S
N1081 C1079 1.384 . S
H1082 C1088 0.930 . S
H1083 C1092 0.930 . S
H1084 C1097 0.929 . S
H1085 C1095 0.929 . S
H1086 C1090 0.929 1_565 S
H1087 C1096 0.929 1_545 S
C1088 H1082 0.930 . S
C1088 C1089 1.367 . S
C1088 C1096 1.378 . S
C1089 C1088 1.367 . S
C1089 C1097 1.433 . S
C1090 H1086 0.929 1_545 S
C1090 C1092 1.378 . S
C1090 C1094 1.350 . S
C1091 C1094 1.463 1_565 S
C1091 C1096 1.350 . S
C1091 N1099 1.427 . S
C1092 H1083 0.930 . S
C1092 C1090 1.378 . S
C1092 C1093 1.367 . S
C1093 C1092 1.367 . S
C1093 C1095 1.433 . S
C1094 C1090 1.350 . S
C1094 C1091 1.463 1_545 S
C1094 N1098 1.427 . S
C1095 H1085 0.929 . S
C1095 C1093 1.433 . S
C1095 N1098 1.384 . S
C1096 H1087 0.929 1_565 S
C1096 C1088 1.378 . S
C1096 C1091 1.350 . S
C1097 H1084 0.929 . S
C1097 C1089 1.433 . S
C1097 N1099 1.384 . S
N1098 C1094 1.427 . S
N1098 C1095 1.384 . S
N1099 C1091 1.427 . S
N1099 C1097 1.384 . S
H1100 C1106 0.930 . S
H1101 C1110 0.930 . S
H1102 C1115 0.929 . S
H1103 C1113 0.929 . S
H1104 C1108 0.929 . S
H1105 C1114 0.929 . S
C1106 H1100 0.930 . S
C1106 C1107 1.367 . S
C1106 C1114 1.378 . S
C1107 C1106 1.367 . S
C1107 C1115 1.433 . S
C1108 H1104 0.929 . S
C1108 C1110 1.378 . S
C1108 C1112 1.350 . S
C1109 C1112 1.463 . S
C1109 C1114 1.350 . S
C1109 N1117 1.427 . S
C1110 H1101 0.930 . S
C1110 C1108 1.378 . S
C1110 C1111 1.367 . S
C1111 C1110 1.367 . S
C1111 C1113 1.433 . S
C1112 C1108 1.350 . S
C1112 C1109 1.463 . S
C1112 N1116 1.427 . S
C1113 H1103 0.929 . S
C1113 C1111 1.433 . S
C1113 N1116 1.384 . S
C1114 H1105 0.929 . S
C1114 C1106 1.378 . S
C1114 C1109 1.350 . S
C1115 H1102 0.929 . S
C1115 C1107 1.433 . S
C1115 N1117 1.384 . S
N1116 C1112 1.427 . S
N1116 C1113 1.384 . S
N1117 C1109 1.427 . S
N1117 C1115 1.384 . S
H1118 C1124 0.930 . S
H1119 C1128 0.930 . S
H1120 C1133 0.929 . S
H1121 C1131 0.929 . S
H1122 C1126 0.929 1_655 S
H1123 C1132 0.929 1_455 S
C1124 H1118 0.930 . S
C1124 C1125 1.367 . S
C1124 C1132 1.378 . S
C1125 C1124 1.367 . S
C1125 C1133 1.433 1_554 S
C1126 H1122 0.929 1_455 S
C1126 C1128 1.378 . S
C1126 C1130 1.350 . S
C1127 C1130 1.463 1_664 S
C1127 C1132 1.350 . S
C1127 N1135 1.426 1_554 S
C1128 H1119 0.930 . S
C1128 C1126 1.378 . S
C1128 C1129 1.367 . S
C1129 C1128 1.367 . S
C1129 C1131 1.433 1_556 S
C1130 C1126 1.350 . S
C1130 C1127 1.463 1_446 S
C1130 N1134 1.426 1_556 S
C1131 H1121 0.929 . S
C1131 C1129 1.433 1_554 S
C1131 N1134 1.381 . S
C1132 H1123 0.929 1_655 S
C1132 C1124 1.378 . S
C1132 C1127 1.350 . S
C1133 H1120 0.929 . S
C1133 C1125 1.433 1_556 S
C1133 N1135 1.381 . S
N1134 C1130 1.426 1_554 S
N1134 C1131 1.381 . S
N1135 C1127 1.426 1_556 S
N1135 C1133 1.381 . S
H1136 C1142 0.930 . S
H1137 C1146 0.930 . S
H1138 C1151 0.929 . S
H1139 C1149 0.929 . S
H1140 C1144 0.929 . S
H1141 C1150 0.929 . S
C1142 H1136 0.930 . S
C1142 C1143 1.367 . S
C1142 C1150 1.378 . S
C1143 C1142 1.367 . S
C1143 C1151 1.433 . S
C1144 H1140 0.929 . S
C1144 C1146 1.378 . S
C1144 C1148 1.350 . S
C1145 C1148 1.463 . S
C1145 C1150 1.350 . S
C1145 N1153 1.427 . S
C1146 H1137 0.930 . S
C1146 C1144 1.378 . S
C1146 C1147 1.367 . S
C1147 C1146 1.367 . S
C1147 C1149 1.433 . S
C1148 C1144 1.350 . S
C1148 C1145 1.463 . S
C1148 N1152 1.427 . S
C1149 H1139 0.929 . S
C1149 C1147 1.433 . S
C1149 N1152 1.384 . S
C1150 H1141 0.929 . S
C1150 C1142 1.378 . S
C1150 C1145 1.350 . S
C1151 H1138 0.929 . S
C1151 C1143 1.433 . S
C1151 N1153 1.384 . S
N1152 C1148 1.427 . S
N1152 C1149 1.384 . S
N1153 C1145 1.427 . S
N1153 C1151 1.384 . S
H1154 C1160 0.930 . S
H1155 C1164 0.930 . S
H1156 C1169 0.929 . S
H1157 C1167 0.929 . S
H1158 C1162 0.929 . S
H1159 C1168 0.929 . S
C1160 H1154 0.930 . S
C1160 C1161 1.367 . S
C1160 C1168 1.378 . S
C1161 C1160 1.367 . S
C1161 C1169 1.433 . S
C1162 H1158 0.929 . S
C1162 C1164 1.378 . S
C1162 C1166 1.350 . S
C1163 C1166 1.463 . S
C1163 C1168 1.350 . S
C1163 N1171 1.427 . S
C1164 H1155 0.930 . S
C1164 C1162 1.378 . S
C1164 C1165 1.367 . S
C1165 C1164 1.367 . S
C1165 C1167 1.433 . S
C1166 C1162 1.350 . S
C1166 C1163 1.463 . S
C1166 N1170 1.427 . S
C1167 H1157 0.929 . S
C1167 C1165 1.433 . S
C1167 N1170 1.384 . S
C1168 H1159 0.929 . S
C1168 C1160 1.378 . S
C1168 C1163 1.350 . S
C1169 H1156 0.929 . S
C1169 C1161 1.433 . S
C1169 N1171 1.384 . S
N1170 C1166 1.427 . S
N1170 C1167 1.384 . S
N1171 C1163 1.427 . S
N1171 C1169 1.384 . S
H1172 C1178 0.930 . S
H1173 C1182 0.930 . S
H1174 C1187 0.929 . S
H1175 C1185 0.929 . S
H1176 C1180 0.929 . S
H1177 C1186 0.929 . S
C1178 H1172 0.930 . S
C1178 C1179 1.367 . S
C1178 C1186 1.378 . S
C1179 C1178 1.367 . S
C1179 C1187 1.433 . S
C1180 H1176 0.929 . S
C1180 C1182 1.378 . S
C1180 C1184 1.350 . S
C1181 C1184 1.463 . S
C1181 C1186 1.350 . S
C1181 N1189 1.427 . S
C1182 H1173 0.930 . S
C1182 C1180 1.378 . S
C1182 C1183 1.367 . S
C1183 C1182 1.367 . S
C1183 C1185 1.433 . S
C1184 C1180 1.350 . S
C1184 C1181 1.463 . S
C1184 N1188 1.427 . S
C1185 H1175 0.929 . S
C1185 C1183 1.433 . S
C1185 N1188 1.384 . S
C1186 H1177 0.929 . S
C1186 C1178 1.378 . S
C1186 C1181 1.350 . S
C1187 H1174 0.929 . S
C1187 C1179 1.433 . S
C1187 N1189 1.384 . S
N1188 C1184 1.427 . S
N1188 C1185 1.384 . S
N1189 C1181 1.427 . S
N1189 C1187 1.384 . S
H1190 C1196 0.930 . S
H1191 C1200 0.930 . S
H1192 C1205 0.929 . S
H1193 C1203 0.929 . S
H1194 C1198 0.929 . S
H1195 C1204 0.929 . S
C1196 H1190 0.930 . S
C1196 C1197 1.367 . S
C1196 C1204 1.378 . S
C1197 C1196 1.367 . S
C1197 C1205 1.433 . S
C1198 H1194 0.929 . S
C1198 C1200 1.378 . S
C1198 C1202 1.350 . S
C1199 C1202 1.463 . S
C1199 C1204 1.350 . S
C1199 N1207 1.427 . S
C1200 H1191 0.930 . S
C1200 C1198 1.378 . S
C1200 C1201 1.367 . S
C1201 C1200 1.367 . S
C1201 C1203 1.433 . S
C1202 C1198 1.350 . S
C1202 C1199 1.463 . S
C1202 N1206 1.427 . S
C1203 H1193 0.929 . S
C1203 C1201 1.433 . S
C1203 N1206 1.384 . S
C1204 H1195 0.929 . S
C1204 C1196 1.378 . S
C1204 C1199 1.350 . S
C1205 H1192 0.929 . S
C1205 C1197 1.433 . S
C1205 N1207 1.384 . S
N1206 C1202 1.427 . S
N1206 C1203 1.384 . S
N1207 C1199 1.427 . S
N1207 C1205 1.384 . S
H1208 C1214 0.930 . S
H1209 C1218 0.930 . S
H1210 C1223 0.929 . S
H1211 C1221 0.929 . S
H1212 C1216 0.929 . S
H1213 C1222 0.929 . S
C1214 H1208 0.930 . S
C1214 C1215 1.367 . S
C1214 C1222 1.378 . S
C1215 C1214 1.367 . S
C1215 C1223 1.433 1_554 S
C1216 H1212 0.929 . S
C1216 C1218 1.378 . S
C1216 C1220 1.350 . S
C1217 C1220 1.463 1_554 S
C1217 C1222 1.350 . S
C1217 N1225 1.427 1_554 S
C1218 H1209 0.930 . S
C1218 C1216 1.378 . S
C1218 C1219 1.367 . S
C1219 C1218 1.367 . S
C1219 C1221 1.433 1_556 S
C1220 C1216 1.350 . S
C1220 C1217 1.463 1_556 S
C1220 N1224 1.427 1_556 S
C1221 H1211 0.929 . S
C1221 C1219 1.433 1_554 S
C1221 N1224 1.384 . S
C1222 H1213 0.929 . S
C1222 C1214 1.378 . S
C1222 C1217 1.350 . S
C1223 H1210 0.929 . S
C1223 C1215 1.433 1_556 S
C1223 N1225 1.384 . S
N1224 C1220 1.427 1_554 S
N1224 C1221 1.384 . S
N1225 C1217 1.427 1_556 S
N1225 C1223 1.384 . S
H1226 C1232 0.930 . S
H1227 C1236 0.930 . S
H1228 C1241 0.929 . S
H1229 C1239 0.929 . S
H1230 C1234 0.929 . S
H1231 C1240 0.929 . S
C1232 H1226 0.930 . S
C1232 C1233 1.367 . S
C1232 C1240 1.378 . S
C1233 C1232 1.367 . S
C1233 C1241 1.433 . S
C1234 H1230 0.929 . S
C1234 C1236 1.378 . S
C1234 C1238 1.350 . S
C1235 C1238 1.463 1_455 S
C1235 C1240 1.350 . S
C1235 N1243 1.427 . S
C1236 H1227 0.930 . S
C1236 C1234 1.378 . S
C1236 C1237 1.367 . S
C1237 C1236 1.367 . S
C1237 C1239 1.433 . S
C1238 C1234 1.350 . S
C1238 C1235 1.463 1_655 S
C1238 N1242 1.427 . S
C1239 H1229 0.929 . S
C1239 C1237 1.433 . S
C1239 N1242 1.384 . S
C1240 H1231 0.929 . S
C1240 C1232 1.378 . S
C1240 C1235 1.350 . S
C1241 H1228 0.929 . S
C1241 C1233 1.433 . S
C1241 N1243 1.384 . S
N1242 C1238 1.427 . S
N1242 C1239 1.384 . S
N1243 C1235 1.427 . S
N1243 C1241 1.384 . S
H1244 C1250 0.930 . S
H1245 C1254 0.930 . S
H1246 C1259 0.929 . S
H1247 C1257 0.929 . S
H1248 C1252 0.929 . S
H1249 C1258 0.929 . S
C1250 H1244 0.930 . S
C1250 C1251 1.367 1_556 S
C1250 C1258 1.378 . S
C1251 C1250 1.367 1_554 S
C1251 C1259 1.433 . S
C1252 H1248 0.929 . S
C1252 C1254 1.378 . S
C1252 C1256 1.350 1_554 S
C1253 C1256 1.463 1_454 S
C1253 C1258 1.350 1_554 S
C1253 N1261 1.427 . S
C1254 H1245 0.930 . S
C1254 C1252 1.378 . S
C1254 C1255 1.367 1_554 S
C1255 C1254 1.367 1_556 S
C1255 C1257 1.433 . S
C1256 C1252 1.350 1_556 S
C1256 C1253 1.463 1_656 S
C1256 N1260 1.427 . S
C1257 H1247 0.929 . S
C1257 C1255 1.433 . S
C1257 N1260 1.384 . S
C1258 H1249 0.929 . S
C1258 C1250 1.378 . S
C1258 C1253 1.350 1_556 S
C1259 H1246 0.929 . S
C1259 C1251 1.433 . S
C1259 N1261 1.384 . S
N1260 C1256 1.427 . S
N1260 C1257 1.384 . S
N1261 C1253 1.427 . S
N1261 C1259 1.384 . S
H1262 C1268 0.930 . S
H1263 C1272 0.930 . S
H1264 C1277 0.929 . S
H1265 C1275 0.929 . S
H1266 C1270 0.929 . S
H1267 C1276 0.929 . S
C1268 H1262 0.930 . S
C1268 C1269 1.367 . S
C1268 C1276 1.378 . S
C1269 C1268 1.367 . S
C1269 C1277 1.433 . S
C1270 H1266 0.929 . S
C1270 C1272 1.378 . S
C1270 C1274 1.350 . S
C1271 C1274 1.463 . S
C1271 C1276 1.350 . S
C1271 N1279 1.427 . S
C1272 H1263 0.930 . S
C1272 C1270 1.378 . S
C1272 C1273 1.367 . S
C1273 C1272 1.367 . S
C1273 C1275 1.433 . S
C1274 C1270 1.350 . S
C1274 C1271 1.463 . S
C1274 N1278 1.427 . S
C1275 H1265 0.929 . S
C1275 C1273 1.433 . S
C1275 N1278 1.384 . S
C1276 H1267 0.929 . S
C1276 C1268 1.378 . S
C1276 C1271 1.350 . S
C1277 H1264 0.929 . S
C1277 C1269 1.433 . S
C1277 N1279 1.384 . S
N1278 C1274 1.427 . S
N1278 C1275 1.384 . S
N1279 C1271 1.427 . S
N1279 C1277 1.384 . S
H1280 C1286 0.930 . S
H1281 C1290 0.930 . S
H1282 C1295 0.929 . S
H1283 C1293 0.929 . S
H1284 C1288 0.929 . S
H1285 C1294 0.929 . S
C1286 H1280 0.930 . S
C1286 C1287 1.367 . S
C1286 C1294 1.378 . S
C1287 C1286 1.367 . S
C1287 C1295 1.433 . S
C1288 H1284 0.929 . S
C1288 C1290 1.378 . S
C1288 C1292 1.350 . S
C1289 C1292 1.463 . S
C1289 C1294 1.350 . S
C1289 N1297 1.427 . S
C1290 H1281 0.930 . S
C1290 C1288 1.378 . S
C1290 C1291 1.367 . S
C1291 C1290 1.367 . S
C1291 C1293 1.433 . S
C1292 C1288 1.350 . S
C1292 C1289 1.463 . S
C1292 N1296 1.427 . S
C1293 H1283 0.929 . S
C1293 C1291 1.433 . S
C1293 N1296 1.384 . S
C1294 H1285 0.929 . S
C1294 C1286 1.378 . S
C1294 C1289 1.350 . S
C1295 H1282 0.929 . S
C1295 C1287 1.433 . S
C1295 N1297 1.384 . S
N1296 C1292 1.427 . S
N1296 C1293 1.384 . S
N1297 C1289 1.427 . S
N1297 C1295 1.384 . S
H1298 C1304 0.930 . S
H1299 C1308 0.930 . S
H1300 C1313 0.929 . S
H1301 C1311 0.929 . S
H1302 C1306 0.929 . S
H1303 C1312 0.929 . S
C1304 H1298 0.930 . S
C1304 C1305 1.367 1_655 S
C1304 C1312 1.378 . S
C1305 C1304 1.367 1_455 S
C1305 C1313 1.433 . S
C1306 H1302 0.929 . S
C1306 C1308 1.378 . S
C1306 C1310 1.350 . S
C1307 C1310 1.463 . S
C1307 C1312 1.350 . S
C1307 N1315 1.427 1_655 S
C1308 H1299 0.930 . S
C1308 C1306 1.378 . S
C1308 C1309 1.367 . S
C1309 C1308 1.367 . S
C1309 C1311 1.433 . S
C1310 C1306 1.350 . S
C1310 C1307 1.463 . S
C1310 N1314 1.427 . S
C1311 H1301 0.929 . S
C1311 C1309 1.433 . S
C1311 N1314 1.384 . S
C1312 H1303 0.929 . S
C1312 C1304 1.378 . S
C1312 C1307 1.350 . S
C1313 H1300 0.929 . S
C1313 C1305 1.433 . S
C1313 N1315 1.384 . S
N1314 C1310 1.427 . S
N1314 C1311 1.384 . S
N1315 C1307 1.427 1_455 S
N1315 C1313 1.384 . S
H1316 C1322 0.930 . S
H1317 C1326 0.930 . S
H1318 C1331 0.929 . S
H1319 C1329 0.929 . S
H1320 C1324 0.929 . S
H1321 C1330 0.929 . S
C1322 H1316 0.930 . S
C1322 C1323 1.367 . S
C1322 C1330 1.378 . S
C1323 C1322 1.367 . S
C1323 C1331 1.433 . S
C1324 H1320 0.929 . S
C1324 C1326 1.378 . S
C1324 C1328 1.350 . S
C1325 C1328 1.463 . S
C1325 C1330 1.350 . S
C1325 N1333 1.427 . S
C1326 H1317 0.930 . S
C1326 C1324 1.378 . S
C1326 C1327 1.367 . S
C1327 C1326 1.367 . S
C1327 C1329 1.433 . S
C1328 C1324 1.350 . S
C1328 C1325 1.463 . S
C1328 N1332 1.427 . S
C1329 H1319 0.929 . S
C1329 C1327 1.433 . S
C1329 N1332 1.384 . S
C1330 H1321 0.929 . S
C1330 C1322 1.378 . S
C1330 C1325 1.350 . S
C1331 H1318 0.929 . S
C1331 C1323 1.433 . S
C1331 N1333 1.384 . S
N1332 C1328 1.427 . S
N1332 C1329 1.384 . S
N1333 C1325 1.427 . S
N1333 C1331 1.384 . S
H1334 C1340 0.930 . S
H1335 C1344 0.930 . S
H1336 C1349 0.929 . S
H1337 C1347 0.929 . S
H1338 C1342 0.929 . S
H1339 C1348 0.929 . S
C1340 H1334 0.930 . S
C1340 C1341 1.367 . S
C1340 C1348 1.378 . S
C1341 C1340 1.367 . S
C1341 C1349 1.433 . S
C1342 H1338 0.929 . S
C1342 C1344 1.378 . S
C1342 C1346 1.350 . S
C1343 C1346 1.463 . S
C1343 C1348 1.350 . S
C1343 N1351 1.427 . S
C1344 H1335 0.930 . S
C1344 C1342 1.378 . S
C1344 C1345 1.367 . S
C1345 C1344 1.367 . S
C1345 C1347 1.433 . S
C1346 C1342 1.350 . S
C1346 C1343 1.463 . S
C1346 N1350 1.427 . S
C1347 H1337 0.929 . S
C1347 C1345 1.433 . S
C1347 N1350 1.384 . S
C1348 H1339 0.929 . S
C1348 C1340 1.378 . S
C1348 C1343 1.350 . S
C1349 H1336 0.929 . S
C1349 C1341 1.433 . S
C1349 N1351 1.384 . S
N1350 C1346 1.427 . S
N1350 C1347 1.384 . S
N1351 C1343 1.427 . S
N1351 C1349 1.384 . S
H1352 C1358 0.930 . S
H1353 C1362 0.930 . S
H1354 C1367 0.929 . S
H1355 C1365 0.929 . S
H1356 C1360 0.929 . S
H1357 C1366 0.929 . S
C1358 H1352 0.930 . S
C1358 C1359 1.367 . S
C1358 C1366 1.378 . S
C1359 C1358 1.367 . S
C1359 C1367 1.433 . S
C1360 H1356 0.929 . S
C1360 C1362 1.378 . S
C1360 C1364 1.350 . S
C1361 C1364 1.463 . S
C1361 C1366 1.350 . S
C1361 N1369 1.427 . S
C1362 H1353 0.930 . S
C1362 C1360 1.378 . S
C1362 C1363 1.367 . S
C1363 C1362 1.367 . S
C1363 C1365 1.433 . S
C1364 C1360 1.350 . S
C1364 C1361 1.463 . S
C1364 N1368 1.427 . S
C1365 H1355 0.929 . S
C1365 C1363 1.433 . S
C1365 N1368 1.384 . S
C1366 H1357 0.929 . S
C1366 C1358 1.378 . S
C1366 C1361 1.350 . S
C1367 H1354 0.929 . S
C1367 C1359 1.433 . S
C1367 N1369 1.384 . S
N1368 C1364 1.427 . S
N1368 C1365 1.384 . S
N1369 C1361 1.427 . S
N1369 C1367 1.384 . S
H1370 C1376 0.930 . S
H1371 C1380 0.930 . S
H1372 C1385 0.929 . S
H1373 C1383 0.929 . S
H1374 C1378 0.929 . S
H1375 C1384 0.929 . S
C1376 H1370 0.930 . S
C1376 C1377 1.367 . S
C1376 C1384 1.378 . S
C1377 C1376 1.367 . S
C1377 C1385 1.433 . S
C1378 H1374 0.929 . S
C1378 C1380 1.378 . S
C1378 C1382 1.350 . S
C1379 C1382 1.463 . S
C1379 C1384 1.350 . S
C1379 N1387 1.427 . S
C1380 H1371 0.930 . S
C1380 C1378 1.378 . S
C1380 C1381 1.367 . S
C1381 C1380 1.367 . S
C1381 C1383 1.433 . S
C1382 C1378 1.350 . S
C1382 C1379 1.463 . S
C1382 N1386 1.427 . S
C1383 H1373 0.929 . S
C1383 C1381 1.433 . S
C1383 N1386 1.384 . S
C1384 H1375 0.929 . S
C1384 C1376 1.378 . S
C1384 C1379 1.350 . S
C1385 H1372 0.929 . S
C1385 C1377 1.433 . S
C1385 N1387 1.384 . S
N1386 C1382 1.427 . S
N1386 C1383 1.384 . S
N1387 C1379 1.427 . S
N1387 C1385 1.384 . S
H1388 C1394 0.930 . S
H1389 C1398 0.930 . S
H1390 C1403 0.929 . S
H1391 C1401 0.929 . S
H1392 C1396 0.929 . S
H1393 C1402 0.929 . S
C1394 H1388 0.930 . S
C1394 C1395 1.367 . S
C1394 C1402 1.378 . S
C1395 C1394 1.367 . S
C1395 C1403 1.433 . S
C1396 H1392 0.929 . S
C1396 C1398 1.378 . S
C1396 C1400 1.350 . S
C1397 C1400 1.463 . S
C1397 C1402 1.350 . S
C1397 N1405 1.427 . S
C1398 H1389 0.930 . S
C1398 C1396 1.378 . S
C1398 C1399 1.367 . S
C1399 C1398 1.367 . S
C1399 C1401 1.433 . S
C1400 C1396 1.350 . S
C1400 C1397 1.463 . S
C1400 N1404 1.427 . S
C1401 H1391 0.929 . S
C1401 C1399 1.433 . S
C1401 N1404 1.384 . S
C1402 H1393 0.929 . S
C1402 C1394 1.378 . S
C1402 C1397 1.350 . S
C1403 H1390 0.929 . S
C1403 C1395 1.433 . S
C1403 N1405 1.384 . S
N1404 C1400 1.427 . S
N1404 C1401 1.384 . S
N1405 C1397 1.427 . S
N1405 C1403 1.384 . S
H1406 C1412 0.930 . S
H1407 C1416 0.930 . S
H1408 C1421 0.929 . S
H1409 C1419 0.929 . S
H1410 C1414 0.929 . S
H1411 C1420 0.929 . S
C1412 H1406 0.930 . S
C1412 C1413 1.367 . S
C1412 C1420 1.378 . S
C1413 C1412 1.367 . S
C1413 C1421 1.433 . S
C1414 H1410 0.929 . S
C1414 C1416 1.378 . S
C1414 C1418 1.350 1_455 S
C1415 C1418 1.463 . S
C1415 C1420 1.350 . S
C1415 N1423 1.427 . S
C1416 H1407 0.930 . S
C1416 C1414 1.378 . S
C1416 C1417 1.367 . S
C1417 C1416 1.367 . S
C1417 C1419 1.433 1_455 S
C1418 C1414 1.350 1_655 S
C1418 C1415 1.463 . S
C1418 N1422 1.427 . S
C1419 H1409 0.929 . S
C1419 C1417 1.433 1_655 S
C1419 N1422 1.384 . S
C1420 H1411 0.929 . S
C1420 C1412 1.378 . S
C1420 C1415 1.350 . S
C1421 H1408 0.929 . S
C1421 C1413 1.433 . S
C1421 N1423 1.384 . S
N1422 C1418 1.427 . S
N1422 C1419 1.384 . S
N1423 C1415 1.427 . S
N1423 C1421 1.384 . S
H1424 C1430 0.930 . S
H1425 C1434 0.930 . S
H1426 C1439 0.929 . S
H1427 C1437 0.929 . S
H1428 C1432 0.929 . S
H1429 C1438 0.929 . S
C1430 H1424 0.930 . S
C1430 C1431 1.367 . S
C1430 C1438 1.378 . S
C1431 C1430 1.367 . S
C1431 C1439 1.433 . S
C1432 H1428 0.929 . S
C1432 C1434 1.378 . S
C1432 C1436 1.350 . S
C1433 C1436 1.463 . S
C1433 C1438 1.350 . S
C1433 N1441 1.427 . S
C1434 H1425 0.930 . S
C1434 C1432 1.378 . S
C1434 C1435 1.367 . S
C1435 C1434 1.367 . S
C1435 C1437 1.433 . S
C1436 C1432 1.350 . S
C1436 C1433 1.463 . S
C1436 N1440 1.427 . S
C1437 H1427 0.929 . S
C1437 C1435 1.433 . S
C1437 N1440 1.384 . S
C1438 H1429 0.929 . S
C1438 C1430 1.378 . S
C1438 C1433 1.350 . S
C1439 H1426 0.929 . S
C1439 C1431 1.433 . S
C1439 N1441 1.384 . S
N1440 C1436 1.427 . S
N1440 C1437 1.384 . S
N1441 C1433 1.427 . S
N1441 C1439 1.384 . S
H1442 C1448 0.930 . S
H1443 C1452 0.930 . S
H1444 C1457 0.929 . S
H1445 C1455 0.929 . S
H1446 C1450 0.929 . S
H1447 C1456 0.929 . S
C1448 H1442 0.930 . S
C1448 C1449 1.367 . S
C1448 C1456 1.378 1_655 S
C1449 C1448 1.367 . S
C1449 C1457 1.433 . S
C1450 H1446 0.929 . S
C1450 C1452 1.378 . S
C1450 C1454 1.350 . S
C1451 C1454 1.463 . S
C1451 C1456 1.350 . S
C1451 N1459 1.427 . S
C1452 H1443 0.930 . S
C1452 C1450 1.378 . S
C1452 C1453 1.367 . S
C1453 C1452 1.367 . S
C1453 C1455 1.433 . S
C1454 C1450 1.350 . S
C1454 C1451 1.463 . S
C1454 N1458 1.427 . S
C1455 H1445 0.929 . S
C1455 C1453 1.433 . S
C1455 N1458 1.384 . S
C1456 H1447 0.929 . S
C1456 C1448 1.378 1_455 S
C1456 C1451 1.350 . S
C1457 H1444 0.929 . S
C1457 C1449 1.433 . S
C1457 N1459 1.384 1_655 S
N1458 C1454 1.427 . S
N1458 C1455 1.384 . S
N1459 C1451 1.427 . S
N1459 C1457 1.384 1_455 S
H1460 C1466 0.930 . S
H1461 C1470 0.930 . S
H1462 C1475 0.929 . S
H1463 C1473 0.929 . S
H1464 C1468 0.929 . S
H1465 C1474 0.929 . S
C1466 H1460 0.930 . S
C1466 C1467 1.367 . S
C1466 C1474 1.378 . S
C1467 C1466 1.367 . S
C1467 C1475 1.433 . S
C1468 H1464 0.929 . S
C1468 C1470 1.378 . S
C1468 C1472 1.350 . S
C1469 C1472 1.463 . S
C1469 C1474 1.350 . S
C1469 N1477 1.427 . S
C1470 H1461 0.930 . S
C1470 C1468 1.378 . S
C1470 C1471 1.367 . S
C1471 C1470 1.367 . S
C1471 C1473 1.433 . S
C1472 C1468 1.350 . S
C1472 C1469 1.463 . S
C1472 N1476 1.427 . S
C1473 H1463 0.929 . S
C1473 C1471 1.433 . S
C1473 N1476 1.384 . S
C1474 H1465 0.929 . S
C1474 C1466 1.378 . S
C1474 C1469 1.350 . S
C1475 H1462 0.929 . S
C1475 C1467 1.433 . S
C1475 N1477 1.384 . S
N1476 C1472 1.427 . S
N1476 C1473 1.384 . S
N1477 C1469 1.427 . S
N1477 C1475 1.384 . S
H1478 C1484 0.930 . S
H1479 C1488 0.930 . S
H1480 C1493 0.929 . S
H1481 C1491 0.929 . S
H1482 C1486 0.929 . S
H1483 C1492 0.929 . S
C1484 H1478 0.930 . S
C1484 C1485 1.367 . S
C1484 C1492 1.378 . S
C1485 C1484 1.367 . S
C1485 C1493 1.433 . S
C1486 H1482 0.929 . S
C1486 C1488 1.378 . S
C1486 C1490 1.350 . S
C1487 C1490 1.463 . S
C1487 C1492 1.350 . S
C1487 N1495 1.427 . S
C1488 H1479 0.930 . S
C1488 C1486 1.378 . S
C1488 C1489 1.367 . S
C1489 C1488 1.367 . S
C1489 C1491 1.433 . S
C1490 C1486 1.350 . S
C1490 C1487 1.463 . S
C1490 N1494 1.427 . S
C1491 H1481 0.929 . S
C1491 C1489 1.433 . S
C1491 N1494 1.384 . S
C1492 H1483 0.929 . S
C1492 C1484 1.378 . S
C1492 C1487 1.350 . S
C1493 H1480 0.929 . S
C1493 C1485 1.433 . S
C1493 N1495 1.384 . S
N1494 C1490 1.427 . S
N1494 C1491 1.384 . S
N1495 C1487 1.427 . S
N1495 C1493 1.384 . S
H1496 C1502 0.930 . S
H1497 C1506 0.930 . S
H1498 C1511 0.929 . S
H1499 C1509 0.929 . S
H1500 C1504 0.929 . S
H1501 C1510 0.929 . S
C1502 H1496 0.930 . S
C1502 C1503 1.367 . S
C1502 C1510 1.378 . S
C1503 C1502 1.367 . S
C1503 C1511 1.433 . S
C1504 H1500 0.929 . S
C1504 C1506 1.378 . S
C1504 C1508 1.350 . S
C1505 C1508 1.463 . S
C1505 C1510 1.350 . S
C1505 N1513 1.427 . S
C1506 H1497 0.930 . S
C1506 C1504 1.378 . S
C1506 C1507 1.367 . S
C1507 C1506 1.367 . S
C1507 C1509 1.433 . S
C1508 C1504 1.350 . S
C1508 C1505 1.463 . S
C1508 N1512 1.427 . S
C1509 H1499 0.929 . S
C1509 C1507 1.433 . S
C1509 N1512 1.384 . S
C1510 H1501 0.929 . S
C1510 C1502 1.378 . S
C1510 C1505 1.350 . S
C1511 H1498 0.929 . S
C1511 C1503 1.433 . S
C1511 N1513 1.384 . S
N1512 C1508 1.427 . S
N1512 C1509 1.384 . S
N1513 C1505 1.427 . S
N1513 C1511 1.384 . S
H1514 C1520 0.930 . S
H1515 C1524 0.930 . S
H1516 C1529 0.929 . S
H1517 C1527 0.929 . S
H1518 C1522 0.929 . S
H1519 C1528 0.929 . S
C1520 H1514 0.930 . S
C1520 C1521 1.367 . S
C1520 C1528 1.378 . S
C1521 C1520 1.367 . S
C1521 C1529 1.433 . S
C1522 H1518 0.929 . S
C1522 C1524 1.378 . S
C1522 C1526 1.350 . S
C1523 C1526 1.463 . S
C1523 C1528 1.350 . S
C1523 N1531 1.427 . S
C1524 H1515 0.930 . S
C1524 C1522 1.378 . S
C1524 C1525 1.367 . S
C1525 C1524 1.367 . S
C1525 C1527 1.433 . S
C1526 C1522 1.350 . S
C1526 C1523 1.463 . S
C1526 N1530 1.427 . S
C1527 H1517 0.929 . S
C1527 C1525 1.433 . S
C1527 N1530 1.384 . S
C1528 H1519 0.929 . S
C1528 C1520 1.378 . S
C1528 C1523 1.350 . S
C1529 H1516 0.929 . S
C1529 C1521 1.433 . S
C1529 N1531 1.384 . S
N1530 C1526 1.427 . S
N1530 C1527 1.384 . S
N1531 C1523 1.427 . S
N1531 C1529 1.384 . S
H1532 C1538 0.930 . S
H1533 C1542 0.930 . S
H1534 C1547 0.929 . S
H1535 C1545 0.929 . S
H1536 C1540 0.929 . S
H1537 C1546 0.929 . S
C1538 H1532 0.930 . S
C1538 C1539 1.367 . S
C1538 C1546 1.378 . S
C1539 C1538 1.367 . S
C1539 C1547 1.433 . S
C1540 H1536 0.929 . S
C1540 C1542 1.378 . S
C1540 C1544 1.350 . S
C1541 C1544 1.463 . S
C1541 C1546 1.350 . S
C1541 N1549 1.427 . S
C1542 H1533 0.930 . S
C1542 C1540 1.378 . S
C1542 C1543 1.367 . S
C1543 C1542 1.367 . S
C1543 C1545 1.433 . S
C1544 C1540 1.350 . S
C1544 C1541 1.463 . S
C1544 N1548 1.427 . S
C1545 H1535 0.929 . S
C1545 C1543 1.433 . S
C1545 N1548 1.384 . S
C1546 H1537 0.929 . S
C1546 C1538 1.378 . S
C1546 C1541 1.350 . S
C1547 H1534 0.929 . S
C1547 C1539 1.433 . S
C1547 N1549 1.384 . S
N1548 C1544 1.427 . S
N1548 C1545 1.384 . S
N1549 C1541 1.427 . S
N1549 C1547 1.384 . S
H1550 C1556 0.930 . S
H1551 C1560 0.930 . S
H1552 C1565 0.929 . S
H1553 C1563 0.929 . S
H1554 C1558 0.929 . S
H1555 C1564 0.929 . S
C1556 H1550 0.930 . S
C1556 C1557 1.367 . S
C1556 C1564 1.378 . S
C1557 C1556 1.367 . S
C1557 C1565 1.433 . S
C1558 H1554 0.929 . S
C1558 C1560 1.378 1_455 S
C1558 C1562 1.350 . S
C1559 C1562 1.463 . S
C1559 C1564 1.350 . S
C1559 N1567 1.427 . S
C1560 H1551 0.930 . S
C1560 C1558 1.378 1_655 S
C1560 C1561 1.367 . S
C1561 C1560 1.367 . S
C1561 C1563 1.433 . S
C1562 C1558 1.350 . S
C1562 C1559 1.463 . S
C1562 N1566 1.427 . S
C1563 H1553 0.929 . S
C1563 C1561 1.433 . S
C1563 N1566 1.384 1_655 S
C1564 H1555 0.929 . S
C1564 C1556 1.378 . S
C1564 C1559 1.350 . S
C1565 H1552 0.929 . S
C1565 C1557 1.433 . S
C1565 N1567 1.384 . S
N1566 C1562 1.427 . S
N1566 C1563 1.384 1_455 S
N1567 C1559 1.427 . S
N1567 C1565 1.384 . S
H1568 C1574 0.930 . S
H1569 C1578 0.930 . S
H1570 C1583 0.929 . S
H1571 C1581 0.929 . S
H1572 C1576 0.929 . S
H1573 C1582 0.929 . S
C1574 H1568 0.930 . S
C1574 C1575 1.367 . S
C1574 C1582 1.378 . S
C1575 C1574 1.367 . S
C1575 C1583 1.433 . S
C1576 H1572 0.929 . S
C1576 C1578 1.378 . S
C1576 C1580 1.350 . S
C1577 C1580 1.463 . S
C1577 C1582 1.350 . S
C1577 N1585 1.427 . S
C1578 H1569 0.930 . S
C1578 C1576 1.378 . S
C1578 C1579 1.367 . S
C1579 C1578 1.367 . S
C1579 C1581 1.433 . S
C1580 C1576 1.350 . S
C1580 C1577 1.463 . S
C1580 N1584 1.427 . S
C1581 H1571 0.929 . S
C1581 C1579 1.433 . S
C1581 N1584 1.384 . S
C1582 H1573 0.929 . S
C1582 C1574 1.378 . S
C1582 C1577 1.350 . S
C1583 H1570 0.929 . S
C1583 C1575 1.433 . S
C1583 N1585 1.384 . S
N1584 C1580 1.427 . S
N1584 C1581 1.384 . S
N1585 C1577 1.427 . S
N1585 C1583 1.384 . S
H1586 C1592 0.930 . S
H1587 C1596 0.930 . S
H1588 C1601 0.929 . S
H1589 C1599 0.929 . S
H1590 C1594 0.929 . S
H1591 C1600 0.929 . S
C1592 H1586 0.930 . S
C1592 C1593 1.367 . S
C1592 C1600 1.378 . S
C1593 C1592 1.367 . S
C1593 C1601 1.433 . S
C1594 H1590 0.929 . S
C1594 C1596 1.378 . S
C1594 C1598 1.350 . S
C1595 C1598 1.463 . S
C1595 C1600 1.350 . S
C1595 N1603 1.427 . S
C1596 H1587 0.930 . S
C1596 C1594 1.378 . S
C1596 C1597 1.367 . S
C1597 C1596 1.367 . S
C1597 C1599 1.433 . S
C1598 C1594 1.350 . S
C1598 C1595 1.463 . S
C1598 N1602 1.427 . S
C1599 H1589 0.929 . S
C1599 C1597 1.433 . S
C1599 N1602 1.384 . S
C1600 H1591 0.929 . S
C1600 C1592 1.378 . S
C1600 C1595 1.350 . S
C1601 H1588 0.929 . S
C1601 C1593 1.433 . S
C1601 N1603 1.384 . S
N1602 C1598 1.427 . S
N1602 C1599 1.384 . S
N1603 C1595 1.427 . S
N1603 C1601 1.384 . S
H1604 C1610 0.930 . S
H1605 C1614 0.930 . S
H1606 C1619 0.929 . S
H1607 C1617 0.929 . S
H1608 C1612 0.929 . S
H1609 C1618 0.929 . S
C1610 H1604 0.930 . S
C1610 C1611 1.367 . S
C1610 C1618 1.378 . S
C1611 C1610 1.367 . S
C1611 C1619 1.433 . S
C1612 H1608 0.929 . S
C1612 C1614 1.378 . S
C1612 C1616 1.350 . S
C1613 C1616 1.463 . S
C1613 C1618 1.350 . S
C1613 N1621 1.427 . S
C1614 H1605 0.930 . S
C1614 C1612 1.378 . S
C1614 C1615 1.367 . S
C1615 C1614 1.367 . S
C1615 C1617 1.433 . S
C1616 C1612 1.350 . S
C1616 C1613 1.463 . S
C1616 N1620 1.427 . S
C1617 H1607 0.929 . S
C1617 C1615 1.433 . S
C1617 N1620 1.384 . S
C1618 H1609 0.929 . S
C1618 C1610 1.378 . S
C1618 C1613 1.350 . S
C1619 H1606 0.929 . S
C1619 C1611 1.433 . S
C1619 N1621 1.384 . S
N1620 C1616 1.427 . S
N1620 C1617 1.384 . S
N1621 C1613 1.427 . S
N1621 C1619 1.384 . S
H1622 C1628 0.930 . S
H1623 C1632 0.930 . S
H1624 C1637 0.929 . S
H1625 C1635 0.929 . S
H1626 C1630 0.929 . S
H1627 C1636 0.929 . S
C1628 H1622 0.930 . S
C1628 C1629 1.367 . S
C1628 C1636 1.378 . S
C1629 C1628 1.367 . S
C1629 C1637 1.433 . S
C1630 H1626 0.929 . S
C1630 C1632 1.378 . S
C1630 C1634 1.350 . S
C1631 C1634 1.463 . S
C1631 C1636 1.350 1_455 S
C1631 N1639 1.427 . S
C1632 H1623 0.930 . S
C1632 C1630 1.378 . S
C1632 C1633 1.367 . S
C1633 C1632 1.367 . S
C1633 C1635 1.433 . S
C1634 C1630 1.350 . S
C1634 C1631 1.463 . S
C1634 N1638 1.427 . S
C1635 H1625 0.929 . S
C1635 C1633 1.433 . S
C1635 N1638 1.384 . S
C1636 H1627 0.929 . S
C1636 C1628 1.378 . S
C1636 C1631 1.350 1_655 S
C1637 H1624 0.929 . S
C1637 C1629 1.433 . S
C1637 N1639 1.384 1_655 S
N1638 C1634 1.427 . S
N1638 C1635 1.384 . S
N1639 C1631 1.427 . S
N1639 C1637 1.384 1_455 S
H1640 C1646 0.930 . S
H1641 C1650 0.930 . S
H1642 C1655 0.929 . S
H1643 C1653 0.929 . S
H1644 C1648 0.929 . S
H1645 C1654 0.929 . S
C1646 H1640 0.930 . S
C1646 C1647 1.367 . S
C1646 C1654 1.378 . S
C1647 C1646 1.367 . S
C1647 C1655 1.433 . S
C1648 H1644 0.929 . S
C1648 C1650 1.378 . S
C1648 C1652 1.350 . S
C1649 C1652 1.463 . S
C1649 C1654 1.350 . S
C1649 N1657 1.427 . S
C1650 H1641 0.930 . S
C1650 C1648 1.378 . S
C1650 C1651 1.367 . S
C1651 C1650 1.367 . S
C1651 C1653 1.433 . S
C1652 C1648 1.350 . S
C1652 C1649 1.463 . S
C1652 N1656 1.427 . S
C1653 H1643 0.929 . S
C1653 C1651 1.433 . S
C1653 N1656 1.384 . S
C1654 H1645 0.929 . S
C1654 C1646 1.378 . S
C1654 C1649 1.350 . S
C1655 H1642 0.929 . S
C1655 C1647 1.433 . S
C1655 N1657 1.384 . S
N1656 C1652 1.427 . S
N1656 C1653 1.384 . S
N1657 C1649 1.427 . S
N1657 C1655 1.384 . S
H1658 C1664 0.932 . S
H1659 C1668 0.930 . S
H1660 C1673 0.929 . S
H1661 C1671 0.929 . S
H1662 C1666 0.929 . S
H1663 C1672 0.929 . S
C1664 H1658 0.932 . S
C1664 C1665 1.353 1_455 S
C1664 C1672 1.390 . S
C1665 C1664 1.353 1_655 S
C1665 C1673 1.433 . S
C1666 H1662 0.929 . S
C1666 C1668 1.378 . S
C1666 C1670 1.350 . S
C1667 C1670 1.463 . S
C1667 C1672 1.350 . S
C1667 N1675 1.427 1_455 S
C1668 H1659 0.930 . S
C1668 C1666 1.378 . S
C1668 C1669 1.367 . S
C1669 C1668 1.367 . S
C1669 C1671 1.433 . S
C1670 C1666 1.350 . S
C1670 C1667 1.463 . S
C1670 N1674 1.427 . S
C1671 H1661 0.929 . S
C1671 C1669 1.433 . S
C1671 N1674 1.384 . S
C1672 H1663 0.929 . S
C1672 C1664 1.390 . S
C1672 C1667 1.350 . S
C1673 H1660 0.929 . S
C1673 C1665 1.433 . S
C1673 N1675 1.384 . S
N1674 C1670 1.427 . S
N1674 C1671 1.384 . S
N1675 C1667 1.427 1_655 S
N1675 C1673 1.384 . S
H1676 C1682 0.930 . S
H1677 C1686 0.930 . S
H1678 C1691 0.929 . S
H1679 C1689 0.929 . S
H1680 C1684 0.929 . S
H1681 C1690 0.929 . S
C1682 H1676 0.930 . S
C1682 C1683 1.367 . S
C1682 C1690 1.378 . S
C1683 C1682 1.367 . S
C1683 C1691 1.433 . S
C1684 H1680 0.929 . S
C1684 C1686 1.378 . S
C1684 C1688 1.350 . S
C1685 C1688 1.463 . S
C1685 C1690 1.350 . S
C1685 N1693 1.427 . S
C1686 H1677 0.930 . S
C1686 C1684 1.378 . S
C1686 C1687 1.367 . S
C1687 C1686 1.367 . S
C1687 C1689 1.433 . S
C1688 C1684 1.350 . S
C1688 C1685 1.463 . S
C1688 N1692 1.427 . S
C1689 H1679 0.929 . S
C1689 C1687 1.433 . S
C1689 N1692 1.384 . S
C1690 H1681 0.929 . S
C1690 C1682 1.378 . S
C1690 C1685 1.350 . S
C1691 H1678 0.929 . S
C1691 C1683 1.433 . S
C1691 N1693 1.384 . S
N1692 C1688 1.427 . S
N1692 C1689 1.384 . S
N1693 C1685 1.427 . S
N1693 C1691 1.384 . S
H1694 C1700 0.930 . S
H1695 C1704 0.930 . S
H1696 C1709 0.929 . S
H1697 C1707 0.929 . S
H1698 C1702 0.929 . S
H1699 C1708 0.929 . S
C1700 H1694 0.930 . S
C1700 C1701 1.367 . S
C1700 C1708 1.378 . S
C1701 C1700 1.367 . S
C1701 C1709 1.433 . S
C1702 H1698 0.929 . S
C1702 C1704 1.378 . S
C1702 C1706 1.350 . S
C1703 C1706 1.463 . S
C1703 C1708 1.350 . S
C1703 N1711 1.427 . S
C1704 H1695 0.930 . S
C1704 C1702 1.378 . S
C1704 C1705 1.367 . S
C1705 C1704 1.367 . S
C1705 C1707 1.433 . S
C1706 C1702 1.350 . S
C1706 C1703 1.463 . S
C1706 N1710 1.427 . S
C1707 H1697 0.929 . S
C1707 C1705 1.433 . S
C1707 N1710 1.384 . S
C1708 H1699 0.929 . S
C1708 C1700 1.378 . S
C1708 C1703 1.350 . S
C1709 H1696 0.929 . S
C1709 C1701 1.433 . S
C1709 N1711 1.384 . S
N1710 C1706 1.427 . S
N1710 C1707 1.384 . S
N1711 C1703 1.427 . S
N1711 C1709 1.384 . S
H1712 C1718 0.930 . S
H1713 C1722 0.930 . S
H1714 C1727 0.929 . S
H1715 C1725 0.929 . S
H1716 C1720 0.929 . S
H1717 C1726 0.929 . S
C1718 H1712 0.930 . S
C1718 C1719 1.367 . S
C1718 C1726 1.378 . S
C1719 C1718 1.367 . S
C1719 C1727 1.433 . S
C1720 H1716 0.929 . S
C1720 C1722 1.378 . S
C1720 C1724 1.350 . S
C1721 C1724 1.463 . S
C1721 C1726 1.350 . S
C1721 N1729 1.427 . S
C1722 H1713 0.930 . S
C1722 C1720 1.378 . S
C1722 C1723 1.367 . S
C1723 C1722 1.367 . S
C1723 C1725 1.433 . S
C1724 C1720 1.350 . S
C1724 C1721 1.463 . S
C1724 N1728 1.427 . S
C1725 H1715 0.929 . S
C1725 C1723 1.433 . S
C1725 N1728 1.384 . S
C1726 H1717 0.929 . S
C1726 C1718 1.378 . S
C1726 C1721 1.350 . S
C1727 H1714 0.929 . S
C1727 C1719 1.433 . S
C1727 N1729 1.384 . S
N1728 C1724 1.427 . S
N1728 C1725 1.384 . S
N1729 C1721 1.427 . S
N1729 C1727 1.384 . S
H1730 C1736 0.930 . S
H1731 C1740 0.930 . S
H1732 C1745 0.929 . S
H1733 C1743 0.929 . S
H1734 C1738 0.929 . S
H1735 C1744 0.929 . S
C1736 H1730 0.930 . S
C1736 C1737 1.367 . S
C1736 C1744 1.378 . S
C1737 C1736 1.367 . S
C1737 C1745 1.433 . S
C1738 H1734 0.929 . S
C1738 C1740 1.378 . S
C1738 C1742 1.350 . S
C1739 C1742 1.463 . S
C1739 C1744 1.350 . S
C1739 N1747 1.427 . S
C1740 H1731 0.930 . S
C1740 C1738 1.378 . S
C1740 C1741 1.367 . S
C1741 C1740 1.367 . S
C1741 C1743 1.433 . S
C1742 C1738 1.350 . S
C1742 C1739 1.463 . S
C1742 N1746 1.427 . S
C1743 H1733 0.929 . S
C1743 C1741 1.433 . S
C1743 N1746 1.384 . S
C1744 H1735 0.929 . S
C1744 C1736 1.378 . S
C1744 C1739 1.350 . S
C1745 H1732 0.929 . S
C1745 C1737 1.433 . S
C1745 N1747 1.384 . S
N1746 C1742 1.427 . S
N1746 C1743 1.384 . S
N1747 C1739 1.427 . S
N1747 C1745 1.384 . S
H1748 C1754 0.930 . S
H1749 C1758 0.930 . S
H1750 C1763 0.929 . S
H1751 C1761 0.929 . S
H1752 C1756 0.929 . S
H1753 C1762 0.929 . S
C1754 H1748 0.930 . S
C1754 C1755 1.367 . S
C1754 C1762 1.378 . S
C1755 C1754 1.367 . S
C1755 C1763 1.433 . S
C1756 H1752 0.929 . S
C1756 C1758 1.378 . S
C1756 C1760 1.350 . S
C1757 C1760 1.463 . S
C1757 C1762 1.350 . S
C1757 N1765 1.427 . S
C1758 H1749 0.930 . S
C1758 C1756 1.378 . S
C1758 C1759 1.367 . S
C1759 C1758 1.367 . S
C1759 C1761 1.433 . S
C1760 C1756 1.350 . S
C1760 C1757 1.463 . S
C1760 N1764 1.427 . S
C1761 H1751 0.929 . S
C1761 C1759 1.433 . S
C1761 N1764 1.384 . S
C1762 H1753 0.929 . S
C1762 C1754 1.378 . S
C1762 C1757 1.350 . S
C1763 H1750 0.929 . S
C1763 C1755 1.433 . S
C1763 N1765 1.384 . S
N1764 C1760 1.427 . S
N1764 C1761 1.384 . S
N1765 C1757 1.427 . S
N1765 C1763 1.384 . S
H1766 C1772 0.930 . S
H1767 C1776 0.930 . S
H1768 C1781 0.929 . S
H1769 C1779 0.929 . S
H1770 C1774 0.929 . S
H1771 C1780 0.929 . S
C1772 H1766 0.930 . S
C1772 C1773 1.367 . S
C1772 C1780 1.378 . S
C1773 C1772 1.367 . S
C1773 C1781 1.433 . S
C1774 H1770 0.929 . S
C1774 C1776 1.378 . S
C1774 C1778 1.350 1_455 S
C1775 C1778 1.463 . S
C1775 C1780 1.350 . S
C1775 N1783 1.427 . S
C1776 H1767 0.930 . S
C1776 C1774 1.378 . S
C1776 C1777 1.367 . S
C1777 C1776 1.367 . S
C1777 C1779 1.433 1_455 S
C1778 C1774 1.350 1_655 S
C1778 C1775 1.463 . S
C1778 N1782 1.427 . S
C1779 H1769 0.929 . S
C1779 C1777 1.433 1_655 S
C1779 N1782 1.384 . S
C1780 H1771 0.929 . S
C1780 C1772 1.378 . S
C1780 C1775 1.350 . S
C1781 H1768 0.929 . S
C1781 C1773 1.433 . S
C1781 N1783 1.384 . S
N1782 C1778 1.427 . S
N1782 C1779 1.384 . S
N1783 C1775 1.427 . S
N1783 C1781 1.384 . S
H1784 C1790 0.930 . S
H1785 C1794 0.930 . S
H1786 C1799 0.929 . S
H1787 C1797 0.929 . S
H1788 C1792 0.929 . S
H1789 C1798 0.929 . S
C1790 H1784 0.930 . S
C1790 C1791 1.367 . S
C1790 C1798 1.378 . S
C1791 C1790 1.367 . S
C1791 C1799 1.433 . S
C1792 H1788 0.929 . S
C1792 C1794 1.378 . S
C1792 C1796 1.350 . S
C1793 C1796 1.463 . S
C1793 C1798 1.350 . S
C1793 N1801 1.427 . S
C1794 H1785 0.930 . S
C1794 C1792 1.378 . S
C1794 C1795 1.367 . S
C1795 C1794 1.367 . S
C1795 C1797 1.433 . S
C1796 C1792 1.350 . S
C1796 C1793 1.463 . S
C1796 N1800 1.427 . S
C1797 H1787 0.929 . S
C1797 C1795 1.433 . S
C1797 N1800 1.384 . S
C1798 H1789 0.929 . S
C1798 C1790 1.378 . S
C1798 C1793 1.350 . S
C1799 H1786 0.929 . S
C1799 C1791 1.433 . S
C1799 N1801 1.384 . S
N1800 C1796 1.427 . S
N1800 C1797 1.384 . S
N1801 C1793 1.427 . S
N1801 C1799 1.384 . S
H1802 C1808 0.930 . S
H1803 C1812 0.930 . S
H1804 C1817 0.929 . S
H1805 C1815 0.929 . S
H1806 C1810 0.929 . S
H1807 C1816 0.929 . S
C1808 H1802 0.930 . S
C1808 C1809 1.367 . S
C1808 C1816 1.378 . S
C1809 C1808 1.367 . S
C1809 C1817 1.433 . S
C1810 H1806 0.929 . S
C1810 C1812 1.378 1_655 S
C1810 C1814 1.350 . S
C1811 C1814 1.463 . S
C1811 C1816 1.350 . S
C1811 N1819 1.427 . S
C1812 H1803 0.930 . S
C1812 C1810 1.378 1_455 S
C1812 C1813 1.367 . S
C1813 C1812 1.367 . S
C1813 C1815 1.433 . S
C1814 C1810 1.350 . S
C1814 C1811 1.463 . S
C1814 N1818 1.427 . S
C1815 H1805 0.929 . S
C1815 C1813 1.433 . S
C1815 N1818 1.384 1_455 S
C1816 H1807 0.929 . S
C1816 C1808 1.378 . S
C1816 C1811 1.350 . S
C1817 H1804 0.929 . S
C1817 C1809 1.433 . S
C1817 N1819 1.384 . S
N1818 C1814 1.427 . S
N1818 C1815 1.384 1_655 S
N1819 C1811 1.427 . S
N1819 C1817 1.384 . S
H1820 C1826 0.930 . S
H1821 C1830 0.930 . S
H1822 C1835 0.929 . S
H1823 C1833 0.929 . S
H1824 C1828 0.929 . S
H1825 C1834 0.929 . S
C1826 H1820 0.930 . S
C1826 C1827 1.367 . S
C1826 C1834 1.378 . S
C1827 C1826 1.367 . S
C1827 C1835 1.433 . S
C1828 H1824 0.929 . S
C1828 C1830 1.378 . S
C1828 C1832 1.350 . S
C1829 C1832 1.463 . S
C1829 C1834 1.350 . S
C1829 N1837 1.427 . S
C1830 H1821 0.930 . S
C1830 C1828 1.378 . S
C1830 C1831 1.367 . S
C1831 C1830 1.367 . S
C1831 C1833 1.433 . S
C1832 C1828 1.350 . S
C1832 C1829 1.463 . S
C1832 N1836 1.427 . S
C1833 H1823 0.929 . S
C1833 C1831 1.433 . S
C1833 N1836 1.384 . S
C1834 H1825 0.929 . S
C1834 C1826 1.378 . S
C1834 C1829 1.350 . S
C1835 H1822 0.929 . S
C1835 C1827 1.433 . S
C1835 N1837 1.384 . S
N1836 C1832 1.427 . S
N1836 C1833 1.384 . S
N1837 C1829 1.427 . S
N1837 C1835 1.384 . S
H1838 C1844 0.930 . S
H1839 C1848 0.930 . S
H1840 C1853 0.929 . S
H1841 C1851 0.929 . S
H1842 C1846 0.929 . S
H1843 C1852 0.929 . S
C1844 H1838 0.930 . S
C1844 C1845 1.367 . S
C1844 C1852 1.378 . S
C1845 C1844 1.367 . S
C1845 C1853 1.433 . S
C1846 H1842 0.929 . S
C1846 C1848 1.378 . S
C1846 C1850 1.350 . S
C1847 C1850 1.463 . S
C1847 C1852 1.350 . S
C1847 N1855 1.427 . S
C1848 H1839 0.930 . S
C1848 C1846 1.378 . S
C1848 C1849 1.367 . S
C1849 C1848 1.367 . S
C1849 C1851 1.433 . S
C1850 C1846 1.350 . S
C1850 C1847 1.463 . S
C1850 N1854 1.427 . S
C1851 H1841 0.929 . S
C1851 C1849 1.433 . S
C1851 N1854 1.384 . S
C1852 H1843 0.929 . S
C1852 C1844 1.378 . S
C1852 C1847 1.350 . S
C1853 H1840 0.929 . S
C1853 C1845 1.433 . S
C1853 N1855 1.384 . S
N1854 C1850 1.427 . S
N1854 C1851 1.384 . S
N1855 C1847 1.427 . S
N1855 C1853 1.384 . S
H1856 C1862 0.930 . S
H1857 C1866 0.930 . S
H1858 C1871 0.929 . S
H1859 C1869 0.929 . S
H1860 C1864 0.929 . S
H1861 C1870 0.929 . S
C1862 H1856 0.930 . S
C1862 C1863 1.367 . S
C1862 C1870 1.378 . S
C1863 C1862 1.367 . S
C1863 C1871 1.433 . S
C1864 H1860 0.929 . S
C1864 C1866 1.378 . S
C1864 C1868 1.350 . S
C1865 C1868 1.463 1_455 S
C1865 C1870 1.350 . S
C1865 N1873 1.427 . S
C1866 H1857 0.930 . S
C1866 C1864 1.378 . S
C1866 C1867 1.367 . S
C1867 C1866 1.367 . S
C1867 C1869 1.433 . S
C1868 C1864 1.350 . S
C1868 C1865 1.463 1_655 S
C1868 N1872 1.427 . S
C1869 H1859 0.929 . S
C1869 C1867 1.433 . S
C1869 N1872 1.384 . S
C1870 H1861 0.929 . S
C1870 C1862 1.378 . S
C1870 C1865 1.350 . S
C1871 H1858 0.929 . S
C1871 C1863 1.433 . S
C1871 N1873 1.384 . S
N1872 C1868 1.427 . S
N1872 C1869 1.384 . S
N1873 C1865 1.427 . S
N1873 C1871 1.384 . S
H1874 C1880 0.930 . S
H1875 C1884 0.930 . S
H1876 C1889 0.929 . S
H1877 C1887 0.929 . S
H1878 C1882 0.905 1_455 S
H1879 C1888 0.905 1_655 S
C1880 H1874 0.930 . S
C1880 C1881 1.367 . S
C1880 C1888 1.378 . S
C1881 C1880 1.367 . S
C1881 C1889 1.433 . S
C1882 H1878 0.905 1_655 S
C1882 C1884 1.378 . S
C1882 C1886 1.350 . S
C1883 C1886 1.463 1_455 S
C1883 C1888 1.350 . S
C1883 N1891 1.427 . S
C1884 H1875 0.930 . S
C1884 C1882 1.378 . S
C1884 C1885 1.367 . S
C1885 C1884 1.367 . S
C1885 C1887 1.433 . S
C1886 C1882 1.350 . S
C1886 C1883 1.463 1_655 S
C1886 N1890 1.427 . S
C1887 H1877 0.929 . S
C1887 C1885 1.433 . S
C1887 N1890 1.384 . S
C1888 H1879 0.905 1_455 S
C1888 C1880 1.378 . S
C1888 C1883 1.350 . S
C1889 H1876 0.929 . S
C1889 C1881 1.433 . S
C1889 N1891 1.384 . S
N1890 C1886 1.427 . S
N1890 C1887 1.384 . S
N1891 C1883 1.427 . S
N1891 C1889 1.384 . S
H1892 C1898 0.930 . S
H1893 C1902 0.930 . S
H1894 C1907 0.929 . S
H1895 C1905 0.929 . S
H1896 C1900 0.929 . S
H1897 C1906 0.929 . S
C1898 H1892 0.930 . S
C1898 C1899 1.367 . S
C1898 C1906 1.378 . S
C1899 C1898 1.367 . S
C1899 C1907 1.433 . S
C1900 H1896 0.929 . S
C1900 C1902 1.378 . S
C1900 C1904 1.350 . S
C1901 C1904 1.463 . S
C1901 C1906 1.350 . S
C1901 N1909 1.427 . S
C1902 H1893 0.930 . S
C1902 C1900 1.378 . S
C1902 C1903 1.367 . S
C1903 C1902 1.367 . S
C1903 C1905 1.433 . S
C1904 C1900 1.350 . S
C1904 C1901 1.463 . S
C1904 N1908 1.427 . S
C1905 H1895 0.929 . S
C1905 C1903 1.433 . S
C1905 N1908 1.384 . S
C1906 H1897 0.929 . S
C1906 C1898 1.378 . S
C1906 C1901 1.350 . S
C1907 H1894 0.929 . S
C1907 C1899 1.433 . S
C1907 N1909 1.384 . S
N1908 C1904 1.427 . S
N1908 C1905 1.384 . S
N1909 C1901 1.427 . S
N1909 C1907 1.384 . S
H1910 C1916 0.930 1_556 S
H1911 C1920 0.930 . S
H1912 C1925 0.929 . S
H1913 C1923 0.929 1_556 S
H1914 C1918 0.929 . S
H1915 C1924 0.929 1_556 S
C1916 H1910 0.930 1_554 S
C1916 C1917 1.367 . S
C1916 C1924 1.378 . S
C1917 C1916 1.367 . S
C1917 C1925 1.433 . S
C1918 H1914 0.929 . S
C1918 C1920 1.378 . S
C1918 C1922 1.350 . S
C1919 C1922 1.463 . S
C1919 C1924 1.350 . S
C1919 N1927 1.427 . S
C1920 H1911 0.930 . S
C1920 C1918 1.378 . S
C1920 C1921 1.367 . S
C1921 C1920 1.367 . S
C1921 C1923 1.433 . S
C1922 C1918 1.350 . S
C1922 C1919 1.463 . S
C1922 N1926 1.427 . S
C1923 H1913 0.929 1_554 S
C1923 C1921 1.433 . S
C1923 N1926 1.384 . S
C1924 H1915 0.929 1_554 S
C1924 C1916 1.378 . S
C1924 C1919 1.350 . S
C1925 H1912 0.929 . S
C1925 C1917 1.433 . S
C1925 N1927 1.384 . S
N1926 C1922 1.427 . S
N1926 C1923 1.384 . S
N1927 C1919 1.427 . S
N1927 C1925 1.384 . S
H1928 C1934 0.930 . S
H1929 C1938 0.930 . S
H1930 C1943 0.929 . S
H1931 C1941 0.929 . S
H1932 C1936 0.929 . S
H1933 C1942 0.929 . S
C1934 H1928 0.930 . S
C1934 C1935 1.367 . S
C1934 C1942 1.378 . S
C1935 C1934 1.367 . S
C1935 C1943 1.433 . S
C1936 H1932 0.929 . S
C1936 C1938 1.378 . S
C1936 C1940 1.350 . S
C1937 C1940 1.463 1_655 S
C1937 C1942 1.350 . S
C1937 N1945 1.427 . S
C1938 H1929 0.930 . S
C1938 C1936 1.378 . S
C1938 C1939 1.367 . S
C1939 C1938 1.367 . S
C1939 C1941 1.433 . S
C1940 C1936 1.350 . S
C1940 C1937 1.463 1_455 S
C1940 N1944 1.427 . S
C1941 H1931 0.929 . S
C1941 C1939 1.433 . S
C1941 N1944 1.384 . S
C1942 H1933 0.929 . S
C1942 C1934 1.378 . S
C1942 C1937 1.350 . S
C1943 H1930 0.929 . S
C1943 C1935 1.433 . S
C1943 N1945 1.384 . S
N1944 C1940 1.427 . S
N1944 C1941 1.384 . S
N1945 C1937 1.427 . S
N1945 C1943 1.384 . S
H1946 C1952 0.930 . S
H1947 C1956 0.930 . S
H1948 C1961 0.929 . S
H1949 C1959 0.929 . S
H1950 C1954 0.929 . S
H1951 C1960 0.929 . S
C1952 H1946 0.930 . S
C1952 C1953 1.367 . S
C1952 C1960 1.378 . S
C1953 C1952 1.367 . S
C1953 C1961 1.433 . S
C1954 H1950 0.929 . S
C1954 C1956 1.378 . S
C1954 C1958 1.350 . S
C1955 C1958 1.463 . S
C1955 C1960 1.350 . S
C1955 N1963 1.427 . S
C1956 H1947 0.930 . S
C1956 C1954 1.378 . S
C1956 C1957 1.367 . S
C1957 C1956 1.367 . S
C1957 C1959 1.433 . S
C1958 C1954 1.350 . S
C1958 C1955 1.463 . S
C1958 N1962 1.427 . S
C1959 H1949 0.929 . S
C1959 C1957 1.433 . S
C1959 N1962 1.384 . S
C1960 H1951 0.929 . S
C1960 C1952 1.378 . S
C1960 C1955 1.350 . S
C1961 H1948 0.929 . S
C1961 C1953 1.433 . S
C1961 N1963 1.384 . S
N1962 C1958 1.427 . S
N1962 C1959 1.384 . S
N1963 C1955 1.427 . S
N1963 C1961 1.384 . S
H1964 C1970 0.930 . S
H1965 C1974 0.930 . S
H1966 C1979 0.929 . S
H1967 C1977 0.929 . S
H1968 C1972 0.929 . S
H1969 C1978 0.929 . S
C1970 H1964 0.930 . S
C1970 C1971 1.367 . S
C1970 C1978 1.378 . S
C1971 C1970 1.367 . S
C1971 C1979 1.433 . S
C1972 H1968 0.929 . S
C1972 C1974 1.378 . S
C1972 C1976 1.350 . S
C1973 C1976 1.463 . S
C1973 C1978 1.350 . S
C1973 N1981 1.427 . S
C1974 H1965 0.930 . S
C1974 C1972 1.378 . S
C1974 C1975 1.367 . S
C1975 C1974 1.367 . S
C1975 C1977 1.433 . S
C1976 C1972 1.350 . S
C1976 C1973 1.463 . S
C1976 N1980 1.427 . S
C1977 H1967 0.929 . S
C1977 C1975 1.433 . S
C1977 N1980 1.384 . S
C1978 H1969 0.929 . S
C1978 C1970 1.378 . S
C1978 C1973 1.350 . S
C1979 H1966 0.929 . S
C1979 C1971 1.433 . S
C1979 N1981 1.384 . S
N1980 C1976 1.427 . S
N1980 C1977 1.384 . S
N1981 C1973 1.427 . S
N1981 C1979 1.384 . S
H1982 C1988 0.930 . S
H1983 C1992 0.930 . S
H1984 C1997 0.929 . S
H1985 C1995 0.929 . S
H1986 C1990 0.929 . S
H1987 C1996 0.929 . S
C1988 H1982 0.930 . S
C1988 C1989 1.367 1_554 S
C1988 C1996 1.378 . S
C1989 C1988 1.367 1_556 S
C1989 C1997 1.433 . S
C1990 H1986 0.929 . S
C1990 C1992 1.378 . S
C1990 C1994 1.350 . S
C1991 C1994 1.463 1_655 S
C1991 C1996 1.350 1_556 S
C1991 N1999 1.427 . S
C1992 H1983 0.930 . S
C1992 C1990 1.378 . S
C1992 C1993 1.367 . S
C1993 C1992 1.367 . S
C1993 C1995 1.433 1_556 S
C1994 C1990 1.350 . S
C1994 C1991 1.463 1_455 S
C1994 N1998 1.427 1_556 S
C1995 H1985 0.929 . S
C1995 C1993 1.433 1_554 S
C1995 N1998 1.384 . S
C1996 H1987 0.929 . S
C1996 C1988 1.378 . S
C1996 C1991 1.350 1_554 S
C1997 H1984 0.929 . S
C1997 C1989 1.433 . S
C1997 N1999 1.384 . S
N1998 C1994 1.427 1_554 S
N1998 C1995 1.384 . S
N1999 C1991 1.427 . S
N1999 C1997 1.384 . S
H2000 C2006 0.930 . S
H2001 C2010 0.930 . S
H2002 C2015 0.929 . S
H2003 C2013 0.929 . S
H2004 C2008 0.929 . S
H2005 C2014 0.929 . S
C2006 H2000 0.930 . S
C2006 C2007 1.367 . S
C2006 C2014 1.378 . S
C2007 C2006 1.367 . S
C2007 C2015 1.433 . S
C2008 H2004 0.929 . S
C2008 C2010 1.378 . S
C2008 C2012 1.350 . S
C2009 C2012 1.463 1_455 S
C2009 C2014 1.350 . S
C2009 N2017 1.427 . S
C2010 H2001 0.930 . S
C2010 C2008 1.378 . S
C2010 C2011 1.367 . S
C2011 C2010 1.367 . S
C2011 C2013 1.433 . S
C2012 C2008 1.350 . S
C2012 C2009 1.463 1_655 S
C2012 N2016 1.427 . S
C2013 H2003 0.929 . S
C2013 C2011 1.433 . S
C2013 N2016 1.384 . S
C2014 H2005 0.929 . S
C2014 C2006 1.378 . S
C2014 C2009 1.350 . S
C2015 H2002 0.929 . S
C2015 C2007 1.433 . S
C2015 N2017 1.384 . S
N2016 C2012 1.427 . S
N2016 C2013 1.384 . S
N2017 C2009 1.427 . S
N2017 C2015 1.384 . S
H2018 C2024 0.930 . S
H2019 C2028 0.930 . S
H2020 C2033 0.929 . S
H2021 C2031 0.929 . S
H2022 C2026 0.929 . S
H2023 C2032 0.929 . S
C2024 H2018 0.930 . S
C2024 C2025 1.367 . S
C2024 C2032 1.378 . S
C2025 C2024 1.367 . S
C2025 C2033 1.433 . S
C2026 H2022 0.929 . S
C2026 C2028 1.378 . S
C2026 C2030 1.350 . S
C2027 C2030 1.463 1_455 S
C2027 C2032 1.350 . S
C2027 N2035 1.428 . S
C2028 H2019 0.930 . S
C2028 C2026 1.378 . S
C2028 C2029 1.367 . S
C2029 C2028 1.367 . S
C2029 C2031 1.433 . S
C2030 C2026 1.350 . S
C2030 C2027 1.463 1_655 S
C2030 N2034 1.428 . S
C2031 H2021 0.929 . S
C2031 C2029 1.433 . S
C2031 N2034 1.386 . S
C2032 H2023 0.929 . S
C2032 C2024 1.378 . S
C2032 C2027 1.350 . S
C2033 H2020 0.929 . S
C2033 C2025 1.433 . S
C2033 N2035 1.386 . S
N2034 C2030 1.428 . S
N2034 C2031 1.386 . S
N2035 C2027 1.428 . S
N2035 C2033 1.386 . S
H2036 C2042 0.930 . S
H2037 C2046 0.930 . S
H2038 C2051 0.929 . S
H2039 C2049 0.929 . S
H2040 C2044 0.929 . S
H2041 C2050 0.929 . S
C2042 H2036 0.930 . S
C2042 C2043 1.367 . S
C2042 C2050 1.378 . S
C2043 C2042 1.367 . S
C2043 C2051 1.433 . S
C2044 H2040 0.929 . S
C2044 C2046 1.378 . S
C2044 C2048 1.350 . S
C2045 C2048 1.463 . S
C2045 C2050 1.350 . S
C2045 N2053 1.427 . S
C2046 H2037 0.930 . S
C2046 C2044 1.378 . S
C2046 C2047 1.367 . S
C2047 C2046 1.367 . S
C2047 C2049 1.433 . S
C2048 C2044 1.350 . S
C2048 C2045 1.463 . S
C2048 N2052 1.427 . S
C2049 H2039 0.929 . S
C2049 C2047 1.433 . S
C2049 N2052 1.384 . S
C2050 H2041 0.929 . S
C2050 C2042 1.378 . S
C2050 C2045 1.350 . S
C2051 H2038 0.929 . S
C2051 C2043 1.433 . S
C2051 N2053 1.384 . S
N2052 C2048 1.427 . S
N2052 C2049 1.384 . S
N2053 C2045 1.427 . S
N2053 C2051 1.384 . S
H2054 C2060 0.922 1_554 S
H2055 C2064 0.930 . S
H2056 C2069 0.929 . S
H2057 C2067 0.918 1_554 S
H2058 C2062 0.929 . S
H2059 C2068 0.920 1_554 S
C2060 H2054 0.922 1_556 S
C2060 C2061 1.367 . S
C2060 C2068 1.378 . S
C2061 C2060 1.367 . S
C2061 C2069 1.433 . S
C2062 H2058 0.929 . S
C2062 C2064 1.378 . S
C2062 C2066 1.350 . S
C2063 C2066 1.463 . S
C2063 C2068 1.350 . S
C2063 N2071 1.427 . S
C2064 H2055 0.930 . S
C2064 C2062 1.378 . S
C2064 C2065 1.367 . S
C2065 C2064 1.367 . S
C2065 C2067 1.433 . S
C2066 C2062 1.350 . S
C2066 C2063 1.463 . S
C2066 N2070 1.427 . S
C2067 H2057 0.918 1_556 S
C2067 C2065 1.433 . S
C2067 N2070 1.384 . S
C2068 H2059 0.920 1_556 S
C2068 C2060 1.378 . S
C2068 C2063 1.350 . S
C2069 H2056 0.929 . S
C2069 C2061 1.433 . S
C2069 N2071 1.384 . S
N2070 C2066 1.427 . S
N2070 C2067 1.384 . S
N2071 C2063 1.427 . S
N2071 C2069 1.384 . S
H2072 C2078 0.930 . S
H2073 C2082 0.930 . S
H2074 C2087 0.929 . S
H2075 C2085 0.929 . S
H2076 C2080 0.929 . S
H2077 C2086 0.929 . S
C2078 H2072 0.930 . S
C2078 C2079 1.367 . S
C2078 C2086 1.378 . S
C2079 C2078 1.367 . S
C2079 C2087 1.433 . S
C2080 H2076 0.929 . S
C2080 C2082 1.378 . S
C2080 C2084 1.350 . S
C2081 C2084 1.463 1_655 S
C2081 C2086 1.350 . S
C2081 N2089 1.427 . S
C2082 H2073 0.930 . S
C2082 C2080 1.378 . S
C2082 C2083 1.367 . S
C2083 C2082 1.367 . S
C2083 C2085 1.433 . S
C2084 C2080 1.350 . S
C2084 C2081 1.463 1_455 S
C2084 N2088 1.427 . S
C2085 H2075 0.929 . S
C2085 C2083 1.433 . S
C2085 N2088 1.384 . S
C2086 H2077 0.929 . S
C2086 C2078 1.378 . S
C2086 C2081 1.350 . S
C2087 H2074 0.929 . S
C2087 C2079 1.433 . S
C2087 N2089 1.384 . S
N2088 C2084 1.427 . S
N2088 C2085 1.384 . S
N2089 C2081 1.427 . S
N2089 C2087 1.384 . S
H2090 C2096 0.930 . S
H2091 C2100 0.930 . S
H2092 C2105 0.929 . S
H2093 C2103 0.929 . S
H2094 C2098 0.929 . S
H2095 C2104 0.929 . S
C2096 H2090 0.930 . S
C2096 C2097 1.367 . S
C2096 C2104 1.378 . S
C2097 C2096 1.367 . S
C2097 C2105 1.433 . S
C2098 H2094 0.929 . S
C2098 C2100 1.378 . S
C2098 C2102 1.350 . S
C2099 C2102 1.463 . S
C2099 C2104 1.350 . S
C2099 N2107 1.427 . S
C2100 H2091 0.930 . S
C2100 C2098 1.378 . S
C2100 C2101 1.367 . S
C2101 C2100 1.367 . S
C2101 C2103 1.433 . S
C2102 C2098 1.350 . S
C2102 C2099 1.463 . S
C2102 N2106 1.427 . S
C2103 H2093 0.929 . S
C2103 C2101 1.433 . S
C2103 N2106 1.384 . S
C2104 H2095 0.929 . S
C2104 C2096 1.378 . S
C2104 C2099 1.350 . S
C2105 H2092 0.929 . S
C2105 C2097 1.433 . S
C2105 N2107 1.384 . S
N2106 C2102 1.427 . S
N2106 C2103 1.384 . S
N2107 C2099 1.427 . S
N2107 C2105 1.384 . S
H2108 C2114 0.930 . S
H2109 C2118 0.930 . S
H2110 C2123 0.929 . S
H2111 C2121 0.929 . S
H2112 C2116 0.929 . S
H2113 C2122 0.929 . S
C2114 H2108 0.930 . S
C2114 C2115 1.367 . S
C2114 C2122 1.378 . S
C2115 C2114 1.367 . S
C2115 C2123 1.433 . S
C2116 H2112 0.929 . S
C2116 C2118 1.378 . S
C2116 C2120 1.350 . S
C2117 C2120 1.463 . S
C2117 C2122 1.350 . S
C2117 N2125 1.427 . S
C2118 H2109 0.930 . S
C2118 C2116 1.378 . S
C2118 C2119 1.367 . S
C2119 C2118 1.367 . S
C2119 C2121 1.433 . S
C2120 C2116 1.350 . S
C2120 C2117 1.463 . S
C2120 N2124 1.427 . S
C2121 H2111 0.929 . S
C2121 C2119 1.433 . S
C2121 N2124 1.384 . S
C2122 H2113 0.929 . S
C2122 C2114 1.378 . S
C2122 C2117 1.350 . S
C2123 H2110 0.929 . S
C2123 C2115 1.433 . S
C2123 N2125 1.384 . S
N2124 C2120 1.427 . S
N2124 C2121 1.384 . S
N2125 C2117 1.427 . S
N2125 C2123 1.384 . S
H2126 C2132 0.930 . S
H2127 C2136 0.930 . S
H2128 C2141 0.929 . S
H2129 C2139 0.929 . S
H2130 C2134 0.929 1_655 S
H2131 C2140 0.929 1_455 S
C2132 H2126 0.930 . S
C2132 C2133 1.367 . S
C2132 C2140 1.378 . S
C2133 C2132 1.367 . S
C2133 C2141 1.433 1_554 S
C2134 H2130 0.929 1_455 S
C2134 C2136 1.378 . S
C2134 C2138 1.350 1_556 S
C2135 C2138 1.463 1_655 S
C2135 C2140 1.350 . S
C2135 N2143 1.427 1_554 S
C2136 H2127 0.930 . S
C2136 C2134 1.378 . S
C2136 C2137 1.367 1_556 S
C2137 C2136 1.367 1_554 S
C2137 C2139 1.433 . S
C2138 C2134 1.350 1_554 S
C2138 C2135 1.463 1_455 S
C2138 N2142 1.427 . S
C2139 H2129 0.929 . S
C2139 C2137 1.433 . S
C2139 N2142 1.384 . S
C2140 H2131 0.929 1_655 S
C2140 C2132 1.378 . S
C2140 C2135 1.350 . S
C2141 H2128 0.929 . S
C2141 C2133 1.433 1_556 S
C2141 N2143 1.384 . S
N2142 C2138 1.427 . S
N2142 C2139 1.384 . S
N2143 C2135 1.427 1_556 S
N2143 C2141 1.384 . S
H2144 C2150 0.930 . S
H2145 C2154 0.930 . S
H2146 C2159 0.929 . S
H2147 C2157 0.929 . S
H2148 C2152 0.929 . S
H2149 C2158 0.929 . S
C2150 H2144 0.930 . S
C2150 C2151 1.367 . S
C2150 C2158 1.378 . S
C2151 C2150 1.367 . S
C2151 C2159 1.433 . S
C2152 H2148 0.929 . S
C2152 C2154 1.378 . S
C2152 C2156 1.350 . S
C2153 C2156 1.463 . S
C2153 C2158 1.350 . S
C2153 N2161 1.427 . S
C2154 H2145 0.930 . S
C2154 C2152 1.378 . S
C2154 C2155 1.367 . S
C2155 C2154 1.367 . S
C2155 C2157 1.433 . S
C2156 C2152 1.350 . S
C2156 C2153 1.463 . S
C2156 N2160 1.427 . S
C2157 H2147 0.929 . S
C2157 C2155 1.433 . S
C2157 N2160 1.384 . S
C2158 H2149 0.929 . S
C2158 C2150 1.378 . S
C2158 C2153 1.350 . S
C2159 H2146 0.929 . S
C2159 C2151 1.433 . S
C2159 N2161 1.384 . S
N2160 C2156 1.427 . S
N2160 C2157 1.384 . S
N2161 C2153 1.427 . S
N2161 C2159 1.384 . S
H2162 C2168 0.930 . S
H2163 C2172 0.930 . S
H2164 C2177 0.929 . S
H2165 C2175 0.929 . S
H2166 C2170 0.929 . S
H2167 C2176 0.929 . S
C2168 H2162 0.930 . S
C2168 C2169 1.367 . S
C2168 C2176 1.378 . S
C2169 C2168 1.367 . S
C2169 C2177 1.433 . S
C2170 H2166 0.929 . S
C2170 C2172 1.378 . S
C2170 C2174 1.350 . S
C2171 C2174 1.463 . S
C2171 C2176 1.350 . S
C2171 N2179 1.427 . S
C2172 H2163 0.930 . S
C2172 C2170 1.378 . S
C2172 C2173 1.367 . S
C2173 C2172 1.367 . S
C2173 C2175 1.433 . S
C2174 C2170 1.350 . S
C2174 C2171 1.463 . S
C2174 N2178 1.427 . S
C2175 H2165 0.929 . S
C2175 C2173 1.433 . S
C2175 N2178 1.384 . S
C2176 H2167 0.929 . S
C2176 C2168 1.378 . S
C2176 C2171 1.350 . S
C2177 H2164 0.929 . S
C2177 C2169 1.433 . S
C2177 N2179 1.384 . S
N2178 C2174 1.427 . S
N2178 C2175 1.384 . S
N2179 C2171 1.427 . S
N2179 C2177 1.384 . S
H2180 C2186 0.930 . S
H2181 C2190 0.930 . S
H2182 C2195 0.929 . S
H2183 C2193 0.929 . S
H2184 C2188 0.929 . S
H2185 C2194 0.929 . S
C2186 H2180 0.930 . S
C2186 C2187 1.367 . S
C2186 C2194 1.378 . S
C2187 C2186 1.367 . S
C2187 C2195 1.433 . S
C2188 H2184 0.929 . S
C2188 C2190 1.378 . S
C2188 C2192 1.350 . S
C2189 C2192 1.463 . S
C2189 C2194 1.350 . S
C2189 N2197 1.427 . S
C2190 H2181 0.930 . S
C2190 C2188 1.378 . S
C2190 C2191 1.367 . S
C2191 C2190 1.367 . S
C2191 C2193 1.433 . S
C2192 C2188 1.350 . S
C2192 C2189 1.463 . S
C2192 N2196 1.427 . S
C2193 H2183 0.929 . S
C2193 C2191 1.433 . S
C2193 N2196 1.384 . S
C2194 H2185 0.929 . S
C2194 C2186 1.378 . S
C2194 C2189 1.350 . S
C2195 H2182 0.929 . S
C2195 C2187 1.433 . S
C2195 N2197 1.384 . S
N2196 C2192 1.427 . S
N2196 C2193 1.384 . S
N2197 C2189 1.427 . S
N2197 C2195 1.384 . S
H2198 C2204 0.930 . S
H2199 C2208 0.930 . S
H2200 C2213 0.929 . S
H2201 C2211 0.929 . S
H2202 C2206 0.929 . S
H2203 C2212 0.929 . S
C2204 H2198 0.930 . S
C2204 C2205 1.367 . S
C2204 C2212 1.378 . S
C2205 C2204 1.367 . S
C2205 C2213 1.433 . S
C2206 H2202 0.929 . S
C2206 C2208 1.378 . S
C2206 C2210 1.350 . S
C2207 C2210 1.463 . S
C2207 C2212 1.350 . S
C2207 N2215 1.427 . S
C2208 H2199 0.930 . S
C2208 C2206 1.378 . S
C2208 C2209 1.367 . S
C2209 C2208 1.367 . S
C2209 C2211 1.433 . S
C2210 C2206 1.350 . S
C2210 C2207 1.463 . S
C2210 N2214 1.427 . S
C2211 H2201 0.929 . S
C2211 C2209 1.433 . S
C2211 N2214 1.384 . S
C2212 H2203 0.929 . S
C2212 C2204 1.378 . S
C2212 C2207 1.350 . S
C2213 H2200 0.929 . S
C2213 C2205 1.433 . S
C2213 N2215 1.384 . S
N2214 C2210 1.427 . S
N2214 C2211 1.384 . S
N2215 C2207 1.427 . S
N2215 C2213 1.384 . S
H2216 C2222 0.930 . S
H2217 C2226 0.930 . S
H2218 C2231 0.929 . S
H2219 C2229 0.929 . S
H2220 C2224 0.929 . S
H2221 C2230 0.929 . S
C2222 H2216 0.930 . S
C2222 C2223 1.367 . S
C2222 C2230 1.378 . S
C2223 C2222 1.367 . S
C2223 C2231 1.433 . S
C2224 H2220 0.929 . S
C2224 C2226 1.378 . S
C2224 C2228 1.350 . S
C2225 C2228 1.463 . S
C2225 C2230 1.350 . S
C2225 N2233 1.427 . S
C2226 H2217 0.930 . S
C2226 C2224 1.378 . S
C2226 C2227 1.367 . S
C2227 C2226 1.367 . S
C2227 C2229 1.433 . S
C2228 C2224 1.350 . S
C2228 C2225 1.463 . S
C2228 N2232 1.427 . S
C2229 H2219 0.929 . S
C2229 C2227 1.433 . S
C2229 N2232 1.384 . S
C2230 H2221 0.929 . S
C2230 C2222 1.378 . S
C2230 C2225 1.350 . S
C2231 H2218 0.929 . S
C2231 C2223 1.433 . S
C2231 N2233 1.384 . S
N2232 C2228 1.427 . S
N2232 C2229 1.384 . S
N2233 C2225 1.427 . S
N2233 C2231 1.384 . S
H2234 C2240 0.930 . S
H2235 C2244 0.930 . S
H2236 C2249 0.929 . S
H2237 C2247 0.929 . S
H2238 C2242 0.929 . S
H2239 C2248 0.929 . S
C2240 H2234 0.930 . S
C2240 C2241 1.367 . S
C2240 C2248 1.378 . S
C2241 C2240 1.367 . S
C2241 C2249 1.433 . S
C2242 H2238 0.929 . S
C2242 C2244 1.378 . S
C2242 C2246 1.350 . S
C2243 C2246 1.463 . S
C2243 C2248 1.350 . S
C2243 N2251 1.427 . S
C2244 H2235 0.930 . S
C2244 C2242 1.378 . S
C2244 C2245 1.367 . S
C2245 C2244 1.367 . S
C2245 C2247 1.433 . S
C2246 C2242 1.350 . S
C2246 C2243 1.463 . S
C2246 N2250 1.427 . S
C2247 H2237 0.929 . S
C2247 C2245 1.433 . S
C2247 N2250 1.384 . S
C2248 H2239 0.929 . S
C2248 C2240 1.378 . S
C2248 C2243 1.350 . S
C2249 H2236 0.929 . S
C2249 C2241 1.433 . S
C2249 N2251 1.384 . S
N2250 C2246 1.427 . S
N2250 C2247 1.384 . S
N2251 C2243 1.427 . S
N2251 C2249 1.384 . S
H2252 C2258 0.930 . S
H2253 C2262 0.930 . S
H2254 C2267 0.929 . S
H2255 C2265 0.929 . S
H2256 C2260 0.929 . S
H2257 C2266 0.929 . S
C2258 H2252 0.930 . S
C2258 C2259 1.367 . S
C2258 C2266 1.378 . S
C2259 C2258 1.367 . S
C2259 C2267 1.433 . S
C2260 H2256 0.929 . S
C2260 C2262 1.378 . S
C2260 C2264 1.350 . S
C2261 C2264 1.463 . S
C2261 C2266 1.350 . S
C2261 N2269 1.427 . S
C2262 H2253 0.930 . S
C2262 C2260 1.378 . S
C2262 C2263 1.367 . S
C2263 C2262 1.367 . S
C2263 C2265 1.433 . S
C2264 C2260 1.350 . S
C2264 C2261 1.463 . S
C2264 N2268 1.427 . S
C2265 H2255 0.929 . S
C2265 C2263 1.433 . S
C2265 N2268 1.384 . S
C2266 H2257 0.929 . S
C2266 C2258 1.378 . S
C2266 C2261 1.350 . S
C2267 H2254 0.929 . S
C2267 C2259 1.433 . S
C2267 N2269 1.384 . S
N2268 C2264 1.427 . S
N2268 C2265 1.384 . S
N2269 C2261 1.427 . S
N2269 C2267 1.384 . S
H2270 C2276 0.930 . S
H2271 C2280 0.930 . S
H2272 C2285 0.929 . S
H2273 C2283 0.929 . S
H2274 C2278 0.929 . S
H2275 C2284 0.929 . S
C2276 H2270 0.930 . S
C2276 C2277 1.367 . S
C2276 C2284 1.378 . S
C2277 C2276 1.367 . S
C2277 C2285 1.433 . S
C2278 H2274 0.929 . S
C2278 C2280 1.378 . S
C2278 C2282 1.350 . S
C2279 C2282 1.463 . S
C2279 C2284 1.350 . S
C2279 N2287 1.427 . S
C2280 H2271 0.930 . S
C2280 C2278 1.378 . S
C2280 C2281 1.367 . S
C2281 C2280 1.367 . S
C2281 C2283 1.433 . S
C2282 C2278 1.350 . S
C2282 C2279 1.463 . S
C2282 N2286 1.427 . S
C2283 H2273 0.929 . S
C2283 C2281 1.433 . S
C2283 N2286 1.384 . S
C2284 H2275 0.929 . S
C2284 C2276 1.378 . S
C2284 C2279 1.350 . S
C2285 H2272 0.929 . S
C2285 C2277 1.433 . S
C2285 N2287 1.384 . S
N2286 C2282 1.427 . S
N2286 C2283 1.384 . S
N2287 C2279 1.427 . S
N2287 C2285 1.384 . S
H2288 C2294 0.930 . S
H2289 C2298 0.930 . S
H2290 C2303 0.929 . S
H2291 C2301 0.929 . S
H2292 C2296 0.929 . S
H2293 C2302 0.929 . S
C2294 H2288 0.930 . S
C2294 C2295 1.367 . S
C2294 C2302 1.378 . S
C2295 C2294 1.367 . S
C2295 C2303 1.433 . S
C2296 H2292 0.929 . S
C2296 C2298 1.378 . S
C2296 C2300 1.350 . S
C2297 C2300 1.463 . S
C2297 C2302 1.350 . S
C2297 N2305 1.427 . S
C2298 H2289 0.930 . S
C2298 C2296 1.378 . S
C2298 C2299 1.367 . S
C2299 C2298 1.367 . S
C2299 C2301 1.433 . S
C2300 C2296 1.350 . S
C2300 C2297 1.463 . S
C2300 N2304 1.427 . S
C2301 H2291 0.929 . S
C2301 C2299 1.433 . S
C2301 N2304 1.384 . S
C2302 H2293 0.929 . S
C2302 C2294 1.378 . S
C2302 C2297 1.350 . S
C2303 H2290 0.929 . S
C2303 C2295 1.433 . S
C2303 N2305 1.384 . S
N2304 C2300 1.427 . S
N2304 C2301 1.384 . S
N2305 C2297 1.427 . S
N2305 C2303 1.384 . S
H2306 C2312 0.930 . S
H2307 C2316 0.930 . S
H2308 C2321 0.929 . S
H2309 C2319 0.929 . S
H2310 C2314 0.929 . S
H2311 C2320 0.929 . S
C2312 H2306 0.930 . S
C2312 C2313 1.367 . S
C2312 C2320 1.378 . S
C2313 C2312 1.367 . S
C2313 C2321 1.433 . S
C2314 H2310 0.929 . S
C2314 C2316 1.378 . S
C2314 C2318 1.350 . S
C2315 C2318 1.463 . S
C2315 C2320 1.350 . S
C2315 N2323 1.427 . S
C2316 H2307 0.930 . S
C2316 C2314 1.378 . S
C2316 C2317 1.367 . S
C2317 C2316 1.367 . S
C2317 C2319 1.433 . S
C2318 C2314 1.350 . S
C2318 C2315 1.463 . S
C2318 N2322 1.427 . S
C2319 H2309 0.929 . S
C2319 C2317 1.433 . S
C2319 N2322 1.384 . S
C2320 H2311 0.929 . S
C2320 C2312 1.378 . S
C2320 C2315 1.350 . S
C2321 H2308 0.929 . S
C2321 C2313 1.433 . S
C2321 N2323 1.384 . S
N2322 C2318 1.427 . S
N2322 C2319 1.384 . S
N2323 C2315 1.427 . S
N2323 C2321 1.384 . S
H2324 C2330 0.930 . S
H2325 C2334 0.930 . S
H2326 C2339 0.929 . S
H2327 C2337 0.929 . S
H2328 C2332 0.929 . S
H2329 C2338 0.929 . S
C2330 H2324 0.930 . S
C2330 C2331 1.367 . S
C2330 C2338 1.378 . S
C2331 C2330 1.367 . S
C2331 C2339 1.433 . S
C2332 H2328 0.929 . S
C2332 C2334 1.378 . S
C2332 C2336 1.350 . S
C2333 C2336 1.463 . S
C2333 C2338 1.350 . S
C2333 N2341 1.427 . S
C2334 H2325 0.930 . S
C2334 C2332 1.378 . S
C2334 C2335 1.367 . S
C2335 C2334 1.367 . S
C2335 C2337 1.433 . S
C2336 C2332 1.350 . S
C2336 C2333 1.463 . S
C2336 N2340 1.427 . S
C2337 H2327 0.929 . S
C2337 C2335 1.433 . S
C2337 N2340 1.384 . S
C2338 H2329 0.929 . S
C2338 C2330 1.378 . S
C2338 C2333 1.350 . S
C2339 H2326 0.929 . S
C2339 C2331 1.433 . S
C2339 N2341 1.384 . S
N2340 C2336 1.427 . S
N2340 C2337 1.384 . S
N2341 C2333 1.427 . S
N2341 C2339 1.384 . S
H2342 C2348 0.930 . S
H2343 C2352 0.930 . S
H2344 C2357 0.929 . S
H2345 C2355 0.929 . S
H2346 C2350 0.929 . S
H2347 C2356 0.929 . S
C2348 H2342 0.930 . S
C2348 C2349 1.367 . S
C2348 C2356 1.378 . S
C2349 C2348 1.367 . S
C2349 C2357 1.433 . S
C2350 H2346 0.929 . S
C2350 C2352 1.378 . S
C2350 C2354 1.350 . S
C2351 C2354 1.463 . S
C2351 C2356 1.350 . S
C2351 N2359 1.427 . S
C2352 H2343 0.930 . S
C2352 C2350 1.378 . S
C2352 C2353 1.367 . S
C2353 C2352 1.367 . S
C2353 C2355 1.433 . S
C2354 C2350 1.350 . S
C2354 C2351 1.463 . S
C2354 N2358 1.427 . S
C2355 H2345 0.929 . S
C2355 C2353 1.433 . S
C2355 N2358 1.384 . S
C2356 H2347 0.929 . S
C2356 C2348 1.378 . S
C2356 C2351 1.350 . S
C2357 H2344 0.929 . S
C2357 C2349 1.433 . S
C2357 N2359 1.384 . S
N2358 C2354 1.427 . S
N2358 C2355 1.384 . S
N2359 C2351 1.427 . S
N2359 C2357 1.384 . S
H2360 C2366 0.930 . S
H2361 C2370 0.930 . S
H2362 C2375 0.929 . S
H2363 C2373 0.929 . S
H2364 C2368 0.929 . S
H2365 C2374 0.929 . S
C2366 H2360 0.930 . S
C2366 C2367 1.367 . S
C2366 C2374 1.378 . S
C2367 C2366 1.367 . S
C2367 C2375 1.433 . S
C2368 H2364 0.929 . S
C2368 C2370 1.378 . S
C2368 C2372 1.350 . S
C2369 C2372 1.463 . S
C2369 C2374 1.350 . S
C2369 N2377 1.427 . S
C2370 H2361 0.930 . S
C2370 C2368 1.378 . S
C2370 C2371 1.367 . S
C2371 C2370 1.367 . S
C2371 C2373 1.433 . S
C2372 C2368 1.350 . S
C2372 C2369 1.463 . S
C2372 N2376 1.427 . S
C2373 H2363 0.929 . S
C2373 C2371 1.433 . S
C2373 N2376 1.384 . S
C2374 H2365 0.929 . S
C2374 C2366 1.378 . S
C2374 C2369 1.350 . S
C2375 H2362 0.929 . S
C2375 C2367 1.433 . S
C2375 N2377 1.384 . S
N2376 C2372 1.427 . S
N2376 C2373 1.384 . S
N2377 C2369 1.427 . S
N2377 C2375 1.384 . S
H2378 C2384 0.930 . S
H2379 C2388 0.930 . S
H2380 C2393 0.929 . S
H2381 C2391 0.929 . S
H2382 C2386 0.929 . S
H2383 C2392 0.929 . S
C2384 H2378 0.930 . S
C2384 C2385 1.367 . S
C2384 C2392 1.378 . S
C2385 C2384 1.367 . S
C2385 C2393 1.433 . S
C2386 H2382 0.929 . S
C2386 C2388 1.378 . S
C2386 C2390 1.350 . S
C2387 C2390 1.463 . S
C2387 C2392 1.350 . S
C2387 N2395 1.427 . S
C2388 H2379 0.930 . S
C2388 C2386 1.378 . S
C2388 C2389 1.367 . S
C2389 C2388 1.367 . S
C2389 C2391 1.433 . S
C2390 C2386 1.350 . S
C2390 C2387 1.463 . S
C2390 N2394 1.427 . S
C2391 H2381 0.929 . S
C2391 C2389 1.433 . S
C2391 N2394 1.384 . S
C2392 H2383 0.929 . S
C2392 C2384 1.378 . S
C2392 C2387 1.350 . S
C2393 H2380 0.929 . S
C2393 C2385 1.433 . S
C2393 N2395 1.384 . S
N2394 C2390 1.427 . S
N2394 C2391 1.384 . S
N2395 C2387 1.427 . S
N2395 C2393 1.384 . S
H2396 C2402 0.930 . S
H2397 C2406 0.930 . S
H2398 C2411 0.929 . S
H2399 C2409 0.929 . S
H2400 C2404 0.929 . S
H2401 C2410 0.929 . S
C2402 H2396 0.930 . S
C2402 C2403 1.367 . S
C2402 C2410 1.378 . S
C2403 C2402 1.367 . S
C2403 C2411 1.433 . S
C2404 H2400 0.929 . S
C2404 C2406 1.378 . S
C2404 C2408 1.350 . S
C2405 C2408 1.463 . S
C2405 C2410 1.350 . S
C2405 N2413 1.427 . S
C2406 H2397 0.930 . S
C2406 C2404 1.378 . S
C2406 C2407 1.367 . S
C2407 C2406 1.367 . S
C2407 C2409 1.433 . S
C2408 C2404 1.350 . S
C2408 C2405 1.463 . S
C2408 N2412 1.427 . S
C2409 H2399 0.929 . S
C2409 C2407 1.433 . S
C2409 N2412 1.384 . S
C2410 H2401 0.929 . S
C2410 C2402 1.378 . S
C2410 C2405 1.350 . S
C2411 H2398 0.929 . S
C2411 C2403 1.433 . S
C2411 N2413 1.384 . S
N2412 C2408 1.427 . S
N2412 C2409 1.384 . S
N2413 C2405 1.427 . S
N2413 C2411 1.384 . S
H2414 C2420 0.930 . S
H2415 C2424 0.930 . S
H2416 C2429 0.929 . S
H2417 C2427 0.929 . S
H2418 C2422 0.929 . S
H2419 C2428 0.929 . S
C2420 H2414 0.930 . S
C2420 C2421 1.367 . S
C2420 C2428 1.378 . S
C2421 C2420 1.367 . S
C2421 C2429 1.433 . S
C2422 H2418 0.929 . S
C2422 C2424 1.378 . S
C2422 C2426 1.350 . S
C2423 C2426 1.463 . S
C2423 C2428 1.350 . S
C2423 N2431 1.427 . S
C2424 H2415 0.930 . S
C2424 C2422 1.378 . S
C2424 C2425 1.367 . S
C2425 C2424 1.367 . S
C2425 C2427 1.433 . S
C2426 C2422 1.350 . S
C2426 C2423 1.463 . S
C2426 N2430 1.427 . S
C2427 H2417 0.929 . S
C2427 C2425 1.433 . S
C2427 N2430 1.384 . S
C2428 H2419 0.929 . S
C2428 C2420 1.378 . S
C2428 C2423 1.350 . S
C2429 H2416 0.929 . S
C2429 C2421 1.433 . S
C2429 N2431 1.384 . S
N2430 C2426 1.427 . S
N2430 C2427 1.384 . S
N2431 C2423 1.427 . S
N2431 C2429 1.384 . S
C711 C9 1.984 . S
C715 C97 1.988 . S
C729 C119 1.983 . S
C733 C27 1.992 . S
C747 C141 1.992 . S
C751 C49 1.986 . S
C765 C71 1.984 . S
C769 C163 1.993 . S
C783 C183 1.984 . S
C787 C271 1.993 . S
C801 C205 1.982 . S
C805 C292 1.992 . S
C819 C227 1.991 . S
C823 C314 1.988 . S
C837 C336 1.992 . S
C841 C249 1.983 . S
C855 C361 1.986 . S
C859 C449 1.985 . S
C873 C471 1.992 . S
C877 C379 1.982 . S
C891 C401 1.988 . S
C895 C493 1.991 . S
C909 C515 1.982 . S
C913 C423 1.992 . S
C927 C535 1.991 . S
C931 C623 1.988 . S
C945 C557 1.993 . S
C949 C644 1.984 . S
C963 C579 1.986 . S
C967 C666 1.992 . S
C981 C601 1.983 . S
C985 C688 1.989 . S
C999 C537 1.546 . S
C1003 C7 1.546 . S
C1017 C207 1.528 . S
C1021 C28 1.528 . S
C1035 C50 1.532 . S
C1039 C581 1.532 . S
C1053 C72 1.539 . S
C1057 C251 1.539 . S
C1071 C95 1.534 . S
C1075 C625 1.534 . S
C1089 C117 1.547 . S
C1093 C291 1.547 . S
C1107 C665 1.543 . S
C1111 C139 1.543 . S
C1125 C335 1.524 . S
C1129 C161 1.524 . S
C1143 C359 1.545 . S
C1147 C185 1.545 . S
C1161 C229 1.524 . S
C1165 C402 1.524 . S
C1179 C273 1.524 . S
C1183 C447 1.524 . S
C1197 C491 1.536 . S
C1201 C313 1.536 . S
C1215 C380 1.541 . S
C1219 C559 1.541 . S
C1233 C603 1.537 . S
C1237 C424 1.537 . S
C1251 C643 1.546 . S
C1255 C469 1.546 . S
C1269 C513 1.547 . S
C1273 C687 1.547 . S
C1287 C5 1.002 . S
C1291 C599 1.001 . S
C1305 C31 1.000 . S
C1309 C181 1.000 . S
C1323 C53 1.002 . S
C1327 C555 0.999 . S
C1341 C225 0.999 . S
C1345 C75 1.001 . S
C1359 C647 1.001 . S
C1363 C93 1.002 . S
C1377 C115 1.001 . S
C1381 C317 0.999 . S
C1395 C691 0.999 . S
C1399 C137 1.001 . S
C1413 C269 1.002 . S
C1417 C159 1.001 . S
C1431 C425 0.999 . S
C1435 C182 1.001 . S
C1449 C204 1.002 . S
C1453 C6 0.999 . S
C1467 C381 0.999 . S
C1471 C226 1.002 . S
C1485 C51 0.999 . S
C1489 C248 1.001 . S
C1503 C468 1.002 . S
C1507 C270 1.000 . S
C1521 C293 1.001 . S
C1525 C138 0.999 . S
C1539 C315 1.000 . S
C1543 C512 1.001 . S
C1557 C94 1.002 . S
C1561 C337 1.000 . S
C1575 C357 1.001 . S
C1579 C247 0.999 . S
C1593 C383 1.000 . S
C1597 C533 1.000 . S
C1611 C203 1.002 . S
C1615 C405 1.001 . S
C1629 C427 1.002 . S
C1633 C577 1.000 . S
C1647 C295 1.001 . S
C1651 C445 1.000 . S
C1665 C467 1.000 . S
C1669 C669 1.001 . S
C1683 C339 1.002 . S
C1687 C489 1.000 . S
C1701 C511 1.002 . S
C1705 C621 1.000 . S
C1719 C73 1.002 . S
C1723 C534 1.001 . S
C1737 C556 1.002 . S
C1741 C358 1.000 . S
C1755 C578 1.000 . S
C1759 C29 1.001 . S
C1773 C403 1.001 . S
C1777 C600 1.002 . S
C1791 C116 0.999 . S
C1795 C622 1.002 . S
C1809 C490 1.000 . S
C1813 C645 1.002 . S
C1827 C667 1.001 . S
C1831 C160 1.002 . S
C1845 C446 0.999 . S
C1849 C689 1.001 . S
C1863 C4 0.514 . S
C1867 C404 0.529 . S
C1881 C30 0.513 . S
C1885 C426 0.528 . S
C1899 C52 0.516 . S
C1903 C356 0.531 . S
C1917 C74 0.515 . S
C1921 C382 0.522 . S
C1935 C488 0.514 . S
C1939 C92 0.530 . S
C1953 C510 0.526 . S
C1957 C114 0.513 . S
C1971 C136 0.516 . S
C1975 C444 0.531 . S
C1989 C466 0.517 . S
C1993 C158 0.531 . S
C2007 C576 0.530 . S
C2011 C180 0.514 . S
C2025 C598 0.529 . S
C2029 C202 0.521 . S
C2043 C532 0.527 . S
C2047 C224 0.513 . S
C2061 C246 0.515 . S
C2065 C554 0.522 . S
C2079 C268 0.520 . S
C2083 C668 0.517 . S
C2097 C690 0.530 . S
C2101 C294 0.519 . S
C2115 C620 0.528 . S
C2119 C316 0.513 . S
C2133 C338 0.526 . S
C2137 C646 0.513 . S
C2151 C162 1.757 . S
C2155 C8 1.749 . S
C2169 C26 1.758 . S
C2173 C96 1.752 . S
C2187 C48 1.756 . S
C2191 C118 1.756 . S
C2205 C140 1.748 . S
C2209 C70 1.751 . S
C2223 C334 1.748 . S
C2227 C184 1.751 . S
C2241 C206 1.749 . S
C2245 C272 1.750 . S
C2259 C290 1.758 . S
C2263 C228 1.753 . S
C2277 C312 1.750 . S
C2281 C250 1.758 . S
C2295 C514 1.748 . S
C2299 C360 1.756 . S
C2313 C448 1.754 . S
C2317 C378 1.758 . S
C2331 C470 1.758 . S
C2335 C400 1.751 . S
C2349 C422 1.748 . S
C2353 C492 1.755 . S
C2367 C686 1.753 . S
C2371 C536 1.748 . S
C2385 C624 1.750 . S
C2389 C558 1.757 . S
C2403 C642 1.748 . S
C2407 C580 1.755 . S
C2421 C602 1.758 . S
C2425 C664 1.753 . S
