# Generated by pormake.
# Topology cab, (5)-cn, num edge types: 1
# Building blocks:
#     Node 0, Type 0, BuildingBlock: XOMCOT_clean_sbu_0, # of connection points: 5
#     Node 1, Type 0, BuildingBlock: XOMCOT_clean_sbu_0, # of connection points: 5
#     Node 2, Type 0, BuildingBlock: XOMCOT_clean_sbu_0, # of connection points: 5
#     Node 3, Type 0, BuildingBlock: XOMCOT_clean_sbu_0, # of connection points: 5
#     Node 4, Type 0, BuildingBlock: XOMCOT_clean_sbu_0, # of connection points: 5
#     Node 5, Type 0, BuildingBlock: XOMCOT_clean_sbu_0, # of connection points: 5
#     Edge 6, Type (0, 0), BuildingBlock: XIVTED_clean_linker_0, # of connection points: 2
#     Edge 7, Type (0, 0), BuildingBlock: XIVTED_clean_linker_0, # of connection points: 2
#     Edge 8, Type (0, 0), BuildingBlock: XIVTED_clean_linker_0, # of connection points: 2
#     Edge 9, Type (0, 0), BuildingBlock: XIVTED_clean_linker_0, # of connection points: 2
#     Edge 10, Type (0, 0), BuildingBlock: XIVTED_clean_linker_0, # of connection points: 2
#     Edge 11, Type (0, 0), BuildingBlock: XIVTED_clean_linker_0, # of connection points: 2
#     Edge 12, Type (0, 0), BuildingBlock: XIVTED_clean_linker_0, # of connection points: 2
#     Edge 13, Type (0, 0), BuildingBlock: XIVTED_clean_linker_0, # of connection points: 2
#     Edge 14, Type (0, 0), BuildingBlock: XIVTED_clean_linker_0, # of connection points: 2
#     Edge 15, Type (0, 0), BuildingBlock: XIVTED_clean_linker_0, # of connection points: 2
#     Edge 16, Type (0, 0), BuildingBlock: XIVTED_clean_linker_0, # of connection points: 2
#     Edge 17, Type (0, 0), BuildingBlock: XIVTED_clean_linker_0, # of connection points: 2
#     Edge 18, Type (0, 0), BuildingBlock: XIVTED_clean_linker_0, # of connection points: 2
#     Edge 19, Type (0, 0), BuildingBlock: XIVTED_clean_linker_0, # of connection points: 2
#     Edge 20, Type (0, 0), BuildingBlock: XIVTED_clean_linker_0, # of connection points: 2
# Relax obj value: 0.837
# Max RMSD: 0.225
# Mean RMSD: 0.223
data_MOF--net-cab--node1-XOMCOT_clean_sbu_0--edge1-XIVTED_clean_linker_0
_symmetry_space_group_name_H-M    P1
_symmetry_Int_Tables_number       1
_symmetry_cell_setting            triclinic
loop_
_symmetry_equiv_pos_as_xyz
'x, y, z'
_cell_length_a     36.354404
_cell_length_b     36.561127
_cell_length_c     36.284232
_cell_angle_alpha  78.316347
_cell_angle_beta   77.483996
_cell_angle_gamma 78.889432
loop_
_atom_site_label
_atom_site_type_symbol
_atom_site_fract_x
_atom_site_fract_y
_atom_site_fract_z
_atom_type_partial_charge
Co0 Co 0.02364 0.9859 0.36632 0.0
C1 C 0.0518 0.90352 0.381 0.0
C2 C 0.00431 0.9187 0.42432 0.0
C3 C 0.01375 0.87987 0.43025 0.0
N4 N 0.02792 0.93365 0.39302 0.0
N5 N 0.04389 0.87069 0.40319 0.0
H6 H 0.07289 0.90486 0.3549 0.0
H7 H 0.98113 0.93451 0.44142 0.0
C8 C 0.93877 0.98028 0.37819 0.0
O9 O 0.93195 0.98056 0.41512 0.0
N10 N 0.01896 0.03727 0.33902 0.0
C11 C 0.03197 0.06662 0.34645 0.0
C12 C 0.02242 0.09816 0.32027 0.0
C13 C 0.00259 0.05094 0.30799 0.0
N14 N 0.00407 0.08816 0.29615 0.0
C15 C 0.0258 0.99092 0.44252 0.0
C16 C 0.96701 0.05091 0.45118 0.0
C17 C 0.98828 0.03695 0.48035 0.0
C18 C 0.01759 0.00623 0.47596 0.0
C19 C 0.97575 0.03419 0.4183 0.0
N20 N 0.00475 0.00443 0.41443 0.0
H21 H 0.05008 0.96886 0.4385 0.0
H22 H 0.96005 0.04595 0.39537 0.0
H23 H 0.04711 0.06517 0.36942 0.0
H24 H 0.98964 0.0341 0.29455 0.0
O25 O 0.07735 0.98627 0.36329 0.0
O26 O 0.05237 0.96998 0.31945 0.0
O27 O 0.9718 0.98253 0.35771 0.0
C28 C 0.08244 0.97616 0.3299 0.0
H29 H -0.0012 0.85991 0.45166 0.0
H30 H 0.02904 0.12613 0.31863 0.0
H31 H 0.94458 0.07505 0.45335 0.0
H32 H 0.03554 0.99548 0.49724 0.0
Co33 Co 0.13801 0.16526 0.75784 0.0
C34 C 0.07779 0.19076 0.82222 0.0
C35 C 0.05892 0.15438 0.793 0.0
C36 C 0.02986 0.16433 0.82209 0.0
N37 N 0.08879 0.17167 0.79227 0.0
N38 N 0.04182 0.18707 0.84041 0.0
H39 H 0.09555 0.20664 0.8311 0.0
H40 H 0.05843 0.1349 0.7744 0.0
C41 C 0.15495 0.09756 0.81399 0.0
O42 O 0.16302 0.12053 0.83355 0.0
N43 N 0.18698 0.15807 0.72459 0.0
C44 C 0.19941 0.18003 0.69127 0.0
C45 C 0.23879 0.17215 0.68294 0.0
C46 C 0.21851 0.13687 0.73559 0.0
N47 N 0.25036 0.14468 0.71073 0.0
C48 C 0.08657 0.18131 0.70544 0.0
C49 C 0.10291 0.11074 0.68384 0.0
C50 C 0.07278 0.13698 0.67114 0.0
C51 C 0.06538 0.17305 0.68124 0.0
C52 C 0.12352 0.12023 0.70776 0.0
N53 N 0.11408 0.15452 0.7195 0.0
H54 H 0.07961 0.20858 0.71458 0.0
H55 H 0.14658 0.09971 0.71742 0.0
H56 H 0.18152 0.20257 0.67609 0.0
H57 H 0.21868 0.11923 0.76336 0.0
O58 O 0.13471 0.21942 0.74215 0.0
O59 O 0.16115 0.18585 0.79039 0.0
O60 O 0.14486 0.1104 0.78172 0.0
C61 C 0.15227 0.21867 0.76995 0.0
H62 H 0.00255 0.15443 0.8302 0.0
H63 H 0.2575 0.18732 0.6601 0.0
H64 H 0.11028 0.083 0.67558 0.0
H65 H 0.04249 0.19413 0.67179 0.0
Co66 Co 0.36754 0.01144 0.01919 0.0
C67 C 0.38712 0.03586 0.93431 0.0
C68 C 0.37416 0.97954 0.94965 0.0
C69 C 0.37926 0.98928 0.91064 0.0
N70 N 0.38044 0.00809 0.96479 0.0
N71 N 0.38721 0.02482 0.90086 0.0
H72 H 0.38856 0.06451 0.93659 0.0
H73 H 0.36291 0.95459 0.96575 0.0
C74 C 0.40226 0.92999 0.0211 0.0
O75 O 0.43173 0.94012 0.99558 0.0
N76 N 0.35261 0.01411 0.073 0.0
C77 C 0.35959 0.03914 0.09219 0.0
C78 C 0.33712 0.03502 0.12827 0.0
C79 C 0.32624 0.99532 0.09726 0.0
N80 N 0.31588 0.00764 0.13124 0.0
C81 C 0.43679 0.04218 0.00041 0.0
C82 C 0.4717 0.99487 0.05681 0.0
C83 C 0.4889 0.02563 0.03528 0.0
C84 C 0.47118 0.04902 0.00636 0.0
C85 C 0.43691 0.98929 0.05016 0.0
N86 N 0.41995 0.01271 0.02205 0.0
H87 H 0.42244 0.06242 0.98024 0.0
H88 H 0.42264 0.96735 0.06908 0.0
H89 H 0.37799 0.06026 0.08011 0.0
H90 H 0.31362 0.97431 0.08923 0.0
O91 O 0.35111 0.06491 0.00756 0.0
O92 O 0.31398 0.02135 0.0154 0.0
O93 O 0.37461 0.95475 0.0329 0.0
C94 C 0.31738 0.05706 0.00922 0.0
H95 H 0.37347 0.9729 0.89139 0.0
H96 H 0.33485 0.05256 0.14962 0.0
H97 H 0.4842 0.97605 0.07953 0.0
H98 H 0.48237 0.07399 0.98992 0.0
Co99 Co 0.00021 0.32971 0.0354 0.0
C100 C 0.92265 0.37117 0.03355 0.0
C101 C 0.94911 0.35448 0.97939 0.0
C102 C 0.9131 0.37379 0.97663 0.0
N103 N 0.95488 0.35281 0.01514 0.0
N104 N 0.89635 0.38421 0.01079 0.0
H105 H 0.91797 0.37313 0.06361 0.0
H106 H 0.9692 0.34178 0.95711 0.0
C107 C 0.06426 0.34527 0.97128 0.0
O108 O 0.08177 0.35346 0.99597 0.0
N109 N 0.04636 0.30501 0.05465 0.0
C110 C 0.06178 0.30983 0.08371 0.0
C111 C 0.09473 0.28411 0.08559 0.0
C112 C 0.06959 0.27566 0.04028 0.0
N113 N 0.09942 0.2627 0.05829 0.0
C114 C 0.00397 0.38757 0.07668 0.0
C115 C 0.01896 0.44235 0.01323 0.0
C116 C 0.02243 0.44871 0.04906 0.0
C117 C 0.01299 0.42147 0.08136 0.0
C118 C 0.01036 0.40779 0.00996 0.0
N119 N 0.00671 0.37961 0.04101 0.0
H120 H 0.99588 0.3672 0.10178 0.0
H121 H 0.00749 0.40348 0.98221 0.0
H122 H 0.05048 0.32981 0.1029 0.0
H123 H 0.06509 0.26457 0.01639 0.0
O124 O 0.97018 0.31525 0.08501 0.0
O125 O 0.98745 0.27971 0.0395 0.0
O126 O 0.03122 0.33529 0.98206 0.0
C127 C 0.97104 0.28307 0.07462 0.0
H128 H 0.89984 0.37833 0.95178 0.0
H129 H 0.11349 0.28103 0.10584 0.0
H130 H 0.02349 0.46356 0.98782 0.0
H131 H 0.01392 0.42549 0.10987 0.0
Co132 Co 0.81669 0.15844 0.11096 0.0
C133 C 0.7695 0.23193 0.12026 0.0
C134 C 0.78683 0.20344 0.17292 0.0
C135 C 0.76604 0.23824 0.17852 0.0
N136 N 0.78921 0.19982 0.13625 0.0
N137 N 0.75526 0.25622 0.14528 0.0
H138 H 0.76813 0.23853 0.09009 0.0
H139 H 0.80063 0.18309 0.19372 0.0
C140 C 0.80943 0.08963 0.17015 0.0
O141 O 0.80191 0.0732 0.14419 0.0
N142 N 0.84548 0.11644 0.08621 0.0
C143 C 0.84091 0.10298 0.0557 0.0
C144 C 0.86871 0.07231 0.04972 0.0
C145 C 0.87687 0.09443 0.09733 0.0
N146 N 0.89121 0.06707 0.07591 0.0
C147 C 0.75957 0.15482 0.06929 0.0
C148 C 0.70678 0.12877 0.13127 0.0
C149 C 0.70018 0.13053 0.0942 0.0
C150 C 0.72658 0.14507 0.06302 0.0
C151 C 0.74058 0.13844 0.13609 0.0
N152 N 0.76794 0.14812 0.10512 0.0
H153 H 0.77903 0.16675 0.04493 0.0
H154 H 0.74474 0.13783 0.16479 0.0
H155 H 0.81945 0.114 0.03841 0.0
H156 H 0.8882 0.09763 0.12154 0.0
O157 O 0.82793 0.1927 0.0636 0.0
O158 O 0.86491 0.1757 0.10725 0.0
O159 O 0.81504 0.12405 0.16197 0.0
C160 C 0.85973 0.19419 0.07361 0.0
H161 H 0.76135 0.25028 0.20436 0.0
H162 H 0.87221 0.05519 0.02774 0.0
H163 H 0.68619 0.11988 0.15633 0.0
H164 H 0.72266 0.14785 0.0338 0.0
Co165 Co 0.14374 0.79772 0.07913 0.0
C166 C 0.13545 0.76901 0.16399 0.0
C167 C 0.18195 0.80005 0.1409 0.0
C168 C 0.18071 0.78935 0.17951 0.0
N169 N 0.15427 0.78652 0.13078 0.0
N170 N 0.15146 0.76985 0.19407 0.0
H171 H 0.10964 0.75759 0.16686 0.0
H172 H 0.20105 0.81773 0.12158 0.0
C173 C 0.2261 0.76467 0.07054 0.0
O174 O 0.217 0.73717 0.09865 0.0
N175 N 0.13448 0.81064 0.02752 0.0
C176 C 0.1071 0.80185 0.01265 0.0
C177 C 0.10736 0.82304 0.97645 0.0
C178 C 0.15091 0.83665 0.00064 0.0
N179 N 0.13492 0.84502 0.96909 0.0
C180 C 0.10931 0.7312 0.10146 0.0
C181 C 0.15783 0.68957 0.04985 0.0
C182 C 0.12683 0.67417 0.07388 0.0
C183 C 0.10243 0.69559 0.09984 0.0
C184 C 0.16355 0.72564 0.0523 0.0
N185 N 0.14023 0.74545 0.07895 0.0
H186 H 0.08821 0.74811 0.11935 0.0
H187 H 0.18576 0.73812 0.03162 0.0
H188 H 0.08714 0.78297 0.02772 0.0
H189 H 0.17214 0.85129 0.00554 0.0
O190 O 0.09086 0.81473 0.09789 0.0
O191 O 0.13567 0.85136 0.08195 0.0
O192 O 0.20021 0.79038 0.05839 0.0
C193 C 0.09974 0.8482 0.09387 0.0
H194 H 0.19827 0.79769 0.19599 0.0
H195 H 0.08773 0.82335 0.9578 0.0
H196 H 0.17691 0.67439 0.02868 0.0
H197 H 0.07691 0.68589 0.11745 0.0
H198 H 0.92407 0.28359 0.14401 0.0
H199 H 0.00564 0.07045 0.22663 0.0
H200 H -0.00125 0.20819 0.07285 0.0
H201 H 0.9704 0.16097 0.29257 0.0
H202 H 0.98692 0.11448 0.17041 0.0
H203 H 0.92315 0.2319 0.19861 0.0
C204 C 0.93941 0.25584 0.13964 0.0
C205 C 0.96169 0.25018 0.10395 0.0
C206 C 0.98287 0.12448 0.19736 0.0
C207 C 0.96134 0.19117 0.16639 0.0
C208 C 0.99341 0.09943 0.22936 0.0
C209 C 0.98996 0.11236 0.26403 0.0
C210 C 0.96819 0.16243 0.20042 0.0
C211 C 0.97409 0.15014 0.26616 0.0
C212 C 0.93907 0.22644 0.17085 0.0
C213 C 0.98105 0.21368 0.09987 0.0
N214 N 0.9639 0.17386 0.23479 0.0
N215 N 0.98089 0.18559 0.13091 0.0
H216 H 0.81737 0.01279 0.19198 0.0
H217 H 0.93749 0.94504 0.3199 0.0
H218 H 0.81342 0.11597 0.23427 0.0
H219 H 0.87001 0.02601 0.38879 0.0
H220 H 0.89353 0.9643 0.27497 0.0
H221 H 0.83659 0.97651 0.25108 0.0
C222 C 0.82004 0.02781 0.21389 0.0
C223 C 0.81481 0.06746 0.20784 0.0
C224 C 0.88727 0.97684 0.30066 0.0
C225 C 0.83718 0.02626 0.27498 0.0
C226 C 0.91251 0.96596 0.32617 0.0
C227 C 0.90718 0.98407 0.35785 0.0
C228 C 0.8571 0.00672 0.30649 0.0
C229 C 0.87478 0.01128 0.36471 0.0
C230 C 0.83122 0.00709 0.24746 0.0
C231 C 0.81808 0.08544 0.2374 0.0
N232 N 0.85146 0.02265 0.33852 0.0
N233 N 0.8295 0.06468 0.26957 0.0
H234 H 0.00366 0.82205 0.38922 0.0
H235 H 0.19088 0.74913 0.25219 0.0
H236 H 0.11728 0.83853 0.39072 0.0
H237 H 0.07705 0.76862 0.2279 0.0
H238 H 0.16381 0.75217 0.3195 0.0
H239 H 0.03052 0.77366 0.34856 0.0
C240 C 0.03431 0.81405 0.38245 0.0
C241 C 0.05851 0.83435 0.39255 0.0
C242 C 0.14478 0.75464 0.29961 0.0
C243 C 0.08923 0.78004 0.34604 0.0
C244 C 0.16019 0.75314 0.2612 0.0
C245 C 0.13619 0.76021 0.2342 0.0
C246 C 0.10514 0.76358 0.3109 0.0
C247 C 0.09665 0.76384 0.24756 0.0
C248 C 0.04962 0.78673 0.3591 0.0
C249 C 0.09795 0.82353 0.38294 0.0
N250 N 0.0823 0.7665 0.28489 0.0
N251 N 0.11217 0.79756 0.35953 0.0
H252 H 0.25525 0.97617 0.12652 0.0
H253 H 0.14877 0.99393 0.34078 0.0
H254 H 0.30441 0.01672 0.20584 0.0
H255 H 0.10124 0.9547 0.25949 0.0
H256 H 0.20833 -0.00281 0.29412 0.0
H257 H 0.20138 0.96288 0.17702 0.0
C258 C 0.25515 0.98188 0.15463 0.0
C259 C 0.28472 -0.00228 0.1617 0.0
C260 C 0.18498 0.98756 0.28663 0.0
C261 C 0.22208 0.98306 0.21996 0.0
C262 C 0.15101 0.98557 0.3133 0.0
C263 C 0.11992 0.97423 0.30391 0.0
C264 C 0.18782 0.97818 0.25032 0.0
C265 C 0.1244 0.96378 0.26788 0.0
C266 C 0.22403 0.97447 0.18353 0.0
C267 C 0.28215 0.00502 0.19882 0.0
N268 N 0.15758 0.96623 0.24236 0.0
N269 N 0.25131 -0.00219 0.22649 0.0
H270 H 0.08571 0.88484 0.92273 0.0
H271 H 0.19917 0.05643 0.86416 0.0
H272 H 0.19953 0.8765 0.94425 0.0
H273 H 0.11488 0.04676 0.80074 0.0
H274 H 0.19838 0.99066 0.89505 0.0
H275 H 0.09455 0.94356 0.87788 0.0
C276 C 0.11279 0.89486 0.9176 0.0
C277 C 0.14163 0.876 0.93803 0.0
C278 C 0.18036 0.00274 0.87405 0.0
C279 C 0.15152 0.94353 0.88733 0.0
C280 C 0.18065 0.04031 0.85659 0.0
C281 C 0.15688 0.057 0.8301 0.0
C282 C 0.15546 0.98192 0.86564 0.0
C283 C 0.13365 0.03482 0.82105 0.0
C284 C 0.11774 0.92849 0.89206 0.0
C285 C 0.17606 0.8906 0.93013 0.0
N286 N 0.13304 -0.00152 0.83929 0.0
N287 N 0.1798 0.92377 0.90594 0.0
H288 H 0.40793 0.00193 0.83188 0.0
H289 H 0.28714 0.18821 0.73676 0.0
H290 H 0.36266 0.1007 0.88497 0.0
H291 H 0.2951 0.07728 0.71017 0.0
H292 H 0.33765 0.16381 0.77483 0.0
H293 H 0.38959 0.03717 0.77207 0.0
C294 C 0.39483 0.03126 0.83075 0.0
C295 C 0.38573 0.04799 0.86384 0.0
C296 C 0.32938 0.14513 0.75946 0.0
C297 C 0.36511 0.08849 0.79548 0.0
C298 C 0.30101 0.15913 0.73748 0.0
C299 C 0.28748 0.13457 0.72038 0.0
C300 C 0.34408 0.10638 0.76416 0.0
C301 C 0.30526 0.09692 0.72282 0.0
C302 C 0.38454 0.05135 0.79659 0.0
C303 C 0.36984 0.08643 0.86042 0.0
N304 N 0.33236 0.08375 0.74484 0.0
N305 N 0.35931 0.1052 0.82703 0.0
H306 H 0.11663 0.29035 0.74804 0.0
H307 H 0.03151 0.35465 0.9087 0.0
H308 H 0.1934 0.22609 0.82169 0.0
H309 H 0.14084 0.33574 0.94334 0.0
H310 H 0.06338 0.34167 0.84554 0.0
H311 H 0.10313 0.34088 0.78632 0.0
C312 C 0.13151 0.28736 0.77157 0.0
C313 C 0.15485 0.25345 0.78291 0.0
C314 C 0.08073 0.34182 0.86625 0.0
C315 C 0.13863 0.31013 0.8272 0.0
C316 C 0.06238 0.34864 0.90259 0.0
C317 C 0.0836 0.34529 0.93134 0.0
C318 C 0.12051 0.33077 0.85899 0.0
C319 C 0.12349 0.33808 0.92194 0.0
C320 C 0.12348 0.31601 0.79362 0.0
C321 C 0.17412 0.25134 0.81295 0.0
N322 N 0.14067 0.32987 0.8868 0.0
N323 N 0.16484 0.27895 0.83476 0.0
H324 H 0.85324 0.24898 0.01125 0.0
H325 H 0.06641 0.18462 0.90645 0.0
H326 H 0.93658 0.17186 0.06894 0.0
H327 H 0.96897 0.22142 0.85119 0.0
H328 H 0.02577 0.1992 0.96725 0.0
H329 H 0.90279 0.25968 0.95444 0.0
C330 C 0.88227 0.2352 0.01233 0.0
C331 C 0.89084 0.20929 0.04466 0.0
C332 C 0.01357 0.20482 0.94158 0.0
C333 C 0.9474 0.2207 0.97957 0.0
C334 C 0.0367 0.19669 0.90702 0.0
C335 C 0.02069 0.20153 0.87414 0.0
C336 C 0.97449 0.21843 0.9428 0.0
C337 C 0.98209 0.21696 0.87615 0.0
C338 C 0.91047 0.24114 0.97986 0.0
C339 C 0.92889 0.19223 0.04462 0.0
N340 N 0.96026 0.22465 0.90992 0.0
N341 N 0.95573 0.19766 0.01223 0.0
H342 H 0.24151 0.05119 0.0174 0.0
H343 H 0.1732 0.25992 0.06222 0.0
H344 H 0.31777 0.1324 0.00191 0.0
H345 H 0.09648 0.19856 0.03305 0.0
H346 H 0.22612 0.21012 0.04556 0.0
H347 H 0.18707 0.10217 0.0266 0.0
C348 C 0.2468 0.07975 0.01537 0.0
C349 C 0.28419 0.08753 0.00913 0.0
C350 C 0.19773 0.20757 0.04265 0.0
C351 C 0.22243 0.14544 0.02035 0.0
C352 C 0.16755 0.23579 0.0525 0.0
C353 C 0.13054 0.23322 0.04906 0.0
C354 C 0.19081 0.1762 0.02983 0.0
C355 C 0.12474 0.20162 0.0358 0.0
C356 C 0.21579 0.10874 0.02071 0.0
C357 C 0.28946 0.12501 0.00687 0.0
N358 N 0.15456 0.17409 0.02693 0.0
N359 N 0.25896 0.15242 0.01294 0.0
H360 H 0.37579 0.89019 0.09011 0.0
H361 H 0.26059 0.79741 0.00067 0.0
H362 H 0.41155 0.88196 0.97044 0.0
H363 H 0.2812 0.74817 0.11424 0.0
H364 H 0.32029 0.8232 0.98707 0.0
H365 H 0.34666 0.83314 0.10037 0.0
C366 C 0.37863 0.87546 0.06631 0.0
C367 C 0.39576 0.8906 0.02942 0.0
C368 C 0.31244 0.80567 0.01452 0.0
C369 C 0.36138 0.82661 0.04047 0.0
C370 C 0.27834 0.79112 0.0223 0.0
C371 C 0.26592 0.77114 0.05873 0.0
C372 C 0.33334 0.80129 0.04386 0.0
C373 C 0.28983 0.76361 0.08583 0.0
C374 C 0.36208 0.84295 0.07211 0.0
C375 C 0.39856 0.8709 -0.00067 0.0
N376 N 0.32192 0.77973 0.07827 0.0
N377 N 0.38035 0.84048 0.00524 0.0
H378 H 0.71594 0.29207 0.08896 0.0
H379 H 0.83674 0.38018 0.97781 0.0
H380 H 0.76857 0.31307 0.17658 0.0
H381 H 0.86289 0.41763 0.07314 0.0
H382 H 0.77303 0.37589 0.01241 0.0
H383 H 0.72473 0.35477 0.05323 0.0
C384 C 0.72862 0.31026 0.10107 0.0
C385 C 0.74423 0.29629 0.13427 0.0
C386 C 0.79193 0.38605 0.02589 0.0
C387 C 0.75674 0.36678 0.09258 0.0
C388 C 0.82888 0.38856 0.00573 0.0
C389 C 0.85626 0.39634 0.02381 0.0
C390 C 0.78288 0.39019 0.06474 0.0
C391 C 0.84346 0.4087 0.05924 0.0
C392 C 0.73411 0.346 0.08043 0.0
C393 C 0.75801 0.32179 0.15 0.0
N394 N 0.80806 0.40392 0.07919 0.0
N395 N 0.76528 0.35535 0.1283 0.0
H396 H 0.02344 0.84769 0.11388 0.0
H397 H 0.95792 0.07034 0.0963 0.0
H398 H 0.10673 0.9236 0.08409 0.0
H399 H 0.89421 0.9945 0.06932 0.0
H400 H 0.0102 0.01721 0.10566 0.0
H401 H 0.97273 0.90189 0.11318 0.0
C402 C 0.03112 0.87579 0.10763 0.0
C403 C 0.06945 0.88113 0.0986 0.0
C404 C 0.98471 0.01238 0.0977 0.0
C405 C 0.01125 0.94339 0.09774 0.0
C406 C 0.95498 0.04248 0.09253 0.0
C407 C 0.922 0.03664 0.08175 0.0
C408 C 0.98077 0.97624 0.09298 0.0
C409 C 0.91941 0.00019 0.07708 0.0
C410 C 0.00209 0.90671 0.10707 0.0
C411 C 0.07754 0.91827 0.09099 0.0
N412 N 0.94829 0.97134 0.08294 0.0
N413 N 0.04859 0.94816 0.09054 0.0
H414 H 0.04256 0.07194 0.68401 0.0
H415 H 0.98423 0.11252 0.47917 0.0
H416 H 0.04841 0.17779 0.60628 0.0
H417 H 0.98358 0.00568 0.55581 0.0
H418 H 0.99354 0.14162 0.53086 0.0
H419 H 0.00835 0.05175 0.64272 0.0
C420 C 0.0365 0.09096 0.65822 0.0
C421 C 0.04899 0.12623 0.64805 0.0
C422 C 0.99055 0.11199 0.53662 0.0
C423 C 0.00973 0.10344 0.60069 0.0
C424 C 0.98488 0.09548 0.50723 0.0
C425 C 0.98376 0.05656 0.51321 0.0
C426 C 0.99523 0.0893 0.572 0.0
C427 C 0.98501 0.03567 0.54995 0.0
C428 C 0.01674 0.07956 0.6348 0.0
C429 C 0.03949 0.15025 0.61496 0.0
N430 N 0.99128 0.05217 0.57782 0.0
N431 N 0.02089 0.13817 0.5921 0.0
H432 H 0.65785 0.15767 0.03727 0.0
H433 H 0.50699 0.01833 0.10657 0.0
H434 H 0.66661 0.07014 0.13628 0.0
H435 H 0.54792 0.05723 0.98658 0.0
H436 H 0.55857 0.04291 0.12233 0.0
H437 H 0.60863 0.12878 0.02302 0.0
C438 C 0.6496 0.13238 0.05602 0.0
C439 C 0.66699 0.11606 0.08776 0.0
C440 C 0.55625 0.04571 0.09259 0.0
C441 C 0.60989 0.08354 0.07197 0.0
C442 C 0.52707 0.03139 0.08345 0.0
C443 C 0.52277 0.03593 0.04511 0.0
C444 C 0.58075 0.0653 0.0633 0.0
C445 C 0.5494 0.05386 0.01657 0.0
C446 C 0.62141 0.11601 0.04785 0.0
C447 C 0.6539 0.08398 0.1117 0.0
N448 N 0.57693 0.06835 0.02629 0.0
N449 N 0.62605 0.06876 0.10333 0.0
H450 H 0.13297 0.64599 0.00781 0.0
H451 H 0.00208 0.49074 0.10735 0.0
H452 H 0.09817 0.61975 0.13063 0.0
H453 H 0.07803 0.48339 0.99859 0.0
H454 H 0.03142 0.54317 0.11392 0.0
H455 H 0.10895 0.59002 0.00154 0.0
C456 C 0.12095 0.62815 0.0335 0.0
C457 C 0.11731 0.63777 0.06981 0.0
C458 C 0.04161 0.52996 0.08867 0.0
C459 C 0.08877 0.57458 0.06262 0.0
C460 C 0.02492 0.50001 0.08488 0.0
C461 C 0.03762 0.48247 0.05239 0.0
C462 C 0.07082 0.54277 0.05957 0.0
C463 C 0.0668 0.49639 0.02383 0.0
C464 C 0.10695 0.59642 0.02984 0.0
C465 C 0.10083 0.61388 0.10202 0.0
N466 N 0.08235 0.52582 0.02804 0.0
N467 N 0.08673 0.58362 0.09764 0.0
loop_
_geom_bond_atom_site_label_1
_geom_bond_atom_site_label_2
_geom_bond_distance
_geom_bond_site_symmetry_2
_ccdc_geom_bond_type
Co0 N4 2.148 1_545 S
Co0 N10 2.128 . S
Co0 N20 2.194 . S
Co0 O25 2.351 . S
Co0 O26 2.155 . S
Co0 O27 2.096 1_455 S
C1 N4 1.301 . S
C1 N5 1.328 . S
C1 H6 0.930 . S
C2 C3 1.333 1_655 S
C2 N4 1.317 1_655 S
C2 H7 0.930 . S
C3 C2 1.333 1_455 S
C3 N5 1.350 . S
C3 H29 0.931 1_455 S
N4 Co0 2.148 1_565 S
N4 C1 1.301 . S
N4 C2 1.317 1_455 S
N5 C1 1.328 . S
N5 C3 1.350 . S
H6 C1 0.930 . S
H7 C2 0.930 . S
C8 O9 1.224 . S
C8 O27 1.247 . S
O9 C8 1.224 . S
N10 Co0 2.128 . S
N10 C11 1.355 . S
N10 C13 1.311 . S
C11 N10 1.355 . S
C11 C12 1.363 . S
C11 H23 0.929 . S
C12 C11 1.363 . S
C12 N14 1.375 . S
C12 H30 0.931 . S
C13 N10 1.311 . S
C13 N14 1.347 . S
C13 H24 0.929 1_455 S
N14 C12 1.375 . S
N14 C13 1.347 . S
C15 C18 1.365 . S
C15 N20 1.328 . S
C15 H21 0.929 1_545 S
C16 C17 1.362 1_655 S
C16 C19 1.373 . S
C16 H31 0.929 . S
C17 C16 1.362 1_455 S
C17 C18 1.366 . S
C18 C15 1.365 . S
C18 C17 1.366 . S
C18 H32 0.930 . S
C19 C16 1.373 . S
C19 N20 1.297 1_655 S
C19 H22 0.955 . S
N20 Co0 2.194 . S
N20 C15 1.328 . S
N20 C19 1.297 1_455 S
H21 C15 0.929 1_565 S
H22 C19 0.955 . S
H23 C11 0.929 . S
H24 C13 0.929 1_655 S
O25 Co0 2.351 . S
O25 C28 1.244 . S
O26 Co0 2.155 . S
O26 C28 1.240 . S
O27 Co0 2.096 1_655 S
O27 C8 1.247 . S
C28 O25 1.244 . S
C28 O26 1.240 . S
H29 C3 0.931 1_655 S
H30 C12 0.931 . S
H31 C16 0.929 . S
H32 C18 0.930 . S
Co33 N37 2.148 . S
Co33 N43 2.128 . S
Co33 N53 2.194 . S
Co33 O58 2.351 . S
Co33 O59 2.155 . S
Co33 O60 2.096 . S
C34 N37 1.301 . S
C34 N38 1.328 . S
C34 H39 0.930 . S
C35 C36 1.333 . S
C35 N37 1.317 . S
C35 H40 0.930 . S
C36 C35 1.333 . S
C36 N38 1.350 . S
C36 H62 0.931 . S
N37 Co33 2.148 . S
N37 C34 1.301 . S
N37 C35 1.317 . S
N38 C34 1.328 . S
N38 C36 1.350 . S
H39 C34 0.930 . S
H40 C35 0.930 . S
C41 O42 1.224 . S
C41 O60 1.247 . S
O42 C41 1.224 . S
N43 Co33 2.128 . S
N43 C44 1.355 . S
N43 C46 1.311 . S
C44 N43 1.355 . S
C44 C45 1.363 . S
C44 H56 0.929 . S
C45 C44 1.363 . S
C45 N47 1.375 . S
C45 H63 0.931 . S
C46 N43 1.311 . S
C46 N47 1.347 . S
C46 H57 0.929 . S
N47 C45 1.375 . S
N47 C46 1.347 . S
C48 C51 1.365 . S
C48 N53 1.328 . S
C48 H54 0.929 . S
C49 C50 1.362 . S
C49 C52 1.378 . S
C49 H64 0.929 . S
C50 C49 1.362 . S
C50 C51 1.366 . S
C51 C48 1.365 . S
C51 C50 1.366 . S
C51 H65 0.930 . S
C52 C49 1.378 . S
C52 N53 1.315 . S
C52 H55 0.930 . S
N53 Co33 2.194 . S
N53 C48 1.328 . S
N53 C52 1.315 . S
H54 C48 0.929 . S
H55 C52 0.930 . S
H56 C44 0.929 . S
H57 C46 0.929 . S
O58 Co33 2.351 . S
O58 C61 1.244 . S
O59 Co33 2.155 . S
O59 C61 1.240 . S
O60 Co33 2.096 . S
O60 C41 1.247 . S
C61 O58 1.244 . S
C61 O59 1.240 . S
H62 C36 0.931 . S
H63 C45 0.931 . S
H64 C49 0.929 . S
H65 C51 0.930 . S
Co66 N70 2.148 1_554 S
Co66 N76 2.128 . S
Co66 N86 2.194 . S
Co66 O91 2.351 1_554 S
Co66 O92 2.155 . S
Co66 O93 2.096 1_545 S
C67 N70 1.301 . S
C67 N71 1.328 . S
C67 H72 0.930 . S
C68 C69 1.333 . S
C68 N70 1.317 . S
C68 H73 0.930 1_545 S
C69 C68 1.333 . S
C69 N71 1.350 . S
C69 H95 0.931 1_545 S
N70 Co66 2.148 1_556 S
N70 C67 1.301 . S
N70 C68 1.317 . S
N71 C67 1.328 . S
N71 C69 1.350 . S
H72 C67 0.930 . S
H73 C68 0.930 1_565 S
C74 O75 1.224 . S
C74 O93 1.247 . S
O75 C74 1.224 . S
N76 Co66 2.128 . S
N76 C77 1.355 . S
N76 C79 1.311 . S
C77 N76 1.355 . S
C77 C78 1.363 . S
C77 H89 0.929 . S
C78 C77 1.363 . S
C78 N80 1.375 . S
C78 H96 0.931 . S
C79 N76 1.311 . S
C79 N80 1.347 . S
C79 H90 0.929 1_545 S
N80 C78 1.375 . S
N80 C79 1.347 . S
C81 C84 1.358 1_556 S
C81 N86 1.328 1_556 S
C81 H87 0.929 . S
C82 C83 1.362 . S
C82 C85 1.378 . S
C82 H97 0.929 1_545 S
C83 C82 1.362 . S
C83 C84 1.372 . S
C84 C81 1.358 1_554 S
C84 C83 1.372 . S
C84 H98 0.932 1_554 S
C85 C82 1.378 . S
C85 N86 1.315 . S
C85 H88 0.930 1_545 S
N86 Co66 2.194 . S
N86 C81 1.328 1_554 S
N86 C85 1.315 . S
H87 C81 0.929 . S
H88 C85 0.930 1_565 S
H89 C77 0.929 . S
H90 C79 0.929 1_565 S
O91 Co66 2.351 1_556 S
O91 C94 1.244 . S
O92 Co66 2.155 . S
O92 C94 1.240 1_554 S
O93 Co66 2.096 1_565 S
O93 C74 1.247 . S
C94 O91 1.244 . S
C94 O92 1.240 1_556 S
H95 C69 0.931 1_565 S
H96 C78 0.931 . S
H97 C82 0.929 1_565 S
H98 C84 0.932 1_556 S
Co99 N103 2.148 1_455 S
Co99 N109 2.128 . S
Co99 N119 2.194 . S
Co99 O124 2.351 . S
Co99 O125 2.155 . S
Co99 O126 2.096 1_554 S
C100 N103 1.301 . S
C100 N104 1.328 . S
C100 H105 0.930 . S
C101 C102 1.333 1_556 S
C101 N103 1.317 1_556 S
C101 H106 0.930 . S
C102 C101 1.333 1_554 S
C102 N104 1.350 . S
C102 H128 0.931 1_554 S
N103 Co99 2.148 1_655 S
N103 C100 1.301 . S
N103 C101 1.317 1_554 S
N104 C100 1.328 . S
N104 C102 1.350 . S
H105 C100 0.930 . S
H106 C101 0.930 . S
C107 O108 1.224 . S
C107 O126 1.247 . S
O108 C107 1.224 . S
N109 Co99 2.128 . S
N109 C110 1.355 . S
N109 C112 1.311 1_554 S
C110 N109 1.355 . S
C110 C111 1.363 . S
C110 H122 0.929 . S
C111 C110 1.363 . S
C111 N113 1.375 . S
C111 H129 0.931 . S
C112 N109 1.311 1_556 S
C112 N113 1.348 1_556 S
C112 H123 0.928 . S
N113 C111 1.375 . S
N113 C112 1.348 1_554 S
C114 C117 1.365 . S
C114 N119 1.328 . S
C114 H120 0.929 . S
C115 C116 1.362 1_556 S
C115 C118 1.378 . S
C115 H130 0.929 . S
C116 C115 1.362 1_554 S
C116 C117 1.366 . S
C117 C114 1.365 . S
C117 C116 1.366 . S
C117 H131 0.930 . S
C118 C115 1.378 . S
C118 N119 1.315 1_556 S
C118 H121 0.930 . S
N119 Co99 2.194 . S
N119 C114 1.328 . S
N119 C118 1.315 1_554 S
H120 C114 0.929 . S
H121 C118 0.930 . S
H122 C110 0.929 . S
H123 C112 0.928 . S
O124 Co99 2.351 . S
O124 C127 1.244 . S
O125 Co99 2.155 . S
O125 C127 1.240 . S
O126 Co99 2.096 1_556 S
O126 C107 1.247 . S
C127 O124 1.244 . S
C127 O125 1.240 . S
H128 C102 0.931 1_556 S
H129 C111 0.931 . S
H130 C115 0.929 . S
H131 C117 0.930 . S
Co132 N136 2.148 . S
Co132 N142 2.128 . S
Co132 N152 2.194 . S
Co132 O157 2.351 . S
Co132 O158 2.155 . S
Co132 O159 2.096 . S
C133 N136 1.301 . S
C133 N137 1.328 . S
C133 H138 0.930 . S
C134 C135 1.333 . S
C134 N136 1.317 . S
C134 H139 0.930 . S
C135 C134 1.333 . S
C135 N137 1.350 . S
C135 H161 0.931 . S
N136 Co132 2.148 . S
N136 C133 1.301 . S
N136 C134 1.317 . S
N137 C133 1.328 . S
N137 C135 1.350 . S
H138 C133 0.930 . S
H139 C134 0.930 . S
C140 O141 1.224 . S
C140 O159 1.247 . S
O141 C140 1.224 . S
N142 Co132 2.128 . S
N142 C143 1.355 . S
N142 C145 1.311 . S
C143 N142 1.355 . S
C143 C144 1.363 . S
C143 H155 0.929 . S
C144 C143 1.363 . S
C144 N146 1.375 . S
C144 H162 0.931 . S
C145 N142 1.311 . S
C145 N146 1.347 . S
C145 H156 0.929 . S
N146 C144 1.375 . S
N146 C145 1.347 . S
C147 C150 1.365 . S
C147 N152 1.328 . S
C147 H153 0.929 . S
C148 C149 1.362 . S
C148 C151 1.378 . S
C148 H163 0.929 . S
C149 C148 1.362 . S
C149 C150 1.366 . S
C150 C147 1.365 . S
C150 C149 1.366 . S
C150 H164 0.930 . S
C151 C148 1.378 . S
C151 N152 1.315 . S
C151 H154 0.930 . S
N152 Co132 2.194 . S
N152 C147 1.328 . S
N152 C151 1.315 . S
H153 C147 0.929 . S
H154 C151 0.930 . S
H155 C143 0.929 . S
H156 C145 0.929 . S
O157 Co132 2.351 . S
O157 C160 1.244 . S
O158 Co132 2.155 . S
O158 C160 1.240 . S
O159 Co132 2.096 . S
O159 C140 1.247 . S
C160 O157 1.244 . S
C160 O158 1.240 . S
H161 C135 0.931 . S
H162 C144 0.931 . S
H163 C148 0.929 . S
H164 C150 0.930 . S
Co165 N169 2.148 . S
Co165 N175 2.128 . S
Co165 N185 2.194 . S
Co165 O190 2.351 . S
Co165 O191 2.155 . S
Co165 O192 2.096 . S
C166 N169 1.301 . S
C166 N170 1.328 . S
C166 H171 0.930 . S
C167 C168 1.333 . S
C167 N169 1.317 . S
C167 H172 0.930 . S
C168 C167 1.333 . S
C168 N170 1.350 . S
C168 H194 0.931 . S
N169 Co165 2.148 . S
N169 C166 1.301 . S
N169 C167 1.317 . S
N170 C166 1.328 . S
N170 C168 1.350 . S
H171 C166 0.930 . S
H172 C167 0.930 . S
C173 O174 1.224 . S
C173 O192 1.247 . S
O174 C173 1.224 . S
N175 Co165 2.128 . S
N175 C176 1.355 . S
N175 C178 1.311 . S
C176 N175 1.355 . S
C176 C177 1.363 . S
C176 H188 0.929 . S
C177 C176 1.363 . S
C177 N179 1.375 1_554 S
C177 H195 0.931 1_554 S
C178 N175 1.311 . S
C178 N179 1.347 1_554 S
C178 H189 0.929 . S
N179 C177 1.375 1_556 S
N179 C178 1.347 1_556 S
C180 C183 1.365 . S
C180 N185 1.328 . S
C180 H186 0.929 . S
C181 C182 1.362 . S
C181 C184 1.378 . S
C181 H196 0.929 . S
C182 C181 1.362 . S
C182 C183 1.366 . S
C183 C180 1.365 . S
C183 C182 1.366 . S
C183 H197 0.930 . S
C184 C181 1.378 . S
C184 N185 1.315 . S
C184 H187 0.930 . S
N185 Co165 2.194 . S
N185 C180 1.328 . S
N185 C184 1.315 . S
H186 C180 0.929 . S
H187 C184 0.930 . S
H188 C176 0.929 . S
H189 C178 0.929 . S
O190 Co165 2.351 . S
O190 C193 1.244 . S
O191 Co165 2.155 . S
O191 C193 1.240 . S
O192 Co165 2.096 . S
O192 C173 1.247 . S
C193 O190 1.244 . S
C193 O191 1.240 . S
H194 C168 0.931 . S
H195 C177 0.931 1_556 S
H196 C181 0.929 . S
H197 C183 0.930 . S
H198 C204 0.930 . S
H199 C208 0.930 . S
H200 C213 0.929 . S
H201 C211 0.929 . S
H202 C206 0.929 . S
H203 C212 0.929 . S
C204 H198 0.930 . S
C204 C205 1.367 1_655 S
C204 C212 1.378 . S
C205 C204 1.367 1_455 S
C205 C213 1.433 . S
C206 H202 0.929 . S
C206 C208 1.378 . S
C206 C210 1.350 . S
C207 C210 1.463 . S
C207 C212 1.350 1_455 S
C207 N215 1.427 . S
C208 H199 0.930 . S
C208 C206 1.378 . S
C208 C209 1.369 . S
C209 C208 1.369 . S
C209 C211 1.431 1_455 S
C210 C206 1.350 . S
C210 C207 1.463 . S
C210 N214 1.427 1_455 S
C211 H201 0.929 . S
C211 C209 1.431 1_655 S
C211 N214 1.384 . S
C212 H203 0.929 . S
C212 C204 1.378 . S
C212 C207 1.350 1_655 S
C213 H200 0.929 . S
C213 C205 1.433 . S
C213 N215 1.384 . S
N214 C210 1.427 1_655 S
N214 C211 1.384 . S
N215 C207 1.427 . S
N215 C213 1.384 . S
H216 C222 0.930 . S
H217 C226 0.930 . S
H218 C231 0.929 . S
H219 C229 0.929 . S
H220 C224 0.929 . S
H221 C230 0.929 . S
C222 H216 0.930 . S
C222 C223 1.367 . S
C222 C230 1.378 . S
C223 C222 1.367 . S
C223 C231 1.433 . S
C224 H220 0.929 . S
C224 C226 1.378 . S
C224 C228 1.350 . S
C225 C228 1.463 . S
C225 C230 1.350 . S
C225 N233 1.427 . S
C226 H217 0.930 . S
C226 C224 1.378 . S
C226 C227 1.367 . S
C227 C226 1.367 . S
C227 C229 1.433 . S
C228 C224 1.350 . S
C228 C225 1.463 . S
C228 N232 1.427 . S
C229 H219 0.929 . S
C229 C227 1.433 . S
C229 N232 1.384 . S
C230 H221 0.929 . S
C230 C222 1.378 . S
C230 C225 1.350 . S
C231 H218 0.929 . S
C231 C223 1.433 . S
C231 N233 1.384 . S
N232 C228 1.427 . S
N232 C229 1.384 . S
N233 C225 1.427 . S
N233 C231 1.384 . S
H234 C240 0.930 1_655 S
H235 C244 0.930 . S
H236 C249 0.929 . S
H237 C247 0.929 . S
H238 C242 0.929 . S
H239 C248 0.929 . S
C240 H234 0.930 1_455 S
C240 C241 1.367 . S
C240 C248 1.378 . S
C241 C240 1.367 . S
C241 C249 1.433 . S
C242 H238 0.929 . S
C242 C244 1.378 . S
C242 C246 1.350 . S
C243 C246 1.463 . S
C243 C248 1.350 . S
C243 N251 1.427 . S
C244 H235 0.930 . S
C244 C242 1.378 . S
C244 C245 1.367 . S
C245 C244 1.367 . S
C245 C247 1.433 . S
C246 C242 1.350 . S
C246 C243 1.463 . S
C246 N250 1.427 . S
C247 H237 0.929 . S
C247 C245 1.433 . S
C247 N250 1.384 . S
C248 H239 0.929 . S
C248 C240 1.378 . S
C248 C243 1.350 . S
C249 H236 0.929 . S
C249 C241 1.433 . S
C249 N251 1.384 . S
N250 C246 1.427 . S
N250 C247 1.384 . S
N251 C243 1.427 . S
N251 C249 1.384 . S
H252 C258 0.930 . S
H253 C262 0.930 . S
H254 C267 0.929 . S
H255 C265 0.929 . S
H256 C260 0.929 . S
H257 C266 0.929 . S
C258 H252 0.930 . S
C258 C259 1.367 1_565 S
C258 C266 1.378 . S
C259 C258 1.367 1_545 S
C259 C267 1.433 . S
C260 H256 0.929 . S
C260 C262 1.378 . S
C260 C264 1.350 . S
C261 C264 1.462 . S
C261 C266 1.340 1_545 S
C261 N269 1.438 . S
C262 H253 0.930 . S
C262 C260 1.378 . S
C262 C263 1.367 . S
C263 C262 1.367 . S
C263 C265 1.433 1_545 S
C264 C260 1.350 . S
C264 C261 1.462 . S
C264 N268 1.427 1_545 S
C265 H255 0.929 . S
C265 C263 1.433 1_565 S
C265 N268 1.384 . S
C266 H257 0.929 . S
C266 C258 1.378 . S
C266 C261 1.340 1_565 S
C267 H254 0.929 . S
C267 C259 1.433 . S
C267 N269 1.384 . S
N268 C264 1.427 1_565 S
N268 C265 1.384 . S
N269 C261 1.438 . S
N269 C267 1.384 . S
H270 C276 0.930 . S
H271 C280 0.930 . S
H272 C285 0.929 1_554 S
H273 C283 0.929 . S
H274 C278 0.929 . S
H275 C284 0.929 . S
C276 H270 0.930 . S
C276 C277 1.367 . S
C276 C284 1.378 . S
C277 C276 1.367 . S
C277 C285 1.433 . S
C278 H274 0.929 . S
C278 C280 1.378 1_565 S
C278 C282 1.350 . S
C279 C282 1.463 . S
C279 C284 1.350 . S
C279 N287 1.427 . S
C280 H271 0.930 . S
C280 C278 1.378 1_545 S
C280 C281 1.367 . S
C281 C280 1.367 . S
C281 C283 1.433 1_545 S
C282 C278 1.350 . S
C282 C279 1.463 . S
C282 N286 1.427 . S
C283 H273 0.929 . S
C283 C281 1.433 1_565 S
C283 N286 1.384 . S
C284 H275 0.929 . S
C284 C276 1.378 . S
C284 C279 1.350 . S
C285 H272 0.929 1_556 S
C285 C277 1.433 . S
C285 N287 1.384 . S
N286 C282 1.427 . S
N286 C283 1.384 . S
N287 C279 1.427 . S
N287 C285 1.384 . S
H288 C294 0.930 . S
H289 C298 0.930 . S
H290 C303 0.929 . S
H291 C301 0.929 . S
H292 C296 0.929 . S
H293 C302 0.929 . S
C294 H288 0.930 . S
C294 C295 1.367 . S
C294 C302 1.378 . S
C295 C294 1.367 . S
C295 C303 1.433 . S
C296 H292 0.929 . S
C296 C298 1.378 . S
C296 C300 1.350 . S
C297 C300 1.463 . S
C297 C302 1.350 . S
C297 N305 1.427 . S
C298 H289 0.930 . S
C298 C296 1.378 . S
C298 C299 1.367 . S
C299 C298 1.367 . S
C299 C301 1.433 . S
C300 C296 1.350 . S
C300 C297 1.463 . S
C300 N304 1.427 . S
C301 H291 0.929 . S
C301 C299 1.433 . S
C301 N304 1.384 . S
C302 H293 0.929 . S
C302 C294 1.378 . S
C302 C297 1.350 . S
C303 H290 0.929 . S
C303 C295 1.433 . S
C303 N305 1.384 . S
N304 C300 1.427 . S
N304 C301 1.384 . S
N305 C297 1.427 . S
N305 C303 1.384 . S
H306 C312 0.930 . S
H307 C316 0.930 . S
H308 C321 0.929 . S
H309 C319 0.929 . S
H310 C314 0.929 . S
H311 C320 0.929 . S
C312 H306 0.930 . S
C312 C313 1.367 . S
C312 C320 1.378 . S
C313 C312 1.367 . S
C313 C321 1.433 . S
C314 H310 0.929 . S
C314 C316 1.378 . S
C314 C318 1.350 . S
C315 C318 1.463 . S
C315 C320 1.350 . S
C315 N323 1.427 . S
C316 H307 0.930 . S
C316 C314 1.378 . S
C316 C317 1.367 . S
C317 C316 1.367 . S
C317 C319 1.433 . S
C318 C314 1.350 . S
C318 C315 1.463 . S
C318 N322 1.427 . S
C319 H309 0.929 . S
C319 C317 1.433 . S
C319 N322 1.384 . S
C320 H311 0.929 . S
C320 C312 1.378 . S
C320 C315 1.350 . S
C321 H308 0.929 . S
C321 C313 1.433 . S
C321 N323 1.384 . S
N322 C318 1.427 . S
N322 C319 1.384 . S
N323 C315 1.427 . S
N323 C321 1.384 . S
H324 C330 0.930 . S
H325 C334 0.930 . S
H326 C339 0.929 1_554 S
H327 C337 0.929 . S
H328 C332 0.929 . S
H329 C338 0.929 . S
C330 H324 0.930 . S
C330 C331 1.367 . S
C330 C338 1.378 . S
C331 C330 1.367 . S
C331 C339 1.433 . S
C332 H328 0.929 . S
C332 C334 1.378 1_655 S
C332 C336 1.350 . S
C333 C336 1.463 . S
C333 C338 1.350 . S
C333 N341 1.427 . S
C334 H325 0.930 . S
C334 C332 1.378 1_455 S
C334 C335 1.367 1_455 S
C335 C334 1.367 1_655 S
C335 C337 1.433 . S
C336 C332 1.350 . S
C336 C333 1.463 . S
C336 N340 1.427 . S
C337 H327 0.929 . S
C337 C335 1.433 . S
C337 N340 1.384 . S
C338 H329 0.929 . S
C338 C330 1.378 . S
C338 C333 1.350 . S
C339 H326 0.929 1_556 S
C339 C331 1.433 . S
C339 N341 1.384 . S
N340 C336 1.427 . S
N340 C337 1.384 . S
N341 C333 1.427 . S
N341 C339 1.384 . S
H342 C348 0.930 . S
H343 C352 0.930 . S
H344 C357 0.929 . S
H345 C355 0.929 . S
H346 C350 0.929 . S
H347 C356 0.929 . S
C348 H342 0.930 . S
C348 C349 1.367 . S
C348 C356 1.378 . S
C349 C348 1.367 . S
C349 C357 1.433 1_556 S
C350 H346 0.929 . S
C350 C352 1.378 . S
C350 C354 1.350 1_554 S
C351 C354 1.463 . S
C351 C356 1.350 . S
C351 N359 1.427 1_556 S
C352 H343 0.930 . S
C352 C350 1.378 . S
C352 C353 1.367 1_554 S
C353 C352 1.367 1_556 S
C353 C355 1.433 . S
C354 C350 1.350 1_556 S
C354 C351 1.463 . S
C354 N358 1.427 . S
C355 H345 0.929 . S
C355 C353 1.433 . S
C355 N358 1.384 . S
C356 H347 0.929 . S
C356 C348 1.378 . S
C356 C351 1.350 . S
C357 H344 0.929 . S
C357 C349 1.433 1_554 S
C357 N359 1.384 . S
N358 C354 1.427 . S
N358 C355 1.384 . S
N359 C351 1.427 1_554 S
N359 C357 1.384 . S
H360 C366 0.930 . S
H361 C370 0.930 . S
H362 C375 0.929 1_556 S
H363 C373 0.929 . S
H364 C368 0.929 . S
H365 C374 0.929 . S
C366 H360 0.930 . S
C366 C367 1.367 . S
C366 C374 1.378 . S
C367 C366 1.367 . S
C367 C375 1.433 . S
C368 H364 0.929 . S
C368 C370 1.378 . S
C368 C372 1.350 . S
C369 C372 1.463 . S
C369 C374 1.350 . S
C369 N377 1.427 . S
C370 H361 0.930 . S
C370 C368 1.378 . S
C370 C371 1.367 . S
C371 C370 1.367 . S
C371 C373 1.433 . S
C372 C368 1.350 . S
C372 C369 1.463 . S
C372 N376 1.427 . S
C373 H363 0.929 . S
C373 C371 1.433 . S
C373 N376 1.384 . S
C374 H365 0.929 . S
C374 C366 1.378 . S
C374 C369 1.350 . S
C375 H362 0.929 1_554 S
C375 C367 1.433 . S
C375 N377 1.384 . S
N376 C372 1.427 . S
N376 C373 1.384 . S
N377 C369 1.427 . S
N377 C375 1.384 . S
H378 C384 0.930 . S
H379 C388 0.930 . S
H380 C393 0.929 . S
H381 C391 0.929 . S
H382 C386 0.929 . S
H383 C392 0.929 . S
C384 H378 0.930 . S
C384 C385 1.367 . S
C384 C392 1.378 . S
C385 C384 1.367 . S
C385 C393 1.433 . S
C386 H382 0.929 . S
C386 C388 1.378 . S
C386 C390 1.350 . S
C387 C390 1.463 . S
C387 C392 1.350 . S
C387 N395 1.427 . S
C388 H379 0.930 . S
C388 C386 1.378 . S
C388 C389 1.367 . S
C389 C388 1.367 . S
C389 C391 1.433 . S
C390 C386 1.350 . S
C390 C387 1.463 . S
C390 N394 1.427 . S
C391 H381 0.929 . S
C391 C389 1.433 . S
C391 N394 1.384 . S
C392 H383 0.929 . S
C392 C384 1.378 . S
C392 C387 1.350 . S
C393 H380 0.929 . S
C393 C385 1.433 . S
C393 N395 1.384 . S
N394 C390 1.427 . S
N394 C391 1.384 . S
N395 C387 1.427 . S
N395 C393 1.384 . S
H396 C402 0.930 1_455 S
H397 C406 0.930 1_545 S
H398 C411 0.929 . S
H399 C409 0.929 . S
H400 C404 0.929 . S
H401 C410 0.929 . S
C402 H396 0.930 1_655 S
C402 C403 1.367 1_655 S
C402 C410 1.378 . S
C403 C402 1.367 1_455 S
C403 C411 1.433 . S
C404 H400 0.929 . S
C404 C406 1.378 . S
C404 C408 1.350 . S
C405 C408 1.463 . S
C405 C410 1.350 . S
C405 N413 1.427 . S
C406 H397 0.930 1_565 S
C406 C404 1.378 . S
C406 C407 1.367 . S
C407 C406 1.367 . S
C407 C409 1.433 . S
C408 C404 1.350 . S
C408 C405 1.463 . S
C408 N412 1.427 . S
C409 H399 0.929 . S
C409 C407 1.433 . S
C409 N412 1.384 . S
C410 H401 0.929 . S
C410 C402 1.378 . S
C410 C405 1.350 . S
C411 H398 0.929 . S
C411 C403 1.433 . S
C411 N413 1.384 1_455 S
N412 C408 1.427 . S
N412 C409 1.384 . S
N413 C405 1.427 . S
N413 C411 1.384 1_655 S
H414 C420 0.930 . S
H415 C424 0.930 . S
H416 C429 0.929 . S
H417 C427 0.929 1_655 S
H418 C422 0.929 . S
H419 C428 0.929 . S
C420 H414 0.930 . S
C420 C421 1.367 . S
C420 C428 1.378 . S
C421 C420 1.367 . S
C421 C429 1.433 . S
C422 H418 0.929 . S
C422 C424 1.378 . S
C422 C426 1.350 . S
C423 C426 1.463 . S
C423 C428 1.350 . S
C423 N431 1.427 . S
C424 H415 0.930 . S
C424 C422 1.378 . S
C424 C425 1.367 . S
C425 C424 1.367 . S
C425 C427 1.433 . S
C426 C422 1.350 . S
C426 C423 1.463 . S
C426 N430 1.427 . S
C427 H417 0.929 1_455 S
C427 C425 1.433 . S
C427 N430 1.384 . S
C428 H419 0.929 . S
C428 C420 1.378 . S
C428 C423 1.350 . S
C429 H416 0.929 . S
C429 C421 1.433 . S
C429 N431 1.384 . S
N430 C426 1.427 . S
N430 C427 1.384 . S
N431 C423 1.427 . S
N431 C429 1.384 . S
H432 C438 0.930 . S
H433 C442 0.930 1_565 S
H434 C447 0.929 . S
H435 C445 0.929 1_556 S
H436 C440 0.929 . S
H437 C446 0.929 . S
C438 H432 0.930 . S
C438 C439 1.367 . S
C438 C446 1.378 . S
C439 C438 1.367 . S
C439 C447 1.433 . S
C440 H436 0.929 . S
C440 C442 1.378 . S
C440 C444 1.350 . S
C441 C444 1.463 . S
C441 C446 1.350 . S
C441 N449 1.427 . S
C442 H433 0.930 1_545 S
C442 C440 1.378 . S
C442 C443 1.367 . S
C443 C442 1.367 . S
C443 C445 1.433 . S
C444 C440 1.350 . S
C444 C441 1.463 . S
C444 N448 1.427 . S
C445 H435 0.929 1_554 S
C445 C443 1.433 . S
C445 N448 1.384 . S
C446 H437 0.929 . S
C446 C438 1.378 . S
C446 C441 1.350 . S
C447 H434 0.929 . S
C447 C439 1.433 . S
C447 N449 1.384 . S
N448 C444 1.427 . S
N448 C445 1.384 . S
N449 C441 1.427 . S
N449 C447 1.384 . S
H450 C456 0.930 . S
H451 C460 0.930 . S
H452 C465 0.929 . S
H453 C463 0.929 1_556 S
H454 C458 0.929 . S
H455 C464 0.929 . S
C456 H450 0.930 . S
C456 C457 1.367 . S
C456 C464 1.378 . S
C457 C456 1.367 . S
C457 C465 1.433 . S
C458 H454 0.929 . S
C458 C460 1.378 . S
C458 C462 1.350 . S
C459 C462 1.463 . S
C459 C464 1.350 . S
C459 N467 1.427 . S
C460 H451 0.930 . S
C460 C458 1.378 . S
C460 C461 1.367 . S
C461 C460 1.367 . S
C461 C463 1.433 . S
C462 C458 1.350 . S
C462 C459 1.463 . S
C462 N466 1.427 . S
C463 H453 0.929 1_554 S
C463 C461 1.433 . S
C463 N466 1.384 . S
C464 H455 0.929 . S
C464 C456 1.378 . S
C464 C459 1.350 . S
C465 H452 0.929 . S
C465 C457 1.433 . S
C465 N467 1.384 . S
N466 C462 1.427 . S
N466 C463 1.384 . S
N467 C459 1.427 . S
N467 C465 1.384 . S
C205 C127 1.528 . S
C209 N14 1.404 . S
C223 C140 0.810 . S
C227 C8 0.793 . S
C241 N5 0.645 . S
C245 N170 0.629 . S
C259 N80 1.431 . S
C263 C28 1.536 . S
C277 N179 1.462 . S
C281 C41 1.575 . S
C295 N71 0.628 . S
C299 N47 0.511 . S
C313 C61 0.802 . S
C317 C107 0.785 . S
C331 C160 1.512 1_556 S
C335 N38 1.269 1_655 S
C349 C94 1.511 . S
C353 N113 1.397 1_556 S
C367 C74 0.672 . S
C371 C173 0.682 . S
C385 N137 0.635 . S
C389 N104 0.672 . S
C403 C193 1.549 . S
C407 N146 1.440 1_565 S
C421 C50 1.181 . S
C425 C17 1.202 . S
C439 C149 1.069 . S
C443 C83 1.071 . S
C457 C182 1.074 . S
C461 C116 1.073 . S
